# Generated by pormake.
# Topology why, (6)-cn, num edge types: 1
# Building blocks:
#     Node 0, Type 0, BuildingBlock: BETFAJ_clean_sbu_0, # of connection points: 6
#     Node 1, Type 0, BuildingBlock: BETFAJ_clean_sbu_0, # of connection points: 6
#     Node 2, Type 0, BuildingBlock: BETFAJ_clean_sbu_0, # of connection points: 6
#     Node 3, Type 0, BuildingBlock: BETFAJ_clean_sbu_0, # of connection points: 6
#     Node 4, Type 0, BuildingBlock: BETFAJ_clean_sbu_0, # of connection points: 6
#     Node 5, Type 0, BuildingBlock: BETFAJ_clean_sbu_0, # of connection points: 6
#     Node 6, Type 0, BuildingBlock: BETFAJ_clean_sbu_0, # of connection points: 6
#     Node 7, Type 0, BuildingBlock: BETFAJ_clean_sbu_0, # of connection points: 6
#     Node 8, Type 0, BuildingBlock: BETFAJ_clean_sbu_0, # of connection points: 6
#     Node 9, Type 0, BuildingBlock: BETFAJ_clean_sbu_0, # of connection points: 6
#     Node 10, Type 0, BuildingBlock: BETFAJ_clean_sbu_0, # of connection points: 6
#     Node 11, Type 0, BuildingBlock: BETFAJ_clean_sbu_0, # of connection points: 6
#     Node 12, Type 0, BuildingBlock: BETFAJ_clean_sbu_0, # of connection points: 6
#     Node 13, Type 0, BuildingBlock: BETFAJ_clean_sbu_0, # of connection points: 6
#     Node 14, Type 0, BuildingBlock: BETFAJ_clean_sbu_0, # of connection points: 6
#     Node 15, Type 0, BuildingBlock: BETFAJ_clean_sbu_0, # of connection points: 6
#     Edge 16, Type (0, 0), BuildingBlock: OJICUG_clean_linker_0, # of connection points: 2
#     Edge 17, Type (0, 0), BuildingBlock: OJICUG_clean_linker_0, # of connection points: 2
#     Edge 18, Type (0, 0), BuildingBlock: OJICUG_clean_linker_0, # of connection points: 2
#     Edge 19, Type (0, 0), BuildingBlock: OJICUG_clean_linker_0, # of connection points: 2
#     Edge 20, Type (0, 0), BuildingBlock: OJICUG_clean_linker_0, # of connection points: 2
#     Edge 21, Type (0, 0), BuildingBlock: OJICUG_clean_linker_0, # of connection points: 2
#     Edge 22, Type (0, 0), BuildingBlock: OJICUG_clean_linker_0, # of connection points: 2
#     Edge 23, Type (0, 0), BuildingBlock: OJICUG_clean_linker_0, # of connection points: 2
#     Edge 24, Type (0, 0), BuildingBlock: OJICUG_clean_linker_0, # of connection points: 2
#     Edge 25, Type (0, 0), BuildingBlock: OJICUG_clean_linker_0, # of connection points: 2
#     Edge 26, Type (0, 0), BuildingBlock: OJICUG_clean_linker_0, # of connection points: 2
#     Edge 27, Type (0, 0), BuildingBlock: OJICUG_clean_linker_0, # of connection points: 2
#     Edge 28, Type (0, 0), BuildingBlock: OJICUG_clean_linker_0, # of connection points: 2
#     Edge 29, Type (0, 0), BuildingBlock: OJICUG_clean_linker_0, # of connection points: 2
#     Edge 30, Type (0, 0), BuildingBlock: OJICUG_clean_linker_0, # of connection points: 2
#     Edge 31, Type (0, 0), BuildingBlock: OJICUG_clean_linker_0, # of connection points: 2
#     Edge 32, Type (0, 0), BuildingBlock: OJICUG_clean_linker_0, # of connection points: 2
#     Edge 33, Type (0, 0), BuildingBlock: OJICUG_clean_linker_0, # of connection points: 2
#     Edge 34, Type (0, 0), BuildingBlock: OJICUG_clean_linker_0, # of connection points: 2
#     Edge 35, Type (0, 0), BuildingBlock: OJICUG_clean_linker_0, # of connection points: 2
#     Edge 36, Type (0, 0), BuildingBlock: OJICUG_clean_linker_0, # of connection points: 2
#     Edge 37, Type (0, 0), BuildingBlock: OJICUG_clean_linker_0, # of connection points: 2
#     Edge 38, Type (0, 0), BuildingBlock: OJICUG_clean_linker_0, # of connection points: 2
#     Edge 39, Type (0, 0), BuildingBlock: OJICUG_clean_linker_0, # of connection points: 2
#     Edge 40, Type (0, 0), BuildingBlock: OJICUG_clean_linker_0, # of connection points: 2
#     Edge 41, Type (0, 0), BuildingBlock: OJICUG_clean_linker_0, # of connection points: 2
#     Edge 42, Type (0, 0), BuildingBlock: OJICUG_clean_linker_0, # of connection points: 2
#     Edge 43, Type (0, 0), BuildingBlock: OJICUG_clean_linker_0, # of connection points: 2
#     Edge 44, Type (0, 0), BuildingBlock: OJICUG_clean_linker_0, # of connection points: 2
#     Edge 45, Type (0, 0), BuildingBlock: OJICUG_clean_linker_0, # of connection points: 2
#     Edge 46, Type (0, 0), BuildingBlock: OJICUG_clean_linker_0, # of connection points: 2
#     Edge 47, Type (0, 0), BuildingBlock: OJICUG_clean_linker_0, # of connection points: 2
#     Edge 48, Type (0, 0), BuildingBlock: OJICUG_clean_linker_0, # of connection points: 2
#     Edge 49, Type (0, 0), BuildingBlock: OJICUG_clean_linker_0, # of connection points: 2
#     Edge 50, Type (0, 0), BuildingBlock: OJICUG_clean_linker_0, # of connection points: 2
#     Edge 51, Type (0, 0), BuildingBlock: OJICUG_clean_linker_0, # of connection points: 2
#     Edge 52, Type (0, 0), BuildingBlock: OJICUG_clean_linker_0, # of connection points: 2
#     Edge 53, Type (0, 0), BuildingBlock: OJICUG_clean_linker_0, # of connection points: 2
#     Edge 54, Type (0, 0), BuildingBlock: OJICUG_clean_linker_0, # of connection points: 2
#     Edge 55, Type (0, 0), BuildingBlock: OJICUG_clean_linker_0, # of connection points: 2
#     Edge 56, Type (0, 0), BuildingBlock: OJICUG_clean_linker_0, # of connection points: 2
#     Edge 57, Type (0, 0), BuildingBlock: OJICUG_clean_linker_0, # of connection points: 2
#     Edge 58, Type (0, 0), BuildingBlock: OJICUG_clean_linker_0, # of connection points: 2
#     Edge 59, Type (0, 0), BuildingBlock: OJICUG_clean_linker_0, # of connection points: 2
#     Edge 60, Type (0, 0), BuildingBlock: OJICUG_clean_linker_0, # of connection points: 2
#     Edge 61, Type (0, 0), BuildingBlock: OJICUG_clean_linker_0, # of connection points: 2
#     Edge 62, Type (0, 0), BuildingBlock: OJICUG_clean_linker_0, # of connection points: 2
#     Edge 63, Type (0, 0), BuildingBlock: OJICUG_clean_linker_0, # of connection points: 2
# Relax obj value: 0.555
# Max RMSD: 0.255
# Mean RMSD: 0.255
data_MOF--net-why--node1-BETFAJ_clean_sbu_0--edge1-OJICUG_clean_linker_0
_symmetry_space_group_name_H-M    P1
_symmetry_Int_Tables_number       1
_symmetry_cell_setting            triclinic
loop_
_symmetry_equiv_pos_as_xyz
'x, y, z'
_cell_length_a     38.466508
_cell_length_b     38.474348
_cell_length_c     31.552373
_cell_angle_alpha  90.171807
_cell_angle_beta   90.182752
_cell_angle_gamma 89.846188
loop_
_atom_site_label
_atom_site_type_symbol
_atom_site_fract_x
_atom_site_fract_y
_atom_site_fract_z
_atom_type_partial_charge
Sm0 Sm 0.49398 0.22088 0.06084 0.0
Sm1 Sm 0.46074 0.25389 0.09921 0.0
C2 C 0.52765 0.18157 1.00529 0.0
C3 C 0.54574 0.18806 0.96507 0.0
C4 C 0.57251 0.21276 0.96235 0.0
C5 C 0.58959 0.21828 0.92401 0.0
C6 C 0.58003 0.19945 0.88759 0.0
C7 C 0.55255 0.17547 0.89022 0.0
C8 C 0.53573 0.1697 0.92865 0.0
C9 C 0.48226 0.1767 0.13781 0.0
C10 C 0.54142 0.29418 0.08791 0.0
C11 C 0.44081 0.27171 0.17599 0.0
C12 C 0.41932 0.25323 0.20668 0.0
C13 C 0.41772 0.26487 0.24856 0.0
C14 C 0.39204 0.25215 0.27541 0.0
C15 C 0.36729 0.22807 0.26034 0.0
C16 C 0.3717 0.21348 0.21987 0.0
C17 C 0.39769 0.22596 0.19319 0.0
C18 C 0.4594 0.29422 0.02965 0.0
C19 C 0.40901 0.2285 0.02026 0.0
O20 O 0.49401 0.18555 1.0048 0.0
O21 O 0.54196 0.19418 0.03949 0.0
O22 O 0.46011 0.19231 0.11284 0.0
O23 O 0.51141 0.19037 0.12512 0.0
O24 O 0.54336 0.26326 0.06793 0.0
O25 O 0.50951 0.29737 0.10504 0.0
O26 O 0.47127 0.25794 0.16835 0.0
O27 O 0.42446 0.28164 0.14171 0.0
O28 O 0.48652 0.27726 0.04081 0.0
O29 O 0.43317 0.29063 0.0552 0.0
O30 O 0.40705 0.24147 0.0596 0.0
O31 O 0.44207 0.21875 0.01179 0.0
H32 H 0.58056 0.22761 0.98989 0.0
H33 H 0.61087 0.23663 0.92324 0.0
H34 H 0.54408 0.161 0.86258 0.0
H35 H 0.51489 0.15084 0.92996 0.0
H36 H 0.43459 0.28556 0.25954 0.0
H37 H 0.38925 0.26422 0.30628 0.0
H38 H 0.35306 0.19495 0.20752 0.0
H39 H 0.39913 0.21625 0.16097 0.0
Sm40 Sm 0.73546 0.74597 0.31048 0.0
Sm41 Sm 0.70157 0.71301 0.34893 0.0
C42 C 0.77565 0.77972 0.25632 0.0
C43 C 0.76935 0.79767 0.21631 0.0
C44 C 0.73657 0.79613 0.19675 0.0
C45 C 0.73042 0.81411 0.15907 0.0
C46 C 0.75703 0.83381 0.14055 0.0
C47 C 0.78973 0.83543 0.16064 0.0
C48 C 0.79582 0.81744 0.19824 0.0
C49 C 0.77887 0.73457 0.38833 0.0
C50 C 0.66186 0.79371 0.33715 0.0
C51 C 0.68303 0.68984 0.42386 0.0
C52 C 0.69884 0.66324 0.45141 0.0
C53 C 0.71185 0.67205 0.49159 0.0
C54 C 0.7237 0.64607 0.51907 0.0
C55 C 0.72171 0.61073 0.50722 0.0
C56 C 0.71212 0.60273 0.46516 0.0
C57 C 0.70095 0.6286 0.43768 0.0
C58 C 0.66248 0.71202 0.27804 0.0
C59 C 0.72758 0.66099 0.27016 0.0
O60 O 0.77155 0.74612 0.25565 0.0
O61 O 0.76164 0.79421 0.28946 0.0
O62 O 0.76321 0.71226 0.36356 0.0
O63 O 0.76552 0.76374 0.37496 0.0
O64 O 0.69241 0.79512 0.31641 0.0
O65 O 0.65897 0.76231 0.35548 0.0
O66 O 0.70047 0.71871 0.41924 0.0
O67 O 0.6694 0.67861 0.38846 0.0
O68 O 0.67909 0.7391 0.2899 0.0
O69 O 0.66607 0.68563 0.30337 0.0
O70 O 0.71323 0.65957 0.30872 0.0
O71 O 0.73877 0.69361 0.26212 0.0
H72 H 0.71582 0.78105 0.2107 0.0
H73 H 0.70509 0.81222 0.14416 0.0
H74 H 0.81054 0.85091 0.14752 0.0
H75 H 0.82111 0.81914 0.21332 0.0
H76 H 0.71162 0.69882 0.50233 0.0
H77 H 0.73215 0.65357 0.55053 0.0
H78 H 0.71001 0.57621 0.454 0.0
H79 H 0.69225 0.62097 0.40633 0.0
Sm80 Sm 0.21041 0.98709 0.55938 0.0
Sm81 Sm 0.2428 0.95347 0.60052 0.0
C82 C 0.17673 1.02717 0.50458 0.0
C83 C 0.15868 1.02125 0.46441 0.0
C84 C 0.16027 0.98867 0.44442 0.0
C85 C 0.14238 0.983 0.40645 0.0
C86 C 0.12269 1.00987 0.38805 0.0
C87 C 0.12113 1.04241 0.40849 0.0
C88 C 0.13903 1.04803 0.44638 0.0
C89 C 0.22126 1.03101 0.63735 0.0
C90 C 0.16203 0.91442 0.58766 0.0
C91 C 0.26765 0.93573 0.67524 0.0
C92 C 0.29557 0.95112 0.70126 0.0
C93 C 0.28799 0.96751 0.73996 0.0
C94 C 0.3149 0.97963 0.76599 0.0
C95 C 0.34989 0.97474 0.75418 0.0
C96 C 0.3569 0.96134 0.71345 0.0
C97 C 0.33015 0.94975 0.68742 0.0
C98 C 0.24396 0.91335 0.53006 0.0
C99 C 0.29528 0.97856 0.52103 0.0
O100 O 0.21032 1.0226 0.50404 0.0
O101 O 0.16215 1.01343 0.53773 0.0
O102 O 0.24365 1.01505 0.61313 0.0
O103 O 0.19216 1.01768 0.62351 0.0
O104 O 0.16321 0.94179 0.56108 0.0
O105 O 0.19116 0.91441 0.6115 0.0
O106 O 0.23935 0.95426 0.67098 0.0
O107 O 0.27723 0.92075 0.64 0.0
O108 O 0.21698 0.93017 0.54158 0.0
O109 O 0.27023 0.91707 0.55565 0.0
O110 O 0.2963 0.96449 0.55988 0.0
O111 O 0.26286 0.98997 0.51213 0.0
H112 H 0.1753 0.96769 0.45824 0.0
H113 H 0.14428 0.95777 0.39129 0.0
H114 H 0.10567 1.06342 0.39549 0.0
H115 H 0.13736 1.07321 0.46175 0.0
H116 H 0.26137 0.96985 0.75075 0.0
H117 H 0.3083 0.99073 0.7965 0.0
H118 H 0.38317 0.95675 0.70263 0.0
H119 H 0.33693 0.9382 0.65719 0.0
Sm120 Sm 0.96783 0.46259 0.80981 0.0
Sm121 Sm 1.00166 0.49557 0.84868 0.0
C122 C 0.92769 0.42877 0.75507 0.0
C123 C 0.93379 0.41054 0.7151 0.0
C124 C 0.9666 0.41147 0.6958 0.0
C125 C 0.97247 0.39317 0.65817 0.0
C126 C 0.94556 0.37375 0.63946 0.0
C127 C 0.91285 0.37277 0.65931 0.0
C128 C 0.90703 0.39107 0.69682 0.0
C129 C 0.92429 0.47405 0.88744 0.0
C130 C 1.04157 0.41485 0.83669 0.0
C131 C 1.01999 0.51808 0.92424 0.0
C132 C 1.00336 0.54352 0.95274 0.0
C133 C 0.99147 0.53356 0.99287 0.0
C134 C 0.97888 0.55858 0.02126 0.0
C135 C 0.97907 0.59414 0.01042 0.0
C136 C 0.98736 0.60311 0.96834 0.0
C137 C 0.99924 0.57816 0.93996 0.0
C138 C 1.04054 0.49637 0.77798 0.0
C139 C 0.97599 0.54763 0.76981 0.0
O140 O 0.93198 0.46234 0.75445 0.0
O141 O 0.94158 0.41436 0.78834 0.0
O142 O 0.93998 0.49633 0.8629 0.0
O143 O 0.93766 0.44489 0.87394 0.0
O144 O 1.01088 0.41336 0.81599 0.0
O145 O 1.04457 0.44639 0.85492 0.0
O146 O 1.00359 0.48867 0.91872 0.0
O147 O 1.03292 0.53046 0.88919 0.0
O148 O 1.02422 0.46928 0.78995 0.0
O149 O 1.03704 0.52288 0.80331 0.0
O150 O 0.9903 0.54906 0.80854 0.0
O151 O 0.96469 0.51499 0.76161 0.0
H152 H 0.98761 0.42631 0.70989 0.0
H153 H 0.99783 0.39457 0.64347 0.0
H154 H 0.8918 0.35752 0.64607 0.0
H155 H 0.88171 0.38983 0.71171 0.0
H156 H 0.99318 0.50669 1.00286 0.0
H157 H 0.97134 0.55023 0.05263 0.0
H158 H 0.98796 0.62981 0.95781 0.0
H159 H 1.00693 0.58658 0.90863 0.0
Sm160 Sm 0.74133 0.95234 0.91671 0.0
Sm161 Sm 0.70888 0.98749 0.9537 0.0
C162 C 0.75725 0.91882 0.8467 0.0
C163 C 0.75553 0.88116 0.84013 0.0
C164 C 0.75787 0.86687 0.79949 0.0
C165 C 0.76038 0.83086 0.79449 0.0
C166 C 0.76088 0.80887 0.83017 0.0
C167 C 0.75558 0.8232 0.87049 0.0
C168 C 0.75281 0.85909 0.8754 0.0
C169 C 0.74198 0.91458 0.98848 0.0
C170 C 0.79399 0.97798 0.99451 0.0
C171 C 0.6756 1.02845 1.00805 0.0
C172 C 0.65773 1.02237 0.04822 0.0
C173 C 0.65908 0.98957 0.06755 0.0
C174 C 0.64085 0.98349 0.10505 0.0
C175 C 0.62104 1.01018 0.12368 0.0
C176 C 0.61967 1.04292 0.10385 0.0
C177 C 0.63789 1.04894 0.06644 0.0
C178 C 0.71994 1.02975 0.87517 0.0
C179 C 0.66082 0.91345 0.92957 0.0
O180 O 0.7807 0.92897 0.8741 0.0
O181 O 0.72724 0.93422 0.85197 0.0
O182 O 0.71528 0.93189 0.97691 0.0
O183 O 0.76818 0.91715 0.96291 0.0
O184 O 0.79504 0.96189 0.95688 0.0
O185 O 0.76177 0.99104 1.00155 0.0
O186 O 0.70921 1.02413 1.00837 0.0
O187 O 0.66093 1.01446 0.97497 0.0
O188 O 0.74242 1.01333 0.89892 0.0
O189 O 0.69067 1.01796 0.88994 0.0
O190 O 0.65899 0.9452 0.94769 0.0
O191 O 0.69274 0.90922 0.91344 0.0
H192 H 0.75955 0.88354 0.77196 0.0
H193 H 0.76508 0.82053 0.76303 0.0
H194 H 0.75618 0.80687 0.89841 0.0
H195 H 0.75045 0.86966 0.90705 0.0
H196 H 0.67415 0.96872 0.0535 0.0
H197 H 0.64261 0.95812 0.11971 0.0
H198 H 0.60414 1.06383 0.11701 0.0
H199 H 0.63627 1.07424 0.05156 0.0
Sm200 Sm 0.50139 0.49348 0.66674 0.0
Sm201 Sm 0.46647 0.46092 0.70451 0.0
C202 C 0.53456 0.5099 0.59693 0.0
C203 C 0.57227 0.50884 0.59071 0.0
C204 C 0.5866 0.51202 0.55029 0.0
C205 C 0.62255 0.51541 0.54578 0.0
C206 C 0.64439 0.51601 0.58174 0.0
C207 C 0.63012 0.50995 0.6218 0.0
C208 C 0.59431 0.50618 0.62619 0.0
C209 C 0.53943 0.49406 0.73866 0.0
C210 C 0.47572 0.54642 0.74444 0.0
C211 C 0.42615 0.42816 0.75976 0.0
C212 C 0.43208 0.41094 0.80053 0.0
C213 C 0.46479 0.41234 0.82029 0.0
C214 C 0.47063 0.39476 0.85841 0.0
C215 C 0.44379 0.37556 0.87731 0.0
C216 C 0.41108 0.37427 0.85715 0.0
C217 C 0.40531 0.39183 0.8191 0.0
C218 C 0.42378 0.47129 0.62588 0.0
C219 C 0.54047 0.4128 0.67917 0.0
O220 O 0.52388 0.53319 0.62422 0.0
O221 O 0.51984 0.47966 0.60214 0.0
O222 O 0.52234 0.46734 0.72688 0.0
O223 O 0.5365 0.52029 0.71319 0.0
O224 O 0.49173 0.54726 0.70685 0.0
O225 O 0.46286 0.51423 0.75172 0.0
O226 O 0.43016 0.46177 0.75928 0.0
O227 O 0.44037 0.41306 0.72716 0.0
O228 O 0.44033 0.49401 0.64912 0.0
O229 O 0.43544 0.44214 0.64135 0.0
O230 O 0.509 0.41105 0.69783 0.0
O231 O 0.54445 0.4447 0.66297 0.0
H232 H 0.56996 0.5137 0.5226 0.0
H233 H 0.63288 0.5207 0.51456 0.0
H234 H 0.64636 0.51067 0.64991 0.0
H235 H 0.58372 0.50315 0.65766 0.0
H236 H 0.48578 0.42691 0.80609 0.0
H237 H 0.49599 0.39649 0.87327 0.0
H238 H 0.39004 0.35921 0.87046 0.0
H239 H 0.38003 0.39021 0.80397 0.0
Sm240 Sm 0.95967 0.25261 0.41658 0.0
Sm241 Sm 0.99264 0.21812 0.45363 0.0
C242 C 0.94032 0.28488 0.34711 0.0
C243 C 0.93716 0.32263 0.33954 0.0
C244 C 0.9635 0.34096 0.31842 0.0
C245 C 0.96092 0.37698 0.31301 0.0
C246 C 0.93192 0.39527 0.32859 0.0
C247 C 0.90619 0.37685 0.35071 0.0
C248 C 0.90874 0.34111 0.35604 0.0
C249 C 0.9595 0.29135 0.48796 0.0
C250 C 0.9078 0.22739 0.49506 0.0
C251 C 1.02669 0.17725 0.50736 0.0
C252 C 1.04523 0.1829 0.54731 0.0
C253 C 1.04334 0.21513 0.56813 0.0
C254 C 1.0624 0.22085 0.60526 0.0
C255 C 1.08361 0.19439 0.62197 0.0
C256 C 1.08549 0.16223 0.60067 0.0
C257 C 1.06641 0.15655 0.56364 0.0
C258 C 0.98188 0.17546 0.37512 0.0
C259 C 1.0401 0.29218 0.42848 0.0
O260 O 0.91815 0.27153 0.37376 0.0
O261 O 0.97188 0.27286 0.35238 0.0
O262 O 0.9861 0.27384 0.47661 0.0
O263 O 0.93321 0.28855 0.46236 0.0
O264 O 0.9065 0.2436 0.45766 0.0
O265 O 0.94008 0.21423 0.50171 0.0
O266 O 0.9931 0.1817 0.50824 0.0
O267 O 1.04093 0.1914 0.47433 0.0
O268 O 0.9593 0.19157 0.39891 0.0
O269 O 1.01103 0.18784 0.38977 0.0
O270 O 1.04206 0.26084 0.44741 0.0
O271 O 1.00812 0.29591 0.4119 0.0
H272 H 0.98595 0.32743 0.30581 0.0
H273 H 0.98106 0.39034 0.2956 0.0
H274 H 0.88288 0.38963 0.36206 0.0
H275 H 0.88803 0.32799 0.37273 0.0
H276 H 1.02723 0.23583 0.55553 0.0
H277 H 1.06021 0.24576 0.62113 0.0
H278 H 0.10205 0.14154 0.61236 0.0
H279 H 1.06846 0.13172 0.54753 0.0
Sm280 Sm 0.20067 0.7115 0.16673 0.0
Sm281 Sm 0.23602 0.74412 0.20509 0.0
C282 C 0.16668 0.69487 0.09721 0.0
C283 C 0.12884 0.69584 0.09181 0.0
C284 C 0.11366 0.69217 0.05177 0.0
C285 C 1.07761 0.68872 0.04816 0.0
C286 C 1.05655 0.68853 0.08464 0.0
C287 C 1.07165 0.69502 0.12428 0.0
C288 C 0.10753 0.69888 0.12777 0.0
C289 C 0.16322 0.71129 0.23886 0.0
C290 C 0.22657 0.65854 0.24411 0.0
C291 C 0.2764 0.77701 0.26071 0.0
C292 C 0.27057 0.79479 0.30128 0.0
C293 C 0.23829 0.79268 0.32174 0.0
C294 C 0.23254 0.81085 0.35958 0.0
C295 C 0.25902 0.83138 0.37748 0.0
C296 C 0.29124 0.83346 0.35653 0.0
C297 C 0.29693 0.8153 0.3188 0.0
C298 C 0.27825 0.73377 0.12632 0.0
C299 C 0.16184 0.79219 0.17998 0.0
O300 O 0.1779 0.67164 0.12415 0.0
O301 O 0.18143 0.72515 0.10237 0.0
O302 O 0.1802 0.7379 0.22696 0.0
O303 O 0.16591 0.68492 0.21339 0.0
O304 O 0.21031 0.65779 0.20656 0.0
O305 O 0.2397 0.69064 0.25167 0.0
O306 O 0.27207 0.74343 0.26042 0.0
O307 O 0.2625 0.79194 0.2278 0.0
O308 O 0.2617 0.71104 0.14928 0.0
O309 O 0.26686 0.76293 0.14219 0.0
O310 O 0.19329 0.79384 0.19896 0.0
O311 O 0.15784 0.76042 0.16318 0.0
H312 H 0.1297 0.69017 0.02371 0.0
H313 H 1.0666 0.68306 0.01726 0.0
H314 H 1.05602 0.69457 0.15278 0.0
H315 H 0.11876 0.70229 0.15893 0.0
H316 H 0.21758 0.77708 0.30833 0.0
H317 H 0.20756 0.8085 0.37504 0.0
H318 H 0.31198 0.84953 0.36901 0.0
H319 H 0.32183 0.81753 0.30309 0.0
Sm320 Sm 0.99313 0.72041 0.55988 0.0
Sm321 Sm 0.96091 0.75411 0.6008 0.0
C322 C 1.027 0.68017 0.50556 0.0
C323 C 1.04544 0.68625 0.46593 0.0
C324 C 1.04405 0.71893 0.44634 0.0
C325 C 1.06227 0.72473 0.40883 0.0
C326 C 1.08207 0.69789 0.39056 0.0
C327 C 1.08361 0.66534 0.41076 0.0
C328 C 1.06536 0.65958 0.44815 0.0
C329 C 0.98225 0.67671 0.63758 0.0
C330 C 1.04166 0.79319 0.58802 0.0
C331 C 0.93649 0.77191 0.67563 0.0
C332 C 0.90894 0.75629 0.70169 0.0
C333 C 0.91686 0.74092 0.74083 0.0
C334 C 0.89021 0.72864 0.76686 0.0
C335 C 0.85512 0.73238 0.7546 0.0
C336 C 0.84787 0.74469 0.71346 0.0
C337 C 0.87438 0.7564 0.68742 0.0
C338 C 0.95964 0.79412 0.53067 0.0
C339 C 0.9084 0.72901 0.52071 0.0
O340 O 0.99343 0.68487 0.50434 0.0
O341 O 1.04136 0.69373 0.53916 0.0
O342 O 0.95987 0.69254 0.61317 0.0
O343 O 1.01132 0.69017 0.62418 0.0
O344 O 1.04036 0.76566 0.56151 0.0
O345 O 1.0126 0.79332 0.61181 0.0
O346 O 0.96494 0.75364 0.67124 0.0
O347 O 0.92649 0.78667 0.64045 0.0
O348 O 0.98662 0.77725 0.54217 0.0
O349 O 0.93342 0.79054 0.55613 0.0
O350 O 0.90738 0.74312 0.55965 0.0
O351 O 0.94078 0.71749 0.51206 0.0
H352 H 1.02884 0.73984 0.46007 0.0
H353 H 1.06045 0.74996 0.39383 0.0
H354 H 1.09917 0.64436 0.39783 0.0
H355 H 1.06693 0.63437 0.46327 0.0
H356 H 0.9435 0.73952 0.75195 0.0
H357 H 0.89704 0.71833 0.79768 0.0
H358 H 0.82153 0.74834 0.70222 0.0
H359 H 0.86738 0.76708 0.65682 0.0
Sm360 Sm 0.23708 0.24396 0.80926 0.0
Sm361 Sm 0.19914 0.21389 0.84999 0.0
C362 C 0.27366 0.28773 0.76257 0.0
C363 C 0.26588 0.31009 0.72639 0.0
C364 C 0.23329 0.30848 0.70638 0.0
C365 C 0.22726 0.32693 0.669 0.0
C366 C 0.25383 0.34715 0.65121 0.0
C367 C 0.28588 0.34988 0.67261 0.0
C368 C 0.29188 0.33138 0.70987 0.0
C369 C 0.28249 0.22611 0.88343 0.0
C370 C 0.16153 0.29287 0.83631 0.0
C371 C 0.16477 0.18262 0.91039 0.0
C372 C 0.13385 0.16083 0.90471 0.0
C373 C 0.13201 0.12865 0.92493 0.0
C374 C 0.10419 0.10649 0.91668 0.0
C375 C 1.07771 0.11616 0.88803 0.0
C376 C 1.07967 0.14836 0.86761 0.0
C377 C 0.1077 0.17041 0.87558 0.0
C378 C 0.16519 0.21027 0.77435 0.0
C379 C 0.22823 0.161 0.76924 0.0
O380 O 0.27163 0.25448 0.75487 0.0
O381 O 0.25939 0.29649 0.79851 0.0
O382 O 0.25051 0.23782 0.8831 0.0
O383 O 0.28753 0.21904 0.84361 0.0
O384 O 0.19365 0.29377 0.81837 0.0
O385 O 0.15621 0.26154 0.85319 0.0
O386 O 0.19348 0.16974 0.89472 0.0
O387 O 0.16061 0.21558 0.90197 0.0
O388 O 0.1814 0.23719 0.78655 0.0
O389 O 0.1673 0.18505 0.80113 0.0
O390 O 0.21412 0.16074 0.80826 0.0
O391 O 0.23942 0.19314 0.7599 0.0
H392 H 0.21297 0.29204 0.71893 0.0
H393 H 0.20241 0.32418 0.65312 0.0
H394 H 0.30661 0.36579 0.66003 0.0
H395 H 0.31711 0.33295 0.72514 0.0
H396 H 0.15215 0.1206 0.94693 0.0
H397 H 0.10287 1.08217 0.93382 0.0
H398 H 1.05946 0.1565 0.84577 0.0
H399 H 0.10895 0.19487 0.85876 0.0
Sm400 Sm 0.71024 0.48785 0.06049 0.0
Sm401 Sm 0.74337 0.4544 0.09891 0.0
C402 C 0.67611 0.52786 1.00599 0.0
C403 C 0.65791 0.52149 0.96605 0.0
C404 C 0.65938 0.48865 0.94664 0.0
C405 C 0.64115 0.48245 0.90903 0.0
C406 C 0.62127 0.50907 0.89043 0.0
C407 C 0.61972 0.54182 0.91039 0.0
C408 C 0.63795 0.54796 0.9479 0.0
C409 C 0.72195 0.53169 0.13789 0.0
C410 C 0.66266 0.41453 0.08768 0.0
C411 C 0.76452 0.4364 0.1752 0.0
C412 C 0.78712 0.45439 0.20544 0.0
C413 C 0.78886 0.44314 0.24739 0.0
C414 C 0.81558 0.45487 0.27369 0.0
C415 C 0.84122 0.47753 0.25796 0.0
C416 C 0.83679 0.49197 0.21748 0.0
C417 C 0.80975 0.48052 0.19137 0.0
C418 C 0.74387 0.41428 0.02894 0.0
C419 C 0.79515 0.47936 0.01992 0.0
O420 O 0.70972 0.52359 1.00531 0.0
O421 O 0.66184 0.51409 0.03926 0.0
O422 O 0.74415 0.51603 0.11309 0.0
O423 O 0.69278 0.51815 0.12484 0.0
O424 O 0.66091 0.44524 0.06729 0.0
O425 O 0.69449 0.41136 0.10517 0.0
O426 O 0.73421 0.4508 0.16831 0.0
O427 O 0.7799 0.42603 0.14052 0.0
O428 O 0.71697 0.43141 0.0403 0.0
O429 O 0.77033 0.41769 0.05439 0.0
O430 O 0.79677 0.46514 0.05857 0.0
O431 O 0.76243 0.49071 0.01198 0.0
H432 H 0.67461 0.4679 0.96064 0.0
H433 H 0.643 0.45708 0.89423 0.0
H434 H 0.60411 0.56265 0.8972 0.0
H435 H 0.6363 0.5733 0.96288 0.0
H436 H 0.77125 0.42335 0.25881 0.0
H437 H 0.81834 0.44297 0.3046 0.0
H438 H 0.85611 0.50943 0.20464 0.0
H439 H 0.80823 0.48997 0.1591 0.0
Sm440 Sm 0.46722 0.96288 0.31111 0.0
Sm441 Sm 0.50234 0.99543 0.34802 0.0
C442 C 0.42625 0.92968 0.25661 0.0
C443 C 0.43221 0.91186 0.21626 0.0
C444 C 0.46497 0.91303 0.19686 0.0
C445 C 0.47101 0.89465 0.15931 0.0
C446 C 0.4443 0.87488 0.14071 0.0
C447 C 0.41157 0.87377 0.16055 0.0
C448 C 0.4056 0.89214 0.19801 0.0
C449 C 0.42504 0.9733 0.38992 0.0
C450 C 0.54123 0.91466 0.33588 0.0
C451 C 0.53674 1.01252 0.41709 0.0
C452 C 0.5746 1.01169 0.42228 0.0
C453 C 0.58989 1.01527 0.46226 0.0
C454 C 0.62594 1.01875 0.46573 0.0
C455 C 0.6469 1.01905 0.42917 0.0
C456 C 0.63169 1.01266 0.38956 0.0
C457 C 0.5958 1.00876 0.38621 0.0
C458 C 0.53958 0.99556 0.27554 0.0
C459 C 0.47612 1.04797 0.27033 0.0
O460 O 0.43042 0.96328 0.25658 0.0
O461 O 0.44051 0.91496 0.28943 0.0
O462 O 0.44143 0.99605 0.36676 0.0
O463 O 0.4368 0.94418 0.37438 0.0
O464 O 0.50957 0.91286 0.3175 0.0
O465 O 0.54544 0.94669 0.35183 0.0
O466 O 0.52531 1.03557 0.39005 0.0
O467 O 0.52208 0.98216 0.41228 0.0
O468 O 0.52284 0.96886 0.28784 0.0
O469 O 0.53676 1.02197 0.30091 0.0
O470 O 0.49249 1.04902 0.3078 0.0
O471 O 0.46309 1.01573 0.2634 0.0
H472 H 0.48585 0.92802 0.21093 0.0
H473 H 0.49637 0.8962 0.14464 0.0
H474 H 0.39065 0.85828 0.1474 0.0
H475 H 0.38033 0.89067 0.21297 0.0
H476 H 0.57393 1.01716 0.49041 0.0
H477 H 0.63703 1.02433 0.49662 0.0
H478 H 0.64724 1.01319 0.361 0.0
H479 H 0.58448 1.00539 0.35509 0.0
Sm480 Sm 0.2419 0.45082 0.41584 0.0
Sm481 Sm 0.20898 0.48702 0.45334 0.0
C482 C 0.26204 0.41687 0.34775 0.0
C483 C 0.2663 0.37904 0.34139 0.0
C484 C 0.2402 0.35921 0.32157 0.0
C485 C 0.24411 0.32321 0.31693 0.0
C486 C 0.27423 0.30644 0.332 0.0
C487 C 0.29969 0.32635 0.35296 0.0
C488 C 0.29584 0.36207 0.35748 0.0
C489 C 0.24105 0.41476 0.48932 0.0
C490 C 0.29437 0.47707 0.49388 0.0
C491 C 0.17616 0.52698 0.50898 0.0
C492 C 0.15792 0.5203 0.54908 0.0
C493 C 0.13228 0.49442 0.55193 0.0
C494 C 0.11495 0.48872 0.59009 0.0
C495 C 0.12315 0.50851 0.62626 0.0
C496 C 0.14964 0.5336 0.62354 0.0
C497 C 0.16668 0.53956 0.58527 0.0
C498 C 0.21968 0.52886 0.37469 0.0
C499 C 0.16112 0.41249 0.42793 0.0
O500 O 0.28384 0.43153 0.3741 0.0
O501 O 0.2302 0.42822 0.35239 0.0
O502 O 0.21472 0.43155 0.47592 0.0
O503 O 0.26751 0.41602 0.46402 0.0
O504 O 0.29513 0.45976 0.45708 0.0
O505 O 0.26247 0.49116 0.50027 0.0
O506 O 0.20974 0.52238 0.50942 0.0
O507 O 0.16165 0.51493 0.47461 0.0
O508 O 0.24228 0.51188 0.39773 0.0
O509 O 0.19038 0.51815 0.39048 0.0
O510 O 0.15948 0.44409 0.44671 0.0
O511 O 0.19296 0.40821 0.41138 0.0
H512 H 0.21694 0.37155 0.30926 0.0
H513 H 0.22414 0.30867 0.3004 0.0
H514 H 0.32379 0.31477 0.36388 0.0
H515 H 0.31644 0.37639 0.37314 0.0
H516 H 0.1253 0.4788 0.5246 0.0
H517 H 1.0945 0.46944 0.59088 0.0
H518 H 0.15716 0.54882 0.65099 0.0
H519 H 0.1867 0.55928 0.5839 0.0
Sm520 Sm 0.99969 0.99188 0.16732 0.0
Sm521 Sm 0.96668 0.96002 0.20484 0.0
C522 C 1.01894 1.00535 0.08917 0.0
C523 C 1.00255 1.01686 0.0493 0.0
C524 C 0.99687 0.99292 0.01628 0.0
C525 C 0.98855 1.00457 0.9756 0.0
C526 C 0.9869 1.0404 0.96713 0.0
C527 C 0.98751 1.06376 1.00169 0.0
C528 C 0.9955 1.05211 0.04228 0.0
C529 C 1.04065 0.994 0.23634 0.0
C530 C 0.97599 1.04537 0.24436 0.0
C531 C 0.9267 0.92664 0.25985 0.0
C532 C 0.93271 0.9092 0.30043 0.0
C533 C 0.96498 0.91176 0.32108 0.0
C534 C 0.97079 0.8942 0.3592 0.0
C535 C 0.94437 0.87384 0.37716 0.0
C536 C 0.91218 0.87126 0.356 0.0
C537 C 0.90642 0.88883 0.31798 0.0
C538 C 0.92272 0.9713 0.12738 0.0
C539 C 1.04076 0.91247 0.17982 0.0
O540 O 1.01078 0.97414 0.10207 0.0
O541 O 1.02168 1.02805 0.12004 0.0
O542 O 1.0225 0.96723 0.22715 0.0
O543 O 1.03785 1.01943 0.20937 0.0
O544 O 0.99072 1.04629 0.20606 0.0
O545 O 0.96389 1.01304 0.25239 0.0
O546 O 0.93053 0.96026 0.25972 0.0
O547 O 0.94097 0.91183 0.2271 0.0
O548 O 0.93831 0.99352 0.15216 0.0
O549 O 0.93636 0.94217 0.14046 0.0
O550 O 1.00922 0.91035 0.19809 0.0
O551 O 1.04442 0.9445 0.16376 0.0
H552 H 1.0013 0.96539 0.0211 0.0
H553 H 0.98719 0.98577 0.95004 0.0
H554 H 0.98609 1.09159 0.99704 0.0
H555 H 0.99879 1.07116 0.06732 0.0
H556 H 0.98563 0.92729 0.30764 0.0
H557 H 0.99575 0.8969 0.37485 0.0
H558 H 0.89152 0.85528 0.36857 0.0
H559 H 0.88152 0.8863 0.30212 0.0
Sm560 Sm 0.45997 0.7538 0.91763 0.0
Sm561 Sm 0.49262 0.71894 0.95469 0.0
C562 C 0.44387 0.78712 0.84768 0.0
C563 C 0.44593 0.82475 0.84121 0.0
C564 C 0.44429 0.83889 0.80054 0.0
C565 C 0.44251 0.87492 0.79551 0.0
C566 C 0.44212 0.89709 0.83118 0.0
C567 C 0.44667 0.88284 0.87162 0.0
C568 C 0.44866 0.84692 0.87656 0.0
C569 C 0.45933 0.79182 0.98961 0.0
C570 C 0.40736 0.72795 0.99475 0.0
C571 C 0.52614 0.67836 1.0093 0.0
C572 C 0.54406 0.68442 0.04966 0.0
C573 C 0.54202 0.71692 0.06986 0.0
C574 C 0.56028 0.72294 0.10755 0.0
C575 C 0.58083 0.6965 0.12551 0.0
C576 C 0.58289 0.66408 0.1048 0.0
C577 C 0.56463 0.65811 0.06721 0.0
C578 C 0.48176 0.67628 0.87607 0.0
C579 C 0.54043 0.7929 0.9303 0.0
O580 O 0.42049 0.77725 0.87507 0.0
O581 O 0.47377 0.77147 0.85285 0.0
O582 O 0.48611 0.77464 0.97802 0.0
O583 O 0.43308 0.78893 0.96396 0.0
O584 O 0.40628 0.74409 0.95727 0.0
O585 O 0.43965 0.71506 1.00198 0.0
O586 O 0.49252 0.6826 1.00941 0.0
O587 O 0.54073 0.69234 0.97639 0.0
O588 O 0.45918 0.69276 0.89958 0.0
O589 O 0.51097 0.68817 0.89117 0.0
O590 O 0.54242 0.76127 0.94848 0.0
O591 O 0.50839 0.79702 0.91429 0.0
H592 H 0.44264 0.82214 0.77295 0.0
H593 H 0.43838 0.88518 0.76395 0.0
H594 H 0.44616 0.8993 0.89953 0.0
H595 H 0.45051 0.83646 0.90826 0.0
H596 H 0.52638 0.73759 0.05636 0.0
H597 H 0.55797 0.74807 0.12286 0.0
H598 H 0.59899 0.64338 0.11739 0.0
H599 H 0.5668 0.63305 0.05165 0.0
Sm600 Sm 0.70138 0.21152 0.66543 0.0
Sm601 Sm 0.73526 0.24451 0.70487 0.0
C602 C 0.6834 0.18935 0.5896 0.0
C603 C 0.70012 0.16399 0.56109 0.0
C604 C 0.7119 0.17399 0.52093 0.0
C605 C 0.72452 0.14902 0.49249 0.0
C606 C 0.72444 0.11345 0.50332 0.0
C607 C 0.7163 0.10446 0.54544 0.0
C608 C 0.70442 0.12937 0.57387 0.0
C609 C 0.66217 0.21075 0.73574 0.0
C610 C 0.72676 0.15928 0.74407 0.0
C611 C 0.7751 0.27807 0.76027 0.0
C612 C 0.76913 0.2961 0.80049 0.0
C613 C 0.73663 0.2945 0.82049 0.0
C614 C 0.73097 0.31253 0.85839 0.0
C615 C 0.75777 0.33238 0.87671 0.0
C616 C 0.79015 0.33404 0.85614 0.0
C617 C 0.79577 0.316 0.81837 0.0
C618 C 0.77898 0.2331 0.6275 0.0
C619 C 0.6615 0.29216 0.67769 0.0
O620 O 0.69984 0.21871 0.59542 0.0
O621 O 0.67026 0.17685 0.62447 0.0
O622 O 0.67882 0.23776 0.72421 0.0
O623 O 0.66561 0.18427 0.71034 0.0
O624 O 0.71255 0.15796 0.7053 0.0
O625 O 0.73809 0.19185 0.75257 0.0
O626 O 0.77081 0.24449 0.76054 0.0
O627 O 0.76128 0.29269 0.72709 0.0
O628 O 0.76304 0.21079 0.65172 0.0
O629 O 0.76587 0.26231 0.64118 0.0
O630 O 0.69211 0.29364 0.69858 0.0
O631 O 0.65856 0.2607 0.65927 0.0
H632 H 0.71007 0.20086 0.51095 0.0
H633 H 0.73197 0.1574 0.46111 0.0
H634 H 0.71582 1.07776 0.55598 0.0
H635 H 0.69684 0.12093 0.60522 0.0
H636 H 0.7157 0.27934 0.80675 0.0
H637 H 0.70585 0.31058 0.8736 0.0
H638 H 0.8111 0.34964 0.869 0.0
H639 H 0.82084 0.31777 0.80298 0.0
C640 C 0.56674 0.36238 0.0885 0.0
C641 C 0.57261 0.32506 0.08837 0.0
H642 H 0.58542 0.41647 0.08703 0.0
C643 C 0.60989 0.31908 0.08802 0.0
H644 H 0.53998 0.37114 0.08847 0.0
C645 C 0.63726 0.34641 0.08877 0.0
C646 C 0.6314 0.38372 0.0882 0.0
H647 H 0.61858 0.29231 0.08777 0.0
H648 H 0.66402 0.33765 0.08899 0.0
C649 C 0.59412 0.3897 0.08759 0.0
C650 C 0.59365 0.81886 0.33813 0.0
C651 C 0.6309 0.82482 0.33716 0.0
H652 H 0.53942 0.83746 0.33719 0.0
C653 C 0.63671 0.86203 0.3356 0.0
H654 H 0.5851 0.7921 0.33909 0.0
C655 C 0.60924 0.88934 0.33604 0.0
C656 C 0.57199 0.88337 0.33628 0.0
H657 H 0.66343 0.87071 0.33467 0.0
H658 H 0.61781 0.9161 0.33545 0.0
C659 C 0.56615 0.84615 0.33692 0.0
C660 C 0.11494 0.86778 0.55093 0.0
C661 C 0.13094 0.88344 0.58808 0.0
H662 H 1.07934 0.83044 0.52048 0.0
C663 C 0.11586 0.86742 0.62536 0.0
H664 H 0.12363 0.87691 0.52034 0.0
C665 C 1.08816 0.84039 0.62546 0.0
C666 C 1.07271 0.82421 0.58827 0.0
H667 H 0.12518 0.87638 0.65588 0.0
H668 H 1.07916 0.83156 0.65603 0.0
C669 C 1.08833 0.83971 0.55102 0.0
C670 C 0.10984 0.38936 0.83795 0.0
C671 C 1.07251 0.38363 0.83676 0.0
H672 H 0.16402 0.37043 0.83739 0.0
C673 C 1.06656 0.34645 0.83507 0.0
H674 H 0.11855 0.41607 0.83902 0.0
C675 C 1.09389 0.31901 0.83563 0.0
C676 C 0.13121 0.32468 0.83613 0.0
H677 H 1.03979 0.33789 0.83397 0.0
H678 H 1.08514 0.2923 0.83496 0.0
C679 C 0.13725 0.3619 0.83688 0.0
C680 C 0.59247 0.88846 0.93029 0.0
C681 C 0.62973 0.88264 0.92975 0.0
H682 H 0.5385 0.8695 0.9295 0.0
C683 C 0.63592 0.84539 0.92947 0.0
H684 H 0.58361 0.91518 0.93052 0.0
C685 C 0.60879 0.81789 0.93044 0.0
C686 C 0.57152 0.8237 0.93014 0.0
H687 H 0.66275 0.83684 0.92916 0.0
H688 H 0.61764 0.79117 0.93076 0.0
C689 C 0.56533 0.86096 0.92967 0.0
C690 C 0.56561 0.34433 0.67827 0.0
C691 C 0.57133 0.38159 0.67873 0.0
H692 H 0.58472 0.29033 0.67622 0.0
C693 C 0.60857 0.38766 0.67874 0.0
H694 H 0.53891 0.33556 0.67819 0.0
C695 C 0.63614 0.36044 0.67915 0.0
C696 C 0.63044 0.3232 0.67777 0.0
H697 H 0.61706 0.41446 0.67918 0.0
H698 H 0.66283 0.36922 0.67989 0.0
C699 C 0.5932 0.31712 0.67703 0.0
C700 C 1.06528 0.3603 0.42776 0.0
C701 C 1.07128 0.323 0.42819 0.0
H702 H 1.08381 0.41446 0.42873 0.0
C703 C 0.10855 0.31708 0.42857 0.0
H704 H 1.03849 0.36897 0.42759 0.0
C705 C 0.13581 0.34448 0.42765 0.0
C706 C 0.12983 0.38178 0.42797 0.0
H707 H 0.11731 0.29034 0.42891 0.0
H708 H 0.1626 0.3358 0.42739 0.0
C709 C 1.09256 0.38771 0.42847 0.0
C710 C 0.13661 0.86052 0.18136 0.0
C711 C 0.13095 0.8233 0.17995 0.0
H712 H 0.11741 0.91449 0.18114 0.0
C713 C 1.09375 0.81712 0.17853 0.0
H714 H 0.16329 0.86933 0.18251 0.0
C715 C 1.06612 0.84424 0.17927 0.0
C716 C 1.07179 0.88148 0.17979 0.0
H717 H 1.08534 0.7903 0.17749 0.0
H718 H 1.03944 0.83542 0.1787 0.0
C719 C 0.109 0.88768 0.1805 0.0
C720 C 0.34915 0.21524 0.91183 0.0
C721 C 0.31396 0.22686 0.91998 0.0
H722 H 0.40313 0.2061 0.93176 0.0
C723 C 0.3116 0.2389 0.96334 0.0
H724 H 0.35479 0.20554 0.88035 0.0
C725 C 0.34075 0.23921 0.99427 0.0
C726 C 0.37594 0.22746 0.98592 0.0
H727 H 0.28665 0.24853 0.974 0.0
H728 H 0.3353 0.24914 0.02568 0.0
C729 C 0.37816 0.21551 0.94263 0.0
C730 C 0.70093 0.57102 0.20578 0.0
C731 C 0.72551 0.56461 0.1721 0.0
H732 H 0.68211 0.60141 0.26001 0.0
C733 C 0.75139 0.59184 0.17224 0.0
H734 H 0.67982 0.55271 0.20923 0.0
C735 C 0.75206 0.62186 0.20193 0.0
C736 C 0.72766 0.62776 0.23612 0.0
H737 H 0.77141 0.59061 0.14825 0.0
H738 H 0.77264 0.64069 0.19798 0.0
C739 C 0.70227 0.60021 0.23619 0.0
C740 C 0.36511 1.00295 0.42464 0.0
C741 C 0.39214 0.97671 0.42408 0.0
H742 H 0.31637 1.0244 0.45036 0.0
C743 C 0.38537 0.9516 0.45703 0.0
H744 H 0.36653 1.02334 0.40117 0.0
C745 C 0.35611 0.95284 0.48722 0.0
C746 C 0.32879 0.97863 0.48754 0.0
H747 H 0.40345 0.93014 0.46007 0.0
H748 H 0.35465 0.93227 0.51047 0.0
C749 C 0.33501 1.00351 0.45402 0.0
C750 C 0.95282 0.61656 0.67152 0.0
C751 C 0.97869 0.64384 0.67177 0.0
H752 H 0.93142 0.5678 0.69682 0.0
C753 C 1.00307 0.63752 0.70587 0.0
H754 H 0.93293 0.61768 0.64723 0.0
C755 C 1.00153 0.60842 0.73626 0.0
C756 C 0.97615 0.58081 0.73578 0.0
H757 H 1.02415 0.65584 0.70972 0.0
H758 H 1.02152 0.60735 0.76043 0.0
C759 C 0.95198 0.58663 0.70116 0.0
C760 C 0.83325 1.00248 0.06268 0.0
C761 C 0.82705 0.97778 0.02876 0.0
H762 H 0.86464 1.02176 0.1163 0.0
C763 C 0.85415 0.95177 0.02911 0.0
H764 H 0.81476 1.02353 0.06628 0.0
C765 C 0.88324 0.95017 0.05963 0.0
C766 C 0.88993 0.97501 0.09306 0.0
H767 H 0.85268 0.93135 1.0055 0.0
H768 H 0.90124 0.92865 0.05647 0.0
C769 C 0.86313 1.00149 0.09253 0.0
C770 C 0.50365 0.63561 0.8097 0.0
C771 C 0.47816 0.64324 0.84199 0.0
H772 H 0.52314 0.60414 0.75676 0.0
C773 C 0.45126 0.617 0.84071 0.0
H774 H 0.52558 0.65304 0.80722 0.0
C775 C 0.45044 0.58683 0.81123 0.0
C776 C 0.47576 0.57975 0.77839 0.0
H777 H 0.43049 0.61916 0.86362 0.0
H778 H 0.429 0.56886 0.81423 0.0
C779 C 0.50222 0.60628 0.77948 0.0
C780 C 0.81878 0.25483 0.56069 0.0
C781 C 0.81182 0.22951 0.5933 0.0
H782 H 0.84947 0.27428 0.50737 0.0
C783 C 0.83844 0.20284 0.59209 0.0
H784 H 0.80098 0.27656 0.55807 0.0
C785 C 0.86836 0.2021 0.56241 0.0
C786 C 0.8748 0.2273 0.52929 0.0
H787 H 0.83678 0.18219 0.61519 0.0
H788 H 0.88665 0.18084 0.56548 0.0
C789 C 0.84787 0.25349 0.53031 0.0
C790 C 0.19783 0.56991 0.30888 0.0
C791 C 0.22356 0.56181 0.34084 0.0
H792 H 0.1783 0.60175 0.25639 0.0
C793 C 0.25091 0.58755 0.33956 0.0
H794 H 0.17555 0.55288 0.30648 0.0
C795 C 0.25193 0.61772 0.31034 0.0
C796 C 0.22635 0.62525 0.27781 0.0
H797 H 0.2719 0.58499 0.36227 0.0
H798 H 0.27372 0.6353 0.31328 0.0
C799 C 0.19944 0.59921 0.2789 0.0
C800 C 0.818 0.75564 0.45663 0.0
C801 C 0.81176 0.73107 0.4227 0.0
H802 H 0.84827 0.77449 0.51108 0.0
C803 C 0.8392 0.70525 0.4227 0.0
H804 H 0.79955 0.77673 0.46022 0.0
C805 C 0.8692 0.70462 0.45245 0.0
C806 C 0.87494 0.72898 0.48688 0.0
H807 H 0.83816 0.68526 0.39854 0.0
H808 H 0.88818 0.68409 0.44831 0.0
C809 C 0.8472 0.75433 0.48711 0.0
C810 C 0.20197 1.10012 0.73568 0.0
C811 C 0.2278 0.1273 0.73572 0.0
H812 H 0.17889 1.05289 0.70864 0.0
C813 C 0.25217 0.12091 0.7016 0.0
H814 H 0.18172 1.1017 0.75935 0.0
C815 C 0.25117 1.09086 0.67197 0.0
C816 C 0.2249 1.06398 0.67166 0.0
H817 H 0.27303 0.13943 0.69764 0.0
H818 H 0.27126 1.08931 0.64811 0.0
C819 C 0.20029 1.07086 0.70526 0.0
C820 C 0.83394 0.50386 0.95157 0.0
C821 C 0.82833 0.47949 0.98583 0.0
H822 H 0.8648 0.52329 0.89788 0.0
C823 C 0.85617 0.45422 0.98589 0.0
H824 H 0.81493 0.52438 0.94755 0.0
C825 C 0.88529 0.45296 0.95548 0.0
C826 C 0.89141 0.47753 0.92173 0.0
H827 H 0.85527 0.43407 1.00973 0.0
H828 H 0.90379 0.43192 0.95899 0.0
C829 C 0.86388 0.50329 0.92188 0.0
C830 C 0.50236 0.10775 0.23535 0.0
C831 C 0.47613 1.08098 0.2361 0.0
H832 H 0.52555 0.15447 0.20781 0.0
C833 C 0.45106 1.08755 0.20266 0.0
H834 H 0.52308 0.10604 0.25854 0.0
C835 C 0.45192 0.11742 0.17292 0.0
C836 C 0.47863 0.14387 0.17197 0.0
H837 H 0.42978 1.06939 0.19935 0.0
H838 H 0.43132 0.1192 0.14958 0.0
C839 C 0.50382 0.1368 0.20494 0.0
C840 C 0.335 0.50311 0.56006 0.0
C841 C 0.32752 0.47712 0.52801 0.0
H842 H 0.36764 0.52359 0.6119 0.0
C843 C 0.35352 0.45006 0.52996 0.0
H844 H 0.31743 0.52505 0.56233 0.0
C845 C 0.38277 0.4487 0.56026 0.0
C846 C 0.39081 0.47481 0.59175 0.0
H847 H 0.35101 0.42863 0.50786 0.0
H848 H 0.3998 0.42631 0.55848 0.0
C849 C 0.3651 0.5023 0.58963 0.0
C850 C 1.00348 0.13516 0.30838 0.0
C851 C 0.97839 0.14236 0.34125 0.0
H852 H 1.02263 0.10393 0.25505 0.0
C853 C 0.95196 0.11566 0.34078 0.0
H854 H 1.02503 0.153 0.30532 0.0
C855 C 0.95121 1.08543 0.31147 0.0
C856 C 0.97609 1.07878 0.27804 0.0
H857 H 0.93155 0.1175 0.36421 0.0
H858 H 0.93018 1.06707 0.31507 0.0
C859 C 1.00208 0.10576 0.27831 0.0
C860 C 0.31864 0.75599 0.06036 0.0
C861 C 0.31109 0.73022 0.09222 0.0
H862 H 0.34993 0.77574 1.00773 0.0
C863 C 0.33722 0.70311 0.09057 0.0
H864 H 0.30127 0.77809 0.05822 0.0
C865 C 0.36725 0.70233 0.06111 0.0
C866 C 0.37423 0.72794 0.02868 0.0
H867 H 0.33509 0.68212 0.11316 0.0
H868 H 0.38516 0.68071 0.06379 0.0
C869 C 0.34781 0.75461 0.03014 0.0
C870 C 0.70072 1.09876 0.77744 0.0
C871 C 0.72648 0.12598 0.77783 0.0
H872 H 0.67769 1.05154 0.80392 0.0
C873 C 0.75091 0.11968 0.81202 0.0
H874 H 0.6805 1.10026 0.75358 0.0
C875 C 0.74996 1.08959 0.84139 0.0
C876 C 0.72373 1.06267 0.8412 0.0
H877 H 0.77175 0.13822 0.81622 0.0
H878 H 0.77004 1.08806 0.86541 0.0
C879 C 0.69907 1.06953 0.80758 0.0
C880 C 0.61235 0.23591 0.83446 0.0
C881 C 0.59983 0.20331 0.84762 0.0
H882 H 0.64207 0.26402 0.78838 0.0
C883 C 0.60742 0.1738 0.823 0.0
H884 H 0.60668 0.2592 0.85255 0.0
C885 C 0.62704 0.1767 0.78625 0.0
C886 C 0.63987 0.20909 0.77339 0.0
H887 H 0.59898 0.1482 0.83264 0.0
H888 H 0.63281 0.15328 0.76843 0.0
C889 C 0.63237 0.23876 0.79767 0.0
C890 C 0.77717 0.85199 0.06906 0.0
C891 C 0.7512 0.85242 0.10016 0.0
H892 H 0.79436 0.87115 1.00948 0.0
C893 C 0.72054 0.87157 0.09283 0.0
H894 H 0.80072 0.83688 0.07335 0.0
C895 C 0.71665 0.89107 0.0557 0.0
C896 C 0.74341 0.89164 0.0256 0.0
H897 H 0.70011 0.87241 0.11637 0.0
H898 H 0.69328 0.90636 0.05114 0.0
C899 C 0.77337 0.87145 0.03231 0.0
C900 C 1.06514 0.96942 0.30348 0.0
C901 C 1.06393 0.99612 0.27331 0.0
H902 H 1.08451 0.95297 0.36394 0.0
C903 C 1.08355 1.02636 0.27999 0.0
H904 H 1.05017 0.94587 0.29907 0.0
C905 C 0.10328 1.03033 0.31674 0.0
C906 C 0.10367 1.00423 0.34774 0.0
H907 H 1.08317 1.04737 0.25721 0.0
H908 H 0.118 1.05404 0.32105 0.0
C909 C 1.08488 0.97344 0.34047 0.0
C910 C 0.9286 0.33523 0.53135 0.0
C911 C 0.95832 0.31466 0.52493 0.0
H912 H 0.90173 0.37054 0.57198 0.0
C913 C 0.98512 0.3152 0.5552 0.0
H914 H 0.90758 0.33554 0.50841 0.0
C915 C 0.98153 0.33512 0.59217 0.0
C916 C 0.95111 0.35472 0.59919 0.0
H917 H 1.00829 0.29955 0.55092 0.0
H918 H 1.00197 0.33424 0.61583 0.0
C919 C 0.9251 0.35512 0.56794 0.0
C920 C 0.6022 1.03049 0.19513 0.0
C921 C 0.60214 1.00444 0.16394 0.0
H922 H 0.58269 1.04785 0.25463 0.0
C923 C 0.58312 0.97377 0.17112 0.0
H924 H 0.61719 1.05403 0.19106 0.0
C925 C 0.56346 0.96997 0.20816 0.0
C926 C 0.56257 0.99681 0.23836 0.0
H927 H 0.58254 0.95326 0.14755 0.0
H928 H 0.54831 0.9466 0.21259 0.0
C929 C 0.58259 1.02678 0.23176 0.0
C930 C 0.48032 0.33779 0.92525 0.0
C931 C 0.44956 0.3568 0.91783 0.0
H932 H 0.50774 0.30296 0.96677 0.0
C933 C 0.42352 0.35682 0.94892 0.0
H934 H 0.50078 0.33708 0.90176 0.0
C935 C 0.42745 0.33729 0.98573 0.0
C936 C 0.45759 0.31739 0.99256 0.0
H937 H 0.39985 0.37173 0.94463 0.0
H938 H 0.40644 0.33731 1.00853 0.0
C939 C 0.4843 0.31822 0.96235 0.0
C940 C 0.14114 0.23505 0.70676 0.0
C941 C 0.14318 0.2079 0.73626 0.0
H942 H 0.12076 0.25198 0.64689 0.0
C943 C 0.12466 0.17709 0.72867 0.0
H944 H 0.15523 0.25903 0.71194 0.0
C945 C 0.10494 0.17314 0.69198 0.0
C946 C 0.10339 0.19981 0.66181 0.0
H947 H 0.1256 0.15574 0.75096 0.0
H948 H 1.09089 0.14907 0.68724 0.0
C949 C 0.12134 0.23104 0.66974 0.0
C950 C 0.21837 0.88812 0.4633 0.0
C951 C 0.24575 0.89023 0.49273 0.0
H952 H 0.20115 0.86802 0.4033 0.0
C953 C 0.2765 0.87152 0.48504 0.0
H954 H 0.19442 0.90237 0.46843 0.0
C955 C 0.28029 0.85183 0.44823 0.0
C956 C 0.25351 0.8505 0.41793 0.0
H957 H 0.29806 0.87252 0.50719 0.0
H958 H 0.30442 0.83783 0.44337 0.0
C959 C 0.22222 0.86838 0.42615 0.0
C960 C 1.10048 0.67705 0.31931 0.0
C961 C 1.10079 0.70329 0.35025 0.0
H962 H 0.11986 0.65925 0.25993 0.0
C963 C 0.11993 0.7338 0.34286 0.0
H964 H 1.08536 0.65361 0.32364 0.0
C965 C 0.13953 0.73727 0.30581 0.0
C966 C 0.14022 0.71024 0.27589 0.0
H967 H 0.12067 0.75442 0.36629 0.0
H968 H 0.15479 0.76055 0.30117 0.0
C969 C 0.12007 0.68042 0.28265 0.0
C970 C 0.21825 0.38091 0.5982 0.0
C971 C 0.24919 0.36346 0.60913 0.0
H972 H 0.19121 0.41101 0.55119 0.0
C973 C 0.27612 0.36135 0.57932 0.0
H974 H 0.19709 0.38296 0.62065 0.0
C975 C 0.27274 0.37717 0.53996 0.0
C976 C 0.24229 0.39538 0.52937 0.0
H977 H 0.29995 0.34742 0.5864 0.0
H978 H 0.29434 0.37558 0.51808 0.0
C979 C 0.21485 0.39687 0.55856 0.0
C980 C 0.56349 0.46872 0.80586 0.0
C981 C 0.56265 0.49543 0.77569 0.0
H982 H 0.58261 0.45223 0.86652 0.0
C983 C 0.58285 0.52532 0.78224 0.0
H984 H 0.54819 0.44541 0.80141 0.0
C985 C 0.60258 0.5291 0.81892 0.0
C986 C 0.60241 0.5032 0.8501 0.0
H987 H 0.58296 0.54626 0.75936 0.0
H988 H 0.6177 0.55259 0.82308 0.0
C989 C 0.58326 0.4726 0.84292 0.0
C990 C 0.48463 0.81621 0.05691 0.0
C991 C 0.45787 0.81518 0.0266 0.0
H992 H 0.50121 0.8358 0.11741 0.0
C993 C 0.4279 0.83544 0.03288 0.0
H994 H 0.50801 0.80085 0.05273 0.0
C995 C 0.42412 0.85546 0.06933 0.0
C996 C 0.45011 0.85558 0.10061 0.0
H997 H 0.4069 0.83541 1.00991 0.0
H998 H 0.40057 0.87063 0.0732 0.0
C999 C 0.48076 0.83628 0.09374 0.0
C1000 C 1.09132 0.4716 0.67962 0.0
C1001 C 0.10296 0.50443 0.66601 0.0
H1002 H 1.06222 0.44309 0.72601 0.0
C1003 C 1.0942 0.53394 0.69004 0.0
H1004 H 1.09785 0.44829 0.66202 0.0
C1005 C 1.07451 0.53083 0.7267 0.0
C1006 C 1.06266 0.49821 0.74011 0.0
H1007 H 0.10186 0.55971 0.68006 0.0
H1008 H 1.06794 0.55426 0.74408 0.0
C1009 C 1.07114 0.46854 0.71631 0.0
C1010 C 0.9232 0.85458 0.44808 0.0
C1011 C 0.94994 0.85543 0.41792 0.0
H1012 H 0.90551 0.83471 0.5072 0.0
C1013 C 0.98126 0.83773 0.42655 0.0
H1014 H 0.89906 0.86849 0.44285 0.0
C1015 C 0.98517 0.81856 0.46397 0.0
C1016 C 0.95781 0.81685 0.49323 0.0
H1017 H 1.00229 0.83775 0.4038 0.0
H1018 H 1.00913 0.80439 0.46943 0.0
C1019 C 0.92705 0.83544 0.48517 0.0
C1020 C 0.60085 0.67578 0.19642 0.0
C1021 C 0.59987 0.70223 0.16591 0.0
H1022 H 0.62121 0.65835 0.25555 0.0
C1023 C 0.61796 0.73337 0.1739 0.0
H1024 H 0.58663 0.65181 0.1917 0.0
C1025 C 0.63763 0.73735 0.21107 0.0
C1026 C 0.63944 0.71025 0.24069 0.0
H1027 H 0.61781 0.75418 0.15085 0.0
H1028 H 0.65207 0.76115 0.21608 0.0
C1029 C 0.62047 0.67969 0.23323 0.0
C1030 C 0.77547 0.37139 0.9846 0.0
C1031 C 0.74523 0.39098 0.99188 0.0
H1032 H 0.80272 0.33699 0.94315 0.0
C1033 C 0.71797 0.38965 0.96224 0.0
H1034 H 0.79689 0.37176 1.00698 0.0
C1035 C 0.72154 0.36992 0.92511 0.0
C1036 C 0.7524 0.35126 0.91722 0.0
H1037 H 0.6944 0.40456 0.96714 0.0
H1038 H 0.70066 0.37022 0.902 0.0
C1039 C 0.77896 0.35167 0.94782 0.0
C1040 C 0.33058 0.22913 0.32516 0.0
C1041 C 0.33275 0.22775 0.28079 0.0
H1042 H 0.30746 0.25526 0.37792 0.0
C1043 C 0.30452 0.24012 0.2567 0.0
H1044 H 0.35142 0.21873 0.34456 0.0
C1045 C 0.27993 0.2618 0.27557 0.0
C1046 C 0.28328 0.27054 0.31863 0.0
H1047 H 0.30486 0.23863 0.22241 0.0
H1048 H 0.26237 0.276 0.25501 0.0
C1049 C 0.30553 0.25032 0.34417 0.0
C1050 C 0.72314 0.54761 0.52731 0.0
C1051 C 0.72017 0.58273 0.53982 0.0
H1052 H 0.69916 0.49744 0.53054 0.0
C1053 C 0.70381 0.59003 0.57872 0.0
H1054 H 0.73779 0.54041 0.49938 0.0
C1055 C 0.68329 0.56486 0.59789 0.0
C1056 C 0.67876 0.5325 0.57806 0.0
H1057 H 0.70186 0.61625 0.59095 0.0
H1058 H 0.66665 0.57277 0.62386 0.0
C1059 C 0.70142 0.52274 0.54543 0.0
C1060 C 0.37093 0.96007 0.82662 0.0
C1061 C 0.3782 0.97429 0.78657 0.0
H1062 H 0.38735 0.92396 0.8736 0.0
C1063 C 0.41319 0.97534 0.77345 0.0
H1064 H 0.3448 0.95978 0.8392 0.0
C1065 C 0.43754 0.9534 0.7926 0.0
C1066 C 0.42735 0.9323 0.82649 0.0
H1067 H 0.42035 0.98827 0.74433 0.0
H1068 H 0.46248 0.94942 0.77746 0.0
C1069 C 0.39558 0.9392 0.84662 0.0
C1070 C 1.01832 0.63949 0.10133 0.0
C1071 C 1.02213 0.672 0.08194 0.0
H1072 H 1.00011 0.588 0.09395 0.0
C1073 C 0.99854 0.68184 0.05023 0.0
H1074 H 1.03567 0.63155 0.12668 0.0
C1075 C 0.97657 0.65693 0.03232 0.0
C1076 C 0.98036 0.62171 0.04384 0.0
H1077 H 1.00022 0.70728 0.03577 0.0
H1078 H 0.96112 0.66426 1.00502 0.0
C1079 C 0.99757 0.61428 0.08226 0.0
C1080 C 0.76692 0.75236 0.79199 0.0
C1081 C 0.77655 0.77403 0.82582 0.0
H1082 H 0.78493 0.71731 0.74427 0.0
C1083 C 0.80848 0.76817 0.84624 0.0
H1084 H 0.7419 0.75557 0.77662 0.0
C1085 C 0.83365 0.74768 0.82664 0.0
C1086 C 0.82674 0.73279 0.78669 0.0
H1087 H 0.81627 0.78391 0.87317 0.0
H1088 H 0.85973 0.74877 0.83948 0.0
C1089 C 0.7918 0.73078 0.77328 0.0
C1090 C 0.87914 0.47517 0.32197 0.0
C1091 C 0.87614 0.47619 0.27764 0.0
H1092 H 0.90199 0.44852 0.37449 0.0
C1093 C 0.90316 0.46205 0.25306 0.0
H1094 H 0.85927 0.48687 0.34172 0.0
C1095 C 0.92698 0.43933 0.27161 0.0
C1096 C 0.92412 0.43132 0.31485 0.0
H1097 H 0.90218 0.46317 0.21877 0.0
H1098 H 0.94335 0.424 0.25082 0.0
C1099 C 0.90344 0.45292 0.34064 0.0
C1100 C 1.04974 1.05818 0.88431 0.0
C1101 C 1.04624 1.09445 0.88487 0.0
H1102 H 1.03112 1.01069 0.90917 0.0
C1103 C 1.01383 0.10906 0.89504 0.0
H1104 H 1.07404 1.04621 0.87479 0.0
C1105 C 0.98848 1.08842 0.91404 0.0
C1106 C 0.99644 1.05376 0.92452 0.0
H1107 H 1.00997 0.13695 0.89441 0.0
H1108 H 0.96578 1.10106 0.92733 0.0
C1109 C 1.02468 1.03773 0.90382 0.0
C1110 C 0.72692 1.05067 0.48137 0.0
C1111 C 0.7231 1.08589 0.46988 0.0
H1112 H 0.70331 1.0003 0.47791 0.0
C1113 C 0.70584 1.09333 0.4315 0.0
H1114 H 0.74242 1.04333 0.50862 0.0
C1115 C 0.6851 1.06811 0.41243 0.0
C1116 C 0.68132 1.03559 0.4318 0.0
H1117 H 0.7033 0.11961 0.41982 0.0
H1118 H 0.66773 1.07607 0.38712 0.0
C1119 C 0.70496 1.02575 0.46346 0.0
loop_
_geom_bond_atom_site_label_1
_geom_bond_atom_site_label_2
_geom_bond_distance
_geom_bond_site_symmetry_2
_ccdc_geom_bond_type
Sm0 C2 2.846 . S
Sm0 O20 2.543 . S
Sm0 O21 2.450 . S
Sm0 O22 2.681 1_556 S
Sm0 O23 2.464 1_556 S
Sm0 O24 2.396 1_556 S
Sm0 O28 2.386 . S
Sm0 O31 2.408 . S
Sm1 C11 2.846 . S
Sm1 O22 2.386 . S
Sm1 O25 2.408 . S
Sm1 O26 2.543 . S
Sm1 O27 2.450 . S
Sm1 O28 2.681 1_554 S
Sm1 O29 2.464 . S
Sm1 O30 2.396 . S
C2 Sm0 2.846 . S
C2 C3 1.506 . S
C2 O20 1.261 . S
C2 O21 1.242 . S
C3 C2 1.506 . S
C3 C4 1.358 . S
C3 C8 1.382 . S
C4 C3 1.358 . S
C4 C5 1.385 . S
C4 H32 0.930 . S
C5 C4 1.385 . S
C5 C6 1.395 . S
C5 H33 0.929 . S
C6 C5 1.395 . S
C6 C7 1.335 . S
C7 C6 1.335 . S
C7 C8 1.398 . S
C7 H34 0.930 . S
C8 C3 1.382 . S
C8 C7 1.398 . S
C8 H35 0.929 . S
C9 O22 1.271 . S
C9 O23 1.251 . S
C10 O24 1.252 . S
C10 O25 1.272 . S
C11 Sm1 2.846 . S
C11 C12 1.506 . S
C11 O26 1.261 . S
C11 O27 1.242 . S
C12 C11 1.506 . S
C12 C13 1.358 . S
C12 C17 1.382 . S
C13 C12 1.358 . S
C13 C14 1.385 . S
C13 H36 0.930 . S
C14 C13 1.385 . S
C14 C15 1.395 . S
C14 H37 0.929 . S
C15 C14 1.395 . S
C15 C16 1.335 . S
C16 C15 1.335 . S
C16 C17 1.398 . S
C16 H38 0.930 . S
C17 C12 1.382 . S
C17 C16 1.398 . S
C17 H39 0.929 . S
C18 O28 1.271 . S
C18 O29 1.251 1_556 S
C19 O30 1.252 . S
C19 O31 1.272 1_554 S
O20 Sm0 2.543 . S
O20 C2 1.261 . S
O21 Sm0 2.450 . S
O21 C2 1.242 . S
O22 Sm0 2.681 1_554 S
O22 Sm1 2.386 . S
O22 C9 1.271 . S
O23 Sm0 2.464 1_554 S
O23 C9 1.251 . S
O24 Sm0 2.396 1_554 S
O24 C10 1.252 . S
O25 Sm1 2.408 . S
O25 C10 1.272 . S
O26 Sm1 2.543 . S
O26 C11 1.261 . S
O27 Sm1 2.450 . S
O27 C11 1.242 . S
O28 Sm0 2.386 . S
O28 Sm1 2.681 1_556 S
O28 C18 1.271 . S
O29 Sm1 2.464 . S
O29 C18 1.251 1_554 S
O30 Sm1 2.396 . S
O30 C19 1.252 . S
O31 Sm0 2.408 . S
O31 C19 1.272 1_556 S
H32 C4 0.930 . S
H33 C5 0.929 . S
H34 C7 0.930 . S
H35 C8 0.929 . S
H36 C13 0.930 . S
H37 C14 0.929 . S
H38 C16 0.930 . S
H39 C17 0.929 . S
Sm40 C42 2.846 . S
Sm40 O60 2.543 . S
Sm40 O61 2.450 . S
Sm40 O62 2.681 . S
Sm40 O63 2.464 . S
Sm40 O64 2.396 . S
Sm40 O68 2.386 . S
Sm40 O71 2.408 . S
Sm41 C51 2.846 . S
Sm41 O62 2.386 . S
Sm41 O65 2.408 . S
Sm41 O66 2.543 . S
Sm41 O67 2.450 . S
Sm41 O68 2.681 . S
Sm41 O69 2.464 . S
Sm41 O70 2.396 . S
C42 Sm40 2.846 . S
C42 C43 1.506 . S
C42 O60 1.261 . S
C42 O61 1.242 . S
C43 C42 1.506 . S
C43 C44 1.358 . S
C43 C48 1.382 . S
C44 C43 1.358 . S
C44 C45 1.385 . S
C44 H72 0.930 . S
C45 C44 1.385 . S
C45 C46 1.395 . S
C45 H73 0.929 . S
C46 C45 1.395 . S
C46 C47 1.335 . S
C47 C46 1.335 . S
C47 C48 1.398 . S
C47 H74 0.930 . S
C48 C43 1.382 . S
C48 C47 1.398 . S
C48 H75 0.929 . S
C49 O62 1.271 . S
C49 O63 1.251 . S
C50 O64 1.252 . S
C50 O65 1.272 . S
C51 Sm41 2.846 . S
C51 C52 1.506 . S
C51 O66 1.261 . S
C51 O67 1.242 . S
C52 C51 1.506 . S
C52 C53 1.358 . S
C52 C57 1.382 . S
C53 C52 1.358 . S
C53 C54 1.385 . S
C53 H76 0.930 . S
C54 C53 1.385 . S
C54 C55 1.395 . S
C54 H77 0.929 . S
C55 C54 1.395 . S
C55 C56 1.335 . S
C56 C55 1.335 . S
C56 C57 1.398 . S
C56 H78 0.930 . S
C57 C52 1.382 . S
C57 C56 1.398 . S
C57 H79 0.929 . S
C58 O68 1.271 . S
C58 O69 1.251 . S
C59 O70 1.252 . S
C59 O71 1.272 . S
O60 Sm40 2.543 . S
O60 C42 1.261 . S
O61 Sm40 2.450 . S
O61 C42 1.242 . S
O62 Sm40 2.681 . S
O62 Sm41 2.386 . S
O62 C49 1.271 . S
O63 Sm40 2.464 . S
O63 C49 1.251 . S
O64 Sm40 2.396 . S
O64 C50 1.252 . S
O65 Sm41 2.408 . S
O65 C50 1.272 . S
O66 Sm41 2.543 . S
O66 C51 1.261 . S
O67 Sm41 2.450 . S
O67 C51 1.242 . S
O68 Sm40 2.386 . S
O68 Sm41 2.681 . S
O68 C58 1.271 . S
O69 Sm41 2.464 . S
O69 C58 1.251 . S
O70 Sm41 2.396 . S
O70 C59 1.252 . S
O71 Sm40 2.408 . S
O71 C59 1.272 . S
H72 C44 0.930 . S
H73 C45 0.929 . S
H74 C47 0.930 . S
H75 C48 0.929 . S
H76 C53 0.930 . S
H77 C54 0.929 . S
H78 C56 0.930 . S
H79 C57 0.929 . S
Sm80 C82 2.846 . S
Sm80 O100 2.543 . S
Sm80 O101 2.450 . S
Sm80 O102 2.681 . S
Sm80 O103 2.464 . S
Sm80 O104 2.396 . S
Sm80 O108 2.386 . S
Sm80 O111 2.408 . S
Sm81 C91 2.846 . S
Sm81 O102 2.386 . S
Sm81 O105 2.408 . S
Sm81 O106 2.543 . S
Sm81 O107 2.450 . S
Sm81 O108 2.681 . S
Sm81 O109 2.464 . S
Sm81 O110 2.396 . S
C82 Sm80 2.846 . S
C82 C83 1.506 . S
C82 O100 1.261 . S
C82 O101 1.242 . S
C83 C82 1.506 . S
C83 C84 1.358 . S
C83 C88 1.382 . S
C84 C83 1.358 . S
C84 C85 1.385 1_455 S
C84 H112 0.930 . S
C85 C84 1.385 1_655 S
C85 C86 1.395 . S
C85 H113 0.929 . S
C86 C85 1.395 . S
C86 C87 1.335 . S
C87 C86 1.335 . S
C87 C88 1.398 1_655 S
C87 H114 0.930 . S
C88 C83 1.382 . S
C88 C87 1.398 1_455 S
C88 H115 0.929 . S
C89 O102 1.271 . S
C89 O103 1.251 . S
C90 O104 1.252 . S
C90 O105 1.272 . S
C91 Sm81 2.846 . S
C91 C92 1.506 . S
C91 O106 1.261 . S
C91 O107 1.242 . S
C92 C91 1.506 . S
C92 C93 1.358 . S
C92 C97 1.382 . S
C93 C92 1.358 . S
C93 C94 1.385 . S
C93 H116 0.930 . S
C94 C93 1.385 . S
C94 C95 1.395 . S
C94 H117 0.929 . S
C95 C94 1.395 . S
C95 C96 1.335 . S
C96 C95 1.335 . S
C96 C97 1.398 . S
C96 H118 0.930 . S
C97 C92 1.382 . S
C97 C96 1.398 . S
C97 H119 0.929 . S
C98 O108 1.271 . S
C98 O109 1.251 . S
C99 O110 1.252 . S
C99 O111 1.272 . S
O100 Sm80 2.543 . S
O100 C82 1.261 . S
O101 Sm80 2.450 . S
O101 C82 1.242 . S
O102 Sm80 2.681 . S
O102 Sm81 2.386 . S
O102 C89 1.271 . S
O103 Sm80 2.464 . S
O103 C89 1.251 . S
O104 Sm80 2.396 . S
O104 C90 1.252 . S
O105 Sm81 2.408 . S
O105 C90 1.272 . S
O106 Sm81 2.543 . S
O106 C91 1.261 . S
O107 Sm81 2.450 . S
O107 C91 1.242 . S
O108 Sm80 2.386 . S
O108 Sm81 2.681 . S
O108 C98 1.271 . S
O109 Sm81 2.464 . S
O109 C98 1.251 . S
O110 Sm81 2.396 . S
O110 C99 1.252 . S
O111 Sm80 2.408 . S
O111 C99 1.272 . S
H112 C84 0.930 . S
H113 C85 0.929 . S
H114 C87 0.930 . S
H115 C88 0.929 . S
H116 C93 0.930 . S
H117 C94 0.929 . S
H118 C96 0.930 . S
H119 C97 0.929 . S
Sm120 C122 2.846 . S
Sm120 O140 2.543 . S
Sm120 O141 2.450 . S
Sm120 O142 2.681 . S
Sm120 O143 2.464 . S
Sm120 O144 2.396 . S
Sm120 O148 2.386 . S
Sm120 O151 2.408 . S
Sm121 C131 2.846 . S
Sm121 O142 2.386 . S
Sm121 O145 2.408 . S
Sm121 O146 2.543 . S
Sm121 O147 2.450 . S
Sm121 O148 2.681 . S
Sm121 O149 2.464 . S
Sm121 O150 2.396 . S
C122 Sm120 2.846 . S
C122 C123 1.506 . S
C122 O140 1.261 . S
C122 O141 1.242 . S
C123 C122 1.506 . S
C123 C124 1.358 . S
C123 C128 1.382 . S
C124 C123 1.358 . S
C124 C125 1.385 . S
C124 H152 0.930 . S
C125 C124 1.385 . S
C125 C126 1.395 . S
C125 H153 0.929 . S
C126 C125 1.395 . S
C126 C127 1.335 . S
C127 C126 1.335 . S
C127 C128 1.398 . S
C127 H154 0.930 . S
C128 C123 1.382 . S
C128 C127 1.398 . S
C128 H155 0.929 . S
C129 O142 1.271 . S
C129 O143 1.251 . S
C130 O144 1.252 . S
C130 O145 1.272 . S
C131 Sm121 2.846 . S
C131 C132 1.506 . S
C131 O146 1.261 . S
C131 O147 1.242 . S
C132 C131 1.506 . S
C132 C133 1.358 . S
C132 C137 1.382 . S
C133 C132 1.358 . S
C133 C134 1.385 . S
C133 H156 0.930 . S
C134 C133 1.385 . S
C134 C135 1.395 . S
C134 H157 0.929 . S
C135 C134 1.395 . S
C135 C136 1.335 . S
C136 C135 1.335 . S
C136 C137 1.398 . S
C136 H158 0.930 . S
C137 C132 1.382 . S
C137 C136 1.398 . S
C137 H159 0.929 . S
C138 O148 1.271 . S
C138 O149 1.251 . S
C139 O150 1.252 . S
C139 O151 1.272 . S
O140 Sm120 2.543 . S
O140 C122 1.261 . S
O141 Sm120 2.450 . S
O141 C122 1.242 . S
O142 Sm120 2.681 . S
O142 Sm121 2.386 . S
O142 C129 1.271 . S
O143 Sm120 2.464 . S
O143 C129 1.251 . S
O144 Sm120 2.396 . S
O144 C130 1.252 . S
O145 Sm121 2.408 . S
O145 C130 1.272 . S
O146 Sm121 2.543 . S
O146 C131 1.261 . S
O147 Sm121 2.450 . S
O147 C131 1.242 . S
O148 Sm120 2.386 . S
O148 Sm121 2.681 . S
O148 C138 1.271 . S
O149 Sm121 2.464 . S
O149 C138 1.251 . S
O150 Sm121 2.396 . S
O150 C139 1.252 . S
O151 Sm120 2.408 . S
O151 C139 1.272 . S
H152 C124 0.930 . S
H153 C125 0.929 . S
H154 C127 0.930 . S
H155 C128 0.929 . S
H156 C133 0.930 . S
H157 C134 0.929 . S
H158 C136 0.930 . S
H159 C137 0.929 . S
Sm160 C162 2.846 . S
Sm160 O180 2.543 . S
Sm160 O181 2.450 . S
Sm160 O182 2.681 1_556 S
Sm160 O183 2.464 . S
Sm160 O184 2.396 . S
Sm160 O188 2.386 . S
Sm160 O191 2.408 . S
Sm161 C171 2.846 . S
Sm161 O182 2.386 . S
Sm161 O185 2.408 . S
Sm161 O186 2.543 . S
Sm161 O187 2.450 . S
Sm161 O188 2.681 1_554 S
Sm161 O189 2.464 1_554 S
Sm161 O190 2.396 1_554 S
C162 Sm160 2.846 . S
C162 C163 1.506 . S
C162 O180 1.261 . S
C162 O181 1.242 . S
C163 C162 1.506 . S
C163 C164 1.358 . S
C163 C168 1.382 . S
C164 C163 1.358 . S
C164 C165 1.385 . S
C164 H192 0.930 . S
C165 C164 1.385 . S
C165 C166 1.395 . S
C165 H193 0.929 . S
C166 C165 1.395 . S
C166 C167 1.335 . S
C167 C166 1.335 . S
C167 C168 1.398 . S
C167 H194 0.930 . S
C168 C163 1.382 . S
C168 C167 1.398 . S
C168 H195 0.929 . S
C169 O182 1.271 . S
C169 O183 1.251 1_554 S
C170 O184 1.252 . S
C170 O185 1.272 1_556 S
C171 Sm161 2.846 . S
C171 C172 1.506 . S
C171 O186 1.261 . S
C171 O187 1.242 . S
C172 C171 1.506 . S
C172 C173 1.358 . S
C172 C177 1.382 . S
C173 C172 1.358 . S
C173 C174 1.385 . S
C173 H196 0.930 . S
C174 C173 1.385 . S
C174 C175 1.395 . S
C174 H197 0.929 . S
C175 C174 1.395 . S
C175 C176 1.335 . S
C176 C175 1.335 . S
C176 C177 1.398 . S
C176 H198 0.930 . S
C177 C172 1.382 . S
C177 C176 1.398 . S
C177 H199 0.929 . S
C178 O188 1.271 . S
C178 O189 1.251 . S
C179 O190 1.252 . S
C179 O191 1.272 . S
O180 Sm160 2.543 . S
O180 C162 1.261 . S
O181 Sm160 2.450 . S
O181 C162 1.242 . S
O182 Sm160 2.681 1_554 S
O182 Sm161 2.386 . S
O182 C169 1.271 . S
O183 Sm160 2.464 . S
O183 C169 1.251 1_556 S
O184 Sm160 2.396 . S
O184 C170 1.252 . S
O185 Sm161 2.408 . S
O185 C170 1.272 1_554 S
O186 Sm161 2.543 . S
O186 C171 1.261 . S
O187 Sm161 2.450 . S
O187 C171 1.242 . S
O188 Sm160 2.386 . S
O188 Sm161 2.681 1_556 S
O188 C178 1.271 . S
O189 Sm161 2.464 1_556 S
O189 C178 1.251 . S
O190 Sm161 2.396 1_556 S
O190 C179 1.252 . S
O191 Sm160 2.408 . S
O191 C179 1.272 . S
H192 C164 0.930 . S
H193 C165 0.929 . S
H194 C167 0.930 . S
H195 C168 0.929 . S
H196 C173 0.930 . S
H197 C174 0.929 . S
H198 C176 0.930 . S
H199 C177 0.929 . S
Sm200 C202 2.846 . S
Sm200 O220 2.543 . S
Sm200 O221 2.450 . S
Sm200 O222 2.681 . S
Sm200 O223 2.464 . S
Sm200 O224 2.396 . S
Sm200 O228 2.386 . S
Sm200 O231 2.408 . S
Sm201 C211 2.846 . S
Sm201 O222 2.386 . S
Sm201 O225 2.408 . S
Sm201 O226 2.543 . S
Sm201 O227 2.450 . S
Sm201 O228 2.681 . S
Sm201 O229 2.464 . S
Sm201 O230 2.396 . S
C202 Sm200 2.846 . S
C202 C203 1.506 . S
C202 O220 1.261 . S
C202 O221 1.242 . S
C203 C202 1.506 . S
C203 C204 1.358 . S
C203 C208 1.382 . S
C204 C203 1.358 . S
C204 C205 1.385 . S
C204 H232 0.930 . S
C205 C204 1.385 . S
C205 C206 1.395 . S
C205 H233 0.929 . S
C206 C205 1.395 . S
C206 C207 1.335 . S
C207 C206 1.335 . S
C207 C208 1.398 . S
C207 H234 0.930 . S
C208 C203 1.382 . S
C208 C207 1.398 . S
C208 H235 0.929 . S
C209 O222 1.271 . S
C209 O223 1.251 . S
C210 O224 1.252 . S
C210 O225 1.272 . S
C211 Sm201 2.846 . S
C211 C212 1.506 . S
C211 O226 1.261 . S
C211 O227 1.242 . S
C212 C211 1.506 . S
C212 C213 1.358 . S
C212 C217 1.382 . S
C213 C212 1.358 . S
C213 C214 1.385 . S
C213 H236 0.930 . S
C214 C213 1.385 . S
C214 C215 1.395 . S
C214 H237 0.929 . S
C215 C214 1.395 . S
C215 C216 1.335 . S
C216 C215 1.335 . S
C216 C217 1.398 . S
C216 H238 0.930 . S
C217 C212 1.382 . S
C217 C216 1.398 . S
C217 H239 0.929 . S
C218 O228 1.271 . S
C218 O229 1.251 . S
C219 O230 1.252 . S
C219 O231 1.272 . S
O220 Sm200 2.543 . S
O220 C202 1.261 . S
O221 Sm200 2.450 . S
O221 C202 1.242 . S
O222 Sm200 2.681 . S
O222 Sm201 2.386 . S
O222 C209 1.271 . S
O223 Sm200 2.464 . S
O223 C209 1.251 . S
O224 Sm200 2.396 . S
O224 C210 1.252 . S
O225 Sm201 2.408 . S
O225 C210 1.272 . S
O226 Sm201 2.543 . S
O226 C211 1.261 . S
O227 Sm201 2.450 . S
O227 C211 1.242 . S
O228 Sm200 2.386 . S
O228 Sm201 2.681 . S
O228 C218 1.271 . S
O229 Sm201 2.464 . S
O229 C218 1.251 . S
O230 Sm201 2.396 . S
O230 C219 1.252 . S
O231 Sm200 2.408 . S
O231 C219 1.272 . S
H232 C204 0.930 . S
H233 C205 0.929 . S
H234 C207 0.930 . S
H235 C208 0.929 . S
H236 C213 0.930 . S
H237 C214 0.929 . S
H238 C216 0.930 . S
H239 C217 0.929 . S
Sm240 C242 2.846 . S
Sm240 O260 2.543 . S
Sm240 O261 2.450 . S
Sm240 O262 2.681 . S
Sm240 O263 2.464 . S
Sm240 O264 2.396 . S
Sm240 O268 2.386 . S
Sm240 O271 2.408 . S
Sm241 C251 2.846 . S
Sm241 O262 2.386 . S
Sm241 O265 2.408 . S
Sm241 O266 2.543 . S
Sm241 O267 2.450 . S
Sm241 O268 2.681 . S
Sm241 O269 2.464 . S
Sm241 O270 2.396 . S
C242 Sm240 2.846 . S
C242 C243 1.506 . S
C242 O260 1.261 . S
C242 O261 1.242 . S
C243 C242 1.506 . S
C243 C244 1.358 . S
C243 C248 1.382 . S
C244 C243 1.358 . S
C244 C245 1.385 . S
C244 H272 0.930 . S
C245 C244 1.385 . S
C245 C246 1.395 . S
C245 H273 0.929 . S
C246 C245 1.395 . S
C246 C247 1.335 . S
C247 C246 1.335 . S
C247 C248 1.398 . S
C247 H274 0.930 . S
C248 C243 1.382 . S
C248 C247 1.398 . S
C248 H275 0.929 . S
C249 O262 1.271 . S
C249 O263 1.251 . S
C250 O264 1.252 . S
C250 O265 1.272 . S
C251 Sm241 2.846 . S
C251 C252 1.506 . S
C251 O266 1.261 . S
C251 O267 1.242 . S
C252 C251 1.506 . S
C252 C253 1.358 . S
C252 C257 1.382 . S
C253 C252 1.358 . S
C253 C254 1.385 1_655 S
C253 H276 0.930 . S
C254 C253 1.385 1_455 S
C254 C255 1.395 . S
C254 H277 0.929 . S
C255 C254 1.395 . S
C255 C256 1.335 . S
C256 C255 1.335 . S
C256 C257 1.398 1_455 S
C256 H278 0.930 . S
C257 C252 1.382 . S
C257 C256 1.398 1_655 S
C257 H279 0.929 . S
C258 O268 1.271 . S
C258 O269 1.251 . S
C259 O270 1.252 . S
C259 O271 1.272 . S
O260 Sm240 2.543 . S
O260 C242 1.261 . S
O261 Sm240 2.450 . S
O261 C242 1.242 . S
O262 Sm240 2.681 . S
O262 Sm241 2.386 . S
O262 C249 1.271 . S
O263 Sm240 2.464 . S
O263 C249 1.251 . S
O264 Sm240 2.396 . S
O264 C250 1.252 . S
O265 Sm241 2.408 . S
O265 C250 1.272 . S
O266 Sm241 2.543 . S
O266 C251 1.261 . S
O267 Sm241 2.450 . S
O267 C251 1.242 . S
O268 Sm240 2.386 . S
O268 Sm241 2.681 . S
O268 C258 1.271 . S
O269 Sm241 2.464 . S
O269 C258 1.251 . S
O270 Sm241 2.396 . S
O270 C259 1.252 . S
O271 Sm240 2.408 . S
O271 C259 1.272 . S
H272 C244 0.930 . S
H273 C245 0.929 . S
H274 C247 0.930 . S
H275 C248 0.929 . S
H276 C253 0.930 . S
H277 C254 0.929 . S
H278 C256 0.930 . S
H279 C257 0.929 . S
Sm280 C282 2.846 . S
Sm280 O300 2.543 . S
Sm280 O301 2.450 . S
Sm280 O302 2.681 . S
Sm280 O303 2.464 . S
Sm280 O304 2.396 . S
Sm280 O308 2.386 . S
Sm280 O311 2.408 . S
Sm281 C291 2.846 . S
Sm281 O302 2.386 . S
Sm281 O305 2.408 . S
Sm281 O306 2.543 . S
Sm281 O307 2.450 . S
Sm281 O308 2.681 . S
Sm281 O309 2.464 . S
Sm281 O310 2.396 . S
C282 Sm280 2.846 . S
C282 C283 1.506 . S
C282 O300 1.261 . S
C282 O301 1.242 . S
C283 C282 1.506 . S
C283 C284 1.358 . S
C283 C288 1.382 . S
C284 C283 1.358 . S
C284 C285 1.385 . S
C284 H312 0.930 . S
C285 C284 1.385 . S
C285 C286 1.395 . S
C285 H313 0.929 . S
C286 C285 1.395 . S
C286 C287 1.335 . S
C287 C286 1.335 . S
C287 C288 1.398 . S
C287 H314 0.930 . S
C288 C283 1.382 . S
C288 C287 1.398 . S
C288 H315 0.929 . S
C289 O302 1.271 . S
C289 O303 1.251 . S
C290 O304 1.252 . S
C290 O305 1.272 . S
C291 Sm281 2.846 . S
C291 C292 1.506 . S
C291 O306 1.261 . S
C291 O307 1.242 . S
C292 C291 1.506 . S
C292 C293 1.358 . S
C292 C297 1.382 . S
C293 C292 1.358 . S
C293 C294 1.385 . S
C293 H316 0.930 . S
C294 C293 1.385 . S
C294 C295 1.395 . S
C294 H317 0.929 . S
C295 C294 1.395 . S
C295 C296 1.335 . S
C296 C295 1.335 . S
C296 C297 1.398 . S
C296 H318 0.930 . S
C297 C292 1.382 . S
C297 C296 1.398 . S
C297 H319 0.929 . S
C298 O308 1.271 . S
C298 O309 1.251 . S
C299 O310 1.252 . S
C299 O311 1.272 . S
O300 Sm280 2.543 . S
O300 C282 1.261 . S
O301 Sm280 2.450 . S
O301 C282 1.242 . S
O302 Sm280 2.681 . S
O302 Sm281 2.386 . S
O302 C289 1.271 . S
O303 Sm280 2.464 . S
O303 C289 1.251 . S
O304 Sm280 2.396 . S
O304 C290 1.252 . S
O305 Sm281 2.408 . S
O305 C290 1.272 . S
O306 Sm281 2.543 . S
O306 C291 1.261 . S
O307 Sm281 2.450 . S
O307 C291 1.242 . S
O308 Sm280 2.386 . S
O308 Sm281 2.681 . S
O308 C298 1.271 . S
O309 Sm281 2.464 . S
O309 C298 1.251 . S
O310 Sm281 2.396 . S
O310 C299 1.252 . S
O311 Sm280 2.408 . S
O311 C299 1.272 . S
H312 C284 0.930 . S
H313 C285 0.929 . S
H314 C287 0.930 . S
H315 C288 0.929 . S
H316 C293 0.930 . S
H317 C294 0.929 . S
H318 C296 0.930 . S
H319 C297 0.929 . S
Sm320 C322 2.846 . S
Sm320 O340 2.543 . S
Sm320 O341 2.450 . S
Sm320 O342 2.681 . S
Sm320 O343 2.464 . S
Sm320 O344 2.396 . S
Sm320 O348 2.386 . S
Sm320 O351 2.408 . S
Sm321 C331 2.846 . S
Sm321 O342 2.386 . S
Sm321 O345 2.408 . S
Sm321 O346 2.543 . S
Sm321 O347 2.450 . S
Sm321 O348 2.681 . S
Sm321 O349 2.464 . S
Sm321 O350 2.396 . S
C322 Sm320 2.846 . S
C322 C323 1.506 . S
C322 O340 1.261 . S
C322 O341 1.242 . S
C323 C322 1.506 . S
C323 C324 1.358 . S
C323 C328 1.382 . S
C324 C323 1.358 . S
C324 C325 1.385 1_655 S
C324 H352 0.930 . S
C325 C324 1.385 1_455 S
C325 C326 1.395 . S
C325 H353 0.929 . S
C326 C325 1.395 . S
C326 C327 1.335 . S
C327 C326 1.335 . S
C327 C328 1.398 1_455 S
C327 H354 0.930 . S
C328 C323 1.382 . S
C328 C327 1.398 1_655 S
C328 H355 0.929 . S
C329 O342 1.271 . S
C329 O343 1.251 . S
C330 O344 1.252 . S
C330 O345 1.272 . S
C331 Sm321 2.846 . S
C331 C332 1.506 . S
C331 O346 1.261 . S
C331 O347 1.242 . S
C332 C331 1.506 . S
C332 C333 1.358 . S
C332 C337 1.382 . S
C333 C332 1.358 . S
C333 C334 1.385 . S
C333 H356 0.930 . S
C334 C333 1.385 . S
C334 C335 1.395 . S
C334 H357 0.929 . S
C335 C334 1.395 . S
C335 C336 1.335 . S
C336 C335 1.335 . S
C336 C337 1.398 . S
C336 H358 0.930 . S
C337 C332 1.382 . S
C337 C336 1.398 . S
C337 H359 0.929 . S
C338 O348 1.271 . S
C338 O349 1.251 . S
C339 O350 1.252 . S
C339 O351 1.272 . S
O340 Sm320 2.543 . S
O340 C322 1.261 . S
O341 Sm320 2.450 . S
O341 C322 1.242 . S
O342 Sm320 2.681 . S
O342 Sm321 2.386 . S
O342 C329 1.271 . S
O343 Sm320 2.464 . S
O343 C329 1.251 . S
O344 Sm320 2.396 . S
O344 C330 1.252 . S
O345 Sm321 2.408 . S
O345 C330 1.272 . S
O346 Sm321 2.543 . S
O346 C331 1.261 . S
O347 Sm321 2.450 . S
O347 C331 1.242 . S
O348 Sm320 2.386 . S
O348 Sm321 2.681 . S
O348 C338 1.271 . S
O349 Sm321 2.464 . S
O349 C338 1.251 . S
O350 Sm321 2.396 . S
O350 C339 1.252 . S
O351 Sm320 2.408 . S
O351 C339 1.272 . S
H352 C324 0.930 . S
H353 C325 0.929 . S
H354 C327 0.930 . S
H355 C328 0.929 . S
H356 C333 0.930 . S
H357 C334 0.929 . S
H358 C336 0.930 . S
H359 C337 0.929 . S
Sm360 C362 2.846 . S
Sm360 O380 2.543 . S
Sm360 O381 2.450 . S
Sm360 O382 2.681 . S
Sm360 O383 2.464 . S
Sm360 O384 2.396 . S
Sm360 O388 2.386 . S
Sm360 O391 2.408 . S
Sm361 C371 2.846 . S
Sm361 O382 2.386 . S
Sm361 O385 2.408 . S
Sm361 O386 2.543 . S
Sm361 O387 2.450 . S
Sm361 O388 2.681 . S
Sm361 O389 2.464 . S
Sm361 O390 2.396 . S
C362 Sm360 2.846 . S
C362 C363 1.506 . S
C362 O380 1.261 . S
C362 O381 1.242 . S
C363 C362 1.506 . S
C363 C364 1.358 . S
C363 C368 1.382 . S
C364 C363 1.358 . S
C364 C365 1.385 . S
C364 H392 0.930 . S
C365 C364 1.385 . S
C365 C366 1.395 . S
C365 H393 0.929 . S
C366 C365 1.395 . S
C366 C367 1.335 . S
C367 C366 1.335 . S
C367 C368 1.398 . S
C367 H394 0.930 . S
C368 C363 1.382 . S
C368 C367 1.398 . S
C368 H395 0.929 . S
C369 O382 1.271 . S
C369 O383 1.251 . S
C370 O384 1.252 . S
C370 O385 1.272 . S
C371 Sm361 2.846 . S
C371 C372 1.506 . S
C371 O386 1.261 . S
C371 O387 1.242 . S
C372 C371 1.506 . S
C372 C373 1.358 . S
C372 C377 1.382 . S
C373 C372 1.358 . S
C373 C374 1.385 1_545 S
C373 H396 0.930 . S
C374 C373 1.385 1_565 S
C374 C375 1.395 . S
C374 H397 0.929 . S
C375 C374 1.395 . S
C375 C376 1.335 . S
C376 C375 1.335 . S
C376 C377 1.398 1_565 S
C376 H398 0.930 . S
C377 C372 1.382 . S
C377 C376 1.398 1_545 S
C377 H399 0.929 . S
C378 O388 1.271 . S
C378 O389 1.251 . S
C379 O390 1.252 . S
C379 O391 1.272 . S
O380 Sm360 2.543 . S
O380 C362 1.261 . S
O381 Sm360 2.450 . S
O381 C362 1.242 . S
O382 Sm360 2.681 . S
O382 Sm361 2.386 . S
O382 C369 1.271 . S
O383 Sm360 2.464 . S
O383 C369 1.251 . S
O384 Sm360 2.396 . S
O384 C370 1.252 . S
O385 Sm361 2.408 . S
O385 C370 1.272 . S
O386 Sm361 2.543 . S
O386 C371 1.261 . S
O387 Sm361 2.450 . S
O387 C371 1.242 . S
O388 Sm360 2.386 . S
O388 Sm361 2.681 . S
O388 C378 1.271 . S
O389 Sm361 2.464 . S
O389 C378 1.251 . S
O390 Sm361 2.396 . S
O390 C379 1.252 . S
O391 Sm360 2.408 . S
O391 C379 1.272 . S
H392 C364 0.930 . S
H393 C365 0.929 . S
H394 C367 0.930 . S
H395 C368 0.929 . S
H396 C373 0.930 . S
H397 C374 0.929 . S
H398 C376 0.930 . S
H399 C377 0.929 . S
Sm400 C402 2.846 . S
Sm400 O420 2.543 . S
Sm400 O421 2.450 . S
Sm400 O422 2.681 1_556 S
Sm400 O423 2.464 1_556 S
Sm400 O424 2.396 1_556 S
Sm400 O428 2.386 . S
Sm400 O431 2.408 . S
Sm401 C411 2.846 . S
Sm401 O422 2.386 . S
Sm401 O425 2.408 . S
Sm401 O426 2.543 . S
Sm401 O427 2.450 . S
Sm401 O428 2.681 1_554 S
Sm401 O429 2.464 . S
Sm401 O430 2.396 . S
C402 Sm400 2.846 . S
C402 C403 1.506 . S
C402 O420 1.261 . S
C402 O421 1.242 . S
C403 C402 1.506 . S
C403 C404 1.358 . S
C403 C408 1.382 . S
C404 C403 1.358 . S
C404 C405 1.385 . S
C404 H432 0.930 . S
C405 C404 1.385 . S
C405 C406 1.395 . S
C405 H433 0.929 . S
C406 C405 1.395 . S
C406 C407 1.335 . S
C407 C406 1.335 . S
C407 C408 1.398 . S
C407 H434 0.930 . S
C408 C403 1.382 . S
C408 C407 1.398 . S
C408 H435 0.929 . S
C409 O422 1.271 . S
C409 O423 1.251 . S
C410 O424 1.252 . S
C410 O425 1.272 . S
C411 Sm401 2.846 . S
C411 C412 1.506 . S
C411 O426 1.261 . S
C411 O427 1.242 . S
C412 C411 1.506 . S
C412 C413 1.358 . S
C412 C417 1.382 . S
C413 C412 1.358 . S
C413 C414 1.385 . S
C413 H436 0.930 . S
C414 C413 1.385 . S
C414 C415 1.395 . S
C414 H437 0.929 . S
C415 C414 1.395 . S
C415 C416 1.335 . S
C416 C415 1.335 . S
C416 C417 1.398 . S
C416 H438 0.930 . S
C417 C412 1.382 . S
C417 C416 1.398 . S
C417 H439 0.929 . S
C418 O428 1.271 . S
C418 O429 1.251 1_556 S
C419 O430 1.252 . S
C419 O431 1.272 1_554 S
O420 Sm400 2.543 . S
O420 C402 1.261 . S
O421 Sm400 2.450 . S
O421 C402 1.242 . S
O422 Sm400 2.681 1_554 S
O422 Sm401 2.386 . S
O422 C409 1.271 . S
O423 Sm400 2.464 1_554 S
O423 C409 1.251 . S
O424 Sm400 2.396 1_554 S
O424 C410 1.252 . S
O425 Sm401 2.408 . S
O425 C410 1.272 . S
O426 Sm401 2.543 . S
O426 C411 1.261 . S
O427 Sm401 2.450 . S
O427 C411 1.242 . S
O428 Sm400 2.386 . S
O428 Sm401 2.681 1_556 S
O428 C418 1.271 . S
O429 Sm401 2.464 . S
O429 C418 1.251 1_554 S
O430 Sm401 2.396 . S
O430 C419 1.252 . S
O431 Sm400 2.408 . S
O431 C419 1.272 1_556 S
H432 C404 0.930 . S
H433 C405 0.929 . S
H434 C407 0.930 . S
H435 C408 0.929 . S
H436 C413 0.930 . S
H437 C414 0.929 . S
H438 C416 0.930 . S
H439 C417 0.929 . S
Sm440 C442 2.846 . S
Sm440 O460 2.543 . S
Sm440 O461 2.450 . S
Sm440 O462 2.681 . S
Sm440 O463 2.464 . S
Sm440 O464 2.396 . S
Sm440 O468 2.386 . S
Sm440 O471 2.408 . S
Sm441 C451 2.846 . S
Sm441 O462 2.386 . S
Sm441 O465 2.408 . S
Sm441 O466 2.543 . S
Sm441 O467 2.450 . S
Sm441 O468 2.681 . S
Sm441 O469 2.464 . S
Sm441 O470 2.396 . S
C442 Sm440 2.846 . S
C442 C443 1.506 . S
C442 O460 1.261 . S
C442 O461 1.242 . S
C443 C442 1.506 . S
C443 C444 1.358 . S
C443 C448 1.382 . S
C444 C443 1.358 . S
C444 C445 1.385 . S
C444 H472 0.930 . S
C445 C444 1.385 . S
C445 C446 1.395 . S
C445 H473 0.929 . S
C446 C445 1.395 . S
C446 C447 1.335 . S
C447 C446 1.335 . S
C447 C448 1.398 . S
C447 H474 0.930 . S
C448 C443 1.382 . S
C448 C447 1.398 . S
C448 H475 0.929 . S
C449 O462 1.271 . S
C449 O463 1.251 . S
C450 O464 1.252 . S
C450 O465 1.272 . S
C451 Sm441 2.846 . S
C451 C452 1.506 . S
C451 O466 1.261 . S
C451 O467 1.242 . S
C452 C451 1.506 . S
C452 C453 1.358 . S
C452 C457 1.382 . S
C453 C452 1.358 . S
C453 C454 1.385 1_565 S
C453 H476 0.930 . S
C454 C453 1.385 1_545 S
C454 C455 1.395 . S
C454 H477 0.929 . S
C455 C454 1.395 . S
C455 C456 1.335 . S
C456 C455 1.335 . S
C456 C457 1.398 1_545 S
C456 H478 0.930 . S
C457 C452 1.382 . S
C457 C456 1.398 1_565 S
C457 H479 0.929 . S
C458 O468 1.271 . S
C458 O469 1.251 . S
C459 O470 1.252 . S
C459 O471 1.272 . S
O460 Sm440 2.543 . S
O460 C442 1.261 . S
O461 Sm440 2.450 . S
O461 C442 1.242 . S
O462 Sm440 2.681 . S
O462 Sm441 2.386 . S
O462 C449 1.271 . S
O463 Sm440 2.464 . S
O463 C449 1.251 . S
O464 Sm440 2.396 . S
O464 C450 1.252 . S
O465 Sm441 2.408 . S
O465 C450 1.272 . S
O466 Sm441 2.543 . S
O466 C451 1.261 . S
O467 Sm441 2.450 . S
O467 C451 1.242 . S
O468 Sm440 2.386 . S
O468 Sm441 2.681 . S
O468 C458 1.271 . S
O469 Sm441 2.464 . S
O469 C458 1.251 . S
O470 Sm441 2.396 . S
O470 C459 1.252 . S
O471 Sm440 2.408 . S
O471 C459 1.272 . S
H472 C444 0.930 . S
H473 C445 0.929 . S
H474 C447 0.930 . S
H475 C448 0.929 . S
H476 C453 0.930 . S
H477 C454 0.929 . S
H478 C456 0.930 . S
H479 C457 0.929 . S
Sm480 C482 2.846 . S
Sm480 O500 2.543 . S
Sm480 O501 2.450 . S
Sm480 O502 2.681 . S
Sm480 O503 2.464 . S
Sm480 O504 2.396 . S
Sm480 O508 2.386 . S
Sm480 O511 2.408 . S
Sm481 C491 2.846 . S
Sm481 O502 2.386 . S
Sm481 O505 2.408 . S
Sm481 O506 2.543 . S
Sm481 O507 2.450 . S
Sm481 O508 2.681 . S
Sm481 O509 2.464 . S
Sm481 O510 2.396 . S
C482 Sm480 2.846 . S
C482 C483 1.506 . S
C482 O500 1.261 . S
C482 O501 1.242 . S
C483 C482 1.506 . S
C483 C484 1.358 . S
C483 C488 1.382 . S
C484 C483 1.358 . S
C484 C485 1.385 . S
C484 H512 0.930 . S
C485 C484 1.385 . S
C485 C486 1.395 . S
C485 H513 0.929 . S
C486 C485 1.395 . S
C486 C487 1.335 . S
C487 C486 1.335 . S
C487 C488 1.398 . S
C487 H514 0.930 . S
C488 C483 1.382 . S
C488 C487 1.398 . S
C488 H515 0.929 . S
C489 O502 1.271 . S
C489 O503 1.251 . S
C490 O504 1.252 . S
C490 O505 1.272 . S
C491 Sm481 2.846 . S
C491 C492 1.506 . S
C491 O506 1.261 . S
C491 O507 1.242 . S
C492 C491 1.506 . S
C492 C493 1.358 . S
C492 C497 1.382 . S
C493 C492 1.358 . S
C493 C494 1.385 1_455 S
C493 H516 0.930 . S
C494 C493 1.385 1_655 S
C494 C495 1.395 . S
C494 H517 0.929 . S
C495 C494 1.395 . S
C495 C496 1.335 . S
C496 C495 1.335 . S
C496 C497 1.398 1_655 S
C496 H518 0.930 . S
C497 C492 1.382 . S
C497 C496 1.398 1_455 S
C497 H519 0.929 . S
C498 O508 1.271 . S
C498 O509 1.251 . S
C499 O510 1.252 . S
C499 O511 1.272 . S
O500 Sm480 2.543 . S
O500 C482 1.261 . S
O501 Sm480 2.450 . S
O501 C482 1.242 . S
O502 Sm480 2.681 . S
O502 Sm481 2.386 . S
O502 C489 1.271 . S
O503 Sm480 2.464 . S
O503 C489 1.251 . S
O504 Sm480 2.396 . S
O504 C490 1.252 . S
O505 Sm481 2.408 . S
O505 C490 1.272 . S
O506 Sm481 2.543 . S
O506 C491 1.261 . S
O507 Sm481 2.450 . S
O507 C491 1.242 . S
O508 Sm480 2.386 . S
O508 Sm481 2.681 . S
O508 C498 1.271 . S
O509 Sm481 2.464 . S
O509 C498 1.251 . S
O510 Sm481 2.396 . S
O510 C499 1.252 . S
O511 Sm480 2.408 . S
O511 C499 1.272 . S
H512 C484 0.930 . S
H513 C485 0.929 . S
H514 C487 0.930 . S
H515 C488 0.929 . S
H516 C493 0.930 . S
H517 C494 0.929 . S
H518 C496 0.930 . S
H519 C497 0.929 . S
Sm520 C522 2.846 . S
Sm520 O540 2.543 . S
Sm520 O541 2.450 . S
Sm520 O542 2.681 . S
Sm520 O543 2.464 . S
Sm520 O544 2.396 . S
Sm520 O548 2.386 . S
Sm520 O551 2.408 . S
Sm521 C531 2.846 . S
Sm521 O542 2.386 . S
Sm521 O545 2.408 . S
Sm521 O546 2.543 . S
Sm521 O547 2.450 . S
Sm521 O548 2.681 . S
Sm521 O549 2.464 . S
Sm521 O550 2.396 . S
C522 Sm520 2.846 . S
C522 C523 1.506 . S
C522 O540 1.261 . S
C522 O541 1.242 . S
C523 C522 1.506 . S
C523 C524 1.358 . S
C523 C528 1.382 . S
C524 C523 1.358 . S
C524 C525 1.385 1_565 S
C524 H552 0.930 . S
C525 C524 1.385 1_545 S
C525 C526 1.395 . S
C525 H553 0.929 . S
C526 C525 1.395 . S
C526 C527 1.335 . S
C527 C526 1.335 . S
C527 C528 1.398 1_545 S
C527 H554 0.930 . S
C528 C523 1.382 . S
C528 C527 1.398 1_565 S
C528 H555 0.929 . S
C529 O542 1.271 . S
C529 O543 1.251 . S
C530 O544 1.252 . S
C530 O545 1.272 . S
C531 Sm521 2.846 . S
C531 C532 1.506 . S
C531 O546 1.261 . S
C531 O547 1.242 . S
C532 C531 1.506 . S
C532 C533 1.358 . S
C532 C537 1.382 . S
C533 C532 1.358 . S
C533 C534 1.385 . S
C533 H556 0.930 . S
C534 C533 1.385 . S
C534 C535 1.395 . S
C534 H557 0.929 . S
C535 C534 1.395 . S
C535 C536 1.335 . S
C536 C535 1.335 . S
C536 C537 1.398 . S
C536 H558 0.930 . S
C537 C532 1.382 . S
C537 C536 1.398 . S
C537 H559 0.929 . S
C538 O548 1.271 . S
C538 O549 1.251 . S
C539 O550 1.252 . S
C539 O551 1.272 . S
O540 Sm520 2.543 . S
O540 C522 1.261 . S
O541 Sm520 2.450 . S
O541 C522 1.242 . S
O542 Sm520 2.681 . S
O542 Sm521 2.386 . S
O542 C529 1.271 . S
O543 Sm520 2.464 . S
O543 C529 1.251 . S
O544 Sm520 2.396 . S
O544 C530 1.252 . S
O545 Sm521 2.408 . S
O545 C530 1.272 . S
O546 Sm521 2.543 . S
O546 C531 1.261 . S
O547 Sm521 2.450 . S
O547 C531 1.242 . S
O548 Sm520 2.386 . S
O548 Sm521 2.681 . S
O548 C538 1.271 . S
O549 Sm521 2.464 . S
O549 C538 1.251 . S
O550 Sm521 2.396 . S
O550 C539 1.252 . S
O551 Sm520 2.408 . S
O551 C539 1.272 . S
H552 C524 0.930 . S
H553 C525 0.929 . S
H554 C527 0.930 . S
H555 C528 0.929 . S
H556 C533 0.930 . S
H557 C534 0.929 . S
H558 C536 0.930 . S
H559 C537 0.929 . S
Sm560 C562 2.846 . S
Sm560 O580 2.543 . S
Sm560 O581 2.450 . S
Sm560 O582 2.681 1_556 S
Sm560 O583 2.464 . S
Sm560 O584 2.396 . S
Sm560 O588 2.386 . S
Sm560 O591 2.408 . S
Sm561 C571 2.846 . S
Sm561 O582 2.386 . S
Sm561 O585 2.408 . S
Sm561 O586 2.543 . S
Sm561 O587 2.450 . S
Sm561 O588 2.681 1_554 S
Sm561 O589 2.464 1_554 S
Sm561 O590 2.396 1_554 S
C562 Sm560 2.846 . S
C562 C563 1.506 . S
C562 O580 1.261 . S
C562 O581 1.242 . S
C563 C562 1.506 . S
C563 C564 1.358 . S
C563 C568 1.382 . S
C564 C563 1.358 . S
C564 C565 1.385 . S
C564 H592 0.930 . S
C565 C564 1.385 . S
C565 C566 1.395 . S
C565 H593 0.929 . S
C566 C565 1.395 . S
C566 C567 1.335 . S
C567 C566 1.335 . S
C567 C568 1.398 . S
C567 H594 0.930 . S
C568 C563 1.382 . S
C568 C567 1.398 . S
C568 H595 0.929 . S
C569 O582 1.271 . S
C569 O583 1.251 1_554 S
C570 O584 1.252 . S
C570 O585 1.272 1_556 S
C571 Sm561 2.846 . S
C571 C572 1.506 . S
C571 O586 1.261 . S
C571 O587 1.242 . S
C572 C571 1.506 . S
C572 C573 1.358 . S
C572 C577 1.382 . S
C573 C572 1.358 . S
C573 C574 1.385 . S
C573 H596 0.930 . S
C574 C573 1.385 . S
C574 C575 1.395 . S
C574 H597 0.929 . S
C575 C574 1.395 . S
C575 C576 1.335 . S
C576 C575 1.335 . S
C576 C577 1.398 . S
C576 H598 0.930 . S
C577 C572 1.382 . S
C577 C576 1.398 . S
C577 H599 0.929 . S
C578 O588 1.271 . S
C578 O589 1.251 . S
C579 O590 1.252 . S
C579 O591 1.272 . S
O580 Sm560 2.543 . S
O580 C562 1.261 . S
O581 Sm560 2.450 . S
O581 C562 1.242 . S
O582 Sm560 2.681 1_554 S
O582 Sm561 2.386 . S
O582 C569 1.271 . S
O583 Sm560 2.464 . S
O583 C569 1.251 1_556 S
O584 Sm560 2.396 . S
O584 C570 1.252 . S
O585 Sm561 2.408 . S
O585 C570 1.272 1_554 S
O586 Sm561 2.543 . S
O586 C571 1.261 . S
O587 Sm561 2.450 . S
O587 C571 1.242 . S
O588 Sm560 2.386 . S
O588 Sm561 2.681 1_556 S
O588 C578 1.271 . S
O589 Sm561 2.464 1_556 S
O589 C578 1.251 . S
O590 Sm561 2.396 1_556 S
O590 C579 1.252 . S
O591 Sm560 2.408 . S
O591 C579 1.272 . S
H592 C564 0.930 . S
H593 C565 0.929 . S
H594 C567 0.930 . S
H595 C568 0.929 . S
H596 C573 0.930 . S
H597 C574 0.929 . S
H598 C576 0.930 . S
H599 C577 0.929 . S
Sm600 C602 2.846 . S
Sm600 O620 2.543 . S
Sm600 O621 2.450 . S
Sm600 O622 2.681 . S
Sm600 O623 2.464 . S
Sm600 O624 2.396 . S
Sm600 O628 2.386 . S
Sm600 O631 2.408 . S
Sm601 C611 2.846 . S
Sm601 O622 2.386 . S
Sm601 O625 2.408 . S
Sm601 O626 2.543 . S
Sm601 O627 2.450 . S
Sm601 O628 2.681 . S
Sm601 O629 2.464 . S
Sm601 O630 2.396 . S
C602 Sm600 2.846 . S
C602 C603 1.506 . S
C602 O620 1.261 . S
C602 O621 1.242 . S
C603 C602 1.506 . S
C603 C604 1.358 . S
C603 C608 1.382 . S
C604 C603 1.358 . S
C604 C605 1.385 1_545 S
C604 H632 0.930 . S
C605 C604 1.385 1_565 S
C605 C606 1.395 . S
C605 H633 0.929 . S
C606 C605 1.395 . S
C606 C607 1.335 . S
C607 C606 1.335 . S
C607 C608 1.398 1_565 S
C607 H634 0.930 . S
C608 C603 1.382 . S
C608 C607 1.398 1_545 S
C608 H635 0.929 . S
C609 O622 1.271 . S
C609 O623 1.251 . S
C610 O624 1.252 . S
C610 O625 1.272 . S
C611 Sm601 2.846 . S
C611 C612 1.506 . S
C611 O626 1.261 . S
C611 O627 1.242 . S
C612 C611 1.506 . S
C612 C613 1.358 . S
C612 C617 1.382 . S
C613 C612 1.358 . S
C613 C614 1.385 . S
C613 H636 0.930 . S
C614 C613 1.385 . S
C614 C615 1.395 . S
C614 H637 0.929 . S
C615 C614 1.395 . S
C615 C616 1.335 . S
C616 C615 1.335 . S
C616 C617 1.398 . S
C616 H638 0.930 . S
C617 C612 1.382 . S
C617 C616 1.398 . S
C617 H639 0.929 . S
C618 O628 1.271 . S
C618 O629 1.251 . S
C619 O630 1.252 . S
C619 O631 1.272 . S
O620 Sm600 2.543 . S
O620 C602 1.261 . S
O621 Sm600 2.450 . S
O621 C602 1.242 . S
O622 Sm600 2.681 . S
O622 Sm601 2.386 . S
O622 C609 1.271 . S
O623 Sm600 2.464 . S
O623 C609 1.251 . S
O624 Sm600 2.396 . S
O624 C610 1.252 . S
O625 Sm601 2.408 . S
O625 C610 1.272 . S
O626 Sm601 2.543 . S
O626 C611 1.261 . S
O627 Sm601 2.450 . S
O627 C611 1.242 . S
O628 Sm600 2.386 . S
O628 Sm601 2.681 . S
O628 C618 1.271 . S
O629 Sm601 2.464 . S
O629 C618 1.251 . S
O630 Sm601 2.396 . S
O630 C619 1.252 . S
O631 Sm600 2.408 . S
O631 C619 1.272 . S
H632 C604 0.930 . S
H633 C605 0.929 . S
H634 C607 0.930 . S
H635 C608 0.929 . S
H636 C613 0.930 . S
H637 C614 0.929 . S
H638 C616 0.930 . S
H639 C617 0.929 . S
C640 C641 1.387 . S
C640 H644 0.950 . S
C640 C649 1.390 . S
C641 C640 1.387 . S
C641 C643 1.388 . S
H642 C649 0.950 . S
C643 C641 1.388 . S
C643 C645 1.390 . S
C643 H647 0.949 1_554 S
H644 C640 0.950 . S
C645 C643 1.390 . S
C645 C646 1.388 . S
C645 H648 0.949 1_554 S
C646 C645 1.388 . S
C646 C649 1.387 . S
H647 C643 0.949 1_556 S
H648 C645 0.949 1_556 S
C649 C640 1.390 . S
C649 H642 0.950 . S
C649 C646 1.387 . S
C650 C651 1.387 . S
C650 H654 0.950 . S
C650 C659 1.390 . S
C651 C650 1.387 . S
C651 C653 1.387 . S
H652 C659 0.950 . S
C653 C651 1.387 . S
C653 C655 1.390 . S
C653 H657 0.950 . S
H654 C650 0.950 . S
C655 C653 1.390 . S
C655 C656 1.387 . S
C655 H658 0.950 . S
C656 C655 1.387 . S
C656 C659 1.387 . S
H657 C653 0.950 . S
H658 C655 0.950 . S
C659 C650 1.390 . S
C659 H652 0.950 . S
C659 C656 1.387 . S
C660 C661 1.387 . S
C660 H664 0.950 . S
C660 C669 1.390 1_455 S
C661 C660 1.387 . S
C661 C663 1.387 . S
H662 C669 0.950 . S
C663 C661 1.387 . S
C663 C665 1.390 1_455 S
C663 H667 0.950 . S
H664 C660 0.950 . S
C665 C663 1.390 1_655 S
C665 C666 1.387 . S
C665 H668 0.950 . S
C666 C665 1.387 . S
C666 C669 1.387 . S
H667 C663 0.950 . S
H668 C665 0.950 . S
C669 C660 1.390 1_655 S
C669 H662 0.950 . S
C669 C666 1.387 . S
C670 C671 1.387 . S
C670 H674 0.950 . S
C670 C679 1.390 1_655 S
C671 C670 1.387 . S
C671 C673 1.387 . S
H672 C679 0.950 . S
C673 C671 1.387 . S
C673 C675 1.390 1_655 S
C673 H677 0.950 . S
H674 C670 0.950 . S
C675 C673 1.390 1_455 S
C675 C676 1.387 . S
C675 H678 0.950 . S
C676 C675 1.387 . S
C676 C679 1.387 . S
H677 C673 0.950 . S
H678 C675 0.950 . S
C679 C670 1.390 1_455 S
C679 H672 0.950 . S
C679 C676 1.387 . S
C680 C681 1.388 . S
C680 H684 0.949 1_556 S
C680 C689 1.390 . S
C681 C680 1.388 . S
C681 C683 1.387 . S
H682 C689 0.949 1_554 S
C683 C681 1.387 . S
C683 C685 1.390 . S
C683 H687 0.950 . S
H684 C680 0.949 1_554 S
C685 C683 1.390 . S
C685 C686 1.387 . S
C685 H688 0.950 . S
C686 C685 1.387 . S
C686 C689 1.388 . S
H687 C683 0.950 . S
H688 C685 0.950 . S
C689 C680 1.390 . S
C689 H682 0.949 1_556 S
C689 C686 1.388 . S
C690 C691 1.387 . S
C690 H694 0.950 . S
C690 C699 1.390 . S
C691 C690 1.387 . S
C691 C693 1.387 . S
H692 C699 0.950 . S
C693 C691 1.387 . S
C693 C695 1.390 . S
C693 H697 0.950 . S
H694 C690 0.950 . S
C695 C693 1.390 . S
C695 C696 1.387 . S
C695 H698 0.950 . S
C696 C695 1.387 . S
C696 C699 1.387 . S
H697 C693 0.950 . S
H698 C695 0.950 . S
C699 C690 1.390 . S
C699 H692 0.950 . S
C699 C696 1.387 . S
C700 C701 1.387 . S
C700 H704 0.950 . S
C700 C709 1.390 1_655 S
C701 C700 1.387 . S
C701 C703 1.387 . S
H702 C709 0.950 . S
C703 C701 1.387 . S
C703 C705 1.390 1_655 S
C703 H707 0.950 . S
H704 C700 0.950 . S
C705 C703 1.390 1_455 S
C705 C706 1.387 . S
C705 H708 0.950 . S
C706 C705 1.387 . S
C706 C709 1.387 . S
H707 C703 0.950 . S
H708 C705 0.950 . S
C709 C700 1.390 1_455 S
C709 H702 0.950 . S
C709 C706 1.387 . S
C710 C711 1.387 . S
C710 H714 0.950 . S
C710 C719 1.390 1_455 S
C711 C710 1.387 . S
C711 C713 1.387 . S
H712 C719 0.950 . S
C713 C711 1.387 . S
C713 C715 1.390 1_455 S
C713 H717 0.950 . S
H714 C710 0.950 . S
C715 C713 1.390 1_655 S
C715 C716 1.387 . S
C715 H718 0.950 . S
C716 C715 1.387 . S
C716 C719 1.387 . S
H717 C713 0.950 . S
H718 C715 0.950 . S
C719 C710 1.390 1_655 S
C719 H712 0.950 . S
C719 C716 1.387 . S
C720 C721 1.387 . S
C720 H724 0.950 . S
C720 C729 1.390 . S
C721 C720 1.387 . S
C721 C723 1.387 . S
H722 C729 0.950 . S
C723 C721 1.387 . S
C723 C725 1.390 . S
C723 H727 0.950 . S
H724 C720 0.950 . S
C725 C723 1.390 . S
C725 C726 1.387 . S
C725 H728 0.950 . S
C726 C725 1.387 . S
C726 C729 1.387 . S
H727 C723 0.950 . S
H728 C725 0.950 . S
C729 C720 1.390 . S
C729 H722 0.950 . S
C729 C726 1.387 . S
C730 C731 1.387 . S
C730 H734 0.950 . S
C730 C739 1.390 . S
C731 C730 1.387 . S
C731 C733 1.387 . S
H732 C739 0.950 . S
C733 C731 1.387 . S
C733 C735 1.390 . S
C733 H737 0.950 . S
H734 C730 0.950 . S
C735 C733 1.390 . S
C735 C736 1.387 . S
C735 H738 0.950 . S
C736 C735 1.387 . S
C736 C739 1.387 . S
H737 C733 0.950 . S
H738 C735 0.950 . S
C739 C730 1.390 . S
C739 H732 0.950 . S
C739 C736 1.387 . S
C740 C741 1.387 . S
C740 H744 0.950 . S
C740 C749 1.390 . S
C741 C740 1.387 . S
C741 C743 1.387 . S
H742 C749 0.950 . S
C743 C741 1.387 . S
C743 C745 1.390 . S
C743 H747 0.950 . S
H744 C740 0.950 . S
C745 C743 1.390 . S
C745 C746 1.387 . S
C745 H748 0.950 . S
C746 C745 1.387 . S
C746 C749 1.387 . S
H747 C743 0.950 . S
H748 C745 0.950 . S
C749 C740 1.390 . S
C749 H742 0.950 . S
C749 C746 1.387 . S
C750 C751 1.387 . S
C750 H754 0.950 . S
C750 C759 1.390 . S
C751 C750 1.387 . S
C751 C753 1.387 . S
H752 C759 0.950 . S
C753 C751 1.387 . S
C753 C755 1.390 . S
C753 H757 0.950 . S
H754 C750 0.950 . S
C755 C753 1.390 . S
C755 C756 1.387 . S
C755 H758 0.950 . S
C756 C755 1.387 . S
C756 C759 1.387 . S
H757 C753 0.950 . S
H758 C755 0.950 . S
C759 C750 1.390 . S
C759 H752 0.950 . S
C759 C756 1.387 . S
C760 C761 1.387 . S
C760 H764 0.950 . S
C760 C769 1.390 . S
C761 C760 1.387 . S
C761 C763 1.387 . S
H762 C769 0.950 . S
C763 C761 1.387 . S
C763 C765 1.390 . S
C763 H767 0.950 . S
H764 C760 0.950 . S
C765 C763 1.390 . S
C765 C766 1.387 . S
C765 H768 0.950 . S
C766 C765 1.387 . S
C766 C769 1.387 . S
H767 C763 0.950 . S
H768 C765 0.950 . S
C769 C760 1.390 . S
C769 H762 0.950 . S
C769 C766 1.387 . S
C770 C771 1.387 . S
C770 H774 0.950 . S
C770 C779 1.390 . S
C771 C770 1.387 . S
C771 C773 1.387 . S
H772 C779 0.950 . S
C773 C771 1.387 . S
C773 C775 1.390 . S
C773 H777 0.950 . S
H774 C770 0.950 . S
C775 C773 1.390 . S
C775 C776 1.387 . S
C775 H778 0.950 . S
C776 C775 1.387 . S
C776 C779 1.387 . S
H777 C773 0.950 . S
H778 C775 0.950 . S
C779 C770 1.390 . S
C779 H772 0.950 . S
C779 C776 1.387 . S
C780 C781 1.387 . S
C780 H784 0.950 . S
C780 C789 1.390 . S
C781 C780 1.387 . S
C781 C783 1.387 . S
H782 C789 0.950 . S
C783 C781 1.387 . S
C783 C785 1.390 . S
C783 H787 0.950 . S
H784 C780 0.950 . S
C785 C783 1.390 . S
C785 C786 1.387 . S
C785 H788 0.950 . S
C786 C785 1.387 . S
C786 C789 1.387 . S
H787 C783 0.950 . S
H788 C785 0.950 . S
C789 C780 1.390 . S
C789 H782 0.950 . S
C789 C786 1.387 . S
C790 C791 1.387 . S
C790 H794 0.950 . S
C790 C799 1.390 . S
C791 C790 1.387 . S
C791 C793 1.387 . S
H792 C799 0.950 . S
C793 C791 1.387 . S
C793 C795 1.390 . S
C793 H797 0.950 . S
H794 C790 0.950 . S
C795 C793 1.390 . S
C795 C796 1.387 . S
C795 H798 0.950 . S
C796 C795 1.387 . S
C796 C799 1.387 . S
H797 C793 0.950 . S
H798 C795 0.950 . S
C799 C790 1.390 . S
C799 H792 0.950 . S
C799 C796 1.387 . S
C800 C801 1.387 . S
C800 H804 0.950 . S
C800 C809 1.390 . S
C801 C800 1.387 . S
C801 C803 1.387 . S
H802 C809 0.950 . S
C803 C801 1.387 . S
C803 C805 1.390 . S
C803 H807 0.950 . S
H804 C800 0.950 . S
C805 C803 1.390 . S
C805 C806 1.387 . S
C805 H808 0.950 . S
C806 C805 1.387 . S
C806 C809 1.387 . S
H807 C803 0.950 . S
H808 C805 0.950 . S
C809 C800 1.390 . S
C809 H802 0.950 . S
C809 C806 1.387 . S
C810 C811 1.387 . S
C810 H814 0.950 . S
C810 C819 1.390 1_545 S
C811 C810 1.387 . S
C811 C813 1.387 1_545 S
H812 C819 0.950 . S
C813 C811 1.387 1_565 S
C813 C815 1.390 . S
C813 H817 0.950 . S
H814 C810 0.950 . S
C815 C813 1.390 . S
C815 C816 1.387 . S
C815 H818 0.950 . S
C816 C815 1.387 . S
C816 C819 1.387 . S
H817 C813 0.950 . S
H818 C815 0.950 . S
C819 C810 1.390 1_565 S
C819 H812 0.950 . S
C819 C816 1.387 . S
C820 C821 1.387 . S
C820 H824 0.950 . S
C820 C829 1.390 . S
C821 C820 1.387 . S
C821 C823 1.387 . S
H822 C829 0.950 . S
C823 C821 1.387 . S
C823 C825 1.390 . S
C823 H827 0.950 . S
H824 C820 0.950 . S
C825 C823 1.390 . S
C825 C826 1.387 . S
C825 H828 0.950 . S
C826 C825 1.387 . S
C826 C829 1.387 . S
H827 C823 0.950 . S
H828 C825 0.950 . S
C829 C820 1.390 . S
C829 H822 0.950 . S
C829 C826 1.387 . S
C830 C831 1.387 . S
C830 H834 0.950 . S
C830 C839 1.390 1_565 S
C831 C830 1.387 . S
C831 C833 1.387 1_565 S
H832 C839 0.950 . S
C833 C831 1.387 1_545 S
C833 C835 1.390 . S
C833 H837 0.950 . S
H834 C830 0.950 . S
C835 C833 1.390 . S
C835 C836 1.387 . S
C835 H838 0.950 . S
C836 C835 1.387 . S
C836 C839 1.387 . S
H837 C833 0.950 . S
H838 C835 0.950 . S
C839 C830 1.390 1_545 S
C839 H832 0.950 . S
C839 C836 1.387 . S
C840 C841 1.387 . S
C840 H844 0.950 . S
C840 C849 1.390 . S
C841 C840 1.387 . S
C841 C843 1.387 . S
H842 C849 0.950 . S
C843 C841 1.387 . S
C843 C845 1.390 . S
C843 H847 0.950 . S
H844 C840 0.950 . S
C845 C843 1.390 . S
C845 C846 1.387 . S
C845 H848 0.950 . S
C846 C845 1.387 . S
C846 C849 1.387 . S
H847 C843 0.950 . S
H848 C845 0.950 . S
C849 C840 1.390 . S
C849 H842 0.950 . S
C849 C846 1.387 . S
C850 C851 1.387 . S
C850 H854 0.950 . S
C850 C859 1.390 . S
C851 C850 1.387 . S
C851 C853 1.387 . S
H852 C859 0.950 . S
C853 C851 1.387 . S
C853 C855 1.388 . S
C853 H857 0.950 . S
H854 C850 0.950 . S
C855 C853 1.388 . S
C855 C856 1.388 1_545 S
C855 H858 0.951 1_545 S
C856 C855 1.388 1_565 S
C856 C859 1.387 1_565 S
H857 C853 0.950 . S
H858 C855 0.951 1_565 S
C859 C850 1.390 . S
C859 H852 0.950 . S
C859 C856 1.387 1_545 S
C860 C861 1.387 . S
C860 H864 0.950 . S
C860 C869 1.390 . S
C861 C860 1.387 . S
C861 C863 1.387 . S
H862 C869 0.950 . S
C863 C861 1.387 . S
C863 C865 1.390 . S
C863 H867 0.950 . S
H864 C860 0.950 . S
C865 C863 1.390 . S
C865 C866 1.387 . S
C865 H868 0.950 . S
C866 C865 1.387 . S
C866 C869 1.387 . S
H867 C863 0.950 . S
H868 C865 0.950 . S
C869 C860 1.390 . S
C869 H862 0.950 . S
C869 C866 1.387 . S
C870 C871 1.387 1_565 S
C870 H874 0.950 . S
C870 C879 1.390 . S
C871 C870 1.387 1_545 S
C871 C873 1.387 . S
H872 C879 0.950 . S
C873 C871 1.387 . S
C873 C875 1.390 1_545 S
C873 H877 0.950 . S
H874 C870 0.950 . S
C875 C873 1.390 1_565 S
C875 C876 1.387 . S
C875 H878 0.950 . S
C876 C875 1.387 . S
C876 C879 1.387 . S
H877 C873 0.950 . S
H878 C875 0.950 . S
C879 C870 1.390 . S
C879 H872 0.950 . S
C879 C876 1.387 . S
C880 C881 1.387 . S
C880 H884 0.950 . S
C880 C889 1.390 . S
C881 C880 1.387 . S
C881 C883 1.387 . S
H882 C889 0.950 . S
C883 C881 1.387 . S
C883 C885 1.390 . S
C883 H887 0.950 . S
H884 C880 0.950 . S
C885 C883 1.390 . S
C885 C886 1.387 . S
C885 H888 0.950 . S
C886 C885 1.387 . S
C886 C889 1.387 . S
H887 C883 0.950 . S
H888 C885 0.950 . S
C889 C880 1.390 . S
C889 H882 0.950 . S
C889 C886 1.387 . S
C890 C891 1.387 . S
C890 H894 0.950 . S
C890 C899 1.390 . S
C891 C890 1.387 . S
C891 C893 1.387 . S
H892 C899 0.950 . S
C893 C891 1.387 . S
C893 C895 1.390 . S
C893 H897 0.950 . S
H894 C890 0.950 . S
C895 C893 1.390 . S
C895 C896 1.387 . S
C895 H898 0.950 . S
C896 C895 1.387 . S
C896 C899 1.387 . S
H897 C893 0.950 . S
H898 C895 0.950 . S
C899 C890 1.390 . S
C899 H892 0.950 . S
C899 C896 1.387 . S
C900 C901 1.387 . S
C900 H904 0.950 . S
C900 C909 1.390 . S
C901 C900 1.387 . S
C901 C903 1.387 . S
H902 C909 0.950 . S
C903 C901 1.387 . S
C903 C905 1.390 . S
C903 H907 0.950 . S
H904 C900 0.950 . S
C905 C903 1.390 . S
C905 C906 1.387 . S
C905 H908 0.952 1_655 S
C906 C905 1.387 . S
C906 C909 1.387 . S
H907 C903 0.950 . S
H908 C905 0.952 1_455 S
C909 C900 1.390 . S
C909 H902 0.950 . S
C909 C906 1.387 . S
C910 C911 1.387 . S
C910 H914 0.950 . S
C910 C919 1.390 . S
C911 C910 1.387 . S
C911 C913 1.387 . S
H912 C919 0.950 . S
C913 C911 1.387 . S
C913 C915 1.390 . S
C913 H917 0.950 . S
H914 C910 0.950 . S
C915 C913 1.390 . S
C915 C916 1.387 . S
C915 H918 0.950 . S
C916 C915 1.387 . S
C916 C919 1.387 . S
H917 C913 0.950 . S
H918 C915 0.950 . S
C919 C910 1.390 . S
C919 H912 0.950 . S
C919 C916 1.387 . S
C920 C921 1.387 . S
C920 H924 0.950 . S
C920 C929 1.390 . S
C921 C920 1.387 . S
C921 C923 1.387 . S
H922 C929 0.950 . S
C923 C921 1.387 . S
C923 C925 1.390 . S
C923 H927 0.950 . S
H924 C920 0.950 . S
C925 C923 1.390 . S
C925 C926 1.387 . S
C925 H928 0.950 . S
C926 C925 1.387 . S
C926 C929 1.387 . S
H927 C923 0.950 . S
H928 C925 0.950 . S
C929 C920 1.390 . S
C929 H922 0.950 . S
C929 C926 1.387 . S
C930 C931 1.387 . S
C930 H934 0.950 . S
C930 C939 1.390 . S
C931 C930 1.387 . S
C931 C933 1.387 . S
H932 C939 0.950 . S
C933 C931 1.387 . S
C933 C935 1.390 . S
C933 H937 0.950 . S
H934 C930 0.950 . S
C935 C933 1.390 . S
C935 C936 1.387 . S
C935 H938 0.950 . S
C936 C935 1.387 . S
C936 C939 1.387 . S
H937 C933 0.950 . S
H938 C935 0.950 . S
C939 C930 1.390 . S
C939 H932 0.950 . S
C939 C936 1.387 . S
C940 C941 1.387 . S
C940 H944 0.950 . S
C940 C949 1.390 . S
C941 C940 1.387 . S
C941 C943 1.387 . S
H942 C949 0.950 . S
C943 C941 1.387 . S
C943 C945 1.390 . S
C943 H947 0.950 . S
H944 C940 0.950 . S
C945 C943 1.390 . S
C945 C946 1.387 . S
C945 H948 0.938 1_455 S
C946 C945 1.387 . S
C946 C949 1.387 . S
H947 C943 0.950 . S
H948 C945 0.938 1_655 S
C949 C940 1.390 . S
C949 H942 0.950 . S
C949 C946 1.387 . S
C950 C951 1.387 . S
C950 H954 0.950 . S
C950 C959 1.390 . S
C951 C950 1.387 . S
C951 C953 1.387 . S
H952 C959 0.950 . S
C953 C951 1.387 . S
C953 C955 1.390 . S
C953 H957 0.950 . S
H954 C950 0.950 . S
C955 C953 1.390 . S
C955 C956 1.387 . S
C955 H958 0.950 . S
C956 C955 1.387 . S
C956 C959 1.387 . S
H957 C953 0.950 . S
H958 C955 0.950 . S
C959 C950 1.390 . S
C959 H952 0.950 . S
C959 C956 1.387 . S
C960 C961 1.387 . S
C960 H964 0.928 1_455 S
C960 C969 1.390 . S
C961 C960 1.387 . S
C961 C963 1.387 . S
H962 C969 0.950 . S
C963 C961 1.387 . S
C963 C965 1.390 . S
C963 H967 0.950 . S
H964 C960 0.928 1_655 S
C965 C963 1.390 . S
C965 C966 1.387 . S
C965 H968 0.950 . S
C966 C965 1.387 . S
C966 C969 1.387 . S
H967 C963 0.950 . S
H968 C965 0.950 . S
C969 C960 1.390 . S
C969 H962 0.950 . S
C969 C966 1.387 . S
C970 C971 1.387 . S
C970 H974 0.950 . S
C970 C979 1.390 . S
C971 C970 1.387 . S
C971 C973 1.387 . S
H972 C979 0.950 . S
C973 C971 1.387 . S
C973 C975 1.390 . S
C973 H977 0.950 . S
H974 C970 0.950 . S
C975 C973 1.390 . S
C975 C976 1.387 . S
C975 H978 0.950 . S
C976 C975 1.387 . S
C976 C979 1.387 . S
H977 C973 0.950 . S
H978 C975 0.950 . S
C979 C970 1.390 . S
C979 H972 0.950 . S
C979 C976 1.387 . S
C980 C981 1.387 . S
C980 H984 0.950 . S
C980 C989 1.390 . S
C981 C980 1.387 . S
C981 C983 1.387 . S
H982 C989 0.950 . S
C983 C981 1.387 . S
C983 C985 1.390 . S
C983 H987 0.950 . S
H984 C980 0.950 . S
C985 C983 1.390 . S
C985 C986 1.387 . S
C985 H988 0.950 . S
C986 C985 1.387 . S
C986 C989 1.387 . S
H987 C983 0.950 . S
H988 C985 0.950 . S
C989 C980 1.390 . S
C989 H982 0.950 . S
C989 C986 1.387 . S
C990 C991 1.387 . S
C990 H994 0.950 . S
C990 C999 1.390 . S
C991 C990 1.387 . S
C991 C993 1.387 . S
H992 C999 0.950 . S
C993 C991 1.387 . S
C993 C995 1.390 . S
C993 H997 0.950 . S
H994 C990 0.950 . S
C995 C993 1.390 . S
C995 C996 1.387 . S
C995 H998 0.950 . S
C996 C995 1.387 . S
C996 C999 1.387 . S
H997 C993 0.950 . S
H998 C995 0.950 . S
C999 C990 1.390 . S
C999 H992 0.950 . S
C999 C996 1.387 . S
C1000 C1001 1.387 . S
C1000 H1004 0.950 . S
C1000 C1009 1.390 . S
C1001 C1000 1.387 . S
C1001 C1003 1.387 . S
H1002 C1009 0.950 . S
C1003 C1001 1.387 . S
C1003 C1005 1.390 . S
C1003 H1007 0.950 . S
H1004 C1000 0.950 . S
C1005 C1003 1.390 . S
C1005 C1006 1.387 . S
C1005 H1008 0.950 . S
C1006 C1005 1.387 . S
C1006 C1009 1.387 . S
H1007 C1003 0.950 . S
H1008 C1005 0.950 . S
C1009 C1000 1.390 . S
C1009 H1002 0.950 . S
C1009 C1006 1.387 . S
C1010 C1011 1.387 . S
C1010 H1014 0.950 . S
C1010 C1019 1.390 . S
C1011 C1010 1.387 . S
C1011 C1013 1.387 . S
H1012 C1019 0.950 . S
C1013 C1011 1.387 . S
C1013 C1015 1.390 . S
C1013 H1017 0.950 . S
H1014 C1010 0.950 . S
C1015 C1013 1.390 . S
C1015 C1016 1.387 . S
C1015 H1018 0.950 . S
C1016 C1015 1.387 . S
C1016 C1019 1.387 . S
H1017 C1013 0.950 . S
H1018 C1015 0.950 . S
C1019 C1010 1.390 . S
C1019 H1012 0.950 . S
C1019 C1016 1.387 . S
C1020 C1021 1.387 . S
C1020 H1024 0.950 . S
C1020 C1029 1.390 . S
C1021 C1020 1.387 . S
C1021 C1023 1.387 . S
H1022 C1029 0.950 . S
C1023 C1021 1.387 . S
C1023 C1025 1.390 . S
C1023 H1027 0.950 . S
H1024 C1020 0.950 . S
C1025 C1023 1.390 . S
C1025 C1026 1.387 . S
C1025 H1028 0.950 . S
C1026 C1025 1.387 . S
C1026 C1029 1.387 . S
H1027 C1023 0.950 . S
H1028 C1025 0.950 . S
C1029 C1020 1.390 . S
C1029 H1022 0.950 . S
C1029 C1026 1.387 . S
C1030 C1031 1.387 . S
C1030 H1034 0.950 . S
C1030 C1039 1.390 . S
C1031 C1030 1.387 . S
C1031 C1033 1.387 . S
H1032 C1039 0.950 . S
C1033 C1031 1.387 . S
C1033 C1035 1.390 . S
C1033 H1037 0.950 . S
H1034 C1030 0.950 . S
C1035 C1033 1.390 . S
C1035 C1036 1.387 . S
C1035 H1038 0.950 . S
C1036 C1035 1.387 . S
C1036 C1039 1.387 . S
H1037 C1033 0.950 . S
H1038 C1035 0.950 . S
C1039 C1030 1.390 . S
C1039 H1032 0.950 . S
C1039 C1036 1.387 . S
C1040 C1041 1.387 . S
C1040 H1044 0.950 . S
C1040 C1049 1.390 . S
C1041 C1040 1.387 . S
C1041 C1043 1.387 . S
H1042 C1049 0.950 . S
C1043 C1041 1.387 . S
C1043 C1045 1.390 . S
C1043 H1047 0.950 . S
H1044 C1040 0.950 . S
C1045 C1043 1.390 . S
C1045 C1046 1.387 . S
C1045 H1048 0.950 . S
C1046 C1045 1.387 . S
C1046 C1049 1.387 . S
H1047 C1043 0.950 . S
H1048 C1045 0.950 . S
C1049 C1040 1.390 . S
C1049 H1042 0.950 . S
C1049 C1046 1.387 . S
C1050 C1051 1.387 . S
C1050 H1054 0.950 . S
C1050 C1059 1.390 . S
C1051 C1050 1.387 . S
C1051 C1053 1.387 . S
H1052 C1059 0.950 . S
C1053 C1051 1.387 . S
C1053 C1055 1.390 . S
C1053 H1057 0.950 . S
H1054 C1050 0.950 . S
C1055 C1053 1.390 . S
C1055 C1056 1.387 . S
C1055 H1058 0.950 . S
C1056 C1055 1.387 . S
C1056 C1059 1.387 . S
H1057 C1053 0.950 . S
H1058 C1055 0.950 . S
C1059 C1050 1.390 . S
C1059 H1052 0.950 . S
C1059 C1056 1.387 . S
C1060 C1061 1.387 . S
C1060 H1064 0.950 . S
C1060 C1069 1.390 . S
C1061 C1060 1.387 . S
C1061 C1063 1.387 . S
H1062 C1069 0.950 . S
C1063 C1061 1.387 . S
C1063 C1065 1.390 . S
C1063 H1067 0.950 . S
H1064 C1060 0.950 . S
C1065 C1063 1.390 . S
C1065 C1066 1.387 . S
C1065 H1068 0.950 . S
C1066 C1065 1.387 . S
C1066 C1069 1.387 . S
H1067 C1063 0.950 . S
H1068 C1065 0.950 . S
C1069 C1060 1.390 . S
C1069 H1062 0.950 . S
C1069 C1066 1.387 . S
C1070 C1071 1.387 1_556 S
C1070 H1074 0.950 . S
C1070 C1079 1.390 1_455 S
C1071 C1070 1.387 1_554 S
C1071 C1073 1.387 . S
H1072 C1079 0.950 . S
C1073 C1071 1.387 . S
C1073 C1075 1.390 1_455 S
C1073 H1077 0.950 . S
H1074 C1070 0.950 . S
C1075 C1073 1.390 1_655 S
C1075 C1076 1.387 1_554 S
C1075 H1078 0.950 . S
C1076 C1075 1.387 1_556 S
C1076 C1079 1.387 . S
H1077 C1073 0.950 . S
H1078 C1075 0.950 . S
C1079 C1070 1.390 1_655 S
C1079 H1072 0.950 . S
C1079 C1076 1.387 . S
C1080 C1081 1.387 . S
C1080 H1084 0.950 . S
C1080 C1089 1.390 . S
C1081 C1080 1.387 . S
C1081 C1083 1.387 . S
H1082 C1089 0.950 . S
C1083 C1081 1.387 . S
C1083 C1085 1.390 . S
C1083 H1087 0.950 . S
H1084 C1080 0.950 . S
C1085 C1083 1.390 . S
C1085 C1086 1.387 . S
C1085 H1088 0.950 . S
C1086 C1085 1.387 . S
C1086 C1089 1.387 . S
H1087 C1083 0.950 . S
H1088 C1085 0.950 . S
C1089 C1080 1.390 . S
C1089 H1082 0.950 . S
C1089 C1086 1.387 . S
C1090 C1091 1.387 . S
C1090 H1094 0.950 . S
C1090 C1099 1.390 . S
C1091 C1090 1.387 . S
C1091 C1093 1.387 . S
H1092 C1099 0.950 . S
C1093 C1091 1.387 . S
C1093 C1095 1.390 . S
C1093 H1097 0.950 . S
H1094 C1090 0.950 . S
C1095 C1093 1.390 . S
C1095 C1096 1.387 . S
C1095 H1098 0.950 . S
C1096 C1095 1.387 . S
C1096 C1099 1.387 . S
H1097 C1093 0.950 . S
H1098 C1095 0.950 . S
C1099 C1090 1.390 . S
C1099 H1092 0.950 . S
C1099 C1096 1.387 . S
C1100 C1101 1.387 . S
C1100 H1104 0.950 . S
C1100 C1109 1.390 1_456 S
C1101 C1100 1.387 . S
C1101 C1103 1.387 1_565 S
H1102 C1109 0.950 . S
C1103 C1101 1.387 1_545 S
C1103 C1105 1.390 1_456 S
C1103 H1107 0.950 . S
H1104 C1100 0.950 . S
C1105 C1103 1.390 1_654 S
C1105 C1106 1.387 . S
C1105 H1108 0.950 . S
C1106 C1105 1.387 . S
C1106 C1109 1.387 1_545 S
H1107 C1103 0.950 . S
H1108 C1105 0.950 . S
C1109 C1100 1.390 1_654 S
C1109 H1102 0.950 . S
C1109 C1106 1.387 1_565 S
C1110 C1111 1.387 . S
C1110 H1114 0.950 . S
C1110 C1119 1.390 . S
C1111 C1110 1.387 . S
C1111 C1113 1.387 1_565 S
H1112 C1119 0.950 . S
C1113 C1111 1.387 1_545 S
C1113 C1115 1.390 . S
C1113 H1117 0.950 . S
H1114 C1110 0.950 . S
C1115 C1113 1.390 . S
C1115 C1116 1.387 . S
C1115 H1118 0.950 . S
C1116 C1115 1.387 . S
C1116 C1119 1.387 1_545 S
H1117 C1113 0.950 . S
H1118 C1115 0.950 . S
C1119 C1110 1.390 . S
C1119 H1112 0.950 . S
C1119 C1116 1.387 1_565 S
C641 C10 3.530 . S
C646 C410 3.530 . S
C651 C50 3.532 . S
C656 C450 3.532 . S
C661 C90 3.531 . S
C666 C330 3.531 . S
C671 C130 3.531 . S
C676 C370 3.531 . S
C681 C179 3.530 . S
C686 C579 3.530 . S
C691 C219 3.530 . S
C696 C619 3.530 . S
C701 C259 3.530 . S
C706 C499 3.530 . S
C711 C299 3.530 . S
C716 C539 3.530 . S
C721 C369 3.821 . S
C726 C19 3.694 1_556 S
C731 C409 3.820 . S
C736 C59 3.694 . S
C741 C449 3.821 . S
C746 C99 3.693 . S
C751 C329 3.821 . S
C756 C139 3.693 . S
C761 C170 3.694 1_554 S
C766 C538 3.820 . S
C771 C578 3.821 . S
C776 C210 3.693 . S
C781 C618 3.821 . S
C786 C250 3.693 . S
C791 C498 3.821 . S
C796 C290 3.693 . S
C801 C49 3.820 . S
C806 C339 3.694 . S
C811 C379 3.694 . S
C816 C89 3.821 . S
C821 C419 3.693 1_556 S
C826 C129 3.821 . S
C831 C459 3.694 . S
C836 C9 3.820 . S
C841 C490 3.694 . S
C846 C218 3.820 . S
C851 C258 3.821 . S
C856 C530 3.693 . S
C861 C298 3.821 . S
C866 C570 3.693 1_554 S
C871 C610 3.693 . S
C876 C178 3.821 . S
C881 C6 0.709 . S
C886 C609 0.663 . S
C891 C46 0.713 . S
C896 C169 0.666 . S
C901 C529 0.659 . S
C906 C86 0.708 . S
C911 C249 0.666 . S
C916 C126 0.713 . S
C921 C175 0.707 . S
C926 C458 0.659 . S
C931 C215 0.714 . S
C936 C18 0.666 . S
C941 C378 0.666 . S
C946 C255 0.713 . S
C951 C98 0.666 . S
C956 C295 0.713 . S
C961 C326 0.713 . S
C966 C289 0.666 . S
C971 C366 0.707 . S
C976 C489 0.658 . S
C981 C209 0.658 . S
C986 C406 0.707 . S
C991 C569 0.658 . S
C996 C446 0.707 . S
C1001 C495 0.711 . S
C1006 C138 0.661 . S
C1011 C535 0.707 . S
C1016 C338 0.658 . S
C1021 C575 0.706 . S
C1026 C58 0.658 . S
C1031 C418 0.658 . S
C1036 C615 0.707 . S
C1041 C15 2.266 . S
C1046 C486 2.266 . S
C1051 C55 2.263 . S
C1056 C206 2.263 . S
C1061 C95 2.267 . S
C1066 C566 2.267 . S
C1071 C286 2.265 . S
C1076 C135 2.265 . S
C1081 C166 2.263 . S
C1086 C335 2.263 . S
C1091 C415 2.265 . S
C1096 C246 2.265 . S
C1101 C375 2.265 . S
C1106 C526 2.265 . S
C1111 C606 2.267 . S
C1116 C455 2.267 . S
