# Generated by pormake.
# Topology whp, (6)-cn, num edge types: 1
# Building blocks:
#     Node 0, Type 0, BuildingBlock: VOLQOD_clean_sbu_1, # of connection points: 6
#     Node 1, Type 0, BuildingBlock: VOLQOD_clean_sbu_1, # of connection points: 6
#     Node 2, Type 0, BuildingBlock: VOLQOD_clean_sbu_1, # of connection points: 6
#     Node 3, Type 0, BuildingBlock: VOLQOD_clean_sbu_1, # of connection points: 6
#     Node 4, Type 0, BuildingBlock: VOLQOD_clean_sbu_1, # of connection points: 6
#     Node 5, Type 0, BuildingBlock: VOLQOD_clean_sbu_1, # of connection points: 6
#     Node 6, Type 0, BuildingBlock: VOLQOD_clean_sbu_1, # of connection points: 6
#     Node 7, Type 0, BuildingBlock: VOLQOD_clean_sbu_1, # of connection points: 6
#     Node 8, Type 0, BuildingBlock: VOLQOD_clean_sbu_1, # of connection points: 6
#     Node 9, Type 0, BuildingBlock: VOLQOD_clean_sbu_1, # of connection points: 6
#     Node 10, Type 0, BuildingBlock: VOLQOD_clean_sbu_1, # of connection points: 6
#     Node 11, Type 0, BuildingBlock: VOLQOD_clean_sbu_1, # of connection points: 6
#     Node 12, Type 0, BuildingBlock: VOLQOD_clean_sbu_1, # of connection points: 6
#     Node 13, Type 0, BuildingBlock: VOLQOD_clean_sbu_1, # of connection points: 6
#     Node 14, Type 0, BuildingBlock: VOLQOD_clean_sbu_1, # of connection points: 6
#     Node 15, Type 0, BuildingBlock: VOLQOD_clean_sbu_1, # of connection points: 6
#     Edge 16, Type (0, 0), BuildingBlock: XUDNAN_clean_linker_2, # of connection points: 2
#     Edge 17, Type (0, 0), BuildingBlock: XUDNAN_clean_linker_2, # of connection points: 2
#     Edge 18, Type (0, 0), BuildingBlock: XUDNAN_clean_linker_2, # of connection points: 2
#     Edge 19, Type (0, 0), BuildingBlock: XUDNAN_clean_linker_2, # of connection points: 2
#     Edge 20, Type (0, 0), BuildingBlock: XUDNAN_clean_linker_2, # of connection points: 2
#     Edge 21, Type (0, 0), BuildingBlock: XUDNAN_clean_linker_2, # of connection points: 2
#     Edge 22, Type (0, 0), BuildingBlock: XUDNAN_clean_linker_2, # of connection points: 2
#     Edge 23, Type (0, 0), BuildingBlock: XUDNAN_clean_linker_2, # of connection points: 2
#     Edge 24, Type (0, 0), BuildingBlock: XUDNAN_clean_linker_2, # of connection points: 2
#     Edge 25, Type (0, 0), BuildingBlock: XUDNAN_clean_linker_2, # of connection points: 2
#     Edge 26, Type (0, 0), BuildingBlock: XUDNAN_clean_linker_2, # of connection points: 2
#     Edge 27, Type (0, 0), BuildingBlock: XUDNAN_clean_linker_2, # of connection points: 2
#     Edge 28, Type (0, 0), BuildingBlock: XUDNAN_clean_linker_2, # of connection points: 2
#     Edge 29, Type (0, 0), BuildingBlock: XUDNAN_clean_linker_2, # of connection points: 2
#     Edge 30, Type (0, 0), BuildingBlock: XUDNAN_clean_linker_2, # of connection points: 2
#     Edge 31, Type (0, 0), BuildingBlock: XUDNAN_clean_linker_2, # of connection points: 2
#     Edge 32, Type (0, 0), BuildingBlock: XUDNAN_clean_linker_2, # of connection points: 2
#     Edge 33, Type (0, 0), BuildingBlock: XUDNAN_clean_linker_2, # of connection points: 2
#     Edge 34, Type (0, 0), BuildingBlock: XUDNAN_clean_linker_2, # of connection points: 2
#     Edge 35, Type (0, 0), BuildingBlock: XUDNAN_clean_linker_2, # of connection points: 2
#     Edge 36, Type (0, 0), BuildingBlock: XUDNAN_clean_linker_2, # of connection points: 2
#     Edge 37, Type (0, 0), BuildingBlock: XUDNAN_clean_linker_2, # of connection points: 2
#     Edge 38, Type (0, 0), BuildingBlock: XUDNAN_clean_linker_2, # of connection points: 2
#     Edge 39, Type (0, 0), BuildingBlock: XUDNAN_clean_linker_2, # of connection points: 2
#     Edge 40, Type (0, 0), BuildingBlock: XUDNAN_clean_linker_2, # of connection points: 2
#     Edge 41, Type (0, 0), BuildingBlock: XUDNAN_clean_linker_2, # of connection points: 2
#     Edge 42, Type (0, 0), BuildingBlock: XUDNAN_clean_linker_2, # of connection points: 2
#     Edge 43, Type (0, 0), BuildingBlock: XUDNAN_clean_linker_2, # of connection points: 2
#     Edge 44, Type (0, 0), BuildingBlock: XUDNAN_clean_linker_2, # of connection points: 2
#     Edge 45, Type (0, 0), BuildingBlock: XUDNAN_clean_linker_2, # of connection points: 2
#     Edge 46, Type (0, 0), BuildingBlock: XUDNAN_clean_linker_2, # of connection points: 2
#     Edge 47, Type (0, 0), BuildingBlock: XUDNAN_clean_linker_2, # of connection points: 2
#     Edge 48, Type (0, 0), BuildingBlock: XUDNAN_clean_linker_2, # of connection points: 2
#     Edge 49, Type (0, 0), BuildingBlock: XUDNAN_clean_linker_2, # of connection points: 2
#     Edge 50, Type (0, 0), BuildingBlock: XUDNAN_clean_linker_2, # of connection points: 2
#     Edge 51, Type (0, 0), BuildingBlock: XUDNAN_clean_linker_2, # of connection points: 2
#     Edge 52, Type (0, 0), BuildingBlock: XUDNAN_clean_linker_2, # of connection points: 2
#     Edge 53, Type (0, 0), BuildingBlock: XUDNAN_clean_linker_2, # of connection points: 2
#     Edge 54, Type (0, 0), BuildingBlock: XUDNAN_clean_linker_2, # of connection points: 2
#     Edge 55, Type (0, 0), BuildingBlock: XUDNAN_clean_linker_2, # of connection points: 2
#     Edge 56, Type (0, 0), BuildingBlock: XUDNAN_clean_linker_2, # of connection points: 2
#     Edge 57, Type (0, 0), BuildingBlock: XUDNAN_clean_linker_2, # of connection points: 2
#     Edge 58, Type (0, 0), BuildingBlock: XUDNAN_clean_linker_2, # of connection points: 2
#     Edge 59, Type (0, 0), BuildingBlock: XUDNAN_clean_linker_2, # of connection points: 2
#     Edge 60, Type (0, 0), BuildingBlock: XUDNAN_clean_linker_2, # of connection points: 2
#     Edge 61, Type (0, 0), BuildingBlock: XUDNAN_clean_linker_2, # of connection points: 2
#     Edge 62, Type (0, 0), BuildingBlock: XUDNAN_clean_linker_2, # of connection points: 2
#     Edge 63, Type (0, 0), BuildingBlock: XUDNAN_clean_linker_2, # of connection points: 2
# Relax obj value: 0.402
# Max RMSD: 0.252
# Mean RMSD: 0.249
data_MOF--net-whp--node1-VOLQOD_clean_sbu_1--edge1-XUDNAN_clean_linker_2
_symmetry_space_group_name_H-M    P1
_symmetry_Int_Tables_number       1
_symmetry_cell_setting            triclinic
loop_
_symmetry_equiv_pos_as_xyz
'x, y, z'
_cell_length_a     51.48781
_cell_length_b     51.493477
_cell_length_c     29.136255
_cell_angle_alpha  90.07191
_cell_angle_beta   90.051464
_cell_angle_gamma 90.143157
loop_
_atom_site_label
_atom_site_type_symbol
_atom_site_fract_x
_atom_site_fract_y
_atom_site_fract_z
_atom_type_partial_charge
O0 O 0.30504 0.57769 0.37283 0.0
Zn1 Zn 0.28589 0.56543 0.31588 0.0
O2 O 0.28917 0.52813 0.30732 0.0
Zn3 Zn 0.25565 0.51076 0.30352 0.0
Zn4 Zn 0.3067 0.51484 0.35936 0.0
Zn5 Zn 0.31148 0.52074 0.25564 0.0
O6 O 0.25245 0.49276 0.24044 0.0
O7 O 0.28976 0.5043 0.20693 0.0
O8 O 0.24818 0.57579 0.31846 0.0
O9 O 0.22773 0.538 0.30856 0.0
O10 O 0.24934 0.48749 0.36024 0.0
O11 O 0.28181 0.50111 0.40446 0.0
O12 O 0.32925 0.48539 0.34273 0.0
O13 O 0.30482 0.5846 0.26571 0.0
O14 O 0.33882 0.49377 0.27011 0.0
O15 O 0.32858 0.5537 0.23301 0.0
C16 C 0.32386 0.56645 0.39303 0.0
C17 C 0.26767 0.49309 0.20566 0.0
C18 C 0.26069 0.48861 0.39933 0.0
C19 C 0.22733 0.56249 0.31514 0.0
C20 C 0.34167 0.48028 0.30628 0.0
C21 C 0.32294 0.57761 0.2386 0.0
O22 O 0.32833 0.54239 0.3876 0.0
O23 O 0.90725 0.29728 0.86396 0.0
Zn24 Zn 0.92481 0.2861 0.80523 0.0
O25 O 0.96204 0.2939 0.80524 0.0
Zn26 Zn 0.9825 0.26159 0.80409 0.0
Zn27 Zn 0.97003 0.31351 0.85971 0.0
Zn28 Zn 0.97027 0.31618 0.75326 0.0
O29 O 0.00265 0.25942 0.74308 0.0
O30 O 0.99257 0.2969 0.70923 0.0
O31 O 0.91869 0.24806 0.79879 0.0
O32 O 0.95801 0.23065 0.80576 0.0
O33 O 0.0057 0.25866 0.86183 0.0
O34 O -0.00415 0.2954 0.89785 0.0
O35 O 0.98415 0.34838 0.84684 0.0
O36 O 0.90625 0.30568 0.75552 0.0
O37 O 0.98897 0.34901 0.77142 0.0
O38 O 0.93765 0.32812 0.72165 0.0
C39 C 0.91564 0.31121 0.89686 0.0
C40 C 0.0042 0.27512 0.70915 0.0
C41 C 0.00838 0.27425 0.89574 0.0
C42 C 0.93343 0.22833 0.80186 0.0
C43 C 0.99149 0.35972 0.81051 0.0
C44 C 0.91373 0.32231 0.72604 0.0
O45 O 0.93904 0.31894 0.8982 0.0
O46 O 0.19118 0.91697 0.36882 0.0
Zn47 Zn 0.20275 0.93006 0.30779 0.0
O48 O 0.19582 0.9668 0.30188 0.0
Zn49 Zn 0.22869 0.9863 0.30256 0.0
Zn50 Zn 0.17312 0.97721 0.35173 0.0
Zn51 Zn 0.17686 0.97194 0.24553 0.0
O52 O 0.23212 0.00738 0.24228 0.0
O53 O 0.1984 0.99207 0.20213 0.0
O54 O 0.24037 0.92219 0.30209 0.0
O55 O 0.25906 0.96112 0.30492 0.0
O56 O 0.23129 0.00751 0.36252 0.0
O57 O 0.19278 -0.00017 0.39449 0.0
O58 O 0.14181 -0.00288 0.33079 0.0
O59 O 0.18213 0.90911 0.26266 0.0
O60 O 0.1455 0.99343 0.2554 0.0
O61 O 0.16343 0.9386 0.21842 0.0
C62 C 0.17288 0.92454 0.3948 0.0
C63 C 0.21865 0.00617 0.20531 0.0
C64 C 0.21515 0.01029 0.39554 0.0
C65 C 0.26058 0.93641 0.30344 0.0
C66 C 0.13362 0.00184 0.2905 0.0
C67 C 0.16696 0.91504 0.22984 0.0
O68 O 0.16188 0.94641 0.38903 0.0
O69 O 0.57299 0.17679 0.86808 0.0
Zn70 Zn 0.56502 0.19489 0.80791 0.0
O71 O 0.52806 0.19297 0.79274 0.0
Zn72 Zn 0.51262 0.22775 0.79189 0.0
Zn73 Zn 0.51055 0.17262 0.8384 0.0
Zn74 Zn 0.52347 0.17484 0.73475 0.0
O75 O 0.49428 0.23362 0.73057 0.0
O76 O 0.50587 0.19837 0.69076 0.0
O77 O 0.57744 0.23196 0.80957 0.0
O78 O 0.5411 0.25451 0.79845 0.0
O79 O 0.48905 0.23379 0.84757 0.0
O80 O 0.48993 0.19479 0.87947 0.0
O81 O 0.48782 0.14501 0.81267 0.0
O82 O 0.58594 0.17551 0.76129 0.0
O83 O 0.49942 0.14433 0.73963 0.0
O84 O 0.55734 0.16082 0.71038 0.0
C85 C 0.55936 0.16024 0.88992 0.0
C86 C 0.49422 0.22008 0.69375 0.0
C87 C 0.48291 0.21838 0.88011 0.0
C88 C 0.56552 0.25347 0.80544 0.0
C89 C 0.48616 0.1353 0.7727 0.0
C90 C 0.58056 0.16259 0.72524 0.0
O91 O 0.53589 0.15575 0.87912 0.0
O92 O 0.80612 0.40407 0.15923 0.0
Zn93 Zn 0.79097 0.42327 0.21249 0.0
O94 O 0.79765 0.46034 0.209 0.0
Zn95 Zn 0.76463 0.47973 0.20772 0.0
Zn96 Zn 0.81812 0.46692 0.15492 0.0
Zn97 Zn 0.81888 0.47016 0.26104 0.0
O98 O 0.7607 0.50034 0.26852 0.0
O99 O 0.79699 0.48937 0.30541 0.0
O100 O 0.75343 0.41569 0.20833 0.0
O101 O 0.73415 0.45413 0.20221 0.0
O102 O 0.76246 0.50154 0.14819 0.0
O103 O 0.79731 0.48728 0.11094 0.0
O104 O 0.85012 0.48726 0.16835 0.0
O105 O 0.80777 0.40687 0.26723 0.0
O106 O 0.84906 0.49318 0.24364 0.0
O107 O 0.83379 0.43842 0.29151 0.0
C108 C 0.82152 0.41092 0.12748 0.0
C109 C 0.77513 0.50086 0.30444 0.0
C110 C 0.77652 0.50052 0.11196 0.0
C111 C 0.73319 0.42936 0.20266 0.0
C112 C 0.85965 0.49695 0.20478 0.0
C113 C 0.82648 0.41478 0.29225 0.0
O114 O 0.82874 0.43438 0.12301 0.0
O115 O 0.08579 0.80915 0.65511 0.0
Zn116 Zn 0.06853 0.79174 0.70817 0.0
O117 O 0.03121 0.7971 0.70825 0.0
Zn118 Zn 0.01271 0.76338 0.70741 0.0
Zn119 Zn 0.02234 0.8174 0.65476 0.0
Zn120 Zn 0.02254 0.81753 0.76233 0.0
O121 O 0.99315 0.75865 0.76884 0.0
O122 O 0.0026 0.79541 0.80576 0.0
O123 O 0.07667 0.75463 0.70049 0.0
O124 O 0.03881 0.73378 0.6996 0.0
O125 O 0.98922 0.76074 0.65005 0.0
O126 O -0.00169 0.79784 0.61433 0.0
O127 O 0.0051 0.85024 0.67156 0.0
O128 O 0.08623 0.80689 0.76329 0.0
O129 O 0.00133 0.84932 0.74731 0.0
O130 O 0.05487 0.83059 0.79407 0.0
C131 C 0.07732 0.82281 0.62215 0.0
C132 C 0.99186 0.77311 0.80462 0.0
C133 C 0.98648 0.77618 0.61601 0.0
C134 C 0.06354 0.73384 0.69649 0.0
C135 C -0.00253 0.86035 0.70888 0.0
C136 C 0.07862 0.82381 0.7921 0.0
O137 O 0.05326 0.82754 0.61775 0.0
O138 O 0.68376 0.0684 0.11625 0.0
Zn139 Zn 0.703 0.06214 0.17566 0.0
O140 O 0.69936 0.02694 0.19786 0.0
Zn141 Zn 0.73272 0.00922 0.19997 0.0
Zn142 Zn 0.67748 0.00942 0.15514 0.0
Zn143 Zn 0.68172 0.02668 0.2565 0.0
O144 O 0.73657 0.99116 0.26293 0.0
O145 O 0.70521 0.01076 0.30276 0.0
O146 O 0.74042 0.0722 0.17194 0.0
O147 O 0.76126 0.03623 0.1931 0.0
O148 O 0.7369 0.98552 0.1434 0.0
O149 O 0.69862 0.99047 0.10942 0.0
O150 O 0.65293 0.98535 0.18583 0.0
O151 O 0.68562 0.0865 0.21883 0.0
O152 O 0.65074 0.00261 0.25547 0.0
O153 O 0.66982 0.06269 0.27583 0.0
C154 C 0.66277 0.05706 0.10455 0.0
C155 C 0.72471 -0.00441 0.30084 0.0
C156 C 0.7217 0.98178 0.10923 0.0
C157 C 0.76131 0.06002 0.18083 0.0
C158 C 0.64291 0.98628 0.22565 0.0
C159 C 0.67296 0.08456 0.2561 0.0
O160 O 0.65652 0.0351 0.12107 0.0
O161 O 0.41782 0.67858 0.63612 0.0
Zn162 Zn 0.42653 0.69269 0.69927 0.0
O163 O 0.46316 0.68819 0.71458 0.0
Zn164 Zn 0.48095 0.72189 0.72008 0.0
Zn165 Zn 0.47915 0.6681 0.66661 0.0
Zn166 Zn 0.46606 0.66809 0.77063 0.0
O167 O 0.49886 0.72471 0.78349 0.0
O168 O 0.48376 0.68918 0.81838 0.0
O169 O 0.41646 0.73019 0.70315 0.0
O170 O 0.45409 0.75045 0.71586 0.0
O171 O 0.50504 0.72807 0.66452 0.0
O172 O 0.50175 0.69019 0.62874 0.0
O173 O 0.49938 0.63792 0.68945 0.0
O174 O 0.40424 0.67211 0.74208 0.0
O175 O 0.48856 0.63688 0.76288 0.0
O176 O 0.4315 0.65444 0.79202 0.0
C177 C 0.43025 0.66228 0.61171 0.0
C178 C 0.4969 0.71015 0.81895 0.0
C179 C 0.51024 0.71331 0.6304 0.0
C180 C 0.42961 0.75088 0.70929 0.0
C181 C 0.50071 0.62748 0.72884 0.0
C182 C 0.40862 0.65758 0.7765 0.0
O183 O 0.45305 0.65515 0.62242 0.0
O184 O 0.68626 0.4199 0.61565 0.0
Zn185 Zn 0.70282 0.4268 0.67763 0.0
O186 O 0.69947 0.4634 0.69546 0.0
Zn187 Zn 0.7336 0.4806 0.69941 0.0
Zn188 Zn 0.67845 0.48155 0.6507 0.0
Zn189 Zn 0.68133 0.46512 0.75367 0.0
O190 O 0.73815 0.49817 0.76294 0.0
O191 O 0.7028 0.48392 0.79932 0.0
O192 O 0.74051 0.41671 0.67563 0.0
O193 O 0.76157 0.45351 0.69151 0.0
O194 O 0.73869 0.50546 0.64483 0.0
O195 O 0.6988 0.50771 0.6164 0.0
O196 O 0.64728 0.49858 0.6775 0.0
O197 O 0.68434 0.40325 0.72225 0.0
O198 O 0.64853 0.48552 0.74976 0.0
O199 O 0.6707 0.43001 0.77677 0.0
C200 C 0.67169 0.43414 0.59093 0.0
C201 C 0.72392 0.49676 0.79889 0.0
C202 C 0.72255 0.51433 0.61546 0.0
C203 C 0.76154 0.42936 0.68173 0.0
C204 C 0.63759 0.49795 0.71756 0.0
C205 C 0.67255 0.40727 0.75999 0.0
O206 O 0.6665 0.4574 0.60211 0.0
O207 O 0.07784 0.69366 0.14597 0.0
Zn208 Zn 0.06129 0.70527 0.20501 0.0
O209 O 0.02406 0.69822 0.20624 0.0
Zn210 Zn 0.00461 0.73109 0.20712 0.0
Zn211 Zn 0.0153 0.67808 0.15276 0.0
Zn212 Zn 0.01597 0.67669 0.25925 0.0
O213 O 0.98529 0.73427 0.26898 0.0
O214 O -0.00244 0.69833 0.30557 0.0
O215 O 0.06874 0.74301 0.21074 0.0
O216 O 0.02995 0.76146 0.20401 0.0
O217 O 0.98171 0.73448 0.14915 0.0
O218 O 0.9911 0.69758 0.11311 0.0
O219 O -0.00173 0.64466 0.16794 0.0
O220 O 0.07997 0.6853 0.25366 0.0
O221 O 0.9934 0.64566 0.24345 0.0
O222 O 0.04885 0.66223 0.28705 0.0
C223 C 0.06953 0.67855 0.11469 0.0
C224 C 0.9858 0.72007 0.3051 0.0
C225 C 0.97923 0.71914 0.11482 0.0
C226 C 0.05461 0.76313 0.20731 0.0
C227 C 0.98979 0.63466 0.20481 0.0
C228 C 0.07276 0.66798 0.28207 0.0
O229 O 0.0463 0.67021 0.11477 0.0
O230 O 0.805 0.06994 0.62245 0.0
Zn231 Zn 0.792 0.05789 0.68449 0.0
O232 O 0.79708 0.02055 0.69396 0.0
Zn233 Zn 0.76345 0.00251 0.69954 0.0
Zn234 Zn 0.81605 0.00674 0.64235 0.0
Zn235 Zn 0.81861 0.01506 0.74809 0.0
O236 O 0.76101 0.98416 0.76261 0.0
O237 O 0.79863 -0.00441 0.79495 0.0
O238 O 0.75432 0.06717 0.68912 0.0
O239 O 0.73444 0.02893 0.69592 0.0
O240 O 0.75749 0.97849 0.64388 0.0
O241 O 0.79586 0.98003 0.60926 0.0
O242 O 0.85028 0.99208 0.6592 0.0
O243 O 0.81254 0.07846 0.73016 0.0
O244 O 0.85072 0.99431 0.73511 0.0
O245 O 0.83177 0.04893 0.77383 0.0
C246 C 0.81734 0.05769 0.59146 0.0
C247 C 0.77682 0.98398 0.79661 0.0
C248 C 0.77275 0.97152 0.61155 0.0
C249 C 0.7337 0.05359 0.69227 0.0
C250 C 0.86126 0.98782 0.69743 0.0
C251 C 0.82783 0.07251 0.7628 0.0
O252 O 0.82288 0.03385 0.596 0.0
O253 O 0.41926 0.80973 0.14739 0.0
Zn254 Zn 0.42896 0.79063 0.20601 0.0
O255 O 0.46578 0.79443 0.22069 0.0
Zn256 Zn 0.48323 0.76084 0.22339 0.0
Zn257 Zn 0.48142 0.81518 0.17377 0.0
Zn258 Zn 0.4699 0.81385 0.27685 0.0
O259 O 0.50242 0.75718 0.28573 0.0
O260 O 0.48695 0.79169 0.32324 0.0
O261 O 0.41873 0.75277 0.20335 0.0
O262 O 0.45596 0.73253 0.21859 0.0
O263 O 0.50559 0.75557 0.16534 0.0
O264 O 0.49846 0.79253 0.12818 0.0
O265 O 0.50717 0.84086 0.1979 0.0
O266 O 0.40733 0.80916 0.25314 0.0
O267 O 0.49442 0.84378 0.27018 0.0
O268 O 0.43602 0.82838 0.2989 0.0
C269 C 0.4308 0.82949 0.13066 0.0
C270 C 0.50045 0.77103 0.32218 0.0
C271 C 0.5077 0.76968 0.12935 0.0
C272 C 0.4317 0.732 0.20959 0.0
C273 C 0.50876 0.85132 0.23734 0.0
C274 C 0.41267 0.82449 0.28619 0.0
O275 O 0.4541 0.835 0.14139 0.0
O276 O 0.17967 0.58571 0.85183 0.0
Zn277 Zn 0.19285 0.56511 0.79774 0.0
O278 O 0.18343 0.52856 0.80192 0.0
Zn279 Zn 0.21475 0.5068 0.80024 0.0
Zn280 Zn 0.16453 0.52284 0.85799 0.0
Zn281 Zn 0.15992 0.52044 0.75195 0.0
O282 O 0.21531 0.48589 0.73986 0.0
O283 O 0.1782 0.49812 0.70686 0.0
O284 O 0.23108 0.56977 0.79549 0.0
O285 O 0.24689 0.52977 0.80057 0.0
O286 O 0.21799 0.48531 0.85954 0.0
O287 O 0.18564 0.50175 0.90074 0.0
O288 O 0.13089 0.50444 0.84827 0.0
O289 O 0.17671 0.58186 0.74287 0.0
O290 O 0.1285 0.50105 0.77262 0.0
O291 O 0.14723 0.55286 0.72067 0.0
C292 C 0.16435 0.57934 0.88413 0.0
C293 C 0.19933 0.48534 0.70616 0.0
C294 C 0.20555 0.48733 0.8974 0.0
C295 C 0.25019 0.55427 0.79803 0.0
C296 C 0.11918 0.49688 0.81227 0.0
C297 C 0.15731 0.57538 0.71832 0.0
O298 O 0.1565 0.5561 0.88902 0.0
O299 O 0.9117 0.18367 0.36693 0.0
Zn300 Zn 0.92556 0.20259 0.31156 0.0
O301 O 0.96282 0.1972 0.30389 0.0
Zn302 Zn 0.98213 0.22997 0.30505 0.0
Zn303 Zn 0.97483 0.1748 0.35234 0.0
Zn304 Zn 0.96851 0.17919 0.24704 0.0
O305 O 0.00177 0.23546 0.24372 0.0
O306 O 0.98644 0.20217 0.2031 0.0
O307 O 0.9176 0.24046 0.31719 0.0
O308 O 0.95641 0.25944 0.31248 0.0
O309 O 0.00468 0.23199 0.36321 0.0
O310 O 0.99325 0.19579 0.3997 0.0
O311 O -0.00119 0.14695 0.32983 0.0
O312 O 0.90501 0.18628 0.25971 0.0
O313 O 0.99141 0.14856 0.25504 0.0
O314 O 0.9355 0.16594 0.21998 0.0
C315 C 0.92107 0.16378 0.38671 0.0
C316 C -0.00014 0.22287 0.20588 0.0
C317 C 0.00504 0.21755 0.39895 0.0
C318 C 0.93182 0.26075 0.31734 0.0
C319 C 0.0024 0.13825 0.28948 0.0
C320 C 0.91172 0.17081 0.22772 0.0
O321 O 0.94452 0.15685 0.38094 0.0
O322 O 0.31047 0.91722 0.89121 0.0
Zn323 Zn 0.29161 0.92435 0.83118 0.0
O324 O 0.29482 0.96077 0.81259 0.0
Zn325 Zn 0.26114 0.97843 0.81091 0.0
Zn326 Zn 0.31692 0.9783 0.85592 0.0
Zn327 Zn 0.31154 0.96271 0.75322 0.0
O328 O 0.25507 0.99494 0.74724 0.0
O329 O 0.28728 0.97733 0.707 0.0
O330 O 0.25386 0.91451 0.8366 0.0
O331 O 0.23316 0.95156 0.8219 0.0
O332 O 0.25744 0.00392 0.86492 0.0
O333 O 0.29627 0.00058 0.89723 0.0
O334 O 0.34432 -0.00034 0.82606 0.0
O335 O 0.30931 0.90088 0.78547 0.0
O336 O 0.34191 0.98707 0.7535 0.0
O337 O 0.32503 0.92804 0.73327 0.0
C338 C 0.32832 0.93042 0.91072 0.0
C339 C 0.26678 0.99104 0.70907 0.0
C340 C 0.27326 0.00934 0.8974 0.0
C341 C 0.23294 0.92748 0.83213 0.0
C342 C 0.35239 0.00065 0.7849 0.0
C343 C 0.32252 0.90519 0.7493 0.0
O344 O 0.33393 0.95323 0.8974 0.0
O345 O 0.48345 0.27248 0.22805 0.0
Zn346 Zn 0.49408 0.28971 0.28779 0.0
O347 O 0.52997 0.30104 0.28496 0.0
Zn348 Zn 0.54702 0.29051 0.3402 0.0
Zn349 Zn 0.54734 0.28524 0.23385 0.0
Zn350 Zn 0.53215 0.33851 0.27931 0.0
O351 O 0.56999 0.3186 0.36526 0.0
O352 O 0.55318 0.35322 0.33108 0.0
O353 O 0.48578 0.27007 0.34682 0.0
O354 O 0.52019 0.28311 0.38703 0.0
O355 O 0.56745 0.25784 0.33035 0.0
O356 O 0.56775 0.25371 0.25443 0.0
O357 O 0.57179 0.3115 0.20579 0.0
O358 O 0.47173 0.32104 0.29159 0.0
O359 O 0.55342 0.34898 0.22507 0.0
O360 O 0.49689 0.35542 0.27906 0.0
C361 C 0.49609 0.2696 0.19076 0.0
C362 C 0.56871 0.34309 0.35993 0.0
C363 C 0.57403 0.24555 0.29425 0.0
C364 C 0.49747 0.27341 0.38506 0.0
C365 C 0.5707 0.33622 0.20351 0.0
C366 C 0.47466 0.34538 0.2865 0.0
O367 O 0.52028 0.27467 0.18777 0.0
H368 H 0.3154 0.60454 0.4577 0.0
H369 H 0.37563 0.56275 0.38461 0.0
H370 H 0.40922 0.58723 0.42667 0.0
H371 H 0.35042 0.66742 0.469 0.0
H372 H 0.33893 0.67293 0.52661 0.0
H373 H 0.31924 0.65488 0.48646 0.0
H374 H 0.31708 0.61632 0.54343 0.0
H375 H 0.33667 0.63425 0.58371 0.0
H376 H 0.34685 0.60251 0.56491 0.0
H377 H 0.43595 0.61314 0.47852 0.0
H378 H 0.45527 0.63691 0.54312 0.0
H379 H 0.37842 0.66114 0.58726 0.0
C380 C 0.33569 0.60101 0.45022 0.0
C381 C 0.34313 0.58198 0.41796 0.0
C382 C 0.36972 0.57727 0.40942 0.0
C383 C 0.38888 0.5912 0.43278 0.0
C384 C 0.38107 0.60959 0.46486 0.0
C385 C 0.35519 0.61443 0.4741 0.0
C386 C 0.35239 0.6333 0.51382 0.0
C387 C 0.33948 0.65864 0.49801 0.0
C388 C 0.33737 0.62084 0.55383 0.0
C389 C 0.38072 0.63766 0.52602 0.0
C390 C 0.39681 0.62416 0.49657 0.0
C391 C 0.42363 0.62396 0.50172 0.0
C392 C 0.43439 0.63744 0.5387 0.0
C393 C 0.41833 0.65075 0.57039 0.0
C394 C 0.39117 0.65132 0.56335 0.0
H395 H 0.86706 0.4127 0.08099 0.0
H396 H 0.7986 0.36494 0.1022 0.0
H397 H 0.81538 0.33289 0.04608 0.0
H398 H 0.87393 0.40225 0.96178 0.0
H399 H 0.90891 0.40123 0.9636 0.0
H400 H 0.89138 0.41986 0.0056 0.0
H401 H 0.91415 0.39442 0.07102 0.0
H402 H 0.93176 0.37569 0.02918 0.0
H403 H 0.91229 0.35946 0.07183 0.0
H404 H 0.83896 0.30769 0.98309 0.0
H405 H 0.86875 0.29015 0.92372 0.0
H406 H 0.92208 0.35391 0.94971 0.0
C407 C 0.85557 0.3955 0.07384 0.0
C408 C 0.8315 0.3913 0.09544 0.0
C409 C 0.81716 0.36842 0.08583 0.0
C410 C 0.82649 0.35018 0.05403 0.0
C411 C 0.85032 0.35505 0.03302 0.0
C412 C 0.86476 0.37702 0.04306 0.0
C413 C 0.88987 0.37775 0.01657 0.0
C414 C 0.89107 0.40168 0.98502 0.0
C415 C 0.9134 0.37676 0.0491 0.0
C416 C 0.88717 0.35298 0.98937 0.0
C417 C 0.86423 0.34012 0.9989 0.0
C418 C 0.85715 0.31741 0.97582 0.0
C419 C 0.87408 0.30764 0.94217 0.0
C420 C 0.8978 0.32051 0.93267 0.0
C421 C 0.90432 0.34334 0.95683 0.0
H422 H 0.06905 0.86404 0.56546 0.0
H423 H 0.12747 0.80784 0.60591 0.0
H424 H 0.15874 0.82815 0.55245 0.0
H425 H 0.08614 0.86788 0.44633 0.0
H426 H 0.08024 0.9023 0.44276 0.0
H427 H 0.06246 0.88285 0.48338 0.0
H428 H 0.07802 0.91294 0.54942 0.0
H429 H 0.09597 0.93239 0.50903 0.0
H430 H 0.11232 0.91832 0.55773 0.0
H431 H 0.18308 0.85398 0.49334 0.0
H432 H 0.19935 0.88447 0.43451 0.0
H433 H 0.1254 0.92481 0.43632 0.0
C434 C 0.08835 0.85585 0.56283 0.0
C435 C 0.09584 0.83429 0.58949 0.0
C436 C 0.12138 0.82437 0.58567 0.0
C437 C 0.13924 0.83574 0.55544 0.0
C438 C 0.13124 0.85711 0.52985 0.0
C439 C 0.10646 0.86714 0.53342 0.0
C440 C 0.10287 0.89057 0.50294 0.0
C441 C 0.08168 0.88559 0.4667 0.0
C442 C 0.09695 0.91499 0.5315 0.0
C443 C 0.12949 0.89207 0.48138 0.0
C444 C 0.14553 0.87253 0.49712 0.0
C445 C 0.17078 0.86948 0.48096 0.0
C446 C 0.1798 0.88683 0.44757 0.0
C447 C 0.16366 0.90705 0.43121 0.0
C448 C 0.13829 0.90976 0.44868 0.0
H449 H 0.61048 0.15888 0.9191 0.0
H450 H 0.53379 0.12671 0.94603 0.0
H451 H 0.5523 0.09793 0.00426 0.0
H452 H 0.64522 0.10025 0.92946 0.0
H453 H 0.67294 0.11403 0.9585 0.0
H454 H 0.65385 0.13381 0.92039 0.0
H455 H 0.64626 0.16722 0.98563 0.0
H456 H 0.66561 0.14768 0.0238 0.0
H457 H 0.63293 0.15641 0.03955 0.0
H458 H 0.57844 0.07017 0.0536 0.0
H459 H 0.61119 0.04702 0.09893 0.0
H460 H 0.67147 0.09748 0.04429 0.0
C461 C 0.59757 0.14605 0.93774 0.0
C462 C 0.57072 0.14496 0.92769 0.0
C463 C 0.55446 0.12783 0.95275 0.0
C464 C 0.56474 0.11137 0.98602 0.0
C465 C 0.59128 0.11242 0.99423 0.0
C466 C 0.60751 0.12948 0.97151 0.0
C467 C 0.63546 0.12607 0.98684 0.0
C468 C 0.65289 0.11806 0.94638 0.0
C469 C 0.64566 0.15082 0.01036 0.0
C470 C 0.63227 0.10407 0.02093 0.0
C471 C 0.60658 0.09656 0.02433 0.0
C472 C 0.59862 0.076 0.05178 0.0
C473 C 0.61743 0.06286 0.0771 0.0
C474 C 0.64386 0.07048 0.07511 0.0
C475 C 0.65138 0.09138 0.04664 0.0
H476 H 0.59743 0.33054 0.43619 0.0
H477 H 0.57901 0.39435 0.34441 0.0
H478 H 0.60704 0.4234 0.38995 0.0
H479 H 0.59583 0.36684 0.53824 0.0
H480 H 0.62244 0.3501 0.56536 0.0
H481 H 0.60286 0.33362 0.5232 0.0
H482 H 0.64414 0.3233 0.47577 0.0
H483 H 0.66387 0.33985 0.5178 0.0
H484 H 0.66532 0.34942 0.45837 0.0
H485 H 0.63362 0.44624 0.44799 0.0
H486 H 0.6572 0.46195 0.51617 0.0
H487 H 0.65928 0.3835 0.57048 0.0
C488 C 0.59954 0.35054 0.42537 0.0
C489 C 0.58599 0.3602 0.38682 0.0
C490 C 0.58905 0.38656 0.374 0.0
C491 C 0.60506 0.40318 0.39945 0.0
C492 C 0.61791 0.39312 0.43751 0.0
C493 C 0.6154 0.36745 0.45049 0.0
C494 C 0.63015 0.36202 0.49445 0.0
C495 C 0.61172 0.3526 0.53255 0.0
C496 C 0.65218 0.34249 0.48608 0.0
C497 C 0.64077 0.38885 0.50473 0.0
C498 C 0.63364 0.40639 0.47113 0.0
C499 C 0.63963 0.43268 0.47425 0.0
C500 C 0.65293 0.4414 0.51317 0.0
C501 C 0.66011 0.42388 0.54839 0.0
C502 C 0.6544 0.3972 0.54366 0.0
H503 H 0.11899 0.57751 0.93062 0.0
H504 H 0.18694 0.62589 0.90858 0.0
H505 H 0.16978 0.65796 0.96453 0.0
H506 H 0.07304 0.62996 0.93985 0.0
H507 H 0.05398 0.61347 0.98277 0.0
H508 H 0.07176 0.59498 0.94081 0.0
H509 H 0.09516 0.56999 0.00607 0.0
H510 H 0.07749 0.58838 0.04821 0.0
H511 H 0.11248 0.58793 0.04962 0.0
H512 H 0.14577 0.68304 0.02746 0.0
H513 H 0.11591 0.70018 0.08695 0.0
H514 H 0.06353 0.63549 0.06217 0.0
C515 C 0.13033 0.59484 0.93751 0.0
C516 C 0.15437 0.5992 0.9158 0.0
C517 C 0.16844 0.62227 0.92507 0.0
C518 C 0.15888 0.6405 0.95676 0.0
C519 C 0.13512 0.63541 0.97796 0.0
C520 C 0.12096 0.61324 0.96818 0.0
C521 C 0.09595 0.61211 0.99494 0.0
C522 C 0.07229 0.61267 0.96266 0.0
C523 C 0.09525 0.58819 0.02658 0.0
C524 C 0.09831 0.63693 0.02204 0.0
C525 C 0.12103 0.65014 0.01216 0.0
C526 C 0.12778 0.67301 0.03501 0.0
C527 C 0.11079 0.68254 0.06875 0.0
C528 C 0.08733 0.66928 0.07872 0.0
C529 C 0.0811 0.64631 0.05478 0.0
H530 H 0.88857 0.1729 0.45982 0.0
H531 H 0.9141 0.11385 0.36385 0.0
H532 H 0.88453 0.08206 0.39966 0.0
H533 H 0.88798 0.13145 0.55576 0.0
H534 H 0.85996 0.14579 0.58274 0.0
H535 H 0.88007 0.16504 0.54546 0.0
H536 H 0.83977 0.17626 0.496 0.0
H537 H 0.81956 0.15678 0.53302 0.0
H538 H 0.82028 0.15041 0.47219 0.0
H539 H 0.85539 0.05622 0.44744 0.0
H540 H 0.83176 0.0356 0.51089 0.0
H541 H 0.82608 0.11012 0.58017 0.0
C542 C 0.8875 0.15335 0.4462 0.0
C543 C 0.90331 0.14561 0.40915 0.0
C544 C 0.90205 0.11989 0.3924 0.0
C545 C 0.88517 0.10185 0.41216 0.0
C546 C 0.86992 0.10985 0.44891 0.0
C547 C 0.8711 0.13483 0.46633 0.0
C548 C 0.85484 0.13729 0.5095 0.0
C549 C 0.87172 0.14535 0.55079 0.0
C550 C 0.83227 0.15632 0.50222 0.0
C551 C 0.84505 0.10961 0.51419 0.0
C552 C 0.85352 0.09439 0.47811 0.0
C553 C 0.84843 0.06791 0.47574 0.0
C554 C 0.83505 0.05638 0.51204 0.0
C555 C 0.82716 0.07126 0.55047 0.0
C556 C 0.83156 0.09837 0.5509 0.0
H557 H 0.32869 0.87983 0.94309 0.0
H558 H 0.36236 0.95637 0.96546 0.0
H559 H 0.39033 0.93864 0.02571 0.0
H560 H 0.33017 0.8598 0.06507 0.0
H561 H 0.3385 0.82668 0.05161 0.0
H562 H 0.31944 0.84548 0.01181 0.0
H563 H 0.35304 0.83609 0.94777 0.0
H564 H 0.37228 0.81745 0.98742 0.0
H565 H 0.38669 0.84432 0.95705 0.0
H566 H 0.41722 0.91318 0.0775 0.0
H567 H 0.4403 0.88093 0.12402 0.0
H568 H 0.38915 0.82025 0.07263 0.0
C569 C 0.34168 0.89289 0.96117 0.0
C570 C 0.34339 0.91948 0.94927 0.0
C571 C 0.36076 0.93591 0.97357 0.0
C572 C 0.37674 0.92606 0.00803 0.0
C573 C 0.37503 0.89978 0.0182 0.0
C574 C 0.35783 0.88337 0.99606 0.0
C575 C 0.36075 0.85569 0.01324 0.0
C576 C 0.33572 0.84637 0.03684 0.0
C577 C 0.36866 0.83731 0.97403 0.0
C578 C 0.38264 0.8592 0.04763 0.0
C579 C 0.39046 0.88486 0.04967 0.0
C580 C 0.41113 0.89305 0.07675 0.0
C581 C 0.42423 0.87453 0.10277 0.0
C582 C 0.4165 0.84812 0.10188 0.0
C583 C 0.39528 0.84036 0.0742 0.0
H584 H 0.38799 0.47331 0.26112 0.0
H585 H 0.33248 0.43529 0.35092 0.0
H586 H 0.35978 0.39609 0.35226 0.0
H587 H 0.40739 0.41604 0.19594 0.0
H588 H 0.44115 0.42527 0.19372 0.0
H589 H 0.4164 0.44989 0.19675 0.0
H590 H 0.43834 0.46923 0.26928 0.0
H591 H 0.46313 0.44467 0.26651 0.0
H592 H 0.44425 0.44859 0.31811 0.0
H593 H 0.39226 0.3615 0.34445 0.0
H594 H 0.43049 0.33375 0.33284 0.0
H595 H 0.4671 0.39463 0.25233 0.0
C596 C 0.38157 0.45658 0.28058 0.0
C597 C 0.35817 0.45711 0.30573 0.0
C598 C 0.35045 0.43516 0.33157 0.0
C599 C 0.36571 0.41281 0.33236 0.0
C600 C 0.38878 0.4129 0.30761 0.0
C601 C 0.39691 0.43421 0.28257 0.0
C602 C 0.42341 0.42956 0.26156 0.0
C603 C 0.42199 0.43023 0.20886 0.0
C604 C 0.44346 0.44917 0.27998 0.0
C605 C 0.42883 0.40239 0.27893 0.0
C606 C 0.40835 0.39311 0.30482 0.0
C607 C 0.40847 0.36849 0.32431 0.0
C608 C 0.43025 0.35288 0.3174 0.0
C609 C 0.45173 0.3621 0.29177 0.0
C610 C 0.45099 0.38719 0.27229 0.0
H611 H 0.0211 0.38497 0.74641 0.0
H612 H 0.99055 0.39193 0.88475 0.0
H613 H 0.01563 0.43214 0.89591 0.0
H614 H 0.08322 0.40182 0.77254 0.0
H615 H 0.08992 0.42004 0.72109 0.0
H616 H 0.06586 0.39473 0.72021 0.0
H617 H 0.0314 0.4273 0.69065 0.0
H618 H 0.05548 0.45278 0.69111 0.0
H619 H 0.02551 0.45684 0.72219 0.0
H620 H 0.04878 0.4667 0.89711 0.0
H621 H 0.08747 0.49443 0.88722 0.0
H622 H 0.09634 0.46572 0.74793 0.0
C623 C 0.01909 0.3954 0.7785 0.0
C624 C 0.00393 0.38537 0.81468 0.0
C625 C 0.00216 0.39924 0.85658 0.0
C626 C 0.01617 0.42221 0.86318 0.0
C627 C 0.03165 0.43113 0.82742 0.0
C628 C 0.03304 0.41835 0.78571 0.0
C629 C 0.05332 0.43044 0.75484 0.0
C630 C 0.07431 0.41058 0.74143 0.0
C631 C 0.04066 0.44257 0.71217 0.0
C632 C 0.06398 0.45112 0.78664 0.0
C633 C 0.05091 0.45146 0.82803 0.0
C634 C 0.05883 0.46709 0.8645 0.0
C635 C 0.08091 0.4826 0.85869 0.0
C636 C 0.09476 0.48226 0.81676 0.0
C637 C 0.08583 0.46671 0.78007 0.0
H638 H 0.10957 0.03314 0.35373 0.0
H639 H 0.10608 0.0081 0.21137 0.0
H640 H 0.07018 0.03853 0.19733 0.0
H641 H 0.03907 0.04356 0.36868 0.0
H642 H 0.04394 0.07193 0.40399 0.0
H643 H 0.06761 0.04621 0.40428 0.0
H644 H 0.10359 0.07935 0.38296 0.0
H645 H 0.08004 0.1051 0.38222 0.0
H646 H 0.09981 0.09908 0.33232 0.0
H647 H 0.03777 0.07377 0.19655 0.0
H648 H 0.00934 0.11137 0.20965 0.0
H649 H 0.03363 0.11387 0.35253 0.0
C650 C 0.10089 0.03368 0.31987 0.0
C651 C 0.11057 0.01825 0.28367 0.0
C652 C 0.09899 0.01979 0.23962 0.0
C653 C 0.07855 0.03694 0.2313 0.0
C654 C 0.06988 0.05231 0.2674 0.0
C655 C 0.0805 0.05078 0.31089 0.0
C656 C 0.06857 0.07064 0.34283 0.0
C657 C 0.05392 0.05728 0.38227 0.0
C658 C 0.08924 0.08966 0.36113 0.0
C659 C 0.05003 0.0839 0.31013 0.0
C660 C 0.05101 0.07287 0.26693 0.0
C661 C 0.03656 0.08243 0.23034 0.0
C662 C 0.02058 0.10387 0.23812 0.0
C663 C 0.01923 0.11553 0.28215 0.0
C664 C 0.03409 0.10527 0.3186 0.0
H665 H 0.37981 0.03153 0.84382 0.0
H666 H 0.37378 0.00977 0.70007 0.0
H667 H 0.40898 0.04066 0.68129 0.0
H668 H 0.38978 0.09833 0.82605 0.0
H669 H 0.41244 0.10203 0.87282 0.0
H670 H 0.38796 0.07708 0.87508 0.0
H671 H 0.4236 0.04222 0.88702 0.0
H672 H 0.44822 0.06709 0.8849 0.0
H673 H 0.44984 0.03975 0.84634 0.0
H674 H 0.44353 0.07544 0.6781 0.0
H675 H 0.47463 0.11137 0.69082 0.0
H676 H 0.45722 0.10967 0.83667 0.0
C677 C 0.38596 0.03304 0.80839 0.0
C678 C 0.37405 0.01824 0.77342 0.0
C679 C 0.38267 0.02091 0.72747 0.0
C680 C 0.40265 0.03835 0.71646 0.0
C681 C 0.41379 0.05282 0.75182 0.0
C682 C 0.40578 0.05026 0.79685 0.0
C683 C 0.42022 0.06858 0.82835 0.0
C684 C 0.40148 0.08763 0.85193 0.0
C685 C 0.43643 0.0535 0.86373 0.0
C686 C 0.43732 0.08221 0.79389 0.0
C687 C 0.43351 0.07277 0.74998 0.0
C688 C 0.4468 0.08288 0.71238 0.0
C689 C 0.46438 0.10328 0.71995 0.0
C690 C 0.46833 0.11333 0.76473 0.0
C691 C 0.45468 0.10245 0.80202 0.0
H692 H 0.95467 0.61435 0.26644 0.0
H693 H 0.9919 0.59957 0.1353 0.0
H694 H 0.96537 0.56022 0.12538 0.0
H695 H 0.94646 0.54508 0.30046 0.0
H696 H 0.91504 0.55088 0.32564 0.0
H697 H 0.93925 0.57623 0.32567 0.0
H698 H 0.90692 0.60705 0.28492 0.0
H699 H 0.8827 0.58182 0.28457 0.0
H700 H 0.89223 0.59707 0.23152 0.0
H701 H 0.93238 0.52572 0.12499 0.0
H702 H 0.89445 0.49711 0.13464 0.0
H703 H 0.87794 0.53334 0.26611 0.0
C704 C 0.95761 0.60247 0.23621 0.0
C705 C 0.97535 0.60996 0.20169 0.0
C706 C 0.97835 0.59424 0.16212 0.0
C707 C 0.96348 0.57176 0.15625 0.0
C708 C 0.94575 0.56521 0.19029 0.0
C709 C 0.94275 0.57995 0.22961 0.0
C710 C 0.92077 0.56956 0.25897 0.0
C711 C 0.931 0.55985 0.30544 0.0
C712 C 0.8994 0.5901 0.26534 0.0
C713 C 0.91149 0.5472 0.22926 0.0
C714 C 0.92641 0.54496 0.19007 0.0
C715 C 0.92075 0.52697 0.15582 0.0
C716 C 0.89908 0.51092 0.16153 0.0
C717 C 0.88332 0.51297 0.20118 0.0
C718 C 0.88987 0.5311 0.23577 0.0
H719 H 0.9621 0.88001 0.77008 0.0
H720 H 0.0012 0.89631 0.64131 0.0
H721 H 0.97434 0.93525 0.63097 0.0
H722 H 0.90117 0.89409 0.73275 0.0
H723 H 0.8895 0.90912 0.78467 0.0
H724 H 0.91515 0.88557 0.78745 0.0
H725 H 0.94468 0.91879 0.82946 0.0
H726 H 0.91897 0.94248 0.82714 0.0
H727 H 0.95052 0.95016 0.80402 0.0
H728 H 0.93923 0.9669 0.62701 0.0
H729 H 0.89805 0.99102 0.63116 0.0
H730 H 0.88134 0.9556 0.76297 0.0
C731 C 0.96553 0.8923 0.74056 0.0
C732 C 0.98367 0.88525 0.70653 0.0
C733 C 0.98728 0.90136 0.6677 0.0
C734 C 0.97228 0.92363 0.66168 0.0
C735 C 0.95388 0.92958 0.69493 0.0
C736 C 0.95054 0.9146 0.73386 0.0
C737 C 0.92733 0.92368 0.76142 0.0
C738 C 0.9071 0.90181 0.76685 0.0
C739 C 0.93589 0.93442 0.80829 0.0
C740 C 0.91745 0.94514 0.73056 0.0
C741 C 0.93335 0.94844 0.69281 0.0
C742 C 0.92693 0.96504 0.65692 0.0
C743 C 0.90344 0.97846 0.65939 0.0
C744 C 0.88676 0.97521 0.69751 0.0
C745 C 0.8941 0.95879 0.73398 0.0
H746 H 0.54253 0.87245 0.17523 0.0
H747 H 0.51749 0.87822 0.31724 0.0
H748 H 0.54894 0.91377 0.32997 0.0
H749 H 0.61005 0.88382 0.19605 0.0
H750 H 0.61462 0.90244 0.14432 0.0
H751 H 0.58995 0.87763 0.14651 0.0
H752 H 0.55514 0.9114 0.1229 0.0
H753 H 0.5797 0.93632 0.12066 0.0
H754 H 0.55145 0.94065 0.15632 0.0
H755 H 0.5833 0.94872 0.327 0.0
H756 H 0.61816 0.9801 0.30851 0.0
H757 H 0.62015 0.95076 0.16867 0.0
C758 C 0.54359 0.88115 0.20904 0.0
C759 C 0.52753 0.87256 0.2452 0.0
C760 C 0.5296 0.88449 0.28895 0.0
C761 C 0.54739 0.90469 0.29655 0.0
C762 C 0.56291 0.91267 0.26008 0.0
C763 C 0.56118 0.90125 0.21723 0.0
C764 C 0.5801 0.91327 0.1838 0.0
C765 C 0.59985 0.89308 0.16669 0.0
C766 C 0.56573 0.92618 0.14356 0.0
C767 C 0.59279 0.93322 0.21458 0.0
C768 C 0.58263 0.93265 0.25842 0.0
C769 C 0.59141 0.94936 0.29277 0.0
C770 C 0.61118 0.96711 0.28194 0.0
C771 C 0.62189 0.96788 0.23717 0.0
C772 C 0.61244 0.95068 0.20324 0.0
H773 H 0.52994 0.60281 0.66404 0.0
H774 H 0.50915 0.6004 0.80847 0.0
H775 H 0.53918 0.56369 0.81984 0.0
H776 H 0.5382 0.53224 0.64838 0.0
H777 H 0.5654 0.53665 0.61023 0.0
H778 H 0.54006 0.5607 0.61252 0.0
H779 H 0.57434 0.59629 0.63044 0.0
H780 H 0.59972 0.5724 0.62835 0.0
H781 H 0.59577 0.59223 0.67888 0.0
H782 H 0.57429 0.53019 0.81685 0.0
H783 H 0.61213 0.50252 0.79981 0.0
H784 H 0.60952 0.52728 0.65737 0.0
C785 C 0.53133 0.59433 0.69795 0.0
C786 C 0.5172 0.60444 0.73535 0.0
C787 C 0.51977 0.59292 0.77926 0.0
C788 C 0.53669 0.57202 0.78605 0.0
C789 C 0.55066 0.56283 0.74852 0.0
C790 C 0.54806 0.57354 0.70531 0.0
C791 C 0.56655 0.56138 0.67137 0.0
C792 C 0.55166 0.54688 0.63339 0.0
C793 C 0.58519 0.58179 0.65111 0.0
C794 C 0.58059 0.54273 0.70261 0.0
C795 C 0.57094 0.54358 0.74682 0.0
C796 C 0.58181 0.52908 0.78223 0.0
C797 C 0.60332 0.51348 0.77222 0.0
C798 C 0.61377 0.51274 0.72724 0.0
C799 C 0.60192 0.52729 0.69202 0.0
H800 H 0.18292 0.48799 0.9821 0.0
H801 H 0.25233 0.46248 0.91084 0.0
H802 H 0.27299 0.45297 0.9855 0.0
H803 H 0.21335 0.5229 0.06261 0.0
H804 H 0.19178 0.51571 0.10963 0.0
H805 H 0.18 0.51408 0.05171 0.0
H806 H 0.1653 0.46648 0.06419 0.0
H807 H 0.17682 0.46801 0.1226 0.0
H808 H 0.18831 0.44285 0.0847 0.0
H809 H 0.28908 0.45523 0.06606 0.0
H810 H 0.29915 0.4681 0.14564 0.0
H811 H 0.21941 0.49237 0.16539 0.0
C812 C 0.20213 0.47948 0.98195 0.0
C813 C 0.21597 0.4759 0.94041 0.0
C814 C 0.24122 0.46515 0.94202 0.0
C815 C 0.2531 0.45969 0.98437 0.0
C816 C 0.23937 0.46479 0.02471 0.0
C817 C 0.21426 0.47413 0.0238 0.0
C818 C 0.20493 0.48138 0.07151 0.0
C819 C 0.19708 0.51022 0.07397 0.0
C820 C 0.18251 0.46361 0.08664 0.0
C821 C 0.22924 0.47612 0.09921 0.0
C822 C 0.2487 0.46604 0.07167 0.0
C823 C 0.27382 0.46244 0.08815 0.0
C824 C 0.27937 0.46992 0.13335 0.0
C825 C 0.25995 0.48091 0.16173 0.0
C826 C 0.23438 0.48329 0.14484 0.0
H827 H 0.00401 0.22738 0.66802 0.0
H828 H 0.03146 0.30638 0.65161 0.0
H829 H 0.04303 0.29712 0.57114 0.0
H830 H 0.05101 0.19557 0.58233 0.0
H831 H 0.02573 0.17399 0.56258 0.0
H832 H 0.02634 0.18451 0.62164 0.0
H833 H 0.97921 0.20138 0.61332 0.0
H834 H 0.97854 0.19124 0.55439 0.0
H835 H 0.97179 0.22458 0.56893 0.0
H836 H 0.04258 0.28264 0.48956 0.0
H837 H 0.03091 0.26371 0.41434 0.0
H838 H 0.00371 0.194 0.483 0.0
C839 C 0.01375 0.24223 0.6481 0.0
C840 C 0.01728 0.26743 0.66613 0.0
C841 C 0.02893 0.28684 0.63851 0.0
C842 C 0.0356 0.28174 0.59277 0.0
C843 C 0.03058 0.25709 0.57507 0.0
C844 C 0.02022 0.2375 0.60205 0.0
C845 C 0.01303 0.21407 0.57316 0.0
C846 C 0.03005 0.19065 0.58567 0.0
C847 C 0.98393 0.20746 0.57772 0.0
C848 C 0.01949 0.22412 0.52563 0.0
C849 C 0.03012 0.24874 0.52746 0.0
C850 C 0.03492 0.26308 0.48768 0.0
C851 C 0.02816 0.25219 0.44504 0.0
C852 C 0.01653 0.22729 0.44252 0.0
C853 C 0.01296 0.2129 0.48345 0.0
H854 H 0.29843 0.01144 0.97958 0.0
H855 H 0.22648 0.03387 0.91308 0.0
H856 H 0.20833 0.04593 0.98865 0.0
H857 H 0.2707 0.9784 0.06408 0.0
H858 H 0.29361 0.98649 0.10873 0.0
H859 H 0.30365 0.98715 0.04983 0.0
H860 H 0.31845 0.035 0.05885 0.0
H861 H 0.30853 0.03447 0.1182 0.0
H862 H 0.2959 0.05891 0.08003 0.0
H863 H 0.19503 0.04657 0.07034 0.0
H864 H 0.18664 0.03348 0.15025 0.0
H865 H 0.2666 0.00898 0.16476 0.0
C866 C 0.27924 0.01996 0.98047 0.0
C867 C 0.26398 0.022 0.94014 0.0
C868 C 0.23865 0.03242 0.94329 0.0
C869 C 0.22824 0.03941 0.98614 0.0
C870 C 0.24341 0.0359 0.02546 0.0
C871 C 0.26846 0.02651 0.02293 0.0
C872 C 0.27913 0.0201 0.07015 0.0
C873 C 0.28722 0.99134 0.07335 0.0
C874 C 0.30185 0.03821 0.08253 0.0
C875 C 0.25559 0.02578 0.09959 0.0
C876 C 0.23549 0.03569 0.07325 0.0
C877 C 0.21081 0.03951 0.09145 0.0
C878 C 0.20622 0.03201 0.13689 0.0
C879 C 0.22613 0.02066 0.1637 0.0
C880 C 0.25137 0.01848 0.14544 0.0
H881 H 0.50532 0.29671 0.46691 0.0
H882 H 0.46239 0.23412 0.40208 0.0
H883 H 0.4482 0.21877 0.4787 0.0
H884 H 0.53143 0.26236 0.55137 0.0
H885 H 0.52965 0.28682 0.59556 0.0
H886 H 0.53087 0.29633 0.53644 0.0
H887 H 0.48815 0.32226 0.54628 0.0
H888 H 0.48682 0.31283 0.60582 0.0
H889 H 0.45964 0.30626 0.5685 0.0
H890 H 0.44797 0.20467 0.56043 0.0
H891 H 0.46045 0.19365 0.6399 0.0
H892 H 0.50163 0.26665 0.65234 0.0
C893 C 0.49227 0.28021 0.46879 0.0
C894 C 0.48499 0.26645 0.42885 0.0
C895 C 0.468 0.24497 0.43239 0.0
C896 C 0.45982 0.23622 0.47572 0.0
C897 C 0.46831 0.24964 0.51473 0.0
C898 C 0.4838 0.27151 0.5115 0.0
C899 C 0.49309 0.2806 0.55814 0.0
C900 C 0.52301 0.28155 0.56048 0.0
C901 C 0.48121 0.30706 0.5704 0.0
C902 C 0.48208 0.25931 0.58805 0.0
C903 C 0.46736 0.24193 0.56251 0.0
C904 C 0.45859 0.21858 0.58108 0.0
C905 C 0.46579 0.21246 0.62615 0.0
C906 C 0.4814 0.22969 0.65215 0.0
C907 C 0.48878 0.25378 0.63356 0.0
H908 H 0.79872 0.49879 0.38814 0.0
H909 H 0.73092 0.53022 0.31945 0.0
H910 H 0.71482 0.54658 0.39418 0.0
H911 H 0.76637 0.47357 0.47891 0.0
H912 H 0.79142 0.47982 0.5208 0.0
H913 H 0.79989 0.47591 0.46149 0.0
H914 H 0.82273 0.52085 0.46267 0.0
H915 H 0.81401 0.52499 0.52216 0.0
H916 H 0.80487 0.54918 0.48054 0.0
H917 H 0.70325 0.55359 0.47713 0.0
H918 H 0.69469 0.54618 0.55926 0.0
H919 H 0.76974 0.50916 0.57358 0.0
C920 C 0.78082 0.50977 0.38831 0.0
C921 C 0.7662 0.51341 0.34763 0.0
C922 C 0.74258 0.52736 0.34996 0.0
C923 C 0.7334 0.53686 0.39227 0.0
C924 C 0.74812 0.53238 0.43184 0.0
C925 C 0.77134 0.51908 0.43007 0.0
C926 C 0.78174 0.51339 0.47767 0.0
C927 C 0.78501 0.48394 0.48513 0.0
C928 C 0.80736 0.52798 0.48626 0.0
C929 C 0.76008 0.52436 0.50685 0.0
C930 C 0.74123 0.53595 0.47983 0.0
C931 C 0.7181 0.54502 0.49859 0.0
C932 C 0.71345 0.54081 0.54543 0.0
C933 C 0.73166 0.52727 0.57298 0.0
C934 C 0.75581 0.52023 0.55383 0.0
H935 H 0.99198 0.79688 0.88847 0.0
H936 H 0.96465 0.72745 0.81872 0.0
H937 H 0.94883 0.71022 0.8929 0.0
H938 H 0.01836 0.76603 0.97968 0.0
H939 H 0.01037 0.79043 0.02174 0.0
H940 H 0.01412 0.7994 0.96264 0.0
H941 H 0.9679 0.81927 0.96297 0.0
H942 H 0.96395 0.81008 0.02227 0.0
H943 H 0.94059 0.79955 0.98001 0.0
H944 H 0.94274 0.69769 0.97516 0.0
H945 H 0.95038 0.68922 0.05734 0.0
H946 H 0.98196 0.76667 0.07385 0.0
C947 C 0.98196 0.77836 0.88832 0.0
C948 C 0.97938 0.76361 0.84748 0.0
C949 C 0.9667 0.73922 0.84935 0.0
C950 C 0.95751 0.72937 0.89135 0.0
C951 C 0.96099 0.7442 0.93111 0.0
C952 C 0.97293 0.76823 0.92983 0.0
C953 C 0.97771 0.77879 0.97771 0.0
C954 C 0.00686 0.78394 0.9859 0.0
C955 C 0.96157 0.80338 0.98623 0.0
C956 C 0.96787 0.75635 0.00644 0.0
C957 C 0.95763 0.73689 0.9789 0.0
C958 C 0.9501 0.71302 0.99706 0.0
C959 C 0.95441 0.70842 0.04387 0.0
C960 C 0.96628 0.7275 0.07206 0.0
C961 C 0.97193 0.75216 0.0535 0.0
H962 H 0.70183 0.00012 0.38491 0.0
H963 H 0.76596 0.96218 0.31549 0.0
H964 H 0.7796 0.9428 0.38947 0.0
H965 H 0.73561 0.01893 0.48023 0.0
H966 H 0.70912 0.0143 0.51984 0.0
H967 H 0.70246 0.02107 0.46061 0.0
H968 H 0.67456 0.97911 0.45583 0.0
H969 H 0.68166 0.972 0.5151 0.0
H970 H 0.68873 0.94835 0.47122 0.0
H971 H 0.7896 0.93297 0.47226 0.0
H972 H 0.79785 0.93762 0.55528 0.0
H973 H 0.72657 0.9812 0.57012 0.0
C974 C 0.71851 0.98735 0.3848 0.0
C975 C 0.73281 0.98267 0.34415 0.0
C976 C 0.75464 0.96603 0.34603 0.0
C977 C 0.76237 0.95477 0.38787 0.0
C978 C 0.74789 0.96006 0.42735 0.0
C979 C 0.7264 0.97601 0.426 0.0
C980 C 0.71583 0.98126 0.4736 0.0
C981 C 0.71579 0.01061 0.48418 0.0
C982 C 0.68858 0.96947 0.47925 0.0
C983 C 0.73555 0.9669 0.50249 0.0
C984 C 0.7535 0.9542 0.47514 0.0
C985 C 0.77533 0.94229 0.49394 0.0
C986 C 0.77976 0.94484 0.54126 0.0
C987 C 0.76257 0.95935 0.56924 0.0
C988 C 0.73947 0.96916 0.54995 0.0
H989 H 0.50729 0.79264 0.04491 0.0
H990 H 0.52849 0.72108 0.11395 0.0
H991 H 0.53632 0.70051 0.03853 0.0
H992 H 0.47015 0.76467 0.96364 0.0
H993 H 0.47842 0.78638 0.91739 0.0
H994 H 0.48072 0.79738 0.97575 0.0
H995 H 0.529 0.80974 0.96336 0.0
H996 H 0.52682 0.79891 0.90459 0.0
H997 H 0.55137 0.78573 0.94199 0.0
H998 H 0.53379 0.68558 0.95736 0.0
H999 H 0.5206 0.67706 0.87743 0.0
H1000 H 0.50026 0.75808 0.8604 0.0
C1001 C 0.51452 0.77291 0.04446 0.0
C1002 C 0.51749 0.75854 0.0856 0.0
C1003 C 0.52633 0.73258 0.08309 0.0
C1004 C 0.53087 0.72077 0.04034 0.0
C1005 C 0.52663 0.73521 1.00046 0.0
C1006 C 0.51882 0.76081 1.0022 0.0
C1007 C 0.51204 0.77101 0.95483 0.0
C1008 C 0.48366 0.78039 0.95282 0.0
C1009 C 0.53094 0.79263 0.94034 0.0
C1010 C 0.51597 0.74675 0.92627 0.0
C1011 C 0.52494 0.72649 0.95318 0.0
C1012 C 0.52739 0.70143 0.93581 0.0
C1013 C 0.51977 0.69677 0.8904 0.0
C1014 C 0.50975 0.71701 0.8627 0.0
C1015 C 0.5086 0.74248 0.88043 0.0
H1016 H 0.77114 0.49633 0.84271 0.0
H1017 H 0.69223 0.52445 0.85405 0.0
H1018 H 0.70013 0.53685 0.9346 0.0
H1019 H 0.77209 0.46552 0.94372 0.0
H1020 H 0.80525 0.47248 0.95952 0.0
H1021 H 0.79602 0.47223 0.90011 0.0
H1022 H 0.81336 0.51918 0.89058 0.0
H1023 H 0.82289 0.51951 0.95016 0.0
H1024 H 0.80181 0.54447 0.92817 0.0
H1025 H 0.71309 0.53726 0.01708 0.0
H1026 H 0.7307 0.52645 0.09373 0.0
H1027 H 0.80149 0.49884 0.02939 0.0
C1028 C 0.75607 0.50634 0.86158 0.0
C1029 C 0.73126 0.50988 0.84211 0.0
C1030 C 0.71149 0.52191 0.86833 0.0
C1031 C 0.71581 0.52907 0.9141 0.0
C1032 C 0.74007 0.52415 0.93329 0.0
C1033 C 0.76004 0.51339 0.9077 0.0
C1034 C 0.78293 0.50667 0.93811 0.0
C1035 C 0.78942 0.47751 0.93519 0.0
C1036 C 0.80665 0.52347 0.92603 0.0
C1037 C 0.77211 0.51389 0.98481 0.0
C1038 C 0.74758 0.52442 0.98134 0.0
C1039 C 0.7326 0.5297 0.02025 0.0
C1040 C 0.74273 0.52348 0.06372 0.0
C1041 C 0.76753 0.51193 0.06788 0.0
C1042 C 0.7826 0.50799 0.02776 0.0
H1043 H 0.98846 0.69655 0.38904 0.0
H1044 H 0.95948 0.76581 0.32165 0.0
H1045 H 0.94741 0.78392 0.3973 0.0
H1046 H 0.94121 0.69578 0.48796 0.0
H1047 H 0.9662 0.68515 0.52697 0.0
H1048 H 0.96711 0.67529 0.46758 0.0
H1049 H 0.01365 0.69409 0.46007 0.0
H1050 H 0.01291 0.70386 0.51918 0.0
H1051 H 0.01953 0.72756 0.4752 0.0
H1052 H 0.9459 0.79756 0.4796 0.0
H1053 H 0.95716 0.80655 0.56037 0.0
H1054 H 0.9872 0.72852 0.57474 0.0
C1055 C 0.9788 0.71519 0.38984 0.0
C1056 C 0.97477 0.72967 0.34913 0.0
C1057 C 0.9626 0.75423 0.35215 0.0
C1058 C 0.95556 0.76462 0.39504 0.0
C1059 C 0.96062 0.75013 0.43456 0.0
C1060 C 0.97187 0.72585 0.43224 0.0
C1061 C 0.97861 0.71569 0.47961 0.0
C1062 C 0.9623 0.69154 0.49121 0.0
C1063 C 0.0079 0.70999 0.48373 0.0
C1064 C 0.97073 0.73863 0.50898 0.0
C1065 C 0.95978 0.75804 0.48243 0.0
C1066 C 0.9538 0.78228 0.50085 0.0
C1067 C 0.96021 0.78719 0.54683 0.0
C1068 C 0.97256 0.76804 0.57397 0.0
C1069 C 0.97687 0.74313 0.55529 0.0
H1070 H 0.69751 0.98171 0.02583 0.0
H1071 H 0.76907 0.95856 0.09297 0.0
H1072 H 0.78794 0.94794 0.01725 0.0
H1073 H 0.70042 0.93508 0.92571 0.0
H1074 H 0.6879 0.95943 0.88727 0.0
H1075 H 0.67796 0.95914 0.9466 0.0
H1076 H 0.69301 0.00695 0.95522 0.0
H1077 H 0.70306 0.00737 0.89625 0.0
H1078 H 0.72599 0.01551 0.94082 0.0
H1079 H 0.8015 0.94749 0.93519 0.0
H1080 H 0.80943 0.95876 0.85424 0.0
H1081 H 0.72938 0.98322 0.83975 0.0
C1082 C 0.71682 0.97346 0.02497 0.0
C1083 C 0.73171 0.97069 0.06561 0.0
C1084 C 0.75718 0.96059 0.06252 0.0
C1085 C 0.76802 0.95443 0.01959 0.0
C1086 C 0.75311 0.95841 0.98012 0.0
C1087 C 0.72798 0.96759 0.9825 0.0
C1088 C 0.71735 0.97384 0.93518 0.0
C1089 C 0.69456 0.95579 0.92297 0.0
C1090 C 0.70941 0.00261 0.9317 0.0
C1091 C 0.74088 0.968 0.90582 0.0
C1092 C 0.76108 0.95851 0.93235 0.0
C1093 C 0.78566 0.95432 0.91399 0.0
C1094 C 0.78999 0.96082 0.86796 0.0
C1095 C 0.7699 0.97153 0.84066 0.0
C1096 C 0.74481 0.9743 0.85944 0.0
H1097 H 0.50518 0.72301 0.3629 0.0
H1098 H 0.52492 0.80432 0.37933 0.0
H1099 H 0.53881 0.79618 0.45886 0.0
H1100 H 0.47594 0.71604 0.46471 0.0
H1101 H 0.48686 0.68363 0.47768 0.0
H1102 H 0.48486 0.69412 0.41909 0.0
H1103 H 0.53339 0.68274 0.40705 0.0
H1104 H 0.5355 0.67208 0.46588 0.0
H1105 H 0.55759 0.69649 0.44473 0.0
H1106 H 0.54054 0.78196 0.5402 0.0
H1107 H 0.53146 0.76196 0.61565 0.0
H1108 H 0.51283 0.68936 0.54707 0.0
C1109 C 0.51365 0.73872 0.38265 0.0
C1110 C 0.51425 0.76419 0.36497 0.0
C1111 C 0.52446 0.7846 0.39228 0.0
C1112 C 0.5325 0.78016 0.43748 0.0
C1113 C 0.53046 0.75512 0.45497 0.0
C1114 C 0.52168 0.7346 0.42821 0.0
C1115 C 0.51799 0.71043 0.4571 0.0
C1116 C 0.48975 0.70051 0.4545 0.0
C1117 C 0.53728 0.68918 0.44284 0.0
C1118 C 0.52446 0.72105 0.50437 0.0
C1119 C 0.53204 0.74674 0.50242 0.0
C1120 C 0.53545 0.76159 0.5422 0.0
C1121 C 0.53023 0.7501 0.58499 0.0
C1122 C 0.52171 0.72401 0.58761 0.0
C1123 C 0.51988 0.70918 0.54666 0.0
H1124 H 0.24733 0.48147 0.66695 0.0
H1125 H 0.1662 0.46268 0.64532 0.0
H1126 H 0.17517 0.45286 0.56405 0.0
H1127 H 0.25455 0.51641 0.5725 0.0
H1128 H 0.28716 0.50681 0.55796 0.0
H1129 H 0.27642 0.50501 0.61641 0.0
H1130 H 0.28822 0.45617 0.61945 0.0
H1131 H 0.29942 0.45787 0.56091 0.0
H1132 H 0.27516 0.43428 0.57691 0.0
H1133 H 0.19058 0.45496 0.48274 0.0
H1134 H 0.21167 0.46741 0.40964 0.0
H1135 H 0.28274 0.48462 0.48403 0.0
C1136 C 0.23181 0.47389 0.64565 0.0
C1137 C 0.20618 0.47248 0.66246 0.0
C1138 C 0.18605 0.46362 0.63313 0.0
C1139 C 0.19097 0.45796 0.58689 0.0
C1140 C 0.21618 0.46109 0.57048 0.0
C1141 C 0.2364 0.46844 0.59918 0.0
C1142 C 0.26074 0.47423 0.57193 0.0
C1143 C 0.27024 0.50227 0.58019 0.0
C1144 C 0.28215 0.45445 0.58296 0.0
C1145 C 0.25061 0.4706 0.52352 0.0
C1146 C 0.22505 0.46246 0.52324 0.0
C1147 C 0.21083 0.46065 0.48245 0.0
C1148 C 0.22292 0.46781 0.44105 0.0
C1149 C 0.24886 0.47695 0.44094 0.0
C1150 C 0.26294 0.47752 0.48269 0.0
H1151 H 0.00089 0.19821 0.12316 0.0
H1152 H 0.02606 0.26912 0.19066 0.0
H1153 H 0.0413 0.28606 0.1158 0.0
H1154 H 0.05219 0.19643 0.03103 0.0
H1155 H 0.02899 0.18458 0.98958 0.0
H1156 H 0.02578 0.17584 0.04923 0.0
H1157 H 0.9788 0.19386 0.04988 0.0
H1158 H 0.98182 0.20238 0.99047 0.0
H1159 H 0.97314 0.22687 0.03195 0.0
H1160 H 0.04621 0.29808 0.03292 0.0
H1161 H 0.0371 0.30563 0.95095 0.0
H1162 H 0.00844 0.2269 0.93738 0.0
C1163 C 0.01025 0.21705 0.12269 0.0
C1164 C 0.01232 0.23232 0.16301 0.0
C1165 C 0.02441 0.25698 0.16042 0.0
C1166 C 0.03324 0.26667 0.11802 0.0
C1167 C 0.03012 0.25133 0.07873 0.0
C1168 C 0.01896 0.22697 0.08088 0.0
C1169 C 0.01429 0.21574 0.03346 0.0
C1170 C 0.03134 0.19172 0.02536 0.0
C1171 C 0.98531 0.20937 0.02603 0.0
C1172 C 0.02306 0.23825 0.00391 0.0
C1173 C 0.03288 0.2583 0.03064 0.0
C1174 C 0.03921 0.2823 0.01166 0.0
C1175 C 0.03407 0.28638 0.96497 0.0
C1176 C 0.02251 0.26666 0.93775 0.0
C1177 C 0.01819 0.24192 0.95698 0.0
H1178 H 0.26152 0.00341 0.43868 0.0
H1179 H 0.18593 0.03892 0.4545 0.0
H1180 H 0.19367 0.04381 0.53767 0.0
H1181 H 0.25691 0.96468 0.52924 0.0
H1182 H 0.29019 0.96623 0.54831 0.0
H1183 H 0.28251 0.97215 0.48913 0.0
H1184 H 0.30501 0.01713 0.4928 0.0
H1185 H 0.31342 0.01114 0.55193 0.0
H1186 H 0.29572 0.04003 0.53665 0.0
H1187 H 0.20554 0.03624 0.62043 0.0
H1188 H 0.22206 0.0196 0.69464 0.0
H1189 H 0.28937 0.98815 0.62442 0.0
C1190 C 0.24734 0.01366 0.45925 0.0
C1191 C 0.22339 0.02131 0.44009 0.0
C1192 C 0.20463 0.0334 0.46847 0.0
C1193 C 0.20881 0.03615 0.51581 0.0
C1194 C 0.23192 0.02678 0.5343 0.0
C1195 C 0.25112 0.0162 0.50674 0.0
C1196 C 0.27249 0.00427 0.5355 0.0
C1197 C 0.27568 0.97512 0.52491 0.0
C1198 C 0.29818 0.01903 0.52883 0.0
C1199 C 0.26168 0.00857 0.58323 0.0
C1200 C 0.23851 0.02197 0.58205 0.0
C1201 C 0.22398 0.02625 0.62185 0.0
C1202 C 0.23342 0.0166 0.66384 0.0
C1203 C 0.25702 0.00257 0.6656 0.0
C1204 C 0.27133 -0.00109 0.62461 0.0
H1205 H 0.4808 0.19309 0.96164 0.0
H1206 H 0.46258 0.26701 0.89811 0.0
H1207 H 0.45438 0.28574 0.97502 0.0
H1208 H 0.43791 0.19856 0.06671 0.0
H1209 H 0.46279 0.184 0.10172 0.0
H1210 H 0.45928 0.17452 0.04243 0.0
H1211 H 0.50764 0.18592 0.02823 0.0
H1212 H 0.51127 0.19567 0.08699 0.0
H1213 H 0.51922 0.21812 0.04169 0.0
H1214 H 0.45621 0.2983 0.05817 0.0
H1215 H 0.47088 0.30445 0.13838 0.0
H1216 H 0.49206 0.22334 0.14611 0.0
C1217 C 0.47398 0.21294 0.96347 0.0
C1218 C 0.47201 0.22851 0.92364 0.0
C1219 C 0.46387 0.25462 0.92802 0.0
C1220 C 0.45913 0.26537 0.97161 0.0
C1221 C 0.46269 0.24977 0.01033 0.0
C1222 C 0.46993 0.22404 0.00651 0.0
C1223 C 0.47735 0.21262 0.05256 0.0
C1224 C 0.45818 0.19116 0.06669 0.0
C1225 C 0.50553 0.20252 0.05231 0.0
C1226 C 0.47451 0.23629 0.08277 0.0
C1227 C 0.46512 0.25729 0.05816 0.0
C1228 C 0.46297 0.28186 0.07792 0.0
C1229 C 0.4713 0.28519 0.12339 0.0
C1230 C 0.48202 0.26419 0.14812 0.0
C1231 C 0.48319 0.2394 0.128 0.0
H1232 H 0.2158 0.61353 0.29851 0.0
H1233 H 0.18165 0.54073 0.34324 0.0
H1234 H 0.13906 0.56219 0.35123 0.0
H1235 H 0.1758 0.65734 0.36995 0.0
H1236 H 0.1731 0.6812 0.32498 0.0
H1237 H 0.20164 0.66111 0.32875 0.0
H1238 H 0.19462 0.64572 0.24485 0.0
H1239 H 0.1663 0.66592 0.24075 0.0
H1240 H 0.16383 0.63167 0.22867 0.0
H1241 H 0.09974 0.59058 0.34918 0.0
H1242 H 0.0658 0.62218 0.32848 0.0
H1243 H 0.12534 0.67613 0.28278 0.0
C1244 C 0.19945 0.60224 0.31078 0.0
C1245 C 0.20202 0.57554 0.32056 0.0
C1246 C 0.18007 0.56123 0.33549 0.0
C1247 C 0.15587 0.5733 0.34057 0.0
C1248 C 0.15393 0.59964 0.33039 0.0
C1249 C 0.17507 0.61389 0.31538 0.0
C1250 C 0.16722 0.64115 0.30193 0.0
C1251 C 0.18021 0.66139 0.33329 0.0
C1252 C 0.17335 0.6464 0.25104 0.0
C1253 C 0.13825 0.63974 0.31044 0.0
C1254 C 0.13106 0.61585 0.32789 0.0
C1255 C 0.10514 0.60946 0.33596 0.0
C1256 C 0.08599 0.6276 0.32423 0.0
C1257 C 0.09287 0.65165 0.30395 0.0
C1258 C 0.11942 0.65801 0.2985 0.0
H1259 H 0.82232 0.12496 0.75263 0.0
H1260 H 0.87113 0.06672 0.81685 0.0
H1261 H 0.90308 0.10072 0.83695 0.0
H1262 H 0.87155 0.15953 0.70089 0.0
H1263 H 0.85753 0.19119 0.70958 0.0
H1264 H 0.83683 0.16308 0.7056 0.0
H1265 H 0.81651 0.17378 0.78477 0.0
H1266 H 0.83678 0.20228 0.78863 0.0
H1267 H 0.83738 0.17842 0.83384 0.0
H1268 H 0.93234 0.14019 0.84046 0.0
H1269 H 0.95405 0.18306 0.83556 0.0
H1270 H 0.88538 0.21495 0.77026 0.0
C1271 C 0.83937 0.11939 0.77201 0.0
C1272 C 0.8442 0.09316 0.78315 0.0
C1273 C 0.86689 0.08671 0.80822 0.0
C1274 C 0.88524 0.10587 0.81958 0.0
C1275 C 0.8804 0.13137 0.80616 0.0
C1276 C 0.85776 0.13821 0.78374 0.0
C1277 C 0.8577 0.16666 0.77104 0.0
C1278 C 0.8558 0.17031 0.71869 0.0
C1279 C 0.8358 0.18114 0.79608 0.0
C1280 C 0.88409 0.17466 0.78889 0.0
C1281 C 0.89697 0.15407 0.80895 0.0
C1282 C 0.92227 0.15656 0.82553 0.0
C1283 C 0.93452 0.18088 0.82225 0.0
C1284 C 0.92133 0.20233 0.8028 0.0
C1285 C 0.89585 0.19901 0.78583 0.0
H1286 H 0.27288 0.88766 0.27422 0.0
H1287 H 0.30572 0.95595 0.33991 0.0
H1288 H 0.34727 0.9326 0.35062 0.0
H1289 H 0.30444 0.83936 0.34376 0.0
H1290 H 0.30984 0.81748 0.29639 0.0
H1291 H 0.28242 0.83915 0.29563 0.0
H1292 H 0.29752 0.85806 0.21755 0.0
H1293 H 0.32464 0.83611 0.21771 0.0
H1294 H 0.33011 0.87054 0.21211 0.0
H1295 H 0.38508 0.9015 0.35421 0.0
H1296 H 0.41816 0.86787 0.3401 0.0
H1297 H 0.36037 0.82057 0.27027 0.0
C1298 C 0.2888 0.89772 0.29093 0.0
C1299 C 0.2861 0.92355 0.30645 0.0
C1300 C 0.30746 0.93618 0.32757 0.0
C1301 C 0.33101 0.92299 0.33421 0.0
C1302 C 0.33283 0.89733 0.31922 0.0
C1303 C 0.31242 0.885 0.29731 0.0
C1304 C 0.31979 0.85799 0.28175 0.0
C1305 C 0.30313 0.83728 0.30584 0.0
C1306 C 0.31792 0.85555 0.22917 0.0
C1307 C 0.34766 0.85704 0.29801 0.0
C1308 C 0.35471 0.87973 0.32022 0.0
C1309 C 0.37977 0.88363 0.33695 0.0
C1310 C 0.39839 0.8643 0.32903 0.0
C1311 C 0.3919 0.84154 0.30402 0.0
C1312 C 0.36596 0.83764 0.28971 0.0
H1313 H 0.61285 0.26476 0.76824 0.0
H1314 H 0.55084 0.29718 0.85074 0.0
H1315 H 0.575 0.33865 0.85667 0.0
H1316 H 0.66782 0.29912 0.82239 0.0
H1317 H 0.68407 0.30452 0.76845 0.0
H1318 H 0.66379 0.27626 0.77599 0.0
H1319 H 0.63666 0.28928 0.70467 0.0
H1320 H 0.65695 0.31741 0.69677 0.0
H1321 H 0.62229 0.32115 0.70225 0.0
H1322 H 0.60477 0.37681 0.851 0.0
H1323 H 0.63479 0.41116 0.82549 0.0
H1324 H 0.67601 0.35501 0.74154 0.0
C1325 C 0.60468 0.28049 0.78823 0.0
C1326 C 0.58025 0.27786 0.80961 0.0
C1327 C 0.56963 0.29895 0.83434 0.0
C1328 C 0.58329 0.32243 0.83817 0.0
C1329 C 0.60732 0.32453 0.81648 0.0
C1330 C 0.61776 0.30428 0.79139 0.0
C1331 C 0.64237 0.31259 0.76695 0.0
C1332 C 0.66591 0.2972 0.78451 0.0
C1333 C 0.63937 0.30996 0.71457 0.0
C1334 C 0.64388 0.34079 0.78159 0.0
C1335 C 0.62383 0.34707 0.81107 0.0
C1336 C 0.62063 0.37212 0.82811 0.0
C1337 C 0.63787 0.39149 0.8135 0.0
C1338 C 0.65776 0.38581 0.78143 0.0
C1339 C 0.66109 0.35996 0.7662 0.0
H1340 H 0.68257 0.44025 0.22789 0.0
H1341 H 0.72993 0.38698 0.1487 0.0
H1342 H 0.69109 0.36151 0.1286 0.0
H1343 H 0.64391 0.39217 0.27733 0.0
H1344 H 0.61423 0.41062 0.27707 0.0
H1345 H 0.64498 0.42716 0.27901 0.0
H1346 H 0.63218 0.45321 0.20626 0.0
H1347 H 0.60146 0.43637 0.20395 0.0
H1348 H 0.62275 0.43606 0.15488 0.0
H1349 H 0.64909 0.33871 0.12471 0.0
H1350 H 0.60679 0.31842 0.14218 0.0
H1351 H 0.58581 0.3858 0.22368 0.0
C1352 C 0.68453 0.42357 0.2055 0.0
C1353 C 0.70914 0.41558 0.18971 0.0
C1354 C 0.7112 0.39332 0.16134 0.0
C1355 C 0.68923 0.37887 0.14931 0.0
C1356 C 0.66527 0.38684 0.166 0.0
C1357 C 0.6627 0.40856 0.1937 0.0
C1358 C 0.63515 0.41092 0.21146 0.0
C1359 C 0.63455 0.41015 0.26432 0.0
C1360 C 0.62212 0.43561 0.19302 0.0
C1361 C 0.62304 0.3867 0.19068 0.0
C1362 C 0.64065 0.37339 0.16386 0.0
C1363 C 0.63489 0.34918 0.14484 0.0
C1364 C 0.61082 0.33779 0.15489 0.0
C1365 C 0.59288 0.35062 0.18376 0.0
C1366 C 0.59879 0.3758 0.20043 0.0
H1367 H 0.05074 0.68283 0.71545 0.0
H1368 H 0.10882 0.73139 0.64982 0.0
H1369 H 0.13528 0.69296 0.63332 0.0
H1370 H 0.0937 0.64437 0.77303 0.0
H1371 H 0.07599 0.6143 0.76729 0.0
H1372 H 0.05893 0.64465 0.76554 0.0
H1373 H 0.03943 0.63211 0.68645 0.0
H1374 H 0.05672 0.6017 0.68789 0.0
H1375 H 0.06078 0.62341 0.63993 0.0
H1376 H 0.15912 0.65222 0.63676 0.0
H1377 H 0.17921 0.6112 0.66216 0.0
H1378 H 0.1062 0.58724 0.72262 0.0
C1379 C 0.06867 0.68514 0.69648 0.0
C1380 C 0.07775 0.71003 0.68399 0.0
C1381 C 0.10158 0.7125 0.66007 0.0
C1382 C 0.11664 0.69074 0.65001 0.0
C1383 C 0.10761 0.66653 0.66381 0.0
C1384 C 0.08417 0.66349 0.68643 0.0
C1385 C 0.08078 0.63576 0.70279 0.0
C1386 C 0.07716 0.63473 0.75525 0.0
C1387 C 0.05808 0.62246 0.67776 0.0
C1388 C 0.1066 0.62426 0.68824 0.0
C1389 C 0.12151 0.64226 0.66486 0.0
C1390 C 0.14741 0.6376 0.65361 0.0
C1391 C 0.15868 0.61432 0.6681 0.0
C1392 C 0.14396 0.59599 0.69304 0.0
C1393 C 0.11741 0.60057 0.70178 0.0
H1394 H 0.77074 0.10995 0.2064 0.0
H1395 H 0.80765 0.04164 0.14912 0.0
H1396 H 0.8493 0.06566 0.14407 0.0
H1397 H 0.80784 0.15974 0.14391 0.0
H1398 H 0.81002 0.1808 0.19323 0.0
H1399 H 0.7824 0.15957 0.18638 0.0
H1400 H 0.7912 0.13948 0.26648 0.0
H1401 H 0.8186 0.16083 0.2737 0.0
H1402 H 0.82282 0.12622 0.27885 0.0
H1403 H 0.88694 0.09639 0.14825 0.0
H1404 H 0.91957 0.1286 0.17243 0.0
H1405 H 0.85863 0.17593 0.2324 0.0
C1406 C 0.78753 0.10026 0.19203 0.0
C1407 C 0.78609 0.07415 0.1775 0.0
C1408 C 0.8085 0.06172 0.16021 0.0
C1409 C 0.83209 0.07526 0.15685 0.0
C1410 C 0.8329 0.10105 0.17153 0.0
C1411 C 0.81131 0.11328 0.1895 0.0
C1412 C 0.81805 0.13995 0.20804 0.0
C1413 C 0.80372 0.16127 0.18128 0.0
C1414 C 0.81234 0.1417 0.25983 0.0
C1415 C 0.84692 0.14064 0.19847 0.0
C1416 C 0.85494 0.11831 0.1763 0.0
C1417 C 0.88089 0.11401 0.16543 0.0
C1418 C 0.89928 0.13253 0.17921 0.0
C1419 C 0.8917 0.15483 0.20448 0.0
C1420 C 0.86505 0.15922 0.21291 0.0
H1421 H 0.31848 0.85288 0.76644 0.0
H1422 H 0.36292 0.90965 0.68899 0.0
H1423 H 0.39417 0.87566 0.66727 0.0
H1424 H 0.37055 0.81946 0.81218 0.0
H1425 H 0.35643 0.7875 0.80759 0.0
H1426 H 0.33576 0.81544 0.81313 0.0
H1427 H 0.31161 0.8029 0.73821 0.0
H1428 H 0.33194 0.77462 0.73278 0.0
H1429 H 0.32993 0.79763 0.68633 0.0
H1430 H 0.42405 0.83746 0.66418 0.0
H1431 H 0.44717 0.79549 0.66994 0.0
H1432 H 0.38197 0.76277 0.74434 0.0
C1433 C 0.33441 0.85804 0.74396 0.0
C1434 C 0.33824 0.88396 0.7295 0.0
C1435 C 0.35945 0.88993 0.70032 0.0
C1436 C 0.3774 0.87077 0.68793 0.0
C1437 C 0.37361 0.84566 0.70425 0.0
C1438 C 0.35232 0.83908 0.73069 0.0
C1439 C 0.35325 0.81083 0.74497 0.0
C1440 C 0.35405 0.80817 0.79758 0.0
C1441 C 0.33032 0.7956 0.72432 0.0
C1442 C 0.37875 0.80278 0.7235 0.0
C1443 C 0.39029 0.82322 0.70047 0.0
C1444 C 0.41496 0.82113 0.68118 0.0
C1445 C 0.42802 0.79737 0.68493 0.0
C1446 C 0.41616 0.77601 0.70714 0.0
C1447 C 0.3912 0.77875 0.72648 0.0
H1448 H 0.86098 0.31486 0.72476 0.0
H1449 H 0.92168 0.36637 0.67526 0.0
H1450 H 0.88847 0.39785 0.65093 0.0
H1451 H 0.81136 0.3321 0.63425 0.0
H1452 H 0.78526 0.32976 0.67523 0.0
H1453 H 0.81348 0.30939 0.68114 0.0
H1454 H 0.81999 0.32653 0.764 0.0
H1455 H 0.79217 0.34728 0.75816 0.0
H1456 H 0.82322 0.36098 0.77362 0.0
H1457 H 0.84986 0.42704 0.64634 0.0
H1458 H 0.80767 0.44963 0.65249 0.0
H1459 H 0.77181 0.37856 0.70136 0.0
C1460 C 0.86728 0.33235 0.70737 0.0
C1461 C 0.89397 0.33812 0.70201 0.0
C1462 C 0.90138 0.36139 0.67956 0.0
C1463 C 0.88264 0.37946 0.66568 0.0
C1464 C 0.85658 0.37375 0.67368 0.0
C1465 C 0.84883 0.35048 0.69298 0.0
C1466 C 0.81978 0.34993 0.70106 0.0
C1467 C 0.8067 0.32906 0.67112 0.0
C1468 C 0.81344 0.34595 0.75224 0.0
C1469 C 0.81259 0.37696 0.68528 0.0
C1470 C 0.83408 0.39037 0.66946 0.0
C1471 C 0.83276 0.41653 0.65746 0.0
C1472 C 0.80882 0.42925 0.66145 0.0
C1473 C 0.78653 0.41572 0.67694 0.0
C1474 C 0.78845 0.38919 0.68849 0.0
H1475 H 0.17106 0.86254 0.24158 0.0
H1476 H 0.12319 0.92152 0.1773 0.0
H1477 H 0.08949 0.88854 0.16144 0.0
H1478 H 0.1515 0.80799 0.16464 0.0
H1479 H 0.15234 0.78511 0.2114 0.0
H1480 H 0.17394 0.8127 0.21147 0.0
H1481 H 0.15645 0.82594 0.29152 0.0
H1482 H 0.13437 0.79882 0.29129 0.0
H1483 H 0.12212 0.8313 0.29897 0.0
H1484 H 0.0584 0.8504 0.16315 0.0
H1485 H 0.03497 0.8087 0.17277 0.0
H1486 H 0.1038 0.77516 0.23489 0.0
C1487 C 0.15386 0.86842 0.22291 0.0
C1488 C 0.1498 0.89463 0.2107 0.0
C1489 C 0.12687 0.90153 0.18669 0.0
C1490 C 0.10752 0.88295 0.17777 0.0
C1491 C 0.11159 0.85755 0.19247 0.0
C1492 C 0.13446 0.85016 0.21359 0.0
C1493 C 0.13358 0.82203 0.22827 0.0
C1494 C 0.15405 0.80601 0.20239 0.0
C1495 C 0.13681 0.81939 0.2806 0.0
C1496 C 0.10637 0.81491 0.21328 0.0
C1497 C 0.09393 0.8356 0.19273 0.0
C1498 C 0.06811 0.83393 0.17846 0.0
C1499 C 0.05489 0.81027 0.18447 0.0
C1500 C 0.06761 0.78868 0.20436 0.0
C1501 C 0.09362 0.79123 0.21911 0.0
H1502 H 0.72212 0.10273 0.72076 0.0
H1503 H 0.68825 0.0342 0.65772 0.0
H1504 H 0.64625 0.05709 0.65033 0.0
H1505 H 0.66701 0.11793 0.78849 0.0
H1506 H 0.67124 0.15258 0.78373 0.0
H1507 H 0.69895 0.13149 0.7799 0.0
H1508 H 0.71063 0.15168 0.70102 0.0
H1509 H 0.68267 0.17259 0.70438 0.0
H1510 H 0.68686 0.15149 0.65554 0.0
H1511 H 0.60784 0.08729 0.65113 0.0
H1512 H 0.57435 0.11973 0.6705 0.0
H1513 H 0.63308 0.16758 0.73643 0.0
C1514 C 0.70591 0.09264 0.70504 0.0
C1515 C 0.70838 0.06681 0.6895 0.0
C1516 C 0.68666 0.05401 0.66994 0.0
C1517 C 0.66285 0.06692 0.6652 0.0
C1518 C 0.66108 0.0925 0.68062 0.0
C1519 C 0.68192 0.10506 0.70084 0.0
C1520 C 0.67437 0.13165 0.71837 0.0
C1521 C 0.6781 0.1335 0.77071 0.0
C1522 C 0.68953 0.15312 0.69331 0.0
C1523 C 0.64592 0.13199 0.70534 0.0
C1524 C 0.63875 0.10948 0.68273 0.0
C1525 C 0.61324 0.10504 0.66865 0.0
C1526 C 0.59438 0.12367 0.67954 0.0
C1527 C 0.6011 0.14619 0.70497 0.0
C1528 C 0.62736 0.15063 0.71678 0.0
H1529 H 0.38053 0.7207 0.22648 0.0
H1530 H 0.4532 0.6859 0.18345 0.0
H1531 H 0.43139 0.64328 0.17637 0.0
H1532 H 0.36146 0.66857 0.29733 0.0
H1533 H 0.32731 0.67135 0.2847 0.0
H1534 H 0.34795 0.6995 0.28111 0.0
H1535 H 0.3331 0.70673 0.19703 0.0
H1536 H 0.31259 0.67838 0.20029 0.0
H1537 H 0.33673 0.68089 0.15574 0.0
H1538 H 0.40224 0.60418 0.17719 0.0
H1539 H 0.36956 0.5706 0.1949 0.0
H1540 H 0.31629 0.63053 0.24073 0.0
C1541 C 0.39173 0.70417 0.2149 0.0
C1542 C 0.41849 0.7066 0.20512 0.0
C1543 C 0.43267 0.68443 0.19112 0.0
C1544 C 0.42041 0.66021 0.18663 0.0
C1545 C 0.394 0.65843 0.19665 0.0
C1546 C 0.37989 0.67974 0.21103 0.0
C1547 C 0.35243 0.67211 0.22397 0.0
C1548 C 0.34698 0.67824 0.27479 0.0
C1549 C 0.33254 0.68532 0.19236 0.0
C1550 C 0.35344 0.64311 0.21536 0.0
C1551 C 0.37742 0.63569 0.19872 0.0
C1552 C 0.38333 0.60977 0.18995 0.0
C1553 C 0.36455 0.59082 0.19996 0.0
C1554 C 0.34029 0.59785 0.21922 0.0
C1555 C 0.33453 0.62446 0.22574 0.0
H1556 H 0.35674 0.66365 0.76066 0.0
H1557 H 0.41227 0.61369 0.82943 0.0
H1558 H 0.3774 0.58178 0.84446 0.0
H1559 H 0.30076 0.64846 0.83546 0.0
H1560 H 0.27835 0.64982 0.78795 0.0
H1561 H 0.3072 0.6697 0.78763 0.0
H1562 H 0.32005 0.64994 0.70899 0.0
H1563 H 0.2916 0.62959 0.70948 0.0
H1564 H 0.3233 0.61522 0.70351 0.0
H1565 H 0.33743 0.55291 0.84285 0.0
H1566 H 0.29425 0.53215 0.83397 0.0
H1567 H 0.26552 0.60182 0.76761 0.0
C1568 C 0.36149 0.64631 0.77991 0.0
C1569 C 0.38722 0.64116 0.79387 0.0
C1570 C 0.39264 0.61816 0.81874 0.0
C1571 C 0.373 0.59983 0.82717 0.0
C1572 C 0.34806 0.60502 0.81104 0.0
C1573 C 0.34218 0.62797 0.78879 0.0
C1574 C 0.31418 0.62854 0.77327 0.0
C1575 C 0.29924 0.65042 0.79755 0.0
C1576 C 0.31219 0.63096 0.72071 0.0
C1577 C 0.30533 0.60212 0.78943 0.0
C1578 C 0.3251 0.58873 0.81097 0.0
C1579 C 0.32169 0.56337 0.82668 0.0
C1580 C 0.29721 0.55166 0.82114 0.0
C1581 C 0.27655 0.56545 0.80037 0.0
C1582 C 0.28086 0.5909 0.7841 0.0
H1583 H 0.81757 0.36254 0.29884 0.0
H1584 H 0.87345 0.42249 0.33483 0.0
H1585 H 0.90561 0.38875 0.35365 0.0
H1586 H 0.84025 0.31259 0.38518 0.0
H1587 H 0.83443 0.28666 0.3448 0.0
H1588 H 0.8143 0.31526 0.34388 0.0
H1589 H 0.82526 0.32162 0.25785 0.0
H1590 H 0.84587 0.29353 0.25863 0.0
H1591 H 0.85876 0.32444 0.24052 0.0
H1592 H 0.9341 0.34929 0.35313 0.0
H1593 H 0.95515 0.30663 0.34227 0.0
H1594 H 0.88043 0.27266 0.30748 0.0
C1595 C 0.83621 0.36863 0.31239 0.0
C1596 C 0.84296 0.39519 0.31526 0.0
C1597 C 0.86772 0.40228 0.33256 0.0
C1598 C 0.88619 0.38323 0.34323 0.0
C1599 C 0.87942 0.35723 0.33716 0.0
C1600 C 0.8548 0.3499 0.32317 0.0
C1601 C 0.85313 0.32092 0.31496 0.0
C1602 C 0.83442 0.3081 0.34926 0.0
C1603 C 0.84531 0.3148 0.26504 0.0
C1604 C 0.88095 0.31327 0.3244 0.0
C1605 C 0.89579 0.33441 0.33752 0.0
C1606 C 0.92255 0.33247 0.344 0.0
C1607 C 0.93436 0.30823 0.33732 0.0
C1608 C 0.9194 0.28629 0.3243 0.0
C1609 C 0.89233 0.28895 0.31814 0.0
H1610 H 0.13084 0.81433 0.79759 0.0
H1611 H 0.07139 0.8686 0.84139 0.0
H1612 H 0.10538 0.8994 0.86584 0.0
H1613 H 0.18046 0.83235 0.88901 0.0
H1614 H 0.20671 0.82832 0.84873 0.0
H1615 H 0.17792 0.80849 0.84389 0.0
H1616 H 0.1724 0.82355 0.75966 0.0
H1617 H 0.20074 0.8438 0.76439 0.0
H1618 H 0.17016 0.85778 0.74733 0.0
H1619 H 0.14481 0.92764 0.86933 0.0
H1620 H 0.18745 0.94924 0.86088 0.0
H1621 H 0.22153 0.87624 0.81777 0.0
C1622 C 0.12493 0.83226 0.81396 0.0
C1623 C 0.09842 0.83903 0.81747 0.0
C1624 C 0.09154 0.86286 0.83855 0.0
C1625 C 0.11074 0.88054 0.85249 0.0
C1626 C 0.1367 0.87389 0.84597 0.0
C1627 C 0.14385 0.85004 0.82827 0.0
C1628 C 0.17291 0.84859 0.82073 0.0
C1629 C 0.18523 0.82823 0.8525 0.0
C1630 C 0.17941 0.84312 0.77003 0.0
C1631 C 0.18081 0.87581 0.83458 0.0
C1632 C 0.15967 0.89006 0.84936 0.0
C1633 C 0.16164 0.91649 0.85912 0.0
C1634 C 0.18585 0.92864 0.85381 0.0
C1635 C 0.20777 0.91432 0.83913 0.0
C1636 C 0.2052 0.88751 0.83003 0.0
H1637 H 0.6617 0.12835 0.20801 0.0
H1638 H 0.65295 0.09328 0.34254 0.0
H1639 H 0.62803 0.13177 0.36835 0.0
H1640 H 0.6677 0.19543 0.24482 0.0
H1641 H 0.64905 0.20745 0.197 0.0
H1642 H 0.66785 0.17819 0.19092 0.0
H1643 H 0.62658 0.15331 0.16487 0.0
H1644 H 0.60759 0.18239 0.17112 0.0
H1645 H 0.59827 0.15327 0.20123 0.0
H1646 H 0.60332 0.17405 0.3783 0.0
H1647 H 0.57921 0.21526 0.37094 0.0
H1648 H 0.60262 0.22073 0.22816 0.0
C1649 C 0.65499 0.12887 0.24323 0.0
C1650 C 0.65956 0.10795 0.27353 0.0
C1651 C 0.64982 0.10918 0.3189 0.0
C1652 C 0.63569 0.13095 0.33381 0.0
C1653 C 0.63132 0.1511 0.30273 0.0
C1654 C 0.64061 0.15013 0.25832 0.0
C1655 C 0.63204 0.17341 0.23062 0.0
C1656 C 0.65556 0.18958 0.21494 0.0
C1657 C 0.61511 0.16509 0.18955 0.0
C1658 C 0.61629 0.18771 0.2663 0.0
C1659 C 0.61633 0.17473 0.30783 0.0
C1660 C 0.60317 0.18435 0.34595 0.0
C1661 C 0.58956 0.20779 0.34142 0.0
C1662 C 0.58895 0.22117 0.29891 0.0
C1663 C 0.60256 0.2109 0.26101 0.0
loop_
_geom_bond_atom_site_label_1
_geom_bond_atom_site_label_2
_geom_bond_distance
_geom_bond_site_symmetry_2
_ccdc_geom_bond_type
O0 Zn1 1.953 . S
O0 C16 1.225 . S
Zn1 O0 1.953 . S
Zn1 O2 1.949 . S
Zn1 O8 1.919 . S
Zn1 O13 1.924 . S
O2 Zn1 1.949 . S
O2 Zn3 1.923 . S
O2 Zn4 1.950 . S
O2 Zn5 1.945 . S
Zn3 O2 1.923 . S
Zn3 O6 1.933 . S
Zn3 O9 1.941 . S
Zn3 O10 1.965 . S
Zn4 O2 1.950 . S
Zn4 O11 1.938 . S
Zn4 O12 1.906 . S
Zn4 O22 1.953 . S
Zn5 O2 1.945 . S
Zn5 O7 1.932 . S
Zn5 O14 1.977 . S
Zn5 O15 1.910 . S
O6 Zn3 1.933 . S
O6 C17 1.226 . S
O7 Zn5 1.932 . S
O7 C17 1.307 . S
O8 Zn1 1.919 . S
O8 C19 1.253 . S
O9 Zn3 1.941 . S
O9 C19 1.283 . S
O10 Zn3 1.965 . S
O10 C18 1.303 . S
O11 Zn4 1.938 . S
O11 C18 1.247 . S
O12 Zn4 1.906 . S
O12 C20 1.304 . S
O13 Zn1 1.924 . S
O13 C21 1.311 . S
O14 Zn5 1.977 . S
O14 C20 1.272 . S
O15 Zn5 1.910 . S
O15 C21 1.231 . S
C16 O0 1.225 . S
C16 O22 1.298 . S
C17 O6 1.226 . S
C17 O7 1.307 . S
C18 O10 1.303 . S
C18 O11 1.247 . S
C19 O8 1.253 . S
C19 O9 1.283 . S
C20 O12 1.304 . S
C20 O14 1.272 . S
C21 O13 1.311 . S
C21 O15 1.231 . S
O22 Zn4 1.953 . S
O22 C16 1.298 . S
O23 Zn24 1.953 . S
O23 C39 1.225 . S
Zn24 O23 1.953 . S
Zn24 O25 1.949 . S
Zn24 O31 1.919 . S
Zn24 O36 1.924 . S
O25 Zn24 1.949 . S
O25 Zn26 1.923 . S
O25 Zn27 1.950 . S
O25 Zn28 1.945 . S
Zn26 O25 1.923 . S
Zn26 O29 1.933 . S
Zn26 O32 1.941 . S
Zn26 O33 1.965 1_655 S
Zn27 O25 1.950 . S
Zn27 O34 1.938 1_655 S
Zn27 O35 1.906 1_655 S
Zn27 O45 1.953 . S
Zn28 O25 1.945 . S
Zn28 O30 1.932 . S
Zn28 O37 1.998 . S
Zn28 O38 1.910 . S
O29 Zn26 1.933 . S
O29 C40 1.226 . S
O30 Zn28 1.932 . S
O30 C40 1.307 . S
O31 Zn24 1.919 . S
O31 C42 1.253 . S
O32 Zn26 1.941 . S
O32 C42 1.283 . S
O33 Zn26 1.965 1_455 S
O33 C41 1.303 . S
O34 Zn27 1.938 1_455 S
O34 C41 1.247 . S
O35 Zn27 1.906 1_455 S
O35 C43 1.304 . S
O36 Zn24 1.924 . S
O36 C44 1.311 . S
O37 Zn28 1.998 . S
O37 C43 1.252 1_655 S
O38 Zn28 1.910 . S
O38 C44 1.231 . S
C39 O23 1.225 . S
C39 O45 1.298 . S
C40 O29 1.226 . S
C40 O30 1.307 . S
C41 O33 1.303 . S
C41 O34 1.247 . S
C42 O31 1.253 . S
C42 O32 1.283 . S
C43 O35 1.304 . S
C43 O37 1.252 1_455 S
C44 O36 1.311 . S
C44 O38 1.231 . S
O45 Zn27 1.953 . S
O45 C39 1.298 . S
O46 Zn47 1.953 . S
O46 C62 1.225 . S
Zn47 O46 1.953 . S
Zn47 O48 1.949 . S
Zn47 O54 1.919 . S
Zn47 O59 1.924 . S
O48 Zn47 1.949 . S
O48 Zn49 1.923 . S
O48 Zn50 1.950 . S
O48 Zn51 1.945 . S
Zn49 O48 1.923 . S
Zn49 O52 1.933 . S
Zn49 O55 1.941 . S
Zn49 O56 1.965 1_565 S
Zn50 O48 1.950 . S
Zn50 O57 1.933 1_565 S
Zn50 O58 1.906 1_565 S
Zn50 O68 1.953 . S
Zn51 O48 1.945 . S
Zn51 O53 1.932 . S
Zn51 O60 1.987 . S
Zn51 O61 1.910 . S
O52 Zn49 1.933 . S
O52 C63 1.226 . S
O53 Zn51 1.932 . S
O53 C63 1.307 . S
O54 Zn47 1.919 . S
O54 C65 1.253 . S
O55 Zn49 1.941 . S
O55 C65 1.283 . S
O56 Zn49 1.965 1_545 S
O56 C64 1.303 . S
O57 Zn50 1.933 1_545 S
O57 C64 1.248 . S
O58 Zn50 1.906 1_545 S
O58 C66 1.304 . S
O59 Zn47 1.924 . S
O59 C67 1.311 . S
O60 Zn51 1.987 . S
O60 C66 1.262 1_565 S
O61 Zn51 1.910 . S
O61 C67 1.231 . S
C62 O46 1.225 . S
C62 O68 1.298 . S
C63 O52 1.226 . S
C63 O53 1.307 . S
C64 O56 1.303 . S
C64 O57 1.248 . S
C65 O54 1.253 . S
C65 O55 1.283 . S
C66 O58 1.304 . S
C66 O60 1.262 1_545 S
C67 O59 1.311 . S
C67 O61 1.231 . S
O68 Zn50 1.953 . S
O68 C62 1.298 . S
O69 Zn70 1.953 . S
O69 C85 1.225 . S
Zn70 O69 1.953 . S
Zn70 O71 1.949 . S
Zn70 O77 1.919 . S
Zn70 O82 1.924 . S
O71 Zn70 1.949 . S
O71 Zn72 1.923 . S
O71 Zn73 1.950 . S
O71 Zn74 1.945 . S
Zn72 O71 1.923 . S
Zn72 O75 1.933 . S
Zn72 O78 1.941 . S
Zn72 O79 1.965 . S
Zn73 O71 1.950 . S
Zn73 O80 1.938 . S
Zn73 O81 1.906 . S
Zn73 O91 1.953 . S
Zn74 O71 1.945 . S
Zn74 O76 1.932 . S
Zn74 O83 1.977 . S
Zn74 O84 1.910 . S
O75 Zn72 1.933 . S
O75 C86 1.226 . S
O76 Zn74 1.932 . S
O76 C86 1.307 . S
O77 Zn70 1.919 . S
O77 C88 1.253 . S
O78 Zn72 1.941 . S
O78 C88 1.283 . S
O79 Zn72 1.965 . S
O79 C87 1.303 . S
O80 Zn73 1.938 . S
O80 C87 1.247 . S
O81 Zn73 1.906 . S
O81 C89 1.304 . S
O82 Zn70 1.924 . S
O82 C90 1.311 . S
O83 Zn74 1.977 . S
O83 C89 1.272 . S
O84 Zn74 1.910 . S
O84 C90 1.231 . S
C85 O69 1.225 . S
C85 O91 1.298 . S
C86 O75 1.226 . S
C86 O76 1.307 . S
C87 O79 1.303 . S
C87 O80 1.247 . S
C88 O77 1.253 . S
C88 O78 1.283 . S
C89 O81 1.304 . S
C89 O83 1.272 . S
C90 O82 1.311 . S
C90 O84 1.231 . S
O91 Zn73 1.953 . S
O91 C85 1.298 . S
O92 Zn93 1.953 . S
O92 C108 1.225 . S
Zn93 O92 1.953 . S
Zn93 O94 1.949 . S
Zn93 O100 1.919 . S
Zn93 O105 1.924 . S
O94 Zn93 1.949 . S
O94 Zn95 1.923 . S
O94 Zn96 1.950 . S
O94 Zn97 1.945 . S
Zn95 O94 1.923 . S
Zn95 O98 1.933 . S
Zn95 O101 1.941 . S
Zn95 O102 1.965 . S
Zn96 O94 1.950 . S
Zn96 O103 1.938 . S
Zn96 O104 1.906 . S
Zn96 O114 1.953 . S
Zn97 O94 1.945 . S
Zn97 O99 1.932 . S
Zn97 O106 1.977 . S
Zn97 O107 1.910 . S
O98 Zn95 1.933 . S
O98 C109 1.226 . S
O99 Zn97 1.932 . S
O99 C109 1.307 . S
O100 Zn93 1.919 . S
O100 C111 1.253 . S
O101 Zn95 1.941 . S
O101 C111 1.283 . S
O102 Zn95 1.965 . S
O102 C110 1.303 . S
O103 Zn96 1.938 . S
O103 C110 1.247 . S
O104 Zn96 1.906 . S
O104 C112 1.304 . S
O105 Zn93 1.924 . S
O105 C113 1.311 . S
O106 Zn97 1.977 . S
O106 C112 1.272 . S
O107 Zn97 1.910 . S
O107 C113 1.231 . S
C108 O92 1.225 . S
C108 O114 1.298 . S
C109 O98 1.226 . S
C109 O99 1.307 . S
C110 O102 1.303 . S
C110 O103 1.247 . S
C111 O100 1.253 . S
C111 O101 1.283 . S
C112 O104 1.304 . S
C112 O106 1.272 . S
C113 O105 1.311 . S
C113 O107 1.231 . S
O114 Zn96 1.953 . S
O114 C108 1.298 . S
O115 Zn116 1.953 . S
O115 C131 1.225 . S
Zn116 O115 1.953 . S
Zn116 O117 1.949 . S
Zn116 O123 1.919 . S
Zn116 O128 1.924 . S
O117 Zn116 1.949 . S
O117 Zn118 1.923 . S
O117 Zn119 1.950 . S
O117 Zn120 1.945 . S
Zn118 O117 1.923 . S
Zn118 O121 1.933 . S
Zn118 O124 1.941 . S
Zn118 O125 1.965 1_455 S
Zn119 O117 1.950 . S
Zn119 O126 1.930 1_455 S
Zn119 O127 1.906 1_455 S
Zn119 O137 1.953 . S
Zn120 O117 1.945 . S
Zn120 O122 1.932 . S
Zn120 O129 1.981 . S
Zn120 O130 1.910 . S
O121 Zn118 1.933 . S
O121 C132 1.226 . S
O122 Zn120 1.932 . S
O122 C132 1.307 . S
O123 Zn116 1.919 . S
O123 C134 1.253 . S
O124 Zn118 1.941 . S
O124 C134 1.283 . S
O125 Zn118 1.965 1_655 S
O125 C133 1.303 . S
O126 Zn119 1.930 1_655 S
O126 C133 1.249 . S
O127 Zn119 1.906 1_655 S
O127 C135 1.304 . S
O128 Zn116 1.924 . S
O128 C136 1.311 . S
O129 Zn120 1.981 . S
O129 C135 1.267 1_455 S
O130 Zn120 1.910 . S
O130 C136 1.231 . S
C131 O115 1.225 . S
C131 O137 1.298 . S
C132 O121 1.226 . S
C132 O122 1.307 . S
C133 O125 1.303 . S
C133 O126 1.249 . S
C134 O123 1.253 . S
C134 O124 1.283 . S
C135 O127 1.304 . S
C135 O129 1.267 1_655 S
C136 O128 1.311 . S
C136 O130 1.231 . S
O137 Zn119 1.953 . S
O137 C131 1.298 . S
O138 Zn139 1.953 . S
O138 C154 1.225 . S
Zn139 O138 1.953 . S
Zn139 O140 1.949 . S
Zn139 O146 1.919 . S
Zn139 O151 1.924 . S
O140 Zn139 1.949 . S
O140 Zn141 1.923 . S
O140 Zn142 1.950 . S
O140 Zn143 1.945 . S
Zn141 O140 1.923 . S
Zn141 O144 1.933 . S
Zn141 O147 1.941 . S
Zn141 O148 1.965 1_545 S
Zn142 O140 1.950 . S
Zn142 O149 1.939 1_545 S
Zn142 O150 1.906 1_545 S
Zn142 O160 1.953 . S
Zn143 O140 1.945 . S
Zn143 O145 1.932 . S
Zn143 O152 1.996 . S
Zn143 O153 1.910 . S
O144 Zn141 1.933 . S
O144 C155 1.226 . S
O145 Zn143 1.932 . S
O145 C155 1.307 . S
O146 Zn139 1.919 . S
O146 C157 1.253 . S
O147 Zn141 1.941 . S
O147 C157 1.283 . S
O148 Zn141 1.965 1_565 S
O148 C156 1.303 . S
O149 Zn142 1.939 1_565 S
O149 C156 1.247 . S
O150 Zn142 1.906 1_565 S
O150 C158 1.304 . S
O151 Zn139 1.924 . S
O151 C159 1.311 . S
O152 Zn143 1.996 . S
O152 C158 1.254 1_545 S
O153 Zn143 1.910 . S
O153 C159 1.231 . S
C154 O138 1.225 . S
C154 O160 1.298 . S
C155 O144 1.226 . S
C155 O145 1.307 . S
C156 O148 1.303 . S
C156 O149 1.247 . S
C157 O146 1.253 . S
C157 O147 1.283 . S
C158 O150 1.304 . S
C158 O152 1.254 1_565 S
C159 O151 1.311 . S
C159 O153 1.231 . S
O160 Zn142 1.953 . S
O160 C154 1.298 . S
O161 Zn162 1.953 . S
O161 C177 1.225 . S
Zn162 O161 1.953 . S
Zn162 O163 1.949 . S
Zn162 O169 1.919 . S
Zn162 O174 1.924 . S
O163 Zn162 1.949 . S
O163 Zn164 1.923 . S
O163 Zn165 1.950 . S
O163 Zn166 1.945 . S
Zn164 O163 1.923 . S
Zn164 O167 1.933 . S
Zn164 O170 1.941 . S
Zn164 O171 1.965 . S
Zn165 O163 1.950 . S
Zn165 O172 1.938 . S
Zn165 O173 1.906 . S
Zn165 O183 1.953 . S
Zn166 O163 1.945 . S
Zn166 O168 1.932 . S
Zn166 O175 1.977 . S
Zn166 O176 1.910 . S
O167 Zn164 1.933 . S
O167 C178 1.226 . S
O168 Zn166 1.932 . S
O168 C178 1.307 . S
O169 Zn162 1.919 . S
O169 C180 1.253 . S
O170 Zn164 1.941 . S
O170 C180 1.283 . S
O171 Zn164 1.965 . S
O171 C179 1.303 . S
O172 Zn165 1.938 . S
O172 C179 1.247 . S
O173 Zn165 1.906 . S
O173 C181 1.304 . S
O174 Zn162 1.924 . S
O174 C182 1.311 . S
O175 Zn166 1.977 . S
O175 C181 1.272 . S
O176 Zn166 1.910 . S
O176 C182 1.231 . S
C177 O161 1.225 . S
C177 O183 1.298 . S
C178 O167 1.226 . S
C178 O168 1.307 . S
C179 O171 1.303 . S
C179 O172 1.247 . S
C180 O169 1.253 . S
C180 O170 1.283 . S
C181 O173 1.304 . S
C181 O175 1.272 . S
C182 O174 1.311 . S
C182 O176 1.231 . S
O183 Zn165 1.953 . S
O183 C177 1.298 . S
O184 Zn185 1.953 . S
O184 C200 1.225 . S
Zn185 O184 1.953 . S
Zn185 O186 1.949 . S
Zn185 O192 1.919 . S
Zn185 O197 1.924 . S
O186 Zn185 1.949 . S
O186 Zn187 1.923 . S
O186 Zn188 1.950 . S
O186 Zn189 1.945 . S
Zn187 O186 1.923 . S
Zn187 O190 1.933 . S
Zn187 O193 1.941 . S
Zn187 O194 1.965 . S
Zn188 O186 1.950 . S
Zn188 O195 1.938 . S
Zn188 O196 1.906 . S
Zn188 O206 1.953 . S
Zn189 O186 1.945 . S
Zn189 O191 1.932 . S
Zn189 O198 1.977 . S
Zn189 O199 1.910 . S
O190 Zn187 1.933 . S
O190 C201 1.226 . S
O191 Zn189 1.932 . S
O191 C201 1.307 . S
O192 Zn185 1.919 . S
O192 C203 1.253 . S
O193 Zn187 1.941 . S
O193 C203 1.283 . S
O194 Zn187 1.965 . S
O194 C202 1.303 . S
O195 Zn188 1.938 . S
O195 C202 1.247 . S
O196 Zn188 1.906 . S
O196 C204 1.304 . S
O197 Zn185 1.924 . S
O197 C205 1.311 . S
O198 Zn189 1.977 . S
O198 C204 1.272 . S
O199 Zn189 1.910 . S
O199 C205 1.231 . S
C200 O184 1.225 . S
C200 O206 1.298 . S
C201 O190 1.226 . S
C201 O191 1.307 . S
C202 O194 1.303 . S
C202 O195 1.247 . S
C203 O192 1.253 . S
C203 O193 1.283 . S
C204 O196 1.304 . S
C204 O198 1.272 . S
C205 O197 1.311 . S
C205 O199 1.231 . S
O206 Zn188 1.953 . S
O206 C200 1.298 . S
O207 Zn208 1.953 . S
O207 C223 1.225 . S
Zn208 O207 1.953 . S
Zn208 O209 1.949 . S
Zn208 O215 1.919 . S
Zn208 O220 1.924 . S
O209 Zn208 1.949 . S
O209 Zn210 1.923 . S
O209 Zn211 1.950 . S
O209 Zn212 1.945 . S
Zn210 O209 1.923 . S
Zn210 O213 1.933 . S
Zn210 O216 1.941 . S
Zn210 O217 1.965 1_455 S
Zn211 O209 1.950 . S
Zn211 O218 1.935 1_455 S
Zn211 O219 1.906 1_455 S
Zn211 O229 1.953 . S
Zn212 O209 1.945 . S
Zn212 O214 1.932 . S
Zn212 O221 1.993 . S
Zn212 O222 1.910 . S
O213 Zn210 1.933 . S
O213 C224 1.226 . S
O214 Zn212 1.932 . S
O214 C224 1.307 . S
O215 Zn208 1.919 . S
O215 C226 1.253 . S
O216 Zn210 1.941 . S
O216 C226 1.283 . S
O217 Zn210 1.965 1_655 S
O217 C225 1.303 . S
O218 Zn211 1.935 1_655 S
O218 C225 1.248 . S
O219 Zn211 1.906 1_655 S
O219 C227 1.304 . S
O220 Zn208 1.924 . S
O220 C228 1.311 . S
O221 Zn212 1.993 . S
O221 C227 1.256 1_455 S
O222 Zn212 1.910 . S
O222 C228 1.231 . S
C223 O207 1.225 . S
C223 O229 1.298 . S
C224 O213 1.226 . S
C224 O214 1.307 . S
C225 O217 1.303 . S
C225 O218 1.248 . S
C226 O215 1.253 . S
C226 O216 1.283 . S
C227 O219 1.304 . S
C227 O221 1.256 1_655 S
C228 O220 1.311 . S
C228 O222 1.231 . S
O229 Zn211 1.953 . S
O229 C223 1.298 . S
O230 Zn231 1.953 . S
O230 C246 1.225 . S
Zn231 O230 1.953 . S
Zn231 O232 1.949 . S
Zn231 O238 1.919 . S
Zn231 O243 1.924 . S
O232 Zn231 1.949 . S
O232 Zn233 1.923 . S
O232 Zn234 1.950 . S
O232 Zn235 1.945 . S
Zn233 O232 1.923 . S
Zn233 O236 1.933 . S
Zn233 O239 1.941 . S
Zn233 O240 1.965 1_545 S
Zn234 O232 1.950 . S
Zn234 O241 1.938 . S
Zn234 O242 1.906 1_545 S
Zn234 O252 1.953 . S
Zn235 O232 1.945 . S
Zn235 O237 1.932 . S
Zn235 O244 2.002 . S
Zn235 O245 1.910 . S
O236 Zn233 1.933 . S
O236 C247 1.226 . S
O237 Zn235 1.932 . S
O237 C247 1.307 . S
O238 Zn231 1.919 . S
O238 C249 1.253 . S
O239 Zn233 1.941 . S
O239 C249 1.283 . S
O240 Zn233 1.965 1_565 S
O240 C248 1.303 . S
O241 Zn234 1.938 . S
O241 C248 1.247 1_545 S
O242 Zn234 1.906 1_565 S
O242 C250 1.304 . S
O243 Zn231 1.924 . S
O243 C251 1.311 . S
O244 Zn235 2.002 . S
O244 C250 1.248 1_545 S
O245 Zn235 1.910 . S
O245 C251 1.231 . S
C246 O230 1.225 . S
C246 O252 1.298 . S
C247 O236 1.226 . S
C247 O237 1.307 . S
C248 O240 1.303 . S
C248 O241 1.247 1_565 S
C249 O238 1.253 . S
C249 O239 1.283 . S
C250 O242 1.304 . S
C250 O244 1.248 1_565 S
C251 O243 1.311 . S
C251 O245 1.231 . S
O252 Zn234 1.953 . S
O252 C246 1.298 . S
O253 Zn254 1.953 . S
O253 C269 1.225 . S
Zn254 O253 1.953 . S
Zn254 O255 1.949 . S
Zn254 O261 1.919 . S
Zn254 O266 1.924 . S
O255 Zn254 1.949 . S
O255 Zn256 1.923 . S
O255 Zn257 1.950 . S
O255 Zn258 1.945 . S
Zn256 O255 1.923 . S
Zn256 O259 1.933 . S
Zn256 O262 1.941 . S
Zn256 O263 1.965 . S
Zn257 O255 1.950 . S
Zn257 O264 1.938 . S
Zn257 O265 1.906 . S
Zn257 O275 1.953 . S
Zn258 O255 1.945 . S
Zn258 O260 1.932 . S
Zn258 O267 1.977 . S
Zn258 O268 1.910 . S
O259 Zn256 1.933 . S
O259 C270 1.226 . S
O260 Zn258 1.932 . S
O260 C270 1.307 . S
O261 Zn254 1.919 . S
O261 C272 1.253 . S
O262 Zn256 1.941 . S
O262 C272 1.283 . S
O263 Zn256 1.965 . S
O263 C271 1.303 . S
O264 Zn257 1.938 . S
O264 C271 1.247 . S
O265 Zn257 1.906 . S
O265 C273 1.304 . S
O266 Zn254 1.924 . S
O266 C274 1.311 . S
O267 Zn258 1.977 . S
O267 C273 1.272 . S
O268 Zn258 1.910 . S
O268 C274 1.231 . S
C269 O253 1.225 . S
C269 O275 1.298 . S
C270 O259 1.226 . S
C270 O260 1.307 . S
C271 O263 1.303 . S
C271 O264 1.247 . S
C272 O261 1.253 . S
C272 O262 1.283 . S
C273 O265 1.304 . S
C273 O267 1.272 . S
C274 O266 1.311 . S
C274 O268 1.231 . S
O275 Zn257 1.953 . S
O275 C269 1.298 . S
O276 Zn277 1.953 . S
O276 C292 1.225 . S
Zn277 O276 1.953 . S
Zn277 O278 1.949 . S
Zn277 O284 1.919 . S
Zn277 O289 1.924 . S
O278 Zn277 1.949 . S
O278 Zn279 1.923 . S
O278 Zn280 1.950 . S
O278 Zn281 1.945 . S
Zn279 O278 1.923 . S
Zn279 O282 1.933 . S
Zn279 O285 1.941 . S
Zn279 O286 1.965 . S
Zn280 O278 1.950 . S
Zn280 O287 1.938 . S
Zn280 O288 1.906 . S
Zn280 O298 1.953 . S
Zn281 O278 1.945 . S
Zn281 O283 1.932 . S
Zn281 O290 1.977 . S
Zn281 O291 1.910 . S
O282 Zn279 1.933 . S
O282 C293 1.226 . S
O283 Zn281 1.932 . S
O283 C293 1.307 . S
O284 Zn277 1.919 . S
O284 C295 1.253 . S
O285 Zn279 1.941 . S
O285 C295 1.283 . S
O286 Zn279 1.965 . S
O286 C294 1.303 . S
O287 Zn280 1.938 . S
O287 C294 1.247 . S
O288 Zn280 1.906 . S
O288 C296 1.304 . S
O289 Zn277 1.924 . S
O289 C297 1.311 . S
O290 Zn281 1.977 . S
O290 C296 1.272 . S
O291 Zn281 1.910 . S
O291 C297 1.231 . S
C292 O276 1.225 . S
C292 O298 1.298 . S
C293 O282 1.226 . S
C293 O283 1.307 . S
C294 O286 1.303 . S
C294 O287 1.247 . S
C295 O284 1.253 . S
C295 O285 1.283 . S
C296 O288 1.304 . S
C296 O290 1.272 . S
C297 O289 1.311 . S
C297 O291 1.231 . S
O298 Zn280 1.953 . S
O298 C292 1.298 . S
O299 Zn300 1.953 . S
O299 C315 1.225 . S
Zn300 O299 1.953 . S
Zn300 O301 1.949 . S
Zn300 O307 1.919 . S
Zn300 O312 1.924 . S
O301 Zn300 1.949 . S
O301 Zn302 1.923 . S
O301 Zn303 1.950 . S
O301 Zn304 1.945 . S
Zn302 O301 1.923 . S
Zn302 O305 1.933 . S
Zn302 O308 1.941 . S
Zn302 O309 1.965 1_655 S
Zn303 O301 1.950 . S
Zn303 O310 1.938 1_655 S
Zn303 O311 1.906 1_655 S
Zn303 O321 1.953 . S
Zn304 O301 1.945 . S
Zn304 O306 1.932 . S
Zn304 O313 1.994 . S
Zn304 O314 1.910 . S
O305 Zn302 1.933 . S
O305 C316 1.226 . S
O306 Zn304 1.932 . S
O306 C316 1.307 . S
O307 Zn300 1.919 . S
O307 C318 1.253 . S
O308 Zn302 1.941 . S
O308 C318 1.283 . S
O309 Zn302 1.965 1_455 S
O309 C317 1.303 . S
O310 Zn303 1.938 1_455 S
O310 C317 1.247 . S
O311 Zn303 1.906 1_455 S
O311 C319 1.304 . S
O312 Zn300 1.924 . S
O312 C320 1.311 . S
O313 Zn304 1.994 . S
O313 C319 1.255 1_655 S
O314 Zn304 1.910 . S
O314 C320 1.231 . S
C315 O299 1.225 . S
C315 O321 1.298 . S
C316 O305 1.226 . S
C316 O306 1.307 . S
C317 O309 1.303 . S
C317 O310 1.247 . S
C318 O307 1.253 . S
C318 O308 1.283 . S
C319 O311 1.304 . S
C319 O313 1.255 1_455 S
C320 O312 1.311 . S
C320 O314 1.231 . S
O321 Zn303 1.953 . S
O321 C315 1.298 . S
O322 Zn323 1.953 . S
O322 C338 1.225 . S
Zn323 O322 1.953 . S
Zn323 O324 1.949 . S
Zn323 O330 1.919 . S
Zn323 O335 1.924 . S
O324 Zn323 1.949 . S
O324 Zn325 1.923 . S
O324 Zn326 1.950 . S
O324 Zn327 1.945 . S
Zn325 O324 1.923 . S
Zn325 O328 1.933 . S
Zn325 O331 1.941 . S
Zn325 O332 1.965 1_565 S
Zn326 O324 1.950 . S
Zn326 O333 1.932 1_565 S
Zn326 O334 1.906 1_565 S
Zn326 O344 1.953 . S
Zn327 O324 1.945 . S
Zn327 O329 1.932 . S
Zn327 O336 1.984 . S
Zn327 O337 1.910 . S
O328 Zn325 1.933 . S
O328 C339 1.226 . S
O329 Zn327 1.932 . S
O329 C339 1.307 . S
O330 Zn323 1.919 . S
O330 C341 1.253 . S
O331 Zn325 1.941 . S
O331 C341 1.283 . S
O332 Zn325 1.965 1_545 S
O332 C340 1.303 . S
O333 Zn326 1.932 1_545 S
O333 C340 1.249 . S
O334 Zn326 1.906 1_545 S
O334 C342 1.304 . S
O335 Zn323 1.924 . S
O335 C343 1.311 . S
O336 Zn327 1.984 . S
O336 C342 1.264 1_565 S
O337 Zn327 1.910 . S
O337 C343 1.231 . S
C338 O322 1.225 . S
C338 O344 1.298 . S
C339 O328 1.226 . S
C339 O329 1.307 . S
C340 O332 1.303 . S
C340 O333 1.249 . S
C341 O330 1.253 . S
C341 O331 1.283 . S
C342 O334 1.304 . S
C342 O336 1.264 1_545 S
C343 O335 1.311 . S
C343 O337 1.231 . S
O344 Zn326 1.953 . S
O344 C338 1.298 . S
O345 Zn346 1.953 . S
O345 C361 1.225 . S
Zn346 O345 1.953 . S
Zn346 O347 1.949 . S
Zn346 O353 1.919 . S
Zn346 O358 1.924 . S
O347 Zn346 1.949 . S
O347 Zn348 1.923 . S
O347 Zn349 1.950 . S
O347 Zn350 1.945 . S
Zn348 O347 1.923 . S
Zn348 O351 1.933 . S
Zn348 O354 1.941 . S
Zn348 O355 1.965 . S
Zn349 O347 1.950 . S
Zn349 O356 1.938 . S
Zn349 O357 1.906 . S
Zn349 O367 1.953 . S
Zn350 O347 1.945 . S
Zn350 O352 1.932 . S
Zn350 O359 1.977 . S
Zn350 O360 1.910 . S
O351 Zn348 1.933 . S
O351 C362 1.226 . S
O352 Zn350 1.932 . S
O352 C362 1.307 . S
O353 Zn346 1.919 . S
O353 C364 1.253 . S
O354 Zn348 1.941 . S
O354 C364 1.283 . S
O355 Zn348 1.965 . S
O355 C363 1.303 . S
O356 Zn349 1.938 . S
O356 C363 1.247 . S
O357 Zn349 1.906 . S
O357 C365 1.304 . S
O358 Zn346 1.924 . S
O358 C366 1.311 . S
O359 Zn350 1.977 . S
O359 C365 1.272 . S
O360 Zn350 1.910 . S
O360 C366 1.231 . S
C361 O345 1.225 . S
C361 O367 1.298 . S
C362 O351 1.226 . S
C362 O352 1.307 . S
C363 O355 1.303 . S
C363 O356 1.247 . S
C364 O353 1.253 . S
C364 O354 1.283 . S
C365 O357 1.304 . S
C365 O359 1.272 . S
C366 O358 1.311 . S
C366 O360 1.231 . S
O367 Zn349 1.953 . S
O367 C361 1.298 . S
H368 C380 0.930 . S
H369 C382 0.930 . S
H370 C383 0.930 . S
H371 C387 0.959 . S
H372 C387 0.959 . S
H373 C387 0.961 . S
H374 C388 0.960 . S
H375 C388 0.961 . S
H376 C388 0.959 . S
H377 C391 0.929 . S
H378 C392 0.931 . S
H379 C394 0.930 . S
C380 H368 0.930 . S
C380 C381 1.399 . S
C380 C385 1.399 . S
C381 C380 1.399 . S
C381 C382 1.376 . S
C382 H369 0.930 . S
C382 C381 1.376 . S
C382 C383 1.388 . S
C383 H370 0.930 . S
C383 C382 1.388 . S
C383 C384 1.390 . S
C384 C383 1.390 . S
C384 C385 1.394 . S
C384 C390 1.465 . S
C385 C380 1.399 . S
C385 C384 1.394 . S
C385 C386 1.516 . S
C386 C385 1.516 . S
C386 C387 1.502 . S
C386 C388 1.561 . S
C386 C389 1.526 . S
C387 H371 0.959 . S
C387 H372 0.959 . S
C387 H373 0.961 . S
C387 C386 1.502 . S
C388 H374 0.960 . S
C388 H375 0.961 . S
C388 H376 0.959 . S
C388 C386 1.561 . S
C389 C386 1.526 . S
C389 C390 1.396 . S
C389 C394 1.390 . S
C390 C384 1.465 . S
C390 C389 1.396 . S
C390 C391 1.399 . S
C391 H377 0.929 . S
C391 C390 1.399 . S
C391 C392 1.385 . S
C392 H378 0.931 . S
C392 C391 1.385 . S
C392 C393 1.389 . S
C393 C392 1.389 . S
C393 C394 1.387 . S
C394 H379 0.930 . S
C394 C389 1.390 . S
C394 C393 1.387 . S
H395 C407 0.930 . S
H396 C409 0.930 . S
H397 C410 0.930 . S
H398 C414 0.968 . S
H399 C414 0.961 . S
H400 C414 0.955 1_554 S
H401 C415 0.960 . S
H402 C415 0.961 . S
H403 C415 0.959 . S
H404 C418 0.929 . S
H405 C419 0.931 . S
H406 C421 0.930 . S
C407 H395 0.930 . S
C407 C408 1.399 . S
C407 C412 1.399 . S
C408 C407 1.399 . S
C408 C409 1.376 . S
C409 H396 0.930 . S
C409 C408 1.376 . S
C409 C410 1.388 . S
C410 H397 0.930 . S
C410 C409 1.388 . S
C410 C411 1.390 . S
C411 C410 1.390 . S
C411 C412 1.394 . S
C411 C417 1.465 1_554 S
C412 C407 1.399 . S
C412 C411 1.394 . S
C412 C413 1.516 . S
C413 C412 1.516 . S
C413 C414 1.498 1_554 S
C413 C415 1.561 . S
C413 C416 1.526 1_554 S
C414 H398 0.968 . S
C414 H399 0.961 . S
C414 H400 0.955 1_556 S
C414 C413 1.498 1_556 S
C415 H401 0.960 . S
C415 H402 0.961 . S
C415 H403 0.959 . S
C415 C413 1.561 . S
C416 C413 1.526 1_556 S
C416 C417 1.396 . S
C416 C421 1.390 . S
C417 C411 1.465 1_556 S
C417 C416 1.396 . S
C417 C418 1.399 . S
C418 H404 0.929 . S
C418 C417 1.399 . S
C418 C419 1.385 . S
C419 H405 0.931 . S
C419 C418 1.385 . S
C419 C420 1.389 . S
C420 C419 1.389 . S
C420 C421 1.387 . S
C421 H406 0.930 . S
C421 C416 1.390 . S
C421 C420 1.387 . S
H422 C434 0.930 . S
H423 C436 0.930 . S
H424 C437 0.930 . S
H425 C441 0.959 . S
H426 C441 0.959 . S
H427 C441 0.961 . S
H428 C442 0.960 . S
H429 C442 0.961 . S
H430 C442 0.959 . S
H431 C445 0.929 . S
H432 C446 0.931 . S
H433 C448 0.930 . S
C434 H422 0.930 . S
C434 C435 1.399 . S
C434 C439 1.399 . S
C435 C434 1.399 . S
C435 C436 1.376 . S
C436 H423 0.930 . S
C436 C435 1.376 . S
C436 C437 1.388 . S
C437 H424 0.930 . S
C437 C436 1.388 . S
C437 C438 1.390 . S
C438 C437 1.390 . S
C438 C439 1.394 . S
C438 C444 1.465 . S
C439 C434 1.399 . S
C439 C438 1.394 . S
C439 C440 1.516 . S
C440 C439 1.516 . S
C440 C441 1.502 . S
C440 C442 1.561 . S
C440 C443 1.526 . S
C441 H425 0.959 . S
C441 H426 0.959 . S
C441 H427 0.961 . S
C441 C440 1.502 . S
C442 H428 0.960 . S
C442 H429 0.961 . S
C442 H430 0.959 . S
C442 C440 1.561 . S
C443 C440 1.526 . S
C443 C444 1.396 . S
C443 C448 1.390 . S
C444 C438 1.465 . S
C444 C443 1.396 . S
C444 C445 1.399 . S
C445 H431 0.929 . S
C445 C444 1.399 . S
C445 C446 1.385 . S
C446 H432 0.931 . S
C446 C445 1.385 . S
C446 C447 1.389 . S
C447 C446 1.389 . S
C447 C448 1.387 . S
C448 H433 0.930 . S
C448 C443 1.390 . S
C448 C447 1.387 . S
H449 C461 0.930 . S
H450 C463 0.930 . S
H451 C464 0.930 . S
H452 C468 0.959 . S
H453 C468 0.959 . S
H454 C468 0.961 . S
H455 C469 0.960 . S
H456 C469 0.961 . S
H457 C469 0.959 . S
H458 C472 0.929 . S
H459 C473 0.931 . S
H460 C475 0.930 . S
C461 H449 0.930 . S
C461 C462 1.399 . S
C461 C466 1.399 . S
C462 C461 1.399 . S
C462 C463 1.376 . S
C463 H450 0.930 . S
C463 C462 1.376 . S
C463 C464 1.388 1_556 S
C464 H451 0.930 . S
C464 C463 1.388 1_554 S
C464 C465 1.390 . S
C465 C464 1.390 . S
C465 C466 1.394 1_554 S
C465 C471 1.465 . S
C466 C461 1.399 . S
C466 C465 1.394 1_556 S
C466 C467 1.516 . S
C467 C466 1.516 . S
C467 C468 1.502 . S
C467 C469 1.561 . S
C467 C470 1.526 1_556 S
C468 H452 0.959 . S
C468 H453 0.959 . S
C468 H454 0.961 . S
C468 C467 1.502 . S
C469 H455 0.960 . S
C469 H456 0.961 . S
C469 H457 0.959 . S
C469 C467 1.561 . S
C470 C467 1.526 1_554 S
C470 C471 1.396 . S
C470 C475 1.390 . S
C471 C465 1.465 . S
C471 C470 1.396 . S
C471 C472 1.399 . S
C472 H458 0.929 . S
C472 C471 1.399 . S
C472 C473 1.385 . S
C473 H459 0.931 . S
C473 C472 1.385 . S
C473 C474 1.389 . S
C474 C473 1.389 . S
C474 C475 1.387 . S
C475 H460 0.930 . S
C475 C470 1.390 . S
C475 C474 1.387 . S
H476 C488 0.930 . S
H477 C490 0.930 . S
H478 C491 0.930 . S
H479 C495 0.959 . S
H480 C495 0.959 . S
H481 C495 0.961 . S
H482 C496 0.960 . S
H483 C496 0.961 . S
H484 C496 0.959 . S
H485 C499 0.929 . S
H486 C500 0.931 . S
H487 C502 0.930 . S
C488 H476 0.930 . S
C488 C489 1.399 . S
C488 C493 1.399 . S
C489 C488 1.399 . S
C489 C490 1.376 . S
C490 H477 0.930 . S
C490 C489 1.376 . S
C490 C491 1.388 . S
C491 H478 0.930 . S
C491 C490 1.388 . S
C491 C492 1.390 . S
C492 C491 1.390 . S
C492 C493 1.394 . S
C492 C498 1.465 . S
C493 C488 1.399 . S
C493 C492 1.394 . S
C493 C494 1.516 . S
C494 C493 1.516 . S
C494 C495 1.502 . S
C494 C496 1.561 . S
C494 C497 1.526 . S
C495 H479 0.959 . S
C495 H480 0.959 . S
C495 H481 0.961 . S
C495 C494 1.502 . S
C496 H482 0.960 . S
C496 H483 0.961 . S
C496 H484 0.959 . S
C496 C494 1.561 . S
C497 C494 1.526 . S
C497 C498 1.396 . S
C497 C502 1.390 . S
C498 C492 1.465 . S
C498 C497 1.396 . S
C498 C499 1.399 . S
C499 H485 0.929 . S
C499 C498 1.399 . S
C499 C500 1.385 . S
C500 H486 0.931 . S
C500 C499 1.385 . S
C500 C501 1.389 . S
C501 C500 1.389 . S
C501 C502 1.387 . S
C502 H487 0.930 . S
C502 C497 1.390 . S
C502 C501 1.387 . S
H503 C515 0.930 . S
H504 C517 0.930 . S
H505 C518 0.930 . S
H506 C522 0.959 . S
H507 C522 0.959 . S
H508 C522 0.961 . S
H509 C523 0.960 . S
H510 C523 0.961 . S
H511 C523 0.959 . S
H512 C526 0.929 . S
H513 C527 0.931 . S
H514 C529 0.930 . S
C515 H503 0.930 . S
C515 C516 1.399 . S
C515 C520 1.399 . S
C516 C515 1.399 . S
C516 C517 1.376 . S
C517 H504 0.930 . S
C517 C516 1.376 . S
C517 C518 1.388 . S
C518 H505 0.930 . S
C518 C517 1.388 . S
C518 C519 1.390 . S
C519 C518 1.390 . S
C519 C520 1.394 . S
C519 C525 1.465 1_556 S
C520 C515 1.399 . S
C520 C519 1.394 . S
C520 C521 1.516 1_556 S
C521 C520 1.516 1_554 S
C521 C522 1.502 1_554 S
C521 C523 1.561 . S
C521 C524 1.526 . S
C522 H506 0.959 . S
C522 H507 0.959 . S
C522 H508 0.961 . S
C522 C521 1.502 1_556 S
C523 H509 0.960 . S
C523 H510 0.961 . S
C523 H511 0.959 . S
C523 C521 1.561 . S
C524 C521 1.526 . S
C524 C525 1.396 . S
C524 C529 1.390 . S
C525 C519 1.465 1_554 S
C525 C524 1.396 . S
C525 C526 1.399 . S
C526 H512 0.929 . S
C526 C525 1.399 . S
C526 C527 1.385 . S
C527 H513 0.931 . S
C527 C526 1.385 . S
C527 C528 1.389 . S
C528 C527 1.389 . S
C528 C529 1.387 . S
C529 H514 0.930 . S
C529 C524 1.390 . S
C529 C528 1.387 . S
H530 C542 0.930 . S
H531 C544 0.930 . S
H532 C545 0.930 . S
H533 C549 0.959 . S
H534 C549 0.959 . S
H535 C549 0.961 . S
H536 C550 0.960 . S
H537 C550 0.961 . S
H538 C550 0.959 . S
H539 C553 0.929 . S
H540 C554 0.931 . S
H541 C556 0.930 . S
C542 H530 0.930 . S
C542 C543 1.399 . S
C542 C547 1.399 . S
C543 C542 1.399 . S
C543 C544 1.376 . S
C544 H531 0.930 . S
C544 C543 1.376 . S
C544 C545 1.388 . S
C545 H532 0.930 . S
C545 C544 1.388 . S
C545 C546 1.390 . S
C546 C545 1.390 . S
C546 C547 1.394 . S
C546 C552 1.465 . S
C547 C542 1.399 . S
C547 C546 1.394 . S
C547 C548 1.516 . S
C548 C547 1.516 . S
C548 C549 1.502 . S
C548 C550 1.561 . S
C548 C551 1.526 . S
C549 H533 0.959 . S
C549 H534 0.959 . S
C549 H535 0.961 . S
C549 C548 1.502 . S
C550 H536 0.960 . S
C550 H537 0.961 . S
C550 H538 0.959 . S
C550 C548 1.561 . S
C551 C548 1.526 . S
C551 C552 1.396 . S
C551 C556 1.390 . S
C552 C546 1.465 . S
C552 C551 1.396 . S
C552 C553 1.399 . S
C553 H539 0.929 . S
C553 C552 1.399 . S
C553 C554 1.385 . S
C554 H540 0.931 . S
C554 C553 1.385 . S
C554 C555 1.389 . S
C555 C554 1.389 . S
C555 C556 1.387 . S
C556 H541 0.930 . S
C556 C551 1.390 . S
C556 C555 1.387 . S
H557 C569 0.930 . S
H558 C571 0.930 . S
H559 C572 0.930 . S
H560 C576 0.959 . S
H561 C576 0.959 . S
H562 C576 0.961 . S
H563 C577 0.960 . S
H564 C577 0.961 . S
H565 C577 0.959 . S
H566 C580 0.929 . S
H567 C581 0.931 . S
H568 C583 0.930 . S
C569 H557 0.930 . S
C569 C570 1.399 . S
C569 C574 1.399 . S
C570 C569 1.399 . S
C570 C571 1.376 . S
C571 H558 0.930 . S
C571 C570 1.376 . S
C571 C572 1.388 1_556 S
C572 H559 0.930 . S
C572 C571 1.388 1_554 S
C572 C573 1.394 . S
C573 C572 1.394 . S
C573 C574 1.373 1_554 S
C573 C579 1.479 . S
C574 C569 1.399 . S
C574 C573 1.373 1_556 S
C574 C575 1.516 . S
C575 C574 1.516 . S
C575 C576 1.502 . S
C575 C577 1.561 . S
C575 C578 1.526 1_556 S
C576 H560 0.959 . S
C576 H561 0.959 . S
C576 H562 0.961 . S
C576 C575 1.502 . S
C577 H563 0.960 . S
C577 H564 0.961 . S
C577 H565 0.959 . S
C577 C575 1.561 . S
C578 C575 1.526 1_554 S
C578 C579 1.396 . S
C578 C583 1.390 . S
C579 C573 1.479 . S
C579 C578 1.396 . S
C579 C580 1.399 . S
C580 H566 0.929 . S
C580 C579 1.399 . S
C580 C581 1.385 . S
C581 H567 0.931 . S
C581 C580 1.385 . S
C581 C582 1.389 . S
C582 C581 1.389 . S
C582 C583 1.387 . S
C583 H568 0.930 . S
C583 C578 1.390 . S
C583 C582 1.387 . S
H584 C596 0.930 . S
H585 C598 0.930 . S
H586 C599 0.930 . S
H587 C603 0.959 . S
H588 C603 0.959 . S
H589 C603 0.961 . S
H590 C604 0.960 . S
H591 C604 0.961 . S
H592 C604 0.959 . S
H593 C607 0.929 . S
H594 C608 0.931 . S
H595 C610 0.930 . S
C596 H584 0.930 . S
C596 C597 1.399 . S
C596 C601 1.399 . S
C597 C596 1.399 . S
C597 C598 1.376 . S
C598 H585 0.930 . S
C598 C597 1.376 . S
C598 C599 1.388 . S
C599 H586 0.930 . S
C599 C598 1.388 . S
C599 C600 1.390 . S
C600 C599 1.390 . S
C600 C601 1.394 . S
C600 C606 1.465 . S
C601 C596 1.399 . S
C601 C600 1.394 . S
C601 C602 1.516 . S
C602 C601 1.516 . S
C602 C603 1.502 . S
C602 C604 1.561 . S
C602 C605 1.526 . S
C603 H587 0.959 . S
C603 H588 0.959 . S
C603 H589 0.961 . S
C603 C602 1.502 . S
C604 H590 0.960 . S
C604 H591 0.961 . S
C604 H592 0.959 . S
C604 C602 1.561 . S
C605 C602 1.526 . S
C605 C606 1.396 . S
C605 C610 1.390 . S
C606 C600 1.465 . S
C606 C605 1.396 . S
C606 C607 1.399 . S
C607 H593 0.929 . S
C607 C606 1.399 . S
C607 C608 1.385 . S
C608 H594 0.931 . S
C608 C607 1.385 . S
C608 C609 1.389 . S
C609 C608 1.389 . S
C609 C610 1.387 . S
C610 H595 0.930 . S
C610 C605 1.390 . S
C610 C609 1.387 . S
H611 C623 0.930 . S
H612 C625 0.930 . S
H613 C626 0.930 . S
H614 C630 0.959 . S
H615 C630 0.959 . S
H616 C630 0.961 . S
H617 C631 0.960 . S
H618 C631 0.961 . S
H619 C631 0.959 . S
H620 C634 0.929 . S
H621 C635 0.931 . S
H622 C637 0.930 . S
C623 H611 0.930 . S
C623 C624 1.399 . S
C623 C628 1.399 . S
C624 C623 1.399 . S
C624 C625 1.376 . S
C625 H612 0.930 . S
C625 C624 1.376 . S
C625 C626 1.388 . S
C626 H613 0.930 . S
C626 C625 1.388 . S
C626 C627 1.390 . S
C627 C626 1.390 . S
C627 C628 1.394 . S
C627 C633 1.465 . S
C628 C623 1.399 . S
C628 C627 1.394 . S
C628 C629 1.516 . S
C629 C628 1.516 . S
C629 C630 1.502 . S
C629 C631 1.561 . S
C629 C632 1.526 . S
C630 H614 0.959 . S
C630 H615 0.959 . S
C630 H616 0.961 . S
C630 C629 1.502 . S
C631 H617 0.960 . S
C631 H618 0.961 . S
C631 H619 0.959 . S
C631 C629 1.561 . S
C632 C629 1.526 . S
C632 C633 1.396 . S
C632 C637 1.390 . S
C633 C627 1.465 . S
C633 C632 1.396 . S
C633 C634 1.399 . S
C634 H620 0.929 . S
C634 C633 1.399 . S
C634 C635 1.385 . S
C635 H621 0.931 . S
C635 C634 1.385 . S
C635 C636 1.389 . S
C636 C635 1.389 . S
C636 C637 1.387 . S
C637 H622 0.930 . S
C637 C632 1.390 . S
C637 C636 1.387 . S
H638 C650 0.930 . S
H639 C652 0.930 . S
H640 C653 0.930 . S
H641 C657 0.959 . S
H642 C657 0.959 . S
H643 C657 0.961 . S
H644 C658 0.960 . S
H645 C658 0.961 . S
H646 C658 0.959 . S
H647 C661 0.929 . S
H648 C662 0.931 . S
H649 C664 0.930 . S
C650 H638 0.930 . S
C650 C651 1.399 . S
C650 C655 1.399 . S
C651 C650 1.399 . S
C651 C652 1.376 . S
C652 H639 0.930 . S
C652 C651 1.376 . S
C652 C653 1.388 . S
C653 H640 0.930 . S
C653 C652 1.388 . S
C653 C654 1.390 . S
C654 C653 1.390 . S
C654 C655 1.394 . S
C654 C660 1.465 . S
C655 C650 1.399 . S
C655 C654 1.394 . S
C655 C656 1.516 . S
C656 C655 1.516 . S
C656 C657 1.502 . S
C656 C658 1.561 . S
C656 C659 1.526 . S
C657 H641 0.959 . S
C657 H642 0.959 . S
C657 H643 0.961 . S
C657 C656 1.502 . S
C658 H644 0.960 . S
C658 H645 0.961 . S
C658 H646 0.959 . S
C658 C656 1.561 . S
C659 C656 1.526 . S
C659 C660 1.396 . S
C659 C664 1.390 . S
C660 C654 1.465 . S
C660 C659 1.396 . S
C660 C661 1.399 . S
C661 H647 0.929 . S
C661 C660 1.399 . S
C661 C662 1.385 . S
C662 H648 0.931 . S
C662 C661 1.385 . S
C662 C663 1.389 . S
C663 C662 1.389 . S
C663 C664 1.387 . S
C664 H649 0.930 . S
C664 C659 1.390 . S
C664 C663 1.387 . S
H665 C677 0.930 . S
H666 C679 0.930 . S
H667 C680 0.930 . S
H668 C684 0.959 . S
H669 C684 0.959 . S
H670 C684 0.961 . S
H671 C685 0.960 . S
H672 C685 0.961 . S
H673 C685 0.959 . S
H674 C688 0.929 . S
H675 C689 0.931 . S
H676 C691 0.930 . S
C677 H665 0.930 . S
C677 C678 1.399 . S
C677 C682 1.399 . S
C678 C677 1.399 . S
C678 C679 1.376 . S
C679 H666 0.930 . S
C679 C678 1.376 . S
C679 C680 1.388 . S
C680 H667 0.930 . S
C680 C679 1.388 . S
C680 C681 1.390 . S
C681 C680 1.390 . S
C681 C682 1.394 . S
C681 C687 1.465 . S
C682 C677 1.399 . S
C682 C681 1.394 . S
C682 C683 1.516 . S
C683 C682 1.516 . S
C683 C684 1.502 . S
C683 C685 1.561 . S
C683 C686 1.526 . S
C684 H668 0.959 . S
C684 H669 0.959 . S
C684 H670 0.961 . S
C684 C683 1.502 . S
C685 H671 0.960 . S
C685 H672 0.961 . S
C685 H673 0.959 . S
C685 C683 1.561 . S
C686 C683 1.526 . S
C686 C687 1.396 . S
C686 C691 1.390 . S
C687 C681 1.465 . S
C687 C686 1.396 . S
C687 C688 1.399 . S
C688 H674 0.929 . S
C688 C687 1.399 . S
C688 C689 1.385 . S
C689 H675 0.931 . S
C689 C688 1.385 . S
C689 C690 1.389 . S
C690 C689 1.389 . S
C690 C691 1.387 . S
C691 H676 0.930 . S
C691 C686 1.390 . S
C691 C690 1.387 . S
H692 C704 0.930 . S
H693 C706 0.930 . S
H694 C707 0.930 . S
H695 C711 0.959 . S
H696 C711 0.959 . S
H697 C711 0.961 . S
H698 C712 0.960 . S
H699 C712 0.961 . S
H700 C712 0.959 . S
H701 C715 0.929 . S
H702 C716 0.931 . S
H703 C718 0.930 . S
C704 H692 0.930 . S
C704 C705 1.399 . S
C704 C709 1.399 . S
C705 C704 1.399 . S
C705 C706 1.376 . S
C706 H693 0.930 . S
C706 C705 1.376 . S
C706 C707 1.388 . S
C707 H694 0.930 . S
C707 C706 1.388 . S
C707 C708 1.390 . S
C708 C707 1.390 . S
C708 C709 1.394 . S
C708 C714 1.465 . S
C709 C704 1.399 . S
C709 C708 1.394 . S
C709 C710 1.516 . S
C710 C709 1.516 . S
C710 C711 1.502 . S
C710 C712 1.561 . S
C710 C713 1.526 . S
C711 H695 0.959 . S
C711 H696 0.959 . S
C711 H697 0.961 . S
C711 C710 1.502 . S
C712 H698 0.960 . S
C712 H699 0.961 . S
C712 H700 0.959 . S
C712 C710 1.561 . S
C713 C710 1.526 . S
C713 C714 1.396 . S
C713 C718 1.390 . S
C714 C708 1.465 . S
C714 C713 1.396 . S
C714 C715 1.399 . S
C715 H701 0.929 . S
C715 C714 1.399 . S
C715 C716 1.385 . S
C716 H702 0.931 . S
C716 C715 1.385 . S
C716 C717 1.389 . S
C717 C716 1.389 . S
C717 C718 1.387 . S
C718 H703 0.930 . S
C718 C713 1.390 . S
C718 C717 1.387 . S
H719 C731 0.930 . S
H720 C733 0.930 . S
H721 C734 0.930 . S
H722 C738 0.959 . S
H723 C738 0.959 . S
H724 C738 0.961 . S
H725 C739 0.960 . S
H726 C739 0.961 . S
H727 C739 0.959 . S
H728 C742 0.929 . S
H729 C743 0.931 . S
H730 C745 0.930 . S
C731 H719 0.930 . S
C731 C732 1.399 . S
C731 C736 1.399 . S
C732 C731 1.399 . S
C732 C733 1.376 . S
C733 H720 0.930 . S
C733 C732 1.376 . S
C733 C734 1.388 . S
C734 H721 0.930 . S
C734 C733 1.388 . S
C734 C735 1.390 . S
C735 C734 1.390 . S
C735 C736 1.394 . S
C735 C741 1.465 . S
C736 C731 1.399 . S
C736 C735 1.394 . S
C736 C737 1.516 . S
C737 C736 1.516 . S
C737 C738 1.502 . S
C737 C739 1.561 . S
C737 C740 1.526 . S
C738 H722 0.959 . S
C738 H723 0.959 . S
C738 H724 0.961 . S
C738 C737 1.502 . S
C739 H725 0.960 . S
C739 H726 0.961 . S
C739 H727 0.959 . S
C739 C737 1.561 . S
C740 C737 1.526 . S
C740 C741 1.396 . S
C740 C745 1.390 . S
C741 C735 1.465 . S
C741 C740 1.396 . S
C741 C742 1.399 . S
C742 H728 0.929 . S
C742 C741 1.399 . S
C742 C743 1.385 . S
C743 H729 0.931 . S
C743 C742 1.385 . S
C743 C744 1.389 . S
C744 C743 1.389 . S
C744 C745 1.387 . S
C745 H730 0.930 . S
C745 C740 1.390 . S
C745 C744 1.387 . S
H746 C758 0.930 . S
H747 C760 0.930 . S
H748 C761 0.930 . S
H749 C765 0.959 . S
H750 C765 0.959 . S
H751 C765 0.961 . S
H752 C766 0.960 . S
H753 C766 0.961 . S
H754 C766 0.959 . S
H755 C769 0.929 . S
H756 C770 0.931 . S
H757 C772 0.930 . S
C758 H746 0.930 . S
C758 C759 1.399 . S
C758 C763 1.399 . S
C759 C758 1.399 . S
C759 C760 1.376 . S
C760 H747 0.930 . S
C760 C759 1.376 . S
C760 C761 1.388 . S
C761 H748 0.930 . S
C761 C760 1.388 . S
C761 C762 1.390 . S
C762 C761 1.390 . S
C762 C763 1.394 . S
C762 C768 1.465 . S
C763 C758 1.399 . S
C763 C762 1.394 . S
C763 C764 1.516 . S
C764 C763 1.516 . S
C764 C765 1.502 . S
C764 C766 1.561 . S
C764 C767 1.526 . S
C765 H749 0.959 . S
C765 H750 0.959 . S
C765 H751 0.961 . S
C765 C764 1.502 . S
C766 H752 0.960 . S
C766 H753 0.961 . S
C766 H754 0.959 . S
C766 C764 1.561 . S
C767 C764 1.526 . S
C767 C768 1.396 . S
C767 C772 1.390 . S
C768 C762 1.465 . S
C768 C767 1.396 . S
C768 C769 1.399 . S
C769 H755 0.929 . S
C769 C768 1.399 . S
C769 C770 1.385 . S
C770 H756 0.931 . S
C770 C769 1.385 . S
C770 C771 1.389 . S
C771 C770 1.389 . S
C771 C772 1.387 . S
C772 H757 0.930 . S
C772 C767 1.390 . S
C772 C771 1.387 . S
H773 C785 0.930 . S
H774 C787 0.930 . S
H775 C788 0.930 . S
H776 C792 0.959 . S
H777 C792 0.959 . S
H778 C792 0.961 . S
H779 C793 0.960 . S
H780 C793 0.961 . S
H781 C793 0.959 . S
H782 C796 0.929 . S
H783 C797 0.931 . S
H784 C799 0.930 . S
C785 H773 0.930 . S
C785 C786 1.399 . S
C785 C790 1.399 . S
C786 C785 1.399 . S
C786 C787 1.376 . S
C787 H774 0.930 . S
C787 C786 1.376 . S
C787 C788 1.388 . S
C788 H775 0.930 . S
C788 C787 1.388 . S
C788 C789 1.390 . S
C789 C788 1.390 . S
C789 C790 1.394 . S
C789 C795 1.465 . S
C790 C785 1.399 . S
C790 C789 1.394 . S
C790 C791 1.516 . S
C791 C790 1.516 . S
C791 C792 1.502 . S
C791 C793 1.561 . S
C791 C794 1.526 . S
C792 H776 0.959 . S
C792 H777 0.959 . S
C792 H778 0.961 . S
C792 C791 1.502 . S
C793 H779 0.960 . S
C793 H780 0.961 . S
C793 H781 0.959 . S
C793 C791 1.561 . S
C794 C791 1.526 . S
C794 C795 1.396 . S
C794 C799 1.390 . S
C795 C789 1.465 . S
C795 C794 1.396 . S
C795 C796 1.399 . S
C796 H782 0.929 . S
C796 C795 1.399 . S
C796 C797 1.385 . S
C797 H783 0.931 . S
C797 C796 1.385 . S
C797 C798 1.389 . S
C798 C797 1.389 . S
C798 C799 1.387 . S
C799 H784 0.930 . S
C799 C794 1.390 . S
C799 C798 1.387 . S
H800 C812 0.930 . S
H801 C814 0.930 . S
H802 C815 0.930 . S
H803 C819 0.959 . S
H804 C819 0.959 . S
H805 C819 0.961 . S
H806 C820 0.960 . S
H807 C820 0.961 . S
H808 C820 0.959 . S
H809 C823 0.929 . S
H810 C824 0.931 . S
H811 C826 0.930 . S
C812 H800 0.930 . S
C812 C813 1.399 . S
C812 C817 1.399 1_556 S
C813 C812 1.399 . S
C813 C814 1.376 . S
C814 H801 0.930 . S
C814 C813 1.376 . S
C814 C815 1.388 . S
C815 H802 0.930 . S
C815 C814 1.388 . S
C815 C816 1.390 1_556 S
C816 C815 1.390 1_554 S
C816 C817 1.394 . S
C816 C822 1.465 . S
C817 C812 1.399 1_554 S
C817 C816 1.394 . S
C817 C818 1.516 . S
C818 C817 1.516 . S
C818 C819 1.502 . S
C818 C820 1.561 . S
C818 C821 1.526 . S
C819 H803 0.959 . S
C819 H804 0.959 . S
C819 H805 0.961 . S
C819 C818 1.502 . S
C820 H806 0.960 . S
C820 H807 0.961 . S
C820 H808 0.959 . S
C820 C818 1.561 . S
C821 C818 1.526 . S
C821 C822 1.396 . S
C821 C826 1.390 . S
C822 C816 1.465 . S
C822 C821 1.396 . S
C822 C823 1.399 . S
C823 H809 0.929 . S
C823 C822 1.399 . S
C823 C824 1.385 . S
C824 H810 0.931 . S
C824 C823 1.385 . S
C824 C825 1.389 . S
C825 C824 1.389 . S
C825 C826 1.387 . S
C826 H811 0.930 . S
C826 C821 1.390 . S
C826 C825 1.387 . S
H827 C839 0.930 . S
H828 C841 0.930 . S
H829 C842 0.930 . S
H830 C846 0.959 . S
H831 C846 0.959 . S
H832 C846 0.961 . S
H833 C847 0.960 1_455 S
H834 C847 0.961 1_455 S
H835 C847 0.959 . S
H836 C850 0.929 . S
H837 C851 0.931 . S
H838 C853 0.930 . S
C839 H827 0.930 . S
C839 C840 1.399 . S
C839 C844 1.399 . S
C840 C839 1.399 . S
C840 C841 1.376 1_455 S
C841 H828 0.930 . S
C841 C840 1.376 1_655 S
C841 C842 1.388 . S
C842 H829 0.930 . S
C842 C841 1.388 . S
C842 C843 1.390 . S
C843 C842 1.390 . S
C843 C844 1.394 1_655 S
C843 C849 1.465 . S
C844 C839 1.399 . S
C844 C843 1.394 1_455 S
C844 C845 1.516 . S
C845 C844 1.516 . S
C845 C846 1.502 . S
C845 C847 1.561 1_455 S
C845 C848 1.526 . S
C846 H830 0.959 . S
C846 H831 0.959 . S
C846 H832 0.961 . S
C846 C845 1.502 . S
C847 H833 0.960 1_655 S
C847 H834 0.961 1_655 S
C847 H835 0.959 . S
C847 C845 1.561 1_655 S
C848 C845 1.526 . S
C848 C849 1.396 1_455 S
C848 C853 1.390 . S
C849 C843 1.465 . S
C849 C848 1.396 1_655 S
C849 C850 1.399 . S
C850 H836 0.929 . S
C850 C849 1.399 . S
C850 C851 1.385 . S
C851 H837 0.931 . S
C851 C850 1.385 . S
C851 C852 1.389 1_655 S
C852 C851 1.389 1_455 S
C852 C853 1.387 . S
C853 H838 0.930 . S
C853 C848 1.390 . S
C853 C852 1.387 . S
H854 C866 0.930 . S
H855 C868 0.930 . S
H856 C869 0.930 . S
H857 C873 0.959 . S
H858 C873 0.959 . S
H859 C873 0.961 . S
H860 C874 0.960 . S
H861 C874 0.961 . S
H862 C874 0.959 . S
H863 C877 0.929 . S
H864 C878 0.931 . S
H865 C880 0.930 . S
C866 H854 0.930 . S
C866 C867 1.399 . S
C866 C871 1.399 1_556 S
C867 C866 1.399 . S
C867 C868 1.376 1_545 S
C868 H855 0.930 . S
C868 C867 1.376 1_565 S
C868 C869 1.388 . S
C869 H856 0.930 . S
C869 C868 1.388 . S
C869 C870 1.390 1_556 S
C870 C869 1.390 1_554 S
C870 C871 1.394 1_565 S
C870 C876 1.465 . S
C871 C866 1.399 1_554 S
C871 C870 1.394 1_545 S
C871 C872 1.516 . S
C872 C871 1.516 . S
C872 C873 1.502 . S
C872 C874 1.561 . S
C872 C875 1.526 . S
C873 H857 0.959 . S
C873 H858 0.959 . S
C873 H859 0.961 . S
C873 C872 1.502 . S
C874 H860 0.960 . S
C874 H861 0.961 . S
C874 H862 0.959 . S
C874 C872 1.561 . S
C875 C872 1.526 . S
C875 C876 1.396 1_545 S
C875 C880 1.390 . S
C876 C870 1.465 . S
C876 C875 1.396 1_565 S
C876 C877 1.399 . S
C877 H863 0.929 . S
C877 C876 1.399 . S
C877 C878 1.385 . S
C878 H864 0.931 . S
C878 C877 1.385 . S
C878 C879 1.389 1_565 S
C879 C878 1.389 1_545 S
C879 C880 1.387 . S
C880 H865 0.930 . S
C880 C875 1.390 . S
C880 C879 1.387 . S
H881 C893 0.930 . S
H882 C895 0.930 . S
H883 C896 0.930 . S
H884 C900 0.959 . S
H885 C900 0.959 . S
H886 C900 0.961 . S
H887 C901 0.960 . S
H888 C901 0.961 . S
H889 C901 0.959 . S
H890 C904 0.929 . S
H891 C905 0.931 . S
H892 C907 0.930 . S
C893 H881 0.930 . S
C893 C894 1.399 . S
C893 C898 1.399 . S
C894 C893 1.399 . S
C894 C895 1.376 . S
C895 H882 0.930 . S
C895 C894 1.376 . S
C895 C896 1.388 . S
C896 H883 0.930 . S
C896 C895 1.388 . S
C896 C897 1.390 . S
C897 C896 1.390 . S
C897 C898 1.394 . S
C897 C903 1.465 . S
C898 C893 1.399 . S
C898 C897 1.394 . S
C898 C899 1.516 . S
C899 C898 1.516 . S
C899 C900 1.502 . S
C899 C901 1.561 . S
C899 C902 1.526 . S
C900 H884 0.959 . S
C900 H885 0.959 . S
C900 H886 0.961 . S
C900 C899 1.502 . S
C901 H887 0.960 . S
C901 H888 0.961 . S
C901 H889 0.959 . S
C901 C899 1.561 . S
C902 C899 1.526 . S
C902 C903 1.396 . S
C902 C907 1.390 . S
C903 C897 1.465 . S
C903 C902 1.396 . S
C903 C904 1.399 . S
C904 H890 0.929 . S
C904 C903 1.399 . S
C904 C905 1.385 . S
C905 H891 0.931 . S
C905 C904 1.385 . S
C905 C906 1.389 . S
C906 C905 1.389 . S
C906 C907 1.387 . S
C907 H892 0.930 . S
C907 C902 1.390 . S
C907 C906 1.387 . S
H908 C920 0.930 . S
H909 C922 0.930 . S
H910 C923 0.930 . S
H911 C927 0.959 . S
H912 C927 0.959 . S
H913 C927 0.961 . S
H914 C928 0.960 . S
H915 C928 0.961 . S
H916 C928 0.959 . S
H917 C931 0.929 . S
H918 C932 0.931 . S
H919 C934 0.930 . S
C920 H908 0.930 . S
C920 C921 1.399 . S
C920 C925 1.399 . S
C921 C920 1.399 . S
C921 C922 1.376 . S
C922 H909 0.930 . S
C922 C921 1.376 . S
C922 C923 1.388 . S
C923 H910 0.930 . S
C923 C922 1.388 . S
C923 C924 1.390 . S
C924 C923 1.390 . S
C924 C925 1.394 . S
C924 C930 1.465 . S
C925 C920 1.399 . S
C925 C924 1.394 . S
C925 C926 1.516 . S
C926 C925 1.516 . S
C926 C927 1.502 . S
C926 C928 1.561 . S
C926 C929 1.526 . S
C927 H911 0.959 . S
C927 H912 0.959 . S
C927 H913 0.961 . S
C927 C926 1.502 . S
C928 H914 0.960 . S
C928 H915 0.961 . S
C928 H916 0.959 . S
C928 C926 1.561 . S
C929 C926 1.526 . S
C929 C930 1.396 . S
C929 C934 1.390 . S
C930 C924 1.465 . S
C930 C929 1.396 . S
C930 C931 1.399 . S
C931 H917 0.929 . S
C931 C930 1.399 . S
C931 C932 1.385 . S
C932 H918 0.931 . S
C932 C931 1.385 . S
C932 C933 1.389 . S
C933 C932 1.389 . S
C933 C934 1.387 . S
C934 H919 0.930 . S
C934 C929 1.390 . S
C934 C933 1.387 . S
H935 C947 0.925 1_455 S
H936 C949 0.930 . S
H937 C950 0.930 . S
H938 C954 0.959 . S
H939 C954 0.959 . S
H940 C954 0.961 . S
H941 C955 0.960 . S
H942 C955 0.961 . S
H943 C955 0.959 . S
H944 C958 0.929 . S
H945 C959 0.931 . S
H946 C961 0.930 1_455 S
C947 H935 0.925 1_655 S
C947 C948 1.402 . S
C947 C952 1.401 . S
C948 C947 1.402 . S
C948 C949 1.376 . S
C949 H936 0.930 . S
C949 C948 1.376 . S
C949 C950 1.388 . S
C950 H937 0.930 . S
C950 C949 1.388 . S
C950 C951 1.390 . S
C951 C950 1.390 . S
C951 C952 1.394 . S
C951 C957 1.465 . S
C952 C947 1.401 . S
C952 C951 1.394 . S
C952 C953 1.516 1_655 S
C953 C952 1.516 1_455 S
C953 C954 1.506 . S
C953 C955 1.558 1_455 S
C953 C956 1.525 1_455 S
C954 H938 0.959 . S
C954 H939 0.959 . S
C954 H940 0.961 . S
C954 C953 1.506 . S
C955 H941 0.960 . S
C955 H942 0.961 . S
C955 H943 0.959 . S
C955 C953 1.558 1_655 S
C956 C953 1.525 1_655 S
C956 C957 1.396 . S
C956 C961 1.390 1_556 S
C957 C951 1.465 . S
C957 C956 1.396 . S
C957 C958 1.399 . S
C958 H944 0.929 . S
C958 C957 1.399 . S
C958 C959 1.385 1_556 S
C959 H945 0.931 . S
C959 C958 1.385 1_554 S
C959 C960 1.389 . S
C960 C959 1.389 . S
C960 C961 1.387 . S
C961 H946 0.930 1_655 S
C961 C956 1.390 1_554 S
C961 C960 1.387 . S
H962 C974 0.930 . S
H963 C976 0.930 . S
H964 C977 0.930 . S
H965 C981 0.959 . S
H966 C981 0.959 . S
H967 C981 0.961 . S
H968 C982 0.960 . S
H969 C982 0.961 . S
H970 C982 0.959 . S
H971 C985 0.929 . S
H972 C986 0.931 . S
H973 C988 0.930 . S
C974 H962 0.930 . S
C974 C975 1.399 1_545 S
C974 C979 1.399 . S
C975 C974 1.399 1_565 S
C975 C976 1.376 . S
C976 H963 0.930 . S
C976 C975 1.376 . S
C976 C977 1.388 . S
C977 H964 0.930 . S
C977 C976 1.388 . S
C977 C978 1.390 . S
C978 C977 1.390 . S
C978 C979 1.394 1_565 S
C978 C984 1.465 . S
C979 C974 1.399 . S
C979 C978 1.394 1_545 S
C979 C980 1.516 . S
C980 C979 1.516 . S
C980 C981 1.502 . S
C980 C982 1.561 . S
C980 C983 1.526 . S
C981 H965 0.959 . S
C981 H966 0.959 . S
C981 H967 0.961 . S
C981 C980 1.502 . S
C982 H968 0.960 . S
C982 H969 0.961 . S
C982 H970 0.959 . S
C982 C980 1.561 . S
C983 C980 1.526 . S
C983 C984 1.396 1_545 S
C983 C988 1.390 . S
C984 C978 1.465 . S
C984 C983 1.396 1_565 S
C984 C985 1.399 . S
C985 H971 0.929 . S
C985 C984 1.399 . S
C985 C986 1.385 . S
C986 H972 0.931 . S
C986 C985 1.385 . S
C986 C987 1.389 . S
C987 C986 1.389 . S
C987 C988 1.387 1_565 S
C988 H973 0.930 . S
C988 C983 1.390 . S
C988 C987 1.387 1_545 S
H989 C1001 0.930 . S
H990 C1003 0.930 . S
H991 C1004 0.930 . S
H992 C1008 0.959 . S
H993 C1008 0.959 . S
H994 C1008 0.961 . S
H995 C1009 0.960 . S
H996 C1009 0.961 . S
H997 C1009 0.959 . S
H998 C1012 0.929 . S
H999 C1013 0.931 . S
H1000 C1015 0.930 . S
C1001 H989 0.930 . S
C1001 C1002 1.399 . S
C1001 C1006 1.399 1_554 S
C1002 C1001 1.399 . S
C1002 C1003 1.376 . S
C1003 H990 0.930 . S
C1003 C1002 1.376 . S
C1003 C1004 1.388 . S
C1004 H991 0.930 . S
C1004 C1003 1.388 . S
C1004 C1005 1.390 1_554 S
C1005 C1004 1.390 1_556 S
C1005 C1006 1.394 . S
C1005 C1011 1.465 . S
C1006 C1001 1.399 1_556 S
C1006 C1005 1.394 . S
C1006 C1007 1.516 . S
C1007 C1006 1.516 . S
C1007 C1008 1.502 . S
C1007 C1009 1.561 . S
C1007 C1010 1.526 . S
C1008 H992 0.959 . S
C1008 H993 0.959 . S
C1008 H994 0.961 . S
C1008 C1007 1.502 . S
C1009 H995 0.960 . S
C1009 H996 0.961 . S
C1009 H997 0.959 . S
C1009 C1007 1.561 . S
C1010 C1007 1.526 . S
C1010 C1011 1.396 . S
C1010 C1015 1.390 . S
C1011 C1005 1.465 . S
C1011 C1010 1.396 . S
C1011 C1012 1.399 . S
C1012 H998 0.929 . S
C1012 C1011 1.399 . S
C1012 C1013 1.385 . S
C1013 H999 0.931 . S
C1013 C1012 1.385 . S
C1013 C1014 1.389 . S
C1014 C1013 1.389 . S
C1014 C1015 1.387 . S
C1015 H1000 0.930 . S
C1015 C1010 1.390 . S
C1015 C1014 1.387 . S
H1016 C1028 0.930 . S
H1017 C1030 0.930 . S
H1018 C1031 0.930 . S
H1019 C1035 0.959 . S
H1020 C1035 0.959 . S
H1021 C1035 0.961 . S
H1022 C1036 0.960 . S
H1023 C1036 0.961 . S
H1024 C1036 0.959 . S
H1025 C1039 0.929 . S
H1026 C1040 0.931 . S
H1027 C1042 0.930 . S
C1028 H1016 0.930 . S
C1028 C1029 1.399 . S
C1028 C1033 1.399 . S
C1029 C1028 1.399 . S
C1029 C1030 1.376 . S
C1030 H1017 0.930 . S
C1030 C1029 1.376 . S
C1030 C1031 1.388 . S
C1031 H1018 0.930 . S
C1031 C1030 1.388 . S
C1031 C1032 1.390 . S
C1032 C1031 1.390 . S
C1032 C1033 1.394 . S
C1032 C1038 1.465 . S
C1033 C1028 1.399 . S
C1033 C1032 1.394 . S
C1033 C1034 1.516 . S
C1034 C1033 1.516 . S
C1034 C1035 1.502 . S
C1034 C1036 1.561 . S
C1034 C1037 1.526 . S
C1035 H1019 0.959 . S
C1035 H1020 0.959 . S
C1035 H1021 0.961 . S
C1035 C1034 1.502 . S
C1036 H1022 0.960 . S
C1036 H1023 0.961 . S
C1036 H1024 0.959 . S
C1036 C1034 1.561 . S
C1037 C1034 1.526 . S
C1037 C1038 1.396 . S
C1037 C1042 1.390 1_556 S
C1038 C1032 1.465 . S
C1038 C1037 1.396 . S
C1038 C1039 1.399 1_556 S
C1039 H1025 0.929 . S
C1039 C1038 1.399 1_554 S
C1039 C1040 1.385 . S
C1040 H1026 0.931 . S
C1040 C1039 1.385 . S
C1040 C1041 1.389 . S
C1041 C1040 1.389 . S
C1041 C1042 1.387 . S
C1042 H1027 0.930 . S
C1042 C1037 1.390 1_554 S
C1042 C1041 1.387 . S
H1043 C1055 0.930 . S
H1044 C1057 0.930 . S
H1045 C1058 0.930 . S
H1046 C1062 0.959 . S
H1047 C1062 0.959 . S
H1048 C1062 0.961 . S
H1049 C1063 0.960 . S
H1050 C1063 0.961 . S
H1051 C1063 0.959 1_455 S
H1052 C1066 0.929 . S
H1053 C1067 0.931 . S
H1054 C1069 0.930 . S
C1055 H1043 0.930 . S
C1055 C1056 1.399 . S
C1055 C1060 1.399 . S
C1056 C1055 1.399 . S
C1056 C1057 1.376 1_655 S
C1057 H1044 0.930 . S
C1057 C1056 1.376 1_455 S
C1057 C1058 1.388 . S
C1058 H1045 0.930 . S
C1058 C1057 1.388 . S
C1058 C1059 1.390 . S
C1059 C1058 1.390 . S
C1059 C1060 1.394 1_455 S
C1059 C1065 1.465 . S
C1060 C1055 1.399 . S
C1060 C1059 1.394 1_655 S
C1060 C1061 1.516 . S
C1061 C1060 1.516 . S
C1061 C1062 1.502 . S
C1061 C1063 1.561 . S
C1061 C1064 1.526 . S
C1062 H1046 0.959 . S
C1062 H1047 0.959 . S
C1062 H1048 0.961 . S
C1062 C1061 1.502 . S
C1063 H1049 0.960 . S
C1063 H1050 0.961 . S
C1063 H1051 0.959 1_655 S
C1063 C1061 1.561 . S
C1064 C1061 1.526 . S
C1064 C1065 1.396 1_655 S
C1064 C1069 1.390 . S
C1065 C1059 1.465 . S
C1065 C1064 1.396 1_455 S
C1065 C1066 1.399 . S
C1066 H1052 0.929 . S
C1066 C1065 1.399 . S
C1066 C1067 1.385 . S
C1067 H1053 0.931 . S
C1067 C1066 1.385 . S
C1067 C1068 1.389 1_455 S
C1068 C1067 1.389 1_655 S
C1068 C1069 1.387 . S
C1069 H1054 0.930 . S
C1069 C1064 1.390 . S
C1069 C1068 1.387 . S
H1070 C1082 0.930 . S
H1071 C1084 0.930 . S
H1072 C1085 0.930 . S
H1073 C1089 0.959 . S
H1074 C1089 0.959 . S
H1075 C1089 0.961 . S
H1076 C1090 0.960 . S
H1077 C1090 0.961 . S
H1078 C1090 0.959 . S
H1079 C1093 0.929 . S
H1080 C1094 0.931 . S
H1081 C1096 0.930 . S
C1082 H1070 0.930 . S
C1082 C1083 1.399 1_545 S
C1082 C1087 1.399 1_554 S
C1083 C1082 1.399 1_565 S
C1083 C1084 1.376 . S
C1084 H1071 0.930 . S
C1084 C1083 1.376 . S
C1084 C1085 1.388 . S
C1085 H1072 0.930 . S
C1085 C1084 1.388 . S
C1085 C1086 1.390 1_554 S
C1086 C1085 1.390 1_556 S
C1086 C1087 1.394 1_565 S
C1086 C1092 1.465 . S
C1087 C1082 1.399 1_556 S
C1087 C1086 1.394 1_545 S
C1087 C1088 1.516 . S
C1088 C1087 1.516 . S
C1088 C1089 1.502 . S
C1088 C1090 1.561 . S
C1088 C1091 1.526 . S
C1089 H1073 0.959 . S
C1089 H1074 0.959 . S
C1089 H1075 0.961 . S
C1089 C1088 1.502 . S
C1090 H1076 0.960 . S
C1090 H1077 0.961 . S
C1090 H1078 0.959 . S
C1090 C1088 1.561 . S
C1091 C1088 1.526 . S
C1091 C1092 1.396 1_545 S
C1091 C1096 1.390 . S
C1092 C1086 1.465 . S
C1092 C1091 1.396 1_565 S
C1092 C1093 1.399 . S
C1093 H1079 0.929 . S
C1093 C1092 1.399 . S
C1093 C1094 1.385 . S
C1094 H1080 0.931 . S
C1094 C1093 1.385 . S
C1094 C1095 1.389 . S
C1095 C1094 1.389 . S
C1095 C1096 1.387 1_565 S
C1096 H1081 0.930 . S
C1096 C1091 1.390 . S
C1096 C1095 1.387 1_545 S
H1097 C1109 0.930 . S
H1098 C1111 0.930 . S
H1099 C1112 0.930 . S
H1100 C1116 0.959 . S
H1101 C1116 0.959 . S
H1102 C1116 0.961 . S
H1103 C1117 0.960 . S
H1104 C1117 0.961 . S
H1105 C1117 0.959 . S
H1106 C1120 0.929 . S
H1107 C1121 0.931 . S
H1108 C1123 0.930 . S
C1109 H1097 0.930 . S
C1109 C1110 1.399 . S
C1109 C1114 1.399 . S
C1110 C1109 1.399 . S
C1110 C1111 1.376 . S
C1111 H1098 0.930 . S
C1111 C1110 1.376 . S
C1111 C1112 1.388 . S
C1112 H1099 0.930 . S
C1112 C1111 1.388 . S
C1112 C1113 1.390 . S
C1113 C1112 1.390 . S
C1113 C1114 1.394 . S
C1113 C1119 1.465 . S
C1114 C1109 1.399 . S
C1114 C1113 1.394 . S
C1114 C1115 1.516 . S
C1115 C1114 1.516 . S
C1115 C1116 1.502 . S
C1115 C1117 1.561 . S
C1115 C1118 1.526 . S
C1116 H1100 0.959 . S
C1116 H1101 0.959 . S
C1116 H1102 0.961 . S
C1116 C1115 1.502 . S
C1117 H1103 0.960 . S
C1117 H1104 0.961 . S
C1117 H1105 0.959 . S
C1117 C1115 1.561 . S
C1118 C1115 1.526 . S
C1118 C1119 1.396 . S
C1118 C1123 1.390 . S
C1119 C1113 1.465 . S
C1119 C1118 1.396 . S
C1119 C1120 1.399 . S
C1120 H1106 0.929 . S
C1120 C1119 1.399 . S
C1120 C1121 1.385 . S
C1121 H1107 0.931 . S
C1121 C1120 1.385 . S
C1121 C1122 1.389 . S
C1122 C1121 1.389 . S
C1122 C1123 1.387 . S
C1123 H1108 0.930 . S
C1123 C1118 1.390 . S
C1123 C1122 1.387 . S
H1124 C1136 0.930 . S
H1125 C1138 0.930 . S
H1126 C1139 0.930 . S
H1127 C1143 0.959 . S
H1128 C1143 0.959 . S
H1129 C1143 0.961 . S
H1130 C1144 0.960 . S
H1131 C1144 0.961 . S
H1132 C1144 0.959 . S
H1133 C1147 0.929 . S
H1134 C1148 0.931 . S
H1135 C1150 0.930 . S
C1136 H1124 0.930 . S
C1136 C1137 1.399 . S
C1136 C1141 1.399 . S
C1137 C1136 1.399 . S
C1137 C1138 1.376 . S
C1138 H1125 0.930 . S
C1138 C1137 1.376 . S
C1138 C1139 1.388 . S
C1139 H1126 0.930 . S
C1139 C1138 1.388 . S
C1139 C1140 1.390 . S
C1140 C1139 1.390 . S
C1140 C1141 1.394 . S
C1140 C1146 1.465 . S
C1141 C1136 1.399 . S
C1141 C1140 1.394 . S
C1141 C1142 1.516 . S
C1142 C1141 1.516 . S
C1142 C1143 1.502 . S
C1142 C1144 1.561 . S
C1142 C1145 1.526 . S
C1143 H1127 0.959 . S
C1143 H1128 0.959 . S
C1143 H1129 0.961 . S
C1143 C1142 1.502 . S
C1144 H1130 0.960 . S
C1144 H1131 0.961 . S
C1144 H1132 0.959 . S
C1144 C1142 1.561 . S
C1145 C1142 1.526 . S
C1145 C1146 1.396 . S
C1145 C1150 1.390 . S
C1146 C1140 1.465 . S
C1146 C1145 1.396 . S
C1146 C1147 1.399 . S
C1147 H1133 0.929 . S
C1147 C1146 1.399 . S
C1147 C1148 1.385 . S
C1148 H1134 0.931 . S
C1148 C1147 1.385 . S
C1148 C1149 1.389 . S
C1149 C1148 1.389 . S
C1149 C1150 1.387 . S
C1150 H1135 0.930 . S
C1150 C1145 1.390 . S
C1150 C1149 1.387 . S
H1151 C1163 0.930 . S
H1152 C1165 0.930 . S
H1153 C1166 0.930 . S
H1154 C1170 0.959 . S
H1155 C1170 0.959 . S
H1156 C1170 0.961 . S
H1157 C1171 0.960 . S
H1158 C1171 0.978 . S
H1159 C1171 0.959 . S
H1160 C1174 0.929 . S
H1161 C1175 0.931 . S
H1162 C1177 0.930 . S
C1163 H1151 0.930 . S
C1163 C1164 1.399 . S
C1163 C1168 1.399 . S
C1164 C1163 1.399 . S
C1164 C1165 1.376 1_455 S
C1165 H1152 0.930 . S
C1165 C1164 1.376 1_655 S
C1165 C1166 1.388 . S
C1166 H1153 0.930 . S
C1166 C1165 1.388 . S
C1166 C1167 1.390 . S
C1167 C1166 1.390 . S
C1167 C1168 1.394 1_655 S
C1167 C1173 1.465 . S
C1168 C1163 1.399 . S
C1168 C1167 1.394 1_455 S
C1168 C1169 1.516 . S
C1169 C1168 1.516 . S
C1169 C1170 1.502 . S
C1169 C1171 1.561 1_455 S
C1169 C1172 1.526 . S
C1170 H1154 0.959 . S
C1170 H1155 0.959 . S
C1170 H1156 0.961 . S
C1170 C1169 1.502 . S
C1171 H1157 0.960 . S
C1171 H1158 0.978 . S
C1171 H1159 0.959 . S
C1171 C1169 1.561 1_655 S
C1172 C1169 1.526 . S
C1172 C1173 1.396 1_455 S
C1172 C1177 1.390 1_554 S
C1173 C1167 1.465 . S
C1173 C1172 1.396 1_655 S
C1173 C1174 1.399 . S
C1174 H1160 0.929 . S
C1174 C1173 1.399 . S
C1174 C1175 1.385 1_554 S
C1175 H1161 0.931 . S
C1175 C1174 1.385 1_556 S
C1175 C1176 1.389 1_655 S
C1176 C1175 1.389 1_455 S
C1176 C1177 1.387 . S
C1177 H1162 0.930 . S
C1177 C1172 1.390 1_556 S
C1177 C1176 1.387 . S
H1178 C1190 0.930 . S
H1179 C1192 0.930 . S
H1180 C1193 0.930 . S
H1181 C1197 0.959 . S
H1182 C1197 0.959 . S
H1183 C1197 0.961 . S
H1184 C1198 0.960 . S
H1185 C1198 0.961 . S
H1186 C1198 0.959 . S
H1187 C1201 0.929 . S
H1188 C1202 0.931 . S
H1189 C1204 0.930 . S
C1190 H1178 0.930 . S
C1190 C1191 1.399 1_565 S
C1190 C1195 1.399 . S
C1191 C1190 1.399 1_545 S
C1191 C1192 1.376 . S
C1192 H1179 0.930 . S
C1192 C1191 1.376 . S
C1192 C1193 1.388 . S
C1193 H1180 0.930 . S
C1193 C1192 1.388 . S
C1193 C1194 1.390 . S
C1194 C1193 1.390 . S
C1194 C1195 1.394 1_545 S
C1194 C1200 1.465 . S
C1195 C1190 1.399 . S
C1195 C1194 1.394 1_565 S
C1195 C1196 1.516 . S
C1196 C1195 1.516 . S
C1196 C1197 1.502 . S
C1196 C1198 1.561 . S
C1196 C1199 1.526 . S
C1197 H1181 0.959 . S
C1197 H1182 0.959 . S
C1197 H1183 0.961 . S
C1197 C1196 1.502 . S
C1198 H1184 0.960 . S
C1198 H1185 0.961 . S
C1198 H1186 0.959 . S
C1198 C1196 1.561 . S
C1199 C1196 1.526 . S
C1199 C1200 1.396 1_565 S
C1199 C1204 1.390 . S
C1200 C1194 1.465 . S
C1200 C1199 1.396 1_545 S
C1200 C1201 1.399 . S
C1201 H1187 0.929 . S
C1201 C1200 1.399 . S
C1201 C1202 1.385 . S
C1202 H1188 0.931 . S
C1202 C1201 1.385 . S
C1202 C1203 1.389 . S
C1203 C1202 1.389 . S
C1203 C1204 1.387 1_545 S
C1204 H1189 0.930 . S
C1204 C1199 1.390 . S
C1204 C1203 1.387 1_565 S
H1205 C1217 0.930 . S
H1206 C1219 0.930 . S
H1207 C1220 0.930 . S
H1208 C1224 0.959 . S
H1209 C1224 0.959 . S
H1210 C1224 0.961 . S
H1211 C1225 0.960 . S
H1212 C1225 0.961 . S
H1213 C1225 0.959 . S
H1214 C1228 0.929 . S
H1215 C1229 0.931 . S
H1216 C1231 0.930 . S
C1217 H1205 0.930 . S
C1217 C1218 1.399 . S
C1217 C1222 1.399 1_556 S
C1218 C1217 1.399 . S
C1218 C1219 1.376 . S
C1219 H1206 0.930 . S
C1219 C1218 1.376 . S
C1219 C1220 1.388 . S
C1220 H1207 0.930 . S
C1220 C1219 1.388 . S
C1220 C1221 1.390 1_556 S
C1221 C1220 1.390 1_554 S
C1221 C1222 1.394 . S
C1221 C1227 1.465 . S
C1222 C1217 1.399 1_554 S
C1222 C1221 1.394 . S
C1222 C1223 1.516 . S
C1223 C1222 1.516 . S
C1223 C1224 1.502 . S
C1223 C1225 1.561 . S
C1223 C1226 1.526 . S
C1224 H1208 0.959 . S
C1224 H1209 0.959 . S
C1224 H1210 0.961 . S
C1224 C1223 1.502 . S
C1225 H1211 0.960 . S
C1225 H1212 0.961 . S
C1225 H1213 0.959 . S
C1225 C1223 1.561 . S
C1226 C1223 1.526 . S
C1226 C1227 1.396 . S
C1226 C1231 1.390 . S
C1227 C1221 1.465 . S
C1227 C1226 1.396 . S
C1227 C1228 1.399 . S
C1228 H1214 0.929 . S
C1228 C1227 1.399 . S
C1228 C1229 1.385 . S
C1229 H1215 0.931 . S
C1229 C1228 1.385 . S
C1229 C1230 1.389 . S
C1230 C1229 1.389 . S
C1230 C1231 1.387 . S
C1231 H1216 0.930 . S
C1231 C1226 1.390 . S
C1231 C1230 1.387 . S
H1232 C1244 0.930 . S
H1233 C1246 0.930 . S
H1234 C1247 0.930 . S
H1235 C1251 0.959 . S
H1236 C1251 0.959 . S
H1237 C1251 0.961 . S
H1238 C1252 0.960 . S
H1239 C1252 0.961 . S
H1240 C1252 0.959 . S
H1241 C1255 0.929 . S
H1242 C1256 0.931 . S
H1243 C1258 0.930 . S
C1244 H1232 0.930 . S
C1244 C1245 1.399 . S
C1244 C1249 1.399 . S
C1245 C1244 1.399 . S
C1245 C1246 1.376 . S
C1246 H1233 0.930 . S
C1246 C1245 1.376 . S
C1246 C1247 1.388 . S
C1247 H1234 0.930 . S
C1247 C1246 1.388 . S
C1247 C1248 1.390 . S
C1248 C1247 1.390 . S
C1248 C1249 1.394 . S
C1248 C1254 1.465 . S
C1249 C1244 1.399 . S
C1249 C1248 1.394 . S
C1249 C1250 1.516 . S
C1250 C1249 1.516 . S
C1250 C1251 1.502 . S
C1250 C1252 1.561 . S
C1250 C1253 1.526 . S
C1251 H1235 0.959 . S
C1251 H1236 0.959 . S
C1251 H1237 0.961 . S
C1251 C1250 1.502 . S
C1252 H1238 0.960 . S
C1252 H1239 0.961 . S
C1252 H1240 0.959 . S
C1252 C1250 1.561 . S
C1253 C1250 1.526 . S
C1253 C1254 1.396 . S
C1253 C1258 1.390 . S
C1254 C1248 1.465 . S
C1254 C1253 1.396 . S
C1254 C1255 1.399 . S
C1255 H1241 0.929 . S
C1255 C1254 1.399 . S
C1255 C1256 1.385 . S
C1256 H1242 0.931 . S
C1256 C1255 1.385 . S
C1256 C1257 1.389 . S
C1257 C1256 1.389 . S
C1257 C1258 1.387 . S
C1258 H1243 0.930 . S
C1258 C1253 1.390 . S
C1258 C1257 1.387 . S
H1259 C1271 0.930 . S
H1260 C1273 0.930 . S
H1261 C1274 0.930 . S
H1262 C1278 0.959 . S
H1263 C1278 0.959 . S
H1264 C1278 0.961 . S
H1265 C1279 0.960 . S
H1266 C1279 0.961 . S
H1267 C1279 0.959 . S
H1268 C1282 0.929 . S
H1269 C1283 0.931 . S
H1270 C1285 0.930 . S
C1271 H1259 0.930 . S
C1271 C1272 1.399 . S
C1271 C1276 1.399 . S
C1272 C1271 1.399 . S
C1272 C1273 1.376 . S
C1273 H1260 0.930 . S
C1273 C1272 1.376 . S
C1273 C1274 1.388 . S
C1274 H1261 0.930 . S
C1274 C1273 1.388 . S
C1274 C1275 1.390 . S
C1275 C1274 1.390 . S
C1275 C1276 1.394 . S
C1275 C1281 1.465 . S
C1276 C1271 1.399 . S
C1276 C1275 1.394 . S
C1276 C1277 1.516 . S
C1277 C1276 1.516 . S
C1277 C1278 1.502 . S
C1277 C1279 1.561 . S
C1277 C1280 1.526 . S
C1278 H1262 0.959 . S
C1278 H1263 0.959 . S
C1278 H1264 0.961 . S
C1278 C1277 1.502 . S
C1279 H1265 0.960 . S
C1279 H1266 0.961 . S
C1279 H1267 0.959 . S
C1279 C1277 1.561 . S
C1280 C1277 1.526 . S
C1280 C1281 1.396 . S
C1280 C1285 1.390 . S
C1281 C1275 1.465 . S
C1281 C1280 1.396 . S
C1281 C1282 1.399 . S
C1282 H1268 0.929 . S
C1282 C1281 1.399 . S
C1282 C1283 1.385 . S
C1283 H1269 0.931 . S
C1283 C1282 1.385 . S
C1283 C1284 1.389 . S
C1284 C1283 1.389 . S
C1284 C1285 1.387 . S
C1285 H1270 0.930 . S
C1285 C1280 1.390 . S
C1285 C1284 1.387 . S
H1286 C1298 0.930 . S
H1287 C1300 0.930 . S
H1288 C1301 0.930 . S
H1289 C1305 0.959 . S
H1290 C1305 0.959 . S
H1291 C1305 0.961 . S
H1292 C1306 0.960 . S
H1293 C1306 0.961 . S
H1294 C1306 0.959 . S
H1295 C1309 0.929 . S
H1296 C1310 0.931 . S
H1297 C1312 0.930 . S
C1298 H1286 0.930 . S
C1298 C1299 1.399 . S
C1298 C1303 1.399 . S
C1299 C1298 1.399 . S
C1299 C1300 1.376 . S
C1300 H1287 0.930 . S
C1300 C1299 1.376 . S
C1300 C1301 1.388 . S
C1301 H1288 0.930 . S
C1301 C1300 1.388 . S
C1301 C1302 1.390 . S
C1302 C1301 1.390 . S
C1302 C1303 1.394 . S
C1302 C1308 1.465 . S
C1303 C1298 1.399 . S
C1303 C1302 1.394 . S
C1303 C1304 1.516 . S
C1304 C1303 1.516 . S
C1304 C1305 1.502 . S
C1304 C1306 1.561 . S
C1304 C1307 1.526 . S
C1305 H1289 0.959 . S
C1305 H1290 0.959 . S
C1305 H1291 0.961 . S
C1305 C1304 1.502 . S
C1306 H1292 0.960 . S
C1306 H1293 0.961 . S
C1306 H1294 0.959 . S
C1306 C1304 1.561 . S
C1307 C1304 1.526 . S
C1307 C1308 1.396 . S
C1307 C1312 1.390 . S
C1308 C1302 1.465 . S
C1308 C1307 1.396 . S
C1308 C1309 1.399 . S
C1309 H1295 0.929 . S
C1309 C1308 1.399 . S
C1309 C1310 1.385 . S
C1310 H1296 0.931 . S
C1310 C1309 1.385 . S
C1310 C1311 1.389 . S
C1311 C1310 1.389 . S
C1311 C1312 1.387 . S
C1312 H1297 0.930 . S
C1312 C1307 1.390 . S
C1312 C1311 1.387 . S
H1313 C1325 0.930 . S
H1314 C1327 0.930 . S
H1315 C1328 0.930 . S
H1316 C1332 0.959 . S
H1317 C1332 0.959 . S
H1318 C1332 0.961 . S
H1319 C1333 0.960 . S
H1320 C1333 0.961 . S
H1321 C1333 0.959 . S
H1322 C1336 0.929 . S
H1323 C1337 0.931 . S
H1324 C1339 0.930 . S
C1325 H1313 0.930 . S
C1325 C1326 1.399 . S
C1325 C1330 1.399 . S
C1326 C1325 1.399 . S
C1326 C1327 1.376 . S
C1327 H1314 0.930 . S
C1327 C1326 1.376 . S
C1327 C1328 1.388 . S
C1328 H1315 0.930 . S
C1328 C1327 1.388 . S
C1328 C1329 1.390 . S
C1329 C1328 1.390 . S
C1329 C1330 1.394 . S
C1329 C1335 1.465 . S
C1330 C1325 1.399 . S
C1330 C1329 1.394 . S
C1330 C1331 1.516 . S
C1331 C1330 1.516 . S
C1331 C1332 1.502 . S
C1331 C1333 1.561 . S
C1331 C1334 1.526 . S
C1332 H1316 0.959 . S
C1332 H1317 0.959 . S
C1332 H1318 0.961 . S
C1332 C1331 1.502 . S
C1333 H1319 0.960 . S
C1333 H1320 0.961 . S
C1333 H1321 0.959 . S
C1333 C1331 1.561 . S
C1334 C1331 1.526 . S
C1334 C1335 1.396 . S
C1334 C1339 1.390 . S
C1335 C1329 1.465 . S
C1335 C1334 1.396 . S
C1335 C1336 1.399 . S
C1336 H1322 0.929 . S
C1336 C1335 1.399 . S
C1336 C1337 1.385 . S
C1337 H1323 0.931 . S
C1337 C1336 1.385 . S
C1337 C1338 1.389 . S
C1338 C1337 1.389 . S
C1338 C1339 1.387 . S
C1339 H1324 0.930 . S
C1339 C1334 1.390 . S
C1339 C1338 1.387 . S
H1340 C1352 0.930 . S
H1341 C1354 0.930 . S
H1342 C1355 0.930 . S
H1343 C1359 0.959 . S
H1344 C1359 0.959 . S
H1345 C1359 0.961 . S
H1346 C1360 0.960 . S
H1347 C1360 0.961 . S
H1348 C1360 0.959 . S
H1349 C1363 0.929 . S
H1350 C1364 0.931 . S
H1351 C1366 0.930 . S
C1352 H1340 0.930 . S
C1352 C1353 1.399 . S
C1352 C1357 1.399 . S
C1353 C1352 1.399 . S
C1353 C1354 1.376 . S
C1354 H1341 0.930 . S
C1354 C1353 1.376 . S
C1354 C1355 1.388 . S
C1355 H1342 0.930 . S
C1355 C1354 1.388 . S
C1355 C1356 1.390 . S
C1356 C1355 1.390 . S
C1356 C1357 1.394 . S
C1356 C1362 1.465 . S
C1357 C1352 1.399 . S
C1357 C1356 1.394 . S
C1357 C1358 1.516 . S
C1358 C1357 1.516 . S
C1358 C1359 1.502 . S
C1358 C1360 1.561 . S
C1358 C1361 1.526 . S
C1359 H1343 0.959 . S
C1359 H1344 0.959 . S
C1359 H1345 0.961 . S
C1359 C1358 1.502 . S
C1360 H1346 0.960 . S
C1360 H1347 0.961 . S
C1360 H1348 0.959 . S
C1360 C1358 1.561 . S
C1361 C1358 1.526 . S
C1361 C1362 1.396 . S
C1361 C1366 1.390 . S
C1362 C1356 1.465 . S
C1362 C1361 1.396 . S
C1362 C1363 1.399 . S
C1363 H1349 0.929 . S
C1363 C1362 1.399 . S
C1363 C1364 1.385 . S
C1364 H1350 0.931 . S
C1364 C1363 1.385 . S
C1364 C1365 1.389 . S
C1365 C1364 1.389 . S
C1365 C1366 1.387 . S
C1366 H1351 0.930 . S
C1366 C1361 1.390 . S
C1366 C1365 1.387 . S
H1367 C1379 0.930 . S
H1368 C1381 0.930 . S
H1369 C1382 0.930 . S
H1370 C1386 0.959 . S
H1371 C1386 0.959 . S
H1372 C1386 0.961 . S
H1373 C1387 0.960 . S
H1374 C1387 0.961 . S
H1375 C1387 0.959 . S
H1376 C1390 0.929 . S
H1377 C1391 0.931 . S
H1378 C1393 0.930 . S
C1379 H1367 0.930 . S
C1379 C1380 1.399 . S
C1379 C1384 1.399 . S
C1380 C1379 1.399 . S
C1380 C1381 1.376 . S
C1381 H1368 0.930 . S
C1381 C1380 1.376 . S
C1381 C1382 1.388 . S
C1382 H1369 0.930 . S
C1382 C1381 1.388 . S
C1382 C1383 1.390 . S
C1383 C1382 1.390 . S
C1383 C1384 1.394 . S
C1383 C1389 1.465 . S
C1384 C1379 1.399 . S
C1384 C1383 1.394 . S
C1384 C1385 1.516 . S
C1385 C1384 1.516 . S
C1385 C1386 1.502 . S
C1385 C1387 1.561 . S
C1385 C1388 1.526 . S
C1386 H1370 0.959 . S
C1386 H1371 0.959 . S
C1386 H1372 0.961 . S
C1386 C1385 1.502 . S
C1387 H1373 0.960 . S
C1387 H1374 0.961 . S
C1387 H1375 0.959 . S
C1387 C1385 1.561 . S
C1388 C1385 1.526 . S
C1388 C1389 1.396 . S
C1388 C1393 1.390 . S
C1389 C1383 1.465 . S
C1389 C1388 1.396 . S
C1389 C1390 1.399 . S
C1390 H1376 0.929 . S
C1390 C1389 1.399 . S
C1390 C1391 1.385 . S
C1391 H1377 0.931 . S
C1391 C1390 1.385 . S
C1391 C1392 1.389 . S
C1392 C1391 1.389 . S
C1392 C1393 1.387 . S
C1393 H1378 0.930 . S
C1393 C1388 1.390 . S
C1393 C1392 1.387 . S
H1394 C1406 0.930 . S
H1395 C1408 0.930 . S
H1396 C1409 0.930 . S
H1397 C1413 0.959 . S
H1398 C1413 0.959 . S
H1399 C1413 0.961 . S
H1400 C1414 0.960 . S
H1401 C1414 0.961 . S
H1402 C1414 0.959 . S
H1403 C1417 0.929 . S
H1404 C1418 0.931 . S
H1405 C1420 0.930 . S
C1406 H1394 0.930 . S
C1406 C1407 1.399 . S
C1406 C1411 1.399 . S
C1407 C1406 1.399 . S
C1407 C1408 1.376 . S
C1408 H1395 0.930 . S
C1408 C1407 1.376 . S
C1408 C1409 1.388 . S
C1409 H1396 0.930 . S
C1409 C1408 1.388 . S
C1409 C1410 1.390 . S
C1410 C1409 1.390 . S
C1410 C1411 1.394 . S
C1410 C1416 1.465 . S
C1411 C1406 1.399 . S
C1411 C1410 1.394 . S
C1411 C1412 1.516 . S
C1412 C1411 1.516 . S
C1412 C1413 1.502 . S
C1412 C1414 1.561 . S
C1412 C1415 1.526 . S
C1413 H1397 0.959 . S
C1413 H1398 0.959 . S
C1413 H1399 0.961 . S
C1413 C1412 1.502 . S
C1414 H1400 0.960 . S
C1414 H1401 0.961 . S
C1414 H1402 0.959 . S
C1414 C1412 1.561 . S
C1415 C1412 1.526 . S
C1415 C1416 1.396 . S
C1415 C1420 1.390 . S
C1416 C1410 1.465 . S
C1416 C1415 1.396 . S
C1416 C1417 1.399 . S
C1417 H1403 0.929 . S
C1417 C1416 1.399 . S
C1417 C1418 1.385 . S
C1418 H1404 0.931 . S
C1418 C1417 1.385 . S
C1418 C1419 1.389 . S
C1419 C1418 1.389 . S
C1419 C1420 1.387 . S
C1420 H1405 0.930 . S
C1420 C1415 1.390 . S
C1420 C1419 1.387 . S
H1421 C1433 0.930 . S
H1422 C1435 0.930 . S
H1423 C1436 0.930 . S
H1424 C1440 0.959 . S
H1425 C1440 0.959 . S
H1426 C1440 0.961 . S
H1427 C1441 0.960 . S
H1428 C1441 0.961 . S
H1429 C1441 0.959 . S
H1430 C1444 0.929 . S
H1431 C1445 0.931 . S
H1432 C1447 0.930 . S
C1433 H1421 0.930 . S
C1433 C1434 1.399 . S
C1433 C1438 1.399 . S
C1434 C1433 1.399 . S
C1434 C1435 1.376 . S
C1435 H1422 0.930 . S
C1435 C1434 1.376 . S
C1435 C1436 1.388 . S
C1436 H1423 0.930 . S
C1436 C1435 1.388 . S
C1436 C1437 1.390 . S
C1437 C1436 1.390 . S
C1437 C1438 1.394 . S
C1437 C1443 1.465 . S
C1438 C1433 1.399 . S
C1438 C1437 1.394 . S
C1438 C1439 1.516 . S
C1439 C1438 1.516 . S
C1439 C1440 1.502 . S
C1439 C1441 1.561 . S
C1439 C1442 1.526 . S
C1440 H1424 0.959 . S
C1440 H1425 0.959 . S
C1440 H1426 0.961 . S
C1440 C1439 1.502 . S
C1441 H1427 0.960 . S
C1441 H1428 0.961 . S
C1441 H1429 0.959 . S
C1441 C1439 1.561 . S
C1442 C1439 1.526 . S
C1442 C1443 1.396 . S
C1442 C1447 1.390 . S
C1443 C1437 1.465 . S
C1443 C1442 1.396 . S
C1443 C1444 1.399 . S
C1444 H1430 0.929 . S
C1444 C1443 1.399 . S
C1444 C1445 1.385 . S
C1445 H1431 0.931 . S
C1445 C1444 1.385 . S
C1445 C1446 1.389 . S
C1446 C1445 1.389 . S
C1446 C1447 1.387 . S
C1447 H1432 0.930 . S
C1447 C1442 1.390 . S
C1447 C1446 1.387 . S
H1448 C1460 0.930 . S
H1449 C1462 0.930 . S
H1450 C1463 0.930 . S
H1451 C1467 0.959 . S
H1452 C1467 0.959 . S
H1453 C1467 0.961 . S
H1454 C1468 0.960 . S
H1455 C1468 0.961 . S
H1456 C1468 0.959 . S
H1457 C1471 0.929 . S
H1458 C1472 0.931 . S
H1459 C1474 0.930 . S
C1460 H1448 0.930 . S
C1460 C1461 1.399 . S
C1460 C1465 1.399 . S
C1461 C1460 1.399 . S
C1461 C1462 1.376 . S
C1462 H1449 0.930 . S
C1462 C1461 1.376 . S
C1462 C1463 1.388 . S
C1463 H1450 0.930 . S
C1463 C1462 1.388 . S
C1463 C1464 1.390 . S
C1464 C1463 1.390 . S
C1464 C1465 1.394 . S
C1464 C1470 1.465 . S
C1465 C1460 1.399 . S
C1465 C1464 1.394 . S
C1465 C1466 1.516 . S
C1466 C1465 1.516 . S
C1466 C1467 1.502 . S
C1466 C1468 1.561 . S
C1466 C1469 1.526 . S
C1467 H1451 0.959 . S
C1467 H1452 0.959 . S
C1467 H1453 0.961 . S
C1467 C1466 1.502 . S
C1468 H1454 0.960 . S
C1468 H1455 0.961 . S
C1468 H1456 0.959 . S
C1468 C1466 1.561 . S
C1469 C1466 1.526 . S
C1469 C1470 1.396 . S
C1469 C1474 1.390 . S
C1470 C1464 1.465 . S
C1470 C1469 1.396 . S
C1470 C1471 1.399 . S
C1471 H1457 0.929 . S
C1471 C1470 1.399 . S
C1471 C1472 1.385 . S
C1472 H1458 0.931 . S
C1472 C1471 1.385 . S
C1472 C1473 1.389 . S
C1473 C1472 1.389 . S
C1473 C1474 1.387 . S
C1474 H1459 0.930 . S
C1474 C1469 1.390 . S
C1474 C1473 1.387 . S
H1475 C1487 0.930 . S
H1476 C1489 0.930 . S
H1477 C1490 0.930 . S
H1478 C1494 0.959 . S
H1479 C1494 0.959 . S
H1480 C1494 0.961 . S
H1481 C1495 0.960 . S
H1482 C1495 0.961 . S
H1483 C1495 0.959 . S
H1484 C1498 0.929 . S
H1485 C1499 0.931 . S
H1486 C1501 0.930 . S
C1487 H1475 0.930 . S
C1487 C1488 1.399 . S
C1487 C1492 1.399 . S
C1488 C1487 1.399 . S
C1488 C1489 1.376 . S
C1489 H1476 0.930 . S
C1489 C1488 1.376 . S
C1489 C1490 1.388 . S
C1490 H1477 0.930 . S
C1490 C1489 1.388 . S
C1490 C1491 1.390 . S
C1491 C1490 1.390 . S
C1491 C1492 1.394 . S
C1491 C1497 1.465 . S
C1492 C1487 1.399 . S
C1492 C1491 1.394 . S
C1492 C1493 1.516 . S
C1493 C1492 1.516 . S
C1493 C1494 1.502 . S
C1493 C1495 1.561 . S
C1493 C1496 1.526 . S
C1494 H1478 0.959 . S
C1494 H1479 0.959 . S
C1494 H1480 0.961 . S
C1494 C1493 1.502 . S
C1495 H1481 0.960 . S
C1495 H1482 0.961 . S
C1495 H1483 0.959 . S
C1495 C1493 1.561 . S
C1496 C1493 1.526 . S
C1496 C1497 1.396 . S
C1496 C1501 1.390 . S
C1497 C1491 1.465 . S
C1497 C1496 1.396 . S
C1497 C1498 1.399 . S
C1498 H1484 0.929 . S
C1498 C1497 1.399 . S
C1498 C1499 1.385 . S
C1499 H1485 0.931 . S
C1499 C1498 1.385 . S
C1499 C1500 1.389 . S
C1500 C1499 1.389 . S
C1500 C1501 1.387 . S
C1501 H1486 0.930 . S
C1501 C1496 1.390 . S
C1501 C1500 1.387 . S
H1502 C1514 0.930 . S
H1503 C1516 0.930 . S
H1504 C1517 0.930 . S
H1505 C1521 0.959 . S
H1506 C1521 0.959 . S
H1507 C1521 0.961 . S
H1508 C1522 0.960 . S
H1509 C1522 0.961 . S
H1510 C1522 0.959 . S
H1511 C1525 0.929 . S
H1512 C1526 0.931 . S
H1513 C1528 0.930 . S
C1514 H1502 0.930 . S
C1514 C1515 1.399 . S
C1514 C1519 1.399 . S
C1515 C1514 1.399 . S
C1515 C1516 1.376 . S
C1516 H1503 0.930 . S
C1516 C1515 1.376 . S
C1516 C1517 1.388 . S
C1517 H1504 0.930 . S
C1517 C1516 1.388 . S
C1517 C1518 1.390 . S
C1518 C1517 1.390 . S
C1518 C1519 1.394 . S
C1518 C1524 1.465 . S
C1519 C1514 1.399 . S
C1519 C1518 1.394 . S
C1519 C1520 1.516 . S
C1520 C1519 1.516 . S
C1520 C1521 1.502 . S
C1520 C1522 1.561 . S
C1520 C1523 1.526 . S
C1521 H1505 0.959 . S
C1521 H1506 0.959 . S
C1521 H1507 0.961 . S
C1521 C1520 1.502 . S
C1522 H1508 0.960 . S
C1522 H1509 0.961 . S
C1522 H1510 0.959 . S
C1522 C1520 1.561 . S
C1523 C1520 1.526 . S
C1523 C1524 1.396 . S
C1523 C1528 1.390 . S
C1524 C1518 1.465 . S
C1524 C1523 1.396 . S
C1524 C1525 1.399 . S
C1525 H1511 0.929 . S
C1525 C1524 1.399 . S
C1525 C1526 1.385 . S
C1526 H1512 0.931 . S
C1526 C1525 1.385 . S
C1526 C1527 1.389 . S
C1527 C1526 1.389 . S
C1527 C1528 1.387 . S
C1528 H1513 0.930 . S
C1528 C1523 1.390 . S
C1528 C1527 1.387 . S
H1529 C1541 0.930 . S
H1530 C1543 0.930 . S
H1531 C1544 0.930 . S
H1532 C1548 0.959 . S
H1533 C1548 0.959 . S
H1534 C1548 0.961 . S
H1535 C1549 0.960 . S
H1536 C1549 0.961 . S
H1537 C1549 0.959 . S
H1538 C1552 0.929 . S
H1539 C1553 0.931 . S
H1540 C1555 0.930 . S
C1541 H1529 0.930 . S
C1541 C1542 1.399 . S
C1541 C1546 1.399 . S
C1542 C1541 1.399 . S
C1542 C1543 1.376 . S
C1543 H1530 0.930 . S
C1543 C1542 1.376 . S
C1543 C1544 1.388 . S
C1544 H1531 0.930 . S
C1544 C1543 1.388 . S
C1544 C1545 1.390 . S
C1545 C1544 1.390 . S
C1545 C1546 1.394 . S
C1545 C1551 1.465 . S
C1546 C1541 1.399 . S
C1546 C1545 1.394 . S
C1546 C1547 1.516 . S
C1547 C1546 1.516 . S
C1547 C1548 1.502 . S
C1547 C1549 1.561 . S
C1547 C1550 1.526 . S
C1548 H1532 0.959 . S
C1548 H1533 0.959 . S
C1548 H1534 0.961 . S
C1548 C1547 1.502 . S
C1549 H1535 0.960 . S
C1549 H1536 0.961 . S
C1549 H1537 0.959 . S
C1549 C1547 1.561 . S
C1550 C1547 1.526 . S
C1550 C1551 1.396 . S
C1550 C1555 1.390 . S
C1551 C1545 1.465 . S
C1551 C1550 1.396 . S
C1551 C1552 1.399 . S
C1552 H1538 0.929 . S
C1552 C1551 1.399 . S
C1552 C1553 1.385 . S
C1553 H1539 0.931 . S
C1553 C1552 1.385 . S
C1553 C1554 1.389 . S
C1554 C1553 1.389 . S
C1554 C1555 1.387 . S
C1555 H1540 0.930 . S
C1555 C1550 1.390 . S
C1555 C1554 1.387 . S
H1556 C1568 0.930 . S
H1557 C1570 0.930 . S
H1558 C1571 0.930 . S
H1559 C1575 0.959 . S
H1560 C1575 0.959 . S
H1561 C1575 0.961 . S
H1562 C1576 0.960 . S
H1563 C1576 0.961 . S
H1564 C1576 0.959 . S
H1565 C1579 0.929 . S
H1566 C1580 0.931 . S
H1567 C1582 0.930 . S
C1568 H1556 0.930 . S
C1568 C1569 1.399 . S
C1568 C1573 1.399 . S
C1569 C1568 1.399 . S
C1569 C1570 1.376 . S
C1570 H1557 0.930 . S
C1570 C1569 1.376 . S
C1570 C1571 1.388 . S
C1571 H1558 0.930 . S
C1571 C1570 1.388 . S
C1571 C1572 1.390 . S
C1572 C1571 1.390 . S
C1572 C1573 1.394 . S
C1572 C1578 1.465 . S
C1573 C1568 1.399 . S
C1573 C1572 1.394 . S
C1573 C1574 1.516 . S
C1574 C1573 1.516 . S
C1574 C1575 1.502 . S
C1574 C1576 1.561 . S
C1574 C1577 1.526 . S
C1575 H1559 0.959 . S
C1575 H1560 0.959 . S
C1575 H1561 0.961 . S
C1575 C1574 1.502 . S
C1576 H1562 0.960 . S
C1576 H1563 0.961 . S
C1576 H1564 0.959 . S
C1576 C1574 1.561 . S
C1577 C1574 1.526 . S
C1577 C1578 1.396 . S
C1577 C1582 1.390 . S
C1578 C1572 1.465 . S
C1578 C1577 1.396 . S
C1578 C1579 1.399 . S
C1579 H1565 0.929 . S
C1579 C1578 1.399 . S
C1579 C1580 1.385 . S
C1580 H1566 0.931 . S
C1580 C1579 1.385 . S
C1580 C1581 1.389 . S
C1581 C1580 1.389 . S
C1581 C1582 1.387 . S
C1582 H1567 0.930 . S
C1582 C1577 1.390 . S
C1582 C1581 1.387 . S
H1583 C1595 0.930 . S
H1584 C1597 0.930 . S
H1585 C1598 0.930 . S
H1586 C1602 0.959 . S
H1587 C1602 0.959 . S
H1588 C1602 0.961 . S
H1589 C1603 0.960 . S
H1590 C1603 0.961 . S
H1591 C1603 0.959 . S
H1592 C1606 0.929 . S
H1593 C1607 0.931 . S
H1594 C1609 0.930 . S
C1595 H1583 0.930 . S
C1595 C1596 1.399 . S
C1595 C1600 1.399 . S
C1596 C1595 1.399 . S
C1596 C1597 1.376 . S
C1597 H1584 0.930 . S
C1597 C1596 1.376 . S
C1597 C1598 1.388 . S
C1598 H1585 0.930 . S
C1598 C1597 1.388 . S
C1598 C1599 1.390 . S
C1599 C1598 1.390 . S
C1599 C1600 1.394 . S
C1599 C1605 1.465 . S
C1600 C1595 1.399 . S
C1600 C1599 1.394 . S
C1600 C1601 1.516 . S
C1601 C1600 1.516 . S
C1601 C1602 1.502 . S
C1601 C1603 1.561 . S
C1601 C1604 1.526 . S
C1602 H1586 0.959 . S
C1602 H1587 0.959 . S
C1602 H1588 0.961 . S
C1602 C1601 1.502 . S
C1603 H1589 0.960 . S
C1603 H1590 0.961 . S
C1603 H1591 0.959 . S
C1603 C1601 1.561 . S
C1604 C1601 1.526 . S
C1604 C1605 1.396 . S
C1604 C1609 1.390 . S
C1605 C1599 1.465 . S
C1605 C1604 1.396 . S
C1605 C1606 1.399 . S
C1606 H1592 0.929 . S
C1606 C1605 1.399 . S
C1606 C1607 1.385 . S
C1607 H1593 0.931 . S
C1607 C1606 1.385 . S
C1607 C1608 1.389 . S
C1608 C1607 1.389 . S
C1608 C1609 1.387 . S
C1609 H1594 0.930 . S
C1609 C1604 1.390 . S
C1609 C1608 1.387 . S
H1610 C1622 0.930 . S
H1611 C1624 0.930 . S
H1612 C1625 0.930 . S
H1613 C1629 0.959 . S
H1614 C1629 0.959 . S
H1615 C1629 0.961 . S
H1616 C1630 0.960 . S
H1617 C1630 0.961 . S
H1618 C1630 0.959 . S
H1619 C1633 0.929 . S
H1620 C1634 0.931 . S
H1621 C1636 0.930 . S
C1622 H1610 0.930 . S
C1622 C1623 1.399 . S
C1622 C1627 1.399 . S
C1623 C1622 1.399 . S
C1623 C1624 1.376 . S
C1624 H1611 0.930 . S
C1624 C1623 1.376 . S
C1624 C1625 1.388 . S
C1625 H1612 0.930 . S
C1625 C1624 1.388 . S
C1625 C1626 1.390 . S
C1626 C1625 1.390 . S
C1626 C1627 1.394 . S
C1626 C1632 1.465 . S
C1627 C1622 1.399 . S
C1627 C1626 1.394 . S
C1627 C1628 1.516 . S
C1628 C1627 1.516 . S
C1628 C1629 1.502 . S
C1628 C1630 1.561 . S
C1628 C1631 1.526 . S
C1629 H1613 0.959 . S
C1629 H1614 0.959 . S
C1629 H1615 0.961 . S
C1629 C1628 1.502 . S
C1630 H1616 0.960 . S
C1630 H1617 0.961 . S
C1630 H1618 0.959 . S
C1630 C1628 1.561 . S
C1631 C1628 1.526 . S
C1631 C1632 1.396 . S
C1631 C1636 1.390 . S
C1632 C1626 1.465 . S
C1632 C1631 1.396 . S
C1632 C1633 1.399 . S
C1633 H1619 0.929 . S
C1633 C1632 1.399 . S
C1633 C1634 1.385 . S
C1634 H1620 0.931 . S
C1634 C1633 1.385 . S
C1634 C1635 1.389 . S
C1635 C1634 1.389 . S
C1635 C1636 1.387 . S
C1636 H1621 0.930 . S
C1636 C1631 1.390 . S
C1636 C1635 1.387 . S
H1637 C1649 0.930 . S
H1638 C1651 0.930 . S
H1639 C1652 0.930 . S
H1640 C1656 0.959 . S
H1641 C1656 0.959 . S
H1642 C1656 0.961 . S
H1643 C1657 0.960 . S
H1644 C1657 0.961 . S
H1645 C1657 0.959 . S
H1646 C1660 0.929 . S
H1647 C1661 0.931 . S
H1648 C1663 0.930 . S
C1649 H1637 0.930 . S
C1649 C1650 1.399 . S
C1649 C1654 1.399 . S
C1650 C1649 1.399 . S
C1650 C1651 1.376 . S
C1651 H1638 0.930 . S
C1651 C1650 1.376 . S
C1651 C1652 1.388 . S
C1652 H1639 0.930 . S
C1652 C1651 1.388 . S
C1652 C1653 1.390 . S
C1653 C1652 1.390 . S
C1653 C1654 1.394 . S
C1653 C1659 1.465 . S
C1654 C1649 1.399 . S
C1654 C1653 1.394 . S
C1654 C1655 1.516 . S
C1655 C1654 1.516 . S
C1655 C1656 1.502 . S
C1655 C1657 1.561 . S
C1655 C1658 1.526 . S
C1656 H1640 0.959 . S
C1656 H1641 0.959 . S
C1656 H1642 0.961 . S
C1656 C1655 1.502 . S
C1657 H1643 0.960 . S
C1657 H1644 0.961 . S
C1657 H1645 0.959 . S
C1657 C1655 1.561 . S
C1658 C1655 1.526 . S
C1658 C1659 1.396 . S
C1658 C1663 1.390 . S
C1659 C1653 1.465 . S
C1659 C1658 1.396 . S
C1659 C1660 1.399 . S
C1660 H1646 0.929 . S
C1660 C1659 1.399 . S
C1660 C1661 1.385 . S
C1661 H1647 0.931 . S
C1661 C1660 1.385 . S
C1661 C1662 1.389 . S
C1662 C1661 1.389 . S
C1662 C1663 1.387 . S
C1663 H1648 0.930 . S
C1663 C1658 1.390 . S
C1663 C1662 1.387 . S
C381 C16 1.038 . S
C393 C177 1.091 . S
C408 C108 1.054 . S
C420 C39 1.051 . S
C435 C131 1.070 . S
C447 C62 1.043 . S
C462 C85 1.084 . S
C474 C154 1.022 . S
C489 C362 1.006 . S
C501 C200 1.083 . S
C516 C292 1.073 . S
C528 C223 1.057 . S
C543 C315 1.092 . S
C555 C246 1.027 . S
C570 C338 1.084 . S
C582 C269 1.033 . S
C597 C20 1.164 . S
C609 C366 1.151 . S
C624 C43 1.155 . S
C636 C296 1.161 . S
C651 C66 1.199 . S
C663 C319 1.190 . S
C678 C342 1.166 . S
C690 C89 1.176 . S
C705 C227 1.194 . S
C717 C112 1.184 . S
C732 C135 1.150 . S
C744 C250 1.157 . S
C759 C273 1.167 . S
C771 C158 1.177 . S
C786 C181 1.182 . S
C798 C204 1.188 . S
C813 C294 1.471 . S
C825 C17 1.420 . S
C840 C40 1.421 1_455 S
C852 C317 1.473 . S
C867 C340 1.467 . S
C879 C63 1.417 1_545 S
C894 C364 1.498 . S
C906 C86 1.489 . S
C921 C109 1.459 . S
C933 C202 1.442 . S
C948 C132 1.478 1_655 S
C960 C225 1.439 . S
C975 C155 1.468 1_565 S
C987 C248 1.482 . S
C1002 C271 1.480 . S
C1014 C178 1.452 . S
C1029 C201 1.424 . S
C1041 C110 1.466 . S
C1056 C224 1.430 1_655 S
C1068 C133 1.432 . S
C1083 C156 1.477 . S
C1095 C247 1.454 1_565 S
C1110 C270 1.450 . S
C1122 C179 1.484 . S
C1137 C293 1.426 . S
C1149 C18 1.467 . S
C1164 C316 1.439 1_455 S
C1176 C41 1.431 . S
C1191 C64 1.476 . S
C1203 C339 1.476 1_545 S
C1218 C87 1.516 . S
C1230 C361 1.468 . S
C1245 C19 1.560 . S
C1257 C228 1.512 . S
C1272 C251 1.483 . S
C1284 C42 1.537 . S
C1299 C65 1.506 . S
C1311 C274 1.526 . S
C1326 C88 1.577 . S
C1338 C205 1.521 . S
C1353 C111 1.485 . S
C1365 C365 1.538 . S
C1380 C134 1.554 . S
C1392 C297 1.482 . S
C1407 C157 1.562 . S
C1419 C320 1.506 . S
C1434 C343 1.491 . S
C1446 C180 1.516 . S
C1461 C44 1.541 . S
C1473 C203 1.516 . S
C1488 C67 1.484 . S
C1500 C226 1.558 . S
C1515 C249 1.533 . S
C1527 C90 1.498 . S
C1542 C272 1.539 . S
C1554 C21 1.520 . S
C1569 C182 1.479 . S
C1581 C295 1.557 . S
C1596 C113 1.536 . S
C1608 C318 1.506 . S
C1623 C136 1.532 . S
C1635 C341 1.530 . S
C1650 C159 1.539 . S
C1662 C363 1.561 . S
