# Generated by pormake.
# Topology xfz, (5)-cn, num edge types: 1
# Building blocks:
#     Node 0, Type 0, BuildingBlock: XOMCOT_clean_sbu_1, # of connection points: 5
#     Node 1, Type 0, BuildingBlock: XOMCOT_clean_sbu_1, # of connection points: 5
#     Node 2, Type 0, BuildingBlock: XOMCOT_clean_sbu_1, # of connection points: 5
#     Node 3, Type 0, BuildingBlock: XOMCOT_clean_sbu_1, # of connection points: 5
#     Node 4, Type 0, BuildingBlock: XOMCOT_clean_sbu_1, # of connection points: 5
#     Node 5, Type 0, BuildingBlock: XOMCOT_clean_sbu_1, # of connection points: 5
#     Node 6, Type 0, BuildingBlock: XOMCOT_clean_sbu_1, # of connection points: 5
#     Node 7, Type 0, BuildingBlock: XOMCOT_clean_sbu_1, # of connection points: 5
#     Node 8, Type 0, BuildingBlock: XOMCOT_clean_sbu_1, # of connection points: 5
#     Node 9, Type 0, BuildingBlock: XOMCOT_clean_sbu_1, # of connection points: 5
#     Node 10, Type 0, BuildingBlock: XOMCOT_clean_sbu_1, # of connection points: 5
#     Node 11, Type 0, BuildingBlock: XOMCOT_clean_sbu_1, # of connection points: 5
#     Node 12, Type 0, BuildingBlock: XOMCOT_clean_sbu_1, # of connection points: 5
#     Node 13, Type 0, BuildingBlock: XOMCOT_clean_sbu_1, # of connection points: 5
#     Node 14, Type 0, BuildingBlock: XOMCOT_clean_sbu_1, # of connection points: 5
#     Node 15, Type 0, BuildingBlock: XOMCOT_clean_sbu_1, # of connection points: 5
#     Edge 16, Type (0, 0), BuildingBlock: OJICUG_clean_linker_0, # of connection points: 2
#     Edge 17, Type (0, 0), BuildingBlock: OJICUG_clean_linker_0, # of connection points: 2
#     Edge 18, Type (0, 0), BuildingBlock: OJICUG_clean_linker_0, # of connection points: 2
#     Edge 19, Type (0, 0), BuildingBlock: OJICUG_clean_linker_0, # of connection points: 2
#     Edge 20, Type (0, 0), BuildingBlock: OJICUG_clean_linker_0, # of connection points: 2
#     Edge 21, Type (0, 0), BuildingBlock: OJICUG_clean_linker_0, # of connection points: 2
#     Edge 22, Type (0, 0), BuildingBlock: OJICUG_clean_linker_0, # of connection points: 2
#     Edge 23, Type (0, 0), BuildingBlock: OJICUG_clean_linker_0, # of connection points: 2
#     Edge 24, Type (0, 0), BuildingBlock: OJICUG_clean_linker_0, # of connection points: 2
#     Edge 25, Type (0, 0), BuildingBlock: OJICUG_clean_linker_0, # of connection points: 2
#     Edge 26, Type (0, 0), BuildingBlock: OJICUG_clean_linker_0, # of connection points: 2
#     Edge 27, Type (0, 0), BuildingBlock: OJICUG_clean_linker_0, # of connection points: 2
#     Edge 28, Type (0, 0), BuildingBlock: OJICUG_clean_linker_0, # of connection points: 2
#     Edge 29, Type (0, 0), BuildingBlock: OJICUG_clean_linker_0, # of connection points: 2
#     Edge 30, Type (0, 0), BuildingBlock: OJICUG_clean_linker_0, # of connection points: 2
#     Edge 31, Type (0, 0), BuildingBlock: OJICUG_clean_linker_0, # of connection points: 2
#     Edge 32, Type (0, 0), BuildingBlock: OJICUG_clean_linker_0, # of connection points: 2
#     Edge 33, Type (0, 0), BuildingBlock: OJICUG_clean_linker_0, # of connection points: 2
#     Edge 34, Type (0, 0), BuildingBlock: OJICUG_clean_linker_0, # of connection points: 2
#     Edge 35, Type (0, 0), BuildingBlock: OJICUG_clean_linker_0, # of connection points: 2
#     Edge 36, Type (0, 0), BuildingBlock: OJICUG_clean_linker_0, # of connection points: 2
#     Edge 37, Type (0, 0), BuildingBlock: OJICUG_clean_linker_0, # of connection points: 2
#     Edge 38, Type (0, 0), BuildingBlock: OJICUG_clean_linker_0, # of connection points: 2
#     Edge 39, Type (0, 0), BuildingBlock: OJICUG_clean_linker_0, # of connection points: 2
#     Edge 40, Type (0, 0), BuildingBlock: OJICUG_clean_linker_0, # of connection points: 2
#     Edge 41, Type (0, 0), BuildingBlock: OJICUG_clean_linker_0, # of connection points: 2
#     Edge 42, Type (0, 0), BuildingBlock: OJICUG_clean_linker_0, # of connection points: 2
#     Edge 43, Type (0, 0), BuildingBlock: OJICUG_clean_linker_0, # of connection points: 2
#     Edge 44, Type (0, 0), BuildingBlock: OJICUG_clean_linker_0, # of connection points: 2
#     Edge 45, Type (0, 0), BuildingBlock: OJICUG_clean_linker_0, # of connection points: 2
#     Edge 46, Type (0, 0), BuildingBlock: OJICUG_clean_linker_0, # of connection points: 2
#     Edge 47, Type (0, 0), BuildingBlock: OJICUG_clean_linker_0, # of connection points: 2
#     Edge 48, Type (0, 0), BuildingBlock: OJICUG_clean_linker_0, # of connection points: 2
#     Edge 49, Type (0, 0), BuildingBlock: OJICUG_clean_linker_0, # of connection points: 2
#     Edge 50, Type (0, 0), BuildingBlock: OJICUG_clean_linker_0, # of connection points: 2
#     Edge 51, Type (0, 0), BuildingBlock: OJICUG_clean_linker_0, # of connection points: 2
#     Edge 52, Type (0, 0), BuildingBlock: OJICUG_clean_linker_0, # of connection points: 2
#     Edge 53, Type (0, 0), BuildingBlock: OJICUG_clean_linker_0, # of connection points: 2
#     Edge 54, Type (0, 0), BuildingBlock: OJICUG_clean_linker_0, # of connection points: 2
#     Edge 55, Type (0, 0), BuildingBlock: OJICUG_clean_linker_0, # of connection points: 2
# Relax obj value: 0.598
# Max RMSD: 0.324
# Mean RMSD: 0.324
data_MOF--net-xfz--node1-XOMCOT_clean_sbu_1--edge1-OJICUG_clean_linker_0
_symmetry_space_group_name_H-M    P1
_symmetry_Int_Tables_number       1
_symmetry_cell_setting            triclinic
loop_
_symmetry_equiv_pos_as_xyz
'x, y, z'
_cell_length_a     28.378445
_cell_length_b     28.360757
_cell_length_c     46.874766
_cell_angle_alpha  90.012018
_cell_angle_beta   90.07465
_cell_angle_gamma 90.035631
loop_
_atom_site_label
_atom_site_type_symbol
_atom_site_fract_x
_atom_site_fract_y
_atom_site_fract_z
_atom_type_partial_charge
C0 C 0.18042 0.34166 0.33098 0.0
C1 C 0.15552 0.31857 0.31016 0.0
N2 N 0.11343 0.34004 0.30702 0.0
N3 N 0.15437 0.37753 0.34114 0.0
C4 C 0.11339 0.37521 0.32658 0.0
H5 H 0.21663 0.33487 0.33687 0.0
Co6 Co 0.18047 0.42296 0.36457 0.0
C7 C 0.10375 0.48523 0.38536 0.0
O8 O 0.13369 0.52042 0.38321 0.0
N9 N 0.20955 0.46725 0.38865 0.0
C10 C 0.26104 0.51423 0.41059 0.0
C11 C 0.24744 0.49542 0.38469 0.0
C12 C 0.20102 0.46952 0.41692 0.0
N13 N 0.23149 0.49781 0.43068 0.0
O14 O 0.18636 0.37579 0.39409 0.0
H15 H 0.26578 0.50025 0.36475 0.0
H16 H 0.17412 0.44884 0.42749 0.0
O17 O 0.11717 0.44324 0.37864 0.0
C18 C 0.22953 0.36382 0.39625 0.0
O19 O 0.26081 0.38574 0.38042 0.0
N20 N 0.1783 0.46568 0.33365 0.0
C21 C 0.18099 0.50936 0.28014 0.0
C22 C 0.13936 0.50827 0.29613 0.0
C23 C 0.13842 0.48537 0.32235 0.0
C24 C 0.2192 0.46649 0.31842 0.0
C25 C 0.22153 0.48852 0.29176 0.0
H26 H 0.1045 0.48117 0.33214 0.0
H27 H 0.24968 0.44775 0.32639 0.0
H28 H 0.08531 0.40053 0.32913 0.0
H29 H 0.16929 0.29079 0.29673 0.0
H30 H 0.29082 0.53725 0.41445 0.0
H31 H 0.1071 0.52385 0.28816 0.0
H32 H 0.25424 0.48743 0.27991 0.0
C33 C 0.34908 0.82847 0.65774 0.0
C34 C 0.32617 0.85443 0.67812 0.0
N35 N 0.34679 0.89719 0.67975 0.0
N36 N 0.38399 0.85455 0.64642 0.0
C37 C 0.38126 0.89657 0.65981 0.0
H38 H 0.34274 0.79177 0.65282 0.0
Co39 Co 0.42816 0.82784 0.6225 0.0
C40 C 0.49162 0.90325 0.60169 0.0
O41 O 0.52611 0.87274 0.60472 0.0
N42 N 0.47107 0.79827 0.5978 0.0
C43 C 0.51591 0.74676 0.57439 0.0
C44 C 0.49849 0.7596 0.60077 0.0
C45 C 0.47241 0.808 0.56965 0.0
N46 N 0.4994 0.77758 0.55501 0.0
O47 O 0.37985 0.82258 0.59361 0.0
H48 H 0.50367 0.74023 0.62033 0.0
H49 H 0.45186 0.83574 0.5598 0.0
O50 O 0.44916 0.89085 0.60802 0.0
C51 C 0.367 0.77959 0.59172 0.0
O52 O 0.38902 0.74797 0.60727 0.0
N53 N 0.47198 0.82954 0.65294 0.0
C54 C 0.51694 0.82708 0.7061 0.0
C55 C 0.51393 0.86907 0.69053 0.0
C56 C 0.49044 0.86984 0.66451 0.0
C57 C 0.47465 0.78824 0.66778 0.0
C58 C 0.4975 0.78601 0.69423 0.0
H59 H 0.48483 0.90386 0.65504 0.0
H60 H 0.45656 0.75736 0.6598 0.0
H61 H 0.40564 0.92517 0.6561 0.0
H62 H 0.29913 0.8412 0.69227 0.0
H63 H 0.538 0.71662 0.56973 0.0
H64 H 0.52837 0.90173 0.69875 0.0
H65 H 0.49799 0.75299 0.70581 0.0
C66 C 0.82858 0.67182 0.32727 0.0
C67 C 0.85373 0.69359 0.30608 0.0
N68 N 0.89576 0.67184 0.30366 0.0
N69 N 0.85448 0.63654 0.33836 0.0
C70 C 0.89559 0.63788 0.32394 0.0
H71 H 0.79235 0.67907 0.33282 0.0
Co72 Co 0.82836 0.59257 0.36278 0.0
C73 C 0.9053 0.53192 0.38512 0.0
O74 O 0.87547 0.49653 0.38369 0.0
N75 N 0.79941 0.5498 0.38781 0.0
C76 C 0.74928 0.50282 0.4108 0.0
C77 C 0.76203 0.52071 0.38452 0.0
C78 C 0.80833 0.5492 0.41609 0.0
N79 N 0.77879 0.52083 0.43046 0.0
O80 O 0.822 0.64154 0.39118 0.0
H81 H 0.74375 0.51426 0.3647 0.0
H82 H 0.83519 0.57066 0.42614 0.0
O83 O 0.89173 0.57343 0.37748 0.0
C84 C 0.77872 0.65349 0.39229 0.0
O85 O 0.74824 0.63073 0.37626 0.0
N86 N 0.83081 0.54789 0.33288 0.0
C87 C 0.82881 0.5021 0.28002 0.0
C88 C 0.87026 0.50396 0.2962 0.0
C89 C 0.87086 0.52786 0.32209 0.0
C90 C 0.78996 0.54599 0.31757 0.0
C91 C 0.78798 0.5229 0.29121 0.0
H92 H 0.9047 0.53267 0.33191 0.0
H93 H 0.7593 0.56484 0.32512 0.0
H94 H 0.9237 0.61277 0.32715 0.0
H95 H 0.84027 0.72059 0.29196 0.0
H96 H 0.72035 0.479 0.41515 0.0
H97 H 0.9027 0.48838 0.28854 0.0
H98 H 0.75537 0.52326 0.2792 0.0
C99 C 0.68655 0.17312 0.64794 0.0
C100 C 0.70896 0.14894 0.66928 0.0
N101 N 0.68146 0.11245 0.67729 0.0
N102 N 0.64532 0.15187 0.64186 0.0
C103 C 0.64336 0.11473 0.65985 0.0
H104 H 0.6983 0.20605 0.63886 0.0
Co105 Co 0.59994 0.17877 0.61831 0.0
C106 C 0.54081 0.101 0.59366 0.0
O107 O 0.50583 0.13089 0.59086 0.0
N108 N 0.55545 0.20833 0.59445 0.0
C109 C 0.49885 0.25282 0.57545 0.0
C110 C 0.51914 0.23749 0.60056 0.0
C111 C 0.55678 0.20711 0.56566 0.0
N112 N 0.52314 0.23391 0.55365 0.0
O113 O 0.64751 0.18542 0.58891 0.0
H114 H 0.50819 0.24757 0.62175 0.0
H115 H 0.58158 0.18615 0.55357 0.0
O116 O 0.58046 0.1153 0.60397 0.0
C117 C 0.65906 0.22883 0.58727 0.0
O118 O 0.63706 0.25931 0.60365 0.0
N119 N 0.55688 0.17637 0.64888 0.0
C120 C 0.51171 0.17928 0.70178 0.0
C121 C 0.50663 0.14022 0.68373 0.0
C122 C 0.52997 0.13909 0.65763 0.0
C123 C 0.56136 0.21513 0.66588 0.0
C124 C 0.53895 0.21748 0.69236 0.0
H125 H 0.52844 0.10665 0.64596 0.0
H126 H 0.58404 0.24374 0.65921 0.0
H127 H 0.61307 0.09187 0.66135 0.0
H128 H 0.74182 0.15951 0.67904 0.0
H129 H 0.46926 0.27665 0.57335 0.0
H130 H 0.48569 0.11 0.68999 0.0
H131 H 0.54439 0.24816 0.70573 0.0
C132 C 0.18371 0.6707 0.65518 0.0
C133 C 0.15815 0.69216 0.6763 0.0
N134 N 0.11613 0.67024 0.67837 0.0
N135 N 0.15809 0.63544 0.64378 0.0
C136 C 0.11674 0.63645 0.65797 0.0
H137 H 0.22 0.67819 0.64986 0.0
Co138 Co 0.18453 0.59202 0.61913 0.0
C139 C 0.10798 0.53112 0.59647 0.0
O140 O 0.13803 0.49595 0.59777 0.0
N141 N 0.21372 0.54977 0.59385 0.0
C142 C 0.26396 0.50335 0.57059 0.0
C143 C 0.25112 0.52071 0.59698 0.0
C144 C 0.20487 0.54966 0.56557 0.0
N145 N 0.23448 0.52165 0.55102 0.0
O146 O 0.19086 0.64149 0.59107 0.0
H147 H 0.26934 0.51392 0.61678 0.0
H148 H 0.17798 0.57123 0.55565 0.0
O149 O 0.12128 0.57267 0.60427 0.0
C150 C 0.2342 0.65341 0.59031 0.0
O151 O 0.26434 0.63022 0.60632 0.0
N152 N 0.18228 0.54695 0.64873 0.0
C153 C 0.18468 0.5012 0.70156 0.0
C154 C 0.14319 0.50268 0.6854 0.0
C155 C 0.14238 0.52659 0.65952 0.0
C156 C 0.22318 0.54533 0.664 0.0
C157 C 0.22536 0.52228 0.69034 0.0
H158 H 0.1085 0.53117 0.64971 0.0
H159 H 0.2537 0.56444 0.65644 0.0
H160 H 0.08874 0.61128 0.65449 0.0
H161 H 0.17126 0.71912 0.6906 0.0
H162 H 0.29292 0.47967 0.5661 0.0
H163 H 0.11086 0.48685 0.69308 0.0
H164 H 0.25798 0.52295 0.70235 0.0
C165 C 0.66304 0.83053 0.32997 0.0
C166 C 0.68565 0.85621 0.30935 0.0
N167 N 0.66524 0.89906 0.30776 0.0
N168 N 0.62856 0.85686 0.34152 0.0
C169 C 0.63114 0.89872 0.32794 0.0
H170 H 0.66933 0.79385 0.33496 0.0
Co171 Co 0.58492 0.83068 0.36603 0.0
C172 C 0.52415 0.90729 0.38841 0.0
O173 O 0.48898 0.87724 0.38673 0.0
N174 N 0.54248 0.8016 0.39123 0.0
C175 C 0.49704 0.75055 0.41462 0.0
C176 C 0.51361 0.76399 0.38815 0.0
C177 C 0.54283 0.81014 0.41954 0.0
N178 N 0.51557 0.77991 0.43419 0.0
O179 O 0.63441 0.82413 0.39412 0.0
H180 H 0.50674 0.74576 0.36837 0.0
H181 H 0.56466 0.83688 0.42943 0.0
O182 O 0.56582 0.89401 0.38095 0.0
C183 C 0.64624 0.78081 0.39562 0.0
O184 O 0.62255 0.74989 0.38042 0.0
N185 N 0.53996 0.8334 0.33632 0.0
C186 C 0.49406 0.83194 0.28345 0.0
C187 C 0.49679 0.87349 0.2995 0.0
C188 C 0.52081 0.87381 0.32536 0.0
C189 C 0.53725 0.79247 0.32112 0.0
C190 C 0.51407 0.79076 0.29478 0.0
H191 H 0.52646 0.90764 0.33506 0.0
H192 H 0.55566 0.76152 0.32871 0.0
H193 H 0.60693 0.92742 0.33174 0.0
H194 H 0.71239 0.84278 0.29507 0.0
H195 H 0.47405 0.72104 0.41916 0.0
H196 H 0.48188 0.90621 0.29173 0.0
H197 H 0.51386 0.75806 0.28286 0.0
C198 C 0.83406 0.33869 0.65016 0.0
C199 C 0.85903 0.31595 0.67108 0.0
N200 N 0.90079 0.33804 0.67442 0.0
N201 N 0.85973 0.37496 0.64013 0.0
C202 C 0.90056 0.37324 0.65488 0.0
H203 H 0.79801 0.33137 0.64411 0.0
Co204 Co 0.83334 0.42023 0.61667 0.0
C205 C 0.90979 0.48297 0.59588 0.0
O206 O 0.87965 0.51796 0.59796 0.0
N207 N 0.80408 0.4644 0.59261 0.0
C208 C 0.75264 0.51156 0.57083 0.0
C209 C 0.76631 0.49265 0.59667 0.0
C210 C 0.81247 0.46672 0.56431 0.0
N211 N 0.78202 0.49514 0.55065 0.0
O212 O 0.82753 0.37294 0.58716 0.0
H213 H 0.74816 0.49753 0.61667 0.0
H214 H 0.83931 0.4461 0.55368 0.0
O215 O 0.89658 0.44091 0.60262 0.0
C216 C 0.7843 0.3611 0.58494 0.0
O217 O 0.75307 0.38334 0.60064 0.0
N218 N 0.83522 0.46292 0.64758 0.0
C219 C 0.83187 0.50603 0.70123 0.0
C220 C 0.87349 0.50588 0.68521 0.0
C221 C 0.87479 0.48323 0.65891 0.0
C222 C 0.79432 0.4629 0.66281 0.0
C223 C 0.79167 0.48459 0.68955 0.0
H224 H 0.90875 0.47971 0.64909 0.0
H225 H 0.76413 0.44374 0.65476 0.0
H226 H 0.92831 0.39899 0.65246 0.0
H227 H 0.84549 0.28793 0.6844 0.0
H228 H 0.72297 0.53473 0.56707 0.0
H229 H 0.90549 0.52198 0.69322 0.0
H230 H 0.759 0.48276 0.7014 0.0
C231 C 0.33562 0.18303 0.33446 0.0
C232 C 0.31327 0.15851 0.31318 0.0
N233 N 0.33568 0.11703 0.30948 0.0
N234 N 0.37191 0.15732 0.34442 0.0
C235 C 0.37073 0.11697 0.32915 0.0
H236 H 0.32805 0.2189 0.34076 0.0
Co237 Co 0.41695 0.18329 0.36829 0.0
C238 C 0.47725 0.10596 0.39095 0.0
O239 O 0.51259 0.13586 0.39074 0.0
N240 N 0.46126 0.21218 0.39267 0.0
C241 C 0.51661 0.25692 0.41284 0.0
C242 C 0.49679 0.24276 0.38736 0.0
C243 C 0.46002 0.20884 0.4214 0.0
N244 N 0.49288 0.2358 0.43412 0.0
O245 O 0.36889 0.19009 0.39719 0.0
H246 H 0.50748 0.2548 0.36651 0.0
H247 H 0.43554 0.1866 0.43289 0.0
O248 O 0.43613 0.11977 0.38272 0.0
C249 C 0.35771 0.23357 0.3988 0.0
O250 O 0.38115 0.26411 0.38321 0.0
N251 N 0.46021 0.18066 0.3379 0.0
C252 C 0.50412 0.18375 0.2846 0.0
C253 C 0.50491 0.14256 0.3011 0.0
C254 C 0.48195 0.14137 0.3273 0.0
C255 C 0.45939 0.22115 0.32224 0.0
C256 C 0.48141 0.22367 0.29565 0.0
H257 H 0.47936 0.10769 0.33762 0.0
H258 H 0.43975 0.2512 0.33002 0.0
H259 H 0.3968 0.08947 0.3313 0.0
H260 H 0.28529 0.17226 0.29989 0.0
H261 H 0.54539 0.2816 0.41555 0.0
H262 H 0.52203 0.11082 0.29353 0.0
H263 H 0.47899 0.25599 0.28346 0.0
C264 C 0.6919 0.84715 0.83195 0.0
C265 C 0.66758 0.82324 0.81119 0.0
N266 N 0.62382 0.84154 0.80937 0.0
N267 N 0.66384 0.88041 0.84331 0.0
C268 C 0.62228 0.87562 0.82959 0.0
H269 H 0.72877 0.84272 0.83717 0.0
Co270 Co 0.68794 0.92565 0.86763 0.0
C271 C 0.60988 0.98668 0.887 0.0
O272 O 0.63963 0.02197 0.88448 0.0
N273 N 0.715 0.9699 0.89277 0.0
C274 C 0.76356 0.01803 0.91623 0.0
C275 C 0.75207 0.99954 0.88991 0.0
C276 C 0.70482 0.97111 0.92088 0.0
N277 N 0.73356 1.0 0.93554 0.0
O278 O 0.69365 0.87747 0.89655 0.0
H279 H 0.77129 1.00587 0.87046 0.0
H280 H 0.67798 0.94934 0.93067 0.0
O281 O 0.62372 0.94452 0.88099 0.0
C282 C 0.73685 0.86651 0.90013 0.0
O283 O 0.7691 0.89102 0.88656 0.0
N284 N 0.68595 0.96917 0.83715 0.0
C285 C 0.68968 0.0135 0.78399 0.0
C286 C 0.6468 0.00822 0.79828 0.0
C287 C 0.64553 0.98539 0.82453 0.0
C288 C 0.72793 0.97352 0.82326 0.0
C289 C 0.73082 0.99644 0.79692 0.0
H290 H 0.61131 0.97831 0.83333 0.0
H291 H 0.75902 0.95678 0.83194 0.0
H292 H 0.5924 0.89838 0.83331 0.0
H293 H 0.68251 0.79717 0.79699 0.0
H294 H 0.79221 0.04205 0.9209 0.0
H295 H 0.61413 0.02046 0.78887 0.0
H296 H 0.7645 0.99876 0.78617 0.0
C297 C 0.84368 0.32844 0.1529 0.0
C298 C 0.82079 0.35333 0.17376 0.0
N299 N 0.84158 0.3959 0.17633 0.0
N300 N 0.87873 0.35498 0.14217 0.0
C301 C 0.87618 0.39621 0.15645 0.0
H302 H 0.83729 0.29202 0.14726 0.0
Co303 Co 0.92328 0.3292 0.11811 0.0
C304 C 0.98507 0.40603 0.09697 0.0
O305 O 0.02016 0.37603 0.09917 0.0
N306 N 0.96674 0.30051 0.09341 0.0
C307 C 0.01362 0.24998 0.07071 0.0
C308 C 0.99558 0.263 0.09688 0.0
C309 C 0.96786 0.30941 0.06515 0.0
N310 N 0.99605 0.27951 0.05093 0.0
O311 O 0.87485 0.32329 0.08927 0.0
H312 H 1.00152 0.24461 0.11671 0.0
H313 H 0.94653 0.33621 0.05496 0.0
O314 O 0.9431 0.39274 0.10383 0.0
C315 C 0.86316 0.28009 0.08647 0.0
O316 O 0.88681 0.24813 0.10086 0.0
N317 N 0.96701 0.33128 0.14847 0.0
C318 C 0.01075 0.32862 0.20196 0.0
C319 C 0.00925 0.37039 0.18607 0.0
C320 C 0.98627 0.37132 0.15987 0.0
C321 C 0.96848 0.29016 0.16352 0.0
C322 C 0.99057 0.28785 0.19018 0.0
H323 H 0.9815 0.40532 0.15024 0.0
H324 H 0.94998 0.25954 0.15551 0.0
H325 H 0.90086 0.42477 0.15341 0.0
H326 H 0.79358 0.3394 0.18754 0.0
H327 H 0.037 0.22067 0.06647 0.0
H328 H 0.02435 0.40282 0.19418 0.0
H329 H 0.98985 0.25501 0.20195 0.0
C330 C 0.34031 0.17656 0.83 0.0
C331 C 0.36656 0.19732 0.80892 0.0
N332 N 0.40717 0.17316 0.80619 0.0
N333 N 0.36417 0.13955 0.84075 0.0
C334 C 0.40516 0.1388 0.82617 0.0
H335 H 0.30459 0.1858 0.83564 0.0
Co336 Co 0.33621 0.0962 0.86497 0.0
C337 C 0.41165 0.03427 0.88819 0.0
O338 O 0.38129 0.9993 0.88722 0.0
N339 N 0.30562 0.05408 0.88972 0.0
C340 C 0.25314 0.00878 0.91199 0.0
C341 C 0.26755 0.0261 0.88589 0.0
C342 C 0.31335 0.05335 0.91813 0.0
N343 N 0.28231 0.02602 0.93209 0.0
O344 O 0.33023 0.1452 0.89335 0.0
H345 H 0.24984 0.02019 0.86582 0.0
H346 H 0.34034 0.07416 0.92856 0.0
O347 O 0.39872 0.07573 0.88011 0.0
C348 C 0.28718 0.15809 0.8933 0.0
O349 O 0.25751 0.13632 0.87625 0.0
N350 N 0.33811 0.05151 0.83514 0.0
C351 C 0.33539 1.00561 0.78237 0.0
C352 C 0.37643 1.00551 0.79898 0.0
C353 C 0.37742 0.0294 0.82487 0.0
C354 C 0.29766 0.05153 0.81939 0.0
C355 C 0.2953 0.02841 0.79308 0.0
H356 H 0.41112 0.03247 0.8351 0.0
H357 H 0.2677 0.07178 0.82663 0.0
H358 H 0.43181 0.11202 0.829 0.0
H359 H 0.3547 0.22538 0.79502 0.0
H360 H 0.22325 0.98598 0.91593 0.0
H361 H 0.40827 0.98832 0.79165 0.0
H362 H 0.26309 0.03021 0.78072 0.0
C363 C 0.17154 0.68143 0.15198 0.0
C364 C 0.19354 0.65618 0.17305 0.0
N365 N 0.17138 0.61435 0.17584 0.0
N366 N 0.1357 0.65583 0.14127 0.0
C367 C 0.13682 0.61483 0.15588 0.0
H368 H 0.17908 0.71757 0.14629 0.0
Co369 Co 0.09135 0.68201 0.11704 0.0
C370 C 0.03203 0.60468 0.09337 0.0
O371 O 0.99663 0.63447 0.09312 0.0
N372 N 0.04777 0.71106 0.09228 0.0
C373 C 0.99267 0.75529 0.07151 0.0
C374 C 0.01165 0.74108 0.09721 0.0
C375 C 0.0502 0.70812 0.06356 0.0
N376 N 0.01752 0.73478 0.05049 0.0
O377 O 0.14026 0.68951 0.08875 0.0
H378 H 0.99992 0.75262 0.11795 0.0
H379 H 0.07533 0.6863 0.0523 0.0
O380 O 0.07283 0.61863 0.10208 0.0
C381 C 0.15155 0.73304 0.08815 0.0
O382 O 0.12799 0.76268 0.10428 0.0
N383 N 0.04712 0.6787 0.14691 0.0
C384 C 1.00143 0.68069 0.19969 0.0
C385 C 1.00175 0.63963 0.18306 0.0
C386 C 0.02557 0.63901 0.15713 0.0
C387 C 0.04686 0.71907 0.1627 0.0
C388 C 0.02391 0.72104 0.18902 0.0
H389 H 0.02894 0.60545 0.14674 0.0
H390 H 0.06633 0.74947 0.15526 0.0
H391 H 0.11112 0.58712 0.15302 0.0
H392 H 0.2211 0.66951 0.18684 0.0
H393 H 0.96365 0.77954 0.06847 0.0
H394 H 0.98485 0.60757 0.19034 0.0
H395 H 0.02546 0.7533 0.20134 0.0
C396 C 0.67532 0.17808 0.15653 0.0
C397 C 0.64956 0.1998 0.17745 0.0
N398 N 0.60797 0.17719 0.17996 0.0
N399 N 0.65026 0.14195 0.14568 0.0
C400 C 0.609 0.14279 0.15995 0.0
H401 H 0.7115 0.1859 0.15113 0.0
Co402 Co 0.67751 0.09742 0.12208 0.0
C403 C 0.60166 0.03508 0.09992 0.0
O404 O 0.6317 0.99999 0.10194 0.0
N405 N 0.70755 0.0541 0.0979 0.0
C406 C 0.75946 0.00771 0.076 0.0
C407 C 0.74554 0.02612 0.10191 0.0
C408 C 0.69937 0.05225 0.06956 0.0
N409 N 0.73003 0.02422 0.05583 0.0
O410 O 0.68391 0.14524 0.09303 0.0
H411 H 0.76361 0.02101 0.12194 0.0
H412 H 0.67242 0.07283 0.05895 0.0
O413 O 0.61479 0.07694 0.10716 0.0
C414 C 0.72701 0.15796 0.09268 0.0
O415 O 0.75683 0.13672 0.10986 0.0
N416 N 0.675 0.05385 0.15253 0.0
C417 C 0.67714 0.00853 0.20551 0.0
C418 C 0.63581 0.00964 0.18919 0.0
C419 C 0.63514 0.03327 0.16322 0.0
C420 C 0.71562 0.05305 0.16811 0.0
C421 C 0.71769 0.03016 0.19451 0.0
H422 H 0.6014 0.03722 0.15314 0.0
H423 H 0.74605 0.07238 0.16063 0.0
H424 H 0.58148 0.11695 0.15691 0.0
H425 H 0.66244 0.22732 0.19143 0.0
H426 H 0.78928 0.98478 0.07219 0.0
H427 H 0.60357 0.99344 0.19674 0.0
H428 H 0.75016 0.03114 0.20665 0.0
C429 C 0.17118 0.32862 0.82912 0.0
C430 C 0.19403 0.35365 0.8083 0.0
N431 N 0.17288 0.396 0.8056 0.0
N432 N 0.13579 0.35485 0.83969 0.0
C433 C 0.13813 0.39606 0.82538 0.0
H434 H 0.17783 0.29229 0.83481 0.0
Co435 Co 0.0912 0.3287 0.86354 0.0
C436 C 0.02851 0.40488 0.88441 0.0
O437 O 0.9937 0.37455 0.88197 0.0
N438 N 0.04777 0.2996 0.88808 0.0
C439 C 1.0013 0.24865 0.91079 0.0
C440 C 0.01952 0.2616 0.88464 0.0
C441 C 0.04615 0.30883 0.91629 0.0
N442 N 0.01817 0.27872 0.93051 0.0
O443 O 0.13927 0.32344 0.89263 0.0
H444 H 0.01415 0.24285 0.86487 0.0
H445 H 0.06699 0.33606 0.92648 0.0
O446 O 0.07067 0.39203 0.87772 0.0
C447 C 0.15149 0.28042 0.89551 0.0
O448 O 0.12876 0.24812 0.88084 0.0
N449 N 0.04772 0.33033 0.83297 0.0
C450 C 1.00389 0.32739 0.77946 0.0
C451 C 1.00535 0.3692 0.79533 0.0
C452 C 0.02835 0.37026 0.82153 0.0
C453 C 0.04637 0.28918 0.81792 0.0
C454 C 0.02424 0.28673 0.79126 0.0
H455 H 0.03297 0.4043 0.83115 0.0
H456 H 0.06494 0.25864 0.82594 0.0
H457 H 0.1132 0.42439 0.82832 0.0
H458 H 0.22145 0.33991 0.79461 0.0
H459 H 0.97831 0.21902 0.91505 0.0
H460 H 0.99012 0.40155 0.78723 0.0
H461 H 0.02501 0.25387 0.77951 0.0
C462 C 0.3232 0.84779 0.15464 0.0
C463 C 0.34732 0.82479 0.17581 0.0
N464 N 0.38984 0.84544 0.17891 0.0
N465 N 0.35017 0.88279 0.14422 0.0
C466 C 0.39091 0.88006 0.15901 0.0
H467 H 0.28696 0.84152 0.14856 0.0
Co468 Co 0.32536 0.92768 0.11994 0.0
C469 C 0.40324 0.98838 0.09912 0.0
O470 O 0.37361 0.02386 0.10082 0.0
N471 N 0.29759 0.97146 0.09498 0.0
C472 C 0.24836 0.01939 0.07196 0.0
C473 C 0.26043 1.0008 0.0982 0.0
C474 C 0.30713 0.97273 0.06679 0.0
N475 N 0.27811 1.00164 0.0524 0.0
O476 O 0.31951 0.87941 0.09103 0.0
H477 H 0.24175 1.00686 0.1179 0.0
H478 H 0.33394 0.95122 0.05678 0.0
O479 O 0.38931 0.94668 0.10616 0.0
C480 C 0.2763 0.86805 0.088 0.0
O481 O 0.24438 0.8915 0.1025 0.0
N482 N 0.32747 0.9715 0.15034 0.0
C483 C 0.32491 0.01538 0.20384 0.0
C484 C 0.36668 0.01358 0.18801 0.0
C485 C 0.36755 0.99055 0.16183 0.0
C486 C 0.28631 0.97339 0.16528 0.0
C487 C 0.28406 0.99549 0.19194 0.0
H488 H 0.40157 0.98554 0.15232 0.0
H489 H 0.25557 0.95519 0.15718 0.0
H490 H 0.41964 0.90464 0.15629 0.0
H491 H 0.33285 0.7976 0.18942 0.0
H492 H 0.21963 0.04341 0.06755 0.0
H493 H 0.39917 0.02849 0.19615 0.0
H494 H 0.25118 0.995 0.20362 0.0
C495 C 0.83792 0.67658 0.83013 0.0
C496 C 0.81626 0.6509 0.80911 0.0
N497 N 0.83941 0.60969 0.8061 0.0
N498 N 0.87454 0.65187 0.8406 0.0
C499 C 0.87419 0.61093 0.8259 0.0
H500 H 0.82958 0.7125 0.8359 0.0
Co501 Co 0.91887 0.67905 0.86448 0.0
C502 C 0.97954 0.60288 0.88821 0.0
O503 O 0.01455 0.63316 0.88836 0.0
N504 N 0.96234 0.70908 0.8889 0.0
C505 C 0.01694 0.75448 0.90932 0.0
C506 C 0.99792 0.73967 0.88372 0.0
C507 C 0.96027 0.7064 0.91764 0.0
N508 N 0.99262 0.73376 0.93049 0.0
O509 O 0.87046 0.68587 0.89311 0.0
H510 H 0.00923 0.75122 0.8629 0.0
H511 H 0.93561 0.68426 0.92907 0.0
O512 O 0.93854 0.61619 0.87952 0.0
C513 C 0.85808 0.72908 0.89331 0.0
O514 O 0.88011 0.75876 0.87641 0.0
N515 N 0.96274 0.6762 0.83436 0.0
C516 C 0.00857 0.67847 0.78162 0.0
C517 C 0.00883 0.63757 0.79837 0.0
C518 C 0.98499 0.6368 0.8243 0.0
C519 C 0.96234 0.71639 0.81841 0.0
C520 C 0.98536 0.71851 0.79211 0.0
H521 H 0.98226 0.60332 0.83483 0.0
H522 H 0.9424 0.74655 0.82575 0.0
H523 H 0.90061 0.58388 0.82855 0.0
H524 H 0.78824 0.66364 0.79548 0.0
H525 H 0.04555 0.7793 0.91217 0.0
H526 H 0.0263 0.60575 0.79123 0.0
H527 H 0.98338 0.75062 0.77968 0.0
C528 C 0.9708 0.47314 0.39039 0.0
C529 C 0.95605 0.52063 0.38899 0.0
H530 H 0.02873 0.42454 0.39021 0.0
C531 C 0.99041 0.55613 0.38896 0.0
H532 H 0.94534 0.44469 0.39052 0.0
C533 C 0.03832 0.54439 0.3892 0.0
C534 C 0.05306 0.49685 0.38907 0.0
H535 H 0.98038 0.59294 0.38795 0.0
H536 H 0.06379 0.57281 0.38839 0.0
C537 C 0.01871 0.46139 0.39022 0.0
C538 C 0.56416 0.01554 0.59669 0.0
C539 C 0.52943 0.04986 0.59217 0.0
H540 H 0.57951 0.94255 0.60283 0.0
C541 C 0.48221 0.03509 0.58876 0.0
H542 H 0.60072 0.02557 0.59946 0.0
C543 C 0.46976 0.98748 0.59119 0.0
C544 C 0.50431 0.95336 0.59659 0.0
H545 H 0.45434 0.0605 0.58524 0.0
H546 H 0.43301 0.97754 0.58937 0.0
C547 C 0.5518 0.96787 0.59866 0.0
C548 C 0.97488 0.54261 0.59222 0.0
C549 C 0.96043 0.49495 0.59228 0.0
H550 H 0.03253 0.59159 0.59361 0.0
C551 C 0.99501 0.45976 0.59116 0.0
H552 H 0.94924 0.57084 0.59301 0.0
C553 C 0.04284 0.47187 0.59108 0.0
C554 C 0.05731 0.51947 0.59254 0.0
H555 H 0.98521 0.42284 0.59113 0.0
H556 H 0.06848 0.44361 0.59097 0.0
C557 C 0.02272 0.55471 0.59255 0.0
C558 C 0.54789 0.99231 0.39421 0.0
C559 C 0.51251 0.95794 0.39256 0.0
H560 H 0.56448 0.0657 0.39566 0.0
C561 C 0.46497 0.97264 0.3928 0.0
H562 H 0.58473 0.9823 0.39412 0.0
C563 C 0.45316 0.02057 0.39325 0.0
C564 C 0.48858 0.055 0.39391 0.0
H565 H 0.4366 0.94717 0.39158 0.0
H566 H 0.41637 0.03061 0.39234 0.0
C567 C 0.53607 0.04021 0.39511 0.0
C568 C 0.52474 0.96287 0.89199 0.0
C569 C 0.55924 0.99822 0.89096 0.0
H570 H 0.45124 0.94654 0.89253 0.0
C571 C 0.5447 0.04581 0.89164 0.0
H572 H 0.53462 0.92599 0.89156 0.0
C573 C 0.49688 0.05776 0.89182 0.0
C574 C 0.46234 0.02244 0.89172 0.0
H575 H 0.57025 0.07416 0.89099 0.0
H576 H 0.48702 0.09465 0.89123 0.0
C577 C 0.47687 0.97484 0.89256 0.0
C578 C 0.96155 0.49085 0.09001 0.0
C579 C 0.99685 0.4566 0.09263 0.0
H580 H 0.94503 0.56416 0.08749 0.0
C581 C 0.04438 0.47138 0.093 0.0
H582 H 0.92473 0.48077 0.08959 0.0
C583 C 0.0562 0.5193 0.09221 0.0
C584 C 0.02082 0.55365 0.09059 0.0
H585 H 0.0727 0.446 0.09496 0.0
H586 H 0.09294 0.52942 0.09364 0.0
C587 C 0.9734 0.53874 0.08878 0.0
C588 C 0.48836 0.96408 0.09563 0.0
C589 C 0.45404 0.99959 0.09551 0.0
H590 H 0.56173 0.94743 0.09654 0.0
C591 C 0.46886 0.04708 0.09421 0.0
H592 H 0.47826 0.92727 0.09657 0.0
C593 C 0.51675 0.05883 0.09461 0.0
C594 C 0.55106 0.02338 0.09589 0.0
H595 H 0.44345 0.07554 0.09398 0.0
H596 H 0.52681 0.09568 0.0947 0.0
C597 C 0.53629 0.97583 0.09563 0.0
C598 C 0.03891 0.53768 0.89269 0.0
C599 C 0.99133 0.55202 0.89102 0.0
H600 H 0.08817 0.48028 0.89171 0.0
C601 C 0.95629 0.51727 0.88952 0.0
H602 H 0.06703 0.56345 0.89389 0.0
C603 C 0.96859 0.4695 0.88867 0.0
C604 C 0.01627 0.45529 0.88888 0.0
H605 H 0.91944 0.52696 0.8882 0.0
H606 H 0.94052 0.4438 0.88679 0.0
C607 C 0.05125 0.48993 0.89141 0.0
C608 C 0.28431 0.32563 0.42932 0.0
C609 C 0.24533 0.32105 0.4111 0.0
H610 H 0.35185 0.29804 0.44073 0.0
C611 C 0.23671 0.27727 0.39806 0.0
H612 H 0.29184 0.35921 0.4394 0.0
C613 C 0.27131 0.24198 0.39883 0.0
C614 C 0.31449 0.25059 0.41258 0.0
H615 H 0.20717 0.27311 0.38361 0.0
H616 H 0.26737 0.21168 0.38495 0.0
C617 C 0.31874 0.2905 0.43009 0.0
C618 C 0.24441 0.73959 0.59088 0.0
C619 C 0.25145 0.69663 0.5766 0.0
H620 H 0.27742 0.80283 0.60612 0.0
C621 C 0.29055 0.69201 0.55852 0.0
H622 H 0.21487 0.74369 0.6053 0.0
C623 C 0.32639 0.72578 0.55904 0.0
C624 C 0.32332 0.76451 0.57756 0.0
H625 H 0.29695 0.65899 0.54754 0.0
H626 H 0.35934 0.71785 0.54841 0.0
C627 C 0.28037 0.77356 0.59137 0.0
C628 C 0.73281 0.77401 0.39412 0.0
C629 C 0.69052 0.76454 0.40857 0.0
H630 H 0.79728 0.74447 0.37834 0.0
C631 C 0.68803 0.72477 0.42631 0.0
H632 H 0.73527 0.8041 0.37995 0.0
C633 C 0.72353 0.69071 0.42542 0.0
C634 C 0.76179 0.69612 0.40679 0.0
H635 H 0.65558 0.71651 0.43741 0.0
H636 H 0.7174 0.65716 0.43586 0.0
C637 C 0.76844 0.73976 0.3932 0.0
C638 C 0.77919 0.27434 0.58323 0.0
C639 C 0.76837 0.31788 0.57055 0.0
H640 H 0.75135 0.20804 0.59733 0.0
C641 C 0.72769 0.32142 0.55364 0.0
H642 H 0.81019 0.27086 0.59659 0.0
C643 C 0.6939 0.28562 0.55422 0.0
C644 C 0.70058 0.24603 0.5717 0.0
H645 H 0.71852 0.35473 0.54376 0.0
H646 H 0.65966 0.29243 0.5448 0.0
C647 C 0.74529 0.2383 0.58372 0.0
C648 C 0.77253 0.74261 0.89578 0.0
C649 C 0.81692 0.74699 0.90881 0.0
H650 H 0.70919 0.7788 0.88384 0.0
C651 C 0.82473 0.7844 0.9278 0.0
H652 H 0.766 0.71439 0.88069 0.0
C653 C 0.79235 0.82135 0.92951 0.0
C654 C 0.75189 0.82114 0.91226 0.0
H655 H 0.85891 0.78875 0.93783 0.0
H656 H 0.80247 0.8531 0.94086 0.0
C657 C 0.73991 0.77963 0.89758 0.0
C658 C 0.73958 0.24369 0.08997 0.0
C659 C 0.74448 0.19925 0.07706 0.0
H660 H 0.77511 0.30742 0.102 0.0
C661 C 0.78214 0.19176 0.05826 0.0
H662 H 0.71117 0.24999 0.10492 0.0
C663 C 0.81884 0.22449 0.0567 0.0
C664 C 0.81812 0.26499 0.0739 0.0
H665 H 0.7869 0.15756 0.04834 0.0
H666 H 0.8508 0.2146 0.04557 0.0
C667 C 0.77635 0.27666 0.08831 0.0
C668 C 0.19452 0.22635 0.92691 0.0
C669 C 0.19599 0.26594 0.90898 0.0
H670 H 0.22605 0.15996 0.93701 0.0
C671 C 0.23833 0.2769 0.89498 0.0
H672 H 0.1621 0.21702 0.93773 0.0
C673 C 0.27516 0.24393 0.89452 0.0
C674 C 0.26967 0.20015 0.90813 0.0
H675 H 0.24011 0.30693 0.88074 0.0
H676 H 0.30414 0.24951 0.87986 0.0
C677 C 0.23129 0.19364 0.92654 0.0
C678 C 0.27102 0.78119 0.08804 0.0
C679 C 0.26091 0.82403 0.0743 0.0
H680 H 0.24258 0.71523 0.10233 0.0
C681 C 0.22156 0.82652 0.05622 0.0
H682 H 0.30085 0.77864 0.10241 0.0
C683 C 0.18832 0.79019 0.05609 0.0
C684 C 0.1941 0.75115 0.07413 0.0
H685 H 0.21288 0.85934 0.0456 0.0
H686 H 0.15491 0.79609 0.04544 0.0
C687 C 0.23757 0.74474 0.08796 0.0
C688 C 0.21998 0.55802 0.24204 0.0
C689 C 0.18124 0.53135 0.25135 0.0
H690 H 0.24796 0.60388 0.21018 0.0
C691 C 0.14154 0.52771 0.23346 0.0
H692 H 0.25123 0.56143 0.25516 0.0
C693 C 0.13914 0.553 0.20798 0.0
C694 C 0.17669 0.58215 0.1995 0.0
H695 H 0.11161 0.5062 0.23948 0.0
H696 H 0.10687 0.55117 0.19575 0.0
C697 C 0.21784 0.58285 0.21633 0.0
C698 C 0.53308 0.86593 0.75316 0.0
C699 C 0.53922 0.82718 0.7348 0.0
H700 H 0.55501 0.90124 0.79097 0.0
C701 C 0.56886 0.79023 0.74343 0.0
H702 H 0.50932 0.89437 0.7476 0.0
C703 C 0.59434 0.79356 0.76891 0.0
C704 C 0.5911 0.83412 0.78616 0.0
H705 H 0.57412 0.75972 0.72991 0.0
H706 H 0.61787 0.76503 0.77451 0.0
C707 C 0.55885 0.8695 0.77841 0.0
C708 C 0.86889 0.48403 0.23361 0.0
C709 C 0.82918 0.47967 0.25136 0.0
H710 H 0.90435 0.46091 0.19616 0.0
C711 C 0.79115 0.45195 0.24206 0.0
H712 H 0.89826 0.50632 0.23965 0.0
C713 C 0.79406 0.42678 0.21649 0.0
C714 C 0.83528 0.42829 0.1998 0.0
H715 H 0.75991 0.44803 0.25509 0.0
H716 H 0.76453 0.40488 0.21034 0.0
C717 C 0.87205 0.45847 0.20827 0.0
C718 C 0.44335 0.21882 0.76701 0.0
C719 C 0.43913 0.17644 0.78239 0.0
H720 H 0.46885 0.25292 0.72934 0.0
C721 C 0.46262 0.13615 0.77228 0.0
H722 H 0.42629 0.25064 0.77444 0.0
C723 C 0.48757 0.13763 0.74667 0.0
C724 C 0.48936 0.17929 0.73042 0.0
H725 H 0.46001 0.10279 0.78334 0.0
H726 H 0.50464 0.10573 0.7393 0.0
C727 C 0.46808 0.22023 0.74127 0.0
C728 C 0.14477 0.48321 0.74801 0.0
C729 C 0.18448 0.47901 0.73026 0.0
H730 H 0.10956 0.46021 0.78557 0.0
C731 C 0.22277 0.45179 0.73966 0.0
H732 H 0.11521 0.50516 0.74191 0.0
C733 C 0.22012 0.42692 0.76534 0.0
C734 C 0.17891 0.42822 0.78204 0.0
H735 H 0.25403 0.44802 0.72663 0.0
H736 H 0.24985 0.4054 0.77157 0.0
C737 C 0.14187 0.45794 0.77346 0.0
C738 C 0.44374 0.79485 0.24535 0.0
C739 C 0.47182 0.83258 0.25473 0.0
H740 H 0.397 0.76857 0.21336 0.0
C741 C 0.47697 0.87215 0.2369 0.0
H742 H 0.4392 0.76372 0.25844 0.0
C743 C 0.45193 0.87547 0.21136 0.0
C744 C 0.4215 0.83899 0.20275 0.0
H745 H 0.49956 0.90127 0.24298 0.0
H746 H 0.45505 0.90766 0.19917 0.0
C747 C 0.41911 0.7979 0.21958 0.0
C748 C 0.79194 0.5532 0.73964 0.0
C749 C 0.83126 0.52764 0.73013 0.0
H750 H 0.76296 0.59779 0.77181 0.0
C751 C 0.87108 0.52467 0.74796 0.0
H752 H 0.76057 0.55607 0.72658 0.0
C753 C 0.87296 0.5496 0.77359 0.0
C754 C 0.83476 0.57768 0.78229 0.0
H755 H 0.90148 0.50398 0.7418 0.0
H756 H 0.9053 0.54836 0.78577 0.0
C757 C 0.79356 0.57762 0.7655 0.0
C758 C 0.52402 0.14414 0.23826 0.0
C759 C 0.52606 0.18431 0.25584 0.0
H760 H 0.54841 0.11004 0.20061 0.0
C761 C 0.55079 0.22411 0.24616 0.0
H762 H 0.50407 0.11332 0.24462 0.0
C763 C 0.5752 0.22275 0.22032 0.0
C764 C 0.57596 0.18139 0.20372 0.0
H765 H 0.55299 0.25571 0.25907 0.0
H766 H 0.59482 0.25366 0.21386 0.0
C767 C 0.54886 0.14257 0.21263 0.0
C768 C 0.72237 0.09403 0.7229 0.0
C769 C 0.68704 0.08368 0.7026 0.0
H770 H 0.75069 0.08017 0.76443 0.0
C771 C 0.65526 0.04686 0.70861 0.0
H772 H 0.74787 0.12168 0.71945 0.0
C773 C 0.65695 0.02325 0.73473 0.0
C774 C 0.69076 0.03545 0.75536 0.0
H775 H 0.62833 0.03661 0.69352 0.0
H776 H 0.63137 0.99575 0.73893 0.0
C777 C 0.72422 0.07013 0.7489 0.0
C778 C 0.05184 0.37089 0.27452 0.0
C779 C 0.08165 0.33396 0.28319 0.0
H780 H 1.00516 0.39755 0.24268 0.0
C781 C 0.08353 0.29288 0.26633 0.0
H782 H 0.04902 0.40307 0.28675 0.0
C783 C 0.05931 0.29034 0.2404 0.0
C784 C 0.0321 0.32858 0.23092 0.0
H785 H 0.10505 0.26317 0.27261 0.0
H786 H 0.06362 0.25923 0.22727 0.0
C787 C 0.02717 0.36807 0.24884 0.0
C788 C 0.2993 0.93058 0.7191 0.0
C789 C 0.34084 0.93054 0.70271 0.0
H790 H 0.26515 0.9536 0.75733 0.0
C791 C 0.37835 0.95981 0.71116 0.0
H792 H 0.26933 0.9093 0.7129 0.0
C793 C 0.37555 0.98588 0.73631 0.0
C794 C 0.33544 0.98299 0.75382 0.0
H795 H 0.41093 0.96092 0.69925 0.0
H796 H 0.40551 0.0073 0.74246 0.0
C797 C 0.29669 0.95634 0.74445 0.0
C798 C 0.98103 0.64042 0.24573 0.0
C799 C 0.97867 0.68063 0.22822 0.0
H800 H 0.95654 0.60577 0.28321 0.0
C801 C 0.95297 0.71988 0.23774 0.0
H802 H 1.00165 0.61001 0.23948 0.0
C803 C 0.92806 0.71796 0.26339 0.0
C804 C 0.92783 0.67659 0.27997 0.0
H805 H 0.95048 0.75148 0.22486 0.0
H806 H 0.90775 0.74846 0.26976 0.0
C807 C 0.95574 0.63831 0.2712 0.0
C808 C 0.71539 0.9581 0.243 0.0
C809 C 0.67705 0.9856 0.23399 0.0
H810 H 0.74235 0.91021 0.27415 0.0
C811 C 0.63724 0.98894 0.25173 0.0
H812 H 0.74668 0.95494 0.22995 0.0
C813 C 0.6343 0.96254 0.27676 0.0
C814 C 0.67137 0.9325 0.28486 0.0
H815 H 0.60762 0.01099 0.24588 0.0
H816 H 0.60194 0.96408 0.28886 0.0
C817 C 0.71266 0.93205 0.26824 0.0
C818 C 0.95527 0.28882 0.74109 0.0
C819 C 0.98237 0.32722 0.75053 0.0
H820 H 0.90954 0.26134 0.70895 0.0
C821 C 0.98698 0.36673 0.7326 0.0
H822 H 0.95117 0.25769 0.75423 0.0
C823 C 0.96218 0.36938 0.70695 0.0
C824 C 0.93253 0.33227 0.69831 0.0
H825 H 0.00889 0.39635 0.73871 0.0
H826 H 0.96483 0.40157 0.69472 0.0
C827 C 0.93091 0.2912 0.71519 0.0
C828 C 0.36448 0.03196 0.25074 0.0
C829 C 0.32494 0.03674 0.23282 0.0
H830 H 0.39932 0.0536 0.28878 0.0
C831 C 0.28661 0.06371 0.24238 0.0
H832 H 0.39406 0.01013 0.24457 0.0
C833 C 0.289 0.08765 0.26841 0.0
C834 C 0.33005 0.08582 0.28532 0.0
H835 H 0.25546 0.06796 0.22927 0.0
H836 H 0.25912 0.10883 0.27475 0.0
C837 C 0.36717 0.0564 0.27653 0.0
C838 C 0.03005 0.63823 0.73574 0.0
C839 C 0.03167 0.67857 0.75319 0.0
H840 H 0.05562 0.60364 0.6985 0.0
C841 C 0.05715 0.71806 0.74377 0.0
H842 H 0.00964 0.60761 0.74193 0.0
C843 C 0.08261 0.71625 0.71831 0.0
C844 C 0.08356 0.67478 0.70182 0.0
H845 H 0.05907 0.74975 0.75661 0.0
H846 H 0.10278 0.74691 0.71202 0.0
C847 C 0.05584 0.63625 0.71045 0.0
C848 C 0.27685 0.51156 0.50539 0.0
C849 C 0.23445 0.51483 0.52069 0.0
H850 H 0.3091 0.50447 0.46417 0.0
C851 C 0.19148 0.51335 0.50587 0.0
H852 H 0.31037 0.51311 0.5164 0.0
C853 C 0.19076 0.50841 0.47634 0.0
C854 C 0.23299 0.50538 0.46093 0.0
H855 H 0.15835 0.51556 0.51723 0.0
H856 H 0.15712 0.50716 0.46543 0.0
C857 C 0.27613 0.50729 0.47563 0.0
C858 C 0.51075 0.82086 0.4802 0.0
C859 C 0.51066 0.77858 0.46466 0.0
H860 H 0.50787 0.85342 0.52127 0.0
C861 C 0.50799 0.73548 0.47936 0.0
H862 H 0.51257 0.85452 0.46935 0.0
C863 C 0.50574 0.73485 0.5092 0.0
C864 C 0.50537 0.77733 0.52461 0.0
H865 H 0.50843 0.70243 0.46781 0.0
H866 H 0.50323 0.70137 0.52018 0.0
C867 C 0.50794 0.82025 0.50982 0.0
C868 C 0.73653 0.51003 0.47606 0.0
C869 C 0.7789 0.51345 0.46074 0.0
H870 H 0.70436 0.50238 0.51728 0.0
C871 C 0.8219 0.5116 0.4755 0.0
H872 H 0.70298 0.51186 0.4651 0.0
C873 C 0.82268 0.50616 0.50501 0.0
C874 C 0.78048 0.50302 0.52043 0.0
H875 H 0.85499 0.51394 0.46412 0.0
H876 H 0.85635 0.50466 0.51587 0.0
C877 C 0.73731 0.50527 0.50579 0.0
C878 C 0.46195 0.23976 0.48313 0.0
C879 C 0.50044 0.24031 0.46427 0.0
H880 H 0.43922 0.23802 0.52675 0.0
C881 C 0.5463 0.24261 0.47533 0.0
H882 H 0.42622 0.2386 0.47503 0.0
C883 C 0.55365 0.24187 0.50477 0.0
C884 C 0.51522 0.23965 0.52362 0.0
H885 H 0.57644 0.24298 0.46119 0.0
H886 H 0.5894 0.24227 0.51288 0.0
C887 C 0.46929 0.23985 0.5126 0.0
C888 C 0.69024 0.00803 0.98056 0.0
C889 C 0.73326 1.00694 0.96587 0.0
H890 H 0.65574 0.01411 0.02092 0.0
C891 C 0.77558 0.0107 0.98128 0.0
H892 H 0.65718 1.00535 0.9691 0.0
C893 C 0.77477 0.01511 0.01102 0.0
C894 C 0.7316 0.01667 0.02559 0.0
H895 H 0.80917 0.00941 0.97038 0.0
H896 H 0.80768 0.01828 0.02256 0.0
C897 C 0.68941 0.01315 0.01009 0.0
C898 C 0.00926 0.23548 0.97594 0.0
C899 C 0.01114 0.27818 0.96081 0.0
H900 H 1.00385 0.2025 0.01706 0.0
C901 C 0.00864 0.32092 0.97579 0.0
H902 H 0.01167 0.20213 0.9648 0.0
C903 C 1.00424 0.32113 0.00535 0.0
C904 C 1.00273 0.27861 0.0206 0.0
H905 H 0.00986 0.35425 0.96454 0.0
H906 H 1.00235 0.35463 0.01639 0.0
C907 C 1.00549 0.2357 0.00572 0.0
C908 C 0.3216 0.01109 0.00757 0.0
C909 C 0.27848 0.00925 0.02214 0.0
H910 H 0.35639 0.01756 0.96734 0.0
C911 C 0.23624 0.0126 0.00662 0.0
H912 H 0.35459 0.00876 0.01912 0.0
C913 C 0.23726 0.01708 0.97687 0.0
C914 C 0.28054 0.01913 0.9624 0.0
H915 H 0.2026 0.01078 0.01743 0.0
H916 H 0.2044 0.01973 0.96523 0.0
C917 C 0.32262 0.01626 0.97805 0.0
C918 C 0.9597 0.7396 0.97892 0.0
C919 C 0.99901 0.73898 0.96069 0.0
H920 H 0.93499 0.73944 0.02214 0.0
C921 C 0.04441 0.74059 0.97246 0.0
H922 H 0.92433 0.7389 0.97023 0.0
C923 C 0.05043 0.74037 0.00203 0.0
C924 C 0.01113 0.73944 0.02026 0.0
H925 H 0.07513 0.74002 0.95879 0.0
H926 H 0.08581 0.74029 0.01073 0.0
C927 C 0.96572 0.74027 0.00848 0.0
loop_
_geom_bond_atom_site_label_1
_geom_bond_atom_site_label_2
_geom_bond_distance
_geom_bond_site_symmetry_2
_ccdc_geom_bond_type
C0 C1 1.351 . S
C0 N3 1.368 . S
C0 H5 0.931 . S
C1 C0 1.351 . S
C1 N2 1.373 . S
C1 H29 0.930 . S
N2 C1 1.373 . S
N2 C4 1.340 . S
N3 C0 1.368 . S
N3 C4 1.321 . S
N3 Co6 2.135 . S
C4 N2 1.340 . S
C4 N3 1.321 . S
C4 H28 0.930 . S
H5 C0 0.931 . S
Co6 N3 2.135 . S
Co6 N9 2.121 . S
Co6 O14 2.055 . S
Co6 O17 2.039 . S
Co6 N20 2.140 . S
C7 O8 1.227 . S
C7 O17 1.265 . S
O8 C7 1.227 . S
N9 Co6 2.121 . S
N9 C11 1.375 . S
N9 C12 1.313 . S
C10 C11 1.338 . S
C10 N13 1.377 . S
C10 H30 0.930 . S
C11 N9 1.375 . S
C11 C10 1.338 . S
C11 H15 0.931 . S
C12 N9 1.313 . S
C12 N13 1.344 . S
C12 H16 0.930 . S
N13 C10 1.377 . S
N13 C12 1.344 . S
O14 Co6 2.055 . S
O14 C18 1.253 . S
H15 C11 0.931 . S
H16 C12 0.930 . S
O17 Co6 2.039 . S
O17 C7 1.265 . S
C18 O14 1.253 . S
C18 O19 1.227 . S
O19 C18 1.227 . S
N20 Co6 2.140 . S
N20 C23 1.346 . S
N20 C24 1.345 . S
C21 C22 1.387 . S
C21 C25 1.391 . S
C22 C21 1.387 . S
C22 C23 1.369 . S
C22 H31 0.929 . S
C23 N20 1.346 . S
C23 C22 1.369 . S
C23 H26 0.928 . S
C24 N20 1.345 . S
C24 C25 1.371 . S
C24 H27 0.931 . S
C25 C21 1.391 . S
C25 C24 1.371 . S
C25 H32 0.930 . S
H26 C23 0.928 . S
H27 C24 0.931 . S
H28 C4 0.930 . S
H29 C1 0.930 . S
H30 C10 0.930 . S
H31 C22 0.929 . S
H32 C25 0.930 . S
C33 C34 1.351 . S
C33 N36 1.368 . S
C33 H38 0.931 . S
C34 C33 1.351 . S
C34 N35 1.373 . S
C34 H62 0.930 . S
N35 C34 1.373 . S
N35 C37 1.340 . S
N36 C33 1.368 . S
N36 C37 1.321 . S
N36 Co39 2.135 . S
C37 N35 1.340 . S
C37 N36 1.321 . S
C37 H61 0.930 . S
H38 C33 0.931 . S
Co39 N36 2.135 . S
Co39 N42 2.121 . S
Co39 O47 2.055 . S
Co39 O50 2.039 . S
Co39 N53 2.140 . S
C40 O41 1.227 . S
C40 O50 1.265 . S
O41 C40 1.227 . S
N42 Co39 2.121 . S
N42 C44 1.375 . S
N42 C45 1.313 . S
C43 C44 1.338 . S
C43 N46 1.377 . S
C43 H63 0.930 . S
C44 N42 1.375 . S
C44 C43 1.338 . S
C44 H48 0.931 . S
C45 N42 1.313 . S
C45 N46 1.344 . S
C45 H49 0.930 . S
N46 C43 1.377 . S
N46 C45 1.344 . S
O47 Co39 2.055 . S
O47 C51 1.253 . S
H48 C44 0.931 . S
H49 C45 0.930 . S
O50 Co39 2.039 . S
O50 C40 1.265 . S
C51 O47 1.253 . S
C51 O52 1.227 . S
O52 C51 1.227 . S
N53 Co39 2.140 . S
N53 C56 1.346 . S
N53 C57 1.345 . S
C54 C55 1.387 . S
C54 C58 1.391 . S
C55 C54 1.387 . S
C55 C56 1.369 . S
C55 H64 0.929 . S
C56 N53 1.346 . S
C56 C55 1.369 . S
C56 H59 0.928 . S
C57 N53 1.345 . S
C57 C58 1.371 . S
C57 H60 0.931 . S
C58 C54 1.391 . S
C58 C57 1.371 . S
C58 H65 0.930 . S
H59 C56 0.928 . S
H60 C57 0.931 . S
H61 C37 0.930 . S
H62 C34 0.930 . S
H63 C43 0.930 . S
H64 C55 0.929 . S
H65 C58 0.930 . S
C66 C67 1.351 . S
C66 N69 1.368 . S
C66 H71 0.931 . S
C67 C66 1.351 . S
C67 N68 1.373 . S
C67 H95 0.930 . S
N68 C67 1.373 . S
N68 C70 1.340 . S
N69 C66 1.368 . S
N69 C70 1.321 . S
N69 Co72 2.135 . S
C70 N68 1.340 . S
C70 N69 1.321 . S
C70 H94 0.930 . S
H71 C66 0.931 . S
Co72 N69 2.135 . S
Co72 N75 2.121 . S
Co72 O80 2.055 . S
Co72 O83 2.039 . S
Co72 N86 2.140 . S
C73 O74 1.227 . S
C73 O83 1.265 . S
O74 C73 1.227 . S
N75 Co72 2.121 . S
N75 C77 1.375 . S
N75 C78 1.313 . S
C76 C77 1.338 . S
C76 N79 1.377 . S
C76 H96 0.930 . S
C77 N75 1.375 . S
C77 C76 1.338 . S
C77 H81 0.931 . S
C78 N75 1.313 . S
C78 N79 1.344 . S
C78 H82 0.930 . S
N79 C76 1.377 . S
N79 C78 1.344 . S
O80 Co72 2.055 . S
O80 C84 1.253 . S
H81 C77 0.931 . S
H82 C78 0.930 . S
O83 Co72 2.039 . S
O83 C73 1.265 . S
C84 O80 1.253 . S
C84 O85 1.227 . S
O85 C84 1.227 . S
N86 Co72 2.140 . S
N86 C89 1.346 . S
N86 C90 1.345 . S
C87 C88 1.387 . S
C87 C91 1.391 . S
C88 C87 1.387 . S
C88 C89 1.369 . S
C88 H97 0.929 . S
C89 N86 1.346 . S
C89 C88 1.369 . S
C89 H92 0.928 . S
C90 N86 1.345 . S
C90 C91 1.371 . S
C90 H93 0.931 . S
C91 C87 1.391 . S
C91 C90 1.371 . S
C91 H98 0.930 . S
H92 C89 0.928 . S
H93 C90 0.931 . S
H94 C70 0.930 . S
H95 C67 0.930 . S
H96 C76 0.930 . S
H97 C88 0.929 . S
H98 C91 0.930 . S
C99 C100 1.351 . S
C99 N102 1.368 . S
C99 H104 0.931 . S
C100 C99 1.351 . S
C100 N101 1.373 . S
C100 H128 0.930 . S
N101 C100 1.373 . S
N101 C103 1.340 . S
N102 C99 1.368 . S
N102 C103 1.321 . S
N102 Co105 2.135 . S
C103 N101 1.340 . S
C103 N102 1.321 . S
C103 H127 0.930 . S
H104 C99 0.931 . S
Co105 N102 2.135 . S
Co105 N108 2.121 . S
Co105 O113 2.055 . S
Co105 O116 2.039 . S
Co105 N119 2.140 . S
C106 O107 1.227 . S
C106 O116 1.265 . S
O107 C106 1.227 . S
N108 Co105 2.121 . S
N108 C110 1.375 . S
N108 C111 1.313 . S
C109 C110 1.338 . S
C109 N112 1.377 . S
C109 H129 0.930 . S
C110 N108 1.375 . S
C110 C109 1.338 . S
C110 H114 0.931 . S
C111 N108 1.313 . S
C111 N112 1.344 . S
C111 H115 0.930 . S
N112 C109 1.377 . S
N112 C111 1.344 . S
O113 Co105 2.055 . S
O113 C117 1.253 . S
H114 C110 0.931 . S
H115 C111 0.930 . S
O116 Co105 2.039 . S
O116 C106 1.265 . S
C117 O113 1.253 . S
C117 O118 1.227 . S
O118 C117 1.227 . S
N119 Co105 2.140 . S
N119 C122 1.346 . S
N119 C123 1.345 . S
C120 C121 1.387 . S
C120 C124 1.391 . S
C121 C120 1.387 . S
C121 C122 1.369 . S
C121 H130 0.929 . S
C122 N119 1.346 . S
C122 C121 1.369 . S
C122 H125 0.928 . S
C123 N119 1.345 . S
C123 C124 1.371 . S
C123 H126 0.931 . S
C124 C120 1.391 . S
C124 C123 1.371 . S
C124 H131 0.930 . S
H125 C122 0.928 . S
H126 C123 0.931 . S
H127 C103 0.930 . S
H128 C100 0.930 . S
H129 C109 0.930 . S
H130 C121 0.929 . S
H131 C124 0.930 . S
C132 C133 1.351 . S
C132 N135 1.368 . S
C132 H137 0.931 . S
C133 C132 1.351 . S
C133 N134 1.373 . S
C133 H161 0.930 . S
N134 C133 1.373 . S
N134 C136 1.340 . S
N135 C132 1.368 . S
N135 C136 1.321 . S
N135 Co138 2.135 . S
C136 N134 1.340 . S
C136 N135 1.321 . S
C136 H160 0.930 . S
H137 C132 0.931 . S
Co138 N135 2.135 . S
Co138 N141 2.121 . S
Co138 O146 2.055 . S
Co138 O149 2.039 . S
Co138 N152 2.140 . S
C139 O140 1.227 . S
C139 O149 1.265 . S
O140 C139 1.227 . S
N141 Co138 2.121 . S
N141 C143 1.375 . S
N141 C144 1.313 . S
C142 C143 1.338 . S
C142 N145 1.377 . S
C142 H162 0.930 . S
C143 N141 1.375 . S
C143 C142 1.338 . S
C143 H147 0.931 . S
C144 N141 1.313 . S
C144 N145 1.344 . S
C144 H148 0.930 . S
N145 C142 1.377 . S
N145 C144 1.344 . S
O146 Co138 2.055 . S
O146 C150 1.253 . S
H147 C143 0.931 . S
H148 C144 0.930 . S
O149 Co138 2.039 . S
O149 C139 1.265 . S
C150 O146 1.253 . S
C150 O151 1.227 . S
O151 C150 1.227 . S
N152 Co138 2.140 . S
N152 C155 1.346 . S
N152 C156 1.345 . S
C153 C154 1.387 . S
C153 C157 1.391 . S
C154 C153 1.387 . S
C154 C155 1.369 . S
C154 H163 0.929 . S
C155 N152 1.346 . S
C155 C154 1.369 . S
C155 H158 0.928 . S
C156 N152 1.345 . S
C156 C157 1.371 . S
C156 H159 0.931 . S
C157 C153 1.391 . S
C157 C156 1.371 . S
C157 H164 0.930 . S
H158 C155 0.928 . S
H159 C156 0.931 . S
H160 C136 0.930 . S
H161 C133 0.930 . S
H162 C142 0.930 . S
H163 C154 0.929 . S
H164 C157 0.930 . S
C165 C166 1.351 . S
C165 N168 1.368 . S
C165 H170 0.931 . S
C166 C165 1.351 . S
C166 N167 1.373 . S
C166 H194 0.930 . S
N167 C166 1.373 . S
N167 C169 1.340 . S
N168 C165 1.368 . S
N168 C169 1.321 . S
N168 Co171 2.135 . S
C169 N167 1.340 . S
C169 N168 1.321 . S
C169 H193 0.930 . S
H170 C165 0.931 . S
Co171 N168 2.135 . S
Co171 N174 2.121 . S
Co171 O179 2.055 . S
Co171 O182 2.039 . S
Co171 N185 2.140 . S
C172 O173 1.227 . S
C172 O182 1.265 . S
O173 C172 1.227 . S
N174 Co171 2.121 . S
N174 C176 1.375 . S
N174 C177 1.313 . S
C175 C176 1.338 . S
C175 N178 1.377 . S
C175 H195 0.930 . S
C176 N174 1.375 . S
C176 C175 1.338 . S
C176 H180 0.931 . S
C177 N174 1.313 . S
C177 N178 1.344 . S
C177 H181 0.930 . S
N178 C175 1.377 . S
N178 C177 1.344 . S
O179 Co171 2.055 . S
O179 C183 1.253 . S
H180 C176 0.931 . S
H181 C177 0.930 . S
O182 Co171 2.039 . S
O182 C172 1.265 . S
C183 O179 1.253 . S
C183 O184 1.227 . S
O184 C183 1.227 . S
N185 Co171 2.140 . S
N185 C188 1.346 . S
N185 C189 1.345 . S
C186 C187 1.387 . S
C186 C190 1.391 . S
C187 C186 1.387 . S
C187 C188 1.369 . S
C187 H196 0.929 . S
C188 N185 1.346 . S
C188 C187 1.369 . S
C188 H191 0.928 . S
C189 N185 1.345 . S
C189 C190 1.371 . S
C189 H192 0.931 . S
C190 C186 1.391 . S
C190 C189 1.371 . S
C190 H197 0.930 . S
H191 C188 0.928 . S
H192 C189 0.931 . S
H193 C169 0.930 . S
H194 C166 0.930 . S
H195 C175 0.930 . S
H196 C187 0.929 . S
H197 C190 0.930 . S
C198 C199 1.351 . S
C198 N201 1.368 . S
C198 H203 0.931 . S
C199 C198 1.351 . S
C199 N200 1.373 . S
C199 H227 0.930 . S
N200 C199 1.373 . S
N200 C202 1.340 . S
N201 C198 1.368 . S
N201 C202 1.321 . S
N201 Co204 2.135 . S
C202 N200 1.340 . S
C202 N201 1.321 . S
C202 H226 0.930 . S
H203 C198 0.931 . S
Co204 N201 2.135 . S
Co204 N207 2.121 . S
Co204 O212 2.055 . S
Co204 O215 2.039 . S
Co204 N218 2.140 . S
C205 O206 1.227 . S
C205 O215 1.265 . S
O206 C205 1.227 . S
N207 Co204 2.121 . S
N207 C209 1.375 . S
N207 C210 1.313 . S
C208 C209 1.338 . S
C208 N211 1.377 . S
C208 H228 0.930 . S
C209 N207 1.375 . S
C209 C208 1.338 . S
C209 H213 0.931 . S
C210 N207 1.313 . S
C210 N211 1.344 . S
C210 H214 0.930 . S
N211 C208 1.377 . S
N211 C210 1.344 . S
O212 Co204 2.055 . S
O212 C216 1.253 . S
H213 C209 0.931 . S
H214 C210 0.930 . S
O215 Co204 2.039 . S
O215 C205 1.265 . S
C216 O212 1.253 . S
C216 O217 1.227 . S
O217 C216 1.227 . S
N218 Co204 2.140 . S
N218 C221 1.346 . S
N218 C222 1.345 . S
C219 C220 1.387 . S
C219 C223 1.391 . S
C220 C219 1.387 . S
C220 C221 1.369 . S
C220 H229 0.929 . S
C221 N218 1.346 . S
C221 C220 1.369 . S
C221 H224 0.928 . S
C222 N218 1.345 . S
C222 C223 1.371 . S
C222 H225 0.931 . S
C223 C219 1.391 . S
C223 C222 1.371 . S
C223 H230 0.930 . S
H224 C221 0.928 . S
H225 C222 0.931 . S
H226 C202 0.930 . S
H227 C199 0.930 . S
H228 C208 0.930 . S
H229 C220 0.929 . S
H230 C223 0.930 . S
C231 C232 1.351 . S
C231 N234 1.368 . S
C231 H236 0.931 . S
C232 C231 1.351 . S
C232 N233 1.373 . S
C232 H260 0.930 . S
N233 C232 1.373 . S
N233 C235 1.340 . S
N234 C231 1.368 . S
N234 C235 1.321 . S
N234 Co237 2.135 . S
C235 N233 1.340 . S
C235 N234 1.321 . S
C235 H259 0.930 . S
H236 C231 0.931 . S
Co237 N234 2.135 . S
Co237 N240 2.121 . S
Co237 O245 2.055 . S
Co237 O248 2.039 . S
Co237 N251 2.140 . S
C238 O239 1.227 . S
C238 O248 1.265 . S
O239 C238 1.227 . S
N240 Co237 2.121 . S
N240 C242 1.375 . S
N240 C243 1.313 . S
C241 C242 1.338 . S
C241 N244 1.377 . S
C241 H261 0.930 . S
C242 N240 1.375 . S
C242 C241 1.338 . S
C242 H246 0.931 . S
C243 N240 1.313 . S
C243 N244 1.344 . S
C243 H247 0.930 . S
N244 C241 1.377 . S
N244 C243 1.344 . S
O245 Co237 2.055 . S
O245 C249 1.253 . S
H246 C242 0.931 . S
H247 C243 0.930 . S
O248 Co237 2.039 . S
O248 C238 1.265 . S
C249 O245 1.253 . S
C249 O250 1.227 . S
O250 C249 1.227 . S
N251 Co237 2.140 . S
N251 C254 1.346 . S
N251 C255 1.345 . S
C252 C253 1.387 . S
C252 C256 1.391 . S
C253 C252 1.387 . S
C253 C254 1.369 . S
C253 H262 0.929 . S
C254 N251 1.346 . S
C254 C253 1.369 . S
C254 H257 0.928 . S
C255 N251 1.345 . S
C255 C256 1.371 . S
C255 H258 0.931 . S
C256 C252 1.391 . S
C256 C255 1.371 . S
C256 H263 0.930 . S
H257 C254 0.928 . S
H258 C255 0.931 . S
H259 C235 0.930 . S
H260 C232 0.930 . S
H261 C241 0.930 . S
H262 C253 0.929 . S
H263 C256 0.930 . S
C264 C265 1.351 . S
C264 N267 1.368 . S
C264 H269 0.931 . S
C265 C264 1.351 . S
C265 N266 1.373 . S
C265 H293 0.930 . S
N266 C265 1.373 . S
N266 C268 1.340 . S
N267 C264 1.368 . S
N267 C268 1.321 . S
N267 Co270 2.135 . S
C268 N266 1.340 . S
C268 N267 1.321 . S
C268 H292 0.930 . S
H269 C264 0.931 . S
Co270 N267 2.135 . S
Co270 N273 2.121 . S
Co270 O278 2.055 . S
Co270 O281 2.039 . S
Co270 N284 2.140 . S
C271 O272 1.227 . S
C271 O281 1.265 . S
O272 C271 1.227 . S
N273 Co270 2.121 . S
N273 C275 1.375 1_565 S
N273 C276 1.313 . S
C274 C275 1.338 . S
C274 N277 1.377 . S
C274 H294 0.930 . S
C275 N273 1.375 1_545 S
C275 C274 1.338 . S
C275 H279 0.931 . S
C276 N273 1.313 . S
C276 N277 1.344 1_565 S
C276 H280 0.930 . S
N277 C274 1.377 . S
N277 C276 1.344 1_545 S
O278 Co270 2.055 . S
O278 C282 1.253 . S
H279 C275 0.931 . S
H280 C276 0.930 . S
O281 Co270 2.039 . S
O281 C271 1.265 . S
C282 O278 1.253 . S
C282 O283 1.227 . S
O283 C282 1.227 . S
N284 Co270 2.140 . S
N284 C287 1.346 1_565 S
N284 C288 1.345 1_565 S
C285 C286 1.387 . S
C285 C289 1.391 . S
C286 C285 1.387 . S
C286 C287 1.369 . S
C286 H295 0.929 . S
C287 N284 1.346 1_545 S
C287 C286 1.369 . S
C287 H290 0.928 1_545 S
C288 N284 1.345 1_545 S
C288 C289 1.371 . S
C288 H291 0.931 . S
C289 C285 1.391 . S
C289 C288 1.371 . S
C289 H296 0.930 . S
H290 C287 0.928 1_565 S
H291 C288 0.931 . S
H292 C268 0.930 . S
H293 C265 0.930 . S
H294 C274 0.930 . S
H295 C286 0.929 . S
H296 C289 0.930 . S
C297 C298 1.351 . S
C297 N300 1.368 . S
C297 H302 0.931 . S
C298 C297 1.351 . S
C298 N299 1.373 . S
C298 H326 0.930 . S
N299 C298 1.373 . S
N299 C301 1.340 . S
N300 C297 1.368 . S
N300 C301 1.321 . S
N300 Co303 2.135 . S
C301 N299 1.340 . S
C301 N300 1.321 . S
C301 H325 0.930 . S
H302 C297 0.931 . S
Co303 N300 2.135 . S
Co303 N306 2.121 . S
Co303 O311 2.055 . S
Co303 O314 2.039 . S
Co303 N317 2.140 . S
C304 O305 1.227 . S
C304 O314 1.265 . S
O305 C304 1.227 . S
N306 Co303 2.121 . S
N306 C308 1.375 1_655 S
N306 C309 1.313 . S
C307 C308 1.338 . S
C307 N310 1.377 . S
C307 H327 0.930 . S
C308 N306 1.375 1_455 S
C308 C307 1.338 . S
C308 H312 0.931 . S
C309 N306 1.313 . S
C309 N310 1.344 1_655 S
C309 H313 0.930 . S
N310 C307 1.377 . S
N310 C309 1.344 1_455 S
O311 Co303 2.055 . S
O311 C315 1.253 . S
H312 C308 0.931 . S
H313 C309 0.930 . S
O314 Co303 2.039 . S
O314 C304 1.265 . S
C315 O311 1.253 . S
C315 O316 1.227 . S
O316 C315 1.227 . S
N317 Co303 2.140 . S
N317 C320 1.346 1_655 S
N317 C321 1.345 1_655 S
C318 C319 1.387 . S
C318 C322 1.391 . S
C319 C318 1.387 . S
C319 C320 1.369 . S
C319 H328 0.929 . S
C320 N317 1.346 1_455 S
C320 C319 1.369 . S
C320 H323 0.928 1_455 S
C321 N317 1.345 1_455 S
C321 C322 1.371 . S
C321 H324 0.931 . S
C322 C318 1.391 . S
C322 C321 1.371 . S
C322 H329 0.930 . S
H323 C320 0.928 1_655 S
H324 C321 0.931 . S
H325 C301 0.930 . S
H326 C298 0.930 . S
H327 C307 0.930 . S
H328 C319 0.929 . S
H329 C322 0.930 . S
C330 C331 1.351 . S
C330 N333 1.368 . S
C330 H335 0.931 . S
C331 C330 1.351 . S
C331 N332 1.373 . S
C331 H359 0.930 . S
N332 C331 1.373 . S
N332 C334 1.340 . S
N333 C330 1.368 . S
N333 C334 1.321 . S
N333 Co336 2.135 . S
C334 N332 1.340 . S
C334 N333 1.321 . S
C334 H358 0.930 . S
H335 C330 0.931 . S
Co336 N333 2.135 . S
Co336 N339 2.121 . S
Co336 O344 2.055 . S
Co336 O347 2.039 . S
Co336 N350 2.140 . S
C337 O338 1.227 . S
C337 O347 1.265 . S
O338 C337 1.227 . S
N339 Co336 2.121 . S
N339 C341 1.375 1_545 S
N339 C342 1.313 . S
C340 C341 1.338 . S
C340 N343 1.377 . S
C340 H360 0.930 . S
C341 N339 1.375 1_565 S
C341 C340 1.338 . S
C341 H345 0.931 . S
C342 N339 1.313 . S
C342 N343 1.344 1_545 S
C342 H346 0.930 . S
N343 C340 1.377 . S
N343 C342 1.344 1_565 S
O344 Co336 2.055 . S
O344 C348 1.253 . S
H345 C341 0.931 . S
H346 C342 0.930 . S
O347 Co336 2.039 . S
O347 C337 1.265 . S
C348 O344 1.253 . S
C348 O349 1.227 . S
O349 C348 1.227 . S
N350 Co336 2.140 . S
N350 C353 1.346 1_545 S
N350 C354 1.345 1_545 S
C351 C352 1.387 . S
C351 C355 1.391 . S
C352 C351 1.387 . S
C352 C353 1.369 . S
C352 H361 0.929 . S
C353 N350 1.346 1_565 S
C353 C352 1.369 . S
C353 H356 0.928 1_565 S
C354 N350 1.345 1_565 S
C354 C355 1.371 . S
C354 H357 0.931 . S
C355 C351 1.391 . S
C355 C354 1.371 . S
C355 H362 0.930 . S
H356 C353 0.928 1_545 S
H357 C354 0.931 . S
H358 C334 0.930 . S
H359 C331 0.930 . S
H360 C340 0.930 . S
H361 C352 0.929 . S
H362 C355 0.930 . S
C363 C364 1.351 . S
C363 N366 1.368 . S
C363 H368 0.931 . S
C364 C363 1.351 . S
C364 N365 1.373 . S
C364 H392 0.930 . S
N365 C364 1.373 . S
N365 C367 1.340 . S
N366 C363 1.368 . S
N366 C367 1.321 . S
N366 Co369 2.135 . S
C367 N365 1.340 . S
C367 N366 1.321 . S
C367 H391 0.930 . S
H368 C363 0.931 . S
Co369 N366 2.135 . S
Co369 N372 2.121 . S
Co369 O377 2.055 . S
Co369 O380 2.039 . S
Co369 N383 2.140 . S
C370 O371 1.227 . S
C370 O380 1.265 . S
O371 C370 1.227 . S
N372 Co369 2.121 . S
N372 C374 1.375 1_455 S
N372 C375 1.313 . S
C373 C374 1.338 . S
C373 N376 1.377 . S
C373 H393 0.930 . S
C374 N372 1.375 1_655 S
C374 C373 1.338 . S
C374 H378 0.931 . S
C375 N372 1.313 . S
C375 N376 1.344 1_455 S
C375 H379 0.930 . S
N376 C373 1.377 . S
N376 C375 1.344 1_655 S
O377 Co369 2.055 . S
O377 C381 1.253 . S
H378 C374 0.931 . S
H379 C375 0.930 . S
O380 Co369 2.039 . S
O380 C370 1.265 . S
C381 O377 1.253 . S
C381 O382 1.227 . S
O382 C381 1.227 . S
N383 Co369 2.140 . S
N383 C386 1.346 1_455 S
N383 C387 1.345 1_455 S
C384 C385 1.387 . S
C384 C388 1.391 . S
C385 C384 1.387 . S
C385 C386 1.369 . S
C385 H394 0.929 . S
C386 N383 1.346 1_655 S
C386 C385 1.369 . S
C386 H389 0.928 1_655 S
C387 N383 1.345 1_655 S
C387 C388 1.371 . S
C387 H390 0.931 . S
C388 C384 1.391 . S
C388 C387 1.371 . S
C388 H395 0.930 . S
H389 C386 0.928 1_455 S
H390 C387 0.931 . S
H391 C367 0.930 . S
H392 C364 0.930 . S
H393 C373 0.930 . S
H394 C385 0.929 . S
H395 C388 0.930 . S
C396 C397 1.351 . S
C396 N399 1.368 . S
C396 H401 0.931 . S
C397 C396 1.351 . S
C397 N398 1.373 . S
C397 H425 0.930 . S
N398 C397 1.373 . S
N398 C400 1.340 . S
N399 C396 1.368 . S
N399 C400 1.321 . S
N399 Co402 2.135 . S
C400 N398 1.340 . S
C400 N399 1.321 . S
C400 H424 0.930 . S
H401 C396 0.931 . S
Co402 N399 2.135 . S
Co402 N405 2.121 . S
Co402 O410 2.055 . S
Co402 O413 2.039 . S
Co402 N416 2.140 . S
C403 O404 1.227 . S
C403 O413 1.265 . S
O404 C403 1.227 . S
N405 Co402 2.121 . S
N405 C407 1.375 1_545 S
N405 C408 1.313 . S
C406 C407 1.338 . S
C406 N409 1.377 . S
C406 H426 0.930 . S
C407 N405 1.375 1_565 S
C407 C406 1.338 . S
C407 H411 0.931 . S
C408 N405 1.313 . S
C408 N409 1.344 1_545 S
C408 H412 0.930 . S
N409 C406 1.377 . S
N409 C408 1.344 1_565 S
O410 Co402 2.055 . S
O410 C414 1.253 . S
H411 C407 0.931 . S
H412 C408 0.930 . S
O413 Co402 2.039 . S
O413 C403 1.265 . S
C414 O410 1.253 . S
C414 O415 1.227 . S
O415 C414 1.227 . S
N416 Co402 2.140 . S
N416 C419 1.346 1_545 S
N416 C420 1.345 1_545 S
C417 C418 1.387 . S
C417 C421 1.391 . S
C418 C417 1.387 . S
C418 C419 1.369 . S
C418 H427 0.929 . S
C419 N416 1.346 1_565 S
C419 C418 1.369 . S
C419 H422 0.928 1_565 S
C420 N416 1.345 1_565 S
C420 C421 1.371 . S
C420 H423 0.931 . S
C421 C417 1.391 . S
C421 C420 1.371 . S
C421 H428 0.930 . S
H422 C419 0.928 1_545 S
H423 C420 0.931 . S
H424 C400 0.930 . S
H425 C397 0.930 . S
H426 C406 0.930 . S
H427 C418 0.929 . S
H428 C421 0.930 . S
C429 C430 1.351 . S
C429 N432 1.368 . S
C429 H434 0.931 . S
C430 C429 1.351 . S
C430 N431 1.373 . S
C430 H458 0.930 . S
N431 C430 1.373 . S
N431 C433 1.340 . S
N432 C429 1.368 . S
N432 C433 1.321 . S
N432 Co435 2.135 . S
C433 N431 1.340 . S
C433 N432 1.321 . S
C433 H457 0.930 . S
H434 C429 0.931 . S
Co435 N432 2.135 . S
Co435 N438 2.121 . S
Co435 O443 2.055 . S
Co435 O446 2.039 . S
Co435 N449 2.140 . S
C436 O437 1.227 . S
C436 O446 1.265 . S
O437 C436 1.227 . S
N438 Co435 2.121 . S
N438 C440 1.375 1_455 S
N438 C441 1.313 . S
C439 C440 1.338 . S
C439 N442 1.377 . S
C439 H459 0.930 . S
C440 N438 1.375 1_655 S
C440 C439 1.338 . S
C440 H444 0.931 . S
C441 N438 1.313 . S
C441 N442 1.344 1_455 S
C441 H445 0.930 . S
N442 C439 1.377 . S
N442 C441 1.344 1_655 S
O443 Co435 2.055 . S
O443 C447 1.253 . S
H444 C440 0.931 . S
H445 C441 0.930 . S
O446 Co435 2.039 . S
O446 C436 1.265 . S
C447 O443 1.253 . S
C447 O448 1.227 . S
O448 C447 1.227 . S
N449 Co435 2.140 . S
N449 C452 1.346 1_455 S
N449 C453 1.345 1_455 S
C450 C451 1.387 . S
C450 C454 1.391 . S
C451 C450 1.387 . S
C451 C452 1.369 . S
C451 H460 0.929 . S
C452 N449 1.346 1_655 S
C452 C451 1.369 . S
C452 H455 0.928 1_655 S
C453 N449 1.345 1_655 S
C453 C454 1.371 . S
C453 H456 0.931 . S
C454 C450 1.391 . S
C454 C453 1.371 . S
C454 H461 0.930 . S
H455 C452 0.928 1_455 S
H456 C453 0.931 . S
H457 C433 0.930 . S
H458 C430 0.930 . S
H459 C439 0.930 . S
H460 C451 0.929 . S
H461 C454 0.930 . S
C462 C463 1.351 . S
C462 N465 1.368 . S
C462 H467 0.931 . S
C463 C462 1.351 . S
C463 N464 1.373 . S
C463 H491 0.930 . S
N464 C463 1.373 . S
N464 C466 1.340 . S
N465 C462 1.368 . S
N465 C466 1.321 . S
N465 Co468 2.135 . S
C466 N464 1.340 . S
C466 N465 1.321 . S
C466 H490 0.930 . S
H467 C462 0.931 . S
Co468 N465 2.135 . S
Co468 N471 2.121 . S
Co468 O476 2.055 . S
Co468 O479 2.039 . S
Co468 N482 2.140 . S
C469 O470 1.227 . S
C469 O479 1.265 . S
O470 C469 1.227 . S
N471 Co468 2.121 . S
N471 C473 1.375 1_565 S
N471 C474 1.313 . S
C472 C473 1.338 . S
C472 N475 1.377 . S
C472 H492 0.930 . S
C473 N471 1.375 1_545 S
C473 C472 1.338 . S
C473 H477 0.931 . S
C474 N471 1.313 . S
C474 N475 1.344 1_565 S
C474 H478 0.930 . S
N475 C472 1.377 . S
N475 C474 1.344 1_545 S
O476 Co468 2.055 . S
O476 C480 1.253 . S
H477 C473 0.931 . S
H478 C474 0.930 . S
O479 Co468 2.039 . S
O479 C469 1.265 . S
C480 O476 1.253 . S
C480 O481 1.227 . S
O481 C480 1.227 . S
N482 Co468 2.140 . S
N482 C485 1.346 1_565 S
N482 C486 1.345 1_565 S
C483 C484 1.387 . S
C483 C487 1.391 . S
C484 C483 1.387 . S
C484 C485 1.369 . S
C484 H493 0.929 . S
C485 N482 1.346 1_545 S
C485 C484 1.369 . S
C485 H488 0.928 1_545 S
C486 N482 1.345 1_545 S
C486 C487 1.371 . S
C486 H489 0.931 . S
C487 C483 1.391 . S
C487 C486 1.371 . S
C487 H494 0.930 . S
H488 C485 0.928 1_565 S
H489 C486 0.931 . S
H490 C466 0.930 . S
H491 C463 0.930 . S
H492 C472 0.930 . S
H493 C484 0.929 . S
H494 C487 0.930 . S
C495 C496 1.351 . S
C495 N498 1.368 . S
C495 H500 0.931 . S
C496 C495 1.351 . S
C496 N497 1.373 . S
C496 H524 0.930 . S
N497 C496 1.373 . S
N497 C499 1.340 . S
N498 C495 1.368 . S
N498 C499 1.321 . S
N498 Co501 2.135 . S
C499 N497 1.340 . S
C499 N498 1.321 . S
C499 H523 0.930 . S
H500 C495 0.931 . S
Co501 N498 2.135 . S
Co501 N504 2.121 . S
Co501 O509 2.055 . S
Co501 O512 2.039 . S
Co501 N515 2.140 . S
C502 O503 1.227 . S
C502 O512 1.265 . S
O503 C502 1.227 . S
N504 Co501 2.121 . S
N504 C506 1.375 1_655 S
N504 C507 1.313 . S
C505 C506 1.338 . S
C505 N508 1.377 . S
C505 H525 0.930 . S
C506 N504 1.375 1_455 S
C506 C505 1.338 . S
C506 H510 0.931 . S
C507 N504 1.313 . S
C507 N508 1.344 1_655 S
C507 H511 0.930 . S
N508 C505 1.377 . S
N508 C507 1.344 1_455 S
O509 Co501 2.055 . S
O509 C513 1.253 . S
H510 C506 0.931 . S
H511 C507 0.930 . S
O512 Co501 2.039 . S
O512 C502 1.265 . S
C513 O509 1.253 . S
C513 O514 1.227 . S
O514 C513 1.227 . S
N515 Co501 2.140 . S
N515 C518 1.346 1_655 S
N515 C519 1.345 1_655 S
C516 C517 1.387 . S
C516 C520 1.391 . S
C517 C516 1.387 . S
C517 C518 1.369 . S
C517 H526 0.929 . S
C518 N515 1.346 1_455 S
C518 C517 1.369 . S
C518 H521 0.928 1_455 S
C519 N515 1.345 1_455 S
C519 C520 1.371 . S
C519 H522 0.931 . S
C520 C516 1.391 . S
C520 C519 1.371 . S
C520 H527 0.930 . S
H521 C518 0.928 1_655 S
H522 C519 0.931 . S
H523 C499 0.930 . S
H524 C496 0.930 . S
H525 C505 0.930 . S
H526 C517 0.929 . S
H527 C520 0.930 . S
C528 C529 1.387 . S
C528 H532 0.950 . S
C528 C537 1.390 1_655 S
C529 C528 1.387 . S
C529 C531 1.387 . S
H530 C537 0.950 . S
C531 C529 1.387 . S
C531 C533 1.390 1_655 S
C531 H535 0.950 . S
H532 C528 0.950 . S
C533 C531 1.390 1_455 S
C533 C534 1.387 . S
C533 H536 0.950 . S
C534 C533 1.387 . S
C534 C537 1.387 . S
H535 C531 0.950 . S
H536 C533 0.950 . S
C537 C528 1.390 1_455 S
C537 H530 0.950 . S
C537 C534 1.387 . S
C538 C539 1.387 . S
C538 H542 0.950 . S
C538 C547 1.390 1_545 S
C539 C538 1.387 . S
C539 C541 1.387 . S
H540 C547 0.950 . S
C541 C539 1.387 . S
C541 C543 1.390 1_545 S
C541 H545 0.950 . S
H542 C538 0.950 . S
C543 C541 1.390 1_565 S
C543 C544 1.387 . S
C543 H546 0.950 . S
C544 C543 1.387 . S
C544 C547 1.387 . S
H545 C541 0.950 . S
H546 C543 0.950 . S
C547 C538 1.390 1_565 S
C547 H540 0.950 . S
C547 C544 1.387 . S
C548 C549 1.387 . S
C548 H552 0.950 . S
C548 C557 1.390 1_655 S
C549 C548 1.387 . S
C549 C551 1.387 . S
H550 C557 0.950 . S
C551 C549 1.387 . S
C551 C553 1.390 1_655 S
C551 H555 0.950 . S
H552 C548 0.950 . S
C553 C551 1.390 1_455 S
C553 C554 1.387 . S
C553 H556 0.950 . S
C554 C553 1.387 . S
C554 C557 1.387 . S
H555 C551 0.950 . S
H556 C553 0.950 . S
C557 C548 1.390 1_455 S
C557 H550 0.950 . S
C557 C554 1.387 . S
C558 C559 1.387 . S
C558 H562 0.950 . S
C558 C567 1.390 1_565 S
C559 C558 1.387 . S
C559 C561 1.387 . S
H560 C567 0.950 . S
C561 C559 1.387 . S
C561 C563 1.390 1_565 S
C561 H565 0.950 . S
H562 C558 0.950 . S
C563 C561 1.390 1_545 S
C563 C564 1.387 . S
C563 H566 0.950 . S
C564 C563 1.387 . S
C564 C567 1.387 . S
H565 C561 0.950 . S
H566 C563 0.950 . S
C567 C558 1.390 1_545 S
C567 H560 0.950 . S
C567 C564 1.387 . S
C568 C569 1.387 . S
C568 H572 0.950 . S
C568 C577 1.390 1_565 S
C569 C568 1.387 . S
C569 C571 1.387 . S
H570 C577 0.950 . S
C571 C569 1.387 . S
C571 C573 1.390 1_565 S
C571 H575 0.950 . S
H572 C568 0.950 . S
C573 C571 1.390 1_545 S
C573 C574 1.387 . S
C573 H576 0.950 . S
C574 C573 1.387 . S
C574 C577 1.387 . S
H575 C571 0.950 . S
H576 C573 0.950 . S
C577 C568 1.390 1_545 S
C577 H570 0.950 . S
C577 C574 1.387 . S
C578 C579 1.387 . S
C578 H582 0.950 . S
C578 C587 1.390 1_655 S
C579 C578 1.387 . S
C579 C581 1.387 . S
H580 C587 0.950 . S
C581 C579 1.387 . S
C581 C583 1.390 1_655 S
C581 H585 0.950 . S
H582 C578 0.950 . S
C583 C581 1.390 1_455 S
C583 C584 1.387 . S
C583 H586 0.950 . S
C584 C583 1.387 . S
C584 C587 1.387 . S
H585 C581 0.950 . S
H586 C583 0.950 . S
C587 C578 1.390 1_455 S
C587 H580 0.950 . S
C587 C584 1.387 . S
C588 C589 1.387 . S
C588 H592 0.950 . S
C588 C597 1.390 1_565 S
C589 C588 1.387 . S
C589 C591 1.387 . S
H590 C597 0.950 . S
C591 C589 1.387 . S
C591 C593 1.390 1_565 S
C591 H595 0.950 . S
H592 C588 0.950 . S
C593 C591 1.390 1_545 S
C593 C594 1.387 . S
C593 H596 0.950 . S
C594 C593 1.387 . S
C594 C597 1.387 . S
H595 C591 0.950 . S
H596 C593 0.950 . S
C597 C588 1.390 1_545 S
C597 H590 0.950 . S
C597 C594 1.387 . S
C598 C599 1.387 . S
C598 H602 0.950 . S
C598 C607 1.390 1_655 S
C599 C598 1.387 . S
C599 C601 1.387 . S
H600 C607 0.950 . S
C601 C599 1.387 . S
C601 C603 1.390 1_655 S
C601 H605 0.950 . S
H602 C598 0.950 . S
C603 C601 1.390 1_455 S
C603 C604 1.387 . S
C603 H606 0.950 . S
C604 C603 1.387 . S
C604 C607 1.387 . S
H605 C601 0.950 . S
H606 C603 0.950 . S
C607 C598 1.390 1_455 S
C607 H600 0.950 . S
C607 C604 1.387 . S
C608 C609 1.387 . S
C608 H612 0.950 . S
C608 C617 1.390 . S
C609 C608 1.387 . S
C609 C611 1.387 . S
H610 C617 0.950 . S
C611 C609 1.387 . S
C611 C613 1.390 . S
C611 H615 0.950 . S
H612 C608 0.950 . S
C613 C611 1.390 . S
C613 C614 1.387 . S
C613 H616 0.950 . S
C614 C613 1.387 . S
C614 C617 1.387 . S
H615 C611 0.950 . S
H616 C613 0.950 . S
C617 C608 1.390 . S
C617 H610 0.950 . S
C617 C614 1.387 . S
C618 C619 1.387 . S
C618 H622 0.950 . S
C618 C627 1.390 . S
C619 C618 1.387 . S
C619 C621 1.387 . S
H620 C627 0.950 . S
C621 C619 1.387 . S
C621 C623 1.390 . S
C621 H625 0.950 . S
H622 C618 0.950 . S
C623 C621 1.390 . S
C623 C624 1.387 . S
C623 H626 0.950 . S
C624 C623 1.387 . S
C624 C627 1.387 . S
H625 C621 0.950 . S
H626 C623 0.950 . S
C627 C618 1.390 . S
C627 H620 0.950 . S
C627 C624 1.387 . S
C628 C629 1.387 . S
C628 H632 0.950 . S
C628 C637 1.390 . S
C629 C628 1.387 . S
C629 C631 1.387 . S
H630 C637 0.950 . S
C631 C629 1.387 . S
C631 C633 1.390 . S
C631 H635 0.950 . S
H632 C628 0.950 . S
C633 C631 1.390 . S
C633 C634 1.387 . S
C633 H636 0.950 . S
C634 C633 1.387 . S
C634 C637 1.387 . S
H635 C631 0.950 . S
H636 C633 0.950 . S
C637 C628 1.390 . S
C637 H630 0.950 . S
C637 C634 1.387 . S
C638 C639 1.387 . S
C638 H642 0.950 . S
C638 C647 1.390 . S
C639 C638 1.387 . S
C639 C641 1.387 . S
H640 C647 0.950 . S
C641 C639 1.387 . S
C641 C643 1.390 . S
C641 H645 0.950 . S
H642 C638 0.950 . S
C643 C641 1.390 . S
C643 C644 1.387 . S
C643 H646 0.950 . S
C644 C643 1.387 . S
C644 C647 1.387 . S
H645 C641 0.950 . S
H646 C643 0.950 . S
C647 C638 1.390 . S
C647 H640 0.950 . S
C647 C644 1.387 . S
C648 C649 1.387 . S
C648 H652 0.950 . S
C648 C657 1.390 . S
C649 C648 1.387 . S
C649 C651 1.387 . S
H650 C657 0.950 . S
C651 C649 1.387 . S
C651 C653 1.390 . S
C651 H655 0.950 . S
H652 C648 0.950 . S
C653 C651 1.390 . S
C653 C654 1.387 . S
C653 H656 0.950 . S
C654 C653 1.387 . S
C654 C657 1.387 . S
H655 C651 0.950 . S
H656 C653 0.950 . S
C657 C648 1.390 . S
C657 H650 0.950 . S
C657 C654 1.387 . S
C658 C659 1.387 . S
C658 H662 0.950 . S
C658 C667 1.390 . S
C659 C658 1.387 . S
C659 C661 1.387 . S
H660 C667 0.950 . S
C661 C659 1.387 . S
C661 C663 1.390 . S
C661 H665 0.950 . S
H662 C658 0.950 . S
C663 C661 1.390 . S
C663 C664 1.387 . S
C663 H666 0.950 . S
C664 C663 1.387 . S
C664 C667 1.387 . S
H665 C661 0.950 . S
H666 C663 0.950 . S
C667 C658 1.390 . S
C667 H660 0.950 . S
C667 C664 1.387 . S
C668 C669 1.387 . S
C668 H672 0.950 . S
C668 C677 1.390 . S
C669 C668 1.387 . S
C669 C671 1.387 . S
H670 C677 0.950 . S
C671 C669 1.387 . S
C671 C673 1.390 . S
C671 H675 0.950 . S
H672 C668 0.950 . S
C673 C671 1.390 . S
C673 C674 1.387 . S
C673 H676 0.950 . S
C674 C673 1.387 . S
C674 C677 1.387 . S
H675 C671 0.950 . S
H676 C673 0.950 . S
C677 C668 1.390 . S
C677 H670 0.950 . S
C677 C674 1.387 . S
C678 C679 1.387 . S
C678 H682 0.950 . S
C678 C687 1.390 . S
C679 C678 1.387 . S
C679 C681 1.387 . S
H680 C687 0.950 . S
C681 C679 1.387 . S
C681 C683 1.390 . S
C681 H685 0.950 . S
H682 C678 0.950 . S
C683 C681 1.390 . S
C683 C684 1.387 . S
C683 H686 0.950 . S
C684 C683 1.387 . S
C684 C687 1.387 . S
H685 C681 0.950 . S
H686 C683 0.950 . S
C687 C678 1.390 . S
C687 H680 0.950 . S
C687 C684 1.387 . S
C688 C689 1.387 . S
C688 H692 0.950 . S
C688 C697 1.390 . S
C689 C688 1.387 . S
C689 C691 1.387 . S
H690 C697 0.950 . S
C691 C689 1.387 . S
C691 C693 1.390 . S
C691 H695 0.950 . S
H692 C688 0.950 . S
C693 C691 1.390 . S
C693 C694 1.387 . S
C693 H696 0.950 . S
C694 C693 1.387 . S
C694 C697 1.387 . S
H695 C691 0.950 . S
H696 C693 0.950 . S
C697 C688 1.390 . S
C697 H690 0.950 . S
C697 C694 1.387 . S
C698 C699 1.387 . S
C698 H702 0.950 . S
C698 C707 1.390 . S
C699 C698 1.387 . S
C699 C701 1.387 . S
H700 C707 0.950 . S
C701 C699 1.387 . S
C701 C703 1.390 . S
C701 H705 0.950 . S
H702 C698 0.950 . S
C703 C701 1.390 . S
C703 C704 1.387 . S
C703 H706 0.950 . S
C704 C703 1.387 . S
C704 C707 1.387 . S
H705 C701 0.950 . S
H706 C703 0.950 . S
C707 C698 1.390 . S
C707 H700 0.950 . S
C707 C704 1.387 . S
C708 C709 1.387 . S
C708 H712 0.950 . S
C708 C717 1.390 . S
C709 C708 1.387 . S
C709 C711 1.387 . S
H710 C717 0.950 . S
C711 C709 1.387 . S
C711 C713 1.390 . S
C711 H715 0.950 . S
H712 C708 0.950 . S
C713 C711 1.390 . S
C713 C714 1.387 . S
C713 H716 0.950 . S
C714 C713 1.387 . S
C714 C717 1.387 . S
H715 C711 0.950 . S
H716 C713 0.950 . S
C717 C708 1.390 . S
C717 H710 0.950 . S
C717 C714 1.387 . S
C718 C719 1.387 . S
C718 H722 0.950 . S
C718 C727 1.390 . S
C719 C718 1.387 . S
C719 C721 1.387 . S
H720 C727 0.950 . S
C721 C719 1.387 . S
C721 C723 1.390 . S
C721 H725 0.950 . S
H722 C718 0.950 . S
C723 C721 1.390 . S
C723 C724 1.387 . S
C723 H726 0.950 . S
C724 C723 1.387 . S
C724 C727 1.387 . S
H725 C721 0.950 . S
H726 C723 0.950 . S
C727 C718 1.390 . S
C727 H720 0.950 . S
C727 C724 1.387 . S
C728 C729 1.387 . S
C728 H732 0.950 . S
C728 C737 1.390 . S
C729 C728 1.387 . S
C729 C731 1.387 . S
H730 C737 0.950 . S
C731 C729 1.387 . S
C731 C733 1.390 . S
C731 H735 0.950 . S
H732 C728 0.950 . S
C733 C731 1.390 . S
C733 C734 1.387 . S
C733 H736 0.950 . S
C734 C733 1.387 . S
C734 C737 1.387 . S
H735 C731 0.950 . S
H736 C733 0.950 . S
C737 C728 1.390 . S
C737 H730 0.950 . S
C737 C734 1.387 . S
C738 C739 1.387 . S
C738 H742 0.950 . S
C738 C747 1.390 . S
C739 C738 1.387 . S
C739 C741 1.387 . S
H740 C747 0.950 . S
C741 C739 1.387 . S
C741 C743 1.390 . S
C741 H745 0.950 . S
H742 C738 0.950 . S
C743 C741 1.390 . S
C743 C744 1.387 . S
C743 H746 0.950 . S
C744 C743 1.387 . S
C744 C747 1.387 . S
H745 C741 0.950 . S
H746 C743 0.950 . S
C747 C738 1.390 . S
C747 H740 0.950 . S
C747 C744 1.387 . S
C748 C749 1.387 . S
C748 H752 0.950 . S
C748 C757 1.390 . S
C749 C748 1.387 . S
C749 C751 1.387 . S
H750 C757 0.950 . S
C751 C749 1.387 . S
C751 C753 1.390 . S
C751 H755 0.950 . S
H752 C748 0.950 . S
C753 C751 1.390 . S
C753 C754 1.387 . S
C753 H756 0.950 . S
C754 C753 1.387 . S
C754 C757 1.387 . S
H755 C751 0.950 . S
H756 C753 0.950 . S
C757 C748 1.390 . S
C757 H750 0.950 . S
C757 C754 1.387 . S
C758 C759 1.387 . S
C758 H762 0.950 . S
C758 C767 1.390 . S
C759 C758 1.387 . S
C759 C761 1.387 . S
H760 C767 0.950 . S
C761 C759 1.387 . S
C761 C763 1.390 . S
C761 H765 0.950 . S
H762 C758 0.950 . S
C763 C761 1.390 . S
C763 C764 1.387 . S
C763 H766 0.950 . S
C764 C763 1.387 . S
C764 C767 1.387 . S
H765 C761 0.950 . S
H766 C763 0.950 . S
C767 C758 1.390 . S
C767 H760 0.950 . S
C767 C764 1.387 . S
C768 C769 1.387 . S
C768 H772 0.950 . S
C768 C777 1.390 . S
C769 C768 1.387 . S
C769 C771 1.387 . S
H770 C777 0.950 . S
C771 C769 1.387 . S
C771 C773 1.390 . S
C771 H775 0.950 . S
H772 C768 0.950 . S
C773 C771 1.390 . S
C773 C774 1.387 . S
C773 H776 0.950 . S
C774 C773 1.387 . S
C774 C777 1.387 . S
H775 C771 0.950 . S
H776 C773 0.950 . S
C777 C768 1.390 . S
C777 H770 0.950 . S
C777 C774 1.387 . S
C778 C779 1.387 . S
C778 H782 0.950 . S
C778 C787 1.390 . S
C779 C778 1.387 . S
C779 C781 1.387 . S
H780 C787 0.950 . S
C781 C779 1.387 . S
C781 C783 1.390 . S
C781 H785 0.950 . S
H782 C778 0.950 . S
C783 C781 1.390 . S
C783 C784 1.387 . S
C783 H786 0.950 . S
C784 C783 1.387 . S
C784 C787 1.387 . S
H785 C781 0.950 . S
H786 C783 0.950 . S
C787 C778 1.390 . S
C787 H780 0.950 . S
C787 C784 1.387 . S
C788 C789 1.387 . S
C788 H792 0.950 . S
C788 C797 1.390 . S
C789 C788 1.387 . S
C789 C791 1.387 . S
H790 C797 0.950 . S
C791 C789 1.387 . S
C791 C793 1.390 . S
C791 H795 0.950 . S
H792 C788 0.950 . S
C793 C791 1.390 . S
C793 C794 1.387 . S
C793 H796 0.950 . S
C794 C793 1.387 . S
C794 C797 1.387 . S
H795 C791 0.950 . S
H796 C793 0.950 . S
C797 C788 1.390 . S
C797 H790 0.950 . S
C797 C794 1.387 . S
C798 C799 1.387 . S
C798 H802 0.950 . S
C798 C807 1.390 . S
C799 C798 1.387 . S
C799 C801 1.387 . S
H800 C807 0.950 . S
C801 C799 1.387 . S
C801 C803 1.390 . S
C801 H805 0.950 . S
H802 C798 0.950 . S
C803 C801 1.390 . S
C803 C804 1.387 . S
C803 H806 0.950 . S
C804 C803 1.387 . S
C804 C807 1.387 . S
H805 C801 0.950 . S
H806 C803 0.950 . S
C807 C798 1.390 . S
C807 H800 0.950 . S
C807 C804 1.387 . S
C808 C809 1.387 . S
C808 H812 0.950 . S
C808 C817 1.390 . S
C809 C808 1.387 . S
C809 C811 1.387 . S
H810 C817 0.950 . S
C811 C809 1.387 . S
C811 C813 1.390 . S
C811 H815 0.950 . S
H812 C808 0.950 . S
C813 C811 1.390 . S
C813 C814 1.387 . S
C813 H816 0.950 . S
C814 C813 1.387 . S
C814 C817 1.387 . S
H815 C811 0.950 . S
H816 C813 0.950 . S
C817 C808 1.390 . S
C817 H810 0.950 . S
C817 C814 1.387 . S
C818 C819 1.387 . S
C818 H822 0.950 . S
C818 C827 1.390 . S
C819 C818 1.387 . S
C819 C821 1.387 . S
H820 C827 0.950 . S
C821 C819 1.387 . S
C821 C823 1.390 . S
C821 H825 0.950 . S
H822 C818 0.950 . S
C823 C821 1.390 . S
C823 C824 1.387 . S
C823 H826 0.950 . S
C824 C823 1.387 . S
C824 C827 1.387 . S
H825 C821 0.950 . S
H826 C823 0.950 . S
C827 C818 1.390 . S
C827 H820 0.950 . S
C827 C824 1.387 . S
C828 C829 1.387 . S
C828 H832 0.950 . S
C828 C837 1.390 . S
C829 C828 1.387 . S
C829 C831 1.387 . S
H830 C837 0.950 . S
C831 C829 1.387 . S
C831 C833 1.390 . S
C831 H835 0.950 . S
H832 C828 0.950 . S
C833 C831 1.390 . S
C833 C834 1.387 . S
C833 H836 0.950 . S
C834 C833 1.387 . S
C834 C837 1.387 . S
H835 C831 0.950 . S
H836 C833 0.950 . S
C837 C828 1.390 . S
C837 H830 0.950 . S
C837 C834 1.387 . S
C838 C839 1.387 . S
C838 H842 0.950 . S
C838 C847 1.390 . S
C839 C838 1.387 . S
C839 C841 1.387 . S
H840 C847 0.950 . S
C841 C839 1.387 . S
C841 C843 1.390 . S
C841 H845 0.950 . S
H842 C838 0.950 . S
C843 C841 1.390 . S
C843 C844 1.387 . S
C843 H846 0.950 . S
C844 C843 1.387 . S
C844 C847 1.387 . S
H845 C841 0.950 . S
H846 C843 0.950 . S
C847 C838 1.390 . S
C847 H840 0.950 . S
C847 C844 1.387 . S
C848 C849 1.387 . S
C848 H852 0.950 . S
C848 C857 1.390 . S
C849 C848 1.387 . S
C849 C851 1.387 . S
H850 C857 0.950 . S
C851 C849 1.387 . S
C851 C853 1.390 . S
C851 H855 0.950 . S
H852 C848 0.950 . S
C853 C851 1.390 . S
C853 C854 1.387 . S
C853 H856 0.950 . S
C854 C853 1.387 . S
C854 C857 1.387 . S
H855 C851 0.950 . S
H856 C853 0.950 . S
C857 C848 1.390 . S
C857 H850 0.950 . S
C857 C854 1.387 . S
C858 C859 1.387 . S
C858 H862 0.950 . S
C858 C867 1.390 . S
C859 C858 1.387 . S
C859 C861 1.387 . S
H860 C867 0.950 . S
C861 C859 1.387 . S
C861 C863 1.390 . S
C861 H865 0.950 . S
H862 C858 0.950 . S
C863 C861 1.390 . S
C863 C864 1.387 . S
C863 H866 0.950 . S
C864 C863 1.387 . S
C864 C867 1.387 . S
H865 C861 0.950 . S
H866 C863 0.950 . S
C867 C858 1.390 . S
C867 H860 0.950 . S
C867 C864 1.387 . S
C868 C869 1.387 . S
C868 H872 0.950 . S
C868 C877 1.390 . S
C869 C868 1.387 . S
C869 C871 1.387 . S
H870 C877 0.950 . S
C871 C869 1.387 . S
C871 C873 1.390 . S
C871 H875 0.950 . S
H872 C868 0.950 . S
C873 C871 1.390 . S
C873 C874 1.387 . S
C873 H876 0.950 . S
C874 C873 1.387 . S
C874 C877 1.387 . S
H875 C871 0.950 . S
H876 C873 0.950 . S
C877 C868 1.390 . S
C877 H870 0.950 . S
C877 C874 1.387 . S
C878 C879 1.387 . S
C878 H882 0.950 . S
C878 C887 1.390 . S
C879 C878 1.387 . S
C879 C881 1.387 . S
H880 C887 0.950 . S
C881 C879 1.387 . S
C881 C883 1.390 . S
C881 H885 0.950 . S
H882 C878 0.950 . S
C883 C881 1.390 . S
C883 C884 1.387 . S
C883 H886 0.950 . S
C884 C883 1.387 . S
C884 C887 1.387 . S
H885 C881 0.950 . S
H886 C883 0.950 . S
C887 C878 1.390 . S
C887 H880 0.950 . S
C887 C884 1.387 . S
C888 C889 1.387 . S
C888 H892 0.950 . S
C888 C897 1.390 1_546 S
C889 C888 1.387 . S
C889 C891 1.387 . S
H890 C897 0.950 . S
C891 C889 1.387 . S
C891 C893 1.390 1_546 S
C891 H895 0.950 . S
H892 C888 0.950 . S
C893 C891 1.390 1_564 S
C893 C894 1.387 . S
C893 H896 0.950 . S
C894 C893 1.387 . S
C894 C897 1.387 . S
H895 C891 0.950 . S
H896 C893 0.950 . S
C897 C888 1.390 1_564 S
C897 H890 0.950 . S
C897 C894 1.387 . S
C898 C899 1.387 . S
C898 H902 0.950 . S
C898 C907 1.390 1_656 S
C899 C898 1.387 . S
C899 C901 1.387 . S
H900 C907 0.950 . S
C901 C899 1.387 . S
C901 C903 1.390 1_656 S
C901 H905 0.950 . S
H902 C898 0.950 . S
C903 C901 1.390 1_454 S
C903 C904 1.387 . S
C903 H906 0.950 . S
C904 C903 1.387 . S
C904 C907 1.387 . S
H905 C901 0.950 . S
H906 C903 0.950 . S
C907 C898 1.390 1_454 S
C907 H900 0.950 . S
C907 C904 1.387 . S
C908 C909 1.387 . S
C908 H912 0.950 . S
C908 C917 1.390 1_544 S
C909 C908 1.387 . S
C909 C911 1.387 . S
H910 C917 0.950 . S
C911 C909 1.387 . S
C911 C913 1.390 1_544 S
C911 H915 0.950 . S
H912 C908 0.950 . S
C913 C911 1.390 1_566 S
C913 C914 1.387 . S
C913 H916 0.950 . S
C914 C913 1.387 . S
C914 C917 1.387 . S
H915 C911 0.950 . S
H916 C913 0.950 . S
C917 C908 1.390 1_566 S
C917 H910 0.950 . S
C917 C914 1.387 . S
C918 C919 1.387 . S
C918 H922 0.950 . S
C918 C927 1.390 1_456 S
C919 C918 1.387 . S
C919 C921 1.387 . S
H920 C927 0.950 . S
C921 C919 1.387 . S
C921 C923 1.390 1_456 S
C921 H925 0.950 . S
H922 C918 0.950 . S
C923 C921 1.390 1_654 S
C923 C924 1.387 . S
C923 H926 0.950 . S
C924 C923 1.387 . S
C924 C927 1.387 . S
H925 C921 0.950 . S
H926 C923 0.950 . S
C927 C918 1.390 1_654 S
C927 H920 0.950 . S
C927 C924 1.387 . S
C529 C73 1.446 . S
C534 C7 1.446 . S
C539 C106 1.446 . S
C544 C40 1.446 . S
C549 C205 1.442 . S
C554 C139 1.442 . S
C559 C172 1.446 . S
C564 C238 1.446 . S
C569 C271 1.446 . S
C574 C337 1.446 . S
C579 C304 1.446 . S
C584 C370 1.446 . S
C589 C469 1.446 . S
C594 C403 1.446 . S
C599 C502 1.446 . S
C604 C436 1.446 . S
C609 C18 1.306 . S
C614 C249 1.306 . S
C619 C150 1.306 . S
C624 C51 1.306 . S
C629 C183 1.306 . S
C634 C84 1.306 . S
C639 C216 1.306 . S
C644 C117 1.306 . S
C649 C513 1.306 . S
C654 C282 1.306 . S
C659 C414 1.306 . S
C664 C315 1.306 . S
C669 C447 1.306 . S
C674 C348 1.306 . S
C679 C480 1.306 . S
C684 C381 1.306 . S
C689 C21 1.031 . S
C694 N365 1.160 . S
C699 C54 1.034 . S
C704 N266 1.162 . S
C709 C87 1.037 . S
C714 N299 1.164 . S
C719 N332 1.164 . S
C724 C120 1.037 . S
C729 C153 1.038 . S
C734 N431 1.164 . S
C739 C186 1.037 . S
C744 N464 1.164 . S
C749 C219 1.033 . S
C754 N497 1.161 . S
C759 C252 1.032 . S
C764 N398 1.161 . S
C769 N101 1.160 . S
C774 C285 1.032 . S
C779 N2 1.162 . S
C784 C318 1.035 . S
C789 N35 1.161 . S
C794 C351 1.033 . S
C799 C384 1.035 . S
C804 N68 1.162 . S
C809 C417 1.033 . S
C814 N167 1.161 . S
C819 C450 1.036 . S
C824 N200 1.163 . S
C829 C483 1.038 . S
C834 N233 1.165 . S
C839 C516 1.034 . S
C844 N134 1.162 . S
C849 N145 1.726 . S
C854 N13 1.726 . S
C859 N178 1.727 . S
C864 N46 1.727 . S
C869 N79 1.727 . S
C874 N211 1.727 . S
C879 N244 1.726 . S
C884 N112 1.726 . S
C889 N277 1.728 . S
C894 N409 1.728 . S
C899 N442 1.728 . S
C904 N310 1.728 . S
C909 N475 1.728 . S
C914 N343 1.728 . S
C919 N508 1.726 . S
C924 N376 1.726 . S
