# Generated by pormake.
# Topology sma, (6)-cn, num edge types: 1
# Building blocks:
#     Node 0, Type 0, BuildingBlock: BETGAK_clean_sbu_0, # of connection points: 6
#     Node 1, Type 0, BuildingBlock: BETGAK_clean_sbu_0, # of connection points: 6
#     Node 2, Type 0, BuildingBlock: BETGAK_clean_sbu_0, # of connection points: 6
#     Edge 3, Type (0, 0), BuildingBlock: MIFKUJ_clean_linker_0, # of connection points: 2
#     Edge 4, Type (0, 0), BuildingBlock: MIFKUJ_clean_linker_0, # of connection points: 2
#     Edge 5, Type (0, 0), BuildingBlock: MIFKUJ_clean_linker_0, # of connection points: 2
#     Edge 6, Type (0, 0), BuildingBlock: MIFKUJ_clean_linker_0, # of connection points: 2
#     Edge 7, Type (0, 0), BuildingBlock: MIFKUJ_clean_linker_0, # of connection points: 2
#     Edge 8, Type (0, 0), BuildingBlock: MIFKUJ_clean_linker_0, # of connection points: 2
#     Edge 9, Type (0, 0), BuildingBlock: MIFKUJ_clean_linker_0, # of connection points: 2
#     Edge 10, Type (0, 0), BuildingBlock: MIFKUJ_clean_linker_0, # of connection points: 2
#     Edge 11, Type (0, 0), BuildingBlock: MIFKUJ_clean_linker_0, # of connection points: 2
# Relax obj value: 0.124
# Max RMSD: 0.244
# Mean RMSD: 0.203
data_MOF--net-sma--node1-BETGAK_clean_sbu_0--edge1-MIFKUJ_clean_linker_0
_symmetry_space_group_name_H-M    P1
_symmetry_Int_Tables_number       1
_symmetry_cell_setting            triclinic
loop_
_symmetry_equiv_pos_as_xyz
'x, y, z'
_cell_length_a     49.154842
_cell_length_b     56.416658
_cell_length_c     17.89495
_cell_angle_alpha  93.302634
_cell_angle_beta   89.367431
_cell_angle_gamma 137.10215
loop_
_atom_site_label
_atom_site_type_symbol
_atom_site_fract_x
_atom_site_fract_y
_atom_site_fract_z
_atom_type_partial_charge
La0 La 0.12632 0.62429 0.18784 0.0
La1 La 1.07838 0.63891 0.18106 0.0
C2 C 0.17474 0.62234 0.16016 0.0
C3 C 0.20309 0.62099 0.14279 0.0
C4 C 0.23238 0.63313 0.19645 0.0
C5 C 0.25987 0.63272 0.17888 0.0
C6 C 0.25843 0.61992 0.10748 0.0
C7 C 0.2288 0.60745 0.0542 0.0
C8 C 0.20153 0.60808 0.07158 0.0
C9 C 0.09198 0.61521 0.31284 0.0
C10 C 0.169 0.70265 0.22162 0.0
C11 C 1.0287 0.64011 0.17002 0.0
C12 C 0.99779 0.63877 0.15925 0.0
C13 C 0.96631 0.61432 0.10557 0.0
C14 C 0.94071 0.61624 0.08482 0.0
C15 C 0.94614 0.64293 0.11661 0.0
C16 C 0.97645 0.66638 0.17325 0.0
C17 C 1.002 0.66426 0.19447 0.0
C18 C 0.1195 0.65274 0.0646 0.0
C19 C 1.03414 0.56008 0.17766 0.0
O20 O 0.17178 0.63058 0.22745 0.0
O21 O 0.15027 0.61513 0.10895 0.0
O22 O 0.09869 0.59764 0.28991 0.0
O23 O 0.10703 0.63846 0.2685 0.0
O24 O 0.17232 0.682 0.19869 0.0
O25 O 0.13356 0.69027 0.22867 0.0
O26 O 1.03364 0.62651 0.11767 0.0
O27 O 1.05128 0.65247 0.23144 0.0
O28 O 0.11483 0.67142 0.0894 0.0
O29 O 0.09957 0.62639 0.10148 0.0
O30 O 1.03278 0.58239 0.19505 0.0
O31 O 1.06808 0.57097 0.16176 0.0
H32 H 0.23429 0.64323 0.25182 0.0
H33 H 0.28212 0.64222 0.22135 0.0
H34 H 0.22719 0.59783 -0.00157 0.0
H35 H 0.17935 0.59861 0.02898 0.0
H36 H 0.96216 0.59421 0.07772 0.0
H37 H 0.91709 0.59715 0.04258 0.0
H38 H 0.98163 0.68735 0.19879 0.0
H39 H 1.02627 0.68363 0.23552 0.0
La40 La 0.62693 0.12752 0.39239 0.0
La41 La 0.58568 0.14868 0.36758 0.0
C42 C 0.66566 0.11839 0.44709 0.0
C43 C 0.6589 0.08932 0.46834 0.0
C44 C 0.6636 0.07291 0.41649 0.0
C45 C 0.66038 1.0475 0.43843 0.0
C46 C 0.65269 1.03801 0.51295 0.0
C47 C 0.64745 1.0541 0.56447 0.0
C48 C 0.65064 0.07947 0.54254 0.0
C49 C 0.59472 0.11086 0.25809 0.0
C50 C 0.53375 0.06881 0.38355 0.0
C51 C 0.54602 0.16017 0.3414 0.0
C52 C 0.54794 0.18609 0.3749 0.0
C53 C 0.54324 0.18793 0.45204 0.0
C54 C 0.54599 0.21295 0.48338 0.0
C55 C 0.55381 0.23694 0.43864 0.0
C56 C 0.55873 0.23523 0.36158 0.0
C57 C 0.55564 0.20996 0.33002 0.0
C58 C 0.61712 0.16326 0.50377 0.0
C59 C 0.6779 0.20537 0.34964 0.0
O60 O 0.66387 0.12127 0.37558 0.0
O61 O 0.64896 0.12481 0.48743 0.0
O62 O 0.59983 0.09393 0.28841 0.0
O63 O 0.61156 0.13799 0.29865 0.0
O64 O 0.56568 0.07847 0.41231 0.0
O65 O 0.53603 0.09131 0.35419 0.0
O66 O 0.53423 0.13628 0.38455 0.0
O67 O 0.57652 0.17257 0.30269 0.0
O68 O 0.6144 0.18147 0.47224 0.0
O69 O 0.59945 0.13669 0.46086 0.0
O70 O 0.64431 0.19493 0.33105 0.0
O71 O 0.67793 0.18444 0.38027 0.0
H72 H 0.67057 0.08018 0.35915 0.0
H73 H 0.66513 1.03606 0.39741 0.0
H74 H 0.641 1.04718 0.62206 0.0
H75 H 0.64722 0.09177 0.58421 0.0
H76 H 0.53772 0.17023 0.48859 0.0
H77 H 0.54263 0.21386 0.54308 0.0
H78 H 0.56448 0.25317 0.32549 0.0
H79 H 0.55946 0.20918 0.27051 0.0
La80 La 0.64698 0.68531 0.85978 0.0
La81 La 0.58829 0.60644 0.86392 0.0
C82 C 0.6811 0.74439 0.8235 0.0
C83 C 0.67073 0.76171 0.79798 0.0
C84 C 0.66004 0.77345 0.8491 0.0
C85 C 0.65424 0.79282 0.82562 0.0
C86 C 0.65909 0.80105 0.75051 0.0
C87 C 0.6688 0.78854 0.6991 0.0
C88 C 0.67466 0.76923 0.7226 0.0
C89 C 0.64039 0.66343 -0.00911 0.0
C90 C 0.554 0.6353 0.88759 0.0
C91 C 0.55415 0.54593 0.88517 0.0
C92 C 0.55919 0.52467 0.85321 0.0
C93 C 0.57606 0.53121 0.78324 0.0
C94 C 0.5789 0.50988 0.75131 0.0
C95 C 0.56523 0.48166 0.78891 0.0
C96 C 0.54923 0.4758 0.85994 0.0
C97 C 0.54616 0.49704 0.89159 0.0
C98 C 0.59425 0.62893 0.73533 0.0
C99 C 0.6834 0.65787 0.8564 0.0
O100 O 0.67364 0.7352 0.8926 0.0
O101 O 0.67286 0.72088 0.77665 0.0
O102 O 0.67292 0.69371 0.96904 0.0
O103 O 0.61268 0.64827 0.94236 0.0
O104 O 0.58758 0.66446 0.86023 0.0
O105 O 0.54986 0.61034 0.90563 0.0
O106 O 0.54048 0.55247 0.838 0.0
O107 O 0.58384 0.57367 0.92843 0.0
O108 O 0.56171 0.59879 0.75627 0.0
O109 O 0.62242 0.64345 0.78182 0.0
O110 O 0.64675 0.62603 0.86188 0.0
O111 O 0.69113 0.68554 0.84931 0.0
H112 H 0.65687 0.7683 0.90769 0.0
H113 H 0.64624 0.80157 0.86657 0.0
H114 H 0.67325 0.79468 0.64104 0.0
H115 H 0.68329 0.76091 0.68196 0.0
H116 H 0.58643 0.5525 0.75264 0.0
H117 H 0.59093 0.51504 0.69627 0.0
H118 H 0.53909 0.45481 0.89131 0.0
H119 H 0.53329 0.49169 0.94583 0.0
H120 H 0.3393 0.67221 0.13877 0.0
H121 H 0.38839 0.6734 0.10198 0.0
H122 H 0.29404 0.56971 -0.0058 0.0
H123 H 0.24468 0.56815 0.03168 0.0
H124 H 0.34926 0.57917 0.07948 0.0
H125 H 0.35044 0.63785 0.89024 0.0
H126 H 0.35669 0.68225 0.84624 0.0
H127 H 0.47576 0.76385 0.94593 0.0
H128 H 0.47 0.71991 -0.00857 0.0
H129 H 0.47314 0.5768 0.88193 0.0
H130 H 0.4216 0.57282 0.91647 0.0
H131 H 0.51341 0.68379 -0.02305 0.0
H132 H 0.56445 0.68805 0.93706 0.0
H133 H 0.45757 0.66948 0.91503 0.0
H134 H 0.45904 0.61498 0.10897 0.0
H135 H 0.45522 0.57314 0.16135 0.0
H136 H 0.33563 0.48755 0.06647 0.0
H137 H 0.33894 0.52888 0.01269 0.0
C138 C 0.32894 0.64951 0.10798 0.0
C139 C 0.2881 0.62013 0.08787 0.0
C140 C 0.35706 0.65032 0.08654 0.0
C141 C 0.3449 0.62177 0.0447 0.0
C142 C 0.30407 0.59206 0.02624 0.0
C143 C 0.27596 0.59132 0.04723 0.0
C144 C 0.37485 0.62318 0.01887 0.0
C145 C 0.37274 0.59865 0.04285 0.0
C146 C 0.40607 0.64919 -0.0272 0.0
C147 C 0.40964 0.67559 0.94478 0.0
C148 C 0.37784 0.66526 0.90322 0.0
C149 C 0.38131 0.69034 0.87795 0.0
C150 C 0.41656 0.72585 0.89343 0.0
C151 C 0.44846 0.73634 0.93404 0.0
C152 C 0.44512 0.71136 0.95952 0.0
C153 C 0.48212 0.60029 0.90221 0.0
C154 C 0.52266 0.6327 0.9068 0.0
C155 C 0.45271 0.598 0.92268 0.0
C156 C 0.46344 0.62787 0.9512 0.0
C157 C 0.50411 0.6603 0.95517 0.0
C158 C 0.53334 0.66275 0.93244 0.0
C159 C 0.43258 0.62565 -0.02374 0.0
C160 C 0.43433 0.64998 0.95191 0.0
C161 C 0.40155 0.5999 0.02341 0.0
C162 C 0.39939 0.57502 0.05624 0.0
C163 C 0.43202 0.58723 0.09893 0.0
C164 C 0.42993 0.56361 0.1289 0.0
C165 C 0.39524 0.52771 0.1171 0.0
C166 C 0.36251 0.51536 0.07549 0.0
C167 C 0.36445 0.53887 0.04531 0.0
H168 H 0.39368 0.50947 0.14032 0.0
H169 H 0.41919 0.74523 0.87383 0.0
H170 H 0.75317 0.23365 0.34256 0.0
H171 H 0.81507 0.29259 0.30958 0.0
H172 H 0.75118 0.31768 0.28827 0.0
H173 H 0.68952 0.259 0.31917 0.0
H174 H 0.79659 0.34051 0.17605 0.0
H175 H 0.81684 0.34824 0.44224 0.0
H176 H 0.82218 0.33166 0.56126 0.0
H177 H 0.91924 0.35121 0.47952 0.0
H178 H 0.91412 0.36747 0.35955 0.0
H179 H 0.95716 0.52629 0.19502 0.0
H180 H 0.89854 0.46517 0.21989 0.0
H181 H 0.96971 0.44693 0.20699 0.0
H182 H 1.02858 0.50806 0.18195 0.0
H183 H 0.92308 0.41967 0.33135 0.0
H184 H 0.90422 0.41563 0.06678 0.0
H185 H 0.89896 0.434 0.95106 0.0
H186 H 0.79858 0.40898 0.03435 0.0
H187 H 0.80359 0.39092 0.15109 0.0
C188 C 0.75242 0.25183 0.33131 0.0
C189 C 0.71629 0.24149 0.3335 0.0
C190 C 0.78789 0.2856 0.31258 0.0
C191 C 0.78807 0.3099 0.2968 0.0
C192 C 0.75202 0.29957 0.29975 0.0
C193 C 0.71667 0.26589 0.31776 0.0
C194 C 0.82534 0.34589 0.27589 0.0
C195 C 0.82407 0.35786 0.21062 0.0
C196 C 0.86172 0.36852 0.31963 0.0
C197 C 0.86477 0.35866 0.39159 0.0
C198 C 0.83909 0.34871 0.4494 0.0
C199 C 0.84212 0.33943 0.51708 0.0
C200 C 0.87094 0.34027 0.52785 0.0
C201 C 0.89687 0.35049 0.47103 0.0
C202 C 0.89393 0.35976 0.4032 0.0
C203 C 0.96035 0.50925 0.19667 0.0
C204 C 0.99769 0.5222 0.18606 0.0
C205 C 0.92672 0.47424 0.21088 0.0
C206 C 0.92958 0.45131 0.21509 0.0
C207 C 0.96671 0.46407 0.20405 0.0
C208 C 1.00032 0.49903 0.18916 0.0
C209 C 0.89396 0.41427 0.23238 0.0
C210 C 0.8956 0.40215 0.29675 0.0
C211 C 0.85777 0.39159 0.1883 0.0
C212 C 0.85451 0.40221 0.11795 0.0
C213 C 0.88122 0.41429 0.06066 0.0
C214 C 0.87825 0.42461 -0.00516 0.0
C215 C 0.84851 0.42273 -0.01457 0.0
C216 C 0.82162 0.41045 0.04175 0.0
C217 C 0.82448 0.40014 0.10772 0.0
H218 H 0.84627 0.43073 0.93443 0.0
H219 H 0.87326 0.33309 0.5803 0.0
H220 H 0.61928 0.97716 0.43717 0.0
H221 H 0.61894 0.93612 0.47652 0.0
H222 H 0.68208 0.99909 0.68383 0.0
H223 H 0.68367 1.04077 0.64391 0.0
H224 H 0.71401 0.9797 0.62581 0.0
H225 H 0.58124 0.92175 0.6761 0.0
H226 H 0.51505 0.89669 0.64631 0.0
H227 H 0.49088 0.82493 0.47862 0.0
H228 H 0.5572 0.84991 0.5067 0.0
H229 H 0.68649 0.8594 0.82639 0.0
H230 H 0.68317 0.89782 0.78558 0.0
H231 H 0.62218 0.83376 0.57863 0.0
H232 H 0.62432 0.7945 0.62009 0.0
H233 H 0.58882 0.85308 0.6339 0.0
H234 H 0.72132 0.91071 0.58435 0.0
H235 H 0.78739 0.93559 0.61447 0.0
H236 H 0.81204 1.008 0.78075 0.0
H237 H 0.74584 0.98319 0.75237 0.0
C238 C 0.6333 0.98241 0.49098 0.0
C239 C 0.65138 1.0123 0.53741 0.0
C240 C 0.63274 0.9587 0.51375 0.0
C241 C 0.65009 0.96423 0.58361 0.0
C242 C 0.66835 0.99412 0.62983 0.0
C243 C 0.66889 1.0178 0.60717 0.0
C244 C 0.64992 0.93927 0.60812 0.0
C245 C 0.68655 0.9521 0.62851 0.0
C246 C 0.61425 0.90303 0.60991 0.0
C247 C 0.57436 0.88796 0.59296 0.0
C248 C 0.56195 0.90083 0.63244 0.0
C249 C 0.52438 0.8866 0.61594 0.0
C250 C 0.49882 0.8593 0.56046 0.0
C251 C 0.51074 0.84612 0.52149 0.0
C252 C 0.5483 0.86028 0.53771 0.0
C253 C 0.67185 0.85313 0.77261 0.0
C254 C 0.65574 0.8238 0.72652 0.0
C255 C 0.67035 0.87539 0.74897 0.0
C256 C 0.65292 0.86903 0.6785 0.0
C257 C 0.63596 0.83934 0.63306 0.0
C258 C 0.63749 0.81706 0.65663 0.0
C259 C 0.65287 0.89359 0.652 0.0
C260 C 0.61625 0.88069 0.63114 0.0
C261 C 0.68855 0.92978 0.64974 0.0
C262 C 0.72845 0.94486 0.66672 0.0
C263 C 0.7407 0.93175 0.62775 0.0
C264 C 0.7782 0.94588 0.64444 0.0
C265 C 0.80386 0.9733 0.69962 0.0
C266 C 0.79211 0.98673 0.73809 0.0
C267 C 0.75461 0.97266 0.72169 0.0
H268 H 0.83288 0.98421 0.71246 0.0
H269 H 0.46974 0.84832 0.54779 0.0
H270 H 0.73095 0.68973 -0.01871 0.0
H271 H 0.7782 0.6898 0.02173 0.0
H272 H 0.75848 0.63782 0.80888 0.0
H273 H 0.70821 0.63507 0.7715 0.0
H274 H 0.75927 0.6089 0.90525 0.0
H275 H 0.85096 0.73077 0.87303 0.0
H276 H 0.87804 0.78879 0.88885 0.0
H277 H 0.8907 0.79076 0.12682 0.0
H278 H 0.86324 0.73257 0.11255 0.0
H279 H 0.9221 0.63452 -0.02884 0.0
H280 H 0.8806 0.63984 0.92336 0.0
H281 H 0.87365 0.66718 0.14731 0.0
H282 H 0.91474 0.66128 0.19616 0.0
H283 H 0.88893 0.70988 0.0419 0.0
H284 H 0.79589 0.58618 0.06791 0.0
H285 H 0.77092 0.52917 0.04621 0.0
H286 H 0.76461 0.53316 0.80879 0.0
H287 H 0.79011 0.59044 0.82902 0.0
C288 C 0.73748 0.67905 0.94264 0.0
C289 C 0.71683 0.66313 0.87273 0.0
C290 C 0.7647 0.67922 0.96559 0.0
C291 C 0.77307 0.66465 0.91789 0.0
C292 C 0.75291 0.64942 0.84689 0.0
C293 C 0.72453 0.64815 0.82503 0.0
C294 C 0.80059 0.66317 0.94411 0.0
C295 C 0.78797 0.63132 0.93368 0.0
C296 C 0.83783 0.692 -0.01692 0.0
C297 C 0.85478 0.72719 -0.00828 0.0
C298 C 0.85934 0.7435 0.92876 0.0
C299 C 0.87477 0.77643 0.93746 0.0
C300 C 0.88601 0.79342 0.0088 0.0
C301 C 0.88197 0.77757 0.0716 0.0
C302 C 0.86653 0.74464 0.06322 0.0
C303 C 0.91136 0.64121 0.01064 0.0
C304 C 0.92141 0.647 0.08784 0.0
C305 C 0.88777 0.64442 -0.01698 0.0
C306 C 0.87359 0.6535 0.0318 0.0
C307 C 0.88424 0.6601 0.10863 0.0
C308 C 0.90781 0.65679 0.13645 0.0
C309 C 0.84747 0.65586 0.00248 0.0
C310 C 0.86035 0.68775 0.01266 0.0
C311 C 0.81087 0.62732 0.96204 0.0
C312 C 0.79527 0.59275 0.94997 0.0
C313 C 0.78947 0.57502 0.01105 0.0
C314 C 0.77518 0.54264 -0.00099 0.0
C315 C 0.76628 0.52759 0.92616 0.0
C316 C 0.77156 0.54486 0.86519 0.0
C317 C 0.7859 0.57727 0.87692 0.0
H318 H 0.75522 0.50253 0.91696 0.0
H319 H 0.89792 0.81889 0.01542 0.0
H320 H 0.52207 1.01337 0.37787 0.0
H321 H 0.45894 0.95142 0.35328 0.0
H322 H 0.39492 0.97678 0.34905 0.0
H323 H 0.4582 1.03907 0.37145 0.0
H324 H 0.36093 0.91446 0.43719 0.0
H325 H 0.40612 0.96375 0.19614 0.0
H326 H 0.45696 0.9983 0.10123 0.0
H327 H 0.46666 0.92849 0.08865 0.0
H328 H 0.41652 0.89397 0.18489 0.0
H329 H 0.17534 0.75343 0.27295 0.0
H330 H 0.2364 0.81552 0.30266 0.0
H331 H 0.30772 0.79993 0.24116 0.0
H332 H 0.24687 0.73793 0.21037 0.0
H333 H 0.33835 0.85828 0.18698 0.0
H334 H 0.29514 0.80889 0.4239 0.0
H335 H 0.24769 0.77465 0.52388 0.0
H336 H 0.2371 0.84374 0.54941 0.0
H337 H 0.28397 0.87806 0.44855 0.0
C338 C 0.49453 1.00578 0.37267 0.0
C339 C 0.49513 1.03114 0.37651 0.0
C340 C 0.45851 0.97037 0.35841 0.0
C341 C 0.42232 0.95957 0.34921 0.0
C342 C 0.42255 0.98462 0.3561 0.0
C343 C 0.45871 1.02016 0.36865 0.0
C344 C 0.38465 0.92231 0.32859 0.0
C345 C 0.35561 0.90222 0.38218 0.0
C346 C 0.3784 0.90625 0.25751 0.0
C347 C 0.40792 0.92652 0.19845 0.0
C348 C 0.41938 0.95596 0.17373 0.0
C349 C 0.44803 0.97552 0.11961 0.0
C350 C 0.46512 0.96567 0.0891 0.0
C351 C 0.45346 0.93614 0.11246 0.0
C352 C 0.42493 0.91657 0.16682 0.0
C353 C 0.20398 0.76314 0.26565 0.0
C354 C 0.20605 0.74051 0.23954 0.0
C355 C 0.23894 0.79872 0.28293 0.0
C356 C 0.2768 0.81247 0.27496 0.0
C357 C 0.27895 0.79003 0.24784 0.0
C358 C 0.24402 0.75447 0.23055 0.0
C359 C 0.31413 0.85013 0.2955 0.0
C360 C 0.34333 0.87038 0.24195 0.0
C361 C 0.32073 0.86624 0.36701 0.0
C362 C 0.29274 0.84583 0.42807 0.0
C363 C 0.28244 0.81662 0.45039 0.0
C364 C 0.25568 0.79721 0.50728 0.0
C365 C 0.23931 0.80696 0.54284 0.0
C366 C 0.24975 0.83619 0.52171 0.0
C367 C 0.27642 0.85564 0.46469 0.0
H368 H 0.2186 0.79191 0.58689 0.0
H369 H 0.48731 0.98086 0.04724 0.0
H370 H 0.62379 0.49884 0.70259 0.0
H371 H 0.62484 0.45958 0.64176 0.0
H372 H 0.51195 0.3718 0.73493 0.0
H373 H 0.51003 0.41059 0.79427 0.0
H374 H 0.56688 0.37076 0.75074 0.0
H375 H 0.5157 0.38676 0.55404 0.0
H376 H 0.51777 0.42132 0.47059 0.0
H377 H 0.62703 0.46406 0.38218 0.0
H378 H 0.62589 0.4301 0.46591 0.0
H379 H 0.50489 0.22749 0.53975 0.0
H380 H 0.51055 0.2712 0.5983 0.0
H381 H 0.61532 0.35052 0.4741 0.0
H382 H 0.60938 0.30661 0.41434 0.0
H383 H 0.57007 0.35948 0.4746 0.0
H384 H 0.62199 0.3437 0.66365 0.0
H385 H 0.6234 0.31137 0.74739 0.0
H386 H 0.51854 0.27171 0.8518 0.0
H387 H 0.51616 0.30342 0.76793 0.0
C388 C 0.59893 0.47115 0.70963 0.0
C389 C 0.56676 0.45801 0.75346 0.0
C390 C 0.59968 0.44874 0.67496 0.0
C391 C 0.56834 0.41268 0.68335 0.0
C392 C 0.53654 0.39953 0.72785 0.0
C393 C 0.53562 0.42185 0.76215 0.0
C394 C 0.56847 0.38851 0.64586 0.0
C395 C 0.56713 0.36799 0.69031 0.0
C396 C 0.57028 0.38581 0.56718 0.0
C397 C 0.57094 0.40619 0.51683 0.0
C398 C 0.54035 0.40376 0.51728 0.0
C399 C 0.54132 0.42319 0.46984 0.0
C400 C 0.57258 0.44495 0.42128 0.0
C401 C 0.60288 0.44725 0.41992 0.0
C402 C 0.60207 0.4279 0.46732 0.0
C403 C 0.52929 0.25428 0.52518 0.0
C404 C 0.55684 0.26358 0.47272 0.0
C405 C 0.53255 0.27931 0.55884 0.0
C406 C 0.56382 0.31441 0.54182 0.0
C407 C 0.59099 0.32368 0.4884 0.0
C408 C 0.58752 0.29853 0.45415 0.0
C409 C 0.5678 0.34119 0.57941 0.0
C410 C 0.57002 0.36229 0.53507 0.0
C411 C 0.56738 0.3448 0.65835 0.0
C412 C 0.5687 0.3257 0.70901 0.0
C413 C 0.59905 0.32787 0.70407 0.0
C414 C 0.60005 0.30969 0.75163 0.0
C415 C 0.57102 0.28943 0.80476 0.0
C416 C 0.54098 0.28738 0.81056 0.0
C417 C 0.53981 0.30548 0.76307 0.0
H418 H 0.57186 0.27539 0.84154 0.0
H419 H 0.57327 0.45996 0.38457 0.0
H420 H 0.17641 0.71459 0.00363 0.0
H421 H 0.19416 0.72175 0.87283 0.0
H422 H 0.12864 0.61393 0.84516 0.0
H423 H 0.11111 0.60669 -0.02371 0.0
H424 H 0.19177 0.66273 0.73232 0.0
H425 H 1.06756 0.61749 0.84371 0.0
H426 H 1.03797 0.62457 0.94228 0.0
H427 H 0.10883 0.72835 0.87988 0.0
H428 H 0.13911 0.7219 0.78148 0.0
H429 H 1.06809 0.57188 0.41974 0.0
H430 H 0.08474 0.58876 0.55369 0.0
H431 H 0.12776 0.68668 0.51911 0.0
H432 H 0.11074 0.66981 0.38493 0.0
H433 H 0.08975 0.65711 0.65848 0.0
H434 H 0.19427 0.69038 0.51409 0.0
H435 H 0.22153 0.68047 0.41673 0.0
H436 H 0.19014 0.60072 0.54061 0.0
H437 H 0.16193 0.60966 0.63805 0.0
C438 C 0.16745 0.69292 -0.02956 0.0
C439 C 0.14121 0.65975 -0.00192 0.0
C440 C 0.17809 0.6972 0.89625 0.0
C441 C 0.16173 0.6681 0.84966 0.0
C442 C 0.14131 0.63657 0.88074 0.0
C443 C 0.13095 0.63235 0.95528 0.0
C444 C 0.15344 0.66667 0.77027 0.0
C445 C 0.1699 0.66188 0.71574 0.0
C446 C 0.12511 0.66595 0.74938 0.0
C447 C 0.10561 0.66928 0.80573 0.0
C448 C 1.07671 0.64176 0.85104 0.0
C449 C 1.05989 0.64568 0.9069 0.0
C450 C 1.07153 0.6769 0.91738 0.0
C451 C 0.09985 0.70419 0.87172 0.0
C452 C 0.11682 0.70041 0.81587 0.0
C453 C 1.07977 0.59645 0.44115 0.0
C454 C 0.08918 0.61999 0.39246 0.0
C455 C 0.08942 0.6061 0.51727 0.0
C456 C 0.10859 0.63933 0.54489 0.0
C457 C 0.11344 0.66111 0.49795 0.0
C458 C 0.10363 0.6514 0.42163 0.0
C459 C 0.12754 0.65253 0.62037 0.0
C460 C 0.11277 0.65925 0.67431 0.0
C461 C 0.1576 0.65526 0.64028 0.0
C462 C 0.17578 0.65057 0.5832 0.0
C463 C 0.193 0.67061 0.52042 0.0
C464 C 0.20861 0.66516 0.46519 0.0
C465 C 0.20753 0.63996 0.47243 0.0
C466 C 0.19096 0.62024 0.53508 0.0
C467 C 0.17519 0.62552 0.59039 0.0
H468 H 0.21957 0.63573 0.42954 0.0
H469 H 1.05859 0.67994 0.96083 0.0
H470 H 0.57972 0.06705 0.14692 0.0
H471 H 0.56762 0.06633 0.01391 0.0
H472 H 0.5564 0.13425 0.06928 0.0
H473 H 0.56958 0.13578 0.20124 0.0
H474 H 0.51669 0.06049 0.90798 0.0
H475 H 0.63031 0.20639 -0.01801 0.0
H476 H 0.67865 0.25042 0.08443 0.0
H477 H 0.69801 0.19038 0.13851 0.0
H478 H 0.65035 0.14637 0.03555 0.0
H479 H 0.56512 0.15415 0.58888 0.0
H480 H 0.55159 0.139 0.71955 0.0
H481 H 0.64838 0.1503 0.72852 0.0
H482 H 0.66176 0.16519 0.59725 0.0
H483 H 0.64277 0.18233 0.8558 0.0
H484 H 0.56592 0.07483 0.70114 0.0
H485 H 0.51809 1.03235 0.59686 0.0
H486 H 0.42635 1.01547 0.70096 0.0
H487 H 0.47393 0.05845 0.80515 0.0
C488 C 0.5734 0.08088 0.13068 0.0
C489 C 0.57709 0.10264 0.18315 0.0
C490 C 0.56603 0.08011 0.05505 0.0
C491 C 0.56208 0.10089 0.03241 0.0
C492 C 0.55987 0.11841 0.08616 0.0
C493 C 0.56785 0.11961 0.16126 0.0
C494 C 0.57087 0.11156 0.95545 0.0
C495 C 0.54405 0.08708 0.8963 0.0
C496 C 0.60693 0.14624 0.94093 0.0
C497 C 0.63658 0.17302 0.00152 0.0
C498 C 0.64509 0.20273 0.0155 0.0
C499 C 0.67233 0.22765 0.07364 0.0
C500 C 0.69136 0.22317 0.11792 0.0
C501 C 0.68322 0.19379 0.10416 0.0
C502 C 0.65612 0.16886 0.04592 0.0
C503 C 0.584 0.15413 0.61955 0.0
C504 C 0.61446 0.16078 0.58425 0.0
C505 C 0.57604 0.14522 0.69343 0.0
C506 C 0.59876 0.14323 0.73242 0.0
C507 C 0.63056 0.15162 0.69842 0.0
C508 C 0.63814 0.16004 0.62404 0.0
C509 C 0.58857 0.13139 0.80824 0.0
C510 C 0.61525 0.15575 0.86731 0.0
C511 C 0.55253 0.09667 0.82224 0.0
C512 C 0.52362 0.07014 0.7606 0.0
C513 C 0.53565 0.06229 0.70152 0.0
C514 C 0.50857 1.03809 0.64244 0.0
C515 C 0.46923 1.02128 0.64218 0.0
C516 C 0.45685 1.02855 0.70118 0.0
C517 C 0.48386 1.05282 0.76027 0.0
H518 H 0.44832 1.00259 0.59635 0.0
H519 H 0.71257 0.24256 0.16261 0.0
H520 H 0.53319 0.61267 0.66624 0.0
H521 H 0.53383 0.62872 0.54171 0.0
H522 H 0.66083 0.69692 0.53669 0.0
H523 H 0.66031 0.68086 0.6608 0.0
H524 H 0.62791 0.71277 0.43617 0.0
H525 H 0.61129 0.61722 0.50304 0.0
H526 H 0.57643 0.56646 0.57727 0.0
H527 H 0.46301 0.51779 0.48776 0.0
H528 H 0.49734 0.56856 0.41381 0.0
H529 H 0.69424 0.70103 0.1092 0.0
H530 H 0.67839 0.69825 0.24055 0.0
H531 H 0.55253 0.60938 0.18042 0.0
H532 H 0.56825 0.61114 0.04989 0.0
H533 H 0.5704 0.60234 0.30852 0.0
H534 H 0.59249 0.69005 0.20281 0.0
H535 H 0.62806 0.74136 0.13053 0.0
H536 H 0.72776 0.8051 0.29041 0.0
H537 H 0.69308 0.75403 0.36304 0.0
C538 C 0.56143 0.63204 0.63943 0.0
C539 C 0.59653 0.64489 0.67108 0.0
C540 C 0.56186 0.64165 0.56926 0.0
C541 C 0.59723 0.66346 0.53028 0.0
C542 C 0.63333 0.68012 0.56649 0.0
C543 C 0.63293 0.67061 0.63678 0.0
C544 C 0.59475 0.65951 0.44844 0.0
C545 C 0.61499 0.68866 0.40759 0.0
C546 C 0.57726 0.62772 0.41193 0.0
C547 C 0.55676 0.59659 0.45339 0.0
C548 C 0.57892 0.59563 0.49923 0.0
C549 C 0.55929 0.56693 0.54132 0.0
C550 C 0.51753 0.53893 0.53727 0.0
C551 C 0.49534 0.53951 0.49086 0.0
C552 C 0.51485 0.56821 0.44884 0.0
C553 C 0.66334 0.68044 0.1245 0.0
C554 C 0.63236 0.65681 0.06983 0.0
C555 C 0.65429 0.67913 0.19903 0.0
C556 C 0.61423 0.6545 0.21902 0.0
C557 C 0.58355 0.62896 0.16545 0.0
C558 C 0.59261 0.62997 0.09114 0.0
C559 C 0.60442 0.65592 0.29565 0.0
C560 C 0.58205 0.6262 0.33571 0.0
C561 C 0.61951 0.68708 0.3307 0.0
C562 C 0.64022 0.71814 0.28824 0.0
C563 C 0.62208 0.71498 0.22242 0.0
C564 C 0.64209 0.74402 0.18136 0.0
C565 C 0.68016 0.77647 0.20583 0.0
C566 C 0.69826 0.77995 0.27155 0.0
C567 C 0.6784 0.75097 0.31276 0.0
H568 H 0.69563 0.79892 0.17391 0.0
H569 H 0.50236 0.51677 0.57004 0.0
loop_
_geom_bond_atom_site_label_1
_geom_bond_atom_site_label_2
_geom_bond_distance
_geom_bond_site_symmetry_2
_ccdc_geom_bond_type
La0 C2 2.928 . S
La0 O20 2.521 . S
La0 O21 2.628 . S
La0 O22 2.554 . S
La0 O23 2.757 . S
La0 O24 2.470 . S
La0 O29 2.482 . S
La0 O31 2.503 1_455 S
La1 C11 2.928 1_455 S
La1 O23 2.482 . S
La1 O25 2.503 . S
La1 O26 2.521 1_455 S
La1 O27 2.628 1_455 S
La1 O28 2.554 . S
La1 O29 2.757 . S
La1 O30 2.470 1_455 S
C2 La0 2.928 . S
C2 C3 1.503 . S
C2 O20 1.261 . S
C2 O21 1.243 . S
C3 C2 1.503 . S
C3 C4 1.394 . S
C3 C8 1.373 . S
C4 C3 1.394 . S
C4 C5 1.380 . S
C4 H32 0.930 . S
C5 C4 1.380 . S
C5 C6 1.376 . S
C5 H33 0.930 . S
C6 C5 1.376 . S
C6 C7 1.370 . S
C7 C6 1.370 . S
C7 C8 1.396 . S
C7 H34 0.929 . S
C8 C3 1.373 . S
C8 C7 1.396 . S
C8 H35 0.929 . S
C9 O22 1.240 . S
C9 O23 1.289 . S
C10 O24 1.258 . S
C10 O25 1.256 . S
C11 La1 2.928 1_655 S
C11 C12 1.503 . S
C11 O26 1.261 . S
C11 O27 1.243 . S
C12 C11 1.503 . S
C12 C13 1.394 . S
C12 C17 1.373 . S
C13 C12 1.394 . S
C13 C14 1.380 . S
C13 H36 0.930 . S
C14 C13 1.380 . S
C14 C15 1.376 . S
C14 H37 0.930 . S
C15 C14 1.376 . S
C15 C16 1.370 . S
C16 C15 1.370 . S
C16 C17 1.396 . S
C16 H38 0.929 . S
C17 C12 1.373 . S
C17 C16 1.396 . S
C17 H39 0.929 . S
C18 O28 1.240 . S
C18 O29 1.289 . S
C19 O30 1.258 . S
C19 O31 1.256 . S
O20 La0 2.521 . S
O20 C2 1.261 . S
O21 La0 2.628 . S
O21 C2 1.243 . S
O22 La0 2.554 . S
O22 C9 1.240 . S
O23 La0 2.757 . S
O23 La1 2.482 . S
O23 C9 1.289 . S
O24 La0 2.470 . S
O24 C10 1.258 . S
O25 La1 2.503 . S
O25 C10 1.256 . S
O26 La1 2.521 1_655 S
O26 C11 1.261 . S
O27 La1 2.628 1_655 S
O27 C11 1.243 . S
O28 La1 2.554 . S
O28 C18 1.240 . S
O29 La0 2.482 . S
O29 La1 2.757 . S
O29 C18 1.289 . S
O30 La1 2.470 1_655 S
O30 C19 1.258 . S
O31 La0 2.503 1_655 S
O31 C19 1.256 . S
H32 C4 0.930 . S
H33 C5 0.930 . S
H34 C7 0.929 . S
H35 C8 0.929 . S
H36 C13 0.930 . S
H37 C14 0.930 . S
H38 C16 0.929 . S
H39 C17 0.929 . S
La40 C42 2.928 . S
La40 O60 2.521 . S
La40 O61 2.628 . S
La40 O62 2.554 . S
La40 O63 2.757 . S
La40 O64 2.470 . S
La40 O69 2.482 . S
La40 O71 2.503 . S
La41 C51 2.928 . S
La41 O63 2.482 . S
La41 O65 2.503 . S
La41 O66 2.521 . S
La41 O67 2.628 . S
La41 O68 2.554 . S
La41 O69 2.757 . S
La41 O70 2.470 . S
C42 La40 2.928 . S
C42 C43 1.503 1_545 S
C42 O60 1.261 . S
C42 O61 1.243 . S
C43 C42 1.503 1_565 S
C43 C44 1.394 . S
C43 C48 1.373 . S
C44 C43 1.394 . S
C44 C45 1.380 . S
C44 H72 0.930 . S
C45 C44 1.380 . S
C45 C46 1.376 . S
C45 H73 0.930 . S
C46 C45 1.376 . S
C46 C47 1.370 . S
C47 C46 1.370 . S
C47 C48 1.396 . S
C47 H74 0.929 . S
C48 C43 1.373 . S
C48 C47 1.396 . S
C48 H75 0.929 . S
C49 O62 1.240 . S
C49 O63 1.289 . S
C50 O64 1.258 . S
C50 O65 1.256 . S
C51 La41 2.928 . S
C51 C52 1.503 . S
C51 O66 1.261 . S
C51 O67 1.243 . S
C52 C51 1.503 . S
C52 C53 1.394 . S
C52 C57 1.373 . S
C53 C52 1.394 . S
C53 C54 1.380 . S
C53 H76 0.930 . S
C54 C53 1.380 . S
C54 C55 1.376 . S
C54 H77 0.930 . S
C55 C54 1.376 . S
C55 C56 1.370 . S
C56 C55 1.370 . S
C56 C57 1.396 . S
C56 H78 0.929 . S
C57 C52 1.373 . S
C57 C56 1.396 . S
C57 H79 0.929 . S
C58 O68 1.240 . S
C58 O69 1.289 . S
C59 O70 1.258 . S
C59 O71 1.256 . S
O60 La40 2.521 . S
O60 C42 1.261 . S
O61 La40 2.628 . S
O61 C42 1.243 . S
O62 La40 2.554 . S
O62 C49 1.240 . S
O63 La40 2.757 . S
O63 La41 2.482 . S
O63 C49 1.289 . S
O64 La40 2.470 . S
O64 C50 1.258 . S
O65 La41 2.503 . S
O65 C50 1.256 . S
O66 La41 2.521 . S
O66 C51 1.261 . S
O67 La41 2.628 . S
O67 C51 1.243 . S
O68 La41 2.554 . S
O68 C58 1.240 . S
O69 La40 2.482 . S
O69 La41 2.757 . S
O69 C58 1.289 . S
O70 La41 2.470 . S
O70 C59 1.258 . S
O71 La40 2.503 . S
O71 C59 1.256 . S
H72 C44 0.930 . S
H73 C45 0.930 . S
H74 C47 0.929 . S
H75 C48 0.929 . S
H76 C53 0.930 . S
H77 C54 0.930 . S
H78 C56 0.929 . S
H79 C57 0.929 . S
La80 C82 2.928 . S
La80 O100 2.521 . S
La80 O101 2.628 . S
La80 O102 2.554 1_556 S
La80 O103 2.757 . S
La80 O104 2.470 . S
La80 O109 2.482 . S
La80 O111 2.503 . S
La81 C91 2.928 . S
La81 O103 2.482 . S
La81 O105 2.503 . S
La81 O106 2.521 . S
La81 O107 2.628 . S
La81 O108 2.554 . S
La81 O109 2.757 . S
La81 O110 2.470 . S
C82 La80 2.928 . S
C82 C83 1.503 . S
C82 O100 1.261 . S
C82 O101 1.243 . S
C83 C82 1.503 . S
C83 C84 1.394 . S
C83 C88 1.373 . S
C84 C83 1.394 . S
C84 C85 1.380 . S
C84 H112 0.930 . S
C85 C84 1.380 . S
C85 C86 1.376 . S
C85 H113 0.930 . S
C86 C85 1.376 . S
C86 C87 1.370 . S
C87 C86 1.370 . S
C87 C88 1.396 . S
C87 H114 0.929 . S
C88 C83 1.373 . S
C88 C87 1.396 . S
C88 H115 0.929 . S
C89 O102 1.240 . S
C89 O103 1.289 1_554 S
C90 O104 1.258 . S
C90 O105 1.256 . S
C91 La81 2.928 . S
C91 C92 1.503 . S
C91 O106 1.261 . S
C91 O107 1.243 . S
C92 C91 1.503 . S
C92 C93 1.394 . S
C92 C97 1.373 . S
C93 C92 1.394 . S
C93 C94 1.380 . S
C93 H116 0.930 . S
C94 C93 1.380 . S
C94 C95 1.376 . S
C94 H117 0.930 . S
C95 C94 1.376 . S
C95 C96 1.370 . S
C96 C95 1.370 . S
C96 C97 1.396 . S
C96 H118 0.929 . S
C97 C92 1.373 . S
C97 C96 1.396 . S
C97 H119 0.929 . S
C98 O108 1.240 . S
C98 O109 1.289 . S
C99 O110 1.258 . S
C99 O111 1.256 . S
O100 La80 2.521 . S
O100 C82 1.261 . S
O101 La80 2.628 . S
O101 C82 1.243 . S
O102 La80 2.554 1_554 S
O102 C89 1.240 . S
O103 La80 2.757 . S
O103 La81 2.482 . S
O103 C89 1.289 1_556 S
O104 La80 2.470 . S
O104 C90 1.258 . S
O105 La81 2.503 . S
O105 C90 1.256 . S
O106 La81 2.521 . S
O106 C91 1.261 . S
O107 La81 2.628 . S
O107 C91 1.243 . S
O108 La81 2.554 . S
O108 C98 1.240 . S
O109 La80 2.482 . S
O109 La81 2.757 . S
O109 C98 1.289 . S
O110 La81 2.470 . S
O110 C99 1.258 . S
O111 La80 2.503 . S
O111 C99 1.256 . S
H112 C84 0.930 . S
H113 C85 0.930 . S
H114 C87 0.929 . S
H115 C88 0.929 . S
H116 C93 0.930 . S
H117 C94 0.930 . S
H118 C96 0.929 . S
H119 C97 0.929 . S
H120 C138 0.951 . S
H121 C140 0.951 . S
H122 C142 0.950 1_556 S
H123 C143 0.950 . S
H124 C145 0.950 . S
H125 C148 0.950 . S
H126 C149 0.950 . S
H127 C151 0.950 . S
H128 C152 0.950 . S
H129 C153 0.951 . S
H130 C155 0.951 . S
H131 C157 0.950 1_554 S
H132 C158 0.950 . S
H133 C160 0.950 . S
H134 C163 0.950 . S
H135 C164 0.950 . S
H136 C166 0.950 . S
H137 C167 0.950 . S
C138 H120 0.951 . S
C138 C139 1.366 . S
C138 C140 1.388 . S
C139 C138 1.366 . S
C139 C143 1.385 . S
C140 H121 0.951 . S
C140 C138 1.388 . S
C140 C141 1.366 . S
C141 C140 1.366 . S
C141 C142 1.414 . S
C141 C144 1.499 . S
C142 H122 0.950 1_554 S
C142 C141 1.414 . S
C142 C143 1.374 . S
C143 H123 0.950 . S
C143 C139 1.385 . S
C143 C142 1.374 . S
C144 C141 1.499 . S
C144 C145 1.373 . S
C144 C146 1.389 1_554 S
C145 H124 0.950 . S
C145 C144 1.373 . S
C145 C161 1.377 1_554 S
C146 C144 1.389 1_556 S
C146 C147 1.524 . S
C146 C160 1.377 . S
C147 C146 1.524 . S
C147 C148 1.397 . S
C147 C152 1.363 1_556 S
C148 H125 0.950 . S
C148 C147 1.397 . S
C148 C149 1.334 . S
C149 H126 0.950 . S
C149 C148 1.334 . S
C149 C150 1.287 . S
C150 C149 1.287 . S
C150 C151 1.524 1_556 S
C150 H169 0.913 . S
C151 H127 0.950 . S
C151 C150 1.524 1_554 S
C151 C152 1.415 . S
C152 H128 0.950 . S
C152 C147 1.363 1_554 S
C152 C151 1.415 . S
C153 H129 0.951 . S
C153 C154 1.366 . S
C153 C155 1.388 . S
C154 C153 1.366 . S
C154 C158 1.385 . S
C155 H130 0.951 . S
C155 C153 1.388 . S
C155 C156 1.366 . S
C156 C155 1.366 . S
C156 C157 1.414 . S
C156 C159 1.499 . S
C157 H131 0.950 1_556 S
C157 C156 1.414 . S
C157 C158 1.374 . S
C158 H132 0.950 . S
C158 C154 1.385 . S
C158 C157 1.374 . S
C159 C156 1.499 . S
C159 C160 1.373 . S
C159 C161 1.389 . S
C160 H133 0.950 . S
C160 C146 1.377 . S
C160 C159 1.373 . S
C161 C145 1.377 1_556 S
C161 C159 1.389 . S
C161 C162 1.524 1_556 S
C162 C161 1.524 1_554 S
C162 C163 1.397 . S
C162 C167 1.363 1_554 S
C163 H134 0.950 . S
C163 C162 1.397 . S
C163 C164 1.334 . S
C164 H135 0.950 . S
C164 C163 1.334 . S
C164 C165 1.287 . S
C165 C164 1.287 . S
C165 C166 1.524 1_554 S
C165 H168 0.999 . S
C166 H136 0.950 . S
C166 C165 1.524 1_556 S
C166 C167 1.415 . S
C167 H137 0.950 . S
C167 C162 1.363 1_556 S
C167 C166 1.415 . S
H168 C165 0.999 . S
H169 C150 0.913 . S
H170 C188 0.951 . S
H171 C190 0.951 . S
H172 C192 0.950 . S
H173 C193 0.950 . S
H174 C195 0.950 . S
H175 C198 0.950 . S
H176 C199 0.950 . S
H177 C201 0.950 . S
H178 C202 0.950 . S
H179 C203 0.951 . S
H180 C205 0.951 . S
H181 C207 0.950 . S
H182 C208 0.950 . S
H183 C210 0.950 . S
H184 C213 0.950 . S
H185 C214 0.950 1_556 S
H186 C216 0.950 . S
H187 C217 0.950 . S
C188 H170 0.951 . S
C188 C189 1.366 . S
C188 C190 1.388 . S
C189 C188 1.366 . S
C189 C193 1.385 . S
C190 H171 0.951 . S
C190 C188 1.388 . S
C190 C191 1.366 . S
C191 C190 1.366 . S
C191 C192 1.414 . S
C191 C194 1.499 . S
C192 H172 0.950 . S
C192 C191 1.414 . S
C192 C193 1.374 . S
C193 H173 0.950 . S
C193 C189 1.385 . S
C193 C192 1.374 . S
C194 C191 1.499 . S
C194 C195 1.373 . S
C194 C196 1.389 . S
C195 H174 0.950 . S
C195 C194 1.373 . S
C195 C211 1.377 . S
C196 C194 1.389 . S
C196 C197 1.524 . S
C196 C210 1.377 . S
C197 C196 1.524 . S
C197 C198 1.397 . S
C197 C202 1.363 . S
C198 H175 0.950 . S
C198 C197 1.397 . S
C198 C199 1.334 . S
C199 H176 0.950 . S
C199 C198 1.334 . S
C199 C200 1.287 . S
C200 C199 1.287 . S
C200 C201 1.524 . S
C200 H219 0.913 . S
C201 H177 0.950 . S
C201 C200 1.524 . S
C201 C202 1.415 . S
C202 H178 0.950 . S
C202 C197 1.363 . S
C202 C201 1.415 . S
C203 H179 0.951 . S
C203 C204 1.366 . S
C203 C205 1.388 . S
C204 C203 1.366 . S
C204 C208 1.385 . S
C205 H180 0.951 . S
C205 C203 1.388 . S
C205 C206 1.366 . S
C206 C205 1.366 . S
C206 C207 1.414 . S
C206 C209 1.499 . S
C207 H181 0.950 . S
C207 C206 1.414 . S
C207 C208 1.374 . S
C208 H182 0.950 . S
C208 C204 1.385 . S
C208 C207 1.374 . S
C209 C206 1.499 . S
C209 C210 1.373 . S
C209 C211 1.389 . S
C210 H183 0.950 . S
C210 C196 1.377 . S
C210 C209 1.373 . S
C211 C195 1.377 . S
C211 C209 1.389 . S
C211 C212 1.524 . S
C212 C211 1.524 . S
C212 C213 1.397 . S
C212 C217 1.363 . S
C213 H184 0.950 . S
C213 C212 1.397 . S
C213 C214 1.334 . S
C214 H185 0.950 1_554 S
C214 C213 1.334 . S
C214 C215 1.287 . S
C215 C214 1.287 . S
C215 C216 1.524 . S
C215 H218 0.999 1_554 S
C216 H186 0.950 . S
C216 C215 1.524 . S
C216 C217 1.415 . S
C217 H187 0.950 . S
C217 C212 1.363 . S
C217 C216 1.415 . S
H218 C215 0.999 1_556 S
H219 C200 0.913 . S
H220 C238 0.951 . S
H221 C240 0.951 . S
H222 C242 0.950 . S
H223 C243 0.950 . S
H224 C245 0.950 . S
H225 C248 0.950 . S
H226 C249 0.950 . S
H227 C251 0.950 . S
H228 C252 0.950 . S
H229 C253 0.951 . S
H230 C255 0.951 . S
H231 C257 0.950 . S
H232 C258 0.950 . S
H233 C260 0.950 . S
H234 C263 0.950 . S
H235 C264 0.950 . S
H236 C266 0.950 . S
H237 C267 0.950 . S
C238 H220 0.951 . S
C238 C239 1.366 . S
C238 C240 1.388 . S
C239 C238 1.366 . S
C239 C243 1.385 . S
C240 H221 0.951 . S
C240 C238 1.388 . S
C240 C241 1.366 . S
C241 C240 1.366 . S
C241 C242 1.414 . S
C241 C244 1.499 . S
C242 H222 0.950 . S
C242 C241 1.414 . S
C242 C243 1.374 . S
C243 H223 0.950 . S
C243 C239 1.385 . S
C243 C242 1.374 . S
C244 C241 1.499 . S
C244 C245 1.373 . S
C244 C246 1.389 . S
C245 H224 0.950 . S
C245 C244 1.373 . S
C245 C261 1.377 . S
C246 C244 1.389 . S
C246 C247 1.524 . S
C246 C260 1.377 . S
C247 C246 1.524 . S
C247 C248 1.397 . S
C247 C252 1.363 . S
C248 H225 0.950 . S
C248 C247 1.397 . S
C248 C249 1.334 . S
C249 H226 0.950 . S
C249 C248 1.334 . S
C249 C250 1.287 . S
C250 C249 1.287 . S
C250 C251 1.524 . S
C250 H269 0.913 . S
C251 H227 0.950 . S
C251 C250 1.524 . S
C251 C252 1.415 . S
C252 H228 0.950 . S
C252 C247 1.363 . S
C252 C251 1.415 . S
C253 H229 0.951 . S
C253 C254 1.366 . S
C253 C255 1.388 . S
C254 C253 1.366 . S
C254 C258 1.385 . S
C255 H230 0.951 . S
C255 C253 1.388 . S
C255 C256 1.366 . S
C256 C255 1.366 . S
C256 C257 1.414 . S
C256 C259 1.499 . S
C257 H231 0.950 . S
C257 C256 1.414 . S
C257 C258 1.374 . S
C258 H232 0.950 . S
C258 C254 1.385 . S
C258 C257 1.374 . S
C259 C256 1.499 . S
C259 C260 1.373 . S
C259 C261 1.389 . S
C260 H233 0.950 . S
C260 C246 1.377 . S
C260 C259 1.373 . S
C261 C245 1.377 . S
C261 C259 1.389 . S
C261 C262 1.524 . S
C262 C261 1.524 . S
C262 C263 1.397 . S
C262 C267 1.363 . S
C263 H234 0.950 . S
C263 C262 1.397 . S
C263 C264 1.334 . S
C264 H235 0.950 . S
C264 C263 1.334 . S
C264 C265 1.287 . S
C265 C264 1.287 . S
C265 C266 1.524 . S
C265 H268 0.999 . S
C266 H236 0.950 . S
C266 C265 1.524 . S
C266 C267 1.415 . S
C267 H237 0.950 . S
C267 C262 1.363 . S
C267 C266 1.415 . S
H268 C265 0.999 . S
H269 C250 0.913 . S
H270 C288 0.951 1_554 S
H271 C290 0.951 . S
H272 C292 0.950 . S
H273 C293 0.950 . S
H274 C295 0.950 . S
H275 C298 0.950 . S
H276 C299 0.950 . S
H277 C301 0.950 . S
H278 C302 0.950 . S
H279 C303 0.951 . S
H280 C305 0.951 1_556 S
H281 C307 0.950 . S
H282 C308 0.950 . S
H283 C310 0.950 . S
H284 C313 0.950 1_554 S
H285 C314 0.950 . S
H286 C316 0.950 . S
H287 C317 0.950 . S
C288 H270 0.951 1_556 S
C288 C289 1.366 . S
C288 C290 1.388 1_556 S
C289 C288 1.366 . S
C289 C293 1.385 . S
C290 H271 0.951 . S
C290 C288 1.388 1_554 S
C290 C291 1.366 1_554 S
C291 C290 1.366 1_556 S
C291 C292 1.414 . S
C291 C294 1.499 . S
C292 H272 0.950 . S
C292 C291 1.414 . S
C292 C293 1.374 . S
C293 H273 0.950 . S
C293 C289 1.385 . S
C293 C292 1.374 . S
C294 C291 1.499 . S
C294 C295 1.373 . S
C294 C296 1.389 1_556 S
C295 H274 0.950 . S
C295 C294 1.373 . S
C295 C311 1.377 . S
C296 C294 1.389 1_554 S
C296 C297 1.524 . S
C296 C310 1.377 . S
C297 C296 1.524 . S
C297 C298 1.397 . S
C297 C302 1.363 . S
C298 H275 0.950 . S
C298 C297 1.397 . S
C298 C299 1.334 . S
C299 H276 0.950 . S
C299 C298 1.334 . S
C299 C300 1.287 . S
C300 C299 1.287 . S
C300 C301 1.524 . S
C300 H319 0.913 . S
C301 H277 0.950 . S
C301 C300 1.524 . S
C301 C302 1.415 . S
C302 H278 0.950 . S
C302 C297 1.363 . S
C302 C301 1.415 . S
C303 H279 0.951 . S
C303 C304 1.366 . S
C303 C305 1.388 . S
C304 C303 1.366 . S
C304 C308 1.385 . S
C305 H280 0.951 1_554 S
C305 C303 1.388 . S
C305 C306 1.366 . S
C306 C305 1.366 . S
C306 C307 1.414 . S
C306 C309 1.499 . S
C307 H281 0.950 . S
C307 C306 1.414 . S
C307 C308 1.374 . S
C308 H282 0.950 . S
C308 C304 1.385 . S
C308 C307 1.374 . S
C309 C306 1.499 . S
C309 C310 1.373 . S
C309 C311 1.389 1_554 S
C310 H283 0.950 . S
C310 C296 1.377 . S
C310 C309 1.373 . S
C311 C295 1.377 . S
C311 C309 1.389 1_556 S
C311 C312 1.524 . S
C312 C311 1.524 . S
C312 C313 1.397 . S
C312 C317 1.363 . S
C313 H284 0.950 1_556 S
C313 C312 1.397 . S
C313 C314 1.334 . S
C314 H285 0.950 . S
C314 C313 1.334 . S
C314 C315 1.287 . S
C315 C314 1.287 . S
C315 C316 1.524 . S
C315 H318 0.999 . S
C316 H286 0.950 . S
C316 C315 1.524 . S
C316 C317 1.415 . S
C317 H287 0.950 . S
C317 C312 1.363 . S
C317 C316 1.415 . S
H318 C315 0.999 . S
H319 C300 0.913 . S
H320 C338 0.951 . S
H321 C340 0.951 . S
H322 C342 0.950 . S
H323 C343 0.950 . S
H324 C345 0.950 . S
H325 C348 0.950 . S
H326 C349 0.950 . S
H327 C351 0.950 . S
H328 C352 0.950 . S
H329 C353 0.951 . S
H330 C355 0.951 . S
H331 C357 0.950 . S
H332 C358 0.950 . S
H333 C360 0.950 . S
H334 C363 0.950 . S
H335 C364 0.950 . S
H336 C366 0.950 . S
H337 C367 0.950 . S
C338 H320 0.951 . S
C338 C339 1.366 . S
C338 C340 1.388 . S
C339 C338 1.366 . S
C339 C343 1.385 . S
C340 H321 0.951 . S
C340 C338 1.388 . S
C340 C341 1.366 . S
C341 C340 1.366 . S
C341 C342 1.414 . S
C341 C344 1.499 . S
C342 H322 0.950 . S
C342 C341 1.414 . S
C342 C343 1.374 . S
C343 H323 0.950 . S
C343 C339 1.385 . S
C343 C342 1.374 . S
C344 C341 1.499 . S
C344 C345 1.373 . S
C344 C346 1.389 . S
C345 H324 0.950 . S
C345 C344 1.373 . S
C345 C361 1.377 . S
C346 C344 1.389 . S
C346 C347 1.524 . S
C346 C360 1.377 . S
C347 C346 1.524 . S
C347 C348 1.397 . S
C347 C352 1.363 . S
C348 H325 0.950 . S
C348 C347 1.397 . S
C348 C349 1.334 . S
C349 H326 0.950 . S
C349 C348 1.334 . S
C349 C350 1.287 . S
C350 C349 1.287 . S
C350 C351 1.524 . S
C350 H369 0.913 . S
C351 H327 0.950 . S
C351 C350 1.524 . S
C351 C352 1.415 . S
C352 H328 0.950 . S
C352 C347 1.363 . S
C352 C351 1.415 . S
C353 H329 0.951 . S
C353 C354 1.366 . S
C353 C355 1.388 . S
C354 C353 1.366 . S
C354 C358 1.385 . S
C355 H330 0.951 . S
C355 C353 1.388 . S
C355 C356 1.366 . S
C356 C355 1.366 . S
C356 C357 1.414 . S
C356 C359 1.499 . S
C357 H331 0.950 . S
C357 C356 1.414 . S
C357 C358 1.374 . S
C358 H332 0.950 . S
C358 C354 1.385 . S
C358 C357 1.374 . S
C359 C356 1.499 . S
C359 C360 1.373 . S
C359 C361 1.389 . S
C360 H333 0.950 . S
C360 C346 1.377 . S
C360 C359 1.373 . S
C361 C345 1.377 . S
C361 C359 1.389 . S
C361 C362 1.524 . S
C362 C361 1.524 . S
C362 C363 1.397 . S
C362 C367 1.363 . S
C363 H334 0.950 . S
C363 C362 1.397 . S
C363 C364 1.334 . S
C364 H335 0.950 . S
C364 C363 1.334 . S
C364 C365 1.287 . S
C365 C364 1.287 . S
C365 C366 1.524 . S
C365 H368 0.999 . S
C366 H336 0.950 . S
C366 C365 1.524 . S
C366 C367 1.415 . S
C367 H337 0.950 . S
C367 C362 1.363 . S
C367 C366 1.415 . S
H368 C365 0.999 . S
H369 C350 0.913 . S
H370 C388 0.951 . S
H371 C390 0.951 . S
H372 C392 0.950 . S
H373 C393 0.950 . S
H374 C395 0.950 . S
H375 C398 0.950 . S
H376 C399 0.950 . S
H377 C401 0.950 . S
H378 C402 0.950 . S
H379 C403 0.951 . S
H380 C405 0.951 . S
H381 C407 0.950 . S
H382 C408 0.950 . S
H383 C410 0.950 . S
H384 C413 0.950 . S
H385 C414 0.950 . S
H386 C416 0.950 . S
H387 C417 0.950 . S
C388 H370 0.951 . S
C388 C389 1.366 . S
C388 C390 1.388 . S
C389 C388 1.366 . S
C389 C393 1.385 . S
C390 H371 0.951 . S
C390 C388 1.388 . S
C390 C391 1.366 . S
C391 C390 1.366 . S
C391 C392 1.414 . S
C391 C394 1.499 . S
C392 H372 0.950 . S
C392 C391 1.414 . S
C392 C393 1.374 . S
C393 H373 0.950 . S
C393 C389 1.385 . S
C393 C392 1.374 . S
C394 C391 1.499 . S
C394 C395 1.373 . S
C394 C396 1.389 . S
C395 H374 0.950 . S
C395 C394 1.373 . S
C395 C411 1.377 . S
C396 C394 1.389 . S
C396 C397 1.524 . S
C396 C410 1.377 . S
C397 C396 1.524 . S
C397 C398 1.397 . S
C397 C402 1.363 . S
C398 H375 0.950 . S
C398 C397 1.397 . S
C398 C399 1.334 . S
C399 H376 0.950 . S
C399 C398 1.334 . S
C399 C400 1.287 . S
C400 C399 1.287 . S
C400 C401 1.524 . S
C400 H419 0.913 . S
C401 H377 0.950 . S
C401 C400 1.524 . S
C401 C402 1.415 . S
C402 H378 0.950 . S
C402 C397 1.363 . S
C402 C401 1.415 . S
C403 H379 0.951 . S
C403 C404 1.366 . S
C403 C405 1.388 . S
C404 C403 1.366 . S
C404 C408 1.385 . S
C405 H380 0.951 . S
C405 C403 1.388 . S
C405 C406 1.366 . S
C406 C405 1.366 . S
C406 C407 1.414 . S
C406 C409 1.499 . S
C407 H381 0.950 . S
C407 C406 1.414 . S
C407 C408 1.374 . S
C408 H382 0.950 . S
C408 C404 1.385 . S
C408 C407 1.374 . S
C409 C406 1.499 . S
C409 C410 1.373 . S
C409 C411 1.389 . S
C410 H383 0.950 . S
C410 C396 1.377 . S
C410 C409 1.373 . S
C411 C395 1.377 . S
C411 C409 1.389 . S
C411 C412 1.524 . S
C412 C411 1.524 . S
C412 C413 1.397 . S
C412 C417 1.363 . S
C413 H384 0.950 . S
C413 C412 1.397 . S
C413 C414 1.334 . S
C414 H385 0.950 . S
C414 C413 1.334 . S
C414 C415 1.287 . S
C415 C414 1.287 . S
C415 C416 1.524 . S
C415 H418 0.999 . S
C416 H386 0.950 . S
C416 C415 1.524 . S
C416 C417 1.415 . S
C417 H387 0.950 . S
C417 C412 1.363 . S
C417 C416 1.415 . S
H418 C415 0.999 . S
H419 C400 0.913 . S
H420 C438 0.951 1_554 S
H421 C440 0.951 . S
H422 C442 0.950 . S
H423 C443 0.950 . S
H424 C445 0.950 . S
H425 C448 0.950 . S
H426 C449 0.950 . S
H427 C451 0.950 . S
H428 C452 0.950 . S
H429 C453 0.951 . S
H430 C455 0.951 . S
H431 C457 0.950 . S
H432 C458 0.950 . S
H433 C460 0.950 . S
H434 C463 0.950 . S
H435 C464 0.950 . S
H436 C466 0.950 1_655 S
H437 C467 0.974 . S
C438 H420 0.951 1_556 S
C438 C439 1.366 1_556 S
C438 C440 1.388 . S
C439 C438 1.366 1_554 S
C439 C443 1.385 1_454 S
C440 H421 0.951 . S
C440 C438 1.388 . S
C440 C441 1.366 . S
C441 C440 1.366 . S
C441 C442 1.414 1_455 S
C441 C444 1.499 . S
C442 H422 0.950 . S
C442 C441 1.414 1_655 S
C442 C443 1.374 . S
C443 H423 0.950 . S
C443 C439 1.385 1_656 S
C443 C442 1.374 . S
C444 C441 1.499 . S
C444 C445 1.373 . S
C444 C446 1.389 . S
C445 H424 0.950 . S
C445 C444 1.373 . S
C445 C461 1.377 . S
C446 C444 1.389 . S
C446 C447 1.524 . S
C446 C460 1.377 . S
C447 C446 1.524 . S
C447 C448 1.397 1_455 S
C447 C452 1.363 . S
C448 H425 0.950 . S
C448 C447 1.397 1_655 S
C448 C449 1.334 . S
C449 H426 0.950 . S
C449 C448 1.334 . S
C449 C450 1.287 1_655 S
C450 C449 1.287 1_455 S
C450 C451 1.524 . S
C450 H469 0.913 . S
C451 H427 0.950 . S
C451 C450 1.524 . S
C451 C452 1.415 . S
C452 H428 0.950 . S
C452 C447 1.363 . S
C452 C451 1.415 . S
C453 H429 0.951 . S
C453 C454 1.366 1_655 S
C453 C455 1.388 . S
C454 C453 1.366 1_455 S
C454 C458 1.385 . S
C455 H430 0.951 . S
C455 C453 1.388 . S
C455 C456 1.366 1_655 S
C456 C455 1.366 1_455 S
C456 C457 1.414 . S
C456 C459 1.499 . S
C457 H431 0.950 . S
C457 C456 1.414 . S
C457 C458 1.374 . S
C458 H432 0.950 . S
C458 C454 1.385 . S
C458 C457 1.374 . S
C459 C456 1.499 . S
C459 C460 1.373 . S
C459 C461 1.389 . S
C460 H433 0.950 . S
C460 C446 1.377 . S
C460 C459 1.373 . S
C461 C445 1.377 . S
C461 C459 1.389 . S
C461 C462 1.524 . S
C462 C461 1.524 . S
C462 C463 1.397 . S
C462 C467 1.365 1_455 S
C463 H434 0.950 . S
C463 C462 1.397 . S
C463 C464 1.334 . S
C464 H435 0.950 . S
C464 C463 1.334 . S
C464 C465 1.287 . S
C465 C464 1.287 . S
C465 C466 1.524 . S
C465 H468 0.999 . S
C466 H436 0.950 1_455 S
C466 C465 1.524 . S
C466 C467 1.391 1_455 S
C467 H437 0.974 . S
C467 C462 1.365 1_655 S
C467 C466 1.391 1_655 S
H468 C465 0.999 . S
H469 C450 0.913 . S
H470 C488 0.951 . S
H471 C490 0.951 . S
H472 C492 0.950 . S
H473 C493 0.950 . S
H474 C495 0.950 . S
H475 C498 0.950 . S
H476 C499 0.950 . S
H477 C501 0.950 . S
H478 C502 0.950 . S
H479 C503 0.951 . S
H480 C505 0.951 . S
H481 C507 0.950 . S
H482 C508 0.950 . S
H483 C510 0.950 . S
H484 C513 0.950 . S
H485 C514 0.950 . S
H486 C516 0.950 . S
H487 C517 0.950 . S
C488 H470 0.951 . S
C488 C489 1.366 . S
C488 C490 1.388 . S
C489 C488 1.366 . S
C489 C493 1.385 . S
C490 H471 0.951 . S
C490 C488 1.388 . S
C490 C491 1.366 . S
C491 C490 1.366 . S
C491 C492 1.414 . S
C491 C494 1.499 . S
C492 H472 0.950 . S
C492 C491 1.414 . S
C492 C493 1.374 . S
C493 H473 0.950 . S
C493 C489 1.385 . S
C493 C492 1.374 . S
C494 C491 1.499 . S
C494 C495 1.373 . S
C494 C496 1.389 . S
C495 H474 0.950 . S
C495 C494 1.373 . S
C495 C511 1.377 1_554 S
C496 C494 1.389 . S
C496 C497 1.524 . S
C496 C510 1.377 1_554 S
C497 C496 1.524 . S
C497 C498 1.397 . S
C497 C502 1.363 . S
C498 H475 0.950 . S
C498 C497 1.397 . S
C498 C499 1.334 . S
C499 H476 0.950 . S
C499 C498 1.334 . S
C499 C500 1.287 . S
C500 C499 1.287 . S
C500 C501 1.524 . S
C500 H519 0.913 . S
C501 H477 0.950 . S
C501 C500 1.524 . S
C501 C502 1.415 . S
C502 H478 0.950 . S
C502 C497 1.363 . S
C502 C501 1.415 . S
C503 H479 0.951 . S
C503 C504 1.366 . S
C503 C505 1.388 . S
C504 C503 1.366 . S
C504 C508 1.385 . S
C505 H480 0.951 . S
C505 C503 1.388 . S
C505 C506 1.366 . S
C506 C505 1.366 . S
C506 C507 1.414 . S
C506 C509 1.499 . S
C507 H481 0.950 . S
C507 C506 1.414 . S
C507 C508 1.374 . S
C508 H482 0.950 . S
C508 C504 1.385 . S
C508 C507 1.374 . S
C509 C506 1.499 . S
C509 C510 1.373 . S
C509 C511 1.389 . S
C510 H483 0.950 . S
C510 C496 1.377 1_556 S
C510 C509 1.373 . S
C511 C495 1.377 1_556 S
C511 C509 1.389 . S
C511 C512 1.524 . S
C512 C511 1.524 . S
C512 C513 1.397 . S
C512 C517 1.363 . S
C513 H484 0.950 . S
C513 C512 1.397 . S
C513 C514 1.334 1_545 S
C514 H485 0.950 . S
C514 C513 1.334 1_565 S
C514 C515 1.287 . S
C515 C514 1.287 . S
C515 C516 1.524 . S
C515 H518 0.999 . S
C516 H486 0.950 . S
C516 C515 1.524 . S
C516 C517 1.415 1_565 S
C517 H487 0.950 . S
C517 C512 1.363 . S
C517 C516 1.415 1_545 S
H518 C515 0.999 . S
H519 C500 0.913 . S
H520 C538 0.951 . S
H521 C540 0.951 . S
H522 C542 0.950 . S
H523 C543 0.950 . S
H524 C545 0.950 . S
H525 C548 0.950 . S
H526 C549 0.950 . S
H527 C551 0.950 . S
H528 C552 0.950 . S
H529 C553 0.951 . S
H530 C555 0.951 . S
H531 C557 0.950 . S
H532 C558 0.950 . S
H533 C560 0.950 . S
H534 C563 0.950 . S
H535 C564 0.950 . S
H536 C566 0.950 . S
H537 C567 0.950 . S
C538 H520 0.951 . S
C538 C539 1.366 . S
C538 C540 1.388 . S
C539 C538 1.366 . S
C539 C543 1.385 . S
C540 H521 0.951 . S
C540 C538 1.388 . S
C540 C541 1.366 . S
C541 C540 1.366 . S
C541 C542 1.414 . S
C541 C544 1.499 . S
C542 H522 0.950 . S
C542 C541 1.414 . S
C542 C543 1.374 . S
C543 H523 0.950 . S
C543 C539 1.385 . S
C543 C542 1.374 . S
C544 C541 1.499 . S
C544 C545 1.373 . S
C544 C546 1.389 . S
C545 H524 0.950 . S
C545 C544 1.373 . S
C545 C561 1.377 . S
C546 C544 1.389 . S
C546 C547 1.524 . S
C546 C560 1.377 . S
C547 C546 1.524 . S
C547 C548 1.397 . S
C547 C552 1.363 . S
C548 H525 0.950 . S
C548 C547 1.397 . S
C548 C549 1.334 . S
C549 H526 0.950 . S
C549 C548 1.334 . S
C549 C550 1.287 . S
C550 C549 1.287 . S
C550 C551 1.524 . S
C550 H569 0.913 . S
C551 H527 0.950 . S
C551 C550 1.524 . S
C551 C552 1.415 . S
C552 H528 0.950 . S
C552 C547 1.363 . S
C552 C551 1.415 . S
C553 H529 0.951 . S
C553 C554 1.366 . S
C553 C555 1.388 . S
C554 C553 1.366 . S
C554 C558 1.385 . S
C555 H530 0.951 . S
C555 C553 1.388 . S
C555 C556 1.366 . S
C556 C555 1.366 . S
C556 C557 1.414 . S
C556 C559 1.499 . S
C557 H531 0.950 . S
C557 C556 1.414 . S
C557 C558 1.374 . S
C558 H532 0.950 . S
C558 C554 1.385 . S
C558 C557 1.374 . S
C559 C556 1.499 . S
C559 C560 1.373 . S
C559 C561 1.389 . S
C560 H533 0.950 . S
C560 C546 1.377 . S
C560 C559 1.373 . S
C561 C545 1.377 . S
C561 C559 1.389 . S
C561 C562 1.524 . S
C562 C561 1.524 . S
C562 C563 1.397 . S
C562 C567 1.363 . S
C563 H534 0.950 . S
C563 C562 1.397 . S
C563 C564 1.334 . S
C564 H535 0.950 . S
C564 C563 1.334 . S
C564 C565 1.287 . S
C565 C564 1.287 . S
C565 C566 1.524 . S
C565 H568 0.999 . S
C566 H536 0.950 . S
C566 C565 1.524 . S
C566 C567 1.415 . S
C567 H537 0.950 . S
C567 C562 1.363 . S
C567 C566 1.415 . S
H568 C565 0.999 . S
H569 C550 0.913 . S
C139 C6 2.199 . S
C154 C90 2.149 . S
C189 C59 3.096 . S
C204 C19 3.060 . S
C239 C46 1.568 . S
C254 C86 1.568 . S
C289 C99 2.523 . S
C304 C15 2.421 . S
C339 C50 2.718 1_565 S
C354 C10 2.692 . S
C389 C95 1.478 . S
C404 C55 1.472 . S
C439 C18 0.426 . S
C454 C9 0.426 . S
C489 C49 0.394 . S
C504 C58 0.394 . S
C539 C98 0.388 . S
C554 C89 0.388 . S
