# Generated by pormake.
# Topology wfx, (7)-cn, num edge types: 1
# Building blocks:
#     Node 0, Type 0, BuildingBlock: HICVOG_clean_sbu_0, # of connection points: 7
#     Node 1, Type 0, BuildingBlock: HICVOG_clean_sbu_0, # of connection points: 7
#     Node 2, Type 0, BuildingBlock: HICVOG_clean_sbu_0, # of connection points: 7
#     Node 3, Type 0, BuildingBlock: HICVOG_clean_sbu_0, # of connection points: 7
#     Node 4, Type 0, BuildingBlock: HICVOG_clean_sbu_0, # of connection points: 7
#     Node 5, Type 0, BuildingBlock: HICVOG_clean_sbu_0, # of connection points: 7
#     Node 6, Type 0, BuildingBlock: HICVOG_clean_sbu_0, # of connection points: 7
#     Node 7, Type 0, BuildingBlock: HICVOG_clean_sbu_0, # of connection points: 7
#     Node 8, Type 0, BuildingBlock: HICVOG_clean_sbu_0, # of connection points: 7
#     Node 9, Type 0, BuildingBlock: HICVOG_clean_sbu_0, # of connection points: 7
#     Node 10, Type 0, BuildingBlock: HICVOG_clean_sbu_0, # of connection points: 7
#     Node 11, Type 0, BuildingBlock: HICVOG_clean_sbu_0, # of connection points: 7
#     Node 12, Type 0, BuildingBlock: HICVOG_clean_sbu_0, # of connection points: 7
#     Node 13, Type 0, BuildingBlock: HICVOG_clean_sbu_0, # of connection points: 7
#     Node 14, Type 0, BuildingBlock: HICVOG_clean_sbu_0, # of connection points: 7
#     Node 15, Type 0, BuildingBlock: HICVOG_clean_sbu_0, # of connection points: 7
#     Edge 16, Type (0, 0), BuildingBlock: OJICUG_clean_linker_0, # of connection points: 2
#     Edge 17, Type (0, 0), BuildingBlock: OJICUG_clean_linker_0, # of connection points: 2
#     Edge 18, Type (0, 0), BuildingBlock: OJICUG_clean_linker_0, # of connection points: 2
#     Edge 19, Type (0, 0), BuildingBlock: OJICUG_clean_linker_0, # of connection points: 2
#     Edge 20, Type (0, 0), BuildingBlock: OJICUG_clean_linker_0, # of connection points: 2
#     Edge 21, Type (0, 0), BuildingBlock: OJICUG_clean_linker_0, # of connection points: 2
#     Edge 22, Type (0, 0), BuildingBlock: OJICUG_clean_linker_0, # of connection points: 2
#     Edge 23, Type (0, 0), BuildingBlock: OJICUG_clean_linker_0, # of connection points: 2
#     Edge 24, Type (0, 0), BuildingBlock: OJICUG_clean_linker_0, # of connection points: 2
#     Edge 25, Type (0, 0), BuildingBlock: OJICUG_clean_linker_0, # of connection points: 2
#     Edge 26, Type (0, 0), BuildingBlock: OJICUG_clean_linker_0, # of connection points: 2
#     Edge 27, Type (0, 0), BuildingBlock: OJICUG_clean_linker_0, # of connection points: 2
#     Edge 28, Type (0, 0), BuildingBlock: OJICUG_clean_linker_0, # of connection points: 2
#     Edge 29, Type (0, 0), BuildingBlock: OJICUG_clean_linker_0, # of connection points: 2
#     Edge 30, Type (0, 0), BuildingBlock: OJICUG_clean_linker_0, # of connection points: 2
#     Edge 31, Type (0, 0), BuildingBlock: OJICUG_clean_linker_0, # of connection points: 2
#     Edge 32, Type (0, 0), BuildingBlock: OJICUG_clean_linker_0, # of connection points: 2
#     Edge 33, Type (0, 0), BuildingBlock: OJICUG_clean_linker_0, # of connection points: 2
#     Edge 34, Type (0, 0), BuildingBlock: OJICUG_clean_linker_0, # of connection points: 2
#     Edge 35, Type (0, 0), BuildingBlock: OJICUG_clean_linker_0, # of connection points: 2
#     Edge 36, Type (0, 0), BuildingBlock: OJICUG_clean_linker_0, # of connection points: 2
#     Edge 37, Type (0, 0), BuildingBlock: OJICUG_clean_linker_0, # of connection points: 2
#     Edge 38, Type (0, 0), BuildingBlock: OJICUG_clean_linker_0, # of connection points: 2
#     Edge 39, Type (0, 0), BuildingBlock: OJICUG_clean_linker_0, # of connection points: 2
#     Edge 40, Type (0, 0), BuildingBlock: OJICUG_clean_linker_0, # of connection points: 2
#     Edge 41, Type (0, 0), BuildingBlock: OJICUG_clean_linker_0, # of connection points: 2
#     Edge 42, Type (0, 0), BuildingBlock: OJICUG_clean_linker_0, # of connection points: 2
#     Edge 43, Type (0, 0), BuildingBlock: OJICUG_clean_linker_0, # of connection points: 2
#     Edge 44, Type (0, 0), BuildingBlock: OJICUG_clean_linker_0, # of connection points: 2
#     Edge 45, Type (0, 0), BuildingBlock: OJICUG_clean_linker_0, # of connection points: 2
#     Edge 46, Type (0, 0), BuildingBlock: OJICUG_clean_linker_0, # of connection points: 2
#     Edge 47, Type (0, 0), BuildingBlock: OJICUG_clean_linker_0, # of connection points: 2
#     Edge 48, Type (0, 0), BuildingBlock: OJICUG_clean_linker_0, # of connection points: 2
#     Edge 49, Type (0, 0), BuildingBlock: OJICUG_clean_linker_0, # of connection points: 2
#     Edge 50, Type (0, 0), BuildingBlock: OJICUG_clean_linker_0, # of connection points: 2
#     Edge 51, Type (0, 0), BuildingBlock: OJICUG_clean_linker_0, # of connection points: 2
#     Edge 52, Type (0, 0), BuildingBlock: OJICUG_clean_linker_0, # of connection points: 2
#     Edge 53, Type (0, 0), BuildingBlock: OJICUG_clean_linker_0, # of connection points: 2
#     Edge 54, Type (0, 0), BuildingBlock: OJICUG_clean_linker_0, # of connection points: 2
#     Edge 55, Type (0, 0), BuildingBlock: OJICUG_clean_linker_0, # of connection points: 2
#     Edge 56, Type (0, 0), BuildingBlock: OJICUG_clean_linker_0, # of connection points: 2
#     Edge 57, Type (0, 0), BuildingBlock: OJICUG_clean_linker_0, # of connection points: 2
#     Edge 58, Type (0, 0), BuildingBlock: OJICUG_clean_linker_0, # of connection points: 2
#     Edge 59, Type (0, 0), BuildingBlock: OJICUG_clean_linker_0, # of connection points: 2
#     Edge 60, Type (0, 0), BuildingBlock: OJICUG_clean_linker_0, # of connection points: 2
#     Edge 61, Type (0, 0), BuildingBlock: OJICUG_clean_linker_0, # of connection points: 2
#     Edge 62, Type (0, 0), BuildingBlock: OJICUG_clean_linker_0, # of connection points: 2
#     Edge 63, Type (0, 0), BuildingBlock: OJICUG_clean_linker_0, # of connection points: 2
#     Edge 64, Type (0, 0), BuildingBlock: OJICUG_clean_linker_0, # of connection points: 2
#     Edge 65, Type (0, 0), BuildingBlock: OJICUG_clean_linker_0, # of connection points: 2
#     Edge 66, Type (0, 0), BuildingBlock: OJICUG_clean_linker_0, # of connection points: 2
#     Edge 67, Type (0, 0), BuildingBlock: OJICUG_clean_linker_0, # of connection points: 2
#     Edge 68, Type (0, 0), BuildingBlock: OJICUG_clean_linker_0, # of connection points: 2
#     Edge 69, Type (0, 0), BuildingBlock: OJICUG_clean_linker_0, # of connection points: 2
#     Edge 70, Type (0, 0), BuildingBlock: OJICUG_clean_linker_0, # of connection points: 2
#     Edge 71, Type (0, 0), BuildingBlock: OJICUG_clean_linker_0, # of connection points: 2
# Relax obj value: 0.402
# Max RMSD: 0.261
# Mean RMSD: 0.261
data_MOF--net-wfx--node1-HICVOG_clean_sbu_0--edge1-OJICUG_clean_linker_0
_symmetry_space_group_name_H-M    P1
_symmetry_Int_Tables_number       1
_symmetry_cell_setting            triclinic
loop_
_symmetry_equiv_pos_as_xyz
'x, y, z'
_cell_length_a     23.645507
_cell_length_b     23.983138
_cell_length_c     49.844223
_cell_angle_alpha  90.336719
_cell_angle_beta   89.429538
_cell_angle_gamma 90.64193
loop_
_atom_site_label
_atom_site_type_symbol
_atom_site_fract_x
_atom_site_fract_y
_atom_site_fract_z
_atom_type_partial_charge
Zn0 Zn 0.73597 0.06775 0.06772 0.0
C1 C 0.62597 0.99837 0.1178 0.0
N2 N 0.58976 0.99745 0.09701 0.0
C3 C 0.61636 1.02828 0.0782 0.0
N4 N 0.66757 0.04665 0.08701 0.0
N5 N 0.67215 1.03056 0.11229 0.0
C6 C 0.80484 0.98862 0.16505 0.0
O7 O 0.76698 0.95091 0.17211 0.0
O8 O 0.72076 0.06952 1.02789 0.0
Zn9 Zn 0.7181 0.07296 0.13965 0.0
N10 N 0.78714 1.00441 0.06953 0.0
C11 C 0.82378 0.92485 0.09165 0.0
C12 C 0.79502 0.97553 0.09244 0.0
C13 C 0.80738 0.98441 0.04582 0.0
N14 N 0.84407 0.90502 0.0679 0.0
C15 C 0.83581 0.9333 0.04477 0.0
O16 O 0.7526 0.1475 0.12558 0.0
C17 C 0.77306 0.16937 0.10422 0.0
O18 O 0.77136 0.14269 0.08184 0.0
H19 H 0.77708 0.99068 0.11082 0.0
H20 H 0.80152 1.00813 1.02774 0.0
C21 C 0.67037 0.09986 0.19428 0.0
C22 C 0.62776 0.12492 0.21043 0.0
C23 C 0.57621 0.14514 0.17103 0.0
C24 C 0.61811 0.12078 0.15532 0.0
N25 N 0.66423 0.09841 0.16703 0.0
N26 N 0.58205 0.14668 0.19801 0.0
H27 H 0.70826 0.08321 0.203 0.0
C28 C 0.7202 0.11277 1.01359 0.0
O29 O 0.71688 0.10796 0.98739 0.0
O30 O 0.78913 1.03348 0.15382 0.0
H31 H 0.61449 0.1206 0.13371 0.0
H32 H 0.82862 0.90066 0.10961 0.0
H33 H 0.53945 0.16315 0.16185 0.0
Zn34 Zn 0.48367 0.67679 0.08927 0.0
C35 C 0.61154 0.60314 0.12542 0.0
N36 N 0.6165 0.57388 0.10237 0.0
C37 C 0.57255 0.59135 0.08796 0.0
N38 N 0.54325 0.63103 0.10147 0.0
N39 N 0.56611 0.63735 0.12546 0.0
C40 C 0.60516 0.77448 0.14988 0.0
O41 O 0.6269 0.74472 0.13024 0.0
O42 O 0.41045 0.63633 0.09371 0.0
Zn43 Zn 0.52733 0.67877 0.1554 0.0
N44 N 0.49485 0.69581 0.05199 0.0
C45 C 0.54466 0.70568 1.01061 0.0
C46 C 0.54284 0.68819 0.03721 0.0
C47 C 0.45072 0.72402 0.04201 0.0
N48 N 0.50148 0.73641 1.00107 0.0
C49 C 0.45487 0.74788 1.01637 0.0
O50 O 0.44624 0.70696 0.14698 0.0
C51 C 0.43756 0.74416 0.1293 0.0
O52 O 0.47218 0.74866 0.10976 0.0
H53 H 0.57982 0.67016 0.04598 0.0
H54 H 0.41585 0.73255 0.05552 0.0
C55 C 0.51167 0.6427 0.21222 0.0
C56 C 0.50133 0.60094 0.23175 0.0
C57 C 0.50722 0.53183 0.19754 0.0
C58 C 0.51688 0.5729 0.17848 0.0
N59 N 0.51914 0.62751 0.18593 0.0
N60 N 0.49954 0.54673 0.22353 0.0
H61 H 0.5122 0.68644 0.21763 0.0
C62 C 0.39972 0.59803 0.11056 0.0
O63 O 0.4398 0.57969 0.12607 0.0
O64 O 0.5666 0.75285 0.16459 0.0
H65 H 0.52196 0.56108 0.1577 0.0
H66 H 0.58182 0.69855 0.99828 0.0
H67 H 0.50538 0.48833 0.19171 0.0
Zn68 Zn 0.92263 0.49813 0.14077 0.0
C69 C 1.02647 0.54646 0.08008 0.0
N70 N 1.0468 0.58519 0.09707 0.0
C71 C 1.01292 0.57983 0.1189 0.0
N72 N 0.97321 0.53885 0.11523 0.0
N73 N 0.98105 0.51969 0.09059 0.0
C74 C 0.95107 0.44927 1.01455 0.0
O75 O 0.96451 0.46045 0.9895 0.0
O76 O 0.85831 0.54755 0.15424 0.0
Zn77 Zn 0.91922 0.49245 0.06972 0.0
N78 N 0.97242 0.47327 0.16866 0.0
C79 C 0.05779 0.42478 0.17654 0.0
C80 C 1.01912 0.44725 0.15891 0.0
C81 C 0.96248 0.47765 0.19552 0.0
N82 N 1.04833 0.42934 0.20331 0.0
C83 C 1.00186 0.45525 0.21356 0.0
O84 O 0.88372 0.41894 0.08231 0.0
C85 C 0.87285 0.39684 0.10505 0.0
O86 O 0.8856 0.42275 0.12677 0.0
H87 H 1.0258 0.44348 0.13748 0.0
H88 H 0.9241 0.49734 0.20247 0.0
C89 C 0.84356 0.55998 0.04404 0.0
C90 C 0.81259 0.60802 0.03863 0.0
C91 C 0.82054 0.63482 0.08425 0.0
C92 C 0.85338 0.58782 0.08911 0.0
N93 N 0.86438 0.55149 0.0688 0.0
N94 N 0.8008 0.64392 0.05913 0.0
H95 H 0.85111 0.52892 1.0287 0.0
C96 C 0.81439 0.52615 0.16523 0.0
O97 O 0.8152 0.47315 0.17174 0.0
O98 O 0.94646 0.48898 0.03119 0.0
H99 H 0.87104 0.58119 0.10856 0.0
H100 H 0.09506 0.40382 0.16904 0.0
H101 H 0.81148 0.66421 0.10022 0.0
Zn102 Zn 0.11191 0.90354 0.15125 0.0
C103 C 0.05623 0.99082 0.08579 0.0
N104 N 1.00546 0.98165 0.0973 0.0
C105 C 1.01761 0.95452 0.12001 0.0
N106 N 0.07394 0.9456 0.12223 0.0
N107 N 0.0986 0.97098 0.10142 0.0
C108 C 0.1925 0.10236 0.10442 0.0
O109 O 0.13755 0.10634 0.10805 0.0
O110 O 0.06625 0.83257 0.16224 0.0
Zn111 Zn 0.18089 0.9783 0.09575 0.0
N112 N 0.12568 0.95722 0.17968 0.0
C113 C 0.15893 0.04952 0.18831 0.0
C114 C 0.14416 1.00742 0.17036 0.0
C115 C 0.12148 0.94716 0.2065 0.0
N116 N 0.1549 1.03974 0.21499 0.0
C117 C 0.13655 0.9898 0.22486 0.0
O118 O 0.2311 0.9197 0.11147 0.0
C119 C 0.23241 0.87957 0.12792 0.0
O120 O 0.1897 0.86869 0.14282 0.0
H121 H 0.14823 1.01435 0.14903 0.0
H122 H 0.10801 0.9063 0.21326 0.0
C123 C 0.15984 0.92366 0.049 0.0
C124 C 0.16504 0.90666 1.02234 0.0
C125 C 0.23657 0.97563 1.01571 0.0
C126 C 0.23231 0.99106 0.04272 0.0
N127 N 0.19355 0.9647 0.05856 0.0
N128 N 0.2033 0.93351 1.00623 0.0
H129 H 0.12955 0.90457 0.0625 0.0
C130 C 1.04286 0.80358 0.14375 0.0
O131 O 1.04291 0.82329 0.11923 0.0
O132 O 0.21483 0.0543 0.10434 0.0
H133 H 0.25884 1.0237 0.05099 0.0
H134 H 0.17385 0.08959 0.18111 0.0
H135 H 0.26672 0.99582 1.00248 0.0
Zn136 Zn 0.18985 1.00711 0.4146 0.0
C137 C 0.10475 0.05832 0.48067 0.0
N138 N 0.07832 0.09356 0.46428 0.0
C139 C 0.10825 0.08955 0.44109 0.0
N140 N 0.15013 0.05131 0.44305 0.0
N141 N 0.1491 1.03411 0.46812 0.0
C142 C 0.15053 0.92545 0.50967 0.0
O143 O 0.12077 0.93557 0.4882 0.0
O144 O 0.26386 1.04286 0.40264 0.0
Zn145 Zn 0.21369 1.00208 0.48424 0.0
N146 N 0.13615 0.99653 0.38589 0.0
C147 C 1.04048 0.97425 0.3756 0.0
C148 C 0.08224 0.98602 0.39429 0.0
C149 C 0.15031 0.99517 0.35934 0.0
N150 N 0.05437 0.9728 0.34917 0.0
C151 C 0.10814 0.98286 0.34027 0.0
O152 O 0.25081 0.93637 0.46552 0.0
C153 C 0.24321 0.90661 0.44465 0.0
O154 O 0.21489 0.92559 0.42498 0.0
H155 H 0.072 0.98581 0.41548 0.0
H156 H 0.19396 1.00199 0.35342 0.0
C157 C 0.27934 0.08016 0.5153 0.0
C158 C 0.30684 0.13184 0.51949 0.0
C159 C 0.30758 0.14712 0.47259 0.0
C160 C 0.27851 0.0968 0.46874 0.0
N161 N 0.26499 0.06431 0.49014 0.0
N162 N 0.3212 0.16351 0.49785 0.0
H163 H 0.2686 0.05278 0.5318 0.0
C164 C 0.28139 0.08887 0.39287 0.0
O165 O 0.24509 0.12808 0.38729 0.0
O166 O 0.18827 0.96076 0.51673 0.0
H167 H 0.26513 0.08449 0.449 0.0
H168 H 0.99743 0.96576 0.38203 0.0
H169 H 0.3186 0.17326 0.45567 0.0
Zn170 Zn 0.57396 0.2064 0.40021 0.0
C171 C 0.53502 0.12736 0.47081 0.0
N172 N 0.49353 0.10331 0.45643 0.0
C173 C 0.49841 0.12823 0.43233 0.0
N174 N 0.54156 0.16564 0.43149 0.0
N175 N 0.56348 0.16616 0.45577 0.0
C176 C 0.70391 0.17132 0.46138 0.0
O177 O 0.67581 0.15326 0.44043 0.0
O178 O 0.52418 0.27451 0.39362 0.0
Zn179 Zn 0.60626 0.22946 0.46736 0.0
N180 N 0.5829 0.15142 0.37089 0.0
C181 C 0.59915 0.05486 0.36258 0.0
C182 C 0.58735 0.09836 0.38015 0.0
C183 C 0.59196 0.16276 0.3443 0.0
N184 N 0.60815 0.06596 0.33632 0.0
C185 C 0.60551 0.11856 0.32635 0.0
O186 O 0.62877 0.29064 0.44071 0.0
C187 C 0.66438 0.28027 0.42206 0.0
O188 O 0.65437 0.23982 0.40603 0.0
H189 H 0.58373 0.08967 0.40128 0.0
H190 H 0.59095 0.20551 0.33754 0.0
C191 C 0.56066 0.2555 0.52022 0.0
C192 C 0.51532 0.27272 0.53671 0.0
C193 C 0.46331 0.29601 0.4978 0.0
C194 C 0.50892 0.28091 0.48174 0.0
N195 N 0.55641 0.26103 0.49324 0.0
N196 N 0.46783 0.2921 0.52477 0.0
H197 H 0.59831 0.23718 0.52834 0.0
C198 C 0.54595 0.31886 0.38374 0.0
O199 O 0.59592 0.3159 0.3721 0.0
O200 O 0.68028 0.20315 0.4786 0.0
H201 H 0.50591 0.28274 0.46012 0.0
H202 H 0.60249 1.01263 0.36985 0.0
H203 H 0.42484 0.31121 0.489 0.0
Zn204 Zn 0.37165 0.58278 0.48891 0.0
C205 C 0.48656 0.51191 0.44279 0.0
N206 N 0.5182 0.5063 0.46486 0.0
C207 C 0.49032 0.53623 0.48359 0.0
N208 N 0.4428 0.55929 0.47311 0.0
N209 N 0.44177 0.54525 0.44727 0.0
C210 C 0.30828 0.49551 0.3872 0.0
O211 O 0.3292 0.45465 0.37267 0.0
O212 O 0.37453 0.5888 0.52959 0.0
Zn213 Zn 0.39791 0.58191 0.41821 0.0
N214 N 0.32156 0.51901 0.48401 0.0
C215 C 0.25056 0.46411 0.46268 0.0
C216 C 0.2884 0.50947 0.46241 0.0
C217 C 0.31992 0.48408 0.50528 0.0
N218 N 0.24573 0.43198 0.48502 0.0
C219 C 0.27974 0.44065 0.50656 0.0
O220 O 0.35564 0.65472 0.42899 0.0
C221 C 0.33504 0.67853 0.44987 0.0
O222 O 0.33832 0.65516 0.47282 0.0
H223 H 0.29027 0.53781 0.44572 0.0
H224 H 0.34656 0.49332 0.52216 0.0
C225 C 0.44753 0.6042 0.36484 0.0
C226 C 0.49006 0.6262 0.34759 0.0
C227 C 0.54343 0.65285 0.38586 0.0
C228 C 0.50143 0.6312 0.40268 0.0
N229 N 0.45438 0.60727 0.39198 0.0
N230 N 0.53676 0.64994 0.3589 0.0
H231 H 0.40904 0.58597 0.35698 0.0
C232 C 0.3708 0.63072 0.54504 0.0
O233 O 0.36655 0.62295 0.57105 0.0
O234 O 0.34213 0.52896 0.39922 0.0
H235 H 0.50594 0.63394 0.42422 0.0
H236 H 0.22324 0.45606 0.44589 0.0
H237 H 0.58105 0.67206 0.39415 0.0
Zn238 Zn 0.95717 0.42644 0.46871 0.0
C239 C 0.09055 0.49642 0.4335 0.0
N240 N 0.09695 0.52624 0.45621 0.0
C241 C 0.05384 0.50942 0.47184 0.0
N242 N 1.02112 0.47102 0.45882 0.0
N243 N 1.04465 0.46164 0.43491 0.0
C244 C 0.08727 0.31612 0.41431 0.0
O245 O 0.11035 0.34647 0.43339 0.0
O246 O 0.92161 0.44728 0.50339 0.0
Zn247 Zn 1.00915 0.41363 0.40585 0.0
N248 N 0.98409 0.35167 0.47014 0.0
C249 C 0.98261 0.25401 0.46198 0.0
C250 C 0.95817 0.30622 0.45914 0.0
C251 C 1.03296 0.34712 0.4838 0.0
N252 N 1.02963 0.24921 0.47716 0.0
C253 C 0.05516 0.29457 0.48864 0.0
O254 O 0.92409 0.38708 0.40916 0.0
C255 C 0.8817 0.40032 0.4238 0.0
O256 O 0.88954 0.42947 0.44467 0.0
H257 H 0.91885 0.30998 0.44858 0.0
H258 H 1.05271 0.38414 0.49197 0.0
C259 C 1.00679 0.447 0.34861 0.0
C260 C 0.99925 0.4879 0.32865 0.0
C261 C 0.99515 0.55776 0.36253 0.0
C262 C 1.00096 0.51738 0.38206 0.0
N263 N 1.00774 0.46296 0.37492 0.0
N264 N 0.99416 0.54212 0.33644 0.0
H265 H 1.00951 0.4032 0.34355 0.0
C266 C 0.88233 0.48191 0.49948 0.0
O267 O 0.89056 0.52042 0.48116 0.0
O268 O 1.04887 0.33746 0.39989 0.0
H269 H 0.99847 0.52949 0.40291 0.0
H270 H 0.96298 0.21728 0.45327 0.0
H271 H 0.99012 0.60113 0.36804 0.0
Zn272 Zn 0.38874 1.01526 0.98236 0.0
C273 C 0.50566 0.07742 0.93378 0.0
N274 N 0.54057 0.07548 0.95503 0.0
C275 C 0.51082 0.0465 0.97341 0.0
N276 N 0.45908 1.03168 0.96385 0.0
N277 N 0.45717 0.04804 0.93849 0.0
C278 C 0.3095 0.09789 0.89145 0.0
O279 O 0.34073 0.1297 0.87575 0.0
O280 O 0.40234 1.00642 1.02196 0.0
Zn281 Zn 0.40477 1.0135 0.91104 0.0
N282 N 0.34428 0.08409 0.98273 0.0
C283 C 0.31785 0.17323 0.96614 0.0
C284 C 0.34301 0.12111 0.96223 0.0
C285 C 0.32311 0.09853 1.00719 0.0
N286 N 0.29651 0.1872 0.99071 0.0
C287 C 0.29965 0.15125 1.01159 0.0
O288 O 0.371 0.93763 0.92396 0.0
C289 C 0.34761 0.91691 0.94499 0.0
O290 O 0.34778 0.94403 0.96725 0.0
H291 H 0.36323 0.11132 0.94345 0.0
H292 H 0.32534 0.06951 1.02352 0.0
C293 C 0.44198 0.99517 0.85231 0.0
C294 C 0.48102 0.97024 0.83396 0.0
C295 C 0.53628 0.94156 0.87091 0.0
C296 C 0.49792 0.96541 0.88869 0.0
N297 N 0.45156 0.99186 0.8794 0.0
N298 N 0.52689 0.94439 0.84423 0.0
H299 H 0.40418 1.01518 0.84527 0.0
C300 C 0.39579 0.96232 0.03543 0.0
O301 O 0.39765 0.96501 0.06173 0.0
O302 O 0.33151 0.05732 0.90394 0.0
H303 H 0.50439 0.96179 0.91005 0.0
H304 H 0.31698 0.20307 0.94999 0.0
H305 H 0.57311 0.92033 0.87826 0.0
Zn306 Zn 0.58836 0.40537 0.91639 0.0
C307 C 0.52981 0.48808 0.98329 0.0
N308 N 0.48423 0.49859 0.9684 0.0
C309 C 0.49369 0.46851 0.94583 0.0
N310 N 0.54349 0.44096 0.94642 0.0
N311 N 0.56462 0.45171 0.9704 0.0
C312 C 0.68738 0.52521 0.96159 0.0
O313 O 0.63799 0.53488 0.95102 0.0
O314 O 0.55893 0.32662 0.9083 0.0
Zn315 Zn 0.63459 0.42131 0.98106 0.0
N316 N 0.58881 0.4562 0.88585 0.0
C317 C 0.58814 0.55189 0.87325 0.0
C318 C 0.58119 0.51071 0.8925 0.0
C319 C 0.60279 0.44116 0.86018 0.0
N320 N 0.60281 0.53719 0.84789 0.0
C321 C 0.61039 0.48301 0.84061 0.0
O322 O 0.65805 0.34923 0.96219 0.0
C323 C 0.68761 0.35227 0.94088 0.0
O324 O 0.67396 0.38747 0.92306 0.0
H325 H 0.57101 0.52253 0.91282 0.0
H326 H 0.60971 0.39771 0.85532 0.0
C327 C 0.67578 0.36718 1.02386 0.0
C328 C 0.67381 0.33222 0.0463 0.0
C329 C 0.59048 0.37772 0.06105 0.0
C330 C 0.58711 0.4037 0.03623 0.0
N331 N 0.6313 0.39998 1.01858 0.0
N332 N 0.63248 0.3408 0.06508 0.0
H333 H 0.70722 0.36251 1.00822 0.0
C334 C 0.51942 0.30007 0.89642 0.0
O335 O 0.47914 0.32742 0.88443 0.0
O336 O 0.69549 0.47934 0.97374 0.0
H337 H 0.54836 0.42356 0.03096 0.0
H338 H 0.5825 0.59534 0.87845 0.0
H339 H 0.55679 0.38195 0.07573 0.0
Zn340 Zn 0.18792 0.60783 0.97872 0.0
C341 C 0.11249 0.50262 0.93035 0.0
N342 N 0.07855 0.49578 0.95208 0.0
C343 C 0.0939 0.53804 0.96818 0.0
N344 N 0.1363 0.56831 0.95713 0.0
N345 N 0.14809 0.54728 0.93329 0.0
C346 C 0.28912 0.50275 0.89312 0.0
O347 O 0.25298 0.46391 0.88562 0.0
O348 O 0.14171 0.66006 0.99953 0.0
Zn349 Zn 0.19682 0.58948 0.90786 0.0
N350 N 0.22172 0.55087 0.99994 0.0
C351 C 0.24835 0.45582 1.00277 0.0
C352 C 0.23128 0.50108 0.98767 0.0
C353 C 0.22988 0.55786 1.02659 0.0
N354 N 0.25757 0.46287 0.02938 0.0
C355 C 0.24925 0.51281 0.04191 0.0
O356 O 0.22352 0.67003 0.91994 0.0
C357 C 0.24602 0.69057 0.94114 0.0
O358 O 0.24491 0.66325 0.96296 0.0
H359 H 0.22448 0.49639 0.96641 0.0
H360 H 0.22304 0.59875 0.03513 0.0
C361 C 0.16402 0.6038 0.85096 0.0
C362 C 0.12355 0.61917 0.83174 0.0
C363 C 0.05562 0.63131 0.86665 0.0
C364 C 0.09559 0.61674 0.88546 0.0
N365 N 0.14876 0.60293 0.8774 0.0
N366 N 0.07051 0.6323 0.84039 0.0
H367 H 0.2071 0.59429 0.84524 0.0
C368 C 0.11586 0.69313 0.98411 0.0
O369 O 0.11435 0.68217 0.95827 0.0
O370 O 0.27134 0.55018 0.90082 0.0
H371 H 0.08455 0.61745 0.90655 0.0
H372 H 0.2553 0.41568 0.99336 0.0
H373 H 1.01321 0.64238 0.87285 0.0
Zn374 Zn 1.00814 0.18505 0.91576 0.0
C375 C 0.06693 0.10344 0.98158 0.0
N376 N 0.11757 0.11237 0.96984 0.0
C377 C 0.10491 0.13808 0.94681 0.0
N378 N 1.04845 0.14616 0.94464 0.0
N379 N 1.02423 0.12216 0.96586 0.0
C380 C 0.94278 0.98891 0.95939 0.0
O381 O 0.99738 0.99196 0.95434 0.0
O382 O 0.05584 0.24941 0.89999 0.0
Zn383 Zn 0.94205 0.11263 0.97063 0.0
N384 N 0.98781 0.12955 0.88949 0.0
C385 C 0.95254 1.03785 0.88143 0.0
C386 C 0.97019 0.07944 0.89913 0.0
C387 C 0.98803 0.14031 0.8628 0.0
N388 N 0.95344 0.0481 0.8547 0.0
C389 C 0.9709 0.0982 0.84466 0.0
O390 O 0.88759 0.16657 0.95207 0.0
C391 C 0.88867 0.21037 0.9377 0.0
O392 O 0.93406 0.22525 0.92563 0.0
H393 H 0.96928 0.07242 0.92045 0.0
H394 H 1.0005 0.18147 0.85612 0.0
C395 C 0.9398 0.18812 1.0092 0.0
C396 C 0.92731 0.2166 0.0328 0.0
C397 C 0.89747 0.13168 0.05269 0.0
C398 C 0.90518 0.10432 1.02805 0.0
N399 N 0.92771 0.13332 1.00708 0.0
N400 N 0.90775 0.18761 0.05442 0.0
H401 H 0.95592 0.21008 0.99175 0.0
C402 C 0.0832 0.2803 0.91633 0.0
O403 O 0.08399 0.26638 0.94177 0.0
O404 O 0.91553 1.03344 0.96432 0.0
H405 H 0.8943 0.06067 1.02581 0.0
H406 H 0.93826 0.99774 0.88885 0.0
H407 H 0.88139 0.10914 0.06993 0.0
Zn408 Zn 0.92344 0.09184 0.65227 0.0
C409 C 1.03433 1.04554 0.59265 0.0
N410 N 1.04135 0.99926 0.60698 0.0
C411 C 1.00556 1.00621 0.62797 0.0
N412 N 0.97645 0.05482 0.62639 0.0
N413 N 0.99588 0.07935 0.60444 0.0
C414 C 0.06621 0.19693 0.57643 0.0
O415 O 0.06798 0.19953 0.60272 0.0
O416 O 0.84886 0.048 0.65585 0.0
Zn417 Zn 0.96141 0.13718 0.58564 0.0
N418 N 0.96994 0.10334 0.68351 0.0
C419 C 0.06287 0.13328 0.69512 0.0
C420 C 1.02277 0.12041 0.67592 0.0
C421 C 0.95497 0.0998 0.70991 0.0
N422 N 1.04828 0.12991 0.72134 0.0
C423 C 0.99548 0.11392 0.72955 0.0
O424 O 0.91571 0.19823 0.60344 0.0
C425 C 0.88986 0.20769 0.62541 0.0
O426 O 0.89124 0.17194 0.64432 0.0
H427 H 1.03356 0.12499 0.65494 0.0
H428 H 0.91211 0.08797 0.71534 0.0
C429 C 0.90426 0.10964 0.53793 0.0
C430 C 0.86534 0.07954 0.5224 0.0
C431 C 0.8441 1.02181 0.55985 0.0
C432 C 0.87974 0.05439 0.5756 0.0
N433 N 0.90946 0.09709 0.56415 0.0
N434 N 0.83692 1.03578 0.53382 0.0
H435 H 0.92944 0.14352 0.52978 0.0
C436 C 0.82643 1.00046 0.66057 0.0
O437 O 0.8583 0.95824 0.66698 0.0
O438 O 1.02395 0.17395 0.56491 0.0
H439 H 0.88445 1.04512 0.59663 0.0
H440 H 0.10505 0.14666 0.6893 0.0
H441 H 0.82079 0.98704 0.56842 0.0
Zn442 Zn 0.53465 0.91419 0.64038 0.0
C443 C 0.56978 1.02035 0.57529 0.0
N444 N 0.61968 1.02389 0.58785 0.0
C445 C 0.61404 0.988 0.60841 0.0
N446 N 0.56246 0.9626 0.60909 0.0
N447 N 0.5347 0.98264 0.58808 0.0
C448 C 0.41899 0.07132 0.59917 0.0
O449 O 0.46865 0.07742 0.61038 0.0
O450 O 0.59458 0.85348 0.64559 0.0
Zn451 Zn 0.4576 0.96138 0.57927 0.0
N452 N 0.52383 0.96444 0.67229 0.0
C453 C 0.51639 0.06032 0.6848 0.0
C454 C 0.52686 1.01935 0.66565 0.0
C455 C 0.51052 0.94916 0.69816 0.0
N456 N 0.50303 1.04533 0.71021 0.0
C457 C 0.4996 0.99106 0.71791 0.0
O458 O 0.4188 0.89959 0.60059 0.0
C459 C 0.41925 0.86526 0.61983 0.0
O460 O 0.46068 0.8654 0.63603 0.0
H461 H 0.5365 1.03175 0.6454 0.0
H462 H 0.50717 0.90541 0.70311 0.0
C463 C 0.41462 0.89264 0.53916 0.0
C464 C 0.41693 0.85595 0.51711 0.0
C465 C 0.49216 0.91018 0.49885 0.0
C466 C 0.49543 0.94015 0.52279 0.0
N467 N 0.45522 0.93247 0.54225 0.0
N468 N 0.45447 0.86744 0.49695 0.0
H469 H 0.38546 0.88569 0.55551 0.0
C470 C 0.58658 0.81035 0.66009 0.0
O471 O 0.54166 0.80827 0.67579 0.0
O472 O 0.40746 1.02702 0.58596 0.0
H473 H 0.53191 0.96598 0.526 0.0
H474 H 0.51856 0.10396 0.67945 0.0
H475 H 0.52299 0.91703 0.48299 0.0
Zn476 Zn 0.69946 0.51727 0.65264 0.0
C477 C 0.60633 0.55646 0.58606 0.0
N478 N 0.61642 0.60927 0.59368 0.0
C479 C 0.64616 0.6039 0.61636 0.0
N480 N 0.65588 0.5495 0.62221 0.0
N481 N 0.62962 0.51964 0.60344 0.0
C482 C 0.53039 0.37571 0.63685 0.0
O483 O 0.49438 0.3747 0.65708 0.0
O484 O 0.76568 0.57093 0.66197 0.0
Zn485 Zn 0.62109 0.43859 0.60484 0.0
N486 N 0.6456 0.50483 0.68217 0.0
C487 C 0.54817 0.49096 0.69321 0.0
C488 C 0.59036 0.50505 0.6748 0.0
C489 C 0.66018 0.4927 0.70791 0.0
N490 N 0.56255 0.47822 0.71863 0.0
C491 C 0.6173 0.47895 0.72676 0.0
O492 O 0.6939 0.39664 0.6137 0.0
C493 C 0.73589 0.39976 0.62944 0.0
O494 O 0.74175 0.44178 0.64514 0.0
H495 H 0.57885 0.51541 0.65458 0.0
H496 H 0.70431 0.49288 0.71348 0.0
C497 C 0.65505 0.41924 0.55531 0.0
C498 C 0.657 0.41576 0.52752 0.0
C499 C 0.55737 0.40574 0.52698 0.0
C500 C 0.55574 0.40966 0.5551 0.0
N501 N 0.60505 0.41698 0.56853 0.0
N502 N 0.60794 0.40985 0.5137 0.0
H503 H 0.69317 0.42825 0.56641 0.0
C504 C 0.79012 0.59462 0.64206 0.0
O505 O 0.76985 0.58598 0.61796 0.0
O506 O 0.56252 0.41815 0.63378 0.0
H507 H 0.51577 0.40962 0.56584 0.0
H508 H 0.50422 0.49031 0.68737 0.0
H509 H 0.51859 0.40168 0.5158 0.0
Zn510 Zn 0.1028 0.69004 0.64432 0.0
C511 C 1.05077 0.59987 0.58016 0.0
N512 N 0.99833 0.60928 0.58939 0.0
C513 C 1.00726 0.63861 0.61205 0.0
N514 N 0.06314 0.6481 0.61635 0.0
N515 N 0.09064 0.62228 0.59668 0.0
C516 C 0.22648 0.49825 0.60314 0.0
O517 O 0.27028 0.52666 0.61214 0.0
O518 O 0.05568 0.75579 0.65883 0.0
Zn519 Zn 0.17226 0.60674 0.59641 0.0
N520 N 0.12431 0.6371 0.67153 0.0
C521 C 0.15834 0.54587 0.67978 0.0
C522 C 0.1397 0.58617 0.66211 0.0
C523 C 0.12654 0.64945 0.69818 0.0
N524 N 0.16014 0.5578 0.70635 0.0
C525 C 0.14453 0.60839 0.71633 0.0
O526 O 0.2296 0.65788 0.61781 0.0
C527 C 0.22465 0.70915 0.6247 0.0
O528 O 0.17616 0.72858 0.6309 0.0
H529 H 0.13788 0.5771 0.64096 0.0
H530 H 0.11512 0.69081 0.70487 0.0
C531 C 0.19047 0.67691 0.5562 0.0
C532 C 0.19932 0.6973 0.53051 0.0
C533 C 0.21916 0.60588 0.51512 0.0
C534 C 0.21003 0.58558 0.54105 0.0
N535 N 0.19503 0.62193 0.5608 0.0
N536 N 0.21289 0.66123 0.51032 0.0
H537 H 0.17617 0.7038 0.57234 0.0
C538 C 1.02596 0.78305 0.64232 0.0
O539 O 1.02277 0.76507 0.61745 0.0
O540 O 0.1801 0.52359 0.60039 0.0
H541 H 0.2129 0.54158 0.5451 0.0
H542 H 0.17102 0.50528 0.67247 0.0
H543 H 0.22908 0.57781 0.49882 0.0
C544 C 0.58414 1.00755 1.00386 0.0
C545 C 0.53376 1.03773 1.00089 0.0
H546 H 0.6497 0.98049 0.03043 0.0
C547 C 0.51298 0.06729 1.02326 0.0
H548 H 0.60214 0.98554 0.98682 0.0
C549 C 0.54105 0.06539 0.04807 0.0
C550 C 0.59161 1.03543 0.05096 0.0
H551 H 0.47574 0.09282 1.02142 0.0
H552 H 0.52331 0.08767 0.06508 0.0
C553 C 0.61219 1.00567 1.02864 0.0
C554 C 0.505 0.56196 0.05076 0.0
C555 C 0.56022 0.56798 0.0607 0.0
H556 H 0.45223 0.53269 1.01859 0.0
C557 C 0.60531 0.54952 0.04449 0.0
H558 H 0.46922 0.57501 0.06273 0.0
C559 C 0.59564 0.52549 1.01927 0.0
C560 C 0.54069 0.51783 1.00943 0.0
H561 H 0.64851 0.55351 0.05136 0.0
H562 H 0.6314 0.51094 1.00807 0.0
C563 C 0.49538 0.5376 1.02537 0.0
C564 C 0.09186 0.49754 1.01442 0.0
C565 C 0.07705 0.5406 0.99689 0.0
H566 H 0.08752 0.46586 0.05471 0.0
C567 C 1.04404 0.58459 1.00679 0.0
H568 H 0.11614 0.46246 1.00711 0.0
C569 C 1.02855 0.58705 0.034 0.0
C570 C 1.04379 0.54423 0.05154 0.0
H571 H 1.02984 0.61685 0.99343 0.0
H572 H 1.0035 0.62168 0.04124 0.0
C573 C 0.0755 0.4994 0.04155 0.0
C574 C 1.01478 1.0153 0.04113 0.0
C575 C 0.06069 1.01886 0.05892 0.0
H576 H 0.98118 1.03699 1.00303 0.0
C577 C 0.10748 0.05111 0.05088 0.0
H578 H 0.97729 0.99147 0.04651 0.0
C579 C 0.10897 0.07798 1.02591 0.0
C580 C 0.06279 0.075 1.00831 0.0
H581 H 0.14316 0.05567 0.06372 0.0
H582 H 0.14662 0.1013 1.02037 0.0
C583 C 1.01636 1.04218 1.01614 0.0
C584 C 0.12683 0.06286 0.53015 0.0
C585 C 0.08847 0.0518 0.50944 0.0
H586 H 0.1396 0.07192 0.57273 0.0
C587 C 1.03282 1.03647 0.51642 0.0
H588 H 0.1697 0.07482 0.52533 0.0
C589 C 1.01606 1.03291 0.54345 0.0
C590 C 1.05306 0.04865 0.56409 0.0
H591 H 1.00252 1.02615 0.50095 0.0
H592 H 0.97432 1.01694 0.54817 0.0
C593 C 0.10935 0.06179 0.55722 0.0
C594 C 0.49768 0.09233 0.5153 0.0
C595 C 0.54417 0.11121 0.49971 0.0
H596 H 0.46823 0.04906 0.55002 0.0
C597 C 0.5983 0.10418 0.5105 0.0
H598 H 0.45512 0.09603 0.5077 0.0
C599 C 0.60561 0.07713 0.53538 0.0
C600 C 0.55916 0.05519 0.55032 0.0
H601 H 0.63534 0.11597 0.499 0.0
H602 H 0.64839 0.07082 0.54219 0.0
C603 C 0.50503 0.06541 0.5401 0.0
C604 C 0.60313 0.55864 0.53624 0.0
C605 C 0.57595 0.54469 0.56046 0.0
H606 H 0.59685 0.56848 0.49372 0.0
C607 C 0.51756 0.53185 0.55975 0.0
H608 H 0.64743 0.57074 0.53614 0.0
C609 C 0.48819 0.52998 0.53508 0.0
C610 C 0.51572 0.54447 0.51085 0.0
H611 H 0.49491 0.52241 0.57819 0.0
H612 H 0.44498 0.51501 0.53491 0.0
C613 C 0.57372 0.55829 0.51196 0.0
C614 C 0.07177 0.60731 0.5313 0.0
C615 C 0.05944 0.57342 0.55342 0.0
H616 H 0.07856 0.61377 0.48862 0.0
C617 C 1.04072 0.51827 0.54857 0.0
H618 H 0.08261 0.65089 0.5342 0.0
C619 C 1.03635 0.49708 0.52218 0.0
C620 C 1.04932 0.53106 0.50001 0.0
H621 H 1.02854 0.4918 0.56523 0.0
H622 H 1.02379 0.45411 0.51934 0.0
C623 C 0.06763 0.58629 0.5051 0.0
C624 C 0.67325 0.91332 0.13412 0.0
C625 C 0.62686 0.94931 0.13576 0.0
H626 H 0.70289 0.82953 0.13734 0.0
C627 C 0.57605 0.92894 0.14709 0.0
H628 H 0.71219 0.92674 0.12469 0.0
C629 C 0.57063 0.87273 0.1546 0.0
C630 C 0.61554 0.83562 0.1502 0.0
H631 H 0.53909 0.95521 0.14797 0.0
H632 H 0.52967 0.85731 0.16132 0.0
C633 C 0.66762 0.85709 0.14105 0.0
C634 C 0.75619 0.60926 0.15285 0.0
C635 C 0.75932 0.55555 0.16391 0.0
H636 H 0.70457 0.668 0.13252 0.0
C637 C 0.70853 0.52625 0.16913 0.0
H638 H 0.79436 0.63319 0.14871 0.0
C639 C 0.65689 0.54675 0.16015 0.0
C640 C 0.65465 0.5975 0.14634 0.0
H641 H 0.70911 0.48489 0.17772 0.0
H642 H 0.61994 0.51976 0.16128 0.0
C643 C 0.70434 0.62988 0.14404 0.0
C644 C 0.97439 0.72475 0.13676 0.0
C645 C 1.02545 0.74434 0.14772 0.0
H646 H 0.92839 0.65516 0.12086 0.0
C647 C 0.06513 0.705 0.15612 0.0
H648 H 0.94338 0.75407 0.12974 0.0
C649 C 0.0568 0.64786 0.15058 0.0
C650 C 1.00804 0.62875 0.13719 0.0
H651 H 0.10537 0.71884 0.16412 0.0
H652 H 0.09126 0.6195 0.15409 0.0
C653 C 0.96541 0.66758 0.13199 0.0
C654 C 0.88262 0.91982 0.15628 0.0
C655 C 0.86586 0.97423 0.16321 0.0
H656 H 0.94499 0.87027 0.13596 0.0
C657 C 0.90693 1.01698 0.16295 0.0
H658 H 0.85203 0.88587 0.15643 0.0
C659 C 0.96145 1.007 0.15298 0.0
C660 C 0.97556 0.95465 0.14217 0.0
H661 H 0.8956 0.05923 0.1684 0.0
H662 H 0.99031 1.04212 0.15063 0.0
C663 C 0.93646 0.91047 0.14496 0.0
C664 C 0.05627 0.21654 0.40611 0.0
C665 C 0.09901 0.25515 0.41313 0.0
H666 H 1.02599 0.1319 0.40929 0.0
C667 C 0.15003 0.23462 0.42319 0.0
H668 H 1.01621 0.23094 0.39858 0.0
C669 C 0.15636 0.17758 0.42826 0.0
C670 C 0.11144 0.13979 0.42396 0.0
H671 H 0.18377 0.26313 0.42885 0.0
H672 H 0.19413 0.16415 0.43837 0.0
C673 C 0.06204 0.15959 0.41196 0.0
C674 C 0.36358 0.15606 0.39692 0.0
C675 C 0.34298 0.10108 0.39403 0.0
H676 H 0.43171 0.20821 0.411 0.0
C677 C 0.38074 0.05673 0.39712 0.0
H678 H 0.33555 0.19111 0.39473 0.0
C679 C 0.43553 0.06662 0.40625 0.0
C680 C 0.45394 0.121 0.41215 0.0
H681 H 0.36649 1.01392 0.39471 0.0
H682 H 0.46167 1.03133 0.41112 0.0
C683 C 0.41888 0.16595 0.40597 0.0
C684 C 0.54613 0.46915 0.40715 0.0
C685 C 0.49325 0.47302 0.41994 0.0
H686 H 0.60352 0.41809 0.38485 0.0
C687 C 0.4539 0.42916 0.41676 0.0
H688 H 0.57759 0.50187 0.40981 0.0
C689 C 0.4693 0.37997 0.40323 0.0
C690 C 0.52396 0.37437 0.39215 0.0
H691 H 0.41331 0.43059 0.42703 0.0
H692 H 0.43976 0.34513 0.40295 0.0
C693 C 0.56101 0.42076 0.39302 0.0
C694 C 0.15414 0.45402 0.39798 0.0
C695 C 0.13456 0.50082 0.4121 0.0
H696 H 0.22589 0.41485 0.37932 0.0
C697 C 0.16793 0.54988 0.41163 0.0
H698 H 0.12864 0.4167 0.39682 0.0
C699 C 0.22312 0.54935 0.40149 0.0
C700 C 0.24616 0.49979 0.39143 0.0
H701 H 0.15345 0.58747 0.42159 0.0
H702 H 0.24909 0.58663 0.40351 0.0
C703 C 0.20993 0.45324 0.38789 0.0
C704 C 0.5664 0.20896 0.90497 0.0
C705 C 0.51706 0.23826 0.8988 0.0
H706 H 0.60175 0.13324 0.91936 0.0
C707 C 0.46541 0.20866 0.89793 0.0
H708 H 0.60711 0.23017 0.90536 0.0
C709 C 0.46247 0.15266 0.90606 0.0
C710 C 0.5109 0.12523 0.915 0.0
H711 H 0.42662 0.22985 0.89312 0.0
H712 H 0.42167 0.1327 0.90786 0.0
C713 C 0.56341 0.15305 0.91272 0.0
C714 C 0.44053 0.52389 0.91346 0.0
C715 C 0.45393 0.47106 0.92333 0.0
H716 H 0.3781 0.57503 0.89547 0.0
C717 C 0.41698 0.42606 0.91829 0.0
H718 H 0.46777 0.55948 0.91761 0.0
C719 C 0.36491 0.43499 0.90574 0.0
C720 C 0.34906 0.48923 0.89845 0.0
H721 H 0.42559 0.38535 0.92651 0.0
H722 H 0.33507 0.40055 0.90416 0.0
C723 C 0.38881 0.53286 0.90105 0.0
C724 C 0.06694 0.37406 0.89624 0.0
C725 C 0.10352 0.33686 0.90887 0.0
H726 H 1.04286 0.45963 0.89221 0.0
C727 C 0.1534 0.35806 0.9203 0.0
H728 H 1.02783 0.35893 0.88754 0.0
C729 C 0.16302 0.41568 0.92203 0.0
C730 C 0.12209 0.45324 0.91318 0.0
H731 H 0.18229 0.33034 0.93023 0.0
H732 H 0.19839 0.43045 0.93382 0.0
C733 C 0.07593 0.4319 0.89861 0.0
C734 C 0.23845 0.16775 0.90765 0.0
C735 C 0.25069 0.1136 0.8985 0.0
H736 H 0.18227 0.21829 0.93126 0.0
C737 C 0.20838 0.07226 0.90028 0.0
H738 H 0.27051 0.20028 0.90663 0.0
C739 C 0.1563 0.08378 0.9126 0.0
C740 C 0.14619 0.13619 0.92436 0.0
H741 H 0.21676 1.03013 0.89349 0.0
H742 H 0.12615 0.04988 0.91543 0.0
C743 C 0.18733 0.17848 0.92127 0.0
C744 C 0.95987 0.86138 0.63411 0.0
C745 C 1.00566 0.8402 0.64848 0.0
H746 H 0.92107 0.93392 0.61798 0.0
C747 C 1.03891 0.87752 0.66363 0.0
H748 H 0.93339 0.83365 0.6223 0.0
C749 C 1.03159 0.93537 0.66117 0.0
C750 C 0.99044 0.95662 0.64391 0.0
H751 H 0.07476 0.86254 0.67475 0.0
H752 H 0.06282 0.96323 0.66993 0.0
C753 C 0.95213 0.91899 0.63201 0.0
C754 C 0.74663 0.94082 0.64254 0.0
C755 C 0.76597 0.99178 0.65349 0.0
H756 H 0.68227 0.8995 0.61926 0.0
C757 C 0.72918 1.0374 0.65383 0.0
H758 H 0.77424 0.9051 0.64164 0.0
C759 C 0.67626 1.0336 0.64167 0.0
C760 C 0.65876 0.98422 0.62881 0.0
H761 H 0.74268 0.07718 0.66212 0.0
H762 H 0.65066 0.07072 0.64055 0.0
C763 C 0.69365 0.93729 0.62999 0.0
C764 C 0.65618 0.75501 0.63242 0.0
C765 C 0.61874 0.75814 0.65447 0.0
H766 H 0.69667 0.70188 0.60351 0.0
C767 C 0.6052 0.70845 0.66823 0.0
H768 H 0.66813 0.7922 0.62142 0.0
C769 C 0.62268 0.6565 0.65815 0.0
C770 C 0.65378 0.6532 0.63408 0.0
H771 H 0.577 0.70915 0.68548 0.0
H772 H 0.60605 0.61908 0.66744 0.0
C773 C 0.67322 0.70311 0.62229 0.0
C774 C 0.85832 0.66708 0.62643 0.0
C775 C 0.84592 0.62316 0.64413 0.0
H776 H 0.92209 0.70929 0.60334 0.0
C777 C 0.89074 0.59834 0.65786 0.0
H778 H 0.82464 0.68699 0.61558 0.0
C779 C 0.94715 0.61165 0.65092 0.0
C780 C 0.95914 0.64993 0.63029 0.0
H781 H 0.88247 0.56399 0.67141 0.0
H782 H 0.9807 0.5865 0.65897 0.0
C783 C 0.91434 0.68045 0.61966 0.0
C784 C 0.6712 0.2312 0.0564 0.0
C785 C 0.69971 0.27647 0.04427 0.0
H786 H 0.65403 0.14366 0.05514 0.0
C787 C 0.74287 0.26543 1.02529 0.0
H788 H 0.63815 0.23749 0.07126 0.0
C789 C 0.75221 0.21114 1.01642 0.0
C790 C 0.71862 0.16748 1.02627 0.0
H791 H 0.76848 0.29851 1.01667 0.0
H792 H 0.78493 0.20334 1.00165 0.0
C793 C 0.67988 0.17725 0.04709 0.0
C794 C 0.25853 0.57009 0.08404 0.0
C795 C 0.27165 0.52165 0.06927 0.0
H796 H 0.29162 0.63383 0.10987 0.0
C797 C 0.31708 0.48879 0.07768 0.0
H798 H 0.22158 0.59445 0.07959 0.0
C799 C 0.35572 0.51029 0.09607 0.0
C800 C 0.34897 0.56459 0.1059 0.0
H801 H 0.32743 0.45016 0.06749 0.0
H802 H 0.39484 0.48819 0.09917 0.0
C803 C 0.29788 0.59218 0.1019 0.0
C804 C 0.89693 0.30294 1.01107 0.0
C805 C 0.92686 0.27762 0.03187 0.0
H806 H 0.88165 0.37769 0.98936 0.0
C807 C 0.96058 0.31034 0.0489 0.0
H808 H 0.87039 0.27834 0.99779 0.0
C809 C 0.96652 0.36761 0.04414 0.0
C810 C 0.9389 0.39188 1.02235 0.0
H811 H 0.98408 0.29134 0.06492 0.0
H812 H 0.99446 0.3924 0.05666 0.0
C813 C 0.90332 0.35951 1.0062 0.0
C814 C 0.22079 0.18047 0.04207 0.0
C815 C 0.27758 0.16558 0.03859 0.0
H816 H 0.14766 0.17369 0.06754 0.0
C817 C 0.30908 0.15113 0.06122 0.0
H818 H 0.19602 0.1931 1.02502 0.0
C819 C 0.28175 0.1406 0.0856 0.0
C820 C 0.22256 0.14373 0.08745 0.0
H821 H 0.35354 0.14122 0.05921 0.0
H822 H 0.30567 0.12194 0.10159 0.0
C823 C 0.19322 0.16971 0.06657 0.0
C824 C 0.15401 0.76973 0.50339 0.0
C825 C 0.18739 0.75588 0.52525 0.0
H826 H 0.11355 0.8343 0.48209 0.0
C827 C 0.20439 0.79755 0.54352 0.0
H828 H 0.13939 0.73795 0.48946 0.0
C829 C 0.18997 0.85288 0.53938 0.0
C830 C 0.15731 0.867 0.5172 0.0
H831 H 0.22937 0.78741 0.56085 0.0
H832 H 0.20538 0.88461 0.55313 0.0
C833 C 0.1384 0.82476 0.49957 0.0
C834 C 0.80964 0.06732 0.48101 0.0
C835 C 0.84442 0.10173 0.49692 0.0
H836 H 0.73555 0.06365 0.45675 0.0
C837 C 0.84325 0.15992 0.4932 0.0
H838 H 0.81071 1.02235 0.48287 0.0
C839 C 0.79985 0.18321 0.47869 0.0
C840 C 0.75888 0.14855 0.46717 0.0
H841 H 0.86996 0.18832 0.50441 0.0
H842 H 0.79502 0.22812 0.47882 0.0
C843 C 0.7666 0.09082 0.46613 0.0
C844 C 0.34251 0.72993 0.54643 0.0
C845 C 0.37377 0.68724 0.53436 0.0
H846 H 0.32717 0.817 0.5488 0.0
C847 C 0.412 0.69977 0.5136 0.0
H848 H 0.31253 0.72078 0.56242 0.0
C849 C 0.42128 0.75486 0.50598 0.0
C850 C 0.39325 0.79859 0.51938 0.0
H851 H 0.43693 0.66728 0.50421 0.0
H852 H 0.45368 0.7631 0.49097 0.0
C853 C 0.35136 0.7851 0.53867 0.0
C854 C 0.75778 0.39297 0.52176 0.0
C855 C 0.7119 0.42597 0.51441 0.0
H856 H 0.84741 0.3855 0.52375 0.0
C857 C 0.72201 0.4768 0.50143 0.0
H858 H 0.75074 0.35411 0.53235 0.0
C859 C 0.77749 0.49575 0.49709 0.0
C860 C 0.82361 0.46385 0.50554 0.0
H861 H 0.68716 0.50341 0.49619 0.0
H862 H 0.78418 0.53565 0.48744 0.0
C863 C 0.81304 0.41171 0.51743 0.0
C864 C 0.3601 0.86511 0.03216 0.0
C865 C 0.39442 0.90812 1.02205 0.0
H866 H 0.34731 0.77724 0.03499 0.0
C867 C 0.43514 0.8964 1.00229 0.0
H868 H 0.3268 0.87384 0.04661 0.0
C869 C 0.44784 0.8413 0.99606 0.0
C870 C 0.42092 0.79773 1.0102 0.0
H871 H 0.4614 0.92934 0.99388 0.0
H872 H 0.48424 0.83365 0.98325 0.0
C873 C 0.37205 0.80995 1.02547 0.0
C874 C 0.69788 0.60955 0.98894 0.0
C875 C 0.72214 0.57243 0.97032 0.0
H876 H 0.70902 0.65006 1.02688 0.0
C877 C 0.78093 0.56757 0.96894 0.0
H878 H 0.65245 0.61479 0.98988 0.0
C879 C 0.8138 0.59036 0.98934 0.0
C880 C 0.7872 0.61458 1.01191 0.0
H881 H 0.80048 0.53997 0.95436 0.0
H882 H 0.85855 0.5811 0.98948 0.0
C883 C 0.73031 0.62988 1.01017 0.0
C884 C 0.11426 0.79451 0.97541 0.0
C885 C 0.10678 0.75014 0.99343 0.0
H886 H 0.139 0.87996 0.97074 0.0
C887 C 0.10547 0.76076 1.021 0.0
H888 H 0.11508 0.78733 0.95393 0.0
C889 C 0.12001 0.81326 0.03058 0.0
C890 C 0.13509 0.85633 1.01263 0.0
H891 H 0.09919 0.72713 0.0352 0.0
H892 H 0.12466 0.81748 0.05204 0.0
C893 C 0.12869 0.84738 0.985 0.0
C894 C 0.91894 0.90438 1.01751 0.0
C895 C 0.86061 0.91401 1.01914 0.0
H896 H 0.9939 0.9184 0.99413 0.0
C897 C 0.83032 0.92131 0.99534 0.0
H898 H 0.94295 0.89657 0.03548 0.0
C899 C 0.85942 0.93299 0.97155 0.0
C900 C 0.91854 0.93865 0.97192 0.0
H901 H 0.78485 0.92652 0.99596 0.0
H902 H 0.83569 0.94834 0.95469 0.0
C903 C 0.94811 0.91623 0.99362 0.0
C904 C 0.08888 0.28956 0.55973 0.0
C905 C 0.10263 0.23306 0.56006 0.0
H906 H 0.06469 0.35676 0.53515 0.0
C907 C 0.12813 0.20949 0.53729 0.0
H908 H 0.07081 0.30938 0.57738 0.0
C909 C 0.1229 0.23548 0.51254 0.0
C910 C 0.094 0.28606 0.51119 0.0
H911 H 0.14351 0.16762 0.53785 0.0
H912 H 0.133 0.21214 0.49446 0.0
C913 C 0.08493 0.31652 0.53515 0.0
C914 C 0.29742 0.12806 0.56928 0.0
C915 C 0.32678 0.1475 0.54646 0.0
H916 H 0.30682 0.08913 0.60735 0.0
C917 C 0.38235 0.1677 0.54933 0.0
H918 H 0.25336 0.11544 0.56809 0.0
C919 C 0.41219 0.15492 0.57247 0.0
C920 C 0.38666 0.12028 0.59179 0.0
H921 H 0.40542 0.18496 0.53236 0.0
H922 H 0.45759 0.16167 0.57235 0.0
C923 C 0.32766 0.11419 0.59208 0.0
C924 C 0.5761 0.31338 0.60327 0.0
C925 C 0.52697 0.33293 0.61588 0.0
H926 H 0.6119 0.27722 0.56812 0.0
C927 C 0.47404 0.31709 0.60592 0.0
H928 H 0.61721 0.32306 0.61146 0.0
C929 C 0.47044 0.28992 0.58123 0.0
C930 C 0.51978 0.27849 0.56623 0.0
H931 H 0.43547 0.33056 0.6158 0.0
H932 H 0.42889 0.28311 0.57277 0.0
C933 C 0.5727 0.28603 0.57856 0.0
C934 C 0.29188 0.43333 0.57938 0.0
C935 C 0.23618 0.44958 0.58521 0.0
H936 H 0.35034 0.41158 0.54818 0.0
C937 C 0.19322 0.43319 0.56728 0.0
H938 H 0.32574 0.44241 0.59327 0.0
C939 C 0.20759 0.41741 0.54107 0.0
C940 C 0.26476 0.41696 0.5332 0.0
H941 H 0.14927 0.44217 0.57169 0.0
H942 H 0.17439 0.41578 0.52625 0.0
C943 C 0.30598 0.41575 0.55341 0.0
C944 C 0.65137 0.08668 0.28345 0.0
C945 C 0.61761 0.12602 0.29715 0.0
H946 H 0.68132 0.0549 0.24579 0.0
C947 C 0.59214 0.1681 0.28216 0.0
H948 H 0.67207 0.0538 0.29431 0.0
C949 C 0.59794 0.16893 0.25415 0.0
C950 C 0.62946 0.12792 0.24035 0.0
H951 H 0.56544 0.19878 0.29181 0.0
H952 H 0.57611 0.20096 0.24321 0.0
C953 C 0.65727 0.08758 0.25548 0.0
C954 C 0.45725 0.58054 0.30451 0.0
C955 C 0.48677 0.62368 0.31769 0.0
H956 H 0.43819 0.54037 0.26724 0.0
C957 C 0.51745 0.66251 0.30195 0.0
H958 H 0.4339 0.54922 0.31572 0.0
C959 C 0.52017 0.65728 0.27392 0.0
C960 C 0.49255 0.61274 0.2609 0.0
H961 H 0.54065 0.69643 0.31135 0.0
H962 H 0.54608 0.6866 0.26268 0.0
C963 C 0.4602 0.57517 0.27656 0.0
C964 C 1.02331 0.42952 0.28783 0.0
C965 C 0.99514 0.47488 0.29958 0.0
H966 H 1.04684 0.38758 0.25149 0.0
C967 C 0.96559 0.5114 0.28287 0.0
H968 H 1.04715 0.40094 0.29993 0.0
C969 C 0.96586 0.50418 0.25509 0.0
C970 C 0.99559 0.45998 0.24319 0.0
H971 H 0.94311 0.5467 0.29122 0.0
H972 H 0.94472 0.53486 0.24306 0.0
C973 C 1.02354 0.42222 0.25995 0.0
C974 C 0.1621 1.01386 0.29899 0.0
C975 C 0.11979 0.98046 0.31094 0.0
H976 H 0.20069 1.04232 0.26253 0.0
C977 C 0.0853 0.94708 0.29431 0.0
H978 H 0.18884 1.04087 0.31098 0.0
C979 C 0.09185 0.94816 0.26641 0.0
C980 C 0.13298 0.9829 0.25443 0.0
H981 H 1.05231 0.92077 0.30285 0.0
H982 H 0.06304 0.92351 0.25432 0.0
C983 C 0.1685 1.01509 0.27109 0.0
C984 C 0.45676 1.02019 0.76234 0.0
C985 C 0.48605 0.97985 0.74691 0.0
H986 H 0.43145 0.04922 0.80146 0.0
C987 C 0.50726 0.93331 0.76031 0.0
H988 H 0.43939 0.05659 0.75282 0.0
C989 C 0.50241 0.92911 0.78836 0.0
C990 C 0.47599 0.97107 0.80394 0.0
H991 H 0.53046 0.90159 0.74945 0.0
H992 H 0.52143 0.89364 0.79797 0.0
C993 C 0.45165 1.01584 0.79039 0.0
C994 C 0.59319 0.43065 0.79781 0.0
C995 C 0.62407 0.471 0.81214 0.0
H996 H 0.56734 0.40147 0.75906 0.0
C997 C 0.66086 0.50715 0.79802 0.0
H998 H 0.56409 0.4027 0.80812 0.0
C999 C 0.66335 0.50601 0.76998 0.0
C1000 C 0.62825 0.46933 0.75555 0.0
H1001 H 0.68514 0.53869 0.80865 0.0
H1002 H 0.68894 0.53707 0.75966 0.0
C1003 C 0.59489 0.43018 0.76973 0.0
C1004 C 0.10328 0.65679 0.78635 0.0
C1005 C 0.13564 0.62158 0.8025 0.0
H1006 H 0.07977 0.68032 0.74691 0.0
C1007 C 0.17472 0.58589 0.79005 0.0
H1008 H 0.07292 0.68506 0.79527 0.0
C1009 C 0.17925 0.5837 0.76206 0.0
C1010 C 0.14493 0.61712 0.74588 0.0
H1011 H 0.19984 0.55764 0.80173 0.0
H1012 H 0.20855 0.55445 0.75308 0.0
C1013 C 0.10772 0.65456 0.75844 0.0
C1014 C 1.01077 0.14442 0.8034 0.0
C1015 C 0.9728 0.1061 0.81516 0.0
H1016 H 1.04627 0.17758 0.7674 0.0
C1017 C 0.93905 0.07243 0.7983 0.0
H1018 H 1.03862 0.17021 0.81541 0.0
C1019 C 0.94428 0.07599 0.77037 0.0
C1020 C 0.98348 0.11332 0.75876 0.0
H1021 H 0.90934 1.04241 0.80669 0.0
H1022 H 0.91931 0.04795 0.75805 0.0
C1023 C 1.01576 0.14813 0.77564 0.0
C1024 C 0.83507 0.3103 0.08165 0.0
C1025 C 0.84595 0.33915 0.10576 0.0
H1026 H 0.80956 0.23404 0.06266 0.0
C1027 C 0.83157 0.3115 0.12989 0.0
H1028 H 0.84353 0.33006 0.06258 0.0
C1029 C 0.80752 0.25698 0.12965 0.0
C1030 C 0.79854 0.22771 0.1053 0.0
H1031 H 0.83868 0.332 0.14899 0.0
H1032 H 0.79664 0.23755 0.14858 0.0
C1033 C 0.81381 0.25535 0.08155 0.0
C1034 C 0.34038 0.76894 0.14809 0.0
C1035 C 0.38514 0.77897 0.12978 0.0
H1036 H 0.25721 0.79201 0.16191 0.0
C1037 C 0.37893 0.82239 0.11117 0.0
H1038 H 0.34334 0.73575 0.16263 0.0
C1039 C 0.32991 0.85477 0.11088 0.0
C1040 C 0.28482 0.84469 0.12899 0.0
H1041 H 0.41213 0.83159 0.09667 0.0
H1042 H 0.32737 0.8878 0.09624 0.0
C1043 C 0.29082 0.8012 0.14764 0.0
C1044 C 0.29425 0.766 0.47106 0.0
C1045 C 0.30906 0.7359 0.44777 0.0
H1046 H 0.26512 0.84245 0.48841 0.0
C1047 C 0.30016 0.76226 0.42284 0.0
H1048 H 0.29889 0.74732 0.49057 0.0
C1049 C 0.27768 0.81681 0.42146 0.0
C1050 C 0.265 0.84743 0.44498 0.0
H1051 H 0.31063 0.74076 0.40432 0.0
H1052 H 0.27154 0.83546 0.40199 0.0
C1053 C 0.27412 0.82088 0.46974 0.0
C1054 C 0.8155 0.3276 0.40289 0.0
C1055 C 0.82418 0.37379 0.42006 0.0
H1056 H 0.7589 0.26199 0.38993 0.0
C1057 C 0.77832 0.39063 0.4364 0.0
H1058 H 0.84968 0.31283 0.3902 0.0
C1059 C 0.7266 0.36126 0.43648 0.0
C1060 C 0.7184 0.31394 0.42006 0.0
H1061 H 0.78283 0.42591 0.44985 0.0
H1062 H 0.69329 0.37519 0.44992 0.0
C1063 C 0.76335 0.29818 0.40286 0.0
C1064 C 0.31853 0.82838 0.91934 0.0
C1065 C 0.32027 0.85943 0.94356 0.0
H1066 H 0.29363 0.75202 0.8993 0.0
C1067 C 0.29586 0.83447 0.9665 0.0
H1068 H 0.33632 0.84583 0.90109 0.0
C1069 C 0.27261 0.7801 0.96557 0.0
C1070 C 0.2713 0.74884 0.94147 0.0
H1071 H 0.29471 0.85696 0.98535 0.0
H1072 H 0.25476 0.76278 0.98386 0.0
C1073 C 0.29394 0.77431 0.91826 0.0
C1074 C 0.83732 0.29958 0.92478 0.0
C1075 C 0.83639 0.24588 0.93631 0.0
H1076 H 0.79136 0.37485 0.91666 0.0
C1077 C 0.78477 0.22682 0.94745 0.0
H1078 H 0.87594 0.31592 0.91582 0.0
C1079 C 0.73693 0.26113 0.94861 0.0
C1080 C 0.73811 0.31513 0.93767 0.0
H1081 H 0.78142 0.18527 0.9557 0.0
H1082 H 0.69871 0.2452 0.95813 0.0
C1083 C 0.78871 0.33348 0.92521 0.0
C1084 C 0.79057 0.32505 0.60472 0.0
C1085 C 0.77814 0.35288 0.62899 0.0
H1086 H 0.83561 0.25965 0.58457 0.0
C1087 C 0.80406 0.3331 0.65247 0.0
H1088 H 0.77157 0.33866 0.58621 0.0
C1089 C 0.83994 0.28601 0.65168 0.0
C1090 C 0.85254 0.25854 0.62724 0.0
H1091 H 0.79523 0.35297 0.6716 0.0
H1092 H 0.85807 0.27134 0.67018 0.0
C1093 C 0.82763 0.27951 0.60379 0.0
C1094 C 0.33057 0.73053 0.63006 0.0
C1095 C 0.27531 0.74827 0.62416 0.0
H1096 H 0.4188 0.7533 0.63441 0.0
C1097 C 0.26847 0.8048 0.61748 0.0
H1098 H 0.33779 0.68741 0.63523 0.0
C1099 C 0.31497 0.84198 0.61623 0.0
C1100 C 0.37003 0.82481 0.62262 0.0
H1101 H 0.22698 0.82024 0.61256 0.0
H1102 H 0.30764 0.8847 0.61036 0.0
C1103 C 0.37707 0.76846 0.62977 0.0
loop_
_geom_bond_atom_site_label_1
_geom_bond_atom_site_label_2
_geom_bond_distance
_geom_bond_site_symmetry_2
_ccdc_geom_bond_type
Zn0 N4 2.020 . S
Zn0 O8 2.019 . S
Zn0 N10 2.119 . S
Zn0 O18 1.975 . S
C1 N2 1.334 . S
C1 N5 1.336 1_565 S
N2 C1 1.334 . S
N2 C3 1.334 1_565 S
C3 N2 1.334 1_545 S
C3 N4 1.336 . S
N4 Zn0 2.020 . S
N4 C3 1.336 . S
N4 N5 1.354 . S
N5 C1 1.336 1_545 S
N5 N4 1.354 . S
N5 Zn9 2.020 . S
C6 O7 1.244 . S
C6 O30 1.257 1_565 S
O7 C6 1.244 . S
O8 Zn0 2.019 . S
O8 C28 1.257 . S
Zn9 N5 2.020 . S
Zn9 O16 1.975 . S
Zn9 N25 2.119 . S
Zn9 O30 2.019 . S
N10 Zn0 2.119 . S
N10 C12 1.334 . S
N10 C13 1.328 . S
C11 C12 1.391 . S
C11 N14 1.329 . S
C11 H32 0.930 . S
C12 N10 1.334 . S
C12 C11 1.391 . S
C12 H19 0.930 . S
C13 N10 1.328 . S
C13 C15 1.392 . S
C13 H20 0.930 . S
N14 C11 1.329 . S
N14 C15 1.331 . S
C15 C13 1.392 . S
C15 N14 1.331 . S
O16 Zn9 1.975 . S
O16 C17 1.252 . S
C17 O16 1.252 . S
C17 O18 1.252 . S
O18 Zn0 1.975 . S
O18 C17 1.252 . S
H19 C12 0.930 . S
H20 C13 0.930 . S
C21 C22 1.392 . S
C21 N25 1.328 . S
C21 H27 0.930 . S
C22 C21 1.392 . S
C22 N26 1.331 . S
C23 C24 1.391 . S
C23 N26 1.329 . S
C23 H33 0.930 . S
C24 C23 1.391 . S
C24 N25 1.334 . S
C24 H31 0.930 . S
N25 Zn9 2.119 . S
N25 C21 1.328 . S
N25 C24 1.334 . S
N26 C22 1.331 . S
N26 C23 1.329 . S
H27 C21 0.930 . S
C28 O8 1.257 . S
C28 O29 1.244 . S
O29 C28 1.244 . S
O30 C6 1.257 1_545 S
O30 Zn9 2.019 . S
H31 C24 0.930 . S
H32 C11 0.930 . S
H33 C23 0.930 . S
Zn34 N38 2.020 . S
Zn34 O42 2.019 . S
Zn34 N44 2.119 . S
Zn34 O52 1.975 . S
C35 N36 1.334 . S
C35 N39 1.336 . S
N36 C35 1.334 . S
N36 C37 1.334 . S
C37 N36 1.334 . S
C37 N38 1.336 . S
N38 Zn34 2.020 . S
N38 C37 1.336 . S
N38 N39 1.354 . S
N39 C35 1.336 . S
N39 N38 1.354 . S
N39 Zn43 2.020 . S
C40 O41 1.244 . S
C40 O64 1.257 . S
O41 C40 1.244 . S
O42 Zn34 2.019 . S
O42 C62 1.257 . S
Zn43 N39 2.020 . S
Zn43 O50 1.975 . S
Zn43 N59 2.119 . S
Zn43 O64 2.019 . S
N44 Zn34 2.119 . S
N44 C46 1.334 . S
N44 C47 1.328 . S
C45 C46 1.391 . S
C45 N48 1.329 . S
C45 H66 0.930 . S
C46 N44 1.334 . S
C46 C45 1.391 . S
C46 H53 0.930 . S
C47 N44 1.328 . S
C47 C49 1.392 . S
C47 H54 0.930 . S
N48 C45 1.329 . S
N48 C49 1.331 . S
C49 C47 1.392 . S
C49 N48 1.331 . S
O50 Zn43 1.975 . S
O50 C51 1.252 . S
C51 O50 1.252 . S
C51 O52 1.252 . S
O52 Zn34 1.975 . S
O52 C51 1.252 . S
H53 C46 0.930 . S
H54 C47 0.930 . S
C55 C56 1.392 . S
C55 N59 1.328 . S
C55 H61 0.930 . S
C56 C55 1.392 . S
C56 N60 1.331 . S
C57 C58 1.391 . S
C57 N60 1.329 . S
C57 H67 0.930 . S
C58 C57 1.391 . S
C58 N59 1.334 . S
C58 H65 0.930 . S
N59 Zn43 2.119 . S
N59 C55 1.328 . S
N59 C58 1.334 . S
N60 C56 1.331 . S
N60 C57 1.329 . S
H61 C55 0.930 . S
C62 O42 1.257 . S
C62 O63 1.244 . S
O63 C62 1.244 . S
O64 C40 1.257 . S
O64 Zn43 2.019 . S
H65 C58 0.930 . S
H66 C45 0.930 . S
H67 C57 0.930 . S
Zn68 N72 2.020 . S
Zn68 O76 2.019 . S
Zn68 N78 2.119 . S
Zn68 O86 1.975 . S
C69 N70 1.334 . S
C69 N73 1.336 . S
N70 C69 1.334 . S
N70 C71 1.334 . S
C71 N70 1.334 . S
C71 N72 1.336 . S
N72 Zn68 2.020 . S
N72 C71 1.336 . S
N72 N73 1.354 . S
N73 C69 1.336 . S
N73 N72 1.354 . S
N73 Zn77 2.020 . S
C74 O75 1.244 . S
C74 O98 1.257 . S
O75 C74 1.244 . S
O76 Zn68 2.019 . S
O76 C96 1.257 . S
Zn77 N73 2.020 . S
Zn77 O84 1.975 . S
Zn77 N93 2.119 . S
Zn77 O98 2.019 . S
N78 Zn68 2.119 . S
N78 C80 1.334 . S
N78 C81 1.328 . S
C79 C80 1.391 . S
C79 N82 1.329 . S
C79 H100 0.930 . S
C80 N78 1.334 . S
C80 C79 1.391 . S
C80 H87 0.930 . S
C81 N78 1.328 . S
C81 C83 1.392 . S
C81 H88 0.930 . S
N82 C79 1.329 . S
N82 C83 1.331 . S
C83 C81 1.392 . S
C83 N82 1.331 . S
O84 Zn77 1.975 . S
O84 C85 1.252 . S
C85 O84 1.252 . S
C85 O86 1.252 . S
O86 Zn68 1.975 . S
O86 C85 1.252 . S
H87 C80 0.930 . S
H88 C81 0.930 . S
C89 C90 1.392 . S
C89 N93 1.328 . S
C89 H95 0.930 . S
C90 C89 1.392 . S
C90 N94 1.331 . S
C91 C92 1.391 . S
C91 N94 1.329 . S
C91 H101 0.930 . S
C92 C91 1.391 . S
C92 N93 1.334 . S
C92 H99 0.930 . S
N93 Zn77 2.119 . S
N93 C89 1.328 . S
N93 C92 1.334 . S
N94 C90 1.331 . S
N94 C91 1.329 . S
H95 C89 0.930 . S
C96 O76 1.257 . S
C96 O97 1.244 . S
O97 C96 1.244 . S
O98 C74 1.257 . S
O98 Zn77 2.019 . S
H99 C92 0.930 . S
H100 C79 0.930 . S
H101 C91 0.930 . S
Zn102 N106 2.020 . S
Zn102 O110 2.019 . S
Zn102 N112 2.119 . S
Zn102 O120 1.975 . S
C103 N104 1.334 1_455 S
C103 N107 1.336 . S
N104 C103 1.334 1_655 S
N104 C105 1.334 . S
C105 N104 1.334 . S
C105 N106 1.336 1_655 S
N106 Zn102 2.020 . S
N106 C105 1.336 1_455 S
N106 N107 1.354 . S
N107 C103 1.336 . S
N107 N106 1.354 . S
N107 Zn111 2.020 . S
C108 O109 1.244 . S
C108 O132 1.257 . S
O109 C108 1.244 . S
O110 Zn102 2.019 . S
O110 C130 1.257 1_455 S
Zn111 N107 2.020 . S
Zn111 O118 1.975 . S
Zn111 N127 2.119 . S
Zn111 O132 2.019 . S
N112 Zn102 2.119 . S
N112 C114 1.334 . S
N112 C115 1.328 . S
C113 C114 1.391 . S
C113 N116 1.329 . S
C113 H134 0.930 . S
C114 N112 1.334 . S
C114 C113 1.391 . S
C114 H121 0.930 . S
C115 N112 1.328 . S
C115 C117 1.392 . S
C115 H122 0.930 . S
N116 C113 1.329 . S
N116 C117 1.331 . S
C117 C115 1.392 . S
C117 N116 1.331 . S
O118 Zn111 1.975 . S
O118 C119 1.252 . S
C119 O118 1.252 . S
C119 O120 1.252 . S
O120 Zn102 1.975 . S
O120 C119 1.252 . S
H121 C114 0.930 . S
H122 C115 0.930 . S
C123 C124 1.392 . S
C123 N127 1.328 . S
C123 H129 0.930 . S
C124 C123 1.392 . S
C124 N128 1.331 . S
C125 C126 1.391 . S
C125 N128 1.329 . S
C125 H135 0.930 . S
C126 C125 1.391 . S
C126 N127 1.334 . S
C126 H133 0.930 . S
N127 Zn111 2.119 . S
N127 C123 1.328 . S
N127 C126 1.334 . S
N128 C124 1.331 . S
N128 C125 1.329 . S
H129 C123 0.930 . S
C130 O110 1.257 1_655 S
C130 O131 1.244 . S
O131 C130 1.244 . S
O132 C108 1.257 . S
O132 Zn111 2.019 . S
H133 C126 0.930 . S
H134 C113 0.930 . S
H135 C125 0.930 . S
Zn136 N140 2.020 . S
Zn136 O144 2.019 . S
Zn136 N146 2.119 . S
Zn136 O154 1.975 . S
C137 N138 1.334 1_565 S
C137 N141 1.336 . S
N138 C137 1.334 1_545 S
N138 C139 1.334 . S
C139 N138 1.334 . S
C139 N140 1.336 1_545 S
N140 Zn136 2.020 . S
N140 C139 1.336 1_565 S
N140 N141 1.354 . S
N141 C137 1.336 . S
N141 N140 1.354 . S
N141 Zn145 2.020 . S
C142 O143 1.244 . S
C142 O166 1.257 . S
O143 C142 1.244 . S
O144 Zn136 2.019 . S
O144 C164 1.257 1_565 S
Zn145 N141 2.020 . S
Zn145 O152 1.975 . S
Zn145 N161 2.119 . S
Zn145 O166 2.019 . S
N146 Zn136 2.119 . S
N146 C148 1.334 . S
N146 C149 1.328 . S
C147 C148 1.391 . S
C147 N150 1.329 . S
C147 H168 0.930 . S
C148 N146 1.334 . S
C148 C147 1.391 . S
C148 H155 0.930 . S
C149 N146 1.328 . S
C149 C151 1.392 . S
C149 H156 0.930 . S
N150 C147 1.329 . S
N150 C151 1.331 . S
C151 C149 1.392 . S
C151 N150 1.331 . S
O152 Zn145 1.975 . S
O152 C153 1.252 . S
C153 O152 1.252 . S
C153 O154 1.252 . S
O154 Zn136 1.975 . S
O154 C153 1.252 . S
H155 C148 0.930 . S
H156 C149 0.930 . S
C157 C158 1.392 . S
C157 N161 1.328 . S
C157 H163 0.930 . S
C158 C157 1.392 . S
C158 N162 1.331 . S
C159 C160 1.391 . S
C159 N162 1.329 . S
C159 H169 0.930 . S
C160 C159 1.391 . S
C160 N161 1.334 . S
C160 H167 0.930 . S
N161 Zn145 2.119 . S
N161 C157 1.328 . S
N161 C160 1.334 . S
N162 C158 1.331 . S
N162 C159 1.329 . S
H163 C157 0.930 . S
C164 O144 1.257 1_545 S
C164 O165 1.244 . S
O165 C164 1.244 . S
O166 C142 1.257 . S
O166 Zn145 2.019 . S
H167 C160 0.930 . S
H168 C147 0.930 . S
H169 C159 0.930 . S
Zn170 N174 2.020 . S
Zn170 O178 2.019 . S
Zn170 N180 2.119 . S
Zn170 O188 1.975 . S
C171 N172 1.334 . S
C171 N175 1.336 . S
N172 C171 1.334 . S
N172 C173 1.334 . S
C173 N172 1.334 . S
C173 N174 1.336 . S
N174 Zn170 2.020 . S
N174 C173 1.336 . S
N174 N175 1.354 . S
N175 C171 1.336 . S
N175 N174 1.354 . S
N175 Zn179 2.020 . S
C176 O177 1.244 . S
C176 O200 1.257 . S
O177 C176 1.244 . S
O178 Zn170 2.019 . S
O178 C198 1.257 . S
Zn179 N175 2.020 . S
Zn179 O186 1.975 . S
Zn179 N195 2.119 . S
Zn179 O200 2.019 . S
N180 Zn170 2.119 . S
N180 C182 1.334 . S
N180 C183 1.328 . S
C181 C182 1.391 . S
C181 N184 1.329 . S
C181 H202 0.930 . S
C182 N180 1.334 . S
C182 C181 1.391 . S
C182 H189 0.930 . S
C183 N180 1.328 . S
C183 C185 1.392 . S
C183 H190 0.930 . S
N184 C181 1.329 . S
N184 C185 1.331 . S
C185 C183 1.392 . S
C185 N184 1.331 . S
O186 Zn179 1.975 . S
O186 C187 1.252 . S
C187 O186 1.252 . S
C187 O188 1.252 . S
O188 Zn170 1.975 . S
O188 C187 1.252 . S
H189 C182 0.930 . S
H190 C183 0.930 . S
C191 C192 1.392 . S
C191 N195 1.328 . S
C191 H197 0.930 . S
C192 C191 1.392 . S
C192 N196 1.331 . S
C193 C194 1.391 . S
C193 N196 1.329 . S
C193 H203 0.930 . S
C194 C193 1.391 . S
C194 N195 1.334 . S
C194 H201 0.930 . S
N195 Zn179 2.119 . S
N195 C191 1.328 . S
N195 C194 1.334 . S
N196 C192 1.331 . S
N196 C193 1.329 . S
H197 C191 0.930 . S
C198 O178 1.257 . S
C198 O199 1.244 . S
O199 C198 1.244 . S
O200 C176 1.257 . S
O200 Zn179 2.019 . S
H201 C194 0.930 . S
H202 C181 0.930 . S
H203 C193 0.930 . S
Zn204 N208 2.020 . S
Zn204 O212 2.019 . S
Zn204 N214 2.119 . S
Zn204 O222 1.975 . S
C205 N206 1.334 . S
C205 N209 1.336 . S
N206 C205 1.334 . S
N206 C207 1.334 . S
C207 N206 1.334 . S
C207 N208 1.336 . S
N208 Zn204 2.020 . S
N208 C207 1.336 . S
N208 N209 1.354 . S
N209 C205 1.336 . S
N209 N208 1.354 . S
N209 Zn213 2.020 . S
C210 O211 1.244 . S
C210 O234 1.257 . S
O211 C210 1.244 . S
O212 Zn204 2.019 . S
O212 C232 1.257 . S
Zn213 N209 2.020 . S
Zn213 O220 1.975 . S
Zn213 N229 2.119 . S
Zn213 O234 2.019 . S
N214 Zn204 2.119 . S
N214 C216 1.334 . S
N214 C217 1.328 . S
C215 C216 1.391 . S
C215 N218 1.329 . S
C215 H236 0.930 . S
C216 N214 1.334 . S
C216 C215 1.391 . S
C216 H223 0.930 . S
C217 N214 1.328 . S
C217 C219 1.392 . S
C217 H224 0.930 . S
N218 C215 1.329 . S
N218 C219 1.331 . S
C219 C217 1.392 . S
C219 N218 1.331 . S
O220 Zn213 1.975 . S
O220 C221 1.252 . S
C221 O220 1.252 . S
C221 O222 1.252 . S
O222 Zn204 1.975 . S
O222 C221 1.252 . S
H223 C216 0.930 . S
H224 C217 0.930 . S
C225 C226 1.392 . S
C225 N229 1.328 . S
C225 H231 0.930 . S
C226 C225 1.392 . S
C226 N230 1.331 . S
C227 C228 1.391 . S
C227 N230 1.329 . S
C227 H237 0.930 . S
C228 C227 1.391 . S
C228 N229 1.334 . S
C228 H235 0.930 . S
N229 Zn213 2.119 . S
N229 C225 1.328 . S
N229 C228 1.334 . S
N230 C226 1.331 . S
N230 C227 1.329 . S
H231 C225 0.930 . S
C232 O212 1.257 . S
C232 O233 1.244 . S
O233 C232 1.244 . S
O234 C210 1.257 . S
O234 Zn213 2.019 . S
H235 C228 0.930 . S
H236 C215 0.930 . S
H237 C227 0.930 . S
Zn238 N242 2.020 . S
Zn238 O246 2.019 . S
Zn238 N248 2.119 . S
Zn238 O256 1.975 . S
C239 N240 1.334 . S
C239 N243 1.336 1_455 S
N240 C239 1.334 . S
N240 C241 1.334 1_455 S
C241 N240 1.334 1_655 S
C241 N242 1.336 . S
N242 Zn238 2.020 . S
N242 C241 1.336 . S
N242 N243 1.354 . S
N243 C239 1.336 1_655 S
N243 N242 1.354 . S
N243 Zn247 2.020 . S
C244 O245 1.244 . S
C244 O268 1.257 1_455 S
O245 C244 1.244 . S
O246 Zn238 2.019 . S
O246 C266 1.257 . S
Zn247 N243 2.020 . S
Zn247 O254 1.975 . S
Zn247 N263 2.119 . S
Zn247 O268 2.019 . S
N248 Zn238 2.119 . S
N248 C250 1.334 . S
N248 C251 1.328 . S
C249 C250 1.391 . S
C249 N252 1.329 . S
C249 H270 0.930 . S
C250 N248 1.334 . S
C250 C249 1.391 . S
C250 H257 0.930 . S
C251 N248 1.328 . S
C251 C253 1.392 . S
C251 H258 0.930 . S
N252 C249 1.329 . S
N252 C253 1.331 . S
C253 C251 1.392 . S
C253 N252 1.331 . S
O254 Zn247 1.975 . S
O254 C255 1.252 . S
C255 O254 1.252 . S
C255 O256 1.252 . S
O256 Zn238 1.975 . S
O256 C255 1.252 . S
H257 C250 0.930 . S
H258 C251 0.930 . S
C259 C260 1.392 . S
C259 N263 1.328 . S
C259 H265 0.930 . S
C260 C259 1.392 . S
C260 N264 1.331 . S
C261 C262 1.391 . S
C261 N264 1.329 . S
C261 H271 0.930 . S
C262 C261 1.391 . S
C262 N263 1.334 . S
C262 H269 0.930 . S
N263 Zn247 2.119 . S
N263 C259 1.328 . S
N263 C262 1.334 . S
N264 C260 1.331 . S
N264 C261 1.329 . S
H265 C259 0.930 . S
C266 O246 1.257 . S
C266 O267 1.244 . S
O267 C266 1.244 . S
O268 C244 1.257 1_655 S
O268 Zn247 2.019 . S
H269 C262 0.930 . S
H270 C249 0.930 . S
H271 C261 0.930 . S
Zn272 N276 2.020 . S
Zn272 O280 2.019 . S
Zn272 N282 2.119 . S
Zn272 O290 1.975 . S
C273 N274 1.334 . S
C273 N277 1.336 1_545 S
N274 C273 1.334 . S
N274 C275 1.334 1_545 S
C275 N274 1.334 1_565 S
C275 N276 1.336 . S
N276 Zn272 2.020 . S
N276 C275 1.336 . S
N276 N277 1.354 . S
N277 C273 1.336 1_565 S
N277 N276 1.354 . S
N277 Zn281 2.020 . S
C278 O279 1.244 . S
C278 O302 1.257 1_545 S
O279 C278 1.244 . S
O280 Zn272 2.019 . S
O280 C300 1.257 . S
Zn281 N277 2.020 . S
Zn281 O288 1.975 . S
Zn281 N297 2.119 . S
Zn281 O302 2.019 . S
N282 Zn272 2.119 . S
N282 C284 1.334 . S
N282 C285 1.328 . S
C283 C284 1.391 . S
C283 N286 1.329 . S
C283 H304 0.930 . S
C284 N282 1.334 . S
C284 C283 1.391 . S
C284 H291 0.930 . S
C285 N282 1.328 . S
C285 C287 1.392 . S
C285 H292 0.930 . S
N286 C283 1.329 . S
N286 C287 1.331 . S
C287 C285 1.392 . S
C287 N286 1.331 . S
O288 Zn281 1.975 . S
O288 C289 1.252 . S
C289 O288 1.252 . S
C289 O290 1.252 . S
O290 Zn272 1.975 . S
O290 C289 1.252 . S
H291 C284 0.930 . S
H292 C285 0.930 . S
C293 C294 1.392 . S
C293 N297 1.328 . S
C293 H299 0.930 . S
C294 C293 1.392 . S
C294 N298 1.331 . S
C295 C296 1.391 . S
C295 N298 1.329 . S
C295 H305 0.930 . S
C296 C295 1.391 . S
C296 N297 1.334 . S
C296 H303 0.930 . S
N297 Zn281 2.119 . S
N297 C293 1.328 . S
N297 C296 1.334 . S
N298 C294 1.331 . S
N298 C295 1.329 . S
H299 C293 0.930 . S
C300 O280 1.257 . S
C300 O301 1.244 . S
O301 C300 1.244 . S
O302 C278 1.257 1_565 S
O302 Zn281 2.019 . S
H303 C296 0.930 . S
H304 C283 0.930 . S
H305 C295 0.930 . S
Zn306 N310 2.020 . S
Zn306 O314 2.019 . S
Zn306 N316 2.119 . S
Zn306 O324 1.975 . S
C307 N308 1.334 . S
C307 N311 1.336 . S
N308 C307 1.334 . S
N308 C309 1.334 . S
C309 N308 1.334 . S
C309 N310 1.336 . S
N310 Zn306 2.020 . S
N310 C309 1.336 . S
N310 N311 1.354 . S
N311 C307 1.336 . S
N311 N310 1.354 . S
N311 Zn315 2.020 . S
C312 O313 1.244 . S
C312 O336 1.257 . S
O313 C312 1.244 . S
O314 Zn306 2.019 . S
O314 C334 1.257 . S
Zn315 N311 2.020 . S
Zn315 O322 1.975 . S
Zn315 N331 2.119 . S
Zn315 O336 2.019 . S
N316 Zn306 2.119 . S
N316 C318 1.334 . S
N316 C319 1.328 . S
C317 C318 1.391 . S
C317 N320 1.329 . S
C317 H338 0.930 . S
C318 N316 1.334 . S
C318 C317 1.391 . S
C318 H325 0.930 . S
C319 N316 1.328 . S
C319 C321 1.392 . S
C319 H326 0.930 . S
N320 C317 1.329 . S
N320 C321 1.331 . S
C321 C319 1.392 . S
C321 N320 1.331 . S
O322 Zn315 1.975 . S
O322 C323 1.252 . S
C323 O322 1.252 . S
C323 O324 1.252 . S
O324 Zn306 1.975 . S
O324 C323 1.252 . S
H325 C318 0.930 . S
H326 C319 0.930 . S
C327 C328 1.392 . S
C327 N331 1.328 . S
C327 H333 0.930 . S
C328 C327 1.392 . S
C328 N332 1.331 . S
C329 C330 1.391 . S
C329 N332 1.329 . S
C329 H339 0.930 . S
C330 C329 1.391 . S
C330 N331 1.334 . S
C330 H337 0.930 . S
N331 Zn315 2.119 . S
N331 C327 1.328 . S
N331 C330 1.334 . S
N332 C328 1.331 . S
N332 C329 1.329 . S
H333 C327 0.930 . S
C334 O314 1.257 . S
C334 O335 1.244 . S
O335 C334 1.244 . S
O336 C312 1.257 . S
O336 Zn315 2.019 . S
H337 C330 0.930 . S
H338 C317 0.930 . S
H339 C329 0.930 . S
Zn340 N344 2.020 . S
Zn340 O348 2.019 . S
Zn340 N350 2.119 . S
Zn340 O358 1.975 . S
C341 N342 1.334 . S
C341 N345 1.336 . S
N342 C341 1.334 . S
N342 C343 1.334 . S
C343 N342 1.334 . S
C343 N344 1.336 . S
N344 Zn340 2.020 . S
N344 C343 1.336 . S
N344 N345 1.354 . S
N345 C341 1.336 . S
N345 N344 1.354 . S
N345 Zn349 2.020 . S
C346 O347 1.244 . S
C346 O370 1.257 . S
O347 C346 1.244 . S
O348 Zn340 2.019 . S
O348 C368 1.257 . S
Zn349 N345 2.020 . S
Zn349 O356 1.975 . S
Zn349 N365 2.119 . S
Zn349 O370 2.019 . S
N350 Zn340 2.119 . S
N350 C352 1.334 . S
N350 C353 1.328 . S
C351 C352 1.391 . S
C351 N354 1.329 . S
C351 H372 0.930 . S
C352 N350 1.334 . S
C352 C351 1.391 . S
C352 H359 0.930 . S
C353 N350 1.328 . S
C353 C355 1.392 . S
C353 H360 0.930 . S
N354 C351 1.329 . S
N354 C355 1.331 . S
C355 C353 1.392 . S
C355 N354 1.331 . S
O356 Zn349 1.975 . S
O356 C357 1.252 . S
C357 O356 1.252 . S
C357 O358 1.252 . S
O358 Zn340 1.975 . S
O358 C357 1.252 . S
H359 C352 0.930 . S
H360 C353 0.930 . S
C361 C362 1.392 . S
C361 N365 1.328 . S
C361 H367 0.930 . S
C362 C361 1.392 . S
C362 N366 1.331 . S
C363 C364 1.391 . S
C363 N366 1.329 . S
C363 H373 0.930 . S
C364 C363 1.391 . S
C364 N365 1.334 . S
C364 H371 0.930 . S
N365 Zn349 2.119 . S
N365 C361 1.328 . S
N365 C364 1.334 . S
N366 C362 1.331 . S
N366 C363 1.329 . S
H367 C361 0.930 . S
C368 O348 1.257 . S
C368 O369 1.244 . S
O369 C368 1.244 . S
O370 C346 1.257 . S
O370 Zn349 2.019 . S
H371 C364 0.930 . S
H372 C351 0.930 . S
H373 C363 0.930 . S
Zn374 N378 2.020 . S
Zn374 O382 2.019 . S
Zn374 N384 2.119 . S
Zn374 O392 1.975 . S
C375 N376 1.334 1_655 S
C375 N379 1.336 . S
N376 C375 1.334 1_455 S
N376 C377 1.334 . S
C377 N376 1.334 . S
C377 N378 1.336 1_455 S
N378 Zn374 2.020 . S
N378 C377 1.336 1_655 S
N378 N379 1.354 . S
N379 C375 1.336 . S
N379 N378 1.354 . S
N379 Zn383 2.020 . S
C380 O381 1.244 . S
C380 O404 1.257 . S
O381 C380 1.244 . S
O382 Zn374 2.019 . S
O382 C402 1.257 1_655 S
Zn383 N379 2.020 . S
Zn383 O390 1.975 . S
Zn383 N399 2.119 . S
Zn383 O404 2.019 . S
N384 Zn374 2.119 . S
N384 C386 1.334 . S
N384 C387 1.328 . S
C385 C386 1.391 . S
C385 N388 1.329 . S
C385 H406 0.930 . S
C386 N384 1.334 . S
C386 C385 1.391 . S
C386 H393 0.930 . S
C387 N384 1.328 . S
C387 C389 1.392 . S
C387 H394 0.930 . S
N388 C385 1.329 . S
N388 C389 1.331 . S
C389 C387 1.392 . S
C389 N388 1.331 . S
O390 Zn383 1.975 . S
O390 C391 1.252 . S
C391 O390 1.252 . S
C391 O392 1.252 . S
O392 Zn374 1.975 . S
O392 C391 1.252 . S
H393 C386 0.930 . S
H394 C387 0.930 . S
C395 C396 1.392 . S
C395 N399 1.328 . S
C395 H401 0.930 . S
C396 C395 1.392 . S
C396 N400 1.331 . S
C397 C398 1.391 . S
C397 N400 1.329 . S
C397 H407 0.930 . S
C398 C397 1.391 . S
C398 N399 1.334 . S
C398 H405 0.930 . S
N399 Zn383 2.119 . S
N399 C395 1.328 . S
N399 C398 1.334 . S
N400 C396 1.331 . S
N400 C397 1.329 . S
H401 C395 0.930 . S
C402 O382 1.257 1_455 S
C402 O403 1.244 . S
O403 C402 1.244 . S
O404 C380 1.257 . S
O404 Zn383 2.019 . S
H405 C398 0.930 . S
H406 C385 0.930 . S
H407 C397 0.930 . S
Zn408 N412 2.020 . S
Zn408 O416 2.019 . S
Zn408 N418 2.119 . S
Zn408 O426 1.975 . S
C409 N410 1.334 1_545 S
C409 N413 1.336 . S
N410 C409 1.334 1_565 S
N410 C411 1.334 . S
C411 N410 1.334 . S
C411 N412 1.336 1_565 S
N412 Zn408 2.020 . S
N412 C411 1.336 1_545 S
N412 N413 1.354 . S
N413 C409 1.336 . S
N413 N412 1.354 . S
N413 Zn417 2.020 . S
C414 O415 1.244 . S
C414 O438 1.257 . S
O415 C414 1.244 . S
O416 Zn408 2.019 . S
O416 C436 1.257 1_545 S
Zn417 N413 2.020 . S
Zn417 O424 1.975 . S
Zn417 N433 2.119 . S
Zn417 O438 2.019 . S
N418 Zn408 2.119 . S
N418 C420 1.334 . S
N418 C421 1.328 . S
C419 C420 1.391 . S
C419 N422 1.329 . S
C419 H440 0.930 . S
C420 N418 1.334 . S
C420 C419 1.391 . S
C420 H427 0.930 . S
C421 N418 1.328 . S
C421 C423 1.392 . S
C421 H428 0.930 . S
N422 C419 1.329 . S
N422 C423 1.331 . S
C423 C421 1.392 . S
C423 N422 1.331 . S
O424 Zn417 1.975 . S
O424 C425 1.252 . S
C425 O424 1.252 . S
C425 O426 1.252 . S
O426 Zn408 1.975 . S
O426 C425 1.252 . S
H427 C420 0.930 . S
H428 C421 0.930 . S
C429 C430 1.392 . S
C429 N433 1.328 . S
C429 H435 0.930 . S
C430 C429 1.392 . S
C430 N434 1.331 . S
C431 C432 1.391 . S
C431 N434 1.329 . S
C431 H441 0.930 . S
C432 C431 1.391 . S
C432 N433 1.334 . S
C432 H439 0.930 . S
N433 Zn417 2.119 . S
N433 C429 1.328 . S
N433 C432 1.334 . S
N434 C430 1.331 . S
N434 C431 1.329 . S
H435 C429 0.930 . S
C436 O416 1.257 1_565 S
C436 O437 1.244 . S
O437 C436 1.244 . S
O438 C414 1.257 . S
O438 Zn417 2.019 . S
H439 C432 0.930 . S
H440 C419 0.930 . S
H441 C431 0.930 . S
Zn442 N446 2.020 . S
Zn442 O450 2.019 . S
Zn442 N452 2.119 . S
Zn442 O460 1.975 . S
C443 N444 1.334 . S
C443 N447 1.336 . S
N444 C443 1.334 . S
N444 C445 1.334 . S
C445 N444 1.334 . S
C445 N446 1.336 . S
N446 Zn442 2.020 . S
N446 C445 1.336 . S
N446 N447 1.354 . S
N447 C443 1.336 . S
N447 N446 1.354 . S
N447 Zn451 2.020 . S
C448 O449 1.244 . S
C448 O472 1.257 . S
O449 C448 1.244 . S
O450 Zn442 2.019 . S
O450 C470 1.257 . S
Zn451 N447 2.020 . S
Zn451 O458 1.975 . S
Zn451 N467 2.119 . S
Zn451 O472 2.019 . S
N452 Zn442 2.119 . S
N452 C454 1.334 . S
N452 C455 1.328 . S
C453 C454 1.391 . S
C453 N456 1.329 . S
C453 H474 0.930 . S
C454 N452 1.334 . S
C454 C453 1.391 . S
C454 H461 0.930 . S
C455 N452 1.328 . S
C455 C457 1.392 . S
C455 H462 0.930 . S
N456 C453 1.329 . S
N456 C457 1.331 . S
C457 C455 1.392 . S
C457 N456 1.331 . S
O458 Zn451 1.975 . S
O458 C459 1.252 . S
C459 O458 1.252 . S
C459 O460 1.252 . S
O460 Zn442 1.975 . S
O460 C459 1.252 . S
H461 C454 0.930 . S
H462 C455 0.930 . S
C463 C464 1.392 . S
C463 N467 1.328 . S
C463 H469 0.930 . S
C464 C463 1.392 . S
C464 N468 1.331 . S
C465 C466 1.391 . S
C465 N468 1.329 . S
C465 H475 0.930 . S
C466 C465 1.391 . S
C466 N467 1.334 . S
C466 H473 0.930 . S
N467 Zn451 2.119 . S
N467 C463 1.328 . S
N467 C466 1.334 . S
N468 C464 1.331 . S
N468 C465 1.329 . S
H469 C463 0.930 . S
C470 O450 1.257 . S
C470 O471 1.244 . S
O471 C470 1.244 . S
O472 C448 1.257 . S
O472 Zn451 2.019 . S
H473 C466 0.930 . S
H474 C453 0.930 . S
H475 C465 0.930 . S
Zn476 N480 2.020 . S
Zn476 O484 2.019 . S
Zn476 N486 2.119 . S
Zn476 O494 1.975 . S
C477 N478 1.334 . S
C477 N481 1.336 . S
N478 C477 1.334 . S
N478 C479 1.334 . S
C479 N478 1.334 . S
C479 N480 1.336 . S
N480 Zn476 2.020 . S
N480 C479 1.336 . S
N480 N481 1.354 . S
N481 C477 1.336 . S
N481 N480 1.354 . S
N481 Zn485 2.020 . S
C482 O483 1.244 . S
C482 O506 1.257 . S
O483 C482 1.244 . S
O484 Zn476 2.019 . S
O484 C504 1.257 . S
Zn485 N481 2.020 . S
Zn485 O492 1.975 . S
Zn485 N501 2.119 . S
Zn485 O506 2.019 . S
N486 Zn476 2.119 . S
N486 C488 1.334 . S
N486 C489 1.328 . S
C487 C488 1.391 . S
C487 N490 1.329 . S
C487 H508 0.930 . S
C488 N486 1.334 . S
C488 C487 1.391 . S
C488 H495 0.930 . S
C489 N486 1.328 . S
C489 C491 1.392 . S
C489 H496 0.930 . S
N490 C487 1.329 . S
N490 C491 1.331 . S
C491 C489 1.392 . S
C491 N490 1.331 . S
O492 Zn485 1.975 . S
O492 C493 1.252 . S
C493 O492 1.252 . S
C493 O494 1.252 . S
O494 Zn476 1.975 . S
O494 C493 1.252 . S
H495 C488 0.930 . S
H496 C489 0.930 . S
C497 C498 1.392 . S
C497 N501 1.328 . S
C497 H503 0.930 . S
C498 C497 1.392 . S
C498 N502 1.331 . S
C499 C500 1.391 . S
C499 N502 1.329 . S
C499 H509 0.930 . S
C500 C499 1.391 . S
C500 N501 1.334 . S
C500 H507 0.930 . S
N501 Zn485 2.119 . S
N501 C497 1.328 . S
N501 C500 1.334 . S
N502 C498 1.331 . S
N502 C499 1.329 . S
H503 C497 0.930 . S
C504 O484 1.257 . S
C504 O505 1.244 . S
O505 C504 1.244 . S
O506 C482 1.257 . S
O506 Zn485 2.019 . S
H507 C500 0.930 . S
H508 C487 0.930 . S
H509 C499 0.930 . S
Zn510 N514 2.020 . S
Zn510 O518 2.019 . S
Zn510 N520 2.119 . S
Zn510 O528 1.975 . S
C511 N512 1.334 1_455 S
C511 N515 1.336 . S
N512 C511 1.334 1_655 S
N512 C513 1.334 . S
C513 N512 1.334 . S
C513 N514 1.336 1_655 S
N514 Zn510 2.020 . S
N514 C513 1.336 1_455 S
N514 N515 1.354 . S
N515 C511 1.336 . S
N515 N514 1.354 . S
N515 Zn519 2.020 . S
C516 O517 1.244 . S
C516 O540 1.257 . S
O517 C516 1.244 . S
O518 Zn510 2.019 . S
O518 C538 1.257 1_455 S
Zn519 N515 2.020 . S
Zn519 O526 1.975 . S
Zn519 N535 2.119 . S
Zn519 O540 2.019 . S
N520 Zn510 2.119 . S
N520 C522 1.334 . S
N520 C523 1.328 . S
C521 C522 1.391 . S
C521 N524 1.329 . S
C521 H542 0.930 . S
C522 N520 1.334 . S
C522 C521 1.391 . S
C522 H529 0.930 . S
C523 N520 1.328 . S
C523 C525 1.392 . S
C523 H530 0.930 . S
N524 C521 1.329 . S
N524 C525 1.331 . S
C525 C523 1.392 . S
C525 N524 1.331 . S
O526 Zn519 1.975 . S
O526 C527 1.252 . S
C527 O526 1.252 . S
C527 O528 1.252 . S
O528 Zn510 1.975 . S
O528 C527 1.252 . S
H529 C522 0.930 . S
H530 C523 0.930 . S
C531 C532 1.392 . S
C531 N535 1.328 . S
C531 H537 0.930 . S
C532 C531 1.392 . S
C532 N536 1.331 . S
C533 C534 1.391 . S
C533 N536 1.329 . S
C533 H543 0.930 . S
C534 C533 1.391 . S
C534 N535 1.334 . S
C534 H541 0.930 . S
N535 Zn519 2.119 . S
N535 C531 1.328 . S
N535 C534 1.334 . S
N536 C532 1.331 . S
N536 C533 1.329 . S
H537 C531 0.930 . S
C538 O518 1.257 1_655 S
C538 O539 1.244 . S
O539 C538 1.244 . S
O540 C516 1.257 . S
O540 Zn519 2.019 . S
H541 C534 0.930 . S
H542 C521 0.930 . S
H543 C533 0.930 . S
C544 C545 1.387 1_545 S
C544 H548 0.950 . S
C544 C553 1.390 1_556 S
C545 C544 1.387 1_565 S
C545 C547 1.387 . S
H546 C553 0.950 . S
C547 C545 1.387 . S
C547 C549 1.390 1_556 S
C547 H551 0.950 . S
H548 C544 0.950 . S
C549 C547 1.390 1_554 S
C549 C550 1.387 1_565 S
C549 H552 0.950 . S
C550 C549 1.387 1_545 S
C550 C553 1.387 . S
H551 C547 0.950 . S
H552 C549 0.950 . S
C553 C544 1.390 1_554 S
C553 H546 0.950 . S
C553 C550 1.387 . S
C554 C555 1.387 . S
C554 H558 0.950 . S
C554 C563 1.390 1_554 S
C555 C554 1.387 . S
C555 C557 1.387 . S
H556 C563 0.950 . S
C557 C555 1.387 . S
C557 C559 1.390 1_554 S
C557 H561 0.950 . S
H558 C554 0.950 . S
C559 C557 1.390 1_556 S
C559 C560 1.387 . S
C559 H562 0.950 . S
C560 C559 1.387 . S
C560 C563 1.387 . S
H561 C557 0.950 . S
H562 C559 0.950 . S
C563 C554 1.390 1_556 S
C563 H556 0.950 . S
C563 C560 1.387 . S
C564 C565 1.387 . S
C564 H568 0.950 . S
C564 C573 1.390 1_456 S
C565 C564 1.387 . S
C565 C567 1.387 . S
H566 C573 0.950 . S
C567 C565 1.387 . S
C567 C569 1.390 1_456 S
C567 H571 0.950 . S
H568 C564 0.950 . S
C569 C567 1.390 1_654 S
C569 C570 1.387 . S
C569 H572 0.950 . S
C570 C569 1.387 . S
C570 C573 1.387 . S
H571 C567 0.950 . S
H572 C569 0.950 . S
C573 C564 1.390 1_654 S
C573 H566 0.950 . S
C573 C570 1.387 . S
C574 C575 1.387 1_655 S
C574 H578 0.950 . S
C574 C583 1.390 1_564 S
C575 C574 1.387 1_455 S
C575 C577 1.387 . S
H576 C583 0.950 . S
C577 C575 1.387 . S
C577 C579 1.390 1_564 S
C577 H581 0.950 . S
H578 C574 0.950 . S
C579 C577 1.390 1_546 S
C579 C580 1.387 1_455 S
C579 H582 0.950 . S
C580 C579 1.387 1_655 S
C580 C583 1.387 . S
H581 C577 0.950 . S
H582 C579 0.950 . S
C583 C574 1.390 1_546 S
C583 H576 0.950 . S
C583 C580 1.387 . S
C584 C585 1.387 . S
C584 H588 0.950 . S
C584 C593 1.390 1_455 S
C585 C584 1.387 . S
C585 C587 1.387 1_565 S
H586 C593 0.950 . S
C587 C585 1.387 1_545 S
C587 C589 1.390 1_455 S
C587 H591 0.950 . S
H588 C584 0.950 . S
C589 C587 1.390 1_655 S
C589 C590 1.387 . S
C589 H592 0.950 . S
C590 C589 1.387 . S
C590 C593 1.387 1_545 S
H591 C587 0.950 . S
H592 C589 0.950 . S
C593 C584 1.390 1_655 S
C593 H586 0.950 . S
C593 C590 1.387 1_565 S
C594 C595 1.387 . S
C594 H598 0.950 . S
C594 C603 1.390 1_545 S
C595 C594 1.387 . S
C595 C597 1.387 . S
H596 C603 0.950 . S
C597 C595 1.387 . S
C597 C599 1.390 1_545 S
C597 H601 0.950 . S
H598 C594 0.950 . S
C599 C597 1.390 1_565 S
C599 C600 1.387 . S
C599 H602 0.950 . S
C600 C599 1.387 . S
C600 C603 1.387 . S
H601 C597 0.950 . S
H602 C599 0.950 . S
C603 C594 1.390 1_565 S
C603 H596 0.950 . S
C603 C600 1.387 . S
C604 C605 1.387 . S
C604 H608 0.950 . S
C604 C613 1.390 . S
C605 C604 1.387 . S
C605 C607 1.387 . S
H606 C613 0.950 . S
C607 C605 1.387 . S
C607 C609 1.390 . S
C607 H611 0.950 . S
H608 C604 0.950 . S
C609 C607 1.390 . S
C609 C610 1.387 . S
C609 H612 0.950 . S
C610 C609 1.387 . S
C610 C613 1.387 . S
H611 C607 0.950 . S
H612 C609 0.950 . S
C613 C604 1.390 . S
C613 H606 0.950 . S
C613 C610 1.387 . S
C614 C615 1.387 1_655 S
C614 H618 0.950 . S
C614 C623 1.390 . S
C615 C614 1.387 1_455 S
C615 C617 1.387 . S
H616 C623 0.950 . S
C617 C615 1.387 . S
C617 C619 1.390 . S
C617 H621 0.950 . S
H618 C614 0.950 . S
C619 C617 1.390 . S
C619 C620 1.387 1_455 S
C619 H622 0.950 . S
C620 C619 1.387 1_655 S
C620 C623 1.387 . S
H621 C617 0.950 . S
H622 C619 0.950 . S
C623 C614 1.390 . S
C623 H616 0.950 . S
C623 C620 1.387 . S
C624 C625 1.387 . S
C624 H628 0.950 . S
C624 C633 1.390 . S
C625 C624 1.387 . S
C625 C627 1.387 . S
H626 C633 0.950 . S
C627 C625 1.387 . S
C627 C629 1.390 . S
C627 H631 0.950 . S
H628 C624 0.950 . S
C629 C627 1.390 . S
C629 C630 1.387 . S
C629 H632 0.950 . S
C630 C629 1.387 . S
C630 C633 1.387 . S
H631 C627 0.950 . S
H632 C629 0.950 . S
C633 C624 1.390 . S
C633 H626 0.950 . S
C633 C630 1.387 . S
C634 C635 1.387 . S
C634 H638 0.950 . S
C634 C643 1.390 . S
C635 C634 1.387 . S
C635 C637 1.387 . S
H636 C643 0.950 . S
C637 C635 1.387 . S
C637 C639 1.390 . S
C637 H641 0.950 . S
H638 C634 0.950 . S
C639 C637 1.390 . S
C639 C640 1.387 . S
C639 H642 0.950 . S
C640 C639 1.387 . S
C640 C643 1.387 . S
H641 C637 0.950 . S
H642 C639 0.950 . S
C643 C634 1.390 . S
C643 H636 0.950 . S
C643 C640 1.387 . S
C644 C645 1.387 . S
C644 H648 0.950 . S
C644 C653 1.390 . S
C645 C644 1.387 . S
C645 C647 1.387 . S
H646 C653 0.950 . S
C647 C645 1.387 . S
C647 C649 1.390 . S
C647 H651 0.950 . S
H648 C644 0.950 . S
C649 C647 1.390 . S
C649 C650 1.387 . S
C649 H652 0.950 . S
C650 C649 1.387 . S
C650 C653 1.387 . S
H651 C647 0.950 . S
H652 C649 0.950 . S
C653 C644 1.390 . S
C653 H646 0.950 . S
C653 C650 1.387 . S
C654 C655 1.387 . S
C654 H658 0.950 . S
C654 C663 1.390 . S
C655 C654 1.387 . S
C655 C657 1.387 . S
H656 C663 0.950 . S
C657 C655 1.387 . S
C657 C659 1.390 . S
C657 H661 0.950 1_565 S
H658 C654 0.950 . S
C659 C657 1.390 . S
C659 C660 1.387 . S
C659 H662 0.950 . S
C660 C659 1.387 . S
C660 C663 1.387 . S
H661 C657 0.950 1_545 S
H662 C659 0.950 . S
C663 C654 1.390 . S
C663 H656 0.950 . S
C663 C660 1.387 . S
C664 C665 1.387 . S
C664 H668 0.950 . S
C664 C673 1.390 . S
C665 C664 1.387 . S
C665 C667 1.387 . S
H666 C673 0.950 . S
C667 C665 1.387 . S
C667 C669 1.390 . S
C667 H671 0.950 . S
H668 C664 0.950 . S
C669 C667 1.390 . S
C669 C670 1.387 . S
C669 H672 0.950 . S
C670 C669 1.387 . S
C670 C673 1.387 . S
H671 C667 0.950 . S
H672 C669 0.950 . S
C673 C664 1.390 . S
C673 H666 0.950 . S
C673 C670 1.387 . S
C674 C675 1.387 . S
C674 H678 0.950 . S
C674 C683 1.390 . S
C675 C674 1.387 . S
C675 C677 1.387 . S
H676 C683 0.950 . S
C677 C675 1.387 . S
C677 C679 1.390 . S
C677 H681 0.950 . S
H678 C674 0.950 . S
C679 C677 1.390 . S
C679 C680 1.387 . S
C679 H682 0.950 . S
C680 C679 1.387 . S
C680 C683 1.387 . S
H681 C677 0.950 . S
H682 C679 0.950 . S
C683 C674 1.390 . S
C683 H676 0.950 . S
C683 C680 1.387 . S
C684 C685 1.387 . S
C684 H688 0.950 . S
C684 C693 1.390 . S
C685 C684 1.387 . S
C685 C687 1.387 . S
H686 C693 0.950 . S
C687 C685 1.387 . S
C687 C689 1.390 . S
C687 H691 0.950 . S
H688 C684 0.950 . S
C689 C687 1.390 . S
C689 C690 1.387 . S
C689 H692 0.950 . S
C690 C689 1.387 . S
C690 C693 1.387 . S
H691 C687 0.950 . S
H692 C689 0.950 . S
C693 C684 1.390 . S
C693 H686 0.950 . S
C693 C690 1.387 . S
C694 C695 1.387 . S
C694 H698 0.950 . S
C694 C703 1.390 . S
C695 C694 1.387 . S
C695 C697 1.387 . S
H696 C703 0.950 . S
C697 C695 1.387 . S
C697 C699 1.390 . S
C697 H701 0.950 . S
H698 C694 0.950 . S
C699 C697 1.390 . S
C699 C700 1.387 . S
C699 H702 0.950 . S
C700 C699 1.387 . S
C700 C703 1.387 . S
H701 C697 0.950 . S
H702 C699 0.950 . S
C703 C694 1.390 . S
C703 H696 0.950 . S
C703 C700 1.387 . S
C704 C705 1.387 . S
C704 H708 0.950 . S
C704 C713 1.390 . S
C705 C704 1.387 . S
C705 C707 1.387 . S
H706 C713 0.950 . S
C707 C705 1.387 . S
C707 C709 1.390 . S
C707 H711 0.950 . S
H708 C704 0.950 . S
C709 C707 1.390 . S
C709 C710 1.387 . S
C709 H712 0.950 . S
C710 C709 1.387 . S
C710 C713 1.387 . S
H711 C707 0.950 . S
H712 C709 0.950 . S
C713 C704 1.390 . S
C713 H706 0.950 . S
C713 C710 1.387 . S
C714 C715 1.387 . S
C714 H718 0.950 . S
C714 C723 1.390 . S
C715 C714 1.387 . S
C715 C717 1.387 . S
H716 C723 0.950 . S
C717 C715 1.387 . S
C717 C719 1.390 . S
C717 H721 0.950 . S
H718 C714 0.950 . S
C719 C717 1.390 . S
C719 C720 1.387 . S
C719 H722 0.950 . S
C720 C719 1.387 . S
C720 C723 1.387 . S
H721 C717 0.950 . S
H722 C719 0.950 . S
C723 C714 1.390 . S
C723 H716 0.950 . S
C723 C720 1.387 . S
C724 C725 1.387 . S
C724 H728 0.950 . S
C724 C733 1.390 . S
C725 C724 1.387 . S
C725 C727 1.387 . S
H726 C733 0.950 . S
C727 C725 1.387 . S
C727 C729 1.390 . S
C727 H731 0.950 . S
H728 C724 0.950 . S
C729 C727 1.390 . S
C729 C730 1.387 . S
C729 H732 0.950 . S
C730 C729 1.387 . S
C730 C733 1.387 . S
H731 C727 0.950 . S
H732 C729 0.950 . S
C733 C724 1.390 . S
C733 H726 0.950 . S
C733 C730 1.387 . S
C734 C735 1.387 . S
C734 H738 0.950 . S
C734 C743 1.390 . S
C735 C734 1.387 . S
C735 C737 1.387 . S
H736 C743 0.950 . S
C737 C735 1.387 . S
C737 C739 1.390 . S
C737 H741 0.950 1_545 S
H738 C734 0.950 . S
C739 C737 1.390 . S
C739 C740 1.387 . S
C739 H742 0.950 . S
C740 C739 1.387 . S
C740 C743 1.387 . S
H741 C737 0.950 1_565 S
H742 C739 0.950 . S
C743 C734 1.390 . S
C743 H736 0.950 . S
C743 C740 1.387 . S
C744 C745 1.387 . S
C744 H748 0.950 . S
C744 C753 1.390 . S
C745 C744 1.387 . S
C745 C747 1.387 . S
H746 C753 0.950 . S
C747 C745 1.387 . S
C747 C749 1.390 . S
C747 H751 0.950 . S
H748 C744 0.950 . S
C749 C747 1.390 . S
C749 C750 1.387 . S
C749 H752 0.950 . S
C750 C749 1.387 . S
C750 C753 1.387 . S
H751 C747 0.950 . S
H752 C749 0.950 . S
C753 C744 1.390 . S
C753 H746 0.950 . S
C753 C750 1.387 . S
C754 C755 1.387 . S
C754 H758 0.950 . S
C754 C763 1.390 . S
C755 C754 1.387 . S
C755 C757 1.387 . S
H756 C763 0.950 . S
C757 C755 1.387 . S
C757 C759 1.390 . S
C757 H761 0.950 1_565 S
H758 C754 0.950 . S
C759 C757 1.390 . S
C759 C760 1.387 . S
C759 H762 0.950 . S
C760 C759 1.387 . S
C760 C763 1.387 . S
H761 C757 0.950 1_545 S
H762 C759 0.950 . S
C763 C754 1.390 . S
C763 H756 0.950 . S
C763 C760 1.387 . S
C764 C765 1.387 . S
C764 H768 0.950 . S
C764 C773 1.390 . S
C765 C764 1.387 . S
C765 C767 1.387 . S
H766 C773 0.950 . S
C767 C765 1.387 . S
C767 C769 1.390 . S
C767 H771 0.950 . S
H768 C764 0.950 . S
C769 C767 1.390 . S
C769 C770 1.387 . S
C769 H772 0.950 . S
C770 C769 1.387 . S
C770 C773 1.387 . S
H771 C767 0.950 . S
H772 C769 0.950 . S
C773 C764 1.390 . S
C773 H766 0.950 . S
C773 C770 1.387 . S
C774 C775 1.387 . S
C774 H778 0.950 . S
C774 C783 1.390 . S
C775 C774 1.387 . S
C775 C777 1.387 . S
H776 C783 0.950 . S
C777 C775 1.387 . S
C777 C779 1.390 . S
C777 H781 0.950 . S
H778 C774 0.950 . S
C779 C777 1.390 . S
C779 C780 1.387 . S
C779 H782 0.950 . S
C780 C779 1.387 . S
C780 C783 1.387 . S
H781 C777 0.950 . S
H782 C779 0.950 . S
C783 C774 1.390 . S
C783 H776 0.950 . S
C783 C780 1.387 . S
C784 C785 1.387 . S
C784 H788 0.950 . S
C784 C793 1.390 . S
C785 C784 1.387 . S
C785 C787 1.387 . S
H786 C793 0.950 . S
C787 C785 1.387 . S
C787 C789 1.390 . S
C787 H791 0.950 1_554 S
H788 C784 0.950 . S
C789 C787 1.390 . S
C789 C790 1.387 . S
C789 H792 0.950 . S
C790 C789 1.387 . S
C790 C793 1.387 . S
H791 C787 0.950 1_556 S
H792 C789 0.950 . S
C793 C784 1.390 . S
C793 H786 0.950 . S
C793 C790 1.387 . S
C794 C795 1.387 . S
C794 H798 0.950 . S
C794 C803 1.390 . S
C795 C794 1.387 . S
C795 C797 1.387 . S
H796 C803 0.950 . S
C797 C795 1.387 . S
C797 C799 1.390 . S
C797 H801 0.950 . S
H798 C794 0.950 . S
C799 C797 1.390 . S
C799 C800 1.387 . S
C799 H802 0.950 . S
C800 C799 1.387 . S
C800 C803 1.387 . S
H801 C797 0.950 . S
H802 C799 0.950 . S
C803 C794 1.390 . S
C803 H796 0.950 . S
C803 C800 1.387 . S
C804 C805 1.387 . S
C804 H808 0.950 1_554 S
C804 C813 1.390 . S
C805 C804 1.387 . S
C805 C807 1.387 . S
H806 C813 0.950 . S
C807 C805 1.387 . S
C807 C809 1.390 . S
C807 H811 0.950 . S
H808 C804 0.950 1_556 S
C809 C807 1.390 . S
C809 C810 1.387 . S
C809 H812 0.950 . S
C810 C809 1.387 . S
C810 C813 1.387 . S
H811 C807 0.950 . S
H812 C809 0.950 . S
C813 C804 1.390 . S
C813 H806 0.950 . S
C813 C810 1.387 . S
C814 C815 1.387 . S
C814 H818 0.950 1_554 S
C814 C823 1.390 . S
C815 C814 1.387 . S
C815 C817 1.387 . S
H816 C823 0.950 . S
C817 C815 1.387 . S
C817 C819 1.390 . S
C817 H821 0.950 . S
H818 C814 0.950 1_556 S
C819 C817 1.390 . S
C819 C820 1.387 . S
C819 H822 0.950 . S
C820 C819 1.387 . S
C820 C823 1.387 . S
H821 C817 0.950 . S
H822 C819 0.950 . S
C823 C814 1.390 . S
C823 H816 0.950 . S
C823 C820 1.387 . S
C824 C825 1.387 . S
C824 H828 0.950 . S
C824 C833 1.390 . S
C825 C824 1.387 . S
C825 C827 1.387 . S
H826 C833 0.950 . S
C827 C825 1.387 . S
C827 C829 1.390 . S
C827 H831 0.950 . S
H828 C824 0.950 . S
C829 C827 1.390 . S
C829 C830 1.387 . S
C829 H832 0.950 . S
C830 C829 1.387 . S
C830 C833 1.387 . S
H831 C827 0.950 . S
H832 C829 0.950 . S
C833 C824 1.390 . S
C833 H826 0.950 . S
C833 C830 1.387 . S
C834 C835 1.387 . S
C834 H838 0.950 . S
C834 C843 1.390 . S
C835 C834 1.387 . S
C835 C837 1.387 . S
H836 C843 0.950 1_565 S
C837 C835 1.387 . S
C837 C839 1.390 . S
C837 H841 0.950 . S
H838 C834 0.950 . S
C839 C837 1.390 . S
C839 C840 1.387 . S
C839 H842 0.950 . S
C840 C839 1.387 . S
C840 C843 1.387 . S
H841 C837 0.950 . S
H842 C839 0.950 . S
C843 C834 1.390 . S
C843 H836 0.950 1_545 S
C843 C840 1.387 . S
C844 C845 1.387 . S
C844 H848 0.950 . S
C844 C853 1.390 . S
C845 C844 1.387 . S
C845 C847 1.387 . S
H846 C853 0.950 . S
C847 C845 1.387 . S
C847 C849 1.390 . S
C847 H851 0.950 . S
H848 C844 0.950 . S
C849 C847 1.390 . S
C849 C850 1.387 . S
C849 H852 0.950 . S
C850 C849 1.387 . S
C850 C853 1.387 . S
H851 C847 0.950 . S
H852 C849 0.950 . S
C853 C844 1.390 . S
C853 H846 0.950 . S
C853 C850 1.387 . S
C854 C855 1.387 . S
C854 H858 0.950 . S
C854 C863 1.390 . S
C855 C854 1.387 . S
C855 C857 1.387 . S
H856 C863 0.950 . S
C857 C855 1.387 . S
C857 C859 1.390 . S
C857 H861 0.950 . S
H858 C854 0.950 . S
C859 C857 1.390 . S
C859 C860 1.387 . S
C859 H862 0.950 . S
C860 C859 1.387 . S
C860 C863 1.387 . S
H861 C857 0.950 . S
H862 C859 0.950 . S
C863 C854 1.390 . S
C863 H856 0.950 . S
C863 C860 1.387 . S
C864 C865 1.387 . S
C864 H868 0.950 . S
C864 C873 1.390 . S
C865 C864 1.387 . S
C865 C867 1.387 . S
H866 C873 0.950 . S
C867 C865 1.387 . S
C867 C869 1.390 . S
C867 H871 0.950 . S
H868 C864 0.950 . S
C869 C867 1.390 . S
C869 C870 1.387 . S
C869 H872 0.950 . S
C870 C869 1.387 . S
C870 C873 1.387 . S
H871 C867 0.950 . S
H872 C869 0.950 . S
C873 C864 1.390 . S
C873 H866 0.950 . S
C873 C870 1.387 . S
C874 C875 1.387 . S
C874 H878 0.950 . S
C874 C883 1.390 . S
C875 C874 1.387 . S
C875 C877 1.387 . S
H876 C883 0.950 . S
C877 C875 1.387 . S
C877 C879 1.390 . S
C877 H881 0.950 . S
H878 C874 0.950 . S
C879 C877 1.390 . S
C879 C880 1.387 . S
C879 H882 0.950 1_556 S
C880 C879 1.387 . S
C880 C883 1.387 . S
H881 C877 0.950 . S
H882 C879 0.950 1_554 S
C883 C874 1.390 . S
C883 H876 0.950 . S
C883 C880 1.387 . S
C884 C885 1.387 . S
C884 H888 0.950 . S
C884 C893 1.390 . S
C885 C884 1.387 . S
C885 C887 1.387 . S
H886 C893 0.950 . S
C887 C885 1.387 . S
C887 C889 1.390 . S
C887 H891 0.950 1_455 S
H888 C884 0.950 . S
C889 C887 1.390 . S
C889 C890 1.387 . S
C889 H892 0.950 . S
C890 C889 1.387 . S
C890 C893 1.387 . S
H891 C887 0.950 1_655 S
H892 C889 0.950 . S
C893 C884 1.390 . S
C893 H886 0.950 . S
C893 C890 1.387 . S
C894 C895 1.387 . S
C894 H898 0.950 1_556 S
C894 C903 1.390 . S
C895 C894 1.387 . S
C895 C897 1.387 . S
H896 C903 0.950 1_565 S
C897 C895 1.387 . S
C897 C899 1.390 . S
C897 H901 0.950 . S
H898 C894 0.950 1_554 S
C899 C897 1.390 . S
C899 C900 1.387 . S
C899 H902 0.950 . S
C900 C899 1.387 . S
C900 C903 1.387 . S
H901 C897 0.950 . S
H902 C899 0.950 . S
C903 C894 1.390 . S
C903 H896 0.950 1_545 S
C903 C900 1.387 . S
C904 C905 1.387 . S
C904 H908 0.950 . S
C904 C913 1.390 . S
C905 C904 1.387 . S
C905 C907 1.387 . S
H906 C913 0.950 . S
C907 C905 1.387 . S
C907 C909 1.390 . S
C907 H911 0.950 1_655 S
H908 C904 0.950 . S
C909 C907 1.390 . S
C909 C910 1.387 . S
C909 H912 0.950 . S
C910 C909 1.387 . S
C910 C913 1.387 . S
H911 C907 0.950 1_455 S
H912 C909 0.950 . S
C913 C904 1.390 . S
C913 H906 0.950 . S
C913 C910 1.387 . S
C914 C915 1.387 . S
C914 H918 0.950 . S
C914 C923 1.390 . S
C915 C914 1.387 . S
C915 C917 1.387 . S
H916 C923 0.950 . S
C917 C915 1.387 . S
C917 C919 1.390 . S
C917 H921 0.950 . S
H918 C914 0.950 . S
C919 C917 1.390 . S
C919 C920 1.387 . S
C919 H922 0.950 1_565 S
C920 C919 1.387 . S
C920 C923 1.387 . S
H921 C917 0.950 . S
H922 C919 0.950 1_545 S
C923 C914 1.390 . S
C923 H916 0.950 . S
C923 C920 1.387 . S
C924 C925 1.387 . S
C924 H928 0.950 . S
C924 C933 1.390 . S
C925 C924 1.387 . S
C925 C927 1.387 . S
H926 C933 0.950 . S
C927 C925 1.387 . S
C927 C929 1.390 . S
C927 H931 0.950 . S
H928 C924 0.950 . S
C929 C927 1.390 . S
C929 C930 1.387 . S
C929 H932 0.950 . S
C930 C929 1.387 . S
C930 C933 1.387 . S
H931 C927 0.950 . S
H932 C929 0.950 . S
C933 C924 1.390 . S
C933 H926 0.950 . S
C933 C930 1.387 . S
C934 C935 1.387 . S
C934 H938 0.950 . S
C934 C943 1.390 . S
C935 C934 1.387 . S
C935 C937 1.387 . S
H936 C943 0.950 . S
C937 C935 1.387 . S
C937 C939 1.390 . S
C937 H941 0.950 . S
H938 C934 0.950 . S
C939 C937 1.390 . S
C939 C940 1.387 . S
C939 H942 0.950 . S
C940 C939 1.387 . S
C940 C943 1.387 . S
H941 C937 0.950 . S
H942 C939 0.950 . S
C943 C934 1.390 . S
C943 H936 0.950 . S
C943 C940 1.387 . S
C944 C945 1.387 . S
C944 H948 0.950 . S
C944 C953 1.390 . S
C945 C944 1.387 . S
C945 C947 1.387 . S
H946 C953 0.950 1_565 S
C947 C945 1.387 . S
C947 C949 1.390 . S
C947 H951 0.950 . S
H948 C944 0.950 . S
C949 C947 1.390 . S
C949 C950 1.387 . S
C949 H952 0.950 . S
C950 C949 1.387 . S
C950 C953 1.387 . S
H951 C947 0.950 . S
H952 C949 0.950 . S
C953 C944 1.390 . S
C953 H946 0.950 1_545 S
C953 C950 1.387 . S
C954 C955 1.387 . S
C954 H958 0.950 . S
C954 C963 1.390 . S
C955 C954 1.387 . S
C955 C957 1.387 . S
H956 C963 0.950 . S
C957 C955 1.387 . S
C957 C959 1.390 . S
C957 H961 0.950 . S
H958 C954 0.950 . S
C959 C957 1.390 . S
C959 C960 1.387 . S
C959 H962 0.950 . S
C960 C959 1.387 . S
C960 C963 1.387 . S
H961 C957 0.950 . S
H962 C959 0.950 . S
C963 C954 1.390 . S
C963 H956 0.950 . S
C963 C960 1.387 . S
C964 C965 1.387 . S
C964 H968 0.950 . S
C964 C973 1.390 . S
C965 C964 1.387 . S
C965 C967 1.387 . S
H966 C973 0.950 . S
C967 C965 1.387 . S
C967 C969 1.390 . S
C967 H971 0.950 . S
H968 C964 0.950 . S
C969 C967 1.390 . S
C969 C970 1.387 . S
C969 H972 0.950 . S
C970 C969 1.387 . S
C970 C973 1.387 . S
H971 C967 0.950 . S
H972 C969 0.950 . S
C973 C964 1.390 . S
C973 H966 0.950 . S
C973 C970 1.387 . S
C974 C975 1.387 . S
C974 H978 0.950 1_565 S
C974 C983 1.390 . S
C975 C974 1.387 . S
C975 C977 1.387 . S
H976 C983 0.950 . S
C977 C975 1.387 . S
C977 C979 1.390 . S
C977 H981 0.950 . S
H978 C974 0.950 1_545 S
C979 C977 1.390 . S
C979 C980 1.387 . S
C979 H982 0.950 . S
C980 C979 1.387 . S
C980 C983 1.387 . S
H981 C977 0.950 . S
H982 C979 0.950 . S
C983 C974 1.390 . S
C983 H976 0.950 . S
C983 C980 1.387 . S
C984 C985 1.387 . S
C984 H988 0.950 . S
C984 C993 1.390 . S
C985 C984 1.387 . S
C985 C987 1.387 . S
H986 C993 0.950 1_545 S
C987 C985 1.387 . S
C987 C989 1.390 . S
C987 H991 0.950 . S
H988 C984 0.950 . S
C989 C987 1.390 . S
C989 C990 1.387 . S
C989 H992 0.950 . S
C990 C989 1.387 . S
C990 C993 1.387 . S
H991 C987 0.950 . S
H992 C989 0.950 . S
C993 C984 1.390 . S
C993 H986 0.950 1_565 S
C993 C990 1.387 . S
C994 C995 1.387 . S
C994 H998 0.950 . S
C994 C1003 1.390 . S
C995 C994 1.387 . S
C995 C997 1.387 . S
H996 C1003 0.950 . S
C997 C995 1.387 . S
C997 C999 1.390 . S
C997 H1001 0.950 . S
H998 C994 0.950 . S
C999 C997 1.390 . S
C999 C1000 1.387 . S
C999 H1002 0.950 . S
C1000 C999 1.387 . S
C1000 C1003 1.387 . S
H1001 C997 0.950 . S
H1002 C999 0.950 . S
C1003 C994 1.390 . S
C1003 H996 0.950 . S
C1003 C1000 1.387 . S
C1004 C1005 1.387 . S
C1004 H1008 0.950 . S
C1004 C1013 1.390 . S
C1005 C1004 1.387 . S
C1005 C1007 1.387 . S
H1006 C1013 0.950 . S
C1007 C1005 1.387 . S
C1007 C1009 1.390 . S
C1007 H1011 0.950 . S
H1008 C1004 0.950 . S
C1009 C1007 1.390 . S
C1009 C1010 1.387 . S
C1009 H1012 0.950 . S
C1010 C1009 1.387 . S
C1010 C1013 1.387 . S
H1011 C1007 0.950 . S
H1012 C1009 0.950 . S
C1013 C1004 1.390 . S
C1013 H1006 0.950 . S
C1013 C1010 1.387 . S
C1014 C1015 1.387 . S
C1014 H1018 0.950 . S
C1014 C1023 1.390 . S
C1015 C1014 1.387 . S
C1015 C1017 1.387 . S
H1016 C1023 0.950 . S
C1017 C1015 1.387 . S
C1017 C1019 1.390 . S
C1017 H1021 0.950 . S
H1018 C1014 0.950 . S
C1019 C1017 1.390 . S
C1019 C1020 1.387 . S
C1019 H1022 0.950 1_545 S
C1020 C1019 1.387 . S
C1020 C1023 1.387 . S
H1021 C1017 0.950 . S
H1022 C1019 0.950 1_565 S
C1023 C1014 1.390 . S
C1023 H1016 0.950 . S
C1023 C1020 1.387 . S
C1024 C1025 1.387 . S
C1024 H1028 0.950 . S
C1024 C1033 1.390 . S
C1025 C1024 1.387 . S
C1025 C1027 1.387 . S
H1026 C1033 0.950 . S
C1027 C1025 1.387 . S
C1027 C1029 1.390 . S
C1027 H1031 0.950 . S
H1028 C1024 0.950 . S
C1029 C1027 1.390 . S
C1029 C1030 1.387 . S
C1029 H1032 0.950 . S
C1030 C1029 1.387 . S
C1030 C1033 1.387 . S
H1031 C1027 0.950 . S
H1032 C1029 0.950 . S
C1033 C1024 1.390 . S
C1033 H1026 0.950 . S
C1033 C1030 1.387 . S
C1034 C1035 1.387 . S
C1034 H1038 0.950 . S
C1034 C1043 1.390 . S
C1035 C1034 1.387 . S
C1035 C1037 1.387 . S
H1036 C1043 0.950 . S
C1037 C1035 1.387 . S
C1037 C1039 1.390 . S
C1037 H1041 0.950 . S
H1038 C1034 0.950 . S
C1039 C1037 1.390 . S
C1039 C1040 1.387 . S
C1039 H1042 0.950 . S
C1040 C1039 1.387 . S
C1040 C1043 1.387 . S
H1041 C1037 0.950 . S
H1042 C1039 0.950 . S
C1043 C1034 1.390 . S
C1043 H1036 0.950 . S
C1043 C1040 1.387 . S
C1044 C1045 1.387 . S
C1044 H1048 0.950 . S
C1044 C1053 1.390 . S
C1045 C1044 1.387 . S
C1045 C1047 1.387 . S
H1046 C1053 0.950 . S
C1047 C1045 1.387 . S
C1047 C1049 1.390 . S
C1047 H1051 0.950 . S
H1048 C1044 0.950 . S
C1049 C1047 1.390 . S
C1049 C1050 1.387 . S
C1049 H1052 0.950 . S
C1050 C1049 1.387 . S
C1050 C1053 1.387 . S
H1051 C1047 0.950 . S
H1052 C1049 0.950 . S
C1053 C1044 1.390 . S
C1053 H1046 0.950 . S
C1053 C1050 1.387 . S
C1054 C1055 1.387 . S
C1054 H1058 0.950 . S
C1054 C1063 1.390 . S
C1055 C1054 1.387 . S
C1055 C1057 1.387 . S
H1056 C1063 0.950 . S
C1057 C1055 1.387 . S
C1057 C1059 1.390 . S
C1057 H1061 0.950 . S
H1058 C1054 0.950 . S
C1059 C1057 1.390 . S
C1059 C1060 1.387 . S
C1059 H1062 0.950 . S
C1060 C1059 1.387 . S
C1060 C1063 1.387 . S
H1061 C1057 0.950 . S
H1062 C1059 0.950 . S
C1063 C1054 1.390 . S
C1063 H1056 0.950 . S
C1063 C1060 1.387 . S
C1064 C1065 1.387 . S
C1064 H1068 0.950 . S
C1064 C1073 1.390 . S
C1065 C1064 1.387 . S
C1065 C1067 1.387 . S
H1066 C1073 0.950 . S
C1067 C1065 1.387 . S
C1067 C1069 1.390 . S
C1067 H1071 0.950 . S
H1068 C1064 0.950 . S
C1069 C1067 1.390 . S
C1069 C1070 1.387 . S
C1069 H1072 0.950 . S
C1070 C1069 1.387 . S
C1070 C1073 1.387 . S
H1071 C1067 0.950 . S
H1072 C1069 0.950 . S
C1073 C1064 1.390 . S
C1073 H1066 0.950 . S
C1073 C1070 1.387 . S
C1074 C1075 1.387 . S
C1074 H1078 0.950 . S
C1074 C1083 1.390 . S
C1075 C1074 1.387 . S
C1075 C1077 1.387 . S
H1076 C1083 0.950 . S
C1077 C1075 1.387 . S
C1077 C1079 1.390 . S
C1077 H1081 0.950 . S
H1078 C1074 0.950 . S
C1079 C1077 1.390 . S
C1079 C1080 1.387 . S
C1079 H1082 0.950 . S
C1080 C1079 1.387 . S
C1080 C1083 1.387 . S
H1081 C1077 0.950 . S
H1082 C1079 0.950 . S
C1083 C1074 1.390 . S
C1083 H1076 0.950 . S
C1083 C1080 1.387 . S
C1084 C1085 1.387 . S
C1084 H1088 0.950 . S
C1084 C1093 1.390 . S
C1085 C1084 1.387 . S
C1085 C1087 1.387 . S
H1086 C1093 0.950 . S
C1087 C1085 1.387 . S
C1087 C1089 1.390 . S
C1087 H1091 0.950 . S
H1088 C1084 0.950 . S
C1089 C1087 1.390 . S
C1089 C1090 1.387 . S
C1089 H1092 0.950 . S
C1090 C1089 1.387 . S
C1090 C1093 1.387 . S
H1091 C1087 0.950 . S
H1092 C1089 0.950 . S
C1093 C1084 1.390 . S
C1093 H1086 0.950 . S
C1093 C1090 1.387 . S
C1094 C1095 1.387 . S
C1094 H1098 0.950 . S
C1094 C1103 1.390 . S
C1095 C1094 1.387 . S
C1095 C1097 1.387 . S
H1096 C1103 0.950 . S
C1097 C1095 1.387 . S
C1097 C1099 1.390 . S
C1097 H1101 0.950 . S
H1098 C1094 0.950 . S
C1099 C1097 1.390 . S
C1099 C1100 1.387 . S
C1099 H1102 0.950 . S
C1100 C1099 1.387 . S
C1100 C1103 1.387 . S
H1101 C1097 0.950 . S
H1102 C1099 0.950 . S
C1103 C1094 1.390 . S
C1103 H1096 0.950 . S
C1103 C1100 1.387 . S
C545 C275 2.841 . S
C550 C3 2.841 . S
C555 C37 2.842 . S
C560 C307 2.842 . S
C565 C343 2.842 . S
C570 C69 2.842 . S
C575 C103 2.842 . S
C580 C375 2.842 . S
C585 C137 2.841 . S
C590 C409 2.841 . S
C595 C171 2.842 . S
C600 C443 2.842 . S
C605 C477 2.841 . S
C610 C207 2.841 . S
C615 C511 2.841 . S
C620 C241 2.841 . S
C625 C1 2.012 . S
C630 C40 1.818 . S
C635 C96 1.817 . S
C640 C35 2.012 . S
C645 C130 1.818 . S
C650 C71 2.012 . S
C655 C6 1.817 . S
C660 C105 2.013 . S
C665 C244 1.814 . S
C670 C139 2.014 . S
C675 C164 1.816 . S
C680 C173 2.013 . S
C685 C205 2.013 . S
C690 C198 1.816 . S
C695 C239 2.013 . S
C700 C210 1.816 . S
C705 C334 1.816 . S
C710 C273 2.013 . S
C715 C309 2.013 . S
C720 C346 1.817 . S
C725 C402 1.817 . S
C730 C341 2.012 . S
C735 C278 1.815 . S
C740 C377 2.013 . S
C745 C538 1.816 . S
C750 C411 2.013 . S
C755 C436 1.814 . S
C760 C445 2.014 . S
C765 C470 1.815 . S
C770 C479 2.014 . S
C775 C504 1.814 . S
C780 C513 2.014 . S
C785 C328 0.787 1_554 S
C790 C28 0.789 . S
C795 C355 0.780 1_554 S
C800 C62 0.784 . S
C805 C396 0.782 1_554 S
C810 C74 0.779 . S
C815 C287 0.786 1_554 S
C820 C108 0.780 . S
C825 C532 0.789 . S
C830 C142 0.787 . S
C835 C430 0.787 . S
C840 C176 0.781 . S
C845 C232 0.780 . S
C850 C464 0.780 . S
C855 C498 0.780 . S
C860 C266 0.782 . S
C865 C300 0.784 . S
C870 C49 0.789 1_556 S
C875 C312 0.780 . S
C880 C90 0.781 1_556 S
C885 C368 0.784 . S
C890 C124 0.789 1_556 S
C895 C15 0.783 1_556 S
C900 C380 0.787 . S
C905 C414 0.782 . S
C910 C253 0.788 . S
C915 C158 0.788 . S
C920 C448 0.782 . S
C925 C482 0.783 . S
C930 C192 0.788 . S
C935 C516 0.781 . S
C940 C219 0.787 . S
C945 C185 1.353 . S
C950 C22 1.354 . S
C955 C226 1.354 . S
C960 C56 1.353 . S
C965 C260 1.356 . S
C970 C83 1.355 . S
C975 C151 1.353 . S
C980 C117 1.352 . S
C985 C457 1.356 . S
C990 C294 1.355 . S
C995 C321 1.352 . S
C1000 C491 1.353 . S
C1005 C362 1.354 . S
C1010 C525 1.353 . S
C1015 C389 1.352 . S
C1020 C423 1.353 . S
C1025 C85 2.027 . S
C1030 C17 2.027 . S
C1035 C51 2.026 . S
C1040 C119 2.026 . S
C1045 C221 2.027 . S
C1050 C153 2.027 . S
C1055 C255 2.026 . S
C1060 C187 2.026 . S
C1065 C289 2.027 . S
C1070 C357 2.027 . S
C1075 C391 2.027 . S
C1080 C323 2.027 . S
C1085 C493 2.026 . S
C1090 C425 2.026 . S
C1095 C527 2.026 . S
C1100 C459 2.026 . S
