# Generated by pormake.
# Topology uka, (4)-cn, num edge types: 1
# Building blocks:
#     Node 0, Type 0, BuildingBlock: GALJAG_clean_sbu_0, # of connection points: 4
#     Node 1, Type 0, BuildingBlock: GALJAG_clean_sbu_0, # of connection points: 4
#     Node 2, Type 0, BuildingBlock: GALJAG_clean_sbu_0, # of connection points: 4
#     Node 3, Type 0, BuildingBlock: GALJAG_clean_sbu_0, # of connection points: 4
#     Node 4, Type 0, BuildingBlock: GALJAG_clean_sbu_0, # of connection points: 4
#     Node 5, Type 0, BuildingBlock: GALJAG_clean_sbu_0, # of connection points: 4
#     Node 6, Type 0, BuildingBlock: GALJAG_clean_sbu_0, # of connection points: 4
#     Node 7, Type 0, BuildingBlock: GALJAG_clean_sbu_0, # of connection points: 4
#     Node 8, Type 0, BuildingBlock: GALJAG_clean_sbu_0, # of connection points: 4
#     Node 9, Type 0, BuildingBlock: GALJAG_clean_sbu_0, # of connection points: 4
#     Node 10, Type 0, BuildingBlock: GALJAG_clean_sbu_0, # of connection points: 4
#     Node 11, Type 0, BuildingBlock: GALJAG_clean_sbu_0, # of connection points: 4
#     Node 12, Type 0, BuildingBlock: GALJAG_clean_sbu_0, # of connection points: 4
#     Node 13, Type 0, BuildingBlock: GALJAG_clean_sbu_0, # of connection points: 4
#     Node 14, Type 0, BuildingBlock: GALJAG_clean_sbu_0, # of connection points: 4
#     Node 15, Type 0, BuildingBlock: GALJAG_clean_sbu_0, # of connection points: 4
#     Node 16, Type 0, BuildingBlock: GALJAG_clean_sbu_0, # of connection points: 4
#     Node 17, Type 0, BuildingBlock: GALJAG_clean_sbu_0, # of connection points: 4
#     Node 18, Type 0, BuildingBlock: GALJAG_clean_sbu_0, # of connection points: 4
#     Node 19, Type 0, BuildingBlock: GALJAG_clean_sbu_0, # of connection points: 4
#     Node 20, Type 0, BuildingBlock: GALJAG_clean_sbu_0, # of connection points: 4
#     Node 21, Type 0, BuildingBlock: GALJAG_clean_sbu_0, # of connection points: 4
#     Node 22, Type 0, BuildingBlock: GALJAG_clean_sbu_0, # of connection points: 4
#     Node 23, Type 0, BuildingBlock: GALJAG_clean_sbu_0, # of connection points: 4
#     Node 24, Type 0, BuildingBlock: GALJAG_clean_sbu_0, # of connection points: 4
#     Node 25, Type 0, BuildingBlock: GALJAG_clean_sbu_0, # of connection points: 4
#     Node 26, Type 0, BuildingBlock: GALJAG_clean_sbu_0, # of connection points: 4
#     Node 27, Type 0, BuildingBlock: GALJAG_clean_sbu_0, # of connection points: 4
#     Node 28, Type 0, BuildingBlock: GALJAG_clean_sbu_0, # of connection points: 4
#     Node 29, Type 0, BuildingBlock: GALJAG_clean_sbu_0, # of connection points: 4
#     Node 30, Type 0, BuildingBlock: GALJAG_clean_sbu_0, # of connection points: 4
#     Node 31, Type 0, BuildingBlock: GALJAG_clean_sbu_0, # of connection points: 4
#     Edge 32, Type (0, 0), BuildingBlock: EZIPEK_clean_linker_0, # of connection points: 2
#     Edge 33, Type (0, 0), BuildingBlock: EZIPEK_clean_linker_0, # of connection points: 2
#     Edge 34, Type (0, 0), BuildingBlock: EZIPEK_clean_linker_0, # of connection points: 2
#     Edge 35, Type (0, 0), BuildingBlock: EZIPEK_clean_linker_0, # of connection points: 2
#     Edge 36, Type (0, 0), BuildingBlock: EZIPEK_clean_linker_0, # of connection points: 2
#     Edge 37, Type (0, 0), BuildingBlock: EZIPEK_clean_linker_0, # of connection points: 2
#     Edge 38, Type (0, 0), BuildingBlock: EZIPEK_clean_linker_0, # of connection points: 2
#     Edge 39, Type (0, 0), BuildingBlock: EZIPEK_clean_linker_0, # of connection points: 2
#     Edge 40, Type (0, 0), BuildingBlock: EZIPEK_clean_linker_0, # of connection points: 2
#     Edge 41, Type (0, 0), BuildingBlock: EZIPEK_clean_linker_0, # of connection points: 2
#     Edge 42, Type (0, 0), BuildingBlock: EZIPEK_clean_linker_0, # of connection points: 2
#     Edge 43, Type (0, 0), BuildingBlock: EZIPEK_clean_linker_0, # of connection points: 2
#     Edge 44, Type (0, 0), BuildingBlock: EZIPEK_clean_linker_0, # of connection points: 2
#     Edge 45, Type (0, 0), BuildingBlock: EZIPEK_clean_linker_0, # of connection points: 2
#     Edge 46, Type (0, 0), BuildingBlock: EZIPEK_clean_linker_0, # of connection points: 2
#     Edge 47, Type (0, 0), BuildingBlock: EZIPEK_clean_linker_0, # of connection points: 2
#     Edge 48, Type (0, 0), BuildingBlock: EZIPEK_clean_linker_0, # of connection points: 2
#     Edge 49, Type (0, 0), BuildingBlock: EZIPEK_clean_linker_0, # of connection points: 2
#     Edge 50, Type (0, 0), BuildingBlock: EZIPEK_clean_linker_0, # of connection points: 2
#     Edge 51, Type (0, 0), BuildingBlock: EZIPEK_clean_linker_0, # of connection points: 2
#     Edge 52, Type (0, 0), BuildingBlock: EZIPEK_clean_linker_0, # of connection points: 2
#     Edge 53, Type (0, 0), BuildingBlock: EZIPEK_clean_linker_0, # of connection points: 2
#     Edge 54, Type (0, 0), BuildingBlock: EZIPEK_clean_linker_0, # of connection points: 2
#     Edge 55, Type (0, 0), BuildingBlock: EZIPEK_clean_linker_0, # of connection points: 2
#     Edge 56, Type (0, 0), BuildingBlock: EZIPEK_clean_linker_0, # of connection points: 2
#     Edge 57, Type (0, 0), BuildingBlock: EZIPEK_clean_linker_0, # of connection points: 2
#     Edge 58, Type (0, 0), BuildingBlock: EZIPEK_clean_linker_0, # of connection points: 2
#     Edge 59, Type (0, 0), BuildingBlock: EZIPEK_clean_linker_0, # of connection points: 2
#     Edge 60, Type (0, 0), BuildingBlock: EZIPEK_clean_linker_0, # of connection points: 2
#     Edge 61, Type (0, 0), BuildingBlock: EZIPEK_clean_linker_0, # of connection points: 2
#     Edge 62, Type (0, 0), BuildingBlock: EZIPEK_clean_linker_0, # of connection points: 2
#     Edge 63, Type (0, 0), BuildingBlock: EZIPEK_clean_linker_0, # of connection points: 2
#     Edge 64, Type (0, 0), BuildingBlock: EZIPEK_clean_linker_0, # of connection points: 2
#     Edge 65, Type (0, 0), BuildingBlock: EZIPEK_clean_linker_0, # of connection points: 2
#     Edge 66, Type (0, 0), BuildingBlock: EZIPEK_clean_linker_0, # of connection points: 2
#     Edge 67, Type (0, 0), BuildingBlock: EZIPEK_clean_linker_0, # of connection points: 2
#     Edge 68, Type (0, 0), BuildingBlock: EZIPEK_clean_linker_0, # of connection points: 2
#     Edge 69, Type (0, 0), BuildingBlock: EZIPEK_clean_linker_0, # of connection points: 2
#     Edge 70, Type (0, 0), BuildingBlock: EZIPEK_clean_linker_0, # of connection points: 2
#     Edge 71, Type (0, 0), BuildingBlock: EZIPEK_clean_linker_0, # of connection points: 2
#     Edge 72, Type (0, 0), BuildingBlock: EZIPEK_clean_linker_0, # of connection points: 2
#     Edge 73, Type (0, 0), BuildingBlock: EZIPEK_clean_linker_0, # of connection points: 2
#     Edge 74, Type (0, 0), BuildingBlock: EZIPEK_clean_linker_0, # of connection points: 2
#     Edge 75, Type (0, 0), BuildingBlock: EZIPEK_clean_linker_0, # of connection points: 2
#     Edge 76, Type (0, 0), BuildingBlock: EZIPEK_clean_linker_0, # of connection points: 2
#     Edge 77, Type (0, 0), BuildingBlock: EZIPEK_clean_linker_0, # of connection points: 2
#     Edge 78, Type (0, 0), BuildingBlock: EZIPEK_clean_linker_0, # of connection points: 2
#     Edge 79, Type (0, 0), BuildingBlock: EZIPEK_clean_linker_0, # of connection points: 2
#     Edge 80, Type (0, 0), BuildingBlock: EZIPEK_clean_linker_0, # of connection points: 2
#     Edge 81, Type (0, 0), BuildingBlock: EZIPEK_clean_linker_0, # of connection points: 2
#     Edge 82, Type (0, 0), BuildingBlock: EZIPEK_clean_linker_0, # of connection points: 2
#     Edge 83, Type (0, 0), BuildingBlock: EZIPEK_clean_linker_0, # of connection points: 2
#     Edge 84, Type (0, 0), BuildingBlock: EZIPEK_clean_linker_0, # of connection points: 2
#     Edge 85, Type (0, 0), BuildingBlock: EZIPEK_clean_linker_0, # of connection points: 2
#     Edge 86, Type (0, 0), BuildingBlock: EZIPEK_clean_linker_0, # of connection points: 2
#     Edge 87, Type (0, 0), BuildingBlock: EZIPEK_clean_linker_0, # of connection points: 2
#     Edge 88, Type (0, 0), BuildingBlock: EZIPEK_clean_linker_0, # of connection points: 2
#     Edge 89, Type (0, 0), BuildingBlock: EZIPEK_clean_linker_0, # of connection points: 2
#     Edge 90, Type (0, 0), BuildingBlock: EZIPEK_clean_linker_0, # of connection points: 2
#     Edge 91, Type (0, 0), BuildingBlock: EZIPEK_clean_linker_0, # of connection points: 2
#     Edge 92, Type (0, 0), BuildingBlock: EZIPEK_clean_linker_0, # of connection points: 2
#     Edge 93, Type (0, 0), BuildingBlock: EZIPEK_clean_linker_0, # of connection points: 2
#     Edge 94, Type (0, 0), BuildingBlock: EZIPEK_clean_linker_0, # of connection points: 2
#     Edge 95, Type (0, 0), BuildingBlock: EZIPEK_clean_linker_0, # of connection points: 2
# Relax obj value: 0.105
# Max RMSD: 0.149
# Mean RMSD: 0.149
data_MOF--net-uka--node1-GALJAG_clean_sbu_0--edge1-EZIPEK_clean_linker_0
_symmetry_space_group_name_H-M    P1
_symmetry_Int_Tables_number       1
_symmetry_cell_setting            triclinic
loop_
_symmetry_equiv_pos_as_xyz
'x, y, z'
_cell_length_a     41.64915
_cell_length_b     41.65911
_cell_length_c     34.118079
_cell_angle_alpha  89.995628
_cell_angle_beta   89.999324
_cell_angle_gamma 90.034988
loop_
_atom_site_label
_atom_site_type_symbol
_atom_site_fract_x
_atom_site_fract_y
_atom_site_fract_z
_atom_type_partial_charge
In0 In 0.11221 0.29707 0.27896 0.0
O1 O 0.16616 0.30269 0.27262 0.0
O2 O 0.14558 0.25817 0.2553 0.0
C3 C 0.1049 0.34379 0.332 0.0
C4 C 0.08494 0.31508 0.21053 0.0
C5 C 0.08815 0.25323 0.32873 0.0
O6 O 0.13225 0.33598 0.31927 0.0
O7 O 0.08146 0.33013 0.31554 0.0
O8 O 0.07312 0.26162 0.29827 0.0
O9 O 0.11524 0.26604 0.33326 0.0
C10 C 0.17072 0.27452 0.26033 0.0
O11 O 0.08315 0.28681 0.22351 0.0
O12 O 0.10068 0.33431 0.23165 0.0
In13 In 0.97708 0.87203 0.51596 0.0
O14 O 0.98726 0.847 0.4572 0.0
O15 O 0.93889 0.85853 0.4711 0.0
C16 C 0.02879 0.85723 0.55908 0.0
C17 C 0.98701 0.93455 0.50311 0.0
C18 C 0.93737 0.85046 0.57205 0.0
O19 O 0.01905 0.83912 0.5318 0.0
O20 O 0.01366 0.88319 0.56285 0.0
O21 O 0.93559 0.8789 0.55941 0.0
O22 O 0.95773 0.83297 0.55505 0.0
C23 C 0.95813 0.846 0.4471 0.0
O24 O 0.96112 0.92403 0.51748 0.0
O25 O 0.00705 0.91345 0.49288 0.0
In26 In 0.40159 0.73812 0.73825 0.0
O27 O 0.43359 0.74742 0.68433 0.0
O28 O 0.41663 0.69995 0.69415 0.0
C29 C 0.40543 0.79184 0.78154 0.0
C30 C 0.33858 0.73943 0.72301 0.0
C31 C 0.42785 0.70275 0.79487 0.0
O32 O 0.4182 0.79041 0.74788 0.0
O33 O 0.3904 0.76708 0.79177 0.0
O34 O 0.40001 0.69711 0.78202 0.0
O35 O 0.44307 0.72496 0.77789 0.0
C36 C 0.43311 0.71853 0.67308 0.0
O37 O 0.35177 0.71659 0.74102 0.0
O38 O 0.35738 0.76074 0.71018 0.0
In39 In 0.52331 0.10494 0.02416 0.0
O40 O 0.53922 0.05337 0.03634 0.0
O41 O 0.49734 0.06066 0.00173 0.0
C42 C 0.56164 0.13586 0.07464 0.0
C43 C 0.54313 0.12817 0.95386 0.0
C44 C 0.46949 0.12043 0.06371 0.0
O45 O 0.56377 0.10588 0.06948 0.0
O46 O 0.54173 0.15014 0.05285 0.0
O47 O 0.4715 0.1235 0.02694 0.0
O48 O 0.4939 0.10848 0.07976 0.0
C49 C 0.51586 0.04103 0.01831 0.0
O50 O 0.51496 0.13214 0.96649 0.0
O51 O 0.56125 0.11224 0.97619 0.0
In52 In 0.09075 0.71906 0.25316 0.0
O53 O 0.13927 0.69523 0.24377 0.0
O54 O 0.13709 0.73585 0.28162 0.0
C55 C 0.05801 0.68828 0.19702 0.0
C56 C 0.06024 0.70143 0.31977 0.0
C57 C 0.09201 0.77566 0.21562 0.0
O58 O 0.08407 0.67748 0.21053 0.0
O59 O 0.04788 0.71373 0.21275 0.0
O60 O 0.07992 0.77312 0.24952 0.0
O61 O 0.10379 0.75018 0.20202 0.0
C62 C 0.15431 0.71541 0.2643 0.0
O63 O 0.06045 0.73008 0.30774 0.0
O64 O 0.07548 0.68189 0.29861 0.0
In65 In 0.50767 0.86673 0.48208 0.0
O66 O 0.49913 0.83939 0.53968 0.0
O67 O 0.54676 0.85397 0.52609 0.0
C68 C 0.45463 0.85521 0.43972 0.0
C69 C 0.49872 0.92887 0.49832 0.0
C70 C 0.54673 0.84445 0.42575 0.0
O71 O 0.46435 0.83572 0.46556 0.0
O72 O 0.47034 0.88093 0.43735 0.0
O73 O 0.55044 0.87211 0.44025 0.0
O74 O 0.52467 0.8279 0.44098 0.0
C75 C 0.52832 0.83983 0.54977 0.0
O76 O 0.52088 0.91922 0.476 0.0
O77 O 0.48208 0.90713 0.51426 0.0
In78 In 0.37318 0.29148 0.72756 0.0
O79 O 0.39309 0.28398 0.78938 0.0
O80 O 0.38146 0.33168 0.77213 0.0
C81 C 0.39421 0.23876 0.69025 0.0
C82 C 0.30961 0.28256 0.73488 0.0
C83 C 0.40157 0.32879 0.67385 0.0
O84 O 0.40483 0.24658 0.72362 0.0
O85 O 0.37188 0.25614 0.67741 0.0
O86 O 0.37137 0.32689 0.67636 0.0
O87 O 0.41704 0.31381 0.6998 0.0
C88 C 0.3924 0.31336 0.79837 0.0
O89 O 0.32125 0.30751 0.71943 0.0
O90 O 0.32989 0.26268 0.74765 0.0
In91 In 0.98307 0.10268 0.98021 0.0
O92 O 0.96529 0.05187 0.9691 0.0
O93 O 0.00728 0.05852 0.00439 0.0
C94 C 0.94864 0.12356 0.91861 0.0
C95 C 0.96118 0.12533 0.04987 0.0
C96 C 0.03962 0.11723 0.94551 0.0
O97 O 0.948 0.09453 0.92919 0.0
O98 O 0.96543 0.14181 0.93974 0.0
O99 O 0.02001 0.13845 0.95657 0.0
O100 O 0.03216 0.08913 0.9553 0.0
C101 C 0.98822 0.0392 0.98782 0.0
O102 O 0.9904 0.12657 0.04041 0.0
O103 O 0.9431 0.1128 0.02462 0.0
In104 In 0.85271 0.74308 0.75265 0.0
O105 O 0.79878 0.7433 0.74683 0.0
O106 O 0.82065 0.7822 0.77792 0.0
C107 C 0.8693 0.69429 0.70585 0.0
C108 C 0.87002 0.72135 0.82393 0.0
C109 C 0.87659 0.78566 0.70122 0.0
O110 O 0.84026 0.6994 0.71472 0.0
O111 O 0.88943 0.71222 0.72277 0.0
O112 O 0.89088 0.77973 0.73321 0.0
O113 O 0.85018 0.77144 0.69664 0.0
C114 C 0.79527 0.76955 0.76481 0.0
O115 O 0.88053 0.74767 0.81053 0.0
O116 O 0.85091 0.70647 0.80177 0.0
In117 In 0.00817 0.13425 0.50201 0.0
O118 O -0.00299 0.16309 0.55787 0.0
O119 O 0.04368 0.14279 0.55152 0.0
C120 C 0.95464 0.13391 0.45821 0.0
C121 C 0.01093 0.07044 0.50798 0.0
C122 C 0.03933 0.17254 0.45213 0.0
O123 O 0.95379 0.14175 0.49411 0.0
O124 O 0.98191 0.12585 0.44572 0.0
O125 O 0.0496 0.14481 0.46051 0.0
O126 O 0.01468 0.18148 0.47067 0.0
C127 C 0.02484 0.1595 0.572 0.0
O128 O 0.03262 0.08634 0.49085 0.0
O129 O 0.98934 0.08682 0.52449 0.0
In130 In 0.62759 0.27303 0.23506 0.0
O131 O 0.67942 0.28827 0.22451 0.0
O132 O 0.6707 0.24477 0.25617 0.0
C133 C 0.59318 0.30892 0.18492 0.0
C134 C 0.61149 0.2938 0.30732 0.0
C135 C 0.61296 0.2213 0.19143 0.0
O136 O 0.62355 0.30856 0.1841 0.0
O137 O 0.58078 0.29396 0.21325 0.0
O138 O 0.59737 0.22782 0.22235 0.0
O139 O 0.63656 0.23931 0.18506 0.0
C140 C 0.69101 0.26345 0.24068 0.0
O141 O 0.60684 0.26508 0.29652 0.0
O142 O 0.62482 0.31164 0.28212 0.0
In143 In 0.45253 0.8515 0.99349 0.0
O144 O 0.4456 0.90484 0.00373 0.0
O145 O 0.49182 0.88478 0.01558 0.0
C146 C 0.42016 0.85262 0.92528 0.0
C147 C 0.42543 0.82791 0.05949 0.0
C148 C 0.49838 0.81732 0.95708 0.0
O149 O 0.43133 0.87778 0.94054 0.0
O150 O 0.42168 0.82804 0.94669 0.0
O151 O 0.47663 0.80389 0.97693 0.0
O152 O 0.49875 0.84748 0.95918 0.0
C153 C 0.4744 0.90953 0.01389 0.0
O154 O 0.4553 0.82752 0.05349 0.0
O155 O 0.409 0.84052 0.03248 0.0
In156 In 0.88034 0.25285 0.75856 0.0
O157 O 0.91509 0.25336 0.70645 0.0
O158 O 0.87912 0.28943 0.7085 0.0
C159 C 0.89876 0.19912 0.79542 0.0
C160 C 0.81819 0.23728 0.75027 0.0
C161 C 0.9046 0.2937 0.8119 0.0
O162 O 0.90488 0.20363 0.75951 0.0
O163 O 0.88254 0.22087 0.81166 0.0
O164 O 0.87577 0.2956 0.80058 0.0
O165 O 0.92117 0.27256 0.79492 0.0
C166 C 0.90308 0.27799 0.69073 0.0
O167 O 0.82738 0.2603 0.7715 0.0
O168 O 0.84013 0.22286 0.73185 0.0
In169 In 0.47601 0.12956 0.50947 0.0
O170 O 0.48106 0.14663 0.44562 0.0
O171 O 0.43407 0.14297 0.46946 0.0
C172 C 0.53429 0.14301 0.54022 0.0
C173 C 0.47812 0.06542 0.50307 0.0
C174 C 0.44529 0.15921 0.5684 0.0
O175 O 0.52272 0.15893 0.51201 0.0
O176 O 0.5165 0.1205 0.55179 0.0
O177 O 0.44284 0.12935 0.56281 0.0
O178 O 0.46194 0.17409 0.54342 0.0
C179 C 0.45126 0.15003 0.44031 0.0
O180 O 0.45469 0.07971 0.51875 0.0
O181 O 0.49965 0.08339 0.4891 0.0
In182 In 0.63042 0.74216 0.23962 0.0
O183 O 0.6845 0.74436 0.24048 0.0
O184 O 0.65927 0.78434 0.21584 0.0
C185 C 0.61636 0.69175 0.28524 0.0
C186 C 0.61062 0.72142 0.16889 0.0
C187 C 0.60767 0.78244 0.29436 0.0
O188 O 0.64501 0.69793 0.27554 0.0
O189 O 0.59544 0.70932 0.26933 0.0
O190 O 0.59368 0.77906 0.26159 0.0
O191 O 0.63345 0.76695 0.29822 0.0
C192 C 0.68586 0.77196 0.22523 0.0
O193 O 0.59659 0.74408 0.18667 0.0
O194 O 0.63479 0.70996 0.18618 0.0
In195 In 0.04536 0.84787 0.01237 0.0
O196 O 0.05536 0.90117 0.007 0.0
O197 O 0.0102 0.88346 0.98635 0.0
C198 C 0.07932 0.84392 0.07893 0.0
C199 C 0.07147 0.8233 0.94625 0.0
C200 C 0.99519 0.8207 0.0493 0.0
O201 O 0.07137 0.87059 0.06446 0.0
O202 O 0.07335 0.81989 0.0577 0.0
O203 O 0.01492 0.80408 0.02987 0.0
O204 O -0.00064 0.85051 0.04718 0.0
C205 C 0.0281 0.90737 0.99264 0.0
O206 O 0.04159 0.82462 0.95194 0.0
O207 O 0.08829 0.83435 0.97389 0.0
In208 In 0.60565 0.76153 0.76018 0.0
O209 O 0.59027 0.75579 0.69575 0.0
O210 O 0.58096 0.80022 0.72397 0.0
C211 C 0.61134 0.6976 0.77352 0.0
C212 C 0.66396 0.78861 0.7604 0.0
C213 C 0.57437 0.7756 0.82686 0.0
O214 O 0.58458 0.71076 0.76649 0.0
O215 O 0.63469 0.71663 0.77148 0.0
O216 O 0.6036 0.76796 0.82626 0.0
O217 O 0.56081 0.77617 0.79377 0.0
C218 C 0.57915 0.7839 0.69296 0.0
O219 O 0.64114 0.79984 0.7804 0.0
O220 O 0.6566 0.76543 0.7384 0.0
In221 In 0.46322 0.37935 0.01752 0.0
O222 O 0.45396 0.43325 0.01725 0.0
O223 O 0.49894 0.41604 0.99551 0.0
C224 C 0.42197 0.35726 0.07142 0.0
C225 C 0.44127 0.3595 0.94715 0.0
C226 C 0.51253 0.35807 0.06082 0.0
O227 O 0.42692 0.387 0.06719 0.0
O228 O 0.43585 0.33938 0.04695 0.0
O229 O 0.50402 0.34387 0.02968 0.0
O230 O 0.49732 0.38336 0.06861 0.0
C231 C 0.48136 0.43979 0.00344 0.0
O232 O 0.46953 0.35377 0.95866 0.0
O233 O 0.42424 0.37543 0.97076 0.0
In234 In 0.88246 0.20179 0.26007 0.0
O235 O 0.82822 0.20057 0.26409 0.0
O236 O 0.84874 0.23612 0.22721 0.0
C237 C 0.8926 0.16002 0.31876 0.0
C238 C 0.90822 0.17611 0.19423 0.0
C239 C 0.90566 0.25147 0.30175 0.0
O240 O 0.86545 0.16295 0.30277 0.0
O241 O 0.91494 0.17572 0.30277 0.0
O242 O 0.91731 0.2441 0.26876 0.0
O243 O 0.88176 0.23507 0.31199 0.0
C244 C 0.82364 0.22441 0.24214 0.0
O245 O 0.91798 0.20205 0.20907 0.0
O246 O 0.88557 0.16277 0.21265 0.0
In247 In 0.98664 0.62363 0.52983 0.0
O248 O 0.99448 0.57006 0.53042 0.0
O249 O 0.95388 0.58796 0.49885 0.0
C250 C 0.03527 0.64106 0.57659 0.0
C251 C 0.00358 0.65049 0.4609 0.0
C252 C 0.94045 0.6381 0.58188 0.0
O253 O 0.03239 0.61253 0.56456 0.0
O254 O 0.01441 0.6605 0.56422 0.0
O255 O 0.94697 0.65646 0.55343 0.0
O256 O 0.95606 0.61227 0.58272 0.0
C257 C 0.96976 0.56395 0.51039 0.0
O258 O 0.97604 0.65466 0.4756 0.0
O259 O 0.02205 0.63267 0.4804 0.0
In260 In 0.61963 0.20688 0.74273 0.0
O261 O 0.59249 0.21219 0.80128 0.0
O262 O 0.60567 0.16534 0.78375 0.0
C263 C 0.61055 0.2667 0.71485 0.0
C264 C 0.68363 0.20623 0.7504 0.0
C265 C 0.60199 0.17981 0.67414 0.0
O266 O 0.58922 0.24529 0.71305 0.0
O267 O 0.63482 0.25929 0.73487 0.0
O268 O 0.6304 0.1783 0.68683 0.0
O269 O 0.58228 0.1935 0.69669 0.0
C270 C 0.59247 0.18267 0.80926 0.0
O271 O 0.66868 0.18353 0.73389 0.0
O272 O 0.66624 0.22796 0.76497 0.0
In273 In 0.01291 0.37821 0.99207 0.0
O274 O 0.00299 0.35139 0.04966 0.0
O275 O 0.04809 0.37497 0.04273 0.0
C276 C 0.96972 0.35711 0.93957 0.0
C277 C 0.99162 0.43795 0.00386 0.0
C278 C 0.06052 0.35608 0.94674 0.0
O279 O 0.97438 0.34263 0.97173 0.0
O280 O 0.98526 0.38287 0.93538 0.0
O281 O 0.05782 0.38576 0.95397 0.0
O282 O 0.0406 0.33831 0.96419 0.0
C283 C 0.03016 0.358 0.0641 0.0
O284 O 0.01943 0.43239 0.9906 0.0
O285 O 0.97517 0.41349 0.01245 0.0
In286 In 0.87486 0.77323 0.23868 0.0
O287 O 0.839 0.80981 0.21481 0.0
O288 O 0.82313 0.776 0.25749 0.0
C289 C 0.90963 0.7893 0.17531 0.0
C290 C 0.90305 0.79202 0.30627 0.0
C291 C 0.86577 0.71109 0.22034 0.0
O292 O 0.88032 0.78199 0.1732 0.0
O293 O 0.92118 0.78955 0.20953 0.0
O294 O 0.89199 0.72541 0.21472 0.0
O295 O 0.84561 0.72663 0.2402 0.0
C296 C 0.81582 0.79808 0.23386 0.0
O297 O 0.90069 0.7628 0.29681 0.0
O298 O 0.89098 0.81145 0.28212 0.0
In299 In 0.50723 0.62738 0.47215 0.0
O300 O 0.51734 0.66471 0.52027 0.0
O301 O 0.47493 0.63628 0.52477 0.0
C302 C 0.55019 0.63879 0.4151 0.0
C303 C 0.52756 0.56951 0.49542 0.0
C304 C 0.45709 0.6435 0.42713 0.0
O305 O 0.54776 0.65698 0.4447 0.0
O306 O 0.53212 0.61456 0.41549 0.0
O307 O 0.4602 0.61531 0.44031 0.0
O308 O 0.47841 0.66316 0.43767 0.0
C309 C 0.49185 0.65852 0.53893 0.0
O310 O 0.50063 0.57372 0.47924 0.0
O311 O 0.54396 0.59456 0.5012 0.0
In312 In 0.36375 0.21777 0.23068 0.0
O313 O 0.3988 0.22361 0.28195 0.0
O314 O 0.37146 0.1805 0.27914 0.0
C315 C 0.37646 0.27147 0.18901 0.0
C316 C 0.30143 0.22989 0.24548 0.0
C317 C 0.38825 0.17654 0.17825 0.0
O318 O 0.38287 0.26946 0.22517 0.0
O319 O 0.36304 0.24703 0.17491 0.0
O320 O 0.35994 0.17335 0.19114 0.0
O321 O 0.40412 0.19945 0.19277 0.0
C322 C 0.39238 0.19673 0.29714 0.0
O323 O 0.31016 0.20906 0.22088 0.0
O324 O 0.3239 0.24327 0.26402 0.0
In325 In 0.54956 0.62665 0.96143 0.0
O326 O 0.54587 0.66772 0.00565 0.0
O327 O 0.58325 0.63374 0.01398 0.0
C328 C 0.50124 0.65371 0.92157 0.0
C329 C 0.53097 0.56782 0.98342 0.0
C330 C 0.58852 0.62244 0.89795 0.0
O331 O 0.49663 0.6312 0.94555 0.0
O332 O 0.52966 0.66389 0.91952 0.0
O333 O 0.56519 0.60392 0.90401 0.0
O334 O 0.59343 0.64215 0.9255 0.0
C335 C 0.56936 0.65873 0.02613 0.0
O336 O 0.5585 0.57308 0.96928 0.0
O337 O 0.51369 0.5923 0.9885 0.0
In338 In 0.13752 0.75964 0.72407 0.0
O339 O 0.1256 0.74724 0.7882 0.0
O340 O 0.12394 0.79609 0.77088 0.0
C341 C 0.11548 0.70892 0.68341 0.0
C342 C 0.20129 0.7546 0.72585 0.0
C343 C 0.11138 0.801 0.67324 0.0
O344 O 0.1002 0.72072 0.71194 0.0
O345 O 0.14286 0.72088 0.67765 0.0
O346 O 0.14106 0.8015 0.68072 0.0
O347 O 0.09522 0.7809 0.69255 0.0
C348 C 0.12009 0.77594 0.79795 0.0
O349 O 0.18736 0.77961 0.71379 0.0
O350 O 0.18316 0.7325 0.73822 0.0
In351 In 0.97427 0.36818 0.48524 0.0
O352 O 0.94026 0.41025 0.47641 0.0
O353 O 0.98081 0.41655 0.51397 0.0
C354 C 0.95288 0.33317 0.42487 0.0
C355 C 0.95519 0.33793 0.55128 0.0
C356 C 0.03355 0.37866 0.45558 0.0
O357 O 0.94283 0.36114 0.43187 0.0
O358 O 0.97334 0.32246 0.44884 0.0
O359 O 0.02839 0.35755 0.48154 0.0
O360 O 0.00872 0.39342 0.44492 0.0
C361 C 0.95695 0.42904 0.49708 0.0
O362 O 0.9836 0.34788 0.54678 0.0
O363 O 0.93661 0.34322 0.52289 0.0
In364 In 0.35175 0.75621 0.27427 0.0
O365 O 0.37401 0.74733 0.21356 0.0
O366 O 0.35836 0.79456 0.22739 0.0
C367 C 0.37581 0.70866 0.31879 0.0
C368 C 0.28993 0.74066 0.26558 0.0
C369 C 0.37327 0.80077 0.32447 0.0
O370 O 0.38981 0.7183 0.2881 0.0
O371 O 0.34885 0.7213 0.32524 0.0
O372 O 0.34368 0.79799 0.31709 0.0
O373 O 0.39142 0.78237 0.3053 0.0
C374 C 0.37148 0.77623 0.20281 0.0
O375 O 0.29875 0.76691 0.28055 0.0
O376 O 0.31222 0.72257 0.25372 0.0
In377 In 0.9226 0.62601 0.03413 0.0
O378 O 0.9118 0.57245 0.02928 0.0
O379 O 0.95776 0.58909 0.0108 0.0
C380 C 0.87949 0.63727 0.09106 0.0
C381 C 0.90432 0.65853 0.96913 0.0
C382 C 0.97428 0.64242 0.07717 0.0
O383 O 0.88504 0.60925 0.07872 0.0
O384 O 0.89332 0.65942 0.07224 0.0
O385 O 0.97469 0.64376 0.0402 0.0
O386 O 0.94842 0.63253 0.09169 0.0
C387 C 0.93935 0.56557 0.01644 0.0
O388 O 0.92577 0.6686 0.99204 0.0
O389 O 0.89168 0.63221 0.97896 0.0
In390 In 0.11907 0.22724 0.77577 0.0
O391 O 0.0798 0.2356 0.72948 0.0
O392 O 0.108 0.19328 0.72494 0.0
C393 C 0.10842 0.2748 0.82742 0.0
C394 C 0.17696 0.24619 0.75016 0.0
C395 C 0.1071 0.18009 0.82747 0.0
O396 O 0.09025 0.27034 0.7982 0.0
O397 O 0.13192 0.2559 0.82983 0.0
O398 O 0.13446 0.18356 0.81213 0.0
O399 O 0.08582 0.19925 0.81557 0.0
C400 C 0.08538 0.2099 0.71111 0.0
O401 O 0.1723 0.21901 0.76545 0.0
O402 O 0.15215 0.2631 0.74543 0.0
In403 In 0.55127 0.37297 0.52581 0.0
O404 O 0.54106 0.35009 0.46583 0.0
O405 O 0.5898 0.35569 0.48247 0.0
C406 C 0.49274 0.36668 0.55916 0.0
C407 C 0.55586 0.43641 0.51565 0.0
C408 C 0.58257 0.34836 0.5877 0.0
O409 O 0.50416 0.39346 0.54951 0.0
O410 O 0.50932 0.34289 0.54872 0.0
O411 O 0.56403 0.332 0.56644 0.0
O412 O 0.58698 0.37697 0.57676 0.0
C413 C 0.57016 0.34619 0.45688 0.0
O414 O 0.5736 0.42157 0.53964 0.0
O415 O 0.53706 0.41914 0.49564 0.0
C416 C 0.0559 0.17985 0.38184 0.0
C417 C 0.05315 0.19238 0.42051 0.0
C418 C 0.06739 0.2457 0.39649 0.0
C419 C 0.07416 0.23242 0.35916 0.0
N420 N 0.07914 0.1862 0.31715 0.0
N421 N 0.06206 0.23586 0.46599 0.0
C422 C 0.06963 0.19928 0.352 0.0
C423 C 0.06053 0.22495 0.42824 0.0
N424 N 0.04385 0.15018 0.37299 0.0
N425 N 0.06622 0.27822 0.40126 0.0
H426 H 0.05826 0.22104 0.4902 0.0
H427 H 0.07034 0.25868 0.47338 0.0
H428 H 0.06989 0.29412 0.37814 0.0
H429 H 0.05817 0.28924 0.42684 0.0
H430 H 0.0421 0.14149 0.34444 0.0
H431 H 0.03273 0.13535 0.39349 0.0
H432 H 0.07979 0.16155 0.31203 0.0
H433 H 0.08877 0.19985 0.29435 0.0
C434 C 0.0836 0.83653 0.57638 0.0
C435 C 0.05269 0.84684 0.58839 0.0
C436 C 0.06745 0.83819 0.65686 0.0
C437 C 0.09558 0.82223 0.64453 0.0
N438 N 0.13088 0.80527 0.59221 0.0
N439 N 0.01318 0.85236 0.64015 0.0
C440 C 0.10416 0.82153 0.60421 0.0
C441 C 0.04414 0.84675 0.62871 0.0
N442 N 0.09346 0.84161 0.53868 0.0
N443 N 0.06305 0.84505 0.69566 0.0
H444 H 0.99456 0.85665 0.62055 0.0
H445 H 0.00522 0.8492 0.66885 0.0
H446 H 0.08023 0.83954 0.71692 0.0
H447 H 0.04425 0.85924 0.70595 0.0
H448 H 0.11684 0.83749 0.52914 0.0
H449 H 0.079 0.85276 0.51775 0.0
H450 H 0.13591 0.80039 0.56291 0.0
H451 H 0.14722 0.79493 0.61154 0.0
C452 C 0.38401 0.84168 0.86826 0.0
C453 C 0.41488 0.84935 0.88261 0.0
C454 C 0.43978 0.82813 0.82296 0.0
C455 C 0.40893 0.81878 0.80947 0.0
N456 N 0.35165 0.82563 0.81235 0.0
N457 N 0.47065 0.86035 0.86839 0.0
C458 C 0.38098 0.82887 0.82983 0.0
C459 C 0.4422 0.84644 0.85793 0.0
N460 N 0.35789 0.84546 0.89199 0.0
N461 N 0.46688 0.81726 0.80466 0.0
H462 H 0.47338 0.87409 0.89363 0.0
H463 H 0.49059 0.86121 0.85 0.0
H464 H 0.46662 0.8044 0.77854 0.0
H465 H 0.48977 0.8193 0.81669 0.0
H466 H 0.33509 0.83687 0.88512 0.0
H467 H 0.3595 0.85628 0.91953 0.0
H468 H 0.33041 0.83439 0.82436 0.0
H469 H 0.34916 0.81675 0.78388 0.0
C470 C 0.41313 0.12674 0.14999 0.0
C471 C 0.40102 0.15812 0.14476 0.0
C472 C 0.42961 0.16335 0.08262 0.0
C473 C 0.44198 0.1318 0.08752 0.0
N474 N 0.4375 0.08023 0.11932 0.0
N475 N 0.38771 0.20086 0.1003 0.0
C476 C 0.43106 0.11238 0.11915 0.0
C477 C 0.40588 0.17454 0.10899 0.0
N478 N 0.40872 0.11127 0.18487 0.0
N479 N 0.4421 0.18376 0.05517 0.0
H480 H 0.36913 0.20851 0.1185 0.0
H481 H 0.38839 0.21236 0.07319 0.0
H482 H 0.46056 0.17768 0.03605 0.0
H483 H 0.43618 0.20804 0.05388 0.0
H484 H 0.42024 0.08988 0.19211 0.0
H485 H 0.39484 0.12087 0.20747 0.0
H486 H 0.42811 0.06442 0.14001 0.0
H487 H 0.44947 0.06886 0.0963 0.0
C488 C 0.11968 0.812 0.16934 0.0
C489 C 0.09158 0.8051 0.19128 0.0
C490 C 0.06068 0.84014 0.14788 0.0
C491 C 0.08662 0.83957 0.12092 0.0
N492 N 0.14181 0.82804 0.10646 0.0
N493 N 0.03501 0.8142 0.20304 0.0
C494 C 0.11669 0.82697 0.13215 0.0
C495 C 0.06215 0.82047 0.18186 0.0
N496 N 0.14897 0.80355 0.18408 0.0
N497 N 0.03428 0.85859 0.14033 0.0
H498 H 0.03497 0.80139 0.22919 0.0
H499 H 0.01204 0.82055 0.1938 0.0
H500 H 0.03235 0.87316 0.11566 0.0
H501 H 0.01572 0.86203 0.16035 0.0
H502 H 0.17068 0.80956 0.17085 0.0
H503 H 0.1514 0.79306 0.21174 0.0
H504 H 0.16341 0.81601 0.11088 0.0
H505 H 0.14037 0.84029 0.07981 0.0
C506 C 0.414 0.84099 0.34176 0.0
C507 C 0.38695 0.82312 0.35365 0.0
C508 C 0.39958 0.83511 0.42229 0.0
C509 C 0.43009 0.84658 0.41025 0.0
N510 N 0.46826 0.85581 0.35764 0.0
N511 N 0.35279 0.80331 0.40559 0.0
C512 C 0.43772 0.84887 0.36972 0.0
C513 C 0.37893 0.82071 0.39403 0.0
N514 N 0.41717 0.84987 0.3034 0.0
N515 N 0.39024 0.83839 0.46047 0.0
H516 H 0.33639 0.79345 0.38597 0.0
H517 H 0.34828 0.79717 0.43467 0.0
H518 H 0.40474 0.84919 0.48164 0.0
H519 H 0.36714 0.83322 0.47032 0.0
H520 H 0.43522 0.86519 0.29349 0.0
H521 H 0.39953 0.84473 0.28257 0.0
H522 H 0.47548 0.85446 0.32845 0.0
H523 H 0.48739 0.85933 0.37676 0.0
C524 C 0.38846 0.19094 0.64689 0.0
C525 C 0.40882 0.21373 0.66525 0.0
C526 C 0.45426 0.19358 0.62715 0.0
C527 C 0.43276 0.17536 0.60381 0.0
N528 N 0.37862 0.15834 0.58934 0.0
N529 N 0.46076 0.2399 0.66875 0.0
C530 C 0.39965 0.17408 0.61335 0.0
C531 C 0.44177 0.2157 0.65473 0.0
N532 N 0.35858 0.18523 0.66188 0.0
N533 N 0.48668 0.18929 0.62356 0.0
H534 H 0.45289 0.25722 0.6885 0.0
H535 H 0.48375 0.24447 0.65805 0.0
H536 H 0.49675 0.17245 0.6046 0.0
H537 H 0.50333 0.19977 0.64245 0.0
H538 H 0.34361 0.16695 0.65188 0.0
H539 H 0.35019 0.19665 0.68711 0.0
H540 H 0.35379 0.15967 0.59254 0.0
H541 H 0.38578 0.14603 0.56421 0.0
C542 C 0.08069 0.1294 0.84884 0.0
C543 C 0.09997 0.15622 0.85818 0.0
C544 C 0.08801 0.14978 0.92781 0.0
C545 C 0.06627 0.1248 0.91819 0.0
N546 N 0.05129 0.08307 0.87206 0.0
N547 N 0.13144 0.18447 0.9061 0.0
C548 C 0.06592 0.11179 0.87959 0.0
C549 C 0.10694 0.1638 0.89767 0.0
N550 N 0.07551 0.12168 0.81043 0.0
N551 N 0.08965 0.16072 0.96551 0.0
H552 H 0.14559 0.19485 0.88427 0.0
H553 H 0.13941 0.18921 0.93443 0.0
H554 H 0.07768 0.14937 0.98855 0.0
H555 H 0.10193 0.18144 0.97368 0.0
H556 H 0.05811 0.10542 0.80114 0.0
H557 H 0.08803 0.13272 0.7876 0.0
H558 H 0.05267 0.07141 0.84513 0.0
H559 H 0.04042 0.06906 0.89346 0.0
C560 C 0.91776 0.85185 0.64223 0.0
C561 C 0.91746 0.83761 0.60432 0.0
C562 C 0.89343 0.78905 0.63115 0.0
C563 C 0.89134 0.80386 0.66856 0.0
N564 N 0.89565 0.85163 0.70809 0.0
N565 N 0.89624 0.79707 0.56116 0.0
C566 C 0.90176 0.836 0.6737 0.0
C567 C 0.90239 0.80764 0.59834 0.0
N568 N 0.93448 0.87956 0.64878 0.0
N569 N 0.8889 0.75674 0.62719 0.0
H570 H 0.90143 0.81083 0.53639 0.0
H571 H 0.88273 0.77656 0.55524 0.0
H572 H 0.88462 0.74171 0.65094 0.0
H573 H 0.89325 0.74439 0.60116 0.0
H574 H 0.93874 0.88875 0.67669 0.0
H575 H 0.94619 0.89226 0.6267 0.0
H576 H 0.89969 0.87609 0.71204 0.0
H577 H 0.88392 0.84075 0.73162 0.0
C578 C 0.92527 0.11037 0.40209 0.0
C579 C 0.92708 0.13506 0.43068 0.0
C580 C 0.89079 0.16765 0.39084 0.0
C581 C 0.89675 0.14697 0.35866 0.0
N582 N 0.91734 0.09728 0.33342 0.0
N583 N 0.90979 0.18739 0.45328 0.0
C584 C 0.91284 0.11756 0.36436 0.0
C585 C 0.90857 0.16342 0.426 0.0
N586 N 0.93585 0.08028 0.41124 0.0
N587 N 0.86856 0.19158 0.38749 0.0
H588 H 0.92096 0.18505 0.48036 0.0
H589 H 0.90073 0.21034 0.44834 0.0
H590 H 0.85475 0.19474 0.36233 0.0
H591 H 0.86131 0.20586 0.41093 0.0
H592 H 0.93346 0.06061 0.39263 0.0
H593 H 0.94402 0.07457 0.43934 0.0
H594 H 0.93206 0.0771 0.33462 0.0
H595 H 0.90719 0.1016 0.30593 0.0
C596 C 0.59711 0.18101 0.09319 0.0
C597 C 0.57983 0.15355 0.10491 0.0
C598 C 0.59068 0.16679 0.17368 0.0
C599 C 0.60243 0.19729 0.16186 0.0
N600 N 0.60991 0.23571 0.10874 0.0
N601 N 0.55673 0.12163 0.15698 0.0
C602 C 0.60408 0.20503 0.12115 0.0
C603 C 0.57585 0.14653 0.14537 0.0
N604 N 0.60703 0.18406 0.05521 0.0
N605 N 0.59452 0.15666 0.21147 0.0
H606 H 0.54545 0.10611 0.13739 0.0
H607 H 0.5501 0.11791 0.18608 0.0
H608 H 0.60646 0.17021 0.23263 0.0
H609 H 0.58898 0.13345 0.22064 0.0
H610 H 0.62214 0.20245 0.04575 0.0
H611 H 0.60328 0.16603 0.03447 0.0
H612 H 0.60807 0.24259 0.07945 0.0
H613 H 0.61248 0.25527 0.12741 0.0
C614 C 0.50594 0.7805 0.89909 0.0
C615 C 0.51935 0.80027 0.92892 0.0
C616 C 0.56979 0.80333 0.89235 0.0
C617 C 0.55686 0.78225 0.86368 0.0
N618 N 0.51679 0.74267 0.84709 0.0
N619 N 0.56655 0.82257 0.95925 0.0
C620 C 0.52627 0.76821 0.86942 0.0
C621 C 0.55221 0.80893 0.92732 0.0
N622 N 0.47363 0.77517 0.897 0.0
N623 N 0.59761 0.81978 0.88531 0.0
H624 H 0.55429 0.82638 0.98554 0.0
H625 H 0.59117 0.82681 0.96098 0.0
H626 H 0.61056 0.81789 0.85931 0.0
H627 H 0.60613 0.83784 0.9037 0.0
H628 H 0.46274 0.765 0.87245 0.0
H629 H 0.45726 0.78317 0.91774 0.0
H630 H 0.49564 0.73006 0.85229 0.0
H631 H 0.53165 0.73179 0.82638 0.0
C632 C 0.88975 0.15449 0.84253 0.0
C633 C 0.91147 0.17207 0.81872 0.0
C634 C 0.95661 0.14679 0.85241 0.0
C635 C 0.9351 0.13501 0.88117 0.0
N636 N 0.88109 0.12654 0.90407 0.0
N637 N 0.96618 0.1862 0.80185 0.0
C638 C 0.90153 0.13796 0.87602 0.0
C639 C 0.94512 0.16805 0.82319 0.0
N640 N 0.85792 0.15371 0.83283 0.0
N641 N 0.98805 0.13749 0.85314 0.0
H642 H 0.95916 0.20213 0.77998 0.0
H643 H 0.99072 0.18713 0.80767 0.0
H644 H -0.00317 0.12142 0.87397 0.0
H645 H 0.00438 0.14285 0.83096 0.0
H646 H 0.84108 0.13942 0.84713 0.0
H647 H 0.84902 0.16507 0.80782 0.0
H648 H 0.85653 0.13122 0.90429 0.0
H649 H 0.88903 0.11372 0.92848 0.0
C650 C 0.58477 0.19413 0.606 0.0
C651 C 0.59308 0.17009 0.63384 0.0
C652 C 0.57762 0.12837 0.58716 0.0
C653 C 0.56321 0.15223 0.5634 0.0
N654 N 0.56677 0.20657 0.53992 0.0
N655 N 0.60016 0.11432 0.65048 0.0
C656 C 0.57101 0.1849 0.56951 0.0
C657 C 0.59111 0.13713 0.62389 0.0
N658 N 0.58954 0.22574 0.61493 0.0
N659 N 0.57882 0.09753 0.57371 0.0
H660 H 0.61059 0.11999 0.6774 0.0
H661 H 0.59594 0.08988 0.64685 0.0
H662 H 0.57054 0.09148 0.54576 0.0
H663 H 0.59077 0.07897 0.58796 0.0
H664 H 0.58041 0.24479 0.59869 0.0
H665 H 0.60236 0.23292 0.6396 0.0
H666 H 0.57322 0.23065 0.54164 0.0
H667 H 0.56066 0.19959 0.51158 0.0
C668 C 0.58924 0.78322 0.36413 0.0
C669 C 0.59323 0.79971 0.32798 0.0
C670 C 0.56795 0.84746 0.35643 0.0
C671 C 0.56636 0.83152 0.39326 0.0
N672 N 0.58367 0.78779 0.43439 0.0
N673 N 0.59245 0.84947 0.29193 0.0
C674 C 0.57968 0.80053 0.39778 0.0
C675 C 0.58438 0.83246 0.32473 0.0
N676 N 0.59261 0.75063 0.36597 0.0
N677 N 0.5525 0.87604 0.35099 0.0
H678 H 0.60468 0.83931 0.26832 0.0
H679 H 0.58959 0.87424 0.28964 0.0
H680 H 0.54036 0.88806 0.37327 0.0
H681 H 0.54963 0.88666 0.32358 0.0
H682 H 0.58678 0.73716 0.3907 0.0
H683 H 0.59761 0.73661 0.34153 0.0
H684 H 0.59606 0.76648 0.43953 0.0
H685 H 0.57775 0.80027 0.45992 0.0
C686 C 0.91996 0.81548 0.10991 0.0
C687 C 0.92976 0.79419 0.14013 0.0
C688 C 0.98188 0.78735 0.10847 0.0
C689 C 0.97155 0.80716 0.07703 0.0
N690 N 0.92824 0.83341 0.04304 0.0
N691 N 0.96576 0.75191 0.16077 0.0
C692 C 0.93966 0.81896 0.07618 0.0
C693 C 0.95937 0.77761 0.13711 0.0
N694 N 0.893 0.83382 0.1143 0.0
N695 N 0.0135 0.77953 0.11291 0.0
H696 H 0.94934 0.74295 0.18106 0.0
H697 H 0.98584 0.73728 0.15704 0.0
H698 H 0.03127 0.78571 0.09293 0.0
H699 H 0.02244 0.76898 0.13837 0.0
H700 H 0.8867 0.85209 0.09494 0.0
H701 H 0.87846 0.833 0.13914 0.0
H702 H 0.90427 0.8399 0.03938 0.0
H703 H 0.94208 0.83584 0.0177 0.0
C704 C 0.63293 0.64307 0.8548 0.0
C705 C 0.60328 0.62674 0.85844 0.0
C706 C 0.58768 0.64405 0.79274 0.0
C707 C 0.61402 0.66555 0.79289 0.0
N708 N 0.66992 0.66998 0.81073 0.0
N709 N 0.56398 0.59646 0.82189 0.0
C710 C 0.63958 0.65995 0.81955 0.0
C711 C 0.58425 0.6221 0.82439 0.0
N712 N 0.65421 0.64285 0.88518 0.0
N713 N 0.56599 0.64498 0.76281 0.0
H714 H 0.56381 0.57831 0.84292 0.0
H715 H 0.55078 0.59099 0.79685 0.0
H716 H 0.57003 0.65848 0.73751 0.0
H717 H 0.5442 0.63271 0.76337 0.0
H718 H 0.67449 0.65747 0.88625 0.0
H719 H 0.65091 0.62818 0.90968 0.0
H720 H 0.68977 0.66518 0.82834 0.0
H721 H 0.67577 0.67913 0.78318 0.0
C722 C 0.57907 0.35242 0.13638 0.0
C723 C 0.57338 0.32135 0.15205 0.0
C724 C 0.52751 0.31456 0.10774 0.0
C725 C 0.53509 0.34418 0.08957 0.0
N726 N 0.57095 0.38913 0.08201 0.0
N727 N 0.54669 0.26975 0.14538 0.0
C728 C 0.5618 0.36246 0.10251 0.0
C729 C 0.54891 0.30153 0.13569 0.0
N730 N 0.59967 0.37294 0.15495 0.0
N731 N 0.49902 0.29946 0.10004 0.0
H732 H 0.562 0.25839 0.16497 0.0
H733 H 0.5318 0.25369 0.13062 0.0
H734 H 0.48234 0.30783 0.07979 0.0
H735 H 0.49053 0.28018 0.11653 0.0
H736 H 0.60228 0.39698 0.14721 0.0
H737 H 0.61194 0.36688 0.18054 0.0
H738 H 0.59205 0.40174 0.08767 0.0
H739 H 0.55893 0.39694 0.05692 0.0
C740 C 0.89762 0.29627 0.34888 0.0
C741 C 0.91924 0.27609 0.3283 0.0
C742 C 0.9638 0.29889 0.36592 0.0
C743 C 0.94142 0.31434 0.39097 0.0
N744 N 0.88612 0.32251 0.41028 0.0
N745 N 0.973 0.25415 0.32248 0.0
C746 C 0.90804 0.31183 0.38346 0.0
C747 C 0.95247 0.27641 0.33788 0.0
N748 N 0.86719 0.30094 0.3351 0.0
N749 N 0.99574 0.30626 0.368 0.0
H750 H 0.96592 0.23633 0.30292 0.0
H751 H -0.00341 0.25147 0.33214 0.0
H752 H 0.00496 0.32341 0.38724 0.0
H753 H 0.01245 0.29794 0.34766 0.0
H754 H 0.85142 0.31768 0.34711 0.0
H755 H 0.8591 0.29076 0.30902 0.0
H756 H 0.86156 0.31821 0.40768 0.0
H757 H 0.89251 0.33247 0.4372 0.0
C758 C 0.90781 0.65322 0.68415 0.0
C759 C 0.88014 0.67138 0.67543 0.0
C760 C 0.88729 0.65887 0.60572 0.0
C761 C 0.91859 0.64738 0.61413 0.0
N762 N 0.96057 0.63815 0.6621 0.0
N763 N 0.84292 0.69198 0.62701 0.0
C764 C 0.92928 0.6452 0.65361 0.0
C765 C 0.8692 0.67383 0.63603 0.0
N766 N 0.91374 0.64422 0.72194 0.0
N767 N 0.87468 0.65501 0.56904 0.0
H768 H 0.82822 0.70257 0.64797 0.0
H769 H 0.83674 0.69814 0.5984 0.0
H770 H 0.88713 0.64365 0.54642 0.0
H771 H 0.85086 0.66013 0.56219 0.0
H772 H 0.93239 0.62882 0.72977 0.0
H773 H 0.89761 0.64927 0.74454 0.0
H774 H 0.96998 0.63937 0.69036 0.0
H775 H 0.9781 0.6347 0.64077 0.0
C776 C 0.62189 0.31238 0.62078 0.0
C777 C 0.59654 0.33476 0.62378 0.0
C778 C 0.5857 0.31785 0.69124 0.0
C779 C 0.61012 0.2944 0.68771 0.0
N780 N 0.65726 0.27493 0.6535 0.0
N781 N 0.56043 0.36544 0.66404 0.0
C782 C 0.63041 0.2938 0.65409 0.0
C783 C 0.58058 0.33981 0.65994 0.0
N784 N 0.63669 0.30779 0.58543 0.0
N785 N 0.56681 0.31833 0.72399 0.0
H786 H 0.55687 0.38207 0.64164 0.0
H787 H 0.54969 0.37196 0.69041 0.0
H788 H 0.5713 0.30372 0.74824 0.0
H789 H 0.54613 0.33218 0.72663 0.0
H790 H 0.65219 0.28879 0.57957 0.0
H791 H 0.63216 0.32227 0.56108 0.0
H792 H 0.67451 0.27597 0.63146 0.0
H793 H 0.66399 0.25999 0.67647 0.0
C794 C 0.91943 0.33218 0.91194 0.0
C795 C 0.95149 0.34276 0.90662 0.0
C796 C 0.94852 0.32848 0.83712 0.0
C797 C 0.91841 0.31365 0.84361 0.0
N798 N 0.87719 0.29685 0.88924 0.0
N799 N -0.00103 0.34403 0.86568 0.0
C800 C 0.90415 0.31447 0.8815 0.0
C801 C 0.96667 0.33925 0.86956 0.0
N802 N 0.90333 0.33962 0.94563 0.0
N803 N 0.95972 0.33264 0.79981 0.0
H804 H 0.01377 0.35006 0.88905 0.0
H805 H 0.01168 0.33838 0.84029 0.0
H806 H 0.94689 0.32538 0.77515 0.0
H807 H 0.98003 0.34625 0.79327 0.0
H808 H 0.87888 0.33534 0.94944 0.0
H809 H 0.9137 0.35281 0.96833 0.0
H810 H 0.868 0.2938 0.9174 0.0
H811 H 0.86552 0.2829 0.86829 0.0
C812 C 0.83921 0.66617 0.13084 0.0
C813 C 0.86486 0.64413 0.12968 0.0
C814 C 0.87724 0.65563 0.19848 0.0
C815 C 0.85723 0.68289 0.19612 0.0
N816 N 0.81532 0.71232 0.16262 0.0
N817 N 0.9053 0.61333 0.16372 0.0
C818 C 0.8362 0.68703 0.1636 0.0
C819 C 0.88231 0.63671 0.16434 0.0
N820 N 0.81837 0.66735 0.09997 0.0
N821 N 0.89174 0.6486 0.23333 0.0
H822 H 0.90813 0.59754 0.14034 0.0
H823 H 0.92194 0.60973 0.18604 0.0
H824 H 0.88788 0.66251 0.25837 0.0
H825 H 0.90512 0.62793 0.23844 0.0
H826 H 0.79754 0.68113 0.09959 0.0
H827 H 0.82068 0.65197 0.07594 0.0
H828 H 0.80271 0.71931 0.13772 0.0
H829 H 0.81081 0.72697 0.18668 0.0
C830 C 0.62002 0.67037 0.35469 0.0
C831 C 0.60672 0.66874 0.31628 0.0
C832 C 0.55758 0.64518 0.34237 0.0
C833 C 0.57064 0.64657 0.38083 0.0
N834 N 0.61771 0.65086 0.42162 0.0
N835 N 0.56894 0.6436 0.27282 0.0
C836 C 0.60302 0.65604 0.38638 0.0
C837 C 0.57769 0.65199 0.31001 0.0
N838 N 0.64752 0.68729 0.36175 0.0
N839 N 0.52547 0.64028 0.33658 0.0
H840 H 0.58367 0.64826 0.24868 0.0
H841 H 0.54912 0.62916 0.26672 0.0
H842 H 0.50898 0.63821 0.35935 0.0
H843 H 0.51458 0.64212 0.30918 0.0
H844 H 0.65532 0.69307 0.3899 0.0
H845 H 0.66188 0.69699 0.33985 0.0
H846 H 0.64218 0.65451 0.42616 0.0
H847 H 0.60617 0.6397 0.4451 0.0
C848 C 0.37565 0.32917 0.10289 0.0
C849 C 0.40636 0.34327 0.10626 0.0
C850 C 0.41699 0.31253 0.16587 0.0
C851 C 0.38565 0.29901 0.16362 0.0
N852 N 0.33238 0.301 0.13529 0.0
N853 N 0.4521 0.35604 0.14653 0.0
C854 C 0.36405 0.30947 0.13381 0.0
C855 C 0.42542 0.33775 0.13991 0.0
N856 N 0.35804 0.33379 0.06958 0.0
N857 N 0.43982 0.29956 0.18993 0.0
H858 H 0.45874 0.37489 0.12818 0.0
H859 H 0.46546 0.35479 0.17232 0.0
H860 H 0.43597 0.27963 0.20768 0.0
H861 H 0.46389 0.30635 0.18902 0.0
H862 H 0.33727 0.32089 0.06311 0.0
H863 H 0.36527 0.34944 0.04736 0.0
H864 H 0.31505 0.31043 0.11654 0.0
H865 H 0.32276 0.28693 0.15758 0.0
C866 C 0.45571 0.6878 0.89833 0.0
C867 C 0.47739 0.66229 0.8917 0.0
C868 C 0.46221 0.65963 0.82259 0.0
C869 C 0.44132 0.68584 0.82881 0.0
N870 N 0.41153 0.7197 0.87306 0.0
N871 N 0.4946 0.61776 0.85174 0.0
C872 C 0.43575 0.69815 0.867 0.0
C873 C 0.4785 0.6462 0.8551 0.0
N874 N 0.45512 0.70272 0.93401 0.0
N875 N 0.46713 0.64826 0.78548 0.0
H876 H 0.50649 0.60703 0.8752 0.0
H877 H 0.4936 0.60323 0.82695 0.0
H878 H 0.45412 0.65641 0.76132 0.0
H879 H 0.485 0.63184 0.77828 0.0
H880 H 0.44223 0.72357 0.93979 0.0
H881 H 0.46889 0.6949 0.95771 0.0
H882 H 0.40465 0.72795 0.90059 0.0
H883 H 0.39641 0.72741 0.85062 0.0
C884 C 0.09727 0.69742 0.61476 0.0
C885 C 0.0999 0.68747 0.65455 0.0
C886 C 0.06399 0.64206 0.64146 0.0
C887 C 0.06178 0.65214 0.60184 0.0
N888 N 0.0841 0.68217 0.54822 0.0
N889 N 0.0922 0.64657 0.70356 0.0
C890 C 0.08119 0.67738 0.58769 0.0
C891 C 0.08532 0.65849 0.6672 0.0
N892 N 0.10763 0.72712 0.60325 0.0
N893 N 0.04465 0.61797 0.65493 0.0
H894 H 0.10798 0.658 0.7228 0.0
H895 H 0.08466 0.6241 0.71324 0.0
H896 H 0.0297 0.60464 0.63662 0.0
H897 H 0.04215 0.6123 0.6845 0.0
H898 H 0.10278 0.73675 0.57569 0.0
H899 H 0.11816 0.74364 0.62211 0.0
H900 H 0.10024 0.69845 0.53596 0.0
H901 H 0.0729 0.66731 0.5277 0.0
C902 C 0.06486 0.4017 0.39967 0.0
C903 C 0.06406 0.38142 0.43294 0.0
C904 C 0.10669 0.34855 0.40495 0.0
C905 C 0.10001 0.36286 0.36795 0.0
N906 N 0.07754 0.40619 0.33046 0.0
N907 N 0.09562 0.34799 0.47514 0.0
C908 C 0.08117 0.39101 0.36565 0.0
C909 C 0.0889 0.35881 0.43829 0.0
N910 N 0.05047 0.4311 0.40122 0.0
N911 N 0.1279 0.32363 0.40743 0.0
H912 H 0.08433 0.35764 0.49977 0.0
H913 H 0.11434 0.33242 0.48183 0.0
H914 H 0.14229 0.31654 0.38403 0.0
H915 H 0.13087 0.30945 0.43226 0.0
H916 H 0.0516 0.44787 0.37864 0.0
H917 H 0.0406 0.43994 0.42721 0.0
H918 H 0.06114 0.42463 0.32566 0.0
H919 H 0.09057 0.3994 0.30566 0.0
C920 C 0.41225 0.68085 0.41509 0.0
C921 C 0.43014 0.65409 0.40223 0.0
C922 C 0.40511 0.6582 0.33739 0.0
C923 C 0.39211 0.68837 0.34834 0.0
N924 N 0.38758 0.73082 0.39667 0.0
N925 N 0.44451 0.61682 0.35103 0.0
C926 C 0.39633 0.70018 0.38713 0.0
C927 C 0.42646 0.64222 0.36349 0.0
N928 N 0.41069 0.68782 0.4542 0.0
N929 N 0.39663 0.64471 0.30238 0.0
H930 H 0.45955 0.60386 0.36961 0.0
H931 H 0.44596 0.6097 0.32183 0.0
H932 H 0.3808 0.65577 0.28289 0.0
H933 H 0.4029 0.62145 0.29426 0.0
H934 H 0.39566 0.70542 0.46576 0.0
H935 H 0.42184 0.6736 0.47541 0.0
H936 H 0.39356 0.74165 0.42322 0.0
H937 H 0.37735 0.74675 0.37685 0.0
C938 C 0.00901 0.63098 0.13472 0.0
C939 C 0.00146 0.65145 0.10274 0.0
C940 C 0.03954 0.69114 0.12766 0.0
C941 C 0.04152 0.67369 0.16325 0.0
N942 N 0.02712 0.62747 0.20202 0.0
N943 N 0.00795 0.70261 0.06994 0.0
C944 C 0.02631 0.6435 0.16707 0.0
C945 C 0.01667 0.6818 0.09903 0.0
N946 N 0.0002 0.59938 0.13366 0.0
N947 N 0.05987 0.7163 0.12104 0.0
H948 H 0.99055 0.69751 0.04896 0.0
H949 H 0.01629 0.72611 0.06821 0.0
H950 H 0.07715 0.72347 0.14133 0.0
H951 H 0.0618 0.72785 0.09406 0.0
H952 H 0.00731 0.58267 0.15463 0.0
H953 H 0.98882 0.58918 0.10943 0.0
H954 H 0.01326 0.60718 0.20776 0.0
H955 H 0.03986 0.63577 0.22632 0.0
C956 C 0.10072 0.28854 0.89823 0.0
C957 C 0.10146 0.29857 0.8585 0.0
C958 C 0.08364 0.35231 0.87811 0.0
C959 C 0.08295 0.34183 0.91782 0.0
N960 N 0.10304 0.30505 0.96612 0.0
N961 N 0.10285 0.34217 0.81205 0.0
C962 C 0.09605 0.3117 0.92788 0.0
C963 C 0.09589 0.33122 0.84884 0.0
N964 N 0.1016 0.25668 0.90765 0.0
N965 N 0.07102 0.38135 0.8678 0.0
H966 H 0.11233 0.32742 0.79022 0.0
H967 H 0.1022 0.36636 0.80439 0.0
H968 H 0.06343 0.39839 0.88804 0.0
H969 H 0.06671 0.38798 0.83884 0.0
H970 H 0.09823 0.24818 0.93609 0.0
H971 H 0.10168 0.23859 0.88661 0.0
H972 H 0.11478 0.28416 0.97492 0.0
H973 H 0.10026 0.32223 0.98817 0.0
C974 C 0.46418 0.37795 0.62282 0.0
C975 C 0.46445 0.36319 0.58513 0.0
C976 C 0.41816 0.33016 0.60329 0.0
C977 C 0.41835 0.34454 0.64102 0.0
N978 N 0.4348 0.38767 0.68313 0.0
N979 N 0.43674 0.33245 0.53593 0.0
C980 C 0.4391 0.37043 0.64945 0.0
C981 C 0.43972 0.34163 0.57422 0.0
N982 N 0.48899 0.3972 0.63452 0.0
N983 N 0.39884 0.30432 0.59592 0.0
H984 H 0.45197 0.34094 0.51395 0.0
H985 H 0.41745 0.31909 0.52535 0.0
H986 H 0.38195 0.29579 0.61588 0.0
H987 H 0.40079 0.29019 0.57087 0.0
H988 H 0.49204 0.40499 0.66328 0.0
H989 H 0.50808 0.40362 0.61655 0.0
H990 H 0.44708 0.40885 0.68933 0.0
H991 H 0.41654 0.38245 0.70312 0.0
C992 C 0.24437 0.2202 0.26592 0.0
C993 C 0.26775 0.24062 0.24893 0.0
C994 C 0.22604 0.27987 0.2329 0.0
C995 C 0.20341 0.26147 0.25425 0.0
N996 N 0.19254 0.21679 0.29768 0.0
N997 N 0.28193 0.29252 0.22219 0.0
C998 C 0.21282 0.23215 0.27231 0.0
C999 C 0.25894 0.27129 0.2343 0.0
N1000 N 0.25237 0.18958 0.2765 0.0
N1001 N 0.21593 0.30477 0.20987 0.0
H1002 H 0.30636 0.28728 0.2222 0.0
H1003 H 0.27698 0.31637 0.21531 0.0
H1004 H 0.1918 0.31095 0.20675 0.0
H1005 H 0.231 0.31697 0.19056 0.0
H1006 H 0.23547 0.17245 0.28483 0.0
H1007 H 0.27567 0.18058 0.27433 0.0
H1008 H 0.19949 0.19729 0.3148 0.0
H1009 H 0.16974 0.22524 0.30477 0.0
C1010 C -0.00087 0.98463 0.54064 0.0
C1011 C 0.99528 0.96897 0.50388 0.0
C1012 C 0.0044 0.01966 0.46935 0.0
C1013 C 0.00894 0.03514 0.50609 0.0
N1014 N 0.01746 0.03192 0.57571 0.0
N1015 N -0.00039 0.96963 0.43341 0.0
C1016 C 0.00822 0.01747 0.54149 0.0
C1017 C -0.00014 0.98586 0.46827 0.0
N1018 N 0.99403 0.96815 0.57477 0.0
N1019 N 0.00241 0.03744 0.43571 0.0
H1020 H 0.99435 0.94522 0.43119 0.0
H1021 H 0.00668 0.97981 0.40691 0.0
H1022 H 0.00565 0.06222 0.43487 0.0
H1023 H 0.99511 0.0281 0.40885 0.0
H1024 H 0.99224 0.97912 0.60209 0.0
H1025 H 0.9899 0.9435 0.57591 0.0
H1026 H 0.02069 0.0197 0.60202 0.0
H1027 H 0.02484 0.05584 0.5771 0.0
C1028 C 0.28608 0.74289 0.68755 0.0
C1029 C 0.30348 0.74369 0.7232 0.0
C1030 C 0.25367 0.75026 0.76058 0.0
C1031 C 0.23642 0.75117 0.72485 0.0
N1032 N 0.23541 0.75159 0.65408 0.0
N1033 N 0.3052 0.75407 0.79287 0.0
C1034 C 0.25243 0.74862 0.68819 0.0
C1035 C 0.28765 0.74884 0.75956 0.0
N1036 N 0.30158 0.73532 0.65343 0.0
N1037 N 0.23756 0.75071 0.79554 0.0
H1038 H 0.33016 0.75334 0.7936 0.0
H1039 H 0.29531 0.76188 0.81921 0.0
H1040 H 0.21281 0.7541 0.79774 0.0
H1041 H 0.24838 0.74583 0.82239 0.0
H1042 H 0.28992 0.73092 0.627 0.0
H1043 H 0.32626 0.73116 0.65201 0.0
H1044 H 0.24601 0.75375 0.62659 0.0
H1045 H 0.21047 0.75366 0.65321 0.0
C1046 C 0.51006 0.9893 0.98239 0.0
C1047 C 0.50922 0.00625 0.01833 0.0
C1048 C 0.49099 0.95778 0.05262 0.0
C1049 C 0.48813 0.94211 0.016 0.0
N1050 N 0.49343 0.94241 0.94554 0.0
N1051 N 0.49631 0.00831 0.0873 0.0
C1052 C 0.49739 0.95767 0.98072 0.0
C1053 C 0.49936 0.99087 0.05353 0.0
N1054 N 0.52383 0.00322 0.95018 0.0
N1055 N 0.48587 0.94093 0.08644 0.0
H1056 H 0.50237 0.03254 0.08932 0.0
H1057 H 0.48566 -0.00054 0.11271 0.0
H1058 H 0.47904 0.91683 0.08658 0.0
H1059 H 0.49078 0.94997 0.11425 0.0
H1060 H 0.52819 0.99111 0.92404 0.0
H1061 H 0.53352 0.02632 0.9506 0.0
H1062 H 0.4959 0.95372 0.91851 0.0
H1063 H 0.48588 0.91862 0.94317 0.0
C1064 C 0.20573 0.72526 0.22825 0.0
C1065 C 0.18963 0.71793 0.26392 0.0
C1066 C 0.23972 0.72456 0.30053 0.0
C1067 C 0.25593 0.73092 0.26471 0.0
N1068 N 0.25633 0.73175 0.19404 0.0
N1069 N 0.19156 0.70466 0.33252 0.0
C1070 C 0.23958 0.72923 0.2284 0.0
C1071 C 0.20673 0.71589 0.29969 0.0
N1072 N 0.18854 0.73062 0.1947 0.0
N1073 N 0.25584 0.72707 0.33533 0.0
H1074 H 0.16747 0.69777 0.33265 0.0
H1075 H 0.20328 0.69953 0.35872 0.0
H1076 H 0.28052 0.73106 0.33712 0.0
H1077 H 0.24462 0.72676 0.36259 0.0
H1078 H 0.19847 0.74011 0.16921 0.0
H1079 H 0.16371 0.72817 0.19293 0.0
H1080 H 0.24639 0.72682 0.16669 0.0
H1081 H 0.28089 0.73652 0.19287 0.0
C1082 C 0.46357 0.97646 0.48545 0.0
C1083 C 0.49159 0.96332 0.50304 0.0
C1084 C 0.50739 0.0166 0.52605 0.0
C1085 C 0.48172 0.03018 0.50427 0.0
N1086 N 0.43711 0.02398 0.45997 0.0
N1087 N 0.54151 0.9705 0.53775 0.0
C1088 C 0.46004 0.01036 0.48337 0.0
C1089 C 0.51395 0.98331 0.52259 0.0
N1090 N 0.44042 0.95662 0.47057 0.0
N1091 N 0.52447 0.03526 0.55157 0.0
H1092 H 0.54616 0.9459 0.53825 0.0
H1093 H 0.56062 0.98436 0.54785 0.0
H1094 H 0.51937 0.05943 0.55616 0.0
H1095 H 0.54143 0.02625 0.5711 0.0
H1096 H 0.41796 0.96462 0.46143 0.0
H1097 H 0.44252 0.93173 0.47003 0.0
H1098 H 0.42299 0.01101 0.4404 0.0
H1099 H 0.43381 0.04873 0.45776 0.0
C1100 C 0.22928 0.24234 0.71479 0.0
C1101 C 0.20966 0.25839 0.74242 0.0
C1102 C 0.25426 0.29431 0.7596 0.0
C1103 C 0.2748 0.27578 0.73545 0.0
N1104 N 0.28285 0.23233 0.68971 0.0
N1105 N 0.20349 0.29774 0.79394 0.0
C1106 C 0.26256 0.24984 0.71287 0.0
C1107 C 0.22197 0.28422 0.76519 0.0
N1108 N 0.21574 0.22071 0.68953 0.0
N1109 N 0.26569 0.32137 0.77753 0.0
H1110 H 0.17966 0.29141 0.799 0.0
H1111 H 0.21228 0.31371 0.8148 0.0
H1112 H 0.28966 0.32851 0.77616 0.0
H1113 H 0.25108 0.33806 0.79157 0.0
H1114 H 0.22785 0.21028 0.66612 0.0
H1115 H 0.19132 0.21508 0.68995 0.0
H1116 H 0.27658 0.21068 0.67655 0.0
H1117 H 0.30667 0.23881 0.68472 0.0
C1118 C 0.00463 0.98911 0.95265 0.0
C1119 C 0.99443 0.00436 0.98783 0.0
C1120 C 0.00294 0.9547 0.02472 0.0
C1121 C 0.01578 0.9404 0.99037 0.0
N1122 N 0.03083 0.94316 0.92241 0.0
N1123 N 0.98444 0.00301 0.05736 0.0
C1124 C 0.01688 0.95726 0.95439 0.0
C1125 C 0.99363 0.98746 0.02386 0.0
N1126 N 0.00292 0.00521 0.91775 0.0
N1127 N -0.00097 0.93667 0.05793 0.0
H1128 H 0.975 0.02618 0.05729 0.0
H1129 H 0.98725 0.99365 0.08542 0.0
H1130 H 0.00658 0.9129 0.0602 0.0
H1131 H 0.98653 0.94437 0.08258 0.0
H1132 H 0.0067 0.99455 0.89058 0.0
H1133 H 0.99587 0.02911 0.91538 0.0
H1134 H 0.03571 0.95506 0.89629 0.0
H1135 H 0.03938 0.91962 0.92266 0.0
C1136 C 0.75013 0.79815 0.73267 0.0
C1137 C 0.76375 0.7853 0.7673 0.0
C1138 C 0.71307 0.79311 0.80197 0.0
C1139 C 0.69788 0.79819 0.76523 0.0
N1140 N 0.70142 0.81083 0.69671 0.0
N1141 N 0.75987 0.77219 0.83585 0.0
C1142 C 0.71645 0.80298 0.73099 0.0
C1143 C 0.74592 0.78398 0.80255 0.0
N1144 N 0.76953 0.80556 0.70166 0.0
N1145 N 0.69612 0.79653 0.83598 0.0
H1146 H 0.78416 0.76622 0.8374 0.0
H1147 H 0.74717 0.76675 0.86127 0.0
H1148 H 0.67237 0.80422 0.83668 0.0
H1149 H 0.70649 0.79534 0.86369 0.0
H1150 H 0.7616 0.81702 0.67635 0.0
H1151 H 0.79439 0.8027 0.70274 0.0
H1152 H 0.71265 0.81103 0.66947 0.0
H1153 H 0.67702 0.81657 0.69569 0.0
C1154 C 0.74934 0.27627 0.25181 0.0
C1155 C 0.7255 0.25486 0.23774 0.0
C1156 C 0.76702 0.21529 0.22114 0.0
C1157 C 0.79086 0.23685 0.23478 0.0
N1158 N 0.80565 0.29075 0.25376 0.0
N1159 N 0.71215 0.20732 0.20041 0.0
C1160 C 0.78235 0.26836 0.24689 0.0
C1161 C 0.73446 0.22527 0.22001 0.0
N1162 N 0.74049 0.30325 0.27192 0.0
N1163 N 0.77555 0.1851 0.20929 0.0
H1164 H 0.68811 0.21363 0.19849 0.0
H1165 H 0.71783 0.18761 0.183 0.0
H1166 H 0.79936 0.17806 0.2053 0.0
H1167 H 0.75912 0.16661 0.20483 0.0
H1168 H 0.75666 0.31786 0.28688 0.0
H1169 H 0.7166 0.3096 0.27675 0.0
H1170 H 0.8008 0.3149 0.25888 0.0
H1171 H 0.83002 0.28606 0.25053 0.0
C1172 C 0.73455 0.21633 0.71344 0.0
C1173 C 0.71894 0.20939 0.74952 0.0
C1174 C 0.76981 0.21572 0.78471 0.0
C1175 C 0.78441 0.22649 0.74947 0.0
N1176 N 0.78057 0.24028 0.68104 0.0
N1177 N 0.72058 0.20388 0.81982 0.0
C1178 C 0.7669 0.22727 0.71388 0.0
C1179 C 0.73628 0.20944 0.78526 0.0
N1180 N 0.71839 0.2129 0.67878 0.0
N1181 N 0.78825 0.21032 0.81723 0.0
H1182 H 0.69653 0.19691 0.82116 0.0
H1183 H 0.73085 0.2077 0.84725 0.0
H1184 H 0.81296 0.21434 0.81791 0.0
H1185 H 0.77973 0.19922 0.84251 0.0
H1186 H 0.72945 0.21399 0.65146 0.0
H1187 H 0.69423 0.20664 0.67701 0.0
H1188 H 0.76795 0.24514 0.65539 0.0
H1189 H 0.80413 0.24872 0.68024 0.0
C1190 C 0.7687 0.79408 0.18936 0.0
C1191 C 0.78179 0.80503 0.22537 0.0
C1192 C 0.72802 0.8069 0.25407 0.0
C1193 C 0.71656 0.78915 0.22155 0.0
N1194 N 0.72425 0.76713 0.1571 0.0
N1195 N 0.77454 0.82584 0.29037 0.0
C1196 C 0.73623 0.78372 0.18843 0.0
C1197 C 0.76143 0.8133 0.257 0.0
N1198 N 0.78742 0.79293 0.15651 0.0
N1199 N 0.70695 0.817 0.2822 0.0
H1200 H 0.79873 0.83236 0.29203 0.0
H1201 H 0.76197 0.82907 0.31643 0.0
H1202 H 0.68234 0.81252 0.28045 0.0
H1203 H 0.71324 0.83189 0.30544 0.0
H1204 H 0.77866 0.78732 0.12878 0.0
H1205 H 0.81116 0.80074 0.15603 0.0
H1206 H 0.73828 0.75867 0.13407 0.0
H1207 H 0.70015 0.76048 0.15509 0.0
C1208 C 0.4826 0.49166 0.96688 0.0
C1209 C 0.49309 0.47294 0.99903 0.0
C1210 C 0.53012 0.51555 0.01951 0.0
C1211 C 0.51821 0.53508 0.9888 0.0
N1212 N 0.48186 0.54345 0.93452 0.0
N1213 N 0.52314 0.46767 0.05909 0.0
C1214 C 0.49394 0.52368 0.96295 0.0
C1215 C 0.51594 0.485 0.02618 0.0
N1216 N 0.46291 0.47826 0.93923 0.0
N1217 N 0.55512 0.52617 0.04208 0.0
H1218 H 0.5131 0.44527 0.06501 0.0
H1219 H 0.53705 0.47635 0.08211 0.0
H1220 H 0.565 0.54907 0.03932 0.0
H1221 H 0.56745 0.51176 0.06192 0.0
H1222 H 0.45723 0.48915 0.91268 0.0
H1223 H 0.45375 0.45501 0.94155 0.0
H1224 H 0.46147 0.5382 0.91809 0.0
H1225 H 0.49131 0.56605 0.92832 0.0
C1226 C 0.9628 0.4819 0.46375 0.0
C1227 C 0.95238 0.46404 0.4969 0.0
C1228 C 0.94414 0.51362 0.53378 0.0
C1229 C 0.95945 0.53075 0.50314 0.0
N1230 N 0.98321 0.53263 0.4389 0.0
N1231 N 0.93236 0.46179 0.56299 0.0
C1232 C 0.96822 0.51541 0.46775 0.0
C1233 C 0.94246 0.47964 0.53169 0.0
N1234 N 0.96797 0.46674 0.42875 0.0
N1235 N 0.93094 0.53002 0.5645 0.0
H1236 H 0.929 0.437 0.56139 0.0
H1237 H 0.92848 0.47119 0.59086 0.0
H1238 H 0.93146 0.555 0.56634 0.0
H1239 H 0.91709 0.51935 0.58629 0.0
H1240 H 0.97272 0.47872 0.40263 0.0
H1241 H 0.96515 0.4421 0.42488 0.0
H1242 H 0.99387 0.52238 0.41434 0.0
H1243 H 0.98642 0.55745 0.44044 0.0
C1244 C 0.96993 0.48293 0.04454 0.0
C1245 C 0.97834 0.47071 0.0071 0.0
C1246 C 0.95742 0.51935 0.9755 0.0
C1247 C 0.95095 0.53229 0.01305 0.0
N1248 N 0.95418 0.52896 0.08355 0.0
N1249 N 0.9821 0.47715 0.93686 0.0
C1250 C 0.95779 0.51469 0.04767 0.0
C1251 C 0.97278 0.48895 0.97253 0.0
N1252 N 0.97363 0.46416 0.07713 0.0
N1253 N 0.94768 0.53569 0.94279 0.0
H1254 H 0.99111 0.45405 0.93289 0.0
H1255 H 0.9824 0.49065 0.91121 0.0
H1256 H 0.9363 0.55797 0.94411 0.0
H1257 H 0.94859 0.52642 0.91451 0.0
H1258 H 0.96414 0.46984 0.10448 0.0
H1259 H 0.98494 0.44185 0.07659 0.0
H1260 H 0.96247 0.51909 0.10967 0.0
H1261 H 0.94472 0.55193 0.08726 0.0
C1262 C 0.54021 0.4893 0.5448 0.0
C1263 C 0.55446 0.47173 0.51361 0.0
C1264 C 0.55499 0.5197 0.47232 0.0
C1265 C 0.54015 0.53708 0.50319 0.0
N1266 N 0.52507 0.54137 0.57104 0.0
N1267 N 0.58187 0.4708 0.4516 0.0
C1268 C 0.53497 0.52281 0.54028 0.0
C1269 C 0.56389 0.48719 0.47853 0.0
N1270 N 0.52999 0.47363 0.57776 0.0
N1271 N 0.55969 0.5341 0.43677 0.0
H1272 H 0.58884 0.44697 0.45564 0.0
H1273 H 0.59215 0.48132 0.42695 0.0
H1274 H 0.55523 0.55838 0.43191 0.0
H1275 H 0.56668 0.52187 0.41159 0.0
H1276 H 0.51585 0.48421 0.59933 0.0
H1277 H 0.53405 0.44929 0.58269 0.0
H1278 H 0.52384 0.53321 0.59984 0.0
H1279 H 0.52051 0.5659 0.56829 0.0
C1280 C 0.03107 0.35878 0.13774 0.0
C1281 C 0.04156 0.34497 0.10199 0.0
C1282 C 0.08096 0.31214 0.1373 0.0
C1283 C 0.06962 0.32495 0.17325 0.0
N1284 N 0.0304 0.35596 0.20884 0.0
N1285 N 0.07144 0.30415 0.06782 0.0
C1286 C 0.04366 0.34704 0.17382 0.0
C1287 C 0.06502 0.32031 0.10183 0.0
N1288 N 0.00985 0.3838 0.13709 0.0
N1289 N 0.10785 0.29329 0.13688 0.0
H1290 H 0.05988 0.3093 0.04143 0.0
H1291 H 0.0859 0.28381 0.0664 0.0
H1292 H 0.12027 0.28683 0.16224 0.0
H1293 H 0.11944 0.28619 0.11129 0.0
H1294 H 0.00413 0.39753 0.1616 0.0
H1295 H -0.00069 0.39215 0.11131 0.0
H1296 H 0.00936 0.36929 0.21122 0.0
H1297 H 0.03898 0.34785 0.2358 0.0
C1298 C 0.94535 0.82524 0.33929 0.0
C1299 C 0.91947 0.80316 0.34239 0.0
C1300 C 0.9244 0.80429 0.41396 0.0
C1301 C 0.94678 0.82988 0.41089 0.0
N1302 N 0.97621 0.86736 0.37066 0.0
N1303 N 0.88153 0.77441 0.38281 0.0
C1304 C 0.95687 0.84094 0.37355 0.0
C1305 C 0.90835 0.79318 0.37977 0.0
N1306 N 0.95959 0.83046 0.30374 0.0
N1307 N 0.91921 0.78992 0.44943 0.0
H1308 H 0.86883 0.76598 0.35858 0.0
H1309 H 0.87026 0.76946 0.40939 0.0
H1310 H 0.93128 0.7968 0.47488 0.0
H1311 H 0.90558 0.76914 0.45287 0.0
H1312 H 0.98059 0.84375 0.30029 0.0
H1313 H 0.9523 0.81884 0.27816 0.0
H1314 H 0.98133 0.87869 0.34417 0.0
H1315 H 0.98508 0.87963 0.39499 0.0
C1316 C 0.47508 0.68232 0.6447 0.0
C1317 C 0.45156 0.70653 0.63884 0.0
C1318 C 0.46128 0.70443 0.56792 0.0
C1319 C 0.48109 0.67712 0.57352 0.0
N1320 N 0.50609 0.63873 0.61653 0.0
N1321 N 0.4204 0.73952 0.59493 0.0
C1322 C 0.48794 0.66578 0.61177 0.0
C1323 C 0.44445 0.71766 0.60048 0.0
N1324 N 0.48603 0.67609 0.68172 0.0
N1325 N 0.45877 0.71781 0.53145 0.0
H1326 H 0.40751 0.74975 0.61795 0.0
H1327 H 0.41155 0.74584 0.56746 0.0
H1328 H 0.47052 0.70848 0.50696 0.0
H1329 H 0.44744 0.73963 0.52601 0.0
H1330 H 0.50528 0.66095 0.68772 0.0
H1331 H 0.47793 0.68861 0.70629 0.0
H1332 H 0.50877 0.62698 0.64327 0.0
H1333 H 0.51706 0.62689 0.59314 0.0
C1334 C 0.55492 0.14514 0.84478 0.0
C1335 C 0.57894 0.16938 0.84625 0.0
C1336 C 0.57588 0.16937 0.91812 0.0
C1337 C 0.55467 0.14275 0.91671 0.0
N1338 N 0.52667 0.10257 0.87916 0.0
N1339 N 0.61648 0.20057 0.8845 0.0
C1340 C 0.54486 0.12989 0.88013 0.0
C1341 C 0.5905 0.18052 0.88298 0.0
N1342 N 0.54076 0.13761 0.80981 0.0
N1343 N 0.58122 0.1847 0.95293 0.0
H1344 H 0.62847 0.20874 0.85958 0.0
H1345 H 0.62808 0.20666 0.9105 0.0
H1346 H 0.57027 0.17764 0.97903 0.0
H1347 H 0.59385 0.20621 0.95524 0.0
H1348 H 0.52086 0.1226 0.80737 0.0
H1349 H 0.547 0.14866 0.78345 0.0
H1350 H 0.52176 0.08993 0.85352 0.0
H1351 H 0.51849 0.09108 0.90444 0.0
C1352 C 0.03678 0.69212 0.42722 0.0
C1353 C 0.01449 0.66648 0.4245 0.0
C1354 C 0.0177 0.66849 0.35277 0.0
C1355 C 0.04311 0.69113 0.35574 0.0
N1356 N 0.07929 0.72239 0.39569 0.0
N1357 N 0.98492 0.6284 0.3855 0.0
C1358 C 0.05311 0.70268 0.39293 0.0
C1359 C 0.00504 0.6543 0.38746 0.0
N1360 N 0.04189 0.7067 0.46258 0.0
N1361 N 0.00512 0.66127 0.3168 0.0
H1362 H 0.97451 0.618 0.41026 0.0
H1363 H 0.98013 0.61593 0.35971 0.0
H1364 H 0.01357 0.67147 0.29084 0.0
H1365 H 0.98454 0.64744 0.31287 0.0
H1366 H 0.05543 0.72754 0.46598 0.0
H1367 H 0.03014 0.69963 0.48818 0.0
H1368 H 0.09003 0.72861 0.42218 0.0
H1369 H 0.09199 0.73062 0.37134 0.0
C1370 C 0.57646 0.82849 0.64342 0.0
C1371 C 0.56623 0.79758 0.65584 0.0
C1372 C 0.53323 0.79297 0.59644 0.0
C1373 C 0.54031 0.8254 0.58686 0.0
N1374 N 0.56304 0.87624 0.60667 0.0
N1375 N 0.5297 0.75301 0.64775 0.0
C1376 C 0.56032 0.84382 0.61192 0.0
C1377 C 0.5432 0.78046 0.63334 0.0
N1378 N 0.60262 0.84269 0.66033 0.0
N1379 N 0.51828 0.77358 0.56977 0.0
H1380 H 0.5353 0.74352 0.67518 0.0
H1381 H 0.51055 0.7415 0.6341 0.0
H1382 H 0.51113 0.78144 0.54211 0.0
H1383 H 0.51603 0.74887 0.57358 0.0
H1384 H 0.61285 0.8638 0.64968 0.0
H1385 H 0.61637 0.83166 0.68201 0.0
H1386 H 0.57482 0.89117 0.62652 0.0
H1387 H 0.5506 0.88873 0.58496 0.0
C1388 C 0.43169 0.34629 0.83721 0.0
C1389 C 0.40462 0.32554 0.83643 0.0
C1390 C 0.4033 0.32507 0.90837 0.0
C1391 C 0.4287 0.34783 0.90904 0.0
N1392 N 0.4636 0.3843 0.87445 0.0
N1393 N 0.36125 0.29927 0.87053 0.0
C1394 C 0.44198 0.35959 0.87354 0.0
C1395 C 0.38949 0.316 0.87183 0.0
N1396 N 0.44837 0.35227 0.80345 0.0
N1397 N 0.39318 0.31121 0.94255 0.0
H1398 H 0.35031 0.29235 0.84434 0.0
H1399 H 0.3472 0.29465 0.89513 0.0
H1400 H 0.40273 0.31712 0.96988 0.0
H1401 H 0.37729 0.29193 0.94361 0.0
H1402 H 0.47032 0.36425 0.80282 0.0
H1403 H 0.44176 0.3429 0.77628 0.0
H1404 H 0.47145 0.39635 0.84948 0.0
H1405 H 0.47168 0.39471 0.90046 0.0
C1406 C 0.93464 0.13128 0.15659 0.0
C1407 C 0.92191 0.16291 0.15736 0.0
C1408 C 0.93871 0.17092 0.08901 0.0
C1409 C 0.94869 0.13843 0.08724 0.0
N1410 N 0.95266 0.08623 0.11719 0.0
N1411 N 0.9064 0.21083 0.12231 0.0
C1412 C 0.94557 0.11816 0.12042 0.0
C1413 C 0.92261 0.18229 0.12307 0.0
N1414 N 0.93773 0.11434 0.19072 0.0
N1415 N 0.94492 0.19102 0.05823 0.0
H1416 H 0.89337 0.21958 0.14611 0.0
H1417 H 0.90319 0.2244 0.09698 0.0
H1418 H 0.95589 0.18333 0.03239 0.0
H1419 H 0.94158 0.21577 0.05947 0.0
H1420 H 0.94989 0.09257 0.19272 0.0
H1421 H 0.93068 0.12331 0.21792 0.0
H1422 H 0.94735 0.06942 0.13883 0.0
H1423 H 0.96186 0.0761 0.0916 0.0
C1424 C 0.87952 0.70513 0.93342 0.0
C1425 C 0.8962 0.6754 0.93219 0.0
C1426 C 0.90048 0.67943 0.86064 0.0
C1427 C 0.88097 0.7073 0.86152 0.0
N1428 N 0.84939 0.74561 0.89762 0.0
N1429 N 0.92078 0.63269 0.89499 0.0
C1430 C 0.87001 0.72007 0.89765 0.0
C1431 C 0.90609 0.66205 0.89586 0.0
N1432 N 0.87278 0.71905 0.96878 0.0
N1433 N 0.91479 0.67042 0.82627 0.0
H1434 H 0.92719 0.62006 0.92019 0.0
H1435 H 0.92496 0.61986 0.86932 0.0
H1436 H 0.91194 0.68323 0.80023 0.0
H1437 H 0.93182 0.65224 0.82412 0.0
H1438 H 0.86402 0.74231 0.97177 0.0
H1439 H 0.87775 0.70802 0.99554 0.0
H1440 H 0.83751 0.75387 0.92249 0.0
H1441 H 0.84247 0.75747 0.87205 0.0
C1442 C 0.06353 0.21818 0.64272 0.0
C1443 C 0.06597 0.19895 0.677 0.0
C1444 C 0.03838 0.15471 0.64337 0.0
C1445 C 0.03538 0.17413 0.60946 0.0
N1446 N 0.0383 0.22632 0.57928 0.0
N1447 N 0.04793 0.15276 0.71344 0.0
C1448 C 0.0456 0.20661 0.61004 0.0
C1449 C 0.0511 0.16829 0.67834 0.0
N1450 N 0.07992 0.24656 0.64039 0.0
N1451 N 0.02954 0.12311 0.64197 0.0
H1452 H 0.05562 0.16274 0.73986 0.0
H1453 H 0.03475 0.13172 0.71705 0.0
H1454 H 0.01854 0.1128 0.61755 0.0
H1455 H 0.03477 0.10673 0.66412 0.0
H1456 H 0.08204 0.25986 0.61468 0.0
H1457 H 0.09369 0.2557 0.66333 0.0
H1458 H 0.04217 0.25102 0.57961 0.0
H1459 H 0.02573 0.21844 0.55465 0.0
C1460 C 0.57141 0.34764 0.38325 0.0
C1461 C 0.58051 0.33237 0.41872 0.0
C1462 C 0.61182 0.29281 0.38133 0.0
C1463 C 0.60038 0.30643 0.34582 0.0
N1464 N 0.5639 0.34264 0.31313 0.0
N1465 N 0.60472 0.28719 0.4516 0.0
C1466 C 0.57867 0.33271 0.34681 0.0
C1467 C 0.59946 0.30404 0.41781 0.0
N1468 N 0.55702 0.37713 0.38421 0.0
N1469 N 0.63546 0.27007 0.38032 0.0
H1470 H 0.59588 0.29447 0.47879 0.0
H1471 H 0.61535 0.26458 0.45221 0.0
H1472 H 0.64532 0.26144 0.35428 0.0
H1473 H 0.64726 0.26179 0.40526 0.0
H1474 H 0.5531 0.391 0.35927 0.0
H1475 H 0.55175 0.3892 0.41021 0.0
H1476 H 0.54531 0.35936 0.31274 0.0
H1477 H 0.56788 0.33191 0.28595 0.0
C1478 C 0.3885 0.78918 0.09397 0.0
C1479 C 0.41097 0.81482 0.09591 0.0
C1480 C 0.41033 0.81194 0.16768 0.0
C1481 C 0.38552 0.78861 0.16582 0.0
N1482 N 0.34754 0.75816 0.12761 0.0
N1483 N 0.43881 0.85467 0.13439 0.0
C1484 C 0.37366 0.77802 0.12906 0.0
C1485 C 0.42069 0.82732 0.13273 0.0
N1486 N 0.38233 0.77459 0.05888 0.0
N1487 N 0.42498 0.81846 0.20266 0.0
H1488 H 0.44638 0.86705 0.10947 0.0
H1489 H 0.44371 0.86684 0.16039 0.0
H1490 H 0.41876 0.80701 0.22877 0.0
H1491 H 0.44539 0.83277 0.20518 0.0
H1492 H 0.36891 0.75361 0.05625 0.0
H1493 H 0.39292 0.78181 0.03261 0.0
H1494 H 0.33556 0.75247 0.10174 0.0
H1495 H 0.33619 0.74938 0.15267 0.0
C1496 C 0.93745 0.28884 0.58778 0.0
C1497 C 0.94382 0.32228 0.58768 0.0
C1498 C 0.92642 0.32606 0.65618 0.0
C1499 C 0.91701 0.29323 0.65514 0.0
N1500 N 0.90891 0.24456 0.61802 0.0
N1501 N 0.94081 0.37382 0.61949 0.0
C1502 C 0.92145 0.27484 0.62047 0.0
C1503 C 0.9374 0.34119 0.62128 0.0
N1504 N 0.94732 0.27037 0.55691 0.0
N1505 N 0.92616 0.3425 0.69086 0.0
H1506 H 0.94966 0.38573 0.59485 0.0
H1507 H 0.93271 0.38933 0.64128 0.0
H1508 H 0.91826 0.33253 0.71712 0.0
H1509 H 0.93632 0.36516 0.6944 0.0
H1510 H 0.94662 0.24539 0.55704 0.0
H1511 H 0.95886 0.27993 0.53239 0.0
H1512 H 0.90838 0.23124 0.59221 0.0
H1513 H 0.89629 0.23374 0.64088 0.0
C1514 C 0.40332 0.20182 0.36931 0.0
C1515 C 0.40813 0.18511 0.33354 0.0
C1516 C 0.44023 0.14446 0.36804 0.0
C1517 C 0.43732 0.16245 0.4032 0.0
N1518 N 0.42119 0.21113 0.436 0.0
N1519 N 0.43542 0.1437 0.29713 0.0
C1520 C 0.42026 0.19195 0.40347 0.0
C1521 C 0.42777 0.15727 0.33241 0.0
N1522 N 0.38152 0.22632 0.37105 0.0
N1523 N 0.45373 0.11456 0.36897 0.0
H1524 H 0.42686 0.15243 0.27044 0.0
H1525 H 0.45238 0.12554 0.29392 0.0
H1526 H 0.46312 0.10438 0.39444 0.0
H1527 H 0.45332 0.09877 0.34533 0.0
H1528 H 0.37424 0.23703 0.39715 0.0
H1529 H 0.36851 0.2342 0.34675 0.0
H1530 H 0.41222 0.23444 0.43659 0.0
H1531 H 0.43357 0.2049 0.46147 0.0
C1532 C 0.60912 0.69248 0.06316 0.0
C1533 C 0.57933 0.67588 0.06224 0.0
C1534 C 0.56973 0.68968 0.13127 0.0
C1535 C 0.59872 0.7076 0.13158 0.0
N1536 N 0.64347 0.73068 0.09696 0.0
N1537 N 0.52919 0.66173 0.09329 0.0
C1538 C 0.61777 0.71022 0.09726 0.0
C1539 C 0.5589 0.67562 0.0956 0.0
N1540 N 0.62918 0.69118 0.03145 0.0
N1541 N 0.55348 0.68454 0.16558 0.0
H1542 H 0.52118 0.64911 0.06877 0.0
H1543 H 0.51163 0.66428 0.11477 0.0
H1544 H 0.56048 0.69448 0.1923 0.0
H1545 H 0.53445 0.66851 0.16837 0.0
H1546 H 0.65277 0.69942 0.03181 0.0
H1547 H 0.62289 0.68017 0.0051 0.0
H1548 H 0.65663 0.73629 0.07196 0.0
H1549 H 0.65007 0.74434 0.12128 0.0
C1550 C 0.12453 0.81253 0.85602 0.0
C1551 C 0.1096 0.78577 0.83782 0.0
C1552 C 0.07425 0.78006 0.89487 0.0
C1553 C 0.08558 0.80983 0.90975 0.0
N1554 N 0.11755 0.85764 0.89966 0.0
N1555 N 0.06586 0.74749 0.83716 0.0
C1556 C 0.10978 0.82694 0.88916 0.0
C1557 C 0.08335 0.77028 0.85653 0.0
N1558 N 0.15331 0.82369 0.8424 0.0
N1559 N 0.05567 0.76053 0.91773 0.0
H1560 H 0.07071 0.74032 0.80851 0.0
H1561 H 0.04449 0.73806 0.84813 0.0
H1562 H 0.04958 0.76611 0.94659 0.0
H1563 H 0.04937 0.73726 0.90957 0.0
H1564 H 0.16661 0.84125 0.8569 0.0
H1565 H 0.16561 0.81291 0.81926 0.0
H1566 H 0.13272 0.87214 0.88301 0.0
H1567 H 0.1063 0.86993 0.92244 0.0
loop_
_geom_bond_atom_site_label_1
_geom_bond_atom_site_label_2
_geom_bond_distance
_geom_bond_site_symmetry_2
_ccdc_geom_bond_type
In0 O1 2.294 . S
In0 O2 2.326 . S
In0 O6 2.266 . S
In0 O7 2.326 . S
In0 O8 2.266 . S
In0 O9 2.326 . S
In0 O11 2.294 . S
In0 O12 2.326 . S
O1 In0 2.294 . S
O1 C10 1.240 . S
O2 In0 2.326 . S
O2 C10 1.252 . S
C3 O6 1.252 . S
C3 O7 1.260 . S
C4 O11 1.240 . S
C4 O12 1.252 . S
C5 O8 1.252 . S
C5 O9 1.260 . S
O6 In0 2.266 . S
O6 C3 1.252 . S
O7 In0 2.326 . S
O7 C3 1.260 . S
O8 In0 2.266 . S
O8 C5 1.252 . S
O9 In0 2.326 . S
O9 C5 1.260 . S
C10 O1 1.240 . S
C10 O2 1.252 . S
O11 In0 2.294 . S
O11 C4 1.240 . S
O12 In0 2.326 . S
O12 C4 1.252 . S
In13 O14 2.294 . S
In13 O15 2.326 . S
In13 O19 2.266 . S
In13 O20 2.326 . S
In13 O21 2.266 . S
In13 O22 2.326 . S
In13 O24 2.294 . S
In13 O25 2.326 . S
O14 In13 2.294 . S
O14 C23 1.240 . S
O15 In13 2.326 . S
O15 C23 1.252 . S
C16 O19 1.252 . S
C16 O20 1.260 . S
C17 O24 1.240 . S
C17 O25 1.252 . S
C18 O21 1.252 . S
C18 O22 1.260 . S
O19 In13 2.266 . S
O19 C16 1.252 . S
O20 In13 2.326 . S
O20 C16 1.260 . S
O21 In13 2.266 . S
O21 C18 1.252 . S
O22 In13 2.326 . S
O22 C18 1.260 . S
C23 O14 1.240 . S
C23 O15 1.252 . S
O24 In13 2.294 . S
O24 C17 1.240 . S
O25 In13 2.326 . S
O25 C17 1.252 . S
In26 O27 2.294 . S
In26 O28 2.326 . S
In26 O32 2.266 . S
In26 O33 2.326 . S
In26 O34 2.266 . S
In26 O35 2.326 . S
In26 O37 2.294 . S
In26 O38 2.326 . S
O27 In26 2.294 . S
O27 C36 1.240 . S
O28 In26 2.326 . S
O28 C36 1.252 . S
C29 O32 1.252 . S
C29 O33 1.260 . S
C30 O37 1.240 . S
C30 O38 1.252 . S
C31 O34 1.252 . S
C31 O35 1.260 . S
O32 In26 2.266 . S
O32 C29 1.252 . S
O33 In26 2.326 . S
O33 C29 1.260 . S
O34 In26 2.266 . S
O34 C31 1.252 . S
O35 In26 2.326 . S
O35 C31 1.260 . S
C36 O27 1.240 . S
C36 O28 1.252 . S
O37 In26 2.294 . S
O37 C30 1.240 . S
O38 In26 2.326 . S
O38 C30 1.252 . S
In39 O40 2.294 . S
In39 O41 2.325 1_554 S
In39 O45 2.266 . S
In39 O46 2.326 . S
In39 O47 2.266 . S
In39 O48 2.326 . S
In39 O50 2.294 1_554 S
In39 O51 2.326 1_554 S
O40 In39 2.294 . S
O40 C49 1.240 . S
O41 In39 2.325 1_556 S
O41 C49 1.252 1_556 S
C42 O45 1.252 . S
C42 O46 1.260 . S
C43 O50 1.240 . S
C43 O51 1.252 . S
C44 O47 1.252 . S
C44 O48 1.260 . S
O45 In39 2.266 . S
O45 C42 1.252 . S
O46 In39 2.326 . S
O46 C42 1.260 . S
O47 In39 2.266 . S
O47 C44 1.252 . S
O48 In39 2.326 . S
O48 C44 1.260 . S
C49 O40 1.240 . S
C49 O41 1.252 1_554 S
O50 In39 2.294 1_556 S
O50 C43 1.240 . S
O51 In39 2.326 1_556 S
O51 C43 1.252 . S
In52 O53 2.294 . S
In52 O54 2.326 . S
In52 O58 2.266 . S
In52 O59 2.326 . S
In52 O60 2.266 . S
In52 O61 2.326 . S
In52 O63 2.294 . S
In52 O64 2.326 . S
O53 In52 2.294 . S
O53 C62 1.240 . S
O54 In52 2.326 . S
O54 C62 1.252 . S
C55 O58 1.252 . S
C55 O59 1.260 . S
C56 O63 1.240 . S
C56 O64 1.252 . S
C57 O60 1.252 . S
C57 O61 1.260 . S
O58 In52 2.266 . S
O58 C55 1.252 . S
O59 In52 2.326 . S
O59 C55 1.260 . S
O60 In52 2.266 . S
O60 C57 1.252 . S
O61 In52 2.326 . S
O61 C57 1.260 . S
C62 O53 1.240 . S
C62 O54 1.252 . S
O63 In52 2.294 . S
O63 C56 1.240 . S
O64 In52 2.326 . S
O64 C56 1.252 . S
In65 O66 2.294 . S
In65 O67 2.326 . S
In65 O71 2.266 . S
In65 O72 2.326 . S
In65 O73 2.266 . S
In65 O74 2.326 . S
In65 O76 2.294 . S
In65 O77 2.326 . S
O66 In65 2.294 . S
O66 C75 1.240 . S
O67 In65 2.326 . S
O67 C75 1.252 . S
C68 O71 1.252 . S
C68 O72 1.260 . S
C69 O76 1.240 . S
C69 O77 1.252 . S
C70 O73 1.252 . S
C70 O74 1.260 . S
O71 In65 2.266 . S
O71 C68 1.252 . S
O72 In65 2.326 . S
O72 C68 1.260 . S
O73 In65 2.266 . S
O73 C70 1.252 . S
O74 In65 2.326 . S
O74 C70 1.260 . S
C75 O66 1.240 . S
C75 O67 1.252 . S
O76 In65 2.294 . S
O76 C69 1.240 . S
O77 In65 2.326 . S
O77 C69 1.252 . S
In78 O79 2.294 . S
In78 O80 2.326 . S
In78 O84 2.266 . S
In78 O85 2.326 . S
In78 O86 2.266 . S
In78 O87 2.326 . S
In78 O89 2.294 . S
In78 O90 2.326 . S
O79 In78 2.294 . S
O79 C88 1.240 . S
O80 In78 2.326 . S
O80 C88 1.252 . S
C81 O84 1.252 . S
C81 O85 1.260 . S
C82 O89 1.240 . S
C82 O90 1.252 . S
C83 O86 1.252 . S
C83 O87 1.260 . S
O84 In78 2.266 . S
O84 C81 1.252 . S
O85 In78 2.326 . S
O85 C81 1.260 . S
O86 In78 2.266 . S
O86 C83 1.252 . S
O87 In78 2.326 . S
O87 C83 1.260 . S
C88 O79 1.240 . S
C88 O80 1.252 . S
O89 In78 2.294 . S
O89 C82 1.240 . S
O90 In78 2.326 . S
O90 C82 1.252 . S
In91 O92 2.294 . S
In91 O93 2.325 1_556 S
In91 O97 2.266 . S
In91 O98 2.326 . S
In91 O99 2.266 . S
In91 O100 2.326 . S
In91 O102 2.294 1_556 S
In91 O103 2.326 1_556 S
O92 In91 2.294 . S
O92 C101 1.240 . S
O93 In91 2.325 1_554 S
O93 C101 1.252 1_554 S
C94 O97 1.252 . S
C94 O98 1.260 . S
C95 O102 1.240 . S
C95 O103 1.252 . S
C96 O99 1.252 . S
C96 O100 1.260 . S
O97 In91 2.266 . S
O97 C94 1.252 . S
O98 In91 2.326 . S
O98 C94 1.260 . S
O99 In91 2.266 . S
O99 C96 1.252 . S
O100 In91 2.326 . S
O100 C96 1.260 . S
C101 O92 1.240 . S
C101 O93 1.252 1_556 S
O102 In91 2.294 1_554 S
O102 C95 1.240 . S
O103 In91 2.326 1_554 S
O103 C95 1.252 . S
In104 O105 2.294 . S
In104 O106 2.326 . S
In104 O110 2.266 . S
In104 O111 2.326 . S
In104 O112 2.266 . S
In104 O113 2.326 . S
In104 O115 2.294 . S
In104 O116 2.326 . S
O105 In104 2.294 . S
O105 C114 1.240 . S
O106 In104 2.326 . S
O106 C114 1.252 . S
C107 O110 1.252 . S
C107 O111 1.260 . S
C108 O115 1.240 . S
C108 O116 1.252 . S
C109 O112 1.252 . S
C109 O113 1.260 . S
O110 In104 2.266 . S
O110 C107 1.252 . S
O111 In104 2.326 . S
O111 C107 1.260 . S
O112 In104 2.266 . S
O112 C109 1.252 . S
O113 In104 2.326 . S
O113 C109 1.260 . S
C114 O105 1.240 . S
C114 O106 1.252 . S
O115 In104 2.294 . S
O115 C108 1.240 . S
O116 In104 2.326 . S
O116 C108 1.252 . S
In117 O118 2.294 . S
In117 O119 2.326 . S
In117 O123 2.266 . S
In117 O124 2.326 . S
In117 O125 2.266 . S
In117 O126 2.326 . S
In117 O128 2.294 . S
In117 O129 2.326 . S
O118 In117 2.294 . S
O118 C127 1.240 . S
O119 In117 2.326 . S
O119 C127 1.252 . S
C120 O123 1.252 . S
C120 O124 1.260 . S
C121 O128 1.240 . S
C121 O129 1.252 . S
C122 O125 1.252 . S
C122 O126 1.260 . S
O123 In117 2.266 . S
O123 C120 1.252 . S
O124 In117 2.326 . S
O124 C120 1.260 . S
O125 In117 2.266 . S
O125 C122 1.252 . S
O126 In117 2.326 . S
O126 C122 1.260 . S
C127 O118 1.240 . S
C127 O119 1.252 . S
O128 In117 2.294 . S
O128 C121 1.240 . S
O129 In117 2.326 . S
O129 C121 1.252 . S
In130 O131 2.294 . S
In130 O132 2.326 . S
In130 O136 2.266 . S
In130 O137 2.326 . S
In130 O138 2.266 . S
In130 O139 2.326 . S
In130 O141 2.294 . S
In130 O142 2.326 . S
O131 In130 2.294 . S
O131 C140 1.240 . S
O132 In130 2.326 . S
O132 C140 1.252 . S
C133 O136 1.252 . S
C133 O137 1.260 . S
C134 O141 1.240 . S
C134 O142 1.252 . S
C135 O138 1.252 . S
C135 O139 1.260 . S
O136 In130 2.266 . S
O136 C133 1.252 . S
O137 In130 2.326 . S
O137 C133 1.260 . S
O138 In130 2.266 . S
O138 C135 1.252 . S
O139 In130 2.326 . S
O139 C135 1.260 . S
C140 O131 1.240 . S
C140 O132 1.252 . S
O141 In130 2.294 . S
O141 C134 1.240 . S
O142 In130 2.326 . S
O142 C134 1.252 . S
In143 O144 2.294 . S
In143 O145 2.325 1_556 S
In143 O149 2.266 . S
In143 O150 2.326 . S
In143 O151 2.266 . S
In143 O152 2.326 . S
In143 O154 2.294 1_556 S
In143 O155 2.326 1_556 S
O144 In143 2.294 . S
O144 C153 1.240 . S
O145 In143 2.325 1_554 S
O145 C153 1.252 1_554 S
C146 O149 1.252 . S
C146 O150 1.260 . S
C147 O154 1.240 . S
C147 O155 1.252 . S
C148 O151 1.252 . S
C148 O152 1.260 . S
O149 In143 2.266 . S
O149 C146 1.252 . S
O150 In143 2.326 . S
O150 C146 1.260 . S
O151 In143 2.266 . S
O151 C148 1.252 . S
O152 In143 2.326 . S
O152 C148 1.260 . S
C153 O144 1.240 . S
C153 O145 1.252 1_556 S
O154 In143 2.294 1_554 S
O154 C147 1.240 . S
O155 In143 2.326 1_554 S
O155 C147 1.252 . S
In156 O157 2.294 . S
In156 O158 2.326 . S
In156 O162 2.266 . S
In156 O163 2.326 . S
In156 O164 2.266 . S
In156 O165 2.326 . S
In156 O167 2.294 . S
In156 O168 2.326 . S
O157 In156 2.294 . S
O157 C166 1.240 . S
O158 In156 2.326 . S
O158 C166 1.252 . S
C159 O162 1.252 . S
C159 O163 1.260 . S
C160 O167 1.240 . S
C160 O168 1.252 . S
C161 O164 1.252 . S
C161 O165 1.260 . S
O162 In156 2.266 . S
O162 C159 1.252 . S
O163 In156 2.326 . S
O163 C159 1.260 . S
O164 In156 2.266 . S
O164 C161 1.252 . S
O165 In156 2.326 . S
O165 C161 1.260 . S
C166 O157 1.240 . S
C166 O158 1.252 . S
O167 In156 2.294 . S
O167 C160 1.240 . S
O168 In156 2.326 . S
O168 C160 1.252 . S
In169 O170 2.294 . S
In169 O171 2.326 . S
In169 O175 2.266 . S
In169 O176 2.326 . S
In169 O177 2.266 . S
In169 O178 2.326 . S
In169 O180 2.294 . S
In169 O181 2.326 . S
O170 In169 2.294 . S
O170 C179 1.240 . S
O171 In169 2.326 . S
O171 C179 1.252 . S
C172 O175 1.252 . S
C172 O176 1.260 . S
C173 O180 1.240 . S
C173 O181 1.252 . S
C174 O177 1.252 . S
C174 O178 1.260 . S
O175 In169 2.266 . S
O175 C172 1.252 . S
O176 In169 2.326 . S
O176 C172 1.260 . S
O177 In169 2.266 . S
O177 C174 1.252 . S
O178 In169 2.326 . S
O178 C174 1.260 . S
C179 O170 1.240 . S
C179 O171 1.252 . S
O180 In169 2.294 . S
O180 C173 1.240 . S
O181 In169 2.326 . S
O181 C173 1.252 . S
In182 O183 2.294 . S
In182 O184 2.326 . S
In182 O188 2.266 . S
In182 O189 2.326 . S
In182 O190 2.266 . S
In182 O191 2.326 . S
In182 O193 2.294 . S
In182 O194 2.326 . S
O183 In182 2.294 . S
O183 C192 1.240 . S
O184 In182 2.326 . S
O184 C192 1.252 . S
C185 O188 1.252 . S
C185 O189 1.260 . S
C186 O193 1.240 . S
C186 O194 1.252 . S
C187 O190 1.252 . S
C187 O191 1.260 . S
O188 In182 2.266 . S
O188 C185 1.252 . S
O189 In182 2.326 . S
O189 C185 1.260 . S
O190 In182 2.266 . S
O190 C187 1.252 . S
O191 In182 2.326 . S
O191 C187 1.260 . S
C192 O183 1.240 . S
C192 O184 1.252 . S
O193 In182 2.294 . S
O193 C186 1.240 . S
O194 In182 2.326 . S
O194 C186 1.252 . S
In195 O196 2.294 . S
In195 O197 2.325 1_554 S
In195 O201 2.266 . S
In195 O202 2.326 . S
In195 O203 2.266 . S
In195 O204 2.326 . S
In195 O206 2.294 1_554 S
In195 O207 2.326 1_554 S
O196 In195 2.294 . S
O196 C205 1.240 . S
O197 In195 2.325 1_556 S
O197 C205 1.252 1_556 S
C198 O201 1.252 . S
C198 O202 1.260 . S
C199 O206 1.240 . S
C199 O207 1.252 . S
C200 O203 1.252 . S
C200 O204 1.260 . S
O201 In195 2.266 . S
O201 C198 1.252 . S
O202 In195 2.326 . S
O202 C198 1.260 . S
O203 In195 2.266 . S
O203 C200 1.252 . S
O204 In195 2.326 . S
O204 C200 1.260 . S
C205 O196 1.240 . S
C205 O197 1.252 1_554 S
O206 In195 2.294 1_556 S
O206 C199 1.240 . S
O207 In195 2.326 1_556 S
O207 C199 1.252 . S
In208 O209 2.294 . S
In208 O210 2.326 . S
In208 O214 2.266 . S
In208 O215 2.326 . S
In208 O216 2.266 . S
In208 O217 2.326 . S
In208 O219 2.294 . S
In208 O220 2.326 . S
O209 In208 2.294 . S
O209 C218 1.240 . S
O210 In208 2.326 . S
O210 C218 1.252 . S
C211 O214 1.252 . S
C211 O215 1.260 . S
C212 O219 1.240 . S
C212 O220 1.252 . S
C213 O216 1.252 . S
C213 O217 1.260 . S
O214 In208 2.266 . S
O214 C211 1.252 . S
O215 In208 2.326 . S
O215 C211 1.260 . S
O216 In208 2.266 . S
O216 C213 1.252 . S
O217 In208 2.326 . S
O217 C213 1.260 . S
C218 O209 1.240 . S
C218 O210 1.252 . S
O219 In208 2.294 . S
O219 C212 1.240 . S
O220 In208 2.326 . S
O220 C212 1.252 . S
In221 O222 2.294 . S
In221 O223 2.325 1_554 S
In221 O227 2.266 . S
In221 O228 2.326 . S
In221 O229 2.266 . S
In221 O230 2.326 . S
In221 O232 2.294 1_554 S
In221 O233 2.326 1_554 S
O222 In221 2.294 . S
O222 C231 1.240 . S
O223 In221 2.325 1_556 S
O223 C231 1.252 1_556 S
C224 O227 1.252 . S
C224 O228 1.260 . S
C225 O232 1.240 . S
C225 O233 1.252 . S
C226 O229 1.252 . S
C226 O230 1.260 . S
O227 In221 2.266 . S
O227 C224 1.252 . S
O228 In221 2.326 . S
O228 C224 1.260 . S
O229 In221 2.266 . S
O229 C226 1.252 . S
O230 In221 2.326 . S
O230 C226 1.260 . S
C231 O222 1.240 . S
C231 O223 1.252 1_554 S
O232 In221 2.294 1_556 S
O232 C225 1.240 . S
O233 In221 2.326 1_556 S
O233 C225 1.252 . S
In234 O235 2.294 . S
In234 O236 2.326 . S
In234 O240 2.266 . S
In234 O241 2.326 . S
In234 O242 2.266 . S
In234 O243 2.326 . S
In234 O245 2.294 . S
In234 O246 2.326 . S
O235 In234 2.294 . S
O235 C244 1.240 . S
O236 In234 2.326 . S
O236 C244 1.252 . S
C237 O240 1.252 . S
C237 O241 1.260 . S
C238 O245 1.240 . S
C238 O246 1.252 . S
C239 O242 1.252 . S
C239 O243 1.260 . S
O240 In234 2.266 . S
O240 C237 1.252 . S
O241 In234 2.326 . S
O241 C237 1.260 . S
O242 In234 2.266 . S
O242 C239 1.252 . S
O243 In234 2.326 . S
O243 C239 1.260 . S
C244 O235 1.240 . S
C244 O236 1.252 . S
O245 In234 2.294 . S
O245 C238 1.240 . S
O246 In234 2.326 . S
O246 C238 1.252 . S
In247 O248 2.294 . S
In247 O249 2.326 . S
In247 O253 2.266 . S
In247 O254 2.326 . S
In247 O255 2.266 . S
In247 O256 2.326 . S
In247 O258 2.294 . S
In247 O259 2.326 . S
O248 In247 2.294 . S
O248 C257 1.240 . S
O249 In247 2.326 . S
O249 C257 1.252 . S
C250 O253 1.252 . S
C250 O254 1.260 . S
C251 O258 1.240 . S
C251 O259 1.252 . S
C252 O255 1.252 . S
C252 O256 1.260 . S
O253 In247 2.266 . S
O253 C250 1.252 . S
O254 In247 2.326 . S
O254 C250 1.260 . S
O255 In247 2.266 . S
O255 C252 1.252 . S
O256 In247 2.326 . S
O256 C252 1.260 . S
C257 O248 1.240 . S
C257 O249 1.252 . S
O258 In247 2.294 . S
O258 C251 1.240 . S
O259 In247 2.326 . S
O259 C251 1.252 . S
In260 O261 2.294 . S
In260 O262 2.326 . S
In260 O266 2.266 . S
In260 O267 2.326 . S
In260 O268 2.266 . S
In260 O269 2.326 . S
In260 O271 2.294 . S
In260 O272 2.326 . S
O261 In260 2.294 . S
O261 C270 1.240 . S
O262 In260 2.326 . S
O262 C270 1.252 . S
C263 O266 1.252 . S
C263 O267 1.260 . S
C264 O271 1.240 . S
C264 O272 1.252 . S
C265 O268 1.252 . S
C265 O269 1.260 . S
O266 In260 2.266 . S
O266 C263 1.252 . S
O267 In260 2.326 . S
O267 C263 1.260 . S
O268 In260 2.266 . S
O268 C265 1.252 . S
O269 In260 2.326 . S
O269 C265 1.260 . S
C270 O261 1.240 . S
C270 O262 1.252 . S
O271 In260 2.294 . S
O271 C264 1.240 . S
O272 In260 2.326 . S
O272 C264 1.252 . S
In273 O274 2.294 1_556 S
In273 O275 2.326 1_556 S
In273 O279 2.266 . S
In273 O280 2.326 . S
In273 O281 2.266 . S
In273 O282 2.326 . S
In273 O284 2.294 . S
In273 O285 2.325 1_556 S
O274 In273 2.294 1_554 S
O274 C283 1.240 . S
O275 In273 2.326 1_554 S
O275 C283 1.252 . S
C276 O279 1.252 . S
C276 O280 1.260 . S
C277 O284 1.240 . S
C277 O285 1.252 1_556 S
C278 O281 1.252 . S
C278 O282 1.260 . S
O279 In273 2.266 . S
O279 C276 1.252 . S
O280 In273 2.326 . S
O280 C276 1.260 . S
O281 In273 2.266 . S
O281 C278 1.252 . S
O282 In273 2.326 . S
O282 C278 1.260 . S
C283 O274 1.240 . S
C283 O275 1.252 . S
O284 In273 2.294 . S
O284 C277 1.240 . S
O285 In273 2.325 1_554 S
O285 C277 1.252 1_554 S
In286 O287 2.294 . S
In286 O288 2.326 . S
In286 O292 2.266 . S
In286 O293 2.326 . S
In286 O294 2.266 . S
In286 O295 2.326 . S
In286 O297 2.294 . S
In286 O298 2.326 . S
O287 In286 2.294 . S
O287 C296 1.240 . S
O288 In286 2.326 . S
O288 C296 1.252 . S
C289 O292 1.252 . S
C289 O293 1.260 . S
C290 O297 1.240 . S
C290 O298 1.252 . S
C291 O294 1.252 . S
C291 O295 1.260 . S
O292 In286 2.266 . S
O292 C289 1.252 . S
O293 In286 2.326 . S
O293 C289 1.260 . S
O294 In286 2.266 . S
O294 C291 1.252 . S
O295 In286 2.326 . S
O295 C291 1.260 . S
C296 O287 1.240 . S
C296 O288 1.252 . S
O297 In286 2.294 . S
O297 C290 1.240 . S
O298 In286 2.326 . S
O298 C290 1.252 . S
In299 O300 2.294 . S
In299 O301 2.326 . S
In299 O305 2.266 . S
In299 O306 2.326 . S
In299 O307 2.266 . S
In299 O308 2.326 . S
In299 O310 2.294 . S
In299 O311 2.326 . S
O300 In299 2.294 . S
O300 C309 1.240 . S
O301 In299 2.326 . S
O301 C309 1.252 . S
C302 O305 1.252 . S
C302 O306 1.260 . S
C303 O310 1.240 . S
C303 O311 1.252 . S
C304 O307 1.252 . S
C304 O308 1.260 . S
O305 In299 2.266 . S
O305 C302 1.252 . S
O306 In299 2.326 . S
O306 C302 1.260 . S
O307 In299 2.266 . S
O307 C304 1.252 . S
O308 In299 2.326 . S
O308 C304 1.260 . S
C309 O300 1.240 . S
C309 O301 1.252 . S
O310 In299 2.294 . S
O310 C303 1.240 . S
O311 In299 2.326 . S
O311 C303 1.252 . S
In312 O313 2.294 . S
In312 O314 2.326 . S
In312 O318 2.266 . S
In312 O319 2.326 . S
In312 O320 2.266 . S
In312 O321 2.326 . S
In312 O323 2.294 . S
In312 O324 2.326 . S
O313 In312 2.294 . S
O313 C322 1.240 . S
O314 In312 2.326 . S
O314 C322 1.252 . S
C315 O318 1.252 . S
C315 O319 1.260 . S
C316 O323 1.240 . S
C316 O324 1.252 . S
C317 O320 1.252 . S
C317 O321 1.260 . S
O318 In312 2.266 . S
O318 C315 1.252 . S
O319 In312 2.326 . S
O319 C315 1.260 . S
O320 In312 2.266 . S
O320 C317 1.252 . S
O321 In312 2.326 . S
O321 C317 1.260 . S
C322 O313 1.240 . S
C322 O314 1.252 . S
O323 In312 2.294 . S
O323 C316 1.240 . S
O324 In312 2.326 . S
O324 C316 1.252 . S
In325 O326 2.294 1_556 S
In325 O327 2.326 1_556 S
In325 O331 2.266 . S
In325 O332 2.326 . S
In325 O333 2.266 . S
In325 O334 2.326 . S
In325 O336 2.294 . S
In325 O337 2.325 1_556 S
O326 In325 2.294 1_554 S
O326 C335 1.240 . S
O327 In325 2.326 1_554 S
O327 C335 1.252 . S
C328 O331 1.252 . S
C328 O332 1.260 . S
C329 O336 1.240 . S
C329 O337 1.252 1_556 S
C330 O333 1.252 . S
C330 O334 1.260 . S
O331 In325 2.266 . S
O331 C328 1.252 . S
O332 In325 2.326 . S
O332 C328 1.260 . S
O333 In325 2.266 . S
O333 C330 1.252 . S
O334 In325 2.326 . S
O334 C330 1.260 . S
C335 O326 1.240 . S
C335 O327 1.252 . S
O336 In325 2.294 . S
O336 C329 1.240 . S
O337 In325 2.325 1_554 S
O337 C329 1.252 1_554 S
In338 O339 2.294 . S
In338 O340 2.326 . S
In338 O344 2.266 . S
In338 O345 2.326 . S
In338 O346 2.266 . S
In338 O347 2.326 . S
In338 O349 2.294 . S
In338 O350 2.326 . S
O339 In338 2.294 . S
O339 C348 1.240 . S
O340 In338 2.326 . S
O340 C348 1.252 . S
C341 O344 1.252 . S
C341 O345 1.260 . S
C342 O349 1.240 . S
C342 O350 1.252 . S
C343 O346 1.252 . S
C343 O347 1.260 . S
O344 In338 2.266 . S
O344 C341 1.252 . S
O345 In338 2.326 . S
O345 C341 1.260 . S
O346 In338 2.266 . S
O346 C343 1.252 . S
O347 In338 2.326 . S
O347 C343 1.260 . S
C348 O339 1.240 . S
C348 O340 1.252 . S
O349 In338 2.294 . S
O349 C342 1.240 . S
O350 In338 2.326 . S
O350 C342 1.252 . S
In351 O352 2.294 . S
In351 O353 2.326 . S
In351 O357 2.266 . S
In351 O358 2.326 . S
In351 O359 2.266 . S
In351 O360 2.326 . S
In351 O362 2.294 . S
In351 O363 2.326 . S
O352 In351 2.294 . S
O352 C361 1.240 . S
O353 In351 2.326 . S
O353 C361 1.252 . S
C354 O357 1.252 . S
C354 O358 1.260 . S
C355 O362 1.240 . S
C355 O363 1.252 . S
C356 O359 1.252 . S
C356 O360 1.260 . S
O357 In351 2.266 . S
O357 C354 1.252 . S
O358 In351 2.326 . S
O358 C354 1.260 . S
O359 In351 2.266 . S
O359 C356 1.252 . S
O360 In351 2.326 . S
O360 C356 1.260 . S
C361 O352 1.240 . S
C361 O353 1.252 . S
O362 In351 2.294 . S
O362 C355 1.240 . S
O363 In351 2.326 . S
O363 C355 1.252 . S
In364 O365 2.294 . S
In364 O366 2.326 . S
In364 O370 2.266 . S
In364 O371 2.326 . S
In364 O372 2.266 . S
In364 O373 2.326 . S
In364 O375 2.294 . S
In364 O376 2.326 . S
O365 In364 2.294 . S
O365 C374 1.240 . S
O366 In364 2.326 . S
O366 C374 1.252 . S
C367 O370 1.252 . S
C367 O371 1.260 . S
C368 O375 1.240 . S
C368 O376 1.252 . S
C369 O372 1.252 . S
C369 O373 1.260 . S
O370 In364 2.266 . S
O370 C367 1.252 . S
O371 In364 2.326 . S
O371 C367 1.260 . S
O372 In364 2.266 . S
O372 C369 1.252 . S
O373 In364 2.326 . S
O373 C369 1.260 . S
C374 O365 1.240 . S
C374 O366 1.252 . S
O375 In364 2.294 . S
O375 C368 1.240 . S
O376 In364 2.326 . S
O376 C368 1.252 . S
In377 O378 2.294 . S
In377 O379 2.325 1_554 S
In377 O383 2.266 . S
In377 O384 2.326 . S
In377 O385 2.266 . S
In377 O386 2.326 . S
In377 O388 2.294 1_554 S
In377 O389 2.326 1_554 S
O378 In377 2.294 . S
O378 C387 1.240 . S
O379 In377 2.325 1_556 S
O379 C387 1.252 1_556 S
C380 O383 1.252 . S
C380 O384 1.260 . S
C381 O388 1.240 . S
C381 O389 1.252 . S
C382 O385 1.252 . S
C382 O386 1.260 . S
O383 In377 2.266 . S
O383 C380 1.252 . S
O384 In377 2.326 . S
O384 C380 1.260 . S
O385 In377 2.266 . S
O385 C382 1.252 . S
O386 In377 2.326 . S
O386 C382 1.260 . S
C387 O378 1.240 . S
C387 O379 1.252 1_554 S
O388 In377 2.294 1_556 S
O388 C381 1.240 . S
O389 In377 2.326 1_556 S
O389 C381 1.252 . S
In390 O391 2.294 . S
In390 O392 2.326 . S
In390 O396 2.266 . S
In390 O397 2.326 . S
In390 O398 2.266 . S
In390 O399 2.326 . S
In390 O401 2.294 . S
In390 O402 2.326 . S
O391 In390 2.294 . S
O391 C400 1.240 . S
O392 In390 2.326 . S
O392 C400 1.252 . S
C393 O396 1.252 . S
C393 O397 1.260 . S
C394 O401 1.240 . S
C394 O402 1.252 . S
C395 O398 1.252 . S
C395 O399 1.260 . S
O396 In390 2.266 . S
O396 C393 1.252 . S
O397 In390 2.326 . S
O397 C393 1.260 . S
O398 In390 2.266 . S
O398 C395 1.252 . S
O399 In390 2.326 . S
O399 C395 1.260 . S
C400 O391 1.240 . S
C400 O392 1.252 . S
O401 In390 2.294 . S
O401 C394 1.240 . S
O402 In390 2.326 . S
O402 C394 1.252 . S
In403 O404 2.294 . S
In403 O405 2.326 . S
In403 O409 2.266 . S
In403 O410 2.326 . S
In403 O411 2.266 . S
In403 O412 2.326 . S
In403 O414 2.294 . S
In403 O415 2.326 . S
O404 In403 2.294 . S
O404 C413 1.240 . S
O405 In403 2.326 . S
O405 C413 1.252 . S
C406 O409 1.252 . S
C406 O410 1.260 . S
C407 O414 1.240 . S
C407 O415 1.252 . S
C408 O411 1.252 . S
C408 O412 1.260 . S
O409 In403 2.266 . S
O409 C406 1.252 . S
O410 In403 2.326 . S
O410 C406 1.260 . S
O411 In403 2.266 . S
O411 C408 1.252 . S
O412 In403 2.326 . S
O412 C408 1.260 . S
C413 O404 1.240 . S
C413 O405 1.252 . S
O414 In403 2.294 . S
O414 C407 1.240 . S
O415 In403 2.326 . S
O415 C407 1.252 . S
C416 C417 1.363 . S
C416 C422 1.379 . S
C416 N424 1.356 . S
C417 C416 1.363 . S
C417 C423 1.363 . S
C418 C419 1.363 . S
C418 C423 1.379 . S
C418 N425 1.356 . S
C419 C418 1.363 . S
C419 C422 1.363 . S
N420 C422 1.356 . S
N420 H432 0.984 . S
N420 H433 0.985 . S
N421 C423 1.356 . S
N421 H426 0.984 . S
N421 H427 0.985 . S
C422 C416 1.379 . S
C422 C419 1.363 . S
C422 N420 1.356 . S
C423 C417 1.363 . S
C423 C418 1.379 . S
C423 N421 1.356 . S
N424 C416 1.356 . S
N424 H430 0.984 . S
N424 H431 0.984 . S
N425 C418 1.356 . S
N425 H428 0.984 . S
N425 H429 0.985 . S
H426 N421 0.984 . S
H427 N421 0.985 . S
H428 N425 0.984 . S
H429 N425 0.985 . S
H430 N424 0.984 . S
H431 N424 0.984 . S
H432 N420 0.984 . S
H433 N420 0.985 . S
C434 C435 1.363 . S
C434 C440 1.379 . S
C434 N442 1.356 . S
C435 C434 1.363 . S
C435 C441 1.363 . S
C436 C437 1.363 . S
C436 C441 1.379 . S
C436 N443 1.356 . S
C437 C436 1.363 . S
C437 C440 1.363 . S
N438 C440 1.356 . S
N438 H450 0.984 . S
N438 H451 0.985 . S
N439 C441 1.356 1_655 S
N439 H444 0.984 . S
N439 H445 0.985 . S
C440 C434 1.379 . S
C440 C437 1.363 . S
C440 N438 1.356 . S
C441 C435 1.363 . S
C441 C436 1.379 . S
C441 N439 1.356 1_455 S
N442 C434 1.356 . S
N442 H448 0.984 . S
N442 H449 0.984 . S
N443 C436 1.356 . S
N443 H446 0.984 . S
N443 H447 0.985 . S
H444 N439 0.984 . S
H445 N439 0.985 . S
H446 N443 0.984 . S
H447 N443 0.985 . S
H448 N442 0.984 . S
H449 N442 0.984 . S
H450 N438 0.984 . S
H451 N438 0.985 . S
C452 C453 1.363 . S
C452 C458 1.379 . S
C452 N460 1.356 . S
C453 C452 1.363 . S
C453 C459 1.363 . S
C454 C455 1.363 . S
C454 C459 1.379 . S
C454 N461 1.356 . S
C455 C454 1.363 . S
C455 C458 1.363 . S
N456 C458 1.356 . S
N456 H468 0.984 . S
N456 H469 0.985 . S
N457 C459 1.356 . S
N457 H462 0.984 . S
N457 H463 0.985 . S
C458 C452 1.379 . S
C458 C455 1.363 . S
C458 N456 1.356 . S
C459 C453 1.363 . S
C459 C454 1.379 . S
C459 N457 1.356 . S
N460 C452 1.356 . S
N460 H466 0.984 . S
N460 H467 0.984 . S
N461 C454 1.356 . S
N461 H464 0.984 . S
N461 H465 0.985 . S
H462 N457 0.984 . S
H463 N457 0.985 . S
H464 N461 0.984 . S
H465 N461 0.985 . S
H466 N460 0.984 . S
H467 N460 0.984 . S
H468 N456 0.984 . S
H469 N456 0.985 . S
C470 C471 1.363 . S
C470 C476 1.379 . S
C470 N478 1.356 . S
C471 C470 1.363 . S
C471 C477 1.363 . S
C472 C473 1.363 . S
C472 C477 1.379 . S
C472 N479 1.356 . S
C473 C472 1.363 . S
C473 C476 1.363 . S
N474 C476 1.356 . S
N474 H486 0.984 . S
N474 H487 0.985 . S
N475 C477 1.356 . S
N475 H480 0.984 . S
N475 H481 0.985 . S
C476 C470 1.379 . S
C476 C473 1.363 . S
C476 N474 1.356 . S
C477 C471 1.363 . S
C477 C472 1.379 . S
C477 N475 1.356 . S
N478 C470 1.356 . S
N478 H484 0.984 . S
N478 H485 0.984 . S
N479 C472 1.356 . S
N479 H482 0.984 . S
N479 H483 0.985 . S
H480 N475 0.984 . S
H481 N475 0.985 . S
H482 N479 0.984 . S
H483 N479 0.985 . S
H484 N478 0.984 . S
H485 N478 0.984 . S
H486 N474 0.984 . S
H487 N474 0.985 . S
C488 C489 1.363 . S
C488 C494 1.379 . S
C488 N496 1.356 . S
C489 C488 1.363 . S
C489 C495 1.363 . S
C490 C491 1.363 . S
C490 C495 1.379 . S
C490 N497 1.356 . S
C491 C490 1.363 . S
C491 C494 1.363 . S
N492 C494 1.356 . S
N492 H504 0.984 . S
N492 H505 0.985 . S
N493 C495 1.356 . S
N493 H498 0.984 . S
N493 H499 0.985 . S
C494 C488 1.379 . S
C494 C491 1.363 . S
C494 N492 1.356 . S
C495 C489 1.363 . S
C495 C490 1.379 . S
C495 N493 1.356 . S
N496 C488 1.356 . S
N496 H502 0.984 . S
N496 H503 0.984 . S
N497 C490 1.356 . S
N497 H500 0.984 . S
N497 H501 0.985 . S
H498 N493 0.984 . S
H499 N493 0.985 . S
H500 N497 0.984 . S
H501 N497 0.985 . S
H502 N496 0.984 . S
H503 N496 0.984 . S
H504 N492 0.984 . S
H505 N492 0.985 . S
C506 C507 1.363 . S
C506 C512 1.379 . S
C506 N514 1.356 . S
C507 C506 1.363 . S
C507 C513 1.363 . S
C508 C509 1.363 . S
C508 C513 1.379 . S
C508 N515 1.356 . S
C509 C508 1.363 . S
C509 C512 1.363 . S
N510 C512 1.356 . S
N510 H522 0.984 . S
N510 H523 0.985 . S
N511 C513 1.356 . S
N511 H516 0.984 . S
N511 H517 0.985 . S
C512 C506 1.379 . S
C512 C509 1.363 . S
C512 N510 1.356 . S
C513 C507 1.363 . S
C513 C508 1.379 . S
C513 N511 1.356 . S
N514 C506 1.356 . S
N514 H520 0.984 . S
N514 H521 0.984 . S
N515 C508 1.356 . S
N515 H518 0.984 . S
N515 H519 0.985 . S
H516 N511 0.984 . S
H517 N511 0.985 . S
H518 N515 0.984 . S
H519 N515 0.985 . S
H520 N514 0.984 . S
H521 N514 0.984 . S
H522 N510 0.984 . S
H523 N510 0.985 . S
C524 C525 1.363 . S
C524 C530 1.379 . S
C524 N532 1.356 . S
C525 C524 1.363 . S
C525 C531 1.363 . S
C526 C527 1.363 . S
C526 C531 1.379 . S
C526 N533 1.356 . S
C527 C526 1.363 . S
C527 C530 1.363 . S
N528 C530 1.356 . S
N528 H540 0.984 . S
N528 H541 0.985 . S
N529 C531 1.356 . S
N529 H534 0.984 . S
N529 H535 0.985 . S
C530 C524 1.379 . S
C530 C527 1.363 . S
C530 N528 1.356 . S
C531 C525 1.363 . S
C531 C526 1.379 . S
C531 N529 1.356 . S
N532 C524 1.356 . S
N532 H538 0.984 . S
N532 H539 0.984 . S
N533 C526 1.356 . S
N533 H536 0.984 . S
N533 H537 0.985 . S
H534 N529 0.984 . S
H535 N529 0.985 . S
H536 N533 0.984 . S
H537 N533 0.985 . S
H538 N532 0.984 . S
H539 N532 0.984 . S
H540 N528 0.984 . S
H541 N528 0.985 . S
C542 C543 1.363 . S
C542 C548 1.379 . S
C542 N550 1.356 . S
C543 C542 1.363 . S
C543 C549 1.363 . S
C544 C545 1.363 . S
C544 C549 1.379 . S
C544 N551 1.356 . S
C545 C544 1.363 . S
C545 C548 1.363 . S
N546 C548 1.356 1_655 S
N546 H558 0.984 . S
N546 H559 0.985 . S
N547 C549 1.356 . S
N547 H552 0.984 . S
N547 H553 0.985 . S
C548 C542 1.379 . S
C548 C545 1.363 . S
C548 N546 1.356 1_455 S
C549 C543 1.363 . S
C549 C544 1.379 . S
C549 N547 1.356 . S
N550 C542 1.356 . S
N550 H556 0.984 . S
N550 H557 0.984 . S
N551 C544 1.356 . S
N551 H554 0.984 . S
N551 H555 0.985 . S
H552 N547 0.984 . S
H553 N547 0.985 . S
H554 N551 0.984 . S
H555 N551 0.985 . S
H556 N550 0.984 . S
H557 N550 0.984 . S
H558 N546 0.984 . S
H559 N546 0.985 . S
C560 C561 1.363 . S
C560 C566 1.379 . S
C560 N568 1.356 . S
C561 C560 1.363 . S
C561 C567 1.363 . S
C562 C563 1.363 . S
C562 C567 1.379 . S
C562 N569 1.356 . S
C563 C562 1.363 . S
C563 C566 1.363 . S
N564 C566 1.356 . S
N564 H576 0.984 . S
N564 H577 0.985 . S
N565 C567 1.356 . S
N565 H570 0.984 . S
N565 H571 0.985 . S
C566 C560 1.379 . S
C566 C563 1.363 . S
C566 N564 1.356 . S
C567 C561 1.363 . S
C567 C562 1.379 . S
C567 N565 1.356 . S
N568 C560 1.356 . S
N568 H574 0.984 . S
N568 H575 0.984 . S
N569 C562 1.356 . S
N569 H572 0.984 . S
N569 H573 0.985 . S
H570 N565 0.984 . S
H571 N565 0.985 . S
H572 N569 0.984 . S
H573 N569 0.985 . S
H574 N568 0.984 . S
H575 N568 0.984 . S
H576 N564 0.984 . S
H577 N564 0.985 . S
C578 C579 1.363 . S
C578 C584 1.379 . S
C578 N586 1.351 1_655 S
C579 C578 1.363 . S
C579 C585 1.363 . S
C580 C581 1.363 . S
C580 C585 1.379 . S
C580 N587 1.356 . S
C581 C580 1.363 . S
C581 C584 1.363 . S
N582 C584 1.356 . S
N582 H594 0.984 . S
N582 H595 0.985 . S
N583 C585 1.356 . S
N583 H588 0.984 . S
N583 H589 0.985 . S
C584 C578 1.379 . S
C584 C581 1.363 . S
C584 N582 1.356 . S
C585 C579 1.363 . S
C585 C580 1.379 . S
C585 N583 1.356 . S
N586 C578 1.351 1_455 S
N586 H592 0.986 . S
N586 H593 0.989 . S
N587 C580 1.356 . S
N587 H590 0.984 . S
N587 H591 0.985 . S
H588 N583 0.984 . S
H589 N583 0.985 . S
H590 N587 0.984 . S
H591 N587 0.985 . S
H592 N586 0.986 . S
H593 N586 0.989 . S
H594 N582 0.984 . S
H595 N582 0.985 . S
C596 C597 1.363 . S
C596 C602 1.379 . S
C596 N604 1.356 . S
C597 C596 1.363 . S
C597 C603 1.363 . S
C598 C599 1.363 . S
C598 C603 1.379 . S
C598 N605 1.356 . S
C599 C598 1.363 . S
C599 C602 1.363 . S
N600 C602 1.356 . S
N600 H612 0.984 . S
N600 H613 0.985 . S
N601 C603 1.356 . S
N601 H606 0.984 . S
N601 H607 0.985 . S
C602 C596 1.379 . S
C602 C599 1.363 . S
C602 N600 1.356 . S
C603 C597 1.363 . S
C603 C598 1.379 . S
C603 N601 1.356 . S
N604 C596 1.356 . S
N604 H610 0.984 . S
N604 H611 0.984 . S
N605 C598 1.356 . S
N605 H608 0.984 . S
N605 H609 0.985 . S
H606 N601 0.984 . S
H607 N601 0.985 . S
H608 N605 0.984 . S
H609 N605 0.985 . S
H610 N604 0.984 . S
H611 N604 0.984 . S
H612 N600 0.984 . S
H613 N600 0.985 . S
C614 C615 1.363 . S
C614 C620 1.379 . S
C614 N622 1.356 . S
C615 C614 1.363 . S
C615 C621 1.363 . S
C616 C617 1.363 . S
C616 C621 1.379 . S
C616 N623 1.356 . S
C617 C616 1.363 . S
C617 C620 1.363 . S
N618 C620 1.356 . S
N618 H630 0.984 . S
N618 H631 0.985 . S
N619 C621 1.356 . S
N619 H624 0.984 . S
N619 H625 0.985 . S
C620 C614 1.379 . S
C620 C617 1.363 . S
C620 N618 1.356 . S
C621 C615 1.363 . S
C621 C616 1.379 . S
C621 N619 1.356 . S
N622 C614 1.356 . S
N622 H628 0.984 . S
N622 H629 0.984 . S
N623 C616 1.356 . S
N623 H626 0.984 . S
N623 H627 0.985 . S
H624 N619 0.984 . S
H625 N619 0.985 . S
H626 N623 0.984 . S
H627 N623 0.985 . S
H628 N622 0.984 . S
H629 N622 0.984 . S
H630 N618 0.984 . S
H631 N618 0.985 . S
C632 C633 1.363 . S
C632 C638 1.379 . S
C632 N640 1.356 . S
C633 C632 1.363 . S
C633 C639 1.363 . S
C634 C635 1.363 . S
C634 C639 1.379 . S
C634 N641 1.356 . S
C635 C634 1.363 . S
C635 C638 1.363 . S
N636 C638 1.356 . S
N636 H648 0.984 . S
N636 H649 0.985 . S
N637 C639 1.356 . S
N637 H642 0.984 . S
N637 H643 0.985 . S
C638 C632 1.379 . S
C638 C635 1.363 . S
C638 N636 1.356 . S
C639 C633 1.363 . S
C639 C634 1.379 . S
C639 N637 1.356 . S
N640 C632 1.356 . S
N640 H646 0.984 . S
N640 H647 0.984 . S
N641 C634 1.356 . S
N641 H644 0.984 . S
N641 H645 0.985 . S
H642 N637 0.984 . S
H643 N637 0.985 . S
H644 N641 0.984 . S
H645 N641 0.985 . S
H646 N640 0.984 . S
H647 N640 0.984 . S
H648 N636 0.984 . S
H649 N636 0.985 . S
C650 C651 1.363 . S
C650 C656 1.379 . S
C650 N658 1.356 . S
C651 C650 1.363 . S
C651 C657 1.363 . S
C652 C653 1.363 . S
C652 C657 1.379 . S
C652 N659 1.356 . S
C653 C652 1.363 . S
C653 C656 1.363 . S
N654 C656 1.356 . S
N654 H666 0.984 . S
N654 H667 0.985 . S
N655 C657 1.356 . S
N655 H660 0.984 . S
N655 H661 0.985 . S
C656 C650 1.379 . S
C656 C653 1.363 . S
C656 N654 1.356 . S
C657 C651 1.363 . S
C657 C652 1.379 . S
C657 N655 1.356 . S
N658 C650 1.356 . S
N658 H664 0.984 . S
N658 H665 0.984 . S
N659 C652 1.356 . S
N659 H662 0.984 . S
N659 H663 0.985 . S
H660 N655 0.984 . S
H661 N655 0.985 . S
H662 N659 0.984 . S
H663 N659 0.985 . S
H664 N658 0.984 . S
H665 N658 0.984 . S
H666 N654 0.984 . S
H667 N654 0.985 . S
C668 C669 1.363 . S
C668 C674 1.379 . S
C668 N676 1.356 . S
C669 C668 1.363 . S
C669 C675 1.363 . S
C670 C671 1.363 . S
C670 C675 1.379 . S
C670 N677 1.356 . S
C671 C670 1.363 . S
C671 C674 1.363 . S
N672 C674 1.356 . S
N672 H684 0.984 . S
N672 H685 0.985 . S
N673 C675 1.356 . S
N673 H678 0.984 . S
N673 H679 0.985 . S
C674 C668 1.379 . S
C674 C671 1.363 . S
C674 N672 1.356 . S
C675 C669 1.363 . S
C675 C670 1.379 . S
C675 N673 1.356 . S
N676 C668 1.356 . S
N676 H682 0.984 . S
N676 H683 0.984 . S
N677 C670 1.356 . S
N677 H680 0.984 . S
N677 H681 0.985 . S
H678 N673 0.984 . S
H679 N673 0.985 . S
H680 N677 0.984 . S
H681 N677 0.985 . S
H682 N676 0.984 . S
H683 N676 0.984 . S
H684 N672 0.984 . S
H685 N672 0.985 . S
C686 C687 1.363 . S
C686 C692 1.379 . S
C686 N694 1.356 . S
C687 C686 1.363 . S
C687 C693 1.363 . S
C688 C689 1.363 . S
C688 C693 1.379 . S
C688 N695 1.356 1_655 S
C689 C688 1.363 . S
C689 C692 1.363 . S
N690 C692 1.356 . S
N690 H702 0.984 . S
N690 H703 0.985 . S
N691 C693 1.356 . S
N691 H696 0.984 . S
N691 H697 0.985 . S
C692 C686 1.379 . S
C692 C689 1.363 . S
C692 N690 1.356 . S
C693 C687 1.363 . S
C693 C688 1.379 . S
C693 N691 1.356 . S
N694 C686 1.356 . S
N694 H700 0.984 . S
N694 H701 0.984 . S
N695 C688 1.356 1_455 S
N695 H698 0.984 . S
N695 H699 0.985 . S
H696 N691 0.984 . S
H697 N691 0.985 . S
H698 N695 0.984 . S
H699 N695 0.985 . S
H700 N694 0.984 . S
H701 N694 0.984 . S
H702 N690 0.984 . S
H703 N690 0.985 . S
C704 C705 1.363 . S
C704 C710 1.379 . S
C704 N712 1.356 . S
C705 C704 1.363 . S
C705 C711 1.363 . S
C706 C707 1.363 . S
C706 C711 1.379 . S
C706 N713 1.356 . S
C707 C706 1.363 . S
C707 C710 1.363 . S
N708 C710 1.356 . S
N708 H720 0.984 . S
N708 H721 0.985 . S
N709 C711 1.356 . S
N709 H714 0.984 . S
N709 H715 0.985 . S
C710 C704 1.379 . S
C710 C707 1.363 . S
C710 N708 1.356 . S
C711 C705 1.363 . S
C711 C706 1.379 . S
C711 N709 1.356 . S
N712 C704 1.356 . S
N712 H718 0.984 . S
N712 H719 0.984 . S
N713 C706 1.356 . S
N713 H716 0.984 . S
N713 H717 0.985 . S
H714 N709 0.984 . S
H715 N709 0.985 . S
H716 N713 0.984 . S
H717 N713 0.985 . S
H718 N712 0.984 . S
H719 N712 0.984 . S
H720 N708 0.984 . S
H721 N708 0.985 . S
C722 C723 1.363 . S
C722 C728 1.379 . S
C722 N730 1.356 . S
C723 C722 1.363 . S
C723 C729 1.363 . S
C724 C725 1.363 . S
C724 C729 1.379 . S
C724 N731 1.356 . S
C725 C724 1.363 . S
C725 C728 1.363 . S
N726 C728 1.356 . S
N726 H738 0.984 . S
N726 H739 0.985 . S
N727 C729 1.356 . S
N727 H732 0.984 . S
N727 H733 0.985 . S
C728 C722 1.379 . S
C728 C725 1.363 . S
C728 N726 1.356 . S
C729 C723 1.363 . S
C729 C724 1.379 . S
C729 N727 1.356 . S
N730 C722 1.356 . S
N730 H736 0.984 . S
N730 H737 0.984 . S
N731 C724 1.356 . S
N731 H734 0.984 . S
N731 H735 0.985 . S
H732 N727 0.984 . S
H733 N727 0.985 . S
H734 N731 0.984 . S
H735 N731 0.985 . S
H736 N730 0.984 . S
H737 N730 0.984 . S
H738 N726 0.984 . S
H739 N726 0.985 . S
C740 C741 1.363 . S
C740 C746 1.379 . S
C740 N748 1.356 . S
C741 C740 1.363 . S
C741 C747 1.363 . S
C742 C743 1.363 . S
C742 C747 1.379 . S
C742 N749 1.356 . S
C743 C742 1.363 . S
C743 C746 1.363 . S
N744 C746 1.356 . S
N744 H756 0.984 . S
N744 H757 0.985 . S
N745 C747 1.356 . S
N745 H750 0.984 . S
N745 H751 0.985 . S
C746 C740 1.379 . S
C746 C743 1.363 . S
C746 N744 1.356 . S
C747 C741 1.363 . S
C747 C742 1.379 . S
C747 N745 1.356 . S
N748 C740 1.356 . S
N748 H754 0.984 . S
N748 H755 0.984 . S
N749 C742 1.356 . S
N749 H752 0.984 . S
N749 H753 0.985 . S
H750 N745 0.984 . S
H751 N745 0.985 . S
H752 N749 0.984 . S
H753 N749 0.985 . S
H754 N748 0.984 . S
H755 N748 0.984 . S
H756 N744 0.984 . S
H757 N744 0.985 . S
C758 C759 1.363 . S
C758 C764 1.379 . S
C758 N766 1.356 . S
C759 C758 1.363 . S
C759 C765 1.363 . S
C760 C761 1.363 . S
C760 C765 1.379 . S
C760 N767 1.356 . S
C761 C760 1.363 . S
C761 C764 1.363 . S
N762 C764 1.356 1_455 S
N762 H774 0.984 . S
N762 H775 0.985 . S
N763 C765 1.356 . S
N763 H768 0.984 . S
N763 H769 0.985 . S
C764 C758 1.379 . S
C764 C761 1.363 . S
C764 N762 1.356 1_655 S
C765 C759 1.363 . S
C765 C760 1.379 . S
C765 N763 1.356 . S
N766 C758 1.356 . S
N766 H772 0.984 . S
N766 H773 0.984 . S
N767 C760 1.356 . S
N767 H770 0.984 . S
N767 H771 0.985 . S
H768 N763 0.984 . S
H769 N763 0.985 . S
H770 N767 0.984 . S
H771 N767 0.985 . S
H772 N766 0.984 . S
H773 N766 0.984 . S
H774 N762 0.984 . S
H775 N762 0.985 . S
C776 C777 1.363 . S
C776 C782 1.379 . S
C776 N784 1.356 . S
C777 C776 1.363 . S
C777 C783 1.363 . S
C778 C779 1.363 . S
C778 C783 1.379 . S
C778 N785 1.356 . S
C779 C778 1.363 . S
C779 C782 1.363 . S
N780 C782 1.356 . S
N780 H792 0.984 . S
N780 H793 0.985 . S
N781 C783 1.356 . S
N781 H786 0.984 . S
N781 H787 0.985 . S
C782 C776 1.379 . S
C782 C779 1.363 . S
C782 N780 1.356 . S
C783 C777 1.363 . S
C783 C778 1.379 . S
C783 N781 1.356 . S
N784 C776 1.356 . S
N784 H790 0.984 . S
N784 H791 0.984 . S
N785 C778 1.356 . S
N785 H788 0.984 . S
N785 H789 0.985 . S
H786 N781 0.984 . S
H787 N781 0.985 . S
H788 N785 0.984 . S
H789 N785 0.985 . S
H790 N784 0.984 . S
H791 N784 0.984 . S
H792 N780 0.984 . S
H793 N780 0.985 . S
C794 C795 1.363 . S
C794 C800 1.379 . S
C794 N802 1.356 . S
C795 C794 1.363 . S
C795 C801 1.363 . S
C796 C797 1.363 . S
C796 C801 1.379 . S
C796 N803 1.356 . S
C797 C796 1.363 . S
C797 C800 1.363 . S
N798 C800 1.356 . S
N798 H810 0.984 . S
N798 H811 0.985 . S
N799 C801 1.356 1_455 S
N799 H804 0.984 . S
N799 H805 0.985 . S
C800 C794 1.379 . S
C800 C797 1.363 . S
C800 N798 1.356 . S
C801 C795 1.363 . S
C801 C796 1.379 . S
C801 N799 1.356 1_655 S
N802 C794 1.356 . S
N802 H808 0.984 . S
N802 H809 0.984 . S
N803 C796 1.356 . S
N803 H806 0.984 . S
N803 H807 0.985 . S
H804 N799 0.984 . S
H805 N799 0.985 . S
H806 N803 0.984 . S
H807 N803 0.985 . S
H808 N802 0.984 . S
H809 N802 0.984 . S
H810 N798 0.984 . S
H811 N798 0.985 . S
C812 C813 1.363 . S
C812 C818 1.379 . S
C812 N820 1.356 . S
C813 C812 1.363 . S
C813 C819 1.363 . S
C814 C815 1.363 . S
C814 C819 1.379 . S
C814 N821 1.356 . S
C815 C814 1.363 . S
C815 C818 1.363 . S
N816 C818 1.356 . S
N816 H828 0.984 . S
N816 H829 0.985 . S
N817 C819 1.356 . S
N817 H822 0.984 . S
N817 H823 0.985 . S
C818 C812 1.379 . S
C818 C815 1.363 . S
C818 N816 1.356 . S
C819 C813 1.363 . S
C819 C814 1.379 . S
C819 N817 1.356 . S
N820 C812 1.356 . S
N820 H826 0.984 . S
N820 H827 0.984 . S
N821 C814 1.356 . S
N821 H824 0.984 . S
N821 H825 0.985 . S
H822 N817 0.984 . S
H823 N817 0.985 . S
H824 N821 0.984 . S
H825 N821 0.985 . S
H826 N820 0.984 . S
H827 N820 0.984 . S
H828 N816 0.984 . S
H829 N816 0.985 . S
C830 C831 1.363 . S
C830 C836 1.379 . S
C830 N838 1.356 . S
C831 C830 1.363 . S
C831 C837 1.363 . S
C832 C833 1.363 . S
C832 C837 1.379 . S
C832 N839 1.356 . S
C833 C832 1.363 . S
C833 C836 1.363 . S
N834 C836 1.356 . S
N834 H846 0.984 . S
N834 H847 0.985 . S
N835 C837 1.356 . S
N835 H840 0.984 . S
N835 H841 0.985 . S
C836 C830 1.379 . S
C836 C833 1.363 . S
C836 N834 1.356 . S
C837 C831 1.363 . S
C837 C832 1.379 . S
C837 N835 1.356 . S
N838 C830 1.356 . S
N838 H844 0.984 . S
N838 H845 0.984 . S
N839 C832 1.356 . S
N839 H842 0.984 . S
N839 H843 0.985 . S
H840 N835 0.984 . S
H841 N835 0.985 . S
H842 N839 0.984 . S
H843 N839 0.985 . S
H844 N838 0.984 . S
H845 N838 0.984 . S
H846 N834 0.984 . S
H847 N834 0.985 . S
C848 C849 1.363 . S
C848 C854 1.379 . S
C848 N856 1.356 . S
C849 C848 1.363 . S
C849 C855 1.363 . S
C850 C851 1.363 . S
C850 C855 1.379 . S
C850 N857 1.356 . S
C851 C850 1.363 . S
C851 C854 1.363 . S
N852 C854 1.356 . S
N852 H864 0.984 . S
N852 H865 0.985 . S
N853 C855 1.356 . S
N853 H858 0.984 . S
N853 H859 0.985 . S
C854 C848 1.379 . S
C854 C851 1.363 . S
C854 N852 1.356 . S
C855 C849 1.363 . S
C855 C850 1.379 . S
C855 N853 1.356 . S
N856 C848 1.356 . S
N856 H862 0.984 . S
N856 H863 0.984 . S
N857 C850 1.356 . S
N857 H860 0.984 . S
N857 H861 0.985 . S
H858 N853 0.984 . S
H859 N853 0.985 . S
H860 N857 0.984 . S
H861 N857 0.985 . S
H862 N856 0.984 . S
H863 N856 0.984 . S
H864 N852 0.984 . S
H865 N852 0.985 . S
C866 C867 1.363 . S
C866 C872 1.379 . S
C866 N874 1.356 . S
C867 C866 1.363 . S
C867 C873 1.363 . S
C868 C869 1.363 . S
C868 C873 1.379 . S
C868 N875 1.356 . S
C869 C868 1.363 . S
C869 C872 1.363 . S
N870 C872 1.356 . S
N870 H882 0.984 . S
N870 H883 0.985 . S
N871 C873 1.356 . S
N871 H876 0.984 . S
N871 H877 0.985 . S
C872 C866 1.379 . S
C872 C869 1.363 . S
C872 N870 1.356 . S
C873 C867 1.363 . S
C873 C868 1.379 . S
C873 N871 1.356 . S
N874 C866 1.356 . S
N874 H880 0.984 . S
N874 H881 0.984 . S
N875 C868 1.356 . S
N875 H878 0.984 . S
N875 H879 0.985 . S
H876 N871 0.984 . S
H877 N871 0.985 . S
H878 N875 0.984 . S
H879 N875 0.985 . S
H880 N874 0.984 . S
H881 N874 0.984 . S
H882 N870 0.984 . S
H883 N870 0.985 . S
C884 C885 1.363 . S
C884 C890 1.379 . S
C884 N892 1.356 . S
C885 C884 1.363 . S
C885 C891 1.363 . S
C886 C887 1.363 . S
C886 C891 1.379 . S
C886 N893 1.356 . S
C887 C886 1.363 . S
C887 C890 1.363 . S
N888 C890 1.356 . S
N888 H900 0.984 . S
N888 H901 0.985 . S
N889 C891 1.356 . S
N889 H894 0.984 . S
N889 H895 0.985 . S
C890 C884 1.379 . S
C890 C887 1.363 . S
C890 N888 1.356 . S
C891 C885 1.363 . S
C891 C886 1.379 . S
C891 N889 1.356 . S
N892 C884 1.356 . S
N892 H898 0.984 . S
N892 H899 0.984 . S
N893 C886 1.356 . S
N893 H896 0.984 . S
N893 H897 0.985 . S
H894 N889 0.984 . S
H895 N889 0.985 . S
H896 N893 0.984 . S
H897 N893 0.985 . S
H898 N892 0.984 . S
H899 N892 0.984 . S
H900 N888 0.984 . S
H901 N888 0.985 . S
C902 C903 1.363 . S
C902 C908 1.379 . S
C902 N910 1.356 . S
C903 C902 1.363 . S
C903 C909 1.363 . S
C904 C905 1.363 . S
C904 C909 1.379 . S
C904 N911 1.356 . S
C905 C904 1.363 . S
C905 C908 1.363 . S
N906 C908 1.356 . S
N906 H918 0.984 . S
N906 H919 0.985 . S
N907 C909 1.356 . S
N907 H912 0.984 . S
N907 H913 0.985 . S
C908 C902 1.379 . S
C908 C905 1.363 . S
C908 N906 1.356 . S
C909 C903 1.363 . S
C909 C904 1.379 . S
C909 N907 1.356 . S
N910 C902 1.356 . S
N910 H916 0.984 . S
N910 H917 0.984 1_455 S
N911 C904 1.356 . S
N911 H914 0.984 . S
N911 H915 0.985 . S
H912 N907 0.984 . S
H913 N907 0.985 . S
H914 N911 0.984 . S
H915 N911 0.985 . S
H916 N910 0.984 . S
H917 N910 0.984 1_655 S
H918 N906 0.984 . S
H919 N906 0.985 . S
C920 C921 1.363 . S
C920 C926 1.379 . S
C920 N928 1.356 . S
C921 C920 1.363 . S
C921 C927 1.363 . S
C922 C923 1.363 . S
C922 C927 1.379 . S
C922 N929 1.356 . S
C923 C922 1.363 . S
C923 C926 1.363 . S
N924 C926 1.356 . S
N924 H936 0.984 . S
N924 H937 0.985 . S
N925 C927 1.356 . S
N925 H930 0.984 . S
N925 H931 0.985 . S
C926 C920 1.379 . S
C926 C923 1.363 . S
C926 N924 1.356 . S
C927 C921 1.363 . S
C927 C922 1.379 . S
C927 N925 1.356 . S
N928 C920 1.356 . S
N928 H934 0.984 . S
N928 H935 0.984 . S
N929 C922 1.356 . S
N929 H932 0.984 . S
N929 H933 0.985 . S
H930 N925 0.984 . S
H931 N925 0.985 . S
H932 N929 0.984 . S
H933 N929 0.985 . S
H934 N928 0.984 . S
H935 N928 0.984 . S
H936 N924 0.984 . S
H937 N924 0.985 . S
C938 C939 1.363 . S
C938 C944 1.379 . S
C938 N946 1.356 . S
C939 C938 1.363 . S
C939 C945 1.363 . S
C940 C941 1.363 . S
C940 C945 1.379 . S
C940 N947 1.356 . S
C941 C940 1.363 . S
C941 C944 1.363 . S
N942 C944 1.356 . S
N942 H954 0.984 . S
N942 H955 0.985 . S
N943 C945 1.356 1_655 S
N943 H948 0.984 . S
N943 H949 0.985 . S
C944 C938 1.379 . S
C944 C941 1.363 . S
C944 N942 1.356 . S
C945 C939 1.363 . S
C945 C940 1.379 . S
C945 N943 1.356 1_455 S
N946 C938 1.356 . S
N946 H952 0.984 . S
N946 H953 0.984 . S
N947 C940 1.356 . S
N947 H950 0.984 . S
N947 H951 0.985 . S
H948 N943 0.984 . S
H949 N943 0.985 . S
H950 N947 0.984 . S
H951 N947 0.985 . S
H952 N946 0.984 . S
H953 N946 0.984 . S
H954 N942 0.984 . S
H955 N942 0.985 . S
C956 C957 1.363 . S
C956 C962 1.379 . S
C956 N964 1.356 . S
C957 C956 1.363 . S
C957 C963 1.363 . S
C958 C959 1.363 . S
C958 C963 1.379 . S
C958 N965 1.356 . S
C959 C958 1.363 . S
C959 C962 1.363 . S
N960 C962 1.356 . S
N960 H972 0.984 . S
N960 H973 0.985 . S
N961 C963 1.356 . S
N961 H966 0.984 . S
N961 H967 0.985 . S
C962 C956 1.379 . S
C962 C959 1.363 . S
C962 N960 1.356 . S
C963 C957 1.363 . S
C963 C958 1.379 . S
C963 N961 1.356 . S
N964 C956 1.356 . S
N964 H970 0.984 . S
N964 H971 0.984 . S
N965 C958 1.356 . S
N965 H968 0.984 . S
N965 H969 0.985 . S
H966 N961 0.984 . S
H967 N961 0.985 . S
H968 N965 0.984 . S
H969 N965 0.985 . S
H970 N964 0.984 . S
H971 N964 0.984 . S
H972 N960 0.984 . S
H973 N960 0.985 . S
C974 C975 1.363 . S
C974 C980 1.379 . S
C974 N982 1.356 . S
C975 C974 1.363 . S
C975 C981 1.363 . S
C976 C977 1.363 . S
C976 C981 1.379 . S
C976 N983 1.356 . S
C977 C976 1.363 . S
C977 C980 1.363 . S
N978 C980 1.356 . S
N978 H990 0.984 . S
N978 H991 0.985 . S
N979 C981 1.356 . S
N979 H984 0.984 . S
N979 H985 0.985 . S
C980 C974 1.379 . S
C980 C977 1.363 . S
C980 N978 1.356 . S
C981 C975 1.363 . S
C981 C976 1.379 . S
C981 N979 1.356 . S
N982 C974 1.356 . S
N982 H988 0.984 . S
N982 H989 0.984 . S
N983 C976 1.356 . S
N983 H986 0.984 . S
N983 H987 0.985 . S
H984 N979 0.984 . S
H985 N979 0.985 . S
H986 N983 0.984 . S
H987 N983 0.985 . S
H988 N982 0.984 . S
H989 N982 0.984 . S
H990 N978 0.984 . S
H991 N978 0.985 . S
C992 C993 1.363 . S
C992 C998 1.379 . S
C992 N1000 1.356 . S
C993 C992 1.363 . S
C993 C999 1.363 . S
C994 C995 1.363 . S
C994 C999 1.379 . S
C994 N1001 1.356 . S
C995 C994 1.363 . S
C995 C998 1.363 . S
N996 C998 1.356 . S
N996 H1008 0.984 . S
N996 H1009 0.985 . S
N997 C999 1.356 . S
N997 H1002 0.984 . S
N997 H1003 0.985 . S
C998 C992 1.379 . S
C998 C995 1.363 . S
C998 N996 1.356 . S
C999 C993 1.363 . S
C999 C994 1.379 . S
C999 N997 1.356 . S
N1000 C992 1.356 . S
N1000 H1006 0.984 . S
N1000 H1007 0.984 . S
N1001 C994 1.356 . S
N1001 H1004 0.984 . S
N1001 H1005 0.985 . S
H1002 N997 0.984 . S
H1003 N997 0.985 . S
H1004 N1001 0.984 . S
H1005 N1001 0.985 . S
H1006 N1000 0.984 . S
H1007 N1000 0.984 . S
H1008 N996 0.984 . S
H1009 N996 0.985 . S
C1010 C1011 1.363 1_545 S
C1010 C1016 1.379 1_655 S
C1010 N1018 1.356 1_545 S
C1011 C1010 1.363 1_565 S
C1011 C1017 1.363 . S
C1012 C1013 1.363 1_565 S
C1012 C1017 1.379 1_455 S
C1012 N1019 1.356 1_565 S
C1013 C1012 1.363 1_545 S
C1013 C1016 1.363 . S
N1014 C1016 1.356 . S
N1014 H1026 0.984 . S
N1014 H1027 0.985 . S
N1015 C1017 1.356 . S
N1015 H1020 0.984 . S
N1015 H1021 0.985 . S
C1016 C1010 1.379 1_455 S
C1016 C1013 1.363 . S
C1016 N1014 1.356 . S
C1017 C1011 1.363 . S
C1017 C1012 1.379 1_655 S
C1017 N1015 1.356 . S
N1018 C1010 1.356 1_565 S
N1018 H1024 0.984 1_565 S
N1018 H1025 0.984 . S
N1019 C1012 1.356 1_545 S
N1019 H1022 0.984 . S
N1019 H1023 0.985 1_545 S
H1020 N1015 0.984 . S
H1021 N1015 0.985 . S
H1022 N1019 0.984 . S
H1023 N1019 0.985 1_565 S
H1024 N1018 0.984 1_545 S
H1025 N1018 0.984 . S
H1026 N1014 0.984 . S
H1027 N1014 0.985 . S
C1028 C1029 1.363 . S
C1028 C1034 1.379 . S
C1028 N1036 1.356 . S
C1029 C1028 1.363 . S
C1029 C1035 1.363 . S
C1030 C1031 1.363 . S
C1030 C1035 1.379 . S
C1030 N1037 1.356 . S
C1031 C1030 1.363 . S
C1031 C1034 1.363 . S
N1032 C1034 1.356 . S
N1032 H1044 0.984 . S
N1032 H1045 0.985 . S
N1033 C1035 1.356 . S
N1033 H1038 0.984 . S
N1033 H1039 0.985 . S
C1034 C1028 1.379 . S
C1034 C1031 1.363 . S
C1034 N1032 1.356 . S
C1035 C1029 1.363 . S
C1035 C1030 1.379 . S
C1035 N1033 1.356 . S
N1036 C1028 1.356 . S
N1036 H1042 0.984 . S
N1036 H1043 0.984 . S
N1037 C1030 1.356 . S
N1037 H1040 0.984 . S
N1037 H1041 0.985 . S
H1038 N1033 0.984 . S
H1039 N1033 0.985 . S
H1040 N1037 0.984 . S
H1041 N1037 0.985 . S
H1042 N1036 0.984 . S
H1043 N1036 0.984 . S
H1044 N1032 0.984 . S
H1045 N1032 0.985 . S
C1046 C1047 1.363 1_556 S
C1046 C1052 1.379 . S
C1046 N1054 1.356 . S
C1047 C1046 1.363 1_554 S
C1047 C1053 1.363 1_545 S
C1048 C1049 1.363 1_554 S
C1048 C1053 1.379 . S
C1048 N1055 1.356 . S
C1049 C1048 1.363 1_556 S
C1049 C1052 1.363 1_565 S
N1050 C1052 1.356 1_565 S
N1050 H1062 0.984 1_565 S
N1050 H1063 0.985 . S
N1051 C1053 1.356 1_545 S
N1051 H1056 0.984 . S
N1051 H1057 0.985 1_545 S
C1052 C1046 1.379 . S
C1052 C1049 1.363 1_545 S
C1052 N1050 1.356 1_545 S
C1053 C1047 1.363 1_565 S
C1053 C1048 1.379 . S
C1053 N1051 1.356 1_565 S
N1054 C1046 1.356 . S
N1054 H1060 0.984 . S
N1054 H1061 0.984 . S
N1055 C1048 1.356 . S
N1055 H1058 0.984 . S
N1055 H1059 0.985 . S
H1056 N1051 0.984 . S
H1057 N1051 0.985 1_565 S
H1058 N1055 0.984 . S
H1059 N1055 0.985 . S
H1060 N1054 0.984 . S
H1061 N1054 0.984 . S
H1062 N1050 0.984 1_545 S
H1063 N1050 0.985 . S
C1064 C1065 1.363 . S
C1064 C1070 1.379 . S
C1064 N1072 1.356 . S
C1065 C1064 1.363 . S
C1065 C1071 1.363 . S
C1066 C1067 1.363 . S
C1066 C1071 1.379 . S
C1066 N1073 1.356 . S
C1067 C1066 1.363 . S
C1067 C1070 1.363 . S
N1068 C1070 1.356 . S
N1068 H1080 0.984 . S
N1068 H1081 0.985 . S
N1069 C1071 1.356 . S
N1069 H1074 0.984 . S
N1069 H1075 0.985 . S
C1070 C1064 1.379 . S
C1070 C1067 1.363 . S
C1070 N1068 1.356 . S
C1071 C1065 1.363 . S
C1071 C1066 1.379 . S
C1071 N1069 1.356 . S
N1072 C1064 1.356 . S
N1072 H1078 0.984 . S
N1072 H1079 0.984 . S
N1073 C1066 1.356 . S
N1073 H1076 0.984 . S
N1073 H1077 0.985 . S
H1074 N1069 0.984 . S
H1075 N1069 0.985 . S
H1076 N1073 0.984 . S
H1077 N1073 0.985 . S
H1078 N1072 0.984 . S
H1079 N1072 0.984 . S
H1080 N1068 0.984 . S
H1081 N1068 0.985 . S
C1082 C1083 1.363 . S
C1082 C1088 1.379 . S
C1082 N1090 1.356 . S
C1083 C1082 1.363 . S
C1083 C1089 1.363 1_565 S
C1084 C1085 1.363 . S
C1084 C1089 1.379 . S
C1084 N1091 1.356 . S
C1085 C1084 1.363 . S
C1085 C1088 1.363 1_545 S
N1086 C1088 1.356 . S
N1086 H1098 0.984 . S
N1086 H1099 0.985 1_565 S
N1087 C1089 1.356 . S
N1087 H1092 0.984 1_545 S
N1087 H1093 0.985 . S
C1088 C1082 1.379 . S
C1088 C1085 1.363 1_565 S
C1088 N1086 1.356 . S
C1089 C1083 1.363 1_545 S
C1089 C1084 1.379 . S
C1089 N1087 1.356 . S
N1090 C1082 1.356 . S
N1090 H1096 0.984 . S
N1090 H1097 0.984 . S
N1091 C1084 1.356 . S
N1091 H1094 0.984 . S
N1091 H1095 0.985 . S
H1092 N1087 0.984 1_565 S
H1093 N1087 0.985 . S
H1094 N1091 0.984 . S
H1095 N1091 0.985 . S
H1096 N1090 0.984 . S
H1097 N1090 0.984 . S
H1098 N1086 0.984 . S
H1099 N1086 0.985 1_545 S
C1100 C1101 1.363 . S
C1100 C1106 1.379 . S
C1100 N1108 1.356 . S
C1101 C1100 1.363 . S
C1101 C1107 1.363 . S
C1102 C1103 1.363 . S
C1102 C1107 1.379 . S
C1102 N1109 1.356 . S
C1103 C1102 1.363 . S
C1103 C1106 1.363 . S
N1104 C1106 1.356 . S
N1104 H1116 0.984 . S
N1104 H1117 0.985 . S
N1105 C1107 1.356 . S
N1105 H1110 0.984 . S
N1105 H1111 0.985 . S
C1106 C1100 1.379 . S
C1106 C1103 1.363 . S
C1106 N1104 1.356 . S
C1107 C1101 1.363 . S
C1107 C1102 1.379 . S
C1107 N1105 1.356 . S
N1108 C1100 1.356 . S
N1108 H1114 0.984 . S
N1108 H1115 0.984 . S
N1109 C1102 1.356 . S
N1109 H1112 0.984 . S
N1109 H1113 0.985 . S
H1110 N1105 0.984 . S
H1111 N1105 0.985 . S
H1112 N1109 0.984 . S
H1113 N1109 0.985 . S
H1114 N1108 0.984 . S
H1115 N1108 0.984 . S
H1116 N1104 0.984 . S
H1117 N1104 0.985 . S
C1118 C1119 1.363 1_565 S
C1118 C1124 1.379 1_655 S
C1118 N1126 1.356 1_565 S
C1119 C1118 1.363 1_545 S
C1119 C1125 1.363 1_556 S
C1120 C1121 1.363 1_545 S
C1120 C1125 1.379 1_455 S
C1120 N1127 1.356 1_545 S
C1121 C1120 1.363 1_565 S
C1121 C1124 1.363 1_554 S
N1122 C1124 1.356 . S
N1122 H1134 0.984 . S
N1122 H1135 0.985 . S
N1123 C1125 1.356 . S
N1123 H1128 0.984 . S
N1123 H1129 0.985 . S
C1124 C1118 1.379 1_455 S
C1124 C1121 1.363 1_556 S
C1124 N1122 1.356 . S
C1125 C1119 1.363 1_554 S
C1125 C1120 1.379 1_655 S
C1125 N1123 1.356 . S
N1126 C1118 1.356 1_545 S
N1126 H1132 0.984 1_545 S
N1126 H1133 0.984 . S
N1127 C1120 1.356 1_565 S
N1127 H1130 0.984 . S
N1127 H1131 0.985 1_565 S
H1128 N1123 0.984 . S
H1129 N1123 0.985 . S
H1130 N1127 0.984 . S
H1131 N1127 0.985 1_545 S
H1132 N1126 0.984 1_565 S
H1133 N1126 0.984 . S
H1134 N1122 0.984 . S
H1135 N1122 0.985 . S
C1136 C1137 1.363 . S
C1136 C1142 1.379 . S
C1136 N1144 1.356 . S
C1137 C1136 1.363 . S
C1137 C1143 1.363 . S
C1138 C1139 1.363 . S
C1138 C1143 1.379 . S
C1138 N1145 1.356 . S
C1139 C1138 1.363 . S
C1139 C1142 1.363 . S
N1140 C1142 1.356 . S
N1140 H1152 0.984 . S
N1140 H1153 0.985 . S
N1141 C1143 1.356 . S
N1141 H1146 0.984 . S
N1141 H1147 0.985 . S
C1142 C1136 1.379 . S
C1142 C1139 1.363 . S
C1142 N1140 1.356 . S
C1143 C1137 1.363 . S
C1143 C1138 1.379 . S
C1143 N1141 1.356 . S
N1144 C1136 1.356 . S
N1144 H1150 0.984 . S
N1144 H1151 0.984 . S
N1145 C1138 1.356 . S
N1145 H1148 0.984 . S
N1145 H1149 0.985 . S
H1146 N1141 0.984 . S
H1147 N1141 0.985 . S
H1148 N1145 0.984 . S
H1149 N1145 0.985 . S
H1150 N1144 0.984 . S
H1151 N1144 0.984 . S
H1152 N1140 0.984 . S
H1153 N1140 0.985 . S
C1154 C1155 1.363 . S
C1154 C1160 1.379 . S
C1154 N1162 1.356 . S
C1155 C1154 1.363 . S
C1155 C1161 1.363 . S
C1156 C1157 1.363 . S
C1156 C1161 1.379 . S
C1156 N1163 1.356 . S
C1157 C1156 1.363 . S
C1157 C1160 1.363 . S
N1158 C1160 1.356 . S
N1158 H1170 0.984 . S
N1158 H1171 0.985 . S
N1159 C1161 1.356 . S
N1159 H1164 0.984 . S
N1159 H1165 0.985 . S
C1160 C1154 1.379 . S
C1160 C1157 1.363 . S
C1160 N1158 1.356 . S
C1161 C1155 1.363 . S
C1161 C1156 1.379 . S
C1161 N1159 1.356 . S
N1162 C1154 1.356 . S
N1162 H1168 0.984 . S
N1162 H1169 0.984 . S
N1163 C1156 1.356 . S
N1163 H1166 0.984 . S
N1163 H1167 0.985 . S
H1164 N1159 0.984 . S
H1165 N1159 0.985 . S
H1166 N1163 0.984 . S
H1167 N1163 0.985 . S
H1168 N1162 0.984 . S
H1169 N1162 0.984 . S
H1170 N1158 0.984 . S
H1171 N1158 0.985 . S
C1172 C1173 1.363 . S
C1172 C1178 1.379 . S
C1172 N1180 1.356 . S
C1173 C1172 1.363 . S
C1173 C1179 1.363 . S
C1174 C1175 1.363 . S
C1174 C1179 1.379 . S
C1174 N1181 1.356 . S
C1175 C1174 1.363 . S
C1175 C1178 1.363 . S
N1176 C1178 1.356 . S
N1176 H1188 0.984 . S
N1176 H1189 0.985 . S
N1177 C1179 1.356 . S
N1177 H1182 0.984 . S
N1177 H1183 0.985 . S
C1178 C1172 1.379 . S
C1178 C1175 1.363 . S
C1178 N1176 1.356 . S
C1179 C1173 1.363 . S
C1179 C1174 1.379 . S
C1179 N1177 1.356 . S
N1180 C1172 1.356 . S
N1180 H1186 0.984 . S
N1180 H1187 0.984 . S
N1181 C1174 1.356 . S
N1181 H1184 0.984 . S
N1181 H1185 0.985 . S
H1182 N1177 0.984 . S
H1183 N1177 0.985 . S
H1184 N1181 0.984 . S
H1185 N1181 0.985 . S
H1186 N1180 0.984 . S
H1187 N1180 0.984 . S
H1188 N1176 0.984 . S
H1189 N1176 0.985 . S
C1190 C1191 1.363 . S
C1190 C1196 1.379 . S
C1190 N1198 1.356 . S
C1191 C1190 1.363 . S
C1191 C1197 1.363 . S
C1192 C1193 1.363 . S
C1192 C1197 1.379 . S
C1192 N1199 1.356 . S
C1193 C1192 1.363 . S
C1193 C1196 1.363 . S
N1194 C1196 1.356 . S
N1194 H1206 0.984 . S
N1194 H1207 0.985 . S
N1195 C1197 1.356 . S
N1195 H1200 0.984 . S
N1195 H1201 0.985 . S
C1196 C1190 1.379 . S
C1196 C1193 1.363 . S
C1196 N1194 1.356 . S
C1197 C1191 1.363 . S
C1197 C1192 1.379 . S
C1197 N1195 1.356 . S
N1198 C1190 1.356 . S
N1198 H1204 0.984 . S
N1198 H1205 0.984 . S
N1199 C1192 1.356 . S
N1199 H1202 0.984 . S
N1199 H1203 0.985 . S
H1200 N1195 0.984 . S
H1201 N1195 0.985 . S
H1202 N1199 0.984 . S
H1203 N1199 0.985 . S
H1204 N1198 0.984 . S
H1205 N1198 0.984 . S
H1206 N1194 0.984 . S
H1207 N1194 0.985 . S
C1208 C1209 1.363 1_556 S
C1208 C1214 1.379 . S
C1208 N1216 1.356 . S
C1209 C1208 1.363 1_554 S
C1209 C1215 1.363 . S
C1210 C1211 1.363 1_554 S
C1210 C1215 1.379 . S
C1210 N1217 1.356 . S
C1211 C1210 1.363 1_556 S
C1211 C1214 1.363 . S
N1212 C1214 1.356 . S
N1212 H1224 0.984 . S
N1212 H1225 0.985 . S
N1213 C1215 1.356 . S
N1213 H1218 0.984 . S
N1213 H1219 0.985 . S
C1214 C1208 1.379 . S
C1214 C1211 1.363 . S
C1214 N1212 1.356 . S
C1215 C1209 1.363 . S
C1215 C1210 1.379 . S
C1215 N1213 1.356 . S
N1216 C1208 1.356 . S
N1216 H1222 0.984 . S
N1216 H1223 0.984 . S
N1217 C1210 1.356 . S
N1217 H1220 0.984 . S
N1217 H1221 0.985 . S
H1218 N1213 0.984 . S
H1219 N1213 0.985 . S
H1220 N1217 0.984 . S
H1221 N1217 0.985 . S
H1222 N1216 0.984 . S
H1223 N1216 0.984 . S
H1224 N1212 0.984 . S
H1225 N1212 0.985 . S
C1226 C1227 1.363 1_455 S
C1226 C1232 1.379 . S
C1226 N1234 1.356 1_455 S
C1227 C1226 1.363 1_655 S
C1227 C1233 1.363 . S
C1228 C1229 1.363 1_655 S
C1228 C1233 1.379 . S
C1228 N1235 1.356 1_655 S
C1229 C1228 1.363 1_455 S
C1229 C1232 1.363 . S
N1230 C1232 1.356 . S
N1230 H1242 0.984 . S
N1230 H1243 0.985 . S
N1231 C1233 1.356 . S
N1231 H1236 0.984 . S
N1231 H1237 0.985 . S
C1232 C1226 1.379 . S
C1232 C1229 1.363 . S
C1232 N1230 1.356 . S
C1233 C1227 1.363 . S
C1233 C1228 1.379 . S
C1233 N1231 1.356 . S
N1234 C1226 1.356 1_655 S
N1234 H1240 0.984 1_655 S
N1234 H1241 0.984 . S
N1235 C1228 1.356 1_455 S
N1235 H1238 0.984 . S
N1235 H1239 0.985 1_455 S
H1236 N1231 0.984 . S
H1237 N1231 0.985 . S
H1238 N1235 0.984 . S
H1239 N1235 0.985 1_655 S
H1240 N1234 0.984 1_455 S
H1241 N1234 0.984 . S
H1242 N1230 0.984 . S
H1243 N1230 0.985 . S
C1244 C1245 1.364 1_654 S
C1244 C1250 1.378 . S
C1244 N1252 1.357 1_655 S
C1245 C1244 1.364 1_456 S
C1245 C1251 1.363 . S
C1246 C1247 1.364 1_456 S
C1246 C1251 1.378 . S
C1246 N1253 1.357 1_455 S
C1247 C1246 1.364 1_654 S
C1247 C1250 1.363 . S
N1248 C1250 1.356 . S
N1248 H1260 0.984 . S
N1248 H1261 0.985 . S
N1249 C1251 1.356 . S
N1249 H1254 0.984 . S
N1249 H1255 0.985 . S
C1250 C1244 1.378 . S
C1250 C1247 1.363 . S
C1250 N1248 1.356 . S
C1251 C1245 1.363 . S
C1251 C1246 1.378 . S
C1251 N1249 1.356 . S
N1252 C1244 1.357 1_455 S
N1252 H1258 0.984 1_455 S
N1252 H1259 0.984 . S
N1253 C1246 1.357 1_655 S
N1253 H1256 0.984 . S
N1253 H1257 0.985 1_655 S
H1254 N1249 0.984 . S
H1255 N1249 0.985 . S
H1256 N1253 0.984 . S
H1257 N1253 0.985 1_455 S
H1258 N1252 0.984 1_655 S
H1259 N1252 0.984 . S
H1260 N1248 0.984 . S
H1261 N1248 0.985 . S
C1262 C1263 1.363 . S
C1262 C1268 1.379 . S
C1262 N1270 1.356 . S
C1263 C1262 1.363 . S
C1263 C1269 1.363 . S
C1264 C1265 1.363 . S
C1264 C1269 1.379 . S
C1264 N1271 1.356 . S
C1265 C1264 1.363 . S
C1265 C1268 1.363 . S
N1266 C1268 1.356 . S
N1266 H1278 0.984 . S
N1266 H1279 0.985 . S
N1267 C1269 1.356 . S
N1267 H1272 0.984 . S
N1267 H1273 0.985 . S
C1268 C1262 1.379 . S
C1268 C1265 1.363 . S
C1268 N1266 1.356 . S
C1269 C1263 1.363 . S
C1269 C1264 1.379 . S
C1269 N1267 1.356 . S
N1270 C1262 1.356 . S
N1270 H1276 0.984 . S
N1270 H1277 0.984 . S
N1271 C1264 1.356 . S
N1271 H1274 0.984 . S
N1271 H1275 0.985 . S
H1272 N1267 0.984 . S
H1273 N1267 0.985 . S
H1274 N1271 0.984 . S
H1275 N1271 0.985 . S
H1276 N1270 0.984 . S
H1277 N1270 0.984 . S
H1278 N1266 0.984 . S
H1279 N1266 0.985 . S
C1280 C1281 1.363 . S
C1280 C1286 1.379 . S
C1280 N1288 1.356 . S
C1281 C1280 1.363 . S
C1281 C1287 1.363 . S
C1282 C1283 1.363 . S
C1282 C1287 1.379 . S
C1282 N1289 1.356 . S
C1283 C1282 1.363 . S
C1283 C1286 1.363 . S
N1284 C1286 1.356 . S
N1284 H1296 0.984 . S
N1284 H1297 0.985 . S
N1285 C1287 1.356 . S
N1285 H1290 0.984 . S
N1285 H1291 0.985 . S
C1286 C1280 1.379 . S
C1286 C1283 1.363 . S
C1286 N1284 1.356 . S
C1287 C1281 1.363 . S
C1287 C1282 1.379 . S
C1287 N1285 1.356 . S
N1288 C1280 1.356 . S
N1288 H1294 0.984 . S
N1288 H1295 0.984 . S
N1289 C1282 1.356 . S
N1289 H1292 0.984 . S
N1289 H1293 0.985 . S
H1290 N1285 0.984 . S
H1291 N1285 0.985 . S
H1292 N1289 0.984 . S
H1293 N1289 0.985 . S
H1294 N1288 0.984 . S
H1295 N1288 0.984 . S
H1296 N1284 0.984 . S
H1297 N1284 0.985 . S
C1298 C1299 1.363 . S
C1298 C1304 1.379 . S
C1298 N1306 1.356 . S
C1299 C1298 1.363 . S
C1299 C1305 1.363 . S
C1300 C1301 1.363 . S
C1300 C1305 1.379 . S
C1300 N1307 1.356 . S
C1301 C1300 1.363 . S
C1301 C1304 1.363 . S
N1302 C1304 1.356 . S
N1302 H1314 0.984 . S
N1302 H1315 0.985 . S
N1303 C1305 1.356 . S
N1303 H1308 0.984 . S
N1303 H1309 0.985 . S
C1304 C1298 1.379 . S
C1304 C1301 1.363 . S
C1304 N1302 1.356 . S
C1305 C1299 1.363 . S
C1305 C1300 1.379 . S
C1305 N1303 1.356 . S
N1306 C1298 1.356 . S
N1306 H1312 0.984 . S
N1306 H1313 0.984 . S
N1307 C1300 1.356 . S
N1307 H1310 0.984 . S
N1307 H1311 0.985 . S
H1308 N1303 0.984 . S
H1309 N1303 0.985 . S
H1310 N1307 0.984 . S
H1311 N1307 0.985 . S
H1312 N1306 0.984 . S
H1313 N1306 0.984 . S
H1314 N1302 0.984 . S
H1315 N1302 0.985 . S
C1316 C1317 1.363 . S
C1316 C1322 1.379 . S
C1316 N1324 1.356 . S
C1317 C1316 1.363 . S
C1317 C1323 1.363 . S
C1318 C1319 1.363 . S
C1318 C1323 1.379 . S
C1318 N1325 1.356 . S
C1319 C1318 1.363 . S
C1319 C1322 1.363 . S
N1320 C1322 1.356 . S
N1320 H1332 0.984 . S
N1320 H1333 0.985 . S
N1321 C1323 1.356 . S
N1321 H1326 0.984 . S
N1321 H1327 0.985 . S
C1322 C1316 1.379 . S
C1322 C1319 1.363 . S
C1322 N1320 1.356 . S
C1323 C1317 1.363 . S
C1323 C1318 1.379 . S
C1323 N1321 1.356 . S
N1324 C1316 1.356 . S
N1324 H1330 0.984 . S
N1324 H1331 0.984 . S
N1325 C1318 1.356 . S
N1325 H1328 0.984 . S
N1325 H1329 0.985 . S
H1326 N1321 0.984 . S
H1327 N1321 0.985 . S
H1328 N1325 0.984 . S
H1329 N1325 0.985 . S
H1330 N1324 0.984 . S
H1331 N1324 0.984 . S
H1332 N1320 0.984 . S
H1333 N1320 0.985 . S
C1334 C1335 1.363 . S
C1334 C1340 1.379 . S
C1334 N1342 1.356 . S
C1335 C1334 1.363 . S
C1335 C1341 1.363 . S
C1336 C1337 1.363 . S
C1336 C1341 1.379 . S
C1336 N1343 1.356 . S
C1337 C1336 1.363 . S
C1337 C1340 1.363 . S
N1338 C1340 1.356 . S
N1338 H1350 0.984 . S
N1338 H1351 0.985 . S
N1339 C1341 1.356 . S
N1339 H1344 0.984 . S
N1339 H1345 0.985 . S
C1340 C1334 1.379 . S
C1340 C1337 1.363 . S
C1340 N1338 1.356 . S
C1341 C1335 1.363 . S
C1341 C1336 1.379 . S
C1341 N1339 1.356 . S
N1342 C1334 1.356 . S
N1342 H1348 0.984 . S
N1342 H1349 0.984 . S
N1343 C1336 1.356 . S
N1343 H1346 0.984 . S
N1343 H1347 0.985 . S
H1344 N1339 0.984 . S
H1345 N1339 0.985 . S
H1346 N1343 0.984 . S
H1347 N1343 0.985 . S
H1348 N1342 0.984 . S
H1349 N1342 0.984 . S
H1350 N1338 0.984 . S
H1351 N1338 0.985 . S
C1352 C1353 1.363 . S
C1352 C1358 1.379 . S
C1352 N1360 1.356 . S
C1353 C1352 1.363 . S
C1353 C1359 1.363 . S
C1354 C1355 1.363 . S
C1354 C1359 1.379 . S
C1354 N1361 1.356 . S
C1355 C1354 1.363 . S
C1355 C1358 1.363 . S
N1356 C1358 1.356 . S
N1356 H1368 0.984 . S
N1356 H1369 0.985 . S
N1357 C1359 1.356 . S
N1357 H1362 0.984 . S
N1357 H1363 0.985 . S
C1358 C1352 1.379 . S
C1358 C1355 1.363 . S
C1358 N1356 1.356 . S
C1359 C1353 1.363 . S
C1359 C1354 1.379 . S
C1359 N1357 1.356 . S
N1360 C1352 1.356 . S
N1360 H1366 0.984 . S
N1360 H1367 0.984 . S
N1361 C1354 1.356 . S
N1361 H1364 0.984 . S
N1361 H1365 0.985 . S
H1362 N1357 0.984 . S
H1363 N1357 0.985 . S
H1364 N1361 0.984 . S
H1365 N1361 0.985 . S
H1366 N1360 0.984 . S
H1367 N1360 0.984 . S
H1368 N1356 0.984 . S
H1369 N1356 0.985 . S
C1370 C1371 1.363 . S
C1370 C1376 1.379 . S
C1370 N1378 1.356 . S
C1371 C1370 1.363 . S
C1371 C1377 1.363 . S
C1372 C1373 1.363 . S
C1372 C1377 1.379 . S
C1372 N1379 1.356 . S
C1373 C1372 1.363 . S
C1373 C1376 1.363 . S
N1374 C1376 1.356 . S
N1374 H1386 0.984 . S
N1374 H1387 0.985 . S
N1375 C1377 1.356 . S
N1375 H1380 0.984 . S
N1375 H1381 0.985 . S
C1376 C1370 1.379 . S
C1376 C1373 1.363 . S
C1376 N1374 1.356 . S
C1377 C1371 1.363 . S
C1377 C1372 1.379 . S
C1377 N1375 1.356 . S
N1378 C1370 1.356 . S
N1378 H1384 0.984 . S
N1378 H1385 0.984 . S
N1379 C1372 1.356 . S
N1379 H1382 0.984 . S
N1379 H1383 0.985 . S
H1380 N1375 0.984 . S
H1381 N1375 0.985 . S
H1382 N1379 0.984 . S
H1383 N1379 0.985 . S
H1384 N1378 0.984 . S
H1385 N1378 0.984 . S
H1386 N1374 0.984 . S
H1387 N1374 0.985 . S
C1388 C1389 1.363 . S
C1388 C1394 1.379 . S
C1388 N1396 1.356 . S
C1389 C1388 1.363 . S
C1389 C1395 1.363 . S
C1390 C1391 1.363 . S
C1390 C1395 1.379 . S
C1390 N1397 1.356 . S
C1391 C1390 1.363 . S
C1391 C1394 1.363 . S
N1392 C1394 1.356 . S
N1392 H1404 0.984 . S
N1392 H1405 0.985 . S
N1393 C1395 1.356 . S
N1393 H1398 0.984 . S
N1393 H1399 0.985 . S
C1394 C1388 1.379 . S
C1394 C1391 1.363 . S
C1394 N1392 1.356 . S
C1395 C1389 1.363 . S
C1395 C1390 1.379 . S
C1395 N1393 1.356 . S
N1396 C1388 1.356 . S
N1396 H1402 0.984 . S
N1396 H1403 0.984 . S
N1397 C1390 1.356 . S
N1397 H1400 0.984 . S
N1397 H1401 0.985 . S
H1398 N1393 0.984 . S
H1399 N1393 0.985 . S
H1400 N1397 0.984 . S
H1401 N1397 0.985 . S
H1402 N1396 0.984 . S
H1403 N1396 0.984 . S
H1404 N1392 0.984 . S
H1405 N1392 0.985 . S
C1406 C1407 1.363 . S
C1406 C1412 1.379 . S
C1406 N1414 1.356 . S
C1407 C1406 1.363 . S
C1407 C1413 1.363 . S
C1408 C1409 1.363 . S
C1408 C1413 1.379 . S
C1408 N1415 1.356 . S
C1409 C1408 1.363 . S
C1409 C1412 1.363 . S
N1410 C1412 1.356 . S
N1410 H1422 0.984 . S
N1410 H1423 0.985 . S
N1411 C1413 1.356 . S
N1411 H1416 0.984 . S
N1411 H1417 0.985 . S
C1412 C1406 1.379 . S
C1412 C1409 1.363 . S
C1412 N1410 1.356 . S
C1413 C1407 1.363 . S
C1413 C1408 1.379 . S
C1413 N1411 1.356 . S
N1414 C1406 1.356 . S
N1414 H1420 0.984 . S
N1414 H1421 0.984 . S
N1415 C1408 1.356 . S
N1415 H1418 0.984 . S
N1415 H1419 0.985 . S
H1416 N1411 0.984 . S
H1417 N1411 0.985 . S
H1418 N1415 0.984 . S
H1419 N1415 0.985 . S
H1420 N1414 0.984 . S
H1421 N1414 0.984 . S
H1422 N1410 0.984 . S
H1423 N1410 0.985 . S
C1424 C1425 1.363 . S
C1424 C1430 1.379 . S
C1424 N1432 1.356 . S
C1425 C1424 1.363 . S
C1425 C1431 1.363 . S
C1426 C1427 1.363 . S
C1426 C1431 1.379 . S
C1426 N1433 1.356 . S
C1427 C1426 1.363 . S
C1427 C1430 1.363 . S
N1428 C1430 1.356 . S
N1428 H1440 0.984 . S
N1428 H1441 0.985 . S
N1429 C1431 1.356 . S
N1429 H1434 0.984 . S
N1429 H1435 0.985 . S
C1430 C1424 1.379 . S
C1430 C1427 1.363 . S
C1430 N1428 1.356 . S
C1431 C1425 1.363 . S
C1431 C1426 1.379 . S
C1431 N1429 1.356 . S
N1432 C1424 1.356 . S
N1432 H1438 0.984 . S
N1432 H1439 0.984 . S
N1433 C1426 1.356 . S
N1433 H1436 0.984 . S
N1433 H1437 0.985 . S
H1434 N1429 0.984 . S
H1435 N1429 0.985 . S
H1436 N1433 0.984 . S
H1437 N1433 0.985 . S
H1438 N1432 0.984 . S
H1439 N1432 0.984 . S
H1440 N1428 0.984 . S
H1441 N1428 0.985 . S
C1442 C1443 1.363 . S
C1442 C1448 1.379 . S
C1442 N1450 1.356 . S
C1443 C1442 1.363 . S
C1443 C1449 1.363 . S
C1444 C1445 1.363 . S
C1444 C1449 1.379 . S
C1444 N1451 1.356 . S
C1445 C1444 1.363 . S
C1445 C1448 1.363 . S
N1446 C1448 1.356 . S
N1446 H1458 0.984 . S
N1446 H1459 0.985 . S
N1447 C1449 1.356 . S
N1447 H1452 0.984 . S
N1447 H1453 0.985 . S
C1448 C1442 1.379 . S
C1448 C1445 1.363 . S
C1448 N1446 1.356 . S
C1449 C1443 1.363 . S
C1449 C1444 1.379 . S
C1449 N1447 1.356 . S
N1450 C1442 1.356 . S
N1450 H1456 0.984 . S
N1450 H1457 0.984 . S
N1451 C1444 1.356 . S
N1451 H1454 0.984 . S
N1451 H1455 0.985 . S
H1452 N1447 0.984 . S
H1453 N1447 0.985 . S
H1454 N1451 0.984 . S
H1455 N1451 0.985 . S
H1456 N1450 0.984 . S
H1457 N1450 0.984 . S
H1458 N1446 0.984 . S
H1459 N1446 0.985 . S
C1460 C1461 1.363 . S
C1460 C1466 1.379 . S
C1460 N1468 1.356 . S
C1461 C1460 1.363 . S
C1461 C1467 1.363 . S
C1462 C1463 1.363 . S
C1462 C1467 1.379 . S
C1462 N1469 1.356 . S
C1463 C1462 1.363 . S
C1463 C1466 1.363 . S
N1464 C1466 1.356 . S
N1464 H1476 0.984 . S
N1464 H1477 0.985 . S
N1465 C1467 1.356 . S
N1465 H1470 0.984 . S
N1465 H1471 0.985 . S
C1466 C1460 1.379 . S
C1466 C1463 1.363 . S
C1466 N1464 1.356 . S
C1467 C1461 1.363 . S
C1467 C1462 1.379 . S
C1467 N1465 1.356 . S
N1468 C1460 1.356 . S
N1468 H1474 0.984 . S
N1468 H1475 0.984 . S
N1469 C1462 1.356 . S
N1469 H1472 0.984 . S
N1469 H1473 0.985 . S
H1470 N1465 0.984 . S
H1471 N1465 0.985 . S
H1472 N1469 0.984 . S
H1473 N1469 0.985 . S
H1474 N1468 0.984 . S
H1475 N1468 0.984 . S
H1476 N1464 0.984 . S
H1477 N1464 0.985 . S
C1478 C1479 1.363 . S
C1478 C1484 1.379 . S
C1478 N1486 1.356 . S
C1479 C1478 1.363 . S
C1479 C1485 1.363 . S
C1480 C1481 1.363 . S
C1480 C1485 1.379 . S
C1480 N1487 1.356 . S
C1481 C1480 1.363 . S
C1481 C1484 1.363 . S
N1482 C1484 1.356 . S
N1482 H1494 0.984 . S
N1482 H1495 0.985 . S
N1483 C1485 1.356 . S
N1483 H1488 0.984 . S
N1483 H1489 0.985 . S
C1484 C1478 1.379 . S
C1484 C1481 1.363 . S
C1484 N1482 1.356 . S
C1485 C1479 1.363 . S
C1485 C1480 1.379 . S
C1485 N1483 1.356 . S
N1486 C1478 1.356 . S
N1486 H1492 0.984 . S
N1486 H1493 0.984 . S
N1487 C1480 1.356 . S
N1487 H1490 0.984 . S
N1487 H1491 0.985 . S
H1488 N1483 0.984 . S
H1489 N1483 0.985 . S
H1490 N1487 0.984 . S
H1491 N1487 0.985 . S
H1492 N1486 0.984 . S
H1493 N1486 0.984 . S
H1494 N1482 0.984 . S
H1495 N1482 0.985 . S
C1496 C1497 1.363 . S
C1496 C1502 1.379 . S
C1496 N1504 1.356 . S
C1497 C1496 1.363 . S
C1497 C1503 1.363 . S
C1498 C1499 1.363 . S
C1498 C1503 1.379 . S
C1498 N1505 1.356 . S
C1499 C1498 1.363 . S
C1499 C1502 1.363 . S
N1500 C1502 1.356 . S
N1500 H1512 0.984 . S
N1500 H1513 0.985 . S
N1501 C1503 1.356 . S
N1501 H1506 0.984 . S
N1501 H1507 0.985 . S
C1502 C1496 1.379 . S
C1502 C1499 1.363 . S
C1502 N1500 1.356 . S
C1503 C1497 1.363 . S
C1503 C1498 1.379 . S
C1503 N1501 1.356 . S
N1504 C1496 1.356 . S
N1504 H1510 0.984 . S
N1504 H1511 0.984 . S
N1505 C1498 1.356 . S
N1505 H1508 0.984 . S
N1505 H1509 0.985 . S
H1506 N1501 0.984 . S
H1507 N1501 0.985 . S
H1508 N1505 0.984 . S
H1509 N1505 0.985 . S
H1510 N1504 0.984 . S
H1511 N1504 0.984 . S
H1512 N1500 0.984 . S
H1513 N1500 0.985 . S
C1514 C1515 1.363 . S
C1514 C1520 1.379 . S
C1514 N1522 1.356 . S
C1515 C1514 1.363 . S
C1515 C1521 1.363 . S
C1516 C1517 1.363 . S
C1516 C1521 1.379 . S
C1516 N1523 1.356 . S
C1517 C1516 1.363 . S
C1517 C1520 1.363 . S
N1518 C1520 1.356 . S
N1518 H1530 0.984 . S
N1518 H1531 0.985 . S
N1519 C1521 1.356 . S
N1519 H1524 0.984 . S
N1519 H1525 0.985 . S
C1520 C1514 1.379 . S
C1520 C1517 1.363 . S
C1520 N1518 1.356 . S
C1521 C1515 1.363 . S
C1521 C1516 1.379 . S
C1521 N1519 1.356 . S
N1522 C1514 1.356 . S
N1522 H1528 0.984 . S
N1522 H1529 0.984 . S
N1523 C1516 1.356 . S
N1523 H1526 0.984 . S
N1523 H1527 0.985 . S
H1524 N1519 0.984 . S
H1525 N1519 0.985 . S
H1526 N1523 0.984 . S
H1527 N1523 0.985 . S
H1528 N1522 0.984 . S
H1529 N1522 0.984 . S
H1530 N1518 0.984 . S
H1531 N1518 0.985 . S
C1532 C1533 1.363 . S
C1532 C1538 1.379 . S
C1532 N1540 1.356 . S
C1533 C1532 1.363 . S
C1533 C1539 1.363 . S
C1534 C1535 1.363 . S
C1534 C1539 1.379 . S
C1534 N1541 1.356 . S
C1535 C1534 1.363 . S
C1535 C1538 1.363 . S
N1536 C1538 1.356 . S
N1536 H1548 0.984 . S
N1536 H1549 0.985 . S
N1537 C1539 1.356 . S
N1537 H1542 0.984 . S
N1537 H1543 0.985 . S
C1538 C1532 1.379 . S
C1538 C1535 1.363 . S
C1538 N1536 1.356 . S
C1539 C1533 1.363 . S
C1539 C1534 1.379 . S
C1539 N1537 1.356 . S
N1540 C1532 1.356 . S
N1540 H1546 0.984 . S
N1540 H1547 0.984 . S
N1541 C1534 1.356 . S
N1541 H1544 0.984 . S
N1541 H1545 0.985 . S
H1542 N1537 0.984 . S
H1543 N1537 0.985 . S
H1544 N1541 0.984 . S
H1545 N1541 0.985 . S
H1546 N1540 0.984 . S
H1547 N1540 0.984 . S
H1548 N1536 0.984 . S
H1549 N1536 0.985 . S
C1550 C1551 1.363 . S
C1550 C1556 1.379 . S
C1550 N1558 1.356 . S
C1551 C1550 1.363 . S
C1551 C1557 1.363 . S
C1552 C1553 1.363 . S
C1552 C1557 1.379 . S
C1552 N1559 1.356 . S
C1553 C1552 1.363 . S
C1553 C1556 1.363 . S
N1554 C1556 1.356 . S
N1554 H1566 0.984 . S
N1554 H1567 0.985 . S
N1555 C1557 1.356 . S
N1555 H1560 0.984 . S
N1555 H1561 0.985 . S
C1556 C1550 1.379 . S
C1556 C1553 1.363 . S
C1556 N1554 1.356 . S
C1557 C1551 1.363 . S
C1557 C1552 1.379 . S
C1557 N1555 1.356 . S
N1558 C1550 1.356 . S
N1558 H1564 0.984 . S
N1558 H1565 0.984 . S
N1559 C1552 1.356 . S
N1559 H1562 0.984 . S
N1559 H1563 0.985 . S
H1560 N1555 0.984 . S
H1561 N1555 0.985 . S
H1562 N1559 0.984 . S
H1563 N1559 0.985 . S
H1564 N1558 0.984 . S
H1565 N1558 0.984 . S
H1566 N1554 0.984 . S
H1567 N1554 0.985 . S
C417 C122 1.214 . S
C419 C5 1.267 . S
C435 C16 1.267 1_455 S
C437 C343 1.214 . S
C453 C146 1.214 . S
C455 C29 1.267 . S
C471 C317 1.214 . S
C473 C44 1.267 . S
C489 C57 1.267 . S
C491 C198 1.214 . S
C507 C369 1.214 . S
C509 C68 1.267 . S
C525 C81 1.267 . S
C527 C174 1.214 . S
C543 C395 1.214 . S
C545 C96 1.267 1_455 S
C561 C18 1.214 . S
C563 C109 1.267 . S
C579 C120 1.267 1_655 S
C581 C237 1.214 . S
C597 C42 1.214 . S
C599 C135 1.267 . S
C615 C148 1.267 . S
C617 C213 1.214 . S
C633 C159 1.267 . S
C635 C94 1.214 . S
C651 C265 1.214 . S
C653 C172 1.267 . S
C669 C187 1.267 . S
C671 C70 1.214 . S
C687 C289 1.214 . S
C689 C200 1.267 1_655 S
C705 C330 1.214 . S
C707 C211 1.267 . S
C723 C133 1.214 . S
C725 C226 1.267 . S
C741 C239 1.267 . S
C743 C354 1.214 . S
C759 C107 1.214 . S
C761 C252 1.267 1_655 S
C777 C408 1.214 . S
C779 C263 1.267 . S
C795 C276 1.267 1_655 S
C797 C161 1.214 . S
C813 C380 1.214 . S
C815 C291 1.267 . S
C831 C185 1.214 . S
C833 C302 1.267 . S
C849 C224 1.214 . S
C851 C315 1.267 . S
C867 C328 1.267 . S
C869 C31 1.214 . S
C885 C341 1.267 . S
C887 C250 1.214 . S
C903 C356 1.267 1_455 S
C905 C3 1.214 . S
C921 C304 1.214 . S
C923 C367 1.267 . S
C939 C382 1.267 1_455 S
C941 C55 1.214 . S
C957 C393 1.267 . S
C959 C278 1.214 . S
C975 C406 1.267 . S
C977 C83 1.214 . S
C993 C316 1.618 . S
C995 C10 1.618 . S
C1011 C17 1.618 . S
C1013 C121 1.618 . S
C1029 C30 1.618 . S
C1031 C342 1.618 . S
C1047 C49 1.618 . S
C1049 C153 1.618 . S
C1065 C62 1.618 . S
C1067 C368 1.618 . S
C1083 C69 1.618 . S
C1085 C173 1.618 . S
C1101 C394 1.618 . S
C1103 C82 1.618 . S
C1119 C101 1.618 . S
C1121 C205 1.618 . S
C1137 C114 1.618 . S
C1139 C212 1.618 . S
C1155 C140 1.618 . S
C1157 C244 1.618 . S
C1173 C264 1.618 . S
C1175 C160 1.618 . S
C1191 C296 1.618 . S
C1193 C192 1.618 . S
C1209 C231 1.618 . S
C1211 C329 1.618 . S
C1227 C361 1.618 . S
C1229 C257 1.618 . S
C1245 C277 1.618 . S
C1247 C387 1.618 . S
C1263 C407 1.618 . S
C1265 C303 1.618 . S
C1281 C283 1.875 . S
C1283 C4 1.875 . S
C1299 C290 1.875 . S
C1301 C23 1.875 . S
C1317 C36 1.875 . S
C1319 C309 1.875 . S
C1335 C270 1.875 . S
C1337 C43 1.875 . S
C1353 C251 1.875 . S
C1355 C56 1.875 . S
C1371 C218 1.875 . S
C1373 C75 1.875 . S
C1389 C88 1.875 . S
C1391 C225 1.875 . S
C1407 C238 1.875 . S
C1409 C95 1.875 . S
C1425 C381 1.875 . S
C1427 C108 1.875 . S
C1443 C400 1.875 . S
C1445 C127 1.875 . S
C1461 C413 1.875 . S
C1463 C134 1.875 . S
C1479 C147 1.875 . S
C1481 C374 1.875 . S
C1497 C355 1.875 . S
C1499 C166 1.875 . S
C1515 C322 1.875 . S
C1517 C179 1.875 . S
C1533 C335 1.875 . S
C1535 C186 1.875 . S
C1551 C348 1.875 . S
C1553 C199 1.875 . S
