# Generated by pormake.
# Topology zfk, (5)-cn, num edge types: 1
# Building blocks:
#     Node 0, Type 0, BuildingBlock: XOMCOT_clean_sbu_1, # of connection points: 5
#     Node 1, Type 0, BuildingBlock: XOMCOT_clean_sbu_1, # of connection points: 5
#     Node 2, Type 0, BuildingBlock: XOMCOT_clean_sbu_1, # of connection points: 5
#     Node 3, Type 0, BuildingBlock: XOMCOT_clean_sbu_1, # of connection points: 5
#     Node 4, Type 0, BuildingBlock: XOMCOT_clean_sbu_1, # of connection points: 5
#     Node 5, Type 0, BuildingBlock: XOMCOT_clean_sbu_1, # of connection points: 5
#     Node 6, Type 0, BuildingBlock: XOMCOT_clean_sbu_1, # of connection points: 5
#     Node 7, Type 0, BuildingBlock: XOMCOT_clean_sbu_1, # of connection points: 5
#     Node 8, Type 0, BuildingBlock: XOMCOT_clean_sbu_1, # of connection points: 5
#     Node 9, Type 0, BuildingBlock: XOMCOT_clean_sbu_1, # of connection points: 5
#     Node 10, Type 0, BuildingBlock: XOMCOT_clean_sbu_1, # of connection points: 5
#     Node 11, Type 0, BuildingBlock: XOMCOT_clean_sbu_1, # of connection points: 5
#     Node 12, Type 0, BuildingBlock: XOMCOT_clean_sbu_1, # of connection points: 5
#     Node 13, Type 0, BuildingBlock: XOMCOT_clean_sbu_1, # of connection points: 5
#     Node 14, Type 0, BuildingBlock: XOMCOT_clean_sbu_1, # of connection points: 5
#     Node 15, Type 0, BuildingBlock: XOMCOT_clean_sbu_1, # of connection points: 5
#     Edge 16, Type (0, 0), BuildingBlock: CIFDUS_clean_linker_0, # of connection points: 2
#     Edge 17, Type (0, 0), BuildingBlock: CIFDUS_clean_linker_0, # of connection points: 2
#     Edge 18, Type (0, 0), BuildingBlock: CIFDUS_clean_linker_0, # of connection points: 2
#     Edge 19, Type (0, 0), BuildingBlock: CIFDUS_clean_linker_0, # of connection points: 2
#     Edge 20, Type (0, 0), BuildingBlock: CIFDUS_clean_linker_0, # of connection points: 2
#     Edge 21, Type (0, 0), BuildingBlock: CIFDUS_clean_linker_0, # of connection points: 2
#     Edge 22, Type (0, 0), BuildingBlock: CIFDUS_clean_linker_0, # of connection points: 2
#     Edge 23, Type (0, 0), BuildingBlock: CIFDUS_clean_linker_0, # of connection points: 2
#     Edge 24, Type (0, 0), BuildingBlock: CIFDUS_clean_linker_0, # of connection points: 2
#     Edge 25, Type (0, 0), BuildingBlock: CIFDUS_clean_linker_0, # of connection points: 2
#     Edge 26, Type (0, 0), BuildingBlock: CIFDUS_clean_linker_0, # of connection points: 2
#     Edge 27, Type (0, 0), BuildingBlock: CIFDUS_clean_linker_0, # of connection points: 2
#     Edge 28, Type (0, 0), BuildingBlock: CIFDUS_clean_linker_0, # of connection points: 2
#     Edge 29, Type (0, 0), BuildingBlock: CIFDUS_clean_linker_0, # of connection points: 2
#     Edge 30, Type (0, 0), BuildingBlock: CIFDUS_clean_linker_0, # of connection points: 2
#     Edge 31, Type (0, 0), BuildingBlock: CIFDUS_clean_linker_0, # of connection points: 2
#     Edge 32, Type (0, 0), BuildingBlock: CIFDUS_clean_linker_0, # of connection points: 2
#     Edge 33, Type (0, 0), BuildingBlock: CIFDUS_clean_linker_0, # of connection points: 2
#     Edge 34, Type (0, 0), BuildingBlock: CIFDUS_clean_linker_0, # of connection points: 2
#     Edge 35, Type (0, 0), BuildingBlock: CIFDUS_clean_linker_0, # of connection points: 2
#     Edge 36, Type (0, 0), BuildingBlock: CIFDUS_clean_linker_0, # of connection points: 2
#     Edge 37, Type (0, 0), BuildingBlock: CIFDUS_clean_linker_0, # of connection points: 2
#     Edge 38, Type (0, 0), BuildingBlock: CIFDUS_clean_linker_0, # of connection points: 2
#     Edge 39, Type (0, 0), BuildingBlock: CIFDUS_clean_linker_0, # of connection points: 2
#     Edge 40, Type (0, 0), BuildingBlock: CIFDUS_clean_linker_0, # of connection points: 2
#     Edge 41, Type (0, 0), BuildingBlock: CIFDUS_clean_linker_0, # of connection points: 2
#     Edge 42, Type (0, 0), BuildingBlock: CIFDUS_clean_linker_0, # of connection points: 2
#     Edge 43, Type (0, 0), BuildingBlock: CIFDUS_clean_linker_0, # of connection points: 2
#     Edge 44, Type (0, 0), BuildingBlock: CIFDUS_clean_linker_0, # of connection points: 2
#     Edge 45, Type (0, 0), BuildingBlock: CIFDUS_clean_linker_0, # of connection points: 2
#     Edge 46, Type (0, 0), BuildingBlock: CIFDUS_clean_linker_0, # of connection points: 2
#     Edge 47, Type (0, 0), BuildingBlock: CIFDUS_clean_linker_0, # of connection points: 2
#     Edge 48, Type (0, 0), BuildingBlock: CIFDUS_clean_linker_0, # of connection points: 2
#     Edge 49, Type (0, 0), BuildingBlock: CIFDUS_clean_linker_0, # of connection points: 2
#     Edge 50, Type (0, 0), BuildingBlock: CIFDUS_clean_linker_0, # of connection points: 2
#     Edge 51, Type (0, 0), BuildingBlock: CIFDUS_clean_linker_0, # of connection points: 2
#     Edge 52, Type (0, 0), BuildingBlock: CIFDUS_clean_linker_0, # of connection points: 2
#     Edge 53, Type (0, 0), BuildingBlock: CIFDUS_clean_linker_0, # of connection points: 2
#     Edge 54, Type (0, 0), BuildingBlock: CIFDUS_clean_linker_0, # of connection points: 2
#     Edge 55, Type (0, 0), BuildingBlock: CIFDUS_clean_linker_0, # of connection points: 2
# Relax obj value: 0.308
# Max RMSD: 0.177
# Mean RMSD: 0.177
data_MOF--net-zfk--node1-XOMCOT_clean_sbu_1--edge1-CIFDUS_clean_linker_0
_symmetry_space_group_name_H-M    P1
_symmetry_Int_Tables_number       1
_symmetry_cell_setting            triclinic
loop_
_symmetry_equiv_pos_as_xyz
'x, y, z'
_cell_length_a     26.972762
_cell_length_b     27.248771
_cell_length_c     57.682117
_cell_angle_alpha  89.957968
_cell_angle_beta   90.099769
_cell_angle_gamma 89.909862
loop_
_atom_site_label
_atom_site_type_symbol
_atom_site_fract_x
_atom_site_fract_y
_atom_site_fract_z
_atom_type_partial_charge
C0 C 0.93548 0.38448 0.1223 0.0
C1 C 0.92503 0.3662 0.10057 0.0
N2 N 0.9267 0.31692 0.10156 0.0
N3 N 0.94548 0.34722 0.13713 0.0
C4 C 0.93746 0.30658 0.12394 0.0
H5 H 0.93399 0.42283 0.12678 0.0
Co6 Co 0.95987 0.34954 0.16991 0.0
C7 C 0.98774 0.24469 0.18017 0.0
O8 O 0.02501 0.26093 0.19271 0.0
N9 N 0.96837 0.35205 0.20298 0.0
C10 C 0.96392 0.33321 0.24062 0.0
C11 C 0.95289 0.31814 0.21846 0.0
C12 C 0.98438 0.38936 0.21668 0.0
N13 N 0.9846 0.37812 0.23956 0.0
O14 O 0.96277 0.42292 0.16938 0.0
H15 H 0.93374 0.28458 0.21414 0.0
H16 H 0.99458 0.42485 0.21 0.0
O17 O 0.95729 0.27569 0.17106 0.0
C18 C 0.99151 0.45442 0.15968 0.0
O19 O 0.02457 0.43951 0.14452 0.0
N20 N 0.03049 0.34495 0.16443 0.0
C21 C 0.12997 0.31716 0.16415 0.0
C22 C 0.0968 0.29702 0.14823 0.0
C23 C 0.04747 0.31143 0.14862 0.0
C24 C 0.06442 0.36983 0.17762 0.0
C25 C 0.11412 0.35599 0.17806 0.0
H26 H 0.02289 0.29118 0.13771 0.0
H27 H 0.05394 0.40006 0.18831 0.0
H28 H 0.94128 0.26959 0.13034 0.0
H29 H 0.91601 0.38771 0.08536 0.0
H30 H 0.9566 0.31239 0.25619 0.0
H31 H 0.10812 0.26812 0.13647 0.0
H32 H 0.13911 0.37388 0.19009 0.0
C33 C 0.08935 0.91571 0.61866 0.0
C34 C 0.10403 0.90592 0.59634 0.0
N35 N 0.15315 0.91364 0.59475 0.0
N36 N 0.12837 0.93151 0.63136 0.0
C37 C 0.16713 0.92707 0.6164 0.0
H38 H 0.05247 0.90934 0.62519 0.0
Co39 Co 0.12798 0.94547 0.66408 0.0
C40 C 0.23392 0.9656 0.67465 0.0
O41 O 0.21913 0.00216 0.68782 0.0
N42 N 0.12661 0.95347 0.6972 0.0
C43 C 0.14528 0.94321 0.7347 0.0
C44 C 0.15884 0.93257 0.71228 0.0
C45 C 0.09133 0.97285 0.71135 0.0
N46 N 0.10277 0.969 0.73412 0.0
O47 O 0.05539 0.95247 0.66405 0.0
H48 H 0.18994 0.90976 0.70743 0.0
H49 H 0.0567 0.98796 0.70529 0.0
O50 O 0.20151 0.93816 0.66473 0.0
C51 C 0.02455 0.98002 0.65322 0.0
O52 O 0.04029 0.00906 0.63659 0.0
N53 N 0.13601 0.01555 0.65872 0.0
C54 C 0.16917 0.11245 0.66073 0.0
C55 C 0.1904 0.07927 0.64521 0.0
C56 C 0.17279 0.03147 0.64422 0.0
C57 C 0.11009 0.04995 0.67109 0.0
C58 C 0.12637 0.09837 0.67258 0.0
H59 H 0.19383 0.00668 0.63388 0.0
H60 H 0.07741 0.04066 0.68052 0.0
H61 H 0.20531 0.93301 0.62128 0.0
H62 H 0.08027 0.89273 0.58257 0.0
H63 H 0.1645 0.93146 0.75023 0.0
H64 H 0.22348 0.08833 0.6355 0.0
H65 H 0.10703 0.1238 0.68382 0.0
C66 C 0.57532 0.10875 0.12527 0.0
C67 C 0.5854 0.12985 0.1041 0.0
N68 N 0.57916 0.17874 0.10589 0.0
N69 N 0.56105 0.1436 0.14055 0.0
C70 C 0.56619 0.18593 0.12827 0.0
H71 H 0.58048 0.0704 0.12922 0.0
Co72 Co 0.54774 0.1366 0.17317 0.0
C73 C 0.52299 0.24119 0.18681 0.0
O74 O 0.48531 0.22549 0.19906 0.0
N75 N 0.54088 0.129 0.2056 0.0
C76 C 0.56781 0.10009 0.23949 0.0
C77 C 0.57989 0.10903 0.21677 0.0
C78 C 0.50565 0.13301 0.22231 0.0
N79 N 0.52072 0.1148 0.24305 0.0
O80 O 0.54469 0.06334 0.17067 0.0
H81 H 0.61445 0.09927 0.20846 0.0
H82 H 0.46894 0.14731 0.21926 0.0
O83 O 0.55136 0.20986 0.17669 0.0
C84 C 0.51801 0.03263 0.15923 0.0
O85 O 0.48722 0.04888 0.14328 0.0
N86 N 0.47747 0.14059 0.16828 0.0
C87 C 0.37644 0.16067 0.16685 0.0
C88 C 0.4093 0.18664 0.15286 0.0
C89 C 0.45939 0.17655 0.15406 0.0
C90 C 0.4448 0.11031 0.17952 0.0
C91 C 0.39391 0.12029 0.1794 0.0
H92 H 0.48315 0.20121 0.14501 0.0
H93 H 0.4581 0.08022 0.19004 0.0
H94 H 0.56002 0.22178 0.13557 0.0
H95 H 0.59762 0.11041 0.0888 0.0
H96 H 0.59134 0.0816 0.25194 0.0
H97 H 0.39684 0.21718 0.14228 0.0
H98 H 0.36922 0.09867 0.19009 0.0
C99 C 0.40594 0.48967 0.62354 0.0
C100 C 0.38799 0.49604 0.60137 0.0
N101 N 0.34596 0.52259 0.60248 0.0
N102 N 0.37445 0.51014 0.63901 0.0
C103 C 0.34037 0.53274 0.62528 0.0
H104 H 0.44066 0.47214 0.62763 0.0
Co105 Co 0.37588 0.51471 0.67225 0.0
C106 C 0.27026 0.49243 0.66115 0.0
O107 O 0.28783 0.4576 0.64769 0.0
N108 N 0.37735 0.52512 0.70486 0.0
C109 C 0.37373 0.56878 0.73763 0.0
C110 C 0.36801 0.56995 0.71384 0.0
C111 C 0.38811 0.49724 0.72374 0.0
N112 N 0.38686 0.52297 0.7437 0.0
O113 O 0.45023 0.5103 0.67122 0.0
H114 H 0.35872 0.60191 0.70357 0.0
H115 H 0.39651 0.4585 0.72323 0.0
O116 O 0.30068 0.51977 0.67264 0.0
C117 C 0.48261 0.48623 0.68304 0.0
O118 O 0.46827 0.45726 0.69982 0.0
N119 N 0.37011 0.44499 0.67653 0.0
C120 C 0.34035 0.34737 0.67468 0.0
C121 C 0.38316 0.36264 0.66307 0.0
C122 C 0.39784 0.41159 0.66453 0.0
C123 C 0.33307 0.42848 0.69074 0.0
C124 C 0.31718 0.38015 0.68984 0.0
H125 H 0.43058 0.42234 0.65537 0.0
H126 H 0.31203 0.45367 0.70134 0.0
H127 H 0.31142 0.55617 0.632 0.0
H128 H 0.40442 0.48134 0.58575 0.0
H129 H 0.37065 0.59958 0.74938 0.0
H130 H 0.40371 0.33764 0.65209 0.0
H131 H 0.28421 0.37009 0.69941 0.0
C132 C 0.96576 0.09011 0.96807 0.0
C133 C 0.95453 0.10893 0.98958 0.0
N134 N 0.94102 0.15613 0.98696 0.0
N135 N 0.96187 0.1257 0.95174 0.0
C136 C 0.94319 0.16427 0.96386 0.0
H137 H 0.97826 0.05303 0.96491 0.0
Co138 Co 0.97442 0.12048 0.91881 0.0
C139 C 0.99212 0.22719 0.92571 0.0
O140 O 0.02221 0.21533 0.94273 0.0
N141 N 0.98029 0.11378 0.88617 0.0
C142 C 0.95845 0.11896 0.84894 0.0
C143 C 0.94694 0.13301 0.87126 0.0
C144 C 0.01147 0.08776 0.8724 0.0
N145 N 0.99928 0.0905 0.84969 0.0
O146 O 0.98137 0.04862 0.92177 0.0
H147 H 0.9157 0.15544 0.87637 0.0
H148 H 0.04281 0.06732 0.87869 0.0
O149 O 0.96744 0.19347 0.91515 0.0
C150 C 0.01802 0.01878 0.91989 0.0
O151 O 0.06282 0.0352 0.91573 0.0
N152 N 0.04484 0.13051 0.92248 0.0
C153 C 0.13377 0.17761 0.93332 0.0
C154 C 0.11234 0.14434 0.94893 0.0
C155 C 0.06881 0.12001 0.94284 0.0
C156 C 0.06915 0.15743 0.90598 0.0
C157 C 0.11423 0.17972 0.9108 0.0
H158 H 0.05335 0.09521 0.95529 0.0
H159 H 0.05162 0.16743 0.88986 0.0
H160 H 0.93048 0.19794 0.95602 0.0
H161 H 0.95821 0.08977 1.00594 0.0
H162 H 0.93848 0.12926 0.83338 0.0
H163 H 0.12648 0.13925 0.9663 0.0
H164 H 0.13109 0.20171 0.89734 0.0
C165 C 0.41729 0.93601 0.47059 0.0
C166 C 0.40258 0.917 0.49158 0.0
N167 N 0.3532 0.92275 0.49361 0.0
N168 N 0.37784 0.95536 0.45932 0.0
C169 C 0.33907 0.94383 0.47339 0.0
H170 H 0.4547 0.93464 0.4641 0.0
Co171 Co 0.37586 0.98672 0.42936 0.0
C172 C 0.27284 0.02702 0.42685 0.0
O173 O 0.29333 0.06794 0.41958 0.0
N174 N 0.37366 0.01167 0.39827 0.0
C175 C 0.34958 0.01881 0.36131 0.0
C176 C 0.3361 0.00384 0.38315 0.0
C177 C 0.41076 0.02856 0.38447 0.0
N178 N 0.39675 0.03461 0.3621 0.0
O179 O 0.45003 0.98518 0.42686 0.0
H180 H 0.30186 0.98524 0.38717 0.0
H181 H 0.4482 0.03449 0.39046 0.0
O182 O 0.30078 0.98959 0.43101 0.0
C183 C 0.48516 0.00691 0.4379 0.0
O184 O 0.47502 0.03084 0.4571 0.0
N185 N 0.3786 0.05163 0.44322 0.0
C186 C 0.36185 0.14752 0.45839 0.0
C187 C 0.34459 0.10779 0.47123 0.0
C188 C 0.3524 0.06053 0.46313 0.0
C189 C 0.4022 0.09018 0.43273 0.0
C190 C 0.39372 0.13844 0.43978 0.0
H191 H 0.33241 0.03253 0.47192 0.0
H192 H 0.42637 0.08478 0.41829 0.0
H193 H 0.30115 0.95357 0.4695 0.0
H194 H 0.42678 0.90032 0.50433 0.0
H195 H 0.32717 0.01526 0.34583 0.0
H196 H 0.32076 0.1132 0.48612 0.0
H197 H 0.40883 0.1682 0.42955 0.0
C198 C 0.5675 0.41216 0.97139 0.0
C199 C 0.5802 0.39275 0.99272 0.0
N200 N 0.5703 0.34441 0.99242 0.0
N201 N 0.54737 0.37694 0.95778 0.0
C202 C 0.55195 0.33586 0.97102 0.0
H203 H 0.5753 0.44928 0.96597 0.0
Co204 Co 0.53095 0.37995 0.92523 0.0
C205 C 0.51001 0.27261 0.914 0.0
O206 O 0.47273 0.28639 0.90078 0.0
N207 N 0.52122 0.38208 0.89251 0.0
C208 C 0.54077 0.36154 0.85627 0.0
C209 C 0.5485 0.3516 0.87918 0.0
C210 C 0.49932 0.41266 0.8768 0.0
N211 N 0.51007 0.40031 0.85455 0.0
O212 O 0.52518 0.45417 0.92623 0.0
H213 H 0.5744 0.32457 0.88566 0.0
H214 H 0.47915 0.44548 0.88132 0.0
O215 O 0.53699 0.30569 0.92379 0.0
C216 C 0.50093 0.48228 0.94015 0.0
O217 O 0.47702 0.46238 0.95763 0.0
N218 N 0.46076 0.37368 0.93145 0.0
C219 C 0.35917 0.35734 0.9395 0.0
C220 C 0.39562 0.32666 0.94901 0.0
C221 C 0.44526 0.33612 0.94532 0.0
C222 C 0.42585 0.40493 0.92245 0.0
C223 C 0.37521 0.39805 0.92661 0.0
H224 H 0.47045 0.31017 0.95258 0.0
H225 H 0.43642 0.43623 0.91234 0.0
H226 H 0.54365 0.29945 0.96498 0.0
H227 H 0.59753 0.41235 1.00688 0.0
H228 H 0.5576 0.34194 0.842 0.0
H229 H 0.3869 0.29336 0.9583 0.0
H230 H 0.34923 0.4241 0.91932 0.0
C231 C 0.11721 0.5701 0.46713 0.0
C232 C 0.13964 0.57365 0.48857 0.0
N233 N 0.18301 0.54895 0.48794 0.0
N234 N 0.14599 0.54296 0.45301 0.0
C235 C 0.18585 0.53083 0.46615 0.0
H236 H 0.08256 0.58701 0.46203 0.0
Co237 Co 0.13486 0.52983 0.42145 0.0
C238 C 0.23817 0.54375 0.39933 0.0
O239 O 0.22005 0.54995 0.3784 0.0
N240 N 0.12259 0.52081 0.38961 0.0
C241 C 0.09742 0.54757 0.35507 0.0
C242 C 0.11383 0.56111 0.37668 0.0
C243 C 0.11047 0.48291 0.37543 0.0
N244 N 0.09494 0.49825 0.35428 0.0
O245 O 0.06092 0.5225 0.42676 0.0
H246 H 0.11721 0.59829 0.38304 0.0
H247 H 0.11096 0.44487 0.38069 0.0
O248 O 0.20836 0.53772 0.41642 0.0
C249 C 0.03174 0.48631 0.42222 0.0
O250 O 0.05 0.44559 0.41362 0.0
N251 N 0.14656 0.46228 0.42697 0.0
C252 C 0.18477 0.37286 0.44154 0.0
C253 C 0.14677 0.39531 0.45409 0.0
C254 C 0.12823 0.44035 0.44653 0.0
C255 C 0.18091 0.43846 0.41373 0.0
C256 C 0.20049 0.39377 0.42071 0.0
H257 H 0.1012 0.45905 0.45717 0.0
H258 H 0.19535 0.45491 0.39814 0.0
H259 H 0.21615 0.50853 0.45983 0.0
H260 H 0.12558 0.59406 0.50325 0.0
H261 H 0.08545 0.57237 0.3415 0.0
H262 H 0.13366 0.37973 0.47023 0.0
H263 H 0.22911 0.37659 0.41033 0.0
C264 C 0.02864 0.59166 0.97156 0.0
C265 C 0.0376 0.60942 0.99355 0.0
N266 N 0.06015 0.65319 0.99159 0.0
N267 N 0.0433 0.62497 0.95554 0.0
C268 C 0.06545 0.66024 0.96855 0.0
H269 H 0.0117 0.55669 0.96769 0.0
Co270 Co 0.04173 0.62123 0.92225 0.0
C271 C 0.02669 0.7273 0.93026 0.0
O272 O 0.99262 0.71477 0.94539 0.0
N273 N 0.0461 0.61572 0.88963 0.0
C274 C 0.07539 0.62035 0.85353 0.0
C275 C 0.0821 0.63515 0.87625 0.0
C276 C 0.01825 0.58926 0.87466 0.0
N277 N 0.03529 0.59106 0.85272 0.0
O278 O 0.03191 0.54941 0.92408 0.0
H279 H 0.11197 0.65782 0.8827 0.0
H280 H 0.98522 0.56982 0.87942 0.0
O281 O 0.05238 0.69382 0.92004 0.0
C282 C 0.99623 0.51943 0.92011 0.0
O283 O 0.95244 0.53575 0.91384 0.0
N284 N 0.97133 0.63458 0.92031 0.0
C285 C 0.88079 0.68418 0.92336 0.0
C286 C 0.89273 0.64677 0.93912 0.0
C287 C 0.93825 0.62262 0.93737 0.0
C288 C 0.95655 0.66601 0.90302 0.0
C289 C 0.91214 0.69158 0.90441 0.0
H290 H 0.94701 0.59564 0.95028 0.0
H291 H 0.98173 0.67744 0.88957 0.0
H292 H 0.0856 0.69089 0.96136 0.0
H293 H 0.02682 0.59212 1.00966 0.0
H294 H 0.09904 0.62908 0.83897 0.0
H295 H 0.86837 0.63785 0.95341 0.0
H296 H 0.9052 0.72018 0.89179 0.0
C297 C 0.85742 0.12025 0.45708 0.0
C298 C 0.84165 0.12434 0.47965 0.0
N299 N 0.84525 0.07995 0.48983 0.0
N300 N 0.87072 0.07349 0.45279 0.0
C301 C 0.86498 0.0503 0.47339 0.0
H302 H 0.85487 0.14851 0.44395 0.0
Co303 Co 0.87855 0.05218 0.42203 0.0
C304 C 0.77294 0.04305 0.40473 0.0
O305 O 0.78652 0.00754 0.39069 0.0
N306 N 0.88707 0.03545 0.39042 0.0
C307 C 0.88664 0.05093 0.35243 0.0
C308 C 0.87245 0.06753 0.37392 0.0
C309 C 0.91145 6e-05 0.37837 0.0
N310 N 0.91127 0.00837 0.35522 0.0
O311 O 0.94943 0.04097 0.42744 0.0
H312 H 0.85323 0.10159 0.37741 0.0
H313 H 0.93149 0.9701 0.38611 0.0
O314 O 0.80626 0.06568 0.4166 0.0
C315 C 0.97836 0.07726 0.42413 0.0
O316 O 0.95841 0.11935 0.41798 0.0
N317 N 0.86259 0.9861 0.43083 0.0
C318 C 0.82687 0.89087 0.43609 0.0
C319 C 0.79838 0.93104 0.44303 0.0
C320 C 0.81724 0.97791 0.44073 0.0
C321 C 0.89362 0.94712 0.4273 0.0
C322 C 0.87602 0.89896 0.42918 0.0
H323 H 0.79415 0.00783 0.44651 0.0
H324 H 0.93175 0.95273 0.42245 0.0
H325 H 0.87107 0.01141 0.47583 0.0
H326 H 0.82391 0.15627 0.48713 0.0
H327 H 0.87948 0.069 0.33605 0.0
H328 H 0.76058 0.92693 0.44901 0.0
H329 H 0.90017 0.86858 0.42479 0.0
C330 C 0.45094 0.89965 0.97119 0.0
C331 C 0.44405 0.87809 0.99254 0.0
N332 N 0.45014 0.82933 0.99026 0.0
N333 N 0.46304 0.86519 0.95529 0.0
C334 C 0.46007 0.82263 0.96752 0.0
H335 H 0.44514 0.93806 0.96769 0.0
Co336 Co 0.47235 0.87298 0.92241 0.0
C337 C 0.49675 0.77041 0.9055 0.0
O338 O 0.52878 0.78994 0.89115 0.0
N339 N 0.47561 0.88163 0.88985 0.0
C340 C 0.44295 0.90923 0.85677 0.0
C341 C 0.43338 0.89605 0.87933 0.0
C342 C 0.51034 0.88515 0.87288 0.0
N343 N 0.49169 0.90294 0.85273 0.0
O344 O 0.4727 0.94678 0.92503 0.0
H345 H 0.39814 0.89974 0.88808 0.0
H346 H 0.54895 0.87607 0.87517 0.0
O347 O 0.47075 0.79888 0.91852 0.0
C348 C 0.49841 0.97961 0.93567 0.0
O349 O 0.53204 0.96587 0.95087 0.0
N350 N 0.54318 0.87086 0.92589 0.0
C351 C 0.64535 0.8554 0.92634 0.0
C352 C 0.61387 0.82507 0.93904 0.0
C353 C 0.56325 0.83323 0.93849 0.0
C354 C 0.57417 0.90393 0.91542 0.0
C355 C 0.62542 0.89621 0.91494 0.0
H356 H 0.54058 0.80634 0.94684 0.0
H357 H 0.55936 0.93476 0.90588 0.0
H358 H 0.46417 0.78688 0.95987 0.0
H359 H 0.43501 0.89715 1.00843 0.0
H360 H 0.41654 0.92539 0.84485 0.0
H361 H 0.62771 0.7926 0.94781 0.0
H362 H 0.64886 0.92054 0.90495 0.0
C363 C 0.59773 0.45766 0.46893 0.0
C364 C 0.61692 0.44483 0.49023 0.0
N365 N 0.66656 0.44488 0.48866 0.0
N366 N 0.63494 0.46823 0.45399 0.0
C367 C 0.67637 0.45706 0.46647 0.0
H368 H 0.55878 0.45734 0.46486 0.0
Co369 Co 0.63247 0.48737 0.42174 0.0
C370 C 0.7361 0.52046 0.41192 0.0
O371 O 0.71545 0.5566 0.40027 0.0
N372 N 0.63035 0.4987 0.38908 0.0
C373 C 0.64921 0.48293 0.35211 0.0
C374 C 0.66378 0.47753 0.37474 0.0
C375 C 0.59403 0.51423 0.37437 0.0
N376 N 0.60524 0.50606 0.35183 0.0
O377 O 0.55725 0.49008 0.42216 0.0
H378 H 0.69574 0.45664 0.38028 0.0
H379 H 0.55837 0.52791 0.37994 0.0
O380 O 0.70804 0.48698 0.42071 0.0
C381 C 0.52734 0.51718 0.43397 0.0
O382 O 0.54519 0.54596 0.45023 0.0
N383 N 0.63596 0.55642 0.42951 0.0
C384 C 0.65721 0.65497 0.43775 0.0
C385 C 0.67724 0.61874 0.45187 0.0
C386 C 0.66672 0.57 0.44732 0.0
C387 C 0.61259 0.59238 0.41691 0.0
C388 C 0.62366 0.64197 0.42038 0.0
H389 H 0.68756 0.54388 0.45708 0.0
H390 H 0.58601 0.58356 0.4038 0.0
H391 H 0.71369 0.46019 0.45989 0.0
H392 H 0.59593 0.43547 0.50559 0.0
H393 H 0.66893 0.46963 0.33704 0.0
H394 H 0.7042 0.62773 0.46517 0.0
H395 H 0.60737 0.66963 0.40921 0.0
C396 C 0.07706 0.88184 0.12647 0.0
C397 C 0.08736 0.86256 0.10492 0.0
N398 N 0.08235 0.8135 0.10599 0.0
N399 N 0.06371 0.84556 0.14123 0.0
C400 C 0.06988 0.80431 0.12825 0.0
H401 H 0.08096 0.92004 0.13094 0.0
Co402 Co 0.04831 0.8493 0.17387 0.0
C403 C 0.02003 0.74423 0.18406 0.0
O404 O 0.98197 0.75998 0.19618 0.0
N405 N 0.03888 0.85309 0.20687 0.0
C406 C 0.04424 0.83556 0.24468 0.0
C407 C 0.05372 0.81919 0.22257 0.0
C408 C 0.02421 0.89141 0.22034 0.0
N409 N 0.02517 0.88108 0.24329 0.0
O410 O 0.04576 0.92254 0.17262 0.0
H411 H 0.07212 0.78507 0.21848 0.0
H412 H 0.01376 0.92688 0.21355 0.0
O413 O 0.05064 0.77557 0.1755 0.0
C414 C 0.01825 0.95332 0.16161 0.0
O415 O 0.98709 0.93732 0.1458 0.0
N416 N 0.9778 0.8455 0.16794 0.0
C417 C 0.87714 0.82328 0.1655 0.0
C418 C 0.91076 0.80026 0.15077 0.0
C419 C 0.96063 0.81184 0.15225 0.0
C420 C 0.944 0.87245 0.1803 0.0
C421 C 0.89354 0.86161 0.17954 0.0
H422 H 0.98503 0.7896 0.14221 0.0
H423 H 0.95512 0.90225 0.19113 0.0
H424 H 0.06376 0.76776 0.13476 0.0
H425 H 0.09855 0.88323 0.08979 0.0
H426 H 0.05235 0.81591 0.26055 0.0
H427 H 0.89908 0.77115 0.13919 0.0
H428 H 0.86818 0.88127 0.19074 0.0
C429 C 0.60719 0.01449 0.61603 0.0
C430 C 0.62808 0.0239 0.59481 0.0
N431 N 0.66782 0.0528 0.59801 0.0
N432 N 0.63386 0.03672 0.63289 0.0
C433 C 0.66959 0.06137 0.62107 0.0
H434 H 0.57618 0.99055 0.61862 0.0
Co435 Co 0.63014 0.02877 0.66574 0.0
C436 C 0.73579 0.01894 0.67975 0.0
O437 O 0.72184 0.98497 0.69455 0.0
N438 N 0.6249 0.02584 0.69879 0.0
C439 C 0.63717 0.04315 0.73623 0.0
C440 C 0.6525 0.05221 0.7139 0.0
C441 C 0.59006 0.00472 0.71254 0.0
N442 N 0.59796 0.01283 0.73536 0.0
O443 O 0.55807 0.01611 0.66382 0.0
H444 H 0.68177 0.07724 0.70907 0.0
H445 H 0.55872 0.98428 0.70606 0.0
O446 O 0.70274 0.04236 0.66807 0.0
C447 C 0.52856 0.98114 0.65827 0.0
O448 O 0.54614 0.93988 0.64985 0.0
N449 N 0.64743 0.95989 0.66284 0.0
C450 C 0.69714 0.86974 0.66494 0.0
C451 C 0.71072 0.90522 0.64871 0.0
C452 C 0.685 0.9492 0.64763 0.0
C453 C 0.63074 0.92346 0.67718 0.0
C454 C 0.65494 0.87823 0.67847 0.0
H455 H 0.70014 0.97652 0.63624 0.0
H456 H 0.59908 0.9285 0.68802 0.0
H457 H 0.69888 0.08201 0.62933 0.0
H458 H 0.61614 0.00886 0.57836 0.0
H459 H 0.65296 0.05868 0.75185 0.0
H460 H 0.74329 0.90099 0.63795 0.0
H461 H 0.64147 0.85079 0.69049 0.0
C462 C 0.44747 0.5973 0.12472 0.0
C463 C 0.43972 0.61411 0.10245 0.0
N464 N 0.43459 0.66311 0.10323 0.0
N465 N 0.44929 0.63556 0.13969 0.0
C466 C 0.43891 0.67478 0.12588 0.0
H467 H 0.44972 0.55908 0.12931 0.0
Co468 Co 0.45742 0.63723 0.17299 0.0
C469 C 0.47955 0.74332 0.18258 0.0
O470 O 0.51292 0.7283 0.19765 0.0
N471 N 0.45867 0.63915 0.20614 0.0
C472 C 0.43499 0.66389 0.24131 0.0
C473 C 0.43039 0.67157 0.21793 0.0
C474 C 0.47679 0.60942 0.22313 0.0
N475 N 0.46492 0.625 0.24477 0.0
O476 O 0.46354 0.56369 0.1746 0.0
H477 H 0.40667 0.69889 0.21002 0.0
H478 H 0.49617 0.57556 0.21985 0.0
O479 O 0.45229 0.71129 0.1722 0.0
C480 C 0.49526 0.53281 0.16647 0.0
O481 O 0.53018 0.5483 0.1524 0.0
N482 N 0.52838 0.64428 0.17014 0.0
C483 C 0.62803 0.67121 0.1695 0.0
C484 C 0.59495 0.69074 0.15337 0.0
C485 C 0.54565 0.67683 0.15396 0.0
C486 C 0.5618 0.62131 0.18441 0.0
C487 C 0.61173 0.63451 0.18452 0.0
H488 H 0.52126 0.69603 0.14245 0.0
H489 H 0.55092 0.59224 0.19567 0.0
H490 H 0.43644 0.71205 0.13203 0.0
H491 H 0.43707 0.59182 0.08698 0.0
H492 H 0.41654 0.68497 0.25463 0.0
H493 H 0.60659 0.71835 0.14099 0.0
H494 H 0.63679 0.61744 0.19682 0.0
C495 C 0.88397 0.40267 0.62741 0.0
C496 C 0.86384 0.39881 0.60552 0.0
N497 N 0.83317 0.43717 0.60213 0.0
N498 N 0.86662 0.44352 0.63786 0.0
C499 C 0.83616 0.46402 0.62179 0.0
H500 H 0.90787 0.37601 0.63571 0.0
Co501 Co 0.87812 0.45539 0.66972 0.0
C502 C 0.77039 0.42396 0.66698 0.0
O503 O 0.77791 0.39422 0.64945 0.0
N504 N 0.88932 0.4641 0.70169 0.0
C505 C 0.87988 0.45446 0.73974 0.0
C506 C 0.86268 0.44117 0.71825 0.0
C507 C 0.92355 0.49023 0.71372 0.0
N508 N 0.91828 0.48543 0.73695 0.0
O509 O 0.95076 0.4606 0.66401 0.0
H510 H 0.8326 0.41592 0.715 0.0
H511 H 0.95276 0.51126 0.70577 0.0
O512 O 0.80667 0.44706 0.6762 0.0
C513 C 0.97547 0.47473 0.64626 0.0
O514 O 0.95201 0.49041 0.62771 0.0
N515 N 0.86863 0.52561 0.66598 0.0
C516 C 0.85178 0.62631 0.66173 0.0
C517 C 0.81269 0.59343 0.66021 0.0
C518 C 0.82168 0.5437 0.66251 0.0
C519 C 0.90717 0.55834 0.66785 0.0
C520 C 0.89956 0.60889 0.66563 0.0
H521 H 0.7898 0.52063 0.66061 0.0
H522 H 0.94437 0.54658 0.67144 0.0
H523 H 0.81425 0.49643 0.62461 0.0
H524 H 0.86874 0.36835 0.5937 0.0
H525 H 0.86465 0.44258 0.75615 0.0
H526 H 0.7751 0.6062 0.65724 0.0
H527 H 0.93049 0.63399 0.66722 0.0
H528 H 0.91334 0.14002 1.03157 0.0
H529 H 0.9541 0.25471 0.98359 0.0
H530 H 0.95022 0.31498 1.01459 0.0
H531 H 0.94127 0.33472 0.05586 0.0
H532 H 0.90131 0.22039 0.10414 0.0
H533 H 0.89996 0.16073 0.07268 0.0
C534 C 0.92128 0.17817 1.02784 0.0
C535 C 0.93398 0.19236 1.00508 0.0
C536 C 0.91977 0.21291 1.04594 0.0
C537 C 0.94349 0.24235 1.0007 0.0
C538 C 0.94174 0.27702 1.01854 0.0
C539 C 0.93144 0.297 0.05954 0.0
C540 C 0.92184 0.28239 0.08256 0.0
C541 C 0.93063 0.26266 1.04129 0.0
C542 C 0.90979 0.2329 0.0868 0.0
C543 C 0.90873 0.19862 0.06873 0.0
H544 H 0.25261 0.9171 0.49615 0.0
H545 H 0.38525 0.91099 0.53814 0.0
H546 H 0.33515 0.90475 0.57297 0.0
H547 H 0.25373 0.90536 0.592 0.0
H548 H 0.12139 0.91648 0.55001 0.0
H549 H 0.1714 0.91641 0.51505 0.0
C550 C 0.27086 0.91461 0.51283 0.0
C551 C 0.3231 0.91485 0.51415 0.0
C552 C 0.24172 0.91203 0.53305 0.0
C553 C 0.3454 0.91047 0.5362 0.0
C554 C 0.31665 0.90727 0.55632 0.0
C555 C 0.23559 0.90795 0.57528 0.0
C556 C 0.1834 0.91094 0.57398 0.0
C557 C 0.26475 0.90875 0.55501 0.0
C558 C 0.16116 0.91344 0.55187 0.0
C559 C 0.18986 0.91377 0.53171 0.0
H560 H 0.58386 0.16316 0.0594 0.0
H561 H 0.58275 0.27874 0.1107 0.0
H562 H 0.5811 0.33997 0.08017 0.0
H563 H 0.5759 0.3614 1.0387 0.0
H564 H 0.58205 0.24555 0.98772 0.0
H565 H 0.58608 0.18453 1.01829 0.0
C566 C 0.584 0.20158 0.06411 0.0
C567 C 0.58272 0.21547 0.08767 0.0
C568 C 0.58361 0.23711 1.04637 0.0
C569 C 0.58264 0.26604 0.09297 0.0
C570 C 0.58198 0.3015 0.0754 0.0
C571 C 0.57886 0.32292 1.03422 0.0
C572 C 0.57765 0.30859 1.01073 0.0
C573 C 0.5818 0.28751 0.05202 0.0
C574 C 0.58137 0.2582 1.00547 0.0
C575 C 0.5841 0.22297 1.02303 0.0
H576 H 0.16686 0.5565 0.53415 0.0
H577 H 0.28165 0.53052 0.48361 0.0
H578 H 0.34269 0.5217 0.51454 0.0
H579 H 0.36368 0.52088 0.55607 0.0
H580 H 0.2482 0.54598 0.6065 0.0
H581 H 0.18806 0.55702 0.57556 0.0
C582 C 0.20525 0.54941 0.52982 0.0
C583 C 0.21925 0.54409 0.50641 0.0
C584 C 0.24042 0.54457 0.54776 0.0
C585 C 0.26933 0.53413 0.50135 0.0
C586 C 0.30449 0.5294 0.51909 0.0
C587 C 0.32544 0.52867 0.56039 0.0
C588 C 0.31108 0.53255 0.58385 0.0
C589 C 0.29045 0.53435 0.54239 0.0
C590 C 0.26108 0.54335 0.58881 0.0
C591 C 0.22628 0.54933 0.57104 0.0
H592 H 0.07468 0.8319 0.05989 0.0
H593 H 0.09683 0.7146 0.10925 0.0
H594 H 0.09326 0.6546 0.07809 0.0
H595 H 0.08024 0.63458 1.03679 0.0
H596 H 0.05955 0.75221 0.9876 0.0
H597 H 0.06759 0.81246 1.01853 0.0
C598 C 0.0796 0.79339 0.06392 0.0
C599 C 0.08535 0.77829 0.08716 0.0
C600 C 0.0779 0.75876 1.04581 0.0
C601 C 0.09121 0.72777 0.09176 0.0
C602 C 0.08946 0.69318 0.07385 0.0
C603 C 0.0777 0.67339 1.03284 0.0
C604 C 0.06933 0.68857 1.00981 0.0
C605 C 0.08205 0.70814 0.05084 0.0
C606 C 0.06668 0.73921 1.00502 0.0
C607 C 0.07086 0.77384 1.02279 0.0
H608 H 0.82592 0.13473 0.5279 0.0
H609 H 0.80222 0.99162 0.49781 0.0
H610 H 0.7465 0.97033 0.52929 0.0
H611 H 0.69945 0.994 0.56378 0.0
H612 H 0.72142 0.13643 0.59439 0.0
H613 H 0.78257 0.15649 0.56434 0.0
C614 C 0.80889 0.09875 0.52837 0.0
C615 C 0.8185 0.06499 0.51037 0.0
C616 C 0.77596 0.08685 0.54646 0.0
C617 C 0.79643 0.01825 0.51144 0.0
C618 C 0.76393 0.00615 0.52936 0.0
C619 C 0.7174 0.02956 0.56379 0.0
C620 C 0.7052 0.06414 0.58097 0.0
C621 C 0.75258 0.0405 0.54664 0.0
C622 C 0.72998 0.10943 0.58122 0.0
C623 C 0.76485 0.12083 0.56405 0.0
H624 H 0.40663 0.83669 1.03258 0.0
H625 H 0.48939 0.73718 0.989 0.0
H626 H 0.4887 0.67574 1.01955 0.0
H627 H 0.46888 0.65137 0.05958 0.0
H628 H 0.3886 0.75163 0.10357 0.0
H629 H 0.38502 0.81163 0.07217 0.0
C630 C 0.42479 0.80178 1.0297 0.0
C631 C 0.44802 0.79216 1.00827 0.0
C632 C 0.42511 0.76656 0.04759 0.0
C633 C 0.47057 0.74596 1.005 0.0
C634 C 0.47056 0.71065 1.02262 0.0
C635 C 0.44996 0.68603 0.0622 0.0
C636 C 0.42922 0.69688 0.08401 0.0
C637 C 0.44835 0.72067 1.04407 0.0
C638 C 0.40547 0.74241 0.08712 0.0
C639 C 0.40325 0.77676 0.06912 0.0
H640 H 0.65564 0.47192 0.53319 0.0
H641 H 0.75793 0.40409 0.48566 0.0
H642 H 0.81948 0.39608 0.5167 0.0
H643 H 0.84433 0.40889 0.55752 0.0
H644 H 0.74189 0.47853 0.60454 0.0
H645 H 0.68066 0.48558 0.57365 0.0
C646 C 0.69118 0.45485 0.52972 0.0
C647 C 0.70201 0.43825 0.50719 0.0
C648 C 0.7266 0.45111 0.54756 0.0
C649 C 0.74872 0.41725 0.50283 0.0
C650 C 0.78389 0.41264 0.52058 0.0
C651 C 0.80858 0.42551 0.56099 0.0
C652 C 0.79799 0.44324 0.58338 0.0
C653 C 0.77332 0.42958 0.54302 0.0
C654 C 0.75155 0.46518 0.58749 0.0
C655 C 0.71623 0.46891 0.56983 0.0
H656 H 0.04886 0.17223 0.19605 0.0
H657 H 0.92021 0.19563 0.15279 0.0
H658 H 0.91928 0.10834 0.14287 0.0
H659 H 0.95545 0.0253 0.14619 0.0
H660 H 0.08288 0.00201 0.19025 0.0
H661 H 0.08372 0.08928 0.20008 0.0
C662 C 0.02031 0.15839 0.18454 0.0
C663 C 0.98467 0.19095 0.17516 0.0
C664 C 0.01994 0.10803 0.17895 0.0
C665 C 0.94818 0.17185 0.16026 0.0
C666 C 0.94767 0.12178 0.15455 0.0
C667 C 0.98361 0.03923 0.15788 0.0
C668 C 0.01938 0.00682 0.16729 0.0
C669 C 0.98353 0.08955 0.16369 0.0
C670 C 0.05509 0.02582 0.18262 0.0
C671 C 0.05552 0.07583 0.1883 0.0
H672 H 0.30792 0.02691 0.68782 0.0
H673 H 0.28103 0.89308 0.64985 0.0
H674 H 0.36967 0.88657 0.64113 0.0
H675 H 0.45483 0.91892 0.64447 0.0
H676 H 0.48034 0.05372 0.68195 0.0
H677 H 0.392 0.05983 0.69054 0.0
C678 C 0.32129 0.99605 0.67773 0.0
C679 C 0.28773 0.96023 0.6697 0.0
C680 C 0.37208 0.99287 0.67259 0.0
C681 C 0.30595 0.92097 0.6564 0.0
C682 C 0.35665 0.91731 0.65137 0.0
C683 C 0.44111 0.94974 0.65448 0.0
C684 C 0.47441 0.98587 0.66252 0.0
C685 C 0.39007 0.95307 0.65938 0.0
C686 C 0.45574 0.02554 0.67541 0.0
C687 C 0.40517 0.02897 0.68042 0.0
H688 H 0.55929 0.46025 0.15306 0.0
H689 H 0.42814 0.48483 0.19426 0.0
H690 H 0.42644 0.39773 0.20464 0.0
H691 H 0.46144 0.31443 0.2017 0.0
H692 H 0.59282 0.28983 0.16064 0.0
H693 H 0.59515 0.37709 0.15065 0.0
C694 C 0.53018 0.44673 0.1643 0.0
C695 C 0.49364 0.47948 0.17273 0.0
C696 C 0.52958 0.39647 0.1703 0.0
C697 C 0.45657 0.46083 0.18738 0.0
C698 C 0.45566 0.4109 0.19337 0.0
C699 C 0.49093 0.32801 0.19069 0.0
C700 C 0.52698 0.29507 0.18196 0.0
C701 C 0.49193 0.37836 0.18493 0.0
C702 C 0.56458 0.31387 0.16764 0.0
C703 C 0.56587 0.36392 0.16188 0.0
H704 H 0.20538 0.47288 0.62714 0.0
H705 H 0.21198 0.52259 0.69796 0.0
H706 H 0.12081 0.51951 0.70027 0.0
H707 H 0.03884 0.49946 0.68203 0.0
H708 H 0.03557 0.45415 0.61038 0.0
H709 H 0.12575 0.45817 0.60859 0.0
C710 C 0.18696 0.48351 0.64308 0.0
C711 C 0.21546 0.49785 0.66238 0.0
C712 C 0.13502 0.48173 0.64417 0.0
C713 C 0.1909 0.51184 0.6828 0.0
C714 C 0.1388 0.5096 0.68415 0.0
C715 C 0.05808 0.49014 0.66613 0.0
C716 C 0.03053 0.47582 0.64641 0.0
C717 C 0.1104 0.4939 0.66501 0.0
C718 C 0.05584 0.46497 0.62579 0.0
C719 C 0.10743 0.46737 0.62473 0.0
H720 H 0.93486 0.44736 0.9046 0.0
H721 H 0.07573 0.47069 0.93857 0.0
H722 H 0.08758 0.38202 0.94179 0.0
H723 H 0.05665 0.29874 0.93645 0.0
H724 H 0.91597 0.27409 0.90269 0.0
H725 H 0.90557 0.36301 0.89755 0.0
C726 C 0.96817 0.43313 0.91276 0.0
C727 C 1.00417 0.46572 0.92158 0.0
C728 C 0.97475 0.3821 0.91451 0.0
C729 C 0.04739 0.44653 0.93174 0.0
C730 C 0.05416 0.39585 0.93359 0.0
C731 C 0.02359 0.31269 0.92794 0.0
C732 C 0.98671 0.27994 0.92023 0.0
C733 C 0.01786 0.36344 0.92526 0.0
C734 C 0.94475 0.29857 0.90881 0.0
C735 C 0.93876 0.34935 0.906 0.0
H736 H 0.03815 0.99429 0.42932 0.0
H737 H 0.04371 0.15244 0.42434 0.0
H738 H 0.13348 0.15022 0.42589 0.0
H739 H 0.21075 0.10479 0.42699 0.0
H740 H 0.20985 0.94689 0.4317 0.0
H741 H 0.11854 0.94773 0.43219 0.0
C742 C 0.05905 0.02821 0.42873 0.0
C743 C 0.03359 0.07352 0.42655 0.0
C744 C 0.11174 0.02683 0.42949 0.0
C745 C 0.06167 0.11699 0.42582 0.0
C746 C 0.11333 0.11586 0.42672 0.0
C747 C 0.19088 0.0703 0.42813 0.0
C748 C 0.21752 0.02576 0.42902 0.0
C749 C 0.13875 0.07113 0.42825 0.0
C750 C 0.19057 0.98175 0.4309 0.0
C751 C 0.13824 0.98227 0.43111 0.0
H752 H 0.45377 0.19541 0.89873 0.0
H753 H 0.57948 0.22865 0.94233 0.0
H754 H 0.58579 0.14212 0.95333 0.0
H755 H 0.55553 0.05663 0.95075 0.0
H756 H 0.43072 0.02341 0.90657 0.0
H757 H 0.42426 0.11001 0.89575 0.0
C758 C 0.48283 0.18389 0.91056 0.0
C759 C 0.51609 0.21912 0.91967 0.0
C760 C 0.48629 0.1338 0.91682 0.0
C761 C 0.55327 0.20288 0.93502 0.0
C762 C 0.55687 0.15319 0.94135 0.0
C763 C 0.52669 0.0682 0.93883 0.0
C764 C 0.49341 0.03303 0.92965 0.0
C765 C 0.52347 0.11829 0.93245 0.0
C766 C 0.45671 0.04923 0.91405 0.0
C767 C 0.45307 0.09892 0.90779 0.0
H768 H 0.47259 0.51323 0.39351 0.0
H769 H 0.45793 0.51995 0.46781 0.0
H770 H 0.36807 0.52784 0.46411 0.0
H771 H 0.293 0.53682 0.43974 0.0
H772 H 0.30817 0.53499 0.36532 0.0
H773 H 0.39723 0.52193 0.36909 0.0
C774 C 0.44963 0.51561 0.40886 0.0
C775 C 0.47225 0.51548 0.43093 0.0
C776 C 0.39759 0.52188 0.4066 0.0
C777 C 0.44171 0.51971 0.45061 0.0
C778 C 0.39013 0.52446 0.44852 0.0
C779 C 0.31568 0.53351 0.42434 0.0
C780 C 0.29321 0.53713 0.40228 0.0
C781 C 0.36755 0.52637 0.4266 0.0
C782 C 0.32385 0.53281 0.38258 0.0
C783 C 0.37511 0.52506 0.38469 0.0
H784 H 0.96026 0.7987 0.93882 0.0
H785 H 0.10552 0.77416 0.90972 0.0
H786 H 0.11495 0.86282 0.90354 0.0
H787 H 0.08277 0.94687 0.90784 0.0
H788 H 0.93696 0.97027 0.93669 0.0
H789 H 0.92685 0.88172 0.94158 0.0
C790 C 0.99417 0.81262 0.93117 0.0
C791 C 0.03255 0.78002 0.92502 0.0
C792 C 0.99914 0.8632 0.9277 0.0
C793 C 0.07563 0.79857 0.91466 0.0
C794 C 0.081 0.84918 0.91121 0.0
C795 C 0.04874 0.93268 0.91522 0.0
C796 C 0.01077 0.9652 0.92209 0.0
C797 C 0.04318 0.8818 0.91791 0.0
C798 C 0.96671 0.9461 0.9313 0.0
C799 C 0.96098 0.89551 0.93414 0.0
H800 H 0.69361 0.99259 0.38686 0.0
H801 H 0.73167 0.10005 0.43888 0.0
H802 H 0.64694 0.0976 0.4537 0.0
H803 H 0.5628 0.06274 0.45307 0.0
H804 H 0.52392 0.95603 0.4009 0.0
H805 H 0.60807 0.96026 0.38517 0.0
C806 C 0.68336 0.01602 0.40126 0.0
C807 C 0.71948 0.04664 0.41162 0.0
C808 C 0.63439 0.01407 0.40993 0.0
C809 C 0.70502 0.07642 0.43036 0.0
C810 C 0.65648 0.07476 0.43899 0.0
C811 C 0.57261 0.04014 0.43831 0.0
C812 C 0.53682 0.00853 0.42844 0.0
C813 C 0.62103 0.04323 0.42915 0.0
C814 C 0.55049 0.98029 0.40906 0.0
C815 C 0.59871 0.98285 0.39999 0.0
H816 H 0.53195 0.53901 0.90297 0.0
H817 H 0.4595 0.54917 0.96944 0.0
H818 H 0.44873 0.63717 0.96435 0.0
H819 H 0.46002 0.71262 0.94125 0.0
H820 H 0.53445 0.70338 0.87528 0.0
H821 H 0.54314 0.61489 0.8798 0.0
C822 C 0.51402 0.56046 0.91638 0.0
C823 C 0.49681 0.53681 0.9366 0.0
C824 C 0.50767 0.61181 0.91337 0.0
C825 C 0.47329 0.56574 0.95365 0.0
C826 C 0.46691 0.61643 0.95076 0.0
C827 C 0.47793 0.69144 0.9278 0.0
C828 C 0.49662 0.71545 0.90799 0.0
C829 C 0.48383 0.64005 0.93069 0.0
C830 C 0.51969 0.68651 0.89081 0.0
C831 C 0.5249 0.63558 0.89338 0.0
H832 H 0.80002 0.44753 0.42772 0.0
H833 H 0.79707 0.59792 0.40419 0.0
H834 H 0.88663 0.60297 0.40764 0.0
H835 H 0.96785 0.56366 0.41485 0.0
H836 H 0.972 0.41239 0.4365 0.0
H837 H 0.88149 0.40917 0.43662 0.0
C838 C 0.81894 0.48143 0.42347 0.0
C839 C 0.79124 0.52195 0.41542 0.0
C840 C 0.87139 0.48419 0.42522 0.0
C841 C 0.81691 0.56565 0.41011 0.0
C842 C 0.8685 0.56882 0.41216 0.0
C843 C 0.94889 0.53039 0.42008 0.0
C844 C 0.97692 0.48849 0.42582 0.0
C845 C 0.8964 0.52822 0.4194 0.0
C846 C 0.95149 0.44531 0.43205 0.0
C847 C 0.89955 0.44331 0.43202 0.0
H848 H 0.95693 0.6709 0.19708 0.0
H849 H 0.09076 0.69661 0.15801 0.0
H850 H 0.09274 0.61021 0.14661 0.0
H851 H 0.05611 0.52726 0.14739 0.0
H852 H 0.92341 0.50132 0.18724 0.0
H853 H 0.92148 0.58776 0.19861 0.0
C854 C 0.98683 0.65772 0.18619 0.0
C855 C 0.02362 0.69074 0.17839 0.0
C856 C 0.98781 0.60778 0.17972 0.0
C857 C 0.06185 0.67249 0.16425 0.0
C858 C 0.06297 0.62292 0.15769 0.0
C859 C 0.02656 0.54042 0.15849 0.0
C860 C 0.98965 0.5075 0.16625 0.0
C861 C 0.026 0.59025 0.16521 0.0
C862 C 0.95213 0.52553 0.18086 0.0
C863 C 0.95108 0.57507 0.18743 0.0
H864 H 0.81106 0.96405 0.69716 0.0
H865 H 0.78077 0.0795 0.64782 0.0
H866 H 0.86719 0.07709 0.63499 0.0
H867 H 0.95094 0.04037 0.6371 0.0
H868 H 0.97967 0.92453 0.68651 0.0
H869 H 0.89408 0.92882 0.69982 0.0
C870 C 0.82324 0.98915 0.68374 0.0
C871 C 0.78917 0.02197 0.6735 0.0
C872 C 0.87271 0.98711 0.67627 0.0
C873 C 0.80597 0.0539 0.65605 0.0
C874 C 0.85543 0.05239 0.64864 0.0
C875 C 0.93847 0.0159 0.65072 0.0
C876 C 0.97184 0.98188 0.66064 0.0
C877 C 0.88901 0.01873 0.65845 0.0
C878 C 0.95494 0.95083 0.67842 0.0
C879 C 0.90595 0.95337 0.68613 0.0
H880 H 0.54042 0.81592 0.19824 0.0
H881 H 0.41738 0.79096 0.1518 0.0
H882 H 0.41965 0.87729 0.13998 0.0
H883 H 0.45659 0.96021 0.14288 0.0
H884 H 0.57904 0.98445 0.18978 0.0
H885 H 0.57701 0.89811 0.20119 0.0
C886 C 0.51377 0.82919 0.18561 0.0
C887 C 0.47861 0.7965 0.17601 0.0
C888 C 0.51539 0.87892 0.17884 0.0
C889 C 0.44481 0.81487 0.15955 0.0
C890 C 0.44616 0.86438 0.15274 0.0
C891 C 0.48309 0.94666 0.15551 0.0
C892 C 0.51817 0.97921 0.16534 0.0
C893 C 0.48139 0.89677 0.16223 0.0
C894 C 0.55179 0.96062 0.18182 0.0
C895 C 0.55055 0.91112 0.18842 0.0
H896 H 0.5614 0.47121 0.71127 0.0
H897 H 0.52333 0.49508 0.63953 0.0
H898 H 0.60877 0.47606 0.62814 0.0
H899 H 0.69342 0.44755 0.63857 0.0
H900 H 0.73285 0.43137 0.71059 0.0
H901 H 0.64777 0.45199 0.72196 0.0
C902 C 0.57195 0.4729 0.69315 0.0
C903 C 0.53578 0.48406 0.67624 0.0
C904 C 0.62126 0.4625 0.68681 0.0
C905 C 0.55024 0.48664 0.65289 0.0
C906 C 0.59908 0.47537 0.64637 0.0
C907 C 0.68321 0.44848 0.65674 0.0
C908 C 0.71896 0.43684 0.67375 0.0
C909 C 0.63465 0.46223 0.66314 0.0
C910 C 0.70577 0.43952 0.69723 0.0
C911 C 0.6572 0.45145 0.7037 0.0
H912 H 0.09169 0.52189 0.30887 0.0
H913 H 0.05032 0.409 0.35759 0.0
H914 H 0.0118 0.36208 0.32638 0.0
H915 H 0.9888 0.35374 0.28549 0.0
H916 H 0.02943 0.4682 0.23705 0.0
H917 H 0.06797 0.51388 0.26807 0.0
C918 C 0.07399 0.4872 0.31275 0.0
C919 C 0.07413 0.46921 0.33566 0.0
C920 C 0.05123 0.46066 0.29477 0.0
C921 C 0.05163 0.42362 0.34016 0.0
C922 C 0.02911 0.3969 0.32231 0.0
C923 C 0.00572 0.38865 0.28147 0.0
C924 C 0.00545 0.40677 0.25849 0.0
C925 C 0.02849 0.41517 0.29953 0.0
C926 C 0.02821 0.4525 0.25422 0.0
C927 C 0.05071 0.47899 0.27208 0.0
H928 H 0.14064 0.99483 0.77573 0.0
H929 H 1.00416 0.99 0.73666 0.0
H930 H 0.96006 0.02794 0.76894 0.0
H931 H 0.96007 0.06264 0.80845 0.0
H932 H 0.09685 0.06714 0.84729 0.0
H933 H 0.14051 0.02836 0.81519 0.0
C934 C 0.10113 0.0014 0.77432 0.0
C935 C 0.07601 0.98941 0.75364 0.0
C936 C 0.07587 0.02319 0.79302 0.0
C937 C 0.02484 0.99924 0.75214 0.0
C938 C 0.99943 0.02081 0.77069 0.0
C939 C 0.99948 0.05548 0.80985 0.0
C940 C 0.02493 0.06781 0.83042 0.0
C941 C 0.0246 0.0332 0.79119 0.0
C942 C 0.07598 0.05752 0.83192 0.0
C943 C 0.10114 0.03553 0.81346 0.0
H944 H 0.36405 0.06952 0.32083 0.0
H945 H 0.49778 0.037 0.35925 0.0
H946 H 0.54766 0.06278 0.32637 0.0
H947 H 0.5537 0.09164 0.28627 0.0
H948 H 0.41974 0.11804 0.24689 0.0
H949 H 0.37014 0.09805 0.28065 0.0
C950 C 0.40406 0.06753 0.32206 0.0
C951 C 0.42667 0.05091 0.3427 0.0
C952 C 0.4328 0.08156 0.30284 0.0
C953 C 0.47883 0.04992 0.34388 0.0
C954 C 0.50761 0.06446 0.32494 0.0
C955 C 0.51372 0.0928 0.28484 0.0
C956 C 0.49109 0.10625 0.26366 0.0
C957 C 0.485 0.0799 0.30425 0.0
C958 C 0.4389 0.10842 0.26272 0.0
C959 C 0.41019 0.09653 0.28209 0.0
H960 H 0.42916 0.45853 0.84691 0.0
H961 H 0.55801 0.39683 0.81328 0.0
H962 H 0.53001 0.42792 0.77625 0.0
H963 H 0.46833 0.47065 0.75263 0.0
H964 H 0.34263 0.53896 0.78517 0.0
H965 H 0.37006 0.50814 0.82323 0.0
C966 C 0.45138 0.45238 0.83155 0.0
C967 C 0.4951 0.42396 0.83309 0.0
C968 C 0.43551 0.47149 0.80996 0.0
C969 C 0.5234 0.41684 0.81283 0.0
C970 C 0.50763 0.43502 0.79148 0.0
C971 C 0.44691 0.47853 0.76809 0.0
C972 C 0.4032 0.50622 0.76616 0.0
C973 C 0.46347 0.46167 0.78976 0.0
C974 C 0.37631 0.51743 0.78632 0.0
C975 C 0.392 0.49977 0.80802 0.0
H976 H 0.03449 0.61936 0.80766 0.0
H977 H 0.99193 0.50209 0.85375 0.0
H978 H 0.95396 0.45801 0.82162 0.0
H979 H 0.93052 0.45352 0.78086 0.0
H980 H 0.96983 0.5711 0.73431 0.0
H981 H 0.01251 0.61347 0.76592 0.0
C982 C 0.0173 0.58397 0.81055 0.0
C983 C 0.01556 0.56439 0.83316 0.0
C984 C 0.99506 0.55873 0.7919 0.0
C985 C 0.99294 0.51851 0.83666 0.0
C986 C 0.97143 0.49309 0.81825 0.0
C987 C 0.94805 0.48856 0.77756 0.0
C988 C 0.94638 0.50912 0.75518 0.0
C989 C 0.97168 0.51311 0.79588 0.0
C990 C 0.97065 0.55407 0.75126 0.0
C991 C 0.99483 0.57856 0.76941 0.0
H992 H 0.99517 0.85106 0.28579 0.0
H993 H 0.01586 0.98064 0.2438 0.0
H994 H 0.98255 0.03144 0.27484 0.0
H995 H 0.94654 0.03934 0.31382 0.0
H996 H 0.9265 0.91006 0.35595 0.0
H997 H 0.96176 0.85924 0.32521 0.0
C998 C 0.99314 0.89045 0.28346 0.0
C999 C 0.008 0.91162 0.26224 0.0
C1000 C 0.97411 0.91969 0.30151 0.0
C1001 C 1.00415 0.96288 0.25964 0.0
C1002 C 0.98528 0.99215 0.2775 0.0
C1003 C 0.94958 3e-05 0.31626 0.0
C1004 C 0.9336 0.97866 0.33723 0.0
C1005 C 0.96975 0.97094 0.29844 0.0
C1006 C 0.93884 0.92766 0.34016 0.0
C1007 C 0.95877 0.8985 0.3225 0.0
H1008 H 0.45628 0.91746 0.80925 0.0
H1009 H 0.58915 0.92834 0.85081 0.0
H1010 H 0.63359 0.96293 0.81802 0.0
H1011 H 0.63459 0.99267 0.77783 0.0
H1012 H 0.50146 0.98455 0.7365 0.0
H1013 H 0.45737 0.94696 0.76891 0.0
C1014 C 0.49489 0.9275 0.81123 0.0
C1015 C 0.51899 0.92005 0.83268 0.0
C1016 C 0.52026 0.94835 0.79232 0.0
C1017 C 0.56945 0.9327 0.8346 0.0
C1018 C 0.59495 0.95307 0.81584 0.0
C1019 C 0.59579 0.9832 0.77597 0.0
C1020 C 0.57143 0.99177 0.75472 0.0
C1021 C 0.57063 0.96156 0.79471 0.0
C1022 C 0.52135 0.97814 0.75252 0.0
C1023 C 0.49603 0.95674 0.77111 0.0
H1024 H 0.51101 0.53771 0.2535 0.0
H1025 H 0.46032 0.67073 0.28676 0.0
H1026 H 0.49516 0.64336 0.32328 0.0
H1027 H 0.54595 0.58471 0.34558 0.0
H1028 H 0.59977 0.45383 0.31205 0.0
H1029 H 0.55844 0.47761 0.27608 0.0
C1030 C 0.50741 0.56096 0.2686 0.0
C1031 C 0.48276 0.60653 0.26691 0.0
C1032 C 0.52865 0.54552 0.28972 0.0
C1033 C 0.4783 0.63529 0.28715 0.0
C1034 C 0.49867 0.61983 0.30822 0.0
C1035 C 0.54792 0.56111 0.33049 0.0
C1036 C 0.5763 0.51783 0.33148 0.0
C1037 C 0.5246 0.57539 0.30967 0.0
C1038 C 0.57887 0.48777 0.31168 0.0
C1039 C 0.55511 0.50128 0.29109 0.0
H1040 H 0.35235 0.25425 0.17505 0.0
H1041 H 0.28818 0.11064 0.16586 0.0
H1042 H 0.20483 0.14705 0.16598 0.0
H1043 H 0.15194 0.22044 0.16534 0.0
H1044 H 0.21818 0.36425 0.17079 0.0
H1045 H 0.2999 0.32682 0.1754 0.0
C1046 C 0.32006 0.23092 0.17297 0.0
C1047 C 0.32599 0.18013 0.16986 0.0
C1048 C 0.27315 0.25215 0.17217 0.0
C1049 C 0.28417 0.14991 0.16809 0.0
C1050 C 0.23679 0.17074 0.16798 0.0
C1051 C 0.18437 0.2436 0.16725 0.0
C1052 C 0.17935 0.29502 0.1673 0.0
C1053 C 0.23111 0.22194 0.16934 0.0
C1054 C 0.22126 0.32461 0.17065 0.0
C1055 C 0.26787 0.30328 0.17322 0.0
H1056 H 0.293 0.28481 0.70389 0.0
H1057 H 0.33062 0.30639 0.63187 0.0
H1058 H 0.27844 0.23725 0.62096 0.0
H1059 H 0.21874 0.17373 0.63162 0.0
H1060 H 0.18097 0.15235 0.70366 0.0
H1061 H 0.23401 0.22077 0.71459 0.0
C1062 C 0.28984 0.27433 0.68582 0.0
C1063 C 0.31568 0.30067 0.66876 0.0
C1064 C 0.25847 0.23574 0.67956 0.0
C1065 C 0.31188 0.28616 0.64543 0.0
C1066 C 0.28139 0.24716 0.63911 0.0
C1067 C 0.22215 0.18399 0.64972 0.0
C1068 C 0.19573 0.15812 0.66674 0.0
C1069 C 0.2539 0.22228 0.65599 0.0
C1070 C 0.2 0.17232 0.6901 0.0
C1071 C 0.23098 0.21091 0.69644 0.0
H1072 H 0.15284 0.26885 0.91548 0.0
H1073 H 0.20239 0.16812 0.96894 0.0
H1074 H 0.26573 0.22613 0.98042 0.0
H1075 H 0.31353 0.29934 0.97222 0.0
H1076 H 0.28178 0.38223 0.90983 0.0
H1077 H 0.20361 0.3395 0.90592 0.0
C1078 C 0.17818 0.25819 0.92917 0.0
C1079 C 0.17294 0.21282 0.94074 0.0
C1080 C 0.21756 0.28949 0.9344 0.0
C1081 C 0.20466 0.20237 0.95954 0.0
C1082 C 0.24137 0.23555 0.96612 0.0
C1083 C 0.29074 0.30743 0.95723 0.0
C1084 C 0.30596 0.34234 0.94065 0.0
C1085 C 0.24919 0.27825 0.95311 0.0
C1086 C 0.27249 0.35527 0.92286 0.0
C1087 C 0.2278 0.33009 0.92028 0.0
H1088 H 0.28297 0.36216 0.44733 0.0
H1089 H 0.14365 0.28683 0.45573 0.0
H1090 H 0.18779 0.21081 0.46526 0.0
H1091 H 0.26486 0.16467 0.46561 0.0
H1092 H 0.40483 0.23874 0.45604 0.0
H1093 H 0.36124 0.31729 0.45244 0.0
C1094 C 0.26247 0.32908 0.4515 0.0
C1095 C 0.21045 0.32928 0.45048 0.0
C1096 C 0.28802 0.28577 0.45656 0.0
C1097 C 0.1838 0.28699 0.45635 0.0
C1098 C 0.20898 0.24373 0.46168 0.0
C1099 C 0.28621 0.19811 0.4636 0.0
C1100 C 0.33806 0.19599 0.4611 0.0
C1101 C 0.26099 0.2425 0.46113 0.0
C1102 C 0.36487 0.23955 0.45784 0.0
C1103 C 0.34 0.28429 0.45576 0.0
H1104 H 0.82218 0.73093 0.89151 0.0
H1105 H 0.84706 0.71709 0.96531 0.0
H1106 H 0.78085 0.77564 0.97272 0.0
H1107 H 0.71272 0.82695 0.95833 0.0
H1108 H 0.68998 0.84284 0.88471 0.0
H1109 H 0.76158 0.79027 0.87712 0.0
C1110 C 0.81396 0.74122 0.90924 0.0
C1111 C 0.83924 0.7187 0.92779 0.0
C1112 C 0.77719 0.77637 0.91341 0.0
C1113 C 0.8272 0.73229 0.95064 0.0
C1114 C 0.78991 0.76653 0.95494 0.0
C1115 C 0.72446 0.8199 0.94066 0.0
C1116 C 0.69631 0.83833 0.92211 0.0
C1117 C 0.76439 0.78837 0.93646 0.0
C1118 C 0.71158 0.82937 0.89925 0.0
C1119 C 0.75187 0.79861 0.89491 0.0
H1120 H 0.72064 0.69456 0.40771 0.0
H1121 H 0.64498 0.72152 0.47215 0.0
H1122 H 0.69495 0.79542 0.4785 0.0
H1123 H 0.76208 0.84968 0.46633 0.0
H1124 H 0.83731 0.82347 0.40149 0.0
H1125 H 0.78744 0.74989 0.39523 0.0
C1126 C 0.71437 0.71762 0.42277 0.0
C1127 C 0.67859 0.70413 0.43915 0.0
C1128 C 0.7443 0.7587 0.42661 0.0
C1129 C 0.67162 0.73254 0.45911 0.0
C1130 C 0.7006 0.77411 0.46287 0.0
C1131 C 0.76748 0.82798 0.45078 0.0
C1132 C 0.80313 0.84215 0.43434 0.0
C1133 C 0.73749 0.78703 0.44688 0.0
C1134 C 0.81059 0.81297 0.41458 0.0
C1135 C 0.78153 0.77141 0.41079 0.0
H1136 H 0.85296 0.72856 0.17069 0.0
H1137 H 0.78948 0.87374 0.16625 0.0
H1138 H 0.70601 0.83877 0.16884 0.0
H1139 H 0.65204 0.76679 0.17034 0.0
H1140 H 0.71568 0.62147 0.17308 0.0
H1141 H 0.7991 0.65681 0.1734 0.0
C1142 C 0.82075 0.75246 0.17008 0.0
C1143 C 0.82684 0.80341 0.16781 0.0
C1144 C 0.77345 0.73216 0.17132 0.0
C1145 C 0.78527 0.83435 0.16784 0.0
C1146 C 0.7378 0.8144 0.16925 0.0
C1147 C 0.68427 0.74291 0.17087 0.0
C1148 C 0.6782 0.69173 0.17128 0.0
C1149 C 0.7316 0.76336 0.17065 0.0
C1150 C 0.71982 0.661 0.1727 0.0
C1151 C 0.76729 0.68114 0.17275 0.0
H1152 H 0.74916 0.81873 0.63243 0.0
H1153 H 0.71774 0.82306 0.70588 0.0
H1154 H 0.77052 0.75158 0.71196 0.0
H1155 H 0.82048 0.68438 0.69589 0.0
H1156 H 0.8532 0.68147 0.62289 0.0
H1157 H 0.80756 0.7584 0.6173 0.0
C1158 C 0.75453 0.80487 0.64988 0.0
C1159 C 0.72883 0.82597 0.66859 0.0
C1160 C 0.78613 0.76486 0.65339 0.0
C1161 C 0.73575 0.80669 0.691 0.0
C1162 C 0.76657 0.7663 0.69459 0.0
C1163 C 0.81907 0.7019 0.67899 0.0
C1164 C 0.84037 0.67847 0.65985 0.0
C1165 C 0.79142 0.74481 0.67587 0.0
C1166 C 0.83769 0.70001 0.63783 0.0
C1167 C 0.81097 0.7433 0.63463 0.0
loop_
_geom_bond_atom_site_label_1
_geom_bond_atom_site_label_2
_geom_bond_distance
_geom_bond_site_symmetry_2
_ccdc_geom_bond_type
C0 C1 1.351 . S
C0 N3 1.368 . S
C0 H5 0.931 . S
C1 C0 1.351 . S
C1 N2 1.368 1_455 S
C1 H29 0.930 . S
N2 C1 1.368 1_655 S
N2 C4 1.342 . S
N3 C0 1.368 . S
N3 C4 1.321 1_455 S
N3 Co6 2.135 . S
C4 N2 1.342 . S
C4 N3 1.321 1_655 S
C4 H28 0.930 . S
H5 C0 0.931 . S
Co6 N3 2.135 . S
Co6 N9 2.121 . S
Co6 O14 2.055 1_455 S
Co6 O17 2.039 1_455 S
Co6 N20 2.140 . S
C7 O8 1.227 1_655 S
C7 O17 1.265 . S
O8 C7 1.227 1_455 S
N9 Co6 2.121 . S
N9 C11 1.375 . S
N9 C12 1.313 . S
C10 C11 1.338 . S
C10 N13 1.377 . S
C10 H30 0.930 . S
C11 N9 1.375 . S
C11 C10 1.338 . S
C11 H15 0.931 . S
C12 N9 1.313 . S
C12 N13 1.344 . S
C12 H16 0.930 . S
N13 C10 1.377 . S
N13 C12 1.344 . S
O14 Co6 2.055 1_655 S
O14 C18 1.253 . S
H15 C11 0.931 . S
H16 C12 0.930 . S
O17 Co6 2.039 1_655 S
O17 C7 1.265 . S
C18 O14 1.253 . S
C18 O19 1.227 1_655 S
O19 C18 1.227 1_455 S
N20 Co6 2.140 . S
N20 C23 1.346 . S
N20 C24 1.345 . S
C21 C22 1.387 . S
C21 C25 1.391 . S
C22 C21 1.387 . S
C22 C23 1.369 . S
C22 H31 0.929 . S
C23 N20 1.346 . S
C23 C22 1.369 . S
C23 H26 0.928 . S
C24 N20 1.345 . S
C24 C25 1.371 . S
C24 H27 0.931 . S
C25 C21 1.391 . S
C25 C24 1.371 . S
C25 H32 0.930 . S
H26 C23 0.928 . S
H27 C24 0.931 . S
H28 C4 0.930 . S
H29 C1 0.930 . S
H30 C10 0.930 . S
H31 C22 0.929 . S
H32 C25 0.930 . S
C33 C34 1.351 . S
C33 N36 1.368 . S
C33 H38 0.931 . S
C34 C33 1.351 . S
C34 N35 1.368 1_545 S
C34 H62 0.930 . S
N35 C34 1.368 1_565 S
N35 C37 1.343 . S
N36 C33 1.368 . S
N36 C37 1.321 1_545 S
N36 Co39 2.135 . S
C37 N35 1.343 . S
C37 N36 1.321 1_565 S
C37 H61 0.930 . S
H38 C33 0.931 . S
Co39 N36 2.135 . S
Co39 N42 2.121 . S
Co39 O47 2.055 1_545 S
Co39 O50 2.039 1_545 S
Co39 N53 2.140 . S
C40 O41 1.227 1_565 S
C40 O50 1.265 . S
O41 C40 1.227 1_545 S
N42 Co39 2.121 . S
N42 C44 1.375 . S
N42 C45 1.313 . S
C43 C44 1.338 . S
C43 N46 1.377 . S
C43 H63 0.930 . S
C44 N42 1.375 . S
C44 C43 1.338 . S
C44 H48 0.931 . S
C45 N42 1.313 . S
C45 N46 1.344 . S
C45 H49 0.930 . S
N46 C43 1.377 . S
N46 C45 1.344 . S
O47 Co39 2.055 1_565 S
O47 C51 1.253 . S
H48 C44 0.931 . S
H49 C45 0.930 . S
O50 Co39 2.039 1_565 S
O50 C40 1.265 . S
C51 O47 1.253 . S
C51 O52 1.227 1_565 S
O52 C51 1.227 1_545 S
N53 Co39 2.140 . S
N53 C56 1.346 . S
N53 C57 1.345 . S
C54 C55 1.387 . S
C54 C58 1.391 . S
C55 C54 1.387 . S
C55 C56 1.369 . S
C55 H64 0.929 . S
C56 N53 1.346 . S
C56 C55 1.369 . S
C56 H59 0.928 . S
C57 N53 1.345 . S
C57 C58 1.371 . S
C57 H60 0.931 . S
C58 C54 1.391 . S
C58 C57 1.371 . S
C58 H65 0.930 . S
H59 C56 0.928 . S
H60 C57 0.931 . S
H61 C37 0.930 . S
H62 C34 0.930 . S
H63 C43 0.930 . S
H64 C55 0.929 . S
H65 C58 0.930 . S
C66 C67 1.351 . S
C66 N69 1.368 . S
C66 H71 0.931 . S
C67 C66 1.351 . S
C67 N68 1.373 . S
C67 H95 0.930 . S
N68 C67 1.373 . S
N68 C70 1.340 . S
N69 C66 1.368 . S
N69 C70 1.321 . S
N69 Co72 2.135 . S
C70 N68 1.340 . S
C70 N69 1.321 . S
C70 H94 0.930 . S
H71 C66 0.931 . S
Co72 N69 2.135 . S
Co72 N75 2.121 . S
Co72 O80 2.055 . S
Co72 O83 2.039 . S
Co72 N86 2.140 . S
C73 O74 1.227 . S
C73 O83 1.265 . S
O74 C73 1.227 . S
N75 Co72 2.121 . S
N75 C77 1.375 . S
N75 C78 1.313 . S
C76 C77 1.338 . S
C76 N79 1.377 . S
C76 H96 0.930 . S
C77 N75 1.375 . S
C77 C76 1.338 . S
C77 H81 0.931 . S
C78 N75 1.313 . S
C78 N79 1.344 . S
C78 H82 0.930 . S
N79 C76 1.377 . S
N79 C78 1.344 . S
O80 Co72 2.055 . S
O80 C84 1.253 . S
H81 C77 0.931 . S
H82 C78 0.930 . S
O83 Co72 2.039 . S
O83 C73 1.265 . S
C84 O80 1.253 . S
C84 O85 1.227 . S
O85 C84 1.227 . S
N86 Co72 2.140 . S
N86 C89 1.346 . S
N86 C90 1.345 . S
C87 C88 1.387 . S
C87 C91 1.391 . S
C88 C87 1.387 . S
C88 C89 1.369 . S
C88 H97 0.929 . S
C89 N86 1.346 . S
C89 C88 1.369 . S
C89 H92 0.928 . S
C90 N86 1.345 . S
C90 C91 1.371 . S
C90 H93 0.931 . S
C91 C87 1.391 . S
C91 C90 1.371 . S
C91 H98 0.930 . S
H92 C89 0.928 . S
H93 C90 0.931 . S
H94 C70 0.930 . S
H95 C67 0.930 . S
H96 C76 0.930 . S
H97 C88 0.929 . S
H98 C91 0.930 . S
C99 C100 1.351 . S
C99 N102 1.368 . S
C99 H104 0.931 . S
C100 C99 1.351 . S
C100 N101 1.373 . S
C100 H128 0.930 . S
N101 C100 1.373 . S
N101 C103 1.340 . S
N102 C99 1.368 . S
N102 C103 1.321 . S
N102 Co105 2.135 . S
C103 N101 1.340 . S
C103 N102 1.321 . S
C103 H127 0.930 . S
H104 C99 0.931 . S
Co105 N102 2.135 . S
Co105 N108 2.121 . S
Co105 O113 2.055 . S
Co105 O116 2.039 . S
Co105 N119 2.140 . S
C106 O107 1.227 . S
C106 O116 1.265 . S
O107 C106 1.227 . S
N108 Co105 2.121 . S
N108 C110 1.375 . S
N108 C111 1.313 . S
C109 C110 1.338 . S
C109 N112 1.377 . S
C109 H129 0.930 . S
C110 N108 1.375 . S
C110 C109 1.338 . S
C110 H114 0.931 . S
C111 N108 1.313 . S
C111 N112 1.344 . S
C111 H115 0.930 . S
N112 C109 1.377 . S
N112 C111 1.344 . S
O113 Co105 2.055 . S
O113 C117 1.253 . S
H114 C110 0.931 . S
H115 C111 0.930 . S
O116 Co105 2.039 . S
O116 C106 1.265 . S
C117 O113 1.253 . S
C117 O118 1.227 . S
O118 C117 1.227 . S
N119 Co105 2.140 . S
N119 C122 1.346 . S
N119 C123 1.345 . S
C120 C121 1.387 . S
C120 C124 1.391 . S
C121 C120 1.387 . S
C121 C122 1.369 . S
C121 H130 0.929 . S
C122 N119 1.346 . S
C122 C121 1.369 . S
C122 H125 0.928 . S
C123 N119 1.345 . S
C123 C124 1.371 . S
C123 H126 0.931 . S
C124 C120 1.391 . S
C124 C123 1.371 . S
C124 H131 0.930 . S
H125 C122 0.928 . S
H126 C123 0.931 . S
H127 C103 0.930 . S
H128 C100 0.930 . S
H129 C109 0.930 . S
H130 C121 0.929 . S
H131 C124 0.930 . S
C132 C133 1.351 . S
C132 N135 1.368 . S
C132 H137 0.931 . S
C133 C132 1.351 . S
C133 N134 1.368 1_455 S
C133 H161 0.930 . S
N134 C133 1.368 1_655 S
N134 C136 1.343 . S
N135 C132 1.368 . S
N135 C136 1.321 1_455 S
N135 Co138 2.135 . S
C136 N134 1.343 . S
C136 N135 1.321 1_655 S
C136 H160 0.930 . S
H137 C132 0.931 . S
Co138 N135 2.135 . S
Co138 N141 2.121 . S
Co138 O146 2.055 1_455 S
Co138 O149 2.039 1_455 S
Co138 N152 2.140 . S
C139 O140 1.227 1_655 S
C139 O149 1.265 . S
O140 C139 1.227 1_455 S
N141 Co138 2.121 . S
N141 C143 1.375 . S
N141 C144 1.313 . S
C142 C143 1.338 . S
C142 N145 1.377 . S
C142 H162 0.930 . S
C143 N141 1.375 . S
C143 C142 1.338 . S
C143 H147 0.931 . S
C144 N141 1.313 . S
C144 N145 1.344 . S
C144 H148 0.930 . S
N145 C142 1.377 . S
N145 C144 1.344 . S
O146 Co138 2.055 1_655 S
O146 C150 1.253 . S
H147 C143 0.931 . S
H148 C144 0.930 . S
O149 Co138 2.039 1_655 S
O149 C139 1.265 . S
C150 O146 1.253 . S
C150 O151 1.227 1_655 S
O151 C150 1.227 1_455 S
N152 Co138 2.140 . S
N152 C155 1.346 . S
N152 C156 1.345 . S
C153 C154 1.387 . S
C153 C157 1.391 . S
C154 C153 1.387 . S
C154 C155 1.369 . S
C154 H163 0.929 . S
C155 N152 1.346 . S
C155 C154 1.369 . S
C155 H158 0.928 . S
C156 N152 1.345 . S
C156 C157 1.371 . S
C156 H159 0.931 . S
C157 C153 1.391 . S
C157 C156 1.371 . S
C157 H164 0.930 . S
H158 C155 0.928 . S
H159 C156 0.931 . S
H160 C136 0.930 . S
H161 C133 0.930 . S
H162 C142 0.930 . S
H163 C154 0.929 . S
H164 C157 0.930 . S
C165 C166 1.351 . S
C165 N168 1.368 . S
C165 H170 0.931 . S
C166 C165 1.351 . S
C166 N167 1.368 1_545 S
C166 H194 0.930 . S
N167 C166 1.368 1_565 S
N167 C169 1.342 . S
N168 C165 1.368 . S
N168 C169 1.321 1_545 S
N168 Co171 2.135 . S
C169 N167 1.342 . S
C169 N168 1.321 1_565 S
C169 H193 0.930 . S
H170 C165 0.931 . S
Co171 N168 2.135 . S
Co171 N174 2.121 . S
Co171 O179 2.055 1_545 S
Co171 O182 2.039 1_545 S
Co171 N185 2.140 . S
C172 O173 1.227 1_565 S
C172 O182 1.265 . S
O173 C172 1.227 1_545 S
N174 Co171 2.121 . S
N174 C176 1.375 . S
N174 C177 1.313 . S
C175 C176 1.338 . S
C175 N178 1.377 . S
C175 H195 0.930 . S
C176 N174 1.375 . S
C176 C175 1.338 . S
C176 H180 0.931 . S
C177 N174 1.313 . S
C177 N178 1.344 . S
C177 H181 0.930 . S
N178 C175 1.377 . S
N178 C177 1.344 . S
O179 Co171 2.055 1_565 S
O179 C183 1.253 . S
H180 C176 0.931 . S
H181 C177 0.930 . S
O182 Co171 2.039 1_565 S
O182 C172 1.265 . S
C183 O179 1.253 . S
C183 O184 1.227 1_565 S
O184 C183 1.227 1_545 S
N185 Co171 2.140 . S
N185 C188 1.346 . S
N185 C189 1.345 . S
C186 C187 1.387 . S
C186 C190 1.391 . S
C187 C186 1.387 . S
C187 C188 1.369 . S
C187 H196 0.929 . S
C188 N185 1.346 . S
C188 C187 1.369 . S
C188 H191 0.928 . S
C189 N185 1.345 . S
C189 C190 1.371 . S
C189 H192 0.931 . S
C190 C186 1.391 . S
C190 C189 1.371 . S
C190 H197 0.930 . S
H191 C188 0.928 . S
H192 C189 0.931 . S
H193 C169 0.930 . S
H194 C166 0.930 . S
H195 C175 0.930 . S
H196 C187 0.929 . S
H197 C190 0.930 . S
C198 C199 1.351 . S
C198 N201 1.368 . S
C198 H203 0.931 . S
C199 C198 1.351 . S
C199 N200 1.373 . S
C199 H227 0.930 . S
N200 C199 1.373 . S
N200 C202 1.340 . S
N201 C198 1.368 . S
N201 C202 1.321 . S
N201 Co204 2.135 . S
C202 N200 1.340 . S
C202 N201 1.321 . S
C202 H226 0.930 . S
H203 C198 0.931 . S
Co204 N201 2.135 . S
Co204 N207 2.121 . S
Co204 O212 2.055 . S
Co204 O215 2.039 . S
Co204 N218 2.140 . S
C205 O206 1.227 . S
C205 O215 1.265 . S
O206 C205 1.227 . S
N207 Co204 2.121 . S
N207 C209 1.375 . S
N207 C210 1.313 . S
C208 C209 1.338 . S
C208 N211 1.377 . S
C208 H228 0.930 . S
C209 N207 1.375 . S
C209 C208 1.338 . S
C209 H213 0.931 . S
C210 N207 1.313 . S
C210 N211 1.344 . S
C210 H214 0.930 . S
N211 C208 1.377 . S
N211 C210 1.344 . S
O212 Co204 2.055 . S
O212 C216 1.253 . S
H213 C209 0.931 . S
H214 C210 0.930 . S
O215 Co204 2.039 . S
O215 C205 1.265 . S
C216 O212 1.253 . S
C216 O217 1.227 . S
O217 C216 1.227 . S
N218 Co204 2.140 . S
N218 C221 1.346 . S
N218 C222 1.345 . S
C219 C220 1.387 . S
C219 C223 1.391 . S
C220 C219 1.387 . S
C220 C221 1.369 . S
C220 H229 0.929 . S
C221 N218 1.346 . S
C221 C220 1.369 . S
C221 H224 0.928 . S
C222 N218 1.345 . S
C222 C223 1.371 . S
C222 H225 0.931 . S
C223 C219 1.391 . S
C223 C222 1.371 . S
C223 H230 0.930 . S
H224 C221 0.928 . S
H225 C222 0.931 . S
H226 C202 0.930 . S
H227 C199 0.930 . S
H228 C208 0.930 . S
H229 C220 0.929 . S
H230 C223 0.930 . S
C231 C232 1.351 . S
C231 N234 1.368 . S
C231 H236 0.931 . S
C232 C231 1.351 . S
C232 N233 1.373 . S
C232 H260 0.930 . S
N233 C232 1.373 . S
N233 C235 1.340 . S
N234 C231 1.368 . S
N234 C235 1.321 . S
N234 Co237 2.135 . S
C235 N233 1.340 . S
C235 N234 1.321 . S
C235 H259 0.930 . S
H236 C231 0.931 . S
Co237 N234 2.135 . S
Co237 N240 2.121 . S
Co237 O245 2.055 . S
Co237 O248 2.039 . S
Co237 N251 2.140 . S
C238 O239 1.227 . S
C238 O248 1.265 . S
O239 C238 1.227 . S
N240 Co237 2.121 . S
N240 C242 1.375 . S
N240 C243 1.313 . S
C241 C242 1.338 . S
C241 N244 1.377 . S
C241 H261 0.930 . S
C242 N240 1.375 . S
C242 C241 1.338 . S
C242 H246 0.931 . S
C243 N240 1.313 . S
C243 N244 1.344 . S
C243 H247 0.930 . S
N244 C241 1.377 . S
N244 C243 1.344 . S
O245 Co237 2.055 . S
O245 C249 1.253 . S
H246 C242 0.931 . S
H247 C243 0.930 . S
O248 Co237 2.039 . S
O248 C238 1.265 . S
C249 O245 1.253 . S
C249 O250 1.227 . S
O250 C249 1.227 . S
N251 Co237 2.140 . S
N251 C254 1.346 . S
N251 C255 1.345 . S
C252 C253 1.387 . S
C252 C256 1.391 . S
C253 C252 1.387 . S
C253 C254 1.369 . S
C253 H262 0.929 . S
C254 N251 1.346 . S
C254 C253 1.369 . S
C254 H257 0.928 . S
C255 N251 1.345 . S
C255 C256 1.371 . S
C255 H258 0.931 . S
C256 C252 1.391 . S
C256 C255 1.371 . S
C256 H263 0.930 . S
H257 C254 0.928 . S
H258 C255 0.931 . S
H259 C235 0.930 . S
H260 C232 0.930 . S
H261 C241 0.930 . S
H262 C253 0.929 . S
H263 C256 0.930 . S
C264 C265 1.351 . S
C264 N267 1.368 . S
C264 H269 0.931 . S
C265 C264 1.351 . S
C265 N266 1.368 1_655 S
C265 H293 0.930 . S
N266 C265 1.368 1_455 S
N266 C268 1.342 . S
N267 C264 1.368 . S
N267 C268 1.321 1_655 S
N267 Co270 2.135 . S
C268 N266 1.342 . S
C268 N267 1.321 1_455 S
C268 H292 0.930 . S
H269 C264 0.931 . S
Co270 N267 2.135 . S
Co270 N273 2.121 . S
Co270 O278 2.055 1_655 S
Co270 O281 2.039 1_655 S
Co270 N284 2.140 . S
C271 O272 1.227 1_455 S
C271 O281 1.265 . S
O272 C271 1.227 1_655 S
N273 Co270 2.121 . S
N273 C275 1.375 . S
N273 C276 1.313 . S
C274 C275 1.338 . S
C274 N277 1.377 . S
C274 H294 0.930 . S
C275 N273 1.375 . S
C275 C274 1.338 . S
C275 H279 0.931 . S
C276 N273 1.313 . S
C276 N277 1.344 . S
C276 H280 0.930 . S
N277 C274 1.377 . S
N277 C276 1.344 . S
O278 Co270 2.055 1_455 S
O278 C282 1.253 . S
H279 C275 0.931 . S
H280 C276 0.930 . S
O281 Co270 2.039 1_455 S
O281 C271 1.265 . S
C282 O278 1.253 . S
C282 O283 1.227 1_455 S
O283 C282 1.227 1_655 S
N284 Co270 2.140 . S
N284 C287 1.346 . S
N284 C288 1.345 . S
C285 C286 1.387 . S
C285 C289 1.391 . S
C286 C285 1.387 . S
C286 C287 1.369 . S
C286 H295 0.929 . S
C287 N284 1.346 . S
C287 C286 1.369 . S
C287 H290 0.928 . S
C288 N284 1.345 . S
C288 C289 1.371 . S
C288 H291 0.931 . S
C289 C285 1.391 . S
C289 C288 1.371 . S
C289 H296 0.930 . S
H290 C287 0.928 . S
H291 C288 0.931 . S
H292 C268 0.930 . S
H293 C265 0.930 . S
H294 C274 0.930 . S
H295 C286 0.929 . S
H296 C289 0.930 . S
C297 C298 1.351 . S
C297 N300 1.368 . S
C297 H302 0.931 . S
C298 C297 1.351 . S
C298 N299 1.368 1_565 S
C298 H326 0.930 . S
N299 C298 1.368 1_545 S
N299 C301 1.343 . S
N300 C297 1.368 . S
N300 C301 1.321 1_565 S
N300 Co303 2.135 . S
C301 N299 1.343 . S
C301 N300 1.321 1_545 S
C301 H325 0.930 . S
H302 C297 0.931 . S
Co303 N300 2.135 . S
Co303 N306 2.121 . S
Co303 O311 2.055 1_565 S
Co303 O314 2.039 1_565 S
Co303 N317 2.140 . S
C304 O305 1.227 1_545 S
C304 O314 1.265 . S
O305 C304 1.227 1_565 S
N306 Co303 2.121 . S
N306 C308 1.375 . S
N306 C309 1.313 . S
C307 C308 1.338 . S
C307 N310 1.377 . S
C307 H327 0.930 . S
C308 N306 1.375 . S
C308 C307 1.338 . S
C308 H312 0.931 . S
C309 N306 1.313 . S
C309 N310 1.344 . S
C309 H313 0.930 . S
N310 C307 1.377 . S
N310 C309 1.344 . S
O311 Co303 2.055 1_545 S
O311 C315 1.253 . S
H312 C308 0.931 . S
H313 C309 0.930 . S
O314 Co303 2.039 1_545 S
O314 C304 1.265 . S
C315 O311 1.253 . S
C315 O316 1.227 1_545 S
O316 C315 1.227 1_565 S
N317 Co303 2.140 . S
N317 C320 1.346 . S
N317 C321 1.345 . S
C318 C319 1.387 . S
C318 C322 1.391 . S
C319 C318 1.387 . S
C319 C320 1.369 . S
C319 H328 0.929 . S
C320 N317 1.346 . S
C320 C319 1.369 . S
C320 H323 0.928 . S
C321 N317 1.345 . S
C321 C322 1.371 . S
C321 H324 0.931 . S
C322 C318 1.391 . S
C322 C321 1.371 . S
C322 H329 0.930 . S
H323 C320 0.928 . S
H324 C321 0.931 . S
H325 C301 0.930 . S
H326 C298 0.930 . S
H327 C307 0.930 . S
H328 C319 0.929 . S
H329 C322 0.930 . S
C330 C331 1.351 . S
C330 N333 1.368 . S
C330 H335 0.931 . S
C331 C330 1.351 . S
C331 N332 1.373 . S
C331 H359 0.930 . S
N332 C331 1.373 . S
N332 C334 1.340 . S
N333 C330 1.368 . S
N333 C334 1.321 . S
N333 Co336 2.135 . S
C334 N332 1.340 . S
C334 N333 1.321 . S
C334 H358 0.930 . S
H335 C330 0.931 . S
Co336 N333 2.135 . S
Co336 N339 2.121 . S
Co336 O344 2.055 . S
Co336 O347 2.039 . S
Co336 N350 2.140 . S
C337 O338 1.227 . S
C337 O347 1.265 . S
O338 C337 1.227 . S
N339 Co336 2.121 . S
N339 C341 1.375 . S
N339 C342 1.313 . S
C340 C341 1.338 . S
C340 N343 1.377 . S
C340 H360 0.930 . S
C341 N339 1.375 . S
C341 C340 1.338 . S
C341 H345 0.931 . S
C342 N339 1.313 . S
C342 N343 1.344 . S
C342 H346 0.930 . S
N343 C340 1.377 . S
N343 C342 1.344 . S
O344 Co336 2.055 . S
O344 C348 1.253 . S
H345 C341 0.931 . S
H346 C342 0.930 . S
O347 Co336 2.039 . S
O347 C337 1.265 . S
C348 O344 1.253 . S
C348 O349 1.227 . S
O349 C348 1.227 . S
N350 Co336 2.140 . S
N350 C353 1.346 . S
N350 C354 1.345 . S
C351 C352 1.387 . S
C351 C355 1.391 . S
C352 C351 1.387 . S
C352 C353 1.369 . S
C352 H361 0.929 . S
C353 N350 1.346 . S
C353 C352 1.369 . S
C353 H356 0.928 . S
C354 N350 1.345 . S
C354 C355 1.371 . S
C354 H357 0.931 . S
C355 C351 1.391 . S
C355 C354 1.371 . S
C355 H362 0.930 . S
H356 C353 0.928 . S
H357 C354 0.931 . S
H358 C334 0.930 . S
H359 C331 0.930 . S
H360 C340 0.930 . S
H361 C352 0.929 . S
H362 C355 0.930 . S
C363 C364 1.351 . S
C363 N366 1.368 . S
C363 H368 0.931 . S
C364 C363 1.351 . S
C364 N365 1.373 . S
C364 H392 0.930 . S
N365 C364 1.373 . S
N365 C367 1.340 . S
N366 C363 1.368 . S
N366 C367 1.321 . S
N366 Co369 2.135 . S
C367 N365 1.340 . S
C367 N366 1.321 . S
C367 H391 0.930 . S
H368 C363 0.931 . S
Co369 N366 2.135 . S
Co369 N372 2.121 . S
Co369 O377 2.055 . S
Co369 O380 2.039 . S
Co369 N383 2.140 . S
C370 O371 1.227 . S
C370 O380 1.265 . S
O371 C370 1.227 . S
N372 Co369 2.121 . S
N372 C374 1.375 . S
N372 C375 1.313 . S
C373 C374 1.338 . S
C373 N376 1.377 . S
C373 H393 0.930 . S
C374 N372 1.375 . S
C374 C373 1.338 . S
C374 H378 0.931 . S
C375 N372 1.313 . S
C375 N376 1.344 . S
C375 H379 0.930 . S
N376 C373 1.377 . S
N376 C375 1.344 . S
O377 Co369 2.055 . S
O377 C381 1.253 . S
H378 C374 0.931 . S
H379 C375 0.930 . S
O380 Co369 2.039 . S
O380 C370 1.265 . S
C381 O377 1.253 . S
C381 O382 1.227 . S
O382 C381 1.227 . S
N383 Co369 2.140 . S
N383 C386 1.346 . S
N383 C387 1.345 . S
C384 C385 1.387 . S
C384 C388 1.391 . S
C385 C384 1.387 . S
C385 C386 1.369 . S
C385 H394 0.929 . S
C386 N383 1.346 . S
C386 C385 1.369 . S
C386 H389 0.928 . S
C387 N383 1.345 . S
C387 C388 1.371 . S
C387 H390 0.931 . S
C388 C384 1.391 . S
C388 C387 1.371 . S
C388 H395 0.930 . S
H389 C386 0.928 . S
H390 C387 0.931 . S
H391 C367 0.930 . S
H392 C364 0.930 . S
H393 C373 0.930 . S
H394 C385 0.929 . S
H395 C388 0.930 . S
C396 C397 1.351 . S
C396 N399 1.368 . S
C396 H401 0.931 . S
C397 C396 1.351 . S
C397 N398 1.368 1_655 S
C397 H425 0.930 . S
N398 C397 1.368 1_455 S
N398 C400 1.343 . S
N399 C396 1.368 . S
N399 C400 1.321 1_655 S
N399 Co402 2.135 . S
C400 N398 1.343 . S
C400 N399 1.321 1_455 S
C400 H424 0.930 . S
H401 C396 0.931 . S
Co402 N399 2.135 . S
Co402 N405 2.121 . S
Co402 O410 2.055 1_655 S
Co402 O413 2.039 1_655 S
Co402 N416 2.140 . S
C403 O404 1.227 1_455 S
C403 O413 1.265 . S
O404 C403 1.227 1_655 S
N405 Co402 2.121 . S
N405 C407 1.375 . S
N405 C408 1.313 . S
C406 C407 1.338 . S
C406 N409 1.377 . S
C406 H426 0.930 . S
C407 N405 1.375 . S
C407 C406 1.338 . S
C407 H411 0.931 . S
C408 N405 1.313 . S
C408 N409 1.344 . S
C408 H412 0.930 . S
N409 C406 1.377 . S
N409 C408 1.344 . S
O410 Co402 2.055 1_455 S
O410 C414 1.253 . S
H411 C407 0.931 . S
H412 C408 0.930 . S
O413 Co402 2.039 1_455 S
O413 C403 1.265 . S
C414 O410 1.253 . S
C414 O415 1.227 1_455 S
O415 C414 1.227 1_655 S
N416 Co402 2.140 . S
N416 C419 1.346 . S
N416 C420 1.345 . S
C417 C418 1.387 . S
C417 C421 1.391 . S
C418 C417 1.387 . S
C418 C419 1.369 . S
C418 H427 0.929 . S
C419 N416 1.346 . S
C419 C418 1.369 . S
C419 H422 0.928 . S
C420 N416 1.345 . S
C420 C421 1.371 . S
C420 H423 0.931 . S
C421 C417 1.391 . S
C421 C420 1.371 . S
C421 H428 0.930 . S
H422 C419 0.928 . S
H423 C420 0.931 . S
H424 C400 0.930 . S
H425 C397 0.930 . S
H426 C406 0.930 . S
H427 C418 0.929 . S
H428 C421 0.930 . S
C429 C430 1.351 . S
C429 N432 1.368 . S
C429 H434 0.931 . S
C430 C429 1.351 . S
C430 N431 1.368 1_565 S
C430 H458 0.930 . S
N431 C430 1.368 1_545 S
N431 C433 1.342 . S
N432 C429 1.368 . S
N432 C433 1.321 1_565 S
N432 Co435 2.135 . S
C433 N431 1.342 . S
C433 N432 1.321 1_545 S
C433 H457 0.930 . S
H434 C429 0.931 . S
Co435 N432 2.135 . S
Co435 N438 2.121 . S
Co435 O443 2.055 1_565 S
Co435 O446 2.039 1_565 S
Co435 N449 2.140 . S
C436 O437 1.227 1_545 S
C436 O446 1.265 . S
O437 C436 1.227 1_565 S
N438 Co435 2.121 . S
N438 C440 1.375 . S
N438 C441 1.313 . S
C439 C440 1.338 . S
C439 N442 1.377 . S
C439 H459 0.930 . S
C440 N438 1.375 . S
C440 C439 1.338 . S
C440 H444 0.931 . S
C441 N438 1.313 . S
C441 N442 1.344 . S
C441 H445 0.930 . S
N442 C439 1.377 . S
N442 C441 1.344 . S
O443 Co435 2.055 1_545 S
O443 C447 1.253 . S
H444 C440 0.931 . S
H445 C441 0.930 . S
O446 Co435 2.039 1_545 S
O446 C436 1.265 . S
C447 O443 1.253 . S
C447 O448 1.227 1_545 S
O448 C447 1.227 1_565 S
N449 Co435 2.140 . S
N449 C452 1.346 . S
N449 C453 1.345 . S
C450 C451 1.387 . S
C450 C454 1.391 . S
C451 C450 1.387 . S
C451 C452 1.369 . S
C451 H460 0.929 . S
C452 N449 1.346 . S
C452 C451 1.369 . S
C452 H455 0.928 . S
C453 N449 1.345 . S
C453 C454 1.371 . S
C453 H456 0.931 . S
C454 C450 1.391 . S
C454 C453 1.371 . S
C454 H461 0.930 . S
H455 C452 0.928 . S
H456 C453 0.931 . S
H457 C433 0.930 . S
H458 C430 0.930 . S
H459 C439 0.930 . S
H460 C451 0.929 . S
H461 C454 0.930 . S
C462 C463 1.351 . S
C462 N465 1.368 . S
C462 H467 0.931 . S
C463 C462 1.351 . S
C463 N464 1.373 . S
C463 H491 0.930 . S
N464 C463 1.373 . S
N464 C466 1.340 . S
N465 C462 1.368 . S
N465 C466 1.321 . S
N465 Co468 2.135 . S
C466 N464 1.340 . S
C466 N465 1.321 . S
C466 H490 0.930 . S
H467 C462 0.931 . S
Co468 N465 2.135 . S
Co468 N471 2.121 . S
Co468 O476 2.055 . S
Co468 O479 2.039 . S
Co468 N482 2.140 . S
C469 O470 1.227 . S
C469 O479 1.265 . S
O470 C469 1.227 . S
N471 Co468 2.121 . S
N471 C473 1.375 . S
N471 C474 1.313 . S
C472 C473 1.338 . S
C472 N475 1.377 . S
C472 H492 0.930 . S
C473 N471 1.375 . S
C473 C472 1.338 . S
C473 H477 0.931 . S
C474 N471 1.313 . S
C474 N475 1.344 . S
C474 H478 0.930 . S
N475 C472 1.377 . S
N475 C474 1.344 . S
O476 Co468 2.055 . S
O476 C480 1.253 . S
H477 C473 0.931 . S
H478 C474 0.930 . S
O479 Co468 2.039 . S
O479 C469 1.265 . S
C480 O476 1.253 . S
C480 O481 1.227 . S
O481 C480 1.227 . S
N482 Co468 2.140 . S
N482 C485 1.346 . S
N482 C486 1.345 . S
C483 C484 1.387 . S
C483 C487 1.391 . S
C484 C483 1.387 . S
C484 C485 1.369 . S
C484 H493 0.929 . S
C485 N482 1.346 . S
C485 C484 1.369 . S
C485 H488 0.928 . S
C486 N482 1.345 . S
C486 C487 1.371 . S
C486 H489 0.931 . S
C487 C483 1.391 . S
C487 C486 1.371 . S
C487 H494 0.930 . S
H488 C485 0.928 . S
H489 C486 0.931 . S
H490 C466 0.930 . S
H491 C463 0.930 . S
H492 C472 0.930 . S
H493 C484 0.929 . S
H494 C487 0.930 . S
C495 C496 1.351 . S
C495 N498 1.368 . S
C495 H500 0.931 . S
C496 C495 1.351 . S
C496 N497 1.373 . S
C496 H524 0.930 . S
N497 C496 1.373 . S
N497 C499 1.340 . S
N498 C495 1.368 . S
N498 C499 1.321 . S
N498 Co501 2.135 . S
C499 N497 1.340 . S
C499 N498 1.321 . S
C499 H523 0.930 . S
H500 C495 0.931 . S
Co501 N498 2.135 . S
Co501 N504 2.121 . S
Co501 O509 2.055 . S
Co501 O512 2.039 . S
Co501 N515 2.140 . S
C502 O503 1.227 . S
C502 O512 1.265 . S
O503 C502 1.227 . S
N504 Co501 2.121 . S
N504 C506 1.375 . S
N504 C507 1.313 . S
C505 C506 1.338 . S
C505 N508 1.377 . S
C505 H525 0.930 . S
C506 N504 1.375 . S
C506 C505 1.338 . S
C506 H510 0.931 . S
C507 N504 1.313 . S
C507 N508 1.344 . S
C507 H511 0.930 . S
N508 C505 1.377 . S
N508 C507 1.344 . S
O509 Co501 2.055 . S
O509 C513 1.253 . S
H510 C506 0.931 . S
H511 C507 0.930 . S
O512 Co501 2.039 . S
O512 C502 1.265 . S
C513 O509 1.253 . S
C513 O514 1.227 . S
O514 C513 1.227 . S
N515 Co501 2.140 . S
N515 C518 1.346 . S
N515 C519 1.345 . S
C516 C517 1.387 . S
C516 C520 1.391 . S
C517 C516 1.387 . S
C517 C518 1.369 . S
C517 H526 0.929 . S
C518 N515 1.346 . S
C518 C517 1.369 . S
C518 H521 0.928 . S
C519 N515 1.345 . S
C519 C520 1.371 . S
C519 H522 0.931 . S
C520 C516 1.391 . S
C520 C519 1.371 . S
C520 H527 0.930 . S
H521 C518 0.928 . S
H522 C519 0.931 . S
H523 C499 0.930 . S
H524 C496 0.930 . S
H525 C505 0.930 . S
H526 C517 0.929 . S
H527 C520 0.930 . S
H528 C534 0.930 . S
H529 C537 0.930 . S
H530 C538 0.930 . S
H531 C539 0.930 . S
H532 C542 0.930 . S
H533 C543 0.930 . S
C534 H528 0.930 . S
C534 C535 1.355 1_655 S
C534 C536 1.415 . S
C535 C534 1.355 1_455 S
C535 C537 1.419 . S
C536 C534 1.415 . S
C536 C541 1.425 1_656 S
C536 C543 1.409 1_556 S
C537 H529 0.930 . S
C537 C535 1.419 . S
C537 C538 1.362 . S
C538 H530 0.930 . S
C538 C537 1.362 . S
C538 C541 1.409 1_556 S
C539 H531 0.930 . S
C539 C540 1.355 1_455 S
C539 C541 1.415 . S
C540 C539 1.355 1_655 S
C540 C542 1.419 . S
C541 C536 1.425 1_454 S
C541 C538 1.409 1_554 S
C541 C539 1.415 . S
C542 H532 0.930 . S
C542 C540 1.419 . S
C542 C543 1.362 . S
C543 H533 0.930 . S
C543 C536 1.409 1_554 S
C543 C542 1.362 . S
H544 C550 0.931 . S
H545 C553 0.930 . S
H546 C554 0.930 . S
H547 C555 0.930 . S
H548 C558 0.930 . S
H549 C559 0.930 . S
C550 H544 0.931 . S
C550 C551 1.354 1_545 S
C550 C552 1.414 1_545 S
C551 C550 1.354 1_565 S
C551 C553 1.419 . S
C552 C550 1.414 1_565 S
C552 C557 1.425 . S
C552 C559 1.409 . S
C553 H545 0.930 . S
C553 C551 1.419 . S
C553 C554 1.362 . S
C554 H546 0.930 . S
C554 C553 1.362 . S
C554 C557 1.409 . S
C555 H547 0.930 . S
C555 C556 1.355 . S
C555 C557 1.415 . S
C556 C555 1.355 . S
C556 C558 1.419 . S
C557 C552 1.425 . S
C557 C554 1.409 . S
C557 C555 1.415 . S
C558 H548 0.930 . S
C558 C556 1.419 . S
C558 C559 1.362 . S
C559 H549 0.930 . S
C559 C552 1.409 . S
C559 C558 1.362 . S
H560 C566 0.930 . S
H561 C569 0.930 . S
H562 C570 0.930 . S
H563 C571 0.930 . S
H564 C574 0.930 . S
H565 C575 0.930 . S
C566 H560 0.930 . S
C566 C567 1.355 . S
C566 C568 1.415 . S
C567 C566 1.355 . S
C567 C569 1.419 . S
C568 C566 1.415 . S
C568 C573 1.425 1_554 S
C568 C575 1.409 1_554 S
C569 H561 0.930 . S
C569 C567 1.419 . S
C569 C570 1.362 . S
C570 H562 0.930 . S
C570 C569 1.362 . S
C570 C573 1.409 1_554 S
C571 H563 0.930 . S
C571 C572 1.355 . S
C571 C573 1.415 . S
C572 C571 1.355 . S
C572 C574 1.419 . S
C573 C568 1.425 1_556 S
C573 C570 1.409 1_556 S
C573 C571 1.415 . S
C574 H564 0.930 . S
C574 C572 1.419 . S
C574 C575 1.362 . S
C575 H565 0.930 . S
C575 C568 1.409 1_556 S
C575 C574 1.362 . S
H576 C582 0.930 . S
H577 C585 0.930 . S
H578 C586 0.930 . S
H579 C587 0.930 . S
H580 C590 0.930 . S
H581 C591 0.930 . S
C582 H576 0.930 . S
C582 C583 1.355 . S
C582 C584 1.415 . S
C583 C582 1.355 . S
C583 C585 1.419 . S
C584 C582 1.415 . S
C584 C589 1.425 . S
C584 C591 1.409 . S
C585 H577 0.930 . S
C585 C583 1.419 . S
C585 C586 1.362 . S
C586 H578 0.930 . S
C586 C585 1.362 . S
C586 C589 1.409 . S
C587 H579 0.930 . S
C587 C588 1.355 . S
C587 C589 1.415 . S
C588 C587 1.355 . S
C588 C590 1.419 . S
C589 C584 1.425 . S
C589 C586 1.409 . S
C589 C587 1.415 . S
C590 H580 0.930 . S
C590 C588 1.419 . S
C590 C591 1.362 . S
C591 H581 0.930 . S
C591 C584 1.409 . S
C591 C590 1.362 . S
H592 C598 0.930 . S
H593 C601 0.930 . S
H594 C602 0.930 . S
H595 C603 0.930 . S
H596 C606 0.930 . S
H597 C607 0.930 . S
C598 H592 0.930 . S
C598 C599 1.355 1_655 S
C598 C600 1.458 . S
C599 C598 1.355 1_455 S
C599 C601 1.419 . S
C600 C598 1.458 . S
C600 C605 1.421 1_654 S
C600 C607 1.370 1_554 S
C601 H593 0.930 . S
C601 C599 1.419 . S
C601 C602 1.362 . S
C602 H594 0.930 . S
C602 C601 1.362 . S
C602 C605 1.369 1_554 S
C603 H595 0.930 . S
C603 C604 1.355 . S
C603 C605 1.458 . S
C604 C603 1.355 . S
C604 C606 1.419 1_455 S
C605 C600 1.421 1_456 S
C605 C602 1.369 1_556 S
C605 C603 1.458 . S
C606 H596 0.930 . S
C606 C604 1.419 1_655 S
C606 C607 1.362 . S
C607 H597 0.930 . S
C607 C600 1.370 1_556 S
C607 C606 1.362 . S
H608 C614 0.930 . S
H609 C617 0.930 . S
H610 C618 0.930 . S
H611 C619 0.930 . S
H612 C622 0.930 . S
H613 C623 0.930 . S
C614 H608 0.930 . S
C614 C615 1.355 . S
C614 C616 1.415 . S
C615 C614 1.355 . S
C615 C617 1.419 1_545 S
C616 C614 1.415 . S
C616 C621 1.425 1_545 S
C616 C623 1.409 . S
C617 H609 0.930 . S
C617 C615 1.419 1_565 S
C617 C618 1.362 . S
C618 H610 0.930 . S
C618 C617 1.362 . S
C618 C621 1.409 . S
C619 H611 0.930 . S
C619 C620 1.355 1_565 S
C619 C621 1.415 . S
C620 C619 1.355 1_545 S
C620 C622 1.419 . S
C621 C616 1.425 1_565 S
C621 C618 1.409 . S
C621 C619 1.415 . S
C622 H612 0.930 . S
C622 C620 1.419 . S
C622 C623 1.362 . S
C623 H613 0.930 . S
C623 C616 1.409 . S
C623 C622 1.362 . S
H624 C630 0.930 . S
H625 C633 0.930 . S
H626 C634 0.930 . S
H627 C635 0.930 . S
H628 C638 0.930 . S
H629 C639 0.930 . S
C630 H624 0.930 . S
C630 C631 1.355 . S
C630 C632 1.415 . S
C631 C630 1.355 . S
C631 C633 1.419 . S
C632 C630 1.415 . S
C632 C637 1.425 1_556 S
C632 C639 1.409 1_556 S
C633 H625 0.930 . S
C633 C631 1.419 . S
C633 C634 1.362 . S
C634 H626 0.930 . S
C634 C633 1.362 . S
C634 C637 1.409 1_556 S
C635 H627 0.930 . S
C635 C636 1.355 . S
C635 C637 1.415 . S
C636 C635 1.355 . S
C636 C638 1.419 . S
C637 C632 1.425 1_554 S
C637 C634 1.409 1_554 S
C637 C635 1.415 . S
C638 H628 0.930 . S
C638 C636 1.419 . S
C638 C639 1.362 . S
C639 H629 0.930 . S
C639 C632 1.409 1_554 S
C639 C638 1.362 . S
H640 C646 0.930 . S
H641 C649 0.930 . S
H642 C650 0.930 . S
H643 C651 0.930 . S
H644 C654 0.930 . S
H645 C655 0.930 . S
C646 H640 0.930 . S
C646 C647 1.355 . S
C646 C648 1.415 . S
C647 C646 1.355 . S
C647 C649 1.419 . S
C648 C646 1.415 . S
C648 C653 1.425 . S
C648 C655 1.409 . S
C649 H641 0.930 . S
C649 C647 1.419 . S
C649 C650 1.362 . S
C650 H642 0.930 . S
C650 C649 1.362 . S
C650 C653 1.409 . S
C651 H643 0.930 . S
C651 C652 1.355 . S
C651 C653 1.415 . S
C652 C651 1.355 . S
C652 C654 1.419 . S
C653 C648 1.425 . S
C653 C650 1.409 . S
C653 C651 1.415 . S
C654 H644 0.930 . S
C654 C652 1.419 . S
C654 C655 1.362 . S
C655 H645 0.930 . S
C655 C648 1.409 . S
C655 C654 1.362 . S
H656 C662 0.930 . S
H657 C665 0.930 . S
H658 C666 0.930 . S
H659 C667 0.930 1_565 S
H660 C670 0.930 1_565 S
H661 C671 0.930 . S
C662 H656 0.930 . S
C662 C663 1.355 1_455 S
C662 C664 1.415 . S
C663 C662 1.355 1_655 S
C663 C665 1.419 . S
C664 C662 1.415 . S
C664 C669 1.425 1_455 S
C664 C671 1.409 . S
C665 H657 0.930 . S
C665 C663 1.419 . S
C665 C666 1.362 . S
C666 H658 0.930 . S
C666 C665 1.362 . S
C666 C669 1.409 . S
C667 H659 0.930 1_545 S
C667 C668 1.355 1_645 S
C667 C669 1.415 . S
C668 C667 1.355 1_465 S
C668 C670 1.419 1_565 S
C669 C664 1.425 1_655 S
C669 C666 1.409 . S
C669 C667 1.415 . S
C670 H660 0.930 1_545 S
C670 C668 1.419 1_545 S
C670 C671 1.362 . S
C671 H661 0.930 . S
C671 C664 1.409 . S
C671 C670 1.362 . S
H672 C678 0.930 . S
H673 C681 0.930 . S
H674 C682 0.930 . S
H675 C683 0.929 1_545 S
H676 C686 0.930 . S
H677 C687 0.930 . S
C678 H672 0.930 . S
C678 C679 1.355 . S
C678 C680 1.415 . S
C679 C678 1.355 . S
C679 C681 1.419 . S
C680 C678 1.415 . S
C680 C685 1.425 . S
C680 C687 1.409 . S
C681 H673 0.930 . S
C681 C679 1.419 . S
C681 C682 1.362 . S
C682 H674 0.930 . S
C682 C681 1.362 . S
C682 C685 1.409 . S
C683 H675 0.929 1_565 S
C683 C684 1.355 1_565 S
C683 C685 1.415 . S
C684 C683 1.355 1_545 S
C684 C686 1.419 . S
C685 C680 1.425 . S
C685 C682 1.409 . S
C685 C683 1.415 . S
C686 H676 0.930 . S
C686 C684 1.419 . S
C686 C687 1.362 1_545 S
C687 H677 0.930 . S
C687 C680 1.409 . S
C687 C686 1.362 1_565 S
H688 C694 0.930 . S
H689 C697 0.930 . S
H690 C698 0.930 . S
H691 C699 0.930 . S
H692 C702 0.930 . S
H693 C703 0.930 . S
C694 H688 0.930 . S
C694 C695 1.355 . S
C694 C696 1.415 . S
C695 C694 1.355 . S
C695 C697 1.419 . S
C696 C694 1.415 . S
C696 C701 1.425 . S
C696 C703 1.409 . S
C697 H689 0.930 . S
C697 C695 1.419 . S
C697 C698 1.362 . S
C698 H690 0.930 . S
C698 C697 1.362 . S
C698 C701 1.409 . S
C699 H691 0.930 . S
C699 C700 1.355 . S
C699 C701 1.415 . S
C700 C699 1.355 . S
C700 C702 1.419 . S
C701 C696 1.425 . S
C701 C698 1.409 . S
C701 C699 1.415 . S
C702 H692 0.930 . S
C702 C700 1.419 . S
C702 C703 1.362 . S
C703 H693 0.930 . S
C703 C696 1.409 . S
C703 C702 1.362 . S
H704 C710 0.930 . S
H705 C713 0.930 . S
H706 C714 0.930 . S
H707 C715 0.930 . S
H708 C718 0.930 . S
H709 C719 0.930 . S
C710 H704 0.930 . S
C710 C711 1.355 . S
C710 C712 1.415 . S
C711 C710 1.355 . S
C711 C713 1.419 . S
C712 C710 1.415 . S
C712 C717 1.425 . S
C712 C719 1.409 . S
C713 H705 0.930 . S
C713 C711 1.419 . S
C713 C714 1.362 . S
C714 H706 0.930 . S
C714 C713 1.362 . S
C714 C717 1.409 . S
C715 H707 0.930 . S
C715 C716 1.355 1_455 S
C715 C717 1.415 . S
C716 C715 1.355 1_655 S
C716 C718 1.419 . S
C717 C712 1.425 . S
C717 C714 1.409 . S
C717 C715 1.415 . S
C718 H708 0.930 . S
C718 C716 1.419 . S
C718 C719 1.362 1_655 S
C719 H709 0.930 . S
C719 C712 1.409 . S
C719 C718 1.362 1_455 S
H720 C726 0.930 . S
H721 C729 0.930 . S
H722 C730 0.930 . S
H723 C731 0.930 . S
H724 C734 0.930 . S
H725 C735 0.930 . S
C726 H720 0.930 . S
C726 C727 1.355 . S
C726 C728 1.415 . S
C727 C726 1.355 . S
C727 C729 1.419 1_455 S
C728 C726 1.415 . S
C728 C733 1.425 1_455 S
C728 C735 1.409 . S
C729 H721 0.930 . S
C729 C727 1.419 1_655 S
C729 C730 1.362 . S
C730 H722 0.930 . S
C730 C729 1.362 . S
C730 C733 1.409 . S
C731 H723 0.930 . S
C731 C732 1.355 . S
C731 C733 1.415 . S
C732 C731 1.355 . S
C732 C734 1.419 1_655 S
C733 C728 1.425 1_655 S
C733 C730 1.409 . S
C733 C731 1.415 . S
C734 H724 0.930 . S
C734 C732 1.419 1_455 S
C734 C735 1.362 . S
C735 H725 0.930 . S
C735 C728 1.409 . S
C735 C734 1.362 . S
H736 C742 0.930 1_655 S
H737 C745 0.930 1_655 S
H738 C746 0.930 . S
H739 C747 0.930 . S
H740 C750 0.930 . S
H741 C751 0.930 . S
C742 H736 0.930 1_455 S
C742 C743 1.355 1_465 S
C742 C744 1.415 . S
C743 C742 1.355 1_645 S
C743 C745 1.419 1_655 S
C744 C742 1.415 . S
C744 C749 1.425 . S
C744 C751 1.409 . S
C745 H737 0.930 1_455 S
C745 C743 1.419 1_455 S
C745 C746 1.362 . S
C746 H738 0.930 . S
C746 C745 1.362 . S
C746 C749 1.409 1_545 S
C747 H739 0.930 . S
C747 C748 1.355 . S
C747 C749 1.415 . S
C748 C747 1.355 . S
C748 C750 1.419 . S
C749 C744 1.425 . S
C749 C746 1.409 1_565 S
C749 C747 1.415 . S
C750 H740 0.930 . S
C750 C748 1.419 . S
C750 C751 1.362 . S
C751 H741 0.930 . S
C751 C744 1.409 . S
C751 C750 1.362 . S
H752 C758 0.930 . S
H753 C761 0.930 . S
H754 C762 0.930 . S
H755 C763 0.930 . S
H756 C766 0.930 . S
H757 C767 0.930 . S
C758 H752 0.930 . S
C758 C759 1.355 . S
C758 C760 1.415 . S
C759 C758 1.355 . S
C759 C761 1.419 . S
C760 C758 1.415 . S
C760 C765 1.425 . S
C760 C767 1.409 . S
C761 H753 0.930 . S
C761 C759 1.419 . S
C761 C762 1.362 . S
C762 H754 0.930 . S
C762 C761 1.362 . S
C762 C765 1.409 . S
C763 H755 0.930 . S
C763 C764 1.355 1_545 S
C763 C765 1.415 . S
C764 C763 1.355 1_565 S
C764 C766 1.419 . S
C765 C760 1.425 . S
C765 C762 1.409 . S
C765 C763 1.415 . S
C766 H756 0.930 . S
C766 C764 1.419 . S
C766 C767 1.362 1_565 S
C767 H757 0.930 . S
C767 C760 1.409 . S
C767 C766 1.362 1_545 S
H768 C774 0.930 . S
H769 C777 0.930 . S
H770 C778 0.930 . S
H771 C779 0.930 . S
H772 C782 0.930 . S
H773 C783 0.930 . S
C774 H768 0.930 . S
C774 C775 1.355 . S
C774 C776 1.415 . S
C775 C774 1.355 . S
C775 C777 1.419 . S
C776 C774 1.415 . S
C776 C781 1.425 . S
C776 C783 1.409 . S
C777 H769 0.930 . S
C777 C775 1.419 . S
C777 C778 1.362 . S
C778 H770 0.930 . S
C778 C777 1.362 . S
C778 C781 1.409 . S
C779 H771 0.930 . S
C779 C780 1.355 . S
C779 C781 1.415 . S
C780 C779 1.355 . S
C780 C782 1.419 . S
C781 C776 1.425 . S
C781 C778 1.409 . S
C781 C779 1.415 . S
C782 H772 0.930 . S
C782 C780 1.419 . S
C782 C783 1.362 . S
C783 H773 0.930 . S
C783 C776 1.409 . S
C783 C782 1.362 . S
H784 C790 0.930 . S
H785 C793 0.930 . S
H786 C794 0.930 . S
H787 C795 0.930 . S
H788 C798 0.930 . S
H789 C799 0.930 . S
C790 H784 0.930 . S
C790 C791 1.355 . S
C790 C792 1.415 . S
C791 C790 1.355 . S
C791 C793 1.419 1_455 S
C792 C790 1.415 . S
C792 C797 1.425 1_455 S
C792 C799 1.409 . S
C793 H785 0.930 . S
C793 C791 1.419 1_655 S
C793 C794 1.362 . S
C794 H786 0.930 . S
C794 C793 1.362 . S
C794 C797 1.409 . S
C795 H787 0.930 . S
C795 C796 1.355 1_565 S
C795 C797 1.415 . S
C796 C795 1.355 1_545 S
C796 C798 1.419 1_655 S
C797 C792 1.425 1_655 S
C797 C794 1.409 . S
C797 C795 1.415 . S
C798 H788 0.930 . S
C798 C796 1.419 1_455 S
C798 C799 1.362 1_545 S
C799 H789 0.930 . S
C799 C792 1.409 . S
C799 C798 1.362 1_565 S
H800 C806 0.930 . S
H801 C809 0.930 . S
H802 C810 0.930 . S
H803 C811 0.930 . S
H804 C814 0.930 . S
H805 C815 0.930 . S
C806 H800 0.930 . S
C806 C807 1.355 1_565 S
C806 C808 1.415 . S
C807 C806 1.355 1_545 S
C807 C809 1.419 . S
C808 C806 1.415 . S
C808 C813 1.425 1_565 S
C808 C815 1.409 . S
C809 H801 0.930 . S
C809 C807 1.419 . S
C809 C810 1.362 . S
C810 H802 0.930 . S
C810 C809 1.362 . S
C810 C813 1.409 . S
C811 H803 0.930 . S
C811 C812 1.355 1_545 S
C811 C813 1.415 . S
C812 C811 1.355 1_565 S
C812 C814 1.419 . S
C813 C808 1.425 1_545 S
C813 C810 1.409 . S
C813 C811 1.415 . S
C814 H804 0.930 . S
C814 C812 1.419 . S
C814 C815 1.362 . S
C815 H805 0.930 . S
C815 C808 1.409 . S
C815 C814 1.362 . S
H816 C822 0.930 . S
H817 C825 0.930 . S
H818 C826 0.930 . S
H819 C827 0.930 . S
H820 C830 0.930 . S
H821 C831 0.930 . S
C822 H816 0.930 . S
C822 C823 1.355 . S
C822 C824 1.415 . S
C823 C822 1.355 . S
C823 C825 1.419 . S
C824 C822 1.415 . S
C824 C829 1.425 . S
C824 C831 1.409 . S
C825 H817 0.930 . S
C825 C823 1.419 . S
C825 C826 1.362 . S
C826 H818 0.930 . S
C826 C825 1.362 . S
C826 C829 1.409 . S
C827 H819 0.930 . S
C827 C828 1.355 . S
C827 C829 1.415 . S
C828 C827 1.355 . S
C828 C830 1.419 . S
C829 C824 1.425 . S
C829 C826 1.409 . S
C829 C827 1.415 . S
C830 H820 0.930 . S
C830 C828 1.419 . S
C830 C831 1.362 . S
C831 H821 0.930 . S
C831 C824 1.409 . S
C831 C830 1.362 . S
H832 C838 0.930 . S
H833 C841 0.930 . S
H834 C842 0.930 . S
H835 C843 0.930 . S
H836 C846 0.930 . S
H837 C847 0.930 . S
C838 H832 0.930 . S
C838 C839 1.355 . S
C838 C840 1.415 . S
C839 C838 1.355 . S
C839 C841 1.419 . S
C840 C838 1.415 . S
C840 C845 1.425 . S
C840 C847 1.409 . S
C841 H833 0.930 . S
C841 C839 1.419 . S
C841 C842 1.362 . S
C842 H834 0.930 . S
C842 C841 1.362 . S
C842 C845 1.409 . S
C843 H835 0.930 . S
C843 C844 1.355 1_655 S
C843 C845 1.415 . S
C844 C843 1.355 1_455 S
C844 C846 1.419 . S
C845 C840 1.425 . S
C845 C842 1.409 . S
C845 C843 1.415 . S
C846 H836 0.930 . S
C846 C844 1.419 . S
C846 C847 1.362 1_455 S
C847 H837 0.930 . S
C847 C840 1.409 . S
C847 C846 1.362 1_655 S
H848 C854 0.930 . S
H849 C857 0.930 . S
H850 C858 0.930 . S
H851 C859 0.930 . S
H852 C862 0.930 . S
H853 C863 0.930 . S
C854 H848 0.930 . S
C854 C855 1.355 . S
C854 C856 1.415 . S
C855 C854 1.355 . S
C855 C857 1.419 . S
C856 C854 1.415 . S
C856 C861 1.425 . S
C856 C863 1.409 1_455 S
C857 H849 0.930 . S
C857 C855 1.419 . S
C857 C858 1.362 . S
C858 H850 0.930 . S
C858 C857 1.362 . S
C858 C861 1.409 . S
C859 H851 0.930 . S
C859 C860 1.355 1_455 S
C859 C861 1.415 . S
C860 C859 1.355 1_655 S
C860 C862 1.419 . S
C861 C856 1.425 . S
C861 C858 1.409 . S
C861 C859 1.415 . S
C862 H852 0.930 . S
C862 C860 1.419 . S
C862 C863 1.362 . S
C863 H853 0.930 . S
C863 C856 1.409 1_655 S
C863 C862 1.362 . S
H864 C870 0.930 . S
H865 C873 0.930 . S
H866 C874 0.930 . S
H867 C875 0.930 1_455 S
H868 C878 0.930 1_455 S
H869 C879 0.930 . S
C870 H864 0.930 . S
C870 C871 1.355 1_565 S
C870 C872 1.415 . S
C871 C870 1.355 1_545 S
C871 C873 1.419 . S
C872 C870 1.415 . S
C872 C877 1.425 1_565 S
C872 C879 1.409 . S
C873 H865 0.930 . S
C873 C871 1.419 . S
C873 C874 1.362 . S
C874 H866 0.930 . S
C874 C873 1.362 . S
C874 C877 1.409 . S
C875 H867 0.930 1_655 S
C875 C876 1.355 1_645 S
C875 C877 1.415 . S
C876 C875 1.355 1_465 S
C876 C878 1.419 1_455 S
C877 C872 1.425 1_545 S
C877 C874 1.409 . S
C877 C875 1.415 . S
C878 H868 0.930 1_655 S
C878 C876 1.419 1_655 S
C878 C879 1.362 . S
C879 H869 0.930 . S
C879 C872 1.409 . S
C879 C878 1.362 . S
H880 C886 0.930 . S
H881 C889 0.930 . S
H882 C890 0.930 . S
H883 C891 0.928 1_545 S
H884 C894 0.930 1_545 S
H885 C895 0.930 . S
C886 H880 0.930 . S
C886 C887 1.355 . S
C886 C888 1.415 . S
C887 C886 1.355 . S
C887 C889 1.419 . S
C888 C886 1.415 . S
C888 C893 1.425 . S
C888 C895 1.409 . S
C889 H881 0.930 . S
C889 C887 1.419 . S
C889 C890 1.362 . S
C890 H882 0.930 . S
C890 C889 1.362 . S
C890 C893 1.409 . S
C891 H883 0.928 1_565 S
C891 C892 1.355 1_565 S
C891 C893 1.415 . S
C892 C891 1.355 1_545 S
C892 C894 1.419 1_545 S
C893 C888 1.425 . S
C893 C890 1.409 . S
C893 C891 1.415 . S
C894 H884 0.930 1_565 S
C894 C892 1.419 1_565 S
C894 C895 1.362 . S
C895 H885 0.930 . S
C895 C888 1.409 . S
C895 C894 1.362 . S
H896 C902 0.930 . S
H897 C905 0.930 . S
H898 C906 0.930 . S
H899 C907 0.930 . S
H900 C910 0.930 . S
H901 C911 0.930 . S
C902 H896 0.930 . S
C902 C903 1.355 . S
C902 C904 1.415 . S
C903 C902 1.355 . S
C903 C905 1.419 . S
C904 C902 1.415 . S
C904 C909 1.425 . S
C904 C911 1.409 . S
C905 H897 0.930 . S
C905 C903 1.419 . S
C905 C906 1.362 . S
C906 H898 0.930 . S
C906 C905 1.362 . S
C906 C909 1.409 . S
C907 H899 0.930 . S
C907 C908 1.355 . S
C907 C909 1.415 . S
C908 C907 1.355 . S
C908 C910 1.419 . S
C909 C904 1.425 . S
C909 C906 1.409 . S
C909 C907 1.415 . S
C910 H900 0.930 . S
C910 C908 1.419 . S
C910 C911 1.362 . S
C911 H901 0.930 . S
C911 C904 1.409 . S
C911 C910 1.362 . S
H912 C918 0.930 . S
H913 C921 0.930 . S
H914 C922 0.930 . S
H915 C923 0.930 . S
H916 C926 0.930 . S
H917 C927 0.930 . S
C918 H912 0.930 . S
C918 C919 1.355 . S
C918 C920 1.415 . S
C919 C918 1.355 . S
C919 C921 1.419 . S
C920 C918 1.415 . S
C920 C925 1.425 . S
C920 C927 1.409 . S
C921 H913 0.930 . S
C921 C919 1.419 . S
C921 C922 1.362 . S
C922 H914 0.930 . S
C922 C921 1.362 . S
C922 C925 1.409 . S
C923 H915 0.930 . S
C923 C924 1.355 . S
C923 C925 1.415 . S
C924 C923 1.355 . S
C924 C926 1.419 . S
C925 C920 1.425 . S
C925 C922 1.409 . S
C925 C923 1.415 . S
C926 H916 0.930 . S
C926 C924 1.419 . S
C926 C927 1.362 . S
C927 H917 0.930 . S
C927 C920 1.409 . S
C927 C926 1.362 . S
H928 C934 0.930 1_565 S
H929 C937 0.930 . S
H930 C938 0.930 . S
H931 C939 0.930 . S
H932 C942 0.930 . S
H933 C943 0.930 . S
C934 H928 0.930 1_545 S
C934 C935 1.355 . S
C934 C936 1.415 . S
C935 C934 1.355 . S
C935 C937 1.419 . S
C936 C934 1.415 . S
C936 C941 1.425 . S
C936 C943 1.409 . S
C937 H929 0.930 . S
C937 C935 1.419 . S
C937 C938 1.362 . S
C938 H930 0.930 . S
C938 C937 1.362 . S
C938 C941 1.409 . S
C939 H931 0.930 . S
C939 C940 1.355 . S
C939 C941 1.415 . S
C940 C939 1.355 . S
C940 C942 1.419 . S
C941 C936 1.425 . S
C941 C938 1.409 . S
C941 C939 1.415 . S
C942 H932 0.930 . S
C942 C940 1.419 . S
C942 C943 1.362 . S
C943 H933 0.930 . S
C943 C936 1.409 . S
C943 C942 1.362 . S
H944 C950 0.930 . S
H945 C953 0.930 1_565 S
H946 C954 0.930 1_565 S
H947 C955 0.930 . S
H948 C958 0.930 . S
H949 C959 0.930 . S
C950 H944 0.930 . S
C950 C951 1.355 . S
C950 C952 1.415 . S
C951 C950 1.355 . S
C951 C953 1.419 . S
C952 C950 1.415 . S
C952 C957 1.425 . S
C952 C959 1.409 . S
C953 H945 0.930 1_545 S
C953 C951 1.419 . S
C953 C954 1.362 . S
C954 H946 0.930 1_545 S
C954 C953 1.362 . S
C954 C957 1.409 . S
C955 H947 0.930 . S
C955 C956 1.355 . S
C955 C957 1.415 . S
C956 C955 1.355 . S
C956 C958 1.419 . S
C957 C952 1.425 . S
C957 C954 1.409 . S
C957 C955 1.415 . S
C958 H948 0.930 . S
C958 C956 1.419 . S
C958 C959 1.362 . S
C959 H949 0.930 . S
C959 C952 1.409 . S
C959 C958 1.362 . S
H960 C966 0.930 . S
H961 C969 0.930 . S
H962 C970 0.930 . S
H963 C971 0.930 . S
H964 C974 0.930 . S
H965 C975 0.930 . S
C966 H960 0.930 . S
C966 C967 1.355 . S
C966 C968 1.415 . S
C967 C966 1.355 . S
C967 C969 1.419 . S
C968 C966 1.415 . S
C968 C973 1.425 . S
C968 C975 1.409 . S
C969 H961 0.930 . S
C969 C967 1.419 . S
C969 C970 1.362 . S
C970 H962 0.930 . S
C970 C969 1.362 . S
C970 C973 1.409 . S
C971 H963 0.930 . S
C971 C972 1.355 . S
C971 C973 1.415 . S
C972 C971 1.355 . S
C972 C974 1.419 . S
C973 C968 1.425 . S
C973 C970 1.409 . S
C973 C971 1.415 . S
C974 H964 0.930 . S
C974 C972 1.419 . S
C974 C975 1.362 . S
C975 H965 0.930 . S
C975 C968 1.409 . S
C975 C974 1.362 . S
H976 C982 0.930 . S
H977 C985 0.930 . S
H978 C986 0.930 . S
H979 C987 0.930 . S
H980 C990 0.930 . S
H981 C991 0.930 . S
C982 H976 0.930 . S
C982 C983 1.355 . S
C982 C984 1.415 . S
C983 C982 1.355 . S
C983 C985 1.419 . S
C984 C982 1.415 . S
C984 C989 1.425 . S
C984 C991 1.409 . S
C985 H977 0.930 . S
C985 C983 1.419 . S
C985 C986 1.362 . S
C986 H978 0.930 . S
C986 C985 1.362 . S
C986 C989 1.409 . S
C987 H979 0.930 . S
C987 C988 1.355 . S
C987 C989 1.415 . S
C988 C987 1.355 . S
C988 C990 1.419 . S
C989 C984 1.425 . S
C989 C986 1.409 . S
C989 C987 1.415 . S
C990 H980 0.930 . S
C990 C988 1.419 . S
C990 C991 1.362 . S
C991 H981 0.930 . S
C991 C984 1.409 . S
C991 C990 1.362 . S
H992 C998 0.930 . S
H993 C1001 0.930 1_455 S
H994 C1002 0.930 . S
H995 C1003 0.930 . S
H996 C1006 0.930 . S
H997 C1007 0.930 . S
C998 H992 0.930 . S
C998 C999 1.355 . S
C998 C1000 1.415 . S
C999 C998 1.355 . S
C999 C1001 1.419 . S
C1000 C998 1.415 . S
C1000 C1005 1.425 . S
C1000 C1007 1.409 . S
C1001 H993 0.930 1_655 S
C1001 C999 1.419 . S
C1001 C1002 1.362 . S
C1002 H994 0.930 . S
C1002 C1001 1.362 . S
C1002 C1005 1.409 . S
C1003 H995 0.930 . S
C1003 C1004 1.355 . S
C1003 C1005 1.415 . S
C1004 C1003 1.355 . S
C1004 C1006 1.419 . S
C1005 C1000 1.425 . S
C1005 C1002 1.409 . S
C1005 C1003 1.415 . S
C1006 H996 0.930 . S
C1006 C1004 1.419 . S
C1006 C1007 1.362 . S
C1007 H997 0.930 . S
C1007 C1000 1.409 . S
C1007 C1006 1.362 . S
H1008 C1014 0.930 . S
H1009 C1017 0.930 . S
H1010 C1018 0.930 . S
H1011 C1019 0.930 . S
H1012 C1022 0.930 1_545 S
H1013 C1023 0.930 1_545 S
C1014 H1008 0.930 . S
C1014 C1015 1.355 . S
C1014 C1016 1.415 . S
C1015 C1014 1.355 . S
C1015 C1017 1.419 . S
C1016 C1014 1.415 . S
C1016 C1021 1.425 . S
C1016 C1023 1.409 . S
C1017 H1009 0.930 . S
C1017 C1015 1.419 . S
C1017 C1018 1.362 . S
C1018 H1010 0.930 . S
C1018 C1017 1.362 . S
C1018 C1021 1.409 . S
C1019 H1011 0.930 . S
C1019 C1020 1.355 . S
C1019 C1021 1.415 . S
C1020 C1019 1.355 . S
C1020 C1022 1.419 . S
C1021 C1016 1.425 . S
C1021 C1018 1.409 . S
C1021 C1019 1.415 . S
C1022 H1012 0.930 1_565 S
C1022 C1020 1.419 . S
C1022 C1023 1.362 . S
C1023 H1013 0.930 1_565 S
C1023 C1016 1.409 . S
C1023 C1022 1.362 . S
H1024 C1030 0.930 . S
H1025 C1033 0.930 . S
H1026 C1034 0.930 . S
H1027 C1035 0.930 . S
H1028 C1038 0.930 . S
H1029 C1039 0.930 . S
C1030 H1024 0.930 . S
C1030 C1031 1.355 . S
C1030 C1032 1.415 . S
C1031 C1030 1.355 . S
C1031 C1033 1.419 . S
C1032 C1030 1.415 . S
C1032 C1037 1.425 . S
C1032 C1039 1.409 . S
C1033 H1025 0.930 . S
C1033 C1031 1.419 . S
C1033 C1034 1.362 . S
C1034 H1026 0.930 . S
C1034 C1033 1.362 . S
C1034 C1037 1.409 . S
C1035 H1027 0.930 . S
C1035 C1036 1.355 . S
C1035 C1037 1.415 . S
C1036 C1035 1.355 . S
C1036 C1038 1.419 . S
C1037 C1032 1.425 . S
C1037 C1034 1.409 . S
C1037 C1035 1.415 . S
C1038 H1028 0.930 . S
C1038 C1036 1.419 . S
C1038 C1039 1.362 . S
C1039 H1029 0.930 . S
C1039 C1032 1.409 . S
C1039 C1038 1.362 . S
H1040 C1046 0.930 . S
H1041 C1049 0.930 . S
H1042 C1050 0.930 . S
H1043 C1051 0.930 . S
H1044 C1054 0.930 . S
H1045 C1055 0.930 . S
C1046 H1040 0.930 . S
C1046 C1047 1.355 . S
C1046 C1048 1.415 . S
C1047 C1046 1.355 . S
C1047 C1049 1.419 . S
C1048 C1046 1.415 . S
C1048 C1053 1.425 . S
C1048 C1055 1.409 . S
C1049 H1041 0.930 . S
C1049 C1047 1.419 . S
C1049 C1050 1.362 . S
C1050 H1042 0.930 . S
C1050 C1049 1.362 . S
C1050 C1053 1.409 . S
C1051 H1043 0.930 . S
C1051 C1052 1.355 . S
C1051 C1053 1.415 . S
C1052 C1051 1.355 . S
C1052 C1054 1.419 . S
C1053 C1048 1.425 . S
C1053 C1050 1.409 . S
C1053 C1051 1.415 . S
C1054 H1044 0.930 . S
C1054 C1052 1.419 . S
C1054 C1055 1.362 . S
C1055 H1045 0.930 . S
C1055 C1048 1.409 . S
C1055 C1054 1.362 . S
H1056 C1062 0.930 . S
H1057 C1065 0.930 . S
H1058 C1066 0.930 . S
H1059 C1067 0.930 . S
H1060 C1070 0.930 . S
H1061 C1071 0.930 . S
C1062 H1056 0.930 . S
C1062 C1063 1.355 . S
C1062 C1064 1.415 . S
C1063 C1062 1.355 . S
C1063 C1065 1.419 . S
C1064 C1062 1.415 . S
C1064 C1069 1.425 . S
C1064 C1071 1.409 . S
C1065 H1057 0.930 . S
C1065 C1063 1.419 . S
C1065 C1066 1.362 . S
C1066 H1058 0.930 . S
C1066 C1065 1.362 . S
C1066 C1069 1.409 . S
C1067 H1059 0.930 . S
C1067 C1068 1.355 . S
C1067 C1069 1.415 . S
C1068 C1067 1.355 . S
C1068 C1070 1.419 . S
C1069 C1064 1.425 . S
C1069 C1066 1.409 . S
C1069 C1067 1.415 . S
C1070 H1060 0.930 . S
C1070 C1068 1.419 . S
C1070 C1071 1.362 . S
C1071 H1061 0.930 . S
C1071 C1064 1.409 . S
C1071 C1070 1.362 . S
H1072 C1078 0.930 . S
H1073 C1081 0.930 . S
H1074 C1082 0.930 . S
H1075 C1083 0.930 . S
H1076 C1086 0.930 . S
H1077 C1087 0.930 . S
C1078 H1072 0.930 . S
C1078 C1079 1.355 . S
C1078 C1080 1.415 . S
C1079 C1078 1.355 . S
C1079 C1081 1.419 . S
C1080 C1078 1.415 . S
C1080 C1085 1.425 . S
C1080 C1087 1.409 . S
C1081 H1073 0.930 . S
C1081 C1079 1.419 . S
C1081 C1082 1.362 . S
C1082 H1074 0.930 . S
C1082 C1081 1.362 . S
C1082 C1085 1.409 . S
C1083 H1075 0.930 . S
C1083 C1084 1.355 . S
C1083 C1085 1.415 . S
C1084 C1083 1.355 . S
C1084 C1086 1.419 . S
C1085 C1080 1.425 . S
C1085 C1082 1.409 . S
C1085 C1083 1.415 . S
C1086 H1076 0.930 . S
C1086 C1084 1.419 . S
C1086 C1087 1.362 . S
C1087 H1077 0.930 . S
C1087 C1080 1.409 . S
C1087 C1086 1.362 . S
H1088 C1094 0.930 . S
H1089 C1097 0.930 . S
H1090 C1098 0.930 . S
H1091 C1099 0.930 . S
H1092 C1102 0.930 . S
H1093 C1103 0.930 . S
C1094 H1088 0.930 . S
C1094 C1095 1.355 . S
C1094 C1096 1.415 . S
C1095 C1094 1.355 . S
C1095 C1097 1.419 . S
C1096 C1094 1.415 . S
C1096 C1101 1.425 . S
C1096 C1103 1.409 . S
C1097 H1089 0.930 . S
C1097 C1095 1.419 . S
C1097 C1098 1.362 . S
C1098 H1090 0.930 . S
C1098 C1097 1.362 . S
C1098 C1101 1.409 . S
C1099 H1091 0.930 . S
C1099 C1100 1.355 . S
C1099 C1101 1.415 . S
C1100 C1099 1.355 . S
C1100 C1102 1.419 . S
C1101 C1096 1.425 . S
C1101 C1098 1.409 . S
C1101 C1099 1.415 . S
C1102 H1092 0.930 . S
C1102 C1100 1.419 . S
C1102 C1103 1.362 . S
C1103 H1093 0.930 . S
C1103 C1096 1.409 . S
C1103 C1102 1.362 . S
H1104 C1110 0.930 . S
H1105 C1113 0.930 . S
H1106 C1114 0.930 . S
H1107 C1115 0.930 . S
H1108 C1118 0.930 . S
H1109 C1119 0.930 . S
C1110 H1104 0.930 . S
C1110 C1111 1.355 . S
C1110 C1112 1.415 . S
C1111 C1110 1.355 . S
C1111 C1113 1.419 . S
C1112 C1110 1.415 . S
C1112 C1117 1.425 . S
C1112 C1119 1.409 . S
C1113 H1105 0.930 . S
C1113 C1111 1.419 . S
C1113 C1114 1.362 . S
C1114 H1106 0.930 . S
C1114 C1113 1.362 . S
C1114 C1117 1.409 . S
C1115 H1107 0.930 . S
C1115 C1116 1.355 . S
C1115 C1117 1.415 . S
C1116 C1115 1.355 . S
C1116 C1118 1.419 . S
C1117 C1112 1.425 . S
C1117 C1114 1.409 . S
C1117 C1115 1.415 . S
C1118 H1108 0.930 . S
C1118 C1116 1.419 . S
C1118 C1119 1.362 . S
C1119 H1109 0.930 . S
C1119 C1112 1.409 . S
C1119 C1118 1.362 . S
H1120 C1126 0.930 . S
H1121 C1129 0.930 . S
H1122 C1130 0.930 . S
H1123 C1131 0.930 . S
H1124 C1134 0.930 . S
H1125 C1135 0.930 . S
C1126 H1120 0.930 . S
C1126 C1127 1.355 . S
C1126 C1128 1.415 . S
C1127 C1126 1.355 . S
C1127 C1129 1.419 . S
C1128 C1126 1.415 . S
C1128 C1133 1.425 . S
C1128 C1135 1.409 . S
C1129 H1121 0.930 . S
C1129 C1127 1.419 . S
C1129 C1130 1.362 . S
C1130 H1122 0.930 . S
C1130 C1129 1.362 . S
C1130 C1133 1.409 . S
C1131 H1123 0.930 . S
C1131 C1132 1.355 . S
C1131 C1133 1.415 . S
C1132 C1131 1.355 . S
C1132 C1134 1.419 . S
C1133 C1128 1.425 . S
C1133 C1130 1.409 . S
C1133 C1131 1.415 . S
C1134 H1124 0.930 . S
C1134 C1132 1.419 . S
C1134 C1135 1.362 . S
C1135 H1125 0.930 . S
C1135 C1128 1.409 . S
C1135 C1134 1.362 . S
H1136 C1142 0.930 . S
H1137 C1145 0.930 . S
H1138 C1146 0.930 . S
H1139 C1147 0.930 . S
H1140 C1150 0.930 . S
H1141 C1151 0.930 . S
C1142 H1136 0.930 . S
C1142 C1143 1.355 . S
C1142 C1144 1.415 . S
C1143 C1142 1.355 . S
C1143 C1145 1.419 . S
C1144 C1142 1.415 . S
C1144 C1149 1.425 . S
C1144 C1151 1.409 . S
C1145 H1137 0.930 . S
C1145 C1143 1.419 . S
C1145 C1146 1.362 . S
C1146 H1138 0.930 . S
C1146 C1145 1.362 . S
C1146 C1149 1.409 . S
C1147 H1139 0.930 . S
C1147 C1148 1.355 . S
C1147 C1149 1.415 . S
C1148 C1147 1.355 . S
C1148 C1150 1.419 . S
C1149 C1144 1.425 . S
C1149 C1146 1.409 . S
C1149 C1147 1.415 . S
C1150 H1140 0.930 . S
C1150 C1148 1.419 . S
C1150 C1151 1.362 . S
C1151 H1141 0.930 . S
C1151 C1144 1.409 . S
C1151 C1150 1.362 . S
H1152 C1158 0.930 . S
H1153 C1161 0.930 . S
H1154 C1162 0.930 . S
H1155 C1163 0.930 . S
H1156 C1166 0.930 . S
H1157 C1167 0.930 . S
C1158 H1152 0.930 . S
C1158 C1159 1.355 . S
C1158 C1160 1.415 . S
C1159 C1158 1.355 . S
C1159 C1161 1.419 . S
C1160 C1158 1.415 . S
C1160 C1165 1.425 . S
C1160 C1167 1.409 . S
C1161 H1153 0.930 . S
C1161 C1159 1.419 . S
C1161 C1162 1.362 . S
C1162 H1154 0.930 . S
C1162 C1161 1.362 . S
C1162 C1165 1.409 . S
C1163 H1155 0.930 . S
C1163 C1164 1.355 . S
C1163 C1165 1.415 . S
C1164 C1163 1.355 . S
C1164 C1166 1.419 . S
C1165 C1160 1.425 . S
C1165 C1162 1.409 . S
C1165 C1163 1.415 . S
C1166 H1156 0.930 . S
C1166 C1164 1.419 . S
C1166 C1167 1.362 . S
C1167 H1157 0.930 . S
C1167 C1160 1.409 . S
C1167 C1166 1.362 . S
C535 N134 1.586 1_455 S
C540 N2 1.591 . S
C551 N167 1.545 . S
C556 N35 1.547 . S
C567 N68 1.591 . S
C572 N200 1.592 . S
C583 N233 1.553 . S
C588 N101 1.549 . S
C599 N398 1.592 . S
C604 N266 1.593 . S
C615 N299 1.545 . S
C620 N431 1.546 . S
C631 N332 1.588 . S
C636 N464 1.584 . S
C647 N365 1.575 . S
C652 N497 1.580 . S
C663 C7 1.723 . S
C668 C414 1.816 . S
C679 C40 1.645 . S
C684 C447 1.767 . S
C695 C480 1.815 . S
C700 C73 1.721 . S
C711 C106 1.627 . S
C716 C513 1.747 . S
C727 C282 1.748 . S
C732 C139 1.631 . S
C743 C315 1.782 . S
C748 C172 1.686 . S
C759 C205 1.631 . S
C764 C348 1.755 . S
C775 C381 1.749 . S
C780 C238 1.626 . S
C791 C271 1.639 . S
C796 C150 1.752 . S
C807 C304 1.722 . S
C812 C183 1.811 . S
C823 C216 1.747 . S
C828 C337 1.626 . S
C839 C370 1.627 . S
C844 C249 1.751 . S
C855 C403 1.688 . S
C860 C18 1.797 . S
C871 C436 1.724 . S
C876 C51 1.814 . S
C887 C469 1.699 . S
C892 C84 1.804 . S
C903 C117 1.760 . S
C908 C502 1.653 . S
C919 N244 1.866 . S
C924 N13 1.850 . S
C935 N46 1.843 . S
C940 N145 1.845 . S
C951 N178 1.867 . S
C956 N79 1.850 . S
C967 N211 1.864 . S
C972 N112 1.853 . S
C983 N277 1.854 . S
C988 N508 1.835 . S
C999 N409 1.868 . S
C1004 N310 1.829 . S
C1015 N343 1.840 . S
C1020 N442 1.872 . S
C1031 N475 1.862 . S
C1036 N376 1.856 . S
C1047 C87 0.765 . S
C1052 C21 0.766 . S
C1063 C120 0.601 . S
C1068 C54 0.593 . S
C1079 C153 0.756 . S
C1084 C219 0.745 . S
C1095 C252 0.605 . S
C1100 C186 0.595 . S
C1111 C285 0.590 . S
C1116 C351 0.594 . S
C1127 C384 0.631 . S
C1132 C318 0.614 . S
C1143 C417 0.764 . S
C1148 C483 0.756 . S
C1159 C450 0.608 . S
C1164 C516 0.623 . S
