# Generated by pormake.
# Topology sml, (6)-cn, num edge types: 1
# Building blocks:
#     Node 0, Type 0, BuildingBlock: PAMTUU_clean_sbu_0, # of connection points: 6
#     Node 1, Type 0, BuildingBlock: PAMTUU_clean_sbu_0, # of connection points: 6
#     Node 2, Type 0, BuildingBlock: PAMTUU_clean_sbu_0, # of connection points: 6
#     Node 3, Type 0, BuildingBlock: PAMTUU_clean_sbu_0, # of connection points: 6
#     Node 4, Type 0, BuildingBlock: PAMTUU_clean_sbu_0, # of connection points: 6
#     Node 5, Type 0, BuildingBlock: PAMTUU_clean_sbu_0, # of connection points: 6
#     Edge 6, Type (0, 0), BuildingBlock: EZIPEK_clean_linker_0, # of connection points: 2
#     Edge 7, Type (0, 0), BuildingBlock: EZIPEK_clean_linker_0, # of connection points: 2
#     Edge 8, Type (0, 0), BuildingBlock: EZIPEK_clean_linker_0, # of connection points: 2
#     Edge 9, Type (0, 0), BuildingBlock: EZIPEK_clean_linker_0, # of connection points: 2
#     Edge 10, Type (0, 0), BuildingBlock: EZIPEK_clean_linker_0, # of connection points: 2
#     Edge 11, Type (0, 0), BuildingBlock: EZIPEK_clean_linker_0, # of connection points: 2
#     Edge 12, Type (0, 0), BuildingBlock: EZIPEK_clean_linker_0, # of connection points: 2
#     Edge 13, Type (0, 0), BuildingBlock: EZIPEK_clean_linker_0, # of connection points: 2
#     Edge 14, Type (0, 0), BuildingBlock: EZIPEK_clean_linker_0, # of connection points: 2
#     Edge 15, Type (0, 0), BuildingBlock: EZIPEK_clean_linker_0, # of connection points: 2
#     Edge 16, Type (0, 0), BuildingBlock: EZIPEK_clean_linker_0, # of connection points: 2
#     Edge 17, Type (0, 0), BuildingBlock: EZIPEK_clean_linker_0, # of connection points: 2
#     Edge 18, Type (0, 0), BuildingBlock: EZIPEK_clean_linker_0, # of connection points: 2
#     Edge 19, Type (0, 0), BuildingBlock: EZIPEK_clean_linker_0, # of connection points: 2
#     Edge 20, Type (0, 0), BuildingBlock: EZIPEK_clean_linker_0, # of connection points: 2
#     Edge 21, Type (0, 0), BuildingBlock: EZIPEK_clean_linker_0, # of connection points: 2
#     Edge 22, Type (0, 0), BuildingBlock: EZIPEK_clean_linker_0, # of connection points: 2
#     Edge 23, Type (0, 0), BuildingBlock: EZIPEK_clean_linker_0, # of connection points: 2
# Relax obj value: 0.273
# Max RMSD: 0.281
# Mean RMSD: 0.281
data_MOF--net-sml--node1-PAMTUU_clean_sbu_0--edge1-EZIPEK_clean_linker_0
_symmetry_space_group_name_H-M    P1
_symmetry_Int_Tables_number       1
_symmetry_cell_setting            triclinic
loop_
_symmetry_equiv_pos_as_xyz
'x, y, z'
_cell_length_a     22.337824
_cell_length_b     22.576448
_cell_length_c     20.221836
_cell_angle_alpha  89.754353
_cell_angle_beta   90.461523
_cell_angle_gamma 120.81392
loop_
_atom_site_label
_atom_site_type_symbol
_atom_site_fract_x
_atom_site_fract_y
_atom_site_fract_z
_atom_type_partial_charge
Tb0 Tb 0.23192 0.3962 0.1138 0.0
Tb1 Tb 0.12461 0.38631 0.984 0.0
C2 C 0.30023 0.48513 0.98939 0.0
C3 C 0.27805 0.40787 0.29545 0.0
C4 C 0.25543 0.42223 0.43068 0.0
C5 C 0.32434 0.45292 0.40651 0.0
C6 C 0.33548 0.44697 0.33848 0.0
C7 C 0.21106 0.37586 0.32226 0.0
C8 C 0.19994 0.38564 0.38716 0.0
C9 C 0.28601 0.39338 0.22492 0.0
O10 O 0.20957 0.47962 0.12712 0.0
O11 O 0.1188 0.4592 0.05587 0.0
O12 O 0.04856 0.31729 0.05385 0.0
O13 O 0.12848 0.29832 0.1079 0.0
O14 O 0.15011 0.41791 0.89156 0.0
O15 O 0.04123 0.36197 0.91134 0.0
O16 O 0.1409 0.3002 0.97597 0.0
O17 O 0.24187 0.33428 0.03819 0.0
O18 O 0.31678 0.46358 0.04655 0.0
O19 O 0.23458 0.45655 0.97377 0.0
C20 C 0.15852 0.48934 0.10893 0.0
O21 O 0.23186 0.341 0.19747 0.0
O22 O 0.31495 0.44496 0.18396 0.0
C23 C 0.0646 0.28748 0.10004 0.0
C24 C 0.08682 0.36852 0.79674 0.0
C25 C 0.10196 0.36379 0.65871 0.0
C26 C 0.03484 0.33781 0.68577 0.0
C27 C 0.02771 0.34217 0.75487 0.0
C28 C 0.15167 0.38755 0.76781 0.0
C29 C 0.15927 0.38791 0.70079 0.0
C30 C 0.08902 0.39281 0.86602 0.0
C31 C 0.1994 0.30075 0.98591 0.0
H32 H 0.36854 0.48069 0.43954 0.0
H33 H 0.38834 0.47054 0.32015 0.0
H34 H 0.16653 0.33819 0.29465 0.0
H35 H 0.14685 0.3593 0.4052 0.0
H36 H -0.01056 0.31733 0.65384 0.0
H37 H 0.97962 0.328 0.77524 0.0
H38 H 0.19936 0.40735 0.79639 0.0
H39 H 0.21145 0.40763 0.68157 0.0
Tb40 Tb 0.82102 0.24597 0.44102 0.0
Tb41 Tb 0.72093 0.13899 0.31237 0.0
C42 C 0.80157 0.31039 0.31556 0.0
C43 C 0.84138 0.2874 0.62309 0.0
C44 C 0.80491 0.26628 0.75745 0.0
C45 C 0.85782 0.33192 0.73584 0.0
C46 C 0.87424 0.34295 0.66815 0.0
C47 C 0.78381 0.22493 0.64478 0.0
C48 C 0.76284 0.21668 0.71024 0.0
C49 C 0.87022 0.29268 0.55564 0.0
O50 O 0.71739 0.22987 0.42938 0.0
O51 O 0.64574 0.12289 0.39203 0.0
O52 O 0.73132 0.06594 0.37029 0.0
O53 O 0.77021 0.13651 0.46241 0.0
O54 O 0.69039 0.1528 0.21807 0.0
O55 O 0.67942 0.05587 0.24298 0.0
O56 O 0.82326 0.15147 0.32003 0.0
O57 O 0.89599 0.2553 0.36722 0.0
O58 O 0.83572 0.32569 0.37213 0.0
O59 O 0.75941 0.24719 0.29487 0.0
C60 C 0.65964 0.17118 0.43693 0.0
O61 O 0.8623 0.23567 0.53082 0.0
O62 O 0.8589 0.32769 0.51114 0.0
C63 C 0.74591 0.07649 0.43313 0.0
C64 C 0.70909 0.09482 0.12919 0.0
C65 C 0.74876 0.11267 0.99207 0.0
C66 C 0.69732 0.04748 1.01505 0.0
C67 C 0.67859 0.03815 0.08495 0.0
C68 C 0.76512 0.15715 0.1057 0.0
C69 C 0.78813 0.16395 0.04105 0.0
C70 C 0.67715 0.09334 0.19517 0.0
C71 C 0.88405 0.20741 0.3232 0.0
H72 H 0.89038 0.37181 0.77108 0.0
H73 H 0.9174 0.39238 0.65225 0.0
H74 H 0.75606 0.18162 0.61133 0.0
H75 H 0.72038 0.16647 0.7256 0.0
H76 H 0.66613 0.00624 0.98057 0.0
H77 H 0.63331 -0.00973 0.09839 0.0
H78 H 0.78903 0.20178 0.13681 0.0
H79 H 0.82903 0.21528 1.02179 0.0
Tb80 Tb 0.56936 0.83595 0.77782 0.0
Tb81 Tb 0.57085 0.73786 0.64817 0.0
C82 C 0.47366 0.81069 0.65716 0.0
C83 C 0.55636 0.8629 0.959 0.0
C84 C 0.54236 0.82426 0.09739 0.0
C85 C 0.51406 0.86379 0.07333 0.0
C86 C 0.52004 0.88244 1.00256 0.0
C87 C 0.58193 0.82196 0.98407 0.0
C88 C 0.57342 0.80106 0.05277 0.0
C89 C 0.57416 0.89006 0.88971 0.0
O90 O 0.48078 0.73179 0.78853 0.0
O91 O 0.50807 0.66241 0.72667 0.0
O92 O 0.64678 0.73422 0.70901 0.0
O93 O 0.64211 0.79942 0.79477 0.0
O94 O 0.51888 0.68762 0.5605 0.0
O95 O 0.61929 0.70241 0.58091 0.0
O96 O 0.66464 0.84087 0.64867 0.0
O97 O 0.62976 0.90923 0.69834 0.0
O98 O 0.49956 0.84682 0.71143 0.0
O99 O 0.49057 0.76633 0.63465 0.0
C100 C 0.47547 0.67205 0.77664 0.0
O101 O 0.62646 0.88906 0.86236 0.0
O102 O 0.52317 0.87076 0.84766 0.0
C103 C 0.66655 0.76348 0.76675 0.0
C104 C 0.5915 0.70872 0.46693 0.0
C105 C 0.60402 0.73695 0.32982 0.0
C106 C 0.63285 0.69935 0.35733 0.0
C107 C 0.62767 0.68646 0.42623 0.0
C108 C 0.56662 0.74853 0.43793 0.0
C109 C 0.57507 0.76455 0.37159 0.0
C110 C 0.57078 0.68382 0.53653 0.0
C111 C 0.66796 0.90023 0.65437 0.0
H112 H 0.48935 0.88215 0.10671 0.0
H113 H 0.49978 0.91429 0.9849 0.0
H114 H 0.6125 0.80835 0.95337 0.0
H115 H 0.5953 0.77034 0.06981 0.0
H116 H 0.65739 0.67913 0.32602 0.0
H117 H 0.64879 0.65677 0.44728 0.0
H118 H 0.53379 0.76163 0.46485 0.0
H119 H 0.55298 0.79411 0.35174 0.0
Tb120 Tb 0.71578 0.56506 0.11302 0.0
Tb121 Tb 0.82745 0.57927 0.97336 0.0
C122 C 0.65232 0.48379 0.98978 0.0
C123 C 0.6654 0.55016 0.29688 0.0
C124 C 0.68074 0.53523 0.43397 0.0
C125 C 0.6171 0.52704 0.40919 0.0
C126 C 0.60766 0.52899 0.33956 0.0
C127 C 0.72587 0.55749 0.3254 0.0
C128 C 0.72481 0.53229 0.38786 0.0
C129 C 0.66707 0.57232 0.2262 0.0
O130 O 0.73717 0.47913 0.11329 0.0
O131 O 0.83638 0.50972 0.04991 0.0
O132 O 0.90115 0.66249 1.03293 0.0
O133 O 0.82768 0.63708 0.12601 0.0
O134 O 0.80298 0.53778 0.87745 0.0
O135 O 0.90941 0.60907 0.90573 0.0
O136 O 0.80883 0.66448 0.96557 0.0
O137 O 0.71852 0.64006 0.04152 0.0
O138 O 0.6295 0.49319 0.0479 0.0
O139 O 0.71895 0.52012 0.98355 0.0
C140 C 0.79375 0.47563 0.09993 0.0
O141 O 0.72807 0.61706 0.20276 0.0
O142 O 0.63134 0.52567 0.18169 0.0
C143 C 0.88887 0.67118 0.09667 0.0
C144 C 0.87572 0.61664 0.79411 0.0
C145 C 0.859 0.63661 0.65998 0.0
C146 C 0.91859 0.63547 0.68106 0.0
C147 C 0.92702 0.62632 0.74819 0.0
C148 C 0.82579 0.63344 0.77415 0.0
C149 C 0.8204 0.64767 0.70798 0.0
C150 C 0.86684 0.57729 0.85665 0.0
C151 C 0.75758 0.67259 0.9863 0.0
H152 H 0.57825 0.52563 0.44178 0.0
H153 H 0.55948 0.52336 0.32058 0.0
H154 H 0.77534 0.58461 0.30038 0.0
H155 H 0.77243 0.53597 0.4055 0.0
H156 H 0.95092 0.62816 0.64658 0.0
H157 H 0.96556 0.61311 0.76105 0.0
H158 H 0.78853 0.63157 0.80893 0.0
H159 H 0.7766 0.6532 0.69339 0.0
Tb160 Tb 0.12865 0.72393 0.44483 0.0
Tb161 Tb 0.23114 0.83986 0.31534 0.0
C162 C 0.15156 0.66363 0.31924 0.0
C163 C 0.10329 0.67458 0.62932 0.0
C164 C 0.13385 0.70311 0.76595 0.0
C165 C 0.09184 0.63386 0.74423 0.0
C166 C 0.0751 0.6199 0.67586 0.0
C167 C 0.15357 0.73928 0.65279 0.0
C168 C 0.16493 0.7547 0.71893 0.0
C169 C 0.08068 0.66584 0.55782 0.0
O170 O 0.23386 0.7434 0.43676 0.0
O171 O 0.30531 0.8505 0.39727 0.0
O172 O 0.2465 0.92689 0.37248 0.0
O173 O 0.18066 0.83614 0.43349 0.0
O174 O 0.27965 0.83383 0.22956 0.0
O175 O 0.26355 0.91913 0.24368 0.0
O176 O 0.12356 0.81659 0.30922 0.0
O177 O 0.053 0.71801 0.37261 0.0
O178 O 0.12034 0.64652 0.37673 0.0
O179 O 0.18559 0.72868 0.299 0.0
C180 C 0.29236 0.8021 0.44239 0.0
O181 O 0.07053 0.71282 0.5311 0.0
O182 O 0.11255 0.64794 0.51627 0.0
C183 C 0.21199 0.90377 0.42669 0.0
C184 C 0.25307 0.8776 0.1336 0.0
C185 C 0.228 0.85833 0.994 0.0
C186 C 0.26315 0.92574 1.01971 0.0
C187 C 0.27619 0.93485 0.09098 0.0
C188 C 0.21072 0.81084 0.10776 0.0
C189 C 0.20013 0.80104 0.04016 0.0
C190 C 0.28107 0.88698 0.20207 0.0
C191 C 0.06363 0.75975 0.32187 0.0
H192 H 0.06985 0.59187 0.77953 0.0
H193 H 0.03937 0.56736 0.65983 0.0
H194 H 0.19086 0.77613 0.6212 0.0
H195 H 0.20302 0.8072 0.7335 0.0
H196 H 0.2822 0.96972 0.98709 0.0
H197 H 0.30695 0.98682 0.11025 0.0
H198 H 0.18983 0.76573 0.13935 0.0
H199 H 0.17044 0.7494 1.01838 0.0
Tb200 Tb 0.39547 0.14143 0.77643 0.0
Tb201 Tb 0.39029 0.24029 0.64516 0.0
C202 C 0.48099 0.1615 0.64961 0.0
C203 C 0.39523 0.09705 0.95728 0.0
C204 C 0.404 0.1285 0.09625 0.0
C205 C 0.44688 0.10518 0.07012 0.0
C206 C 0.44064 0.08781 0.99964 0.0
C207 C 0.35285 0.11958 0.98485 0.0
C208 C 0.35393 0.1297 0.05491 0.0
C209 C 0.3887 0.08065 0.88526 0.0
O210 O 0.48918 0.24425 0.77344 0.0
O211 O 0.45727 0.31457 0.72157 0.0
O212 O 0.3159 0.24389 0.70941 0.0
O213 O 0.32235 0.17759 0.79422 0.0
O214 O 0.44496 0.29995 0.56252 0.0
O215 O 0.33778 0.26728 0.57336 0.0
O216 O 0.30052 0.13578 0.65486 0.0
O217 O 0.33838 0.0677 0.69895 0.0
O218 O 0.46126 0.12969 0.70681 0.0
O219 O 0.45826 0.2 0.62353 0.0
C220 C 0.49242 0.304 0.76847 0.0
O221 O 0.3357 0.07783 0.85445 0.0
O222 O 0.44463 0.11204 0.84933 0.0
C223 C 0.29536 0.21193 0.7664 0.0
C224 C 0.3804 0.27788 0.46107 0.0
C225 C 0.37264 0.24977 0.32293 0.0
C226 C 0.32658 0.26765 0.35112 0.0
C227 C 0.33148 0.2829 0.41929 0.0
C228 C 0.42432 0.25841 0.43145 0.0
C229 C 0.42337 0.24904 0.36376 0.0
C230 C 0.39076 0.29649 0.53378 0.0
C231 C 0.30297 0.07907 0.65401 0.0
H232 H 0.48624 0.10371 0.1005 0.0
H233 H 0.47321 0.06936 0.97995 0.0
H234 H 0.31754 0.12783 0.95458 0.0
H235 H 0.31914 0.14599 0.07363 0.0
H236 H 0.28551 0.26701 0.32165 0.0
H237 H 0.29466 0.29528 0.43827 0.0
H238 H 0.46161 0.25201 0.46043 0.0
H239 H 0.4595 0.23507 0.34381 0.0
C240 C 0.19245 0.20289 0.82875 0.0
C241 C 0.26444 0.23778 0.81412 0.0
C242 C 0.29485 0.30257 0.91735 0.0
C243 C 0.22216 0.27025 0.93316 0.0
N244 N 0.10164 0.18395 0.90626 0.0
N245 N 0.37865 0.33458 0.83085 0.0
C246 C 0.17068 0.21881 0.88913 0.0
C247 C 0.31365 0.29057 0.85511 0.0
N248 N 0.14596 0.15547 0.78472 0.0
N249 N 0.34763 0.34744 0.95875 0.0
H250 H 0.3861 0.34108 0.78037 0.0
H251 H 0.41921 0.37566 0.85636 0.0
H252 H 0.34503 0.37108 1.00114 0.0
H253 H 0.39869 0.35802 0.95419 0.0
H254 H 0.09214 0.12686 0.79091 0.0
H255 H 0.1625 0.1457 0.74013 0.0
H256 H 0.06061 0.15317 0.87437 0.0
H257 H 0.08538 0.18245 0.95464 0.0
C258 C 0.04133 0.30226 0.21483 0.0
C259 C 0.01812 0.26203 0.15671 0.0
C260 C 0.91226 0.17766 0.21027 0.0
C261 C 0.93568 0.21857 0.26994 0.0
N262 N 0.0265 0.3137 0.33031 0.0
N263 N 0.92994 0.16943 0.09257 0.0
C264 C 0.00048 0.27938 0.27211 0.0
C265 C 0.95312 0.20262 0.15204 0.0
N266 N 0.10295 0.36381 0.21505 0.0
N267 N 0.85297 0.1137 0.20989 0.0
H268 H 0.95958 0.18698 0.04969 0.0
H269 H 0.88187 0.12505 0.08424 0.0
H270 H 0.83628 0.08244 0.25166 0.0
H271 H 0.82751 0.08535 0.16801 0.0
H272 H 0.11995 0.40149 0.25134 0.0
H273 H 0.13874 0.3796 0.17811 0.0
H274 H 0.06696 0.36457 0.33527 0.0
H275 H 0.00963 0.28867 0.37558 0.0
C276 C 0.7839 0.03425 0.52687 0.0
C277 C 0.73225 0.02005 0.47792 0.0
C278 C 0.64699 0.92343 0.5394 0.0
C279 C 0.69344 0.94433 0.59413 0.0
N280 N 0.81041 0.01164 0.63767 0.0
N281 N 0.61692 0.94694 0.43164 0.0
C282 C 0.76381 -0.00344 0.58728 0.0
C283 C 0.66411 0.96461 0.48232 0.0
N284 N 0.85175 0.0844 0.51469 0.0
N285 N 0.58598 0.86241 0.54205 0.0
H286 H 0.62385 0.97784 0.39099 0.0
H287 H 0.57029 0.89999 0.42752 0.0
H288 H 0.58382 0.8208 0.56591 0.0
H289 H 0.5417 0.85034 0.51473 0.0
H290 H 0.89271 0.10089 0.54821 0.0
H291 H 0.8679 0.10774 0.46847 0.0
H292 H 0.8623 0.05149 0.637 0.0
H293 H 0.7956 0.98686 0.68171 0.0
C294 C 0.76648 0.78164 0.838 0.0
C295 C 0.69894 0.73743 0.81249 0.0
C296 C 0.66523 0.6647 0.91019 0.0
C297 C 0.73411 0.70605 0.93658 0.0
N298 N 0.85223 0.80247 0.92345 0.0
N299 N 0.59523 0.6257 0.81027 0.0
C300 C 0.78553 0.76443 0.89958 0.0
C301 C 0.65228 0.67517 0.84416 0.0
N302 N 0.81201 0.83847 0.80212 0.0
N303 N 0.61321 0.61191 0.94581 0.0
H304 H 0.59117 0.62692 0.75928 0.0
H305 H 0.55737 0.57821 0.82906 0.0
H306 H 0.61475 0.60576 0.99625 0.0
H307 H 0.56333 0.57783 0.92807 0.0
H308 H 0.86208 0.87529 0.81762 0.0
H309 H 0.79855 0.84862 0.75572 0.0
H310 H 0.8939 0.84128 0.89726 0.0
H311 H 0.8658 0.79457 0.97067 0.0
C312 C -0.00514 0.7836 0.23675 0.0
C313 C 0.01154 0.73622 0.26711 0.0
C314 C 0.97023 0.66171 0.16932 0.0
C315 C 0.9477 0.70496 0.1426 0.0
N316 N 0.93919 0.80668 0.14553 0.0
N317 N 0.0115 0.62859 0.26192 0.0
C318 C 0.96136 0.76625 0.17469 0.0
C319 C -0.00359 0.67444 0.23355 0.0
N320 N 0.01288 0.84447 0.26768 0.0
N321 N 0.95988 0.60535 0.13414 0.0
H322 H 0.01203 0.62204 0.31243 0.0
H323 H 0.01599 0.59134 0.23628 0.0
H324 H 0.95291 0.60241 0.08326 0.0
H325 H 0.9609 0.56293 0.15313 0.0
H326 H 0.00648 0.88337 0.24735 0.0
H327 H 0.03497 0.85622 0.31485 0.0
H328 H 0.9438 0.85092 0.16652 0.0
H329 H 0.91535 0.79511 0.09904 0.0
C330 C 0.23669 0.96341 0.60413 0.0
C331 C 0.27196 0.03235 0.59683 0.0
C332 C 0.24297 0.01618 0.47873 0.0
C333 C 0.22418 0.94983 0.48426 0.0
N334 N 0.18585 0.85455 0.55422 0.0
N335 N 0.30144 0.12942 0.52671 0.0
C336 C 0.21753 0.92254 0.54744 0.0
C337 C 0.27196 0.06024 0.53402 0.0
N338 N 0.21705 0.93287 0.66449 0.0
N339 N 0.22938 0.03923 0.42227 0.0
H340 H 0.34853 0.16261 0.5502 0.0
H341 H 0.28081 0.15195 0.49641 0.0
H342 H 0.20354 0.00617 0.38266 0.0
H343 H 0.23206 0.08657 0.41961 0.0
H344 H 0.18492 0.8796 0.66982 0.0
H345 H 0.22677 0.96089 0.70806 0.0
H346 H 0.21353 0.83159 0.53759 0.0
H347 H 0.13205 0.82861 0.54729 0.0
C348 C 0.14218 0.43119 0.55589 0.0
C349 C 0.11938 0.36701 0.5878 0.0
C350 C 0.21207 0.35816 0.53436 0.0
C351 C 0.23413 0.42085 0.50055 0.0
N352 N 0.23036 0.52404 0.48743 0.0
N353 N 0.12183 0.26238 0.59801 0.0
C354 C 0.20232 0.45982 0.51458 0.0
C355 C 0.14945 0.32699 0.57132 0.0
N356 N 0.10619 0.46432 0.56652 0.0
N357 N 0.2539 0.33094 0.53313 0.0
H358 H 0.07578 0.24024 0.62535 0.0
H359 H 0.1409 0.22942 0.58999 0.0
H360 H 0.30577 0.36193 0.51835 0.0
H361 H 0.23978 0.28249 0.55164 0.0
H362 H 0.11838 0.51135 0.54544 0.0
H363 H 0.06092 0.44179 0.59496 0.0
H364 H 0.20976 0.55585 0.49307 0.0
H365 H 0.27647 0.54585 0.46019 0.0
C366 C 0.73058 0.19038 0.9207 0.0
C367 C 0.74742 0.13757 0.92446 0.0
C368 C 0.81812 0.18231 0.82557 0.0
C369 C 0.80427 0.23768 0.82394 0.0
N370 N 0.76538 0.30534 0.88056 0.0
N371 N 0.7878 0.07004 0.87125 0.0
C372 C 0.76599 0.24523 0.87502 0.0
C373 C 0.78571 0.12956 0.87402 0.0
N374 N 0.68159 0.18785 0.96264 0.0
N375 N 0.86122 0.18014 0.7792 0.0
H376 H 0.76105 0.03018 0.90521 0.0
H377 H 0.81122 0.0578 0.83373 0.0
H378 H 0.88619 0.21866 0.7437 0.0
H379 H 0.87582 0.14307 0.77781 0.0
H380 H 0.6666 0.22469 0.96378 0.0
H381 H 0.65196 0.14507 0.99293 0.0
H382 H 0.74213 0.31619 0.91937 0.0
H383 H 0.79364 0.34665 0.8484 0.0
C384 C 0.64146 0.81686 0.23714 0.0
C385 C 0.59798 0.7481 0.25839 0.0
C386 C 0.50306 0.73811 0.18737 0.0
C387 C 0.54631 0.8077 0.16812 0.0
N388 N 0.64211 0.91827 0.19704 0.0
N389 N 0.4933 0.63802 0.24452 0.0
C390 C 0.61186 0.84855 0.19925 0.0
C391 C 0.5305 0.70684 0.22986 0.0
N392 N 0.70926 0.85273 0.25821 0.0
N393 N 0.43554 0.70341 0.16552 0.0
H394 H 0.51472 0.61514 0.27382 0.0
H395 H 0.44417 0.60342 0.22517 0.0
H396 H 0.41571 0.72823 0.13689 0.0
H397 H 0.39886 0.65275 0.17829 0.0
H398 H 0.745 0.90315 0.24372 0.0
H399 H 0.73052 0.82881 0.28621 0.0
H400 H 0.69136 0.95294 0.21615 0.0
H401 H 0.61056 0.93869 0.18616 0.0
C402 C 0.84169 0.63331 0.53629 0.0
C403 C 0.81991 0.60125 0.59809 0.0
C404 C 0.69777 0.5346 0.55876 0.0
C405 C 0.71861 0.56995 0.49773 0.0
N406 N 0.8079 0.66583 0.4352 0.0
N407 N 0.73456 0.50558 0.66139 0.0
C408 C 0.78999 0.62486 0.49004 0.0
C409 C 0.74995 0.54614 0.60648 0.0
N410 N 0.911 0.66992 0.52134 0.0
N411 N 0.62859 0.49186 0.57157 0.0
H412 H 0.77398 0.50742 0.6911 0.0
H413 H 0.68447 0.46847 0.67596 0.0
H414 H 0.59003 0.4844 0.53774 0.0
H415 H 0.609 0.46759 0.61657 0.0
H416 H 0.93051 0.68857 0.47452 0.0
H417 H 0.94908 0.67736 0.55549 0.0
H418 H 0.85877 0.70035 0.42038 0.0
H419 H 0.76978 0.66777 0.40659 0.0
C420 C 0.11319 0.75344 0.86475 0.0
C421 C 0.15319 0.7283 0.83522 0.0
C422 C 0.25704 0.81803 0.89348 0.0
C423 C 0.2156 0.84161 0.92293 0.0
N424 N 0.11098 0.8463 0.92391 0.0
N425 N 0.26054 0.72894 0.82807 0.0
C426 C 0.14619 0.81523 0.90223 0.0
C427 C 0.22464 0.75824 0.8523 0.0
N428 N 0.0428 0.71398 0.86108 0.0
N429 N 0.32712 0.85332 0.906 0.0
H430 H 0.23563 0.68352 0.80012 0.0
H431 H 0.31287 0.74668 0.83805 0.0
H432 H 0.35038 0.89837 0.93452 0.0
H433 H 0.36215 0.84089 0.88599 0.0
H434 H 0.0086 0.72869 0.87872 0.0
H435 H 0.02078 0.6623 0.84806 0.0
H436 H 0.05973 0.83049 0.9107 0.0
H437 H 0.13611 0.8919 0.95157 0.0
C438 C 0.38999 0.25382 0.20018 0.0
C439 C 0.36182 0.21474 0.25756 0.0
C440 C 0.38778 0.12698 0.21817 0.0
C441 C 0.41575 0.16561 0.16042 0.0
N442 N 0.4602 0.27238 0.10334 0.0
N443 N 0.3123 0.10663 0.31012 0.0
C444 C 0.42315 0.23213 0.15487 0.0
C445 C 0.35366 0.14837 0.262 0.0
N446 N 0.38237 0.30921 0.18831 0.0
N447 N 0.39272 0.06996 0.23008 0.0
H448 H 0.27342 0.11559 0.32612 0.0
H449 H 0.31274 0.06341 0.32759 0.0
H450 H 0.41881 0.05505 0.19776 0.0
H451 H 0.37618 0.04096 0.27323 0.0
H452 H 0.39737 0.33788 0.14487 0.0
H453 H 0.35627 0.32305 0.22168 0.0
H454 H 0.46464 0.31926 0.09054 0.0
H455 H 0.489 0.25746 0.07535 0.0
C456 C 0.20286 0.60428 0.16486 0.0
C457 C 0.14727 0.53523 0.15577 0.0
C458 C 0.09874 0.54122 0.26448 0.0
C459 C 0.15286 0.61223 0.27122 0.0
N460 N 0.26911 0.70059 0.23918 0.0
N461 N 0.03765 0.44032 0.19245 0.0
C462 C 0.20825 0.64056 0.22422 0.0
C463 C 0.09397 0.50452 0.20457 0.0
N464 N 0.25195 0.63446 0.11656 0.0
N465 N 0.05315 0.50804 0.31502 0.0
H466 H 0.03106 0.41465 0.14786 0.0
H467 H -0.0048 0.41409 0.22364 0.0
H468 H 0.05473 0.53131 0.35955 0.0
H469 H 0.01728 0.45519 0.31603 0.0
H470 H 0.2917 0.686 0.116 0.0
H471 H 0.24922 0.60891 0.07278 0.0
H472 H 0.30972 0.72917 0.20667 0.0
H473 H 0.28285 0.71806 0.28771 0.0
C474 C 0.54086 0.10892 0.50031 0.0
C475 C 0.61234 0.16468 0.49505 0.0
C476 C 0.59953 0.20812 0.60467 0.0
C477 C 0.52986 0.15315 0.60758 0.0
N478 N 0.4346 0.04758 0.56608 0.0
N479 N 0.70556 0.27316 0.54434 0.0
C480 C 0.50112 0.10247 0.55785 0.0
C481 C 0.64066 0.2153 0.54831 0.0
N482 N 0.50813 0.06469 0.44887 0.0
N483 N 0.62416 0.25693 0.65395 0.0
H484 H 0.72252 0.3036 0.50215 0.0
H485 H 0.73504 0.30106 0.5849 0.0
H486 H 0.59561 0.25121 0.69649 0.0
H487 H 0.67172 0.30326 0.65403 0.0
H488 H 0.45418 0.03359 0.44456 0.0
H489 H 0.53172 0.06273 0.40595 0.0
H490 H 0.40991 0.00491 0.535 0.0
H491 H 0.40587 0.04058 0.60868 0.0
C492 C 0.42432 0.57894 0.94557 0.0
C493 C 0.35055 0.53658 0.93789 0.0
C494 C 0.36252 0.57385 0.82043 0.0
C495 C 0.4352 0.61743 0.82807 0.0
N496 N 0.52957 0.67947 0.9052 0.0
N497 N 0.25663 0.53767 0.87749 0.0
C498 C 0.46468 0.62457 0.89261 0.0
C499 C 0.32097 0.54449 0.87744 0.0
N500 N 0.4553 0.58114 1.00463 0.0
N501 N 0.3319 0.56761 0.76023 0.0
H502 H 0.23566 0.54483 0.92053 0.0
H503 H 0.23137 0.54099 0.83545 0.0
H504 H 0.36057 0.59305 0.71832 0.0
H505 H 0.27933 0.53212 0.75083 0.0
H506 H 0.50888 0.60691 1.01259 0.0
H507 H 0.42778 0.55665 0.05006 0.0
H508 H 0.553 0.69089 0.95146 0.0
H509 H 0.55883 0.71672 0.8703 0.0
C510 C 0.80253 0.41572 0.27349 0.0
C511 C 0.81623 0.36266 0.26382 0.0
C512 C 0.83136 0.38941 0.1442 0.0
C513 C 0.81421 0.44156 0.15392 0.0
N514 N 0.79374 0.50849 0.23029 0.0
N515 N 0.86279 0.31041 0.19429 0.0
C516 C 0.80691 0.45765 0.21962 0.0
C517 C 0.83636 0.35294 0.20029 0.0
N518 N 0.78723 0.42844 0.33461 0.0
N519 N 0.84008 0.37268 0.08199 0.0
H520 H 0.86843 0.28452 0.23404 0.0
H521 H 0.88753 0.30775 0.15205 0.0
H522 H 0.83743 0.39906 0.04079 0.0
H523 H 0.84614 0.33093 0.07085 0.0
H524 H 0.79137 0.47518 0.34444 0.0
H525 H 0.77715 0.39601 0.37507 0.0
H526 H 0.74245 0.4898 0.24437 0.0
H527 H 0.81823 0.55416 0.20335 0.0
C528 C 0.31487 0.75592 0.55147 0.0
C529 C 0.34146 0.80833 0.5002 0.0
C530 C 0.44895 0.87377 0.56928 0.0
C531 C 0.42318 0.81905 0.61539 0.0
N532 N 0.33077 0.71103 0.65561 0.0
N533 N 0.44433 0.91089 0.4584 0.0
C534 C 0.35514 0.76211 0.60867 0.0
C535 C 0.41106 0.86626 0.5091 0.0
N536 N 0.25234 0.69648 0.54421 0.0
N537 N 0.51126 0.93276 0.58249 0.0
H538 H 0.42233 0.90675 0.41219 0.0
H539 H 0.4975 0.94697 0.45888 0.0
H540 H 0.53984 0.93922 0.62555 0.0
H541 H 0.53177 0.97755 0.55418 0.0
H542 H 0.22019 0.66945 0.58365 0.0
H543 H 0.24073 0.66753 0.50113 0.0
H544 H 0.28407 0.66389 0.65271 0.0
H545 H 0.35843 0.71591 0.69902 0.0
C546 C 0.61268 0.46965 0.87067 0.0
C547 C 0.60813 0.43998 0.93389 0.0
C548 C 0.52702 0.32566 0.88805 0.0
C549 C 0.52987 0.35452 0.82456 0.0
N550 N 0.5654 0.45811 0.76032 0.0
N551 N 0.57719 0.33825 0.99675 0.0
C552 C 0.56961 0.42782 0.81725 0.0
C553 C 0.56983 0.36762 0.94076 0.0
N554 N 0.66176 0.53722 0.85978 0.0
N555 N 0.47795 0.25832 0.90024 0.0
H556 H 0.60279 0.36554 0.04203 0.0
H557 H 0.56788 0.2879 0.99718 0.0
H558 H 0.43231 0.23164 0.87226 0.0
H559 H 0.47666 0.23279 0.94331 0.0
H560 H 0.67216 0.56028 0.81359 0.0
H561 H 0.69735 0.5694 0.89489 0.0
H562 H 0.58575 0.51092 0.75458 0.0
H563 H 0.5377 0.43045 0.71894 0.0
loop_
_geom_bond_atom_site_label_1
_geom_bond_atom_site_label_2
_geom_bond_distance
_geom_bond_site_symmetry_2
_ccdc_geom_bond_type
Tb0 C9 2.764 . S
Tb0 O10 2.325 . S
Tb0 O13 2.303 . S
Tb0 O17 2.322 1_554 S
Tb0 O18 2.349 . S
Tb0 O21 2.415 . S
Tb0 O22 2.399 . S
Tb1 O11 2.322 1_556 S
Tb1 O12 2.349 . S
Tb1 O14 2.415 . S
Tb1 O15 2.399 . S
Tb1 O16 2.325 . S
Tb1 O19 2.303 . S
Tb1 C30 2.764 . S
C2 O18 1.261 1_556 S
C2 O19 1.257 . S
C3 C6 1.358 . S
C3 C7 1.332 . S
C3 C9 1.504 . S
C4 C5 1.373 . S
C4 C8 1.308 . S
C5 C4 1.373 . S
C5 C6 1.429 . S
C5 H32 0.932 . S
C6 C3 1.358 . S
C6 C5 1.429 . S
C6 H33 0.930 . S
C7 C3 1.332 . S
C7 C8 1.394 . S
C7 H34 0.932 . S
C8 C4 1.308 . S
C8 C7 1.394 . S
C8 H35 0.929 . S
C9 Tb0 2.764 . S
C9 C3 1.504 . S
C9 O21 1.239 . S
C9 O22 1.263 . S
O10 Tb0 2.325 . S
O10 C20 1.236 . S
O11 Tb1 2.322 1_554 S
O11 C20 1.257 . S
O12 Tb1 2.349 . S
O12 C23 1.261 1_556 S
O13 Tb0 2.303 . S
O13 C23 1.257 . S
O14 Tb1 2.415 . S
O14 C30 1.239 . S
O15 Tb1 2.399 . S
O15 C30 1.263 . S
O16 Tb1 2.325 . S
O16 C31 1.236 . S
O17 Tb0 2.322 1_556 S
O17 C31 1.257 . S
O18 Tb0 2.349 . S
O18 C2 1.261 1_554 S
O19 Tb1 2.303 . S
O19 C2 1.257 . S
C20 O10 1.236 . S
C20 O11 1.257 . S
O21 Tb0 2.415 . S
O21 C9 1.239 . S
O22 Tb0 2.399 . S
O22 C9 1.263 . S
C23 O12 1.261 1_554 S
C23 O13 1.257 . S
C24 C27 1.358 . S
C24 C28 1.332 . S
C24 C30 1.504 . S
C25 C26 1.373 . S
C25 C29 1.308 . S
C26 C25 1.373 . S
C26 C27 1.429 . S
C26 H36 0.932 1_455 S
C27 C24 1.358 . S
C27 C26 1.429 . S
C27 H37 0.930 1_455 S
C28 C24 1.332 . S
C28 C29 1.394 . S
C28 H38 0.932 . S
C29 C25 1.308 . S
C29 C28 1.394 . S
C29 H39 0.929 . S
C30 Tb1 2.764 . S
C30 O14 1.239 . S
C30 O15 1.263 . S
C30 C24 1.504 . S
C31 O16 1.236 . S
C31 O17 1.257 . S
H32 C5 0.932 . S
H33 C6 0.930 . S
H34 C7 0.932 . S
H35 C8 0.929 . S
H36 C26 0.932 1_655 S
H37 C27 0.930 1_655 S
H38 C28 0.932 . S
H39 C29 0.929 . S
Tb40 C49 2.764 . S
Tb40 O50 2.325 . S
Tb40 O53 2.303 . S
Tb40 O57 2.322 . S
Tb40 O58 2.349 . S
Tb40 O61 2.415 . S
Tb40 O62 2.399 . S
Tb41 O51 2.322 . S
Tb41 O52 2.349 . S
Tb41 O54 2.415 . S
Tb41 O55 2.399 . S
Tb41 O56 2.325 . S
Tb41 O59 2.303 . S
Tb41 C70 2.764 . S
C42 O58 1.261 . S
C42 O59 1.257 . S
C43 C46 1.358 . S
C43 C47 1.332 . S
C43 C49 1.504 . S
C44 C45 1.373 . S
C44 C48 1.308 . S
C45 C44 1.373 . S
C45 C46 1.429 . S
C45 H72 0.932 . S
C46 C43 1.358 . S
C46 C45 1.429 . S
C46 H73 0.930 . S
C47 C43 1.332 . S
C47 C48 1.394 . S
C47 H74 0.932 . S
C48 C44 1.308 . S
C48 C47 1.394 . S
C48 H75 0.929 . S
C49 Tb40 2.764 . S
C49 C43 1.504 . S
C49 O61 1.239 . S
C49 O62 1.263 . S
O50 Tb40 2.325 . S
O50 C60 1.236 . S
O51 Tb41 2.322 . S
O51 C60 1.257 . S
O52 Tb41 2.349 . S
O52 C63 1.261 . S
O53 Tb40 2.303 . S
O53 C63 1.257 . S
O54 Tb41 2.415 . S
O54 C70 1.239 . S
O55 Tb41 2.399 . S
O55 C70 1.263 . S
O56 Tb41 2.325 . S
O56 C71 1.236 . S
O57 Tb40 2.322 . S
O57 C71 1.257 . S
O58 Tb40 2.349 . S
O58 C42 1.261 . S
O59 Tb41 2.303 . S
O59 C42 1.257 . S
C60 O50 1.236 . S
C60 O51 1.257 . S
O61 Tb40 2.415 . S
O61 C49 1.239 . S
O62 Tb40 2.399 . S
O62 C49 1.263 . S
C63 O52 1.261 . S
C63 O53 1.257 . S
C64 C67 1.358 . S
C64 C68 1.332 . S
C64 C70 1.504 . S
C65 C66 1.373 . S
C65 C69 1.308 . S
C66 C65 1.373 . S
C66 C67 1.429 1_556 S
C66 H76 0.932 1_545 S
C67 C64 1.358 . S
C67 C66 1.429 1_554 S
C67 H77 0.930 1_545 S
C68 C64 1.332 . S
C68 C69 1.394 1_554 S
C68 H78 0.932 . S
C69 C65 1.308 . S
C69 C68 1.394 1_556 S
C69 H79 0.929 . S
C70 Tb41 2.764 . S
C70 O54 1.239 . S
C70 O55 1.263 . S
C70 C64 1.504 . S
C71 O56 1.236 . S
C71 O57 1.257 . S
H72 C45 0.932 . S
H73 C46 0.930 . S
H74 C47 0.932 . S
H75 C48 0.929 . S
H76 C66 0.932 1_565 S
H77 C67 0.930 1_565 S
H78 C68 0.932 . S
H79 C69 0.929 . S
Tb80 C89 2.764 . S
Tb80 O90 2.325 . S
Tb80 O93 2.303 . S
Tb80 O97 2.322 . S
Tb80 O98 2.349 . S
Tb80 O101 2.415 . S
Tb80 O102 2.399 . S
Tb81 O91 2.322 . S
Tb81 O92 2.349 . S
Tb81 O94 2.415 . S
Tb81 O95 2.399 . S
Tb81 O96 2.325 . S
Tb81 O99 2.303 . S
Tb81 C110 2.764 . S
C82 O98 1.261 . S
C82 O99 1.257 . S
C83 C86 1.358 . S
C83 C87 1.332 . S
C83 C89 1.504 . S
C84 C85 1.373 . S
C84 C88 1.308 . S
C85 C84 1.373 . S
C85 C86 1.429 1_554 S
C85 H112 0.932 . S
C86 C83 1.358 . S
C86 C85 1.429 1_556 S
C86 H113 0.930 . S
C87 C83 1.332 . S
C87 C88 1.394 1_556 S
C87 H114 0.932 . S
C88 C84 1.308 . S
C88 C87 1.394 1_554 S
C88 H115 0.929 . S
C89 Tb80 2.764 . S
C89 C83 1.504 . S
C89 O101 1.239 . S
C89 O102 1.263 . S
O90 Tb80 2.325 . S
O90 C100 1.236 . S
O91 Tb81 2.322 . S
O91 C100 1.257 . S
O92 Tb81 2.349 . S
O92 C103 1.261 . S
O93 Tb80 2.303 . S
O93 C103 1.257 . S
O94 Tb81 2.415 . S
O94 C110 1.239 . S
O95 Tb81 2.399 . S
O95 C110 1.263 . S
O96 Tb81 2.325 . S
O96 C111 1.236 . S
O97 Tb80 2.322 . S
O97 C111 1.257 . S
O98 Tb80 2.349 . S
O98 C82 1.261 . S
O99 Tb81 2.303 . S
O99 C82 1.257 . S
C100 O90 1.236 . S
C100 O91 1.257 . S
O101 Tb80 2.415 . S
O101 C89 1.239 . S
O102 Tb80 2.399 . S
O102 C89 1.263 . S
C103 O92 1.261 . S
C103 O93 1.257 . S
C104 C107 1.358 . S
C104 C108 1.332 . S
C104 C110 1.504 . S
C105 C106 1.373 . S
C105 C109 1.308 . S
C106 C105 1.373 . S
C106 C107 1.429 . S
C106 H116 0.932 . S
C107 C104 1.358 . S
C107 C106 1.429 . S
C107 H117 0.930 . S
C108 C104 1.332 . S
C108 C109 1.394 . S
C108 H118 0.932 . S
C109 C105 1.308 . S
C109 C108 1.394 . S
C109 H119 0.929 . S
C110 Tb81 2.764 . S
C110 O94 1.239 . S
C110 O95 1.263 . S
C110 C104 1.504 . S
C111 O96 1.236 . S
C111 O97 1.257 . S
H112 C85 0.932 . S
H113 C86 0.930 . S
H114 C87 0.932 . S
H115 C88 0.929 . S
H116 C106 0.932 . S
H117 C107 0.930 . S
H118 C108 0.932 . S
H119 C109 0.929 . S
Tb120 C129 2.764 . S
Tb120 O130 2.325 . S
Tb120 O133 2.303 . S
Tb120 O137 2.322 1_554 S
Tb120 O138 2.349 . S
Tb120 O141 2.415 . S
Tb120 O142 2.399 . S
Tb121 O131 2.322 1_556 S
Tb121 O132 2.349 . S
Tb121 O134 2.415 . S
Tb121 O135 2.399 . S
Tb121 O136 2.325 . S
Tb121 O139 2.303 . S
Tb121 C150 2.764 . S
C122 O138 1.261 1_556 S
C122 O139 1.257 . S
C123 C126 1.358 . S
C123 C127 1.332 . S
C123 C129 1.504 . S
C124 C125 1.373 . S
C124 C128 1.308 . S
C125 C124 1.373 . S
C125 C126 1.429 . S
C125 H152 0.932 . S
C126 C123 1.358 . S
C126 C125 1.429 . S
C126 H153 0.930 . S
C127 C123 1.332 . S
C127 C128 1.394 . S
C127 H154 0.932 . S
C128 C124 1.308 . S
C128 C127 1.394 . S
C128 H155 0.929 . S
C129 Tb120 2.764 . S
C129 C123 1.504 . S
C129 O141 1.239 . S
C129 O142 1.263 . S
O130 Tb120 2.325 . S
O130 C140 1.236 . S
O131 Tb121 2.322 1_554 S
O131 C140 1.257 . S
O132 Tb121 2.349 . S
O132 C143 1.261 1_556 S
O133 Tb120 2.303 . S
O133 C143 1.257 . S
O134 Tb121 2.415 . S
O134 C150 1.239 . S
O135 Tb121 2.399 . S
O135 C150 1.263 . S
O136 Tb121 2.325 . S
O136 C151 1.236 . S
O137 Tb120 2.322 1_556 S
O137 C151 1.257 . S
O138 Tb120 2.349 . S
O138 C122 1.261 1_554 S
O139 Tb121 2.303 . S
O139 C122 1.257 . S
C140 O130 1.236 . S
C140 O131 1.257 . S
O141 Tb120 2.415 . S
O141 C129 1.239 . S
O142 Tb120 2.399 . S
O142 C129 1.263 . S
C143 O132 1.261 1_554 S
C143 O133 1.257 . S
C144 C147 1.358 . S
C144 C148 1.332 . S
C144 C150 1.504 . S
C145 C146 1.373 . S
C145 C149 1.308 . S
C146 C145 1.373 . S
C146 C147 1.429 . S
C146 H156 0.932 1_655 S
C147 C144 1.358 . S
C147 C146 1.429 . S
C147 H157 0.930 1_655 S
C148 C144 1.332 . S
C148 C149 1.394 . S
C148 H158 0.932 . S
C149 C145 1.308 . S
C149 C148 1.394 . S
C149 H159 0.929 . S
C150 Tb121 2.764 . S
C150 O134 1.239 . S
C150 O135 1.263 . S
C150 C144 1.504 . S
C151 O136 1.236 . S
C151 O137 1.257 . S
H152 C125 0.932 . S
H153 C126 0.930 . S
H154 C127 0.932 . S
H155 C128 0.929 . S
H156 C146 0.932 1_455 S
H157 C147 0.930 1_455 S
H158 C148 0.932 . S
H159 C149 0.929 . S
Tb160 C169 2.764 . S
Tb160 O170 2.325 . S
Tb160 O173 2.303 . S
Tb160 O177 2.322 . S
Tb160 O178 2.349 . S
Tb160 O181 2.415 . S
Tb160 O182 2.399 . S
Tb161 O171 2.322 . S
Tb161 O172 2.349 . S
Tb161 O174 2.415 . S
Tb161 O175 2.399 . S
Tb161 O176 2.325 . S
Tb161 O179 2.303 . S
Tb161 C190 2.764 . S
C162 O178 1.261 . S
C162 O179 1.257 . S
C163 C166 1.358 . S
C163 C167 1.332 . S
C163 C169 1.504 . S
C164 C165 1.373 . S
C164 C168 1.308 . S
C165 C164 1.373 . S
C165 C166 1.429 . S
C165 H192 0.932 . S
C166 C163 1.358 . S
C166 C165 1.429 . S
C166 H193 0.930 . S
C167 C163 1.332 . S
C167 C168 1.394 . S
C167 H194 0.932 . S
C168 C164 1.308 . S
C168 C167 1.394 . S
C168 H195 0.929 . S
C169 Tb160 2.764 . S
C169 C163 1.504 . S
C169 O181 1.239 . S
C169 O182 1.263 . S
O170 Tb160 2.325 . S
O170 C180 1.236 . S
O171 Tb161 2.322 . S
O171 C180 1.257 . S
O172 Tb161 2.349 . S
O172 C183 1.261 . S
O173 Tb160 2.303 . S
O173 C183 1.257 . S
O174 Tb161 2.415 . S
O174 C190 1.239 . S
O175 Tb161 2.399 . S
O175 C190 1.263 . S
O176 Tb161 2.325 . S
O176 C191 1.236 . S
O177 Tb160 2.322 . S
O177 C191 1.257 . S
O178 Tb160 2.349 . S
O178 C162 1.261 . S
O179 Tb161 2.303 . S
O179 C162 1.257 . S
C180 O170 1.236 . S
C180 O171 1.257 . S
O181 Tb160 2.415 . S
O181 C169 1.239 . S
O182 Tb160 2.399 . S
O182 C169 1.263 . S
C183 O172 1.261 . S
C183 O173 1.257 . S
C184 C187 1.358 . S
C184 C188 1.332 . S
C184 C190 1.504 . S
C185 C186 1.373 . S
C185 C189 1.308 . S
C186 C185 1.373 . S
C186 C187 1.429 1_556 S
C186 H196 0.932 1_565 S
C187 C184 1.358 . S
C187 C186 1.429 1_554 S
C187 H197 0.930 1_565 S
C188 C184 1.332 . S
C188 C189 1.394 1_554 S
C188 H198 0.932 . S
C189 C185 1.308 . S
C189 C188 1.394 1_556 S
C189 H199 0.929 . S
C190 Tb161 2.764 . S
C190 O174 1.239 . S
C190 O175 1.263 . S
C190 C184 1.504 . S
C191 O176 1.236 . S
C191 O177 1.257 . S
H192 C165 0.932 . S
H193 C166 0.930 . S
H194 C167 0.932 . S
H195 C168 0.929 . S
H196 C186 0.932 1_545 S
H197 C187 0.930 1_545 S
H198 C188 0.932 . S
H199 C189 0.929 . S
Tb200 C209 2.764 . S
Tb200 O210 2.325 . S
Tb200 O213 2.303 . S
Tb200 O217 2.322 . S
Tb200 O218 2.349 . S
Tb200 O221 2.415 . S
Tb200 O222 2.399 . S
Tb201 O211 2.322 . S
Tb201 O212 2.349 . S
Tb201 O214 2.415 . S
Tb201 O215 2.399 . S
Tb201 O216 2.325 . S
Tb201 O219 2.303 . S
Tb201 C230 2.764 . S
C202 O218 1.261 . S
C202 O219 1.257 . S
C203 C206 1.358 . S
C203 C207 1.332 . S
C203 C209 1.504 . S
C204 C205 1.373 . S
C204 C208 1.308 . S
C205 C204 1.373 . S
C205 C206 1.429 1_554 S
C205 H232 0.932 . S
C206 C203 1.358 . S
C206 C205 1.429 1_556 S
C206 H233 0.930 . S
C207 C203 1.332 . S
C207 C208 1.394 1_556 S
C207 H234 0.932 . S
C208 C204 1.308 . S
C208 C207 1.394 1_554 S
C208 H235 0.929 . S
C209 Tb200 2.764 . S
C209 C203 1.504 . S
C209 O221 1.239 . S
C209 O222 1.263 . S
O210 Tb200 2.325 . S
O210 C220 1.236 . S
O211 Tb201 2.322 . S
O211 C220 1.257 . S
O212 Tb201 2.349 . S
O212 C223 1.261 . S
O213 Tb200 2.303 . S
O213 C223 1.257 . S
O214 Tb201 2.415 . S
O214 C230 1.239 . S
O215 Tb201 2.399 . S
O215 C230 1.263 . S
O216 Tb201 2.325 . S
O216 C231 1.236 . S
O217 Tb200 2.322 . S
O217 C231 1.257 . S
O218 Tb200 2.349 . S
O218 C202 1.261 . S
O219 Tb201 2.303 . S
O219 C202 1.257 . S
C220 O210 1.236 . S
C220 O211 1.257 . S
O221 Tb200 2.415 . S
O221 C209 1.239 . S
O222 Tb200 2.399 . S
O222 C209 1.263 . S
C223 O212 1.261 . S
C223 O213 1.257 . S
C224 C227 1.358 . S
C224 C228 1.332 . S
C224 C230 1.504 . S
C225 C226 1.373 . S
C225 C229 1.308 . S
C226 C225 1.373 . S
C226 C227 1.429 . S
C226 H236 0.932 . S
C227 C224 1.358 . S
C227 C226 1.429 . S
C227 H237 0.930 . S
C228 C224 1.332 . S
C228 C229 1.394 . S
C228 H238 0.932 . S
C229 C225 1.308 . S
C229 C228 1.394 . S
C229 H239 0.929 . S
C230 Tb201 2.764 . S
C230 O214 1.239 . S
C230 O215 1.263 . S
C230 C224 1.504 . S
C231 O216 1.236 . S
C231 O217 1.257 . S
H232 C205 0.932 . S
H233 C206 0.930 . S
H234 C207 0.932 . S
H235 C208 0.929 . S
H236 C226 0.932 . S
H237 C227 0.930 . S
H238 C228 0.932 . S
H239 C229 0.929 . S
C240 C241 1.363 . S
C240 C246 1.379 . S
C240 N248 1.356 . S
C241 C240 1.363 . S
C241 C247 1.363 . S
C242 C243 1.363 . S
C242 C247 1.379 . S
C242 N249 1.356 . S
C243 C242 1.363 . S
C243 C246 1.363 . S
N244 C246 1.356 . S
N244 H256 0.984 . S
N244 H257 0.985 . S
N245 C247 1.356 . S
N245 H250 0.984 . S
N245 H251 0.985 . S
C246 C240 1.379 . S
C246 C243 1.363 . S
C246 N244 1.356 . S
C247 C241 1.363 . S
C247 C242 1.379 . S
C247 N245 1.356 . S
N248 C240 1.356 . S
N248 H254 0.984 . S
N248 H255 0.984 . S
N249 C242 1.356 . S
N249 H252 0.984 . S
N249 H253 0.985 . S
H250 N245 0.984 . S
H251 N245 0.985 . S
H252 N249 0.984 . S
H253 N249 0.985 . S
H254 N248 0.984 . S
H255 N248 0.984 . S
H256 N244 0.984 . S
H257 N244 0.985 . S
C258 C259 1.363 . S
C258 C264 1.379 . S
C258 N266 1.356 . S
C259 C258 1.363 . S
C259 C265 1.363 1_455 S
C260 C261 1.363 . S
C260 C265 1.379 . S
C260 N267 1.356 . S
C261 C260 1.363 . S
C261 C264 1.363 1_655 S
N262 C264 1.356 . S
N262 H274 0.984 . S
N262 H275 0.985 . S
N263 C265 1.356 . S
N263 H268 0.984 . S
N263 H269 0.985 . S
C264 C258 1.379 . S
C264 C261 1.363 1_455 S
C264 N262 1.356 . S
C265 C259 1.363 1_655 S
C265 C260 1.379 . S
C265 N263 1.356 . S
N266 C258 1.356 . S
N266 H272 0.984 . S
N266 H273 0.984 . S
N267 C260 1.356 . S
N267 H270 0.984 . S
N267 H271 0.985 . S
H268 N263 0.984 . S
H269 N263 0.985 . S
H270 N267 0.984 . S
H271 N267 0.985 . S
H272 N266 0.984 . S
H273 N266 0.984 . S
H274 N262 0.984 . S
H275 N262 0.985 . S
C276 C277 1.363 . S
C276 C282 1.379 . S
C276 N284 1.356 . S
C277 C276 1.363 . S
C277 C283 1.363 1_545 S
C278 C279 1.363 . S
C278 C283 1.379 . S
C278 N285 1.356 . S
C279 C278 1.363 . S
C279 C282 1.363 1_565 S
N280 C282 1.356 . S
N280 H292 0.984 . S
N280 H293 0.985 1_545 S
N281 C283 1.356 . S
N281 H286 0.984 1_565 S
N281 H287 0.985 . S
C282 C276 1.379 . S
C282 C279 1.363 1_545 S
C282 N280 1.356 . S
C283 C277 1.363 1_565 S
C283 C278 1.379 . S
C283 N281 1.356 . S
N284 C276 1.356 . S
N284 H290 0.984 . S
N284 H291 0.984 . S
N285 C278 1.356 . S
N285 H288 0.984 . S
N285 H289 0.985 . S
H286 N281 0.984 1_545 S
H287 N281 0.985 . S
H288 N285 0.984 . S
H289 N285 0.985 . S
H290 N284 0.984 . S
H291 N284 0.984 . S
H292 N280 0.984 . S
H293 N280 0.985 1_565 S
C294 C295 1.363 . S
C294 C300 1.379 . S
C294 N302 1.356 . S
C295 C294 1.363 . S
C295 C301 1.363 . S
C296 C297 1.363 . S
C296 C301 1.379 . S
C296 N303 1.356 . S
C297 C296 1.363 . S
C297 C300 1.363 . S
N298 C300 1.356 . S
N298 H310 0.984 . S
N298 H311 0.985 . S
N299 C301 1.356 . S
N299 H304 0.984 . S
N299 H305 0.985 . S
C300 C294 1.379 . S
C300 C297 1.363 . S
C300 N298 1.356 . S
C301 C295 1.363 . S
C301 C296 1.379 . S
C301 N299 1.356 . S
N302 C294 1.356 . S
N302 H308 0.984 . S
N302 H309 0.984 . S
N303 C296 1.356 . S
N303 H306 0.984 . S
N303 H307 0.985 . S
H304 N299 0.984 . S
H305 N299 0.985 . S
H306 N303 0.984 . S
H307 N303 0.985 . S
H308 N302 0.984 . S
H309 N302 0.984 . S
H310 N298 0.984 . S
H311 N298 0.985 . S
C312 C313 1.363 . S
C312 C318 1.379 1_455 S
C312 N320 1.356 . S
C313 C312 1.363 . S
C313 C319 1.363 . S
C314 C315 1.363 . S
C314 C319 1.379 1_655 S
C314 N321 1.356 . S
C315 C314 1.363 . S
C315 C318 1.363 . S
N316 C318 1.356 . S
N316 H328 0.984 . S
N316 H329 0.985 . S
N317 C319 1.356 . S
N317 H322 0.984 . S
N317 H323 0.985 . S
C318 C312 1.379 1_655 S
C318 C315 1.363 . S
C318 N316 1.356 . S
C319 C313 1.363 . S
C319 C314 1.379 1_455 S
C319 N317 1.356 . S
N320 C312 1.356 . S
N320 H326 0.984 . S
N320 H327 0.984 . S
N321 C314 1.356 . S
N321 H324 0.984 . S
N321 H325 0.985 . S
H322 N317 0.984 . S
H323 N317 0.985 . S
H324 N321 0.984 . S
H325 N321 0.985 . S
H326 N320 0.984 . S
H327 N320 0.984 . S
H328 N316 0.984 . S
H329 N316 0.985 . S
C330 C331 1.363 1_565 S
C330 C336 1.379 . S
C330 N338 1.356 . S
C331 C330 1.363 1_545 S
C331 C337 1.363 . S
C332 C333 1.363 1_545 S
C332 C337 1.379 . S
C332 N339 1.356 . S
C333 C332 1.363 1_565 S
C333 C336 1.363 . S
N334 C336 1.356 . S
N334 H346 0.984 . S
N334 H347 0.985 . S
N335 C337 1.356 . S
N335 H340 0.984 . S
N335 H341 0.985 . S
C336 C330 1.379 . S
C336 C333 1.363 . S
C336 N334 1.356 . S
C337 C331 1.363 . S
C337 C332 1.379 . S
C337 N335 1.356 . S
N338 C330 1.356 . S
N338 H344 0.984 . S
N338 H345 0.984 . S
N339 C332 1.356 . S
N339 H342 0.984 . S
N339 H343 0.985 . S
H340 N335 0.984 . S
H341 N335 0.985 . S
H342 N339 0.984 . S
H343 N339 0.985 . S
H344 N338 0.984 . S
H345 N338 0.984 . S
H346 N334 0.984 . S
H347 N334 0.985 . S
C348 C349 1.363 . S
C348 C354 1.379 . S
C348 N356 1.356 . S
C349 C348 1.363 . S
C349 C355 1.363 . S
C350 C351 1.363 . S
C350 C355 1.379 . S
C350 N357 1.356 . S
C351 C350 1.363 . S
C351 C354 1.363 . S
N352 C354 1.356 . S
N352 H364 0.984 . S
N352 H365 0.985 . S
N353 C355 1.356 . S
N353 H358 0.984 . S
N353 H359 0.985 . S
C354 C348 1.379 . S
C354 C351 1.363 . S
C354 N352 1.356 . S
C355 C349 1.363 . S
C355 C350 1.379 . S
C355 N353 1.356 . S
N356 C348 1.356 . S
N356 H362 0.984 . S
N356 H363 0.984 . S
N357 C350 1.356 . S
N357 H360 0.984 . S
N357 H361 0.985 . S
H358 N353 0.984 . S
H359 N353 0.985 . S
H360 N357 0.984 . S
H361 N357 0.985 . S
H362 N356 0.984 . S
H363 N356 0.984 . S
H364 N352 0.984 . S
H365 N352 0.985 . S
C366 C367 1.363 . S
C366 C372 1.379 . S
C366 N374 1.356 . S
C367 C366 1.363 . S
C367 C373 1.363 . S
C368 C369 1.363 . S
C368 C373 1.379 . S
C368 N375 1.356 . S
C369 C368 1.363 . S
C369 C372 1.363 . S
N370 C372 1.356 . S
N370 H382 0.984 . S
N370 H383 0.985 . S
N371 C373 1.356 . S
N371 H376 0.984 . S
N371 H377 0.985 . S
C372 C366 1.379 . S
C372 C369 1.363 . S
C372 N370 1.356 . S
C373 C367 1.363 . S
C373 C368 1.379 . S
C373 N371 1.356 . S
N374 C366 1.356 . S
N374 H380 0.984 . S
N374 H381 0.984 . S
N375 C368 1.356 . S
N375 H378 0.984 . S
N375 H379 0.985 . S
H376 N371 0.984 . S
H377 N371 0.985 . S
H378 N375 0.984 . S
H379 N375 0.985 . S
H380 N374 0.984 . S
H381 N374 0.984 . S
H382 N370 0.984 . S
H383 N370 0.985 . S
C384 C385 1.363 . S
C384 C390 1.379 . S
C384 N392 1.356 . S
C385 C384 1.363 . S
C385 C391 1.363 . S
C386 C387 1.363 . S
C386 C391 1.379 . S
C386 N393 1.356 . S
C387 C386 1.363 . S
C387 C390 1.363 . S
N388 C390 1.356 . S
N388 H400 0.984 . S
N388 H401 0.985 . S
N389 C391 1.356 . S
N389 H394 0.984 . S
N389 H395 0.985 . S
C390 C384 1.379 . S
C390 C387 1.363 . S
C390 N388 1.356 . S
C391 C385 1.363 . S
C391 C386 1.379 . S
C391 N389 1.356 . S
N392 C384 1.356 . S
N392 H398 0.984 . S
N392 H399 0.984 . S
N393 C386 1.356 . S
N393 H396 0.984 . S
N393 H397 0.985 . S
H394 N389 0.984 . S
H395 N389 0.985 . S
H396 N393 0.984 . S
H397 N393 0.985 . S
H398 N392 0.984 . S
H399 N392 0.984 . S
H400 N388 0.984 . S
H401 N388 0.985 . S
C402 C403 1.363 . S
C402 C408 1.379 . S
C402 N410 1.356 . S
C403 C402 1.363 . S
C403 C409 1.363 . S
C404 C405 1.363 . S
C404 C409 1.379 . S
C404 N411 1.356 . S
C405 C404 1.363 . S
C405 C408 1.363 . S
N406 C408 1.356 . S
N406 H418 0.984 . S
N406 H419 0.985 . S
N407 C409 1.356 . S
N407 H412 0.984 . S
N407 H413 0.985 . S
C408 C402 1.379 . S
C408 C405 1.363 . S
C408 N406 1.356 . S
C409 C403 1.363 . S
C409 C404 1.379 . S
C409 N407 1.356 . S
N410 C402 1.356 . S
N410 H416 0.984 . S
N410 H417 0.984 . S
N411 C404 1.356 . S
N411 H414 0.984 . S
N411 H415 0.985 . S
H412 N407 0.984 . S
H413 N407 0.985 . S
H414 N411 0.984 . S
H415 N411 0.985 . S
H416 N410 0.984 . S
H417 N410 0.984 . S
H418 N406 0.984 . S
H419 N406 0.985 . S
C420 C421 1.363 . S
C420 C426 1.379 . S
C420 N428 1.356 . S
C421 C420 1.363 . S
C421 C427 1.363 . S
C422 C423 1.363 . S
C422 C427 1.379 . S
C422 N429 1.356 . S
C423 C422 1.363 . S
C423 C426 1.363 . S
N424 C426 1.356 . S
N424 H436 0.984 . S
N424 H437 0.985 . S
N425 C427 1.356 . S
N425 H430 0.984 . S
N425 H431 0.985 . S
C426 C420 1.379 . S
C426 C423 1.363 . S
C426 N424 1.356 . S
C427 C421 1.363 . S
C427 C422 1.379 . S
C427 N425 1.356 . S
N428 C420 1.356 . S
N428 H434 0.984 . S
N428 H435 0.984 . S
N429 C422 1.356 . S
N429 H432 0.984 . S
N429 H433 0.985 . S
H430 N425 0.984 . S
H431 N425 0.985 . S
H432 N429 0.984 . S
H433 N429 0.985 . S
H434 N428 0.984 . S
H435 N428 0.984 . S
H436 N424 0.984 . S
H437 N424 0.985 . S
C438 C439 1.363 . S
C438 C444 1.379 . S
C438 N446 1.356 . S
C439 C438 1.363 . S
C439 C445 1.363 . S
C440 C441 1.363 . S
C440 C445 1.379 . S
C440 N447 1.356 . S
C441 C440 1.363 . S
C441 C444 1.363 . S
N442 C444 1.356 . S
N442 H454 0.984 . S
N442 H455 0.985 . S
N443 C445 1.356 . S
N443 H448 0.984 . S
N443 H449 0.985 . S
C444 C438 1.379 . S
C444 C441 1.363 . S
C444 N442 1.356 . S
C445 C439 1.363 . S
C445 C440 1.379 . S
C445 N443 1.356 . S
N446 C438 1.356 . S
N446 H452 0.984 . S
N446 H453 0.984 . S
N447 C440 1.356 . S
N447 H450 0.984 . S
N447 H451 0.985 . S
H448 N443 0.984 . S
H449 N443 0.985 . S
H450 N447 0.984 . S
H451 N447 0.985 . S
H452 N446 0.984 . S
H453 N446 0.984 . S
H454 N442 0.984 . S
H455 N442 0.985 . S
C456 C457 1.363 . S
C456 C462 1.379 . S
C456 N464 1.356 . S
C457 C456 1.363 . S
C457 C463 1.363 . S
C458 C459 1.363 . S
C458 C463 1.379 . S
C458 N465 1.356 . S
C459 C458 1.363 . S
C459 C462 1.363 . S
N460 C462 1.356 . S
N460 H472 0.984 . S
N460 H473 0.985 . S
N461 C463 1.356 . S
N461 H466 0.984 . S
N461 H467 0.985 . S
C462 C456 1.379 . S
C462 C459 1.363 . S
C462 N460 1.356 . S
C463 C457 1.363 . S
C463 C458 1.379 . S
C463 N461 1.356 . S
N464 C456 1.356 . S
N464 H470 0.984 . S
N464 H471 0.984 . S
N465 C458 1.356 . S
N465 H468 0.984 . S
N465 H469 0.985 . S
H466 N461 0.984 . S
H467 N461 0.985 . S
H468 N465 0.984 . S
H469 N465 0.985 . S
H470 N464 0.984 . S
H471 N464 0.984 . S
H472 N460 0.984 . S
H473 N460 0.985 . S
C474 C475 1.363 . S
C474 C480 1.379 . S
C474 N482 1.356 . S
C475 C474 1.363 . S
C475 C481 1.363 . S
C476 C477 1.363 . S
C476 C481 1.379 . S
C476 N483 1.356 . S
C477 C476 1.363 . S
C477 C480 1.363 . S
N478 C480 1.356 . S
N478 H490 0.984 . S
N478 H491 0.985 . S
N479 C481 1.356 . S
N479 H484 0.984 . S
N479 H485 0.985 . S
C480 C474 1.379 . S
C480 C477 1.363 . S
C480 N478 1.356 . S
C481 C475 1.363 . S
C481 C476 1.379 . S
C481 N479 1.356 . S
N482 C474 1.356 . S
N482 H488 0.984 . S
N482 H489 0.984 . S
N483 C476 1.356 . S
N483 H486 0.984 . S
N483 H487 0.985 . S
H484 N479 0.984 . S
H485 N479 0.985 . S
H486 N483 0.984 . S
H487 N483 0.985 . S
H488 N482 0.984 . S
H489 N482 0.984 . S
H490 N478 0.984 . S
H491 N478 0.985 . S
C492 C493 1.363 . S
C492 C498 1.379 . S
C492 N500 1.356 . S
C493 C492 1.363 . S
C493 C499 1.363 . S
C494 C495 1.363 . S
C494 C499 1.379 . S
C494 N501 1.356 . S
C495 C494 1.363 . S
C495 C498 1.363 . S
N496 C498 1.356 . S
N496 H508 0.984 . S
N496 H509 0.985 . S
N497 C499 1.356 . S
N497 H502 0.984 . S
N497 H503 0.985 . S
C498 C492 1.379 . S
C498 C495 1.363 . S
C498 N496 1.356 . S
C499 C493 1.363 . S
C499 C494 1.379 . S
C499 N497 1.356 . S
N500 C492 1.356 . S
N500 H506 0.984 . S
N500 H507 0.984 . S
N501 C494 1.356 . S
N501 H504 0.984 . S
N501 H505 0.985 . S
H502 N497 0.984 . S
H503 N497 0.985 . S
H504 N501 0.984 . S
H505 N501 0.985 . S
H506 N500 0.984 . S
H507 N500 0.984 . S
H508 N496 0.984 . S
H509 N496 0.985 . S
C510 C511 1.363 . S
C510 C516 1.379 . S
C510 N518 1.356 . S
C511 C510 1.363 . S
C511 C517 1.363 . S
C512 C513 1.363 . S
C512 C517 1.379 . S
C512 N519 1.356 . S
C513 C512 1.363 . S
C513 C516 1.363 . S
N514 C516 1.356 . S
N514 H526 0.984 . S
N514 H527 0.985 . S
N515 C517 1.356 . S
N515 H520 0.984 . S
N515 H521 0.985 . S
C516 C510 1.379 . S
C516 C513 1.363 . S
C516 N514 1.356 . S
C517 C511 1.363 . S
C517 C512 1.379 . S
C517 N515 1.356 . S
N518 C510 1.356 . S
N518 H524 0.984 . S
N518 H525 0.984 . S
N519 C512 1.356 . S
N519 H522 0.984 . S
N519 H523 0.985 . S
H520 N515 0.984 . S
H521 N515 0.985 . S
H522 N519 0.984 . S
H523 N519 0.985 . S
H524 N518 0.984 . S
H525 N518 0.984 . S
H526 N514 0.984 . S
H527 N514 0.985 . S
C528 C529 1.363 . S
C528 C534 1.379 . S
C528 N536 1.356 . S
C529 C528 1.363 . S
C529 C535 1.363 . S
C530 C531 1.363 . S
C530 C535 1.379 . S
C530 N537 1.356 . S
C531 C530 1.363 . S
C531 C534 1.363 . S
N532 C534 1.356 . S
N532 H544 0.984 . S
N532 H545 0.985 . S
N533 C535 1.356 . S
N533 H538 0.984 . S
N533 H539 0.985 . S
C534 C528 1.379 . S
C534 C531 1.363 . S
C534 N532 1.356 . S
C535 C529 1.363 . S
C535 C530 1.379 . S
C535 N533 1.356 . S
N536 C528 1.356 . S
N536 H542 0.984 . S
N536 H543 0.984 . S
N537 C530 1.356 . S
N537 H540 0.984 . S
N537 H541 0.985 . S
H538 N533 0.984 . S
H539 N533 0.985 . S
H540 N537 0.984 . S
H541 N537 0.985 . S
H542 N536 0.984 . S
H543 N536 0.984 . S
H544 N532 0.984 . S
H545 N532 0.985 . S
C546 C547 1.363 . S
C546 C552 1.379 . S
C546 N554 1.356 . S
C547 C546 1.363 . S
C547 C553 1.363 . S
C548 C549 1.363 . S
C548 C553 1.379 . S
C548 N555 1.356 . S
C549 C548 1.363 . S
C549 C552 1.363 . S
N550 C552 1.356 . S
N550 H562 0.984 . S
N550 H563 0.985 . S
N551 C553 1.356 . S
N551 H556 0.984 . S
N551 H557 0.985 . S
C552 C546 1.379 . S
C552 C549 1.363 . S
C552 N550 1.356 . S
C553 C547 1.363 . S
C553 C548 1.379 . S
C553 N551 1.356 . S
N554 C546 1.356 . S
N554 H560 0.984 . S
N554 H561 0.984 . S
N555 C548 1.356 . S
N555 H558 0.984 . S
N555 H559 0.985 . S
H556 N551 0.984 . S
H557 N551 0.985 . S
H558 N555 0.984 . S
H559 N555 0.985 . S
H560 N554 0.984 . S
H561 N554 0.984 . S
H562 N550 0.984 . S
H563 N550 0.985 . S
C241 C223 1.545 . S
C243 C31 1.546 . S
C259 C23 1.545 . S
C261 C71 1.546 . S
C277 C63 1.545 . S
C279 C111 1.546 . S
C295 C103 1.545 . S
C297 C151 1.546 . S
C313 C191 1.546 . S
C315 C143 1.545 . S
C331 C231 1.546 . S
C333 C183 1.545 . S
C349 C25 2.154 . S
C351 C4 2.154 . S
C367 C65 2.154 . S
C369 C44 2.154 . S
C385 C105 2.154 . S
C387 C84 2.154 . S
C403 C145 2.154 . S
C405 C124 2.154 . S
C421 C164 2.154 . S
C423 C185 2.154 . S
C439 C225 2.154 . S
C441 C204 2.154 . S
C457 C20 1.751 . S
C459 C162 1.771 . S
C475 C60 1.750 . S
C477 C202 1.771 . S
C493 C2 1.771 . S
C495 C100 1.751 . S
C511 C42 1.771 . S
C513 C140 1.751 . S
C529 C180 1.750 . S
C531 C82 1.771 . S
C547 C122 1.771 . S
C549 C220 1.751 . S
