# Generated by pormake.
# Topology tzs, (4)-cn, num edge types: 1
# Building blocks:
#     Node 0, Type 0, BuildingBlock: GALJAG_clean_sbu_0, # of connection points: 4
#     Node 1, Type 0, BuildingBlock: GALJAG_clean_sbu_0, # of connection points: 4
#     Node 2, Type 0, BuildingBlock: GALJAG_clean_sbu_0, # of connection points: 4
#     Node 3, Type 0, BuildingBlock: GALJAG_clean_sbu_0, # of connection points: 4
#     Node 4, Type 0, BuildingBlock: GALJAG_clean_sbu_0, # of connection points: 4
#     Node 5, Type 0, BuildingBlock: GALJAG_clean_sbu_0, # of connection points: 4
#     Node 6, Type 0, BuildingBlock: GALJAG_clean_sbu_0, # of connection points: 4
#     Node 7, Type 0, BuildingBlock: GALJAG_clean_sbu_0, # of connection points: 4
#     Node 8, Type 0, BuildingBlock: GALJAG_clean_sbu_0, # of connection points: 4
#     Node 9, Type 0, BuildingBlock: GALJAG_clean_sbu_0, # of connection points: 4
#     Node 10, Type 0, BuildingBlock: GALJAG_clean_sbu_0, # of connection points: 4
#     Node 11, Type 0, BuildingBlock: GALJAG_clean_sbu_0, # of connection points: 4
#     Node 12, Type 0, BuildingBlock: GALJAG_clean_sbu_0, # of connection points: 4
#     Node 13, Type 0, BuildingBlock: GALJAG_clean_sbu_0, # of connection points: 4
#     Node 14, Type 0, BuildingBlock: GALJAG_clean_sbu_0, # of connection points: 4
#     Node 15, Type 0, BuildingBlock: GALJAG_clean_sbu_0, # of connection points: 4
#     Edge 16, Type (0, 0), BuildingBlock: EZIPEK_clean_linker_0, # of connection points: 2
#     Edge 17, Type (0, 0), BuildingBlock: EZIPEK_clean_linker_0, # of connection points: 2
#     Edge 18, Type (0, 0), BuildingBlock: EZIPEK_clean_linker_0, # of connection points: 2
#     Edge 19, Type (0, 0), BuildingBlock: EZIPEK_clean_linker_0, # of connection points: 2
#     Edge 20, Type (0, 0), BuildingBlock: EZIPEK_clean_linker_0, # of connection points: 2
#     Edge 21, Type (0, 0), BuildingBlock: EZIPEK_clean_linker_0, # of connection points: 2
#     Edge 22, Type (0, 0), BuildingBlock: EZIPEK_clean_linker_0, # of connection points: 2
#     Edge 23, Type (0, 0), BuildingBlock: EZIPEK_clean_linker_0, # of connection points: 2
#     Edge 24, Type (0, 0), BuildingBlock: EZIPEK_clean_linker_0, # of connection points: 2
#     Edge 25, Type (0, 0), BuildingBlock: EZIPEK_clean_linker_0, # of connection points: 2
#     Edge 26, Type (0, 0), BuildingBlock: EZIPEK_clean_linker_0, # of connection points: 2
#     Edge 27, Type (0, 0), BuildingBlock: EZIPEK_clean_linker_0, # of connection points: 2
#     Edge 28, Type (0, 0), BuildingBlock: EZIPEK_clean_linker_0, # of connection points: 2
#     Edge 29, Type (0, 0), BuildingBlock: EZIPEK_clean_linker_0, # of connection points: 2
#     Edge 30, Type (0, 0), BuildingBlock: EZIPEK_clean_linker_0, # of connection points: 2
#     Edge 31, Type (0, 0), BuildingBlock: EZIPEK_clean_linker_0, # of connection points: 2
#     Edge 32, Type (0, 0), BuildingBlock: EZIPEK_clean_linker_0, # of connection points: 2
#     Edge 33, Type (0, 0), BuildingBlock: EZIPEK_clean_linker_0, # of connection points: 2
#     Edge 34, Type (0, 0), BuildingBlock: EZIPEK_clean_linker_0, # of connection points: 2
#     Edge 35, Type (0, 0), BuildingBlock: EZIPEK_clean_linker_0, # of connection points: 2
#     Edge 36, Type (0, 0), BuildingBlock: EZIPEK_clean_linker_0, # of connection points: 2
#     Edge 37, Type (0, 0), BuildingBlock: EZIPEK_clean_linker_0, # of connection points: 2
#     Edge 38, Type (0, 0), BuildingBlock: EZIPEK_clean_linker_0, # of connection points: 2
#     Edge 39, Type (0, 0), BuildingBlock: EZIPEK_clean_linker_0, # of connection points: 2
#     Edge 40, Type (0, 0), BuildingBlock: EZIPEK_clean_linker_0, # of connection points: 2
#     Edge 41, Type (0, 0), BuildingBlock: EZIPEK_clean_linker_0, # of connection points: 2
#     Edge 42, Type (0, 0), BuildingBlock: EZIPEK_clean_linker_0, # of connection points: 2
#     Edge 43, Type (0, 0), BuildingBlock: EZIPEK_clean_linker_0, # of connection points: 2
#     Edge 44, Type (0, 0), BuildingBlock: EZIPEK_clean_linker_0, # of connection points: 2
#     Edge 45, Type (0, 0), BuildingBlock: EZIPEK_clean_linker_0, # of connection points: 2
#     Edge 46, Type (0, 0), BuildingBlock: EZIPEK_clean_linker_0, # of connection points: 2
#     Edge 47, Type (0, 0), BuildingBlock: EZIPEK_clean_linker_0, # of connection points: 2
# Relax obj value: 0.153
# Max RMSD: 0.154
# Mean RMSD: 0.154
data_MOF--net-tzs--node1-GALJAG_clean_sbu_0--edge1-EZIPEK_clean_linker_0
_symmetry_space_group_name_H-M    P1
_symmetry_Int_Tables_number       1
_symmetry_cell_setting            triclinic
loop_
_symmetry_equiv_pos_as_xyz
'x, y, z'
_cell_length_a     35.82023
_cell_length_b     35.84176
_cell_length_c     29.579177
_cell_angle_alpha  89.992069
_cell_angle_beta   89.991553
_cell_angle_gamma 89.995559
loop_
_atom_site_label
_atom_site_type_symbol
_atom_site_fract_x
_atom_site_fract_y
_atom_site_fract_z
_atom_type_partial_charge
In0 In 0.14261 0.35613 0.19256 0.0
O1 O 0.1987 0.33354 0.21576 0.0
O2 O 0.15365 0.29514 0.21202 0.0
C3 C 0.1536 0.42674 0.22159 0.0
C4 C 0.1515 0.354 0.10197 0.0
C5 C 0.07271 0.34578 0.22385 0.0
O6 O 0.16491 0.39863 0.24313 0.0
O7 O 0.13734 0.41948 0.18482 0.0
O8 O 0.08134 0.34172 0.18286 0.0
O9 O 0.09952 0.35388 0.24971 0.0
C10 C 0.18755 0.30059 0.22129 0.0
O11 O 0.12098 0.34691 0.12124 0.0
O12 O 0.17796 0.36226 0.12828 0.0
In13 In 0.64274 0.14482 0.18882 0.0
O14 O 0.66649 0.12355 0.1223 0.0
O15 O 0.63399 0.17324 0.12039 0.0
C16 C 0.65255 0.0743 0.21772 0.0
C17 C 0.69108 0.19677 0.21928 0.0
C18 C 0.57217 0.1535 0.21902 0.0
O19 O 0.63243 0.08236 0.1842 0.0
O20 O 0.66818 0.10166 0.23676 0.0
O21 O 0.59986 0.1527 0.24533 0.0
O22 O 0.58001 0.15081 0.17759 0.0
C23 C 0.65243 0.1492 0.09868 0.0
O24 O 0.65641 0.20253 0.21725 0.0
O25 O 0.70149 0.16503 0.20599 0.0
In26 In 0.85725 0.64612 0.18436 0.0
O27 O 0.88102 0.65862 0.11489 0.0
O28 O 0.82775 0.63228 0.11807 0.0
C29 C 0.92659 0.66527 0.21056 0.0
C30 C 0.80896 0.69695 0.218 0.0
C31 C 0.84703 0.57435 0.21009 0.0
O32 O 0.90874 0.68436 0.18201 0.0
O33 O 0.90918 0.63775 0.22645 0.0
O34 O 0.82758 0.60069 0.22583 0.0
O35 O 0.87059 0.58396 0.1807 0.0
C36 C 0.85354 0.64538 0.09365 0.0
O37 O 0.8345 0.68273 0.24165 0.0
O38 O 0.8076 0.68557 0.17782 0.0
In39 In 0.35114 0.85731 0.18364 0.0
O40 O 0.34377 0.88423 0.11451 0.0
O41 O 0.35184 0.82545 0.11696 0.0
C42 C 0.34042 0.92748 0.21311 0.0
C43 C 0.29904 0.80962 0.21451 0.0
C44 C 0.421 0.84277 0.21311 0.0
O45 O 0.36656 0.91853 0.18683 0.0
O46 O 0.31877 0.90126 0.22413 0.0
O47 O 0.39561 0.85488 0.23864 0.0
O48 O 0.41108 0.83657 0.17294 0.0
C49 C 0.34692 0.85409 0.09288 0.0
O50 O 0.33266 0.80803 0.22701 0.0
O51 O 0.29153 0.83529 0.18683 0.0
In52 In 0.14402 0.65022 0.30956 0.0
O53 O 0.12221 0.63361 0.37921 0.0
O54 O 0.17163 0.66586 0.37698 0.0
C55 C 0.07941 0.66807 0.26838 0.0
C56 C 0.19088 0.70256 0.27848 0.0
C57 C 0.15634 0.57849 0.28597 0.0
O58 O 0.08427 0.67216 0.31029 0.0
O59 O 0.10782 0.65745 0.24679 0.0
O60 O 0.18217 0.6024 0.28565 0.0
O61 O 0.12527 0.59042 0.29936 0.0
C62 C 0.14759 0.64975 0.40107 0.0
O63 O 0.1963 0.66814 0.2721 0.0
O64 O 0.16159 0.71078 0.30016 0.0
In65 In 0.34945 0.14729 0.31451 0.0
O66 O 0.32777 0.12903 0.38305 0.0
O67 O 0.36284 0.17705 0.38096 0.0
C68 C 0.34048 0.07752 0.28301 0.0
C69 C 0.29565 0.19439 0.28662 0.0
C70 C 0.42032 0.15578 0.28509 0.0
O71 O 0.34749 0.08452 0.32385 0.0
O72 O 0.33712 0.10572 0.25786 0.0
O73 O 0.39252 0.16525 0.26165 0.0
O74 O 0.41265 0.14292 0.32361 0.0
C75 C 0.3443 0.15439 0.40473 0.0
O76 O 0.32926 0.2043 0.29059 0.0
O77 O 0.28897 0.16096 0.29697 0.0
In78 In 0.84909 0.35439 0.31454 0.0
O79 O 0.86737 0.32937 0.3819 0.0
O80 O 0.82259 0.3684 0.38273 0.0
C81 C 0.91979 0.3449 0.28558 0.0
C82 C 0.79734 0.30493 0.28631 0.0
C83 C 0.84089 0.42387 0.28061 0.0
O84 O 0.91186 0.3624 0.3212 0.0
O85 O 0.89224 0.33139 0.26467 0.0
O86 O 0.83614 0.3951 0.2568 0.0
O87 O 0.84882 0.41772 0.32142 0.0
C88 C 0.84414 0.34755 0.4051 0.0
O89 O 0.79011 0.33909 0.29166 0.0
O90 O 0.83037 0.29555 0.29572 0.0
In91 In 0.64418 0.85055 0.30519 0.0
O92 O 0.64753 0.87514 0.37559 0.0
O93 O 0.63844 0.81657 0.37028 0.0
C94 C 0.65589 0.92071 0.27584 0.0
C95 C 0.69907 0.80371 0.27849 0.0
C96 C 0.57338 0.84099 0.27652 0.0
O97 O 0.66491 0.91006 0.31494 0.0
O98 O 0.64249 0.89569 0.25064 0.0
O99 O 0.60109 0.83643 0.25086 0.0
O100 O 0.58122 0.84966 0.31668 0.0
C101 C 0.6427 0.84454 0.3957 0.0
O102 O 0.66555 0.79369 0.28221 0.0
O103 O 0.70517 0.83741 0.28797 0.0
In104 In 0.8548 0.646 0.80756 0.0
O105 O 0.87205 0.62348 0.87632 0.0
O106 O 0.83535 0.67029 0.87478 0.0
C107 C 0.84112 0.57547 0.78014 0.0
C108 C 0.80442 0.69538 0.77546 0.0
C109 C 0.92571 0.66104 0.78279 0.0
O110 O 0.82982 0.58784 0.81757 0.0
O111 O 0.85777 0.59893 0.75571 0.0
O112 O 0.90097 0.65142 0.75486 0.0
O113 O 0.9145 0.66464 0.82296 0.0
C114 C 0.85318 0.64698 0.89839 0.0
O115 O 0.83826 0.70363 0.78141 0.0
O116 O 0.79601 0.66216 0.78503 0.0
In117 In 0.35636 0.85278 0.80689 0.0
O118 O 0.30057 0.8343 0.77799 0.0
O119 O 0.34028 0.79211 0.79385 0.0
C120 C 0.34751 0.92402 0.77892 0.0
C121 C 0.349 0.85488 0.89758 0.0
C122 C 0.42357 0.83341 0.77363 0.0
O123 O 0.33146 0.89695 0.75987 0.0
O124 O 0.36714 0.91531 0.81265 0.0
O125 O 0.41264 0.82367 0.81232 0.0
O126 O 0.40004 0.85139 0.75063 0.0
C127 C 0.30819 0.79995 0.77904 0.0
O128 O 0.37945 0.86088 0.87766 0.0
O129 O 0.32167 0.84857 0.87186 0.0
In130 In 0.15046 0.35654 0.81568 0.0
O131 O 0.14161 0.3808 0.88589 0.0
O132 O 0.16319 0.32562 0.88165 0.0
C133 C 0.16632 0.42548 0.785 0.0
C134 C 0.20202 0.30859 0.78376 0.0
C135 C 0.07887 0.34493 0.79014 0.0
O136 O 0.17926 0.41316 0.82168 0.0
O137 O 0.14656 0.40278 0.76302 0.0
O138 O 0.10602 0.3401 0.76369 0.0
O139 O 0.08771 0.35426 0.82978 0.0
C140 C 0.15328 0.35239 0.90665 0.0
O141 O 0.16902 0.29868 0.79262 0.0
O142 O 0.20909 0.34256 0.79078 0.0
In143 In 0.6508 0.14134 0.81329 0.0
O144 O 0.70992 0.15922 0.7941 0.0
O145 O 0.66682 0.19988 0.78974 0.0
C146 C 0.66016 0.07247 0.77786 0.0
C147 C 0.6582 0.14776 0.90353 0.0
C148 C 0.57874 0.14981 0.7887 0.0
O149 O 0.66487 0.10178 0.75501 0.0
O150 O 0.65166 0.07777 0.81868 0.0
O151 O 0.58832 0.13621 0.82622 0.0
O152 O 0.60541 0.1597 0.76356 0.0
C153 C 0.70092 0.1923 0.78453 0.0
O154 O 0.63634 0.16809 0.88096 0.0
O155 O 0.67726 0.12497 0.88063 0.0
In156 In 0.8571 0.35252 0.69109 0.0
O157 O 0.83674 0.37445 0.62323 0.0
O158 O 0.8675 0.32368 0.6232 0.0
C159 C 0.84485 0.42235 0.72127 0.0
C160 C 0.80796 0.30054 0.71944 0.0
C161 C 0.9268 0.34395 0.72418 0.0
O162 O 0.86789 0.41507 0.69032 0.0
O163 O 0.82743 0.39459 0.73683 0.0
O164 O 0.89838 0.34515 0.74932 0.0
O165 O 0.92017 0.34611 0.6824 0.0
C166 C 0.85059 0.34819 0.60044 0.0
O167 O 0.84277 0.29587 0.72212 0.0
O168 O 0.79788 0.33111 0.70231 0.0
In169 In 0.6439 0.85099 0.68091 0.0
O170 O 0.67408 0.82094 0.73851 0.0
O171 O 0.69099 0.80916 0.67108 0.0
C172 C 0.6564 0.92154 0.71015 0.0
C173 C 0.6432 0.84574 0.59042 0.0
C174 C 0.57505 0.83284 0.70956 0.0
O175 O 0.68276 0.90013 0.69898 0.0
O176 O 0.6244 0.90751 0.70662 0.0
O177 O 0.58078 0.85489 0.67713 0.0
O178 O 0.60399 0.8187 0.72687 0.0
C179 C 0.69539 0.80276 0.71261 0.0
O180 O 0.62867 0.82126 0.61546 0.0
O181 O 0.65816 0.87281 0.61077 0.0
In182 In 0.14719 0.64413 0.68771 0.0
O183 O 0.1648 0.62292 0.61836 0.0
O184 O 0.13048 0.67124 0.62092 0.0
C185 C 0.16517 0.5758 0.71827 0.0
C186 C 0.19943 0.69136 0.71917 0.0
C187 C 0.07756 0.6576 0.71928 0.0
O188 O 0.14052 0.5812 0.68862 0.0
O189 O 0.18194 0.60471 0.7317 0.0
O190 O 0.10069 0.68353 0.71276 0.0
O191 O 0.08939 0.62554 0.70985 0.0
C192 C 0.14772 0.64795 0.59672 0.0
O193 O 0.17544 0.67634 0.74461 0.0
O194 O 0.19738 0.6822 0.67807 0.0
In195 In 0.35788 0.14853 0.69013 0.0
O196 O 0.37193 0.17273 0.62089 0.0
O197 O 0.32957 0.13132 0.62406 0.0
C198 C 0.42617 0.15711 0.72668 0.0
C199 C 0.31063 0.20163 0.72002 0.0
C200 C 0.34886 0.07697 0.71618 0.0
O201 O 0.42102 0.15252 0.68494 0.0
O202 O 0.39688 0.15853 0.75034 0.0
O203 O 0.32775 0.10282 0.72977 0.0
O204 O 0.37382 0.08704 0.68871 0.0
C205 C 0.3487 0.15298 0.59979 0.0
O206 O 0.30238 0.16748 0.71975 0.0
O207 O 0.34285 0.20929 0.70551 0.0
C208 C 0.23689 0.23118 0.29776 0.0
C209 C 0.26651 0.2197 0.26912 0.0
C210 C 0.24323 0.25993 0.20834 0.0
C211 C 0.21299 0.27068 0.23652 0.0
N212 N 0.17734 0.26295 0.30512 0.0
N213 N 0.29434 0.21688 0.195 0.0
C214 C 0.20853 0.25495 0.28024 0.0
C215 C 0.26876 0.23239 0.22379 0.0
N216 N 0.23699 0.22095 0.34233 0.0
N217 N 0.2476 0.27624 0.16685 0.0
H218 H 0.31328 0.19637 0.205 0.0
H219 H 0.29493 0.2219 0.16036 0.0
H220 H 0.22789 0.29418 0.15267 0.0
H221 H 0.27155 0.27344 0.14721 0.0
H222 H 0.21871 0.23174 0.36635 0.0
H223 H 0.25726 0.20356 0.35636 0.0
H224 H 0.1703 0.24915 0.33488 0.0
H225 H 0.15693 0.28177 0.29458 0.0
C226 C 0.75939 0.24682 0.29688 0.0
C227 C 0.76931 0.27784 0.26961 0.0
C228 C 0.725 0.25759 0.21125 0.0
C229 C 0.71758 0.22491 0.23682 0.0
N230 N 0.72992 0.18604 0.30175 0.0
N231 N 0.76624 0.31016 0.19814 0.0
C232 C 0.73558 0.21875 0.27891 0.0
C233 C 0.75318 0.28273 0.22616 0.0
N234 N 0.77124 0.24517 0.34079 0.0
N235 N 0.7052 0.26455 0.17261 0.0
H236 H 0.78725 0.32878 0.20744 0.0
H237 H 0.75866 0.31263 0.1643 0.0
H238 H 0.68592 0.24583 0.15909 0.0
H239 H 0.70604 0.28988 0.15543 0.0
H240 H 0.76184 0.22549 0.36402 0.0
H241 H 0.78805 0.26562 0.35538 0.0
H242 H 0.74573 0.17785 0.32956 0.0
H243 H 0.71082 0.16583 0.29138 0.0
C244 C 0.75832 0.71601 0.2718 0.0
C245 C 0.78263 0.72516 0.23563 0.0
C246 C 0.75156 0.78562 0.22658 0.0
C247 C 0.72893 0.77752 0.26473 0.0
N248 N 0.71641 0.73878 0.32979 0.0
N249 N 0.80808 0.77138 0.185 0.0
C250 C 0.73393 0.74378 0.28916 0.0
C251 C 0.78095 0.76081 0.21489 0.0
N252 N 0.75724 0.68037 0.28825 0.0
N253 N 0.7439 0.81597 0.20014 0.0
H254 H 0.83035 0.75414 0.17604 0.0
H255 H 0.81055 0.79843 0.17246 0.0
H256 H 0.7222 0.83454 0.20688 0.0
H257 H 0.75688 0.82092 0.1692 0.0
H258 H 0.73707 0.67108 0.31098 0.0
H259 H 0.77444 0.65907 0.27628 0.0
H260 H 0.72208 0.71649 0.35132 0.0
H261 H 0.6989 0.75876 0.34417 0.0
C262 C 0.25339 0.75818 0.19973 0.0
C263 C 0.27055 0.78303 0.23074 0.0
C264 C 0.23654 0.75411 0.29348 0.0
C265 C 0.21737 0.73111 0.26206 0.0
N266 N 0.20218 0.71572 0.18486 0.0
N267 N 0.27387 0.80965 0.30549 0.0
C268 C 0.22429 0.73438 0.21501 0.0
C269 C 0.26084 0.78243 0.2772 0.0
N270 N 0.26593 0.75622 0.15612 0.0
N271 N 0.23285 0.74786 0.33887 0.0
H272 H 0.29165 0.83094 0.29475 0.0
H273 H 0.26452 0.81311 0.33856 0.0
H274 H 0.21551 0.72728 0.35225 0.0
H275 H 0.24933 0.76088 0.36319 0.0
H276 H 0.25743 0.73575 0.13336 0.0
H277 H 0.2873 0.77308 0.14361 0.0
H278 H 0.20324 0.72006 0.15007 0.0
H279 H 0.18031 0.69832 0.19476 0.0
C280 C 0.72321 0.73856 0.7112 0.0
C281 C 0.72292 0.77521 0.7294 0.0
C282 C 0.77307 0.7579 0.78163 0.0
C283 C 0.77645 0.72288 0.75954 0.0
N284 N 0.75951 0.68286 0.69709 0.0
N285 N 0.75263 0.82207 0.77579 0.0
C286 C 0.75282 0.71397 0.72259 0.0
C287 C 0.74923 0.78558 0.76297 0.0
N288 N 0.69441 0.72658 0.68456 0.0
N289 N 0.79125 0.76428 0.82153 0.0
H290 H 0.73646 0.84346 0.76211 0.0
H291 H 0.77403 0.83164 0.79663 0.0
H292 H 0.80791 0.74435 0.83739 0.0
H293 H 0.78666 0.78791 0.84128 0.0
H294 H 0.6914 0.69894 0.67427 0.0
H295 H 0.67139 0.74317 0.67669 0.0
H296 H 0.74546 0.67721 0.66703 0.0
H297 H 0.78165 0.66467 0.70328 0.0
C298 C 0.21632 0.7489 0.76313 0.0
C299 C 0.22759 0.71823 0.73602 0.0
C300 C 0.29143 0.7427 0.73418 0.0
C301 C 0.28093 0.7711 0.76512 0.0
N302 N 0.23537 0.79507 0.81797 0.0
N303 N 0.27775 0.68122 0.70482 0.0
C304 C 0.24394 0.77243 0.78225 0.0
C305 C 0.26572 0.71371 0.72414 0.0
N306 N 0.17929 0.75684 0.7689 0.0
N307 N 0.32519 0.74421 0.71271 0.0
H308 H 0.26011 0.65867 0.69849 0.0
H309 H 0.30587 0.67515 0.69961 0.0
H310 H 0.34441 0.76565 0.71774 0.0
H311 H 0.33251 0.72626 0.68645 0.0
H312 H 0.16989 0.78113 0.78457 0.0
H313 H 0.15794 0.74143 0.75394 0.0
H314 H 0.20968 0.79425 0.83447 0.0
H315 H 0.25511 0.81162 0.83438 0.0
C316 C 0.22498 0.26439 0.72439 0.0
C317 C 0.23047 0.28219 0.7667 0.0
C318 C 0.29098 0.25086 0.77535 0.0
C319 C 0.28388 0.2305 0.7351 0.0
N320 N 0.2436 0.21558 0.67224 0.0
N321 N 0.26568 0.28908 0.8357 0.0
C322 C 0.25063 0.23652 0.70997 0.0
C323 C 0.26284 0.27482 0.79292 0.0
N324 N 0.19621 0.27543 0.69705 0.0
N325 N 0.32454 0.24712 0.79694 0.0
H326 H 0.24546 0.30633 0.85007 0.0
H327 H 0.28643 0.28147 0.85852 0.0
H328 H 0.345 0.22818 0.78687 0.0
H329 H 0.33323 0.26447 0.82312 0.0
H330 H 0.19288 0.26654 0.66381 0.0
H331 H 0.17712 0.29607 0.7062 0.0
H332 H 0.21789 0.21503 0.65586 0.0
H333 H 0.26294 0.1971 0.65833 0.0
C334 C 0.74845 0.21285 0.72743 0.0
C335 C 0.72831 0.22005 0.76785 0.0
C336 C 0.75869 0.28116 0.77473 0.0
C337 C 0.78083 0.27271 0.73626 0.0
N338 N 0.80018 0.22939 0.6784 0.0
N339 N 0.71783 0.25816 0.83384 0.0
C340 C 0.77687 0.23809 0.71349 0.0
C341 C 0.7342 0.25355 0.79243 0.0
N342 N 0.73898 0.18296 0.70104 0.0
N343 N 0.76109 0.31561 0.79444 0.0
H344 H 0.69982 0.23858 0.84805 0.0
H345 H 0.7243 0.27983 0.8559 0.0
H346 H 0.78058 0.33569 0.78478 0.0
H347 H 0.74237 0.32523 0.81871 0.0
H348 H 0.74971 0.17838 0.66881 0.0
H349 H 0.71778 0.16427 0.7095 0.0
H350 H 0.80183 0.20293 0.66405 0.0
H351 H 0.81972 0.24802 0.66522 0.0
C352 C 0.13884 0.32146 0.98101 0.0
C353 C 0.15563 0.35114 0.95664 0.0
C354 C 0.16969 0.3833 0.02778 0.0
C355 C 0.15548 0.35229 0.05216 0.0
N356 N 0.13563 0.28793 0.05191 0.0
N357 N 0.19556 0.40545 0.95713 0.0
C358 C 0.14281 0.32014 0.02874 0.0
C359 C 0.17365 0.38064 0.98012 0.0
N360 N 0.11744 0.29558 0.9591 0.0
N361 N 0.17757 0.416 0.04957 0.0
H362 H 0.20026 0.40371 0.92239 0.0
H363 H 0.21223 0.42524 0.97319 0.0
H364 H 0.17413 0.41969 0.08426 0.0
H365 H 0.1841 0.44062 0.03257 0.0
H366 H 0.10136 0.27578 0.97602 0.0
H367 H 0.11271 0.29605 0.92434 0.0
H368 H 0.1298 0.26266 0.03599 0.0
H369 H 0.13947 0.28543 0.08674 0.0
C370 C 0.6727 0.17889 0.97753 0.0
C371 C 0.65819 0.14781 0.95353 0.0
C372 C 0.63761 0.11924 0.02461 0.0
C373 C 0.65451 0.14897 0.04879 0.0
N374 N 0.69244 0.20446 0.04974 0.0
N375 N 0.63043 0.08637 0.95361 0.0
C376 C 0.67311 0.17823 0.02566 0.0
C377 C 0.64196 0.11726 0.97694 0.0
N378 N 0.68592 0.20907 0.95426 0.0
N379 N 0.61557 0.09407 0.04696 0.0
H380 H 0.63041 0.08467 0.91843 0.0
H381 H 0.62298 0.06138 0.96912 0.0
H382 H 0.61103 0.09486 0.08178 0.0
H383 H 0.599 0.07432 0.03076 0.0
H384 H 0.69281 0.23437 0.96938 0.0
H385 H 0.68808 0.20956 0.91913 0.0
H386 H 0.70985 0.2243 0.03506 0.0
H387 H 0.69341 0.2047 0.08499 0.0
C388 C 0.86149 0.67963 0.97268 0.0
C389 C 0.85192 0.64691 0.94834 0.0
C390 C 0.84544 0.61239 0.01941 0.0
C391 C 0.85163 0.64594 0.04373 0.0
N392 N 0.85698 0.71312 0.04348 0.0
N393 N 0.8267 0.58441 0.94851 0.0
C394 C 0.8572 0.68008 0.02037 0.0
C395 C 0.84156 0.61389 0.97168 0.0
N396 N 0.87629 0.70973 0.95064 0.0
N397 N 0.84498 0.57888 0.04149 0.0
H398 H 0.82245 0.5847 0.91364 0.0
H399 H 0.8151 0.5612 0.96439 0.0
H400 H 0.84861 0.57633 0.07632 0.0
H401 H 0.84458 0.55331 0.02475 0.0
H402 H 0.88746 0.73271 0.96742 0.0
H403 H 0.88083 0.7103 0.91582 0.0
H404 H 0.85716 0.73904 0.02753 0.0
H405 H 0.85268 0.71482 0.07829 0.0
C406 C 0.31691 0.87079 0.01887 0.0
C407 C 0.34613 0.85277 0.04288 0.0
C408 C 0.37233 0.8305 0.97147 0.0
C409 C 0.34651 0.85303 0.94744 0.0
N410 N 0.29783 0.89967 0.9486 0.0
N411 N 0.40623 0.82195 0.04119 0.0
C412 C 0.31962 0.8745 0.97115 0.0
C413 C 0.37508 0.83425 0.01902 0.0
N414 N 0.28594 0.88317 0.04132 0.0
N415 N 0.39337 0.80453 0.94916 0.0
H416 H 0.41046 0.82558 0.07576 0.0
H417 H 0.4297 0.81175 0.02443 0.0
H418 H 0.39112 0.79971 0.91449 0.0
H419 H 0.40992 0.78497 0.96582 0.0
H420 H 0.26228 0.89321 0.02485 0.0
H421 H 0.28225 0.8798 0.07606 0.0
H422 H 0.28063 0.91881 0.965 0.0
H423 H 0.2995 0.90394 0.91379 0.0
C424 C 0.18208 0.64571 0.52272 0.0
C425 C 0.14794 0.6497 0.54666 0.0
C426 C 0.11524 0.66015 0.47515 0.0
C427 C 0.14819 0.65063 0.45112 0.0
N428 N 0.21139 0.62698 0.45269 0.0
N429 N 0.08046 0.6527 0.5445 0.0
C430 C 0.18127 0.64142 0.47502 0.0
C431 C 0.11403 0.65478 0.52262 0.0
N432 N 0.21541 0.64756 0.54511 0.0
N433 N 0.08555 0.67571 0.45308 0.0
H434 H 0.07795 0.64697 0.57891 0.0
H435 H 0.05498 0.65259 0.52751 0.0
H436 H 0.08582 0.68181 0.41861 0.0
H437 H 0.06234 0.68643 0.46991 0.0
H438 H 0.24107 0.64836 0.52851 0.0
H439 H 0.21744 0.65252 0.57976 0.0
H440 H 0.2347 0.61631 0.46935 0.0
H441 H 0.21161 0.622 0.41797 0.0
C442 C 0.33194 0.18497 0.52716 0.0
C443 C 0.34632 0.15319 0.54994 0.0
C444 C 0.36222 0.12413 0.47751 0.0
C445 C 0.34535 0.1546 0.45465 0.0
N446 N 0.31006 0.21178 0.45649 0.0
N447 N 0.37127 0.09061 0.54776 0.0
C448 C 0.32924 0.18457 0.47912 0.0
C449 C 0.36008 0.12209 0.52537 0.0
N450 N 0.32096 0.2155 0.55151 0.0
N451 N 0.38214 0.0982 0.45357 0.0
H452 H 0.37271 0.08871 0.58288 0.0
H453 H 0.37692 0.06541 0.53165 0.0
H454 H 0.38515 0.09905 0.41851 0.0
H455 H 0.39861 0.07771 0.46854 0.0
H456 H 0.31432 0.24111 0.53699 0.0
H457 H 0.32037 0.21595 0.58677 0.0
H458 H 0.29421 0.23227 0.47239 0.0
H459 H 0.30772 0.21239 0.42135 0.0
C460 C 0.8591 0.37944 0.47808 0.0
C461 C 0.84511 0.3476 0.4551 0.0
C462 C 0.8325 0.31689 0.52766 0.0
C463 C 0.849 0.34758 0.55044 0.0
N464 N 0.88475 0.40461 0.54744 0.0
N465 N 0.82347 0.28392 0.45687 0.0
C466 C 0.86396 0.37806 0.52572 0.0
C467 C 0.83344 0.3156 0.47957 0.0
N468 N 0.86804 0.41099 0.45439 0.0
N469 N 0.81439 0.28988 0.55187 0.0
H470 H 0.82243 0.28244 0.42171 0.0
H471 H 0.81878 0.25839 0.47268 0.0
H472 H 0.81263 0.29014 0.58707 0.0
H473 H 0.79836 0.26893 0.53712 0.0
H474 H 0.87369 0.43653 0.4697 0.0
H475 H 0.86758 0.41249 0.4192 0.0
H476 H 0.89986 0.42522 0.5307 0.0
H477 H 0.89003 0.40409 0.5821 0.0
C478 C 0.61728 0.86777 0.5168 0.0
C479 C 0.64162 0.84361 0.54071 0.0
C480 C 0.66676 0.81954 0.46944 0.0
C481 C 0.64105 0.84231 0.44552 0.0
N482 N 0.58648 0.88178 0.44588 0.0
N483 N 0.68499 0.79212 0.54107 0.0
C484 C 0.6148 0.86473 0.46905 0.0
C485 C 0.66477 0.81792 0.5174 0.0
N486 N 0.59668 0.89376 0.5397 0.0
N487 N 0.69449 0.80128 0.4466 0.0
H488 H 0.68563 0.79117 0.5763 0.0
H489 H 0.699 0.76996 0.52589 0.0
H490 H 0.69745 0.80239 0.41157 0.0
H491 H 0.71653 0.78762 0.46248 0.0
H492 H 0.58205 0.91518 0.52383 0.0
H493 H 0.59598 0.89547 0.5749 0.0
H494 H 0.56428 0.89537 0.46151 0.0
H495 H 0.58307 0.87932 0.41098 0.0
C496 C 0.15035 0.51036 0.30076 0.0
C497 C 0.16107 0.53941 0.27102 0.0
C498 C 0.17358 0.4934 0.21162 0.0
C499 C 0.15755 0.46523 0.2392 0.0
N500 N 0.1245 0.44838 0.30758 0.0
N501 N 0.17811 0.55952 0.19582 0.0
C502 C 0.14452 0.47397 0.28331 0.0
C503 C 0.17172 0.53124 0.22586 0.0
N504 N 0.14633 0.51745 0.34592 0.0
N505 N 0.19152 0.48394 0.17247 0.0
H506 H 0.17683 0.58765 0.20458 0.0
H507 H 0.18163 0.55514 0.16126 0.0
H508 H 0.19421 0.45643 0.16143 0.0
H509 H 0.2069 0.50289 0.15333 0.0
H510 H 0.14216 0.49656 0.36989 0.0
H511 H 0.15108 0.54373 0.35998 0.0
H512 H 0.11102 0.45477 0.33781 0.0
H513 H 0.118 0.42185 0.29554 0.0
C514 C 0.52062 0.18537 0.26184 0.0
C515 C 0.53319 0.15464 0.23566 0.0
C516 C 0.47055 0.12712 0.23793 0.0
C517 C 0.45883 0.15619 0.2672 0.0
N518 N 0.47308 0.21061 0.31178 0.0
N519 N 0.52254 0.0927 0.20629 0.0
C520 C 0.48403 0.1846 0.28068 0.0
C521 C 0.50877 0.12459 0.22551 0.0
N522 N 0.54307 0.21592 0.26709 0.0
N523 N 0.44511 0.10194 0.22182 0.0
H524 H 0.55056 0.08923 0.19773 0.0
H525 H 0.50704 0.06829 0.20277 0.0
H526 H 0.41707 0.102 0.23128 0.0
H527 H 0.45111 0.08273 0.19644 0.0
H528 H 0.53416 0.24079 0.28171 0.0
H529 H 0.56986 0.21762 0.25341 0.0
H530 H 0.49131 0.22947 0.32689 0.0
H531 H 0.44603 0.21179 0.3248 0.0
C532 C 0.87727 0.51923 0.24721 0.0
C533 C 0.84497 0.53562 0.22764 0.0
C534 C 0.80902 0.47897 0.24466 0.0
C535 C 0.84204 0.46185 0.2611 0.0
N536 N 0.90906 0.46252 0.26925 0.0
N537 N 0.78169 0.52939 0.20093 0.0
C538 C 0.8766 0.48107 0.25982 0.0
C539 C 0.81119 0.51505 0.22455 0.0
N540 N 0.90811 0.54053 0.2559 0.0
N541 N 0.77549 0.46121 0.24953 0.0
H542 H 0.78239 0.55557 0.18553 0.0
H543 H 0.7577 0.51424 0.19336 0.0
H544 H 0.77303 0.4346 0.26353 0.0
H545 H 0.74989 0.47382 0.24283 0.0
H546 H 0.9308 0.53109 0.27472 0.0
H547 H 0.90969 0.56883 0.24829 0.0
H548 H 0.93543 0.47384 0.26357 0.0
H549 H 0.9099 0.43451 0.27872 0.0
C550 C 0.5174 0.80695 0.24632 0.0
C551 C 0.53464 0.84094 0.25943 0.0
C552 C 0.47912 0.8759 0.23625 0.0
C553 C 0.46049 0.84172 0.22752 0.0
N554 N 0.45987 0.77457 0.2272 0.0
N555 N 0.53161 0.90766 0.27053 0.0
C556 C 0.47915 0.80714 0.23304 0.0
C557 C 0.51532 0.87537 0.25568 0.0
N558 N 0.53764 0.77461 0.2465 0.0
N559 N 0.463 0.90889 0.22356 0.0
H560 H 0.55919 0.90923 0.28157 0.0
H561 H 0.51715 0.93266 0.27442 0.0
H562 H 0.43709 0.91036 0.2077 0.0
H563 H 0.47661 0.93453 0.22464 0.0
H564 H 0.52815 0.74963 0.23273 0.0
H565 H 0.56512 0.77317 0.25806 0.0
H566 H 0.4705 0.74838 0.23528 0.0
H567 H 0.43202 0.77383 0.21691 0.0
C568 C 0.85595 0.50818 0.79475 0.0
C569 C 0.83837 0.53566 0.76742 0.0
C570 C 0.82352 0.4883 0.71039 0.0
C571 C 0.8397 0.46065 0.73862 0.0
N572 N 0.86512 0.44255 0.81096 0.0
N573 N 0.79924 0.55134 0.70399 0.0
C574 C 0.85363 0.47003 0.78204 0.0
C575 C 0.82038 0.52556 0.72653 0.0
N576 N 0.87713 0.51869 0.8311 0.0
N577 N 0.81152 0.47897 0.66798 0.0
H578 H 0.79592 0.57871 0.71532 0.0
H579 H 0.78238 0.54494 0.6764 0.0
H580 H 0.81109 0.45157 0.6561 0.0
H581 H 0.80378 0.49851 0.64369 0.0
H582 H 0.89421 0.50041 0.84898 0.0
H583 H 0.88051 0.54633 0.8412 0.0
H584 H 0.87138 0.44731 0.84485 0.0
H585 H 0.86574 0.41439 0.80225 0.0
C586 C 0.50924 0.80968 0.70352 0.0
C587 C 0.53739 0.82802 0.72894 0.0
C588 C 0.49086 0.84934 0.78376 0.0
C589 C 0.46289 0.82972 0.75943 0.0
N590 N 0.44557 0.78632 0.701 0.0
N591 N 0.55668 0.85993 0.79702 0.0
C592 C 0.47211 0.80843 0.72063 0.0
C593 C 0.52876 0.84579 0.7705 0.0
N594 N 0.51799 0.794 0.66273 0.0
N595 N 0.48099 0.87354 0.81753 0.0
H596 H 0.58468 0.86021 0.78751 0.0
H597 H 0.55251 0.86894 0.8301 0.0
H598 H 0.45352 0.87784 0.8279 0.0
H599 H 0.49955 0.89206 0.83269 0.0
H600 H 0.49816 0.7841 0.63999 0.0
H601 H 0.54529 0.79246 0.65053 0.0
H602 H 0.45119 0.7673 0.67531 0.0
H603 H 0.41818 0.78483 0.7129 0.0
C604 C 0.18841 0.47275 0.72888 0.0
C605 C 0.1708 0.46468 0.77067 0.0
C606 C 0.15798 0.53115 0.78243 0.0
C607 C 0.17129 0.53854 0.73815 0.0
N608 N 0.19804 0.51717 0.66802 0.0
N609 N 0.13459 0.48497 0.83505 0.0
C610 C 0.18634 0.50954 0.71105 0.0
C611 C 0.15493 0.49359 0.79728 0.0
N612 N 0.20794 0.44539 0.70698 0.0
N613 N 0.14758 0.55994 0.81006 0.0
H614 H 0.13105 0.45783 0.84695 0.0
H615 H 0.11848 0.50428 0.85267 0.0
H616 H 0.14735 0.58775 0.79982 0.0
H617 H 0.14186 0.55666 0.84435 0.0
H618 H 0.22443 0.45014 0.67859 0.0
H619 H 0.21024 0.41826 0.71948 0.0
H620 H 0.205 0.4967 0.64453 0.0
H621 H 0.19916 0.54419 0.65495 0.0
C622 C 0.48711 0.18861 0.7432 0.0
C623 C 0.46401 0.15662 0.74642 0.0
C624 C 0.51664 0.11977 0.77467 0.0
C625 C 0.53916 0.15239 0.77457 0.0
N626 N 0.5442 0.21924 0.76695 0.0
N627 N 0.45434 0.09351 0.77231 0.0
C628 C 0.52399 0.18725 0.76101 0.0
C629 C 0.47798 0.12281 0.76467 0.0
N630 N 0.47392 0.22012 0.72263 0.0
N631 N 0.53258 0.08553 0.7815 0.0
H632 H 0.42603 0.09416 0.76412 0.0
H633 H 0.46205 0.0697 0.7902 0.0
H634 H 0.56102 0.08175 0.78738 0.0
H635 H 0.51836 0.06047 0.77695 0.0
H636 H 0.49072 0.24283 0.71437 0.0
H637 H 0.44647 0.22269 0.71123 0.0
H638 H 0.53329 0.24585 0.76204 0.0
H639 H 0.57098 0.21947 0.78078 0.0
C640 C 0.68607 0.00737 0.77748 0.0
C641 C 0.66228 0.03462 0.75788 0.0
C642 C 0.64227 0.98927 0.7009 0.0
C643 C 0.66171 0.96079 0.72444 0.0
N644 N 0.69883 0.94158 0.78845 0.0
N645 N 0.61288 0.04985 0.70529 0.0
C646 C 0.68304 0.96951 0.76345 0.0
C647 C 0.63924 0.02527 0.72051 0.0
N648 N 0.71222 0.01785 0.80864 0.0
N649 N 0.62745 0.98214 0.65918 0.0
H650 H 0.60879 0.07622 0.7193 0.0
H651 H 0.59258 0.04275 0.68159 0.0
H652 H 0.62993 0.95631 0.64318 0.0
H653 H 0.61622 0.00283 0.63851 0.0
H654 H 0.73283 -6e-05 0.82075 0.0
H655 H 0.71564 0.04542 0.81916 0.0
H656 H 0.711 0.94593 0.82 0.0
H657 H 0.6972 0.91349 0.77952 0.0
C658 C 0.99219 0.64026 0.79097 0.0
C659 C 0.96553 0.66391 0.76997 0.0
C660 C 0.01308 0.68558 0.71634 0.0
C661 C 0.04002 0.66333 0.73893 0.0
N662 N 0.05758 0.62753 0.8046 0.0
N663 N 0.95206 0.7149 0.7194 0.0
C664 C 0.03028 0.64323 0.77847 0.0
C665 C 0.97645 0.68842 0.73469 0.0
N666 N 0.98099 0.61328 0.82076 0.0
N667 N 0.02177 0.70235 0.67619 0.0
H668 H 0.92518 0.71796 0.7325 0.0
H669 H 0.95957 0.73596 0.69691 0.0
H670 H 0.0482 0.70087 0.66153 0.0
H671 H 0.00205 0.71531 0.65563 0.0
H672 H 0.9988 0.59262 0.83295 0.0
H673 H 0.95325 0.60907 0.83006 0.0
H674 H 0.05242 0.61566 0.83614 0.0
H675 H 0.08594 0.62988 0.79702 0.0
C676 C 0.34296 0.02982 0.77898 0.0
C677 C 0.34552 0.03785 0.73204 0.0
C678 C 0.35134 0.9711 0.71582 0.0
C679 C 0.34488 0.96294 0.76217 0.0
N680 N 0.32507 0.98458 0.83568 0.0
N681 N 0.3425 0.01544 0.65512 0.0
C682 C 0.33778 0.99232 0.79313 0.0
C683 C 0.34677 0.00827 0.70021 0.0
N684 N 0.34763 0.05745 0.81033 0.0
N685 N 0.36393 0.94404 0.68705 0.0
H686 H 0.33755 0.04213 0.6424 0.0
H687 H 0.33971 0.99444 0.63099 0.0
H688 H 0.36951 0.91677 0.69719 0.0
H689 H 0.37269 0.94969 0.65415 0.0
H690 H 0.34977 0.05216 0.84487 0.0
H691 H 0.35342 0.08507 0.80186 0.0
H692 H 0.31609 0.0052 0.85803 0.0
H693 H 0.31958 0.95753 0.84686 0.0
C694 C 0.02439 0.31067 0.75627 0.0
C695 C 0.03959 0.34402 0.77444 0.0
C696 C 0.9796 0.37592 0.76375 0.0
C697 C 0.96529 0.34346 0.7424 0.0
N698 N 0.97446 0.28118 0.71373 0.0
N699 N 0.03433 0.41029 0.78779 0.0
C700 C 0.98788 0.3112 0.73718 0.0
C701 C 0.01784 0.37712 0.77647 0.0
N702 N 0.04433 0.2782 0.75896 0.0
N703 N 0.95673 0.40581 0.77155 0.0
H704 H 0.06249 0.41277 0.79618 0.0
H705 H 0.0211 0.43604 0.78488 0.0
H706 H 0.92934 0.40737 0.75981 0.0
H707 H 0.96409 0.4282 0.79213 0.0
H708 H 0.03347 0.25215 0.7507 0.0
H709 H 0.071 0.27678 0.77302 0.0
H710 H 0.99087 0.25857 0.70409 0.0
H711 H 0.94721 0.27978 0.70141 0.0
C712 C 0.30766 0.02572 0.24174 0.0
C713 C 0.33947 0.03897 0.26548 0.0
C714 C 0.36789 0.97709 0.26147 0.0
C715 C 0.33832 0.96505 0.23323 0.0
N716 N 0.28202 0.97852 0.19175 0.0
N717 N 0.40324 0.02943 0.28981 0.0
C718 C 0.3086 0.98948 0.22211 0.0
C719 C 0.37053 0.01525 0.27323 0.0
N720 N 0.27615 0.04715 0.23939 0.0
N721 N 0.39281 0.95179 0.27837 0.0
H722 H 0.40696 0.05751 0.29778 0.0
H723 H 0.42791 0.01408 0.29131 0.0
H724 H 0.39098 0.92328 0.27177 0.0
H725 H 0.41276 0.95844 0.3027 0.0
H726 H 0.25087 0.03748 0.22656 0.0
H727 H 0.27425 0.07361 0.25387 0.0
H728 H 0.26205 0.99654 0.1784 0.0
H729 H 0.28159 0.95198 0.17729 0.0
C730 C 0.96869 0.36565 0.23094 0.0
C731 C 0.9584 0.343 0.26822 0.0
C732 C 0.02255 0.31947 0.274 0.0
C733 C 0.03347 0.34464 0.23942 0.0
N734 N 0.01874 0.39711 0.19135 0.0
N735 N 0.97545 0.30127 0.32873 0.0
C736 C 0.007 0.36905 0.21934 0.0
C737 C 0.98536 0.32083 0.2909 0.0
N738 N 0.94194 0.38416 0.20674 0.0
N739 N 0.04726 0.29326 0.28932 0.0
H740 H 0.94805 0.29989 0.34059 0.0
H741 H 0.99463 0.28821 0.34991 0.0
H742 H 0.07458 0.29117 0.27736 0.0
H743 H 0.03993 0.27163 0.31106 0.0
H744 H 0.94727 0.39747 0.17612 0.0
H745 H 0.91371 0.38399 0.21533 0.0
H746 H 0.00132 0.4183 0.17973 0.0
H747 H 0.04669 0.40163 0.18321 0.0
C748 C 0.6348 0.9867 0.28622 0.0
C749 C 0.65697 0.9604 0.26232 0.0
C750 C 0.67635 0.00897 0.20887 0.0
C751 C 0.65598 0.03562 0.23441 0.0
N752 N 0.6201 0.05162 0.30068 0.0
N753 N 0.70339 0.94688 0.20572 0.0
C754 C 0.63676 0.02505 0.27431 0.0
C755 C 0.67898 0.97161 0.22486 0.0
N756 N 0.61008 0.97476 0.31842 0.0
N757 N 0.69285 0.01935 0.16911 0.0
H758 H 0.70617 0.91939 0.21685 0.0
H759 H 0.72304 0.95422 0.18137 0.0
H760 H 0.69336 0.04688 0.15765 0.0
H761 H 0.70426 0.0005 0.14619 0.0
H762 H 0.59001 0.99189 0.33313 0.0
H763 H 0.60717 0.94689 0.32786 0.0
H764 H 0.60962 0.04627 0.33287 0.0
H765 H 0.61901 0.07977 0.29192 0.0
C766 C 0.01954 0.7025 0.25386 0.0
C767 C 0.04186 0.67014 0.24766 0.0
C768 C 0.99093 0.64039 0.20601 0.0
C769 C 0.96692 0.6699 0.21878 0.0
N770 N 0.957 0.72868 0.2563 0.0
N771 N 0.04643 0.6055 0.2239 0.0
C772 C 0.98088 0.70116 0.24269 0.0
C773 C 0.02716 0.63845 0.22486 0.0
N774 N 0.03553 0.73462 0.26951 0.0
N775 N 0.97919 0.61434 0.17534 0.0
H776 H 0.07259 0.60178 0.23845 0.0
H777 H 0.03482 0.58057 0.21248 0.0
H778 H 0.95289 0.61519 0.16021 0.0
H779 H 0.99687 0.59436 0.16132 0.0
H780 H 0.02159 0.76008 0.2709 0.0
H781 H 0.06389 0.73657 0.27723 0.0
H782 H 0.96464 0.75009 0.27822 0.0
H783 H 0.92873 0.7288 0.24784 0.0
loop_
_geom_bond_atom_site_label_1
_geom_bond_atom_site_label_2
_geom_bond_distance
_geom_bond_site_symmetry_2
_ccdc_geom_bond_type
In0 O1 2.294 . S
In0 O2 2.326 . S
In0 O6 2.266 . S
In0 O7 2.326 . S
In0 O8 2.266 . S
In0 O9 2.326 . S
In0 O11 2.294 . S
In0 O12 2.326 . S
O1 In0 2.294 . S
O1 C10 1.240 . S
O2 In0 2.326 . S
O2 C10 1.252 . S
C3 O6 1.252 . S
C3 O7 1.260 . S
C4 O11 1.240 . S
C4 O12 1.252 . S
C5 O8 1.252 . S
C5 O9 1.260 . S
O6 In0 2.266 . S
O6 C3 1.252 . S
O7 In0 2.326 . S
O7 C3 1.260 . S
O8 In0 2.266 . S
O8 C5 1.252 . S
O9 In0 2.326 . S
O9 C5 1.260 . S
C10 O1 1.240 . S
C10 O2 1.252 . S
O11 In0 2.294 . S
O11 C4 1.240 . S
O12 In0 2.326 . S
O12 C4 1.252 . S
In13 O14 2.294 . S
In13 O15 2.326 . S
In13 O19 2.266 . S
In13 O20 2.326 . S
In13 O21 2.266 . S
In13 O22 2.326 . S
In13 O24 2.294 . S
In13 O25 2.326 . S
O14 In13 2.294 . S
O14 C23 1.240 . S
O15 In13 2.326 . S
O15 C23 1.252 . S
C16 O19 1.252 . S
C16 O20 1.260 . S
C17 O24 1.240 . S
C17 O25 1.252 . S
C18 O21 1.252 . S
C18 O22 1.260 . S
O19 In13 2.266 . S
O19 C16 1.252 . S
O20 In13 2.326 . S
O20 C16 1.260 . S
O21 In13 2.266 . S
O21 C18 1.252 . S
O22 In13 2.326 . S
O22 C18 1.260 . S
C23 O14 1.240 . S
C23 O15 1.252 . S
O24 In13 2.294 . S
O24 C17 1.240 . S
O25 In13 2.326 . S
O25 C17 1.252 . S
In26 O27 2.294 . S
In26 O28 2.326 . S
In26 O32 2.266 . S
In26 O33 2.326 . S
In26 O34 2.266 . S
In26 O35 2.326 . S
In26 O37 2.294 . S
In26 O38 2.326 . S
O27 In26 2.294 . S
O27 C36 1.240 . S
O28 In26 2.326 . S
O28 C36 1.252 . S
C29 O32 1.252 . S
C29 O33 1.260 . S
C30 O37 1.240 . S
C30 O38 1.252 . S
C31 O34 1.252 . S
C31 O35 1.260 . S
O32 In26 2.266 . S
O32 C29 1.252 . S
O33 In26 2.326 . S
O33 C29 1.260 . S
O34 In26 2.266 . S
O34 C31 1.252 . S
O35 In26 2.326 . S
O35 C31 1.260 . S
C36 O27 1.240 . S
C36 O28 1.252 . S
O37 In26 2.294 . S
O37 C30 1.240 . S
O38 In26 2.326 . S
O38 C30 1.252 . S
In39 O40 2.294 . S
In39 O41 2.326 . S
In39 O45 2.266 . S
In39 O46 2.326 . S
In39 O47 2.266 . S
In39 O48 2.326 . S
In39 O50 2.294 . S
In39 O51 2.326 . S
O40 In39 2.294 . S
O40 C49 1.240 . S
O41 In39 2.326 . S
O41 C49 1.252 . S
C42 O45 1.252 . S
C42 O46 1.260 . S
C43 O50 1.240 . S
C43 O51 1.252 . S
C44 O47 1.252 . S
C44 O48 1.260 . S
O45 In39 2.266 . S
O45 C42 1.252 . S
O46 In39 2.326 . S
O46 C42 1.260 . S
O47 In39 2.266 . S
O47 C44 1.252 . S
O48 In39 2.326 . S
O48 C44 1.260 . S
C49 O40 1.240 . S
C49 O41 1.252 . S
O50 In39 2.294 . S
O50 C43 1.240 . S
O51 In39 2.326 . S
O51 C43 1.252 . S
In52 O53 2.294 . S
In52 O54 2.326 . S
In52 O58 2.266 . S
In52 O59 2.326 . S
In52 O60 2.266 . S
In52 O61 2.326 . S
In52 O63 2.294 . S
In52 O64 2.326 . S
O53 In52 2.294 . S
O53 C62 1.240 . S
O54 In52 2.326 . S
O54 C62 1.252 . S
C55 O58 1.252 . S
C55 O59 1.260 . S
C56 O63 1.240 . S
C56 O64 1.252 . S
C57 O60 1.252 . S
C57 O61 1.260 . S
O58 In52 2.266 . S
O58 C55 1.252 . S
O59 In52 2.326 . S
O59 C55 1.260 . S
O60 In52 2.266 . S
O60 C57 1.252 . S
O61 In52 2.326 . S
O61 C57 1.260 . S
C62 O53 1.240 . S
C62 O54 1.252 . S
O63 In52 2.294 . S
O63 C56 1.240 . S
O64 In52 2.326 . S
O64 C56 1.252 . S
In65 O66 2.294 . S
In65 O67 2.326 . S
In65 O71 2.266 . S
In65 O72 2.326 . S
In65 O73 2.266 . S
In65 O74 2.326 . S
In65 O76 2.294 . S
In65 O77 2.326 . S
O66 In65 2.294 . S
O66 C75 1.240 . S
O67 In65 2.326 . S
O67 C75 1.252 . S
C68 O71 1.252 . S
C68 O72 1.260 . S
C69 O76 1.240 . S
C69 O77 1.252 . S
C70 O73 1.252 . S
C70 O74 1.260 . S
O71 In65 2.266 . S
O71 C68 1.252 . S
O72 In65 2.326 . S
O72 C68 1.260 . S
O73 In65 2.266 . S
O73 C70 1.252 . S
O74 In65 2.326 . S
O74 C70 1.260 . S
C75 O66 1.240 . S
C75 O67 1.252 . S
O76 In65 2.294 . S
O76 C69 1.240 . S
O77 In65 2.326 . S
O77 C69 1.252 . S
In78 O79 2.294 . S
In78 O80 2.326 . S
In78 O84 2.266 . S
In78 O85 2.326 . S
In78 O86 2.266 . S
In78 O87 2.326 . S
In78 O89 2.294 . S
In78 O90 2.326 . S
O79 In78 2.294 . S
O79 C88 1.240 . S
O80 In78 2.326 . S
O80 C88 1.252 . S
C81 O84 1.252 . S
C81 O85 1.260 . S
C82 O89 1.240 . S
C82 O90 1.252 . S
C83 O86 1.252 . S
C83 O87 1.260 . S
O84 In78 2.266 . S
O84 C81 1.252 . S
O85 In78 2.326 . S
O85 C81 1.260 . S
O86 In78 2.266 . S
O86 C83 1.252 . S
O87 In78 2.326 . S
O87 C83 1.260 . S
C88 O79 1.240 . S
C88 O80 1.252 . S
O89 In78 2.294 . S
O89 C82 1.240 . S
O90 In78 2.326 . S
O90 C82 1.252 . S
In91 O92 2.294 . S
In91 O93 2.326 . S
In91 O97 2.266 . S
In91 O98 2.326 . S
In91 O99 2.266 . S
In91 O100 2.326 . S
In91 O102 2.294 . S
In91 O103 2.326 . S
O92 In91 2.294 . S
O92 C101 1.240 . S
O93 In91 2.326 . S
O93 C101 1.252 . S
C94 O97 1.252 . S
C94 O98 1.260 . S
C95 O102 1.240 . S
C95 O103 1.252 . S
C96 O99 1.252 . S
C96 O100 1.260 . S
O97 In91 2.266 . S
O97 C94 1.252 . S
O98 In91 2.326 . S
O98 C94 1.260 . S
O99 In91 2.266 . S
O99 C96 1.252 . S
O100 In91 2.326 . S
O100 C96 1.260 . S
C101 O92 1.240 . S
C101 O93 1.252 . S
O102 In91 2.294 . S
O102 C95 1.240 . S
O103 In91 2.326 . S
O103 C95 1.252 . S
In104 O105 2.294 . S
In104 O106 2.326 . S
In104 O110 2.266 . S
In104 O111 2.326 . S
In104 O112 2.266 . S
In104 O113 2.326 . S
In104 O115 2.294 . S
In104 O116 2.326 . S
O105 In104 2.294 . S
O105 C114 1.240 . S
O106 In104 2.326 . S
O106 C114 1.252 . S
C107 O110 1.252 . S
C107 O111 1.260 . S
C108 O115 1.240 . S
C108 O116 1.252 . S
C109 O112 1.252 . S
C109 O113 1.260 . S
O110 In104 2.266 . S
O110 C107 1.252 . S
O111 In104 2.326 . S
O111 C107 1.260 . S
O112 In104 2.266 . S
O112 C109 1.252 . S
O113 In104 2.326 . S
O113 C109 1.260 . S
C114 O105 1.240 . S
C114 O106 1.252 . S
O115 In104 2.294 . S
O115 C108 1.240 . S
O116 In104 2.326 . S
O116 C108 1.252 . S
In117 O118 2.294 . S
In117 O119 2.326 . S
In117 O123 2.266 . S
In117 O124 2.326 . S
In117 O125 2.266 . S
In117 O126 2.326 . S
In117 O128 2.294 . S
In117 O129 2.326 . S
O118 In117 2.294 . S
O118 C127 1.240 . S
O119 In117 2.326 . S
O119 C127 1.252 . S
C120 O123 1.252 . S
C120 O124 1.260 . S
C121 O128 1.240 . S
C121 O129 1.252 . S
C122 O125 1.252 . S
C122 O126 1.260 . S
O123 In117 2.266 . S
O123 C120 1.252 . S
O124 In117 2.326 . S
O124 C120 1.260 . S
O125 In117 2.266 . S
O125 C122 1.252 . S
O126 In117 2.326 . S
O126 C122 1.260 . S
C127 O118 1.240 . S
C127 O119 1.252 . S
O128 In117 2.294 . S
O128 C121 1.240 . S
O129 In117 2.326 . S
O129 C121 1.252 . S
In130 O131 2.294 . S
In130 O132 2.326 . S
In130 O136 2.266 . S
In130 O137 2.326 . S
In130 O138 2.266 . S
In130 O139 2.326 . S
In130 O141 2.294 . S
In130 O142 2.326 . S
O131 In130 2.294 . S
O131 C140 1.240 . S
O132 In130 2.326 . S
O132 C140 1.252 . S
C133 O136 1.252 . S
C133 O137 1.260 . S
C134 O141 1.240 . S
C134 O142 1.252 . S
C135 O138 1.252 . S
C135 O139 1.260 . S
O136 In130 2.266 . S
O136 C133 1.252 . S
O137 In130 2.326 . S
O137 C133 1.260 . S
O138 In130 2.266 . S
O138 C135 1.252 . S
O139 In130 2.326 . S
O139 C135 1.260 . S
C140 O131 1.240 . S
C140 O132 1.252 . S
O141 In130 2.294 . S
O141 C134 1.240 . S
O142 In130 2.326 . S
O142 C134 1.252 . S
In143 O144 2.294 . S
In143 O145 2.326 . S
In143 O149 2.266 . S
In143 O150 2.326 . S
In143 O151 2.266 . S
In143 O152 2.326 . S
In143 O154 2.294 . S
In143 O155 2.326 . S
O144 In143 2.294 . S
O144 C153 1.240 . S
O145 In143 2.326 . S
O145 C153 1.252 . S
C146 O149 1.252 . S
C146 O150 1.260 . S
C147 O154 1.240 . S
C147 O155 1.252 . S
C148 O151 1.252 . S
C148 O152 1.260 . S
O149 In143 2.266 . S
O149 C146 1.252 . S
O150 In143 2.326 . S
O150 C146 1.260 . S
O151 In143 2.266 . S
O151 C148 1.252 . S
O152 In143 2.326 . S
O152 C148 1.260 . S
C153 O144 1.240 . S
C153 O145 1.252 . S
O154 In143 2.294 . S
O154 C147 1.240 . S
O155 In143 2.326 . S
O155 C147 1.252 . S
In156 O157 2.294 . S
In156 O158 2.326 . S
In156 O162 2.266 . S
In156 O163 2.326 . S
In156 O164 2.266 . S
In156 O165 2.326 . S
In156 O167 2.294 . S
In156 O168 2.326 . S
O157 In156 2.294 . S
O157 C166 1.240 . S
O158 In156 2.326 . S
O158 C166 1.252 . S
C159 O162 1.252 . S
C159 O163 1.260 . S
C160 O167 1.240 . S
C160 O168 1.252 . S
C161 O164 1.252 . S
C161 O165 1.260 . S
O162 In156 2.266 . S
O162 C159 1.252 . S
O163 In156 2.326 . S
O163 C159 1.260 . S
O164 In156 2.266 . S
O164 C161 1.252 . S
O165 In156 2.326 . S
O165 C161 1.260 . S
C166 O157 1.240 . S
C166 O158 1.252 . S
O167 In156 2.294 . S
O167 C160 1.240 . S
O168 In156 2.326 . S
O168 C160 1.252 . S
In169 O170 2.294 . S
In169 O171 2.326 . S
In169 O175 2.266 . S
In169 O176 2.326 . S
In169 O177 2.266 . S
In169 O178 2.326 . S
In169 O180 2.294 . S
In169 O181 2.326 . S
O170 In169 2.294 . S
O170 C179 1.240 . S
O171 In169 2.326 . S
O171 C179 1.252 . S
C172 O175 1.252 . S
C172 O176 1.260 . S
C173 O180 1.240 . S
C173 O181 1.252 . S
C174 O177 1.252 . S
C174 O178 1.260 . S
O175 In169 2.266 . S
O175 C172 1.252 . S
O176 In169 2.326 . S
O176 C172 1.260 . S
O177 In169 2.266 . S
O177 C174 1.252 . S
O178 In169 2.326 . S
O178 C174 1.260 . S
C179 O170 1.240 . S
C179 O171 1.252 . S
O180 In169 2.294 . S
O180 C173 1.240 . S
O181 In169 2.326 . S
O181 C173 1.252 . S
In182 O183 2.294 . S
In182 O184 2.326 . S
In182 O188 2.266 . S
In182 O189 2.326 . S
In182 O190 2.266 . S
In182 O191 2.326 . S
In182 O193 2.294 . S
In182 O194 2.326 . S
O183 In182 2.294 . S
O183 C192 1.240 . S
O184 In182 2.326 . S
O184 C192 1.252 . S
C185 O188 1.252 . S
C185 O189 1.260 . S
C186 O193 1.240 . S
C186 O194 1.252 . S
C187 O190 1.252 . S
C187 O191 1.260 . S
O188 In182 2.266 . S
O188 C185 1.252 . S
O189 In182 2.326 . S
O189 C185 1.260 . S
O190 In182 2.266 . S
O190 C187 1.252 . S
O191 In182 2.326 . S
O191 C187 1.260 . S
C192 O183 1.240 . S
C192 O184 1.252 . S
O193 In182 2.294 . S
O193 C186 1.240 . S
O194 In182 2.326 . S
O194 C186 1.252 . S
In195 O196 2.294 . S
In195 O197 2.326 . S
In195 O201 2.266 . S
In195 O202 2.326 . S
In195 O203 2.266 . S
In195 O204 2.326 . S
In195 O206 2.294 . S
In195 O207 2.326 . S
O196 In195 2.294 . S
O196 C205 1.240 . S
O197 In195 2.326 . S
O197 C205 1.252 . S
C198 O201 1.252 . S
C198 O202 1.260 . S
C199 O206 1.240 . S
C199 O207 1.252 . S
C200 O203 1.252 . S
C200 O204 1.260 . S
O201 In195 2.266 . S
O201 C198 1.252 . S
O202 In195 2.326 . S
O202 C198 1.260 . S
O203 In195 2.266 . S
O203 C200 1.252 . S
O204 In195 2.326 . S
O204 C200 1.260 . S
C205 O196 1.240 . S
C205 O197 1.252 . S
O206 In195 2.294 . S
O206 C199 1.240 . S
O207 In195 2.326 . S
O207 C199 1.252 . S
C208 C209 1.363 . S
C208 C214 1.379 . S
C208 N216 1.356 . S
C209 C208 1.363 . S
C209 C215 1.363 . S
C210 C211 1.363 . S
C210 C215 1.379 . S
C210 N217 1.356 . S
C211 C210 1.363 . S
C211 C214 1.363 . S
N212 C214 1.356 . S
N212 H224 0.984 . S
N212 H225 0.985 . S
N213 C215 1.356 . S
N213 H218 0.984 . S
N213 H219 0.985 . S
C214 C208 1.379 . S
C214 C211 1.363 . S
C214 N212 1.356 . S
C215 C209 1.363 . S
C215 C210 1.379 . S
C215 N213 1.356 . S
N216 C208 1.356 . S
N216 H222 0.984 . S
N216 H223 0.984 . S
N217 C210 1.356 . S
N217 H220 0.984 . S
N217 H221 0.985 . S
H218 N213 0.984 . S
H219 N213 0.985 . S
H220 N217 0.984 . S
H221 N217 0.985 . S
H222 N216 0.984 . S
H223 N216 0.984 . S
H224 N212 0.984 . S
H225 N212 0.985 . S
C226 C227 1.363 . S
C226 C232 1.379 . S
C226 N234 1.356 . S
C227 C226 1.363 . S
C227 C233 1.363 . S
C228 C229 1.363 . S
C228 C233 1.379 . S
C228 N235 1.356 . S
C229 C228 1.363 . S
C229 C232 1.363 . S
N230 C232 1.356 . S
N230 H242 0.984 . S
N230 H243 0.985 . S
N231 C233 1.356 . S
N231 H236 0.984 . S
N231 H237 0.985 . S
C232 C226 1.379 . S
C232 C229 1.363 . S
C232 N230 1.356 . S
C233 C227 1.363 . S
C233 C228 1.379 . S
C233 N231 1.356 . S
N234 C226 1.356 . S
N234 H240 0.984 . S
N234 H241 0.984 . S
N235 C228 1.356 . S
N235 H238 0.984 . S
N235 H239 0.985 . S
H236 N231 0.984 . S
H237 N231 0.985 . S
H238 N235 0.984 . S
H239 N235 0.985 . S
H240 N234 0.984 . S
H241 N234 0.984 . S
H242 N230 0.984 . S
H243 N230 0.985 . S
C244 C245 1.363 . S
C244 C250 1.379 . S
C244 N252 1.356 . S
C245 C244 1.363 . S
C245 C251 1.363 . S
C246 C247 1.363 . S
C246 C251 1.379 . S
C246 N253 1.356 . S
C247 C246 1.363 . S
C247 C250 1.363 . S
N248 C250 1.356 . S
N248 H260 0.984 . S
N248 H261 0.985 . S
N249 C251 1.356 . S
N249 H254 0.984 . S
N249 H255 0.985 . S
C250 C244 1.379 . S
C250 C247 1.363 . S
C250 N248 1.356 . S
C251 C245 1.363 . S
C251 C246 1.379 . S
C251 N249 1.356 . S
N252 C244 1.356 . S
N252 H258 0.984 . S
N252 H259 0.984 . S
N253 C246 1.356 . S
N253 H256 0.984 . S
N253 H257 0.985 . S
H254 N249 0.984 . S
H255 N249 0.985 . S
H256 N253 0.984 . S
H257 N253 0.985 . S
H258 N252 0.984 . S
H259 N252 0.984 . S
H260 N248 0.984 . S
H261 N248 0.985 . S
C262 C263 1.363 . S
C262 C268 1.379 . S
C262 N270 1.356 . S
C263 C262 1.363 . S
C263 C269 1.363 . S
C264 C265 1.363 . S
C264 C269 1.379 . S
C264 N271 1.356 . S
C265 C264 1.363 . S
C265 C268 1.363 . S
N266 C268 1.356 . S
N266 H278 0.984 . S
N266 H279 0.985 . S
N267 C269 1.356 . S
N267 H272 0.984 . S
N267 H273 0.985 . S
C268 C262 1.379 . S
C268 C265 1.363 . S
C268 N266 1.356 . S
C269 C263 1.363 . S
C269 C264 1.379 . S
C269 N267 1.356 . S
N270 C262 1.356 . S
N270 H276 0.984 . S
N270 H277 0.984 . S
N271 C264 1.356 . S
N271 H274 0.984 . S
N271 H275 0.985 . S
H272 N267 0.984 . S
H273 N267 0.985 . S
H274 N271 0.984 . S
H275 N271 0.985 . S
H276 N270 0.984 . S
H277 N270 0.984 . S
H278 N266 0.984 . S
H279 N266 0.985 . S
C280 C281 1.363 . S
C280 C286 1.379 . S
C280 N288 1.356 . S
C281 C280 1.363 . S
C281 C287 1.363 . S
C282 C283 1.363 . S
C282 C287 1.379 . S
C282 N289 1.356 . S
C283 C282 1.363 . S
C283 C286 1.363 . S
N284 C286 1.356 . S
N284 H296 0.984 . S
N284 H297 0.985 . S
N285 C287 1.356 . S
N285 H290 0.984 . S
N285 H291 0.985 . S
C286 C280 1.379 . S
C286 C283 1.363 . S
C286 N284 1.356 . S
C287 C281 1.363 . S
C287 C282 1.379 . S
C287 N285 1.356 . S
N288 C280 1.356 . S
N288 H294 0.984 . S
N288 H295 0.984 . S
N289 C282 1.356 . S
N289 H292 0.984 . S
N289 H293 0.985 . S
H290 N285 0.984 . S
H291 N285 0.985 . S
H292 N289 0.984 . S
H293 N289 0.985 . S
H294 N288 0.984 . S
H295 N288 0.984 . S
H296 N284 0.984 . S
H297 N284 0.985 . S
C298 C299 1.363 . S
C298 C304 1.379 . S
C298 N306 1.356 . S
C299 C298 1.363 . S
C299 C305 1.363 . S
C300 C301 1.363 . S
C300 C305 1.379 . S
C300 N307 1.356 . S
C301 C300 1.363 . S
C301 C304 1.363 . S
N302 C304 1.356 . S
N302 H314 0.984 . S
N302 H315 0.985 . S
N303 C305 1.356 . S
N303 H308 0.984 . S
N303 H309 0.985 . S
C304 C298 1.379 . S
C304 C301 1.363 . S
C304 N302 1.356 . S
C305 C299 1.363 . S
C305 C300 1.379 . S
C305 N303 1.356 . S
N306 C298 1.356 . S
N306 H312 0.984 . S
N306 H313 0.984 . S
N307 C300 1.356 . S
N307 H310 0.984 . S
N307 H311 0.985 . S
H308 N303 0.984 . S
H309 N303 0.985 . S
H310 N307 0.984 . S
H311 N307 0.985 . S
H312 N306 0.984 . S
H313 N306 0.984 . S
H314 N302 0.984 . S
H315 N302 0.985 . S
C316 C317 1.363 . S
C316 C322 1.379 . S
C316 N324 1.356 . S
C317 C316 1.363 . S
C317 C323 1.363 . S
C318 C319 1.363 . S
C318 C323 1.379 . S
C318 N325 1.356 . S
C319 C318 1.363 . S
C319 C322 1.363 . S
N320 C322 1.356 . S
N320 H332 0.984 . S
N320 H333 0.985 . S
N321 C323 1.356 . S
N321 H326 0.984 . S
N321 H327 0.985 . S
C322 C316 1.379 . S
C322 C319 1.363 . S
C322 N320 1.356 . S
C323 C317 1.363 . S
C323 C318 1.379 . S
C323 N321 1.356 . S
N324 C316 1.356 . S
N324 H330 0.984 . S
N324 H331 0.984 . S
N325 C318 1.356 . S
N325 H328 0.984 . S
N325 H329 0.985 . S
H326 N321 0.984 . S
H327 N321 0.985 . S
H328 N325 0.984 . S
H329 N325 0.985 . S
H330 N324 0.984 . S
H331 N324 0.984 . S
H332 N320 0.984 . S
H333 N320 0.985 . S
C334 C335 1.363 . S
C334 C340 1.379 . S
C334 N342 1.356 . S
C335 C334 1.363 . S
C335 C341 1.363 . S
C336 C337 1.363 . S
C336 C341 1.379 . S
C336 N343 1.356 . S
C337 C336 1.363 . S
C337 C340 1.363 . S
N338 C340 1.356 . S
N338 H350 0.984 . S
N338 H351 0.985 . S
N339 C341 1.356 . S
N339 H344 0.984 . S
N339 H345 0.985 . S
C340 C334 1.379 . S
C340 C337 1.363 . S
C340 N338 1.356 . S
C341 C335 1.363 . S
C341 C336 1.379 . S
C341 N339 1.356 . S
N342 C334 1.356 . S
N342 H348 0.984 . S
N342 H349 0.984 . S
N343 C336 1.356 . S
N343 H346 0.984 . S
N343 H347 0.985 . S
H344 N339 0.984 . S
H345 N339 0.985 . S
H346 N343 0.984 . S
H347 N343 0.985 . S
H348 N342 0.984 . S
H349 N342 0.984 . S
H350 N338 0.984 . S
H351 N338 0.985 . S
C352 C353 1.363 . S
C352 C358 1.379 1_556 S
C352 N360 1.356 . S
C353 C352 1.363 . S
C353 C359 1.363 . S
C354 C355 1.363 . S
C354 C359 1.379 1_554 S
C354 N361 1.356 . S
C355 C354 1.363 . S
C355 C358 1.363 . S
N356 C358 1.356 . S
N356 H368 0.984 . S
N356 H369 0.985 . S
N357 C359 1.356 . S
N357 H362 0.984 . S
N357 H363 0.985 . S
C358 C352 1.379 1_554 S
C358 C355 1.363 . S
C358 N356 1.356 . S
C359 C353 1.363 . S
C359 C354 1.379 1_556 S
C359 N357 1.356 . S
N360 C352 1.356 . S
N360 H366 0.984 . S
N360 H367 0.984 . S
N361 C354 1.356 . S
N361 H364 0.984 . S
N361 H365 0.985 . S
H362 N357 0.984 . S
H363 N357 0.985 . S
H364 N361 0.984 . S
H365 N361 0.985 . S
H366 N360 0.984 . S
H367 N360 0.984 . S
H368 N356 0.984 . S
H369 N356 0.985 . S
C370 C371 1.363 . S
C370 C376 1.379 1_556 S
C370 N378 1.356 . S
C371 C370 1.363 . S
C371 C377 1.363 . S
C372 C373 1.363 . S
C372 C377 1.379 1_554 S
C372 N379 1.356 . S
C373 C372 1.363 . S
C373 C376 1.363 . S
N374 C376 1.356 . S
N374 H386 0.984 . S
N374 H387 0.985 . S
N375 C377 1.356 . S
N375 H380 0.984 . S
N375 H381 0.985 . S
C376 C370 1.379 1_554 S
C376 C373 1.363 . S
C376 N374 1.356 . S
C377 C371 1.363 . S
C377 C372 1.379 1_556 S
C377 N375 1.356 . S
N378 C370 1.356 . S
N378 H384 0.984 . S
N378 H385 0.984 . S
N379 C372 1.356 . S
N379 H382 0.984 . S
N379 H383 0.985 . S
H380 N375 0.984 . S
H381 N375 0.985 . S
H382 N379 0.984 . S
H383 N379 0.985 . S
H384 N378 0.984 . S
H385 N378 0.984 . S
H386 N374 0.984 . S
H387 N374 0.985 . S
C388 C389 1.363 . S
C388 C394 1.379 1_556 S
C388 N396 1.356 . S
C389 C388 1.363 . S
C389 C395 1.363 . S
C390 C391 1.363 . S
C390 C395 1.379 1_554 S
C390 N397 1.356 . S
C391 C390 1.363 . S
C391 C394 1.363 . S
N392 C394 1.356 . S
N392 H404 0.984 . S
N392 H405 0.985 . S
N393 C395 1.356 . S
N393 H398 0.984 . S
N393 H399 0.985 . S
C394 C388 1.379 1_554 S
C394 C391 1.363 . S
C394 N392 1.356 . S
C395 C389 1.363 . S
C395 C390 1.379 1_556 S
C395 N393 1.356 . S
N396 C388 1.356 . S
N396 H402 0.984 . S
N396 H403 0.984 . S
N397 C390 1.356 . S
N397 H400 0.984 . S
N397 H401 0.985 . S
H398 N393 0.984 . S
H399 N393 0.985 . S
H400 N397 0.984 . S
H401 N397 0.985 . S
H402 N396 0.984 . S
H403 N396 0.984 . S
H404 N392 0.984 . S
H405 N392 0.985 . S
C406 C407 1.363 . S
C406 C412 1.379 1_554 S
C406 N414 1.356 . S
C407 C406 1.363 . S
C407 C413 1.363 . S
C408 C409 1.363 . S
C408 C413 1.379 1_556 S
C408 N415 1.356 . S
C409 C408 1.363 . S
C409 C412 1.363 . S
N410 C412 1.356 . S
N410 H422 0.984 . S
N410 H423 0.985 . S
N411 C413 1.356 . S
N411 H416 0.984 . S
N411 H417 0.985 . S
C412 C406 1.379 1_556 S
C412 C409 1.363 . S
C412 N410 1.356 . S
C413 C407 1.363 . S
C413 C408 1.379 1_554 S
C413 N411 1.356 . S
N414 C406 1.356 . S
N414 H420 0.984 . S
N414 H421 0.984 . S
N415 C408 1.356 . S
N415 H418 0.984 . S
N415 H419 0.985 . S
H416 N411 0.984 . S
H417 N411 0.985 . S
H418 N415 0.984 . S
H419 N415 0.985 . S
H420 N414 0.984 . S
H421 N414 0.984 . S
H422 N410 0.984 . S
H423 N410 0.985 . S
C424 C425 1.363 . S
C424 C430 1.379 . S
C424 N432 1.356 . S
C425 C424 1.363 . S
C425 C431 1.363 . S
C426 C427 1.363 . S
C426 C431 1.379 . S
C426 N433 1.356 . S
C427 C426 1.363 . S
C427 C430 1.363 . S
N428 C430 1.356 . S
N428 H440 0.984 . S
N428 H441 0.985 . S
N429 C431 1.356 . S
N429 H434 0.984 . S
N429 H435 0.985 . S
C430 C424 1.379 . S
C430 C427 1.363 . S
C430 N428 1.356 . S
C431 C425 1.363 . S
C431 C426 1.379 . S
C431 N429 1.356 . S
N432 C424 1.356 . S
N432 H438 0.984 . S
N432 H439 0.984 . S
N433 C426 1.356 . S
N433 H436 0.984 . S
N433 H437 0.985 . S
H434 N429 0.984 . S
H435 N429 0.985 . S
H436 N433 0.984 . S
H437 N433 0.985 . S
H438 N432 0.984 . S
H439 N432 0.984 . S
H440 N428 0.984 . S
H441 N428 0.985 . S
C442 C443 1.363 . S
C442 C448 1.379 . S
C442 N450 1.356 . S
C443 C442 1.363 . S
C443 C449 1.363 . S
C444 C445 1.363 . S
C444 C449 1.379 . S
C444 N451 1.356 . S
C445 C444 1.363 . S
C445 C448 1.363 . S
N446 C448 1.356 . S
N446 H458 0.984 . S
N446 H459 0.985 . S
N447 C449 1.356 . S
N447 H452 0.984 . S
N447 H453 0.985 . S
C448 C442 1.379 . S
C448 C445 1.363 . S
C448 N446 1.356 . S
C449 C443 1.363 . S
C449 C444 1.379 . S
C449 N447 1.356 . S
N450 C442 1.356 . S
N450 H456 0.984 . S
N450 H457 0.984 . S
N451 C444 1.356 . S
N451 H454 0.984 . S
N451 H455 0.985 . S
H452 N447 0.984 . S
H453 N447 0.985 . S
H454 N451 0.984 . S
H455 N451 0.985 . S
H456 N450 0.984 . S
H457 N450 0.984 . S
H458 N446 0.984 . S
H459 N446 0.985 . S
C460 C461 1.363 . S
C460 C466 1.379 . S
C460 N468 1.356 . S
C461 C460 1.363 . S
C461 C467 1.363 . S
C462 C463 1.363 . S
C462 C467 1.379 . S
C462 N469 1.356 . S
C463 C462 1.363 . S
C463 C466 1.363 . S
N464 C466 1.356 . S
N464 H476 0.984 . S
N464 H477 0.985 . S
N465 C467 1.356 . S
N465 H470 0.984 . S
N465 H471 0.985 . S
C466 C460 1.379 . S
C466 C463 1.363 . S
C466 N464 1.356 . S
C467 C461 1.363 . S
C467 C462 1.379 . S
C467 N465 1.356 . S
N468 C460 1.356 . S
N468 H474 0.984 . S
N468 H475 0.984 . S
N469 C462 1.356 . S
N469 H472 0.984 . S
N469 H473 0.985 . S
H470 N465 0.984 . S
H471 N465 0.985 . S
H472 N469 0.984 . S
H473 N469 0.985 . S
H474 N468 0.984 . S
H475 N468 0.984 . S
H476 N464 0.984 . S
H477 N464 0.985 . S
C478 C479 1.363 . S
C478 C484 1.379 . S
C478 N486 1.356 . S
C479 C478 1.363 . S
C479 C485 1.363 . S
C480 C481 1.363 . S
C480 C485 1.379 . S
C480 N487 1.356 . S
C481 C480 1.363 . S
C481 C484 1.363 . S
N482 C484 1.356 . S
N482 H494 0.984 . S
N482 H495 0.985 . S
N483 C485 1.356 . S
N483 H488 0.984 . S
N483 H489 0.985 . S
C484 C478 1.379 . S
C484 C481 1.363 . S
C484 N482 1.356 . S
C485 C479 1.363 . S
C485 C480 1.379 . S
C485 N483 1.356 . S
N486 C478 1.356 . S
N486 H492 0.984 . S
N486 H493 0.984 . S
N487 C480 1.356 . S
N487 H490 0.984 . S
N487 H491 0.985 . S
H488 N483 0.984 . S
H489 N483 0.985 . S
H490 N487 0.984 . S
H491 N487 0.985 . S
H492 N486 0.984 . S
H493 N486 0.984 . S
H494 N482 0.984 . S
H495 N482 0.985 . S
C496 C497 1.363 . S
C496 C502 1.379 . S
C496 N504 1.356 . S
C497 C496 1.363 . S
C497 C503 1.363 . S
C498 C499 1.363 . S
C498 C503 1.379 . S
C498 N505 1.356 . S
C499 C498 1.363 . S
C499 C502 1.363 . S
N500 C502 1.356 . S
N500 H512 0.984 . S
N500 H513 0.985 . S
N501 C503 1.356 . S
N501 H506 0.984 . S
N501 H507 0.985 . S
C502 C496 1.379 . S
C502 C499 1.363 . S
C502 N500 1.356 . S
C503 C497 1.363 . S
C503 C498 1.379 . S
C503 N501 1.356 . S
N504 C496 1.356 . S
N504 H510 0.984 . S
N504 H511 0.984 . S
N505 C498 1.356 . S
N505 H508 0.984 . S
N505 H509 0.985 . S
H506 N501 0.984 . S
H507 N501 0.985 . S
H508 N505 0.984 . S
H509 N505 0.985 . S
H510 N504 0.984 . S
H511 N504 0.984 . S
H512 N500 0.984 . S
H513 N500 0.985 . S
C514 C515 1.363 . S
C514 C520 1.379 . S
C514 N522 1.356 . S
C515 C514 1.363 . S
C515 C521 1.363 . S
C516 C517 1.363 . S
C516 C521 1.379 . S
C516 N523 1.356 . S
C517 C516 1.363 . S
C517 C520 1.363 . S
N518 C520 1.356 . S
N518 H530 0.984 . S
N518 H531 0.985 . S
N519 C521 1.356 . S
N519 H524 0.984 . S
N519 H525 0.985 . S
C520 C514 1.379 . S
C520 C517 1.363 . S
C520 N518 1.356 . S
C521 C515 1.363 . S
C521 C516 1.379 . S
C521 N519 1.356 . S
N522 C514 1.356 . S
N522 H528 0.984 . S
N522 H529 0.984 . S
N523 C516 1.356 . S
N523 H526 0.984 . S
N523 H527 0.985 . S
H524 N519 0.984 . S
H525 N519 0.985 . S
H526 N523 0.984 . S
H527 N523 0.985 . S
H528 N522 0.984 . S
H529 N522 0.984 . S
H530 N518 0.984 . S
H531 N518 0.985 . S
C532 C533 1.363 . S
C532 C538 1.379 . S
C532 N540 1.356 . S
C533 C532 1.363 . S
C533 C539 1.363 . S
C534 C535 1.363 . S
C534 C539 1.379 . S
C534 N541 1.356 . S
C535 C534 1.363 . S
C535 C538 1.363 . S
N536 C538 1.356 . S
N536 H548 0.984 . S
N536 H549 0.985 . S
N537 C539 1.356 . S
N537 H542 0.984 . S
N537 H543 0.985 . S
C538 C532 1.379 . S
C538 C535 1.363 . S
C538 N536 1.356 . S
C539 C533 1.363 . S
C539 C534 1.379 . S
C539 N537 1.356 . S
N540 C532 1.356 . S
N540 H546 0.984 . S
N540 H547 0.984 . S
N541 C534 1.356 . S
N541 H544 0.984 . S
N541 H545 0.985 . S
H542 N537 0.984 . S
H543 N537 0.985 . S
H544 N541 0.984 . S
H545 N541 0.985 . S
H546 N540 0.984 . S
H547 N540 0.984 . S
H548 N536 0.984 . S
H549 N536 0.985 . S
C550 C551 1.363 . S
C550 C556 1.379 . S
C550 N558 1.356 . S
C551 C550 1.363 . S
C551 C557 1.363 . S
C552 C553 1.363 . S
C552 C557 1.379 . S
C552 N559 1.356 . S
C553 C552 1.363 . S
C553 C556 1.363 . S
N554 C556 1.356 . S
N554 H566 0.984 . S
N554 H567 0.985 . S
N555 C557 1.356 . S
N555 H560 0.984 . S
N555 H561 0.985 . S
C556 C550 1.379 . S
C556 C553 1.363 . S
C556 N554 1.356 . S
C557 C551 1.363 . S
C557 C552 1.379 . S
C557 N555 1.356 . S
N558 C550 1.356 . S
N558 H564 0.984 . S
N558 H565 0.984 . S
N559 C552 1.356 . S
N559 H562 0.984 . S
N559 H563 0.985 . S
H560 N555 0.984 . S
H561 N555 0.985 . S
H562 N559 0.984 . S
H563 N559 0.985 . S
H564 N558 0.984 . S
H565 N558 0.984 . S
H566 N554 0.984 . S
H567 N554 0.985 . S
C568 C569 1.363 . S
C568 C574 1.379 . S
C568 N576 1.356 . S
C569 C568 1.363 . S
C569 C575 1.363 . S
C570 C571 1.363 . S
C570 C575 1.379 . S
C570 N577 1.356 . S
C571 C570 1.363 . S
C571 C574 1.363 . S
N572 C574 1.356 . S
N572 H584 0.984 . S
N572 H585 0.985 . S
N573 C575 1.356 . S
N573 H578 0.984 . S
N573 H579 0.985 . S
C574 C568 1.379 . S
C574 C571 1.363 . S
C574 N572 1.356 . S
C575 C569 1.363 . S
C575 C570 1.379 . S
C575 N573 1.356 . S
N576 C568 1.356 . S
N576 H582 0.984 . S
N576 H583 0.984 . S
N577 C570 1.356 . S
N577 H580 0.984 . S
N577 H581 0.985 . S
H578 N573 0.984 . S
H579 N573 0.985 . S
H580 N577 0.984 . S
H581 N577 0.985 . S
H582 N576 0.984 . S
H583 N576 0.984 . S
H584 N572 0.984 . S
H585 N572 0.985 . S
C586 C587 1.363 . S
C586 C592 1.379 . S
C586 N594 1.356 . S
C587 C586 1.363 . S
C587 C593 1.363 . S
C588 C589 1.363 . S
C588 C593 1.379 . S
C588 N595 1.356 . S
C589 C588 1.363 . S
C589 C592 1.363 . S
N590 C592 1.356 . S
N590 H602 0.984 . S
N590 H603 0.985 . S
N591 C593 1.356 . S
N591 H596 0.984 . S
N591 H597 0.985 . S
C592 C586 1.379 . S
C592 C589 1.363 . S
C592 N590 1.356 . S
C593 C587 1.363 . S
C593 C588 1.379 . S
C593 N591 1.356 . S
N594 C586 1.356 . S
N594 H600 0.984 . S
N594 H601 0.984 . S
N595 C588 1.356 . S
N595 H598 0.984 . S
N595 H599 0.985 . S
H596 N591 0.984 . S
H597 N591 0.985 . S
H598 N595 0.984 . S
H599 N595 0.985 . S
H600 N594 0.984 . S
H601 N594 0.984 . S
H602 N590 0.984 . S
H603 N590 0.985 . S
C604 C605 1.363 . S
C604 C610 1.379 . S
C604 N612 1.356 . S
C605 C604 1.363 . S
C605 C611 1.363 . S
C606 C607 1.363 . S
C606 C611 1.379 . S
C606 N613 1.356 . S
C607 C606 1.363 . S
C607 C610 1.363 . S
N608 C610 1.356 . S
N608 H620 0.984 . S
N608 H621 0.985 . S
N609 C611 1.356 . S
N609 H614 0.984 . S
N609 H615 0.985 . S
C610 C604 1.379 . S
C610 C607 1.363 . S
C610 N608 1.356 . S
C611 C605 1.363 . S
C611 C606 1.379 . S
C611 N609 1.356 . S
N612 C604 1.356 . S
N612 H618 0.984 . S
N612 H619 0.984 . S
N613 C606 1.356 . S
N613 H616 0.984 . S
N613 H617 0.985 . S
H614 N609 0.984 . S
H615 N609 0.985 . S
H616 N613 0.984 . S
H617 N613 0.985 . S
H618 N612 0.984 . S
H619 N612 0.984 . S
H620 N608 0.984 . S
H621 N608 0.985 . S
C622 C623 1.363 . S
C622 C628 1.379 . S
C622 N630 1.356 . S
C623 C622 1.363 . S
C623 C629 1.363 . S
C624 C625 1.363 . S
C624 C629 1.379 . S
C624 N631 1.356 . S
C625 C624 1.363 . S
C625 C628 1.363 . S
N626 C628 1.356 . S
N626 H638 0.984 . S
N626 H639 0.985 . S
N627 C629 1.356 . S
N627 H632 0.984 . S
N627 H633 0.985 . S
C628 C622 1.379 . S
C628 C625 1.363 . S
C628 N626 1.356 . S
C629 C623 1.363 . S
C629 C624 1.379 . S
C629 N627 1.356 . S
N630 C622 1.356 . S
N630 H636 0.984 . S
N630 H637 0.984 . S
N631 C624 1.356 . S
N631 H634 0.984 . S
N631 H635 0.985 . S
H632 N627 0.984 . S
H633 N627 0.985 . S
H634 N631 0.984 . S
H635 N631 0.985 . S
H636 N630 0.984 . S
H637 N630 0.984 . S
H638 N626 0.984 . S
H639 N626 0.985 . S
C640 C641 1.363 . S
C640 C646 1.379 1_545 S
C640 N648 1.356 . S
C641 C640 1.363 . S
C641 C647 1.363 . S
C642 C643 1.363 . S
C642 C647 1.379 1_565 S
C642 N649 1.356 . S
C643 C642 1.363 . S
C643 C646 1.363 . S
N644 C646 1.356 . S
N644 H656 0.984 . S
N644 H657 0.985 . S
N645 C647 1.356 . S
N645 H650 0.984 . S
N645 H651 0.985 . S
C646 C640 1.379 1_565 S
C646 C643 1.363 . S
C646 N644 1.356 . S
C647 C641 1.363 . S
C647 C642 1.379 1_545 S
C647 N645 1.356 . S
N648 C640 1.356 . S
N648 H654 0.984 . S
N648 H655 0.984 . S
N649 C642 1.356 . S
N649 H652 0.984 . S
N649 H653 0.985 . S
H650 N645 0.984 . S
H651 N645 0.985 . S
H652 N649 0.984 . S
H653 N649 0.985 . S
H654 N648 0.984 . S
H655 N648 0.984 . S
H656 N644 0.984 . S
H657 N644 0.985 . S
C658 C659 1.363 . S
C658 C664 1.379 1_655 S
C658 N666 1.356 . S
C659 C658 1.363 . S
C659 C665 1.363 . S
C660 C661 1.363 . S
C660 C665 1.379 1_455 S
C660 N667 1.356 . S
C661 C660 1.363 . S
C661 C664 1.363 . S
N662 C664 1.356 . S
N662 H674 0.984 . S
N662 H675 0.985 . S
N663 C665 1.356 . S
N663 H668 0.984 . S
N663 H669 0.985 . S
C664 C658 1.379 1_455 S
C664 C661 1.363 . S
C664 N662 1.356 . S
C665 C659 1.363 . S
C665 C660 1.379 1_655 S
C665 N663 1.356 . S
N666 C658 1.356 . S
N666 H672 0.984 . S
N666 H673 0.984 . S
N667 C660 1.356 . S
N667 H670 0.984 . S
N667 H671 0.985 . S
H668 N663 0.984 . S
H669 N663 0.985 . S
H670 N667 0.984 . S
H671 N667 0.985 . S
H672 N666 0.984 . S
H673 N666 0.984 . S
H674 N662 0.984 . S
H675 N662 0.985 . S
C676 C677 1.363 . S
C676 C682 1.379 1_545 S
C676 N684 1.356 . S
C677 C676 1.363 . S
C677 C683 1.363 . S
C678 C679 1.363 . S
C678 C683 1.379 1_565 S
C678 N685 1.356 . S
C679 C678 1.363 . S
C679 C682 1.363 . S
N680 C682 1.356 . S
N680 H692 0.984 . S
N680 H693 0.985 . S
N681 C683 1.356 . S
N681 H686 0.984 . S
N681 H687 0.985 . S
C682 C676 1.379 1_565 S
C682 C679 1.363 . S
C682 N680 1.356 . S
C683 C677 1.363 . S
C683 C678 1.379 1_545 S
C683 N681 1.356 . S
N684 C676 1.356 . S
N684 H690 0.984 . S
N684 H691 0.984 . S
N685 C678 1.356 . S
N685 H688 0.984 . S
N685 H689 0.985 . S
H686 N681 0.984 . S
H687 N681 0.985 . S
H688 N685 0.984 . S
H689 N685 0.985 . S
H690 N684 0.984 . S
H691 N684 0.984 . S
H692 N680 0.984 . S
H693 N680 0.985 . S
C694 C695 1.363 . S
C694 C700 1.379 1_455 S
C694 N702 1.356 . S
C695 C694 1.363 . S
C695 C701 1.363 . S
C696 C697 1.363 . S
C696 C701 1.379 1_655 S
C696 N703 1.356 . S
C697 C696 1.363 . S
C697 C700 1.363 . S
N698 C700 1.356 . S
N698 H710 0.984 . S
N698 H711 0.985 . S
N699 C701 1.356 . S
N699 H704 0.984 . S
N699 H705 0.985 . S
C700 C694 1.379 1_655 S
C700 C697 1.363 . S
C700 N698 1.356 . S
C701 C695 1.363 . S
C701 C696 1.379 1_455 S
C701 N699 1.356 . S
N702 C694 1.356 . S
N702 H708 0.984 . S
N702 H709 0.984 . S
N703 C696 1.356 . S
N703 H706 0.984 . S
N703 H707 0.985 . S
H704 N699 0.984 . S
H705 N699 0.985 . S
H706 N703 0.984 . S
H707 N703 0.985 . S
H708 N702 0.984 . S
H709 N702 0.984 . S
H710 N698 0.984 . S
H711 N698 0.985 . S
C712 C713 1.363 . S
C712 C718 1.379 1_545 S
C712 N720 1.356 . S
C713 C712 1.363 . S
C713 C719 1.363 . S
C714 C715 1.363 . S
C714 C719 1.379 1_565 S
C714 N721 1.356 . S
C715 C714 1.363 . S
C715 C718 1.363 . S
N716 C718 1.356 . S
N716 H728 0.984 . S
N716 H729 0.985 . S
N717 C719 1.356 . S
N717 H722 0.984 . S
N717 H723 0.985 . S
C718 C712 1.379 1_565 S
C718 C715 1.363 . S
C718 N716 1.356 . S
C719 C713 1.363 . S
C719 C714 1.379 1_545 S
C719 N717 1.356 . S
N720 C712 1.356 . S
N720 H726 0.984 . S
N720 H727 0.984 . S
N721 C714 1.356 . S
N721 H724 0.984 . S
N721 H725 0.985 . S
H722 N717 0.984 . S
H723 N717 0.985 . S
H724 N721 0.984 . S
H725 N721 0.985 . S
H726 N720 0.984 . S
H727 N720 0.984 . S
H728 N716 0.984 . S
H729 N716 0.985 . S
C730 C731 1.363 . S
C730 C736 1.379 1_655 S
C730 N738 1.356 . S
C731 C730 1.363 . S
C731 C737 1.363 . S
C732 C733 1.363 . S
C732 C737 1.379 1_455 S
C732 N739 1.356 . S
C733 C732 1.363 . S
C733 C736 1.363 . S
N734 C736 1.356 . S
N734 H746 0.984 . S
N734 H747 0.985 . S
N735 C737 1.356 . S
N735 H740 0.984 . S
N735 H741 0.985 . S
C736 C730 1.379 1_455 S
C736 C733 1.363 . S
C736 N734 1.356 . S
C737 C731 1.363 . S
C737 C732 1.379 1_655 S
C737 N735 1.356 . S
N738 C730 1.356 . S
N738 H744 0.984 . S
N738 H745 0.984 . S
N739 C732 1.356 . S
N739 H742 0.984 . S
N739 H743 0.985 . S
H740 N735 0.984 . S
H741 N735 0.985 . S
H742 N739 0.984 . S
H743 N739 0.985 . S
H744 N738 0.984 . S
H745 N738 0.984 . S
H746 N734 0.984 . S
H747 N734 0.985 . S
C748 C749 1.363 . S
C748 C754 1.379 1_565 S
C748 N756 1.356 . S
C749 C748 1.363 . S
C749 C755 1.363 . S
C750 C751 1.363 . S
C750 C755 1.379 1_545 S
C750 N757 1.356 . S
C751 C750 1.363 . S
C751 C754 1.363 . S
N752 C754 1.356 . S
N752 H764 0.984 . S
N752 H765 0.985 . S
N753 C755 1.356 . S
N753 H758 0.984 . S
N753 H759 0.985 . S
C754 C748 1.379 1_545 S
C754 C751 1.363 . S
C754 N752 1.356 . S
C755 C749 1.363 . S
C755 C750 1.379 1_565 S
C755 N753 1.356 . S
N756 C748 1.356 . S
N756 H762 0.984 . S
N756 H763 0.984 . S
N757 C750 1.356 . S
N757 H760 0.984 . S
N757 H761 0.985 . S
H758 N753 0.984 . S
H759 N753 0.985 . S
H760 N757 0.984 . S
H761 N757 0.985 . S
H762 N756 0.984 . S
H763 N756 0.984 . S
H764 N752 0.984 . S
H765 N752 0.985 . S
C766 C767 1.363 . S
C766 C772 1.379 1_455 S
C766 N774 1.356 . S
C767 C766 1.363 . S
C767 C773 1.363 . S
C768 C769 1.363 . S
C768 C773 1.379 1_655 S
C768 N775 1.356 . S
C769 C768 1.363 . S
C769 C772 1.363 . S
N770 C772 1.356 . S
N770 H782 0.984 . S
N770 H783 0.985 . S
N771 C773 1.356 . S
N771 H776 0.984 . S
N771 H777 0.985 . S
C772 C766 1.379 1_655 S
C772 C769 1.363 . S
C772 N770 1.356 . S
C773 C767 1.363 . S
C773 C768 1.379 1_455 S
C773 N771 1.356 . S
N774 C766 1.356 . S
N774 H780 0.984 . S
N774 H781 0.984 . S
N775 C768 1.356 . S
N775 H778 0.984 . S
N775 H779 0.985 . S
H776 N771 0.984 . S
H777 N771 0.985 . S
H778 N775 0.984 . S
H779 N775 0.985 . S
H780 N774 0.984 . S
H781 N774 0.984 . S
H782 N770 0.984 . S
H783 N770 0.985 . S
C209 C69 1.605 . S
C211 C10 1.605 . S
C227 C82 1.605 . S
C229 C17 1.605 . S
C245 C30 1.605 . S
C247 C95 1.605 . S
C263 C43 1.605 . S
C265 C56 1.605 . S
C281 C179 1.605 . S
C283 C108 1.605 . S
C299 C186 1.605 . S
C301 C127 1.605 . S
C317 C134 1.605 . S
C319 C199 1.605 . S
C335 C153 1.605 . S
C337 C160 1.605 . S
C353 C140 1.627 . S
C355 C4 1.627 . S
C371 C147 1.627 . S
C373 C23 1.627 . S
C389 C114 1.627 . S
C391 C36 1.627 . S
C407 C49 1.627 . S
C409 C121 1.627 . S
C425 C192 1.627 . S
C427 C62 1.627 . S
C443 C205 1.627 . S
C445 C75 1.627 . S
C461 C88 1.627 . S
C463 C166 1.627 . S
C479 C173 1.627 . S
C481 C101 1.627 . S
C497 C57 1.811 . S
C499 C3 1.811 . S
C515 C18 1.811 . S
C517 C70 1.811 . S
C533 C31 1.811 . S
C535 C83 1.811 . S
C551 C96 1.811 . S
C553 C44 1.811 . S
C569 C107 1.283 . S
C571 C159 1.283 . S
C587 C174 1.283 . S
C589 C122 1.283 . S
C605 C133 1.283 . S
C607 C185 1.283 . S
C623 C198 1.283 . S
C625 C148 1.283 . S
C641 C146 1.811 . S
C643 C172 1.811 . S
C659 C109 1.811 . S
C661 C187 1.811 . S
C677 C200 1.811 . S
C679 C120 1.811 . S
C695 C135 1.811 . S
C697 C161 1.811 . S
C713 C68 1.283 . S
C715 C42 1.283 . S
C731 C81 1.283 . S
C733 C5 1.283 . S
C749 C94 1.283 . S
C751 C16 1.283 . S
C767 C55 1.283 . S
C769 C29 1.283 . S
