# Generated by pormake.
# Topology gis, (4)-cn, num edge types: 1
# Building blocks:
#     Node 0, Type 0, BuildingBlock: TATPOV_clean_sbu_0, # of connection points: 4
#     Node 1, Type 0, BuildingBlock: TATPOV_clean_sbu_0, # of connection points: 4
#     Node 2, Type 0, BuildingBlock: TATPOV_clean_sbu_0, # of connection points: 4
#     Node 3, Type 0, BuildingBlock: TATPOV_clean_sbu_0, # of connection points: 4
#     Node 4, Type 0, BuildingBlock: TATPOV_clean_sbu_0, # of connection points: 4
#     Node 5, Type 0, BuildingBlock: TATPOV_clean_sbu_0, # of connection points: 4
#     Node 6, Type 0, BuildingBlock: TATPOV_clean_sbu_0, # of connection points: 4
#     Node 7, Type 0, BuildingBlock: TATPOV_clean_sbu_0, # of connection points: 4
#     Node 8, Type 0, BuildingBlock: TATPOV_clean_sbu_0, # of connection points: 4
#     Node 9, Type 0, BuildingBlock: TATPOV_clean_sbu_0, # of connection points: 4
#     Node 10, Type 0, BuildingBlock: TATPOV_clean_sbu_0, # of connection points: 4
#     Node 11, Type 0, BuildingBlock: TATPOV_clean_sbu_0, # of connection points: 4
#     Node 12, Type 0, BuildingBlock: TATPOV_clean_sbu_0, # of connection points: 4
#     Node 13, Type 0, BuildingBlock: TATPOV_clean_sbu_0, # of connection points: 4
#     Node 14, Type 0, BuildingBlock: TATPOV_clean_sbu_0, # of connection points: 4
#     Node 15, Type 0, BuildingBlock: TATPOV_clean_sbu_0, # of connection points: 4
#     Edge 16, Type (0, 0), BuildingBlock: TEMPAE_clean_linker_10, # of connection points: 2
#     Edge 17, Type (0, 0), BuildingBlock: TEMPAE_clean_linker_10, # of connection points: 2
#     Edge 18, Type (0, 0), BuildingBlock: TEMPAE_clean_linker_10, # of connection points: 2
#     Edge 19, Type (0, 0), BuildingBlock: TEMPAE_clean_linker_10, # of connection points: 2
#     Edge 20, Type (0, 0), BuildingBlock: TEMPAE_clean_linker_10, # of connection points: 2
#     Edge 21, Type (0, 0), BuildingBlock: TEMPAE_clean_linker_10, # of connection points: 2
#     Edge 22, Type (0, 0), BuildingBlock: TEMPAE_clean_linker_10, # of connection points: 2
#     Edge 23, Type (0, 0), BuildingBlock: TEMPAE_clean_linker_10, # of connection points: 2
#     Edge 24, Type (0, 0), BuildingBlock: TEMPAE_clean_linker_10, # of connection points: 2
#     Edge 25, Type (0, 0), BuildingBlock: TEMPAE_clean_linker_10, # of connection points: 2
#     Edge 26, Type (0, 0), BuildingBlock: TEMPAE_clean_linker_10, # of connection points: 2
#     Edge 27, Type (0, 0), BuildingBlock: TEMPAE_clean_linker_10, # of connection points: 2
#     Edge 28, Type (0, 0), BuildingBlock: TEMPAE_clean_linker_10, # of connection points: 2
#     Edge 29, Type (0, 0), BuildingBlock: TEMPAE_clean_linker_10, # of connection points: 2
#     Edge 30, Type (0, 0), BuildingBlock: TEMPAE_clean_linker_10, # of connection points: 2
#     Edge 31, Type (0, 0), BuildingBlock: TEMPAE_clean_linker_10, # of connection points: 2
#     Edge 32, Type (0, 0), BuildingBlock: TEMPAE_clean_linker_10, # of connection points: 2
#     Edge 33, Type (0, 0), BuildingBlock: TEMPAE_clean_linker_10, # of connection points: 2
#     Edge 34, Type (0, 0), BuildingBlock: TEMPAE_clean_linker_10, # of connection points: 2
#     Edge 35, Type (0, 0), BuildingBlock: TEMPAE_clean_linker_10, # of connection points: 2
#     Edge 36, Type (0, 0), BuildingBlock: TEMPAE_clean_linker_10, # of connection points: 2
#     Edge 37, Type (0, 0), BuildingBlock: TEMPAE_clean_linker_10, # of connection points: 2
#     Edge 38, Type (0, 0), BuildingBlock: TEMPAE_clean_linker_10, # of connection points: 2
#     Edge 39, Type (0, 0), BuildingBlock: TEMPAE_clean_linker_10, # of connection points: 2
#     Edge 40, Type (0, 0), BuildingBlock: TEMPAE_clean_linker_10, # of connection points: 2
#     Edge 41, Type (0, 0), BuildingBlock: TEMPAE_clean_linker_10, # of connection points: 2
#     Edge 42, Type (0, 0), BuildingBlock: TEMPAE_clean_linker_10, # of connection points: 2
#     Edge 43, Type (0, 0), BuildingBlock: TEMPAE_clean_linker_10, # of connection points: 2
#     Edge 44, Type (0, 0), BuildingBlock: TEMPAE_clean_linker_10, # of connection points: 2
#     Edge 45, Type (0, 0), BuildingBlock: TEMPAE_clean_linker_10, # of connection points: 2
#     Edge 46, Type (0, 0), BuildingBlock: TEMPAE_clean_linker_10, # of connection points: 2
#     Edge 47, Type (0, 0), BuildingBlock: TEMPAE_clean_linker_10, # of connection points: 2
# Relax obj value: 0.143
# Max RMSD: 0.161
# Mean RMSD: 0.141
data_MOF--net-gis--node1-TATPOV_clean_sbu_0--edge1-TEMPAE_clean_linker_10
_symmetry_space_group_name_H-M    P1
_symmetry_Int_Tables_number       1
_symmetry_cell_setting            triclinic
loop_
_symmetry_equiv_pos_as_xyz
'x, y, z'
_cell_length_a     48.463252
_cell_length_b     48.404356
_cell_length_c     48.326566
_cell_angle_alpha  91.764377
_cell_angle_beta   91.632412
_cell_angle_gamma 90.315936
loop_
_atom_site_label
_atom_site_type_symbol
_atom_site_fract_x
_atom_site_fract_y
_atom_site_fract_z
_atom_type_partial_charge
Zn0 Zn 0.12282 0.62177 0.03914 0.0
Zn1 Zn 0.1485 0.60665 0.08491 0.0
O2 O 0.1633 0.57896 0.05505 0.0
O3 O 0.141 0.59158 0.01726 0.0
O4 O 0.17015 0.59844 0.12005 0.0
O5 O 0.13808 0.66017 0.04122 0.0
O6 O 0.15664 0.64863 0.08121 0.0
C7 C 0.15781 0.57558 0.02915 0.0
C8 C 0.08579 0.60459 0.08141 0.0
O9 O 0.10803 0.5991 0.09481 0.0
O10 O 0.08679 0.61471 0.05759 0.0
C11 C 0.17192 0.57505 0.13125 0.0
O12 O 0.15923 0.55356 0.11936 0.0
C13 C 0.15153 0.66685 0.06323 0.0
Zn14 Zn 0.64079 0.86204 0.44222 0.0
Zn15 Zn 0.66657 0.8763 0.39725 0.0
O16 O 0.68273 0.90376 0.4277 0.0
O17 O 0.66296 0.88955 0.46525 0.0
O18 O 0.68682 0.88503 0.36229 0.0
O19 O 0.65248 0.82278 0.43895 0.0
O20 O 0.67333 0.83379 0.40097 0.0
C21 C 0.67921 0.90592 0.45377 0.0
C22 C 0.60394 0.88268 0.40012 0.0
O23 O 0.62618 0.88538 0.38698 0.0
O24 O 0.60461 0.87304 0.4242 0.0
C25 C 0.6851 0.90836 0.35092 0.0
O26 O 0.67047 0.92798 0.36272 0.0
C27 C 0.66637 0.81565 0.41819 0.0
Zn28 Zn 0.32349 0.38862 0.55501 0.0
Zn29 Zn 0.30457 0.41019 0.60173 0.0
O30 O 0.28835 0.43635 0.57178 0.0
O31 O 0.30359 0.41706 0.53325 0.0
O32 O 0.28701 0.42196 0.6378 0.0
O33 O 0.30542 0.35201 0.55944 0.0
O34 O 0.29316 0.36854 0.60012 0.0
C35 C 0.28997 0.43578 0.54542 0.0
C36 C 0.36667 0.40867 0.59362 0.0
O37 O 0.34645 0.41637 0.60826 0.0
O38 O 0.36228 0.3959 0.5706 0.0
C39 C 0.29607 0.41078 0.65974 0.0
O40 O 0.31748 0.39432 0.65809 0.0
C41 C 0.29408 0.3486 0.58231 0.0
Zn42 Zn 0.88053 0.0948 0.82326 0.0
Zn43 Zn 0.85646 0.07104 0.86449 0.0
O44 O 0.83435 0.05536 0.83015 0.0
O45 O 0.85618 0.07377 0.79586 0.0
O46 O 0.83897 0.05313 0.89696 0.0
O47 O 0.91719 0.08059 0.83497 0.0
O48 O 0.89744 0.05832 0.86826 0.0
C49 C 0.83711 0.05843 0.80424 0.0
C50 C 0.85615 0.13443 0.85915 0.0
O51 O 0.84974 0.11288 0.87216 0.0
O52 O 0.86946 0.13224 0.83706 0.0
C53 C 0.81623 0.06062 0.9073 0.0
O54 O 0.80234 0.08089 0.89614 0.0
C55 C 0.91897 0.06473 0.85522 0.0
Zn56 Zn 0.13428 0.346 0.91764 0.0
Zn57 Zn 0.15718 0.36393 0.87349 0.0
O58 O 0.1708 0.39219 0.90456 0.0
O59 O 0.14987 0.37726 0.94107 0.0
O60 O 0.17708 0.37459 0.83886 0.0
O61 O 0.15227 0.30928 0.9164 0.0
O62 O 0.16833 0.32237 0.87678 0.0
C63 C 0.16527 0.39484 0.9302 0.0
C64 C 0.0944 0.36132 0.87569 0.0
O65 O 0.1157 0.36921 0.86309 0.0
O66 O 0.09709 0.34994 0.89885 0.0
C67 C 0.18853 0.39779 0.83477 0.0
O68 O 0.18765 0.41747 0.85406 0.0
C69 C 0.16533 0.30376 0.89468 0.0
Zn70 Zn 0.81221 0.8922 0.06912 0.0
Zn71 Zn 0.79794 0.91604 0.11612 0.0
O72 O 0.78102 0.9419 0.0862 0.0
O73 O 0.79121 0.91963 0.04739 0.0
O74 O 0.78333 0.92901 0.15328 0.0
O75 O 0.79516 0.85572 0.07593 0.0
O76 O 0.78712 0.87429 0.11693 0.0
C77 C 0.78017 0.93995 0.05974 0.0
C78 C 0.8586 0.91353 0.10315 0.0
O79 O 0.83988 0.92185 0.11938 0.0
O80 O 0.85212 0.90001 0.08099 0.0
C81 C 0.75842 0.9229 0.15831 0.0
O82 O 0.74291 0.91139 0.13835 0.0
C83 C 0.78646 0.85344 0.10014 0.0
Zn84 Zn 0.35138 0.61418 0.31157 0.0
Zn85 Zn 0.3282 0.58889 0.35189 0.0
O86 O 0.30325 0.57702 0.31748 0.0
O87 O 0.32563 0.59575 0.28365 0.0
O88 O 0.31421 0.56732 0.38378 0.0
O89 O 0.38856 0.59904 0.31932 0.0
O90 O 0.36943 0.57601 0.35238 0.0
C91 C 0.30578 0.58123 0.29169 0.0
C92 C 0.33009 0.6518 0.35246 0.0
O93 O 0.32294 0.62986 0.36436 0.0
O94 O 0.34214 0.6505 0.3296 0.0
C95 C 0.29223 0.57087 0.39719 0.0
O96 O 0.27471 0.59006 0.38971 0.0
C97 C 0.39067 0.58234 0.33883 0.0
Zn98 Zn 0.63133 0.11495 0.67747 0.0
Zn99 Zn 0.64582 0.08844 0.63198 0.0
O100 O 0.67103 0.07223 0.66296 0.0
O101 O 0.6557 0.09204 0.70108 0.0
O102 O 0.6556 0.06588 0.59789 0.0
O103 O 0.59148 0.105 0.67104 0.0
O104 O 0.60397 0.08065 0.63436 0.0
C105 C 0.67197 0.07541 0.68929 0.0
C106 C 0.65452 0.15083 0.63775 0.0
O107 O 0.65453 0.12899 0.6223 0.0
O108 O 0.6466 0.14986 0.66244 0.0
C109 C 0.67998 0.06221 0.58947 0.0
O110 O 0.7008 0.07421 0.60319 0.0
C111 C 0.58524 0.0891 0.65053 0.0
Zn112 Zn 0.86474 0.38076 0.93002 0.0
Zn113 Zn 0.83705 0.38998 0.88352 0.0
O114 O 0.82181 0.41898 0.91209 0.0
O115 O 0.84526 0.41032 0.9506 0.0
O116 O 0.81384 0.39618 0.84872 0.0
O117 O 0.85177 0.34144 0.93022 0.0
O118 O 0.82911 0.34883 0.89111 0.0
C119 C 0.82736 0.42422 0.9377 0.0
C120 C 0.90007 0.39618 0.88629 0.0
O121 O 0.8776 0.39642 0.87186 0.0
O122 O 0.89977 0.39051 0.91167 0.0
C123 C 0.80899 0.41989 0.83906 0.0
O124 O 0.81996 0.44188 0.85175 0.0
C125 C 0.83639 0.33258 0.91026 0.0
Zn126 Zn 0.34728 0.10993 0.54785 0.0
Zn127 Zn 0.32652 0.08851 0.5918 0.0
O128 O 0.31072 0.06329 0.55952 0.0
O129 O 0.32393 0.08517 0.52284 0.0
O130 O 0.30962 0.07356 0.62604 0.0
O131 O 0.33501 0.14773 0.55863 0.0
O132 O 0.31404 0.12979 0.59374 0.0
C133 C 0.31098 0.06545 0.53327 0.0
C134 C 0.38893 0.08775 0.58345 0.0
O135 O 0.36836 0.08314 0.59857 0.0
O136 O 0.38525 0.09836 0.56003 0.0
C137 C 0.31646 0.05123 0.63757 0.0
O138 O 0.33567 0.03567 0.62659 0.0
C139 C 0.32018 0.15068 0.5796 0.0
Zn140 Zn 0.62868 0.57465 0.31898 0.0
Zn141 Zn 0.64847 0.55388 0.36497 0.0
O142 O 0.67499 0.53854 0.33483 0.0
O143 O 0.65698 0.55546 0.29663 0.0
O144 O 0.65884 0.53307 0.3996 0.0
O145 O 0.59149 0.55753 0.32122 0.0
O146 O 0.60635 0.54415 0.36204 0.0
C147 C 0.67523 0.54119 0.30862 0.0
C148 C 0.64906 0.61619 0.35941 0.0
O149 O 0.65595 0.59538 0.37358 0.0
O150 O 0.63657 0.61269 0.33614 0.0
C151 C 0.66979 0.54271 0.42215 0.0
O152 O 0.67727 0.56884 0.42399 0.0
C153 C 0.58699 0.54597 0.34374 0.0
Zn154 Zn 0.10649 0.89596 0.17777 0.0
Zn155 Zn 0.12088 0.92155 0.1325 0.0
O156 O 0.14671 0.9396 0.16288 0.0
O157 O 0.1345 0.91818 0.20015 0.0
O158 O 0.13025 0.94102 0.09739 0.0
O159 O 0.06748 0.90827 0.17406 0.0
O160 O 0.07853 0.92804 0.13549 0.0
C161 C 0.14972 0.93558 0.18875 0.0
C162 C 0.12808 0.8588 0.13657 0.0
O163 O 0.13134 0.88101 0.12349 0.0
O164 O 0.11723 0.85952 0.16011 0.0
C165 C 0.15488 0.94668 0.09096 0.0
O166 O 0.17533 0.94015 0.10792 0.0
C167 C 0.06044 0.92161 0.15294 0.0
Zn168 Zn 0.84607 0.61566 0.07918 0.0
Zn169 Zn 0.82844 0.5964 0.12366 0.0
O170 O 0.80916 0.57225 0.09228 0.0
O171 O 0.81723 0.59616 0.05545 0.0
O172 O 0.81224 0.58241 0.15853 0.0
O173 O 0.84046 0.65484 0.09182 0.0
O174 O 0.81719 0.63776 0.12578 0.0
C175 C 0.80542 0.57605 0.06641 0.0
C176 C 0.88871 0.58919 0.10967 0.0
O177 O 0.87057 0.58948 0.12828 0.0
O178 O 0.88266 0.59739 0.08566 0.0
C179 C 0.81408 0.55801 0.16742 0.0
O180 O 0.82798 0.53935 0.15338 0.0
C181 C 0.82522 0.65848 0.1124 0.0
Zn182 Zn 0.14657 0.05721 0.80457 0.0
Zn183 Zn 0.17237 0.04225 0.85065 0.0
O184 O 0.19785 0.02621 0.82003 0.0
O185 O 0.17478 0.03768 0.78215 0.0
O186 O 0.18622 0.02756 0.88732 0.0
O187 O 0.11134 0.03797 0.81231 0.0
O188 O 0.13156 0.02895 0.85222 0.0
C189 C 0.19536 0.02631 0.79364 0.0
C190 C 0.1669 0.10344 0.83924 0.0
O191 O 0.17671 0.08451 0.85434 0.0
O192 O 0.1527 0.09716 0.81749 0.0
C193 C 0.17717 0.03949 0.90907 0.0
O194 O 0.16222 0.06188 0.90648 0.0
C195 C 0.11029 0.02793 0.83608 0.0
Zn196 Zn 0.60729 0.38347 0.68265 0.0
Zn197 Zn 0.62583 0.40834 0.63996 0.0
O198 O 0.65348 0.42053 0.67226 0.0
O199 O 0.63602 0.4006 0.70822 0.0
O200 O 0.63631 0.43147 0.6075 0.0
O201 O 0.56941 0.39867 0.68041 0.0
O202 O 0.58364 0.41757 0.64257 0.0
C203 C 0.65441 0.4156 0.6981 0.0
C204 C 0.62572 0.34585 0.63911 0.0
O205 O 0.63247 0.36784 0.62704 0.0
O206 O 0.61455 0.34734 0.66249 0.0
C207 C 0.65752 0.42814 0.59286 0.0
O208 O 0.67511 0.40853 0.59899 0.0
C209 C 0.56429 0.4126 0.65921 0.0
Zn210 Zn 0.36701 0.88186 0.28861 0.0
Zn211 Zn 0.35262 0.90748 0.33545 0.0
O212 O 0.32946 0.92674 0.3052 0.0
O213 O 0.34295 0.90696 0.26632 0.0
O214 O 0.34269 0.92822 0.37039 0.0
O215 O 0.40714 0.89034 0.29666 0.0
O216 O 0.39503 0.91196 0.33511 0.0
C217 C 0.32798 0.92435 0.27884 0.0
C218 C 0.34058 0.84592 0.32689 0.0
O219 O 0.34016 0.86767 0.34239 0.0
O220 O 0.35056 0.84685 0.30297 0.0
C221 C 0.31873 0.92745 0.38045 0.0
O222 O 0.29928 0.91253 0.36762 0.0
C223 C 0.41372 0.90378 0.31877 0.0
C224 C 0.15835 0.82955 0.10643 0.0
C225 C 0.13612 0.83183 0.12428 0.0
C226 C 0.16616 0.80363 0.09532 0.0
C227 C 0.15076 0.77976 0.10156 0.0
C228 C 0.12821 0.78211 0.11946 0.0
C229 C 0.12144 0.80803 0.13089 0.0
C230 C 0.19082 0.80175 0.077 0.0
C231 C 0.11077 0.75733 0.12612 0.0
C232 C 0.1439 0.71666 0.05395 0.0
C233 C 0.15706 0.69652 0.06985 0.0
C234 C 0.14335 0.74439 0.06309 0.0
C235 C 0.15688 0.75236 0.08843 0.0
C236 C 0.17257 0.7327 0.10314 0.0
C237 C 0.17221 0.70488 0.09385 0.0
C238 C 0.126 0.76452 0.04695 0.0
C239 C 0.18805 0.7406 0.12977 0.0
H240 H 0.1699 0.84793 0.10156 0.0
H241 H 0.10415 0.80977 0.14458 0.0
H242 H 0.20563 0.78634 0.08506 0.0
H243 H 0.18421 0.79455 0.05582 0.0
H244 H 0.20165 0.82193 0.07561 0.0
H245 H 0.0937 0.76281 0.1401 0.0
H246 H 0.10172 0.74777 0.10673 0.0
H247 H 0.12376 0.7415 0.13615 0.0
H248 H 0.13225 0.7105 0.03527 0.0
H249 H 0.18273 0.68954 0.10608 0.0
H250 H 0.13736 0.78418 0.04444 0.0
H251 H 0.10711 0.76945 0.05854 0.0
H252 H 0.11964 0.75602 0.02611 0.0
H253 H 0.19891 0.76068 0.12794 0.0
H254 H 0.20336 0.72466 0.13565 0.0
H255 H 0.17323 0.74301 0.14674 0.0
C256 C 0.46291 0.88987 0.31447 0.0
C257 C 0.44325 0.90694 0.32704 0.0
C258 C 0.49017 0.88904 0.32484 0.0
C259 C 0.49817 0.90617 0.34797 0.0
C260 C 0.47901 0.92498 0.35944 0.0
C261 C 0.45163 0.9249 0.34905 0.0
C262 C 0.50979 0.86831 0.31232 0.0
C263 C 0.487 0.9441 0.38364 0.0
C264 C 0.55294 0.877 0.39607 0.0
C265 C 0.57701 0.88975 0.38716 0.0
C266 C 0.52718 0.88247 0.38365 0.0
C267 C 0.52531 0.9017 0.3622 0.0
C268 C 0.54943 0.91528 0.3536 0.0
C269 C 0.57513 0.90883 0.36595 0.0
C270 C 0.50207 0.86707 0.39301 0.0
C271 C 0.54808 0.9364 0.33128 0.0
H272 H 0.45664 0.87589 0.29746 0.0
H273 H 0.43662 0.93835 0.35868 0.0
H274 H 0.52968 0.87837 0.30772 0.0
H275 H 0.51431 0.85198 0.3274 0.0
H276 H 0.50116 0.85831 0.29293 0.0
H277 H 0.47128 0.96034 0.38723 0.0
H278 H 0.48929 0.932 0.40269 0.0
H279 H 0.50718 0.95419 0.38021 0.0
H280 H 0.5543 0.86211 0.41234 0.0
H281 H 0.59369 0.9189 0.35919 0.0
H282 H 0.49263 0.85488 0.37532 0.0
H283 H 0.48631 0.8819 0.40035 0.0
H284 H 0.50709 0.85278 0.40997 0.0
H285 H 0.54121 0.92634 0.31132 0.0
H286 H 0.56836 0.94657 0.32842 0.0
H287 H 0.53268 0.95248 0.33647 0.0
C288 C 0.2757 0.30231 0.56776 0.0
C289 C 0.28535 0.32041 0.58908 0.0
C290 C 0.27488 0.27373 0.57143 0.0
C291 C 0.28465 0.26304 0.5968 0.0
C292 C 0.29125 0.28144 0.61943 0.0
C293 C 0.29137 0.31009 0.61534 0.0
C294 C 0.2668 0.25494 0.54699 0.0
C295 C 0.30135 0.27092 0.64694 0.0
C296 C 0.28586 0.18434 0.59928 0.0
C297 C 0.31162 0.17891 0.58785 0.0
C298 C 0.27699 0.21178 0.60375 0.0
C299 C 0.29451 0.23397 0.59694 0.0
C300 C 0.32124 0.22835 0.58716 0.0
C301 C 0.3293 0.20097 0.58255 0.0
C302 C 0.24838 0.21686 0.61419 0.0
C303 C 0.34095 0.25126 0.58014 0.0
H304 H 0.27058 0.31036 0.54757 0.0
H305 H 0.29872 0.32409 0.63192 0.0
H306 H 0.28572 0.24649 0.53755 0.0
H307 H 0.25425 0.23724 0.55365 0.0
H308 H 0.25491 0.26609 0.53087 0.0
H309 H 0.29935 0.28684 0.66381 0.0
H310 H 0.28983 0.25208 0.6524 0.0
H311 H 0.32347 0.26536 0.6456 0.0
H312 H 0.27219 0.16726 0.60345 0.0
H313 H 0.34945 0.1968 0.57421 0.0
H314 H 0.23425 0.22118 0.5964 0.0
H315 H 0.24808 0.23508 0.62868 0.0
H316 H 0.24025 0.1986 0.62478 0.0
H317 H 0.3326 0.26242 0.56204 0.0
H318 H 0.36174 0.24336 0.57504 0.0
H319 H 0.34325 0.26643 0.59774 0.0
C320 C 0.06195 0.01221 0.82684 0.0
C321 C 0.08316 0.01925 0.84611 0.0
C322 C 0.03431 0.01251 0.83448 0.0
C323 C 0.02781 0.02033 0.862 0.0
C324 C 0.04929 0.02343 0.88236 0.0
C325 C 0.0769 0.02287 0.87415 0.0
C326 C 0.01209 0.00813 0.81222 0.0
C327 C 0.0432 0.03063 0.91213 0.0
C328 C 0.96948 0.07109 0.859 0.0
C329 C 0.94651 0.05422 0.86308 0.0
C330 C -0.00375 0.06069 0.86095 0.0
C331 C 0.00022 0.03251 0.86698 0.0
C332 C 0.97723 0.01591 0.8735 0.0
C333 C 0.95046 0.02704 0.8715 0.0
C334 C 0.02008 0.07944 0.85434 0.0
C335 C 0.98055 0.98599 0.88064 0.0
H336 H 0.06679 0.00867 0.80525 0.0
H337 H 0.09327 0.02789 0.88927 0.0
H338 H -0.00508 -0.00452 0.81986 0.0
H339 H 0.00352 0.02845 0.80644 0.0
H340 H 0.02019 -0.00222 0.79331 0.0
H341 H 0.0607 0.02513 0.92622 0.0
H342 H 0.03975 0.05322 0.91445 0.0
H343 H 0.02425 0.01992 0.9186 0.0
H344 H 0.96643 0.09231 0.85303 0.0
H345 H 0.93266 0.014 0.87481 0.0
H346 H 0.02923 0.07234 0.83458 0.0
H347 H 0.03647 0.07871 0.87078 0.0
H348 H 0.01361 0.10128 0.85225 0.0
H349 H 0.97998 0.97306 0.86127 0.0
H350 H 0.96348 0.97902 0.89367 0.0
H351 H 0.00053 0.98235 0.89166 0.0
C352 C 0.18748 0.26722 0.86466 0.0
C353 C 0.17355 0.27473 0.88879 0.0
C354 C 0.19112 0.23923 0.85697 0.0
C355 C 0.18006 0.21841 0.87349 0.0
C356 C 0.16748 0.22588 0.89866 0.0
C357 C 0.16468 0.25389 0.90613 0.0
C358 C 0.2054 0.23201 0.8304 0.0
C359 C 0.15502 0.20442 0.91672 0.0
C360 C 0.15215 0.15259 0.83834 0.0
C361 C 0.17129 0.13292 0.8472 0.0
C362 C 0.15515 0.18054 0.84632 0.0
C363 C 0.17828 0.1892 0.863 0.0
C364 C 0.19825 0.16959 0.87122 0.0
C365 C 0.19429 0.14155 0.86357 0.0
C366 C 0.13299 0.20063 0.83767 0.0
C367 C 0.22354 0.17819 0.88837 0.0
H368 H 0.19464 0.28315 0.85127 0.0
H369 H 0.15404 0.25938 0.92492 0.0
H370 H 0.22001 0.21472 0.83345 0.0
H371 H 0.18985 0.22509 0.81433 0.0
H372 H 0.21687 0.24994 0.82252 0.0
H373 H 0.14806 0.21345 0.93673 0.0
H374 H 0.13697 0.19458 0.90564 0.0
H375 H 0.17011 0.18788 0.9211 0.0
H376 H 0.13427 0.146 0.82579 0.0
H377 H 0.2093 0.12641 0.8702 0.0
H378 H 0.14217 0.21773 0.82618 0.0
H379 H 0.12339 0.20993 0.85631 0.0
H380 H 0.11651 0.1906 0.82436 0.0
H381 H 0.23407 0.19578 0.87881 0.0
H382 H 0.23845 0.161 0.89061 0.0
H383 H 0.2174 0.18533 0.90932 0.0
C384 C 0.90832 0.90207 0.09839 0.0
C385 C 0.88809 0.91899 0.11011 0.0
C386 C 0.93635 0.90604 0.10534 0.0
C387 C 0.94446 0.92788 0.12403 0.0
C388 C 0.92424 0.94573 0.13514 0.0
C389 C 0.89619 0.94084 0.12833 0.0
C390 C 0.95718 0.88615 0.09349 0.0
C391 C 0.93219 0.96962 0.15461 0.0
C392 C 0.01102 0.91429 0.16385 0.0
C393 C 0.03069 0.92693 0.14751 0.0
C394 C 0.98279 0.91551 0.15707 0.0
C395 C 0.97382 0.93021 0.13367 0.0
C396 C -0.00666 0.94455 0.11811 0.0
C397 C 0.02164 0.94251 0.12504 0.0
C398 C 0.96275 0.89954 0.174 0.0
C399 C 0.98444 0.96103 0.09343 0.0
H400 H 0.90218 0.8851 0.08434 0.0
H401 H 0.88064 0.95419 0.13718 0.0
H402 H 0.97341 0.8976 0.08278 0.0
H403 H 0.96751 0.87487 0.1105 0.0
H404 H 0.94757 0.87077 0.07858 0.0
H405 H 0.91441 0.98329 0.15903 0.0
H406 H 0.94036 0.96166 0.17448 0.0
H407 H 0.94883 0.9821 0.14571 0.0
H408 H 0.01771 0.90224 0.18131 0.0
H409 H 0.03666 0.95253 0.11245 0.0
H410 H 0.9534 0.88243 0.16104 0.0
H411 H 0.9457 0.91308 0.18083 0.0
H412 H 0.97284 0.89061 0.19258 0.0
H413 H 0.9776 0.94674 0.07616 0.0
H414 H 0.00144 0.97418 0.0861 0.0
H415 H 0.96667 0.97439 0.0986 0.0
C416 C 0.34889 0.69588 0.37112 0.0
C417 C 0.32567 0.67935 0.36491 0.0
C418 C 0.34685 0.72471 0.37242 0.0
C419 C 0.32094 0.73712 0.36699 0.0
C420 C 0.29686 0.72036 0.36456 0.0
C421 C 0.29953 0.69143 0.36333 0.0
C422 C 0.37302 0.74171 0.37568 0.0
C423 C 0.26876 0.73285 0.35985 0.0
C424 C 0.32509 0.8155 0.36494 0.0
C425 C 0.3311 0.81897 0.337 0.0
C426 C 0.31964 0.78907 0.37496 0.0
C427 C 0.32056 0.76573 0.35662 0.0
C428 C 0.3248 0.76945 0.32809 0.0
C429 C 0.3299 0.79596 0.31867 0.0
C430 C 0.31451 0.78614 0.40537 0.0
C431 C 0.32577 0.74521 0.30762 0.0
H432 H 0.36909 0.68635 0.3723 0.0
H433 H 0.28159 0.67852 0.35839 0.0
H434 H 0.37877 0.74929 0.35516 0.0
H435 H 0.36992 0.76 0.38958 0.0
H436 H 0.39049 0.72948 0.3841 0.0
H437 H 0.25206 0.71839 0.36542 0.0
H438 H 0.26673 0.75247 0.37209 0.0
H439 H 0.26588 0.73756 0.33763 0.0
H440 H 0.32568 0.83322 0.37923 0.0
H441 H 0.33401 0.79847 0.29696 0.0
H442 H 0.3343 0.78167 0.41639 0.0
H443 H 0.29999 0.76888 0.40891 0.0
H444 H 0.3061 0.8055 0.41465 0.0
H445 H 0.34363 0.7319 0.31285 0.0
H446 H 0.32775 0.75183 0.28596 0.0
H447 H 0.30681 0.73241 0.30872 0.0
C448 C 0.54821 0.06176 0.62452 0.0
C449 C 0.55585 0.08257 0.64412 0.0
C450 C 0.52043 0.05781 0.61614 0.0
C451 C 0.50007 0.07556 0.62713 0.0
C452 C 0.50753 0.09566 0.64792 0.0
C453 C 0.53527 0.09871 0.65635 0.0
C454 C 0.5131 0.03565 0.59448 0.0
C455 C 0.48654 0.11535 0.65982 0.0
C456 C 0.43952 0.09573 0.58128 0.0
C457 C 0.41742 0.08246 0.59358 0.0
C458 C 0.46659 0.09292 0.59156 0.0
C459 C 0.47184 0.07593 0.6144 0.0
C460 C 0.44982 0.06143 0.62618 0.0
C461 C 0.42273 0.06515 0.61584 0.0
C462 C 0.4894 0.10917 0.57869 0.0
C463 C 0.45481 0.04259 0.65009 0.0
H464 H 0.56398 0.04899 0.61524 0.0
H465 H 0.54098 0.11483 0.67155 0.0
H466 H 0.49437 0.02414 0.60026 0.0
H467 H 0.50844 0.04534 0.57439 0.0
H468 H 0.53022 0.02076 0.59153 0.0
H469 H 0.49527 0.12825 0.6774 0.0
H470 H 0.47902 0.12928 0.64345 0.0
H471 H 0.46843 0.10383 0.66706 0.0
H472 H 0.43559 0.10921 0.56411 0.0
H473 H 0.40572 0.05464 0.62524 0.0
H474 H 0.50605 0.09511 0.57193 0.0
H475 H 0.49862 0.12406 0.5943 0.0
H476 H 0.48192 0.12085 0.56055 0.0
H477 H 0.47205 0.02829 0.64563 0.0
H478 H 0.43617 0.03024 0.6546 0.0
H479 H 0.46088 0.05505 0.66895 0.0
C480 C 0.82585 0.16668 0.88624 0.0
C481 C 0.84879 0.16232 0.86964 0.0
C482 C 0.81846 0.19358 0.89499 0.0
C483 C 0.83481 0.21635 0.8874 0.0
C484 C 0.85819 0.21187 0.87099 0.0
C485 C 0.8647 0.185 0.86213 0.0
C486 C 0.79309 0.1977 0.91199 0.0
C487 C 0.87657 0.23547 0.8629 0.0
C488 C 0.8151 0.29157 0.88457 0.0
C489 C 0.83008 0.3026 0.90764 0.0
C490 C 0.81398 0.2629 0.87915 0.0
C491 C 0.82848 0.24501 0.89701 0.0
C492 C 0.84143 0.25586 0.92162 0.0
C493 C 0.8419 0.2845 0.92673 0.0
C494 C 0.79932 0.25203 0.85304 0.0
C495 C 0.85727 0.23758 0.94117 0.0
H496 H 0.81339 0.14917 0.89187 0.0
H497 H 0.88258 0.1817 0.84947 0.0
H498 H 0.79866 0.20847 0.93197 0.0
H499 H 0.77821 0.21105 0.90087 0.0
H500 H 0.7827 0.17784 0.9163 0.0
H501 H 0.89426 0.22834 0.85048 0.0
H502 H 0.86446 0.25039 0.8506 0.0
H503 H 0.8848 0.24674 0.88173 0.0
H504 H 0.80552 0.30535 0.86992 0.0
H505 H 0.8532 0.29275 0.94486 0.0
H506 H 0.78785 0.2327 0.85694 0.0
H507 H 0.81476 0.24712 0.83713 0.0
H508 H 0.78468 0.26739 0.84451 0.0
H509 H 0.84546 0.21848 0.94503 0.0
H510 H 0.86225 0.24834 0.96135 0.0
H511 H 0.87692 0.23129 0.93162 0.0
C512 C 0.6781 0.65062 0.38743 0.0
C513 C 0.65529 0.64473 0.36967 0.0
C514 C 0.68448 0.67803 0.39608 0.0
C515 C 0.66718 0.69981 0.38736 0.0
C516 C 0.64402 0.69383 0.36962 0.0
C517 C 0.63859 0.66647 0.36076 0.0
C518 C 0.70971 0.6837 0.41445 0.0
C519 C 0.6246 0.71628 0.36039 0.0
C520 C 0.65923 0.76621 0.42962 0.0
C521 C 0.67127 0.78573 0.41264 0.0
C522 C 0.65916 0.73795 0.42243 0.0
C523 C 0.67194 0.72875 0.3979 0.0
C524 C 0.68606 0.74801 0.3818 0.0
C525 C 0.68534 0.77635 0.38921 0.0
C526 C 0.6435 0.71827 0.44 0.0
C527 C 0.70055 0.73889 0.35588 0.0
H528 H 0.69124 0.63389 0.3941 0.0
H529 H 0.62086 0.66201 0.34713 0.0
H530 H 0.72316 0.69918 0.40492 0.0
H531 H 0.70349 0.69261 0.43473 0.0
H532 H 0.72189 0.66471 0.41811 0.0
H533 H 0.60748 0.70814 0.34663 0.0
H534 H 0.61557 0.72678 0.37873 0.0
H535 H 0.63605 0.73213 0.34915 0.0
H536 H 0.64844 0.77311 0.44789 0.0
H537 H 0.69493 0.7912 0.37609 0.0
H538 H 0.65625 0.69999 0.44482 0.0
H539 H 0.62476 0.71068 0.42834 0.0
H540 H 0.63702 0.7282 0.45978 0.0
H541 H 0.71301 0.72013 0.35964 0.0
H542 H 0.71426 0.75534 0.34835 0.0
H543 H 0.685 0.73349 0.33928 0.0
C544 C 0.83261 0.70918 0.11242 0.0
C545 C 0.81618 0.6868 0.11966 0.0
C546 C 0.82313 0.73632 0.11513 0.0
C547 C 0.79631 0.74126 0.12502 0.0
C548 C 0.78024 0.7189 0.13405 0.0
C549 C 0.79047 0.6918 0.13137 0.0
C550 C 0.84127 0.75955 0.10574 0.0
C551 C 0.75164 0.72328 0.14481 0.0
C552 C 0.78766 0.81805 0.13662 0.0
C553 C 0.78004 0.82551 0.10967 0.0
C554 C 0.79011 0.79006 0.14322 0.0
C555 C 0.78453 0.76939 0.1224 0.0
C556 C 0.77323 0.77696 0.09639 0.0
C557 C 0.77135 0.80498 0.09026 0.0
C558 C 0.80169 0.78285 0.17136 0.0
C559 C 0.76625 0.75557 0.07384 0.0
H560 H 0.8527 0.70539 0.10377 0.0
H561 H 0.77772 0.67451 0.13702 0.0
H562 H 0.83196 0.76854 0.08683 0.0
H563 H 0.84288 0.77626 0.12194 0.0
H564 H 0.86242 0.75246 0.10097 0.0
H565 H 0.74481 0.70556 0.15705 0.0
H566 H 0.75065 0.74248 0.15788 0.0
H567 H 0.73688 0.72543 0.12705 0.0
H568 H 0.79425 0.8339 0.15177 0.0
H569 H 0.76498 0.81075 0.06955 0.0
H570 H 0.82416 0.77898 0.16991 0.0
H571 H 0.79192 0.76378 0.17879 0.0
H572 H 0.79875 0.79992 0.18687 0.0
H573 H 0.78562 0.74763 0.0649 0.0
H574 H 0.75338 0.76431 0.05688 0.0
H575 H 0.7551 0.7378 0.08232 0.0
C576 C 0.61434 0.29605 0.63392 0.0
C577 C 0.63132 0.31813 0.62698 0.0
C578 C 0.62162 0.26871 0.62767 0.0
C579 C 0.6467 0.26321 0.61425 0.0
C580 C 0.6627 0.2855 0.60489 0.0
C581 C 0.65478 0.31286 0.61138 0.0
C582 C 0.60354 0.24572 0.63768 0.0
C583 C 0.6892 0.2806 0.58994 0.0
C584 C 0.67313 0.19821 0.64508 0.0
C585 C 0.66099 0.17823 0.62698 0.0
C586 C 0.67186 0.22632 0.63925 0.0
C587 C 0.65775 0.2346 0.61484 0.0
C588 C 0.64867 0.21429 0.59482 0.0
C589 C 0.6504 0.18613 0.60114 0.0
C590 C 0.68251 0.24716 0.66093 0.0
C591 C 0.63439 0.22225 0.56814 0.0
H592 H 0.59586 0.30011 0.64547 0.0
H593 H 0.66787 0.32994 0.6058 0.0
H594 H 0.59923 0.23016 0.62077 0.0
H595 H 0.61442 0.23507 0.65479 0.0
H596 H 0.58354 0.25347 0.64537 0.0
H597 H 0.69433 0.29835 0.57694 0.0
H598 H 0.70633 0.27815 0.60536 0.0
H599 H 0.68799 0.2615 0.57665 0.0
H600 H 0.68176 0.19201 0.66488 0.0
H601 H 0.64115 0.17065 0.58701 0.0
H602 H 0.66482 0.25637 0.67195 0.0
H603 H 0.69375 0.26416 0.6512 0.0
H604 H 0.69652 0.23759 0.67646 0.0
H605 H 0.61235 0.22657 0.57201 0.0
H606 H 0.63533 0.20533 0.55213 0.0
H607 H 0.64371 0.24123 0.55999 0.0
C608 C 0.04451 0.34966 0.8732 0.0
C609 C 0.06611 0.36655 0.86485 0.0
C610 C 0.01693 0.35704 0.86867 0.0
C611 C 0.0107 0.38208 0.85549 0.0
C612 C 0.03233 0.39785 0.84454 0.0
C613 C 0.05994 0.38988 0.84937 0.0
C614 C -0.00538 0.33925 0.88038 0.0
C615 C 0.02657 0.42425 0.82972 0.0
C616 C 0.93308 0.38844 0.8478 0.0
C617 C 0.92724 0.40013 0.87386 0.0
C618 C 0.96061 0.38509 0.83975 0.0
C619 C 0.98245 0.39362 0.85828 0.0
C620 C 0.97634 0.40844 0.88305 0.0
C621 C 0.94883 0.41142 0.89054 0.0
C622 C 0.96623 0.37004 0.81274 0.0
C623 C -0.00115 0.41838 0.9033 0.0
H624 H 0.04921 0.33128 0.88468 0.0
H625 H 0.07659 0.40291 0.84268 0.0
H626 H 0.98547 0.35029 0.89835 0.0
H627 H 0.97784 0.33518 0.86469 0.0
H628 H 0.00267 0.31911 0.8874 0.0
H629 H 0.04371 0.42958 0.81602 0.0
H630 H 0.00706 0.42269 0.81717 0.0
H631 H 0.02439 0.44144 0.8452 0.0
H632 H 0.91639 0.37982 0.83476 0.0
H633 H 0.94428 0.42092 0.91051 0.0
H634 H 0.96979 0.34785 0.81663 0.0
H635 H 0.98499 0.37834 0.8032 0.0
H636 H 0.94847 0.37153 0.79783 0.0
H637 H 0.00832 0.40034 0.91347 0.0
H638 H -0.00915 0.43258 0.91964 0.0
H639 H 0.01537 0.42921 0.89241 0.0
C640 C 0.54743 0.54436 0.37562 0.0
C641 C 0.5583 0.53824 0.34959 0.0
C642 C 0.51871 0.54555 0.3789 0.0
C643 C 0.50076 0.54018 0.35566 0.0
C644 C 0.51178 0.53026 0.33045 0.0
C645 C 0.54045 0.52974 0.32762 0.0
C646 C 0.50782 0.5558 0.40625 0.0
C647 C 0.49342 0.52349 0.30537 0.0
C648 C 0.42224 0.54543 0.357 0.0
C649 C 0.41836 0.57178 0.34631 0.0
C650 C 0.44906 0.53495 0.36138 0.0
C651 C 0.47224 0.55144 0.35524 0.0
C652 C 0.46822 0.57865 0.34599 0.0
C653 C 0.44141 0.58831 0.34144 0.0
C654 C 0.45244 0.50584 0.37115 0.0
C655 C 0.49224 0.59728 0.33968 0.0
H656 H 0.56121 0.55084 0.3927 0.0
H657 H 0.54889 0.52456 0.30758 0.0
H658 H 0.50332 0.5782 0.40514 0.0
H659 H 0.48833 0.54504 0.411 0.0
H660 H 0.52309 0.55288 0.42348 0.0
H661 H 0.50445 0.51121 0.28939 0.0
H662 H 0.47485 0.5118 0.31126 0.0
H663 H 0.48635 0.54299 0.29604 0.0
H664 H 0.40441 0.53263 0.36084 0.0
H665 H 0.43849 0.60891 0.33368 0.0
H666 H 0.4701 0.50442 0.38615 0.0
H667 H 0.45677 0.49191 0.35315 0.0
H668 H 0.43348 0.49826 0.38093 0.0
H669 H 0.50709 0.59863 0.35758 0.0
H670 H 0.48556 0.61854 0.33477 0.0
H671 H 0.50337 0.58855 0.3217 0.0
C672 C 0.51392 0.40843 0.66774 0.0
C673 C 0.53515 0.41961 0.65226 0.0
C674 C 0.48619 0.41034 0.65905 0.0
C675 C 0.47931 0.42434 0.63456 0.0
C676 C 0.50038 0.43755 0.61998 0.0
C677 C 0.52813 0.43478 0.62883 0.0
C678 C 0.46451 0.39553 0.67501 0.0
C679 C 0.49376 0.45336 0.59423 0.0
C680 C 0.41644 0.3961 0.59439 0.0
C681 C 0.3955 0.41373 0.60353 0.0
C682 C 0.44383 0.39972 0.60395 0.0
C683 C 0.45068 0.42201 0.62261 0.0
C684 C 0.4298 0.44048 0.63122 0.0
C685 C 0.40232 0.43587 0.62191 0.0
C686 C 0.46527 0.37909 0.59477 0.0
C687 C 0.43644 0.46489 0.65049 0.0
H688 H 0.519 0.39675 0.68595 0.0
H689 H 0.54434 0.4437 0.61686 0.0
H690 H 0.44711 0.40953 0.67968 0.0
H691 H 0.456 0.37788 0.66219 0.0
H692 H 0.47291 0.38749 0.69479 0.0
H693 H 0.51153 0.46615 0.58803 0.0
H694 H 0.48825 0.43864 0.57688 0.0
H695 H 0.47573 0.467 0.59745 0.0
H696 H 0.41127 0.37887 0.58028 0.0
H697 H 0.38623 0.44973 0.62878 0.0
H698 H 0.47413 0.36859 0.61305 0.0
H699 H 0.48246 0.38985 0.58483 0.0
H700 H 0.45661 0.36312 0.57992 0.0
H701 H 0.44302 0.45755 0.67115 0.0
H702 H 0.41847 0.47879 0.65306 0.0
H703 H 0.45388 0.47697 0.64252 0.0
C704 C 0.03621 0.61619 0.08463 0.0
C705 C 0.05847 0.59998 0.09336 0.0
C706 C 0.0095 0.61124 0.09356 0.0
C707 C 0.00471 0.58914 0.11139 0.0
C708 C 0.02726 0.57335 0.12128 0.0
C709 C 0.05403 0.5791 0.11226 0.0
C710 C 0.98621 0.629 0.08283 0.0
C711 C 0.02299 0.54955 0.14016 0.0
C712 C 0.93234 0.59498 0.13783 0.0
C713 C 0.9176 0.5818 0.1158 0.0
C714 C 0.96139 0.59511 0.13855 0.0
C715 C 0.97565 0.58144 0.11694 0.0
C716 C 0.96066 0.5652 0.09674 0.0
C717 C 0.93177 0.56592 0.09619 0.0
C718 C 0.97658 0.61248 0.16057 0.0
C719 C 0.97498 0.5497 0.07373 0.0
H720 H 0.03962 0.63268 0.0704 0.0
H721 H 0.07124 0.56654 0.11908 0.0
H722 H 0.97217 0.61634 0.06896 0.0
H723 H 0.97391 0.63714 0.10025 0.0
H724 H -0.00622 0.64674 0.07106 0.0
H725 H 0.04267 0.54301 0.15026 0.0
H726 H 0.00809 0.55505 0.15641 0.0
H727 H 0.01424 0.53167 0.12789 0.0
H728 H 0.92133 0.60735 0.15294 0.0
H729 H 0.92026 0.55556 0.07928 0.0
H730 H 0.98222 0.63264 0.15188 0.0
H731 H -0.00404 0.60234 0.16743 0.0
H732 H 0.96365 0.61653 0.17885 0.0
H733 H 0.98186 0.56456 0.05826 0.0
H734 H 0.96109 0.53422 0.06299 0.0
H735 H -0.00646 0.53898 0.08186 0.0
C736 C 0.15615 0.54437 0.98718 0.0
C737 C 0.16829 0.55131 0.01322 0.0
C738 C 0.16185 0.51924 0.97349 0.0
C739 C 0.18079 0.50075 0.98571 0.0
C740 C 0.19509 0.50871 0.01071 0.0
C741 C 0.18834 0.53375 0.02446 0.0
C742 C 0.14575 0.51153 0.9471 0.0
C743 C 0.21636 0.49013 0.02372 0.0
C744 C 0.15939 0.42657 0.97103 0.0
C745 C 0.17347 0.42005 0.94672 0.0
C746 C 0.16289 0.45223 0.98484 0.0
C747 C 0.18165 0.47171 0.97466 0.0
C748 C 0.19779 0.46439 0.95158 0.0
C749 C 0.19314 0.43878 0.9375 0.0
C750 C 0.14475 0.45924 0.00898 0.0
C751 C 0.21892 0.48407 0.94084 0.0
H752 H 0.1408 0.55784 0.97812 0.0
H753 H 0.19815 0.53913 0.04435 0.0
H754 H 0.15992 0.50496 0.93059 0.0
H755 H 0.13182 0.49382 0.9508 0.0
H756 H 0.13303 0.52889 0.93945 0.0
H757 H 0.22998 0.50169 0.03898 0.0
H758 H 0.20584 0.47345 0.03467 0.0
H759 H 0.2293 0.48024 0.00767 0.0
H760 H 0.1442 0.41225 0.97844 0.0
H761 H 0.20437 0.43377 0.91894 0.0
H762 H 0.13056 0.47624 0.00338 0.0
H763 H 0.15747 0.46658 0.02719 0.0
H764 H 0.13216 0.44131 0.01512 0.0
H765 H 0.20844 0.49933 0.92757 0.0
H766 H 0.23442 0.47301 0.92821 0.0
H767 H 0.22977 0.49564 0.95814 0.0
C768 C 0.6958 0.93845 0.31111 0.0
C769 C 0.69799 0.91282 0.32382 0.0
C770 C 0.70649 0.94247 0.28477 0.0
C771 C 0.71964 0.92033 0.2707 0.0
C772 C 0.7225 0.89461 0.28368 0.0
C773 C 0.71169 0.89118 0.31006 0.0
C774 C 0.70311 0.97023 0.27171 0.0
C775 C 0.73635 0.87044 0.2694 0.0
C776 C 0.72059 0.91766 0.192 0.0
C777 C 0.74796 0.92517 0.18692 0.0
C778 C 0.71097 0.91672 0.21909 0.0
C779 C 0.72911 0.92347 0.24181 0.0
C780 C 0.7565 0.93201 0.23684 0.0
C781 C 0.7656 0.93277 0.20946 0.0
C782 C 0.68158 0.90762 0.22342 0.0
C783 C 0.77644 0.9395 0.26048 0.0
H784 H 0.68535 0.95535 0.32157 0.0
H785 H 0.71355 0.87131 0.31966 0.0
H786 H 0.72339 0.97809 0.26519 0.0
H787 H 0.68961 0.96803 0.25282 0.0
H788 H 0.69391 0.98582 0.286 0.0
H789 H 0.73805 0.85224 0.28278 0.0
H790 H 0.72443 0.86427 0.25024 0.0
H791 H 0.75735 0.87646 0.26317 0.0
H792 H 0.70674 0.91183 0.17478 0.0
H793 H 0.78678 0.93859 0.2058 0.0
H794 H 0.67079 0.92326 0.23634 0.0
H795 H 0.68152 0.888 0.23471 0.0
H796 H 0.66971 0.90437 0.20357 0.0
H797 H 0.7673 0.95537 0.27444 0.0
H798 H 0.7964 0.94748 0.25315 0.0
H799 H 0.78057 0.92101 0.27293 0.0
C800 C 0.28289 0.48591 0.53675 0.0
C801 C 0.27882 0.45819 0.52841 0.0
C802 C 0.28027 0.50701 0.51745 0.0
C803 C 0.27313 0.50005 0.48942 0.0
C804 C 0.26602 0.4724 0.4818 0.0
C805 C 0.2692 0.45178 0.50134 0.0
C806 C 0.2879 0.53624 0.52646 0.0
C807 C 0.25782 0.46405 0.45233 0.0
C808 C 0.26156 0.55402 0.43444 0.0
C809 C 0.28718 0.55383 0.42158 0.0
C810 C 0.25673 0.53723 0.45714 0.0
C811 C 0.2781 0.52007 0.46724 0.0
C812 C 0.30419 0.52044 0.45478 0.0
C813 C 0.30835 0.53716 0.43211 0.0
C814 C 0.22862 0.53729 0.46978 0.0
C815 C 0.32766 0.50262 0.46497 0.0
H816 H 0.29049 0.49089 0.55764 0.0
H817 H 0.26585 0.43032 0.49494 0.0
H818 H 0.30903 0.54095 0.51962 0.0
H819 H 0.27367 0.55126 0.51681 0.0
H820 H 0.28759 0.53925 0.54934 0.0
H821 H 0.24856 0.44299 0.45082 0.0
H822 H 0.24284 0.47889 0.44355 0.0
H823 H 0.27636 0.46423 0.43938 0.0
H824 H 0.2451 0.56689 0.42649 0.0
H825 H 0.32831 0.53707 0.42254 0.0
H826 H 0.2306 0.54027 0.49261 0.0
H827 H 0.21838 0.51699 0.46553 0.0
H828 H 0.21513 0.55372 0.4614 0.0
H829 H 0.33156 0.50646 0.48749 0.0
H830 H 0.34711 0.50652 0.45406 0.0
H831 H 0.32205 0.48047 0.46181 0.0
C832 C 0.70922 0.04003 0.69628 0.0
C833 C 0.69407 0.06267 0.70622 0.0
C834 C 0.73226 0.03039 0.71144 0.0
C835 C 0.74087 0.04454 0.73634 0.0
C836 C 0.72477 0.06653 0.747 0.0
C837 C 0.70136 0.07492 0.73207 0.0
C838 C 0.7479 0.00595 0.69996 0.0
C839 C 0.73336 0.08277 0.77312 0.0
C840 C 0.79456 0.03024 0.79174 0.0
C841 C 0.81576 0.04799 0.78395 0.0
C842 C 0.77115 0.02558 0.77432 0.0
C843 C 0.76856 0.03995 0.74931 0.0
C844 C 0.79118 0.05544 0.74011 0.0
C845 C 0.81468 0.05887 0.75736 0.0
C846 C 0.74829 0.00713 0.78371 0.0
C847 C 0.78943 0.07105 0.71352 0.0
H848 H 0.70343 0.03019 0.67649 0.0
H849 H 0.68972 0.09238 0.73996 0.0
H850 H 0.76265 0.01312 0.68454 0.0
H851 H 0.75963 -0.00488 0.7164 0.0
H852 H 0.73357 -0.00903 0.6891 0.0
H853 H 0.71842 0.09925 0.77855 0.0
H854 H 0.73532 0.06883 0.79082 0.0
H855 H 0.75385 0.09256 0.77047 0.0
H856 H 0.79558 0.02109 0.81194 0.0
H857 H 0.83121 0.07215 0.75084 0.0
H858 H 0.73833 -0.00432 0.76581 0.0
H859 H 0.73227 0.01989 0.7938 0.0
H860 H 0.75611 -0.00792 0.79892 0.0
H861 H 0.78289 0.05701 0.69599 0.0
H862 H 0.80943 0.08077 0.70853 0.0
H863 H 0.77371 0.08757 0.71532 0.0
C864 C 0.83383 0.46626 0.96688 0.0
C865 C 0.81563 0.44822 0.95236 0.0
C866 C 0.82411 0.48738 0.98425 0.0
C867 C 0.79531 0.49025 0.98766 0.0
C868 C 0.77665 0.47261 0.9723 0.0
C869 C 0.7871 0.45175 0.95456 0.0
C870 C 0.84488 0.50608 -0.00039 0.0
C871 C 0.74588 0.47474 0.97556 0.0
C872 C 0.79001 0.52731 0.05633 0.0
C873 C 0.79205 0.55468 0.04792 0.0
C874 C 0.78677 0.50552 0.03662 0.0
C875 C 0.78572 0.51144 0.00807 0.0
C876 C 0.78328 0.53915 -4e-05 0.0
C877 C 0.78649 0.56051 0.02004 0.0
C878 C 0.78828 0.47618 0.04615 0.0
C879 C 0.78129 0.54638 0.96982 0.0
H880 H 0.85591 0.46345 0.96499 0.0
H881 H 0.7731 0.43748 0.9435 0.0
H882 H 0.84031 0.52804 -0.00446 0.0
H883 H 0.84356 0.50331 0.02224 0.0
H884 H 0.86642 0.50181 -0.00646 0.0
H885 H 0.73434 0.46486 0.95765 0.0
H886 H 0.74009 0.46401 -0.00547 0.0
H887 H 0.7393 0.49658 0.97793 0.0
H888 H 0.7937 0.52264 0.07792 0.0
H889 H 0.78719 0.58172 0.01348 0.0
H890 H 0.8096 0.46839 0.04367 0.0
H891 H 0.77414 0.46252 0.03344 0.0
H892 H 0.78302 0.47478 0.06829 0.0
H893 H 0.80215 0.54529 0.96095 0.0
H894 H 0.77329 0.56764 0.96718 0.0
H895 H 0.76772 0.53157 0.95783 0.0
C896 C 0.2112 0.00713 0.74878 0.0
C897 C 0.21791 0.01733 0.7756 0.0
C898 C 0.23063 0.00736 0.72787 0.0
C899 C 0.25732 0.01837 0.73391 0.0
C900 C 0.26512 0.02572 0.76169 0.0
C901 C 0.24525 0.025 0.78234 0.0
C902 C 0.22151 -0.00119 0.6987 0.0
C903 C 0.29345 0.03722 0.76908 0.0
C904 C 0.30766 0.01717 0.67469 0.0
C905 C 0.30268 0.043 0.66311 0.0
C906 C 0.29379 0.00904 0.69835 0.0
C907 C 0.27454 0.02719 0.71066 0.0
C908 C 0.27006 0.05357 0.69949 0.0
C909 C 0.28411 0.0611 0.6759 0.0
C910 C 0.29911 0.98079 0.70964 0.0
C911 C 0.24981 0.07368 0.71202 0.0
H912 H 0.19007 0.001 0.7436 0.0
H913 H 0.25046 0.03302 0.80304 0.0
H914 H 0.21783 0.01757 0.6865 0.0
H915 H 0.23775 0.98659 0.68834 0.0
H916 H 0.20213 0.98641 0.69827 0.0
H917 H 0.29818 0.03639 0.79167 0.0
H918 H 0.30959 0.02578 0.75772 0.0
H919 H 0.29447 0.05914 0.76306 0.0
H920 H 0.32205 0.00308 0.66501 0.0
H921 H 0.28027 0.08118 0.6673 0.0
H922 H 0.28058 0.96751 0.70583 0.0
H923 H 0.303 0.98226 0.73238 0.0
H924 H 0.31698 0.97051 0.69986 0.0
H925 H 0.22865 0.0648 0.71028 0.0
H926 H 0.24977 0.09388 0.70171 0.0
H927 H 0.25484 0.07737 0.73437 0.0
C928 C 0.68403 0.53517 0.47176 0.0
C929 C 0.67151 0.52516 0.44686 0.0
C930 C 0.68386 0.5195 0.49581 0.0
C931 C 0.67067 0.49328 0.49502 0.0
C932 C 0.65864 0.48277 0.46978 0.0
C933 C 0.65929 0.49876 0.44603 0.0
C934 C 0.69717 0.53132 0.52224 0.0
C935 C 0.64428 0.45498 0.46804 0.0
C936 C 0.68475 0.4419 0.55189 0.0
C937 C 0.66164 0.44555 0.56847 0.0
C938 C 0.68825 0.45761 0.52821 0.0
C939 C 0.66814 0.4774 0.52084 0.0
C940 C 0.64499 0.48146 0.5377 0.0
C941 C 0.64205 0.46555 0.56127 0.0
C942 C 0.71327 0.45273 0.51084 0.0
C943 C 0.62303 0.50229 0.53057 0.0
H944 H 0.69362 0.55547 0.47262 0.0
H945 H 0.64955 0.49078 0.42694 0.0
H946 H 0.68117 0.53501 0.53788 0.0
H947 H 0.71207 0.51637 0.53098 0.0
H948 H 0.70815 0.55112 0.51901 0.0
H949 H 0.63706 0.4492 0.44661 0.0
H950 H 0.65838 0.43869 0.47557 0.0
H951 H 0.62618 0.45532 0.48161 0.0
H952 H 0.70004 0.42656 0.55726 0.0
H953 H 0.62412 0.46859 0.5739 0.0
H954 H 0.72464 0.47243 0.50846 0.0
H955 H 0.70668 0.44512 0.48977 0.0
H956 H 0.7276 0.43744 0.51998 0.0
H957 H 0.63245 0.52311 0.52901 0.0
H958 H 0.60664 0.50345 0.54617 0.0
H959 H 0.61329 0.49675 0.51007 0.0
C960 C 0.29129 0.96062 0.27467 0.0
C961 C 0.30568 0.93821 0.26311 0.0
C962 C 0.26668 0.9699 0.26204 0.0
C963 C 0.25572 0.95553 0.23818 0.0
C964 C 0.27144 0.93446 0.22525 0.0
C965 C 0.29647 0.92648 0.2376 0.0
C966 C 0.25165 -0.00621 0.27538 0.0
C967 C 0.26055 0.91826 0.19996 0.0
C968 C 0.18065 0.93651 0.23066 0.0
C969 C 0.17377 0.94734 0.20478 0.0
C970 C 0.20672 0.94111 0.24313 0.0
C971 C 0.22606 0.95791 0.22994 0.0
C972 C 0.21787 0.97205 0.20586 0.0
C973 C 0.19193 0.96614 0.19315 0.0
C974 C 0.21442 0.92552 0.26884 0.0
C975 C 0.23709 -0.00819 0.19235 0.0
H976 H 0.29863 0.97021 0.29409 0.0
H977 H 0.3076 0.90933 0.22836 0.0
H978 H 0.2385 0.00473 0.26011 0.0
H979 H 0.23828 0.98603 0.29173 0.0
H980 H 0.2665 0.0088 0.28544 0.0
H981 H 0.27574 0.90307 0.19202 0.0
H982 H 0.2415 0.90689 0.20511 0.0
H983 H 0.25509 0.93242 0.18311 0.0
H984 H 0.16656 0.92241 0.24017 0.0
H985 H 0.18653 0.97518 0.17349 0.0
H986 H 0.22238 0.93998 0.28544 0.0
H987 H 0.23108 0.91058 0.26414 0.0
H988 H 0.19667 0.91392 0.27691 0.0
H989 H 0.2514 0.00215 0.20781 0.0
H990 H 0.2253 0.00783 0.18114 0.0
H991 H 0.24959 0.98034 0.177 0.0
C992 C 0.71169 0.03587 0.55806 0.0
C993 C 0.6848 0.04282 0.56573 0.0
C994 C 0.71627 0.0155 0.53732 0.0
C995 C 0.69344 0.00171 0.52409 0.0
C996 C 0.66628 0.00964 0.53081 0.0
C997 C 0.66232 0.03006 0.55148 0.0
C998 C 0.74551 0.00786 0.53053 0.0
C999 C 0.6413 -0.00444 0.51715 0.0
C1000 C 0.69388 0.95554 0.45918 0.0
C1001 C 0.69067 0.9295 0.47066 0.0
C1002 C 0.69719 0.97942 0.47637 0.0
C1003 C 0.6974 0.97699 0.50553 0.0
C1004 C 0.69702 0.95044 0.51699 0.0
C1005 C 0.69359 0.92705 0.49942 0.0
C1006 C 0.69795 0.00732 0.46333 0.0
C1007 C 0.69759 0.94679 0.54794 0.0
H1008 H 0.72921 0.04575 0.56881 0.0
H1009 H 0.64146 0.03545 0.55702 0.0
H1010 H 0.75049 0.98749 0.53925 0.0
H1011 H 0.74787 0.00591 0.50779 0.0
H1012 H 0.7607 0.02331 0.5392 0.0
H1013 H 0.62167 0.00549 0.52322 0.0
H1014 H 0.64263 -0.00412 0.49428 0.0
H1015 H 0.64063 0.97359 0.52301 0.0
H1016 H 0.69162 0.95755 0.43695 0.0
H1017 H 0.69146 0.90689 0.50835 0.0
H1018 H 0.71315 0.02122 0.47438 0.0
H1019 H 0.67737 0.01709 0.46481 0.0
H1020 H 0.70321 0.0056 0.44111 0.0
H1021 H 0.71421 0.95959 0.55815 0.0
H1022 H 0.70078 0.92489 0.55342 0.0
H1023 H 0.67769 0.95378 0.55646 0.0
C1024 C 0.25444 0.42469 0.68661 0.0
C1025 C 0.28105 0.41341 0.68605 0.0
C1026 C 0.23893 0.42433 0.71078 0.0
C1027 C 0.25036 0.41261 0.73501 0.0
C1028 C 0.27763 0.40226 0.73487 0.0
C1029 C 0.29257 0.4027 0.71041 0.0
C1030 C 0.20991 0.43552 0.71006 0.0
C1031 C 0.29073 0.38984 0.76031 0.0
C1032 C 0.21847 0.42665 0.80521 0.0
C1033 C 0.20343 0.4022 0.80878 0.0
C1034 C 0.23348 0.43057 0.78113 0.0
C1035 C 0.23337 0.4096 0.76004 0.0
C1036 C 0.21781 0.38511 0.76329 0.0
C1037 C 0.20311 0.38169 0.7876 0.0
C1038 C 0.24989 0.45691 0.7785 0.0
C1039 C 0.21704 0.36228 0.74126 0.0
H1040 H 0.24533 0.43296 0.6679 0.0
H1041 H 0.31317 0.39409 0.71026 0.0
H1042 H 0.19499 0.4184 0.71272 0.0
H1043 H 0.20717 0.45067 0.72744 0.0
H1044 H 0.20473 0.44567 0.69029 0.0
H1045 H 0.31273 0.38445 0.75739 0.0
H1046 H 0.28946 0.40448 0.77834 0.0
H1047 H 0.27933 0.37082 0.76545 0.0
H1048 H 0.21887 0.44264 0.82142 0.0
H1049 H 0.19149 0.36277 0.79006 0.0
H1050 H 0.24381 0.46716 0.75906 0.0
H1051 H 0.27218 0.45204 0.77736 0.0
H1052 H 0.24696 0.47168 0.79622 0.0
H1053 H 0.21007 0.37054 0.72109 0.0
H1054 H 0.20308 0.34503 0.74644 0.0
H1055 H 0.23809 0.35391 0.73856 0.0
C1056 C 0.82165 0.02622 0.94454 0.0
C1057 C 0.80576 0.04666 0.93188 0.0
C1058 C 0.81214 0.0124 0.96751 0.0
C1059 C 0.78597 0.01905 0.97818 0.0
C1060 C 0.76996 0.03998 0.96584 0.0
C1061 C 0.78005 0.05355 0.9428 0.0
C1062 C 0.82999 -0.00975 0.98004 0.0
C1063 C 0.74199 0.04761 0.97659 0.0
C1064 C 0.76067 0.9574 0.01579 0.0
C1065 C 0.77146 0.96321 0.04257 0.0
C1066 C 0.76228 0.97691 -0.00495 0.0
C1067 C 0.77527 0.0027 0.00125 0.0
C1068 C 0.78296 0.00991 0.02909 0.0
C1069 C 0.78083 -0.00998 0.04956 0.0
C1070 C 0.75325 0.96849 0.96583 0.0
C1071 C 0.79652 0.03733 0.03669 0.0
H1072 H 0.84159 0.02083 0.9364 0.0
H1073 H 0.76763 0.06937 0.9332 0.0
H1074 H 0.8338 -0.00511 0.00246 0.0
H1075 H 0.81918 0.96999 0.97805 0.0
H1076 H 0.85023 0.98831 0.96995 0.0
H1077 H 0.73337 0.06616 0.96657 0.0
H1078 H 0.7274 0.0301 0.97265 0.0
H1079 H 0.74328 0.05161 -0.00069 0.0
H1080 H 0.75325 0.93669 0.01041 0.0
H1081 H 0.78932 -0.00546 0.07021 0.0
H1082 H 0.77167 0.96287 0.95379 0.0
H1083 H 0.74284 0.9858 0.95535 0.0
H1084 H 0.73903 0.95038 0.96534 0.0
H1085 H 0.8185 0.03662 0.03087 0.0
H1086 H 0.79574 0.04214 0.05928 0.0
H1087 H 0.78655 0.05432 0.02529 0.0
C1088 C 0.19436 0.54608 0.1678 0.0
C1089 C 0.18863 0.5722 0.15723 0.0
C1090 C 0.21147 0.54331 0.19157 0.0
C1091 C 0.22301 0.56722 0.2051 0.0
C1092 C 0.21644 0.59366 0.1951 0.0
C1093 C 0.19944 0.59581 0.1713 0.0
C1094 C 0.21802 0.51479 0.20156 0.0
C1095 C 0.22817 0.61972 0.20897 0.0
C1096 C 0.25679 0.56965 0.27722 0.0
C1097 C 0.28473 0.57159 0.27073 0.0
C1098 C 0.23628 0.56644 0.2561 0.0
C1099 C 0.24404 0.5649 0.22802 0.0
C1100 C 0.27236 0.56456 0.22167 0.0
C1101 C 0.2923 0.56804 0.24306 0.0
C1102 C 0.20631 0.56676 0.26374 0.0
C1103 C 0.28164 0.56258 0.19209 0.0
H1104 H 0.18602 0.52772 0.15714 0.0
H1105 H 0.19493 0.6161 0.1635 0.0
H1106 H 0.24005 0.51013 0.19803 0.0
H1107 H 0.21486 0.51378 0.22415 0.0
H1108 H 0.20513 0.49855 0.19069 0.0
H1109 H 0.21945 0.63871 0.19988 0.0
H1110 H 0.224 0.6201 0.23143 0.0
H1111 H 0.25091 0.62019 0.20687 0.0
H1112 H 0.25084 0.57246 0.29857 0.0
H1113 H 0.31392 0.5692 0.23797 0.0
H1114 H 0.19448 0.55052 0.25175 0.0
H1115 H 0.19721 0.58699 0.25849 0.0
H1116 H 0.20373 0.56363 0.28619 0.0
H1117 H 0.2708 0.54535 0.18058 0.0
H1118 H 0.30425 0.55933 0.19084 0.0
H1119 H 0.27634 0.58195 0.18151 0.0
C1120 C 0.29375 0.04904 0.48673 0.0
C1121 C 0.30013 0.04313 0.51439 0.0
C1122 C 0.29124 0.02788 0.46639 0.0
C1123 C 0.29542 0.00015 0.47391 0.0
C1124 C 0.29886 -0.00614 0.50224 0.0
C1125 C 0.30108 0.01552 0.52226 0.0
C1126 C 0.28702 0.03552 0.43651 0.0
C1127 C 0.30298 0.96453 0.51114 0.0
C1128 C 0.28582 0.94599 0.41563 0.0
C1129 C 0.31275 0.94415 0.40577 0.0
C1130 C 0.27987 0.96325 0.43862 0.0
C1131 C 0.30135 0.97901 0.45192 0.0
C1132 C 0.32872 0.9764 0.44268 0.0
C1133 C 0.33406 0.95904 0.41976 0.0
C1134 C 0.25049 0.96537 0.44797 0.0
C1135 C 0.35231 -0.00726 0.45635 0.0
H1136 H 0.29259 0.0704 0.48065 0.0
H1137 H 0.30595 0.01084 0.54364 0.0
H1138 H 0.30683 0.03333 0.4257 0.0
H1139 H 0.27177 0.02148 0.42574 0.0
H1140 H 0.27985 0.05715 0.43458 0.0
H1141 H 0.29964 0.96248 0.53363 0.0
H1142 H 0.28882 0.95012 0.49934 0.0
H1143 H 0.32442 0.95811 0.50684 0.0
H1144 H 0.26924 0.93444 0.40502 0.0
H1145 H 0.35497 0.95756 0.41249 0.0
H1146 H 0.24193 0.9857 0.4423 0.0
H1147 H 0.24969 0.96413 0.47082 0.0
H1148 H 0.23706 0.94887 0.43828 0.0
H1149 H 0.34894 0.01516 0.45355 0.0
H1150 H 0.37258 0.98714 0.44767 0.0
H1151 H 0.35321 -0.01073 0.47894 0.0
C1152 C 0.79731 0.52302 0.20066 0.0
C1153 C 0.79879 0.55051 0.1923 0.0
C1154 C 0.7805 0.51562 0.22257 0.0
C1155 C 0.76472 0.53616 0.2362 0.0
C1156 C 0.76734 0.56412 0.22879 0.0
C1157 C 0.78434 0.57093 0.20703 0.0
C1158 C 0.77862 0.48567 0.23013 0.0
C1159 C 0.75098 0.58678 0.24281 0.0
C1160 C 0.69366 0.52573 0.26347 0.0
C1161 C 0.69835 0.53103 0.2919 0.0
C1162 C 0.71558 0.52444 0.24525 0.0
C1163 C 0.7429 0.52863 0.25574 0.0
C1164 C 0.74797 0.53077 0.28477 0.0
C1165 C 0.72553 0.53194 0.30262 0.0
C1166 C 0.70916 0.52168 0.21452 0.0
C1167 C 0.77684 0.5346 0.2968 0.0
H1168 H 0.80859 0.50712 0.18957 0.0
H1169 H 0.78559 0.59227 0.201 0.0
H1170 H 0.77838 0.48367 0.25293 0.0
H1171 H 0.75907 0.4766 0.22136 0.0
H1172 H 0.79605 0.47342 0.22187 0.0
H1173 H 0.75682 0.60766 0.23594 0.0
H1174 H 0.72863 0.58349 0.23812 0.0
H1175 H 0.75411 0.58625 0.26561 0.0
H1176 H 0.67263 0.52461 0.25518 0.0
H1177 H 0.72924 0.53598 0.32461 0.0
H1178 H 0.72337 0.50685 0.20445 0.0
H1179 H 0.71211 0.54202 0.20499 0.0
H1180 H 0.68758 0.51469 0.21002 0.0
H1181 H 0.79169 0.52139 0.2855 0.0
H1182 H 0.77798 0.52971 0.31912 0.0
H1183 H 0.78337 0.55643 0.29473 0.0
C1184 C 0.18717 0.96935 0.05872 0.0
C1185 C 0.16047 0.96016 0.06447 0.0
C1186 C 0.19265 0.98225 0.03376 0.0
C1187 C 0.17097 0.98586 0.01396 0.0
C1188 C 0.14404 0.9764 0.01954 0.0
C1189 C 0.1391 0.96379 0.04474 0.0
C1190 C 0.22157 -0.0077 0.0287 0.0
C1191 C 0.12037 0.97969 -0.00108 0.0
C1192 C 0.17338 0.0417 0.96054 0.0
C1193 C 0.17957 0.02642 0.93639 0.0
C1194 C 0.17177 0.02897 0.98616 0.0
C1195 C 0.17609 0.00014 0.98766 0.0
C1196 C 0.18346 0.98478 0.96357 0.0
C1197 C 0.1853 -0.00185 0.93824 0.0
C1198 C 0.16431 0.0462 0.0114 0.0
C1199 C 0.18806 0.95399 0.96426 0.0
H1200 H 0.20382 0.96669 0.07383 0.0
H1201 H 0.11843 0.95667 0.04891 0.0
H1202 H 0.22921 0.98262 0.0093 0.0
H1203 H 0.22149 0.01498 0.02599 0.0
H1204 H 0.23623 0.98756 0.04598 0.0
H1205 H 0.10085 0.97048 0.00603 0.0
H1206 H 0.11688 0.00194 -0.00469 0.0
H1207 H 0.12548 0.96974 0.97873 0.0
H1208 H 0.16911 0.0636 0.95931 0.0
H1209 H 0.18996 0.98616 0.91966 0.0
H1210 H 0.17917 0.04255 0.02878 0.0
H1211 H 0.14357 0.04003 0.01824 0.0
H1212 H 0.16407 0.06866 0.00732 0.0
H1213 H 0.20311 0.94906 0.98108 0.0
H1214 H 0.19571 0.94542 0.94434 0.0
H1215 H 0.16837 0.94343 0.96873 0.0
C1216 C 0.67488 0.42596 0.7451 0.0
C1217 C 0.67811 0.42455 0.71634 0.0
C1218 C 0.69772 0.42876 0.76343 0.0
C1219 C 0.7246 0.42999 0.75281 0.0
C1220 C 0.72792 0.43047 0.72377 0.0
C1221 C 0.70456 0.42784 0.70581 0.0
C1222 C 0.69313 0.42856 0.79422 0.0
C1223 C 0.75621 0.43189 0.71162 0.0
C1224 C 0.78114 0.44893 0.80645 0.0
C1225 C 0.7896 0.42273 0.81495 0.0
C1226 C 0.76095 0.45174 0.78524 0.0
C1227 C 0.74895 0.4278 0.7722 0.0
C1228 C 0.75834 0.40136 0.77982 0.0
C1229 C 0.77848 0.39915 0.80109 0.0
C1230 C 0.75157 0.48029 0.77767 0.0
C1231 C 0.74623 0.37527 0.76636 0.0
H1232 H 0.65445 0.42371 0.75337 0.0
H1233 H 0.70721 0.42665 0.68361 0.0
H1234 H 0.70119 0.40905 0.8027 0.0
H1235 H 0.70453 0.44588 0.80498 0.0
H1236 H 0.67093 0.43024 0.79913 0.0
H1237 H 0.75515 0.43624 0.68918 0.0
H1238 H 0.76902 0.44809 0.72258 0.0
H1239 H 0.76682 0.41186 0.71432 0.0
H1240 H 0.78969 0.46731 0.81691 0.0
H1241 H 0.78502 0.37882 0.80729 0.0
H1242 H 0.73027 0.48368 0.78484 0.0
H1243 H 0.75105 0.48236 0.75487 0.0
H1244 H 0.76517 0.49674 0.78719 0.0
H1245 H 0.72425 0.37323 0.77188 0.0
H1246 H 0.75735 0.35646 0.77294 0.0
H1247 H 0.74684 0.37627 0.74348 0.0
loop_
_geom_bond_atom_site_label_1
_geom_bond_atom_site_label_2
_geom_bond_distance
_geom_bond_site_symmetry_2
_ccdc_geom_bond_type
Zn0 O3 2.031 . S
Zn0 O5 2.049 . S
Zn0 O10 2.067 . S
Zn1 O2 1.962 . S
Zn1 O4 1.986 . S
Zn1 O6 1.996 . S
Zn1 O9 1.943 . S
O2 Zn1 1.962 . S
O2 C7 1.254 . S
O3 Zn0 2.031 . S
O3 C7 1.269 . S
O4 Zn1 1.986 . S
O4 C11 1.262 . S
O5 Zn0 2.049 . S
O5 C13 1.260 . S
O6 Zn1 1.996 . S
O6 C13 1.257 . S
C7 O2 1.254 . S
C7 O3 1.269 . S
C8 O9 1.249 . S
C8 O10 1.270 . S
O9 Zn1 1.943 . S
O9 C8 1.249 . S
O10 Zn0 2.067 . S
O10 C8 1.270 . S
C11 O4 1.262 . S
C11 O12 1.232 . S
O12 C11 1.232 . S
C13 O5 1.260 . S
C13 O6 1.257 . S
Zn14 O17 2.031 . S
Zn14 O19 2.049 . S
Zn14 O24 2.067 . S
Zn15 O16 1.962 . S
Zn15 O18 1.986 . S
Zn15 O20 1.996 . S
Zn15 O23 1.943 . S
O16 Zn15 1.962 . S
O16 C21 1.254 . S
O17 Zn14 2.031 . S
O17 C21 1.269 . S
O18 Zn15 1.986 . S
O18 C25 1.262 . S
O19 Zn14 2.049 . S
O19 C27 1.260 . S
O20 Zn15 1.996 . S
O20 C27 1.257 . S
C21 O16 1.254 . S
C21 O17 1.269 . S
C22 O23 1.249 . S
C22 O24 1.270 . S
O23 Zn15 1.943 . S
O23 C22 1.249 . S
O24 Zn14 2.067 . S
O24 C22 1.270 . S
C25 O18 1.262 . S
C25 O26 1.232 . S
O26 C25 1.232 . S
C27 O19 1.260 . S
C27 O20 1.257 . S
Zn28 O31 2.031 . S
Zn28 O33 2.049 . S
Zn28 O38 2.067 . S
Zn29 O30 1.962 . S
Zn29 O32 1.986 . S
Zn29 O34 1.996 . S
Zn29 O37 1.943 . S
O30 Zn29 1.962 . S
O30 C35 1.254 . S
O31 Zn28 2.031 . S
O31 C35 1.269 . S
O32 Zn29 1.986 . S
O32 C39 1.262 . S
O33 Zn28 2.049 . S
O33 C41 1.260 . S
O34 Zn29 1.996 . S
O34 C41 1.257 . S
C35 O30 1.254 . S
C35 O31 1.269 . S
C36 O37 1.249 . S
C36 O38 1.270 . S
O37 Zn29 1.943 . S
O37 C36 1.249 . S
O38 Zn28 2.067 . S
O38 C36 1.270 . S
C39 O32 1.262 . S
C39 O40 1.232 . S
O40 C39 1.232 . S
C41 O33 1.260 . S
C41 O34 1.257 . S
Zn42 O45 2.031 . S
Zn42 O47 2.049 . S
Zn42 O52 2.067 . S
Zn43 O44 1.962 . S
Zn43 O46 1.986 . S
Zn43 O48 1.996 . S
Zn43 O51 1.943 . S
O44 Zn43 1.962 . S
O44 C49 1.254 . S
O45 Zn42 2.031 . S
O45 C49 1.269 . S
O46 Zn43 1.986 . S
O46 C53 1.262 . S
O47 Zn42 2.049 . S
O47 C55 1.260 . S
O48 Zn43 1.996 . S
O48 C55 1.257 . S
C49 O44 1.254 . S
C49 O45 1.269 . S
C50 O51 1.249 . S
C50 O52 1.270 . S
O51 Zn43 1.943 . S
O51 C50 1.249 . S
O52 Zn42 2.067 . S
O52 C50 1.270 . S
C53 O46 1.262 . S
C53 O54 1.232 . S
O54 C53 1.232 . S
C55 O47 1.260 . S
C55 O48 1.257 . S
Zn56 O59 2.031 . S
Zn56 O61 2.049 . S
Zn56 O66 2.067 . S
Zn57 O58 1.962 . S
Zn57 O60 1.986 . S
Zn57 O62 1.996 . S
Zn57 O65 1.943 . S
O58 Zn57 1.962 . S
O58 C63 1.254 . S
O59 Zn56 2.031 . S
O59 C63 1.269 . S
O60 Zn57 1.986 . S
O60 C67 1.262 . S
O61 Zn56 2.049 . S
O61 C69 1.260 . S
O62 Zn57 1.996 . S
O62 C69 1.257 . S
C63 O58 1.254 . S
C63 O59 1.269 . S
C64 O65 1.249 . S
C64 O66 1.270 . S
O65 Zn57 1.943 . S
O65 C64 1.249 . S
O66 Zn56 2.067 . S
O66 C64 1.270 . S
C67 O60 1.262 . S
C67 O68 1.232 . S
O68 C67 1.232 . S
C69 O61 1.260 . S
C69 O62 1.257 . S
Zn70 O73 2.031 . S
Zn70 O75 2.049 . S
Zn70 O80 2.067 . S
Zn71 O72 1.962 . S
Zn71 O74 1.986 . S
Zn71 O76 1.996 . S
Zn71 O79 1.943 . S
O72 Zn71 1.962 . S
O72 C77 1.254 . S
O73 Zn70 2.031 . S
O73 C77 1.269 . S
O74 Zn71 1.986 . S
O74 C81 1.262 . S
O75 Zn70 2.049 . S
O75 C83 1.260 . S
O76 Zn71 1.996 . S
O76 C83 1.257 . S
C77 O72 1.254 . S
C77 O73 1.269 . S
C78 O79 1.249 . S
C78 O80 1.270 . S
O79 Zn71 1.943 . S
O79 C78 1.249 . S
O80 Zn70 2.067 . S
O80 C78 1.270 . S
C81 O74 1.262 . S
C81 O82 1.232 . S
O82 C81 1.232 . S
C83 O75 1.260 . S
C83 O76 1.257 . S
Zn84 O87 2.031 . S
Zn84 O89 2.049 . S
Zn84 O94 2.067 . S
Zn85 O86 1.962 . S
Zn85 O88 1.986 . S
Zn85 O90 1.996 . S
Zn85 O93 1.943 . S
O86 Zn85 1.962 . S
O86 C91 1.254 . S
O87 Zn84 2.031 . S
O87 C91 1.269 . S
O88 Zn85 1.986 . S
O88 C95 1.262 . S
O89 Zn84 2.049 . S
O89 C97 1.260 . S
O90 Zn85 1.996 . S
O90 C97 1.257 . S
C91 O86 1.254 . S
C91 O87 1.269 . S
C92 O93 1.249 . S
C92 O94 1.270 . S
O93 Zn85 1.943 . S
O93 C92 1.249 . S
O94 Zn84 2.067 . S
O94 C92 1.270 . S
C95 O88 1.262 . S
C95 O96 1.232 . S
O96 C95 1.232 . S
C97 O89 1.260 . S
C97 O90 1.257 . S
Zn98 O101 2.031 . S
Zn98 O103 2.049 . S
Zn98 O108 2.067 . S
Zn99 O100 1.962 . S
Zn99 O102 1.986 . S
Zn99 O104 1.996 . S
Zn99 O107 1.943 . S
O100 Zn99 1.962 . S
O100 C105 1.254 . S
O101 Zn98 2.031 . S
O101 C105 1.269 . S
O102 Zn99 1.986 . S
O102 C109 1.262 . S
O103 Zn98 2.049 . S
O103 C111 1.260 . S
O104 Zn99 1.996 . S
O104 C111 1.257 . S
C105 O100 1.254 . S
C105 O101 1.269 . S
C106 O107 1.249 . S
C106 O108 1.270 . S
O107 Zn99 1.943 . S
O107 C106 1.249 . S
O108 Zn98 2.067 . S
O108 C106 1.270 . S
C109 O102 1.262 . S
C109 O110 1.232 . S
O110 C109 1.232 . S
C111 O103 1.260 . S
C111 O104 1.257 . S
Zn112 O115 2.031 . S
Zn112 O117 2.049 . S
Zn112 O122 2.067 . S
Zn113 O114 1.962 . S
Zn113 O116 1.986 . S
Zn113 O118 1.996 . S
Zn113 O121 1.943 . S
O114 Zn113 1.962 . S
O114 C119 1.254 . S
O115 Zn112 2.031 . S
O115 C119 1.269 . S
O116 Zn113 1.986 . S
O116 C123 1.262 . S
O117 Zn112 2.049 . S
O117 C125 1.260 . S
O118 Zn113 1.996 . S
O118 C125 1.257 . S
C119 O114 1.254 . S
C119 O115 1.269 . S
C120 O121 1.249 . S
C120 O122 1.270 . S
O121 Zn113 1.943 . S
O121 C120 1.249 . S
O122 Zn112 2.067 . S
O122 C120 1.270 . S
C123 O116 1.262 . S
C123 O124 1.232 . S
O124 C123 1.232 . S
C125 O117 1.260 . S
C125 O118 1.257 . S
Zn126 O129 2.031 . S
Zn126 O131 2.049 . S
Zn126 O136 2.067 . S
Zn127 O128 1.962 . S
Zn127 O130 1.986 . S
Zn127 O132 1.996 . S
Zn127 O135 1.943 . S
O128 Zn127 1.962 . S
O128 C133 1.254 . S
O129 Zn126 2.031 . S
O129 C133 1.269 . S
O130 Zn127 1.986 . S
O130 C137 1.262 . S
O131 Zn126 2.049 . S
O131 C139 1.260 . S
O132 Zn127 1.996 . S
O132 C139 1.257 . S
C133 O128 1.254 . S
C133 O129 1.269 . S
C134 O135 1.249 . S
C134 O136 1.270 . S
O135 Zn127 1.943 . S
O135 C134 1.249 . S
O136 Zn126 2.067 . S
O136 C134 1.270 . S
C137 O130 1.262 . S
C137 O138 1.232 . S
O138 C137 1.232 . S
C139 O131 1.260 . S
C139 O132 1.257 . S
Zn140 O143 2.031 . S
Zn140 O145 2.049 . S
Zn140 O150 2.067 . S
Zn141 O142 1.962 . S
Zn141 O144 1.986 . S
Zn141 O146 1.996 . S
Zn141 O149 1.943 . S
O142 Zn141 1.962 . S
O142 C147 1.254 . S
O143 Zn140 2.031 . S
O143 C147 1.269 . S
O144 Zn141 1.986 . S
O144 C151 1.262 . S
O145 Zn140 2.049 . S
O145 C153 1.260 . S
O146 Zn141 1.996 . S
O146 C153 1.257 . S
C147 O142 1.254 . S
C147 O143 1.269 . S
C148 O149 1.249 . S
C148 O150 1.270 . S
O149 Zn141 1.943 . S
O149 C148 1.249 . S
O150 Zn140 2.067 . S
O150 C148 1.270 . S
C151 O144 1.262 . S
C151 O152 1.232 . S
O152 C151 1.232 . S
C153 O145 1.260 . S
C153 O146 1.257 . S
Zn154 O157 2.031 . S
Zn154 O159 2.049 . S
Zn154 O164 2.067 . S
Zn155 O156 1.962 . S
Zn155 O158 1.986 . S
Zn155 O160 1.996 . S
Zn155 O163 1.943 . S
O156 Zn155 1.962 . S
O156 C161 1.254 . S
O157 Zn154 2.031 . S
O157 C161 1.269 . S
O158 Zn155 1.986 . S
O158 C165 1.262 . S
O159 Zn154 2.049 . S
O159 C167 1.260 . S
O160 Zn155 1.996 . S
O160 C167 1.257 . S
C161 O156 1.254 . S
C161 O157 1.269 . S
C162 O163 1.249 . S
C162 O164 1.270 . S
O163 Zn155 1.943 . S
O163 C162 1.249 . S
O164 Zn154 2.067 . S
O164 C162 1.270 . S
C165 O158 1.262 . S
C165 O166 1.232 . S
O166 C165 1.232 . S
C167 O159 1.260 . S
C167 O160 1.257 . S
Zn168 O171 2.031 . S
Zn168 O173 2.049 . S
Zn168 O178 2.067 . S
Zn169 O170 1.962 . S
Zn169 O172 1.986 . S
Zn169 O174 1.996 . S
Zn169 O177 1.943 . S
O170 Zn169 1.962 . S
O170 C175 1.254 . S
O171 Zn168 2.031 . S
O171 C175 1.269 . S
O172 Zn169 1.986 . S
O172 C179 1.262 . S
O173 Zn168 2.049 . S
O173 C181 1.260 . S
O174 Zn169 1.996 . S
O174 C181 1.257 . S
C175 O170 1.254 . S
C175 O171 1.269 . S
C176 O177 1.249 . S
C176 O178 1.270 . S
O177 Zn169 1.943 . S
O177 C176 1.249 . S
O178 Zn168 2.067 . S
O178 C176 1.270 . S
C179 O172 1.262 . S
C179 O180 1.232 . S
O180 C179 1.232 . S
C181 O173 1.260 . S
C181 O174 1.257 . S
Zn182 O185 2.031 . S
Zn182 O187 2.049 . S
Zn182 O192 2.067 . S
Zn183 O184 1.962 . S
Zn183 O186 1.986 . S
Zn183 O188 1.996 . S
Zn183 O191 1.943 . S
O184 Zn183 1.962 . S
O184 C189 1.254 . S
O185 Zn182 2.031 . S
O185 C189 1.269 . S
O186 Zn183 1.986 . S
O186 C193 1.262 . S
O187 Zn182 2.049 . S
O187 C195 1.260 . S
O188 Zn183 1.996 . S
O188 C195 1.257 . S
C189 O184 1.254 . S
C189 O185 1.269 . S
C190 O191 1.249 . S
C190 O192 1.270 . S
O191 Zn183 1.943 . S
O191 C190 1.249 . S
O192 Zn182 2.067 . S
O192 C190 1.270 . S
C193 O186 1.262 . S
C193 O194 1.232 . S
O194 C193 1.232 . S
C195 O187 1.260 . S
C195 O188 1.257 . S
Zn196 O199 2.031 . S
Zn196 O201 2.049 . S
Zn196 O206 2.067 . S
Zn197 O198 1.962 . S
Zn197 O200 1.986 . S
Zn197 O202 1.996 . S
Zn197 O205 1.943 . S
O198 Zn197 1.962 . S
O198 C203 1.254 . S
O199 Zn196 2.031 . S
O199 C203 1.269 . S
O200 Zn197 1.986 . S
O200 C207 1.262 . S
O201 Zn196 2.049 . S
O201 C209 1.260 . S
O202 Zn197 1.996 . S
O202 C209 1.257 . S
C203 O198 1.254 . S
C203 O199 1.269 . S
C204 O205 1.249 . S
C204 O206 1.270 . S
O205 Zn197 1.943 . S
O205 C204 1.249 . S
O206 Zn196 2.067 . S
O206 C204 1.270 . S
C207 O200 1.262 . S
C207 O208 1.232 . S
O208 C207 1.232 . S
C209 O201 1.260 . S
C209 O202 1.257 . S
Zn210 O213 2.031 . S
Zn210 O215 2.049 . S
Zn210 O220 2.067 . S
Zn211 O212 1.962 . S
Zn211 O214 1.986 . S
Zn211 O216 1.996 . S
Zn211 O219 1.943 . S
O212 Zn211 1.962 . S
O212 C217 1.254 . S
O213 Zn210 2.031 . S
O213 C217 1.269 . S
O214 Zn211 1.986 . S
O214 C221 1.262 . S
O215 Zn210 2.049 . S
O215 C223 1.260 . S
O216 Zn211 1.996 . S
O216 C223 1.257 . S
C217 O212 1.254 . S
C217 O213 1.269 . S
C218 O219 1.249 . S
C218 O220 1.270 . S
O219 Zn211 1.943 . S
O219 C218 1.249 . S
O220 Zn210 2.067 . S
O220 C218 1.270 . S
C221 O214 1.262 . S
C221 O222 1.232 . S
O222 C221 1.232 . S
C223 O215 1.260 . S
C223 O216 1.257 . S
C224 C225 1.391 . S
C224 C226 1.394 . S
C224 H240 0.931 . S
C225 C224 1.391 . S
C225 C229 1.376 . S
C226 C224 1.394 . S
C226 C227 1.369 . S
C226 C230 1.531 . S
C227 C226 1.369 . S
C227 C228 1.410 . S
C227 C235 1.503 . S
C228 C227 1.410 . S
C228 C229 1.392 . S
C228 C231 1.511 . S
C229 C225 1.376 . S
C229 C228 1.392 . S
C229 H241 0.929 . S
C230 C226 1.531 . S
C230 H242 0.960 . S
C230 H243 0.962 . S
C230 H244 0.960 . S
C231 C228 1.511 . S
C231 H245 0.961 . S
C231 H246 0.961 . S
C231 H247 0.961 . S
C232 C233 1.370 . S
C232 C234 1.363 . S
C232 H248 0.931 . S
C233 C232 1.370 . S
C233 C237 1.408 . S
C234 C232 1.363 . S
C234 C235 1.370 . S
C234 C238 1.524 . S
C235 C227 1.503 . S
C235 C234 1.370 . S
C235 C236 1.403 . S
C236 C235 1.403 . S
C236 C237 1.404 . S
C236 C239 1.539 . S
C237 C233 1.408 . S
C237 C236 1.404 . S
C237 H249 0.930 . S
C238 C234 1.524 . S
C238 H250 0.956 . S
C238 H251 0.961 . S
C238 H252 0.961 . S
C239 C236 1.539 . S
C239 H253 0.958 . S
C239 H254 0.961 . S
C239 H255 0.960 . S
H240 C224 0.931 . S
H241 C229 0.929 . S
H242 C230 0.960 . S
H243 C230 0.962 . S
H244 C230 0.960 . S
H245 C231 0.961 . S
H246 C231 0.961 . S
H247 C231 0.961 . S
H248 C232 0.931 . S
H249 C237 0.930 . S
H250 C238 0.956 . S
H251 C238 0.961 . S
H252 C238 0.961 . S
H253 C239 0.958 . S
H254 C239 0.961 . S
H255 C239 0.960 . S
C256 C257 1.391 . S
C256 C258 1.394 . S
C256 H272 0.931 . S
C257 C256 1.391 . S
C257 C261 1.376 . S
C258 C256 1.394 . S
C258 C259 1.369 . S
C258 C262 1.531 . S
C259 C258 1.369 . S
C259 C260 1.410 . S
C259 C267 1.503 . S
C260 C259 1.410 . S
C260 C261 1.392 . S
C260 C263 1.511 . S
C261 C257 1.376 . S
C261 C260 1.392 . S
C261 H273 0.929 . S
C262 C258 1.531 . S
C262 H274 0.960 . S
C262 H275 0.962 . S
C262 H276 0.960 . S
C263 C260 1.511 . S
C263 H277 0.961 . S
C263 H278 0.961 . S
C263 H279 0.961 . S
C264 C265 1.370 . S
C264 C266 1.363 . S
C264 H280 0.931 . S
C265 C264 1.370 . S
C265 C269 1.408 . S
C266 C264 1.363 . S
C266 C267 1.370 . S
C266 C270 1.524 . S
C267 C259 1.503 . S
C267 C266 1.370 . S
C267 C268 1.403 . S
C268 C267 1.403 . S
C268 C269 1.404 . S
C268 C271 1.539 . S
C269 C265 1.408 . S
C269 C268 1.404 . S
C269 H281 0.930 . S
C270 C266 1.524 . S
C270 H282 0.956 . S
C270 H283 0.961 . S
C270 H284 0.961 . S
C271 C268 1.539 . S
C271 H285 0.958 . S
C271 H286 0.961 . S
C271 H287 0.960 . S
H272 C256 0.931 . S
H273 C261 0.929 . S
H274 C262 0.960 . S
H275 C262 0.962 . S
H276 C262 0.960 . S
H277 C263 0.961 . S
H278 C263 0.961 . S
H279 C263 0.961 . S
H280 C264 0.931 . S
H281 C269 0.930 . S
H282 C270 0.956 . S
H283 C270 0.961 . S
H284 C270 0.961 . S
H285 C271 0.958 . S
H286 C271 0.961 . S
H287 C271 0.960 . S
C288 C289 1.391 . S
C288 C290 1.394 . S
C288 H304 0.931 . S
C289 C288 1.391 . S
C289 C293 1.376 . S
C290 C288 1.394 . S
C290 C291 1.369 . S
C290 C294 1.531 . S
C291 C290 1.369 . S
C291 C292 1.410 . S
C291 C299 1.503 . S
C292 C291 1.410 . S
C292 C293 1.392 . S
C292 C295 1.511 . S
C293 C289 1.376 . S
C293 C292 1.392 . S
C293 H305 0.929 . S
C294 C290 1.531 . S
C294 H306 0.960 . S
C294 H307 0.962 . S
C294 H308 0.960 . S
C295 C292 1.511 . S
C295 H309 0.961 . S
C295 H310 0.961 . S
C295 H311 0.961 . S
C296 C297 1.370 . S
C296 C298 1.363 . S
C296 H312 0.931 . S
C297 C296 1.370 . S
C297 C301 1.408 . S
C298 C296 1.363 . S
C298 C299 1.370 . S
C298 C302 1.524 . S
C299 C291 1.503 . S
C299 C298 1.370 . S
C299 C300 1.403 . S
C300 C299 1.403 . S
C300 C301 1.404 . S
C300 C303 1.539 . S
C301 C297 1.408 . S
C301 C300 1.404 . S
C301 H313 0.930 . S
C302 C298 1.524 . S
C302 H314 0.956 . S
C302 H315 0.961 . S
C302 H316 0.961 . S
C303 C300 1.539 . S
C303 H317 0.958 . S
C303 H318 0.961 . S
C303 H319 0.960 . S
H304 C288 0.931 . S
H305 C293 0.929 . S
H306 C294 0.960 . S
H307 C294 0.962 . S
H308 C294 0.960 . S
H309 C295 0.961 . S
H310 C295 0.961 . S
H311 C295 0.961 . S
H312 C296 0.931 . S
H313 C301 0.930 . S
H314 C302 0.956 . S
H315 C302 0.961 . S
H316 C302 0.961 . S
H317 C303 0.958 . S
H318 C303 0.961 . S
H319 C303 0.960 . S
C320 C321 1.391 . S
C320 C322 1.394 . S
C320 H336 0.931 . S
C321 C320 1.391 . S
C321 C325 1.376 . S
C322 C320 1.394 . S
C322 C323 1.369 . S
C322 C326 1.531 . S
C323 C322 1.369 . S
C323 C324 1.410 . S
C323 C331 1.503 1_455 S
C324 C323 1.410 . S
C324 C325 1.392 . S
C324 C327 1.511 . S
C325 C321 1.376 . S
C325 C324 1.392 . S
C325 H337 0.929 . S
C326 C322 1.531 . S
C326 H338 0.960 1_455 S
C326 H339 0.962 . S
C326 H340 0.960 . S
C327 C324 1.511 . S
C327 H341 0.961 . S
C327 H342 0.964 1_455 S
C327 H343 0.961 . S
C328 C329 1.370 . S
C328 C330 1.363 . S
C328 H344 0.931 . S
C329 C328 1.370 . S
C329 C333 1.408 . S
C330 C328 1.363 . S
C330 C331 1.370 . S
C330 C334 1.524 . S
C331 C323 1.503 1_655 S
C331 C330 1.370 . S
C331 C332 1.403 . S
C332 C331 1.403 . S
C332 C333 1.404 . S
C332 C335 1.539 . S
C333 C329 1.408 . S
C333 C332 1.404 . S
C333 H345 0.930 . S
C334 C330 1.524 . S
C334 H346 0.973 . S
C334 H347 0.961 1_655 S
C334 H348 0.961 . S
C335 C332 1.539 . S
C335 H349 0.958 . S
C335 H350 0.961 . S
C335 H351 0.923 1_655 S
H336 C320 0.931 . S
H337 C325 0.929 . S
H338 C326 0.960 1_655 S
H339 C326 0.962 . S
H340 C326 0.960 . S
H341 C327 0.961 . S
H342 C327 0.964 1_655 S
H343 C327 0.961 . S
H344 C328 0.931 . S
H345 C333 0.930 . S
H346 C334 0.973 . S
H347 C334 0.961 1_455 S
H348 C334 0.961 . S
H349 C335 0.958 . S
H350 C335 0.961 . S
H351 C335 0.923 1_455 S
C352 C353 1.391 . S
C352 C354 1.394 . S
C352 H368 0.931 . S
C353 C352 1.391 . S
C353 C357 1.376 . S
C354 C352 1.394 . S
C354 C355 1.369 . S
C354 C358 1.531 . S
C355 C354 1.369 . S
C355 C356 1.410 . S
C355 C363 1.503 . S
C356 C355 1.410 . S
C356 C357 1.392 . S
C356 C359 1.511 . S
C357 C353 1.376 . S
C357 C356 1.392 . S
C357 H369 0.929 . S
C358 C354 1.531 . S
C358 H370 0.960 . S
C358 H371 0.962 . S
C358 H372 0.960 . S
C359 C356 1.511 . S
C359 H373 0.961 . S
C359 H374 0.961 . S
C359 H375 0.961 . S
C360 C361 1.370 . S
C360 C362 1.363 . S
C360 H376 0.931 . S
C361 C360 1.370 . S
C361 C365 1.408 . S
C362 C360 1.363 . S
C362 C363 1.370 . S
C362 C366 1.524 . S
C363 C355 1.503 . S
C363 C362 1.370 . S
C363 C364 1.403 . S
C364 C363 1.403 . S
C364 C365 1.404 . S
C364 C367 1.539 . S
C365 C361 1.408 . S
C365 C364 1.404 . S
C365 H377 0.930 . S
C366 C362 1.524 . S
C366 H378 0.956 . S
C366 H379 0.961 . S
C366 H380 0.961 . S
C367 C364 1.539 . S
C367 H381 0.958 . S
C367 H382 0.961 . S
C367 H383 0.960 . S
H368 C352 0.931 . S
H369 C357 0.929 . S
H370 C358 0.960 . S
H371 C358 0.962 . S
H372 C358 0.960 . S
H373 C359 0.961 . S
H374 C359 0.961 . S
H375 C359 0.961 . S
H376 C360 0.931 . S
H377 C365 0.930 . S
H378 C366 0.956 . S
H379 C366 0.961 . S
H380 C366 0.961 . S
H381 C367 0.958 . S
H382 C367 0.961 . S
H383 C367 0.960 . S
C384 C385 1.391 . S
C384 C386 1.394 . S
C384 H400 0.931 . S
C385 C384 1.391 . S
C385 C389 1.376 . S
C386 C384 1.394 . S
C386 C387 1.369 . S
C386 C390 1.531 . S
C387 C386 1.369 . S
C387 C388 1.410 . S
C387 C395 1.503 1_655 S
C388 C387 1.410 . S
C388 C389 1.392 . S
C388 C391 1.511 . S
C389 C385 1.376 . S
C389 C388 1.392 . S
C389 H401 0.929 . S
C390 C386 1.531 . S
C390 H402 0.960 . S
C390 H403 0.962 . S
C390 H404 0.960 . S
C391 C388 1.511 . S
C391 H405 0.961 . S
C391 H406 0.961 . S
C391 H407 0.961 . S
C392 C393 1.370 . S
C392 C394 1.363 . S
C392 H408 0.931 . S
C393 C392 1.370 . S
C393 C397 1.408 . S
C394 C392 1.363 . S
C394 C395 1.370 . S
C394 C398 1.524 . S
C395 C387 1.503 1_455 S
C395 C394 1.370 . S
C395 C396 1.403 . S
C396 C395 1.403 . S
C396 C397 1.404 . S
C396 C399 1.539 . S
C397 C393 1.408 . S
C397 C396 1.404 . S
C397 H409 0.930 . S
C398 C394 1.524 . S
C398 H410 0.956 1_455 S
C398 H411 0.961 1_455 S
C398 H412 0.961 . S
C399 C396 1.539 . S
C399 H413 0.958 . S
C399 H414 0.961 . S
C399 H415 0.960 1_455 S
H400 C384 0.931 . S
H401 C389 0.929 . S
H402 C390 0.960 . S
H403 C390 0.962 . S
H404 C390 0.960 . S
H405 C391 0.961 . S
H406 C391 0.961 . S
H407 C391 0.961 . S
H408 C392 0.931 . S
H409 C397 0.930 . S
H410 C398 0.956 1_655 S
H411 C398 0.961 1_655 S
H412 C398 0.961 . S
H413 C399 0.958 . S
H414 C399 0.961 . S
H415 C399 0.960 1_655 S
C416 C417 1.391 . S
C416 C418 1.394 . S
C416 H432 0.931 . S
C417 C416 1.391 . S
C417 C421 1.376 . S
C418 C416 1.394 . S
C418 C419 1.369 . S
C418 C422 1.531 . S
C419 C418 1.369 . S
C419 C420 1.410 . S
C419 C427 1.503 . S
C420 C419 1.410 . S
C420 C421 1.392 . S
C420 C423 1.511 . S
C421 C417 1.376 . S
C421 C420 1.392 . S
C421 H433 0.929 . S
C422 C418 1.531 . S
C422 H434 0.960 . S
C422 H435 0.962 . S
C422 H436 0.960 . S
C423 C420 1.511 . S
C423 H437 0.961 . S
C423 H438 0.961 . S
C423 H439 0.961 . S
C424 C425 1.370 . S
C424 C426 1.363 . S
C424 H440 0.931 . S
C425 C424 1.370 . S
C425 C429 1.408 . S
C426 C424 1.363 . S
C426 C427 1.370 . S
C426 C430 1.524 . S
C427 C419 1.503 . S
C427 C426 1.370 . S
C427 C428 1.403 . S
C428 C427 1.403 . S
C428 C429 1.404 . S
C428 C431 1.539 . S
C429 C425 1.408 . S
C429 C428 1.404 . S
C429 H441 0.930 . S
C430 C426 1.524 . S
C430 H442 0.956 . S
C430 H443 0.961 . S
C430 H444 0.961 . S
C431 C428 1.539 . S
C431 H445 0.958 . S
C431 H446 0.961 . S
C431 H447 0.960 . S
H432 C416 0.931 . S
H433 C421 0.929 . S
H434 C422 0.960 . S
H435 C422 0.962 . S
H436 C422 0.960 . S
H437 C423 0.961 . S
H438 C423 0.961 . S
H439 C423 0.961 . S
H440 C424 0.931 . S
H441 C429 0.930 . S
H442 C430 0.956 . S
H443 C430 0.961 . S
H444 C430 0.961 . S
H445 C431 0.958 . S
H446 C431 0.961 . S
H447 C431 0.960 . S
C448 C449 1.391 . S
C448 C450 1.394 . S
C448 H464 0.931 . S
C449 C448 1.391 . S
C449 C453 1.376 . S
C450 C448 1.394 . S
C450 C451 1.369 . S
C450 C454 1.531 . S
C451 C450 1.369 . S
C451 C452 1.410 . S
C451 C459 1.503 . S
C452 C451 1.410 . S
C452 C453 1.392 . S
C452 C455 1.511 . S
C453 C449 1.376 . S
C453 C452 1.392 . S
C453 H465 0.929 . S
C454 C450 1.531 . S
C454 H466 0.960 . S
C454 H467 0.962 . S
C454 H468 0.960 . S
C455 C452 1.511 . S
C455 H469 0.961 . S
C455 H470 0.961 . S
C455 H471 0.961 . S
C456 C457 1.370 . S
C456 C458 1.363 . S
C456 H472 0.931 . S
C457 C456 1.370 . S
C457 C461 1.408 . S
C458 C456 1.363 . S
C458 C459 1.370 . S
C458 C462 1.524 . S
C459 C451 1.503 . S
C459 C458 1.370 . S
C459 C460 1.403 . S
C460 C459 1.403 . S
C460 C461 1.404 . S
C460 C463 1.539 . S
C461 C457 1.408 . S
C461 C460 1.404 . S
C461 H473 0.930 . S
C462 C458 1.524 . S
C462 H474 0.956 . S
C462 H475 0.961 . S
C462 H476 0.961 . S
C463 C460 1.539 . S
C463 H477 0.958 . S
C463 H478 0.961 . S
C463 H479 0.960 . S
H464 C448 0.931 . S
H465 C453 0.929 . S
H466 C454 0.960 . S
H467 C454 0.962 . S
H468 C454 0.960 . S
H469 C455 0.961 . S
H470 C455 0.961 . S
H471 C455 0.961 . S
H472 C456 0.931 . S
H473 C461 0.930 . S
H474 C462 0.956 . S
H475 C462 0.961 . S
H476 C462 0.961 . S
H477 C463 0.958 . S
H478 C463 0.961 . S
H479 C463 0.960 . S
C480 C481 1.391 . S
C480 C482 1.394 . S
C480 H496 0.931 . S
C481 C480 1.391 . S
C481 C485 1.376 . S
C482 C480 1.394 . S
C482 C483 1.369 . S
C482 C486 1.531 . S
C483 C482 1.369 . S
C483 C484 1.410 . S
C483 C491 1.503 . S
C484 C483 1.410 . S
C484 C485 1.392 . S
C484 C487 1.511 . S
C485 C481 1.376 . S
C485 C484 1.392 . S
C485 H497 0.929 . S
C486 C482 1.531 . S
C486 H498 0.960 . S
C486 H499 0.962 . S
C486 H500 0.960 . S
C487 C484 1.511 . S
C487 H501 0.961 . S
C487 H502 0.961 . S
C487 H503 0.961 . S
C488 C489 1.370 . S
C488 C490 1.363 . S
C488 H504 0.931 . S
C489 C488 1.370 . S
C489 C493 1.408 . S
C490 C488 1.363 . S
C490 C491 1.370 . S
C490 C494 1.524 . S
C491 C483 1.503 . S
C491 C490 1.370 . S
C491 C492 1.403 . S
C492 C491 1.403 . S
C492 C493 1.404 . S
C492 C495 1.539 . S
C493 C489 1.408 . S
C493 C492 1.404 . S
C493 H505 0.930 . S
C494 C490 1.524 . S
C494 H506 0.956 . S
C494 H507 0.961 . S
C494 H508 0.961 . S
C495 C492 1.539 . S
C495 H509 0.958 . S
C495 H510 0.961 . S
C495 H511 0.960 . S
H496 C480 0.931 . S
H497 C485 0.929 . S
H498 C486 0.960 . S
H499 C486 0.962 . S
H500 C486 0.960 . S
H501 C487 0.961 . S
H502 C487 0.961 . S
H503 C487 0.961 . S
H504 C488 0.931 . S
H505 C493 0.930 . S
H506 C494 0.956 . S
H507 C494 0.961 . S
H508 C494 0.961 . S
H509 C495 0.958 . S
H510 C495 0.961 . S
H511 C495 0.960 . S
C512 C513 1.391 . S
C512 C514 1.394 . S
C512 H528 0.931 . S
C513 C512 1.391 . S
C513 C517 1.376 . S
C514 C512 1.394 . S
C514 C515 1.369 . S
C514 C518 1.531 . S
C515 C514 1.369 . S
C515 C516 1.410 . S
C515 C523 1.503 . S
C516 C515 1.410 . S
C516 C517 1.392 . S
C516 C519 1.511 . S
C517 C513 1.376 . S
C517 C516 1.392 . S
C517 H529 0.929 . S
C518 C514 1.531 . S
C518 H530 0.960 . S
C518 H531 0.962 . S
C518 H532 0.960 . S
C519 C516 1.511 . S
C519 H533 0.961 . S
C519 H534 0.961 . S
C519 H535 0.961 . S
C520 C521 1.370 . S
C520 C522 1.363 . S
C520 H536 0.931 . S
C521 C520 1.370 . S
C521 C525 1.408 . S
C522 C520 1.363 . S
C522 C523 1.370 . S
C522 C526 1.524 . S
C523 C515 1.503 . S
C523 C522 1.370 . S
C523 C524 1.403 . S
C524 C523 1.403 . S
C524 C525 1.404 . S
C524 C527 1.539 . S
C525 C521 1.408 . S
C525 C524 1.404 . S
C525 H537 0.930 . S
C526 C522 1.524 . S
C526 H538 0.956 . S
C526 H539 0.961 . S
C526 H540 0.961 . S
C527 C524 1.539 . S
C527 H541 0.958 . S
C527 H542 0.961 . S
C527 H543 0.960 . S
H528 C512 0.931 . S
H529 C517 0.929 . S
H530 C518 0.960 . S
H531 C518 0.962 . S
H532 C518 0.960 . S
H533 C519 0.961 . S
H534 C519 0.961 . S
H535 C519 0.961 . S
H536 C520 0.931 . S
H537 C525 0.930 . S
H538 C526 0.956 . S
H539 C526 0.961 . S
H540 C526 0.961 . S
H541 C527 0.958 . S
H542 C527 0.961 . S
H543 C527 0.960 . S
C544 C545 1.391 . S
C544 C546 1.394 . S
C544 H560 0.931 . S
C545 C544 1.391 . S
C545 C549 1.376 . S
C546 C544 1.394 . S
C546 C547 1.369 . S
C546 C550 1.531 . S
C547 C546 1.369 . S
C547 C548 1.410 . S
C547 C555 1.503 . S
C548 C547 1.410 . S
C548 C549 1.392 . S
C548 C551 1.511 . S
C549 C545 1.376 . S
C549 C548 1.392 . S
C549 H561 0.929 . S
C550 C546 1.531 . S
C550 H562 0.960 . S
C550 H563 0.962 . S
C550 H564 0.960 . S
C551 C548 1.511 . S
C551 H565 0.961 . S
C551 H566 0.961 . S
C551 H567 0.961 . S
C552 C553 1.370 . S
C552 C554 1.363 . S
C552 H568 0.931 . S
C553 C552 1.370 . S
C553 C557 1.408 . S
C554 C552 1.363 . S
C554 C555 1.370 . S
C554 C558 1.524 . S
C555 C547 1.503 . S
C555 C554 1.370 . S
C555 C556 1.403 . S
C556 C555 1.403 . S
C556 C557 1.404 . S
C556 C559 1.539 . S
C557 C553 1.408 . S
C557 C556 1.404 . S
C557 H569 0.930 . S
C558 C554 1.524 . S
C558 H570 0.956 . S
C558 H571 0.961 . S
C558 H572 0.961 . S
C559 C556 1.539 . S
C559 H573 0.958 . S
C559 H574 0.961 . S
C559 H575 0.960 . S
H560 C544 0.931 . S
H561 C549 0.929 . S
H562 C550 0.960 . S
H563 C550 0.962 . S
H564 C550 0.960 . S
H565 C551 0.961 . S
H566 C551 0.961 . S
H567 C551 0.961 . S
H568 C552 0.931 . S
H569 C557 0.930 . S
H570 C558 0.956 . S
H571 C558 0.961 . S
H572 C558 0.961 . S
H573 C559 0.958 . S
H574 C559 0.961 . S
H575 C559 0.960 . S
C576 C577 1.391 . S
C576 C578 1.394 . S
C576 H592 0.931 . S
C577 C576 1.391 . S
C577 C581 1.376 . S
C578 C576 1.394 . S
C578 C579 1.369 . S
C578 C582 1.531 . S
C579 C578 1.369 . S
C579 C580 1.410 . S
C579 C587 1.503 . S
C580 C579 1.410 . S
C580 C581 1.392 . S
C580 C583 1.511 . S
C581 C577 1.376 . S
C581 C580 1.392 . S
C581 H593 0.929 . S
C582 C578 1.531 . S
C582 H594 0.960 . S
C582 H595 0.962 . S
C582 H596 0.960 . S
C583 C580 1.511 . S
C583 H597 0.961 . S
C583 H598 0.961 . S
C583 H599 0.961 . S
C584 C585 1.370 . S
C584 C586 1.363 . S
C584 H600 0.931 . S
C585 C584 1.370 . S
C585 C589 1.408 . S
C586 C584 1.363 . S
C586 C587 1.370 . S
C586 C590 1.524 . S
C587 C579 1.503 . S
C587 C586 1.370 . S
C587 C588 1.403 . S
C588 C587 1.403 . S
C588 C589 1.404 . S
C588 C591 1.539 . S
C589 C585 1.408 . S
C589 C588 1.404 . S
C589 H601 0.930 . S
C590 C586 1.524 . S
C590 H602 0.956 . S
C590 H603 0.961 . S
C590 H604 0.961 . S
C591 C588 1.539 . S
C591 H605 0.958 . S
C591 H606 0.961 . S
C591 H607 0.960 . S
H592 C576 0.931 . S
H593 C581 0.929 . S
H594 C582 0.960 . S
H595 C582 0.962 . S
H596 C582 0.960 . S
H597 C583 0.961 . S
H598 C583 0.961 . S
H599 C583 0.961 . S
H600 C584 0.931 . S
H601 C589 0.930 . S
H602 C590 0.956 . S
H603 C590 0.961 . S
H604 C590 0.961 . S
H605 C591 0.958 . S
H606 C591 0.961 . S
H607 C591 0.960 . S
C608 C609 1.391 . S
C608 C610 1.394 . S
C608 H624 0.931 . S
C609 C608 1.391 . S
C609 C613 1.376 . S
C610 C608 1.394 . S
C610 C611 1.369 . S
C610 C614 1.531 . S
C611 C610 1.369 . S
C611 C612 1.410 . S
C611 C619 1.503 1_455 S
C612 C611 1.410 . S
C612 C613 1.392 . S
C612 C615 1.511 . S
C613 C609 1.376 . S
C613 C612 1.392 . S
C613 H625 0.929 . S
C614 C610 1.531 . S
C614 H626 0.960 1_455 S
C614 H627 0.962 . S
C614 H628 0.960 . S
C615 C612 1.511 . S
C615 H629 0.961 . S
C615 H630 0.961 1_455 S
C615 H631 0.961 . S
C616 C617 1.370 . S
C616 C618 1.363 . S
C616 H632 0.931 . S
C617 C616 1.370 . S
C617 C621 1.408 . S
C618 C616 1.363 . S
C618 C619 1.370 . S
C618 C622 1.524 . S
C619 C611 1.503 1_655 S
C619 C618 1.370 . S
C619 C620 1.403 . S
C620 C619 1.403 . S
C620 C621 1.404 . S
C620 C623 1.539 . S
C621 C617 1.408 . S
C621 C620 1.404 . S
C621 H633 0.930 . S
C622 C618 1.524 . S
C622 H634 0.956 . S
C622 H635 0.961 . S
C622 H636 0.961 . S
C623 C620 1.539 . S
C623 H637 0.958 . S
C623 H638 0.961 . S
C623 H639 0.954 1_655 S
H624 C608 0.931 . S
H625 C613 0.929 . S
H626 C614 0.960 1_655 S
H627 C614 0.962 . S
H628 C614 0.960 . S
H629 C615 0.961 . S
H630 C615 0.961 1_655 S
H631 C615 0.961 . S
H632 C616 0.931 . S
H633 C621 0.930 . S
H634 C622 0.956 . S
H635 C622 0.961 . S
H636 C622 0.961 . S
H637 C623 0.958 . S
H638 C623 0.961 . S
H639 C623 0.954 1_455 S
C640 C641 1.391 . S
C640 C642 1.394 . S
C640 H656 0.931 . S
C641 C640 1.391 . S
C641 C645 1.376 . S
C642 C640 1.394 . S
C642 C643 1.369 . S
C642 C646 1.531 . S
C643 C642 1.369 . S
C643 C644 1.410 . S
C643 C651 1.503 . S
C644 C643 1.410 . S
C644 C645 1.392 . S
C644 C647 1.511 . S
C645 C641 1.376 . S
C645 C644 1.392 . S
C645 H657 0.929 . S
C646 C642 1.531 . S
C646 H658 0.960 . S
C646 H659 0.962 . S
C646 H660 0.960 . S
C647 C644 1.511 . S
C647 H661 0.961 . S
C647 H662 0.961 . S
C647 H663 0.961 . S
C648 C649 1.370 . S
C648 C650 1.363 . S
C648 H664 0.931 . S
C649 C648 1.370 . S
C649 C653 1.408 . S
C650 C648 1.363 . S
C650 C651 1.370 . S
C650 C654 1.524 . S
C651 C643 1.503 . S
C651 C650 1.370 . S
C651 C652 1.403 . S
C652 C651 1.403 . S
C652 C653 1.404 . S
C652 C655 1.539 . S
C653 C649 1.408 . S
C653 C652 1.404 . S
C653 H665 0.930 . S
C654 C650 1.524 . S
C654 H666 0.956 . S
C654 H667 0.961 . S
C654 H668 0.961 . S
C655 C652 1.539 . S
C655 H669 0.958 . S
C655 H670 0.961 . S
C655 H671 0.960 . S
H656 C640 0.931 . S
H657 C645 0.929 . S
H658 C646 0.960 . S
H659 C646 0.962 . S
H660 C646 0.960 . S
H661 C647 0.961 . S
H662 C647 0.961 . S
H663 C647 0.961 . S
H664 C648 0.931 . S
H665 C653 0.930 . S
H666 C654 0.956 . S
H667 C654 0.961 . S
H668 C654 0.961 . S
H669 C655 0.958 . S
H670 C655 0.961 . S
H671 C655 0.960 . S
C672 C673 1.391 . S
C672 C674 1.394 . S
C672 H688 0.931 . S
C673 C672 1.391 . S
C673 C677 1.376 . S
C674 C672 1.394 . S
C674 C675 1.369 . S
C674 C678 1.531 . S
C675 C674 1.369 . S
C675 C676 1.410 . S
C675 C683 1.503 . S
C676 C675 1.410 . S
C676 C677 1.392 . S
C676 C679 1.511 . S
C677 C673 1.376 . S
C677 C676 1.392 . S
C677 H689 0.929 . S
C678 C674 1.531 . S
C678 H690 0.960 . S
C678 H691 0.962 . S
C678 H692 0.960 . S
C679 C676 1.511 . S
C679 H693 0.961 . S
C679 H694 0.961 . S
C679 H695 0.961 . S
C680 C681 1.370 . S
C680 C682 1.363 . S
C680 H696 0.931 . S
C681 C680 1.370 . S
C681 C685 1.408 . S
C682 C680 1.363 . S
C682 C683 1.370 . S
C682 C686 1.524 . S
C683 C675 1.503 . S
C683 C682 1.370 . S
C683 C684 1.403 . S
C684 C683 1.403 . S
C684 C685 1.404 . S
C684 C687 1.539 . S
C685 C681 1.408 . S
C685 C684 1.404 . S
C685 H697 0.930 . S
C686 C682 1.524 . S
C686 H698 0.956 . S
C686 H699 0.961 . S
C686 H700 0.961 . S
C687 C684 1.539 . S
C687 H701 0.958 . S
C687 H702 0.961 . S
C687 H703 0.960 . S
H688 C672 0.931 . S
H689 C677 0.929 . S
H690 C678 0.960 . S
H691 C678 0.962 . S
H692 C678 0.960 . S
H693 C679 0.961 . S
H694 C679 0.961 . S
H695 C679 0.961 . S
H696 C680 0.931 . S
H697 C685 0.930 . S
H698 C686 0.956 . S
H699 C686 0.961 . S
H700 C686 0.961 . S
H701 C687 0.958 . S
H702 C687 0.961 . S
H703 C687 0.960 . S
C704 C705 1.391 . S
C704 C706 1.394 . S
C704 H720 0.931 . S
C705 C704 1.391 . S
C705 C709 1.376 . S
C706 C704 1.394 . S
C706 C707 1.369 . S
C706 C710 1.531 . S
C707 C706 1.369 . S
C707 C708 1.410 . S
C707 C715 1.503 1_455 S
C708 C707 1.410 . S
C708 C709 1.392 . S
C708 C711 1.511 . S
C709 C705 1.376 . S
C709 C708 1.392 . S
C709 H721 0.929 . S
C710 C706 1.531 . S
C710 H722 0.960 1_455 S
C710 H723 0.962 . S
C710 H724 0.960 . S
C711 C708 1.511 . S
C711 H725 0.961 . S
C711 H726 0.965 . S
C711 H727 0.961 . S
C712 C713 1.370 . S
C712 C714 1.363 . S
C712 H728 0.931 . S
C713 C712 1.370 . S
C713 C717 1.408 . S
C714 C712 1.363 . S
C714 C715 1.370 . S
C714 C718 1.524 . S
C715 C707 1.503 1_655 S
C715 C714 1.370 . S
C715 C716 1.403 . S
C716 C715 1.403 . S
C716 C717 1.404 . S
C716 C719 1.539 . S
C717 C713 1.408 . S
C717 C716 1.404 . S
C717 H729 0.930 . S
C718 C714 1.524 . S
C718 H730 0.956 . S
C718 H731 0.961 1_655 S
C718 H732 0.961 . S
C719 C716 1.539 . S
C719 H733 0.958 . S
C719 H734 0.961 . S
C719 H735 0.960 1_655 S
H720 C704 0.931 . S
H721 C709 0.929 . S
H722 C710 0.960 1_655 S
H723 C710 0.962 . S
H724 C710 0.960 . S
H725 C711 0.961 . S
H726 C711 0.965 . S
H727 C711 0.961 . S
H728 C712 0.931 . S
H729 C717 0.930 . S
H730 C718 0.956 . S
H731 C718 0.961 1_455 S
H732 C718 0.961 . S
H733 C719 0.958 . S
H734 C719 0.961 . S
H735 C719 0.960 1_455 S
C736 C737 1.391 . S
C736 C738 1.394 . S
C736 H752 0.931 . S
C737 C736 1.391 . S
C737 C741 1.376 . S
C738 C736 1.394 . S
C738 C739 1.369 . S
C738 C742 1.531 1_554 S
C739 C738 1.369 . S
C739 C740 1.410 . S
C739 C747 1.503 1_554 S
C740 C739 1.410 . S
C740 C741 1.392 . S
C740 C743 1.511 . S
C741 C737 1.376 . S
C741 C740 1.392 . S
C741 H753 0.929 . S
C742 C738 1.531 1_556 S
C742 H754 0.960 . S
C742 H755 0.962 . S
C742 H756 0.960 . S
C743 C740 1.511 . S
C743 H757 0.961 . S
C743 H758 0.961 . S
C743 H759 0.961 . S
C744 C745 1.370 . S
C744 C746 1.363 . S
C744 H760 0.931 . S
C745 C744 1.370 . S
C745 C749 1.408 . S
C746 C744 1.363 . S
C746 C747 1.370 . S
C746 C750 1.524 . S
C747 C739 1.503 1_556 S
C747 C746 1.370 . S
C747 C748 1.403 . S
C748 C747 1.403 . S
C748 C749 1.404 . S
C748 C751 1.539 1_556 S
C749 C745 1.408 . S
C749 C748 1.404 . S
C749 H761 0.930 . S
C750 C746 1.524 . S
C750 H762 0.956 . S
C750 H763 0.961 . S
C750 H764 0.961 . S
C751 C748 1.539 1_554 S
C751 H765 0.966 . S
C751 H766 0.961 . S
C751 H767 0.960 . S
H752 C736 0.931 . S
H753 C741 0.929 . S
H754 C742 0.960 . S
H755 C742 0.962 . S
H756 C742 0.960 . S
H757 C743 0.961 . S
H758 C743 0.961 . S
H759 C743 0.961 . S
H760 C744 0.931 . S
H761 C749 0.930 . S
H762 C750 0.956 . S
H763 C750 0.961 . S
H764 C750 0.961 . S
H765 C751 0.966 . S
H766 C751 0.961 . S
H767 C751 0.960 . S
C768 C769 1.391 . S
C768 C770 1.394 . S
C768 H784 0.931 . S
C769 C768 1.391 . S
C769 C773 1.376 . S
C770 C768 1.394 . S
C770 C771 1.369 . S
C770 C774 1.531 . S
C771 C770 1.369 . S
C771 C772 1.410 . S
C771 C779 1.503 . S
C772 C771 1.410 . S
C772 C773 1.392 . S
C772 C775 1.511 . S
C773 C769 1.376 . S
C773 C772 1.392 . S
C773 H785 0.929 . S
C774 C770 1.531 . S
C774 H786 0.960 . S
C774 H787 0.962 . S
C774 H788 0.960 . S
C775 C772 1.511 . S
C775 H789 0.961 . S
C775 H790 0.961 . S
C775 H791 0.961 . S
C776 C777 1.370 . S
C776 C778 1.363 . S
C776 H792 0.931 . S
C777 C776 1.370 . S
C777 C781 1.408 . S
C778 C776 1.363 . S
C778 C779 1.370 . S
C778 C782 1.524 . S
C779 C771 1.503 . S
C779 C778 1.370 . S
C779 C780 1.403 . S
C780 C779 1.403 . S
C780 C781 1.404 . S
C780 C783 1.539 . S
C781 C777 1.408 . S
C781 C780 1.404 . S
C781 H793 0.930 . S
C782 C778 1.524 . S
C782 H794 0.956 . S
C782 H795 0.961 . S
C782 H796 0.961 . S
C783 C780 1.539 . S
C783 H797 0.958 . S
C783 H798 0.961 . S
C783 H799 0.960 . S
H784 C768 0.931 . S
H785 C773 0.929 . S
H786 C774 0.960 . S
H787 C774 0.962 . S
H788 C774 0.960 . S
H789 C775 0.961 . S
H790 C775 0.961 . S
H791 C775 0.961 . S
H792 C776 0.931 . S
H793 C781 0.930 . S
H794 C782 0.956 . S
H795 C782 0.961 . S
H796 C782 0.961 . S
H797 C783 0.958 . S
H798 C783 0.961 . S
H799 C783 0.960 . S
C800 C801 1.391 . S
C800 C802 1.394 . S
C800 H816 0.931 . S
C801 C800 1.391 . S
C801 C805 1.376 . S
C802 C800 1.394 . S
C802 C803 1.369 . S
C802 C806 1.531 . S
C803 C802 1.369 . S
C803 C804 1.410 . S
C803 C811 1.503 . S
C804 C803 1.410 . S
C804 C805 1.392 . S
C804 C807 1.511 . S
C805 C801 1.376 . S
C805 C804 1.392 . S
C805 H817 0.929 . S
C806 C802 1.531 . S
C806 H818 0.960 . S
C806 H819 0.962 . S
C806 H820 0.960 . S
C807 C804 1.511 . S
C807 H821 0.961 . S
C807 H822 0.961 . S
C807 H823 0.961 . S
C808 C809 1.370 . S
C808 C810 1.363 . S
C808 H824 0.931 . S
C809 C808 1.370 . S
C809 C813 1.408 . S
C810 C808 1.363 . S
C810 C811 1.370 . S
C810 C814 1.524 . S
C811 C803 1.503 . S
C811 C810 1.370 . S
C811 C812 1.403 . S
C812 C811 1.403 . S
C812 C813 1.404 . S
C812 C815 1.539 . S
C813 C809 1.408 . S
C813 C812 1.404 . S
C813 H825 0.930 . S
C814 C810 1.524 . S
C814 H826 0.956 . S
C814 H827 0.961 . S
C814 H828 0.961 . S
C815 C812 1.539 . S
C815 H829 0.958 . S
C815 H830 0.961 . S
C815 H831 0.960 . S
H816 C800 0.931 . S
H817 C805 0.929 . S
H818 C806 0.960 . S
H819 C806 0.962 . S
H820 C806 0.960 . S
H821 C807 0.961 . S
H822 C807 0.961 . S
H823 C807 0.961 . S
H824 C808 0.931 . S
H825 C813 0.930 . S
H826 C814 0.956 . S
H827 C814 0.961 . S
H828 C814 0.961 . S
H829 C815 0.958 . S
H830 C815 0.961 . S
H831 C815 0.960 . S
C832 C833 1.391 . S
C832 C834 1.394 . S
C832 H848 0.931 . S
C833 C832 1.391 . S
C833 C837 1.376 . S
C834 C832 1.394 . S
C834 C835 1.369 . S
C834 C838 1.531 . S
C835 C834 1.369 . S
C835 C836 1.410 . S
C835 C843 1.503 . S
C836 C835 1.410 . S
C836 C837 1.392 . S
C836 C839 1.511 . S
C837 C833 1.376 . S
C837 C836 1.392 . S
C837 H849 0.929 . S
C838 C834 1.531 . S
C838 H850 0.960 . S
C838 H851 0.962 . S
C838 H852 0.960 . S
C839 C836 1.511 . S
C839 H853 0.961 . S
C839 H854 0.961 . S
C839 H855 0.961 . S
C840 C841 1.370 . S
C840 C842 1.363 . S
C840 H856 0.931 . S
C841 C840 1.370 . S
C841 C845 1.408 . S
C842 C840 1.363 . S
C842 C843 1.370 . S
C842 C846 1.524 . S
C843 C835 1.503 . S
C843 C842 1.370 . S
C843 C844 1.403 . S
C844 C843 1.403 . S
C844 C845 1.404 . S
C844 C847 1.539 . S
C845 C841 1.408 . S
C845 C844 1.404 . S
C845 H857 0.930 . S
C846 C842 1.524 . S
C846 H858 0.956 . S
C846 H859 0.961 . S
C846 H860 0.961 . S
C847 C844 1.539 . S
C847 H861 0.958 . S
C847 H862 0.961 . S
C847 H863 0.960 . S
H848 C832 0.931 . S
H849 C837 0.929 . S
H850 C838 0.960 . S
H851 C838 0.962 . S
H852 C838 0.960 . S
H853 C839 0.961 . S
H854 C839 0.961 . S
H855 C839 0.961 . S
H856 C840 0.931 . S
H857 C845 0.930 . S
H858 C846 0.956 . S
H859 C846 0.961 . S
H860 C846 0.961 . S
H861 C847 0.958 . S
H862 C847 0.961 . S
H863 C847 0.960 . S
C864 C865 1.391 . S
C864 C866 1.394 . S
C864 H880 0.931 . S
C865 C864 1.391 . S
C865 C869 1.376 . S
C866 C864 1.394 . S
C866 C867 1.369 . S
C866 C870 1.531 . S
C867 C866 1.369 . S
C867 C868 1.410 . S
C867 C875 1.503 1_556 S
C868 C867 1.410 . S
C868 C869 1.392 . S
C868 C871 1.511 1_556 S
C869 C865 1.376 . S
C869 C868 1.392 . S
C869 H881 0.929 . S
C870 C866 1.531 . S
C870 H882 0.960 . S
C870 H883 0.962 . S
C870 H884 0.960 . S
C871 C868 1.511 1_554 S
C871 H885 0.961 . S
C871 H886 0.961 . S
C871 H887 0.961 . S
C872 C873 1.370 . S
C872 C874 1.363 . S
C872 H888 0.931 . S
C873 C872 1.370 . S
C873 C877 1.408 . S
C874 C872 1.363 . S
C874 C875 1.370 . S
C874 C878 1.524 . S
C875 C867 1.503 1_554 S
C875 C874 1.370 . S
C875 C876 1.403 . S
C876 C875 1.403 . S
C876 C877 1.404 . S
C876 C879 1.539 1_554 S
C877 C873 1.408 . S
C877 C876 1.404 . S
C877 H889 0.930 . S
C878 C874 1.524 . S
C878 H890 0.956 . S
C878 H891 0.961 . S
C878 H892 0.961 . S
C879 C876 1.539 1_556 S
C879 H893 0.958 . S
C879 H894 0.961 . S
C879 H895 0.960 . S
H880 C864 0.931 . S
H881 C869 0.929 . S
H882 C870 0.960 . S
H883 C870 0.962 . S
H884 C870 0.960 . S
H885 C871 0.961 . S
H886 C871 0.961 . S
H887 C871 0.961 . S
H888 C872 0.931 . S
H889 C877 0.930 . S
H890 C878 0.956 . S
H891 C878 0.961 . S
H892 C878 0.961 . S
H893 C879 0.958 . S
H894 C879 0.961 . S
H895 C879 0.960 . S
C896 C897 1.391 . S
C896 C898 1.394 . S
C896 H912 0.931 . S
C897 C896 1.391 . S
C897 C901 1.376 . S
C898 C896 1.394 . S
C898 C899 1.369 . S
C898 C902 1.531 . S
C899 C898 1.369 . S
C899 C900 1.410 . S
C899 C907 1.503 . S
C900 C899 1.410 . S
C900 C901 1.392 . S
C900 C903 1.511 . S
C901 C897 1.376 . S
C901 C900 1.392 . S
C901 H913 0.929 . S
C902 C898 1.531 . S
C902 H914 0.960 . S
C902 H915 0.962 . S
C902 H916 0.960 . S
C903 C900 1.511 . S
C903 H917 0.961 . S
C903 H918 0.961 . S
C903 H919 0.961 . S
C904 C905 1.370 . S
C904 C906 1.363 . S
C904 H920 0.931 . S
C905 C904 1.370 . S
C905 C909 1.408 . S
C906 C904 1.363 . S
C906 C907 1.370 . S
C906 C910 1.524 . S
C907 C899 1.503 . S
C907 C906 1.370 . S
C907 C908 1.403 . S
C908 C907 1.403 . S
C908 C909 1.404 . S
C908 C911 1.539 . S
C909 C905 1.408 . S
C909 C908 1.404 . S
C909 H921 0.930 . S
C910 C906 1.524 . S
C910 H922 0.956 . S
C910 H923 0.961 . S
C910 H924 0.961 . S
C911 C908 1.539 . S
C911 H925 0.958 . S
C911 H926 0.961 . S
C911 H927 0.960 . S
H912 C896 0.931 . S
H913 C901 0.929 . S
H914 C902 0.960 . S
H915 C902 0.962 . S
H916 C902 0.960 . S
H917 C903 0.961 . S
H918 C903 0.961 . S
H919 C903 0.961 . S
H920 C904 0.931 . S
H921 C909 0.930 . S
H922 C910 0.956 . S
H923 C910 0.961 . S
H924 C910 0.961 . S
H925 C911 0.958 . S
H926 C911 0.961 . S
H927 C911 0.960 . S
C928 C929 1.391 . S
C928 C930 1.394 . S
C928 H944 0.931 . S
C929 C928 1.391 . S
C929 C933 1.376 . S
C930 C928 1.394 . S
C930 C931 1.369 . S
C930 C934 1.531 . S
C931 C930 1.369 . S
C931 C932 1.410 . S
C931 C939 1.503 . S
C932 C931 1.410 . S
C932 C933 1.392 . S
C932 C935 1.511 . S
C933 C929 1.376 . S
C933 C932 1.392 . S
C933 H945 0.929 . S
C934 C930 1.531 . S
C934 H946 0.960 . S
C934 H947 0.962 . S
C934 H948 0.960 . S
C935 C932 1.511 . S
C935 H949 0.961 . S
C935 H950 0.961 . S
C935 H951 0.961 . S
C936 C937 1.370 . S
C936 C938 1.363 . S
C936 H952 0.931 . S
C937 C936 1.370 . S
C937 C941 1.408 . S
C938 C936 1.363 . S
C938 C939 1.370 . S
C938 C942 1.524 . S
C939 C931 1.503 . S
C939 C938 1.370 . S
C939 C940 1.403 . S
C940 C939 1.403 . S
C940 C941 1.404 . S
C940 C943 1.539 . S
C941 C937 1.408 . S
C941 C940 1.404 . S
C941 H953 0.930 . S
C942 C938 1.524 . S
C942 H954 0.956 . S
C942 H955 0.961 . S
C942 H956 0.961 . S
C943 C940 1.539 . S
C943 H957 0.958 . S
C943 H958 0.961 . S
C943 H959 0.960 . S
H944 C928 0.931 . S
H945 C933 0.929 . S
H946 C934 0.960 . S
H947 C934 0.962 . S
H948 C934 0.960 . S
H949 C935 0.961 . S
H950 C935 0.961 . S
H951 C935 0.961 . S
H952 C936 0.931 . S
H953 C941 0.930 . S
H954 C942 0.956 . S
H955 C942 0.961 . S
H956 C942 0.961 . S
H957 C943 0.958 . S
H958 C943 0.961 . S
H959 C943 0.960 . S
C960 C961 1.391 . S
C960 C962 1.394 . S
C960 H976 0.931 . S
C961 C960 1.391 . S
C961 C965 1.376 . S
C962 C960 1.394 . S
C962 C963 1.369 . S
C962 C966 1.531 . S
C963 C962 1.369 . S
C963 C964 1.410 . S
C963 C971 1.503 . S
C964 C963 1.410 . S
C964 C965 1.392 . S
C964 C967 1.511 . S
C965 C961 1.376 . S
C965 C964 1.392 . S
C965 H977 0.929 . S
C966 C962 1.531 . S
C966 H978 0.960 . S
C966 H979 0.962 . S
C966 H980 0.960 . S
C967 C964 1.511 . S
C967 H981 0.961 . S
C967 H982 0.961 . S
C967 H983 0.961 . S
C968 C969 1.370 . S
C968 C970 1.363 . S
C968 H984 0.931 . S
C969 C968 1.370 . S
C969 C973 1.408 . S
C970 C968 1.363 . S
C970 C971 1.370 . S
C970 C974 1.524 . S
C971 C963 1.503 . S
C971 C970 1.370 . S
C971 C972 1.403 . S
C972 C971 1.403 . S
C972 C973 1.404 . S
C972 C975 1.539 . S
C973 C969 1.408 . S
C973 C972 1.404 . S
C973 H985 0.930 . S
C974 C970 1.524 . S
C974 H986 0.956 . S
C974 H987 0.961 . S
C974 H988 0.961 . S
C975 C972 1.539 . S
C975 H989 0.958 . S
C975 H990 0.961 . S
C975 H991 0.960 . S
H976 C960 0.931 . S
H977 C965 0.929 . S
H978 C966 0.960 . S
H979 C966 0.962 . S
H980 C966 0.960 . S
H981 C967 0.961 . S
H982 C967 0.961 . S
H983 C967 0.961 . S
H984 C968 0.931 . S
H985 C973 0.930 . S
H986 C974 0.956 . S
H987 C974 0.961 . S
H988 C974 0.961 . S
H989 C975 0.958 . S
H990 C975 0.961 . S
H991 C975 0.960 . S
C992 C993 1.391 . S
C992 C994 1.394 . S
C992 H1008 0.931 . S
C993 C992 1.391 . S
C993 C997 1.376 . S
C994 C992 1.394 . S
C994 C995 1.369 . S
C994 C998 1.531 1_545 S
C995 C994 1.369 . S
C995 C996 1.410 . S
C995 C1003 1.503 1_545 S
C996 C995 1.410 . S
C996 C997 1.392 . S
C996 C999 1.511 . S
C997 C993 1.376 . S
C997 C996 1.392 . S
C997 H1009 0.929 . S
C998 C994 1.531 1_565 S
C998 H1010 0.960 . S
C998 H1011 0.962 . S
C998 H1012 0.960 . S
C999 C996 1.511 . S
C999 H1013 0.961 . S
C999 H1014 0.961 . S
C999 H1015 0.961 . S
C1000 C1001 1.370 . S
C1000 C1002 1.363 . S
C1000 H1016 0.931 . S
C1001 C1000 1.370 . S
C1001 C1005 1.408 . S
C1002 C1000 1.363 . S
C1002 C1003 1.370 . S
C1002 C1006 1.524 1_565 S
C1003 C995 1.503 1_565 S
C1003 C1002 1.370 . S
C1003 C1004 1.403 . S
C1004 C1003 1.403 . S
C1004 C1005 1.404 . S
C1004 C1007 1.539 . S
C1005 C1001 1.408 . S
C1005 C1004 1.404 . S
C1005 H1017 0.930 . S
C1006 C1002 1.524 1_545 S
C1006 H1018 0.956 . S
C1006 H1019 0.961 . S
C1006 H1020 0.961 . S
C1007 C1004 1.539 . S
C1007 H1021 0.958 . S
C1007 H1022 0.961 . S
C1007 H1023 0.960 . S
H1008 C992 0.931 . S
H1009 C997 0.929 . S
H1010 C998 0.960 . S
H1011 C998 0.962 . S
H1012 C998 0.960 . S
H1013 C999 0.961 . S
H1014 C999 0.961 . S
H1015 C999 0.961 . S
H1016 C1000 0.931 . S
H1017 C1005 0.930 . S
H1018 C1006 0.956 . S
H1019 C1006 0.961 . S
H1020 C1006 0.961 . S
H1021 C1007 0.958 . S
H1022 C1007 0.961 . S
H1023 C1007 0.960 . S
C1024 C1025 1.391 . S
C1024 C1026 1.394 . S
C1024 H1040 0.931 . S
C1025 C1024 1.391 . S
C1025 C1029 1.376 . S
C1026 C1024 1.394 . S
C1026 C1027 1.369 . S
C1026 C1030 1.531 . S
C1027 C1026 1.369 . S
C1027 C1028 1.410 . S
C1027 C1035 1.503 . S
C1028 C1027 1.410 . S
C1028 C1029 1.392 . S
C1028 C1031 1.511 . S
C1029 C1025 1.376 . S
C1029 C1028 1.392 . S
C1029 H1041 0.929 . S
C1030 C1026 1.531 . S
C1030 H1042 0.960 . S
C1030 H1043 0.962 . S
C1030 H1044 0.960 . S
C1031 C1028 1.511 . S
C1031 H1045 0.961 . S
C1031 H1046 0.961 . S
C1031 H1047 0.961 . S
C1032 C1033 1.370 . S
C1032 C1034 1.363 . S
C1032 H1048 0.931 . S
C1033 C1032 1.370 . S
C1033 C1037 1.408 . S
C1034 C1032 1.363 . S
C1034 C1035 1.370 . S
C1034 C1038 1.524 . S
C1035 C1027 1.503 . S
C1035 C1034 1.370 . S
C1035 C1036 1.403 . S
C1036 C1035 1.403 . S
C1036 C1037 1.404 . S
C1036 C1039 1.539 . S
C1037 C1033 1.408 . S
C1037 C1036 1.404 . S
C1037 H1049 0.930 . S
C1038 C1034 1.524 . S
C1038 H1050 0.956 . S
C1038 H1051 0.961 . S
C1038 H1052 0.961 . S
C1039 C1036 1.539 . S
C1039 H1053 0.958 . S
C1039 H1054 0.961 . S
C1039 H1055 0.960 . S
H1040 C1024 0.931 . S
H1041 C1029 0.929 . S
H1042 C1030 0.960 . S
H1043 C1030 0.962 . S
H1044 C1030 0.960 . S
H1045 C1031 0.961 . S
H1046 C1031 0.961 . S
H1047 C1031 0.961 . S
H1048 C1032 0.931 . S
H1049 C1037 0.930 . S
H1050 C1038 0.956 . S
H1051 C1038 0.961 . S
H1052 C1038 0.961 . S
H1053 C1039 0.958 . S
H1054 C1039 0.961 . S
H1055 C1039 0.960 . S
C1056 C1057 1.391 . S
C1056 C1058 1.394 . S
C1056 H1072 0.931 . S
C1057 C1056 1.391 . S
C1057 C1061 1.376 . S
C1058 C1056 1.394 . S
C1058 C1059 1.369 . S
C1058 C1062 1.531 . S
C1059 C1058 1.369 . S
C1059 C1060 1.410 . S
C1059 C1067 1.503 1_546 S
C1060 C1059 1.410 . S
C1060 C1061 1.392 . S
C1060 C1063 1.511 1_556 S
C1061 C1057 1.376 . S
C1061 C1060 1.392 . S
C1061 H1073 0.929 . S
C1062 C1058 1.531 . S
C1062 H1074 0.960 1_556 S
C1062 H1075 0.962 1_545 S
C1062 H1076 0.960 . S
C1063 C1060 1.511 1_554 S
C1063 H1077 0.961 1_554 S
C1063 H1078 0.961 . S
C1063 H1079 0.961 . S
C1064 C1065 1.370 . S
C1064 C1066 1.363 . S
C1064 H1080 0.931 . S
C1065 C1064 1.370 . S
C1065 C1069 1.408 . S
C1066 C1064 1.363 . S
C1066 C1067 1.370 . S
C1066 C1070 1.524 1_554 S
C1067 C1059 1.503 1_564 S
C1067 C1066 1.370 . S
C1067 C1068 1.403 1_565 S
C1068 C1067 1.403 1_545 S
C1068 C1069 1.404 1_545 S
C1068 C1071 1.539 . S
C1069 C1065 1.408 . S
C1069 C1068 1.404 1_565 S
C1069 H1081 0.930 . S
C1070 C1066 1.524 1_556 S
C1070 H1082 0.956 . S
C1070 H1083 0.961 . S
C1070 H1084 0.961 . S
C1071 C1068 1.539 . S
C1071 H1085 0.958 . S
C1071 H1086 0.961 . S
C1071 H1087 0.960 . S
H1072 C1056 0.931 . S
H1073 C1061 0.929 . S
H1074 C1062 0.960 1_554 S
H1075 C1062 0.962 1_565 S
H1076 C1062 0.960 . S
H1077 C1063 0.961 1_556 S
H1078 C1063 0.961 . S
H1079 C1063 0.961 . S
H1080 C1064 0.931 . S
H1081 C1069 0.930 . S
H1082 C1070 0.956 . S
H1083 C1070 0.961 . S
H1084 C1070 0.961 . S
H1085 C1071 0.958 . S
H1086 C1071 0.961 . S
H1087 C1071 0.960 . S
C1088 C1089 1.391 . S
C1088 C1090 1.394 . S
C1088 H1104 0.931 . S
C1089 C1088 1.391 . S
C1089 C1093 1.376 . S
C1090 C1088 1.394 . S
C1090 C1091 1.369 . S
C1090 C1094 1.531 . S
C1091 C1090 1.369 . S
C1091 C1092 1.410 . S
C1091 C1099 1.503 . S
C1092 C1091 1.410 . S
C1092 C1093 1.392 . S
C1092 C1095 1.511 . S
C1093 C1089 1.376 . S
C1093 C1092 1.392 . S
C1093 H1105 0.929 . S
C1094 C1090 1.531 . S
C1094 H1106 0.960 . S
C1094 H1107 0.962 . S
C1094 H1108 0.960 . S
C1095 C1092 1.511 . S
C1095 H1109 0.961 . S
C1095 H1110 0.961 . S
C1095 H1111 0.961 . S
C1096 C1097 1.370 . S
C1096 C1098 1.363 . S
C1096 H1112 0.931 . S
C1097 C1096 1.370 . S
C1097 C1101 1.408 . S
C1098 C1096 1.363 . S
C1098 C1099 1.370 . S
C1098 C1102 1.524 . S
C1099 C1091 1.503 . S
C1099 C1098 1.370 . S
C1099 C1100 1.403 . S
C1100 C1099 1.403 . S
C1100 C1101 1.404 . S
C1100 C1103 1.539 . S
C1101 C1097 1.408 . S
C1101 C1100 1.404 . S
C1101 H1113 0.930 . S
C1102 C1098 1.524 . S
C1102 H1114 0.956 . S
C1102 H1115 0.961 . S
C1102 H1116 0.961 . S
C1103 C1100 1.539 . S
C1103 H1117 0.958 . S
C1103 H1118 0.961 . S
C1103 H1119 0.960 . S
H1104 C1088 0.931 . S
H1105 C1093 0.929 . S
H1106 C1094 0.960 . S
H1107 C1094 0.962 . S
H1108 C1094 0.960 . S
H1109 C1095 0.961 . S
H1110 C1095 0.961 . S
H1111 C1095 0.961 . S
H1112 C1096 0.931 . S
H1113 C1101 0.930 . S
H1114 C1102 0.956 . S
H1115 C1102 0.961 . S
H1116 C1102 0.961 . S
H1117 C1103 0.958 . S
H1118 C1103 0.961 . S
H1119 C1103 0.960 . S
C1120 C1121 1.391 . S
C1120 C1122 1.394 . S
C1120 H1136 0.931 . S
C1121 C1120 1.391 . S
C1121 C1125 1.376 . S
C1122 C1120 1.394 . S
C1122 C1123 1.369 . S
C1122 C1126 1.531 . S
C1123 C1122 1.369 . S
C1123 C1124 1.410 . S
C1123 C1131 1.503 1_545 S
C1124 C1123 1.410 . S
C1124 C1125 1.392 . S
C1124 C1127 1.511 1_545 S
C1125 C1121 1.376 . S
C1125 C1124 1.392 . S
C1125 H1137 0.929 . S
C1126 C1122 1.531 . S
C1126 H1138 0.960 . S
C1126 H1139 0.962 . S
C1126 H1140 0.960 . S
C1127 C1124 1.511 1_565 S
C1127 H1141 0.961 . S
C1127 H1142 0.961 . S
C1127 H1143 0.961 1_565 S
C1128 C1129 1.370 . S
C1128 C1130 1.363 . S
C1128 H1144 0.931 . S
C1129 C1128 1.370 . S
C1129 C1133 1.408 . S
C1130 C1128 1.363 . S
C1130 C1131 1.370 . S
C1130 C1134 1.524 . S
C1131 C1123 1.503 1_565 S
C1131 C1130 1.370 . S
C1131 C1132 1.403 1_565 S
C1132 C1131 1.403 1_545 S
C1132 C1133 1.404 1_545 S
C1132 C1135 1.539 . S
C1133 C1129 1.408 . S
C1133 C1132 1.404 1_565 S
C1133 H1145 0.930 . S
C1134 C1130 1.524 . S
C1134 H1146 0.956 . S
C1134 H1147 0.961 . S
C1134 H1148 0.961 . S
C1135 C1132 1.539 . S
C1135 H1149 0.958 . S
C1135 H1150 0.961 . S
C1135 H1151 0.960 . S
H1136 C1120 0.931 . S
H1137 C1125 0.929 . S
H1138 C1126 0.960 . S
H1139 C1126 0.962 . S
H1140 C1126 0.960 . S
H1141 C1127 0.961 . S
H1142 C1127 0.961 . S
H1143 C1127 0.961 1_545 S
H1144 C1128 0.931 . S
H1145 C1133 0.930 . S
H1146 C1134 0.956 . S
H1147 C1134 0.961 . S
H1148 C1134 0.961 . S
H1149 C1135 0.958 . S
H1150 C1135 0.961 . S
H1151 C1135 0.960 . S
C1152 C1153 1.391 . S
C1152 C1154 1.394 . S
C1152 H1168 0.931 . S
C1153 C1152 1.391 . S
C1153 C1157 1.376 . S
C1154 C1152 1.394 . S
C1154 C1155 1.369 . S
C1154 C1158 1.531 . S
C1155 C1154 1.369 . S
C1155 C1156 1.410 . S
C1155 C1163 1.503 . S
C1156 C1155 1.410 . S
C1156 C1157 1.392 . S
C1156 C1159 1.511 . S
C1157 C1153 1.376 . S
C1157 C1156 1.392 . S
C1157 H1169 0.929 . S
C1158 C1154 1.531 . S
C1158 H1170 0.960 . S
C1158 H1171 0.962 . S
C1158 H1172 0.960 . S
C1159 C1156 1.511 . S
C1159 H1173 0.961 . S
C1159 H1174 0.961 . S
C1159 H1175 0.961 . S
C1160 C1161 1.370 . S
C1160 C1162 1.363 . S
C1160 H1176 0.931 . S
C1161 C1160 1.370 . S
C1161 C1165 1.408 . S
C1162 C1160 1.363 . S
C1162 C1163 1.370 . S
C1162 C1166 1.524 . S
C1163 C1155 1.503 . S
C1163 C1162 1.370 . S
C1163 C1164 1.403 . S
C1164 C1163 1.403 . S
C1164 C1165 1.404 . S
C1164 C1167 1.539 . S
C1165 C1161 1.408 . S
C1165 C1164 1.404 . S
C1165 H1177 0.930 . S
C1166 C1162 1.524 . S
C1166 H1178 0.956 . S
C1166 H1179 0.961 . S
C1166 H1180 0.961 . S
C1167 C1164 1.539 . S
C1167 H1181 0.958 . S
C1167 H1182 0.961 . S
C1167 H1183 0.960 . S
H1168 C1152 0.931 . S
H1169 C1157 0.929 . S
H1170 C1158 0.960 . S
H1171 C1158 0.962 . S
H1172 C1158 0.960 . S
H1173 C1159 0.961 . S
H1174 C1159 0.961 . S
H1175 C1159 0.961 . S
H1176 C1160 0.931 . S
H1177 C1165 0.930 . S
H1178 C1166 0.956 . S
H1179 C1166 0.961 . S
H1180 C1166 0.961 . S
H1181 C1167 0.958 . S
H1182 C1167 0.961 . S
H1183 C1167 0.960 . S
C1184 C1185 1.391 . S
C1184 C1186 1.394 . S
C1184 H1200 0.931 . S
C1185 C1184 1.391 . S
C1185 C1189 1.376 . S
C1186 C1184 1.394 . S
C1186 C1187 1.369 . S
C1186 C1190 1.531 1_554 S
C1187 C1186 1.369 . S
C1187 C1188 1.410 . S
C1187 C1195 1.503 1_564 S
C1188 C1187 1.410 . S
C1188 C1189 1.392 . S
C1188 C1191 1.511 1_565 S
C1189 C1185 1.376 . S
C1189 C1188 1.392 . S
C1189 H1201 0.929 . S
C1190 C1186 1.531 1_556 S
C1190 H1202 0.960 . S
C1190 H1203 0.962 . S
C1190 H1204 0.960 . S
C1191 C1188 1.511 1_545 S
C1191 H1205 0.961 . S
C1191 H1206 0.961 . S
C1191 H1207 0.961 . S
C1192 C1193 1.370 . S
C1192 C1194 1.363 . S
C1192 H1208 0.931 . S
C1193 C1192 1.370 . S
C1193 C1197 1.408 . S
C1194 C1192 1.363 . S
C1194 C1195 1.370 . S
C1194 C1198 1.524 1_556 S
C1195 C1187 1.503 1_546 S
C1195 C1194 1.370 . S
C1195 C1196 1.407 . S
C1196 C1195 1.407 . S
C1196 C1197 1.419 . S
C1196 C1199 1.521 1_545 S
C1197 C1193 1.408 . S
C1197 C1196 1.419 . S
C1197 H1209 0.930 . S
C1198 C1194 1.524 1_554 S
C1198 H1210 0.956 . S
C1198 H1211 0.961 . S
C1198 H1212 0.961 . S
C1199 C1196 1.521 1_565 S
C1199 H1213 0.958 . S
C1199 H1214 0.961 . S
C1199 H1215 0.960 . S
H1200 C1184 0.931 . S
H1201 C1189 0.929 . S
H1202 C1190 0.960 . S
H1203 C1190 0.962 . S
H1204 C1190 0.960 . S
H1205 C1191 0.961 . S
H1206 C1191 0.961 . S
H1207 C1191 0.961 . S
H1208 C1192 0.931 . S
H1209 C1197 0.930 . S
H1210 C1198 0.956 . S
H1211 C1198 0.961 . S
H1212 C1198 0.961 . S
H1213 C1199 0.958 . S
H1214 C1199 0.961 . S
H1215 C1199 0.960 . S
C1216 C1217 1.391 . S
C1216 C1218 1.394 . S
C1216 H1232 0.931 . S
C1217 C1216 1.391 . S
C1217 C1221 1.376 . S
C1218 C1216 1.394 . S
C1218 C1219 1.369 . S
C1218 C1222 1.531 . S
C1219 C1218 1.369 . S
C1219 C1220 1.410 . S
C1219 C1227 1.503 . S
C1220 C1219 1.410 . S
C1220 C1221 1.392 . S
C1220 C1223 1.511 . S
C1221 C1217 1.376 . S
C1221 C1220 1.392 . S
C1221 H1233 0.929 . S
C1222 C1218 1.531 . S
C1222 H1234 0.960 . S
C1222 H1235 0.962 . S
C1222 H1236 0.960 . S
C1223 C1220 1.511 . S
C1223 H1237 0.961 . S
C1223 H1238 0.961 . S
C1223 H1239 0.961 . S
C1224 C1225 1.370 . S
C1224 C1226 1.363 . S
C1224 H1240 0.931 . S
C1225 C1224 1.370 . S
C1225 C1229 1.408 . S
C1226 C1224 1.363 . S
C1226 C1227 1.370 . S
C1226 C1230 1.524 . S
C1227 C1219 1.503 . S
C1227 C1226 1.370 . S
C1227 C1228 1.403 . S
C1228 C1227 1.403 . S
C1228 C1229 1.404 . S
C1228 C1231 1.539 . S
C1229 C1225 1.408 . S
C1229 C1228 1.404 . S
C1229 H1241 0.930 . S
C1230 C1226 1.524 . S
C1230 H1242 0.956 . S
C1230 H1243 0.961 . S
C1230 H1244 0.961 . S
C1231 C1228 1.539 . S
C1231 H1245 0.958 . S
C1231 H1246 0.961 . S
C1231 H1247 0.960 . S
H1232 C1216 0.931 . S
H1233 C1221 0.929 . S
H1234 C1222 0.960 . S
H1235 C1222 0.962 . S
H1236 C1222 0.960 . S
H1237 C1223 0.961 . S
H1238 C1223 0.961 . S
H1239 C1223 0.961 . S
H1240 C1224 0.931 . S
H1241 C1229 0.930 . S
H1242 C1230 0.956 . S
H1243 C1230 0.961 . S
H1244 C1230 0.961 . S
H1245 C1231 0.958 . S
H1246 C1231 0.961 . S
H1247 C1231 0.960 . S
C225 C162 1.269 . S
C233 C13 1.308 . S
C257 C223 1.350 . S
C265 C22 1.380 . S
C289 C41 1.177 . S
C297 C139 1.195 . S
C321 C195 1.225 . S
C329 C55 1.212 . S
C353 C69 1.456 . S
C361 C190 1.417 . S
C385 C78 1.379 . S
C393 C167 1.405 . S
C417 C92 1.446 . S
C425 C218 1.461 . S
C449 C111 1.347 . S
C457 C134 1.364 . S
C481 C50 1.292 . S
C489 C125 1.263 . S
C513 C148 1.358 . S
C521 C27 1.399 . S
C545 C181 1.215 . S
C553 C83 1.239 . S
C577 C204 1.480 . S
C585 C106 1.485 . S
C609 C64 1.385 . S
C617 C120 1.413 . S
C641 C153 1.217 . S
C649 C97 1.234 . S
C673 C209 1.437 . S
C681 C36 1.450 . S
C705 C8 1.408 . S
C713 C176 1.398 . S
C737 C7 1.201 . S
C745 C63 1.182 . S
C769 C25 1.052 . S
C777 C81 1.060 . S
C801 C35 1.223 . S
C809 C95 1.238 . S
C833 C105 1.254 . S
C841 C49 1.256 . S
C865 C119 1.196 . S
C873 C175 1.177 . S
C897 C189 1.169 . S
C905 C137 1.186 . S
C929 C151 1.124 . S
C937 C207 1.115 . S
C961 C217 1.280 . S
C969 C161 1.278 . S
C993 C109 1.196 . S
C1001 C21 1.185 . S
C1025 C39 1.139 . S
C1033 C67 1.152 . S
C1057 C53 1.221 . S
C1065 C77 1.213 . S
C1089 C11 1.105 . S
C1097 C91 1.101 . S
C1121 C133 1.164 . S
C1129 C221 1.199 . S
C1153 C179 1.281 . S
C1161 C147 1.270 . S
C1185 C165 1.100 . S
C1193 C193 1.088 . S
C1217 C203 1.097 . S
C1225 C123 1.122 . S
