# Generated by pormake.
# Topology uky, (4)-cn, num edge types: 1
# Building blocks:
#     Node 0, Type 0, BuildingBlock: GALJAG_clean_sbu_0, # of connection points: 4
#     Node 1, Type 0, BuildingBlock: GALJAG_clean_sbu_0, # of connection points: 4
#     Node 2, Type 0, BuildingBlock: GALJAG_clean_sbu_0, # of connection points: 4
#     Node 3, Type 0, BuildingBlock: GALJAG_clean_sbu_0, # of connection points: 4
#     Node 4, Type 0, BuildingBlock: GALJAG_clean_sbu_0, # of connection points: 4
#     Node 5, Type 0, BuildingBlock: GALJAG_clean_sbu_0, # of connection points: 4
#     Node 6, Type 0, BuildingBlock: GALJAG_clean_sbu_0, # of connection points: 4
#     Node 7, Type 0, BuildingBlock: GALJAG_clean_sbu_0, # of connection points: 4
#     Node 8, Type 0, BuildingBlock: GALJAG_clean_sbu_0, # of connection points: 4
#     Node 9, Type 0, BuildingBlock: GALJAG_clean_sbu_0, # of connection points: 4
#     Node 10, Type 0, BuildingBlock: GALJAG_clean_sbu_0, # of connection points: 4
#     Node 11, Type 0, BuildingBlock: GALJAG_clean_sbu_0, # of connection points: 4
#     Node 12, Type 0, BuildingBlock: GALJAG_clean_sbu_0, # of connection points: 4
#     Node 13, Type 0, BuildingBlock: GALJAG_clean_sbu_0, # of connection points: 4
#     Node 14, Type 0, BuildingBlock: GALJAG_clean_sbu_0, # of connection points: 4
#     Node 15, Type 0, BuildingBlock: GALJAG_clean_sbu_0, # of connection points: 4
#     Node 16, Type 0, BuildingBlock: GALJAG_clean_sbu_0, # of connection points: 4
#     Node 17, Type 0, BuildingBlock: GALJAG_clean_sbu_0, # of connection points: 4
#     Node 18, Type 0, BuildingBlock: GALJAG_clean_sbu_0, # of connection points: 4
#     Node 19, Type 0, BuildingBlock: GALJAG_clean_sbu_0, # of connection points: 4
#     Node 20, Type 0, BuildingBlock: GALJAG_clean_sbu_0, # of connection points: 4
#     Node 21, Type 0, BuildingBlock: GALJAG_clean_sbu_0, # of connection points: 4
#     Node 22, Type 0, BuildingBlock: GALJAG_clean_sbu_0, # of connection points: 4
#     Node 23, Type 0, BuildingBlock: GALJAG_clean_sbu_0, # of connection points: 4
#     Node 24, Type 0, BuildingBlock: GALJAG_clean_sbu_0, # of connection points: 4
#     Node 25, Type 0, BuildingBlock: GALJAG_clean_sbu_0, # of connection points: 4
#     Node 26, Type 0, BuildingBlock: GALJAG_clean_sbu_0, # of connection points: 4
#     Node 27, Type 0, BuildingBlock: GALJAG_clean_sbu_0, # of connection points: 4
#     Node 28, Type 0, BuildingBlock: GALJAG_clean_sbu_0, # of connection points: 4
#     Node 29, Type 0, BuildingBlock: GALJAG_clean_sbu_0, # of connection points: 4
#     Node 30, Type 0, BuildingBlock: GALJAG_clean_sbu_0, # of connection points: 4
#     Node 31, Type 0, BuildingBlock: GALJAG_clean_sbu_0, # of connection points: 4
#     Node 32, Type 0, BuildingBlock: GALJAG_clean_sbu_0, # of connection points: 4
#     Node 33, Type 0, BuildingBlock: GALJAG_clean_sbu_0, # of connection points: 4
#     Node 34, Type 0, BuildingBlock: GALJAG_clean_sbu_0, # of connection points: 4
#     Node 35, Type 0, BuildingBlock: GALJAG_clean_sbu_0, # of connection points: 4
#     Node 36, Type 0, BuildingBlock: GALJAG_clean_sbu_0, # of connection points: 4
#     Node 37, Type 0, BuildingBlock: GALJAG_clean_sbu_0, # of connection points: 4
#     Node 38, Type 0, BuildingBlock: GALJAG_clean_sbu_0, # of connection points: 4
#     Node 39, Type 0, BuildingBlock: GALJAG_clean_sbu_0, # of connection points: 4
#     Node 40, Type 0, BuildingBlock: GALJAG_clean_sbu_0, # of connection points: 4
#     Node 41, Type 0, BuildingBlock: GALJAG_clean_sbu_0, # of connection points: 4
#     Node 42, Type 0, BuildingBlock: GALJAG_clean_sbu_0, # of connection points: 4
#     Node 43, Type 0, BuildingBlock: GALJAG_clean_sbu_0, # of connection points: 4
#     Node 44, Type 0, BuildingBlock: GALJAG_clean_sbu_0, # of connection points: 4
#     Node 45, Type 0, BuildingBlock: GALJAG_clean_sbu_0, # of connection points: 4
#     Node 46, Type 0, BuildingBlock: GALJAG_clean_sbu_0, # of connection points: 4
#     Node 47, Type 0, BuildingBlock: GALJAG_clean_sbu_0, # of connection points: 4
#     Edge 48, Type (0, 0), BuildingBlock: XUDNAN_clean_linker_2, # of connection points: 2
#     Edge 49, Type (0, 0), BuildingBlock: XUDNAN_clean_linker_2, # of connection points: 2
#     Edge 50, Type (0, 0), BuildingBlock: XUDNAN_clean_linker_2, # of connection points: 2
#     Edge 51, Type (0, 0), BuildingBlock: XUDNAN_clean_linker_2, # of connection points: 2
#     Edge 52, Type (0, 0), BuildingBlock: XUDNAN_clean_linker_2, # of connection points: 2
#     Edge 53, Type (0, 0), BuildingBlock: XUDNAN_clean_linker_2, # of connection points: 2
#     Edge 54, Type (0, 0), BuildingBlock: XUDNAN_clean_linker_2, # of connection points: 2
#     Edge 55, Type (0, 0), BuildingBlock: XUDNAN_clean_linker_2, # of connection points: 2
#     Edge 56, Type (0, 0), BuildingBlock: XUDNAN_clean_linker_2, # of connection points: 2
#     Edge 57, Type (0, 0), BuildingBlock: XUDNAN_clean_linker_2, # of connection points: 2
#     Edge 58, Type (0, 0), BuildingBlock: XUDNAN_clean_linker_2, # of connection points: 2
#     Edge 59, Type (0, 0), BuildingBlock: XUDNAN_clean_linker_2, # of connection points: 2
#     Edge 60, Type (0, 0), BuildingBlock: XUDNAN_clean_linker_2, # of connection points: 2
#     Edge 61, Type (0, 0), BuildingBlock: XUDNAN_clean_linker_2, # of connection points: 2
#     Edge 62, Type (0, 0), BuildingBlock: XUDNAN_clean_linker_2, # of connection points: 2
#     Edge 63, Type (0, 0), BuildingBlock: XUDNAN_clean_linker_2, # of connection points: 2
#     Edge 64, Type (0, 0), BuildingBlock: XUDNAN_clean_linker_2, # of connection points: 2
#     Edge 65, Type (0, 0), BuildingBlock: XUDNAN_clean_linker_2, # of connection points: 2
#     Edge 66, Type (0, 0), BuildingBlock: XUDNAN_clean_linker_2, # of connection points: 2
#     Edge 67, Type (0, 0), BuildingBlock: XUDNAN_clean_linker_2, # of connection points: 2
#     Edge 68, Type (0, 0), BuildingBlock: XUDNAN_clean_linker_2, # of connection points: 2
#     Edge 69, Type (0, 0), BuildingBlock: XUDNAN_clean_linker_2, # of connection points: 2
#     Edge 70, Type (0, 0), BuildingBlock: XUDNAN_clean_linker_2, # of connection points: 2
#     Edge 71, Type (0, 0), BuildingBlock: XUDNAN_clean_linker_2, # of connection points: 2
#     Edge 72, Type (0, 0), BuildingBlock: XUDNAN_clean_linker_2, # of connection points: 2
#     Edge 73, Type (0, 0), BuildingBlock: XUDNAN_clean_linker_2, # of connection points: 2
#     Edge 74, Type (0, 0), BuildingBlock: XUDNAN_clean_linker_2, # of connection points: 2
#     Edge 75, Type (0, 0), BuildingBlock: XUDNAN_clean_linker_2, # of connection points: 2
#     Edge 76, Type (0, 0), BuildingBlock: XUDNAN_clean_linker_2, # of connection points: 2
#     Edge 77, Type (0, 0), BuildingBlock: XUDNAN_clean_linker_2, # of connection points: 2
#     Edge 78, Type (0, 0), BuildingBlock: XUDNAN_clean_linker_2, # of connection points: 2
#     Edge 79, Type (0, 0), BuildingBlock: XUDNAN_clean_linker_2, # of connection points: 2
#     Edge 80, Type (0, 0), BuildingBlock: XUDNAN_clean_linker_2, # of connection points: 2
#     Edge 81, Type (0, 0), BuildingBlock: XUDNAN_clean_linker_2, # of connection points: 2
#     Edge 82, Type (0, 0), BuildingBlock: XUDNAN_clean_linker_2, # of connection points: 2
#     Edge 83, Type (0, 0), BuildingBlock: XUDNAN_clean_linker_2, # of connection points: 2
#     Edge 84, Type (0, 0), BuildingBlock: XUDNAN_clean_linker_2, # of connection points: 2
#     Edge 85, Type (0, 0), BuildingBlock: XUDNAN_clean_linker_2, # of connection points: 2
#     Edge 86, Type (0, 0), BuildingBlock: XUDNAN_clean_linker_2, # of connection points: 2
#     Edge 87, Type (0, 0), BuildingBlock: XUDNAN_clean_linker_2, # of connection points: 2
#     Edge 88, Type (0, 0), BuildingBlock: XUDNAN_clean_linker_2, # of connection points: 2
#     Edge 89, Type (0, 0), BuildingBlock: XUDNAN_clean_linker_2, # of connection points: 2
#     Edge 90, Type (0, 0), BuildingBlock: XUDNAN_clean_linker_2, # of connection points: 2
#     Edge 91, Type (0, 0), BuildingBlock: XUDNAN_clean_linker_2, # of connection points: 2
#     Edge 92, Type (0, 0), BuildingBlock: XUDNAN_clean_linker_2, # of connection points: 2
#     Edge 93, Type (0, 0), BuildingBlock: XUDNAN_clean_linker_2, # of connection points: 2
#     Edge 94, Type (0, 0), BuildingBlock: XUDNAN_clean_linker_2, # of connection points: 2
#     Edge 95, Type (0, 0), BuildingBlock: XUDNAN_clean_linker_2, # of connection points: 2
#     Edge 96, Type (0, 0), BuildingBlock: XUDNAN_clean_linker_2, # of connection points: 2
#     Edge 97, Type (0, 0), BuildingBlock: XUDNAN_clean_linker_2, # of connection points: 2
#     Edge 98, Type (0, 0), BuildingBlock: XUDNAN_clean_linker_2, # of connection points: 2
#     Edge 99, Type (0, 0), BuildingBlock: XUDNAN_clean_linker_2, # of connection points: 2
#     Edge 100, Type (0, 0), BuildingBlock: XUDNAN_clean_linker_2, # of connection points: 2
#     Edge 101, Type (0, 0), BuildingBlock: XUDNAN_clean_linker_2, # of connection points: 2
#     Edge 102, Type (0, 0), BuildingBlock: XUDNAN_clean_linker_2, # of connection points: 2
#     Edge 103, Type (0, 0), BuildingBlock: XUDNAN_clean_linker_2, # of connection points: 2
#     Edge 104, Type (0, 0), BuildingBlock: XUDNAN_clean_linker_2, # of connection points: 2
#     Edge 105, Type (0, 0), BuildingBlock: XUDNAN_clean_linker_2, # of connection points: 2
#     Edge 106, Type (0, 0), BuildingBlock: XUDNAN_clean_linker_2, # of connection points: 2
#     Edge 107, Type (0, 0), BuildingBlock: XUDNAN_clean_linker_2, # of connection points: 2
#     Edge 108, Type (0, 0), BuildingBlock: XUDNAN_clean_linker_2, # of connection points: 2
#     Edge 109, Type (0, 0), BuildingBlock: XUDNAN_clean_linker_2, # of connection points: 2
#     Edge 110, Type (0, 0), BuildingBlock: XUDNAN_clean_linker_2, # of connection points: 2
#     Edge 111, Type (0, 0), BuildingBlock: XUDNAN_clean_linker_2, # of connection points: 2
#     Edge 112, Type (0, 0), BuildingBlock: XUDNAN_clean_linker_2, # of connection points: 2
#     Edge 113, Type (0, 0), BuildingBlock: XUDNAN_clean_linker_2, # of connection points: 2
#     Edge 114, Type (0, 0), BuildingBlock: XUDNAN_clean_linker_2, # of connection points: 2
#     Edge 115, Type (0, 0), BuildingBlock: XUDNAN_clean_linker_2, # of connection points: 2
#     Edge 116, Type (0, 0), BuildingBlock: XUDNAN_clean_linker_2, # of connection points: 2
#     Edge 117, Type (0, 0), BuildingBlock: XUDNAN_clean_linker_2, # of connection points: 2
#     Edge 118, Type (0, 0), BuildingBlock: XUDNAN_clean_linker_2, # of connection points: 2
#     Edge 119, Type (0, 0), BuildingBlock: XUDNAN_clean_linker_2, # of connection points: 2
#     Edge 120, Type (0, 0), BuildingBlock: XUDNAN_clean_linker_2, # of connection points: 2
#     Edge 121, Type (0, 0), BuildingBlock: XUDNAN_clean_linker_2, # of connection points: 2
#     Edge 122, Type (0, 0), BuildingBlock: XUDNAN_clean_linker_2, # of connection points: 2
#     Edge 123, Type (0, 0), BuildingBlock: XUDNAN_clean_linker_2, # of connection points: 2
#     Edge 124, Type (0, 0), BuildingBlock: XUDNAN_clean_linker_2, # of connection points: 2
#     Edge 125, Type (0, 0), BuildingBlock: XUDNAN_clean_linker_2, # of connection points: 2
#     Edge 126, Type (0, 0), BuildingBlock: XUDNAN_clean_linker_2, # of connection points: 2
#     Edge 127, Type (0, 0), BuildingBlock: XUDNAN_clean_linker_2, # of connection points: 2
#     Edge 128, Type (0, 0), BuildingBlock: XUDNAN_clean_linker_2, # of connection points: 2
#     Edge 129, Type (0, 0), BuildingBlock: XUDNAN_clean_linker_2, # of connection points: 2
#     Edge 130, Type (0, 0), BuildingBlock: XUDNAN_clean_linker_2, # of connection points: 2
#     Edge 131, Type (0, 0), BuildingBlock: XUDNAN_clean_linker_2, # of connection points: 2
#     Edge 132, Type (0, 0), BuildingBlock: XUDNAN_clean_linker_2, # of connection points: 2
#     Edge 133, Type (0, 0), BuildingBlock: XUDNAN_clean_linker_2, # of connection points: 2
#     Edge 134, Type (0, 0), BuildingBlock: XUDNAN_clean_linker_2, # of connection points: 2
#     Edge 135, Type (0, 0), BuildingBlock: XUDNAN_clean_linker_2, # of connection points: 2
#     Edge 136, Type (0, 0), BuildingBlock: XUDNAN_clean_linker_2, # of connection points: 2
#     Edge 137, Type (0, 0), BuildingBlock: XUDNAN_clean_linker_2, # of connection points: 2
#     Edge 138, Type (0, 0), BuildingBlock: XUDNAN_clean_linker_2, # of connection points: 2
#     Edge 139, Type (0, 0), BuildingBlock: XUDNAN_clean_linker_2, # of connection points: 2
#     Edge 140, Type (0, 0), BuildingBlock: XUDNAN_clean_linker_2, # of connection points: 2
#     Edge 141, Type (0, 0), BuildingBlock: XUDNAN_clean_linker_2, # of connection points: 2
#     Edge 142, Type (0, 0), BuildingBlock: XUDNAN_clean_linker_2, # of connection points: 2
#     Edge 143, Type (0, 0), BuildingBlock: XUDNAN_clean_linker_2, # of connection points: 2
# Relax obj value: 0.129
# Max RMSD: 0.165
# Mean RMSD: 0.165
data_MOF--net-uky--node1-GALJAG_clean_sbu_0--edge1-XUDNAN_clean_linker_2
_symmetry_space_group_name_H-M    P1
_symmetry_Int_Tables_number       1
_symmetry_cell_setting            triclinic
loop_
_symmetry_equiv_pos_as_xyz
'x, y, z'
_cell_length_a     62.419255
_cell_length_b     62.330351
_cell_length_c     62.379479
_cell_angle_alpha  89.994072
_cell_angle_beta   89.972944
_cell_angle_gamma 90.031371
loop_
_atom_site_label
_atom_site_type_symbol
_atom_site_fract_x
_atom_site_fract_y
_atom_site_fract_z
_atom_type_partial_charge
In0 In 0.21777 0.21651 0.39556 0.0
O1 O 0.18985 0.20074 0.41263 0.0
O2 O 0.19432 0.19283 0.37987 0.0
C3 C 0.25429 0.20576 0.37501 0.0
C4 C 0.22841 0.22117 0.43706 0.0
C5 C 0.20305 0.25194 0.37542 0.0
O6 O 0.2409 0.19186 0.38104 0.0
O7 O 0.24943 0.22476 0.37979 0.0
O8 O 0.21327 0.25271 0.39282 0.0
O9 O 0.20007 0.23327 0.36823 0.0
C10 C 0.18335 0.19029 0.39665 0.0
O11 O 0.21744 0.23479 0.42691 0.0
O12 O 0.23432 0.20511 0.42618 0.0
In13 In 0.03238 0.99612 0.64237 0.0
O14 O 0.06222 0.97706 0.63226 0.0
O15 O 0.04179 0.9644 0.65655 0.0
C16 C 0.03479 0.03124 0.61741 0.0
C17 C 0.03958 0.01114 0.68208 0.0
C18 C 0.99669 0.97799 0.62602 0.0
O19 O 0.0464 0.01495 0.61425 0.0
O20 O 0.02246 0.02992 0.63338 0.0
O21 O 0.99647 0.98823 0.64349 0.0
O22 O 0.01475 0.97697 0.61707 0.0
C23 C 0.05845 0.96203 0.64536 0.0
O24 O 0.02194 0.00276 0.67668 0.0
O25 O 0.05335 0.01237 0.66728 0.0
In26 In 0.2624 0.78068 0.89066 0.0
O27 O 0.24617 0.76005 0.91595 0.0
O28 O 0.24085 0.79384 0.91684 0.0
C29 C 0.28395 0.74957 0.86963 0.0
C30 C 0.29415 0.80168 0.91069 0.0
C31 C 0.2348 0.79525 0.86075 0.0
O32 O 0.26844 0.74558 0.88197 0.0
O33 O 0.28868 0.76915 0.86811 0.0
O34 O 0.25043 0.80636 0.86722 0.0
O35 O 0.23305 0.77717 0.86956 0.0
C36 C 0.23744 0.77575 0.92534 0.0
O37 O 0.2863 0.80848 0.89329 0.0
O38 O 0.28617 0.78444 0.91762 0.0
In39 In 0.46141 0.03463 0.13479 0.0
O40 O 0.42536 0.0416 0.13502 0.0
O41 O 0.44716 0.06786 0.13374 0.0
C42 C 0.4558 0.99663 0.11479 0.0
C43 C 0.46969 0.03278 0.17722 0.0
C44 C 0.49403 0.05048 0.11139 0.0
O45 O 0.45002 0.01419 0.10662 0.0
O46 O 0.46366 0.99818 0.1333 0.0
O47 O 0.49598 0.034 0.12298 0.0
O48 O 0.47574 0.05903 0.1118 0.0
C49 C 0.42792 0.0617 0.1343 0.0
O50 O 0.48326 0.03946 0.16383 0.0
O51 O 0.45203 0.02718 0.16924 0.0
In52 In 0.19815 0.798 0.11775 0.0
O53 O 0.19497 0.77398 0.09036 0.0
O54 O 0.2029 0.80621 0.08254 0.0
C55 C 0.1912 0.76451 0.14406 0.0
C56 C 0.16385 0.8242 0.11707 0.0
C57 C 0.23633 0.81114 0.13345 0.0
O58 O 0.20376 0.76342 0.12822 0.0
O59 O 0.18215 0.78242 0.14654 0.0
O60 O 0.2191 0.81313 0.14381 0.0
O61 O 0.23411 0.80356 0.11489 0.0
C62 C 0.1992 0.78746 0.07588 0.0
O63 O 0.18274 0.83152 0.11692 0.0
O64 O 0.16257 0.80405 0.11792 0.0
In65 In 0.46583 0.97329 0.36602 0.0
O66 O 0.43653 0.95175 0.37091 0.0
O67 O 0.45633 0.94658 0.34355 0.0
C68 C 0.45633 0.00725 0.391 0.0
C69 C 0.47308 0.99257 0.3282 0.0
C70 C 0.49561 0.95163 0.3886 0.0
O71 O 0.44199 0.99476 0.38411 0.0
O72 O 0.47507 0.00251 0.38531 0.0
O73 O 0.50033 0.96352 0.37294 0.0
O74 O 0.47586 0.95039 0.39264 0.0
C75 C 0.43998 0.94103 0.35407 0.0
O76 O 0.48779 0.98357 0.33879 0.0
O77 O 0.45474 0.99191 0.33674 0.0
In78 In 0.27668 0.19904 0.62976 0.0
O79 O 0.29695 0.17249 0.615 0.0
O80 O 0.30856 0.18762 0.6432 0.0
C81 C 0.24295 0.18413 0.6527 0.0
C82 C 0.26261 0.208 0.58993 0.0
C83 C 0.2935 0.23511 0.64642 0.0
O84 O 0.2599 0.17348 0.65033 0.0
O85 O 0.24281 0.20176 0.64295 0.0
O86 O 0.29386 0.23124 0.62657 0.0
O87 O 0.2849 0.22072 0.65777 0.0
C88 C 0.31167 0.17382 0.62879 0.0
O89 O 0.26175 0.22125 0.60517 0.0
O90 O 0.27035 0.18993 0.5948 0.0
In91 In 0.04721 0.02773 0.88111 0.0
O92 O 0.03311 0.02392 0.8474 0.0
O93 O 0.06603 0.03176 0.85001 0.0
C94 C 0.00909 0.03909 0.89773 0.0
C95 C 0.07127 0.06185 0.89281 0.0
C96 C 0.05518 0.98755 0.89586 0.0
O97 O 0.01307 0.04036 0.8779 0.0
O98 O 0.02433 0.03207 0.90908 0.0
O99 O 0.0662 0.00354 0.90144 0.0
O100 O 0.04051 0.99177 0.88272 0.0
C101 C 0.05042 0.02801 0.83782 0.0
O102 O 0.07935 0.04514 0.88475 0.0
O103 O 0.05127 0.06114 0.89531 0.0
In104 In 0.36652 0.21843 0.21627 0.0
O105 O 0.39475 0.23053 0.2362 0.0
O106 O 0.40168 0.21641 0.20613 0.0
C107 C 0.35197 0.20777 0.25545 0.0
C108 C 0.36148 0.18598 0.18828 0.0
C109 C 0.34346 0.25213 0.20179 0.0
O110 O 0.35051 0.22641 0.24776 0.0
O111 O 0.36104 0.19425 0.2434 0.0
O112 O 0.33559 0.23372 0.2045 0.0
O113 O 0.36326 0.25336 0.20542 0.0
C114 C 0.40885 0.2252 0.22281 0.0
O115 O 0.37216 0.20263 0.18393 0.0
O116 O 0.35282 0.18598 0.20656 0.0
In117 In 0.00291 0.13538 0.45242 0.0
O118 O 0.99656 0.16986 0.46271 0.0
O119 O 0.9846 0.1601 0.43244 0.0
C120 C 0.01213 0.12066 0.49185 0.0
C121 C 0.04145 0.13876 0.43321 0.0
C122 C 0.97342 0.10526 0.44307 0.0
O123 O 0.00117 0.13742 0.48877 0.0
O124 O 0.01841 0.11134 0.47501 0.0
O125 O 0.9907 0.107 0.43269 0.0
O126 O 0.97081 0.11909 0.45758 0.0
C127 C 0.98657 0.175 0.44595 0.0
O128 O 0.02516 0.13213 0.42323 0.0
O129 O 0.03813 0.14363 0.45251 0.0
In130 In 0.11994 0.78302 0.70132 0.0
O131 O 0.12685 0.80726 0.67445 0.0
O132 O 0.10697 0.81639 0.70081 0.0
C133 C 0.14305 0.74778 0.69242 0.0
C134 C 0.07896 0.77084 0.696 0.0
C135 C 0.14183 0.79586 0.73604 0.0
O136 O 0.14233 0.76347 0.67956 0.0
O137 O 0.13177 0.74984 0.70905 0.0
O138 O 0.1247 0.7851 0.73753 0.0
O139 O 0.14774 0.8001 0.71716 0.0
C140 C 0.11558 0.8217 0.68328 0.0
O141 O 0.08663 0.77494 0.71429 0.0
O142 O 0.09215 0.77213 0.68072 0.0
In143 In 0.47289 0.86482 0.96755 0.0
O144 O 0.44291 0.86471 0.94624 0.0
O145 O 0.44052 0.85274 0.9781 0.0
C146 C 0.49929 0.89262 0.94764 0.0
C147 C 0.48836 0.82503 0.96089 0.0
C148 C 0.46968 0.88666 0.00452 0.0
O149 O 0.4797 0.89096 0.94285 0.0
O150 O 0.50567 0.87959 0.96174 0.0
O151 O 0.47937 0.86888 0.00342 0.0
O152 O 0.46187 0.89323 0.98707 0.0
C153 C 0.43116 0.8566 0.96063 0.0
O154 O 0.48784 0.83351 0.97926 0.0
O155 O 0.48176 0.8369 0.94589 0.0
In156 In 0.38558 0.77828 0.25826 0.0
O157 O 0.38056 0.79484 0.29068 0.0
O158 O 0.39098 0.81355 0.26411 0.0
C159 C 0.36985 0.73891 0.26695 0.0
C160 C 0.42836 0.77373 0.25553 0.0
C161 C 0.35913 0.79039 0.2263 0.0
O162 O 0.36511 0.75521 0.27796 0.0
O163 O 0.38284 0.7424 0.25186 0.0
O164 O 0.37824 0.7847 0.22293 0.0
O165 O 0.35342 0.78979 0.24568 0.0
C166 C 0.38613 0.81305 0.28372 0.0
O167 O 0.41693 0.77879 0.23962 0.0
O168 O 0.41812 0.77036 0.27266 0.0
In169 In 0.47618 0.13728 0.53697 0.0
O170 O 0.47719 0.16688 0.5153 0.0
O171 O 0.4832 0.17144 0.54837 0.0
C172 C 0.46386 0.11751 0.50074 0.0
C173 C 0.44532 0.13427 0.56692 0.0
C174 C 0.51021 0.1128 0.54758 0.0
O175 O 0.48313 0.12251 0.50437 0.0
O176 O 0.45078 0.12299 0.51514 0.0
O177 O 0.49119 0.10606 0.54831 0.0
O178 O 0.51211 0.13221 0.54216 0.0
C179 C 0.48136 0.1799 0.53014 0.0
O180 O 0.46478 0.13662 0.57193 0.0
O181 O 0.4417 0.13351 0.54708 0.0
In182 In 0.1258 0.21467 0.80624 0.0
O183 O 0.09771 0.20091 0.78724 0.0
O184 O 0.09068 0.22296 0.81215 0.0
C185 C 0.147 0.19792 0.77265 0.0
C186 C 0.12756 0.19076 0.84225 0.0
C187 C 0.14421 0.25399 0.8085 0.0
O188 O 0.13478 0.21396 0.77091 0.0
O189 O 0.14859 0.1904 0.79136 0.0
O190 O 0.15256 0.23766 0.81702 0.0
O191 O 0.12644 0.25054 0.79966 0.0
C192 C 0.08357 0.21108 0.79744 0.0
O193 O 0.11831 0.20876 0.84174 0.0
O194 O 0.13658 0.18548 0.82498 0.0
In195 In 0.00512 0.85423 0.01934 0.0
O196 O 0.02633 0.8766 0.03937 0.0
O197 O 0.02403 0.84383 0.04851 0.0
C198 C 0.96973 0.87899 0.02056 0.0
C199 C 0.99227 0.81318 0.02422 0.0
C200 C 0.02674 0.86518 0.98326 0.0
O201 O 0.98524 0.8818 0.03324 0.0
O202 O 0.97207 0.86367 0.00761 0.0
O203 O 0.00661 0.86435 0.98418 0.0
O204 O 0.03603 0.85898 6e-05 0.0
C205 C 0.03228 0.86196 0.05203 0.0
O206 O 0.00561 0.8185 0.0099 0.0
O207 O 0.98552 0.82849 0.03556 0.0
In208 In 0.19357 0.37805 0.22771 0.0
O209 O 0.16278 0.37274 0.20819 0.0
O210 O 0.19206 0.37851 0.19172 0.0
C211 C 0.1838 0.3598 0.26572 0.0
C212 C 0.19118 0.42084 0.23269 0.0
C213 C 0.23018 0.35729 0.21833 0.0
O214 O 0.17689 0.35256 0.24815 0.0
O215 O 0.19494 0.37658 0.26413 0.0
O216 O 0.22973 0.37724 0.22183 0.0
O217 O 0.21231 0.34796 0.21988 0.0
C218 C 0.17223 0.37501 0.19041 0.0
O219 O 0.20881 0.41091 0.23244 0.0
O220 O 0.17478 0.40911 0.23093 0.0
In221 In 0.70665 0.12346 0.76617 0.0
O222 O 0.72734 0.09514 0.77682 0.0
O223 O 0.69873 0.08863 0.75943 0.0
C224 C 0.74106 0.14338 0.78307 0.0
C225 C 0.67258 0.12521 0.79269 0.0
C226 C 0.70075 0.14042 0.72653 0.0
O227 O 0.74175 0.13328 0.76554 0.0
O228 O 0.72305 0.14324 0.79221 0.0
O229 O 0.69341 0.14906 0.74323 0.0
O230 O 0.71038 0.12303 0.72977 0.0
C231 C 0.71501 0.08122 0.76883 0.0
O232 O 0.67597 0.10974 0.78014 0.0
O233 O 0.68565 0.14054 0.79086 0.0
In234 In 0.13351 0.44985 0.01525 0.0
O235 O 0.16758 0.4614 0.00981 0.0
O236 O 0.15923 0.43028 0.99844 0.0
C237 C 0.12042 0.48734 0.03236 0.0
C238 C 0.13318 0.42401 0.04982 0.0
C239 C 0.10877 0.44415 0.98028 0.0
O240 O 0.1366 0.48605 0.02031 0.0
O241 O 0.11109 0.46975 0.0359 0.0
O242 O 0.11199 0.42944 0.99377 0.0
O243 O 0.11813 0.46157 0.98436 0.0
C244 C 0.17357 0.44441 0.00057 0.0
O245 O 0.14961 0.43394 0.04353 0.0
O246 O 0.1166 0.42705 0.03866 0.0
In247 In 0.80271 0.87799 0.28362 0.0
O248 O 0.78734 0.91074 0.27618 0.0
O249 O 0.82067 0.90977 0.28237 0.0
C250 C 0.76863 0.85572 0.29799 0.0
C251 C 0.82557 0.87269 0.31966 0.0
C252 C 0.81187 0.85973 0.24529 0.0
O253 O 0.78725 0.84791 0.29711 0.0
O254 O 0.76696 0.87471 0.2911 0.0
O255 O 0.82558 0.86163 0.25998 0.0
O256 O 0.7937 0.8672 0.24983 0.0
C257 C 0.80459 0.92111 0.27805 0.0
O258 O 0.83308 0.86784 0.30146 0.0
O259 O 0.80689 0.88045 0.31949 0.0
In260 In 0.85761 0.04136 0.01861 0.0
O261 O 0.82625 0.02393 0.02477 0.0
O262 O 0.82494 0.05281 0.00662 0.0
C263 C 0.87205 0.00067 0.01922 0.0
C264 C 0.86068 0.06458 0.05496 0.0
C265 C 0.88383 0.05737 0.98792 0.0
O266 O 0.86156 0.00821 0.00367 0.0
O267 O 0.87483 0.01349 0.03461 0.0
O268 O 0.88896 0.05624 0.00737 0.0
O269 O 0.8649 0.0516 0.98399 0.0
C270 C 0.81483 0.03715 0.01458 0.0
O271 O 0.8492 0.07051 0.03939 0.0
O272 O 0.87061 0.04726 0.05203 0.0
In273 In 0.288 0.61965 0.72767 0.0
O274 O 0.2655 0.59102 0.73172 0.0
O275 O 0.29865 0.58609 0.73758 0.0
C276 C 0.25218 0.6387 0.71277 0.0
C277 C 0.31577 0.62175 0.69475 0.0
C278 C 0.30283 0.6413 0.76223 0.0
O279 O 0.26395 0.62716 0.70106 0.0
O280 O 0.25815 0.64011 0.73203 0.0
O281 O 0.3111 0.64314 0.74391 0.0
O282 O 0.28757 0.62814 0.7632 0.0
C283 C 0.28009 0.57811 0.73705 0.0
O284 O 0.3139 0.60532 0.70645 0.0
O285 O 0.30401 0.63733 0.70003 0.0
In286 In 0.13582 0.52531 0.47625 0.0
O287 O 0.16382 0.50505 0.48763 0.0
O288 O 0.16604 0.53878 0.49186 0.0
C289 C 0.11321 0.49263 0.4592 0.0
C290 C 0.14651 0.54909 0.44183 0.0
C291 C 0.10869 0.53784 0.50751 0.0
O292 O 0.13107 0.48995 0.46824 0.0
O293 O 0.10685 0.51181 0.45857 0.0
O294 O 0.11165 0.54847 0.49059 0.0
O295 O 0.11997 0.52112 0.50906 0.0
C296 C 0.17499 0.52074 0.49373 0.0
O297 O 0.13712 0.55696 0.45791 0.0
O298 O 0.15021 0.52924 0.44303 0.0
In299 In 0.37099 0.45283 0.97416 0.0
O300 O 0.37898 0.42259 0.95521 0.0
O301 O 0.36989 0.45064 0.93798 0.0
C302 C 0.39119 0.44374 0.01121 0.0
C303 C 0.32882 0.44566 0.97903 0.0
C304 C 0.38837 0.49157 0.9664 0.0
O305 O 0.39817 0.43783 0.99319 0.0
O306 O 0.37362 0.45365 0.01063 0.0
O307 O 0.36943 0.48946 0.97323 0.0
O308 O 0.39826 0.47421 0.9633 0.0
C309 C 0.37532 0.43115 0.93724 0.0
O310 O 0.33643 0.46434 0.97706 0.0
O311 O 0.34249 0.43078 0.97897 0.0
In312 In 0.73613 0.70639 0.88541 0.0
O313 O 0.75017 0.71971 0.91654 0.0
O314 O 0.74948 0.68586 0.91226 0.0
C315 C 0.7199 0.74218 0.86748 0.0
C316 C 0.6994 0.68492 0.8924 0.0
C317 C 0.76856 0.69686 0.85855 0.0
O318 O 0.7279 0.74212 0.88606 0.0
O319 O 0.72019 0.7243 0.85805 0.0
O320 O 0.75247 0.68479 0.86088 0.0
O321 O 0.7685 0.71343 0.87015 0.0
C322 C 0.7539 0.70142 0.92441 0.0
O323 O 0.71261 0.67899 0.87823 0.0
O324 O 0.70468 0.70159 0.90253 0.0
In325 In 0.54515 0.45829 0.13345 0.0
O326 O 0.53062 0.46126 0.16676 0.0
O327 O 0.56445 0.45769 0.16443 0.0
C328 C 0.50673 0.45413 0.11462 0.0
C329 C 0.56244 0.41947 0.12535 0.0
C330 C 0.55717 0.49644 0.1164 0.0
O331 O 0.50856 0.45672 0.13464 0.0
O332 O 0.52416 0.45395 0.10436 0.0
O333 O 0.56265 0.47873 0.10833 0.0
O334 O 0.54664 0.49486 0.13353 0.0
C335 C 0.54831 0.45987 0.17645 0.0
O336 O 0.57404 0.43579 0.12855 0.0
O337 O 0.5426 0.42282 0.12647 0.0
In338 In 0.76762 0.31409 0.35844 0.0
O339 O 0.78099 0.34817 0.35642 0.0
O340 O 0.80295 0.32211 0.35852 0.0
C341 C 0.72981 0.31952 0.33825 0.0
C342 C 0.76237 0.31341 0.40144 0.0
C343 C 0.7823 0.28098 0.33498 0.0
O344 O 0.74544 0.33201 0.33545 0.0
O345 O 0.73304 0.30481 0.35171 0.0
O346 O 0.77371 0.27832 0.35314 0.0
O347 O 0.78355 0.30023 0.32885 0.0
C348 C 0.80028 0.34213 0.35722 0.0
O349 O 0.7689 0.29723 0.39118 0.0
O350 O 0.75806 0.32948 0.39 0.0
In351 In 0.94802 0.51927 0.62145 0.0
O352 O 0.92097 0.54298 0.61373 0.0
O353 O 0.9476 0.55345 0.63245 0.0
C354 C 0.936 0.484 0.59956 0.0
C355 C 0.94441 0.51054 0.66355 0.0
C356 C 0.98307 0.53061 0.59912 0.0
O357 O 0.92438 0.50056 0.60046 0.0
O358 O 0.95319 0.48515 0.61009 0.0
O359 O 0.98419 0.51886 0.61559 0.0
O360 O 0.96441 0.53628 0.59389 0.0
C361 C 0.92984 0.55809 0.624 0.0
O362 O 0.96232 0.51383 0.65472 0.0
O363 O 0.92864 0.51044 0.65093 0.0
In364 In 0.73845 0.28277 0.59735 0.0
O365 O 0.74546 0.27381 0.56229 0.0
O366 O 0.7499 0.30616 0.57214 0.0
C367 C 0.72608 0.24556 0.61545 0.0
C368 C 0.70034 0.30253 0.59816 0.0
C369 C 0.77262 0.29215 0.62185 0.0
O370 O 0.73626 0.24592 0.59791 0.0
O371 O 0.72234 0.26372 0.62345 0.0
O372 O 0.75649 0.30425 0.6205 0.0
O373 O 0.7718 0.27553 0.61032 0.0
C374 C 0.75036 0.29278 0.55701 0.0
O375 O 0.7154 0.30784 0.61058 0.0
O376 O 0.70465 0.28746 0.58534 0.0
In377 In 0.96115 0.47944 0.85559 0.0
O378 O 0.9389 0.45027 0.85219 0.0
O379 O 0.96647 0.45319 0.83198 0.0
C380 C 0.94632 0.50457 0.88715 0.0
C381 C 0.95339 0.50114 0.81944 0.0
C382 C 0.99634 0.46496 0.87538 0.0
O383 O 0.93793 0.48651 0.88307 0.0
O384 O 0.96147 0.50997 0.87488 0.0
O385 O 0.997 0.48131 0.86334 0.0
O386 O 0.97816 0.45638 0.87738 0.0
C387 C 0.95013 0.44242 0.83713 0.0
O388 O 0.97229 0.49722 0.82572 0.0
O389 O 0.93872 0.49534 0.83217 0.0
In390 In 0.79354 0.71509 0.12027 0.0
O391 O 0.7929 0.72551 0.08479 0.0
O392 O 0.7772 0.69668 0.0935 0.0
C393 C 0.80603 0.75461 0.13251 0.0
C394 C 0.82411 0.68506 0.12446 0.0
C395 C 0.76439 0.70931 0.15151 0.0
O396 O 0.78686 0.75024 0.12778 0.0
O397 O 0.81904 0.73933 0.12997 0.0
O398 O 0.78374 0.70388 0.15344 0.0
O399 O 0.75956 0.71741 0.1336 0.0
C400 C 0.78252 0.70927 0.07868 0.0
O401 O 0.8284 0.70464 0.12148 0.0
O402 O 0.8044 0.68068 0.12543 0.0
In403 In 0.53298 0.52612 0.36104 0.0
O404 O 0.55834 0.55281 0.3611 0.0
O405 O 0.53597 0.55095 0.33523 0.0
C406 C 0.54354 0.49927 0.39296 0.0
C407 C 0.53834 0.50069 0.32676 0.0
C408 C 0.4982 0.54427 0.37889 0.0
O409 O 0.55552 0.51485 0.38782 0.0
O410 O 0.52672 0.49744 0.38193 0.0
O411 O 0.49675 0.52833 0.36643 0.0
O412 O 0.51697 0.55114 0.38182 0.0
C413 C 0.55179 0.56048 0.34346 0.0
O414 O 0.52047 0.50925 0.33112 0.0
O415 O 0.55314 0.50454 0.34002 0.0
In416 In 0.8833 0.73291 0.70345 0.0
O417 O 0.91713 0.73948 0.71597 0.0
O418 O 0.90936 0.74939 0.68428 0.0
C419 C 0.86503 0.71486 0.73823 0.0
C420 C 0.8876 0.69822 0.67848 0.0
C421 C 0.85753 0.76693 0.69711 0.0
O422 O 0.87943 0.72901 0.73981 0.0
O423 O 0.86012 0.70982 0.71931 0.0
O424 O 0.85983 0.75244 0.68315 0.0
O425 O 0.86843 0.76432 0.71391 0.0
C426 C 0.92348 0.74788 0.69865 0.0
O427 O 0.87282 0.71175 0.67534 0.0
O428 O 0.89981 0.70229 0.69409 0.0
In429 In 0.52788 0.6293 0.97406 0.0
O430 O 0.54917 0.6211 0.94527 0.0
O431 O 0.56209 0.64011 0.97055 0.0
C432 C 0.49142 0.60799 0.9654 0.0
C433 C 0.51707 0.67039 0.96668 0.0
C434 C 0.53955 0.60867 0.01023 0.0
O435 O 0.50896 0.60349 0.95634 0.0
O436 O 0.49226 0.62339 0.97849 0.0
O437 O 0.53185 0.62743 0.01061 0.0
O438 O 0.54135 0.60064 0.99177 0.0
C439 C 0.56502 0.63148 0.95249 0.0
O440 O 0.52175 0.66373 0.98527 0.0
O441 O 0.51735 0.65623 0.95222 0.0
In442 In 0.6049 0.25496 0.2022 0.0
O443 O 0.61951 0.28013 0.18021 0.0
O444 O 0.58938 0.2668 0.17137 0.0
C445 C 0.62885 0.21911 0.19674 0.0
C446 C 0.56364 0.24865 0.21374 0.0
C447 C 0.62433 0.2779 0.23327 0.0
O448 O 0.62598 0.23248 0.18187 0.0
O449 O 0.61941 0.22364 0.21395 0.0
O450 O 0.6212 0.25797 0.23472 0.0
O451 O 0.61754 0.28632 0.21621 0.0
C452 C 0.60397 0.28024 0.16725 0.0
O453 O 0.57554 0.26235 0.22256 0.0
O454 O 0.57252 0.23799 0.19904 0.0
In455 In 0.95955 0.3729 0.44289 0.0
O456 O 0.94669 0.37418 0.4089 0.0
O457 O 0.93101 0.39315 0.43251 0.0
C458 C 0.9975 0.39213 0.43459 0.0
C459 C 0.9589 0.32948 0.44073 0.0
C460 C 0.94574 0.38428 0.48226 0.0
O461 O 0.97994 0.40203 0.43452 0.0
O462 O 0.99594 0.37232 0.43829 0.0
O463 O 0.96526 0.38426 0.47704 0.0
O464 O 0.93313 0.37783 0.46782 0.0
C465 C 0.93152 0.38683 0.4133 0.0
O466 O 0.96476 0.33934 0.45737 0.0
O467 O 0.95341 0.34144 0.42547 0.0
In468 In 0.89468 0.26105 0.77369 0.0
O469 O 0.89725 0.28904 0.79734 0.0
O470 O 0.91525 0.28998 0.76821 0.0
C471 C 0.86622 0.23359 0.7908 0.0
C472 C 0.93179 0.23951 0.77567 0.0
C473 C 0.87213 0.27514 0.73983 0.0
O474 O 0.87038 0.25136 0.79964 0.0
O475 O 0.87673 0.22981 0.77398 0.0
O476 O 0.8864 0.26089 0.73795 0.0
O477 O 0.86918 0.2819 0.75864 0.0
C478 C 0.91019 0.29927 0.78547 0.0
O479 O 0.92178 0.24216 0.75826 0.0
O480 O 0.92283 0.24735 0.79205 0.0
In481 In 0.97823 0.61476 0.04764 0.0
O482 O 0.96648 0.61828 0.08205 0.0
O483 O 0.94435 0.60737 0.0584 0.0
C484 C 0.0177 0.5984 0.05541 0.0
C485 C 0.97696 0.65793 0.04377 0.0
C486 C 0.96249 0.59153 0.01472 0.0
O487 O 0.0009 0.59084 0.06356 0.0
O488 O 0.01474 0.61458 0.04375 0.0
O489 O 0.97017 0.61009 0.01206 0.0
O490 O 0.96293 0.58481 0.03377 0.0
C491 C 0.94761 0.61232 0.07773 0.0
O492 O 0.97991 0.64592 0.02773 0.0
O493 O 0.97509 0.64824 0.06135 0.0
In494 In 0.62091 0.73934 0.28652 0.0
O495 O 0.59782 0.75412 0.2627 0.0
O496 O 0.58735 0.75073 0.29507 0.0
C497 C 0.6533 0.72836 0.2604 0.0
C498 C 0.60681 0.69969 0.29558 0.0
C499 C 0.64255 0.76925 0.30889 0.0
O500 O 0.63751 0.73924 0.25387 0.0
O501 O 0.65265 0.72324 0.27994 0.0
O502 O 0.63931 0.75061 0.31622 0.0
O503 O 0.63361 0.773 0.29117 0.0
C504 C 0.58283 0.75637 0.27613 0.0
O505 O 0.61216 0.71254 0.31038 0.0
O506 O 0.60853 0.70705 0.27684 0.0
In507 In 0.52376 0.37333 0.5454 0.0
O508 O 0.51214 0.34833 0.5214 0.0
O509 O 0.51056 0.34076 0.5547 0.0
C510 C 0.53653 0.3977 0.51204 0.0
C511 C 0.55888 0.36034 0.56646 0.0
C512 C 0.49415 0.39862 0.5643 0.0
O513 O 0.51914 0.38735 0.51186 0.0
O514 O 0.54753 0.39544 0.52881 0.0
O515 O 0.51323 0.40448 0.56136 0.0
O516 O 0.49024 0.37964 0.55864 0.0
C517 C 0.50752 0.33464 0.53563 0.0
O518 O 0.54494 0.37195 0.57548 0.0
O519 O 0.55496 0.35562 0.54723 0.0
In520 In 0.7071 0.88639 0.73835 0.0
O521 O 0.72974 0.91288 0.74936 0.0
O522 O 0.6961 0.9183 0.75175 0.0
C523 C 0.74277 0.86903 0.72103 0.0
C524 C 0.67943 0.89384 0.7061 0.0
C525 C 0.69367 0.85973 0.76983 0.0
O526 O 0.74133 0.87363 0.74066 0.0
O527 O 0.72644 0.87359 0.71012 0.0
O528 O 0.69758 0.8534 0.75106 0.0
O529 O 0.69554 0.87967 0.77247 0.0
C530 C 0.7148 0.92559 0.7544 0.0
O531 O 0.67758 0.87762 0.71812 0.0
O532 O 0.69476 0.90613 0.71071 0.0
In533 In 0.22073 0.61403 0.26927 0.0
O534 O 0.22888 0.57983 0.25914 0.0
O535 O 0.197 0.59074 0.25426 0.0
C536 C 0.26077 0.62958 0.27444 0.0
C537 C 0.20557 0.60857 0.30926 0.0
C538 C 0.20449 0.64299 0.24168 0.0
O539 O 0.2566 0.61438 0.26176 0.0
O540 O 0.24487 0.63651 0.2848 0.0
O541 O 0.19621 0.63928 0.25975 0.0
O542 O 0.22071 0.63174 0.23731 0.0
C543 C 0.21016 0.57546 0.25287 0.0
O544 O 0.20053 0.6245 0.29787 0.0
O545 O 0.2186 0.59573 0.30066 0.0
In546 In 0.63147 0.95754 0.52529 0.0
O547 O 0.65853 0.97334 0.50664 0.0
O548 O 0.66445 0.94246 0.5197 0.0
C549 C 0.61128 0.99445 0.53557 0.0
C550 C 0.63492 0.93845 0.56383 0.0
C551 C 0.60694 0.94073 0.49386 0.0
O552 O 0.63129 0.99334 0.53311 0.0
O553 O 0.60148 0.97697 0.53291 0.0
O554 O 0.60624 0.93405 0.51293 0.0
O555 O 0.62035 0.95548 0.49059 0.0
C556 C 0.67164 0.9582 0.50921 0.0
O557 O 0.6288 0.92839 0.54737 0.0
O558 O 0.63953 0.95791 0.56071 0.0
In559 In 0.28942 0.38168 0.77219 0.0
O560 O 0.31717 0.39749 0.78994 0.0
O561 O 0.30615 0.36741 0.80142 0.0
C562 C 0.30414 0.35768 0.73916 0.0
C563 C 0.28112 0.42367 0.7667 0.0
C564 C 0.25139 0.36377 0.78231 0.0
O565 O 0.30613 0.35235 0.75848 0.0
O566 O 0.29518 0.37554 0.73632 0.0
O567 O 0.25498 0.37224 0.76429 0.0
O568 O 0.26677 0.36473 0.79537 0.0
C569 C 0.31909 0.38276 0.80363 0.0
O570 O 0.26902 0.41152 0.7775 0.0
O571 O 0.29741 0.41464 0.75876 0.0
In572 In 0.3704 0.54501 0.5258 0.0
O573 O 0.3733 0.55317 0.56099 0.0
O574 O 0.36408 0.57837 0.54005 0.0
C575 C 0.39135 0.55623 0.4895 0.0
C576 C 0.32943 0.5348 0.51642 0.0
C577 C 0.39279 0.51249 0.54314 0.0
O578 O 0.37977 0.53974 0.49079 0.0
O579 O 0.39212 0.56728 0.5064 0.0
O580 O 0.3726 0.51289 0.54274 0.0
O581 O 0.40182 0.52858 0.53472 0.0
C582 C 0.36808 0.57257 0.55902 0.0
O583 O 0.34444 0.52133 0.51621 0.0
O584 O 0.33511 0.55373 0.52075 0.0
In585 In 0.78884 0.11418 0.22823 0.0
O586 O 0.79644 0.11961 0.19304 0.0
O587 O 0.8211 0.10668 0.21261 0.0
C588 C 0.79838 0.14995 0.25086 0.0
C589 C 0.79341 0.07495 0.24637 0.0
C590 C 0.74793 0.12211 0.2168 0.0
O591 O 0.80432 0.14718 0.23175 0.0
O592 O 0.78805 0.13448 0.25876 0.0
O593 O 0.75451 0.12426 0.23581 0.0
O594 O 0.7617 0.11495 0.20386 0.0
C595 C 0.81534 0.11258 0.19414 0.0
O596 O 0.77869 0.07907 0.23318 0.0
O597 O 0.80532 0.09065 0.25075 0.0
In598 In 0.6215 0.0457 0.96354 0.0
O599 O 0.6226 0.07799 0.94652 0.0
O600 O 0.628 0.04984 0.92795 0.0
C601 C 0.60033 0.05853 -0.00089 0.0
C602 C 0.66242 0.03858 0.97592 0.0
C603 C 0.59514 0.01459 0.94899 0.0
O604 O 0.60081 0.06954 0.9822 0.0
O605 O 0.61081 0.04131 0.9982 0.0
O606 O 0.61373 0.01072 0.95591 0.0
O607 O 0.5899 0.03412 0.94927 0.0
C608 C 0.62625 0.07002 0.92828 0.0
O609 O 0.64902 0.02371 0.9732 0.0
O610 O 0.65531 0.05714 0.97219 0.0
In611 In 0.86896 0.9427 0.48455 0.0
O612 O 0.85596 0.91179 0.47019 0.0
O613 O 0.88752 0.92092 0.46164 0.0
C614 C 0.88845 0.93766 0.523 0.0
C615 C 0.8265 0.95032 0.485 0.0
C616 C 0.88643 0.9781 0.46675 0.0
O617 O 0.89671 0.93137 0.50568 0.0
O618 O 0.87007 0.94568 0.52102 0.0
O619 O 0.88066 0.97736 0.48612 0.0
O620 O 0.88307 0.96114 0.45629 0.0
C621 C 0.87228 0.90793 0.45894 0.0
O622 O 0.83946 0.96151 0.47422 0.0
O623 O 0.83497 0.93534 0.49567 0.0
H624 H 0.26673 0.18387 0.55336 0.0
H625 H 0.24323 0.24497 0.5771 0.0
H626 H 0.23262 0.25516 0.5404 0.0
H627 H 0.28847 0.20418 0.5039 0.0
H628 H 0.28087 0.18098 0.48841 0.0
H629 H 0.28648 0.17827 0.5166 0.0
H630 H 0.24905 0.16126 0.52262 0.0
H631 H 0.24338 0.16382 0.49443 0.0
H632 H 0.22547 0.17548 0.51388 0.0
H633 H 0.22447 0.25874 0.50148 0.0
H634 H 0.21874 0.25531 0.46251 0.0
H635 H 0.24791 0.1921 0.46375 0.0
C636 C 0.25926 0.19934 0.55082 0.0
C637 C 0.25574 0.21363 0.56804 0.0
C638 C 0.24605 0.23378 0.56411 0.0
C639 C 0.23999 0.23973 0.54334 0.0
C640 C 0.24381 0.22536 0.52669 0.0
C641 C 0.25319 0.20558 0.53016 0.0
C642 C 0.25553 0.19319 0.50939 0.0
C643 C 0.27925 0.18891 0.50428 0.0
C644 C 0.24258 0.1722 0.51013 0.0
C645 C 0.24587 0.20906 0.49377 0.0
C646 C 0.23926 0.22752 0.50411 0.0
C647 C 0.22961 0.2444 0.49317 0.0
C648 C 0.22644 0.2423 0.47105 0.0
C649 C 0.23293 0.22347 0.46014 0.0
C650 C 0.2429 0.20673 0.47166 0.0
H651 H 0.01353 0.00733 0.71722 0.0
H652 H 0.07655 0.02902 0.69724 0.0
H653 H 0.08565 0.03711 0.73491 0.0
H654 H 0.006 0.04671 0.7602 0.0
H655 H 0.99263 0.02775 0.77745 0.0
H656 H 0.99061 0.02508 0.74876 0.0
H657 H 0.00489 0.98613 0.75139 0.0
H658 H 0.00709 0.98872 0.78004 0.0
H659 H 0.03019 0.98118 0.76441 0.0
H660 H 0.08873 0.04059 0.77482 0.0
H661 H 0.08517 0.04028 0.81426 0.0
H662 H 0.02007 0.01655 0.80821 0.0
C663 C 0.02913 0.01408 0.72074 0.0
C664 C 0.04432 0.01763 0.70433 0.0
C665 C 0.06464 0.02627 0.70958 0.0
C666 C 0.06996 0.0309 0.73091 0.0
C667 C 0.05474 0.02688 0.74676 0.0
C668 C 0.03469 0.0188 0.74193 0.0
C669 C 0.02156 0.01522 0.76204 0.0
C670 C 0.00152 0.02955 0.76211 0.0
C671 C 0.01559 0.9914 0.76461 0.0
C672 C 0.03747 0.02224 0.77894 0.0
C673 C 0.05649 0.02897 0.76978 0.0
C674 C 0.07385 0.03554 0.78218 0.0
C675 C 0.0717 0.03525 0.80454 0.0
C676 C 0.05234 0.02844 0.81424 0.0
C677 C 0.03501 0.02196 0.80122 0.0
H678 H 0.22762 0.80754 0.95362 0.0
H679 H 0.22344 0.73871 0.94423 0.0
H680 H 0.20942 0.73457 0.9811 0.0
H681 H 0.24777 0.80511 0.00497 0.0
H682 H 0.23374 0.82829 0.015 0.0
H683 H 0.23996 0.8263 0.98693 0.0
H684 H 0.19984 0.83111 0.97739 0.0
H685 H 0.19347 0.83334 0.00549 0.0
H686 H 0.18018 0.81351 0.98919 0.0
H687 H 0.19955 0.73762 0.02004 0.0
H688 H 0.19493 0.74755 0.05813 0.0
H689 H 0.20675 0.81426 0.04209 0.0
C690 C 0.22314 0.79166 0.9591 0.0
C691 C 0.22635 0.77345 0.94606 0.0
C692 C 0.22091 0.75287 0.95397 0.0
C693 C 0.21292 0.75038 0.97484 0.0
C694 C 0.21052 0.76863 0.98753 0.0
C695 C 0.2154 0.78889 0.97992 0.0
C696 C 0.21344 0.80564 0.99736 0.0
C697 C 0.23501 0.81699 0.00129 0.0
C698 C 0.19567 0.82185 0.99204 0.0
C699 C 0.20724 0.79159 0.01611 0.0
C700 C 0.20532 0.77034 0.01008 0.0
C701 C 0.20074 0.75424 0.0249 0.0
C702 C 0.19819 0.76002 0.04648 0.0
C703 C 0.20046 0.78166 0.053 0.0
C704 C 0.2048 0.79761 0.03754 0.0
H705 H 0.44318 0.00129 0.29765 0.0
H706 H 0.51137 0.00449 0.31062 0.0
H707 H 0.51768 0.01833 0.27397 0.0
H708 H 0.44829 0.98141 0.24542 0.0
H709 H 0.42572 0.99593 0.23475 0.0
H710 H 0.42635 0.98885 0.26269 0.0
H711 H 0.42123 0.02879 0.27308 0.0
H712 H 0.42054 0.03601 0.24511 0.0
H713 H 0.43955 0.04867 0.26281 0.0
H714 H 0.51664 0.02996 0.23534 0.0
H715 H 0.50859 0.03647 0.19706 0.0
H716 H 0.44128 0.02395 0.20924 0.0
C717 C 0.45939 0.00532 0.2929 0.0
C718 C 0.47679 0.00208 0.30693 0.0
C719 C 0.49784 0.00699 0.30006 0.0
C720 C 0.50155 0.01492 0.27934 0.0
C721 C 0.48405 0.01767 0.26576 0.0
C722 C 0.46339 0.01293 0.27223 0.0
C723 C 0.44759 0.01554 0.25405 0.0
C724 C 0.43634 0.99416 0.24893 0.0
C725 C 0.43126 0.03332 0.25907 0.0
C726 C 0.46261 0.02217 0.23623 0.0
C727 C 0.48353 0.02364 0.24335 0.0
C728 C 0.50031 0.02899 0.2296 0.0
C729 C 0.4956 0.03266 0.20792 0.0
C730 C 0.47434 0.03067 0.20026 0.0
C731 C 0.45768 0.0256 0.21468 0.0
H732 H 0.53279 0.22615 0.19213 0.0
H733 H 0.54339 0.26525 0.24871 0.0
H734 H 0.5051 0.26196 0.25817 0.0
H735 H 0.48256 0.24875 0.17851 0.0
H736 H 0.47102 0.22392 0.16921 0.0
H737 H 0.49953 0.22799 0.16772 0.0
H738 H 0.50572 0.19323 0.18968 0.0
H739 H 0.47719 0.18904 0.19119 0.0
H740 H 0.4929 0.19018 0.21541 0.0
H741 H 0.46563 0.25547 0.26083 0.0
H742 H 0.42726 0.24708 0.25594 0.0
H743 H 0.44224 0.21301 0.19712 0.0
C744 C 0.52709 0.23378 0.20665 0.0
C745 C 0.541 0.24585 0.21978 0.0
C746 C 0.53294 0.25589 0.23847 0.0
C747 C 0.51126 0.25407 0.244 0.0
C748 C 0.4979 0.24222 0.23061 0.0
C749 C 0.50546 0.23228 0.2123 0.0
C750 C 0.48752 0.22141 0.2001 0.0
C751 C 0.48501 0.23111 0.17755 0.0
C752 C 0.49105 0.19702 0.19904 0.0
C753 C 0.46867 0.22699 0.21431 0.0
C754 C 0.47504 0.23883 0.23192 0.0
C755 C 0.46044 0.24613 0.24715 0.0
C756 C 0.43871 0.2413 0.24424 0.0
C757 C 0.43184 0.22943 0.22616 0.0
C758 C 0.44706 0.22211 0.2111 0.0
H759 H 0.97519 0.30016 0.46918 0.0
H760 H 0.94326 0.30566 0.40763 0.0
H761 H 0.94509 0.26636 0.40314 0.0
H762 H 0.01175 0.25979 0.45363 0.0
H763 H 0.0111 0.24573 0.47888 0.0
H764 H 0.00586 0.27411 0.47804 0.0
H765 H 0.96936 0.26804 0.49693 0.0
H766 H 0.97451 0.23962 0.49787 0.0
H767 H 0.95036 0.24949 0.48551 0.0
H768 H 0.95212 0.22681 0.40437 0.0
H769 H 0.96399 0.18962 0.41134 0.0
H770 H 0.99141 0.20994 0.47198 0.0
C771 C 0.96833 0.29305 0.4549 0.0
C772 C 0.95902 0.3059 0.43878 0.0
C773 C 0.95045 0.29607 0.42019 0.0
C774 C 0.95137 0.27378 0.41751 0.0
C775 C 0.96089 0.26156 0.43357 0.0
C776 C 0.96919 0.27081 0.45193 0.0
C777 C 0.97943 0.25415 0.46629 0.0
C778 C 0.00346 0.25872 0.46938 0.0
C779 C 0.96771 0.25274 0.48793 0.0
C780 C 0.97584 0.23415 0.453 0.0
C781 C 0.96501 0.23874 0.43425 0.0
C782 C 0.96046 0.22297 0.41908 0.0
C783 C 0.96728 0.20192 0.42316 0.0
C784 C 0.97854 0.19693 0.44221 0.0
C785 C 0.98269 0.21326 0.45734 0.0
H786 H 0.04782 0.76221 0.72598 0.0
H787 H 0.05819 0.77077 0.65769 0.0
H788 H 0.0194 0.76703 0.65131 0.0
H789 H 0.00604 0.72189 0.72058 0.0
H790 H 0.99099 0.7316 0.74325 0.0
H791 H 0.01964 0.73498 0.74247 0.0
H792 H 0.01491 0.77592 0.74791 0.0
H793 H 0.98623 0.7727 0.74847 0.0
H794 H -0.00164 0.79088 0.72954 0.0
H795 H 0.97968 0.76408 0.65236 0.0
H796 H 0.94144 0.7581 0.66026 0.0
H797 H 0.95658 0.74975 0.72768 0.0
C798 C 0.04191 0.76315 0.70969 0.0
C799 C 0.05597 0.76682 0.69232 0.0
C800 C 0.04769 0.76789 0.67122 0.0
C801 C 0.02568 0.7659 0.66744 0.0
C802 C 0.0122 0.76262 0.68491 0.0
C803 C 0.01996 0.76091 0.70559 0.0
C804 C 0.00197 0.75683 0.7214 0.0
C805 C 0.00483 0.73503 0.73258 0.0
C806 C 0.00027 0.77518 0.7378 0.0
C807 C 0.98291 0.75664 0.70637 0.0
C808 C 0.9892 0.76024 0.68543 0.0
C809 C 0.97453 0.76112 0.66866 0.0
C810 C 0.95285 0.75781 0.67334 0.0
C811 C 0.94608 0.75344 0.69457 0.0
C812 C 0.96132 0.75304 0.7113 0.0
H813 H 0.49944 0.79504 0.99113 0.0
H814 H 0.49046 0.80387 0.92268 0.0
H815 H 0.49736 0.76534 0.91683 0.0
H816 H 0.54217 0.75499 0.9872 0.0
H817 H 0.53253 0.73991 0.0099 0.0
H818 H 0.52808 0.76844 0.00856 0.0
H819 H 0.4873 0.76219 0.0132 0.0
H820 H 0.49158 0.73364 0.01434 0.0
H821 H 0.47343 0.74473 0.9948 0.0
H822 H 0.50318 0.7258 0.91851 0.0
H823 H 0.50939 0.68777 0.92739 0.0
H824 H 0.51481 0.70435 0.99477 0.0
C825 C 0.49924 0.78892 0.97488 0.0
C826 C 0.49448 0.80244 0.95733 0.0
C827 C 0.49415 0.7938 0.93634 0.0
C828 C 0.49801 0.77194 0.93286 0.0
C829 C 0.50224 0.75897 0.95053 0.0
C830 C 0.50306 0.76711 0.97111 0.0
C831 C 0.50745 0.74954 0.98733 0.0
C832 C 0.52883 0.75346 -0.00107 0.0
C833 C 0.48883 0.74741 0.00336 0.0
C834 C 0.50873 0.73023 0.97266 0.0
C835 C 0.50568 0.73606 0.9515 0.0
C836 C 0.50573 0.72104 0.935 0.0
C837 C 0.5092 0.69947 0.94022 0.0
C838 C 0.51259 0.69312 0.96176 0.0
C839 C 0.51229 0.70874 0.97817 0.0
H840 H 0.54647 0.75603 0.30063 0.0
H841 H 0.57005 0.7709 0.23687 0.0
H842 H 0.53303 0.77805 0.22487 0.0
H843 H 0.50061 0.72803 0.28415 0.0
H844 H 0.48355 0.73779 0.30533 0.0
H845 H 0.512 0.73579 0.30955 0.0
H846 H 0.51365 0.77606 0.31974 0.0
H847 H 0.48513 0.77814 0.31581 0.0
H848 H 0.503 0.79581 0.30152 0.0
H849 H 0.49335 0.78116 0.21921 0.0
H850 H 0.45378 0.78148 0.22068 0.0
H851 H 0.45619 0.7642 0.28805 0.0
C852 C 0.54388 0.76121 0.28426 0.0
C853 C 0.5611 0.76303 0.26969 0.0
C854 C 0.55706 0.76951 0.24831 0.0
C855 C 0.53611 0.77358 0.24135 0.0
C856 C 0.51942 0.77112 0.25598 0.0
C857 C 0.52308 0.76525 0.27703 0.0
C858 C 0.50227 0.76282 0.28928 0.0
C859 C 0.49945 0.73973 0.29756 0.0
C860 C 0.50094 0.77919 0.30767 0.0
C861 C 0.48634 0.76793 0.27173 0.0
C862 C 0.49655 0.77276 0.25267 0.0
C863 C 0.48516 0.77756 0.23408 0.0
C864 C 0.46272 0.77761 0.23505 0.0
C865 C 0.45196 0.77284 0.25446 0.0
C866 C 0.46398 0.7679 0.27298 0.0
H867 H 0.50211 0.30135 0.5635 0.0
H868 H 0.49816 0.31804 0.49607 0.0
H869 H 0.48962 0.28027 0.48733 0.0
H870 H 0.52815 0.25185 0.55629 0.0
H871 H 0.51425 0.23836 0.57775 0.0
H872 H 0.51825 0.26694 0.57887 0.0
H873 H 0.47735 0.27272 0.58317 0.0
H874 H 0.47323 0.24413 0.58223 0.0
H875 H 0.45927 0.26135 0.5637 0.0
H876 H 0.48335 0.24032 0.4859 0.0
H877 H 0.47949 0.20129 0.4919 0.0
H878 H 0.48828 0.21101 0.56022 0.0
C879 C 0.49911 0.29714 0.54692 0.0
C880 C 0.50066 0.3126 0.53045 0.0
C881 C 0.49694 0.30643 0.50893 0.0
C882 C 0.49209 0.28504 0.50382 0.0
C883 C 0.49106 0.27011 0.52043 0.0
C884 C 0.49439 0.27591 0.54155 0.0
C885 C 0.49332 0.25668 0.55632 0.0
C886 C 0.51477 0.25326 0.56799 0.0
C887 C 0.47468 0.25886 0.57229 0.0
C888 C 0.48913 0.23908 0.54018 0.0
C889 C 0.48774 0.24714 0.51958 0.0
C890 C 0.48429 0.23384 0.50197 0.0
C891 C 0.48217 0.21172 0.50552 0.0
C892 C 0.48361 0.20317 0.52651 0.0
C893 C 0.48711 0.21709 0.544 0.0
H894 H 0.96104 0.24327 0.80776 0.0
H895 H 0.95106 0.21443 0.74528 0.0
H896 H 0.98831 0.20084 0.74564 0.0
H897 H 0.01224 0.2624 0.79702 0.0
H898 H 0.02265 0.25789 0.8236 0.0
H899 H 0.99448 0.26261 0.81982 0.0
H900 H 0.98567 0.22685 0.83914 0.0
H901 H 0.01386 0.22205 0.84309 0.0
H902 H 0.99759 0.20225 0.82973 0.0
H903 H 0.02731 0.19272 0.75177 0.0
H904 H 0.06548 0.19211 0.76234 0.0
H905 H 0.05004 0.22783 0.82001 0.0
C906 C 0.96654 0.23364 0.79439 0.0
C907 C 0.95319 0.22964 0.7766 0.0
C908 C 0.96107 0.21751 0.75912 0.0
C909 C 0.98214 0.20969 0.75923 0.0
C910 C 0.99506 0.21428 0.77687 0.0
C911 C 0.98756 0.22602 0.79411 0.0
C912 C 0.00516 0.2305 0.81016 0.0
C913 C 0.00884 0.25479 0.81279 0.0
C914 C 0.00027 0.21977 0.83181 0.0
C915 C 0.02386 0.21983 0.79906 0.0
C916 C 0.01766 0.21026 0.78006 0.0
C917 C 0.03232 0.20001 0.76669 0.0
C918 C 0.05394 0.19975 0.77282 0.0
C919 C 0.06064 0.20994 0.79196 0.0
C920 C 0.04534 0.21988 0.80531 0.0
H921 H 0.99444 0.68506 0.01357 0.0
H922 H 0.95579 0.68374 0.07141 0.0
H923 H 0.95356 0.72321 0.07092 0.0
H924 H 0.02536 0.73046 0.02868 0.0
H925 H 0.02715 0.74164 0.00209 0.0
H926 H 0.02408 0.71313 0.00557 0.0
H927 H 0.99024 0.71372 0.98153 0.0
H928 H 0.99323 0.74226 0.97796 0.0
H929 H 0.96843 0.73148 0.98814 0.0
H930 H 0.95645 0.76227 0.06528 0.0
H931 H 0.96588 0.79942 0.05596 0.0
H932 H 0.00416 0.77642 0.00253 0.0
C933 C 0.98526 0.69315 0.02589 0.0
C934 C 0.97515 0.68145 0.04245 0.0
C935 C 0.96364 0.69248 0.05859 0.0
C936 C 0.9622 0.71485 0.0584 0.0
C937 C 0.97254 0.72599 0.04206 0.0
C938 C 0.98396 0.71562 0.02615 0.0
C939 C 0.99479 0.73165 0.01137 0.0
C940 C 0.0193 0.72906 0.01198 0.0
C941 C 0.98615 0.72965 0.98839 0.0
C942 C 0.98783 0.75258 0.02164 0.0
C943 C 0.97477 0.74884 0.03914 0.0
C944 C 0.96659 0.76545 0.05157 0.0
C945 C 0.97205 0.78651 0.04612 0.0
C946 C 0.98575 0.79081 0.02852 0.0
C947 C 0.99359 0.7736 0.01602 0.0
H948 H 0.22392 0.44911 0.24016 0.0
H949 H 0.15543 0.44573 0.22857 0.0
H950 H 0.15325 0.48526 0.23028 0.0
H951 H 0.22177 0.49185 0.27819 0.0
H952 H 0.24628 0.5042 0.26915 0.0
H953 H 0.2425 0.47573 0.26613 0.0
H954 H 0.24985 0.47912 0.22536 0.0
H955 H 0.2535 0.50765 0.22824 0.0
H956 H 0.23403 0.49739 0.20953 0.0
H957 H 0.15841 0.52501 0.2338 0.0
H958 H 0.17021 0.56214 0.24101 0.0
H959 H 0.23524 0.5395 0.25071 0.0
C960 C 0.20847 0.4567 0.23792 0.0
C961 C 0.18984 0.44441 0.23419 0.0
C962 C 0.1699 0.45488 0.23147 0.0
C963 C 0.16851 0.47731 0.23232 0.0
C964 C 0.18721 0.48897 0.23593 0.0
C965 C 0.20679 0.47904 0.23882 0.0
C966 C 0.22431 0.49524 0.24326 0.0
C967 C 0.2343 0.49154 0.2655 0.0
C968 C 0.24143 0.49482 0.22554 0.0
C969 C 0.21148 0.51583 0.24261 0.0
C970 C 0.19015 0.51187 0.23817 0.0
C971 C 0.17509 0.52832 0.23721 0.0
C972 C 0.18194 0.54935 0.24129 0.0
C973 C 0.20363 0.55367 0.24636 0.0
C974 C 0.21859 0.53669 0.24673 0.0
H975 H 0.68642 0.04905 0.76203 0.0
H976 H 0.75265 0.06119 0.77923 0.0
H977 H 0.75948 0.02205 0.78009 0.0
H978 H 0.67978 0.00109 0.79542 0.0
H979 H 0.66276 0.9881 0.77602 0.0
H980 H 0.66302 0.01694 0.77803 0.0
H981 H 0.67231 0.01976 0.7376 0.0
H982 H 0.67208 0.99098 0.73546 0.0
H983 H 0.6955 0.00587 0.72739 0.0
H984 H 0.75963 0.9817 0.77558 0.0
H985 H 0.75269 0.9434 0.7676 0.0
H986 H 0.68592 0.95819 0.75532 0.0
C987 C 0.70232 0.04346 0.76614 0.0
C988 C 0.71906 0.05802 0.77045 0.0
C989 C 0.73963 0.05019 0.77589 0.0
C990 C 0.74363 0.02804 0.77644 0.0
C991 C 0.72679 0.01407 0.77187 0.0
C992 C 0.70649 0.0215 0.76706 0.0
C993 C 0.69125 0.00329 0.76223 0.0
C994 C 0.67314 0.0023 0.77892 0.0
C995 C 0.68227 0.00509 0.73931 0.0
C996 C 0.70628 0.98444 0.76443 0.0
C997 C 0.7267 0.99092 0.77005 0.0
C998 C 0.74362 0.9764 0.77154 0.0
C999 C 0.73956 0.95473 0.76695 0.0
C1000 C 0.71874 0.94789 0.7611 0.0
C1001 C 0.7019 0.96292 0.76016 0.0
H1002 H 0.20615 0.47369 5e-05 0.0
H1003 H 0.1916 0.40681 0.98723 0.0
H1004 H 0.22983 0.4 0.97954 0.0
H1005 H 0.24706 0.4795 0.95849 0.0
H1006 H 0.26341 0.49697 0.97469 0.0
H1007 H 0.23476 0.49668 0.97822 0.0
H1008 H 0.23983 0.48834 0.0186 0.0
H1009 H 0.26847 0.48843 0.01519 0.0
H1010 H 0.25535 0.46526 0.02649 0.0
H1011 H 0.2698 0.39995 0.97593 0.0
H1012 H 0.30866 0.40722 0.9739 0.0
H1013 H 0.29689 0.47442 0.9878 0.0
C1014 C 0.21098 0.45767 0.99538 0.0
C1015 C 0.19599 0.44075 0.99422 0.0
C1016 C 0.20287 0.42 0.98811 0.0
C1017 C 0.22452 0.41597 0.98378 0.0
C1018 C 0.23897 0.43293 0.98542 0.0
C1019 C 0.23247 0.45342 0.99082 0.0
C1020 C 0.25125 0.46876 0.99173 0.0
C1021 C 0.24898 0.48652 0.97477 0.0
C1022 C 0.25387 0.47825 0.01435 0.0
C1023 C 0.26938 0.45362 0.98631 0.0
C1024 C 0.26196 0.43302 0.98281 0.0
C1025 C 0.27579 0.41606 0.9784 0.0
C1026 C 0.29781 0.42032 0.97739 0.0
C1027 C 0.30568 0.44138 0.98061 0.0
C1028 C 0.29126 0.45821 0.98509 0.0
H1029 H 0.76883 0.03867 0.24115 0.0
H1030 H 0.82749 0.06206 0.27036 0.0
H1031 H 0.83616 0.02535 0.28225 0.0
H1032 H 0.7566 0.99883 0.28264 0.0
H1033 H 0.74626 0.97959 0.2637 0.0
H1034 H 0.74419 0.00789 0.25817 0.0
H1035 H 0.76379 0.00223 0.22198 0.0
H1036 H 0.76605 0.97396 0.22746 0.0
H1037 H 0.78973 0.98951 0.22175 0.0
H1038 H 0.83986 0.98609 0.28868 0.0
H1039 H 0.83709 0.94672 0.29166 0.0
H1040 H 0.77535 0.94856 0.25975 0.0
C1041 C 0.78337 0.03608 0.25026 0.0
C1042 C 0.7975 0.0532 0.25485 0.0
C1043 C 0.8164 0.04919 0.26673 0.0
C1044 C 0.82149 0.02839 0.27353 0.0
C1045 C 0.80741 0.01182 0.26849 0.0
C1046 C 0.78861 0.01541 0.25736 0.0
C1047 C 0.77641 0.99465 0.25389 0.0
C1048 C 0.75457 0.99528 0.26528 0.0
C1049 C 0.77385 0.98981 0.22984 0.0
C1050 C 0.79145 0.97882 0.26454 0.0
C1051 C 0.80927 0.9891 0.27276 0.0
C1052 C 0.82588 0.97787 0.28253 0.0
C1053 C 0.8242 0.95552 0.28406 0.0
C1054 C 0.80597 0.94466 0.27604 0.0
C1055 C 0.78936 0.9565 0.26622 0.0
H1056 H 0.69652 0.06635 0.97533 0.0
H1057 H 0.67806 0.00165 0.99324 0.0
H1058 H 0.71479 0.99477 0.00624 0.0
H1059 H 0.74882 0.05245 0.95582 0.0
H1060 H 0.76137 0.07663 0.9655 0.0
H1061 H 0.73341 0.07677 0.95838 0.0
H1062 H 0.7238 0.09095 0.99624 0.0
H1063 H 0.75173 0.09079 0.00349 0.0
H1064 H 0.73257 0.07629 0.01955 0.0
H1065 H 0.75321 0.99498 0.01755 0.0
H1066 H 0.79164 0.0014 0.02429 0.0
H1067 H 0.78568 0.06547 0.99768 0.0
C1068 C 0.70022 0.05078 0.98207 0.0
C1069 C 0.68447 0.03454 0.98339 0.0
C1070 C 0.68992 0.01429 0.99208 0.0
C1071 C 0.71069 0.01026 -0.00043 0.0
C1072 C 0.72585 0.0266 0.99807 0.0
C1073 C 0.72096 0.04639 0.98938 0.0
C1074 C 0.74045 0.06089 0.98892 0.0
C1075 C 0.74636 0.06704 0.96578 0.0
C1076 C 0.73692 0.08091 0.00289 0.0
C1077 C 0.75706 0.04612 -0.00131 0.0
C1078 C 0.74823 0.0265 0.00404 0.0
C1079 C 0.76033 0.01025 0.0134 0.0
C1080 C 0.78212 0.01407 0.0172 0.0
C1081 C 0.79161 0.0339 0.01146 0.0
C1082 C 0.77885 0.05014 0.00218 0.0
H1083 H 0.3092 0.45483 0.75411 0.0
H1084 H 0.24299 0.44432 0.77253 0.0
H1085 H 0.23532 0.48283 0.76668 0.0
H1086 H 0.31453 0.50623 0.78014 0.0
H1087 H 0.33165 0.51718 0.75959 0.0
H1088 H 0.33171 0.48876 0.76481 0.0
H1089 H 0.32292 0.48134 0.72488 0.0
H1090 H 0.32279 0.50974 0.71955 0.0
H1091 H 0.29969 0.49369 0.71294 0.0
H1092 H 0.23468 0.52217 0.75737 0.0
H1093 H 0.24172 0.56011 0.74798 0.0
H1094 H 0.30883 0.54509 0.73783 0.0
C1095 C 0.29308 0.46064 0.75686 0.0
C1096 C 0.27662 0.44666 0.76362 0.0
C1097 C 0.2558 0.45484 0.76733 0.0
C1098 C 0.25129 0.47663 0.76401 0.0
C1099 C 0.26788 0.49001 0.75726 0.0
C1100 C 0.28841 0.48238 0.75396 0.0
C1101 C 0.3035 0.50019 0.7473 0.0
C1102 C 0.3214 0.50327 0.76396 0.0
C1103 C 0.31276 0.49598 0.72483 0.0
C1104 C 0.28822 0.51901 0.74718 0.0
C1105 C 0.2677 0.51279 0.75278 0.0
C1106 C 0.25071 0.52728 0.75313 0.0
C1107 C 0.25484 0.54873 0.74773 0.0
C1108 C 0.27582 0.55547 0.74234 0.0
C1109 C 0.29267 0.54039 0.74211 0.0
H1110 H 0.2942 0.56103 0.51481 0.0
H1111 H 0.31385 0.49434 0.51092 0.0
H1112 H 0.27606 0.48336 0.50714 0.0
H1113 H 0.24557 0.55225 0.54501 0.0
H1114 H 0.23056 0.57244 0.53081 0.0
H1115 H 0.25915 0.57516 0.53375 0.0
H1116 H 0.26337 0.57819 0.49251 0.0
H1117 H 0.2348 0.57571 0.48947 0.0
H1118 H 0.25239 0.55748 0.47559 0.0
H1119 H 0.23643 0.47959 0.5035 0.0
H1120 H 0.19755 0.48348 0.49752 0.0
H1121 H 0.20359 0.55262 0.50347 0.0
C1122 C 0.29053 0.54413 0.51314 0.0
C1123 C 0.3069 0.52852 0.51318 0.0
C1124 C 0.30152 0.50656 0.5109 0.0
C1125 C 0.28011 0.50016 0.50885 0.0
C1126 C 0.26433 0.51592 0.50909 0.0
C1127 C 0.26924 0.53746 0.511 0.0
C1128 C 0.24925 0.55118 0.51006 0.0
C1129 C 0.24595 0.56348 0.53117 0.0
C1130 C 0.25 0.56654 0.49076 0.0
C1131 C 0.23237 0.53398 0.50713 0.0
C1132 C 0.2414 0.51375 0.50682 0.0
C1133 C 0.22914 0.49534 0.50378 0.0
C1134 C 0.20708 0.4977 0.50046 0.0
C1135 C 0.19759 0.51833 0.50011 0.0
C1136 C 0.21038 0.53664 0.50386 0.0
H1137 H 0.78294 0.7368 0.04414 0.0
H1138 H 0.77259 0.67032 0.0621 0.0
H1139 H 0.76671 0.6609 0.0242 0.0
H1140 H 0.74167 0.73806 0.00397 0.0
H1141 H 0.75629 0.75548 0.98612 0.0
H1142 H 0.76089 0.75687 0.01458 0.0
H1143 H 0.8014 0.7503 0.00828 0.0
H1144 H 0.79688 0.7487 0.97979 0.0
H1145 H 0.80988 0.72689 0.99358 0.0
H1146 H 0.76227 0.65841 0.98476 0.0
H1147 H 0.75546 0.66366 0.94621 0.0
H1148 H 0.76667 0.73203 0.95348 0.0
C1149 C 0.7795 0.72028 0.04002 0.0
C1150 C 0.7783 0.70425 0.05598 0.0
C1151 C 0.77352 0.68284 0.0501 0.0
C1152 C 0.7703 0.6773 0.02861 0.0
C1153 C 0.77168 0.6934 0.01323 0.0
C1154 C 0.77586 0.7145 0.01861 0.0
C1155 C 0.77521 0.72883 -0.00103 0.0
C1156 C 0.75746 0.74581 0.00104 0.0
C1157 C 0.79715 0.73929 0.99492 0.0
C1158 C 0.76994 0.71246 0.98179 0.0
C1159 C 0.76831 0.69209 0.99037 0.0
C1160 C 0.76347 0.67428 0.97781 0.0
C1161 C 0.75971 0.67742 0.95592 0.0
C1162 C 0.76055 0.69824 0.94688 0.0
C1163 C 0.766 0.71593 0.95996 0.0
H1164 H 0.51089 0.49514 0.29296 0.0
H1165 H 0.57532 0.48073 0.31473 0.0
H1166 H 0.58395 0.46561 0.27922 0.0
H1167 H 0.50481 0.44753 0.2573 0.0
H1168 H 0.49022 0.46273 0.23754 0.0
H1169 H 0.48828 0.46978 0.26549 0.0
H1170 H 0.50015 0.50859 0.25646 0.0
H1171 H 0.50232 0.50164 0.22856 0.0
H1172 H 0.52504 0.51289 0.24241 0.0
H1173 H 0.58697 0.45626 0.24035 0.0
H1174 H 0.58357 0.45183 0.20112 0.0
H1175 H 0.51708 0.47182 0.20474 0.0
C1176 C 0.52663 0.48828 0.29042 0.0
C1177 C 0.54241 0.489 0.3066 0.0
C1178 C 0.56295 0.48024 0.30257 0.0
C1179 C 0.56801 0.4716 0.28246 0.0
C1180 C 0.55228 0.4717 0.26663 0.0
C1181 C 0.53193 0.47959 0.27043 0.0
C1182 C 0.51846 0.4792 0.25026 0.0
C1183 C 0.49931 0.46389 0.25281 0.0
C1184 C 0.51107 0.50193 0.24406 0.0
C1185 C 0.53462 0.4705 0.2344 0.0
C1186 C 0.55399 0.46611 0.24419 0.0
C1187 C 0.57178 0.45927 0.23255 0.0
C1188 C 0.56973 0.45689 0.21029 0.0
C1189 C 0.55004 0.46135 0.19997 0.0
C1190 C 0.53225 0.46801 0.21226 0.0
H1191 H 0.76096 0.27948 0.42969 0.0
H1192 H 0.76073 0.34904 0.42635 0.0
H1193 H 0.75956 0.35098 0.4658 0.0
H1194 H 0.72353 0.27587 0.47356 0.0
H1195 H 0.73647 0.25311 0.48582 0.0
H1196 H 0.73826 0.25707 0.45727 0.0
H1197 H 0.77969 0.2561 0.45973 0.0
H1198 H 0.77801 0.25227 0.48832 0.0
H1199 H 0.79329 0.27434 0.47757 0.0
H1200 H 0.75891 0.34569 0.50514 0.0
H1201 H 0.75534 0.33356 0.54252 0.0
H1202 H 0.75409 0.26729 0.52102 0.0
C1203 C 0.76072 0.29508 0.43732 0.0
C1204 C 0.76103 0.31413 0.42503 0.0
C1205 C 0.76046 0.33427 0.43549 0.0
C1206 C 0.7599 0.33554 0.45788 0.0
C1207 C 0.7597 0.31652 0.46956 0.0
C1208 C 0.75982 0.29666 0.45972 0.0
C1209 C 0.75846 0.27875 0.47616 0.0
C1210 C 0.73796 0.26542 0.47301 0.0
C1211 C 0.77856 0.26453 0.47539 0.0
C1212 C 0.75757 0.29171 0.49672 0.0
C1213 C 0.75857 0.31344 0.49247 0.0
C1214 C 0.75806 0.32872 0.50871 0.0
C1215 C 0.75609 0.32165 0.52989 0.0
C1216 C 0.75443 0.29949 0.53467 0.0
C1217 C 0.75537 0.28433 0.51784 0.0
H1218 H 0.97581 0.5079 0.69424 0.0
H1219 H 0.90687 0.51148 0.68579 0.0
H1220 H 0.90213 0.5133 0.725 0.0
H1221 H 0.97428 0.47388 0.74072 0.0
H1222 H 0.99694 0.48658 0.75336 0.0
H1223 H 0.99479 0.48632 0.72459 0.0
H1224 H 0.99809 0.5278 0.72421 0.0
H1225 H -0.00016 0.52817 0.75304 0.0
H1226 H 0.97951 0.54369 0.73962 0.0
H1227 H 0.90472 0.51464 0.76482 0.0
H1228 H 0.91413 0.51076 0.803 0.0
H1229 H 0.98136 0.50574 0.78586 0.0
C1230 C 0.95973 0.50898 0.70067 0.0
C1231 C 0.9417 0.50957 0.68701 0.0
C1232 C 0.9209 0.51091 0.69598 0.0
C1233 C 0.91805 0.51215 0.71821 0.0
C1234 C 0.93616 0.51193 0.73123 0.0
C1235 C 0.95657 0.51006 0.72286 0.0
C1236 C 0.97322 0.50907 0.74049 0.0
C1237 C 0.98552 0.48769 0.73974 0.0
C1238 C 0.98857 0.52833 0.73926 0.0
C1239 C 0.95894 0.51045 0.76007 0.0
C1240 C 0.93765 0.51241 0.75433 0.0
C1241 C 0.92134 0.51319 0.76954 0.0
C1242 C 0.92685 0.51107 0.79119 0.0
C1243 C 0.94847 0.50805 0.79738 0.0
C1244 C 0.96474 0.50835 0.78163 0.0
H1245 H 0.7953 0.92688 0.50511 0.0
H1246 H 0.80519 0.98287 0.46491 0.0
H1247 H 0.76626 0.98998 0.46531 0.0
H1248 H 0.74492 0.91016 0.48096 0.0
H1249 H 0.73357 0.90153 0.5061 0.0
H1250 H 0.76212 0.90042 0.50203 0.0
H1251 H 0.76797 0.92364 0.536 0.0
H1252 H 0.73946 0.92479 0.5402 0.0
H1253 H 0.75474 0.94925 0.53816 0.0
H1254 H 0.72664 0.99193 0.47145 0.0
H1255 H 0.68888 0.98852 0.4828 0.0
H1256 H 0.70472 0.93086 0.51842 0.0
C1257 C 0.78926 0.94058 0.49631 0.0
C1258 C 0.80322 0.95435 0.48499 0.0
C1259 C 0.79474 0.97212 0.47368 0.0
C1260 C 0.77267 0.97626 0.47378 0.0
C1261 C 0.75934 0.96241 0.48516 0.0
C1262 C 0.76728 0.94489 0.49617 0.0
C1263 C 0.74956 0.93277 0.50751 0.0
C1264 C 0.74742 0.90987 0.49861 0.0
C1265 C 0.75315 0.93262 0.53191 0.0
C1266 C 0.73045 0.94642 0.50145 0.0
C1267 C 0.73644 0.96339 0.48849 0.0
C1268 C 0.72172 0.97862 0.48145 0.0
C1269 C 0.70034 0.97656 0.48799 0.0
C1270 C 0.69391 0.95938 0.50139 0.0
C1271 C 0.70916 0.94403 0.50799 0.0
H1272 H 0.17256 0.31785 0.2713 0.0
H1273 H 0.19144 0.37513 0.30595 0.0
H1274 H 0.19373 0.35408 0.33942 0.0
H1275 H 0.14228 0.29126 0.31617 0.0
H1276 H 0.15213 0.26515 0.30864 0.0
H1277 H 0.14795 0.2854 0.28844 0.0
H1278 H 0.18735 0.28109 0.27604 0.0
H1279 H 0.19172 0.26103 0.29627 0.0
H1280 H 0.20866 0.28444 0.29526 0.0
H1281 H 0.19901 0.32622 0.36764 0.0
H1282 H 0.20674 0.29355 0.38865 0.0
H1283 H 0.18505 0.25422 0.33552 0.0
C1284 C 0.1764 0.32609 0.2861 0.0
C1285 C 0.18157 0.34813 0.28616 0.0
C1286 C 0.18724 0.35827 0.30565 0.0
C1287 C 0.18853 0.34646 0.32473 0.0
C1288 C 0.18408 0.32456 0.324 0.0
C1289 C 0.17799 0.31448 0.30522 0.0
C1290 C 0.17649 0.29041 0.3082 0.0
C1291 C 0.15333 0.2826 0.30519 0.0
C1292 C 0.19198 0.27856 0.29305 0.0
C1293 C 0.18346 0.28846 0.33135 0.0
C1294 C 0.18744 0.30836 0.34028 0.0
C1295 C 0.19558 0.31056 0.36096 0.0
C1296 C 0.19998 0.29193 0.37274 0.0
C1297 C 0.19637 0.2714 0.36374 0.0
C1298 C 0.18768 0.26972 0.34292 0.0
H1299 H 0.99452 0.95531 0.58882 0.0
H1300 H 0.95521 0.98029 0.64045 0.0
H1301 H 0.92267 0.96757 0.62165 0.0
H1302 H 0.96209 0.97161 0.54748 0.0
H1303 H 0.9666 0.94851 0.5307 0.0
H1304 H 0.98664 0.95656 0.54973 0.0
H1305 H 0.98579 0.91864 0.5668 0.0
H1306 H 0.96565 0.91045 0.54777 0.0
H1307 H 0.9607 0.90773 0.57611 0.0
H1308 H 0.89453 0.95648 0.595 0.0
H1309 H 0.87316 0.94851 0.56262 0.0
H1310 H 0.9311 0.9303 0.52883 0.0
C1311 C 0.9791 0.95769 0.59642 0.0
C1312 C 0.97733 0.96871 0.61611 0.0
C1313 C 0.95688 0.97177 0.62541 0.0
C1314 C 0.93835 0.96454 0.61489 0.0
C1315 C 0.94064 0.95409 0.59524 0.0
C1316 C 0.96054 0.95055 0.58618 0.0
C1317 C 0.95867 0.94074 0.56408 0.0
C1318 C 0.96911 0.95522 0.54701 0.0
C1319 C 0.96827 0.91804 0.56368 0.0
C1320 C 0.93458 0.94008 0.56171 0.0
C1321 C 0.92443 0.94754 0.57996 0.0
C1322 C 0.90227 0.95021 0.58079 0.0
C1323 C 0.89027 0.94566 0.56234 0.0
C1324 C 0.90048 0.9386 0.54333 0.0
C1325 C 0.92282 0.93523 0.54328 0.0
H1326 H 0.27125 0.70807 0.86408 0.0
H1327 H 0.31974 0.75407 0.84484 0.0
H1328 H 0.33423 0.72789 0.81891 0.0
H1329 H 0.30444 0.65808 0.85571 0.0
H1330 H 0.2816 0.64365 0.84545 0.0
H1331 H 0.27796 0.66415 0.86552 0.0
H1332 H 0.25087 0.68361 0.84075 0.0
H1333 H 0.25446 0.66329 0.82066 0.0
H1334 H 0.25898 0.69107 0.81402 0.0
H1335 H 0.33951 0.6995 0.79125 0.0
H1336 H 0.33467 0.67145 0.76369 0.0
H1337 H 0.28277 0.64393 0.80091 0.0
C1338 C 0.28537 0.71234 0.85493 0.0
C1339 C 0.29449 0.73298 0.85653 0.0
C1340 C 0.3126 0.73825 0.84391 0.0
C1341 C 0.321 0.72346 0.82923 0.0
C1342 C 0.3112 0.70344 0.8275 0.0
C1343 C 0.29385 0.69781 0.84013 0.0
C1344 C 0.28452 0.67646 0.83332 0.0
C1345 C 0.28731 0.65958 0.85106 0.0
C1346 C 0.26082 0.67877 0.82679 0.0
C1347 C 0.2986 0.6715 0.81422 0.0
C1348 C 0.3142 0.68701 0.81139 0.0
C1349 C 0.3277 0.68699 0.79357 0.0
C1350 C 0.32482 0.67103 0.77798 0.0
C1351 C 0.30845 0.65548 0.78028 0.0
C1352 C 0.29567 0.6554 0.79894 0.0
H1353 H 0.59371 0.03468 0.03515 0.0
H1354 H 0.57602 0.0946 0.00453 0.0
H1355 H 0.54974 0.10153 0.03333 0.0
H1356 H 0.54288 0.01905 0.04812 0.0
H1357 H 0.54941 0.00697 0.07355 0.0
H1358 H 0.56938 0.00857 0.05285 0.0
H1359 H 0.5949 0.02875 0.0787 0.0
H1360 H 0.575 0.02709 0.0996 0.0
H1361 H 0.58577 0.0528 0.0919 0.0
H1362 H 0.52196 0.09919 0.06209 0.0
H1363 H 0.49514 0.08814 0.08906 0.0
H1364 H 0.53119 0.02989 0.1011 0.0
C1365 C 0.58475 0.04959 0.03484 0.0
C1366 C 0.58693 0.06419 0.01771 0.0
C1367 C 0.57465 0.08329 0.01759 0.0
C1368 C 0.55975 0.08735 0.03392 0.0
C1369 C 0.5575 0.07227 0.05026 0.0
C1370 C 0.56981 0.05385 0.05096 0.0
C1371 C 0.56285 0.03918 0.06899 0.0
C1372 C 0.5557 0.01715 0.06035 0.0
C1373 C 0.5807 0.03683 0.0858 0.0
C1374 C 0.54413 0.05179 0.07779 0.0
C1375 C 0.54148 0.07097 0.06697 0.0
C1376 C 0.52413 0.08445 0.07098 0.0
C1377 C 0.50895 0.07801 0.08625 0.0
C1378 C 0.51124 0.05826 0.09723 0.0
C1379 C 0.52928 0.04526 0.09322 0.0
H1380 H 0.21445 0.72745 0.14678 0.0
H1381 H 0.1607 0.7612 0.17523 0.0
H1382 H 0.15622 0.73188 0.20151 0.0
H1383 H 0.19388 0.67273 0.15443 0.0
H1384 H 0.21995 0.66211 0.16089 0.0
H1385 H 0.21758 0.6847 0.14302 0.0
H1386 H 0.2431 0.70675 0.16731 0.0
H1387 H 0.24554 0.68427 0.18523 0.0
H1388 H 0.23678 0.70989 0.19534 0.0
H1389 H 0.15912 0.70027 0.22607 0.0
H1390 H 0.16992 0.66909 0.24797 0.0
H1391 H 0.22208 0.65623 0.20377 0.0
C1392 C 0.20151 0.72848 0.15832 0.0
C1393 C 0.18782 0.74647 0.15894 0.0
C1394 C 0.17132 0.74748 0.17448 0.0
C1395 C 0.16861 0.73089 0.1894 0.0
C1396 C 0.18254 0.71347 0.18853 0.0
C1397 C 0.19869 0.71215 0.17341 0.0
C1398 C 0.21243 0.69245 0.17687 0.0
C1399 C 0.21086 0.67709 0.15766 0.0
C1400 C 0.23584 0.69873 0.18147 0.0
C1401 C 0.20171 0.6831 0.19653 0.0
C1402 C 0.18436 0.69533 0.20286 0.0
C1403 C 0.17253 0.69043 0.22116 0.0
C1404 C 0.17879 0.67272 0.23349 0.0
C1405 C 0.19676 0.66024 0.22749 0.0
C1406 C 0.20813 0.66536 0.20861 0.0
H1407 H 0.60369 0.95548 0.45286 0.0
H1408 H 0.57477 0.91122 0.49807 0.0
H1409 H 0.54526 0.90452 0.47258 0.0
H1410 H 0.55796 0.98023 0.43809 0.0
H1411 H 0.56457 0.9839 0.4102 0.0
H1412 H 0.58558 0.98174 0.42973 0.0
H1413 H 0.60221 0.94996 0.40872 0.0
H1414 H 0.58126 0.95213 0.38894 0.0
H1415 H 0.58592 0.92694 0.40234 0.0
H1416 H 0.51594 0.90798 0.44565 0.0
H1417 H 0.48968 0.92039 0.41873 0.0
H1418 H 0.538 0.96173 0.39061 0.0
C1419 C 0.59154 0.94381 0.45708 0.0
C1420 C 0.59152 0.93378 0.47736 0.0
C1421 C 0.57514 0.91895 0.48253 0.0
C1422 C 0.55835 0.91501 0.46813 0.0
C1423 C 0.55838 0.92582 0.44856 0.0
C1424 C 0.57471 0.9397 0.44289 0.0
C1425 C 0.5698 0.95117 0.42208 0.0
C1426 C 0.56945 0.9757 0.42523 0.0
C1427 C 0.58575 0.94465 0.40448 0.0
C1428 C 0.54766 0.94244 0.41751 0.0
C1429 C 0.54147 0.92758 0.43278 0.0
C1430 C 0.5208 0.91913 0.43327 0.0
C1431 C 0.50597 0.92633 0.418 0.0
C1432 C 0.51194 0.94181 0.40251 0.0
C1433 C 0.53319 0.9495 0.40197 0.0
H1434 H 0.30319 0.24282 0.68814 0.0
H1435 H 0.30052 0.2731 0.62564 0.0
H1436 H 0.30847 0.30824 0.64233 0.0
H1437 H 0.27685 0.28146 0.71594 0.0
H1438 H 0.29271 0.2798 0.74003 0.0
H1439 H 0.2904 0.25685 0.72279 0.0
H1440 H 0.33177 0.25488 0.71953 0.0
H1441 H 0.33422 0.27787 0.73689 0.0
H1442 H 0.34653 0.27815 0.71074 0.0
H1443 H 0.30993 0.3405 0.66661 0.0
H1444 H 0.30703 0.36679 0.69623 0.0
H1445 H 0.31111 0.31493 0.74237 0.0
C1446 C 0.30484 0.25677 0.67792 0.0
C1447 C 0.30125 0.25537 0.65567 0.0
C1448 C 0.30338 0.27391 0.64274 0.0
C1449 C 0.30791 0.29389 0.65207 0.0
C1450 C 0.31074 0.29486 0.67423 0.0
C1451 C 0.30967 0.27668 0.68692 0.0
C1452 C 0.31161 0.28213 0.71044 0.0
C1453 C 0.29171 0.27463 0.72302 0.0
C1454 C 0.33227 0.2727 0.71995 0.0
C1455 C 0.31278 0.3063 0.70911 0.0
C1456 C 0.31246 0.3134 0.68811 0.0
C1457 C 0.31082 0.33515 0.68309 0.0
C1458 C 0.30912 0.34995 0.69997 0.0
C1459 C 0.30917 0.34285 0.72151 0.0
C1460 C 0.3116 0.32084 0.72605 0.0
H1461 H 0.92705 0.0586 0.9926 0.0
H1462 H 0.87674 0.06317 0.9449 0.0
H1463 H 0.90408 0.06274 0.91613 0.0
H1464 H 0.96897 0.0896 0.96322 0.0
H1465 H 0.98978 0.07178 0.97235 0.0
H1466 H 0.96663 0.07661 0.98893 0.0
H1467 H 0.95955 0.03566 0.99067 0.0
H1468 H 0.98241 0.0307 0.97386 0.0
H1469 H 0.95643 0.02076 0.96609 0.0
H1470 H 0.93673 0.0576 0.89265 0.0
H1471 H 0.97171 0.04804 0.87655 0.0
H1472 H -0.00012 0.04489 0.94003 0.0
C1473 C 0.9218 0.06029 0.97614 0.0
C1474 C 0.89983 0.06123 0.97094 0.0
C1475 C 0.89354 0.06272 0.94919 0.0
C1476 C 0.90895 0.06247 0.93278 0.0
C1477 C 0.9305 0.06067 0.93844 0.0
C1478 C 0.9369 0.05973 0.95964 0.0
C1479 C 0.96067 0.05544 0.96156 0.0
C1480 C 0.97219 0.0745 0.97214 0.0
C1481 C 0.965 0.03439 0.97376 0.0
C1482 C 0.96658 0.05348 0.93816 0.0
C1483 C 0.94908 0.05692 0.92502 0.0
C1484 C 0.95058 0.05512 0.90279 0.0
C1485 C 0.97046 0.04963 0.8938 0.0
C1486 C 0.98842 0.04568 0.90708 0.0
C1487 C 0.98641 0.0478 0.92949 0.0
H1488 H 0.33807 0.23547 0.28591 0.0
H1489 H 0.34373 0.16764 0.27161 0.0
H1490 H 0.32301 0.15906 0.3044 0.0
H1491 H 0.34017 0.23035 0.34568 0.0
H1492 H 0.32094 0.25165 0.34901 0.0
H1493 H 0.33909 0.25198 0.32652 0.0
H1494 H 0.30681 0.25473 0.30051 0.0
H1495 H 0.28861 0.2543 0.32281 0.0
H1496 H 0.28596 0.23474 0.3017 0.0
H1497 H 0.29681 0.15854 0.33539 0.0
H1498 H 0.26857 0.16607 0.36226 0.0
H1499 H 0.28144 0.2342 0.35639 0.0
C1500 C 0.33543 0.21878 0.28997 0.0
C1501 C 0.34246 0.2022 0.27633 0.0
C1502 C 0.33857 0.18056 0.282 0.0
C1503 C 0.32686 0.17556 0.30058 0.0
C1504 C 0.31955 0.19239 0.31339 0.0
C1505 C 0.32398 0.21356 0.30844 0.0
C1506 C 0.31286 0.22883 0.3236 0.0
C1507 C 0.32924 0.24144 0.337 0.0
C1508 C 0.29766 0.24402 0.31142 0.0
C1509 C 0.30063 0.21302 0.33727 0.0
C1510 C 0.30485 0.19205 0.33139 0.0
C1511 C 0.29377 0.17485 0.34047 0.0
C1512 C 0.27774 0.17927 0.35566 0.0
C1513 C 0.27298 0.20069 0.36148 0.0
C1514 C 0.28497 0.21764 0.35252 0.0
H1515 H 0.04908 0.03257 0.57604 0.0
H1516 H 0.01757 0.07068 0.62494 0.0
H1517 H 0.01164 0.09964 0.59859 0.0
H1518 H 0.07393 0.07791 0.5459 0.0
H1519 H 0.06893 0.06523 0.52041 0.0
H1520 H 0.07373 0.04906 0.54388 0.0
H1521 H 0.0378 0.02919 0.5375 0.0
H1522 H 0.0328 0.0454 0.51418 0.0
H1523 H 0.01336 0.04448 0.53555 0.0
H1524 H 0.00558 0.12252 0.56631 0.0
H1525 H -0.0002 0.13779 0.53023 0.0
H1526 H 0.03447 0.08438 0.50215 0.0
C1527 C 0.04153 0.04729 0.58133 0.0
C1528 C 0.03397 0.04955 0.60253 0.0
C1529 C 0.0236 0.06875 0.60877 0.0
C1530 C 0.02021 0.08528 0.59394 0.0
C1531 C 0.02728 0.08231 0.57297 0.0
C1532 C 0.03781 0.06384 0.56667 0.0
C1533 C 0.0419 0.06376 0.54274 0.0
C1534 C 0.06606 0.06401 0.53796 0.0
C1535 C 0.0308 0.04457 0.53187 0.0
C1536 C 0.0315 0.08478 0.53651 0.0
C1537 C 0.02342 0.09537 0.55421 0.0
C1538 C 0.01209 0.11453 0.55235 0.0
C1539 C 0.00883 0.12304 0.53181 0.0
C1540 C 0.01673 0.11228 0.51345 0.0
C1541 C 0.02839 0.09304 0.51592 0.0
H1542 H 0.14285 0.77647 0.77523 0.0
H1543 H 0.17057 0.82865 0.73853 0.0
H1544 H 0.19478 0.8371 0.76874 0.0
H1545 H 0.14752 0.80115 0.82917 0.0
H1546 H 0.15485 0.77601 0.84143 0.0
H1547 H 0.13748 0.77628 0.81835 0.0
H1548 H 0.16342 0.7506 0.79846 0.0
H1549 H 0.18085 0.75029 0.82139 0.0
H1550 H 0.19118 0.75804 0.79554 0.0
H1551 H 0.21796 0.83788 0.80162 0.0
H1552 H 0.23978 0.82947 0.83365 0.0
H1553 H 0.19793 0.77572 0.84791 0.0
C1554 C 0.15362 0.79004 0.77383 0.0
C1555 C 0.15472 0.80212 0.75477 0.0
C1556 C 0.16945 0.81932 0.75314 0.0
C1557 C 0.18316 0.82428 0.77022 0.0
C1558 C 0.18201 0.81178 0.7887 0.0
C1559 C 0.16767 0.79496 0.79057 0.0
C1560 C 0.17124 0.78252 0.81109 0.0
C1561 C 0.1516 0.7841 0.82588 0.0
C1562 C 0.17702 0.75898 0.80632 0.0
C1563 C 0.19013 0.79468 0.82022 0.0
C1564 C 0.19587 0.81174 0.8073 0.0
C1565 C 0.21348 0.8247 0.81199 0.0
C1566 C 0.22576 0.81983 0.83019 0.0
C1567 C 0.2205 0.80199 0.8432 0.0
C1568 C 0.20226 0.78954 0.8383 0.0
H1569 H 0.45251 0.92651 0.00897 0.0
H1570 H 0.48205 0.8749 0.04507 0.0
H1571 H 0.47863 0.89637 0.0783 0.0
H1572 H 0.47846 0.96879 0.03578 0.0
H1573 H 0.45577 0.98664 0.03485 0.0
H1574 H 0.45906 0.96646 0.01451 0.0
H1575 H 0.42118 0.95162 0.02305 0.0
H1576 H 0.41782 0.97172 0.04353 0.0
H1577 H 0.41474 0.94372 0.0501 0.0
H1578 H 0.47361 0.9244 0.10709 0.0
H1579 H 0.46917 0.95728 0.12878 0.0
H1580 H 0.4431 0.9903 0.07339 0.0
C1581 C 0.45806 0.9196 0.0239 0.0
C1582 C 0.46746 0.89903 0.02453 0.0
C1583 C 0.47476 0.89064 0.0443 0.0
C1584 C 0.4728 0.90267 0.06323 0.0
C1585 C 0.46347 0.92297 0.06202 0.0
C1586 C 0.45629 0.93137 0.04283 0.0
C1587 C 0.44804 0.95402 0.04551 0.0
C1588 C 0.46112 0.96991 0.03186 0.0
C1589 C 0.42402 0.95533 0.04024 0.0
C1590 C 0.45204 0.95725 0.06918 0.0
C1591 C 0.46072 0.9391 0.07849 0.0
C1592 C 0.46664 0.93863 0.10002 0.0
C1593 C 0.46403 0.95736 0.1122 0.0
C1594 C 0.45571 0.97627 0.10276 0.0
C1595 C 0.44928 0.97601 0.0811 0.0
H1596 H 0.31715 0.80192 0.23024 0.0
H1597 H 0.36779 0.79329 0.18335 0.0
H1598 H 0.34244 0.80259 0.15434 0.0
H1599 H 0.27669 0.77787 0.20042 0.0
H1600 H 0.25579 0.79584 0.20908 0.0
H1601 H 0.27852 0.79103 0.2261 0.0
H1602 H 0.2861 0.83191 0.22755 0.0
H1603 H 0.26341 0.83684 0.21038 0.0
H1604 H 0.28954 0.84667 0.20293 0.0
H1605 H 0.31081 0.80914 0.13038 0.0
H1606 H 0.27518 0.81119 0.11328 0.0
H1607 H 0.24543 0.81615 0.17594 0.0
C1608 C 0.32301 0.80234 0.2139 0.0
C1609 C 0.34442 0.79697 0.20901 0.0
C1610 C 0.35143 0.79742 0.18743 0.0
C1611 C 0.33719 0.80278 0.17088 0.0
C1612 C 0.31609 0.8078 0.17624 0.0
C1613 C 0.30904 0.80766 0.19724 0.0
C1614 C 0.28523 0.812 0.19864 0.0
C1615 C 0.27337 0.79306 0.20917 0.0
C1616 C 0.28082 0.83312 0.21058 0.0
C1617 C 0.27982 0.81394 0.17509 0.0
C1618 C 0.29787 0.81175 0.16242 0.0
C1619 C 0.29662 0.81125 0.14013 0.0
C1620 C 0.27633 0.81244 0.13056 0.0
C1621 C 0.25761 0.81406 0.1433 0.0
C1622 C 0.2595 0.8154 0.16579 0.0
H1623 H 0.48545 0.03539 0.40689 0.0
H1624 H 0.41759 0.02031 0.40736 0.0
H1625 H 0.41135 0.04996 0.43309 0.0
H1626 H 0.49028 0.04534 0.46141 0.0
H1627 H 0.5094 0.06684 0.4586 0.0
H1628 H 0.50791 0.04619 0.43853 0.0
H1629 H 0.50186 0.07504 0.40918 0.0
H1630 H 0.50332 0.09583 0.42921 0.0
H1631 H 0.48018 0.09393 0.41204 0.0
H1632 H 0.41335 0.07905 0.46125 0.0
H1633 H 0.42338 0.10463 0.48984 0.0
H1634 H 0.48994 0.10029 0.47026 0.0
C1635 C 0.4692 0.03852 0.41211 0.0
C1636 C 0.45197 0.02566 0.40514 0.0
C1637 C 0.43098 0.03009 0.41249 0.0
C1638 C 0.4273 0.0469 0.42702 0.0
C1639 C 0.44477 0.05911 0.43382 0.0
C1640 C 0.46529 0.05514 0.42651 0.0
C1641 C 0.48157 0.06947 0.43729 0.0
C1642 C 0.49826 0.05616 0.44969 0.0
C1643 C 0.49236 0.08446 0.42095 0.0
C1644 C 0.46712 0.08179 0.45229 0.0
C1645 C 0.44591 0.0758 0.44992 0.0
C1646 C 0.42985 0.08408 0.46303 0.0
C1647 C 0.43569 0.09858 0.47921 0.0
C1648 C 0.45741 0.10449 0.48213 0.0
C1649 C 0.47318 0.09628 0.46821 0.0
H1650 H 0.15101 0.2153 0.73277 0.0
H1651 H 0.17068 0.16104 0.77159 0.0
H1652 H 0.19337 0.14802 0.74184 0.0
H1653 H 0.15216 0.18746 0.67966 0.0
H1654 H 0.16276 0.21091 0.66648 0.0
H1655 H 0.14527 0.21383 0.6893 0.0
H1656 H 0.17406 0.23686 0.70852 0.0
H1657 H 0.19152 0.23407 0.68581 0.0
H1658 H 0.20065 0.22614 0.71205 0.0
H1659 H 0.21732 0.1436 0.70992 0.0
H1660 H 0.24191 0.14922 0.67936 0.0
H1661 H 0.2066 0.20645 0.66161 0.0
C1662 C 0.15966 0.20038 0.73479 0.0
C1663 C 0.15904 0.18909 0.75437 0.0
C1664 C 0.17092 0.16988 0.75664 0.0
C1665 C 0.18372 0.16229 0.7398 0.0
C1666 C 0.18434 0.17405 0.7208 0.0
C1667 C 0.17258 0.19268 0.71822 0.0
C1668 C 0.17789 0.2037 0.69728 0.0
C1669 C 0.15835 0.20398 0.68229 0.0
C1670 C 0.18655 0.22653 0.70116 0.0
C1671 C 0.19513 0.18888 0.68891 0.0
C1672 C 0.19832 0.17161 0.70245 0.0
C1673 C 0.21471 0.15681 0.69898 0.0
C1674 C 0.22858 0.16012 0.68159 0.0
C1675 C 0.22606 0.1782 0.66811 0.0
C1676 C 0.20872 0.19231 0.67148 0.0
H1677 H 0.00943 0.88186 0.94678 0.0
H1678 H 0.0691 0.87633 0.98189 0.0
H1679 H 0.0853 0.90396 0.95864 0.0
H1680 H 0.03437 0.89536 0.89242 0.0
H1681 H 0.01287 0.91378 0.88666 0.0
H1682 H 0.00781 0.89011 0.90251 0.0
H1683 H 0.99226 0.91398 0.93274 0.0
H1684 H 0.99756 0.93766 0.91726 0.0
H1685 H 0.00852 0.93514 0.94387 0.0
H1686 H 0.09198 0.93758 0.93769 0.0
H1687 H 0.08964 0.97213 0.91827 0.0
H1688 H 0.02616 0.95501 0.89586 0.0
C1689 C 0.02619 0.88577 0.94894 0.0
C1690 C 0.03804 0.8769 0.96605 0.0
C1691 C 0.05979 0.88276 0.96872 0.0
C1692 C 0.06913 0.89848 0.9556 0.0
C1693 C 0.0566 0.90787 0.93965 0.0
C1694 C 0.03574 0.90136 0.93594 0.0
C1695 C 0.02487 0.91561 0.91956 0.0
C1696 C 0.01968 0.90296 0.89907 0.0
C1697 C 0.00463 0.92622 0.92893 0.0
C1698 C 0.04241 0.93189 0.91561 0.0
C1699 C 0.0607 0.92704 0.92712 0.0
C1700 C 0.07802 0.94119 0.92807 0.0
C1701 C 0.07651 0.96081 0.91711 0.0
C1702 C 0.05785 0.96604 0.90536 0.0
C1703 C 0.04084 0.95116 0.90427 0.0
H1704 H 0.23408 0.31454 0.21042 0.0
H1705 H 0.27073 0.37362 0.2135 0.0
H1706 H 0.30377 0.35341 0.20484 0.0
H1707 H 0.27168 0.28214 0.2359 0.0
H1708 H 0.26643 0.25874 0.21976 0.0
H1709 H 0.24569 0.2783 0.2239 0.0
H1710 H 0.24146 0.28248 0.18274 0.0
H1711 H 0.26237 0.26301 0.17848 0.0
H1712 H 0.26448 0.28931 0.16666 0.0
H1713 H 0.3331 0.32612 0.19899 0.0
H1714 H 0.35635 0.29401 0.19818 0.0
H1715 H 0.3 0.25323 0.19851 0.0
C1716 C 0.249 0.3233 0.209 0.0
C1717 C 0.2499 0.34562 0.21258 0.0
C1718 C 0.26974 0.35649 0.21078 0.0
C1719 C 0.28853 0.34517 0.20576 0.0
C1720 C 0.28709 0.32309 0.20244 0.0
C1721 C 0.2678 0.3123 0.204 0.0
C1722 C 0.27067 0.28838 0.20127 0.0
C1723 C 0.26318 0.27619 0.2214 0.0
C1724 C 0.25906 0.28033 0.18108 0.0
C1725 C 0.2947 0.28727 0.19858 0.0
C1726 C 0.3039 0.30745 0.199 0.0
C1727 C 0.32605 0.31027 0.19832 0.0
C1728 C 0.33912 0.29195 0.19782 0.0
C1729 C 0.32995 0.27118 0.19814 0.0
C1730 C 0.30747 0.26891 0.19792 0.0
H1731 H 0.78176 0.14332 0.76749 0.0
H1732 H 0.74184 0.17097 0.81724 0.0
H1733 H 0.77198 0.19416 0.82852 0.0
H1734 H 0.83335 0.14555 0.7978 0.0
H1735 H 0.84815 0.15222 0.77389 0.0
H1736 H 0.82455 0.13562 0.77212 0.0
H1737 H 0.80811 0.16199 0.74449 0.0
H1738 H 0.83155 0.17861 0.74618 0.0
H1739 H 0.80551 0.18995 0.75141 0.0
H1740 H 0.80481 0.2179 0.83069 0.0
H1741 H 0.83725 0.23971 0.82352 0.0
H1742 H 0.85542 0.19546 0.77303 0.0
C1743 C 0.77951 0.15388 0.7811 0.0
C1744 C 0.75955 0.15537 0.79153 0.0
C1745 C 0.75711 0.16953 0.80911 0.0
C1746 C 0.77414 0.1827 0.81567 0.0
C1747 C 0.79353 0.18123 0.80466 0.0
C1748 C 0.79632 0.16698 0.78788 0.0
C1749 C 0.81795 0.16971 0.77739 0.0
C1750 C 0.83182 0.14958 0.7805 0.0
C1751 C 0.81563 0.17542 0.75347 0.0
C1752 C 0.82654 0.18838 0.79021 0.0
C1753 C 0.81243 0.19466 0.80609 0.0
C1754 C 0.8162 0.21284 0.81862 0.0
C1755 C 0.83463 0.22513 0.81445 0.0
C1756 C 0.84885 0.21918 0.79782 0.0
C1757 C 0.84497 0.20026 0.78604 0.0
H1758 H 0.02551 0.5591 0.07258 0.0
H1759 H 0.05648 0.61245 0.04046 0.0
H1760 H 0.0896 0.59103 0.03699 0.0
H1761 H 0.07509 0.53634 0.09957 0.0
H1762 H 0.06596 0.50932 0.09479 0.0
H1763 H 0.04681 0.53046 0.09947 0.0
H1764 H 0.02792 0.52108 0.06368 0.0
H1765 H 0.04703 0.50014 0.05879 0.0
H1766 H 0.04326 0.52104 0.03917 0.0
H1767 H 0.11656 0.56199 0.03109 0.0
H1768 H 0.1348 0.52777 0.02291 0.0
H1769 H 0.08583 0.49327 0.05825 0.0
C1770 C 0.03954 0.56657 0.06559 0.0
C1771 C 0.03856 0.58744 0.05695 0.0
C1772 C 0.05701 0.5965 0.04734 0.0
C1773 C 0.0759 0.58449 0.04537 0.0
C1774 C 0.07606 0.56354 0.05323 0.0
C1775 C 0.05839 0.55472 0.06333 0.0
C1776 C 0.06147 0.53103 0.0676 0.0
C1777 C 0.06239 0.52653 0.0918 0.0
C1778 C 0.04389 0.51755 0.05664 0.0
C1779 C 0.08308 0.52761 0.05722 0.0
C1780 C 0.09152 0.54662 0.0495 0.0
C1781 C 0.11036 0.54709 0.03749 0.0
C1782 C 0.12058 0.52758 0.03287 0.0
C1783 C 0.11173 0.50794 0.04002 0.0
C1784 C 0.09309 0.50809 0.05281 0.0
H1785 H 0.65082 0.81024 0.29633 0.0
H1786 H 0.67271 0.76023 0.33937 0.0
H1787 H 0.70624 0.78033 0.34546 0.0
H1788 H 0.69666 0.81726 0.27022 0.0
H1789 H 0.69551 0.84598 0.26704 0.0
H1790 H 0.67119 0.8309 0.27011 0.0
H1791 H 0.66031 0.85398 0.30286 0.0
H1792 H 0.68444 0.86958 0.29964 0.0
H1793 H 0.67865 0.85695 0.32498 0.0
H1794 H 0.74006 0.80085 0.33988 0.0
H1795 H 0.77021 0.82292 0.32671 0.0
H1796 H 0.72619 0.86057 0.28839 0.0
C1797 C 0.66225 0.80402 0.3078 0.0
C1798 C 0.65917 0.78375 0.31745 0.0
C1799 C 0.67464 0.77586 0.33202 0.0
C1800 C 0.69378 0.78714 0.33551 0.0
C1801 C 0.69693 0.80646 0.32466 0.0
C1802 C 0.68135 0.81514 0.31153 0.0
C1803 C 0.68955 0.83485 0.29988 0.0
C1804 C 0.68815 0.83206 0.27538 0.0
C1805 C 0.67752 0.85504 0.30729 0.0
C1806 C 0.71256 0.83512 0.30746 0.0
C1807 C 0.71645 0.81874 0.32191 0.0
C1808 C 0.73707 0.81414 0.32913 0.0
C1809 C 0.75411 0.82662 0.32142 0.0
C1810 C 0.7504 0.84352 0.30675 0.0
C1811 C 0.72933 0.84803 0.29999 0.0
H1812 H 0.90426 0.9856 0.04457 0.0
H1813 H 0.86203 0.96756 0.99238 0.0
H1814 H 0.8804 0.93253 0.98962 0.0
H1815 H 0.95063 0.96456 0.0218 0.0
H1816 H 0.96232 0.9556 0.04665 0.0
H1817 H 0.94403 0.97788 0.04659 0.0
H1818 H 0.92 0.95843 0.07438 0.0
H1819 H 0.9383 0.93607 0.0746 0.0
H1820 H 0.91036 0.93175 0.06871 0.0
H1821 H 0.90509 0.90105 0.99052 0.0
H1822 H 0.93515 0.87563 0.99411 0.0
H1823 H 0.96205 0.91469 0.04504 0.0
C1824 C 0.89856 0.97405 0.03292 0.0
C1825 C 0.88161 0.9791 0.01882 0.0
C1826 C 0.87492 0.96388 0.00339 0.0
C1827 C 0.8852 0.94396 0.00177 0.0
C1828 C 0.90215 0.93962 0.01565 0.0
C1829 C 0.90881 0.95424 0.03091 0.0
C1830 C 0.92865 0.94648 0.04252 0.0
C1831 C 0.94752 0.96205 0.03918 0.0
C1832 C 0.92404 0.94297 0.06647 0.0
C1833 C 0.93237 0.9254 0.03108 0.0
C1834 C 0.91673 0.92162 0.01585 0.0
C1835 C 0.9173 0.9037 0.00255 0.0
C1836 C 0.93445 0.88939 0.00469 0.0
C1837 C 0.95087 0.89319 0.01989 0.0
C1838 C 0.94961 0.91128 0.03343 0.0
H1839 H 0.22003 0.65714 0.73571 0.0
H1840 H 0.2439 0.64896 0.67094 0.0
H1841 H 0.21625 0.67409 0.65759 0.0
H1842 H 0.1626 0.66178 0.72094 0.0
H1843 H 0.15773 0.68139 0.74161 0.0
H1844 H 0.17793 0.66111 0.74542 0.0
H1845 H 0.20615 0.69076 0.75272 0.0
H1846 H 0.18613 0.7111 0.74879 0.0
H1847 H 0.21033 0.71154 0.73304 0.0
H1848 H 0.18924 0.70419 0.65244 0.0
H1849 H 0.16315 0.73407 0.65559 0.0
H1850 H 0.156 0.72029 0.72336 0.0
C1851 C 0.21913 0.66029 0.71866 0.0
C1852 C 0.23401 0.65117 0.70433 0.0
C1853 C 0.23248 0.65571 0.68214 0.0
C1854 C 0.21687 0.66998 0.67444 0.0
C1855 C 0.20274 0.67917 0.68911 0.0
C1856 C 0.2035 0.67417 0.7107 0.0
C1857 C 0.18719 0.68683 0.72335 0.0
C1858 C 0.17036 0.67188 0.73342 0.0
C1859 C 0.19811 0.70089 0.74047 0.0
C1860 C 0.17761 0.70028 0.70565 0.0
C1861 C 0.18672 0.69571 0.68598 0.0
C1862 C 0.18164 0.70755 0.66766 0.0
C1863 C 0.16691 0.72451 0.66959 0.0
C1864 C 0.15739 0.72922 0.68962 0.0
C1865 C 0.16266 0.71673 0.70772 0.0
H1866 H 0.00413 0.43511 0.43026 0.0
H1867 H 0.03759 0.37442 0.43622 0.0
H1868 H 0.07205 0.39382 0.43885 0.0
H1869 H 0.04686 0.46427 0.39999 0.0
H1870 H 0.04154 0.48888 0.41419 0.0
H1871 H 0.02013 0.4701 0.40927 0.0
H1872 H 0.01184 0.46897 0.44998 0.0
H1873 H 0.03327 0.48755 0.45505 0.0
H1874 H 0.03286 0.46196 0.46852 0.0
H1875 H 0.10189 0.41985 0.44593 0.0
H1876 H 0.12495 0.45048 0.456 0.0
H1877 H 0.07186 0.49404 0.44517 0.0
C1878 C 0.01877 0.42587 0.43149 0.0
C1879 C 0.01826 0.40329 0.43292 0.0
C1880 C 0.03768 0.39175 0.43494 0.0
C1881 C 0.05731 0.40262 0.43642 0.0
C1882 C 0.05718 0.42498 0.43564 0.0
C1883 C 0.03843 0.43646 0.43301 0.0
C1884 C 0.04232 0.46036 0.43465 0.0
C1885 C 0.03743 0.47156 0.41325 0.0
C1886 C 0.02931 0.47027 0.45315 0.0
C1887 C 0.06606 0.46053 0.43941 0.0
C1888 C 0.07441 0.43999 0.43967 0.0
C1889 C 0.09564 0.43603 0.44536 0.0
C1890 C 0.10858 0.4535 0.45112 0.0
C1891 C 0.10019 0.4746 0.4512 0.0
C1892 C 0.07878 0.47811 0.44492 0.0
H1893 H 0.48837 0.56767 0.94871 0.0
H1894 H 0.45056 0.61903 0.97639 0.0
H1895 H 0.41844 0.59583 0.97546 0.0
H1896 H 0.44553 0.5438 0.91456 0.0
H1897 H 0.45447 0.51689 0.92013 0.0
H1898 H 0.47349 0.53866 0.91962 0.0
H1899 H 0.48584 0.52868 0.95803 0.0
H1900 H 0.46684 0.50701 0.9587 0.0
H1901 H 0.46631 0.52729 0.97929 0.0
H1902 H 0.39154 0.56587 0.97518 0.0
H1903 H 0.37232 0.53117 0.9766 0.0
H1904 H 0.42816 0.49927 0.95017 0.0
C1905 C 0.47319 0.57422 0.95397 0.0
C1906 C 0.47182 0.59516 0.9624 0.0
C1907 C 0.45185 0.60303 0.96974 0.0
C1908 C 0.43353 0.59001 0.9692 0.0
C1909 C 0.43552 0.56919 0.96131 0.0
C1910 C 0.45484 0.56135 0.95379 0.0
C1911 C 0.45329 0.53776 0.94832 0.0
C1912 C 0.45691 0.53407 0.92422 0.0
C1913 C 0.469 0.52441 0.9619 0.0
C1914 C 0.43028 0.5334 0.95454 0.0
C1915 C 0.42016 0.55178 0.96164 0.0
C1916 C 0.3992 0.55142 0.96938 0.0
C1917 C 0.38842 0.53167 0.97015 0.0
C1918 C 0.39876 0.51261 0.96346 0.0
C1919 C 0.41981 0.51362 0.95524 0.0
H1920 H 0.70934 0.74732 0.82544 0.0
H1921 H 0.71208 0.78118 0.88612 0.0
H1922 H 0.70002 0.81441 0.86807 0.0
H1923 H 0.73144 0.78806 0.79501 0.0
H1924 H 0.71536 0.78324 0.77151 0.0
H1925 H 0.72091 0.76164 0.78976 0.0
H1926 H 0.68016 0.75475 0.79413 0.0
H1927 H 0.67448 0.77647 0.77591 0.0
H1928 H 0.66288 0.77639 0.80238 0.0
H1929 H 0.69125 0.84454 0.84285 0.0
H1930 H 0.68906 0.86965 0.81229 0.0
H1931 H 0.69271 0.81601 0.76812 0.0
C1932 C 0.70694 0.76161 0.83502 0.0
C1933 C 0.71145 0.76171 0.85718 0.0
C1934 C 0.7086 0.7808 0.86911 0.0
C1935 C 0.70164 0.79968 0.85903 0.0
C1936 C 0.69759 0.79912 0.83705 0.0
C1937 C 0.7002 0.78057 0.82519 0.0
C1938 C 0.69703 0.78466 0.8015 0.0
C1939 C 0.7174 0.77908 0.78871 0.0
C1940 C 0.67747 0.77234 0.79298 0.0
C1941 C 0.69294 0.80857 0.80177 0.0
C1942 C 0.69289 0.81655 0.82245 0.0
C1943 C 0.69094 0.83844 0.82661 0.0
C1944 C 0.68967 0.85257 0.80916 0.0
C1945 C 0.69061 0.84474 0.78787 0.0
C1946 C 0.69163 0.82242 0.78422 0.0
H1947 H 0.5005 0.43989 0.07405 0.0
H1948 H 0.46643 0.46114 0.13082 0.0
H1949 H 0.43196 0.45703 0.11151 0.0
H1950 H 0.46937 0.46675 0.0365 0.0
H1951 H 0.47041 0.44574 0.01667 0.0
H1952 H 0.49184 0.4486 0.03569 0.0
H1953 H 0.48658 0.40907 0.04761 0.0
H1954 H 0.46501 0.40612 0.02864 0.0
H1955 H 0.46057 0.40022 0.05658 0.0
H1956 H 0.40179 0.45415 0.0845 0.0
H1957 H 0.37857 0.45248 0.05237 0.0
H1958 H 0.43285 0.43158 0.0143 0.0
C1959 C 0.48577 0.44348 0.08251 0.0
C1960 C 0.48602 0.4509 0.10385 0.0
C1961 C 0.46648 0.4554 0.11443 0.0
C1962 C 0.44688 0.45305 0.10363 0.0
C1963 C 0.44723 0.44587 0.08244 0.0
C1964 C 0.46619 0.44099 0.0721 0.0
C1965 C 0.46248 0.43456 0.04906 0.0
C1966 C 0.47421 0.44983 0.03358 0.0
C1967 C 0.46905 0.4111 0.04526 0.0
C1968 C 0.43849 0.43727 0.04776 0.0
C1969 C 0.4299 0.44364 0.06718 0.0
C1970 C 0.40827 0.44878 0.06932 0.0
C1971 C 0.39522 0.4478 0.05103 0.0
C1972 C 0.40392 0.44169 0.03097 0.0
C1973 C 0.42568 0.43589 0.02951 0.0
H1974 H 0.7728 0.23827 0.33933 0.0
H1975 H 0.8082 0.28339 0.29991 0.0
H1976 H 0.81902 0.25387 0.27586 0.0
H1977 H 0.80935 0.1923 0.33295 0.0
H1978 H 0.78771 0.17319 0.33156 0.0
H1979 H 0.78463 0.19744 0.34698 0.0
H1980 H 0.75046 0.20692 0.32535 0.0
H1981 H 0.75344 0.18273 0.3099 0.0
H1982 H 0.75187 0.20831 0.29652 0.0
H1983 H 0.82378 0.22019 0.2547 0.0
H1984 H 0.82126 0.18472 0.23725 0.0
H1985 H 0.78236 0.16149 0.29007 0.0
C1986 C 0.78316 0.24183 0.32586 0.0
C1987 C 0.78982 0.26304 0.32153 0.0
C1988 C 0.80299 0.26721 0.30352 0.0
C1989 C 0.80928 0.25055 0.28983 0.0
C1990 C 0.80221 0.22984 0.29435 0.0
C1991 C 0.78942 0.22541 0.31191 0.0
C1992 C 0.7827 0.20206 0.31223 0.0
C1993 C 0.79164 0.19057 0.33211 0.0
C1994 C 0.75817 0.19989 0.31091 0.0
C1995 C 0.79341 0.19416 0.29192 0.0
C1996 C 0.80476 0.21039 0.28198 0.0
C1997 C 0.81514 0.20727 0.26244 0.0
C1998 C 0.81361 0.18709 0.25265 0.0
C1999 C 0.80172 0.17036 0.26237 0.0
C2000 C 0.79178 0.17391 0.2824 0.0
H2001 H 0.02198 0.51048 0.59658 0.0
H2002 H 0.98641 0.56549 0.57327 0.0
H2003 H 0.01718 0.57596 0.55069 0.0
H2004 H 0.0761 0.53529 0.59564 0.0
H2005 H 0.08861 0.51103 0.58613 0.0
H2006 H 0.06508 0.50953 0.60285 0.0
H2007 H 0.04591 0.48663 0.57396 0.0
H2008 H 0.06934 0.48801 0.55723 0.0
H2009 H 0.04381 0.49678 0.54697 0.0
H2010 H 0.05013 0.57883 0.52861 0.0
H2011 H 0.08215 0.57251 0.50634 0.0
H2012 H 0.09609 0.51489 0.54283 0.0
C2013 C 0.02092 0.52498 0.58707 0.0
C2014 C 0.002 0.53734 0.58675 0.0
C2015 C 0.00086 0.55588 0.57373 0.0
C2016 C 0.01828 0.56202 0.56098 0.0
C2017 C 0.03664 0.54936 0.56138 0.0
C2018 C 0.03807 0.53115 0.57398 0.0
C2019 C 0.05872 0.51913 0.56969 0.0
C2020 C 0.07297 0.51873 0.58978 0.0
C2021 C 0.05416 0.49629 0.56147 0.0
C2022 C 0.06837 0.53312 0.55233 0.0
C2023 C 0.05556 0.55069 0.5481 0.0
C2024 C 0.06045 0.56529 0.53192 0.0
C2025 C 0.07866 0.56155 0.51936 0.0
C2026 C 0.09161 0.54326 0.52292 0.0
C2027 C 0.08663 0.52915 0.53993 0.0
H2028 H 0.70311 0.24256 0.65229 0.0
H2029 H 0.73535 0.20387 0.60433 0.0
H2030 H 0.72761 0.17123 0.62568 0.0
H2031 H 0.72355 0.2168 0.69627 0.0
H2032 H 0.6997 0.21882 0.71244 0.0
H2033 H 0.70476 0.23831 0.69183 0.0
H2034 H 0.66793 0.22983 0.67459 0.0
H2035 H 0.66272 0.21026 0.69523 0.0
H2036 H 0.66146 0.20257 0.6674 0.0
H2037 H 0.72041 0.14381 0.65454 0.0
H2038 H 0.71501 0.12406 0.68846 0.0
H2039 H 0.68736 0.18104 0.7172 0.0
C2040 C 0.70814 0.22717 0.646 0.0
C2041 C 0.71977 0.22568 0.62664 0.0
C2042 C 0.72631 0.20531 0.61908 0.0
C2043 C 0.72192 0.18672 0.63107 0.0
C2044 C 0.71081 0.18885 0.65038 0.0
C2045 C 0.7039 0.20859 0.6577 0.0
C2046 C 0.69405 0.20698 0.6798 0.0
C2047 C 0.70625 0.22105 0.69603 0.0
C2048 C 0.67012 0.21275 0.67921 0.0
C2049 C 0.69727 0.18338 0.68424 0.0
C2050 C 0.70664 0.17309 0.66696 0.0
C2051 C 0.71272 0.15161 0.668 0.0
C2052 C 0.70961 0.14053 0.68733 0.0
C2053 C 0.70063 0.15101 0.70537 0.0
C2054 C 0.69391 0.17253 0.70356 0.0
H2055 H 0.09743 0.47483 0.95118 0.0
H2056 H 0.08678 0.40818 0.96833 0.0
H2057 H 0.05968 0.4052 0.93965 0.0
H2058 H 0.04438 0.48782 0.94286 0.0
H2059 H 0.04889 0.5056 0.92051 0.0
H2060 H 0.06959 0.50169 0.94015 0.0
H2061 H 0.09601 0.49017 0.91022 0.0
H2062 H 0.07535 0.49411 0.89042 0.0
H2063 H 0.08881 0.4686 0.89236 0.0
H2064 H 0.03078 0.41073 0.91292 0.0
H2065 H 0.00209 0.42422 0.88934 0.0
H2066 H 0.03184 0.4871 0.88869 0.0
C2067 C 0.08975 0.45946 0.94856 0.0
C2068 C 0.09422 0.44169 0.96186 0.0
C2069 C 0.08363 0.42195 0.95822 0.0
C2070 C 0.06828 0.42009 0.94194 0.0
C2071 C 0.06392 0.43806 0.92938 0.0
C2072 C 0.07443 0.45734 0.93238 0.0
C2073 C 0.06547 0.47469 0.91794 0.0
C2074 C 0.05655 0.49355 0.93116 0.0
C2075 C 0.08242 0.48234 0.90177 0.0
C2076 C 0.04774 0.46236 0.90691 0.0
C2077 C 0.04729 0.4412 0.9136 0.0
C2078 C 0.03122 0.42711 0.90721 0.0
C2079 C 0.01497 0.43494 0.8939 0.0
C2080 C 0.01498 0.4566 0.88709 0.0
C2081 C 0.03181 0.47035 0.89329 0.0
H2082 H 0.78273 0.84663 0.21547 0.0
H2083 H 0.85068 0.84624 0.22997 0.0
H2084 H 0.8573 0.82369 0.19805 0.0
H2085 H 0.77926 0.79345 0.20217 0.0
H2086 H 0.75984 0.79663 0.18103 0.0
H2087 H 0.76101 0.81586 0.20244 0.0
H2088 H 0.76601 0.84653 0.17479 0.0
H2089 H 0.7649 0.82729 0.15323 0.0
H2090 H 0.78757 0.84506 0.1556 0.0
H2091 H 0.85588 0.79731 0.16791 0.0
H2092 H 0.84638 0.76803 0.143 0.0
H2093 H 0.77932 0.78548 0.14821 0.0
C2094 C 0.79908 0.84231 0.21156 0.0
C2095 C 0.81623 0.84831 0.22503 0.0
C2096 C 0.83733 0.84191 0.21975 0.0
C2097 C 0.84125 0.82921 0.2016 0.0
C2098 C 0.8239 0.82313 0.1889 0.0
C2099 C 0.80322 0.82952 0.19363 0.0
C2100 C 0.78711 0.81879 0.179 0.0
C2101 C 0.77087 0.80539 0.19193 0.0
C2102 C 0.77573 0.83541 0.16481 0.0
C2103 C 0.80185 0.80469 0.16587 0.0
C2104 C 0.82305 0.80773 0.17153 0.0
C2105 C 0.83939 0.79509 0.16302 0.0
C2106 C 0.83385 0.7785 0.14889 0.0
C2107 C 0.81215 0.77463 0.14354 0.0
C2108 C 0.79609 0.78835 0.15164 0.0
H2109 H 0.39804 0.53073 0.45453 0.0
H2110 H 0.41499 0.59236 0.48204 0.0
H2111 H 0.44056 0.5985 0.45246 0.0
H2112 H 0.44903 0.51568 0.44158 0.0
H2113 H 0.4425 0.50219 0.41688 0.0
H2114 H 0.42272 0.50438 0.43769 0.0
H2115 H 0.39655 0.52262 0.41108 0.0
H2116 H 0.41631 0.52043 0.3901 0.0
H2117 H 0.40499 0.54622 0.39664 0.0
H2118 H 0.46797 0.59547 0.42374 0.0
H2119 H 0.49543 0.5834 0.39796 0.0
H2120 H 0.46065 0.5239 0.38858 0.0
C2121 C 0.40665 0.54581 0.45394 0.0
C2122 C 0.40445 0.56116 0.47044 0.0
C2123 C 0.41636 0.58046 0.46946 0.0
C2124 C 0.43085 0.58412 0.45268 0.0
C2125 C 0.43311 0.56839 0.43696 0.0
C2126 C 0.42124 0.54966 0.43736 0.0
C2127 C 0.42842 0.53428 0.41997 0.0
C2128 C 0.43613 0.51288 0.42961 0.0
C2129 C 0.4105 0.53069 0.40347 0.0
C2130 C 0.44679 0.54689 0.41034 0.0
C2131 C 0.44899 0.56667 0.42016 0.0
C2132 C 0.46611 0.58026 0.41558 0.0
C2133 C 0.48165 0.57326 0.40097 0.0
C2134 C 0.47995 0.55287 0.39113 0.0
C2135 C 0.462 0.53981 0.39545 0.0
H2136 H 0.8025 0.72264 0.8483 0.0
H2137 H 0.77143 0.66275 0.83118 0.0
H2138 H 0.79631 0.65862 0.80067 0.0
H2139 H 0.80826 0.74178 0.7969 0.0
H2140 H 0.83404 0.75421 0.80084 0.0
H2141 H 0.81615 0.75086 0.82318 0.0
H2142 H 0.84552 0.73005 0.8439 0.0
H2143 H 0.8636 0.73344 0.82161 0.0
H2144 H 0.85791 0.70695 0.83172 0.0
H2145 H 0.8206 0.66366 0.76937 0.0
H2146 H 0.84356 0.67694 0.73998 0.0
H2147 H 0.85975 0.73303 0.77778 0.0
C2148 C 0.80132 0.70836 0.83847 0.0
C2149 C 0.78513 0.69294 0.84213 0.0
C2150 C 0.78381 0.67469 0.82871 0.0
C2151 C 0.79789 0.67218 0.81138 0.0
C2152 C 0.81331 0.68798 0.80785 0.0
C2153 C 0.81526 0.70561 0.82114 0.0
C2154 C 0.83195 0.72118 0.81278 0.0
C2155 C 0.822 0.7433 0.80815 0.0
C2156 C 0.85087 0.723 0.82844 0.0
C2157 C 0.83852 0.70992 0.79231 0.0
C2158 C 0.8277 0.6907 0.78988 0.0
C2159 C 0.82953 0.67842 0.77131 0.0
C2160 C 0.84253 0.68611 0.75469 0.0
C2161 C 0.85359 0.70582 0.75681 0.0
C2162 C 0.85189 0.71763 0.77602 0.0
H2163 H 0.56773 0.50266 0.07439 0.0
H2164 H 0.55078 0.53665 0.13262 0.0
H2165 H 0.54837 0.57052 0.11217 0.0
H2166 H 0.59808 0.54733 0.04796 0.0
H2167 H 0.58755 0.54036 0.02197 0.0
H2168 H 0.59174 0.51978 0.04183 0.0
H2169 H 0.55202 0.50823 0.03811 0.0
H2170 H 0.54763 0.52887 0.01848 0.0
H2171 H 0.53116 0.52781 0.0422 0.0
H2172 H 0.54302 0.59958 0.08459 0.0
H2173 H 0.53585 0.62142 0.05221 0.0
H2174 H 0.55565 0.56809 0.01216 0.0
C2175 C 0.56429 0.51737 0.08297 0.0
C2176 C 0.5597 0.51712 0.10512 0.0
C2177 C 0.55457 0.53656 0.11568 0.0
C2178 C 0.55316 0.55587 0.10419 0.0
C2179 C 0.55698 0.55545 0.08218 0.0
C2180 C 0.56262 0.53671 0.07171 0.0
C2181 C 0.5637 0.54004 0.0477 0.0
C2182 C 0.58663 0.53668 0.03938 0.0
C2183 C 0.54767 0.52537 0.03595 0.0
C2184 C 0.55714 0.56336 0.04624 0.0
C2185 C 0.5536 0.57208 0.06629 0.0
C2186 C 0.54609 0.59302 0.06882 0.0
C2187 C 0.54201 0.60528 0.05037 0.0
C2188 C 0.54528 0.59648 0.02972 0.0
C2189 C 0.55319 0.57534 0.02774 0.0
H2190 H 0.63857 0.26336 0.27193 0.0
H2191 H 0.63726 0.31979 0.23124 0.0
H2192 H 0.6605 0.33891 0.257 0.0
H2193 H 0.6404 0.29262 0.32428 0.0
H2194 H 0.65823 0.27299 0.33575 0.0
H2195 H 0.63892 0.26502 0.31579 0.0
H2196 H 0.66944 0.24904 0.29254 0.0
H2197 H 0.68877 0.25695 0.31235 0.0
H2198 H 0.69173 0.26585 0.28501 0.0
H2199 H 0.68809 0.34972 0.28417 0.0
H2200 H 0.71731 0.35149 0.31088 0.0
H2201 H 0.69946 0.28847 0.33438 0.0
C2202 C 0.64275 0.27991 0.26871 0.0
C2203 C 0.63613 0.29014 0.24967 0.0
C2204 C 0.64211 0.31171 0.24583 0.0
C2205 C 0.65524 0.32271 0.26039 0.0
C2206 C 0.66194 0.31198 0.27881 0.0
C2207 C 0.6557 0.29113 0.28311 0.0
C2208 C 0.66652 0.28255 0.30302 0.0
C2209 C 0.65003 0.27804 0.32076 0.0
C2210 C 0.67991 0.26242 0.29791 0.0
C2211 C 0.68058 0.30146 0.3087 0.0
C2212 C 0.67753 0.31841 0.29473 0.0
C2213 C 0.69027 0.33678 0.29552 0.0
C2214 C 0.70683 0.33763 0.3107 0.0
C2215 C 0.71043 0.32022 0.3248 0.0
C2216 C 0.69676 0.30222 0.32411 0.0
H2217 H 0.96386 0.45342 0.58613 0.0
H2218 H 0.89775 0.47391 0.58037 0.0
H2219 H 0.89144 0.44556 0.55327 0.0
H2220 H 0.97237 0.44741 0.53251 0.0
H2221 H 0.98996 0.42457 0.53452 0.0
H2222 H 0.98798 0.44314 0.55644 0.0
H2223 H 0.97782 0.41201 0.58208 0.0
H2224 H 0.97981 0.39327 0.56016 0.0
H2225 H 0.95545 0.39489 0.57562 0.0
H2226 H 0.89369 0.41804 0.52379 0.0
H2227 H 0.90482 0.39597 0.49279 0.0
H2228 H 0.96994 0.39505 0.51696 0.0
C2229 C 0.94786 0.45149 0.57969 0.0
C2230 C 0.93119 0.4656 0.58551 0.0
C2231 C 0.91066 0.46307 0.57624 0.0
C2232 C 0.90693 0.44697 0.56093 0.0
C2233 C 0.92392 0.43364 0.5551 0.0
C2234 C 0.94401 0.43579 0.56421 0.0
C2235 C 0.96031 0.4216 0.55323 0.0
C2236 C 0.97872 0.43499 0.5436 0.0
C2237 C 0.96885 0.40442 0.5687 0.0
C2238 C 0.9465 0.41171 0.53596 0.0
C2239 C 0.92544 0.41839 0.53762 0.0
C2240 C 0.91005 0.41246 0.52253 0.0
C2241 C 0.91651 0.3999 0.505 0.0
C2242 C 0.93821 0.3938 0.50256 0.0
C2243 C 0.9532 0.39933 0.51855 0.0
H2244 H 0.86437 0.25525 0.70148 0.0
H2245 H 0.85098 0.31313 0.73768 0.0
H2246 H 0.82764 0.32606 0.70851 0.0
H2247 H 0.86228 0.27955 0.64698 0.0
H2248 H 0.84892 0.2565 0.63576 0.0
H2249 H 0.86719 0.25323 0.6579 0.0
H2250 H 0.8374 0.23422 0.6798 0.0
H2251 H 0.81911 0.2374 0.65777 0.0
H2252 H 0.81214 0.24762 0.68389 0.0
H2253 H 0.80323 0.33112 0.67756 0.0
H2254 H 0.77763 0.32704 0.64773 0.0
H2255 H 0.80595 0.26547 0.63183 0.0
C2256 C 0.85692 0.27087 0.70297 0.0
C2257 C 0.85956 0.28333 0.72165 0.0
C2258 C 0.84915 0.30341 0.7234 0.0
C2259 C 0.836 0.31094 0.70688 0.0
C2260 C 0.83338 0.29815 0.68878 0.0
C2261 C 0.84347 0.2785 0.68672 0.0
C2262 C 0.8361 0.26687 0.66673 0.0
C2263 C 0.85474 0.26387 0.6509 0.0
C2264 C 0.82556 0.24526 0.6724 0.0
C2265 C 0.81985 0.28278 0.65824 0.0
C2266 C 0.81884 0.30088 0.671 0.0
C2267 C 0.80406 0.31718 0.66725 0.0
C2268 C 0.78958 0.31471 0.65029 0.0
C2269 C 0.78991 0.296 0.63745 0.0
C2270 C 0.80556 0.28009 0.6412 0.0
H2271 H 0.96051 0.54472 0.89683 0.0
H2272 H 0.92077 0.49295 0.92096 0.0
H2273 H 0.91718 0.512 0.95556 0.0
H2274 H 0.98991 0.55234 0.94222 0.0
H2275 H 0.99178 0.58114 0.94041 0.0
H2276 H 0.98824 0.56544 0.91651 0.0
H2277 H 0.95417 0.58713 0.90689 0.0
H2278 H 0.95774 0.60315 0.93069 0.0
H2279 H 0.93277 0.58932 0.92619 0.0
H2280 H 0.92301 0.53354 0.98897 0.0
H2281 H 0.93555 0.55732 0.01807 0.0
H2282 H 0.97058 0.59567 0.97181 0.0
C2283 C 0.95051 0.53769 0.90917 0.0
C2284 C 0.94084 0.51741 0.90625 0.0
C2285 C 0.92814 0.50857 0.92284 0.0
C2286 C 0.92605 0.51926 0.94253 0.0
C2287 C 0.93649 0.53889 0.94517 0.0
C2288 C 0.94817 0.54819 0.9288 0.0
C2289 C 0.95926 0.5685 0.93621 0.0
C2290 C 0.98374 0.56673 0.93369 0.0
C2291 C 0.95045 0.58819 0.92429 0.0
C2292 C 0.95273 0.56872 0.95955 0.0
C2293 C 0.93947 0.55158 0.96437 0.0
C2294 C 0.93296 0.54729 0.9853 0.0
C2295 C 0.94026 0.56079 0.00172 0.0
C2296 C 0.95384 0.5784 0.99709 0.0
C2297 C 0.95985 0.58257 0.9757 0.0
H2298 H 0.65976 0.73906 0.21823 0.0
H2299 H 0.68731 0.70328 0.27119 0.0
H2300 H 0.71774 0.69279 0.24827 0.0
H2301 H 0.67569 0.70217 0.1759 0.0
H2302 H 0.68162 0.7233 0.15708 0.0
H2303 H 0.66142 0.72727 0.17733 0.0
H2304 H 0.6812 0.76137 0.19058 0.0
H2305 H 0.7014 0.75754 0.17032 0.0
H2306 H 0.70903 0.75957 0.19811 0.0
H2307 H 0.7458 0.6875 0.22043 0.0
H2308 H 0.77018 0.68817 0.18927 0.0
H2309 H 0.72437 0.72704 0.1542 0.0
C2310 C 0.67212 0.72889 0.22493 0.0
C2311 C 0.6712 0.72193 0.24644 0.0
C2312 C 0.68773 0.70877 0.25472 0.0
C2313 C 0.70503 0.70268 0.24183 0.0
C2314 C 0.70552 0.70985 0.22072 0.0
C2315 C 0.68954 0.72267 0.21229 0.0
C2316 C 0.69437 0.72879 0.1893 0.0
C2317 C 0.67726 0.71984 0.174 0.0
C2318 C 0.69664 0.75327 0.18695 0.0
C2319 C 0.71566 0.71758 0.18623 0.0
C2320 C 0.72174 0.70669 0.20453 0.0
C2321 C 0.74116 0.69582 0.20592 0.0
C2322 C 0.75489 0.6963 0.18818 0.0
C2323 C 0.74906 0.70754 0.16935 0.0
C2324 C 0.72909 0.71809 0.16831 0.0
H2325 H 0.51889 0.46588 0.40617 0.0
H2326 H 0.57812 0.4995 0.42031 0.0
H2327 H 0.58413 0.47539 0.45135 0.0
H2328 H 0.50201 0.45941 0.45944 0.0
H2329 H 0.49049 0.43322 0.45526 0.0
H2330 H 0.49192 0.45199 0.43339 0.0
H2331 H 0.5127 0.42408 0.41064 0.0
H2332 H 0.51132 0.40518 0.43246 0.0
H2333 H 0.53692 0.41236 0.42115 0.0
H2334 H 0.58233 0.44873 0.48197 0.0
H2335 H 0.57281 0.4222 0.50986 0.0
H2336 H 0.51459 0.40661 0.4752 0.0
C2337 C 0.53328 0.46806 0.41562 0.0
C2338 C 0.5481 0.48449 0.41084 0.0
C2339 C 0.56662 0.48693 0.42369 0.0
C2340 C 0.57015 0.47331 0.4413 0.0
C2341 C 0.55505 0.45738 0.44567 0.0
C2342 C 0.537 0.45471 0.43314 0.0
C2343 C 0.52266 0.43712 0.44169 0.0
C2344 C 0.50047 0.44597 0.44781 0.0
C2345 C 0.5208 0.41859 0.42552 0.0
C2346 C 0.53524 0.43047 0.46126 0.0
C2347 C 0.55396 0.4422 0.46322 0.0
C2348 C 0.56781 0.43934 0.48049 0.0
C2349 C 0.56227 0.42426 0.49623 0.0
C2350 C 0.543 0.41233 0.49461 0.0
C2351 C 0.52949 0.41537 0.47677 0.0
H2352 H 0.7784 0.85505 0.74217 0.0
H2353 H 0.74838 0.85636 0.67947 0.0
H2354 H 0.77712 0.83316 0.66521 0.0
H2355 H 0.83488 0.85351 0.72296 0.0
H2356 H 0.84274 0.83552 0.74417 0.0
H2357 H 0.8215 0.85461 0.74856 0.0
H2358 H 0.79611 0.82364 0.75977 0.0
H2359 H 0.81717 0.80449 0.7553 0.0
H2360 H 0.7919 0.8015 0.74166 0.0
H2361 H 0.80634 0.8061 0.6591 0.0
H2362 H 0.83445 0.7782 0.66147 0.0
H2363 H 0.84551 0.79529 0.72797 0.0
C2364 C 0.77818 0.85091 0.72532 0.0
C2365 C 0.76126 0.85754 0.71189 0.0
C2366 C 0.7613 0.85151 0.69 0.0
C2367 C 0.77755 0.83838 0.68175 0.0
C2368 C 0.79372 0.83161 0.69557 0.0
C2369 C 0.79427 0.83785 0.71684 0.0
C2370 C 0.8124 0.82707 0.72876 0.0
C2371 C 0.82886 0.84367 0.73656 0.0
C2372 C 0.80388 0.81336 0.74746 0.0
C2373 C 0.82152 0.81325 0.71106 0.0
C2374 C 0.81069 0.81621 0.69198 0.0
C2375 C 0.81522 0.80394 0.67384 0.0
C2376 C 0.83114 0.78811 0.67533 0.0
C2377 C 0.84222 0.78476 0.69483 0.0
C2378 C 0.83753 0.79774 0.71275 0.0
H2379 H 0.27153 0.66542 0.29702 0.0
H2380 H 0.29741 0.61794 0.25329 0.0
H2381 H 0.33109 0.63866 0.25089 0.0
H2382 H 0.28984 0.70926 0.27014 0.0
H2383 H 0.29593 0.72531 0.29339 0.0
H2384 H 0.2757 0.70486 0.29496 0.0
H2385 H 0.29559 0.68722 0.32688 0.0
H2386 H 0.3159 0.70775 0.32549 0.0
H2387 H 0.32338 0.67986 0.32403 0.0
H2388 H 0.35931 0.66714 0.24883 0.0
H2389 H 0.37993 0.70096 0.24746 0.0
H2390 H 0.33566 0.72977 0.29267 0.0
C2391 C 0.28454 0.65903 0.28747 0.0
C2392 C 0.28196 0.64003 0.27545 0.0
C2393 C 0.29914 0.6324 0.26275 0.0
C2394 C 0.31834 0.64403 0.26134 0.0
C2395 C 0.32011 0.66312 0.27287 0.0
C2396 C 0.30373 0.67047 0.28585 0.0
C2397 C 0.30864 0.69253 0.29473 0.0
C2398 C 0.29152 0.70894 0.28788 0.0
C2399 C 0.31102 0.69178 0.31924 0.0
C2400 C 0.32992 0.69687 0.28396 0.0
C2401 C 0.33645 0.67959 0.27169 0.0
C2402 C 0.35462 0.68059 0.25873 0.0
C2403 C 0.36618 0.69988 0.258 0.0
C2404 C 0.35945 0.71788 0.27009 0.0
C2405 C 0.34139 0.71613 0.28358 0.0
H2406 H 0.50953 0.06923 0.55041 0.0
H2407 H 0.55263 0.12385 0.54992 0.0
H2408 H 0.58369 0.09919 0.55 0.0
H2409 H 0.5429 0.03317 0.5836 0.0
H2410 H 0.53551 0.00995 0.56804 0.0
H2411 H 0.51696 0.0319 0.57095 0.0
H2412 H 0.51419 0.03495 0.5296 0.0
H2413 H 0.53285 0.01319 0.52653 0.0
H2414 H 0.53823 0.03869 0.51401 0.0
H2415 H 0.60981 0.06853 0.54671 0.0
H2416 H 0.62892 0.03439 0.54023 0.0
H2417 H 0.56839 0.00016 0.54195 0.0
C2418 C 0.5255 0.07602 0.5509 0.0
C2419 C 0.52874 0.09842 0.55038 0.0
C2420 C 0.54985 0.10671 0.55049 0.0
C2421 C 0.56756 0.09283 0.55055 0.0
C2422 C 0.5638 0.07078 0.55049 0.0
C2423 C 0.54328 0.06243 0.55075 0.0
C2424 C 0.54346 0.03825 0.54881 0.0
C2425 C 0.53416 0.0277 0.56906 0.0
C2426 C 0.53148 0.03085 0.52853 0.0
C2427 C 0.56727 0.03428 0.54695 0.0
C2428 C 0.57877 0.05319 0.5482 0.0
C2429 C 0.60099 0.0536 0.54595 0.0
C2430 C 0.61169 0.03416 0.54223 0.0
C2431 C 0.60012 0.01468 0.54064 0.0
C2432 C 0.57766 0.0148 0.54323 0.0
H2433 H 0.24597 0.33045 0.81005 0.0
H2434 H 0.21202 0.37071 0.76471 0.0
H2435 H 0.17906 0.34944 0.77061 0.0
H2436 H 0.22427 0.28257 0.7918 0.0
H2437 H 0.22288 0.26973 0.81765 0.0
H2438 H 0.24259 0.29021 0.81279 0.0
H2439 H 0.22841 0.3118 0.84535 0.0
H2440 H 0.20862 0.29132 0.85033 0.0
H2441 H 0.20042 0.3188 0.84669 0.0
H2442 H 0.15095 0.32225 0.77907 0.0
H2443 H 0.13044 0.28936 0.7869 0.0
H2444 H 0.18332 0.26537 0.82515 0.0
C2445 C 0.2314 0.33512 0.80185 0.0
C2446 C 0.23131 0.35238 0.7872 0.0
C2447 C 0.21226 0.35763 0.77614 0.0
C2448 C 0.19349 0.34572 0.77948 0.0
C2449 C 0.19417 0.32852 0.79376 0.0
C2450 C 0.21267 0.32312 0.80466 0.0
C2451 C 0.20989 0.3024 0.81706 0.0
C2452 C 0.22585 0.28522 0.80936 0.0
C2453 C 0.21195 0.30632 0.8413 0.0
C2454 C 0.1871 0.2967 0.811 0.0
C2455 C 0.17818 0.31223 0.79794 0.0
C2456 C 0.15768 0.31008 0.78945 0.0
C2457 C 0.14615 0.29134 0.794 0.0
C2458 C 0.15529 0.27485 0.80667 0.0
C2459 C 0.17586 0.2778 0.8156 0.0
H2460 H 0.43621 0.50871 0.5473 0.0
H2461 H 0.37642 0.47539 0.55962 0.0
H2462 H 0.39656 0.4439 0.5726 0.0
H2463 H 0.46337 0.46587 0.52628 0.0
H2464 H 0.48904 0.47234 0.53784 0.0
H2465 H 0.46993 0.49327 0.53283 0.0
H2466 H 0.47191 0.5047 0.57276 0.0
H2467 H 0.491 0.48363 0.57792 0.0
H2468 H 0.4667 0.48519 0.59345 0.0
H2469 H 0.42283 0.41443 0.57866 0.0
H2470 H 0.45334 0.38922 0.57708 0.0
H2471 H 0.49607 0.4421 0.56247 0.0
C2472 C 0.42738 0.49496 0.55318 0.0
C2473 C 0.4048 0.49444 0.5525 0.0
C2474 C 0.39375 0.47611 0.56008 0.0
C2475 C 0.40504 0.4582 0.56759 0.0
C2476 C 0.42734 0.45905 0.56771 0.0
C2477 C 0.4384 0.47703 0.56086 0.0
C2478 C 0.46231 0.47314 0.56071 0.0
C2479 C 0.47169 0.47633 0.53808 0.0
C2480 C 0.47364 0.48752 0.5772 0.0
C2481 C 0.46291 0.44985 0.56748 0.0
C2482 C 0.4426 0.44208 0.57178 0.0
C2483 C 0.43887 0.42042 0.5759 0.0
C2484 C 0.45626 0.40622 0.57496 0.0
C2485 C 0.47703 0.41381 0.56996 0.0
C2486 C 0.48045 0.43598 0.56693 0.0
H2487 H 0.6465 0.19648 0.22948 0.0
H2488 H 0.64482 0.20077 0.16012 0.0
H2489 H 0.67178 0.17171 0.15776 0.0
H2490 H 0.7014 0.19165 0.23329 0.0
H2491 H 0.70126 0.17363 0.25589 0.0
H2492 H 0.67933 0.19188 0.25194 0.0
H2493 H 0.65267 0.15996 0.25229 0.0
H2494 H 0.67459 0.14156 0.25622 0.0
H2495 H 0.65652 0.13792 0.23398 0.0
H2496 H 0.70132 0.14483 0.16318 0.0
H2497 H 0.73301 0.12473 0.1757 0.0
H2498 H 0.7162 0.13933 0.24159 0.0
C2499 C 0.65137 0.19089 0.21377 0.0
C2500 C 0.64342 0.2006 0.19495 0.0
C2501 C 0.65064 0.19337 0.17471 0.0
C2502 C 0.66583 0.17682 0.17323 0.0
C2503 C 0.67364 0.16781 0.19216 0.0
C2504 C 0.66671 0.17469 0.21205 0.0
C2505 C 0.67939 0.16436 0.22996 0.0
C2506 C 0.69103 0.18139 0.24355 0.0
C2507 C 0.66493 0.1501 0.24393 0.0
C2508 C 0.69499 0.15104 0.21706 0.0
C2509 C 0.69113 0.15286 0.1953 0.0
C2510 C 0.70432 0.14306 0.18017 0.0
C2511 C 0.72226 0.13165 0.18744 0.0
C2512 C 0.72698 0.13041 0.20962 0.0
C2513 C 0.71283 0.13977 0.22456 0.0
H2514 H 0.59749 0.97188 0.95828 0.0
H2515 H 0.55883 0.0191 0.92502 0.0
H2516 H 0.53228 0.99102 0.91616 0.0
H2517 H 0.58464 0.92501 0.92347 0.0
H2518 H 0.58359 0.90698 0.94604 0.0
H2519 H 0.60122 0.92989 0.94662 0.0
H2520 H 0.58369 0.9426 0.9821 0.0
H2521 H 0.5661 0.91977 0.98165 0.0
H2522 H 0.55508 0.94645 0.98315 0.0
H2523 H 0.50827 0.95885 0.91422 0.0
H2524 H 0.48753 0.9259 0.92159 0.0
H2525 H 0.54137 0.89999 0.95711 0.0
C2526 C 0.58371 0.97616 0.94863 0.0
C2527 C 0.58027 0.99755 0.9421 0.0
C2528 C 0.56178 0.00273 0.93005 0.0
C2529 C 0.5467 0.98688 0.92485 0.0
C2530 C 0.55035 0.96597 0.93187 0.0
C2531 C 0.56838 0.9606 0.94357 0.0
C2532 C 0.56733 0.93762 0.95136 0.0
C2533 C 0.58526 0.92408 0.94126 0.0
C2534 C 0.56808 0.93657 0.97602 0.0
C2535 C 0.54558 0.93111 0.94283 0.0
C2536 C 0.53624 0.94753 0.93124 0.0
C2537 C 0.51555 0.94577 0.923 0.0
C2538 C 0.5039 0.92699 0.92724 0.0
C2539 C 0.51288 0.91037 0.93983 0.0
C2540 C 0.53418 0.9123 0.9472 0.0
H2541 H 0.94242 0.09215 0.47072 0.0
H2542 H 0.97166 0.07697 0.40949 0.0
H2543 H 0.94932 0.04423 0.40703 0.0
H2544 H 0.94327 0.0403 0.49035 0.0
H2545 H 0.91827 0.04209 0.50471 0.0
H2546 H 0.93387 0.06588 0.50001 0.0
H2547 H 0.90133 0.0839 0.48152 0.0
H2548 H 0.88553 0.06016 0.48628 0.0
H2549 H 0.88831 0.07054 0.45945 0.0
H2550 H 0.92615 0.01163 0.41293 0.0
H2551 H 0.90518 0.98117 0.42725 0.0
H2552 H 0.89254 0.01729 0.48534 0.0
C2553 C 0.94369 0.08226 0.4565 0.0
C2554 C 0.95852 0.08717 0.44015 0.0
C2555 C 0.96021 0.07353 0.42209 0.0
C2556 C 0.94757 0.05496 0.42055 0.0
C2557 C 0.93344 0.05031 0.43724 0.0
C2558 C 0.93146 0.06358 0.45488 0.0
C2559 C 0.9168 0.05397 0.47165 0.0
C2560 C 0.92878 0.05034 0.49292 0.0
C2561 C 0.89681 0.06798 0.47491 0.0
C2562 C 0.91121 0.03296 0.46093 0.0
C2563 C 0.92066 0.03127 0.44095 0.0
C2564 C 0.9185 0.01287 0.42845 0.0
C2565 C 0.90658 0.99566 0.43671 0.0
C2566 C 0.89725 0.99693 0.45737 0.0
C2567 C 0.8994 0.01593 0.46945 0.0
H2568 H 0.07835 0.14942 0.45341 0.0
H2569 H 0.0524 0.13448 0.39068 0.0
H2570 H 0.08782 0.14216 0.37433 0.0
H2571 H 0.10809 0.19329 0.43817 0.0
H2572 H 0.13019 0.18814 0.45602 0.0
H2573 H 0.10385 0.17864 0.46274 0.0
H2574 H 0.11846 0.13984 0.46612 0.0
H2575 H 0.14494 0.14925 0.45943 0.0
H2576 H 0.13281 0.12804 0.44398 0.0
H2577 H 0.12532 0.15522 0.3648 0.0
H2578 H 0.16083 0.17298 0.36298 0.0
H2579 H 0.16109 0.17909 0.43223 0.0
C2580 C 0.08017 0.14738 0.43627 0.0
C2581 C 0.06271 0.14136 0.42327 0.0
C2582 C 0.06567 0.139 0.4009 0.0
C2583 C 0.08571 0.14327 0.39151 0.0
C2584 C 0.10254 0.14961 0.40481 0.0
C2585 C 0.09993 0.15149 0.42674 0.0
C2586 C 0.11984 0.16009 0.43746 0.0
C2587 C 0.1152 0.18129 0.44927 0.0
C2588 C 0.12959 0.1433 0.45264 0.0
C2589 C 0.13386 0.16359 0.41807 0.0
C2590 C 0.12385 0.15714 0.39938 0.0
C2591 C 0.13341 0.16004 0.37937 0.0
C2592 C 0.15354 0.17011 0.37847 0.0
C2593 C 0.16362 0.17735 0.39747 0.0
C2594 C 0.15379 0.17363 0.41746 0.0
H2595 H 0.05815 0.93417 0.67843 0.0
H2596 H 0.08892 0.94649 0.61733 0.0
H2597 H 0.10902 0.91224 0.62075 0.0
H2598 H 0.10419 0.90965 0.70465 0.0
H2599 H 0.08761 0.8908 0.719 0.0
H2600 H 0.07718 0.91681 0.712 0.0
H2601 H 0.04521 0.89867 0.69255 0.0
H2602 H 0.05558 0.87264 0.69938 0.0
H2603 H 0.0504 0.87928 0.67174 0.0
H2604 H 0.12342 0.87458 0.63027 0.0
H2605 H 0.13149 0.83861 0.64549 0.0
H2606 H 0.09117 0.85314 0.70025 0.0
C2607 C 0.06928 0.92982 0.66583 0.0
C2608 C 0.07199 0.94284 0.6476 0.0
C2609 C 0.08674 0.93667 0.63149 0.0
C2610 C 0.09816 0.91728 0.63329 0.0
C2611 C 0.09476 0.90457 0.65142 0.0
C2612 C 0.08081 0.91081 0.66748 0.0
C2613 C 0.07929 0.89433 0.68507 0.0
C2614 C 0.08757 0.90344 0.70644 0.0
C2615 C 0.05626 0.88573 0.6873 0.0
C2616 C 0.0942 0.87749 0.67629 0.0
C2617 C 0.10311 0.88353 0.65692 0.0
C2618 C 0.1167 0.86983 0.64555 0.0
C2619 C 0.12117 0.84947 0.65426 0.0
C2620 C 0.11201 0.84317 0.67405 0.0
C2621 C 0.09854 0.85751 0.68514 0.0
H2622 H 0.4079 0.85781 0.92315 0.0
H2623 H 0.40319 0.84288 0.99098 0.0
H2624 H 0.366 0.83089 0.98586 0.0
H2625 H 0.35129 0.87585 0.91636 0.0
H2626 H 0.34912 0.86385 0.89016 0.0
H2627 H 0.37462 0.87378 0.89943 0.0
H2628 H 0.39161 0.8365 0.89251 0.0
H2629 H 0.36621 0.82646 0.8833 0.0
H2630 H 0.37998 0.81308 0.90488 0.0
H2631 H 0.33164 0.81639 0.97317 0.0
H2632 H 0.301 0.80105 0.95347 0.0
H2633 H 0.32658 0.82617 0.89386 0.0
C2634 C 0.39885 0.85244 0.93696 0.0
C2635 C 0.40837 0.85129 0.95746 0.0
C2636 C 0.39619 0.84389 0.97513 0.0
C2637 C 0.37502 0.83712 0.97241 0.0
C2638 C 0.36621 0.83802 0.95196 0.0
C2639 C 0.37759 0.84562 0.93453 0.0
C2640 C 0.36469 0.84342 0.91405 0.0
C2641 C 0.35963 0.86554 0.90444 0.0
C2642 C 0.37632 0.829 0.89773 0.0
C2643 C 0.34464 0.83272 0.92265 0.0
C2644 C 0.34585 0.82993 0.9446 0.0
C2645 C 0.33024 0.81883 0.95605 0.0
C2646 C 0.31299 0.81011 0.94474 0.0
C2647 C 0.31144 0.81268 0.92227 0.0
C2648 C 0.32724 0.82445 0.91113 0.0
H2649 H 0.38875 0.17813 0.15538 0.0
H2650 H 0.33673 0.14989 0.19172 0.0
H2651 H 0.34357 0.11493 0.17437 0.0
H2652 H 0.38466 0.14193 0.10576 0.0
H2653 H 0.41346 0.14111 0.10372 0.0
H2654 H 0.40035 0.16491 0.11363 0.0
H2655 H 0.42348 0.16317 0.14807 0.0
H2656 H 0.43645 0.1394 0.13845 0.0
H2657 H 0.42316 0.1391 0.16411 0.0
H2658 H 0.36071 0.08205 0.15934 0.0
H2659 H 0.38734 0.0544 0.14938 0.0
H2660 H 0.42911 0.10397 0.12431 0.0
C2661 C 0.37815 0.16483 0.1589 0.0
C2662 C 0.36208 0.16669 0.17465 0.0
C2663 C 0.349 0.14879 0.17949 0.0
C2664 C 0.35271 0.1289 0.16964 0.0
C2665 C 0.36952 0.12726 0.15497 0.0
C2666 C 0.38193 0.14485 0.1495 0.0
C2667 C 0.40132 0.1383 0.13651 0.0
C2668 C 0.39985 0.14708 0.11353 0.0
C2669 C 0.42232 0.1454 0.14746 0.0
C2670 C 0.39872 0.1142 0.13683 0.0
C2671 C 0.37991 0.10812 0.14686 0.0
C2672 C 0.37521 0.08661 0.15099 0.0
C2673 C 0.39041 0.07102 0.14531 0.0
C2674 C 0.41019 0.07715 0.1361 0.0
C2675 C 0.414 0.09889 0.13117 0.0
H2676 H 0.12265 0.81137 0.12107 0.0
H2677 H 0.1617 0.86664 0.10519 0.0
H2678 H 0.12923 0.88604 0.09322 0.0
H2679 H 0.0931 0.81176 0.07687 0.0
H2680 H 0.06818 0.80336 0.08885 0.0
H2681 H 0.09307 0.79626 0.10129 0.0
H2682 H 0.08083 0.81422 0.13672 0.0
H2683 H 0.05569 0.82131 0.12438 0.0
H2684 H 0.07209 0.84178 0.13652 0.0
H2685 H 0.09402 0.8962 0.07626 0.0
H2686 H 0.06015 0.89583 0.05568 0.0
H2687 H 0.04459 0.83365 0.08262 0.0
C2688 C 0.12427 0.82785 0.11582 0.0
C2689 C 0.1446 0.83757 0.11411 0.0
C2690 C 0.14619 0.85901 0.10683 0.0
C2691 C 0.12782 0.87014 0.10005 0.0
C2692 C 0.10805 0.85967 0.10099 0.0
C2693 C 0.10619 0.83905 0.10899 0.0
C2694 C 0.08397 0.83007 0.10556 0.0
C2695 C 0.08464 0.80916 0.09235 0.0
C2696 C 0.07247 0.82666 0.12708 0.0
C2697 C 0.07396 0.84824 0.09308 0.0
C2698 C 0.08782 0.86545 0.09108 0.0
C2699 C 0.08284 0.88306 0.07819 0.0
C2700 C 0.06357 0.88273 0.06656 0.0
C2701 C 0.04977 0.86473 0.06768 0.0
C2702 C 0.05473 0.84773 0.0817 0.0
H2703 H 0.43697 0.92478 0.31399 0.0
H2704 H 0.41298 0.91648 0.37869 0.0
H2705 H 0.39345 0.88376 0.36718 0.0
H2706 H 0.38821 0.9057 0.28635 0.0
H2707 H 0.40363 0.89308 0.26542 0.0
H2708 H 0.41376 0.91675 0.27857 0.0
H2709 H 0.44864 0.89635 0.28827 0.0
H2710 H 0.43861 0.87265 0.27528 0.0
H2711 H 0.44692 0.87148 0.30292 0.0
H2712 H 0.38048 0.84942 0.3491 0.0
H2713 H 0.37347 0.81802 0.32569 0.0
H2714 H 0.40483 0.85073 0.27292 0.0
C2715 C 0.42733 0.91626 0.32567 0.0
C2716 C 0.42647 0.92297 0.3472 0.0
C2717 C 0.4137 0.91153 0.36206 0.0
C2718 C 0.4026 0.89298 0.35567 0.0
C2719 C 0.40418 0.88649 0.33432 0.0
C2720 C 0.41598 0.89804 0.3195 0.0
C2721 C 0.41598 0.88741 0.29777 0.0
C2722 C 0.40471 0.90158 0.28105 0.0
C2723 C 0.43889 0.88163 0.29066 0.0
C2724 C 0.40297 0.86762 0.30278 0.0
C2725 C 0.39619 0.86731 0.32388 0.0
C2726 C 0.38534 0.8497 0.33245 0.0
C2727 C 0.38148 0.83195 0.31909 0.0
C2728 C 0.38844 0.83209 0.29749 0.0
C2729 C 0.399 0.8503 0.28927 0.0
H2730 H 0.40354 0.12558 0.55906 0.0
H2731 H 0.4474 0.1435 0.60988 0.0
H2732 H 0.41667 0.14904 0.63433 0.0
H2733 H 0.36762 0.16431 0.56758 0.0
H2734 H 0.34393 0.14884 0.56168 0.0
H2735 H 0.36913 0.14136 0.55004 0.0
H2736 H 0.36553 0.10317 0.56612 0.0
H2737 H 0.34013 0.11052 0.57777 0.0
H2738 H 0.36117 0.09997 0.59451 0.0
H2739 H 0.38153 0.1595 0.65046 0.0
H2740 H 0.34519 0.17369 0.65699 0.0
H2741 H 0.32438 0.14849 0.59565 0.0
C2742 C 0.40672 0.12999 0.57555 0.0
C2743 C 0.42775 0.1341 0.58266 0.0
C2744 C 0.43135 0.14013 0.60421 0.0
C2745 C 0.414 0.14323 0.6182 0.0
C2746 C 0.39332 0.13987 0.61041 0.0
C2747 C 0.38965 0.13309 0.58962 0.0
C2748 C 0.36605 0.13327 0.58419 0.0
C2749 C 0.36143 0.14782 0.56474 0.0
C2750 C 0.35773 0.11037 0.58044 0.0
C2751 C 0.35708 0.14258 0.60466 0.0
C2752 C 0.37295 0.14581 0.6198 0.0
C2753 C 0.36888 0.15652 0.63898 0.0
C2754 C 0.34822 0.16459 0.64252 0.0
C2755 C 0.33202 0.16204 0.62685 0.0
C2756 C 0.33637 0.1503 0.60806 0.0
H2757 H 0.14349 0.1503 0.84455 0.0
H2758 H 0.10377 0.19587 0.87879 0.0
H2759 H 0.09115 0.16686 0.90257 0.0
H2760 H 0.10737 0.11282 0.83996 0.0
H2761 H 0.12432 0.08965 0.8433 0.0
H2762 H 0.13558 0.11434 0.83386 0.0
H2763 H 0.16308 0.11418 0.86494 0.0
H2764 H 0.15202 0.08918 0.87443 0.0
H2765 H 0.15385 0.11188 0.89224 0.0
H2766 H 0.07564 0.13269 0.91529 0.0
H2767 H 0.05957 0.09655 0.91669 0.0
H2768 H 0.10944 0.07263 0.87472 0.0
C2769 C 0.13294 0.15434 0.85773 0.0
C2770 C 0.12465 0.17529 0.85992 0.0
C2771 C 0.11047 0.17995 0.87698 0.0
C2772 C 0.10326 0.16355 0.89059 0.0
C2773 C 0.11064 0.1427 0.8871 0.0
C2774 C 0.12552 0.13813 0.87131 0.0
C2775 C 0.12819 0.11416 0.86833 0.0
C2776 C 0.12357 0.10737 0.845 0.0
C2777 C 0.15062 0.10693 0.87542 0.0
C2778 C 0.11119 0.10597 0.88358 0.0
C2779 C 0.10167 0.12265 0.89472 0.0
C2780 C 0.08345 0.11943 0.90726 0.0
C2781 C 0.07436 0.09887 0.90789 0.0
C2782 C 0.08348 0.08184 0.89601 0.0
C2783 C 0.10257 0.08527 0.88444 0.0
H2784 H 0.19077 0.37778 0.15135 0.0
H2785 H 0.12879 0.37461 0.18261 0.0
H2786 H 0.11105 0.3815 0.14772 0.0
H2787 H 0.18008 0.42116 0.12085 0.0
H2788 H 0.19516 0.41278 0.09767 0.0
H2789 H 0.20245 0.4031 0.12376 0.0
H2790 H 0.19877 0.36381 0.11058 0.0
H2791 H 0.1916 0.37339 0.08427 0.0
H2792 H 0.17412 0.35512 0.09828 0.0
H2793 H 0.10074 0.39402 0.11029 0.0
H2794 H 0.09901 0.41167 0.07469 0.0
H2795 H 0.16811 0.40743 0.06934 0.0
C2796 C 0.17342 0.3779 0.15079 0.0
C2797 C 0.16111 0.37559 0.16959 0.0
C2798 C 0.13848 0.37616 0.16829 0.0
C2799 C 0.12831 0.38003 0.14855 0.0
C2800 C 0.14104 0.38305 0.13038 0.0
C2801 C 0.16314 0.38183 0.13139 0.0
C2802 C 0.17348 0.38815 0.11044 0.0
C2803 C 0.18867 0.40744 0.11337 0.0
C2804 C 0.18518 0.36897 0.10029 0.0
C2805 C 0.15385 0.39415 0.09771 0.0
C2806 C 0.13521 0.39065 0.10919 0.0
C2807 C 0.11521 0.39647 0.10105 0.0
C2808 C 0.11436 0.40647 0.08086 0.0
C2809 C 0.13344 0.41086 0.0694 0.0
C2810 C 0.15328 0.40417 0.07777 0.0
H2811 H 0.65237 0.08914 0.80616 0.0
H2812 H 0.66148 0.15633 0.82164 0.0
H2813 H 0.64506 0.15027 0.85719 0.0
H2814 H 0.60197 0.07981 0.83908 0.0
H2815 H 0.61131 0.05356 0.84676 0.0
H2816 H 0.61822 0.06437 0.82085 0.0
H2817 H 0.65837 0.05826 0.82931 0.0
H2818 H 0.65174 0.04793 0.85535 0.0
H2819 H 0.66985 0.07033 0.85294 0.0
H2820 H 0.63405 0.13561 0.89297 0.0
H2821 H 0.62858 0.11379 0.92564 0.0
H2822 H 0.62868 0.05593 0.887 0.0
C2823 C 0.64998 0.10279 0.81663 0.0
C2824 C 0.65793 0.12325 0.81111 0.0
C2825 C 0.65522 0.14059 0.8255 0.0
C2826 C 0.64593 0.13727 0.84572 0.0
C2827 C 0.63943 0.11657 0.85119 0.0
C2828 C 0.64111 0.09966 0.83692 0.0
C2829 C 0.63604 0.07845 0.84759 0.0
C2830 C 0.61567 0.06847 0.838 0.0
C2831 C 0.65514 0.06285 0.84621 0.0
C2832 C 0.63228 0.08591 0.87032 0.0
C2833 C 0.63381 0.10798 0.87202 0.0
C2834 C 0.63241 0.11837 0.89176 0.0
C2835 C 0.62942 0.10586 0.91023 0.0
C2836 C 0.62825 0.08322 0.90878 0.0
C2837 C 0.62945 0.07323 0.88855 0.0
H2838 H 0.80909 0.87005 0.3597 0.0
H2839 H 0.86912 0.87015 0.32482 0.0
H2840 H 0.88897 0.87117 0.35918 0.0
H2841 H 0.82192 0.90693 0.39629 0.0
H2842 H 0.80823 0.89484 0.4187 0.0
H2843 H 0.79937 0.88937 0.39192 0.0
H2844 H 0.80374 0.84855 0.39871 0.0
H2845 H 0.81275 0.85396 0.42563 0.0
H2846 H 0.82913 0.83821 0.40778 0.0
H2847 H 0.90143 0.88031 0.39629 0.0
H2848 H 0.90525 0.8963 0.43232 0.0
H2849 H 0.83721 0.88773 0.44325 0.0
C2850 C 0.82643 0.86966 0.35935 0.0
C2851 C 0.83764 0.87009 0.33975 0.0
C2852 C 0.86029 0.86969 0.33976 0.0
C2853 C 0.87166 0.87017 0.35919 0.0
C2854 C 0.86008 0.87045 0.37834 0.0
C2855 C 0.83793 0.8698 0.37852 0.0
C2856 C 0.82909 0.87273 0.40089 0.0
C2857 C 0.81378 0.89212 0.402 0.0
C2858 C 0.81803 0.85213 0.40871 0.0
C2859 C 0.84961 0.87678 0.41309 0.0
C2860 C 0.86739 0.87495 0.39995 0.0
C2861 C 0.88773 0.8811 0.4069 0.0
C2862 C 0.88977 0.89017 0.4274 0.0
C2863 C 0.87155 0.89301 0.44061 0.0
C2864 C 0.8515 0.88522 0.43371 0.0
H2865 H 0.80451 0.12112 0.15268 0.0
H2866 H 0.85612 0.09663 0.19227 0.0
H2867 H 0.87638 0.08688 0.15968 0.0
H2868 H 0.80458 0.08063 0.11643 0.0
H2869 H 0.79883 0.09669 0.09309 0.0
H2870 H 0.79038 0.10567 0.11911 0.0
H2871 H 0.81091 0.14142 0.11371 0.0
H2872 H 0.81937 0.13257 0.08753 0.0
H2873 H 0.839 0.14087 0.10702 0.0
H2874 H 0.88791 0.07421 0.12365 0.0
H2875 H 0.89016 0.06002 0.08678 0.0
H2876 H 0.8314 0.09325 0.07035 0.0
C2877 C 0.82037 0.11433 0.15448 0.0
C2878 C 0.82883 0.1097 0.17495 0.0
C2879 C 0.84943 0.10042 0.1767 0.0
C2880 C 0.86107 0.0949 0.15829 0.0
C2881 C 0.85197 0.09902 0.1383 0.0
C2882 C 0.83217 0.10874 0.13628 0.0
C2883 C 0.82488 0.10922 0.11313 0.0
C2884 C 0.80341 0.09734 0.11029 0.0
C2885 C 0.82346 0.1324 0.10486 0.0
C2886 C 0.84313 0.09726 0.10258 0.0
C2887 C 0.85878 0.09184 0.11732 0.0
C2888 C 0.87606 0.0788 0.11186 0.0
C2889 C 0.87716 0.07075 0.09092 0.0
C2890 C 0.86106 0.07576 0.07575 0.0
C2891 C 0.84418 0.08963 0.08152 0.0
H2892 H 0.37305 0.56143 0.60073 0.0
H2893 H 0.3556 0.61482 0.55972 0.0
H2894 H 0.34606 0.63619 0.59179 0.0
H2895 H 0.33053 0.56524 0.634 0.0
H2896 H 0.34441 0.55781 0.65822 0.0
H2897 H 0.35418 0.54869 0.63274 0.0
H2898 H 0.39127 0.56567 0.64064 0.0
H2899 H 0.3816 0.57484 0.6663 0.0
H2900 H 0.39299 0.5937 0.64758 0.0
H2901 H 0.33329 0.64937 0.62765 0.0
H2902 H 0.31713 0.65269 0.66366 0.0
H2903 H 0.34242 0.59019 0.68074 0.0
C2904 C 0.36785 0.57786 0.5985 0.0
C2905 C 0.36517 0.58657 0.57782 0.0
C2906 C 0.3579 0.60794 0.5755 0.0
C2907 C 0.35255 0.6202 0.59361 0.0
C2908 C 0.35474 0.61084 0.61382 0.0
C2909 C 0.36234 0.59016 0.61632 0.0
C2910 C 0.36064 0.58271 0.63932 0.0
C2911 C 0.3466 0.56243 0.64116 0.0
C2912 C 0.38296 0.57902 0.64903 0.0
C2913 C 0.34986 0.60199 0.64923 0.0
C2914 C 0.34706 0.61828 0.63443 0.0
C2915 C 0.33578 0.63691 0.63947 0.0
C2916 C 0.32665 0.63865 0.65995 0.0
C2917 C 0.32862 0.6217 0.67494 0.0
C2918 C 0.3409 0.60349 0.66967 0.0
H2919 H 0.20733 0.57148 0.33221 0.0
H2920 H 0.18176 0.63618 0.3337 0.0
H2921 H 0.16414 0.62832 0.3684 0.0
H2922 H 0.1608 0.546 0.35276 0.0
H2923 H 0.17542 0.52628 0.36801 0.0
H2924 H 0.18699 0.53747 0.34405 0.0
H2925 H 0.2205 0.54939 0.36555 0.0
H2926 H 0.20909 0.53812 0.38956 0.0
H2927 H 0.21718 0.56588 0.38906 0.0
H2928 H 0.14893 0.61296 0.40272 0.0
H2929 H 0.13691 0.59117 0.43366 0.0
H2930 H 0.17159 0.53637 0.40843 0.0
C2931 C 0.19825 0.58409 0.33996 0.0
C2932 C 0.19601 0.60448 0.33044 0.0
C2933 C 0.18371 0.62047 0.34085 0.0
C2934 C 0.17367 0.61615 0.36051 0.0
C2935 C 0.176 0.59575 0.36936 0.0
C2936 C 0.18797 0.57999 0.35939 0.0
C2937 C 0.18734 0.55914 0.37174 0.0
C2938 C 0.17702 0.54117 0.35834 0.0
C2939 C 0.20987 0.55277 0.37944 0.0
C2940 C 0.17316 0.56561 0.39027 0.0
C2941 C 0.16685 0.5868 0.38871 0.0
C2942 C 0.15376 0.59634 0.4041 0.0
C2943 C 0.14701 0.58387 0.42157 0.0
C2944 C 0.15327 0.56211 0.42333 0.0
C2945 C 0.16646 0.55294 0.40743 0.0
H2946 H 0.37264 0.44724 0.89687 0.0
H2947 H 0.37578 0.38755 0.9324 0.0
H2948 H 0.3676 0.36742 0.89928 0.0
H2949 H 0.32899 0.43575 0.86823 0.0
H2950 H 0.33707 0.44833 0.84349 0.0
H2951 H 0.348 0.45755 0.86844 0.0
H2952 H 0.38652 0.45103 0.85436 0.0
H2953 H 0.37569 0.44195 0.82914 0.0
H2954 H 0.39374 0.42501 0.84403 0.0
H2955 H 0.35144 0.35491 0.86488 0.0
H2956 H 0.33083 0.35083 0.83129 0.0
H2957 H 0.33959 0.4185 0.81777 0.0
C2958 C 0.37237 0.42988 0.89749 0.0
C2959 C 0.37485 0.4189 0.91708 0.0
C2960 C 0.3741 0.39622 0.91745 0.0
C2961 C 0.36949 0.38467 0.89872 0.0
C2962 C 0.36614 0.39606 0.87978 0.0
C2963 C 0.36797 0.41816 0.87895 0.0
C2964 C 0.36126 0.42685 0.85734 0.0
C2965 C 0.34273 0.44305 0.85953 0.0
C2966 C 0.38045 0.43679 0.84552 0.0
C2967 C 0.35401 0.40636 0.8466 0.0
C2968 C 0.35728 0.38871 0.85964 0.0
C2969 C 0.3494 0.36848 0.85425 0.0
C2970 C 0.33763 0.36633 0.83523 0.0
C2971 C 0.33388 0.38432 0.82192 0.0
C2972 C 0.34268 0.40439 0.82743 0.0
H2973 H 0.59727 0.65865 0.96273 0.0
H2974 H 0.57766 0.61222 0.91479 0.0
H2975 H 0.6108 0.61981 0.89411 0.0
H2976 H 0.61759 0.69694 0.92644 0.0
H2977 H 0.63924 0.70515 0.94371 0.0
H2978 H 0.61486 0.69481 0.95514 0.0
H2979 H 0.63648 0.66577 0.9756 0.0
H2980 H 0.66096 0.67609 0.96431 0.0
H2981 H 0.65412 0.6482 0.96091 0.0
H2982 H 0.6464 0.63348 0.87858 0.0
H2983 H 0.68007 0.6526 0.8693 0.0
H2984 H 0.67419 0.69061 0.92724 0.0
C2985 C 0.60002 0.64984 0.94801 0.0
C2986 C 0.58504 0.63473 0.94041 0.0
C2987 C 0.58906 0.6238 0.92092 0.0
C2988 C 0.6078 0.628 0.90911 0.0
C2989 C 0.62216 0.64324 0.91702 0.0
C2990 C 0.61837 0.65398 0.93603 0.0
C2991 C 0.63558 0.6703 0.94077 0.0
C2992 C 0.62626 0.69314 0.94155 0.0
C2993 C 0.64749 0.66474 0.96163 0.0
C2994 C 0.64972 0.66719 0.92142 0.0
C2995 C 0.64194 0.65143 0.90792 0.0
C2996 C 0.6526 0.64586 0.88904 0.0
C2997 C 0.67166 0.65676 0.8839 0.0
C2998 C 0.67959 0.67313 0.8975 0.0
C2999 C 0.66843 0.67828 0.91644 0.0
H3000 H 0.62472 0.3186 0.16556 0.0
H3001 H 0.57549 0.28102 0.1341 0.0
H3002 H 0.56465 0.31283 0.11325 0.0
H3003 H 0.59443 0.36087 0.17537 0.0
H3004 H 0.61417 0.38158 0.17119 0.0
H3005 H 0.62254 0.35509 0.17869 0.0
H3006 H 0.6469 0.35288 0.14514 0.0
H3007 H 0.6388 0.37961 0.13761 0.0
H3008 H 0.6357 0.35774 0.11896 0.0
H3009 H 0.55354 0.34917 0.10294 0.0
H3010 H 0.54339 0.38737 0.1032 0.0
H3011 H 0.59957 0.40234 0.14112 0.0
C3012 C 0.61239 0.31685 0.15348 0.0
C3013 C 0.6011 0.29734 0.15119 0.0
C3014 C 0.58448 0.29578 0.13588 0.0
C3015 C 0.57828 0.31376 0.12393 0.0
C3016 C 0.58893 0.33313 0.12742 0.0
C3017 C 0.60585 0.33475 0.14164 0.0
C3018 C 0.61222 0.35798 0.14513 0.0
C3019 C 0.61073 0.36423 0.169 0.0
C3020 C 0.63474 0.36231 0.13617 0.0
C3021 C 0.59528 0.36923 0.13188 0.0
C3022 C 0.58236 0.35455 0.12136 0.0
C3023 C 0.56391 0.36084 0.1105 0.0
C3024 C 0.55821 0.38254 0.11084 0.0
C3025 C 0.5709 0.39771 0.12193 0.0
C3026 C 0.59002 0.39109 0.13198 0.0
H3027 H 0.84177 0.33375 0.34776 0.0
H3028 H 0.79957 0.38375 0.37098 0.0
H3029 H 0.83102 0.40579 0.38075 0.0
H3030 H 0.87632 0.33458 0.38741 0.0
H3031 H 0.90044 0.33012 0.37216 0.0
H3032 H 0.87521 0.32115 0.36183 0.0
H3033 H 0.88136 0.34315 0.3271 0.0
H3034 H 0.90682 0.35219 0.33736 0.0
H3035 H 0.88705 0.37146 0.32886 0.0
H3036 H 0.8657 0.4172 0.39672 0.0
H3037 H 0.90057 0.41784 0.41545 0.0
H3038 H 0.92081 0.36198 0.37947 0.0
C3039 C 0.83922 0.34972 0.35411 0.0
C3040 C 0.8184 0.35714 0.35865 0.0
C3041 C 0.81548 0.37793 0.36721 0.0
C3042 C 0.83325 0.39056 0.37275 0.0
C3043 C 0.85371 0.38234 0.36903 0.0
C3044 C 0.85676 0.36257 0.3594 0.0
C3045 C 0.88008 0.35604 0.3597 0.0
C3046 C 0.88317 0.33421 0.37096 0.0
C3047 C 0.88938 0.3557 0.33689 0.0
C3048 C 0.88943 0.37428 0.37265 0.0
C3049 C 0.87409 0.38955 0.37752 0.0
C3050 C 0.87807 0.40586 0.39233 0.0
C3051 C 0.89788 0.40609 0.40295 0.0
C3052 C 0.91341 0.39017 0.39858 0.0
C3053 C 0.90946 0.37475 0.38255 0.0
H3054 H 0.92191 0.67178 0.67879 0.0
H3055 H 0.85971 0.68061 0.64913 0.0
H3056 H 0.86429 0.6462 0.62959 0.0
H3057 H 0.94835 0.64744 0.63275 0.0
H3058 H 0.96374 0.62952 0.64938 0.0
H3059 H 0.95585 0.65541 0.6595 0.0
H3060 H 0.9377 0.63709 0.69216 0.0
H3061 H 0.94546 0.61119 0.68213 0.0
H3062 H 0.91767 0.61673 0.68768 0.0
H3063 H 0.87511 0.60891 0.61569 0.0
H3064 H 0.89144 0.57334 0.60821 0.0
H3065 H 0.94641 0.59089 0.64696 0.0
C3066 C 0.90931 0.66664 0.66801 0.0
C3067 C 0.89045 0.67874 0.66545 0.0
C3068 C 0.87433 0.67151 0.65121 0.0
C3069 C 0.87681 0.65203 0.64009 0.0
C3070 C 0.89556 0.64027 0.64329 0.0
C3071 C 0.91158 0.64749 0.6568 0.0
C3072 C 0.92987 0.63178 0.65828 0.0
C3073 C 0.95068 0.64163 0.64944 0.0
C3074 C 0.93283 0.62373 0.68143 0.0
C3075 C 0.92155 0.6143 0.64382 0.0
C3076 C 0.9018 0.61936 0.63519 0.0
C3077 C 0.89069 0.60492 0.62217 0.0
C3078 C 0.90003 0.5848 0.61802 0.0
C3079 C 0.92019 0.57946 0.62693 0.0
C3080 C 0.93105 0.59455 0.63976 0.0
H3081 H 0.58552 0.32937 0.55218 0.0
H3082 H 0.57687 0.37491 0.60404 0.0
H3083 H 0.61199 0.36402 0.61923 0.0
H3084 H 0.61188 0.28775 0.58365 0.0
H3085 H 0.62935 0.28046 0.56182 0.0
H3086 H 0.60304 0.29097 0.55633 0.0
H3087 H 0.61991 0.32078 0.53271 0.0
H3088 H 0.64625 0.31051 0.53825 0.0
H3089 H 0.64005 0.33815 0.54401 0.0
H3090 H 0.64965 0.34984 0.62667 0.0
H3091 H 0.68534 0.33242 0.62681 0.0
H3092 H 0.66775 0.29617 0.57011 0.0
C3093 C 0.59087 0.33692 0.56688 0.0
C3094 C 0.57863 0.353 0.57696 0.0
C3095 C 0.58608 0.36247 0.59617 0.0
C3096 C 0.60597 0.35642 0.60485 0.0
C3097 C 0.61788 0.34076 0.59418 0.0
C3098 C 0.61042 0.331 0.57574 0.0
C3099 C 0.62631 0.31511 0.56682 0.0
C3100 C 0.6171 0.29222 0.56719 0.0
C3101 C 0.63356 0.32154 0.54411 0.0
C3102 C 0.64417 0.31769 0.58286 0.0
C3103 C 0.6391 0.33248 0.59858 0.0
C3104 C 0.65367 0.33806 0.61458 0.0
C3105 C 0.67388 0.32817 0.61449 0.0
C3106 C 0.67919 0.31293 0.59851 0.0
C3107 C 0.66408 0.30764 0.58262 0.0
H3108 H 0.89956 0.32543 0.81961 0.0
H3109 H 0.93942 0.32178 0.7626 0.0
H3110 H 0.95273 0.35821 0.76946 0.0
H3111 H 0.88521 0.38131 0.81384 0.0
H3112 H 0.88633 0.38707 0.84213 0.0
H3113 H 0.87966 0.36044 0.83308 0.0
H3114 H 0.91073 0.34475 0.85569 0.0
H3115 H 0.91741 0.37131 0.86491 0.0
H3116 H 0.9375 0.35501 0.85204 0.0
H3117 H 0.96188 0.39423 0.78181 0.0
H3118 H 0.96757 0.42867 0.79999 0.0
H3119 H 0.92194 0.41038 0.84935 0.0
C3120 C 0.91115 0.33232 0.80867 0.0
C3121 C 0.91847 0.3208 0.79057 0.0
C3122 C 0.93358 0.33031 0.77655 0.0
C3123 C 0.94122 0.35102 0.78027 0.0
C3124 C 0.93359 0.36202 0.79807 0.0
C3125 C 0.91898 0.35312 0.81213 0.0
C3126 C 0.91366 0.36865 0.83011 0.0
C3127 C 0.8898 0.37472 0.82976 0.0
C3128 C 0.92022 0.35937 0.85198 0.0
C3129 C 0.92768 0.38756 0.8239 0.0
C3130 C 0.93893 0.38326 0.80531 0.0
C3131 C 0.95319 0.39786 0.79637 0.0
C3132 C 0.95631 0.41736 0.80686 0.0
C3133 C 0.94521 0.42215 0.82608 0.0
C3134 C 0.93051 0.40715 0.8346 0.0
H3135 H 0.8671 0.69086 0.12916 0.0
H3136 H 0.81863 0.64189 0.11993 0.0
H3137 H 0.84693 0.61482 0.11447 0.0
H3138 H 0.8998 0.67611 0.08959 0.0
H3139 H 0.92485 0.68132 0.103 0.0
H3140 H 0.90118 0.69552 0.11099 0.0
H3141 H 0.9063 0.68227 0.15007 0.0
H3142 H 0.93009 0.66793 0.14209 0.0
H3143 H 0.90859 0.65393 0.1554 0.0
H3144 H 0.87906 0.596 0.10092 0.0
H3145 H 0.91295 0.58635 0.0828 0.0
H3146 H 0.94134 0.64606 0.10392 0.0
C3147 C 0.86251 0.67428 0.12672 0.0
C3148 C 0.84078 0.6684 0.12493 0.0
C3149 C 0.83525 0.64666 0.12148 0.0
C3150 C 0.85121 0.63117 0.11845 0.0
C3151 C 0.87257 0.63762 0.11947 0.0
C3152 C 0.87826 0.6586 0.12398 0.0
C3153 C 0.90217 0.66195 0.12176 0.0
C3154 C 0.90728 0.67976 0.10536 0.0
C3155 C 0.91239 0.6668 0.14364 0.0
C3156 C 0.90881 0.64007 0.11367 0.0
C3157 C 0.89155 0.62613 0.11277 0.0
C3158 C 0.89291 0.60636 0.10238 0.0
C3159 C 0.91214 0.601 0.09211 0.0
C3160 C 0.92975 0.61522 0.09266 0.0
C3161 C 0.92833 0.63455 0.10423 0.0
H3162 H 0.60432 0.67729 0.33384 0.0
H3163 H 0.5918 0.67226 0.26551 0.0
H3164 H 0.57858 0.63552 0.27052 0.0
H3165 H 0.62193 0.62162 0.34095 0.0
H3166 H 0.60937 0.61873 0.36682 0.0
H3167 H 0.61872 0.64467 0.35811 0.0
H3168 H 0.58084 0.66052 0.36415 0.0
H3169 H 0.5714 0.63467 0.37295 0.0
H3170 H 0.55812 0.64825 0.35118 0.0
H3171 H 0.5649 0.60075 0.28243 0.0
H3172 H 0.55143 0.56865 0.30103 0.0
H3173 H 0.57352 0.59438 0.3618 0.0
C3174 C 0.59887 0.66837 0.31998 0.0
C3175 C 0.59908 0.67763 0.29929 0.0
C3176 C 0.59182 0.66551 0.28151 0.0
C3177 C 0.58431 0.64459 0.28416 0.0
C3178 C 0.58429 0.63591 0.30467 0.0
C3179 C 0.5914 0.64726 0.32231 0.0
C3180 C 0.58909 0.634 0.34261 0.0
C3181 C 0.61109 0.62949 0.35271 0.0
C3182 C 0.57396 0.64502 0.35867 0.0
C3183 C 0.57921 0.61368 0.33356 0.0
C3184 C 0.57669 0.61523 0.3116 0.0
C3185 C 0.56697 0.59918 0.29958 0.0
C3186 C 0.55933 0.58106 0.31029 0.0
C3187 C 0.5616 0.57906 0.33276 0.0
C3188 C 0.57195 0.59542 0.34454 0.0
H3189 H 0.65151 0.95634 0.59993 0.0
H3190 H 0.62285 0.89778 0.57565 0.0
H3191 H 0.62721 0.8809 0.61134 0.0
H3192 H 0.69137 0.93161 0.63016 0.0
H3193 H 0.69066 0.95091 0.65167 0.0
H3194 H 0.68297 0.95881 0.62506 0.0
H3195 H 0.64624 0.9718 0.63954 0.0
H3196 H 0.6538 0.96379 0.66625 0.0
H3197 H 0.62953 0.9535 0.65444 0.0
H3198 H 0.63708 0.86984 0.64929 0.0
H3199 H 0.65389 0.86486 0.68495 0.0
H3200 H 0.67634 0.93069 0.68331 0.0
C3201 C 0.64585 0.94007 0.60218 0.0
C3202 C 0.63676 0.92837 0.58512 0.0
C3203 C 0.62983 0.90701 0.58859 0.0
C3204 C 0.63213 0.89736 0.60881 0.0
C3205 C 0.64133 0.90934 0.6253 0.0
C3206 C 0.64812 0.93022 0.62212 0.0
C3207 C 0.65903 0.93916 0.64179 0.0
C3208 C 0.68239 0.94548 0.63687 0.0
C3209 C 0.64639 0.95819 0.65105 0.0
C3210 C 0.65787 0.91988 0.65639 0.0
C3211 C 0.64728 0.90292 0.64682 0.0
C3212 C 0.64521 0.88309 0.65701 0.0
C3213 C 0.65471 0.88041 0.67726 0.0
C3214 C 0.66633 0.89741 0.6868 0.0
C3215 C 0.66744 0.91746 0.67641 0.0
loop_
_geom_bond_atom_site_label_1
_geom_bond_atom_site_label_2
_geom_bond_distance
_geom_bond_site_symmetry_2
_ccdc_geom_bond_type
In0 O1 2.294 . S
In0 O2 2.326 . S
In0 O6 2.266 . S
In0 O7 2.326 . S
In0 O8 2.266 . S
In0 O9 2.326 . S
In0 O11 2.294 . S
In0 O12 2.326 . S
O1 In0 2.294 . S
O1 C10 1.240 . S
O2 In0 2.326 . S
O2 C10 1.252 . S
C3 O6 1.252 . S
C3 O7 1.260 . S
C4 O11 1.240 . S
C4 O12 1.252 . S
C5 O8 1.252 . S
C5 O9 1.260 . S
O6 In0 2.266 . S
O6 C3 1.252 . S
O7 In0 2.326 . S
O7 C3 1.260 . S
O8 In0 2.266 . S
O8 C5 1.252 . S
O9 In0 2.326 . S
O9 C5 1.260 . S
C10 O1 1.240 . S
C10 O2 1.252 . S
O11 In0 2.294 . S
O11 C4 1.240 . S
O12 In0 2.326 . S
O12 C4 1.252 . S
In13 O14 2.294 . S
In13 O15 2.326 . S
In13 O19 2.266 . S
In13 O20 2.326 1_565 S
In13 O21 2.266 1_455 S
In13 O22 2.326 . S
In13 O24 2.294 . S
In13 O25 2.326 . S
O14 In13 2.294 . S
O14 C23 1.240 . S
O15 In13 2.326 . S
O15 C23 1.252 . S
C16 O19 1.252 1_545 S
C16 O20 1.260 . S
C17 O24 1.240 . S
C17 O25 1.252 . S
C18 O21 1.252 1_455 S
C18 O22 1.260 . S
O19 In13 2.266 . S
O19 C16 1.252 1_565 S
O20 In13 2.326 1_545 S
O20 C16 1.260 . S
O21 In13 2.266 1_655 S
O21 C18 1.252 1_655 S
O22 In13 2.326 . S
O22 C18 1.260 . S
C23 O14 1.240 . S
C23 O15 1.252 . S
O24 In13 2.294 . S
O24 C17 1.240 . S
O25 In13 2.326 . S
O25 C17 1.252 . S
In26 O27 2.294 . S
In26 O28 2.326 . S
In26 O32 2.266 . S
In26 O33 2.326 . S
In26 O34 2.266 . S
In26 O35 2.326 . S
In26 O37 2.294 . S
In26 O38 2.326 . S
O27 In26 2.294 . S
O27 C36 1.240 . S
O28 In26 2.326 . S
O28 C36 1.252 . S
C29 O32 1.252 . S
C29 O33 1.260 . S
C30 O37 1.240 . S
C30 O38 1.252 . S
C31 O34 1.252 . S
C31 O35 1.260 . S
O32 In26 2.266 . S
O32 C29 1.252 . S
O33 In26 2.326 . S
O33 C29 1.260 . S
O34 In26 2.266 . S
O34 C31 1.252 . S
O35 In26 2.326 . S
O35 C31 1.260 . S
C36 O27 1.240 . S
C36 O28 1.252 . S
O37 In26 2.294 . S
O37 C30 1.240 . S
O38 In26 2.326 . S
O38 C30 1.252 . S
In39 O40 2.294 . S
In39 O41 2.326 . S
In39 O45 2.266 . S
In39 O46 2.326 1_545 S
In39 O47 2.266 . S
In39 O48 2.326 . S
In39 O50 2.294 . S
In39 O51 2.326 . S
O40 In39 2.294 . S
O40 C49 1.240 . S
O41 In39 2.326 . S
O41 C49 1.252 . S
C42 O45 1.252 1_565 S
C42 O46 1.260 . S
C43 O50 1.240 . S
C43 O51 1.252 . S
C44 O47 1.252 . S
C44 O48 1.260 . S
O45 In39 2.266 . S
O45 C42 1.252 1_545 S
O46 In39 2.326 1_565 S
O46 C42 1.260 . S
O47 In39 2.266 . S
O47 C44 1.252 . S
O48 In39 2.326 . S
O48 C44 1.260 . S
C49 O40 1.240 . S
C49 O41 1.252 . S
O50 In39 2.294 . S
O50 C43 1.240 . S
O51 In39 2.326 . S
O51 C43 1.252 . S
In52 O53 2.294 . S
In52 O54 2.326 . S
In52 O58 2.266 . S
In52 O59 2.326 . S
In52 O60 2.266 . S
In52 O61 2.326 . S
In52 O63 2.294 . S
In52 O64 2.326 . S
O53 In52 2.294 . S
O53 C62 1.240 . S
O54 In52 2.326 . S
O54 C62 1.252 . S
C55 O58 1.252 . S
C55 O59 1.260 . S
C56 O63 1.240 . S
C56 O64 1.252 . S
C57 O60 1.252 . S
C57 O61 1.260 . S
O58 In52 2.266 . S
O58 C55 1.252 . S
O59 In52 2.326 . S
O59 C55 1.260 . S
O60 In52 2.266 . S
O60 C57 1.252 . S
O61 In52 2.326 . S
O61 C57 1.260 . S
C62 O53 1.240 . S
C62 O54 1.252 . S
O63 In52 2.294 . S
O63 C56 1.240 . S
O64 In52 2.326 . S
O64 C56 1.252 . S
In65 O66 2.294 . S
In65 O67 2.326 . S
In65 O71 2.266 . S
In65 O72 2.326 1_565 S
In65 O73 2.266 . S
In65 O74 2.326 . S
In65 O76 2.294 . S
In65 O77 2.326 . S
O66 In65 2.294 . S
O66 C75 1.240 . S
O67 In65 2.326 . S
O67 C75 1.252 . S
C68 O71 1.252 1_545 S
C68 O72 1.260 . S
C69 O76 1.240 . S
C69 O77 1.252 . S
C70 O73 1.252 . S
C70 O74 1.260 . S
O71 In65 2.266 . S
O71 C68 1.252 1_565 S
O72 In65 2.326 1_545 S
O72 C68 1.260 . S
O73 In65 2.266 . S
O73 C70 1.252 . S
O74 In65 2.326 . S
O74 C70 1.260 . S
C75 O66 1.240 . S
C75 O67 1.252 . S
O76 In65 2.294 . S
O76 C69 1.240 . S
O77 In65 2.326 . S
O77 C69 1.252 . S
In78 O79 2.294 . S
In78 O80 2.326 . S
In78 O84 2.266 . S
In78 O85 2.326 . S
In78 O86 2.266 . S
In78 O87 2.326 . S
In78 O89 2.294 . S
In78 O90 2.326 . S
O79 In78 2.294 . S
O79 C88 1.240 . S
O80 In78 2.326 . S
O80 C88 1.252 . S
C81 O84 1.252 . S
C81 O85 1.260 . S
C82 O89 1.240 . S
C82 O90 1.252 . S
C83 O86 1.252 . S
C83 O87 1.260 . S
O84 In78 2.266 . S
O84 C81 1.252 . S
O85 In78 2.326 . S
O85 C81 1.260 . S
O86 In78 2.266 . S
O86 C83 1.252 . S
O87 In78 2.326 . S
O87 C83 1.260 . S
C88 O79 1.240 . S
C88 O80 1.252 . S
O89 In78 2.294 . S
O89 C82 1.240 . S
O90 In78 2.326 . S
O90 C82 1.252 . S
In91 O92 2.294 . S
In91 O93 2.326 . S
In91 O97 2.266 1_455 S
In91 O98 2.326 . S
In91 O99 2.266 . S
In91 O100 2.326 1_545 S
In91 O102 2.294 . S
In91 O103 2.326 . S
O92 In91 2.294 . S
O92 C101 1.240 . S
O93 In91 2.326 . S
O93 C101 1.252 . S
C94 O97 1.252 1_455 S
C94 O98 1.260 . S
C95 O102 1.240 . S
C95 O103 1.252 . S
C96 O99 1.252 1_565 S
C96 O100 1.260 . S
O97 In91 2.266 1_655 S
O97 C94 1.252 1_655 S
O98 In91 2.326 . S
O98 C94 1.260 . S
O99 In91 2.266 . S
O99 C96 1.252 1_545 S
O100 In91 2.326 1_565 S
O100 C96 1.260 . S
C101 O92 1.240 . S
C101 O93 1.252 . S
O102 In91 2.294 . S
O102 C95 1.240 . S
O103 In91 2.326 . S
O103 C95 1.252 . S
In104 O105 2.294 . S
In104 O106 2.326 . S
In104 O110 2.266 . S
In104 O111 2.326 . S
In104 O112 2.266 . S
In104 O113 2.326 . S
In104 O115 2.294 . S
In104 O116 2.326 . S
O105 In104 2.294 . S
O105 C114 1.240 . S
O106 In104 2.326 . S
O106 C114 1.252 . S
C107 O110 1.252 . S
C107 O111 1.260 . S
C108 O115 1.240 . S
C108 O116 1.252 . S
C109 O112 1.252 . S
C109 O113 1.260 . S
O110 In104 2.266 . S
O110 C107 1.252 . S
O111 In104 2.326 . S
O111 C107 1.260 . S
O112 In104 2.266 . S
O112 C109 1.252 . S
O113 In104 2.326 . S
O113 C109 1.260 . S
C114 O105 1.240 . S
C114 O106 1.252 . S
O115 In104 2.294 . S
O115 C108 1.240 . S
O116 In104 2.326 . S
O116 C108 1.252 . S
In117 O118 2.294 . S
In117 O119 2.326 . S
In117 O123 2.266 . S
In117 O124 2.326 . S
In117 O125 2.266 . S
In117 O126 2.326 1_455 S
In117 O128 2.294 . S
In117 O129 2.326 . S
O118 In117 2.294 . S
O118 C127 1.240 . S
O119 In117 2.326 . S
O119 C127 1.252 . S
C120 O123 1.252 . S
C120 O124 1.260 . S
C121 O128 1.240 . S
C121 O129 1.252 . S
C122 O125 1.252 1_655 S
C122 O126 1.260 . S
O123 In117 2.266 . S
O123 C120 1.252 . S
O124 In117 2.326 . S
O124 C120 1.260 . S
O125 In117 2.266 . S
O125 C122 1.252 1_455 S
O126 In117 2.326 1_655 S
O126 C122 1.260 . S
C127 O118 1.240 . S
C127 O119 1.252 . S
O128 In117 2.294 . S
O128 C121 1.240 . S
O129 In117 2.326 . S
O129 C121 1.252 . S
In130 O131 2.294 . S
In130 O132 2.326 . S
In130 O136 2.266 . S
In130 O137 2.326 . S
In130 O138 2.266 . S
In130 O139 2.326 . S
In130 O141 2.294 . S
In130 O142 2.326 . S
O131 In130 2.294 . S
O131 C140 1.240 . S
O132 In130 2.326 . S
O132 C140 1.252 . S
C133 O136 1.252 . S
C133 O137 1.260 . S
C134 O141 1.240 . S
C134 O142 1.252 . S
C135 O138 1.252 . S
C135 O139 1.260 . S
O136 In130 2.266 . S
O136 C133 1.252 . S
O137 In130 2.326 . S
O137 C133 1.260 . S
O138 In130 2.266 . S
O138 C135 1.252 . S
O139 In130 2.326 . S
O139 C135 1.260 . S
C140 O131 1.240 . S
C140 O132 1.252 . S
O141 In130 2.294 . S
O141 C134 1.240 . S
O142 In130 2.326 . S
O142 C134 1.252 . S
In143 O144 2.294 . S
In143 O145 2.326 . S
In143 O149 2.266 . S
In143 O150 2.326 . S
In143 O151 2.266 1_556 S
In143 O152 2.326 . S
In143 O154 2.294 . S
In143 O155 2.326 . S
O144 In143 2.294 . S
O144 C153 1.240 . S
O145 In143 2.326 . S
O145 C153 1.252 . S
C146 O149 1.252 . S
C146 O150 1.260 . S
C147 O154 1.240 . S
C147 O155 1.252 . S
C148 O151 1.252 1_556 S
C148 O152 1.260 . S
O149 In143 2.266 . S
O149 C146 1.252 . S
O150 In143 2.326 . S
O150 C146 1.260 . S
O151 In143 2.266 1_554 S
O151 C148 1.252 1_554 S
O152 In143 2.326 . S
O152 C148 1.260 . S
C153 O144 1.240 . S
C153 O145 1.252 . S
O154 In143 2.294 . S
O154 C147 1.240 . S
O155 In143 2.326 . S
O155 C147 1.252 . S
In156 O157 2.294 . S
In156 O158 2.326 . S
In156 O162 2.266 . S
In156 O163 2.326 . S
In156 O164 2.266 . S
In156 O165 2.326 . S
In156 O167 2.294 . S
In156 O168 2.326 . S
O157 In156 2.294 . S
O157 C166 1.240 . S
O158 In156 2.326 . S
O158 C166 1.252 . S
C159 O162 1.252 . S
C159 O163 1.260 . S
C160 O167 1.240 . S
C160 O168 1.252 . S
C161 O164 1.252 . S
C161 O165 1.260 . S
O162 In156 2.266 . S
O162 C159 1.252 . S
O163 In156 2.326 . S
O163 C159 1.260 . S
O164 In156 2.266 . S
O164 C161 1.252 . S
O165 In156 2.326 . S
O165 C161 1.260 . S
C166 O157 1.240 . S
C166 O158 1.252 . S
O167 In156 2.294 . S
O167 C160 1.240 . S
O168 In156 2.326 . S
O168 C160 1.252 . S
In169 O170 2.294 . S
In169 O171 2.326 . S
In169 O175 2.266 . S
In169 O176 2.326 . S
In169 O177 2.266 . S
In169 O178 2.326 . S
In169 O180 2.294 . S
In169 O181 2.326 . S
O170 In169 2.294 . S
O170 C179 1.240 . S
O171 In169 2.326 . S
O171 C179 1.252 . S
C172 O175 1.252 . S
C172 O176 1.260 . S
C173 O180 1.240 . S
C173 O181 1.252 . S
C174 O177 1.252 . S
C174 O178 1.260 . S
O175 In169 2.266 . S
O175 C172 1.252 . S
O176 In169 2.326 . S
O176 C172 1.260 . S
O177 In169 2.266 . S
O177 C174 1.252 . S
O178 In169 2.326 . S
O178 C174 1.260 . S
C179 O170 1.240 . S
C179 O171 1.252 . S
O180 In169 2.294 . S
O180 C173 1.240 . S
O181 In169 2.326 . S
O181 C173 1.252 . S
In182 O183 2.294 . S
In182 O184 2.326 . S
In182 O188 2.266 . S
In182 O189 2.326 . S
In182 O190 2.266 . S
In182 O191 2.326 . S
In182 O193 2.294 . S
In182 O194 2.326 . S
O183 In182 2.294 . S
O183 C192 1.240 . S
O184 In182 2.326 . S
O184 C192 1.252 . S
C185 O188 1.252 . S
C185 O189 1.260 . S
C186 O193 1.240 . S
C186 O194 1.252 . S
C187 O190 1.252 . S
C187 O191 1.260 . S
O188 In182 2.266 . S
O188 C185 1.252 . S
O189 In182 2.326 . S
O189 C185 1.260 . S
O190 In182 2.266 . S
O190 C187 1.252 . S
O191 In182 2.326 . S
O191 C187 1.260 . S
C192 O183 1.240 . S
C192 O184 1.252 . S
O193 In182 2.294 . S
O193 C186 1.240 . S
O194 In182 2.326 . S
O194 C186 1.252 . S
In195 O196 2.294 . S
In195 O197 2.326 . S
In195 O201 2.266 . S
In195 O202 2.326 1_455 S
In195 O203 2.266 1_554 S
In195 O204 2.326 . S
In195 O206 2.294 . S
In195 O207 2.326 . S
O196 In195 2.294 . S
O196 C205 1.240 . S
O197 In195 2.326 . S
O197 C205 1.252 . S
C198 O201 1.252 1_655 S
C198 O202 1.260 . S
C199 O206 1.240 . S
C199 O207 1.252 . S
C200 O203 1.252 1_554 S
C200 O204 1.260 . S
O201 In195 2.266 . S
O201 C198 1.252 1_455 S
O202 In195 2.326 1_655 S
O202 C198 1.260 . S
O203 In195 2.266 1_556 S
O203 C200 1.252 1_556 S
O204 In195 2.326 . S
O204 C200 1.260 . S
C205 O196 1.240 . S
C205 O197 1.252 . S
O206 In195 2.294 . S
O206 C199 1.240 . S
O207 In195 2.326 . S
O207 C199 1.252 . S
In208 O209 2.294 . S
In208 O210 2.326 . S
In208 O214 2.266 . S
In208 O215 2.326 . S
In208 O216 2.266 . S
In208 O217 2.326 . S
In208 O219 2.294 . S
In208 O220 2.326 . S
O209 In208 2.294 . S
O209 C218 1.240 . S
O210 In208 2.326 . S
O210 C218 1.252 . S
C211 O214 1.252 . S
C211 O215 1.260 . S
C212 O219 1.240 . S
C212 O220 1.252 . S
C213 O216 1.252 . S
C213 O217 1.260 . S
O214 In208 2.266 . S
O214 C211 1.252 . S
O215 In208 2.326 . S
O215 C211 1.260 . S
O216 In208 2.266 . S
O216 C213 1.252 . S
O217 In208 2.326 . S
O217 C213 1.260 . S
C218 O209 1.240 . S
C218 O210 1.252 . S
O219 In208 2.294 . S
O219 C212 1.240 . S
O220 In208 2.326 . S
O220 C212 1.252 . S
In221 O222 2.294 . S
In221 O223 2.326 . S
In221 O227 2.266 . S
In221 O228 2.326 . S
In221 O229 2.266 . S
In221 O230 2.326 . S
In221 O232 2.294 . S
In221 O233 2.326 . S
O222 In221 2.294 . S
O222 C231 1.240 . S
O223 In221 2.326 . S
O223 C231 1.252 . S
C224 O227 1.252 . S
C224 O228 1.260 . S
C225 O232 1.240 . S
C225 O233 1.252 . S
C226 O229 1.252 . S
C226 O230 1.260 . S
O227 In221 2.266 . S
O227 C224 1.252 . S
O228 In221 2.326 . S
O228 C224 1.260 . S
O229 In221 2.266 . S
O229 C226 1.252 . S
O230 In221 2.326 . S
O230 C226 1.260 . S
C231 O222 1.240 . S
C231 O223 1.252 . S
O232 In221 2.294 . S
O232 C225 1.240 . S
O233 In221 2.326 . S
O233 C225 1.252 . S
In234 O235 2.294 . S
In234 O236 2.326 . S
In234 O240 2.266 . S
In234 O241 2.326 . S
In234 O242 2.266 . S
In234 O243 2.326 1_554 S
In234 O245 2.294 . S
In234 O246 2.326 . S
O235 In234 2.294 . S
O235 C244 1.240 . S
O236 In234 2.326 . S
O236 C244 1.252 . S
C237 O240 1.252 . S
C237 O241 1.260 . S
C238 O245 1.240 . S
C238 O246 1.252 . S
C239 O242 1.252 1_556 S
C239 O243 1.260 . S
O240 In234 2.266 . S
O240 C237 1.252 . S
O241 In234 2.326 . S
O241 C237 1.260 . S
O242 In234 2.266 . S
O242 C239 1.252 1_554 S
O243 In234 2.326 1_556 S
O243 C239 1.260 . S
C244 O235 1.240 . S
C244 O236 1.252 . S
O245 In234 2.294 . S
O245 C238 1.240 . S
O246 In234 2.326 . S
O246 C238 1.252 . S
In247 O248 2.294 . S
In247 O249 2.326 . S
In247 O253 2.266 . S
In247 O254 2.326 . S
In247 O255 2.266 . S
In247 O256 2.326 . S
In247 O258 2.294 . S
In247 O259 2.326 . S
O248 In247 2.294 . S
O248 C257 1.240 . S
O249 In247 2.326 . S
O249 C257 1.252 . S
C250 O253 1.252 . S
C250 O254 1.260 . S
C251 O258 1.240 . S
C251 O259 1.252 . S
C252 O255 1.252 . S
C252 O256 1.260 . S
O253 In247 2.266 . S
O253 C250 1.252 . S
O254 In247 2.326 . S
O254 C250 1.260 . S
O255 In247 2.266 . S
O255 C252 1.252 . S
O256 In247 2.326 . S
O256 C252 1.260 . S
C257 O248 1.240 . S
C257 O249 1.252 . S
O258 In247 2.294 . S
O258 C251 1.240 . S
O259 In247 2.326 . S
O259 C251 1.252 . S
In260 O261 2.294 . S
In260 O262 2.326 . S
In260 O266 2.266 1_545 S
In260 O267 2.326 . S
In260 O268 2.266 . S
In260 O269 2.326 1_554 S
In260 O271 2.294 . S
In260 O272 2.326 . S
O261 In260 2.294 . S
O261 C270 1.240 . S
O262 In260 2.326 . S
O262 C270 1.252 . S
C263 O266 1.252 1_545 S
C263 O267 1.260 . S
C264 O271 1.240 . S
C264 O272 1.252 . S
C265 O268 1.252 1_556 S
C265 O269 1.260 . S
O266 In260 2.266 1_565 S
O266 C263 1.252 1_565 S
O267 In260 2.326 . S
O267 C263 1.260 . S
O268 In260 2.266 . S
O268 C265 1.252 1_554 S
O269 In260 2.326 1_556 S
O269 C265 1.260 . S
C270 O261 1.240 . S
C270 O262 1.252 . S
O271 In260 2.294 . S
O271 C264 1.240 . S
O272 In260 2.326 . S
O272 C264 1.252 . S
In273 O274 2.294 . S
In273 O275 2.326 . S
In273 O279 2.266 . S
In273 O280 2.326 . S
In273 O281 2.266 . S
In273 O282 2.326 . S
In273 O284 2.294 . S
In273 O285 2.326 . S
O274 In273 2.294 . S
O274 C283 1.240 . S
O275 In273 2.326 . S
O275 C283 1.252 . S
C276 O279 1.252 . S
C276 O280 1.260 . S
C277 O284 1.240 . S
C277 O285 1.252 . S
C278 O281 1.252 . S
C278 O282 1.260 . S
O279 In273 2.266 . S
O279 C276 1.252 . S
O280 In273 2.326 . S
O280 C276 1.260 . S
O281 In273 2.266 . S
O281 C278 1.252 . S
O282 In273 2.326 . S
O282 C278 1.260 . S
C283 O274 1.240 . S
C283 O275 1.252 . S
O284 In273 2.294 . S
O284 C277 1.240 . S
O285 In273 2.326 . S
O285 C277 1.252 . S
In286 O287 2.294 . S
In286 O288 2.326 . S
In286 O292 2.266 . S
In286 O293 2.326 . S
In286 O294 2.266 . S
In286 O295 2.326 . S
In286 O297 2.294 . S
In286 O298 2.326 . S
O287 In286 2.294 . S
O287 C296 1.240 . S
O288 In286 2.326 . S
O288 C296 1.252 . S
C289 O292 1.252 . S
C289 O293 1.260 . S
C290 O297 1.240 . S
C290 O298 1.252 . S
C291 O294 1.252 . S
C291 O295 1.260 . S
O292 In286 2.266 . S
O292 C289 1.252 . S
O293 In286 2.326 . S
O293 C289 1.260 . S
O294 In286 2.266 . S
O294 C291 1.252 . S
O295 In286 2.326 . S
O295 C291 1.260 . S
C296 O287 1.240 . S
C296 O288 1.252 . S
O297 In286 2.294 . S
O297 C290 1.240 . S
O298 In286 2.326 . S
O298 C290 1.252 . S
In299 O300 2.294 . S
In299 O301 2.326 . S
In299 O305 2.266 . S
In299 O306 2.326 1_556 S
In299 O307 2.266 . S
In299 O308 2.326 . S
In299 O310 2.294 . S
In299 O311 2.326 . S
O300 In299 2.294 . S
O300 C309 1.240 . S
O301 In299 2.326 . S
O301 C309 1.252 . S
C302 O305 1.252 1_554 S
C302 O306 1.260 . S
C303 O310 1.240 . S
C303 O311 1.252 . S
C304 O307 1.252 . S
C304 O308 1.260 . S
O305 In299 2.266 . S
O305 C302 1.252 1_556 S
O306 In299 2.326 1_554 S
O306 C302 1.260 . S
O307 In299 2.266 . S
O307 C304 1.252 . S
O308 In299 2.326 . S
O308 C304 1.260 . S
C309 O300 1.240 . S
C309 O301 1.252 . S
O310 In299 2.294 . S
O310 C303 1.240 . S
O311 In299 2.326 . S
O311 C303 1.252 . S
In312 O313 2.294 . S
In312 O314 2.326 . S
In312 O318 2.266 . S
In312 O319 2.326 . S
In312 O320 2.266 . S
In312 O321 2.326 . S
In312 O323 2.294 . S
In312 O324 2.326 . S
O313 In312 2.294 . S
O313 C322 1.240 . S
O314 In312 2.326 . S
O314 C322 1.252 . S
C315 O318 1.252 . S
C315 O319 1.260 . S
C316 O323 1.240 . S
C316 O324 1.252 . S
C317 O320 1.252 . S
C317 O321 1.260 . S
O318 In312 2.266 . S
O318 C315 1.252 . S
O319 In312 2.326 . S
O319 C315 1.260 . S
O320 In312 2.266 . S
O320 C317 1.252 . S
O321 In312 2.326 . S
O321 C317 1.260 . S
C322 O313 1.240 . S
C322 O314 1.252 . S
O323 In312 2.294 . S
O323 C316 1.240 . S
O324 In312 2.326 . S
O324 C316 1.252 . S
In325 O326 2.294 . S
In325 O327 2.326 . S
In325 O331 2.266 . S
In325 O332 2.326 . S
In325 O333 2.266 . S
In325 O334 2.326 . S
In325 O336 2.294 . S
In325 O337 2.326 . S
O326 In325 2.294 . S
O326 C335 1.240 . S
O327 In325 2.326 . S
O327 C335 1.252 . S
C328 O331 1.252 . S
C328 O332 1.260 . S
C329 O336 1.240 . S
C329 O337 1.252 . S
C330 O333 1.252 . S
C330 O334 1.260 . S
O331 In325 2.266 . S
O331 C328 1.252 . S
O332 In325 2.326 . S
O332 C328 1.260 . S
O333 In325 2.266 . S
O333 C330 1.252 . S
O334 In325 2.326 . S
O334 C330 1.260 . S
C335 O326 1.240 . S
C335 O327 1.252 . S
O336 In325 2.294 . S
O336 C329 1.240 . S
O337 In325 2.326 . S
O337 C329 1.252 . S
In338 O339 2.294 . S
In338 O340 2.326 . S
In338 O344 2.266 . S
In338 O345 2.326 . S
In338 O346 2.266 . S
In338 O347 2.326 . S
In338 O349 2.294 . S
In338 O350 2.326 . S
O339 In338 2.294 . S
O339 C348 1.240 . S
O340 In338 2.326 . S
O340 C348 1.252 . S
C341 O344 1.252 . S
C341 O345 1.260 . S
C342 O349 1.240 . S
C342 O350 1.252 . S
C343 O346 1.252 . S
C343 O347 1.260 . S
O344 In338 2.266 . S
O344 C341 1.252 . S
O345 In338 2.326 . S
O345 C341 1.260 . S
O346 In338 2.266 . S
O346 C343 1.252 . S
O347 In338 2.326 . S
O347 C343 1.260 . S
C348 O339 1.240 . S
C348 O340 1.252 . S
O349 In338 2.294 . S
O349 C342 1.240 . S
O350 In338 2.326 . S
O350 C342 1.252 . S
In351 O352 2.294 . S
In351 O353 2.326 . S
In351 O357 2.266 . S
In351 O358 2.326 . S
In351 O359 2.266 1_655 S
In351 O360 2.326 . S
In351 O362 2.294 . S
In351 O363 2.326 . S
O352 In351 2.294 . S
O352 C361 1.240 . S
O353 In351 2.326 . S
O353 C361 1.252 . S
C354 O357 1.252 . S
C354 O358 1.260 . S
C355 O362 1.240 . S
C355 O363 1.252 . S
C356 O359 1.252 1_655 S
C356 O360 1.260 . S
O357 In351 2.266 . S
O357 C354 1.252 . S
O358 In351 2.326 . S
O358 C354 1.260 . S
O359 In351 2.266 1_455 S
O359 C356 1.252 1_455 S
O360 In351 2.326 . S
O360 C356 1.260 . S
C361 O352 1.240 . S
C361 O353 1.252 . S
O362 In351 2.294 . S
O362 C355 1.240 . S
O363 In351 2.326 . S
O363 C355 1.252 . S
In364 O365 2.294 . S
In364 O366 2.326 . S
In364 O370 2.266 . S
In364 O371 2.326 . S
In364 O372 2.266 . S
In364 O373 2.326 . S
In364 O375 2.294 . S
In364 O376 2.326 . S
O365 In364 2.294 . S
O365 C374 1.240 . S
O366 In364 2.326 . S
O366 C374 1.252 . S
C367 O370 1.252 . S
C367 O371 1.260 . S
C368 O375 1.240 . S
C368 O376 1.252 . S
C369 O372 1.252 . S
C369 O373 1.260 . S
O370 In364 2.266 . S
O370 C367 1.252 . S
O371 In364 2.326 . S
O371 C367 1.260 . S
O372 In364 2.266 . S
O372 C369 1.252 . S
O373 In364 2.326 . S
O373 C369 1.260 . S
C374 O365 1.240 . S
C374 O366 1.252 . S
O375 In364 2.294 . S
O375 C368 1.240 . S
O376 In364 2.326 . S
O376 C368 1.252 . S
In377 O378 2.294 . S
In377 O379 2.326 . S
In377 O383 2.266 . S
In377 O384 2.326 . S
In377 O385 2.266 1_655 S
In377 O386 2.326 . S
In377 O388 2.294 . S
In377 O389 2.326 . S
O378 In377 2.294 . S
O378 C387 1.240 . S
O379 In377 2.326 . S
O379 C387 1.252 . S
C380 O383 1.252 . S
C380 O384 1.260 . S
C381 O388 1.240 . S
C381 O389 1.252 . S
C382 O385 1.252 1_655 S
C382 O386 1.260 . S
O383 In377 2.266 . S
O383 C380 1.252 . S
O384 In377 2.326 . S
O384 C380 1.260 . S
O385 In377 2.266 1_455 S
O385 C382 1.252 1_455 S
O386 In377 2.326 . S
O386 C382 1.260 . S
C387 O378 1.240 . S
C387 O379 1.252 . S
O388 In377 2.294 . S
O388 C381 1.240 . S
O389 In377 2.326 . S
O389 C381 1.252 . S
In390 O391 2.294 . S
In390 O392 2.326 . S
In390 O396 2.266 . S
In390 O397 2.326 . S
In390 O398 2.266 . S
In390 O399 2.326 . S
In390 O401 2.294 . S
In390 O402 2.326 . S
O391 In390 2.294 . S
O391 C400 1.240 . S
O392 In390 2.326 . S
O392 C400 1.252 . S
C393 O396 1.252 . S
C393 O397 1.260 . S
C394 O401 1.240 . S
C394 O402 1.252 . S
C395 O398 1.252 . S
C395 O399 1.260 . S
O396 In390 2.266 . S
O396 C393 1.252 . S
O397 In390 2.326 . S
O397 C393 1.260 . S
O398 In390 2.266 . S
O398 C395 1.252 . S
O399 In390 2.326 . S
O399 C395 1.260 . S
C400 O391 1.240 . S
C400 O392 1.252 . S
O401 In390 2.294 . S
O401 C394 1.240 . S
O402 In390 2.326 . S
O402 C394 1.252 . S
In403 O404 2.294 . S
In403 O405 2.326 . S
In403 O409 2.266 . S
In403 O410 2.326 . S
In403 O411 2.266 . S
In403 O412 2.326 . S
In403 O414 2.294 . S
In403 O415 2.326 . S
O404 In403 2.294 . S
O404 C413 1.240 . S
O405 In403 2.326 . S
O405 C413 1.252 . S
C406 O409 1.252 . S
C406 O410 1.260 . S
C407 O414 1.240 . S
C407 O415 1.252 . S
C408 O411 1.252 . S
C408 O412 1.260 . S
O409 In403 2.266 . S
O409 C406 1.252 . S
O410 In403 2.326 . S
O410 C406 1.260 . S
O411 In403 2.266 . S
O411 C408 1.252 . S
O412 In403 2.326 . S
O412 C408 1.260 . S
C413 O404 1.240 . S
C413 O405 1.252 . S
O414 In403 2.294 . S
O414 C407 1.240 . S
O415 In403 2.326 . S
O415 C407 1.252 . S
In416 O417 2.294 . S
In416 O418 2.326 . S
In416 O422 2.266 . S
In416 O423 2.326 . S
In416 O424 2.266 . S
In416 O425 2.326 . S
In416 O427 2.294 . S
In416 O428 2.326 . S
O417 In416 2.294 . S
O417 C426 1.240 . S
O418 In416 2.326 . S
O418 C426 1.252 . S
C419 O422 1.252 . S
C419 O423 1.260 . S
C420 O427 1.240 . S
C420 O428 1.252 . S
C421 O424 1.252 . S
C421 O425 1.260 . S
O422 In416 2.266 . S
O422 C419 1.252 . S
O423 In416 2.326 . S
O423 C419 1.260 . S
O424 In416 2.266 . S
O424 C421 1.252 . S
O425 In416 2.326 . S
O425 C421 1.260 . S
C426 O417 1.240 . S
C426 O418 1.252 . S
O427 In416 2.294 . S
O427 C420 1.240 . S
O428 In416 2.326 . S
O428 C420 1.252 . S
In429 O430 2.294 . S
In429 O431 2.326 . S
In429 O435 2.266 . S
In429 O436 2.326 . S
In429 O437 2.266 1_556 S
In429 O438 2.326 . S
In429 O440 2.294 . S
In429 O441 2.326 . S
O430 In429 2.294 . S
O430 C439 1.240 . S
O431 In429 2.326 . S
O431 C439 1.252 . S
C432 O435 1.252 . S
C432 O436 1.260 . S
C433 O440 1.240 . S
C433 O441 1.252 . S
C434 O437 1.252 1_556 S
C434 O438 1.260 . S
O435 In429 2.266 . S
O435 C432 1.252 . S
O436 In429 2.326 . S
O436 C432 1.260 . S
O437 In429 2.266 1_554 S
O437 C434 1.252 1_554 S
O438 In429 2.326 . S
O438 C434 1.260 . S
C439 O430 1.240 . S
C439 O431 1.252 . S
O440 In429 2.294 . S
O440 C433 1.240 . S
O441 In429 2.326 . S
O441 C433 1.252 . S
In442 O443 2.294 . S
In442 O444 2.326 . S
In442 O448 2.266 . S
In442 O449 2.326 . S
In442 O450 2.266 . S
In442 O451 2.326 . S
In442 O453 2.294 . S
In442 O454 2.326 . S
O443 In442 2.294 . S
O443 C452 1.240 . S
O444 In442 2.326 . S
O444 C452 1.252 . S
C445 O448 1.252 . S
C445 O449 1.260 . S
C446 O453 1.240 . S
C446 O454 1.252 . S
C447 O450 1.252 . S
C447 O451 1.260 . S
O448 In442 2.266 . S
O448 C445 1.252 . S
O449 In442 2.326 . S
O449 C445 1.260 . S
O450 In442 2.266 . S
O450 C447 1.252 . S
O451 In442 2.326 . S
O451 C447 1.260 . S
C452 O443 1.240 . S
C452 O444 1.252 . S
O453 In442 2.294 . S
O453 C446 1.240 . S
O454 In442 2.326 . S
O454 C446 1.252 . S
In455 O456 2.294 . S
In455 O457 2.326 . S
In455 O461 2.266 . S
In455 O462 2.326 1_655 S
In455 O463 2.266 . S
In455 O464 2.326 . S
In455 O466 2.294 . S
In455 O467 2.326 . S
O456 In455 2.294 . S
O456 C465 1.240 . S
O457 In455 2.326 . S
O457 C465 1.252 . S
C458 O461 1.252 1_455 S
C458 O462 1.260 . S
C459 O466 1.240 . S
C459 O467 1.252 . S
C460 O463 1.252 . S
C460 O464 1.260 . S
O461 In455 2.266 . S
O461 C458 1.252 1_655 S
O462 In455 2.326 1_455 S
O462 C458 1.260 . S
O463 In455 2.266 . S
O463 C460 1.252 . S
O464 In455 2.326 . S
O464 C460 1.260 . S
C465 O456 1.240 . S
C465 O457 1.252 . S
O466 In455 2.294 . S
O466 C459 1.240 . S
O467 In455 2.326 . S
O467 C459 1.252 . S
In468 O469 2.294 . S
In468 O470 2.326 . S
In468 O474 2.266 . S
In468 O475 2.326 . S
In468 O476 2.266 . S
In468 O477 2.326 . S
In468 O479 2.294 . S
In468 O480 2.326 . S
O469 In468 2.294 . S
O469 C478 1.240 . S
O470 In468 2.326 . S
O470 C478 1.252 . S
C471 O474 1.252 . S
C471 O475 1.260 . S
C472 O479 1.240 . S
C472 O480 1.252 . S
C473 O476 1.252 . S
C473 O477 1.260 . S
O474 In468 2.266 . S
O474 C471 1.252 . S
O475 In468 2.326 . S
O475 C471 1.260 . S
O476 In468 2.266 . S
O476 C473 1.252 . S
O477 In468 2.326 . S
O477 C473 1.260 . S
C478 O469 1.240 . S
C478 O470 1.252 . S
O479 In468 2.294 . S
O479 C472 1.240 . S
O480 In468 2.326 . S
O480 C472 1.252 . S
In481 O482 2.294 . S
In481 O483 2.326 . S
In481 O487 2.266 . S
In481 O488 2.326 1_655 S
In481 O489 2.266 1_554 S
In481 O490 2.326 . S
In481 O492 2.294 . S
In481 O493 2.326 . S
O482 In481 2.294 . S
O482 C491 1.240 . S
O483 In481 2.326 . S
O483 C491 1.252 . S
C484 O487 1.252 1_455 S
C484 O488 1.260 . S
C485 O492 1.240 . S
C485 O493 1.252 . S
C486 O489 1.252 1_554 S
C486 O490 1.260 . S
O487 In481 2.266 . S
O487 C484 1.252 1_655 S
O488 In481 2.326 1_455 S
O488 C484 1.260 . S
O489 In481 2.266 1_556 S
O489 C486 1.252 1_556 S
O490 In481 2.326 . S
O490 C486 1.260 . S
C491 O482 1.240 . S
C491 O483 1.252 . S
O492 In481 2.294 . S
O492 C485 1.240 . S
O493 In481 2.326 . S
O493 C485 1.252 . S
In494 O495 2.294 . S
In494 O496 2.326 . S
In494 O500 2.266 . S
In494 O501 2.326 . S
In494 O502 2.266 . S
In494 O503 2.326 . S
In494 O505 2.294 . S
In494 O506 2.326 . S
O495 In494 2.294 . S
O495 C504 1.240 . S
O496 In494 2.326 . S
O496 C504 1.252 . S
C497 O500 1.252 . S
C497 O501 1.260 . S
C498 O505 1.240 . S
C498 O506 1.252 . S
C499 O502 1.252 . S
C499 O503 1.260 . S
O500 In494 2.266 . S
O500 C497 1.252 . S
O501 In494 2.326 . S
O501 C497 1.260 . S
O502 In494 2.266 . S
O502 C499 1.252 . S
O503 In494 2.326 . S
O503 C499 1.260 . S
C504 O495 1.240 . S
C504 O496 1.252 . S
O505 In494 2.294 . S
O505 C498 1.240 . S
O506 In494 2.326 . S
O506 C498 1.252 . S
In507 O508 2.294 . S
In507 O509 2.326 . S
In507 O513 2.266 . S
In507 O514 2.326 . S
In507 O515 2.266 . S
In507 O516 2.326 . S
In507 O518 2.294 . S
In507 O519 2.326 . S
O508 In507 2.294 . S
O508 C517 1.240 . S
O509 In507 2.326 . S
O509 C517 1.252 . S
C510 O513 1.252 . S
C510 O514 1.260 . S
C511 O518 1.240 . S
C511 O519 1.252 . S
C512 O515 1.252 . S
C512 O516 1.260 . S
O513 In507 2.266 . S
O513 C510 1.252 . S
O514 In507 2.326 . S
O514 C510 1.260 . S
O515 In507 2.266 . S
O515 C512 1.252 . S
O516 In507 2.326 . S
O516 C512 1.260 . S
C517 O508 1.240 . S
C517 O509 1.252 . S
O518 In507 2.294 . S
O518 C511 1.240 . S
O519 In507 2.326 . S
O519 C511 1.252 . S
In520 O521 2.294 . S
In520 O522 2.326 . S
In520 O526 2.266 . S
In520 O527 2.326 . S
In520 O528 2.266 . S
In520 O529 2.326 . S
In520 O531 2.294 . S
In520 O532 2.326 . S
O521 In520 2.294 . S
O521 C530 1.240 . S
O522 In520 2.326 . S
O522 C530 1.252 . S
C523 O526 1.252 . S
C523 O527 1.260 . S
C524 O531 1.240 . S
C524 O532 1.252 . S
C525 O528 1.252 . S
C525 O529 1.260 . S
O526 In520 2.266 . S
O526 C523 1.252 . S
O527 In520 2.326 . S
O527 C523 1.260 . S
O528 In520 2.266 . S
O528 C525 1.252 . S
O529 In520 2.326 . S
O529 C525 1.260 . S
C530 O521 1.240 . S
C530 O522 1.252 . S
O531 In520 2.294 . S
O531 C524 1.240 . S
O532 In520 2.326 . S
O532 C524 1.252 . S
In533 O534 2.294 . S
In533 O535 2.326 . S
In533 O539 2.266 . S
In533 O540 2.326 . S
In533 O541 2.266 . S
In533 O542 2.326 . S
In533 O544 2.294 . S
In533 O545 2.326 . S
O534 In533 2.294 . S
O534 C543 1.240 . S
O535 In533 2.326 . S
O535 C543 1.252 . S
C536 O539 1.252 . S
C536 O540 1.260 . S
C537 O544 1.240 . S
C537 O545 1.252 . S
C538 O541 1.252 . S
C538 O542 1.260 . S
O539 In533 2.266 . S
O539 C536 1.252 . S
O540 In533 2.326 . S
O540 C536 1.260 . S
O541 In533 2.266 . S
O541 C538 1.252 . S
O542 In533 2.326 . S
O542 C538 1.260 . S
C543 O534 1.240 . S
C543 O535 1.252 . S
O544 In533 2.294 . S
O544 C537 1.240 . S
O545 In533 2.326 . S
O545 C537 1.252 . S
In546 O547 2.294 . S
In546 O548 2.326 . S
In546 O552 2.266 1_565 S
In546 O553 2.326 . S
In546 O554 2.266 . S
In546 O555 2.326 . S
In546 O557 2.294 . S
In546 O558 2.326 . S
O547 In546 2.294 . S
O547 C556 1.240 . S
O548 In546 2.326 . S
O548 C556 1.252 . S
C549 O552 1.252 1_565 S
C549 O553 1.260 . S
C550 O557 1.240 . S
C550 O558 1.252 . S
C551 O554 1.252 . S
C551 O555 1.260 . S
O552 In546 2.266 1_545 S
O552 C549 1.252 1_545 S
O553 In546 2.326 . S
O553 C549 1.260 . S
O554 In546 2.266 . S
O554 C551 1.252 . S
O555 In546 2.326 . S
O555 C551 1.260 . S
C556 O547 1.240 . S
C556 O548 1.252 . S
O557 In546 2.294 . S
O557 C550 1.240 . S
O558 In546 2.326 . S
O558 C550 1.252 . S
In559 O560 2.294 . S
In559 O561 2.326 . S
In559 O565 2.266 . S
In559 O566 2.326 . S
In559 O567 2.266 . S
In559 O568 2.326 . S
In559 O570 2.294 . S
In559 O571 2.326 . S
O560 In559 2.294 . S
O560 C569 1.240 . S
O561 In559 2.326 . S
O561 C569 1.252 . S
C562 O565 1.252 . S
C562 O566 1.260 . S
C563 O570 1.240 . S
C563 O571 1.252 . S
C564 O567 1.252 . S
C564 O568 1.260 . S
O565 In559 2.266 . S
O565 C562 1.252 . S
O566 In559 2.326 . S
O566 C562 1.260 . S
O567 In559 2.266 . S
O567 C564 1.252 . S
O568 In559 2.326 . S
O568 C564 1.260 . S
C569 O560 1.240 . S
C569 O561 1.252 . S
O570 In559 2.294 . S
O570 C563 1.240 . S
O571 In559 2.326 . S
O571 C563 1.252 . S
In572 O573 2.294 . S
In572 O574 2.326 . S
In572 O578 2.266 . S
In572 O579 2.326 . S
In572 O580 2.266 . S
In572 O581 2.326 . S
In572 O583 2.294 . S
In572 O584 2.326 . S
O573 In572 2.294 . S
O573 C582 1.240 . S
O574 In572 2.326 . S
O574 C582 1.252 . S
C575 O578 1.252 . S
C575 O579 1.260 . S
C576 O583 1.240 . S
C576 O584 1.252 . S
C577 O580 1.252 . S
C577 O581 1.260 . S
O578 In572 2.266 . S
O578 C575 1.252 . S
O579 In572 2.326 . S
O579 C575 1.260 . S
O580 In572 2.266 . S
O580 C577 1.252 . S
O581 In572 2.326 . S
O581 C577 1.260 . S
C582 O573 1.240 . S
C582 O574 1.252 . S
O583 In572 2.294 . S
O583 C576 1.240 . S
O584 In572 2.326 . S
O584 C576 1.252 . S
In585 O586 2.294 . S
In585 O587 2.326 . S
In585 O591 2.266 . S
In585 O592 2.326 . S
In585 O593 2.266 . S
In585 O594 2.326 . S
In585 O596 2.294 . S
In585 O597 2.326 . S
O586 In585 2.294 . S
O586 C595 1.240 . S
O587 In585 2.326 . S
O587 C595 1.252 . S
C588 O591 1.252 . S
C588 O592 1.260 . S
C589 O596 1.240 . S
C589 O597 1.252 . S
C590 O593 1.252 . S
C590 O594 1.260 . S
O591 In585 2.266 . S
O591 C588 1.252 . S
O592 In585 2.326 . S
O592 C588 1.260 . S
O593 In585 2.266 . S
O593 C590 1.252 . S
O594 In585 2.326 . S
O594 C590 1.260 . S
C595 O586 1.240 . S
C595 O587 1.252 . S
O596 In585 2.294 . S
O596 C589 1.240 . S
O597 In585 2.326 . S
O597 C589 1.252 . S
In598 O599 2.294 . S
In598 O600 2.326 . S
In598 O604 2.266 . S
In598 O605 2.326 1_556 S
In598 O606 2.266 1_545 S
In598 O607 2.326 . S
In598 O609 2.294 . S
In598 O610 2.326 . S
O599 In598 2.294 . S
O599 C608 1.240 . S
O600 In598 2.326 . S
O600 C608 1.252 . S
C601 O604 1.252 1_554 S
C601 O605 1.260 . S
C602 O609 1.240 . S
C602 O610 1.252 . S
C603 O606 1.252 1_545 S
C603 O607 1.260 . S
O604 In598 2.266 . S
O604 C601 1.252 1_556 S
O605 In598 2.326 1_554 S
O605 C601 1.260 . S
O606 In598 2.266 1_565 S
O606 C603 1.252 1_565 S
O607 In598 2.326 . S
O607 C603 1.260 . S
C608 O599 1.240 . S
C608 O600 1.252 . S
O609 In598 2.294 . S
O609 C602 1.240 . S
O610 In598 2.326 . S
O610 C602 1.252 . S
In611 O612 2.294 . S
In611 O613 2.326 . S
In611 O617 2.266 . S
In611 O618 2.326 . S
In611 O619 2.266 1_565 S
In611 O620 2.326 . S
In611 O622 2.294 . S
In611 O623 2.326 . S
O612 In611 2.294 . S
O612 C621 1.240 . S
O613 In611 2.326 . S
O613 C621 1.252 . S
C614 O617 1.252 . S
C614 O618 1.260 . S
C615 O622 1.240 . S
C615 O623 1.252 . S
C616 O619 1.252 1_565 S
C616 O620 1.260 . S
O617 In611 2.266 . S
O617 C614 1.252 . S
O618 In611 2.326 . S
O618 C614 1.260 . S
O619 In611 2.266 1_545 S
O619 C616 1.252 1_545 S
O620 In611 2.326 . S
O620 C616 1.260 . S
C621 O612 1.240 . S
C621 O613 1.252 . S
O622 In611 2.294 . S
O622 C615 1.240 . S
O623 In611 2.326 . S
O623 C615 1.252 . S
H624 C636 0.930 . S
H625 C638 0.930 . S
H626 C639 0.930 . S
H627 C643 0.959 . S
H628 C643 0.959 . S
H629 C643 0.961 . S
H630 C644 0.960 . S
H631 C644 0.961 . S
H632 C644 0.959 . S
H633 C647 0.929 . S
H634 C648 0.931 . S
H635 C650 0.930 . S
C636 H624 0.930 . S
C636 C637 1.399 . S
C636 C641 1.399 . S
C637 C636 1.399 . S
C637 C638 1.376 . S
C638 H625 0.930 . S
C638 C637 1.376 . S
C638 C639 1.388 . S
C639 H626 0.930 . S
C639 C638 1.388 . S
C639 C640 1.390 . S
C640 C639 1.390 . S
C640 C641 1.394 . S
C640 C646 1.465 . S
C641 C636 1.399 . S
C641 C640 1.394 . S
C641 C642 1.516 . S
C642 C641 1.516 . S
C642 C643 1.502 . S
C642 C644 1.561 . S
C642 C645 1.526 . S
C643 H627 0.959 . S
C643 H628 0.959 . S
C643 H629 0.961 . S
C643 C642 1.502 . S
C644 H630 0.960 . S
C644 H631 0.961 . S
C644 H632 0.959 . S
C644 C642 1.561 . S
C645 C642 1.526 . S
C645 C646 1.396 . S
C645 C650 1.390 . S
C646 C640 1.465 . S
C646 C645 1.396 . S
C646 C647 1.399 . S
C647 H633 0.929 . S
C647 C646 1.399 . S
C647 C648 1.385 . S
C648 H634 0.931 . S
C648 C647 1.385 . S
C648 C649 1.389 . S
C649 C648 1.389 . S
C649 C650 1.387 . S
C650 H635 0.930 . S
C650 C645 1.390 . S
C650 C649 1.387 . S
H651 C663 0.930 . S
H652 C665 0.930 . S
H653 C666 0.930 . S
H654 C670 0.959 1_655 S
H655 C670 0.959 1_655 S
H656 C670 0.961 1_655 S
H657 C671 0.960 . S
H658 C671 0.961 . S
H659 C671 0.959 . S
H660 C674 0.929 . S
H661 C675 0.931 . S
H662 C677 0.930 . S
C663 H651 0.930 . S
C663 C664 1.399 . S
C663 C668 1.399 . S
C664 C663 1.399 . S
C664 C665 1.376 1_565 S
C665 H652 0.930 . S
C665 C664 1.376 1_545 S
C665 C666 1.388 . S
C666 H653 0.930 . S
C666 C665 1.388 . S
C666 C667 1.390 . S
C667 C666 1.390 . S
C667 C668 1.394 1_545 S
C667 C673 1.465 . S
C668 C663 1.399 . S
C668 C667 1.394 1_565 S
C668 C669 1.516 . S
C669 C668 1.516 . S
C669 C670 1.502 . S
C669 C671 1.561 . S
C669 C672 1.526 . S
C670 H654 0.959 1_455 S
C670 H655 0.959 1_455 S
C670 H656 0.961 1_455 S
C670 C669 1.502 . S
C671 H657 0.960 . S
C671 H658 0.961 . S
C671 H659 0.959 . S
C671 C669 1.561 . S
C672 C669 1.526 . S
C672 C673 1.396 1_565 S
C672 C677 1.390 . S
C673 C667 1.465 . S
C673 C672 1.396 1_545 S
C673 C674 1.399 . S
C674 H660 0.929 . S
C674 C673 1.399 . S
C674 C675 1.385 . S
C675 H661 0.931 . S
C675 C674 1.385 . S
C675 C676 1.389 . S
C676 C675 1.389 . S
C676 C677 1.387 1_545 S
C677 H662 0.930 . S
C677 C672 1.390 . S
C677 C676 1.387 1_565 S
H678 C690 0.930 . S
H679 C692 0.930 . S
H680 C693 0.930 . S
H681 C697 0.959 . S
H682 C697 0.959 . S
H683 C697 0.961 1_556 S
H684 C698 0.960 . S
H685 C698 0.961 1_554 S
H686 C698 0.959 . S
H687 C701 0.929 . S
H688 C702 0.931 . S
H689 C704 0.930 . S
C690 H678 0.930 . S
C690 C691 1.399 . S
C690 C695 1.399 . S
C691 C690 1.399 . S
C691 C692 1.376 . S
C692 H679 0.930 . S
C692 C691 1.376 . S
C692 C693 1.388 . S
C693 H680 0.930 . S
C693 C692 1.388 . S
C693 C694 1.390 . S
C694 C693 1.390 . S
C694 C695 1.394 . S
C694 C700 1.465 1_556 S
C695 C690 1.399 . S
C695 C694 1.394 . S
C695 C696 1.516 1_556 S
C696 C695 1.516 1_554 S
C696 C697 1.502 . S
C696 C698 1.561 1_554 S
C696 C699 1.526 . S
C697 H681 0.959 . S
C697 H682 0.959 . S
C697 H683 0.961 1_554 S
C697 C696 1.502 . S
C698 H684 0.960 . S
C698 H685 0.961 1_556 S
C698 H686 0.959 . S
C698 C696 1.561 1_556 S
C699 C696 1.526 . S
C699 C700 1.396 . S
C699 C704 1.390 . S
C700 C694 1.465 1_554 S
C700 C699 1.396 . S
C700 C701 1.399 . S
C701 H687 0.929 . S
C701 C700 1.399 . S
C701 C702 1.385 . S
C702 H688 0.931 . S
C702 C701 1.385 . S
C702 C703 1.389 . S
C703 C702 1.389 . S
C703 C704 1.387 . S
C704 H689 0.930 . S
C704 C699 1.390 . S
C704 C703 1.387 . S
H705 C717 0.930 . S
H706 C719 0.930 . S
H707 C720 0.930 . S
H708 C724 0.959 . S
H709 C724 0.959 . S
H710 C724 0.961 . S
H711 C725 0.960 . S
H712 C725 0.961 . S
H713 C725 0.959 . S
H714 C728 0.929 . S
H715 C729 0.931 . S
H716 C731 0.930 . S
C717 H705 0.930 . S
C717 C718 1.399 . S
C717 C722 1.410 . S
C718 C717 1.399 . S
C718 C719 1.376 . S
C719 H706 0.930 . S
C719 C718 1.376 . S
C719 C720 1.388 . S
C720 H707 0.930 . S
C720 C719 1.388 . S
C720 C721 1.390 1_565 S
C721 C720 1.390 1_545 S
C721 C722 1.393 1_545 S
C721 C727 1.465 . S
C722 C717 1.410 . S
C722 C721 1.393 1_565 S
C722 C723 1.507 1_565 S
C723 C722 1.507 1_545 S
C723 C724 1.502 1_545 S
C723 C725 1.561 . S
C723 C726 1.526 . S
C724 H708 0.959 . S
C724 H709 0.959 . S
C724 H710 0.961 . S
C724 C723 1.502 1_565 S
C725 H711 0.960 . S
C725 H712 0.961 . S
C725 H713 0.959 . S
C725 C723 1.561 . S
C726 C723 1.526 . S
C726 C727 1.396 . S
C726 C731 1.390 . S
C727 C721 1.465 . S
C727 C726 1.396 . S
C727 C728 1.399 . S
C728 H714 0.929 . S
C728 C727 1.399 . S
C728 C729 1.385 . S
C729 H715 0.931 . S
C729 C728 1.385 . S
C729 C730 1.389 . S
C730 C729 1.389 . S
C730 C731 1.387 . S
C731 H716 0.930 . S
C731 C726 1.390 . S
C731 C730 1.387 . S
H732 C744 0.930 . S
H733 C746 0.930 . S
H734 C747 0.930 . S
H735 C751 0.959 . S
H736 C751 0.959 . S
H737 C751 0.961 . S
H738 C752 0.960 . S
H739 C752 0.961 . S
H740 C752 0.959 . S
H741 C755 0.929 . S
H742 C756 0.931 . S
H743 C758 0.930 . S
C744 H732 0.930 . S
C744 C745 1.399 . S
C744 C749 1.399 . S
C745 C744 1.399 . S
C745 C746 1.376 . S
C746 H733 0.930 . S
C746 C745 1.376 . S
C746 C747 1.388 . S
C747 H734 0.930 . S
C747 C746 1.388 . S
C747 C748 1.390 . S
C748 C747 1.390 . S
C748 C749 1.394 . S
C748 C754 1.465 . S
C749 C744 1.399 . S
C749 C748 1.394 . S
C749 C750 1.516 . S
C750 C749 1.516 . S
C750 C751 1.502 . S
C750 C752 1.561 . S
C750 C753 1.526 . S
C751 H735 0.959 . S
C751 H736 0.959 . S
C751 H737 0.961 . S
C751 C750 1.502 . S
C752 H738 0.960 . S
C752 H739 0.961 . S
C752 H740 0.959 . S
C752 C750 1.561 . S
C753 C750 1.526 . S
C753 C754 1.396 . S
C753 C758 1.390 . S
C754 C748 1.465 . S
C754 C753 1.396 . S
C754 C755 1.399 . S
C755 H741 0.929 . S
C755 C754 1.399 . S
C755 C756 1.385 . S
C756 H742 0.931 . S
C756 C755 1.385 . S
C756 C757 1.389 . S
C757 C756 1.389 . S
C757 C758 1.387 . S
C758 H743 0.930 . S
C758 C753 1.390 . S
C758 C757 1.387 . S
H759 C771 0.930 . S
H760 C773 0.930 . S
H761 C774 0.930 . S
H762 C778 0.959 . S
H763 C778 0.959 . S
H764 C778 0.961 . S
H765 C779 0.960 . S
H766 C779 0.961 . S
H767 C779 0.959 . S
H768 C782 0.929 . S
H769 C783 0.931 . S
H770 C785 0.930 . S
C771 H759 0.930 . S
C771 C772 1.399 . S
C771 C776 1.399 . S
C772 C771 1.399 . S
C772 C773 1.376 . S
C773 H760 0.930 . S
C773 C772 1.376 . S
C773 C774 1.388 . S
C774 H761 0.930 . S
C774 C773 1.388 . S
C774 C775 1.390 . S
C775 C774 1.390 . S
C775 C776 1.394 . S
C775 C781 1.465 . S
C776 C771 1.399 . S
C776 C775 1.394 . S
C776 C777 1.516 1_655 S
C777 C776 1.516 1_455 S
C777 C778 1.502 . S
C777 C779 1.561 1_455 S
C777 C780 1.526 . S
C778 H762 0.959 . S
C778 H763 0.959 . S
C778 H764 0.961 . S
C778 C777 1.502 . S
C779 H765 0.960 . S
C779 H766 0.961 . S
C779 H767 0.959 . S
C779 C777 1.561 1_655 S
C780 C777 1.526 . S
C780 C781 1.396 1_455 S
C780 C785 1.390 . S
C781 C775 1.465 . S
C781 C780 1.396 1_655 S
C781 C782 1.399 . S
C782 H768 0.929 . S
C782 C781 1.399 . S
C782 C783 1.385 1_655 S
C783 H769 0.931 . S
C783 C782 1.385 1_455 S
C783 C784 1.389 . S
C784 C783 1.389 . S
C784 C785 1.387 . S
C785 H770 0.930 . S
C785 C780 1.390 . S
C785 C784 1.387 . S
H786 C798 0.930 . S
H787 C800 0.930 . S
H788 C801 0.930 . S
H789 C805 0.959 . S
H790 C805 0.959 1_655 S
H791 C805 0.961 . S
H792 C806 0.960 1_455 S
H793 C806 0.961 . S
H794 C806 0.959 . S
H795 C809 0.929 . S
H796 C810 0.931 . S
H797 C812 0.930 . S
C798 H786 0.930 . S
C798 C799 1.399 . S
C798 C803 1.399 . S
C799 C798 1.399 . S
C799 C800 1.376 . S
C800 H787 0.930 . S
C800 C799 1.376 . S
C800 C801 1.388 . S
C801 H788 0.930 . S
C801 C800 1.388 . S
C801 C802 1.390 . S
C802 C801 1.390 . S
C802 C803 1.394 . S
C802 C808 1.465 1_455 S
C803 C798 1.399 . S
C803 C802 1.394 . S
C803 C804 1.530 . S
C804 C803 1.530 . S
C804 C805 1.504 . S
C804 C806 1.559 1_455 S
C804 C807 1.511 1_455 S
C805 H789 0.959 . S
C805 H790 0.959 1_455 S
C805 H791 0.961 . S
C805 C804 1.504 . S
C806 H792 0.960 1_655 S
C806 H793 0.961 . S
C806 H794 0.959 . S
C806 C804 1.559 1_655 S
C807 C804 1.511 1_655 S
C807 C808 1.396 . S
C807 C812 1.390 . S
C808 C802 1.465 1_655 S
C808 C807 1.396 . S
C808 C809 1.399 . S
C809 H795 0.929 . S
C809 C808 1.399 . S
C809 C810 1.385 . S
C810 H796 0.931 . S
C810 C809 1.385 . S
C810 C811 1.389 . S
C811 C810 1.389 . S
C811 C812 1.387 . S
C812 H797 0.930 . S
C812 C807 1.390 . S
C812 C811 1.387 . S
H813 C825 0.930 . S
H814 C827 0.930 . S
H815 C828 0.930 . S
H816 C832 0.959 . S
H817 C832 0.976 . S
H818 C832 0.961 . S
H819 C833 0.960 . S
H820 C833 0.961 . S
H821 C833 0.959 . S
H822 C836 0.929 . S
H823 C837 0.931 . S
H824 C839 0.930 . S
C825 H813 0.930 . S
C825 C826 1.399 . S
C825 C830 1.399 . S
C826 C825 1.399 . S
C826 C827 1.376 . S
C827 H814 0.930 . S
C827 C826 1.376 . S
C827 C828 1.388 . S
C828 H815 0.930 . S
C828 C827 1.388 . S
C828 C829 1.390 . S
C829 C828 1.390 . S
C829 C830 1.394 . S
C829 C835 1.465 . S
C830 C825 1.399 . S
C830 C829 1.394 . S
C830 C831 1.516 . S
C831 C830 1.516 . S
C831 C832 1.502 . S
C831 C833 1.561 1_556 S
C831 C834 1.526 . S
C832 H816 0.959 . S
C832 H817 0.976 . S
C832 H818 0.961 . S
C832 C831 1.502 . S
C833 H819 0.960 . S
C833 H820 0.961 . S
C833 H821 0.959 . S
C833 C831 1.561 1_554 S
C834 C831 1.526 . S
C834 C835 1.396 . S
C834 C839 1.390 . S
C835 C829 1.465 . S
C835 C834 1.396 . S
C835 C836 1.399 . S
C836 H822 0.929 . S
C836 C835 1.399 . S
C836 C837 1.385 . S
C837 H823 0.931 . S
C837 C836 1.385 . S
C837 C838 1.389 . S
C838 C837 1.389 . S
C838 C839 1.387 . S
C839 H824 0.930 . S
C839 C834 1.390 . S
C839 C838 1.387 . S
H840 C852 0.930 . S
H841 C854 0.930 . S
H842 C855 0.930 . S
H843 C859 0.959 . S
H844 C859 0.959 . S
H845 C859 0.961 . S
H846 C860 0.960 . S
H847 C860 0.961 . S
H848 C860 0.959 . S
H849 C863 0.929 . S
H850 C864 0.931 . S
H851 C866 0.930 . S
C852 H840 0.930 . S
C852 C853 1.399 . S
C852 C857 1.399 . S
C853 C852 1.399 . S
C853 C854 1.376 . S
C854 H841 0.930 . S
C854 C853 1.376 . S
C854 C855 1.388 . S
C855 H842 0.930 . S
C855 C854 1.388 . S
C855 C856 1.390 . S
C856 C855 1.390 . S
C856 C857 1.394 . S
C856 C862 1.465 . S
C857 C852 1.399 . S
C857 C856 1.394 . S
C857 C858 1.516 . S
C858 C857 1.516 . S
C858 C859 1.502 . S
C858 C860 1.561 . S
C858 C861 1.526 . S
C859 H843 0.959 . S
C859 H844 0.959 . S
C859 H845 0.961 . S
C859 C858 1.502 . S
C860 H846 0.960 . S
C860 H847 0.961 . S
C860 H848 0.959 . S
C860 C858 1.561 . S
C861 C858 1.526 . S
C861 C862 1.396 . S
C861 C866 1.390 . S
C862 C856 1.465 . S
C862 C861 1.396 . S
C862 C863 1.399 . S
C863 H849 0.929 . S
C863 C862 1.399 . S
C863 C864 1.385 . S
C864 H850 0.931 . S
C864 C863 1.385 . S
C864 C865 1.389 . S
C865 C864 1.389 . S
C865 C866 1.387 . S
C866 H851 0.930 . S
C866 C861 1.390 . S
C866 C865 1.387 . S
H867 C879 0.930 . S
H868 C881 0.930 . S
H869 C882 0.930 . S
H870 C886 0.959 . S
H871 C886 0.959 . S
H872 C886 0.961 . S
H873 C887 0.960 . S
H874 C887 0.961 . S
H875 C887 0.959 . S
H876 C890 0.929 . S
H877 C891 0.931 . S
H878 C893 0.930 . S
C879 H867 0.930 . S
C879 C880 1.399 . S
C879 C884 1.399 . S
C880 C879 1.399 . S
C880 C881 1.376 . S
C881 H868 0.930 . S
C881 C880 1.376 . S
C881 C882 1.388 . S
C882 H869 0.930 . S
C882 C881 1.388 . S
C882 C883 1.390 . S
C883 C882 1.390 . S
C883 C884 1.394 . S
C883 C889 1.465 . S
C884 C879 1.399 . S
C884 C883 1.394 . S
C884 C885 1.516 . S
C885 C884 1.516 . S
C885 C886 1.502 . S
C885 C887 1.561 . S
C885 C888 1.526 . S
C886 H870 0.959 . S
C886 H871 0.959 . S
C886 H872 0.961 . S
C886 C885 1.502 . S
C887 H873 0.960 . S
C887 H874 0.961 . S
C887 H875 0.959 . S
C887 C885 1.561 . S
C888 C885 1.526 . S
C888 C889 1.396 . S
C888 C893 1.390 . S
C889 C883 1.465 . S
C889 C888 1.396 . S
C889 C890 1.399 . S
C890 H876 0.929 . S
C890 C889 1.399 . S
C890 C891 1.385 . S
C891 H877 0.931 . S
C891 C890 1.385 . S
C891 C892 1.389 . S
C892 C891 1.389 . S
C892 C893 1.387 . S
C893 H878 0.930 . S
C893 C888 1.390 . S
C893 C892 1.387 . S
H894 C906 0.930 . S
H895 C908 0.930 . S
H896 C909 0.930 . S
H897 C913 0.959 . S
H898 C913 0.959 . S
H899 C913 0.961 1_655 S
H900 C914 0.960 . S
H901 C914 0.961 1_455 S
H902 C914 0.959 . S
H903 C917 0.929 . S
H904 C918 0.931 . S
H905 C920 0.930 . S
C906 H894 0.930 . S
C906 C907 1.399 . S
C906 C911 1.399 . S
C907 C906 1.399 . S
C907 C908 1.376 . S
C908 H895 0.930 . S
C908 C907 1.376 . S
C908 C909 1.388 . S
C909 H896 0.930 . S
C909 C908 1.388 . S
C909 C910 1.390 . S
C910 C909 1.390 . S
C910 C911 1.394 . S
C910 C916 1.465 1_655 S
C911 C906 1.399 . S
C911 C910 1.394 . S
C911 C912 1.516 1_655 S
C912 C911 1.516 1_455 S
C912 C913 1.502 . S
C912 C914 1.561 1_455 S
C912 C915 1.526 . S
C913 H897 0.959 . S
C913 H898 0.959 . S
C913 H899 0.961 1_455 S
C913 C912 1.502 . S
C914 H900 0.960 . S
C914 H901 0.961 1_655 S
C914 H902 0.959 . S
C914 C912 1.561 1_655 S
C915 C912 1.526 . S
C915 C916 1.396 . S
C915 C920 1.390 . S
C916 C910 1.465 1_455 S
C916 C915 1.396 . S
C916 C917 1.399 . S
C917 H903 0.929 . S
C917 C916 1.399 . S
C917 C918 1.385 . S
C918 H904 0.931 . S
C918 C917 1.385 . S
C918 C919 1.389 . S
C919 C918 1.389 . S
C919 C920 1.387 . S
C920 H905 0.930 . S
C920 C915 1.390 . S
C920 C919 1.387 . S
H921 C933 0.930 1_455 S
H922 C935 0.930 . S
H923 C936 0.930 . S
H924 C940 0.959 . S
H925 C940 0.959 1_556 S
H926 C940 0.961 1_556 S
H927 C941 0.960 . S
H928 C941 0.961 . S
H929 C941 0.959 . S
H930 C944 0.929 . S
H931 C945 0.935 . S
H932 C947 0.930 . S
C933 H921 0.930 1_655 S
C933 C934 1.399 . S
C933 C938 1.399 . S
C934 C933 1.399 . S
C934 C935 1.376 . S
C935 H922 0.930 . S
C935 C934 1.376 . S
C935 C936 1.388 . S
C936 H923 0.930 . S
C936 C935 1.388 . S
C936 C937 1.390 . S
C937 C936 1.390 . S
C937 C938 1.394 . S
C937 C943 1.465 . S
C938 C933 1.399 . S
C938 C937 1.394 . S
C938 C939 1.516 1_655 S
C939 C938 1.516 1_455 S
C939 C940 1.502 . S
C939 C941 1.561 1_454 S
C939 C942 1.526 . S
C940 H924 0.959 . S
C940 H925 0.959 1_554 S
C940 H926 0.961 1_554 S
C940 C939 1.502 . S
C941 H927 0.960 . S
C941 H928 0.961 . S
C941 H929 0.959 . S
C941 C939 1.561 1_656 S
C942 C939 1.526 . S
C942 C943 1.396 1_455 S
C942 C947 1.390 . S
C943 C937 1.465 . S
C943 C942 1.396 1_655 S
C943 C944 1.399 . S
C944 H930 0.929 . S
C944 C943 1.399 . S
C944 C945 1.395 . S
C945 H931 0.935 . S
C945 C944 1.395 . S
C945 C946 1.376 1_655 S
C946 C945 1.376 1_455 S
C946 C947 1.387 . S
C947 H932 0.930 . S
C947 C942 1.390 . S
C947 C946 1.387 . S
H948 C960 0.930 . S
H949 C962 0.930 . S
H950 C963 0.930 . S
H951 C967 0.959 . S
H952 C967 0.959 . S
H953 C967 0.961 . S
H954 C968 0.960 . S
H955 C968 0.961 . S
H956 C968 0.959 . S
H957 C971 0.929 . S
H958 C972 0.931 . S
H959 C974 0.930 . S
C960 H948 0.930 . S
C960 C961 1.399 . S
C960 C965 1.399 . S
C961 C960 1.399 . S
C961 C962 1.376 . S
C962 H949 0.930 . S
C962 C961 1.376 . S
C962 C963 1.388 . S
C963 H950 0.930 . S
C963 C962 1.388 . S
C963 C964 1.390 . S
C964 C963 1.390 . S
C964 C965 1.394 . S
C964 C970 1.465 . S
C965 C960 1.399 . S
C965 C964 1.394 . S
C965 C966 1.516 . S
C966 C965 1.516 . S
C966 C967 1.502 . S
C966 C968 1.561 . S
C966 C969 1.526 . S
C967 H951 0.959 . S
C967 H952 0.959 . S
C967 H953 0.961 . S
C967 C966 1.502 . S
C968 H954 0.960 . S
C968 H955 0.961 . S
C968 H956 0.959 . S
C968 C966 1.561 . S
C969 C966 1.526 . S
C969 C970 1.396 . S
C969 C974 1.390 . S
C970 C964 1.465 . S
C970 C969 1.396 . S
C970 C971 1.399 . S
C971 H957 0.929 . S
C971 C970 1.399 . S
C971 C972 1.385 . S
C972 H958 0.931 . S
C972 C971 1.385 . S
C972 C973 1.389 . S
C973 C972 1.389 . S
C973 C974 1.387 . S
C974 H959 0.930 . S
C974 C969 1.390 . S
C974 C973 1.387 . S
H975 C987 0.930 . S
H976 C989 0.930 . S
H977 C990 0.930 . S
H978 C994 0.959 . S
H979 C994 0.959 . S
H980 C994 0.961 1_545 S
H981 C995 0.960 1_545 S
H982 C995 0.961 . S
H983 C995 0.959 . S
H984 C998 0.929 . S
H985 C999 0.931 . S
H986 C1001 0.930 . S
C987 H975 0.930 . S
C987 C988 1.399 . S
C987 C992 1.399 . S
C988 C987 1.399 . S
C988 C989 1.376 . S
C989 H976 0.930 . S
C989 C988 1.376 . S
C989 C990 1.388 . S
C990 H977 0.930 . S
C990 C989 1.388 . S
C990 C991 1.390 . S
C991 C990 1.390 . S
C991 C992 1.394 . S
C991 C997 1.465 1_545 S
C992 C987 1.399 . S
C992 C991 1.394 . S
C992 C993 1.516 1_545 S
C993 C992 1.516 1_565 S
C993 C994 1.502 . S
C993 C995 1.561 . S
C993 C996 1.526 . S
C994 H978 0.959 . S
C994 H979 0.959 . S
C994 H980 0.961 1_565 S
C994 C993 1.502 . S
C995 H981 0.960 1_565 S
C995 H982 0.961 . S
C995 H983 0.959 . S
C995 C993 1.561 . S
C996 C993 1.526 . S
C996 C997 1.396 . S
C996 C1001 1.390 . S
C997 C991 1.465 1_565 S
C997 C996 1.396 . S
C997 C998 1.399 . S
C998 H984 0.929 . S
C998 C997 1.399 . S
C998 C999 1.385 . S
C999 H985 0.931 . S
C999 C998 1.385 . S
C999 C1000 1.389 . S
C1000 C999 1.389 . S
C1000 C1001 1.387 . S
C1001 H986 0.930 . S
C1001 C996 1.390 . S
C1001 C1000 1.387 . S
H1002 C1014 0.930 1_556 S
H1003 C1016 0.930 . S
H1004 C1017 0.930 . S
H1005 C1021 0.959 . S
H1006 C1021 0.959 . S
H1007 C1021 0.961 . S
H1008 C1022 0.960 . S
H1009 C1022 0.961 . S
H1010 C1022 0.959 . S
H1011 C1025 0.929 . S
H1012 C1026 0.931 . S
H1013 C1028 0.930 . S
C1014 H1002 0.930 1_554 S
C1014 C1015 1.399 . S
C1014 C1019 1.401 . S
C1015 C1014 1.399 . S
C1015 C1016 1.376 . S
C1016 H1003 0.930 . S
C1016 C1015 1.376 . S
C1016 C1017 1.388 . S
C1017 H1004 0.930 . S
C1017 C1016 1.388 . S
C1017 C1018 1.390 . S
C1018 C1017 1.390 . S
C1018 C1019 1.409 . S
C1018 C1024 1.465 . S
C1019 C1014 1.401 . S
C1019 C1018 1.409 . S
C1019 C1020 1.503 1_554 S
C1020 C1019 1.503 1_556 S
C1020 C1021 1.502 . S
C1020 C1022 1.561 1_556 S
C1020 C1023 1.526 . S
C1021 H1005 0.959 . S
C1021 H1006 0.959 . S
C1021 H1007 0.961 . S
C1021 C1020 1.502 . S
C1022 H1008 0.960 . S
C1022 H1009 0.961 . S
C1022 H1010 0.959 . S
C1022 C1020 1.561 1_554 S
C1023 C1020 1.526 . S
C1023 C1024 1.396 1_556 S
C1023 C1028 1.390 . S
C1024 C1018 1.465 . S
C1024 C1023 1.396 1_554 S
C1024 C1025 1.399 . S
C1025 H1011 0.929 . S
C1025 C1024 1.399 . S
C1025 C1026 1.385 . S
C1026 H1012 0.931 . S
C1026 C1025 1.385 . S
C1026 C1027 1.389 1_554 S
C1027 C1026 1.389 1_556 S
C1027 C1028 1.387 . S
C1028 H1013 0.930 . S
C1028 C1023 1.390 . S
C1028 C1027 1.387 . S
H1029 C1041 0.930 . S
H1030 C1043 0.930 . S
H1031 C1044 0.930 . S
H1032 C1048 0.959 . S
H1033 C1048 0.959 . S
H1034 C1048 0.961 1_545 S
H1035 C1049 0.960 1_545 S
H1036 C1049 0.961 . S
H1037 C1049 0.959 . S
H1038 C1052 0.929 . S
H1039 C1053 0.931 . S
H1040 C1055 0.930 . S
C1041 H1029 0.930 . S
C1041 C1042 1.399 . S
C1041 C1046 1.399 . S
C1042 C1041 1.399 . S
C1042 C1043 1.376 . S
C1043 H1030 0.930 . S
C1043 C1042 1.376 . S
C1043 C1044 1.388 . S
C1044 H1031 0.930 . S
C1044 C1043 1.388 . S
C1044 C1045 1.390 . S
C1045 C1044 1.390 . S
C1045 C1046 1.394 . S
C1045 C1051 1.465 1_545 S
C1046 C1041 1.399 . S
C1046 C1045 1.394 . S
C1046 C1047 1.516 1_545 S
C1047 C1046 1.516 1_565 S
C1047 C1048 1.502 . S
C1047 C1049 1.561 . S
C1047 C1050 1.526 . S
C1048 H1032 0.959 . S
C1048 H1033 0.959 . S
C1048 H1034 0.961 1_565 S
C1048 C1047 1.502 . S
C1049 H1035 0.960 1_565 S
C1049 H1036 0.961 . S
C1049 H1037 0.959 . S
C1049 C1047 1.561 . S
C1050 C1047 1.526 . S
C1050 C1051 1.396 . S
C1050 C1055 1.390 . S
C1051 C1045 1.465 1_565 S
C1051 C1050 1.396 . S
C1051 C1052 1.399 . S
C1052 H1038 0.929 . S
C1052 C1051 1.399 . S
C1052 C1053 1.385 . S
C1053 H1039 0.931 . S
C1053 C1052 1.385 . S
C1053 C1054 1.389 . S
C1054 C1053 1.389 . S
C1054 C1055 1.387 . S
C1055 H1040 0.930 . S
C1055 C1050 1.390 . S
C1055 C1054 1.387 . S
H1056 C1068 0.930 . S
H1057 C1070 0.930 . S
H1058 C1071 0.930 1_565 S
H1059 C1075 0.959 . S
H1060 C1075 0.959 . S
H1061 C1075 0.961 . S
H1062 C1076 0.960 . S
H1063 C1076 0.961 . S
H1064 C1076 0.959 . S
H1065 C1079 0.929 1_565 S
H1066 C1080 0.931 . S
H1067 C1082 0.930 1_556 S
C1068 H1056 0.930 . S
C1068 C1069 1.399 . S
C1068 C1073 1.399 . S
C1069 C1068 1.399 . S
C1069 C1070 1.376 1_556 S
C1070 H1057 0.930 . S
C1070 C1069 1.376 1_554 S
C1070 C1071 1.388 . S
C1071 H1058 0.930 1_545 S
C1071 C1070 1.388 . S
C1071 C1072 1.390 . S
C1072 C1071 1.390 . S
C1072 C1073 1.394 1_554 S
C1072 C1078 1.465 . S
C1073 C1068 1.399 . S
C1073 C1072 1.394 1_556 S
C1073 C1074 1.516 . S
C1074 C1073 1.516 . S
C1074 C1075 1.502 . S
C1074 C1076 1.561 1_556 S
C1074 C1077 1.526 1_556 S
C1075 H1059 0.959 . S
C1075 H1060 0.959 . S
C1075 H1061 0.961 . S
C1075 C1074 1.502 . S
C1076 H1062 0.960 . S
C1076 H1063 0.961 . S
C1076 H1064 0.959 . S
C1076 C1074 1.561 1_554 S
C1077 C1074 1.526 1_554 S
C1077 C1078 1.396 . S
C1077 C1082 1.390 . S
C1078 C1072 1.465 . S
C1078 C1077 1.396 . S
C1078 C1079 1.399 . S
C1079 H1065 0.929 1_545 S
C1079 C1078 1.399 . S
C1079 C1080 1.385 . S
C1080 H1066 0.931 . S
C1080 C1079 1.385 . S
C1080 C1081 1.389 . S
C1081 C1080 1.389 . S
C1081 C1082 1.387 . S
C1082 H1067 0.930 1_554 S
C1082 C1077 1.390 . S
C1082 C1081 1.387 . S
H1083 C1095 0.930 . S
H1084 C1097 0.930 . S
H1085 C1098 0.930 . S
H1086 C1102 0.959 . S
H1087 C1102 0.959 . S
H1088 C1102 0.961 . S
H1089 C1103 0.960 . S
H1090 C1103 0.961 . S
H1091 C1103 0.959 . S
H1092 C1106 0.929 . S
H1093 C1107 0.931 . S
H1094 C1109 0.930 . S
C1095 H1083 0.930 . S
C1095 C1096 1.399 . S
C1095 C1100 1.399 . S
C1096 C1095 1.399 . S
C1096 C1097 1.376 . S
C1097 H1084 0.930 . S
C1097 C1096 1.376 . S
C1097 C1098 1.388 . S
C1098 H1085 0.930 . S
C1098 C1097 1.388 . S
C1098 C1099 1.390 . S
C1099 C1098 1.390 . S
C1099 C1100 1.394 . S
C1099 C1105 1.465 . S
C1100 C1095 1.399 . S
C1100 C1099 1.394 . S
C1100 C1101 1.516 . S
C1101 C1100 1.516 . S
C1101 C1102 1.502 . S
C1101 C1103 1.561 . S
C1101 C1104 1.526 . S
C1102 H1086 0.959 . S
C1102 H1087 0.959 . S
C1102 H1088 0.961 . S
C1102 C1101 1.502 . S
C1103 H1089 0.960 . S
C1103 H1090 0.961 . S
C1103 H1091 0.959 . S
C1103 C1101 1.561 . S
C1104 C1101 1.526 . S
C1104 C1105 1.396 . S
C1104 C1109 1.390 . S
C1105 C1099 1.465 . S
C1105 C1104 1.396 . S
C1105 C1106 1.399 . S
C1106 H1092 0.929 . S
C1106 C1105 1.399 . S
C1106 C1107 1.385 . S
C1107 H1093 0.931 . S
C1107 C1106 1.385 . S
C1107 C1108 1.389 . S
C1108 C1107 1.389 . S
C1108 C1109 1.387 . S
C1109 H1094 0.930 . S
C1109 C1104 1.390 . S
C1109 C1108 1.387 . S
H1110 C1122 0.930 . S
H1111 C1124 0.930 . S
H1112 C1125 0.930 . S
H1113 C1129 0.959 . S
H1114 C1129 0.959 . S
H1115 C1129 0.961 . S
H1116 C1130 0.960 . S
H1117 C1130 0.961 . S
H1118 C1130 0.959 . S
H1119 C1133 0.929 . S
H1120 C1134 0.931 . S
H1121 C1136 0.930 . S
C1122 H1110 0.930 . S
C1122 C1123 1.399 . S
C1122 C1127 1.399 . S
C1123 C1122 1.399 . S
C1123 C1124 1.376 . S
C1124 H1111 0.930 . S
C1124 C1123 1.376 . S
C1124 C1125 1.388 . S
C1125 H1112 0.930 . S
C1125 C1124 1.388 . S
C1125 C1126 1.390 . S
C1126 C1125 1.390 . S
C1126 C1127 1.394 . S
C1126 C1132 1.465 . S
C1127 C1122 1.399 . S
C1127 C1126 1.394 . S
C1127 C1128 1.516 . S
C1128 C1127 1.516 . S
C1128 C1129 1.502 . S
C1128 C1130 1.561 . S
C1128 C1131 1.526 . S
C1129 H1113 0.959 . S
C1129 H1114 0.959 . S
C1129 H1115 0.961 . S
C1129 C1128 1.502 . S
C1130 H1116 0.960 . S
C1130 H1117 0.961 . S
C1130 H1118 0.959 . S
C1130 C1128 1.561 . S
C1131 C1128 1.526 . S
C1131 C1132 1.396 . S
C1131 C1136 1.390 . S
C1132 C1126 1.465 . S
C1132 C1131 1.396 . S
C1132 C1133 1.399 . S
C1133 H1119 0.929 . S
C1133 C1132 1.399 . S
C1133 C1134 1.385 . S
C1134 H1120 0.931 . S
C1134 C1133 1.385 . S
C1134 C1135 1.389 . S
C1135 C1134 1.389 . S
C1135 C1136 1.387 . S
C1136 H1121 0.930 . S
C1136 C1131 1.390 . S
C1136 C1135 1.387 . S
H1137 C1149 0.930 . S
H1138 C1151 0.930 . S
H1139 C1152 0.930 . S
H1140 C1156 0.959 . S
H1141 C1156 0.959 1_556 S
H1142 C1156 0.961 . S
H1143 C1157 0.960 1_554 S
H1144 C1157 0.961 . S
H1145 C1157 0.959 . S
H1146 C1160 0.929 . S
H1147 C1161 0.931 . S
H1148 C1163 0.930 . S
C1149 H1137 0.930 . S
C1149 C1150 1.399 . S
C1149 C1154 1.399 . S
C1150 C1149 1.399 . S
C1150 C1151 1.376 . S
C1151 H1138 0.930 . S
C1151 C1150 1.376 . S
C1151 C1152 1.388 . S
C1152 H1139 0.930 . S
C1152 C1151 1.388 . S
C1152 C1153 1.390 . S
C1153 C1152 1.390 . S
C1153 C1154 1.394 . S
C1153 C1159 1.465 1_554 S
C1154 C1149 1.399 . S
C1154 C1153 1.394 . S
C1154 C1155 1.552 . S
C1155 C1154 1.552 . S
C1155 C1156 1.509 . S
C1155 C1157 1.556 1_554 S
C1155 C1158 1.488 1_554 S
C1156 H1140 0.959 . S
C1156 H1141 0.959 1_554 S
C1156 H1142 0.961 . S
C1156 C1155 1.509 . S
C1157 H1143 0.960 1_556 S
C1157 H1144 0.961 . S
C1157 H1145 0.959 . S
C1157 C1155 1.556 1_556 S
C1158 C1155 1.488 1_556 S
C1158 C1159 1.396 . S
C1158 C1163 1.390 . S
C1159 C1153 1.465 1_556 S
C1159 C1158 1.396 . S
C1159 C1160 1.399 . S
C1160 H1146 0.929 . S
C1160 C1159 1.399 . S
C1160 C1161 1.385 . S
C1161 H1147 0.931 . S
C1161 C1160 1.385 . S
C1161 C1162 1.389 . S
C1162 C1161 1.389 . S
C1162 C1163 1.387 . S
C1163 H1148 0.930 . S
C1163 C1158 1.390 . S
C1163 C1162 1.387 . S
H1164 C1176 0.930 . S
H1165 C1178 0.930 . S
H1166 C1179 0.930 . S
H1167 C1183 0.959 . S
H1168 C1183 0.959 . S
H1169 C1183 0.961 . S
H1170 C1184 0.960 . S
H1171 C1184 0.961 . S
H1172 C1184 0.959 . S
H1173 C1187 0.929 . S
H1174 C1188 0.931 . S
H1175 C1190 0.930 . S
C1176 H1164 0.930 . S
C1176 C1177 1.399 . S
C1176 C1181 1.399 . S
C1177 C1176 1.399 . S
C1177 C1178 1.376 . S
C1178 H1165 0.930 . S
C1178 C1177 1.376 . S
C1178 C1179 1.388 . S
C1179 H1166 0.930 . S
C1179 C1178 1.388 . S
C1179 C1180 1.390 . S
C1180 C1179 1.390 . S
C1180 C1181 1.394 . S
C1180 C1186 1.465 . S
C1181 C1176 1.399 . S
C1181 C1180 1.394 . S
C1181 C1182 1.516 . S
C1182 C1181 1.516 . S
C1182 C1183 1.502 . S
C1182 C1184 1.561 . S
C1182 C1185 1.526 . S
C1183 H1167 0.959 . S
C1183 H1168 0.959 . S
C1183 H1169 0.961 . S
C1183 C1182 1.502 . S
C1184 H1170 0.960 . S
C1184 H1171 0.961 . S
C1184 H1172 0.959 . S
C1184 C1182 1.561 . S
C1185 C1182 1.526 . S
C1185 C1186 1.396 . S
C1185 C1190 1.390 . S
C1186 C1180 1.465 . S
C1186 C1185 1.396 . S
C1186 C1187 1.399 . S
C1187 H1173 0.929 . S
C1187 C1186 1.399 . S
C1187 C1188 1.385 . S
C1188 H1174 0.931 . S
C1188 C1187 1.385 . S
C1188 C1189 1.389 . S
C1189 C1188 1.389 . S
C1189 C1190 1.387 . S
C1190 H1175 0.930 . S
C1190 C1185 1.390 . S
C1190 C1189 1.387 . S
H1191 C1203 0.930 . S
H1192 C1205 0.930 . S
H1193 C1206 0.930 . S
H1194 C1210 0.959 . S
H1195 C1210 0.959 . S
H1196 C1210 0.961 . S
H1197 C1211 0.960 . S
H1198 C1211 0.961 . S
H1199 C1211 0.959 . S
H1200 C1214 0.929 . S
H1201 C1215 0.931 . S
H1202 C1217 0.930 . S
C1203 H1191 0.930 . S
C1203 C1204 1.399 . S
C1203 C1208 1.399 . S
C1204 C1203 1.399 . S
C1204 C1205 1.376 . S
C1205 H1192 0.930 . S
C1205 C1204 1.376 . S
C1205 C1206 1.388 . S
C1206 H1193 0.930 . S
C1206 C1205 1.388 . S
C1206 C1207 1.390 . S
C1207 C1206 1.390 . S
C1207 C1208 1.394 . S
C1207 C1213 1.465 . S
C1208 C1203 1.399 . S
C1208 C1207 1.394 . S
C1208 C1209 1.516 . S
C1209 C1208 1.516 . S
C1209 C1210 1.502 . S
C1209 C1211 1.561 . S
C1209 C1212 1.526 . S
C1210 H1194 0.959 . S
C1210 H1195 0.959 . S
C1210 H1196 0.961 . S
C1210 C1209 1.502 . S
C1211 H1197 0.960 . S
C1211 H1198 0.961 . S
C1211 H1199 0.959 . S
C1211 C1209 1.561 . S
C1212 C1209 1.526 . S
C1212 C1213 1.396 . S
C1212 C1217 1.390 . S
C1213 C1207 1.465 . S
C1213 C1212 1.396 . S
C1213 C1214 1.399 . S
C1214 H1200 0.929 . S
C1214 C1213 1.399 . S
C1214 C1215 1.385 . S
C1215 H1201 0.931 . S
C1215 C1214 1.385 . S
C1215 C1216 1.389 . S
C1216 C1215 1.389 . S
C1216 C1217 1.387 . S
C1217 H1202 0.930 . S
C1217 C1212 1.390 . S
C1217 C1216 1.387 . S
H1218 C1230 0.930 . S
H1219 C1232 0.930 . S
H1220 C1233 0.930 . S
H1221 C1237 0.959 . S
H1222 C1237 0.959 . S
H1223 C1237 0.961 . S
H1224 C1238 0.960 . S
H1225 C1238 0.961 . S
H1226 C1238 0.959 . S
H1227 C1241 0.929 . S
H1228 C1242 0.931 . S
H1229 C1244 0.930 . S
C1230 H1218 0.930 . S
C1230 C1231 1.399 . S
C1230 C1235 1.399 . S
C1231 C1230 1.399 . S
C1231 C1232 1.376 . S
C1232 H1219 0.930 . S
C1232 C1231 1.376 . S
C1232 C1233 1.388 . S
C1233 H1220 0.930 . S
C1233 C1232 1.388 . S
C1233 C1234 1.390 . S
C1234 C1233 1.390 . S
C1234 C1235 1.394 . S
C1234 C1240 1.465 . S
C1235 C1230 1.399 . S
C1235 C1234 1.394 . S
C1235 C1236 1.516 . S
C1236 C1235 1.516 . S
C1236 C1237 1.502 1_655 S
C1236 C1238 1.561 . S
C1236 C1239 1.526 . S
C1237 H1221 0.959 . S
C1237 H1222 0.959 . S
C1237 H1223 0.961 . S
C1237 C1236 1.502 1_455 S
C1238 H1224 0.960 . S
C1238 H1225 0.961 . S
C1238 H1226 0.959 . S
C1238 C1236 1.561 . S
C1239 C1236 1.526 . S
C1239 C1240 1.396 . S
C1239 C1244 1.390 . S
C1240 C1234 1.465 . S
C1240 C1239 1.396 . S
C1240 C1241 1.399 . S
C1241 H1227 0.929 . S
C1241 C1240 1.399 . S
C1241 C1242 1.385 . S
C1242 H1228 0.931 . S
C1242 C1241 1.385 . S
C1242 C1243 1.389 . S
C1243 C1242 1.389 . S
C1243 C1244 1.387 . S
C1244 H1229 0.930 . S
C1244 C1239 1.390 . S
C1244 C1243 1.387 . S
H1245 C1257 0.930 . S
H1246 C1259 0.930 . S
H1247 C1260 0.930 1_545 S
H1248 C1264 0.959 . S
H1249 C1264 0.959 . S
H1250 C1264 0.961 . S
H1251 C1265 0.960 . S
H1252 C1265 0.961 . S
H1253 C1265 0.959 . S
H1254 C1268 0.929 1_545 S
H1255 C1269 0.931 . S
H1256 C1271 0.930 . S
C1257 H1245 0.930 . S
C1257 C1258 1.399 . S
C1257 C1262 1.399 . S
C1258 C1257 1.399 . S
C1258 C1259 1.376 . S
C1259 H1246 0.930 . S
C1259 C1258 1.376 . S
C1259 C1260 1.388 . S
C1260 H1247 0.930 1_565 S
C1260 C1259 1.388 . S
C1260 C1261 1.390 . S
C1261 C1260 1.390 . S
C1261 C1262 1.394 . S
C1261 C1267 1.465 . S
C1262 C1257 1.399 . S
C1262 C1261 1.394 . S
C1262 C1263 1.516 . S
C1263 C1262 1.516 . S
C1263 C1264 1.502 . S
C1263 C1265 1.561 . S
C1263 C1266 1.526 . S
C1264 H1248 0.959 . S
C1264 H1249 0.959 . S
C1264 H1250 0.961 . S
C1264 C1263 1.502 . S
C1265 H1251 0.960 . S
C1265 H1252 0.961 . S
C1265 H1253 0.959 . S
C1265 C1263 1.561 . S
C1266 C1263 1.526 . S
C1266 C1267 1.396 . S
C1266 C1271 1.390 . S
C1267 C1261 1.465 . S
C1267 C1266 1.396 . S
C1267 C1268 1.399 . S
C1268 H1254 0.929 1_565 S
C1268 C1267 1.399 . S
C1268 C1269 1.385 . S
C1269 H1255 0.931 . S
C1269 C1268 1.385 . S
C1269 C1270 1.389 . S
C1270 C1269 1.389 . S
C1270 C1271 1.387 . S
C1271 H1256 0.930 . S
C1271 C1266 1.390 . S
C1271 C1270 1.387 . S
H1272 C1284 0.930 . S
H1273 C1286 0.930 . S
H1274 C1287 0.930 . S
H1275 C1291 0.959 . S
H1276 C1291 0.959 . S
H1277 C1291 0.961 . S
H1278 C1292 0.960 . S
H1279 C1292 0.961 . S
H1280 C1292 0.959 . S
H1281 C1295 0.929 . S
H1282 C1296 0.931 . S
H1283 C1298 0.930 . S
C1284 H1272 0.930 . S
C1284 C1285 1.399 . S
C1284 C1289 1.399 . S
C1285 C1284 1.399 . S
C1285 C1286 1.376 . S
C1286 H1273 0.930 . S
C1286 C1285 1.376 . S
C1286 C1287 1.388 . S
C1287 H1274 0.930 . S
C1287 C1286 1.388 . S
C1287 C1288 1.390 . S
C1288 C1287 1.390 . S
C1288 C1289 1.394 . S
C1288 C1294 1.465 . S
C1289 C1284 1.399 . S
C1289 C1288 1.394 . S
C1289 C1290 1.516 . S
C1290 C1289 1.516 . S
C1290 C1291 1.502 . S
C1290 C1292 1.561 . S
C1290 C1293 1.526 . S
C1291 H1275 0.959 . S
C1291 H1276 0.959 . S
C1291 H1277 0.961 . S
C1291 C1290 1.502 . S
C1292 H1278 0.960 . S
C1292 H1279 0.961 . S
C1292 H1280 0.959 . S
C1292 C1290 1.561 . S
C1293 C1290 1.526 . S
C1293 C1294 1.396 . S
C1293 C1298 1.390 . S
C1294 C1288 1.465 . S
C1294 C1293 1.396 . S
C1294 C1295 1.399 . S
C1295 H1281 0.929 . S
C1295 C1294 1.399 . S
C1295 C1296 1.385 . S
C1296 H1282 0.931 . S
C1296 C1295 1.385 . S
C1296 C1297 1.389 . S
C1297 C1296 1.389 . S
C1297 C1298 1.387 . S
C1298 H1283 0.930 . S
C1298 C1293 1.390 . S
C1298 C1297 1.387 . S
H1299 C1311 0.930 . S
H1300 C1313 0.930 . S
H1301 C1314 0.930 . S
H1302 C1318 0.959 . S
H1303 C1318 0.959 . S
H1304 C1318 0.961 . S
H1305 C1319 0.960 . S
H1306 C1319 0.961 . S
H1307 C1319 0.959 . S
H1308 C1322 0.929 . S
H1309 C1323 0.931 . S
H1310 C1325 0.930 . S
C1311 H1299 0.930 . S
C1311 C1312 1.399 . S
C1311 C1316 1.399 . S
C1312 C1311 1.399 . S
C1312 C1313 1.376 . S
C1313 H1300 0.930 . S
C1313 C1312 1.376 . S
C1313 C1314 1.388 . S
C1314 H1301 0.930 . S
C1314 C1313 1.388 . S
C1314 C1315 1.390 . S
C1315 C1314 1.390 . S
C1315 C1316 1.394 . S
C1315 C1321 1.465 . S
C1316 C1311 1.399 . S
C1316 C1315 1.394 . S
C1316 C1317 1.516 . S
C1317 C1316 1.516 . S
C1317 C1318 1.502 . S
C1317 C1319 1.561 . S
C1317 C1320 1.526 . S
C1318 H1302 0.959 . S
C1318 H1303 0.959 . S
C1318 H1304 0.961 . S
C1318 C1317 1.502 . S
C1319 H1305 0.960 . S
C1319 H1306 0.961 . S
C1319 H1307 0.959 . S
C1319 C1317 1.561 . S
C1320 C1317 1.526 . S
C1320 C1321 1.396 . S
C1320 C1325 1.390 . S
C1321 C1315 1.465 . S
C1321 C1320 1.396 . S
C1321 C1322 1.399 . S
C1322 H1308 0.929 . S
C1322 C1321 1.399 . S
C1322 C1323 1.385 . S
C1323 H1309 0.931 . S
C1323 C1322 1.385 . S
C1323 C1324 1.389 . S
C1324 C1323 1.389 . S
C1324 C1325 1.387 . S
C1325 H1310 0.930 . S
C1325 C1320 1.390 . S
C1325 C1324 1.387 . S
H1326 C1338 0.930 . S
H1327 C1340 0.930 . S
H1328 C1341 0.930 . S
H1329 C1345 0.959 . S
H1330 C1345 0.959 . S
H1331 C1345 0.961 . S
H1332 C1346 0.960 . S
H1333 C1346 0.961 . S
H1334 C1346 0.959 . S
H1335 C1349 0.929 . S
H1336 C1350 0.931 . S
H1337 C1352 0.930 . S
C1338 H1326 0.930 . S
C1338 C1339 1.399 . S
C1338 C1343 1.399 . S
C1339 C1338 1.399 . S
C1339 C1340 1.376 . S
C1340 H1327 0.930 . S
C1340 C1339 1.376 . S
C1340 C1341 1.388 . S
C1341 H1328 0.930 . S
C1341 C1340 1.388 . S
C1341 C1342 1.390 . S
C1342 C1341 1.390 . S
C1342 C1343 1.394 . S
C1342 C1348 1.465 . S
C1343 C1338 1.399 . S
C1343 C1342 1.394 . S
C1343 C1344 1.516 . S
C1344 C1343 1.516 . S
C1344 C1345 1.502 . S
C1344 C1346 1.561 . S
C1344 C1347 1.526 . S
C1345 H1329 0.959 . S
C1345 H1330 0.959 . S
C1345 H1331 0.961 . S
C1345 C1344 1.502 . S
C1346 H1332 0.960 . S
C1346 H1333 0.961 . S
C1346 H1334 0.959 . S
C1346 C1344 1.561 . S
C1347 C1344 1.526 . S
C1347 C1348 1.396 . S
C1347 C1352 1.390 . S
C1348 C1342 1.465 . S
C1348 C1347 1.396 . S
C1348 C1349 1.399 . S
C1349 H1335 0.929 . S
C1349 C1348 1.399 . S
C1349 C1350 1.385 . S
C1350 H1336 0.931 . S
C1350 C1349 1.385 . S
C1350 C1351 1.389 . S
C1351 C1350 1.389 . S
C1351 C1352 1.387 . S
C1352 H1337 0.930 . S
C1352 C1347 1.390 . S
C1352 C1351 1.387 . S
H1353 C1365 0.930 . S
H1354 C1367 0.930 . S
H1355 C1368 0.930 . S
H1356 C1372 0.959 . S
H1357 C1372 0.959 1_565 S
H1358 C1372 0.961 1_565 S
H1359 C1373 0.960 1_565 S
H1360 C1373 0.961 1_565 S
H1361 C1373 0.959 . S
H1362 C1376 0.929 . S
H1363 C1377 0.931 . S
H1364 C1379 0.930 . S
C1365 H1353 0.930 . S
C1365 C1366 1.399 . S
C1365 C1370 1.399 . S
C1366 C1365 1.399 . S
C1366 C1367 1.376 . S
C1367 H1354 0.930 . S
C1367 C1366 1.376 . S
C1367 C1368 1.388 . S
C1368 H1355 0.930 . S
C1368 C1367 1.388 . S
C1368 C1369 1.390 . S
C1369 C1368 1.390 . S
C1369 C1370 1.394 . S
C1369 C1375 1.465 . S
C1370 C1365 1.399 . S
C1370 C1369 1.394 . S
C1370 C1371 1.516 . S
C1371 C1370 1.516 . S
C1371 C1372 1.502 . S
C1371 C1373 1.561 . S
C1371 C1374 1.526 . S
C1372 H1356 0.959 . S
C1372 H1357 0.959 1_545 S
C1372 H1358 0.961 1_545 S
C1372 C1371 1.502 . S
C1373 H1359 0.960 1_545 S
C1373 H1360 0.961 1_545 S
C1373 H1361 0.959 . S
C1373 C1371 1.561 . S
C1374 C1371 1.526 . S
C1374 C1375 1.396 . S
C1374 C1379 1.390 . S
C1375 C1369 1.465 . S
C1375 C1374 1.396 . S
C1375 C1376 1.399 . S
C1376 H1362 0.929 . S
C1376 C1375 1.399 . S
C1376 C1377 1.385 . S
C1377 H1363 0.931 . S
C1377 C1376 1.385 . S
C1377 C1378 1.389 . S
C1378 C1377 1.389 . S
C1378 C1379 1.387 . S
C1379 H1364 0.930 . S
C1379 C1374 1.390 . S
C1379 C1378 1.387 . S
H1380 C1392 0.930 . S
H1381 C1394 0.930 . S
H1382 C1395 0.930 . S
H1383 C1399 0.959 . S
H1384 C1399 0.959 . S
H1385 C1399 0.961 . S
H1386 C1400 0.960 . S
H1387 C1400 0.961 . S
H1388 C1400 0.959 . S
H1389 C1403 0.929 . S
H1390 C1404 0.931 . S
H1391 C1406 0.930 . S
C1392 H1380 0.930 . S
C1392 C1393 1.399 . S
C1392 C1397 1.399 . S
C1393 C1392 1.399 . S
C1393 C1394 1.376 . S
C1394 H1381 0.930 . S
C1394 C1393 1.376 . S
C1394 C1395 1.388 . S
C1395 H1382 0.930 . S
C1395 C1394 1.388 . S
C1395 C1396 1.390 . S
C1396 C1395 1.390 . S
C1396 C1397 1.394 . S
C1396 C1402 1.465 . S
C1397 C1392 1.399 . S
C1397 C1396 1.394 . S
C1397 C1398 1.516 . S
C1398 C1397 1.516 . S
C1398 C1399 1.502 . S
C1398 C1400 1.561 . S
C1398 C1401 1.526 . S
C1399 H1383 0.959 . S
C1399 H1384 0.959 . S
C1399 H1385 0.961 . S
C1399 C1398 1.502 . S
C1400 H1386 0.960 . S
C1400 H1387 0.961 . S
C1400 H1388 0.959 . S
C1400 C1398 1.561 . S
C1401 C1398 1.526 . S
C1401 C1402 1.396 . S
C1401 C1406 1.390 . S
C1402 C1396 1.465 . S
C1402 C1401 1.396 . S
C1402 C1403 1.399 . S
C1403 H1389 0.929 . S
C1403 C1402 1.399 . S
C1403 C1404 1.385 . S
C1404 H1390 0.931 . S
C1404 C1403 1.385 . S
C1404 C1405 1.389 . S
C1405 C1404 1.389 . S
C1405 C1406 1.387 . S
C1406 H1391 0.930 . S
C1406 C1401 1.390 . S
C1406 C1405 1.387 . S
H1407 C1419 0.930 . S
H1408 C1421 0.930 . S
H1409 C1422 0.930 . S
H1410 C1426 0.959 . S
H1411 C1426 0.959 . S
H1412 C1426 0.961 . S
H1413 C1427 0.960 . S
H1414 C1427 0.961 . S
H1415 C1427 0.959 . S
H1416 C1430 0.929 . S
H1417 C1431 0.931 . S
H1418 C1433 0.930 . S
C1419 H1407 0.930 . S
C1419 C1420 1.399 . S
C1419 C1424 1.399 . S
C1420 C1419 1.399 . S
C1420 C1421 1.376 . S
C1421 H1408 0.930 . S
C1421 C1420 1.376 . S
C1421 C1422 1.388 . S
C1422 H1409 0.930 . S
C1422 C1421 1.388 . S
C1422 C1423 1.390 . S
C1423 C1422 1.390 . S
C1423 C1424 1.394 . S
C1423 C1429 1.465 . S
C1424 C1419 1.399 . S
C1424 C1423 1.394 . S
C1424 C1425 1.516 . S
C1425 C1424 1.516 . S
C1425 C1426 1.502 . S
C1425 C1427 1.561 . S
C1425 C1428 1.526 . S
C1426 H1410 0.959 . S
C1426 H1411 0.959 . S
C1426 H1412 0.961 . S
C1426 C1425 1.502 . S
C1427 H1413 0.960 . S
C1427 H1414 0.961 . S
C1427 H1415 0.959 . S
C1427 C1425 1.561 . S
C1428 C1425 1.526 . S
C1428 C1429 1.396 . S
C1428 C1433 1.390 . S
C1429 C1423 1.465 . S
C1429 C1428 1.396 . S
C1429 C1430 1.399 . S
C1430 H1416 0.929 . S
C1430 C1429 1.399 . S
C1430 C1431 1.385 . S
C1431 H1417 0.931 . S
C1431 C1430 1.385 . S
C1431 C1432 1.389 . S
C1432 C1431 1.389 . S
C1432 C1433 1.387 . S
C1433 H1418 0.930 . S
C1433 C1428 1.390 . S
C1433 C1432 1.387 . S
H1434 C1446 0.930 . S
H1435 C1448 0.930 . S
H1436 C1449 0.930 . S
H1437 C1453 0.959 . S
H1438 C1453 0.959 . S
H1439 C1453 0.961 . S
H1440 C1454 0.960 . S
H1441 C1454 0.961 . S
H1442 C1454 0.959 . S
H1443 C1457 0.929 . S
H1444 C1458 0.931 . S
H1445 C1460 0.930 . S
C1446 H1434 0.930 . S
C1446 C1447 1.399 . S
C1446 C1451 1.399 . S
C1447 C1446 1.399 . S
C1447 C1448 1.376 . S
C1448 H1435 0.930 . S
C1448 C1447 1.376 . S
C1448 C1449 1.388 . S
C1449 H1436 0.930 . S
C1449 C1448 1.388 . S
C1449 C1450 1.390 . S
C1450 C1449 1.390 . S
C1450 C1451 1.394 . S
C1450 C1456 1.465 . S
C1451 C1446 1.399 . S
C1451 C1450 1.394 . S
C1451 C1452 1.516 . S
C1452 C1451 1.516 . S
C1452 C1453 1.502 . S
C1452 C1454 1.561 . S
C1452 C1455 1.526 . S
C1453 H1437 0.959 . S
C1453 H1438 0.959 . S
C1453 H1439 0.961 . S
C1453 C1452 1.502 . S
C1454 H1440 0.960 . S
C1454 H1441 0.961 . S
C1454 H1442 0.959 . S
C1454 C1452 1.561 . S
C1455 C1452 1.526 . S
C1455 C1456 1.396 . S
C1455 C1460 1.390 . S
C1456 C1450 1.465 . S
C1456 C1455 1.396 . S
C1456 C1457 1.399 . S
C1457 H1443 0.929 . S
C1457 C1456 1.399 . S
C1457 C1458 1.385 . S
C1458 H1444 0.931 . S
C1458 C1457 1.385 . S
C1458 C1459 1.389 . S
C1459 C1458 1.389 . S
C1459 C1460 1.387 . S
C1460 H1445 0.930 . S
C1460 C1455 1.390 . S
C1460 C1459 1.387 . S
H1461 C1473 0.930 . S
H1462 C1475 0.930 . S
H1463 C1476 0.930 . S
H1464 C1480 0.959 . S
H1465 C1480 0.959 . S
H1466 C1480 0.961 . S
H1467 C1481 0.960 . S
H1468 C1481 0.961 . S
H1469 C1481 0.959 . S
H1470 C1484 0.929 . S
H1471 C1485 0.931 . S
H1472 C1487 0.930 . S
C1473 H1461 0.930 . S
C1473 C1474 1.399 . S
C1473 C1478 1.399 . S
C1474 C1473 1.399 . S
C1474 C1475 1.376 . S
C1475 H1462 0.930 . S
C1475 C1474 1.376 . S
C1475 C1476 1.388 . S
C1476 H1463 0.930 . S
C1476 C1475 1.388 . S
C1476 C1477 1.390 . S
C1477 C1476 1.390 . S
C1477 C1478 1.394 . S
C1477 C1483 1.465 . S
C1478 C1473 1.399 . S
C1478 C1477 1.394 . S
C1478 C1479 1.516 . S
C1479 C1478 1.516 . S
C1479 C1480 1.502 . S
C1479 C1481 1.561 . S
C1479 C1482 1.526 . S
C1480 H1464 0.959 . S
C1480 H1465 0.959 . S
C1480 H1466 0.961 . S
C1480 C1479 1.502 . S
C1481 H1467 0.960 . S
C1481 H1468 0.961 . S
C1481 H1469 0.959 . S
C1481 C1479 1.561 . S
C1482 C1479 1.526 . S
C1482 C1483 1.396 . S
C1482 C1487 1.390 . S
C1483 C1477 1.465 . S
C1483 C1482 1.396 . S
C1483 C1484 1.399 . S
C1484 H1470 0.929 . S
C1484 C1483 1.399 . S
C1484 C1485 1.385 . S
C1485 H1471 0.931 . S
C1485 C1484 1.385 . S
C1485 C1486 1.389 . S
C1486 C1485 1.389 . S
C1486 C1487 1.387 . S
C1487 H1472 0.930 . S
C1487 C1482 1.390 . S
C1487 C1486 1.387 . S
H1488 C1500 0.930 . S
H1489 C1502 0.930 . S
H1490 C1503 0.930 . S
H1491 C1507 0.959 . S
H1492 C1507 0.959 . S
H1493 C1507 0.961 . S
H1494 C1508 0.960 . S
H1495 C1508 0.961 . S
H1496 C1508 0.959 . S
H1497 C1511 0.929 . S
H1498 C1512 0.931 . S
H1499 C1514 0.930 . S
C1500 H1488 0.930 . S
C1500 C1501 1.399 . S
C1500 C1505 1.399 . S
C1501 C1500 1.399 . S
C1501 C1502 1.376 . S
C1502 H1489 0.930 . S
C1502 C1501 1.376 . S
C1502 C1503 1.388 . S
C1503 H1490 0.930 . S
C1503 C1502 1.388 . S
C1503 C1504 1.390 . S
C1504 C1503 1.390 . S
C1504 C1505 1.394 . S
C1504 C1510 1.465 . S
C1505 C1500 1.399 . S
C1505 C1504 1.394 . S
C1505 C1506 1.516 . S
C1506 C1505 1.516 . S
C1506 C1507 1.502 . S
C1506 C1508 1.561 . S
C1506 C1509 1.526 . S
C1507 H1491 0.959 . S
C1507 H1492 0.959 . S
C1507 H1493 0.961 . S
C1507 C1506 1.502 . S
C1508 H1494 0.960 . S
C1508 H1495 0.961 . S
C1508 H1496 0.959 . S
C1508 C1506 1.561 . S
C1509 C1506 1.526 . S
C1509 C1510 1.396 . S
C1509 C1514 1.390 . S
C1510 C1504 1.465 . S
C1510 C1509 1.396 . S
C1510 C1511 1.399 . S
C1511 H1497 0.929 . S
C1511 C1510 1.399 . S
C1511 C1512 1.385 . S
C1512 H1498 0.931 . S
C1512 C1511 1.385 . S
C1512 C1513 1.389 . S
C1513 C1512 1.389 . S
C1513 C1514 1.387 . S
C1514 H1499 0.930 . S
C1514 C1509 1.390 . S
C1514 C1513 1.387 . S
H1515 C1527 0.930 . S
H1516 C1529 0.930 . S
H1517 C1530 0.930 . S
H1518 C1534 0.959 . S
H1519 C1534 0.959 . S
H1520 C1534 0.961 . S
H1521 C1535 0.960 . S
H1522 C1535 0.961 . S
H1523 C1535 0.959 . S
H1524 C1538 0.929 1_655 S
H1525 C1539 0.931 . S
H1526 C1541 0.930 . S
C1527 H1515 0.930 . S
C1527 C1528 1.399 . S
C1527 C1532 1.399 . S
C1528 C1527 1.399 . S
C1528 C1529 1.376 . S
C1529 H1516 0.930 . S
C1529 C1528 1.376 . S
C1529 C1530 1.388 . S
C1530 H1517 0.930 . S
C1530 C1529 1.388 . S
C1530 C1531 1.390 . S
C1531 C1530 1.390 . S
C1531 C1532 1.394 . S
C1531 C1537 1.465 . S
C1532 C1527 1.399 . S
C1532 C1531 1.394 . S
C1532 C1533 1.516 . S
C1533 C1532 1.516 . S
C1533 C1534 1.502 . S
C1533 C1535 1.561 . S
C1533 C1536 1.526 . S
C1534 H1518 0.959 . S
C1534 H1519 0.959 . S
C1534 H1520 0.961 . S
C1534 C1533 1.502 . S
C1535 H1521 0.960 . S
C1535 H1522 0.961 . S
C1535 H1523 0.959 . S
C1535 C1533 1.561 . S
C1536 C1533 1.526 . S
C1536 C1537 1.396 . S
C1536 C1541 1.390 . S
C1537 C1531 1.465 . S
C1537 C1536 1.396 . S
C1537 C1538 1.399 . S
C1538 H1524 0.929 1_455 S
C1538 C1537 1.399 . S
C1538 C1539 1.385 . S
C1539 H1525 0.931 . S
C1539 C1538 1.385 . S
C1539 C1540 1.389 . S
C1540 C1539 1.389 . S
C1540 C1541 1.387 . S
C1541 H1526 0.930 . S
C1541 C1536 1.390 . S
C1541 C1540 1.387 . S
H1542 C1554 0.930 . S
H1543 C1556 0.930 . S
H1544 C1557 0.930 . S
H1545 C1561 0.959 . S
H1546 C1561 0.959 . S
H1547 C1561 0.961 . S
H1548 C1562 0.960 . S
H1549 C1562 0.961 . S
H1550 C1562 0.959 . S
H1551 C1565 0.929 . S
H1552 C1566 0.931 . S
H1553 C1568 0.930 . S
C1554 H1542 0.930 . S
C1554 C1555 1.399 . S
C1554 C1559 1.399 . S
C1555 C1554 1.399 . S
C1555 C1556 1.376 . S
C1556 H1543 0.930 . S
C1556 C1555 1.376 . S
C1556 C1557 1.388 . S
C1557 H1544 0.930 . S
C1557 C1556 1.388 . S
C1557 C1558 1.390 . S
C1558 C1557 1.390 . S
C1558 C1559 1.394 . S
C1558 C1564 1.465 . S
C1559 C1554 1.399 . S
C1559 C1558 1.394 . S
C1559 C1560 1.516 . S
C1560 C1559 1.516 . S
C1560 C1561 1.502 . S
C1560 C1562 1.561 . S
C1560 C1563 1.526 . S
C1561 H1545 0.959 . S
C1561 H1546 0.959 . S
C1561 H1547 0.961 . S
C1561 C1560 1.502 . S
C1562 H1548 0.960 . S
C1562 H1549 0.961 . S
C1562 H1550 0.959 . S
C1562 C1560 1.561 . S
C1563 C1560 1.526 . S
C1563 C1564 1.396 . S
C1563 C1568 1.390 . S
C1564 C1558 1.465 . S
C1564 C1563 1.396 . S
C1564 C1565 1.399 . S
C1565 H1551 0.929 . S
C1565 C1564 1.399 . S
C1565 C1566 1.385 . S
C1566 H1552 0.931 . S
C1566 C1565 1.385 . S
C1566 C1567 1.389 . S
C1567 C1566 1.389 . S
C1567 C1568 1.387 . S
C1568 H1553 0.930 . S
C1568 C1563 1.390 . S
C1568 C1567 1.387 . S
H1569 C1581 0.930 . S
H1570 C1583 0.930 . S
H1571 C1584 0.930 . S
H1572 C1588 0.959 . S
H1573 C1588 0.959 . S
H1574 C1588 0.961 . S
H1575 C1589 0.960 . S
H1576 C1589 0.961 . S
H1577 C1589 0.959 . S
H1578 C1592 0.929 . S
H1579 C1593 0.931 . S
H1580 C1595 0.930 . S
C1581 H1569 0.930 . S
C1581 C1582 1.399 . S
C1581 C1586 1.399 . S
C1582 C1581 1.399 . S
C1582 C1583 1.376 . S
C1583 H1570 0.930 . S
C1583 C1582 1.376 . S
C1583 C1584 1.388 . S
C1584 H1571 0.930 . S
C1584 C1583 1.388 . S
C1584 C1585 1.390 . S
C1585 C1584 1.390 . S
C1585 C1586 1.394 . S
C1585 C1591 1.465 . S
C1586 C1581 1.399 . S
C1586 C1585 1.394 . S
C1586 C1587 1.516 . S
C1587 C1586 1.516 . S
C1587 C1588 1.502 . S
C1587 C1589 1.561 . S
C1587 C1590 1.526 . S
C1588 H1572 0.959 . S
C1588 H1573 0.959 . S
C1588 H1574 0.961 . S
C1588 C1587 1.502 . S
C1589 H1575 0.960 . S
C1589 H1576 0.961 . S
C1589 H1577 0.959 . S
C1589 C1587 1.561 . S
C1590 C1587 1.526 . S
C1590 C1591 1.396 . S
C1590 C1595 1.390 . S
C1591 C1585 1.465 . S
C1591 C1590 1.396 . S
C1591 C1592 1.399 . S
C1592 H1578 0.929 . S
C1592 C1591 1.399 . S
C1592 C1593 1.385 . S
C1593 H1579 0.931 . S
C1593 C1592 1.385 . S
C1593 C1594 1.389 . S
C1594 C1593 1.389 . S
C1594 C1595 1.387 . S
C1595 H1580 0.930 . S
C1595 C1590 1.390 . S
C1595 C1594 1.387 . S
H1596 C1608 0.930 . S
H1597 C1610 0.930 . S
H1598 C1611 0.930 . S
H1599 C1615 0.959 . S
H1600 C1615 0.959 . S
H1601 C1615 0.961 . S
H1602 C1616 0.960 . S
H1603 C1616 0.961 . S
H1604 C1616 0.959 . S
H1605 C1619 0.929 . S
H1606 C1620 0.931 . S
H1607 C1622 0.930 . S
C1608 H1596 0.930 . S
C1608 C1609 1.399 . S
C1608 C1613 1.399 . S
C1609 C1608 1.399 . S
C1609 C1610 1.376 . S
C1610 H1597 0.930 . S
C1610 C1609 1.376 . S
C1610 C1611 1.388 . S
C1611 H1598 0.930 . S
C1611 C1610 1.388 . S
C1611 C1612 1.390 . S
C1612 C1611 1.390 . S
C1612 C1613 1.394 . S
C1612 C1618 1.465 . S
C1613 C1608 1.399 . S
C1613 C1612 1.394 . S
C1613 C1614 1.516 . S
C1614 C1613 1.516 . S
C1614 C1615 1.502 . S
C1614 C1616 1.561 . S
C1614 C1617 1.526 . S
C1615 H1599 0.959 . S
C1615 H1600 0.959 . S
C1615 H1601 0.961 . S
C1615 C1614 1.502 . S
C1616 H1602 0.960 . S
C1616 H1603 0.961 . S
C1616 H1604 0.959 . S
C1616 C1614 1.561 . S
C1617 C1614 1.526 . S
C1617 C1618 1.396 . S
C1617 C1622 1.390 . S
C1618 C1612 1.465 . S
C1618 C1617 1.396 . S
C1618 C1619 1.399 . S
C1619 H1605 0.929 . S
C1619 C1618 1.399 . S
C1619 C1620 1.385 . S
C1620 H1606 0.931 . S
C1620 C1619 1.385 . S
C1620 C1621 1.389 . S
C1621 C1620 1.389 . S
C1621 C1622 1.387 . S
C1622 H1607 0.930 . S
C1622 C1617 1.390 . S
C1622 C1621 1.387 . S
H1623 C1635 0.930 . S
H1624 C1637 0.930 1_565 S
H1625 C1638 0.930 . S
H1626 C1642 0.959 . S
H1627 C1642 0.959 . S
H1628 C1642 0.961 . S
H1629 C1643 0.960 . S
H1630 C1643 0.961 . S
H1631 C1643 0.959 . S
H1632 C1646 0.929 . S
H1633 C1647 0.931 . S
H1634 C1649 0.930 . S
C1635 H1623 0.930 . S
C1635 C1636 1.399 . S
C1635 C1640 1.399 . S
C1636 C1635 1.399 . S
C1636 C1637 1.376 . S
C1637 H1624 0.930 1_545 S
C1637 C1636 1.376 . S
C1637 C1638 1.388 . S
C1638 H1625 0.930 . S
C1638 C1637 1.388 . S
C1638 C1639 1.390 . S
C1639 C1638 1.390 . S
C1639 C1640 1.394 . S
C1639 C1645 1.465 . S
C1640 C1635 1.399 . S
C1640 C1639 1.394 . S
C1640 C1641 1.516 . S
C1641 C1640 1.516 . S
C1641 C1642 1.502 . S
C1641 C1643 1.561 . S
C1641 C1644 1.526 . S
C1642 H1626 0.959 . S
C1642 H1627 0.959 . S
C1642 H1628 0.961 . S
C1642 C1641 1.502 . S
C1643 H1629 0.960 . S
C1643 H1630 0.961 . S
C1643 H1631 0.959 . S
C1643 C1641 1.561 . S
C1644 C1641 1.526 . S
C1644 C1645 1.396 . S
C1644 C1649 1.390 . S
C1645 C1639 1.465 . S
C1645 C1644 1.396 . S
C1645 C1646 1.399 . S
C1646 H1632 0.929 . S
C1646 C1645 1.399 . S
C1646 C1647 1.385 . S
C1647 H1633 0.931 . S
C1647 C1646 1.385 . S
C1647 C1648 1.389 . S
C1648 C1647 1.389 . S
C1648 C1649 1.387 . S
C1649 H1634 0.930 . S
C1649 C1644 1.390 . S
C1649 C1648 1.387 . S
H1650 C1662 0.930 . S
H1651 C1664 0.930 . S
H1652 C1665 0.930 . S
H1653 C1669 0.959 . S
H1654 C1669 0.959 . S
H1655 C1669 0.961 . S
H1656 C1670 0.960 . S
H1657 C1670 0.961 . S
H1658 C1670 0.959 . S
H1659 C1673 0.929 . S
H1660 C1674 0.931 . S
H1661 C1676 0.930 . S
C1662 H1650 0.930 . S
C1662 C1663 1.399 . S
C1662 C1667 1.399 . S
C1663 C1662 1.399 . S
C1663 C1664 1.376 . S
C1664 H1651 0.930 . S
C1664 C1663 1.376 . S
C1664 C1665 1.388 . S
C1665 H1652 0.930 . S
C1665 C1664 1.388 . S
C1665 C1666 1.390 . S
C1666 C1665 1.390 . S
C1666 C1667 1.394 . S
C1666 C1672 1.465 . S
C1667 C1662 1.399 . S
C1667 C1666 1.394 . S
C1667 C1668 1.516 . S
C1668 C1667 1.516 . S
C1668 C1669 1.502 . S
C1668 C1670 1.561 . S
C1668 C1671 1.526 . S
C1669 H1653 0.959 . S
C1669 H1654 0.959 . S
C1669 H1655 0.961 . S
C1669 C1668 1.502 . S
C1670 H1656 0.960 . S
C1670 H1657 0.961 . S
C1670 H1658 0.959 . S
C1670 C1668 1.561 . S
C1671 C1668 1.526 . S
C1671 C1672 1.396 . S
C1671 C1676 1.390 . S
C1672 C1666 1.465 . S
C1672 C1671 1.396 . S
C1672 C1673 1.399 . S
C1673 H1659 0.929 . S
C1673 C1672 1.399 . S
C1673 C1674 1.385 . S
C1674 H1660 0.931 . S
C1674 C1673 1.385 . S
C1674 C1675 1.389 . S
C1675 C1674 1.389 . S
C1675 C1676 1.387 . S
C1676 H1661 0.930 . S
C1676 C1671 1.390 . S
C1676 C1675 1.387 . S
H1677 C1689 0.930 . S
H1678 C1691 0.930 1_554 S
H1679 C1692 0.930 . S
H1680 C1696 0.959 . S
H1681 C1696 0.959 . S
H1682 C1696 0.961 . S
H1683 C1697 0.960 . S
H1684 C1697 0.961 . S
H1685 C1697 0.959 . S
H1686 C1700 0.929 . S
H1687 C1701 0.931 1_545 S
H1688 C1703 0.930 . S
C1689 H1677 0.930 . S
C1689 C1690 1.399 . S
C1689 C1694 1.399 . S
C1690 C1689 1.399 . S
C1690 C1691 1.376 . S
C1691 H1678 0.930 1_556 S
C1691 C1690 1.376 . S
C1691 C1692 1.388 . S
C1692 H1679 0.930 . S
C1692 C1691 1.388 . S
C1692 C1693 1.390 . S
C1693 C1692 1.390 . S
C1693 C1694 1.394 . S
C1693 C1699 1.465 . S
C1694 C1689 1.399 . S
C1694 C1693 1.394 . S
C1694 C1695 1.516 . S
C1695 C1694 1.516 . S
C1695 C1696 1.502 . S
C1695 C1697 1.561 . S
C1695 C1698 1.526 . S
C1696 H1680 0.959 . S
C1696 H1681 0.959 . S
C1696 H1682 0.961 . S
C1696 C1695 1.502 . S
C1697 H1683 0.960 . S
C1697 H1684 0.961 . S
C1697 H1685 0.959 . S
C1697 C1695 1.561 . S
C1698 C1695 1.526 . S
C1698 C1699 1.396 . S
C1698 C1703 1.390 . S
C1699 C1693 1.465 . S
C1699 C1698 1.396 . S
C1699 C1700 1.399 . S
C1700 H1686 0.929 . S
C1700 C1699 1.399 . S
C1700 C1701 1.385 . S
C1701 H1687 0.931 1_565 S
C1701 C1700 1.385 . S
C1701 C1702 1.389 . S
C1702 C1701 1.389 . S
C1702 C1703 1.387 . S
C1703 H1688 0.930 . S
C1703 C1698 1.390 . S
C1703 C1702 1.387 . S
H1704 C1716 0.930 . S
H1705 C1718 0.930 . S
H1706 C1719 0.930 . S
H1707 C1723 0.959 . S
H1708 C1723 0.959 . S
H1709 C1723 0.961 . S
H1710 C1724 0.960 . S
H1711 C1724 0.961 . S
H1712 C1724 0.959 . S
H1713 C1727 0.929 . S
H1714 C1728 0.931 . S
H1715 C1730 0.930 . S
C1716 H1704 0.930 . S
C1716 C1717 1.399 . S
C1716 C1721 1.399 . S
C1717 C1716 1.399 . S
C1717 C1718 1.376 . S
C1718 H1705 0.930 . S
C1718 C1717 1.376 . S
C1718 C1719 1.388 . S
C1719 H1706 0.930 . S
C1719 C1718 1.388 . S
C1719 C1720 1.390 . S
C1720 C1719 1.390 . S
C1720 C1721 1.394 . S
C1720 C1726 1.465 . S
C1721 C1716 1.399 . S
C1721 C1720 1.394 . S
C1721 C1722 1.516 . S
C1722 C1721 1.516 . S
C1722 C1723 1.502 . S
C1722 C1724 1.561 . S
C1722 C1725 1.526 . S
C1723 H1707 0.959 . S
C1723 H1708 0.959 . S
C1723 H1709 0.961 . S
C1723 C1722 1.502 . S
C1724 H1710 0.960 . S
C1724 H1711 0.961 . S
C1724 H1712 0.959 . S
C1724 C1722 1.561 . S
C1725 C1722 1.526 . S
C1725 C1726 1.396 . S
C1725 C1730 1.390 . S
C1726 C1720 1.465 . S
C1726 C1725 1.396 . S
C1726 C1727 1.399 . S
C1727 H1713 0.929 . S
C1727 C1726 1.399 . S
C1727 C1728 1.385 . S
C1728 H1714 0.931 . S
C1728 C1727 1.385 . S
C1728 C1729 1.389 . S
C1729 C1728 1.389 . S
C1729 C1730 1.387 . S
C1730 H1715 0.930 . S
C1730 C1725 1.390 . S
C1730 C1729 1.387 . S
H1731 C1743 0.930 . S
H1732 C1745 0.930 . S
H1733 C1746 0.930 . S
H1734 C1750 0.959 . S
H1735 C1750 0.959 . S
H1736 C1750 0.961 . S
H1737 C1751 0.960 . S
H1738 C1751 0.961 . S
H1739 C1751 0.959 . S
H1740 C1754 0.929 . S
H1741 C1755 0.931 . S
H1742 C1757 0.930 . S
C1743 H1731 0.930 . S
C1743 C1744 1.399 . S
C1743 C1748 1.399 . S
C1744 C1743 1.399 . S
C1744 C1745 1.376 . S
C1745 H1732 0.930 . S
C1745 C1744 1.376 . S
C1745 C1746 1.388 . S
C1746 H1733 0.930 . S
C1746 C1745 1.388 . S
C1746 C1747 1.390 . S
C1747 C1746 1.390 . S
C1747 C1748 1.394 . S
C1747 C1753 1.465 . S
C1748 C1743 1.399 . S
C1748 C1747 1.394 . S
C1748 C1749 1.516 . S
C1749 C1748 1.516 . S
C1749 C1750 1.502 . S
C1749 C1751 1.561 . S
C1749 C1752 1.526 . S
C1750 H1734 0.959 . S
C1750 H1735 0.959 . S
C1750 H1736 0.961 . S
C1750 C1749 1.502 . S
C1751 H1737 0.960 . S
C1751 H1738 0.961 . S
C1751 H1739 0.959 . S
C1751 C1749 1.561 . S
C1752 C1749 1.526 . S
C1752 C1753 1.396 . S
C1752 C1757 1.390 . S
C1753 C1747 1.465 . S
C1753 C1752 1.396 . S
C1753 C1754 1.399 . S
C1754 H1740 0.929 . S
C1754 C1753 1.399 . S
C1754 C1755 1.385 . S
C1755 H1741 0.931 . S
C1755 C1754 1.385 . S
C1755 C1756 1.389 . S
C1756 C1755 1.389 . S
C1756 C1757 1.387 . S
C1757 H1742 0.930 . S
C1757 C1752 1.390 . S
C1757 C1756 1.387 . S
H1758 C1770 0.930 . S
H1759 C1772 0.930 . S
H1760 C1773 0.930 . S
H1761 C1777 0.959 . S
H1762 C1777 0.959 . S
H1763 C1777 0.961 . S
H1764 C1778 0.960 . S
H1765 C1778 0.961 . S
H1766 C1778 0.959 . S
H1767 C1781 0.929 1_556 S
H1768 C1782 0.931 . S
H1769 C1784 0.930 . S
C1770 H1758 0.930 . S
C1770 C1771 1.399 . S
C1770 C1775 1.399 . S
C1771 C1770 1.399 . S
C1771 C1772 1.376 . S
C1772 H1759 0.930 . S
C1772 C1771 1.376 . S
C1772 C1773 1.388 . S
C1773 H1760 0.930 . S
C1773 C1772 1.388 . S
C1773 C1774 1.390 . S
C1774 C1773 1.390 . S
C1774 C1775 1.394 . S
C1774 C1780 1.465 . S
C1775 C1770 1.399 . S
C1775 C1774 1.394 . S
C1775 C1776 1.516 . S
C1776 C1775 1.516 . S
C1776 C1777 1.502 . S
C1776 C1778 1.561 . S
C1776 C1779 1.526 . S
C1777 H1761 0.959 . S
C1777 H1762 0.959 . S
C1777 H1763 0.961 . S
C1777 C1776 1.502 . S
C1778 H1764 0.960 . S
C1778 H1765 0.961 . S
C1778 H1766 0.959 . S
C1778 C1776 1.561 . S
C1779 C1776 1.526 . S
C1779 C1780 1.396 . S
C1779 C1784 1.390 . S
C1780 C1774 1.465 . S
C1780 C1779 1.396 . S
C1780 C1781 1.399 . S
C1781 H1767 0.929 1_554 S
C1781 C1780 1.399 . S
C1781 C1782 1.385 . S
C1782 H1768 0.931 . S
C1782 C1781 1.385 . S
C1782 C1783 1.389 . S
C1783 C1782 1.389 . S
C1783 C1784 1.387 . S
C1784 H1769 0.930 . S
C1784 C1779 1.390 . S
C1784 C1783 1.387 . S
H1785 C1797 0.930 . S
H1786 C1799 0.930 . S
H1787 C1800 0.930 . S
H1788 C1804 0.959 . S
H1789 C1804 0.959 . S
H1790 C1804 0.961 . S
H1791 C1805 0.960 . S
H1792 C1805 0.961 . S
H1793 C1805 0.959 . S
H1794 C1808 0.929 . S
H1795 C1809 0.931 . S
H1796 C1811 0.930 . S
C1797 H1785 0.930 . S
C1797 C1798 1.399 . S
C1797 C1802 1.399 . S
C1798 C1797 1.399 . S
C1798 C1799 1.376 . S
C1799 H1786 0.930 . S
C1799 C1798 1.376 . S
C1799 C1800 1.388 . S
C1800 H1787 0.930 . S
C1800 C1799 1.388 . S
C1800 C1801 1.390 . S
C1801 C1800 1.390 . S
C1801 C1802 1.394 . S
C1801 C1807 1.465 . S
C1802 C1797 1.399 . S
C1802 C1801 1.394 . S
C1802 C1803 1.516 . S
C1803 C1802 1.516 . S
C1803 C1804 1.502 . S
C1803 C1805 1.561 . S
C1803 C1806 1.526 . S
C1804 H1788 0.959 . S
C1804 H1789 0.959 . S
C1804 H1790 0.961 . S
C1804 C1803 1.502 . S
C1805 H1791 0.960 . S
C1805 H1792 0.961 . S
C1805 H1793 0.959 . S
C1805 C1803 1.561 . S
C1806 C1803 1.526 . S
C1806 C1807 1.396 . S
C1806 C1811 1.390 . S
C1807 C1801 1.465 . S
C1807 C1806 1.396 . S
C1807 C1808 1.399 . S
C1808 H1794 0.929 . S
C1808 C1807 1.399 . S
C1808 C1809 1.385 . S
C1809 H1795 0.931 . S
C1809 C1808 1.385 . S
C1809 C1810 1.389 . S
C1810 C1809 1.389 . S
C1810 C1811 1.387 . S
C1811 H1796 0.930 . S
C1811 C1806 1.390 . S
C1811 C1810 1.387 . S
H1812 C1824 0.930 . S
H1813 C1826 0.930 . S
H1814 C1827 0.930 . S
H1815 C1831 0.959 . S
H1816 C1831 0.959 . S
H1817 C1831 0.961 . S
H1818 C1832 0.960 . S
H1819 C1832 0.961 . S
H1820 C1832 0.959 . S
H1821 C1835 0.929 . S
H1822 C1836 0.931 . S
H1823 C1838 0.930 . S
C1824 H1812 0.930 . S
C1824 C1825 1.399 . S
C1824 C1829 1.399 . S
C1825 C1824 1.399 . S
C1825 C1826 1.376 . S
C1826 H1813 0.930 . S
C1826 C1825 1.376 . S
C1826 C1827 1.388 . S
C1827 H1814 0.930 . S
C1827 C1826 1.388 . S
C1827 C1828 1.390 . S
C1828 C1827 1.390 . S
C1828 C1829 1.394 . S
C1828 C1834 1.465 . S
C1829 C1824 1.399 . S
C1829 C1828 1.394 . S
C1829 C1830 1.516 . S
C1830 C1829 1.516 . S
C1830 C1831 1.502 . S
C1830 C1832 1.561 . S
C1830 C1833 1.526 . S
C1831 H1815 0.959 . S
C1831 H1816 0.959 . S
C1831 H1817 0.961 . S
C1831 C1830 1.502 . S
C1832 H1818 0.960 . S
C1832 H1819 0.961 . S
C1832 H1820 0.959 . S
C1832 C1830 1.561 . S
C1833 C1830 1.526 . S
C1833 C1834 1.396 . S
C1833 C1838 1.390 . S
C1834 C1828 1.465 . S
C1834 C1833 1.396 . S
C1834 C1835 1.399 . S
C1835 H1821 0.929 . S
C1835 C1834 1.399 . S
C1835 C1836 1.385 . S
C1836 H1822 0.931 . S
C1836 C1835 1.385 . S
C1836 C1837 1.389 . S
C1837 C1836 1.389 . S
C1837 C1838 1.387 . S
C1838 H1823 0.930 . S
C1838 C1833 1.390 . S
C1838 C1837 1.387 . S
H1839 C1851 0.930 . S
H1840 C1853 0.930 . S
H1841 C1854 0.930 . S
H1842 C1858 0.959 . S
H1843 C1858 0.959 . S
H1844 C1858 0.961 . S
H1845 C1859 0.960 . S
H1846 C1859 0.961 . S
H1847 C1859 0.959 . S
H1848 C1862 0.929 . S
H1849 C1863 0.931 . S
H1850 C1865 0.930 . S
C1851 H1839 0.930 . S
C1851 C1852 1.399 . S
C1851 C1856 1.399 . S
C1852 C1851 1.399 . S
C1852 C1853 1.376 . S
C1853 H1840 0.930 . S
C1853 C1852 1.376 . S
C1853 C1854 1.388 . S
C1854 H1841 0.930 . S
C1854 C1853 1.388 . S
C1854 C1855 1.390 . S
C1855 C1854 1.390 . S
C1855 C1856 1.394 . S
C1855 C1861 1.465 . S
C1856 C1851 1.399 . S
C1856 C1855 1.394 . S
C1856 C1857 1.516 . S
C1857 C1856 1.516 . S
C1857 C1858 1.502 . S
C1857 C1859 1.561 . S
C1857 C1860 1.526 . S
C1858 H1842 0.959 . S
C1858 H1843 0.959 . S
C1858 H1844 0.961 . S
C1858 C1857 1.502 . S
C1859 H1845 0.960 . S
C1859 H1846 0.961 . S
C1859 H1847 0.959 . S
C1859 C1857 1.561 . S
C1860 C1857 1.526 . S
C1860 C1861 1.396 . S
C1860 C1865 1.390 . S
C1861 C1855 1.465 . S
C1861 C1860 1.396 . S
C1861 C1862 1.399 . S
C1862 H1848 0.929 . S
C1862 C1861 1.399 . S
C1862 C1863 1.385 . S
C1863 H1849 0.931 . S
C1863 C1862 1.385 . S
C1863 C1864 1.389 . S
C1864 C1863 1.389 . S
C1864 C1865 1.387 . S
C1865 H1850 0.930 . S
C1865 C1860 1.390 . S
C1865 C1864 1.387 . S
H1866 C1878 0.930 . S
H1867 C1880 0.930 . S
H1868 C1881 0.930 . S
H1869 C1885 0.959 . S
H1870 C1885 0.959 . S
H1871 C1885 0.961 . S
H1872 C1886 0.960 . S
H1873 C1886 0.961 . S
H1874 C1886 0.959 . S
H1875 C1889 0.929 . S
H1876 C1890 0.931 . S
H1877 C1892 0.930 . S
C1878 H1866 0.930 . S
C1878 C1879 1.399 . S
C1878 C1883 1.399 . S
C1879 C1878 1.399 . S
C1879 C1880 1.376 . S
C1880 H1867 0.930 . S
C1880 C1879 1.376 . S
C1880 C1881 1.388 . S
C1881 H1868 0.930 . S
C1881 C1880 1.388 . S
C1881 C1882 1.390 . S
C1882 C1881 1.390 . S
C1882 C1883 1.394 . S
C1882 C1888 1.465 . S
C1883 C1878 1.399 . S
C1883 C1882 1.394 . S
C1883 C1884 1.516 . S
C1884 C1883 1.516 . S
C1884 C1885 1.502 . S
C1884 C1886 1.561 . S
C1884 C1887 1.526 . S
C1885 H1869 0.959 . S
C1885 H1870 0.959 . S
C1885 H1871 0.961 . S
C1885 C1884 1.502 . S
C1886 H1872 0.960 . S
C1886 H1873 0.961 . S
C1886 H1874 0.959 . S
C1886 C1884 1.561 . S
C1887 C1884 1.526 . S
C1887 C1888 1.396 . S
C1887 C1892 1.390 . S
C1888 C1882 1.465 . S
C1888 C1887 1.396 . S
C1888 C1889 1.399 . S
C1889 H1875 0.929 . S
C1889 C1888 1.399 . S
C1889 C1890 1.385 . S
C1890 H1876 0.931 . S
C1890 C1889 1.385 . S
C1890 C1891 1.389 . S
C1891 C1890 1.389 . S
C1891 C1892 1.387 . S
C1892 H1877 0.930 . S
C1892 C1887 1.390 . S
C1892 C1891 1.387 . S
H1893 C1905 0.930 . S
H1894 C1907 0.930 . S
H1895 C1908 0.930 . S
H1896 C1912 0.959 . S
H1897 C1912 0.959 . S
H1898 C1912 0.961 . S
H1899 C1913 0.951 1_554 S
H1900 C1913 0.961 1_554 S
H1901 C1913 0.959 1_554 S
H1902 C1916 0.929 . S
H1903 C1917 0.931 . S
H1904 C1919 0.930 . S
C1905 H1893 0.930 . S
C1905 C1906 1.399 . S
C1905 C1910 1.399 . S
C1906 C1905 1.399 . S
C1906 C1907 1.376 . S
C1907 H1894 0.930 . S
C1907 C1906 1.376 . S
C1907 C1908 1.388 . S
C1908 H1895 0.930 . S
C1908 C1907 1.388 . S
C1908 C1909 1.390 . S
C1909 C1908 1.390 . S
C1909 C1910 1.394 . S
C1909 C1915 1.465 . S
C1910 C1905 1.399 . S
C1910 C1909 1.394 . S
C1910 C1911 1.516 . S
C1911 C1910 1.516 . S
C1911 C1912 1.502 . S
C1911 C1913 1.561 . S
C1911 C1914 1.526 . S
C1912 H1896 0.959 . S
C1912 H1897 0.959 . S
C1912 H1898 0.961 . S
C1912 C1911 1.502 . S
C1913 H1899 0.951 1_556 S
C1913 H1900 0.961 1_556 S
C1913 H1901 0.959 1_556 S
C1913 C1911 1.561 . S
C1914 C1911 1.526 . S
C1914 C1915 1.396 . S
C1914 C1919 1.390 . S
C1915 C1909 1.465 . S
C1915 C1914 1.396 . S
C1915 C1916 1.399 . S
C1916 H1902 0.929 . S
C1916 C1915 1.399 . S
C1916 C1917 1.385 . S
C1917 H1903 0.931 . S
C1917 C1916 1.385 . S
C1917 C1918 1.389 . S
C1918 C1917 1.389 . S
C1918 C1919 1.387 . S
C1919 H1904 0.930 . S
C1919 C1914 1.390 . S
C1919 C1918 1.387 . S
H1920 C1932 0.930 . S
H1921 C1934 0.930 . S
H1922 C1935 0.930 . S
H1923 C1939 0.959 . S
H1924 C1939 0.959 . S
H1925 C1939 0.961 . S
H1926 C1940 0.960 . S
H1927 C1940 0.961 . S
H1928 C1940 0.959 . S
H1929 C1943 0.929 . S
H1930 C1944 0.931 . S
H1931 C1946 0.930 . S
C1932 H1920 0.930 . S
C1932 C1933 1.399 . S
C1932 C1937 1.399 . S
C1933 C1932 1.399 . S
C1933 C1934 1.376 . S
C1934 H1921 0.930 . S
C1934 C1933 1.376 . S
C1934 C1935 1.388 . S
C1935 H1922 0.930 . S
C1935 C1934 1.388 . S
C1935 C1936 1.390 . S
C1936 C1935 1.390 . S
C1936 C1937 1.394 . S
C1936 C1942 1.465 . S
C1937 C1932 1.399 . S
C1937 C1936 1.394 . S
C1937 C1938 1.516 . S
C1938 C1937 1.516 . S
C1938 C1939 1.502 . S
C1938 C1940 1.561 . S
C1938 C1941 1.526 . S
C1939 H1923 0.959 . S
C1939 H1924 0.959 . S
C1939 H1925 0.961 . S
C1939 C1938 1.502 . S
C1940 H1926 0.960 . S
C1940 H1927 0.961 . S
C1940 H1928 0.959 . S
C1940 C1938 1.561 . S
C1941 C1938 1.526 . S
C1941 C1942 1.396 . S
C1941 C1946 1.390 . S
C1942 C1936 1.465 . S
C1942 C1941 1.396 . S
C1942 C1943 1.399 . S
C1943 H1929 0.929 . S
C1943 C1942 1.399 . S
C1943 C1944 1.385 . S
C1944 H1930 0.931 . S
C1944 C1943 1.385 . S
C1944 C1945 1.389 . S
C1945 C1944 1.389 . S
C1945 C1946 1.387 . S
C1946 H1931 0.930 . S
C1946 C1941 1.390 . S
C1946 C1945 1.387 . S
H1947 C1959 0.930 . S
H1948 C1961 0.930 . S
H1949 C1962 0.930 . S
H1950 C1966 0.959 . S
H1951 C1966 0.959 . S
H1952 C1966 0.961 . S
H1953 C1967 0.960 . S
H1954 C1967 0.961 . S
H1955 C1967 0.959 . S
H1956 C1970 0.929 . S
H1957 C1971 0.931 . S
H1958 C1973 0.930 . S
C1959 H1947 0.930 . S
C1959 C1960 1.399 . S
C1959 C1964 1.399 . S
C1960 C1959 1.399 . S
C1960 C1961 1.376 . S
C1961 H1948 0.930 . S
C1961 C1960 1.376 . S
C1961 C1962 1.388 . S
C1962 H1949 0.930 . S
C1962 C1961 1.388 . S
C1962 C1963 1.390 . S
C1963 C1962 1.390 . S
C1963 C1964 1.394 . S
C1963 C1969 1.465 . S
C1964 C1959 1.399 . S
C1964 C1963 1.394 . S
C1964 C1965 1.516 . S
C1965 C1964 1.516 . S
C1965 C1966 1.502 . S
C1965 C1967 1.561 . S
C1965 C1968 1.526 . S
C1966 H1950 0.959 . S
C1966 H1951 0.959 . S
C1966 H1952 0.961 . S
C1966 C1965 1.502 . S
C1967 H1953 0.960 . S
C1967 H1954 0.961 . S
C1967 H1955 0.959 . S
C1967 C1965 1.561 . S
C1968 C1965 1.526 . S
C1968 C1969 1.396 . S
C1968 C1973 1.390 . S
C1969 C1963 1.465 . S
C1969 C1968 1.396 . S
C1969 C1970 1.399 . S
C1970 H1956 0.929 . S
C1970 C1969 1.399 . S
C1970 C1971 1.385 . S
C1971 H1957 0.931 . S
C1971 C1970 1.385 . S
C1971 C1972 1.389 . S
C1972 C1971 1.389 . S
C1972 C1973 1.387 . S
C1973 H1958 0.930 . S
C1973 C1968 1.390 . S
C1973 C1972 1.387 . S
H1974 C1986 0.930 . S
H1975 C1988 0.930 . S
H1976 C1989 0.930 . S
H1977 C1993 0.959 . S
H1978 C1993 0.959 . S
H1979 C1993 0.961 . S
H1980 C1994 0.960 . S
H1981 C1994 0.961 . S
H1982 C1994 0.959 . S
H1983 C1997 0.929 . S
H1984 C1998 0.931 . S
H1985 C2000 0.930 . S
C1986 H1974 0.930 . S
C1986 C1987 1.399 . S
C1986 C1991 1.399 . S
C1987 C1986 1.399 . S
C1987 C1988 1.376 . S
C1988 H1975 0.930 . S
C1988 C1987 1.376 . S
C1988 C1989 1.388 . S
C1989 H1976 0.930 . S
C1989 C1988 1.388 . S
C1989 C1990 1.390 . S
C1990 C1989 1.390 . S
C1990 C1991 1.394 . S
C1990 C1996 1.465 . S
C1991 C1986 1.399 . S
C1991 C1990 1.394 . S
C1991 C1992 1.516 . S
C1992 C1991 1.516 . S
C1992 C1993 1.502 . S
C1992 C1994 1.561 . S
C1992 C1995 1.526 . S
C1993 H1977 0.959 . S
C1993 H1978 0.959 . S
C1993 H1979 0.961 . S
C1993 C1992 1.502 . S
C1994 H1980 0.960 . S
C1994 H1981 0.961 . S
C1994 H1982 0.959 . S
C1994 C1992 1.561 . S
C1995 C1992 1.526 . S
C1995 C1996 1.396 . S
C1995 C2000 1.390 . S
C1996 C1990 1.465 . S
C1996 C1995 1.396 . S
C1996 C1997 1.399 . S
C1997 H1983 0.929 . S
C1997 C1996 1.399 . S
C1997 C1998 1.385 . S
C1998 H1984 0.931 . S
C1998 C1997 1.385 . S
C1998 C1999 1.389 . S
C1999 C1998 1.389 . S
C1999 C2000 1.387 . S
C2000 H1985 0.930 . S
C2000 C1995 1.390 . S
C2000 C1999 1.387 . S
H2001 C2013 0.930 . S
H2002 C2015 0.930 1_655 S
H2003 C2016 0.930 . S
H2004 C2020 0.959 . S
H2005 C2020 0.959 . S
H2006 C2020 0.961 . S
H2007 C2021 0.960 . S
H2008 C2021 0.961 . S
H2009 C2021 0.959 . S
H2010 C2024 0.929 . S
H2011 C2025 0.931 . S
H2012 C2027 0.930 . S
C2013 H2001 0.930 . S
C2013 C2014 1.399 . S
C2013 C2018 1.399 . S
C2014 C2013 1.399 . S
C2014 C2015 1.376 . S
C2015 H2002 0.930 1_455 S
C2015 C2014 1.376 . S
C2015 C2016 1.388 . S
C2016 H2003 0.930 . S
C2016 C2015 1.388 . S
C2016 C2017 1.390 . S
C2017 C2016 1.390 . S
C2017 C2018 1.394 . S
C2017 C2023 1.465 . S
C2018 C2013 1.399 . S
C2018 C2017 1.394 . S
C2018 C2019 1.516 . S
C2019 C2018 1.516 . S
C2019 C2020 1.502 . S
C2019 C2021 1.561 . S
C2019 C2022 1.526 . S
C2020 H2004 0.959 . S
C2020 H2005 0.959 . S
C2020 H2006 0.961 . S
C2020 C2019 1.502 . S
C2021 H2007 0.960 . S
C2021 H2008 0.961 . S
C2021 H2009 0.959 . S
C2021 C2019 1.561 . S
C2022 C2019 1.526 . S
C2022 C2023 1.396 . S
C2022 C2027 1.390 . S
C2023 C2017 1.465 . S
C2023 C2022 1.396 . S
C2023 C2024 1.399 . S
C2024 H2010 0.929 . S
C2024 C2023 1.399 . S
C2024 C2025 1.385 . S
C2025 H2011 0.931 . S
C2025 C2024 1.385 . S
C2025 C2026 1.389 . S
C2026 C2025 1.389 . S
C2026 C2027 1.387 . S
C2027 H2012 0.930 . S
C2027 C2022 1.390 . S
C2027 C2026 1.387 . S
H2028 C2040 0.930 . S
H2029 C2042 0.930 . S
H2030 C2043 0.930 . S
H2031 C2047 0.959 . S
H2032 C2047 0.959 . S
H2033 C2047 0.961 . S
H2034 C2048 0.960 . S
H2035 C2048 0.961 . S
H2036 C2048 0.959 . S
H2037 C2051 0.929 . S
H2038 C2052 0.931 . S
H2039 C2054 0.930 . S
C2040 H2028 0.930 . S
C2040 C2041 1.399 . S
C2040 C2045 1.399 . S
C2041 C2040 1.399 . S
C2041 C2042 1.376 . S
C2042 H2029 0.930 . S
C2042 C2041 1.376 . S
C2042 C2043 1.388 . S
C2043 H2030 0.930 . S
C2043 C2042 1.388 . S
C2043 C2044 1.390 . S
C2044 C2043 1.390 . S
C2044 C2045 1.394 . S
C2044 C2050 1.465 . S
C2045 C2040 1.399 . S
C2045 C2044 1.394 . S
C2045 C2046 1.516 . S
C2046 C2045 1.516 . S
C2046 C2047 1.502 . S
C2046 C2048 1.561 . S
C2046 C2049 1.526 . S
C2047 H2031 0.959 . S
C2047 H2032 0.959 . S
C2047 H2033 0.961 . S
C2047 C2046 1.502 . S
C2048 H2034 0.960 . S
C2048 H2035 0.961 . S
C2048 H2036 0.959 . S
C2048 C2046 1.561 . S
C2049 C2046 1.526 . S
C2049 C2050 1.396 . S
C2049 C2054 1.390 . S
C2050 C2044 1.465 . S
C2050 C2049 1.396 . S
C2050 C2051 1.399 . S
C2051 H2037 0.929 . S
C2051 C2050 1.399 . S
C2051 C2052 1.385 . S
C2052 H2038 0.931 . S
C2052 C2051 1.385 . S
C2052 C2053 1.389 . S
C2053 C2052 1.389 . S
C2053 C2054 1.387 . S
C2054 H2039 0.930 . S
C2054 C2049 1.390 . S
C2054 C2053 1.387 . S
H2055 C2067 0.930 . S
H2056 C2069 0.930 . S
H2057 C2070 0.930 . S
H2058 C2074 0.959 . S
H2059 C2074 0.959 . S
H2060 C2074 0.961 . S
H2061 C2075 0.960 . S
H2062 C2075 0.961 . S
H2063 C2075 0.959 . S
H2064 C2078 0.929 . S
H2065 C2079 0.931 . S
H2066 C2081 0.930 . S
C2067 H2055 0.930 . S
C2067 C2068 1.399 . S
C2067 C2072 1.399 . S
C2068 C2067 1.399 . S
C2068 C2069 1.376 . S
C2069 H2056 0.930 . S
C2069 C2068 1.376 . S
C2069 C2070 1.388 . S
C2070 H2057 0.930 . S
C2070 C2069 1.388 . S
C2070 C2071 1.390 . S
C2071 C2070 1.390 . S
C2071 C2072 1.394 . S
C2071 C2077 1.465 . S
C2072 C2067 1.399 . S
C2072 C2071 1.394 . S
C2072 C2073 1.516 . S
C2073 C2072 1.516 . S
C2073 C2074 1.502 . S
C2073 C2075 1.561 . S
C2073 C2076 1.526 . S
C2074 H2058 0.959 . S
C2074 H2059 0.959 . S
C2074 H2060 0.961 . S
C2074 C2073 1.502 . S
C2075 H2061 0.960 . S
C2075 H2062 0.961 . S
C2075 H2063 0.959 . S
C2075 C2073 1.561 . S
C2076 C2073 1.526 . S
C2076 C2077 1.396 . S
C2076 C2081 1.390 . S
C2077 C2071 1.465 . S
C2077 C2076 1.396 . S
C2077 C2078 1.399 . S
C2078 H2064 0.929 . S
C2078 C2077 1.399 . S
C2078 C2079 1.385 . S
C2079 H2065 0.931 . S
C2079 C2078 1.385 . S
C2079 C2080 1.389 . S
C2080 C2079 1.389 . S
C2080 C2081 1.387 . S
C2081 H2066 0.930 . S
C2081 C2076 1.390 . S
C2081 C2080 1.387 . S
H2082 C2094 0.930 . S
H2083 C2096 0.930 . S
H2084 C2097 0.930 . S
H2085 C2101 0.959 . S
H2086 C2101 0.959 . S
H2087 C2101 0.961 . S
H2088 C2102 0.960 . S
H2089 C2102 0.961 . S
H2090 C2102 0.959 . S
H2091 C2105 0.929 . S
H2092 C2106 0.931 . S
H2093 C2108 0.930 . S
C2094 H2082 0.930 . S
C2094 C2095 1.399 . S
C2094 C2099 1.399 . S
C2095 C2094 1.399 . S
C2095 C2096 1.376 . S
C2096 H2083 0.930 . S
C2096 C2095 1.376 . S
C2096 C2097 1.388 . S
C2097 H2084 0.930 . S
C2097 C2096 1.388 . S
C2097 C2098 1.390 . S
C2098 C2097 1.390 . S
C2098 C2099 1.394 . S
C2098 C2104 1.465 . S
C2099 C2094 1.399 . S
C2099 C2098 1.394 . S
C2099 C2100 1.516 . S
C2100 C2099 1.516 . S
C2100 C2101 1.502 . S
C2100 C2102 1.561 . S
C2100 C2103 1.526 . S
C2101 H2085 0.959 . S
C2101 H2086 0.959 . S
C2101 H2087 0.961 . S
C2101 C2100 1.502 . S
C2102 H2088 0.960 . S
C2102 H2089 0.961 . S
C2102 H2090 0.959 . S
C2102 C2100 1.561 . S
C2103 C2100 1.526 . S
C2103 C2104 1.396 . S
C2103 C2108 1.390 . S
C2104 C2098 1.465 . S
C2104 C2103 1.396 . S
C2104 C2105 1.399 . S
C2105 H2091 0.929 . S
C2105 C2104 1.399 . S
C2105 C2106 1.385 . S
C2106 H2092 0.931 . S
C2106 C2105 1.385 . S
C2106 C2107 1.389 . S
C2107 C2106 1.389 . S
C2107 C2108 1.387 . S
C2108 H2093 0.930 . S
C2108 C2103 1.390 . S
C2108 C2107 1.387 . S
H2109 C2121 0.930 . S
H2110 C2123 0.930 . S
H2111 C2124 0.930 . S
H2112 C2128 0.959 . S
H2113 C2128 0.959 . S
H2114 C2128 0.961 . S
H2115 C2129 0.960 . S
H2116 C2129 0.961 . S
H2117 C2129 0.959 . S
H2118 C2132 0.929 . S
H2119 C2133 0.931 . S
H2120 C2135 0.930 . S
C2121 H2109 0.930 . S
C2121 C2122 1.399 . S
C2121 C2126 1.399 . S
C2122 C2121 1.399 . S
C2122 C2123 1.376 . S
C2123 H2110 0.930 . S
C2123 C2122 1.376 . S
C2123 C2124 1.388 . S
C2124 H2111 0.930 . S
C2124 C2123 1.388 . S
C2124 C2125 1.390 . S
C2125 C2124 1.390 . S
C2125 C2126 1.394 . S
C2125 C2131 1.465 . S
C2126 C2121 1.399 . S
C2126 C2125 1.394 . S
C2126 C2127 1.516 . S
C2127 C2126 1.516 . S
C2127 C2128 1.502 . S
C2127 C2129 1.561 . S
C2127 C2130 1.526 . S
C2128 H2112 0.959 . S
C2128 H2113 0.959 . S
C2128 H2114 0.961 . S
C2128 C2127 1.502 . S
C2129 H2115 0.960 . S
C2129 H2116 0.961 . S
C2129 H2117 0.959 . S
C2129 C2127 1.561 . S
C2130 C2127 1.526 . S
C2130 C2131 1.396 . S
C2130 C2135 1.390 . S
C2131 C2125 1.465 . S
C2131 C2130 1.396 . S
C2131 C2132 1.399 . S
C2132 H2118 0.929 . S
C2132 C2131 1.399 . S
C2132 C2133 1.385 . S
C2133 H2119 0.931 . S
C2133 C2132 1.385 . S
C2133 C2134 1.389 . S
C2134 C2133 1.389 . S
C2134 C2135 1.387 . S
C2135 H2120 0.930 . S
C2135 C2130 1.390 . S
C2135 C2134 1.387 . S
H2136 C2148 0.930 . S
H2137 C2150 0.930 . S
H2138 C2151 0.930 . S
H2139 C2155 0.959 . S
H2140 C2155 0.959 . S
H2141 C2155 0.961 . S
H2142 C2156 0.960 . S
H2143 C2156 0.961 . S
H2144 C2156 0.959 . S
H2145 C2159 0.929 . S
H2146 C2160 0.931 . S
H2147 C2162 0.930 . S
C2148 H2136 0.930 . S
C2148 C2149 1.399 . S
C2148 C2153 1.399 . S
C2149 C2148 1.399 . S
C2149 C2150 1.376 . S
C2150 H2137 0.930 . S
C2150 C2149 1.376 . S
C2150 C2151 1.388 . S
C2151 H2138 0.930 . S
C2151 C2150 1.388 . S
C2151 C2152 1.390 . S
C2152 C2151 1.390 . S
C2152 C2153 1.394 . S
C2152 C2158 1.465 . S
C2153 C2148 1.399 . S
C2153 C2152 1.394 . S
C2153 C2154 1.516 . S
C2154 C2153 1.516 . S
C2154 C2155 1.502 . S
C2154 C2156 1.561 . S
C2154 C2157 1.526 . S
C2155 H2139 0.959 . S
C2155 H2140 0.959 . S
C2155 H2141 0.961 . S
C2155 C2154 1.502 . S
C2156 H2142 0.960 . S
C2156 H2143 0.961 . S
C2156 H2144 0.959 . S
C2156 C2154 1.561 . S
C2157 C2154 1.526 . S
C2157 C2158 1.396 . S
C2157 C2162 1.390 . S
C2158 C2152 1.465 . S
C2158 C2157 1.396 . S
C2158 C2159 1.399 . S
C2159 H2145 0.929 . S
C2159 C2158 1.399 . S
C2159 C2160 1.385 . S
C2160 H2146 0.931 . S
C2160 C2159 1.385 . S
C2160 C2161 1.389 . S
C2161 C2160 1.389 . S
C2161 C2162 1.387 . S
C2162 H2147 0.930 . S
C2162 C2157 1.390 . S
C2162 C2161 1.387 . S
H2163 C2175 0.930 . S
H2164 C2177 0.930 . S
H2165 C2178 0.930 . S
H2166 C2182 0.959 . S
H2167 C2182 0.959 . S
H2168 C2182 0.961 . S
H2169 C2183 0.960 . S
H2170 C2183 0.961 . S
H2171 C2183 0.959 . S
H2172 C2186 0.929 . S
H2173 C2187 0.931 . S
H2174 C2189 0.930 . S
C2175 H2163 0.930 . S
C2175 C2176 1.399 . S
C2175 C2180 1.399 . S
C2176 C2175 1.399 . S
C2176 C2177 1.376 . S
C2177 H2164 0.930 . S
C2177 C2176 1.376 . S
C2177 C2178 1.388 . S
C2178 H2165 0.930 . S
C2178 C2177 1.388 . S
C2178 C2179 1.390 . S
C2179 C2178 1.390 . S
C2179 C2180 1.394 . S
C2179 C2185 1.465 . S
C2180 C2175 1.399 . S
C2180 C2179 1.394 . S
C2180 C2181 1.516 . S
C2181 C2180 1.516 . S
C2181 C2182 1.502 . S
C2181 C2183 1.561 . S
C2181 C2184 1.526 . S
C2182 H2166 0.959 . S
C2182 H2167 0.959 . S
C2182 H2168 0.961 . S
C2182 C2181 1.502 . S
C2183 H2169 0.960 . S
C2183 H2170 0.961 . S
C2183 H2171 0.959 . S
C2183 C2181 1.561 . S
C2184 C2181 1.526 . S
C2184 C2185 1.396 . S
C2184 C2189 1.390 . S
C2185 C2179 1.465 . S
C2185 C2184 1.396 . S
C2185 C2186 1.399 . S
C2186 H2172 0.929 . S
C2186 C2185 1.399 . S
C2186 C2187 1.385 . S
C2187 H2173 0.931 . S
C2187 C2186 1.385 . S
C2187 C2188 1.389 . S
C2188 C2187 1.389 . S
C2188 C2189 1.387 . S
C2189 H2174 0.930 . S
C2189 C2184 1.390 . S
C2189 C2188 1.387 . S
H2190 C2202 0.930 . S
H2191 C2204 0.930 . S
H2192 C2205 0.930 . S
H2193 C2209 0.959 . S
H2194 C2209 0.959 . S
H2195 C2209 0.961 . S
H2196 C2210 0.960 . S
H2197 C2210 0.961 . S
H2198 C2210 0.959 . S
H2199 C2213 0.929 . S
H2200 C2214 0.931 . S
H2201 C2216 0.930 . S
C2202 H2190 0.930 . S
C2202 C2203 1.399 . S
C2202 C2207 1.399 . S
C2203 C2202 1.399 . S
C2203 C2204 1.376 . S
C2204 H2191 0.930 . S
C2204 C2203 1.376 . S
C2204 C2205 1.388 . S
C2205 H2192 0.930 . S
C2205 C2204 1.388 . S
C2205 C2206 1.390 . S
C2206 C2205 1.390 . S
C2206 C2207 1.394 . S
C2206 C2212 1.465 . S
C2207 C2202 1.399 . S
C2207 C2206 1.394 . S
C2207 C2208 1.516 . S
C2208 C2207 1.516 . S
C2208 C2209 1.502 . S
C2208 C2210 1.561 . S
C2208 C2211 1.526 . S
C2209 H2193 0.959 . S
C2209 H2194 0.959 . S
C2209 H2195 0.961 . S
C2209 C2208 1.502 . S
C2210 H2196 0.960 . S
C2210 H2197 0.961 . S
C2210 H2198 0.959 . S
C2210 C2208 1.561 . S
C2211 C2208 1.526 . S
C2211 C2212 1.396 . S
C2211 C2216 1.390 . S
C2212 C2206 1.465 . S
C2212 C2211 1.396 . S
C2212 C2213 1.399 . S
C2213 H2199 0.929 . S
C2213 C2212 1.399 . S
C2213 C2214 1.385 . S
C2214 H2200 0.931 . S
C2214 C2213 1.385 . S
C2214 C2215 1.389 . S
C2215 C2214 1.389 . S
C2215 C2216 1.387 . S
C2216 H2201 0.930 . S
C2216 C2211 1.390 . S
C2216 C2215 1.387 . S
H2217 C2229 0.930 . S
H2218 C2231 0.930 . S
H2219 C2232 0.930 . S
H2220 C2236 0.959 . S
H2221 C2236 0.959 . S
H2222 C2236 0.961 . S
H2223 C2237 0.960 . S
H2224 C2237 0.961 . S
H2225 C2237 0.959 . S
H2226 C2240 0.929 . S
H2227 C2241 0.931 . S
H2228 C2243 0.930 . S
C2229 H2217 0.930 . S
C2229 C2230 1.399 . S
C2229 C2234 1.399 . S
C2230 C2229 1.399 . S
C2230 C2231 1.376 . S
C2231 H2218 0.930 . S
C2231 C2230 1.376 . S
C2231 C2232 1.388 . S
C2232 H2219 0.930 . S
C2232 C2231 1.388 . S
C2232 C2233 1.390 . S
C2233 C2232 1.390 . S
C2233 C2234 1.394 . S
C2233 C2239 1.465 . S
C2234 C2229 1.399 . S
C2234 C2233 1.394 . S
C2234 C2235 1.516 . S
C2235 C2234 1.516 . S
C2235 C2236 1.502 . S
C2235 C2237 1.561 . S
C2235 C2238 1.526 . S
C2236 H2220 0.959 . S
C2236 H2221 0.959 . S
C2236 H2222 0.961 . S
C2236 C2235 1.502 . S
C2237 H2223 0.960 . S
C2237 H2224 0.961 . S
C2237 H2225 0.959 . S
C2237 C2235 1.561 . S
C2238 C2235 1.526 . S
C2238 C2239 1.396 . S
C2238 C2243 1.390 . S
C2239 C2233 1.465 . S
C2239 C2238 1.396 . S
C2239 C2240 1.399 . S
C2240 H2226 0.929 . S
C2240 C2239 1.399 . S
C2240 C2241 1.385 . S
C2241 H2227 0.931 . S
C2241 C2240 1.385 . S
C2241 C2242 1.389 . S
C2242 C2241 1.389 . S
C2242 C2243 1.387 . S
C2243 H2228 0.930 . S
C2243 C2238 1.390 . S
C2243 C2242 1.387 . S
H2244 C2256 0.930 . S
H2245 C2258 0.930 . S
H2246 C2259 0.930 . S
H2247 C2263 0.959 . S
H2248 C2263 0.959 . S
H2249 C2263 0.961 . S
H2250 C2264 0.960 . S
H2251 C2264 0.961 . S
H2252 C2264 0.959 . S
H2253 C2267 0.929 . S
H2254 C2268 0.931 . S
H2255 C2270 0.930 . S
C2256 H2244 0.930 . S
C2256 C2257 1.399 . S
C2256 C2261 1.399 . S
C2257 C2256 1.399 . S
C2257 C2258 1.376 . S
C2258 H2245 0.930 . S
C2258 C2257 1.376 . S
C2258 C2259 1.388 . S
C2259 H2246 0.930 . S
C2259 C2258 1.388 . S
C2259 C2260 1.390 . S
C2260 C2259 1.390 . S
C2260 C2261 1.394 . S
C2260 C2266 1.465 . S
C2261 C2256 1.399 . S
C2261 C2260 1.394 . S
C2261 C2262 1.516 . S
C2262 C2261 1.516 . S
C2262 C2263 1.502 . S
C2262 C2264 1.561 . S
C2262 C2265 1.526 . S
C2263 H2247 0.959 . S
C2263 H2248 0.959 . S
C2263 H2249 0.961 . S
C2263 C2262 1.502 . S
C2264 H2250 0.960 . S
C2264 H2251 0.961 . S
C2264 H2252 0.959 . S
C2264 C2262 1.561 . S
C2265 C2262 1.526 . S
C2265 C2266 1.396 . S
C2265 C2270 1.390 . S
C2266 C2260 1.465 . S
C2266 C2265 1.396 . S
C2266 C2267 1.399 . S
C2267 H2253 0.929 . S
C2267 C2266 1.399 . S
C2267 C2268 1.385 . S
C2268 H2254 0.931 . S
C2268 C2267 1.385 . S
C2268 C2269 1.389 . S
C2269 C2268 1.389 . S
C2269 C2270 1.387 . S
C2270 H2255 0.930 . S
C2270 C2265 1.390 . S
C2270 C2269 1.387 . S
H2271 C2283 0.930 . S
H2272 C2285 0.930 . S
H2273 C2286 0.930 . S
H2274 C2290 0.959 . S
H2275 C2290 0.959 . S
H2276 C2290 0.961 . S
H2277 C2291 0.960 . S
H2278 C2291 0.961 . S
H2279 C2291 0.959 . S
H2280 C2294 0.929 . S
H2281 C2295 0.931 1_554 S
H2282 C2297 0.930 . S
C2283 H2271 0.930 . S
C2283 C2284 1.399 . S
C2283 C2288 1.399 . S
C2284 C2283 1.399 . S
C2284 C2285 1.376 . S
C2285 H2272 0.930 . S
C2285 C2284 1.376 . S
C2285 C2286 1.388 . S
C2286 H2273 0.930 . S
C2286 C2285 1.388 . S
C2286 C2287 1.390 . S
C2287 C2286 1.390 . S
C2287 C2288 1.394 . S
C2287 C2293 1.465 . S
C2288 C2283 1.399 . S
C2288 C2287 1.394 . S
C2288 C2289 1.516 . S
C2289 C2288 1.516 . S
C2289 C2290 1.502 . S
C2289 C2291 1.561 . S
C2289 C2292 1.526 . S
C2290 H2274 0.959 . S
C2290 H2275 0.959 . S
C2290 H2276 0.961 . S
C2290 C2289 1.502 . S
C2291 H2277 0.960 . S
C2291 H2278 0.961 . S
C2291 H2279 0.959 . S
C2291 C2289 1.561 . S
C2292 C2289 1.526 . S
C2292 C2293 1.396 . S
C2292 C2297 1.390 . S
C2293 C2287 1.465 . S
C2293 C2292 1.396 . S
C2293 C2294 1.399 . S
C2294 H2280 0.929 . S
C2294 C2293 1.399 . S
C2294 C2295 1.385 . S
C2295 H2281 0.931 1_556 S
C2295 C2294 1.385 . S
C2295 C2296 1.389 . S
C2296 C2295 1.389 . S
C2296 C2297 1.387 . S
C2297 H2282 0.930 . S
C2297 C2292 1.390 . S
C2297 C2296 1.387 . S
H2298 C2310 0.930 . S
H2299 C2312 0.930 . S
H2300 C2313 0.930 . S
H2301 C2317 0.959 . S
H2302 C2317 0.959 . S
H2303 C2317 0.961 . S
H2304 C2318 0.960 . S
H2305 C2318 0.961 . S
H2306 C2318 0.959 . S
H2307 C2321 0.929 . S
H2308 C2322 0.931 . S
H2309 C2324 0.930 . S
C2310 H2298 0.930 . S
C2310 C2311 1.399 . S
C2310 C2315 1.399 . S
C2311 C2310 1.399 . S
C2311 C2312 1.376 . S
C2312 H2299 0.930 . S
C2312 C2311 1.376 . S
C2312 C2313 1.388 . S
C2313 H2300 0.930 . S
C2313 C2312 1.388 . S
C2313 C2314 1.390 . S
C2314 C2313 1.390 . S
C2314 C2315 1.394 . S
C2314 C2320 1.465 . S
C2315 C2310 1.399 . S
C2315 C2314 1.394 . S
C2315 C2316 1.516 . S
C2316 C2315 1.516 . S
C2316 C2317 1.502 . S
C2316 C2318 1.561 . S
C2316 C2319 1.526 . S
C2317 H2301 0.959 . S
C2317 H2302 0.959 . S
C2317 H2303 0.961 . S
C2317 C2316 1.502 . S
C2318 H2304 0.960 . S
C2318 H2305 0.961 . S
C2318 H2306 0.959 . S
C2318 C2316 1.561 . S
C2319 C2316 1.526 . S
C2319 C2320 1.396 . S
C2319 C2324 1.390 . S
C2320 C2314 1.465 . S
C2320 C2319 1.396 . S
C2320 C2321 1.399 . S
C2321 H2307 0.929 . S
C2321 C2320 1.399 . S
C2321 C2322 1.385 . S
C2322 H2308 0.931 . S
C2322 C2321 1.385 . S
C2322 C2323 1.389 . S
C2323 C2322 1.389 . S
C2323 C2324 1.387 . S
C2324 H2309 0.930 . S
C2324 C2319 1.390 . S
C2324 C2323 1.387 . S
H2325 C2337 0.930 . S
H2326 C2339 0.930 . S
H2327 C2340 0.930 . S
H2328 C2344 0.959 . S
H2329 C2344 0.959 . S
H2330 C2344 0.961 . S
H2331 C2345 0.960 . S
H2332 C2345 0.961 . S
H2333 C2345 0.959 . S
H2334 C2348 0.929 . S
H2335 C2349 0.931 . S
H2336 C2351 0.930 . S
C2337 H2325 0.930 . S
C2337 C2338 1.399 . S
C2337 C2342 1.399 . S
C2338 C2337 1.399 . S
C2338 C2339 1.376 . S
C2339 H2326 0.930 . S
C2339 C2338 1.376 . S
C2339 C2340 1.388 . S
C2340 H2327 0.930 . S
C2340 C2339 1.388 . S
C2340 C2341 1.390 . S
C2341 C2340 1.390 . S
C2341 C2342 1.394 . S
C2341 C2347 1.465 . S
C2342 C2337 1.399 . S
C2342 C2341 1.394 . S
C2342 C2343 1.516 . S
C2343 C2342 1.516 . S
C2343 C2344 1.502 . S
C2343 C2345 1.561 . S
C2343 C2346 1.526 . S
C2344 H2328 0.959 . S
C2344 H2329 0.959 . S
C2344 H2330 0.961 . S
C2344 C2343 1.502 . S
C2345 H2331 0.960 . S
C2345 H2332 0.961 . S
C2345 H2333 0.959 . S
C2345 C2343 1.561 . S
C2346 C2343 1.526 . S
C2346 C2347 1.396 . S
C2346 C2351 1.390 . S
C2347 C2341 1.465 . S
C2347 C2346 1.396 . S
C2347 C2348 1.399 . S
C2348 H2334 0.929 . S
C2348 C2347 1.399 . S
C2348 C2349 1.385 . S
C2349 H2335 0.931 . S
C2349 C2348 1.385 . S
C2349 C2350 1.389 . S
C2350 C2349 1.389 . S
C2350 C2351 1.387 . S
C2351 H2336 0.930 . S
C2351 C2346 1.390 . S
C2351 C2350 1.387 . S
H2352 C2364 0.930 . S
H2353 C2366 0.930 . S
H2354 C2367 0.930 . S
H2355 C2371 0.959 . S
H2356 C2371 0.959 . S
H2357 C2371 0.961 . S
H2358 C2372 0.960 . S
H2359 C2372 0.961 . S
H2360 C2372 0.959 . S
H2361 C2375 0.929 . S
H2362 C2376 0.931 . S
H2363 C2378 0.930 . S
C2364 H2352 0.930 . S
C2364 C2365 1.399 . S
C2364 C2369 1.399 . S
C2365 C2364 1.399 . S
C2365 C2366 1.376 . S
C2366 H2353 0.930 . S
C2366 C2365 1.376 . S
C2366 C2367 1.388 . S
C2367 H2354 0.930 . S
C2367 C2366 1.388 . S
C2367 C2368 1.390 . S
C2368 C2367 1.390 . S
C2368 C2369 1.394 . S
C2368 C2374 1.465 . S
C2369 C2364 1.399 . S
C2369 C2368 1.394 . S
C2369 C2370 1.516 . S
C2370 C2369 1.516 . S
C2370 C2371 1.502 . S
C2370 C2372 1.561 . S
C2370 C2373 1.526 . S
C2371 H2355 0.959 . S
C2371 H2356 0.959 . S
C2371 H2357 0.961 . S
C2371 C2370 1.502 . S
C2372 H2358 0.960 . S
C2372 H2359 0.961 . S
C2372 H2360 0.959 . S
C2372 C2370 1.561 . S
C2373 C2370 1.526 . S
C2373 C2374 1.396 . S
C2373 C2378 1.390 . S
C2374 C2368 1.465 . S
C2374 C2373 1.396 . S
C2374 C2375 1.399 . S
C2375 H2361 0.929 . S
C2375 C2374 1.399 . S
C2375 C2376 1.385 . S
C2376 H2362 0.931 . S
C2376 C2375 1.385 . S
C2376 C2377 1.389 . S
C2377 C2376 1.389 . S
C2377 C2378 1.387 . S
C2378 H2363 0.930 . S
C2378 C2373 1.390 . S
C2378 C2377 1.387 . S
H2379 C2391 0.930 . S
H2380 C2393 0.930 . S
H2381 C2394 0.930 . S
H2382 C2398 0.959 . S
H2383 C2398 0.959 . S
H2384 C2398 0.961 . S
H2385 C2399 0.960 . S
H2386 C2399 0.961 . S
H2387 C2399 0.959 . S
H2388 C2402 0.929 . S
H2389 C2403 0.931 . S
H2390 C2405 0.930 . S
C2391 H2379 0.930 . S
C2391 C2392 1.399 . S
C2391 C2396 1.399 . S
C2392 C2391 1.399 . S
C2392 C2393 1.376 . S
C2393 H2380 0.930 . S
C2393 C2392 1.376 . S
C2393 C2394 1.388 . S
C2394 H2381 0.930 . S
C2394 C2393 1.388 . S
C2394 C2395 1.390 . S
C2395 C2394 1.390 . S
C2395 C2396 1.394 . S
C2395 C2401 1.465 . S
C2396 C2391 1.399 . S
C2396 C2395 1.394 . S
C2396 C2397 1.516 . S
C2397 C2396 1.516 . S
C2397 C2398 1.502 . S
C2397 C2399 1.561 . S
C2397 C2400 1.526 . S
C2398 H2382 0.959 . S
C2398 H2383 0.959 . S
C2398 H2384 0.961 . S
C2398 C2397 1.502 . S
C2399 H2385 0.960 . S
C2399 H2386 0.961 . S
C2399 H2387 0.959 . S
C2399 C2397 1.561 . S
C2400 C2397 1.526 . S
C2400 C2401 1.396 . S
C2400 C2405 1.390 . S
C2401 C2395 1.465 . S
C2401 C2400 1.396 . S
C2401 C2402 1.399 . S
C2402 H2388 0.929 . S
C2402 C2401 1.399 . S
C2402 C2403 1.385 . S
C2403 H2389 0.931 . S
C2403 C2402 1.385 . S
C2403 C2404 1.389 . S
C2404 C2403 1.389 . S
C2404 C2405 1.387 . S
C2405 H2390 0.930 . S
C2405 C2400 1.390 . S
C2405 C2404 1.387 . S
H2406 C2418 0.930 . S
H2407 C2420 0.930 . S
H2408 C2421 0.930 . S
H2409 C2425 0.959 . S
H2410 C2425 0.959 . S
H2411 C2425 0.961 . S
H2412 C2426 0.960 . S
H2413 C2426 0.961 . S
H2414 C2426 0.959 . S
H2415 C2429 0.929 . S
H2416 C2430 0.931 . S
H2417 C2432 0.930 . S
C2418 H2406 0.930 . S
C2418 C2419 1.399 . S
C2418 C2423 1.399 . S
C2419 C2418 1.399 . S
C2419 C2420 1.376 . S
C2420 H2407 0.930 . S
C2420 C2419 1.376 . S
C2420 C2421 1.388 . S
C2421 H2408 0.930 . S
C2421 C2420 1.388 . S
C2421 C2422 1.390 . S
C2422 C2421 1.390 . S
C2422 C2423 1.394 . S
C2422 C2428 1.465 . S
C2423 C2418 1.399 . S
C2423 C2422 1.394 . S
C2423 C2424 1.516 . S
C2424 C2423 1.516 . S
C2424 C2425 1.502 . S
C2424 C2426 1.561 . S
C2424 C2427 1.526 . S
C2425 H2409 0.959 . S
C2425 H2410 0.959 . S
C2425 H2411 0.961 . S
C2425 C2424 1.502 . S
C2426 H2412 0.960 . S
C2426 H2413 0.961 . S
C2426 H2414 0.959 . S
C2426 C2424 1.561 . S
C2427 C2424 1.526 . S
C2427 C2428 1.396 . S
C2427 C2432 1.390 . S
C2428 C2422 1.465 . S
C2428 C2427 1.396 . S
C2428 C2429 1.399 . S
C2429 H2415 0.929 . S
C2429 C2428 1.399 . S
C2429 C2430 1.385 . S
C2430 H2416 0.931 . S
C2430 C2429 1.385 . S
C2430 C2431 1.389 . S
C2431 C2430 1.389 . S
C2431 C2432 1.387 . S
C2432 H2417 0.930 . S
C2432 C2427 1.390 . S
C2432 C2431 1.387 . S
H2433 C2445 0.930 . S
H2434 C2447 0.930 . S
H2435 C2448 0.930 . S
H2436 C2452 0.959 . S
H2437 C2452 0.959 . S
H2438 C2452 0.961 . S
H2439 C2453 0.960 . S
H2440 C2453 0.961 . S
H2441 C2453 0.959 . S
H2442 C2456 0.929 . S
H2443 C2457 0.931 . S
H2444 C2459 0.930 . S
C2445 H2433 0.930 . S
C2445 C2446 1.399 . S
C2445 C2450 1.399 . S
C2446 C2445 1.399 . S
C2446 C2447 1.376 . S
C2447 H2434 0.930 . S
C2447 C2446 1.376 . S
C2447 C2448 1.388 . S
C2448 H2435 0.930 . S
C2448 C2447 1.388 . S
C2448 C2449 1.390 . S
C2449 C2448 1.390 . S
C2449 C2450 1.394 . S
C2449 C2455 1.465 . S
C2450 C2445 1.399 . S
C2450 C2449 1.394 . S
C2450 C2451 1.516 . S
C2451 C2450 1.516 . S
C2451 C2452 1.502 . S
C2451 C2453 1.561 . S
C2451 C2454 1.526 . S
C2452 H2436 0.959 . S
C2452 H2437 0.959 . S
C2452 H2438 0.961 . S
C2452 C2451 1.502 . S
C2453 H2439 0.960 . S
C2453 H2440 0.961 . S
C2453 H2441 0.959 . S
C2453 C2451 1.561 . S
C2454 C2451 1.526 . S
C2454 C2455 1.396 . S
C2454 C2459 1.390 . S
C2455 C2449 1.465 . S
C2455 C2454 1.396 . S
C2455 C2456 1.399 . S
C2456 H2442 0.929 . S
C2456 C2455 1.399 . S
C2456 C2457 1.385 . S
C2457 H2443 0.931 . S
C2457 C2456 1.385 . S
C2457 C2458 1.389 . S
C2458 C2457 1.389 . S
C2458 C2459 1.387 . S
C2459 H2444 0.930 . S
C2459 C2454 1.390 . S
C2459 C2458 1.387 . S
H2460 C2472 0.930 . S
H2461 C2474 0.930 . S
H2462 C2475 0.930 . S
H2463 C2479 0.959 . S
H2464 C2479 0.959 . S
H2465 C2479 0.961 . S
H2466 C2480 0.960 . S
H2467 C2480 0.961 . S
H2468 C2480 0.959 . S
H2469 C2483 0.929 . S
H2470 C2484 0.931 . S
H2471 C2486 0.930 . S
C2472 H2460 0.930 . S
C2472 C2473 1.399 . S
C2472 C2477 1.399 . S
C2473 C2472 1.399 . S
C2473 C2474 1.376 . S
C2474 H2461 0.930 . S
C2474 C2473 1.376 . S
C2474 C2475 1.388 . S
C2475 H2462 0.930 . S
C2475 C2474 1.388 . S
C2475 C2476 1.390 . S
C2476 C2475 1.390 . S
C2476 C2477 1.394 . S
C2476 C2482 1.465 . S
C2477 C2472 1.399 . S
C2477 C2476 1.394 . S
C2477 C2478 1.516 . S
C2478 C2477 1.516 . S
C2478 C2479 1.502 . S
C2478 C2480 1.561 . S
C2478 C2481 1.526 . S
C2479 H2463 0.959 . S
C2479 H2464 0.959 . S
C2479 H2465 0.961 . S
C2479 C2478 1.502 . S
C2480 H2466 0.960 . S
C2480 H2467 0.961 . S
C2480 H2468 0.959 . S
C2480 C2478 1.561 . S
C2481 C2478 1.526 . S
C2481 C2482 1.396 . S
C2481 C2486 1.390 . S
C2482 C2476 1.465 . S
C2482 C2481 1.396 . S
C2482 C2483 1.399 . S
C2483 H2469 0.929 . S
C2483 C2482 1.399 . S
C2483 C2484 1.385 . S
C2484 H2470 0.931 . S
C2484 C2483 1.385 . S
C2484 C2485 1.389 . S
C2485 C2484 1.389 . S
C2485 C2486 1.387 . S
C2486 H2471 0.930 . S
C2486 C2481 1.390 . S
C2486 C2485 1.387 . S
H2487 C2499 0.930 . S
H2488 C2501 0.930 . S
H2489 C2502 0.930 . S
H2490 C2506 0.959 . S
H2491 C2506 0.959 . S
H2492 C2506 0.961 . S
H2493 C2507 0.960 . S
H2494 C2507 0.961 . S
H2495 C2507 0.959 . S
H2496 C2510 0.929 . S
H2497 C2511 0.931 . S
H2498 C2513 0.930 . S
C2499 H2487 0.930 . S
C2499 C2500 1.399 . S
C2499 C2504 1.399 . S
C2500 C2499 1.399 . S
C2500 C2501 1.376 . S
C2501 H2488 0.930 . S
C2501 C2500 1.376 . S
C2501 C2502 1.388 . S
C2502 H2489 0.930 . S
C2502 C2501 1.388 . S
C2502 C2503 1.390 . S
C2503 C2502 1.390 . S
C2503 C2504 1.394 . S
C2503 C2509 1.465 . S
C2504 C2499 1.399 . S
C2504 C2503 1.394 . S
C2504 C2505 1.516 . S
C2505 C2504 1.516 . S
C2505 C2506 1.502 . S
C2505 C2507 1.561 . S
C2505 C2508 1.526 . S
C2506 H2490 0.959 . S
C2506 H2491 0.959 . S
C2506 H2492 0.961 . S
C2506 C2505 1.502 . S
C2507 H2493 0.960 . S
C2507 H2494 0.961 . S
C2507 H2495 0.959 . S
C2507 C2505 1.561 . S
C2508 C2505 1.526 . S
C2508 C2509 1.396 . S
C2508 C2513 1.390 . S
C2509 C2503 1.465 . S
C2509 C2508 1.396 . S
C2509 C2510 1.399 . S
C2510 H2496 0.929 . S
C2510 C2509 1.399 . S
C2510 C2511 1.385 . S
C2511 H2497 0.931 . S
C2511 C2510 1.385 . S
C2511 C2512 1.389 . S
C2512 C2511 1.389 . S
C2512 C2513 1.387 . S
C2513 H2498 0.930 . S
C2513 C2508 1.390 . S
C2513 C2512 1.387 . S
H2514 C2526 0.930 . S
H2515 C2528 0.917 1_545 S
H2516 C2529 0.930 . S
H2517 C2533 0.959 . S
H2518 C2533 0.944 1_554 S
H2519 C2533 0.963 1_554 S
H2520 C2534 0.960 . S
H2521 C2534 0.961 . S
H2522 C2534 0.959 1_556 S
H2523 C2537 0.929 . S
H2524 C2538 0.931 . S
H2525 C2540 0.930 . S
C2526 H2514 0.930 . S
C2526 C2527 1.399 . S
C2526 C2531 1.399 . S
C2527 C2526 1.399 . S
C2527 C2528 1.376 . S
C2528 H2515 0.917 1_565 S
C2528 C2527 1.376 . S
C2528 C2529 1.388 . S
C2529 H2516 0.930 . S
C2529 C2528 1.388 . S
C2529 C2530 1.390 . S
C2530 C2529 1.390 . S
C2530 C2531 1.394 . S
C2530 C2536 1.465 . S
C2531 C2526 1.399 . S
C2531 C2530 1.394 . S
C2531 C2532 1.516 . S
C2532 C2531 1.516 . S
C2532 C2533 1.502 . S
C2532 C2534 1.561 1_556 S
C2532 C2535 1.526 . S
C2533 H2517 0.959 . S
C2533 H2518 0.944 1_556 S
C2533 H2519 0.963 1_556 S
C2533 C2532 1.502 . S
C2534 H2520 0.960 . S
C2534 H2521 0.961 . S
C2534 H2522 0.959 1_554 S
C2534 C2532 1.561 1_554 S
C2535 C2532 1.526 . S
C2535 C2536 1.396 . S
C2535 C2540 1.390 . S
C2536 C2530 1.465 . S
C2536 C2535 1.396 . S
C2536 C2537 1.399 . S
C2537 H2523 0.929 . S
C2537 C2536 1.399 . S
C2537 C2538 1.385 . S
C2538 H2524 0.931 . S
C2538 C2537 1.385 . S
C2538 C2539 1.389 . S
C2539 C2538 1.389 . S
C2539 C2540 1.387 . S
C2540 H2525 0.930 . S
C2540 C2535 1.390 . S
C2540 C2539 1.387 . S
H2541 C2553 0.930 . S
H2542 C2555 0.930 1_455 S
H2543 C2556 0.930 . S
H2544 C2560 0.959 . S
H2545 C2560 0.959 . S
H2546 C2560 0.961 . S
H2547 C2561 0.960 . S
H2548 C2561 0.961 . S
H2549 C2561 0.959 . S
H2550 C2564 0.929 . S
H2551 C2565 0.931 1_565 S
H2552 C2567 0.930 . S
C2553 H2541 0.930 . S
C2553 C2554 1.399 . S
C2553 C2558 1.399 . S
C2554 C2553 1.399 . S
C2554 C2555 1.376 . S
C2555 H2542 0.930 1_655 S
C2555 C2554 1.376 . S
C2555 C2556 1.388 . S
C2556 H2543 0.930 . S
C2556 C2555 1.388 . S
C2556 C2557 1.390 . S
C2557 C2556 1.390 . S
C2557 C2558 1.394 . S
C2557 C2563 1.465 . S
C2558 C2553 1.399 . S
C2558 C2557 1.394 . S
C2558 C2559 1.516 . S
C2559 C2558 1.516 . S
C2559 C2560 1.502 . S
C2559 C2561 1.561 . S
C2559 C2562 1.526 . S
C2560 H2544 0.959 . S
C2560 H2545 0.959 . S
C2560 H2546 0.961 . S
C2560 C2559 1.502 . S
C2561 H2547 0.960 . S
C2561 H2548 0.961 . S
C2561 H2549 0.959 . S
C2561 C2559 1.561 . S
C2562 C2559 1.526 . S
C2562 C2563 1.396 . S
C2562 C2567 1.390 . S
C2563 C2557 1.465 . S
C2563 C2562 1.396 . S
C2563 C2564 1.399 . S
C2564 H2550 0.929 . S
C2564 C2563 1.399 . S
C2564 C2565 1.385 . S
C2565 H2551 0.931 1_545 S
C2565 C2564 1.385 . S
C2565 C2566 1.389 . S
C2566 C2565 1.389 . S
C2566 C2567 1.387 . S
C2567 H2552 0.930 . S
C2567 C2562 1.390 . S
C2567 C2566 1.387 . S
H2568 C2580 0.930 . S
H2569 C2582 0.930 . S
H2570 C2583 0.930 . S
H2571 C2587 0.959 . S
H2572 C2587 0.959 . S
H2573 C2587 0.961 . S
H2574 C2588 0.960 . S
H2575 C2588 0.961 . S
H2576 C2588 0.959 . S
H2577 C2591 0.929 . S
H2578 C2592 0.931 . S
H2579 C2594 0.930 . S
C2580 H2568 0.930 . S
C2580 C2581 1.399 . S
C2580 C2585 1.399 . S
C2581 C2580 1.399 . S
C2581 C2582 1.376 . S
C2582 H2569 0.930 . S
C2582 C2581 1.376 . S
C2582 C2583 1.388 . S
C2583 H2570 0.930 . S
C2583 C2582 1.388 . S
C2583 C2584 1.390 . S
C2584 C2583 1.390 . S
C2584 C2585 1.394 . S
C2584 C2590 1.465 . S
C2585 C2580 1.399 . S
C2585 C2584 1.394 . S
C2585 C2586 1.516 . S
C2586 C2585 1.516 . S
C2586 C2587 1.502 . S
C2586 C2588 1.561 . S
C2586 C2589 1.526 . S
C2587 H2571 0.959 . S
C2587 H2572 0.959 . S
C2587 H2573 0.961 . S
C2587 C2586 1.502 . S
C2588 H2574 0.960 . S
C2588 H2575 0.961 . S
C2588 H2576 0.959 . S
C2588 C2586 1.561 . S
C2589 C2586 1.526 . S
C2589 C2590 1.396 . S
C2589 C2594 1.390 . S
C2590 C2584 1.465 . S
C2590 C2589 1.396 . S
C2590 C2591 1.399 . S
C2591 H2577 0.929 . S
C2591 C2590 1.399 . S
C2591 C2592 1.385 . S
C2592 H2578 0.931 . S
C2592 C2591 1.385 . S
C2592 C2593 1.389 . S
C2593 C2592 1.389 . S
C2593 C2594 1.387 . S
C2594 H2579 0.930 . S
C2594 C2589 1.390 . S
C2594 C2593 1.387 . S
H2595 C2607 0.930 . S
H2596 C2609 0.930 . S
H2597 C2610 0.930 . S
H2598 C2614 0.959 . S
H2599 C2614 0.959 . S
H2600 C2614 0.961 . S
H2601 C2615 0.960 . S
H2602 C2615 0.961 . S
H2603 C2615 0.959 . S
H2604 C2618 0.929 . S
H2605 C2619 0.931 . S
H2606 C2621 0.930 . S
C2607 H2595 0.930 . S
C2607 C2608 1.399 . S
C2607 C2612 1.399 . S
C2608 C2607 1.399 . S
C2608 C2609 1.376 . S
C2609 H2596 0.930 . S
C2609 C2608 1.376 . S
C2609 C2610 1.388 . S
C2610 H2597 0.930 . S
C2610 C2609 1.388 . S
C2610 C2611 1.390 . S
C2611 C2610 1.390 . S
C2611 C2612 1.394 . S
C2611 C2617 1.465 . S
C2612 C2607 1.399 . S
C2612 C2611 1.394 . S
C2612 C2613 1.516 . S
C2613 C2612 1.516 . S
C2613 C2614 1.502 . S
C2613 C2615 1.561 . S
C2613 C2616 1.526 . S
C2614 H2598 0.959 . S
C2614 H2599 0.959 . S
C2614 H2600 0.961 . S
C2614 C2613 1.502 . S
C2615 H2601 0.960 . S
C2615 H2602 0.961 . S
C2615 H2603 0.959 . S
C2615 C2613 1.561 . S
C2616 C2613 1.526 . S
C2616 C2617 1.396 . S
C2616 C2621 1.390 . S
C2617 C2611 1.465 . S
C2617 C2616 1.396 . S
C2617 C2618 1.399 . S
C2618 H2604 0.929 . S
C2618 C2617 1.399 . S
C2618 C2619 1.385 . S
C2619 H2605 0.931 . S
C2619 C2618 1.385 . S
C2619 C2620 1.389 . S
C2620 C2619 1.389 . S
C2620 C2621 1.387 . S
C2621 H2606 0.930 . S
C2621 C2616 1.390 . S
C2621 C2620 1.387 . S
H2622 C2634 0.930 . S
H2623 C2636 0.930 . S
H2624 C2637 0.930 . S
H2625 C2641 0.959 . S
H2626 C2641 0.959 . S
H2627 C2641 0.961 . S
H2628 C2642 0.960 . S
H2629 C2642 0.961 . S
H2630 C2642 0.959 . S
H2631 C2645 0.929 . S
H2632 C2646 0.931 . S
H2633 C2648 0.930 . S
C2634 H2622 0.930 . S
C2634 C2635 1.399 . S
C2634 C2639 1.399 . S
C2635 C2634 1.399 . S
C2635 C2636 1.376 . S
C2636 H2623 0.930 . S
C2636 C2635 1.376 . S
C2636 C2637 1.388 . S
C2637 H2624 0.930 . S
C2637 C2636 1.388 . S
C2637 C2638 1.390 . S
C2638 C2637 1.390 . S
C2638 C2639 1.394 . S
C2638 C2644 1.465 . S
C2639 C2634 1.399 . S
C2639 C2638 1.394 . S
C2639 C2640 1.516 . S
C2640 C2639 1.516 . S
C2640 C2641 1.502 . S
C2640 C2642 1.561 . S
C2640 C2643 1.526 . S
C2641 H2625 0.959 . S
C2641 H2626 0.959 . S
C2641 H2627 0.961 . S
C2641 C2640 1.502 . S
C2642 H2628 0.960 . S
C2642 H2629 0.961 . S
C2642 H2630 0.959 . S
C2642 C2640 1.561 . S
C2643 C2640 1.526 . S
C2643 C2644 1.396 . S
C2643 C2648 1.390 . S
C2644 C2638 1.465 . S
C2644 C2643 1.396 . S
C2644 C2645 1.399 . S
C2645 H2631 0.929 . S
C2645 C2644 1.399 . S
C2645 C2646 1.385 . S
C2646 H2632 0.931 . S
C2646 C2645 1.385 . S
C2646 C2647 1.389 . S
C2647 C2646 1.389 . S
C2647 C2648 1.387 . S
C2648 H2633 0.930 . S
C2648 C2643 1.390 . S
C2648 C2647 1.387 . S
H2649 C2661 0.930 . S
H2650 C2663 0.930 . S
H2651 C2664 0.930 . S
H2652 C2668 0.959 . S
H2653 C2668 0.959 . S
H2654 C2668 0.961 . S
H2655 C2669 0.960 . S
H2656 C2669 0.961 . S
H2657 C2669 0.959 . S
H2658 C2672 0.929 . S
H2659 C2673 0.931 . S
H2660 C2675 0.930 . S
C2661 H2649 0.930 . S
C2661 C2662 1.399 . S
C2661 C2666 1.399 . S
C2662 C2661 1.399 . S
C2662 C2663 1.376 . S
C2663 H2650 0.930 . S
C2663 C2662 1.376 . S
C2663 C2664 1.388 . S
C2664 H2651 0.930 . S
C2664 C2663 1.388 . S
C2664 C2665 1.390 . S
C2665 C2664 1.390 . S
C2665 C2666 1.394 . S
C2665 C2671 1.465 . S
C2666 C2661 1.399 . S
C2666 C2665 1.394 . S
C2666 C2667 1.516 . S
C2667 C2666 1.516 . S
C2667 C2668 1.502 . S
C2667 C2669 1.561 . S
C2667 C2670 1.526 . S
C2668 H2652 0.959 . S
C2668 H2653 0.959 . S
C2668 H2654 0.961 . S
C2668 C2667 1.502 . S
C2669 H2655 0.960 . S
C2669 H2656 0.961 . S
C2669 H2657 0.959 . S
C2669 C2667 1.561 . S
C2670 C2667 1.526 . S
C2670 C2671 1.396 . S
C2670 C2675 1.390 . S
C2671 C2665 1.465 . S
C2671 C2670 1.396 . S
C2671 C2672 1.399 . S
C2672 H2658 0.929 . S
C2672 C2671 1.399 . S
C2672 C2673 1.385 . S
C2673 H2659 0.931 . S
C2673 C2672 1.385 . S
C2673 C2674 1.389 . S
C2674 C2673 1.389 . S
C2674 C2675 1.387 . S
C2675 H2660 0.930 . S
C2675 C2670 1.390 . S
C2675 C2674 1.387 . S
H2676 C2688 0.930 . S
H2677 C2690 0.930 . S
H2678 C2691 0.930 . S
H2679 C2695 0.959 . S
H2680 C2695 0.959 . S
H2681 C2695 0.961 . S
H2682 C2696 0.960 . S
H2683 C2696 0.961 . S
H2684 C2696 0.959 . S
H2685 C2699 0.929 . S
H2686 C2700 0.931 . S
H2687 C2702 0.930 . S
C2688 H2676 0.930 . S
C2688 C2689 1.399 . S
C2688 C2693 1.399 . S
C2689 C2688 1.399 . S
C2689 C2690 1.376 . S
C2690 H2677 0.930 . S
C2690 C2689 1.376 . S
C2690 C2691 1.388 . S
C2691 H2678 0.930 . S
C2691 C2690 1.388 . S
C2691 C2692 1.390 . S
C2692 C2691 1.390 . S
C2692 C2693 1.394 . S
C2692 C2698 1.465 . S
C2693 C2688 1.399 . S
C2693 C2692 1.394 . S
C2693 C2694 1.516 . S
C2694 C2693 1.516 . S
C2694 C2695 1.502 . S
C2694 C2696 1.561 . S
C2694 C2697 1.526 . S
C2695 H2679 0.959 . S
C2695 H2680 0.959 . S
C2695 H2681 0.961 . S
C2695 C2694 1.502 . S
C2696 H2682 0.960 . S
C2696 H2683 0.961 . S
C2696 H2684 0.959 . S
C2696 C2694 1.561 . S
C2697 C2694 1.526 . S
C2697 C2698 1.396 . S
C2697 C2702 1.390 . S
C2698 C2692 1.465 . S
C2698 C2697 1.396 . S
C2698 C2699 1.399 . S
C2699 H2685 0.929 . S
C2699 C2698 1.399 . S
C2699 C2700 1.385 . S
C2700 H2686 0.931 . S
C2700 C2699 1.385 . S
C2700 C2701 1.389 . S
C2701 C2700 1.389 . S
C2701 C2702 1.387 . S
C2702 H2687 0.930 . S
C2702 C2697 1.390 . S
C2702 C2701 1.387 . S
H2703 C2715 0.930 . S
H2704 C2717 0.930 . S
H2705 C2718 0.930 . S
H2706 C2722 0.959 . S
H2707 C2722 0.959 . S
H2708 C2722 0.961 . S
H2709 C2723 0.960 . S
H2710 C2723 0.961 . S
H2711 C2723 0.959 . S
H2712 C2726 0.929 . S
H2713 C2727 0.931 . S
H2714 C2729 0.930 . S
C2715 H2703 0.930 . S
C2715 C2716 1.399 . S
C2715 C2720 1.399 . S
C2716 C2715 1.399 . S
C2716 C2717 1.376 . S
C2717 H2704 0.930 . S
C2717 C2716 1.376 . S
C2717 C2718 1.388 . S
C2718 H2705 0.930 . S
C2718 C2717 1.388 . S
C2718 C2719 1.390 . S
C2719 C2718 1.390 . S
C2719 C2720 1.394 . S
C2719 C2725 1.465 . S
C2720 C2715 1.399 . S
C2720 C2719 1.394 . S
C2720 C2721 1.516 . S
C2721 C2720 1.516 . S
C2721 C2722 1.502 . S
C2721 C2723 1.561 . S
C2721 C2724 1.526 . S
C2722 H2706 0.959 . S
C2722 H2707 0.959 . S
C2722 H2708 0.961 . S
C2722 C2721 1.502 . S
C2723 H2709 0.960 . S
C2723 H2710 0.961 . S
C2723 H2711 0.959 . S
C2723 C2721 1.561 . S
C2724 C2721 1.526 . S
C2724 C2725 1.396 . S
C2724 C2729 1.390 . S
C2725 C2719 1.465 . S
C2725 C2724 1.396 . S
C2725 C2726 1.399 . S
C2726 H2712 0.929 . S
C2726 C2725 1.399 . S
C2726 C2727 1.385 . S
C2727 H2713 0.931 . S
C2727 C2726 1.385 . S
C2727 C2728 1.389 . S
C2728 C2727 1.389 . S
C2728 C2729 1.387 . S
C2729 H2714 0.930 . S
C2729 C2724 1.390 . S
C2729 C2728 1.387 . S
H2730 C2742 0.930 . S
H2731 C2744 0.930 . S
H2732 C2745 0.930 . S
H2733 C2749 0.959 . S
H2734 C2749 0.959 . S
H2735 C2749 0.961 . S
H2736 C2750 0.960 . S
H2737 C2750 0.961 . S
H2738 C2750 0.959 . S
H2739 C2753 0.929 . S
H2740 C2754 0.931 . S
H2741 C2756 0.930 . S
C2742 H2730 0.930 . S
C2742 C2743 1.399 . S
C2742 C2747 1.399 . S
C2743 C2742 1.399 . S
C2743 C2744 1.376 . S
C2744 H2731 0.930 . S
C2744 C2743 1.376 . S
C2744 C2745 1.388 . S
C2745 H2732 0.930 . S
C2745 C2744 1.388 . S
C2745 C2746 1.390 . S
C2746 C2745 1.390 . S
C2746 C2747 1.394 . S
C2746 C2752 1.465 . S
C2747 C2742 1.399 . S
C2747 C2746 1.394 . S
C2747 C2748 1.516 . S
C2748 C2747 1.516 . S
C2748 C2749 1.502 . S
C2748 C2750 1.561 . S
C2748 C2751 1.526 . S
C2749 H2733 0.959 . S
C2749 H2734 0.959 . S
C2749 H2735 0.961 . S
C2749 C2748 1.502 . S
C2750 H2736 0.960 . S
C2750 H2737 0.961 . S
C2750 H2738 0.959 . S
C2750 C2748 1.561 . S
C2751 C2748 1.526 . S
C2751 C2752 1.396 . S
C2751 C2756 1.390 . S
C2752 C2746 1.465 . S
C2752 C2751 1.396 . S
C2752 C2753 1.399 . S
C2753 H2739 0.929 . S
C2753 C2752 1.399 . S
C2753 C2754 1.385 . S
C2754 H2740 0.931 . S
C2754 C2753 1.385 . S
C2754 C2755 1.389 . S
C2755 C2754 1.389 . S
C2755 C2756 1.387 . S
C2756 H2741 0.930 . S
C2756 C2751 1.390 . S
C2756 C2755 1.387 . S
H2757 C2769 0.930 . S
H2758 C2771 0.930 . S
H2759 C2772 0.930 . S
H2760 C2776 0.959 . S
H2761 C2776 0.959 . S
H2762 C2776 0.961 . S
H2763 C2777 0.960 . S
H2764 C2777 0.961 . S
H2765 C2777 0.959 . S
H2766 C2780 0.929 . S
H2767 C2781 0.931 . S
H2768 C2783 0.930 . S
C2769 H2757 0.930 . S
C2769 C2770 1.399 . S
C2769 C2774 1.399 . S
C2770 C2769 1.399 . S
C2770 C2771 1.376 . S
C2771 H2758 0.930 . S
C2771 C2770 1.376 . S
C2771 C2772 1.388 . S
C2772 H2759 0.930 . S
C2772 C2771 1.388 . S
C2772 C2773 1.390 . S
C2773 C2772 1.390 . S
C2773 C2774 1.394 . S
C2773 C2779 1.465 . S
C2774 C2769 1.399 . S
C2774 C2773 1.394 . S
C2774 C2775 1.516 . S
C2775 C2774 1.516 . S
C2775 C2776 1.502 . S
C2775 C2777 1.561 . S
C2775 C2778 1.526 . S
C2776 H2760 0.959 . S
C2776 H2761 0.959 . S
C2776 H2762 0.961 . S
C2776 C2775 1.502 . S
C2777 H2763 0.960 . S
C2777 H2764 0.961 . S
C2777 H2765 0.959 . S
C2777 C2775 1.561 . S
C2778 C2775 1.526 . S
C2778 C2779 1.396 . S
C2778 C2783 1.390 . S
C2779 C2773 1.465 . S
C2779 C2778 1.396 . S
C2779 C2780 1.399 . S
C2780 H2766 0.929 . S
C2780 C2779 1.399 . S
C2780 C2781 1.385 . S
C2781 H2767 0.931 . S
C2781 C2780 1.385 . S
C2781 C2782 1.389 . S
C2782 C2781 1.389 . S
C2782 C2783 1.387 . S
C2783 H2768 0.930 . S
C2783 C2778 1.390 . S
C2783 C2782 1.387 . S
H2784 C2796 0.930 . S
H2785 C2798 0.930 . S
H2786 C2799 0.930 . S
H2787 C2803 0.959 . S
H2788 C2803 0.959 . S
H2789 C2803 0.961 . S
H2790 C2804 0.960 . S
H2791 C2804 0.961 . S
H2792 C2804 0.959 . S
H2793 C2807 0.929 . S
H2794 C2808 0.931 . S
H2795 C2810 0.930 . S
C2796 H2784 0.930 . S
C2796 C2797 1.399 . S
C2796 C2801 1.399 . S
C2797 C2796 1.399 . S
C2797 C2798 1.376 . S
C2798 H2785 0.930 . S
C2798 C2797 1.376 . S
C2798 C2799 1.388 . S
C2799 H2786 0.930 . S
C2799 C2798 1.388 . S
C2799 C2800 1.390 . S
C2800 C2799 1.390 . S
C2800 C2801 1.394 . S
C2800 C2806 1.465 . S
C2801 C2796 1.399 . S
C2801 C2800 1.394 . S
C2801 C2802 1.516 . S
C2802 C2801 1.516 . S
C2802 C2803 1.502 . S
C2802 C2804 1.561 . S
C2802 C2805 1.526 . S
C2803 H2787 0.959 . S
C2803 H2788 0.959 . S
C2803 H2789 0.961 . S
C2803 C2802 1.502 . S
C2804 H2790 0.960 . S
C2804 H2791 0.961 . S
C2804 H2792 0.959 . S
C2804 C2802 1.561 . S
C2805 C2802 1.526 . S
C2805 C2806 1.396 . S
C2805 C2810 1.390 . S
C2806 C2800 1.465 . S
C2806 C2805 1.396 . S
C2806 C2807 1.399 . S
C2807 H2793 0.929 . S
C2807 C2806 1.399 . S
C2807 C2808 1.385 . S
C2808 H2794 0.931 . S
C2808 C2807 1.385 . S
C2808 C2809 1.389 . S
C2809 C2808 1.389 . S
C2809 C2810 1.387 . S
C2810 H2795 0.930 . S
C2810 C2805 1.390 . S
C2810 C2809 1.387 . S
H2811 C2823 0.930 . S
H2812 C2825 0.930 . S
H2813 C2826 0.930 . S
H2814 C2830 0.959 . S
H2815 C2830 0.959 . S
H2816 C2830 0.961 . S
H2817 C2831 0.960 . S
H2818 C2831 0.961 . S
H2819 C2831 0.959 . S
H2820 C2834 0.929 . S
H2821 C2835 0.931 . S
H2822 C2837 0.930 . S
C2823 H2811 0.930 . S
C2823 C2824 1.399 . S
C2823 C2828 1.399 . S
C2824 C2823 1.399 . S
C2824 C2825 1.376 . S
C2825 H2812 0.930 . S
C2825 C2824 1.376 . S
C2825 C2826 1.388 . S
C2826 H2813 0.930 . S
C2826 C2825 1.388 . S
C2826 C2827 1.390 . S
C2827 C2826 1.390 . S
C2827 C2828 1.394 . S
C2827 C2833 1.465 . S
C2828 C2823 1.399 . S
C2828 C2827 1.394 . S
C2828 C2829 1.516 . S
C2829 C2828 1.516 . S
C2829 C2830 1.502 . S
C2829 C2831 1.561 . S
C2829 C2832 1.526 . S
C2830 H2814 0.959 . S
C2830 H2815 0.959 . S
C2830 H2816 0.961 . S
C2830 C2829 1.502 . S
C2831 H2817 0.960 . S
C2831 H2818 0.961 . S
C2831 H2819 0.959 . S
C2831 C2829 1.561 . S
C2832 C2829 1.526 . S
C2832 C2833 1.396 . S
C2832 C2837 1.390 . S
C2833 C2827 1.465 . S
C2833 C2832 1.396 . S
C2833 C2834 1.399 . S
C2834 H2820 0.929 . S
C2834 C2833 1.399 . S
C2834 C2835 1.385 . S
C2835 H2821 0.931 . S
C2835 C2834 1.385 . S
C2835 C2836 1.389 . S
C2836 C2835 1.389 . S
C2836 C2837 1.387 . S
C2837 H2822 0.930 . S
C2837 C2832 1.390 . S
C2837 C2836 1.387 . S
H2838 C2850 0.930 . S
H2839 C2852 0.930 . S
H2840 C2853 0.930 . S
H2841 C2857 0.959 . S
H2842 C2857 0.959 . S
H2843 C2857 0.961 . S
H2844 C2858 0.960 . S
H2845 C2858 0.961 . S
H2846 C2858 0.959 . S
H2847 C2861 0.929 . S
H2848 C2862 0.931 . S
H2849 C2864 0.930 . S
C2850 H2838 0.930 . S
C2850 C2851 1.399 . S
C2850 C2855 1.399 . S
C2851 C2850 1.399 . S
C2851 C2852 1.376 . S
C2852 H2839 0.930 . S
C2852 C2851 1.376 . S
C2852 C2853 1.388 . S
C2853 H2840 0.930 . S
C2853 C2852 1.388 . S
C2853 C2854 1.390 . S
C2854 C2853 1.390 . S
C2854 C2855 1.394 . S
C2854 C2860 1.465 . S
C2855 C2850 1.399 . S
C2855 C2854 1.394 . S
C2855 C2856 1.516 . S
C2856 C2855 1.516 . S
C2856 C2857 1.502 . S
C2856 C2858 1.561 . S
C2856 C2859 1.526 . S
C2857 H2841 0.959 . S
C2857 H2842 0.959 . S
C2857 H2843 0.961 . S
C2857 C2856 1.502 . S
C2858 H2844 0.960 . S
C2858 H2845 0.961 . S
C2858 H2846 0.959 . S
C2858 C2856 1.561 . S
C2859 C2856 1.526 . S
C2859 C2860 1.396 . S
C2859 C2864 1.390 . S
C2860 C2854 1.465 . S
C2860 C2859 1.396 . S
C2860 C2861 1.399 . S
C2861 H2847 0.929 . S
C2861 C2860 1.399 . S
C2861 C2862 1.385 . S
C2862 H2848 0.931 . S
C2862 C2861 1.385 . S
C2862 C2863 1.389 . S
C2863 C2862 1.389 . S
C2863 C2864 1.387 . S
C2864 H2849 0.930 . S
C2864 C2859 1.390 . S
C2864 C2863 1.387 . S
H2865 C2877 0.930 . S
H2866 C2879 0.930 . S
H2867 C2880 0.930 . S
H2868 C2884 0.959 . S
H2869 C2884 0.959 . S
H2870 C2884 0.961 . S
H2871 C2885 0.960 . S
H2872 C2885 0.961 . S
H2873 C2885 0.959 . S
H2874 C2888 0.929 . S
H2875 C2889 0.931 . S
H2876 C2891 0.930 . S
C2877 H2865 0.930 . S
C2877 C2878 1.399 . S
C2877 C2882 1.399 . S
C2878 C2877 1.399 . S
C2878 C2879 1.376 . S
C2879 H2866 0.930 . S
C2879 C2878 1.376 . S
C2879 C2880 1.388 . S
C2880 H2867 0.930 . S
C2880 C2879 1.388 . S
C2880 C2881 1.390 . S
C2881 C2880 1.390 . S
C2881 C2882 1.394 . S
C2881 C2887 1.465 . S
C2882 C2877 1.399 . S
C2882 C2881 1.394 . S
C2882 C2883 1.516 . S
C2883 C2882 1.516 . S
C2883 C2884 1.502 . S
C2883 C2885 1.561 . S
C2883 C2886 1.526 . S
C2884 H2868 0.959 . S
C2884 H2869 0.959 . S
C2884 H2870 0.961 . S
C2884 C2883 1.502 . S
C2885 H2871 0.960 . S
C2885 H2872 0.961 . S
C2885 H2873 0.959 . S
C2885 C2883 1.561 . S
C2886 C2883 1.526 . S
C2886 C2887 1.396 . S
C2886 C2891 1.390 . S
C2887 C2881 1.465 . S
C2887 C2886 1.396 . S
C2887 C2888 1.399 . S
C2888 H2874 0.929 . S
C2888 C2887 1.399 . S
C2888 C2889 1.385 . S
C2889 H2875 0.931 . S
C2889 C2888 1.385 . S
C2889 C2890 1.389 . S
C2890 C2889 1.389 . S
C2890 C2891 1.387 . S
C2891 H2876 0.930 . S
C2891 C2886 1.390 . S
C2891 C2890 1.387 . S
H2892 C2904 0.930 . S
H2893 C2906 0.930 . S
H2894 C2907 0.930 . S
H2895 C2911 0.959 . S
H2896 C2911 0.959 . S
H2897 C2911 0.961 . S
H2898 C2912 0.960 . S
H2899 C2912 0.961 . S
H2900 C2912 0.959 . S
H2901 C2915 0.929 . S
H2902 C2916 0.931 . S
H2903 C2918 0.930 . S
C2904 H2892 0.930 . S
C2904 C2905 1.399 . S
C2904 C2909 1.399 . S
C2905 C2904 1.399 . S
C2905 C2906 1.376 . S
C2906 H2893 0.930 . S
C2906 C2905 1.376 . S
C2906 C2907 1.388 . S
C2907 H2894 0.930 . S
C2907 C2906 1.388 . S
C2907 C2908 1.390 . S
C2908 C2907 1.390 . S
C2908 C2909 1.394 . S
C2908 C2914 1.465 . S
C2909 C2904 1.399 . S
C2909 C2908 1.394 . S
C2909 C2910 1.516 . S
C2910 C2909 1.516 . S
C2910 C2911 1.502 . S
C2910 C2912 1.561 . S
C2910 C2913 1.526 . S
C2911 H2895 0.959 . S
C2911 H2896 0.959 . S
C2911 H2897 0.961 . S
C2911 C2910 1.502 . S
C2912 H2898 0.960 . S
C2912 H2899 0.961 . S
C2912 H2900 0.959 . S
C2912 C2910 1.561 . S
C2913 C2910 1.526 . S
C2913 C2914 1.396 . S
C2913 C2918 1.390 . S
C2914 C2908 1.465 . S
C2914 C2913 1.396 . S
C2914 C2915 1.399 . S
C2915 H2901 0.929 . S
C2915 C2914 1.399 . S
C2915 C2916 1.385 . S
C2916 H2902 0.931 . S
C2916 C2915 1.385 . S
C2916 C2917 1.389 . S
C2917 C2916 1.389 . S
C2917 C2918 1.387 . S
C2918 H2903 0.930 . S
C2918 C2913 1.390 . S
C2918 C2917 1.387 . S
H2919 C2931 0.930 . S
H2920 C2933 0.930 . S
H2921 C2934 0.930 . S
H2922 C2938 0.959 . S
H2923 C2938 0.959 . S
H2924 C2938 0.961 . S
H2925 C2939 0.960 . S
H2926 C2939 0.961 . S
H2927 C2939 0.959 . S
H2928 C2942 0.929 . S
H2929 C2943 0.931 . S
H2930 C2945 0.930 . S
C2931 H2919 0.930 . S
C2931 C2932 1.399 . S
C2931 C2936 1.399 . S
C2932 C2931 1.399 . S
C2932 C2933 1.376 . S
C2933 H2920 0.930 . S
C2933 C2932 1.376 . S
C2933 C2934 1.388 . S
C2934 H2921 0.930 . S
C2934 C2933 1.388 . S
C2934 C2935 1.390 . S
C2935 C2934 1.390 . S
C2935 C2936 1.394 . S
C2935 C2941 1.465 . S
C2936 C2931 1.399 . S
C2936 C2935 1.394 . S
C2936 C2937 1.516 . S
C2937 C2936 1.516 . S
C2937 C2938 1.502 . S
C2937 C2939 1.561 . S
C2937 C2940 1.526 . S
C2938 H2922 0.959 . S
C2938 H2923 0.959 . S
C2938 H2924 0.961 . S
C2938 C2937 1.502 . S
C2939 H2925 0.960 . S
C2939 H2926 0.961 . S
C2939 H2927 0.959 . S
C2939 C2937 1.561 . S
C2940 C2937 1.526 . S
C2940 C2941 1.396 . S
C2940 C2945 1.390 . S
C2941 C2935 1.465 . S
C2941 C2940 1.396 . S
C2941 C2942 1.399 . S
C2942 H2928 0.929 . S
C2942 C2941 1.399 . S
C2942 C2943 1.385 . S
C2943 H2929 0.931 . S
C2943 C2942 1.385 . S
C2943 C2944 1.389 . S
C2944 C2943 1.389 . S
C2944 C2945 1.387 . S
C2945 H2930 0.930 . S
C2945 C2940 1.390 . S
C2945 C2944 1.387 . S
H2946 C2958 0.930 . S
H2947 C2960 0.930 . S
H2948 C2961 0.930 . S
H2949 C2965 0.959 . S
H2950 C2965 0.959 . S
H2951 C2965 0.961 . S
H2952 C2966 0.960 . S
H2953 C2966 0.961 . S
H2954 C2966 0.959 . S
H2955 C2969 0.929 . S
H2956 C2970 0.931 . S
H2957 C2972 0.930 . S
C2958 H2946 0.930 . S
C2958 C2959 1.399 . S
C2958 C2963 1.399 . S
C2959 C2958 1.399 . S
C2959 C2960 1.376 . S
C2960 H2947 0.930 . S
C2960 C2959 1.376 . S
C2960 C2961 1.388 . S
C2961 H2948 0.930 . S
C2961 C2960 1.388 . S
C2961 C2962 1.390 . S
C2962 C2961 1.390 . S
C2962 C2963 1.394 . S
C2962 C2968 1.465 . S
C2963 C2958 1.399 . S
C2963 C2962 1.394 . S
C2963 C2964 1.516 . S
C2964 C2963 1.516 . S
C2964 C2965 1.502 . S
C2964 C2966 1.561 . S
C2964 C2967 1.526 . S
C2965 H2949 0.959 . S
C2965 H2950 0.959 . S
C2965 H2951 0.961 . S
C2965 C2964 1.502 . S
C2966 H2952 0.960 . S
C2966 H2953 0.961 . S
C2966 H2954 0.959 . S
C2966 C2964 1.561 . S
C2967 C2964 1.526 . S
C2967 C2968 1.396 . S
C2967 C2972 1.390 . S
C2968 C2962 1.465 . S
C2968 C2967 1.396 . S
C2968 C2969 1.399 . S
C2969 H2955 0.929 . S
C2969 C2968 1.399 . S
C2969 C2970 1.385 . S
C2970 H2956 0.931 . S
C2970 C2969 1.385 . S
C2970 C2971 1.389 . S
C2971 C2970 1.389 . S
C2971 C2972 1.387 . S
C2972 H2957 0.930 . S
C2972 C2967 1.390 . S
C2972 C2971 1.387 . S
H2973 C2985 0.930 . S
H2974 C2987 0.930 . S
H2975 C2988 0.930 . S
H2976 C2992 0.959 . S
H2977 C2992 0.959 . S
H2978 C2992 0.961 . S
H2979 C2993 0.960 . S
H2980 C2993 0.961 . S
H2981 C2993 0.959 . S
H2982 C2996 0.929 . S
H2983 C2997 0.931 . S
H2984 C2999 0.930 . S
C2985 H2973 0.930 . S
C2985 C2986 1.399 . S
C2985 C2990 1.399 . S
C2986 C2985 1.399 . S
C2986 C2987 1.376 . S
C2987 H2974 0.930 . S
C2987 C2986 1.376 . S
C2987 C2988 1.388 . S
C2988 H2975 0.930 . S
C2988 C2987 1.388 . S
C2988 C2989 1.390 . S
C2989 C2988 1.390 . S
C2989 C2990 1.394 . S
C2989 C2995 1.465 . S
C2990 C2985 1.399 . S
C2990 C2989 1.394 . S
C2990 C2991 1.516 . S
C2991 C2990 1.516 . S
C2991 C2992 1.502 . S
C2991 C2993 1.561 . S
C2991 C2994 1.526 . S
C2992 H2976 0.959 . S
C2992 H2977 0.959 . S
C2992 H2978 0.961 . S
C2992 C2991 1.502 . S
C2993 H2979 0.960 . S
C2993 H2980 0.961 . S
C2993 H2981 0.959 . S
C2993 C2991 1.561 . S
C2994 C2991 1.526 . S
C2994 C2995 1.396 . S
C2994 C2999 1.390 . S
C2995 C2989 1.465 . S
C2995 C2994 1.396 . S
C2995 C2996 1.399 . S
C2996 H2982 0.929 . S
C2996 C2995 1.399 . S
C2996 C2997 1.385 . S
C2997 H2983 0.931 . S
C2997 C2996 1.385 . S
C2997 C2998 1.389 . S
C2998 C2997 1.389 . S
C2998 C2999 1.387 . S
C2999 H2984 0.930 . S
C2999 C2994 1.390 . S
C2999 C2998 1.387 . S
H3000 C3012 0.930 . S
H3001 C3014 0.930 . S
H3002 C3015 0.930 . S
H3003 C3019 0.959 . S
H3004 C3019 0.959 . S
H3005 C3019 0.961 . S
H3006 C3020 0.960 . S
H3007 C3020 0.961 . S
H3008 C3020 0.959 . S
H3009 C3023 0.929 . S
H3010 C3024 0.931 . S
H3011 C3026 0.930 . S
C3012 H3000 0.930 . S
C3012 C3013 1.399 . S
C3012 C3017 1.399 . S
C3013 C3012 1.399 . S
C3013 C3014 1.376 . S
C3014 H3001 0.930 . S
C3014 C3013 1.376 . S
C3014 C3015 1.388 . S
C3015 H3002 0.930 . S
C3015 C3014 1.388 . S
C3015 C3016 1.390 . S
C3016 C3015 1.390 . S
C3016 C3017 1.394 . S
C3016 C3022 1.465 . S
C3017 C3012 1.399 . S
C3017 C3016 1.394 . S
C3017 C3018 1.516 . S
C3018 C3017 1.516 . S
C3018 C3019 1.502 . S
C3018 C3020 1.561 . S
C3018 C3021 1.526 . S
C3019 H3003 0.959 . S
C3019 H3004 0.959 . S
C3019 H3005 0.961 . S
C3019 C3018 1.502 . S
C3020 H3006 0.960 . S
C3020 H3007 0.961 . S
C3020 H3008 0.959 . S
C3020 C3018 1.561 . S
C3021 C3018 1.526 . S
C3021 C3022 1.396 . S
C3021 C3026 1.390 . S
C3022 C3016 1.465 . S
C3022 C3021 1.396 . S
C3022 C3023 1.399 . S
C3023 H3009 0.929 . S
C3023 C3022 1.399 . S
C3023 C3024 1.385 . S
C3024 H3010 0.931 . S
C3024 C3023 1.385 . S
C3024 C3025 1.389 . S
C3025 C3024 1.389 . S
C3025 C3026 1.387 . S
C3026 H3011 0.930 . S
C3026 C3021 1.390 . S
C3026 C3025 1.387 . S
H3027 C3039 0.930 . S
H3028 C3041 0.930 . S
H3029 C3042 0.930 . S
H3030 C3046 0.959 . S
H3031 C3046 0.959 . S
H3032 C3046 0.961 . S
H3033 C3047 0.960 . S
H3034 C3047 0.961 . S
H3035 C3047 0.959 . S
H3036 C3050 0.929 . S
H3037 C3051 0.931 . S
H3038 C3053 0.930 . S
C3039 H3027 0.930 . S
C3039 C3040 1.399 . S
C3039 C3044 1.399 . S
C3040 C3039 1.399 . S
C3040 C3041 1.376 . S
C3041 H3028 0.930 . S
C3041 C3040 1.376 . S
C3041 C3042 1.388 . S
C3042 H3029 0.930 . S
C3042 C3041 1.388 . S
C3042 C3043 1.390 . S
C3043 C3042 1.390 . S
C3043 C3044 1.394 . S
C3043 C3049 1.465 . S
C3044 C3039 1.399 . S
C3044 C3043 1.394 . S
C3044 C3045 1.516 . S
C3045 C3044 1.516 . S
C3045 C3046 1.502 . S
C3045 C3047 1.561 . S
C3045 C3048 1.526 . S
C3046 H3030 0.959 . S
C3046 H3031 0.959 . S
C3046 H3032 0.961 . S
C3046 C3045 1.502 . S
C3047 H3033 0.960 . S
C3047 H3034 0.961 . S
C3047 H3035 0.959 . S
C3047 C3045 1.561 . S
C3048 C3045 1.526 . S
C3048 C3049 1.396 . S
C3048 C3053 1.390 . S
C3049 C3043 1.465 . S
C3049 C3048 1.396 . S
C3049 C3050 1.399 . S
C3050 H3036 0.929 . S
C3050 C3049 1.399 . S
C3050 C3051 1.385 . S
C3051 H3037 0.931 . S
C3051 C3050 1.385 . S
C3051 C3052 1.389 . S
C3052 C3051 1.389 . S
C3052 C3053 1.387 . S
C3053 H3038 0.930 . S
C3053 C3048 1.390 . S
C3053 C3052 1.387 . S
H3054 C3066 0.930 . S
H3055 C3068 0.930 . S
H3056 C3069 0.930 . S
H3057 C3073 0.959 . S
H3058 C3073 0.959 . S
H3059 C3073 0.961 . S
H3060 C3074 0.960 . S
H3061 C3074 0.961 . S
H3062 C3074 0.959 . S
H3063 C3077 0.929 . S
H3064 C3078 0.931 . S
H3065 C3080 0.930 . S
C3066 H3054 0.930 . S
C3066 C3067 1.399 . S
C3066 C3071 1.399 . S
C3067 C3066 1.399 . S
C3067 C3068 1.376 . S
C3068 H3055 0.930 . S
C3068 C3067 1.376 . S
C3068 C3069 1.388 . S
C3069 H3056 0.930 . S
C3069 C3068 1.388 . S
C3069 C3070 1.390 . S
C3070 C3069 1.390 . S
C3070 C3071 1.394 . S
C3070 C3076 1.465 . S
C3071 C3066 1.399 . S
C3071 C3070 1.394 . S
C3071 C3072 1.516 . S
C3072 C3071 1.516 . S
C3072 C3073 1.502 . S
C3072 C3074 1.561 . S
C3072 C3075 1.526 . S
C3073 H3057 0.959 . S
C3073 H3058 0.959 . S
C3073 H3059 0.961 . S
C3073 C3072 1.502 . S
C3074 H3060 0.960 . S
C3074 H3061 0.961 . S
C3074 H3062 0.959 . S
C3074 C3072 1.561 . S
C3075 C3072 1.526 . S
C3075 C3076 1.396 . S
C3075 C3080 1.390 . S
C3076 C3070 1.465 . S
C3076 C3075 1.396 . S
C3076 C3077 1.399 . S
C3077 H3063 0.929 . S
C3077 C3076 1.399 . S
C3077 C3078 1.385 . S
C3078 H3064 0.931 . S
C3078 C3077 1.385 . S
C3078 C3079 1.389 . S
C3079 C3078 1.389 . S
C3079 C3080 1.387 . S
C3080 H3065 0.930 . S
C3080 C3075 1.390 . S
C3080 C3079 1.387 . S
H3081 C3093 0.930 . S
H3082 C3095 0.930 . S
H3083 C3096 0.930 . S
H3084 C3100 0.959 . S
H3085 C3100 0.959 . S
H3086 C3100 0.961 . S
H3087 C3101 0.960 . S
H3088 C3101 0.961 . S
H3089 C3101 0.959 . S
H3090 C3104 0.929 . S
H3091 C3105 0.931 . S
H3092 C3107 0.930 . S
C3093 H3081 0.930 . S
C3093 C3094 1.399 . S
C3093 C3098 1.399 . S
C3094 C3093 1.399 . S
C3094 C3095 1.376 . S
C3095 H3082 0.930 . S
C3095 C3094 1.376 . S
C3095 C3096 1.388 . S
C3096 H3083 0.930 . S
C3096 C3095 1.388 . S
C3096 C3097 1.390 . S
C3097 C3096 1.390 . S
C3097 C3098 1.394 . S
C3097 C3103 1.465 . S
C3098 C3093 1.399 . S
C3098 C3097 1.394 . S
C3098 C3099 1.516 . S
C3099 C3098 1.516 . S
C3099 C3100 1.502 . S
C3099 C3101 1.561 . S
C3099 C3102 1.526 . S
C3100 H3084 0.959 . S
C3100 H3085 0.959 . S
C3100 H3086 0.961 . S
C3100 C3099 1.502 . S
C3101 H3087 0.960 . S
C3101 H3088 0.961 . S
C3101 H3089 0.959 . S
C3101 C3099 1.561 . S
C3102 C3099 1.526 . S
C3102 C3103 1.396 . S
C3102 C3107 1.390 . S
C3103 C3097 1.465 . S
C3103 C3102 1.396 . S
C3103 C3104 1.399 . S
C3104 H3090 0.929 . S
C3104 C3103 1.399 . S
C3104 C3105 1.385 . S
C3105 H3091 0.931 . S
C3105 C3104 1.385 . S
C3105 C3106 1.389 . S
C3106 C3105 1.389 . S
C3106 C3107 1.387 . S
C3107 H3092 0.930 . S
C3107 C3102 1.390 . S
C3107 C3106 1.387 . S
H3108 C3120 0.930 . S
H3109 C3122 0.930 . S
H3110 C3123 0.930 . S
H3111 C3127 0.959 . S
H3112 C3127 0.959 . S
H3113 C3127 0.961 . S
H3114 C3128 0.960 . S
H3115 C3128 0.961 . S
H3116 C3128 0.959 . S
H3117 C3131 0.929 . S
H3118 C3132 0.931 . S
H3119 C3134 0.930 . S
C3120 H3108 0.930 . S
C3120 C3121 1.399 . S
C3120 C3125 1.399 . S
C3121 C3120 1.399 . S
C3121 C3122 1.376 . S
C3122 H3109 0.930 . S
C3122 C3121 1.376 . S
C3122 C3123 1.388 . S
C3123 H3110 0.930 . S
C3123 C3122 1.388 . S
C3123 C3124 1.390 . S
C3124 C3123 1.390 . S
C3124 C3125 1.394 . S
C3124 C3130 1.465 . S
C3125 C3120 1.399 . S
C3125 C3124 1.394 . S
C3125 C3126 1.516 . S
C3126 C3125 1.516 . S
C3126 C3127 1.502 . S
C3126 C3128 1.561 . S
C3126 C3129 1.526 . S
C3127 H3111 0.959 . S
C3127 H3112 0.959 . S
C3127 H3113 0.961 . S
C3127 C3126 1.502 . S
C3128 H3114 0.960 . S
C3128 H3115 0.961 . S
C3128 H3116 0.959 . S
C3128 C3126 1.561 . S
C3129 C3126 1.526 . S
C3129 C3130 1.396 . S
C3129 C3134 1.390 . S
C3130 C3124 1.465 . S
C3130 C3129 1.396 . S
C3130 C3131 1.399 . S
C3131 H3117 0.929 . S
C3131 C3130 1.399 . S
C3131 C3132 1.385 . S
C3132 H3118 0.931 . S
C3132 C3131 1.385 . S
C3132 C3133 1.389 . S
C3133 C3132 1.389 . S
C3133 C3134 1.387 . S
C3134 H3119 0.930 . S
C3134 C3129 1.390 . S
C3134 C3133 1.387 . S
H3135 C3147 0.930 . S
H3136 C3149 0.930 . S
H3137 C3150 0.930 . S
H3138 C3154 0.959 . S
H3139 C3154 0.959 . S
H3140 C3154 0.961 . S
H3141 C3155 0.960 . S
H3142 C3155 0.961 . S
H3143 C3155 0.959 . S
H3144 C3158 0.929 . S
H3145 C3159 0.931 . S
H3146 C3161 0.930 . S
C3147 H3135 0.930 . S
C3147 C3148 1.399 . S
C3147 C3152 1.399 . S
C3148 C3147 1.399 . S
C3148 C3149 1.376 . S
C3149 H3136 0.930 . S
C3149 C3148 1.376 . S
C3149 C3150 1.388 . S
C3150 H3137 0.930 . S
C3150 C3149 1.388 . S
C3150 C3151 1.390 . S
C3151 C3150 1.390 . S
C3151 C3152 1.394 . S
C3151 C3157 1.465 . S
C3152 C3147 1.399 . S
C3152 C3151 1.394 . S
C3152 C3153 1.516 . S
C3153 C3152 1.516 . S
C3153 C3154 1.502 . S
C3153 C3155 1.561 . S
C3153 C3156 1.526 . S
C3154 H3138 0.959 . S
C3154 H3139 0.959 . S
C3154 H3140 0.961 . S
C3154 C3153 1.502 . S
C3155 H3141 0.960 . S
C3155 H3142 0.961 . S
C3155 H3143 0.959 . S
C3155 C3153 1.561 . S
C3156 C3153 1.526 . S
C3156 C3157 1.396 . S
C3156 C3161 1.390 . S
C3157 C3151 1.465 . S
C3157 C3156 1.396 . S
C3157 C3158 1.399 . S
C3158 H3144 0.929 . S
C3158 C3157 1.399 . S
C3158 C3159 1.385 . S
C3159 H3145 0.931 . S
C3159 C3158 1.385 . S
C3159 C3160 1.389 . S
C3160 C3159 1.389 . S
C3160 C3161 1.387 . S
C3161 H3146 0.930 . S
C3161 C3156 1.390 . S
C3161 C3160 1.387 . S
H3162 C3174 0.930 . S
H3163 C3176 0.930 . S
H3164 C3177 0.930 . S
H3165 C3181 0.959 . S
H3166 C3181 0.959 . S
H3167 C3181 0.961 . S
H3168 C3182 0.960 . S
H3169 C3182 0.961 . S
H3170 C3182 0.959 . S
H3171 C3185 0.929 . S
H3172 C3186 0.931 . S
H3173 C3188 0.930 . S
C3174 H3162 0.930 . S
C3174 C3175 1.399 . S
C3174 C3179 1.399 . S
C3175 C3174 1.399 . S
C3175 C3176 1.376 . S
C3176 H3163 0.930 . S
C3176 C3175 1.376 . S
C3176 C3177 1.388 . S
C3177 H3164 0.930 . S
C3177 C3176 1.388 . S
C3177 C3178 1.390 . S
C3178 C3177 1.390 . S
C3178 C3179 1.394 . S
C3178 C3184 1.465 . S
C3179 C3174 1.399 . S
C3179 C3178 1.394 . S
C3179 C3180 1.516 . S
C3180 C3179 1.516 . S
C3180 C3181 1.502 . S
C3180 C3182 1.561 . S
C3180 C3183 1.526 . S
C3181 H3165 0.959 . S
C3181 H3166 0.959 . S
C3181 H3167 0.961 . S
C3181 C3180 1.502 . S
C3182 H3168 0.960 . S
C3182 H3169 0.961 . S
C3182 H3170 0.959 . S
C3182 C3180 1.561 . S
C3183 C3180 1.526 . S
C3183 C3184 1.396 . S
C3183 C3188 1.390 . S
C3184 C3178 1.465 . S
C3184 C3183 1.396 . S
C3184 C3185 1.399 . S
C3185 H3171 0.929 . S
C3185 C3184 1.399 . S
C3185 C3186 1.385 . S
C3186 H3172 0.931 . S
C3186 C3185 1.385 . S
C3186 C3187 1.389 . S
C3187 C3186 1.389 . S
C3187 C3188 1.387 . S
C3188 H3173 0.930 . S
C3188 C3183 1.390 . S
C3188 C3187 1.387 . S
H3189 C3201 0.930 . S
H3190 C3203 0.930 . S
H3191 C3204 0.930 . S
H3192 C3208 0.959 . S
H3193 C3208 0.959 . S
H3194 C3208 0.961 . S
H3195 C3209 0.960 . S
H3196 C3209 0.961 . S
H3197 C3209 0.959 . S
H3198 C3212 0.929 . S
H3199 C3213 0.931 . S
H3200 C3215 0.930 . S
C3201 H3189 0.930 . S
C3201 C3202 1.399 . S
C3201 C3206 1.399 . S
C3202 C3201 1.399 . S
C3202 C3203 1.376 . S
C3203 H3190 0.930 . S
C3203 C3202 1.376 . S
C3203 C3204 1.388 . S
C3204 H3191 0.930 . S
C3204 C3203 1.388 . S
C3204 C3205 1.390 . S
C3205 C3204 1.390 . S
C3205 C3206 1.394 . S
C3205 C3211 1.465 . S
C3206 C3201 1.399 . S
C3206 C3205 1.394 . S
C3206 C3207 1.516 . S
C3207 C3206 1.516 . S
C3207 C3208 1.502 . S
C3207 C3209 1.561 . S
C3207 C3210 1.526 . S
C3208 H3192 0.959 . S
C3208 H3193 0.959 . S
C3208 H3194 0.961 . S
C3208 C3207 1.502 . S
C3209 H3195 0.960 . S
C3209 H3196 0.961 . S
C3209 H3197 0.959 . S
C3209 C3207 1.561 . S
C3210 C3207 1.526 . S
C3210 C3211 1.396 . S
C3210 C3215 1.390 . S
C3211 C3205 1.465 . S
C3211 C3210 1.396 . S
C3211 C3212 1.399 . S
C3212 H3198 0.929 . S
C3212 C3211 1.399 . S
C3212 C3213 1.385 . S
C3213 H3199 0.931 . S
C3213 C3212 1.385 . S
C3213 C3214 1.389 . S
C3214 C3213 1.389 . S
C3214 C3215 1.387 . S
C3215 H3200 0.930 . S
C3215 C3210 1.390 . S
C3215 C3214 1.387 . S
C637 C82 1.370 . S
C649 C4 1.345 . S
C664 C17 1.370 . S
C676 C101 1.348 . S
C691 C36 1.366 . S
C703 C62 1.348 . S
C718 C69 1.361 . S
C730 C43 1.353 . S
C745 C446 1.345 . S
C757 C114 1.369 . S
C772 C459 1.352 . S
C784 C127 1.366 . S
C799 C134 1.351 . S
C811 C426 1.367 . S
C826 C147 1.346 . S
C838 C433 1.371 . S
C853 C504 1.369 . S
C865 C160 1.346 . S
C880 C517 1.364 . S
C892 C179 1.351 . S
C907 C472 1.368 . S
C919 C192 1.347 . S
C934 C485 1.349 . S
C946 C199 1.368 . S
C961 C212 1.368 . S
C973 C543 1.350 . S
C988 C231 1.374 . S
C1000 C530 1.342 . S
C1015 C244 1.348 . S
C1027 C303 1.369 . S
C1042 C589 1.369 . S
C1054 C257 1.349 . S
C1069 C602 1.367 . S
C1081 C270 1.348 . S
C1096 C563 1.358 . S
C1108 C283 1.357 . S
C1123 C576 1.367 . S
C1135 C296 1.347 . S
C1150 C400 1.349 . S
C1162 C322 1.368 . S
C1177 C407 1.371 . S
C1189 C335 1.347 . S
C1204 C342 1.348 . S
C1216 C374 1.369 . S
C1231 C355 1.366 . S
C1243 C381 1.352 . S
C1258 C615 1.364 . S
C1270 C556 1.350 . S
C1285 C211 1.197 . S
C1297 C5 1.217 . S
C1312 C18 1.216 1_655 S
C1324 C614 1.198 . S
C1339 C29 1.199 . S
C1351 C278 1.166 . S
C1366 C601 1.231 . S
C1378 C44 1.230 . S
C1393 C55 1.199 . S
C1405 C538 1.169 . S
C1420 C551 1.168 . S
C1432 C70 1.199 . S
C1447 C83 1.204 . S
C1459 C562 1.174 . S
C1474 C265 1.166 . S
C1486 C94 1.199 1_655 S
C1501 C107 1.219 . S
C1513 C3 1.214 . S
C1528 C16 1.164 . S
C1540 C120 1.199 . S
C1555 C135 1.222 . S
C1567 C31 1.220 . S
C1582 C148 1.214 1_554 S
C1594 C42 1.193 . S
C1609 C161 1.205 . S
C1621 C57 1.176 . S
C1636 C68 1.188 . S
C1648 C172 1.207 . S
C1663 C185 1.208 . S
C1675 C81 1.191 . S
C1690 C200 1.198 1_556 S
C1702 C96 1.167 . S
C1717 C213 1.204 . S
C1729 C109 1.174 . S
C1744 C224 1.221 . S
C1756 C471 1.217 . S
C1771 C484 1.164 . S
C1783 C237 1.199 . S
C1798 C499 1.165 . S
C1810 C250 1.198 . S
C1825 C263 1.208 1_565 S
C1837 C198 1.182 . S
C1852 C276 1.229 . S
C1864 C133 1.231 . S
C1879 C458 1.165 . S
C1891 C289 1.198 . S
C1906 C432 1.214 . S
C1918 C304 1.224 . S
C1933 C315 1.226 . S
C1945 C525 1.221 . S
C1960 C328 1.204 . S
C1972 C302 1.174 . S
C1987 C343 1.198 . S
C1999 C588 1.165 . S
C2014 C356 1.217 1_455 S
C2026 C291 1.210 . S
C2041 C367 1.229 . S
C2053 C226 1.227 . S
C2068 C239 1.229 . S
C2080 C382 1.229 1_455 S
C2095 C252 1.198 . S
C2107 C393 1.211 . S
C2122 C575 1.229 . S
C2134 C408 1.229 . S
C2149 C317 1.231 . S
C2161 C419 1.229 . S
C2176 C330 1.222 . S
C2188 C434 1.227 1_554 S
C2203 C447 1.218 . S
C2215 C341 1.212 . S
C2230 C354 1.186 . S
C2242 C460 1.206 . S
C2257 C473 1.203 . S
C2269 C369 1.182 . S
C2284 C380 1.210 . S
C2296 C486 1.217 1_556 S
C2311 C497 1.224 . S
C2323 C395 1.222 . S
C2338 C406 1.213 . S
C2350 C510 1.218 . S
C2365 C523 1.227 . S
C2377 C421 1.228 . S
C2392 C536 1.202 . S
C2404 C159 1.170 . S
C2419 C174 1.199 . S
C2431 C549 1.217 1_545 S
C2446 C564 1.205 . S
C2458 C187 1.174 . S
C2473 C577 1.213 . S
C2485 C512 1.190 . S
C2500 C445 1.231 . S
C2512 C590 1.229 . S
C2527 C603 1.220 1_565 S
C2539 C146 1.216 . S
C2554 C122 1.173 . S
C2566 C616 1.201 1_545 S
C2581 C121 0.996 . S
C2593 C10 1.005 . S
C2608 C23 1.027 . S
C2620 C140 1.019 . S
C2635 C153 0.994 . S
C2647 C30 0.998 . S
C2662 C108 1.012 . S
C2674 C49 1.001 . S
C2689 C56 1.029 . S
C2701 C205 1.027 . S
C2716 C75 1.029 . S
C2728 C166 1.027 . S
C2743 C173 1.002 . S
C2755 C88 1.015 . S
C2770 C186 0.995 . S
C2782 C95 1.003 . S
C2797 C218 0.998 . S
C2809 C238 1.009 . S
C2824 C225 1.009 . S
C2836 C608 0.999 . S
C2851 C251 1.000 . S
C2863 C621 1.012 . S
C2878 C595 0.999 . S
C2890 C264 1.010 . S
C2905 C582 0.993 . S
C2917 C277 0.999 . S
C2932 C537 1.024 . S
C2944 C290 1.013 . S
C2959 C309 1.008 . S
C2971 C569 1.020 . S
C2986 C439 1.029 . S
C2998 C316 1.021 . S
C3013 C452 0.994 . S
C3025 C329 0.996 . S
C3040 C348 0.994 . S
C3052 C465 1.002 . S
C3067 C420 1.029 . S
C3079 C361 1.028 . S
C3094 C511 1.025 . S
C3106 C368 1.029 . S
C3121 C478 0.997 . S
C3133 C387 0.994 . S
C3148 C394 0.995 . S
C3160 C491 1.003 . S
C3175 C498 0.996 . S
C3187 C413 0.994 . S
C3202 C550 1.029 . S
C3214 C524 1.028 . S
