# Generated by pormake.
# Topology una, (4)-cn, num edge types: 1
# Building blocks:
#     Node 0, Type 0, BuildingBlock: GALJAG_clean_sbu_0, # of connection points: 4
#     Node 1, Type 0, BuildingBlock: GALJAG_clean_sbu_0, # of connection points: 4
#     Node 2, Type 0, BuildingBlock: GALJAG_clean_sbu_0, # of connection points: 4
#     Node 3, Type 0, BuildingBlock: GALJAG_clean_sbu_0, # of connection points: 4
#     Node 4, Type 0, BuildingBlock: GALJAG_clean_sbu_0, # of connection points: 4
#     Node 5, Type 0, BuildingBlock: GALJAG_clean_sbu_0, # of connection points: 4
#     Node 6, Type 0, BuildingBlock: GALJAG_clean_sbu_0, # of connection points: 4
#     Node 7, Type 0, BuildingBlock: GALJAG_clean_sbu_0, # of connection points: 4
#     Node 8, Type 0, BuildingBlock: GALJAG_clean_sbu_0, # of connection points: 4
#     Node 9, Type 0, BuildingBlock: GALJAG_clean_sbu_0, # of connection points: 4
#     Node 10, Type 0, BuildingBlock: GALJAG_clean_sbu_0, # of connection points: 4
#     Node 11, Type 0, BuildingBlock: GALJAG_clean_sbu_0, # of connection points: 4
#     Edge 12, Type (0, 0), BuildingBlock: AJUNOK_clean_linker_0, # of connection points: 2
#     Edge 13, Type (0, 0), BuildingBlock: AJUNOK_clean_linker_0, # of connection points: 2
#     Edge 14, Type (0, 0), BuildingBlock: AJUNOK_clean_linker_0, # of connection points: 2
#     Edge 15, Type (0, 0), BuildingBlock: AJUNOK_clean_linker_0, # of connection points: 2
#     Edge 16, Type (0, 0), BuildingBlock: AJUNOK_clean_linker_0, # of connection points: 2
#     Edge 17, Type (0, 0), BuildingBlock: AJUNOK_clean_linker_0, # of connection points: 2
#     Edge 18, Type (0, 0), BuildingBlock: AJUNOK_clean_linker_0, # of connection points: 2
#     Edge 19, Type (0, 0), BuildingBlock: AJUNOK_clean_linker_0, # of connection points: 2
#     Edge 20, Type (0, 0), BuildingBlock: AJUNOK_clean_linker_0, # of connection points: 2
#     Edge 21, Type (0, 0), BuildingBlock: AJUNOK_clean_linker_0, # of connection points: 2
#     Edge 22, Type (0, 0), BuildingBlock: AJUNOK_clean_linker_0, # of connection points: 2
#     Edge 23, Type (0, 0), BuildingBlock: AJUNOK_clean_linker_0, # of connection points: 2
#     Edge 24, Type (0, 0), BuildingBlock: AJUNOK_clean_linker_0, # of connection points: 2
#     Edge 25, Type (0, 0), BuildingBlock: AJUNOK_clean_linker_0, # of connection points: 2
#     Edge 26, Type (0, 0), BuildingBlock: AJUNOK_clean_linker_0, # of connection points: 2
#     Edge 27, Type (0, 0), BuildingBlock: AJUNOK_clean_linker_0, # of connection points: 2
#     Edge 28, Type (0, 0), BuildingBlock: AJUNOK_clean_linker_0, # of connection points: 2
#     Edge 29, Type (0, 0), BuildingBlock: AJUNOK_clean_linker_0, # of connection points: 2
#     Edge 30, Type (0, 0), BuildingBlock: AJUNOK_clean_linker_0, # of connection points: 2
#     Edge 31, Type (0, 0), BuildingBlock: AJUNOK_clean_linker_0, # of connection points: 2
#     Edge 32, Type (0, 0), BuildingBlock: AJUNOK_clean_linker_0, # of connection points: 2
#     Edge 33, Type (0, 0), BuildingBlock: AJUNOK_clean_linker_0, # of connection points: 2
#     Edge 34, Type (0, 0), BuildingBlock: AJUNOK_clean_linker_0, # of connection points: 2
#     Edge 35, Type (0, 0), BuildingBlock: AJUNOK_clean_linker_0, # of connection points: 2
# Relax obj value: 0.044
# Max RMSD: 0.038
# Mean RMSD: 0.038
data_MOF--net-una--node1-GALJAG_clean_sbu_0--edge1-AJUNOK_clean_linker_0
_symmetry_space_group_name_H-M    P1
_symmetry_Int_Tables_number       1
_symmetry_cell_setting            triclinic
loop_
_symmetry_equiv_pos_as_xyz
'x, y, z'
_cell_length_a     44.628938
_cell_length_b     44.662187
_cell_length_c     14.890979
_cell_angle_alpha  90.101812
_cell_angle_beta   89.897604
_cell_angle_gamma 120.0403
loop_
_atom_site_label
_atom_site_type_symbol
_atom_site_fract_x
_atom_site_fract_y
_atom_site_fract_z
_atom_type_partial_charge
In0 In 0.13903 0.4505 0.0431 0.0
O1 O 0.08214 0.40589 0.04321 0.0
O2 O 0.10403 0.43176 0.92061 0.0
C3 C 0.17323 0.43707 0.17207 0.0
C4 C 0.13345 0.50579 0.09368 0.0
C5 C 0.18554 0.45376 0.92495 0.0
O6 O 0.14136 0.41649 0.15741 0.0
O7 O 0.1863 0.46465 0.12728 0.0
O8 O 0.18419 0.48032 0.94819 0.0
O9 O 0.16226 0.42558 0.95809 0.0
C10 C 0.07779 0.4084 0.96013 0.0
O11 O 0.14449 0.50333 0.01765 0.0
O12 O 0.12498 0.48019 0.14457 0.0
In13 In 0.69165 0.13599 0.21076 0.0
O14 O 0.67592 0.07828 0.21547 0.0
O15 O 0.67583 0.10052 0.08956 0.0
C16 C 0.73367 0.16891 0.35331 0.0
C17 C 0.63019 0.13168 0.24243 0.0
C18 C 0.73486 0.18012 0.08815 0.0
O19 O 0.7346 0.14446 0.31293 0.0
O20 O 0.70981 0.17397 0.32699 0.0
O21 O 0.70599 0.17759 0.10554 0.0
O22 O 0.74132 0.15966 0.13102 0.0
C23 C 0.6704 0.07383 0.13168 0.0
O24 O 0.65358 0.15517 0.19503 0.0
O25 O 0.63779 0.11021 0.2752 0.0
In26 In 0.5626 0.68838 0.38784 0.0
O27 O 0.60346 0.67134 0.40508 0.0
O28 O 0.5846 0.67139 0.27435 0.0
C29 C 0.56882 0.73317 0.51959 0.0
C30 C 0.50461 0.62852 0.42736 0.0
C31 C 0.56508 0.73162 0.2611 0.0
O32 O 0.59437 0.72997 0.49585 0.0
O33 O 0.54084 0.71258 0.48103 0.0
O34 O 0.53761 0.70368 0.27895 0.0
O35 O 0.59134 0.73711 0.30594 0.0
C36 C 0.60421 0.66538 0.3221 0.0
O37 O 0.50869 0.64432 0.35411 0.0
O38 O 0.53023 0.64254 0.48002 0.0
In39 In 0.8803 0.56491 0.56459 0.0
O40 O 0.87823 0.51477 0.52461 0.0
O41 O 0.8914 0.5311 0.65965 0.0
C42 C 0.83607 0.56214 0.44095 0.0
C43 C 0.94329 0.60966 0.49329 0.0
C44 C 0.84247 0.57388 0.69351 0.0
O45 O 0.83716 0.53565 0.46583 0.0
O46 O 0.85853 0.59038 0.47599 0.0
O47 O 0.87477 0.59449 0.68635 0.0
O48 O 0.83046 0.54864 0.64024 0.0
C49 C 0.88648 0.50882 0.60048 0.0
O50 O 0.93746 0.60871 0.57683 0.0
O51 O 0.91739 0.58905 0.44762 0.0
In52 In 0.31914 0.87808 0.73379 0.0
O53 O 0.36319 0.86816 0.70144 0.0
O54 O 0.35664 0.87803 0.83791 0.0
C55 C 0.28939 0.83884 0.58887 0.0
C56 C 0.34648 0.94522 0.68138 0.0
C57 C 0.26845 0.84622 0.86018 0.0
O58 O 0.30551 0.83141 0.64604 0.0
O59 O 0.28984 0.86694 0.60311 0.0
O60 O 0.29725 0.87264 0.87821 0.0
O61 O 0.26497 0.83745 0.77911 0.0
C62 C 0.37412 0.87203 0.78121 0.0
O63 O 0.31437 0.92586 0.6935 0.0
O64 O 0.36408 0.93132 0.70056 0.0
In65 In 0.44628 0.31458 0.88182 0.0
O66 O 0.39747 0.3196 0.86488 0.0
O67 O 0.44006 0.34741 0.77662 0.0
C68 C 0.43001 0.26475 0.00728 0.0
C69 C 0.50545 0.37032 0.93852 0.0
C70 C 0.4434 0.27525 0.74432 0.0
O71 O 0.42018 0.28677 0.01618 0.0
O72 O 0.44846 0.26914 0.93952 0.0
O73 O 0.47158 0.30097 0.7701 0.0
O74 O 0.41669 0.27064 0.78571 0.0
C75 C 0.40965 0.33959 0.79773 0.0
O76 O 0.50487 0.34789 0.88608 0.0
O77 O 0.47604 0.36451 0.96438 0.0
In78 In 0.56178 0.87372 0.89345 0.0
O79 O 0.50826 0.86323 0.93357 0.0
O80 O 0.52817 0.88758 0.80744 0.0
C81 C 0.56442 0.83144 0.01551 0.0
C82 C 0.60304 0.93815 0.96062 0.0
C83 C 0.56866 0.83754 0.75623 0.0
O84 O 0.53663 0.83106 0.99679 0.0
O85 O 0.59087 0.85373 0.9739 0.0
O86 O 0.59441 0.86487 0.78612 0.0
O87 O 0.54019 0.83056 0.79123 0.0
C88 C 0.50332 0.87568 0.86283 0.0
O89 O 0.60245 0.93172 0.87748 0.0
O90 O 0.58341 0.91227 0.00778 0.0
In91 In 0.69177 0.55567 0.069 0.0
O92 O 0.6577 0.49691 0.06551 0.0
O93 O 0.63923 0.52602 -0.00285 0.0
C94 C 0.73117 0.55768 0.20512 0.0
C95 C 0.66975 0.59566 0.15008 0.0
C96 C 0.74077 0.57062 0.94028 0.0
O97 O 0.7041 0.53016 0.18203 0.0
O98 O 0.73729 0.5845 0.16171 0.0
O99 O 0.71943 0.58135 0.93369 0.0
O100 O 0.73629 0.55206 0.00761 0.0
C101 C 0.6338 0.49654 0.01998 0.0
O102 O 0.6831 0.60255 0.07229 0.0
O103 O 0.66724 0.56881 0.18476 0.0
In104 In 0.13921 0.69349 0.23566 0.0
O105 O 0.08191 0.67995 0.23244 0.0
O106 O 0.10436 0.68024 0.35793 0.0
C107 C 0.17364 0.7405 0.10529 0.0
C108 C 0.13323 0.63181 0.19223 0.0
C109 C 0.18623 0.73666 0.35276 0.0
O110 O 0.14192 0.7298 0.12068 0.0
O111 O 0.18636 0.72564 0.14989 0.0
O112 O 0.18427 0.70842 0.33024 0.0
O113 O 0.16333 0.74203 0.31929 0.0
C114 C 0.07776 0.6754 0.31649 0.0
O115 O 0.14298 0.6457 0.26829 0.0
O116 O 0.12647 0.64907 0.13711 0.0
In117 In 0.44647 0.13275 0.3812 0.0
O118 O 0.5045 0.15469 0.37348 0.0
O119 O 0.47276 0.10941 0.29669 0.0
C120 C 0.44342 0.17171 0.51171 0.0
C121 C 0.41266 0.07311 0.47498 0.0
C122 C 0.43186 0.1665 0.25348 0.0
O123 O 0.47156 0.17343 0.48879 0.0
O124 O 0.41675 0.14908 0.47128 0.0
O125 O 0.41607 0.13367 0.25519 0.0
O126 O 0.45523 0.18103 0.31139 0.0
C127 C 0.50293 0.13168 0.32137 0.0
O128 O 0.39928 0.07824 0.40572 0.0
O129 O 0.4424 0.09762 0.49429 0.0
In130 In 0.31721 0.44246 0.54472 0.0
O131 O 0.36324 0.49375 0.58767 0.0
O132 O 0.35608 0.48298 0.44771 0.0
C133 C 0.28818 0.45308 0.68952 0.0
C134 C 0.34085 0.39916 0.59401 0.0
C135 C 0.26708 0.42492 0.41729 0.0
O136 O 0.30409 0.47628 0.6312 0.0
O137 O 0.28858 0.42535 0.67653 0.0
O138 O 0.29572 0.42689 0.3995 0.0
O139 O 0.26354 0.43009 0.49835 0.0
C140 C 0.37445 0.50362 0.50905 0.0
O141 O 0.30922 0.39012 0.59678 0.0
O142 O 0.35961 0.42841 0.55943 0.0
In143 In 0.87992 0.31927 0.71444 0.0
O144 O 0.87446 0.36584 0.74934 0.0
O145 O 0.89687 0.36608 0.62292 0.0
C146 C 0.83579 0.2785 0.84003 0.0
C147 C 0.9434 0.3391 0.78365 0.0
C148 C 0.84097 0.27441 0.58281 0.0
O149 O 0.83755 0.30649 0.81632 0.0
O150 O 0.8571 0.27181 0.80211 0.0
O151 O 0.86851 0.27587 0.61048 0.0
O152 O 0.83527 0.29695 0.61662 0.0
C153 C 0.88731 0.38164 0.67671 0.0
O154 O 0.93732 0.33376 0.70027 0.0
O155 O 0.91756 0.33364 0.83006 0.0
C156 C 0.18469 0.41601 0.31719 0.0
C157 C 0.19513 0.42898 0.23003 0.0
C158 C 0.20768 0.41301 0.37606 0.0
C159 C 0.24153 0.42203 0.34901 0.0
H160 H 0.15936 0.4099 0.34152 0.0
H161 H 0.19924 0.40465 0.44433 0.0
S162 S 0.2794 0.45308 0.12302 0.0
N163 N 0.24024 0.44815 0.11662 0.0
N164 N 0.28296 0.44163 0.22612 0.0
C165 C 0.25129 0.4328 0.2599 0.0
C166 C 0.22821 0.43655 0.20077 0.0
C167 C 0.7845 0.24745 0.50201 0.0
C168 C 0.81496 0.24686 0.52295 0.0
C169 C 0.75815 0.22143 0.45037 0.0
C170 C 0.76085 0.19344 0.41643 0.0
H171 H 0.78075 0.26827 0.52593 0.0
H172 H 0.7356 0.22371 0.43581 0.0
S173 S 0.83488 0.17891 0.45284 0.0
N174 N 0.846 0.21531 0.50711 0.0
N175 N 0.79648 0.16644 0.40846 0.0
C176 C 0.79099 0.19217 0.43723 0.0
C177 C 0.81801 0.21884 0.49061 0.0
C178 C 0.53987 0.75961 0.60498 0.0
C179 C 0.57077 0.76027 0.58167 0.0
C180 C 0.53991 0.78529 0.65885 0.0
C181 C 0.57086 0.81307 0.69221 0.0
H182 H 0.51513 0.73897 0.58134 0.0
H183 H 0.51519 0.78306 0.67505 0.0
S184 S 0.65916 0.82747 0.65072 0.0
N185 N 0.63349 0.79144 0.5955 0.0
N186 N 0.63356 0.83986 0.69778 0.0
C187 C 0.60214 0.8144 0.66919 0.0
C188 C 0.6021 0.78796 0.61398 0.0
C189 C 0.7864 0.57161 0.72471 0.0
C190 C 0.81927 0.57883 0.75534 0.0
C191 C 0.76178 0.57171 0.78361 0.0
C192 C 0.76887 0.57803 0.87563 0.0
H193 H 0.77936 0.56499 0.65488 0.0
H194 H 0.73639 0.56473 0.75798 0.0
S195 S 0.85137 0.59984 0.98897 0.0
N196 N 0.85818 0.59454 0.8825 0.0
N197 N 0.81152 0.59323 0.99413 0.0
C198 C 0.802 0.58639 0.9065 0.0
C199 C 0.82736 0.58722 0.8461 0.0
C200 C 0.20869 0.79934 0.90165 0.0
C201 C 0.24272 0.8237 0.92846 0.0
C202 C 0.18549 0.7734 0.96049 0.0
C203 C 0.19588 0.77043 0.0473 0.0
H204 H 0.20028 0.79959 0.8336 0.0
H205 H 0.15999 0.75455 0.93637 0.0
S206 S 0.28067 0.82926 0.15349 0.0
N207 N 0.28434 0.84461 0.05074 0.0
N208 N 0.24122 0.79547 0.1601 0.0
C209 C 0.22917 0.79548 0.0763 0.0
C210 C 0.25247 0.82226 0.01725 0.0
C211 C 0.42782 0.21916 0.22274 0.0
C212 C 0.42413 0.18762 0.19151 0.0
C213 C 0.42666 0.24306 0.16372 0.0
C214 C 0.42262 0.23655 0.07114 0.0
H215 H 0.43293 0.226 0.29315 0.0
H216 H 0.43134 0.26768 0.18992 0.0
S217 S 0.40869 0.15671 0.95624 0.0
N218 N 0.4132 0.15 0.06322 0.0
N219 N 0.41212 0.19527 0.9515 0.0
C220 C 0.41704 0.20435 0.03969 0.0
C221 C 0.41746 0.17972 0.10011 0.0
C222 C 0.13301 0.56002 0.05487 0.0
C223 C 0.13147 0.53671 0.12075 0.0
C224 C 0.13258 0.59023 0.07841 0.0
C225 C 0.13125 0.59861 0.16883 0.0
H226 H 0.13468 0.55498 0.98439 0.0
H227 H 0.13418 0.60756 0.02541 0.0
S228 S 0.12577 0.54576 0.367 0.0
N229 N 0.12738 0.52355 0.28021 0.0
N230 N 0.12729 0.58063 0.32457 0.0
C231 C 0.12924 0.57532 0.23536 0.0
C232 C 0.12914 0.54429 0.2113 0.0
C233 C 0.59621 0.16155 0.26289 0.0
C234 C 0.59703 0.1305 0.25998 0.0
C235 C 0.56547 0.16159 0.28177 0.0
C236 C 0.53424 0.13051 0.29544 0.0
H237 H 0.61969 0.18612 0.25267 0.0
H238 H 0.56615 0.18615 0.28568 0.0
S239 S 0.52224 0.04217 0.29183 0.0
N240 N 0.56392 0.06782 0.27148 0.0
N241 N 0.50574 0.06783 0.30355 0.0
C242 C 0.53445 0.0992 0.29044 0.0
C243 C 0.566 0.09922 0.2737 0.0
C244 C 0.4164 0.5479 0.40174 0.0
C245 C 0.40742 0.53593 0.49049 0.0
C246 C 0.44788 0.57785 0.38206 0.0
C247 C 0.47183 0.5967 0.45019 0.0
H248 H 0.39897 0.53409 0.34687 0.0
H249 H 0.45358 0.58611 0.31272 0.0
S250 S 0.46072 0.57659 0.69378 0.0
N251 N 0.42497 0.54563 0.64746 0.0
N252 N 0.48425 0.60156 0.61016 0.0
C253 C 0.46323 0.58504 0.53922 0.0
C254 C 0.43099 0.55479 0.55944 0.0
C255 C 0.88602 0.46539 0.7071 0.0
C256 C 0.88902 0.47759 0.61873 0.0
C257 C 0.88597 0.43456 0.72521 0.0
C258 C 0.88955 0.41511 0.65582 0.0
H259 H 0.88275 0.47925 0.76252 0.0
H260 H 0.88284 0.42579 0.79417 0.0
S261 S 0.90042 0.43708 0.41332 0.0
N262 N 0.89698 0.46858 0.46132 0.0
N263 N 0.89753 0.41103 0.4956 0.0
C264 C 0.89369 0.42762 0.56746 0.0
C265 C 0.89322 0.45874 0.54886 0.0
C266 C 0.43004 0.87635 0.73609 0.0
C267 C 0.40638 0.87206 0.80442 0.0
C268 C 0.46155 0.87806 0.75585 0.0
C269 C 0.47037 0.87497 0.84454 0.0
H270 H 0.42444 0.87891 0.66668 0.0
H271 H 0.47892 0.88143 0.70095 0.0
S272 S 0.41734 0.86309 0.04799 0.0
N273 N 0.39397 0.86484 0.96449 0.0
N274 N 0.4529 0.86735 0.00155 0.0
C275 C 0.44685 0.8704 0.91355 0.0
C276 C 0.41495 0.86914 0.89353 0.0
C277 C 0.5388 0.43348 0.97439 0.0
C278 C 0.53807 0.40187 0.96288 0.0
C279 C 0.57005 0.46422 0.99084 0.0
C280 C 0.60143 0.46417 -0.00122 0.0
H281 H 0.5152 0.43463 0.96848 0.0
H282 H 0.56954 0.48809 -0.0013 0.0
S283 S 0.61317 0.38794 0.97678 0.0
N284 N 0.57132 0.37232 0.96085 0.0
N285 N 0.62976 0.42977 0.99516 0.0
C286 C 0.60091 0.43261 0.98902 0.0
C287 C 0.56929 0.40154 0.97012 0.0
C288 C 0.24075 0.42516 0.80102 0.0
C289 C 0.26552 0.4555 0.75769 0.0
C290 C 0.2151 0.42505 0.85495 0.0
C291 C 0.21337 0.4553 0.86826 0.0
H292 H 0.24028 0.40092 0.79073 0.0
H293 H 0.19624 0.40084 0.88555 0.0
S294 S 0.27444 0.5424 0.77761 0.0
N295 N 0.2884 0.51719 0.73666 0.0
N296 N 0.24021 0.51708 0.83936 0.0
C297 C 0.23893 0.48623 0.82875 0.0
C298 C 0.26503 0.4863 0.7732 0.0
C299 C 0.78876 0.20309 -0.00187 0.0
C300 C 0.75979 0.2055 0.02433 0.0
C301 C 0.81332 0.22705 0.939 0.0
C302 C 0.80999 0.25451 0.90463 0.0
H303 H 0.7925 0.18241 0.02311 0.0
H304 H 0.83511 0.224 0.92028 0.0
S305 S 0.73894 0.27256 0.95288 0.0
N306 N 0.72906 0.23752 0.01179 0.0
N307 N 0.77554 0.28288 0.90079 0.0
C308 C 0.78126 0.25742 0.93061 0.0
C309 C 0.75602 0.23279 0.99035 0.0
C310 C 0.53461 0.75335 0.16491 0.0
C311 C 0.56588 0.75689 0.19651 0.0
C312 C 0.53443 0.77789 0.10721 0.0
C313 C 0.56552 0.80664 0.07839 0.0
H314 H 0.51001 0.7317 0.18578 0.0
H315 H 0.50971 0.77411 0.08461 0.0
S316 S 0.65442 0.82753 0.14066 0.0
N317 N 0.62879 0.79119 0.19435 0.0
N318 N 0.62846 0.83724 0.08504 0.0
C319 C 0.59702 0.81038 0.10882 0.0
C320 C 0.59719 0.7855 0.16814 0.0
C321 C 0.81108 0.59067 0.34903 0.0
C322 C 0.80894 0.56008 0.38097 0.0
C323 C 0.78522 0.58963 0.29418 0.0
C324 C 0.75617 0.55797 0.26991 0.0
H325 H 0.833 0.61567 0.36596 0.0
H326 H 0.78828 0.61386 0.26988 0.0
S327 S 0.73771 0.47047 0.33849 0.0
N328 N 0.77512 0.4972 0.38622 0.0
N329 N 0.72634 0.49524 0.28333 0.0
C330 C 0.75338 0.52716 0.30262 0.0
C331 C 0.77987 0.52822 0.35796 0.0
C332 C 0.21691 0.79513 0.42151 0.0
C333 C 0.21423 0.76268 0.40941 0.0
C334 C 0.24267 0.82036 0.47576 0.0
C335 C 0.26663 0.814 0.52053 0.0
H336 H 0.19869 0.8011 0.38973 0.0
H337 H 0.24295 0.84455 0.48507 0.0
S338 S 0.27283 0.73436 0.50447 0.0
N339 N 0.23925 0.72633 0.44127 0.0
N340 N 0.28769 0.77382 0.54435 0.0
C341 C 0.2652 0.78219 0.50619 0.0
C342 C 0.23897 0.75647 0.45044 0.0
C343 C 0.47364 0.25182 0.65323 0.0
C344 C 0.44245 0.24958 0.68076 0.0
C345 C 0.47363 0.22597 0.60044 0.0
C346 C 0.44243 0.19706 0.57286 0.0
H347 H 0.49833 0.2734 0.67381 0.0
H348 H 0.49831 0.22889 0.58052 0.0
S349 S 0.35368 0.1792 0.62594 0.0
N350 N 0.37949 0.21637 0.67602 0.0
N351 N 0.37947 0.16771 0.57624 0.0
C352 C 0.41101 0.19458 0.59934 0.0
C353 C 0.41102 0.2209 0.65332 0.0
C354 C 0.01332 0.36966 0.96258 0.0
C355 C 0.04417 0.38745 0.91308 0.0
C356 C 0.98099 0.35304 0.9196 0.0
C357 C 0.97816 0.35314 0.82526 0.0
H358 H 0.01401 0.36964 0.03529 0.0
H359 H 0.95795 0.3407 0.96104 0.0
S360 S 0.05132 0.3932 0.66423 0.0
N361 N 0.06999 0.40216 0.76393 0.0
N362 N 0.00926 0.37063 0.68355 0.0
C363 C 0.00886 0.36935 0.77472 0.0
C364 C 0.04183 0.38659 0.81852 0.0
C365 C 0.62561 0.97658 0.09559 0.0
C366 C 0.62342 0.97315 0.00127 0.0
C367 C 0.64195 0.00917 0.13722 0.0
C368 C 0.65651 0.03973 0.08631 0.0
H369 H 0.61403 0.95385 0.13804 0.0
H370 H 0.64219 0.01035 0.2099 0.0
S371 S 0.65986 0.04519 0.83706 0.0
N372 N 0.63893 1.00328 0.85821 0.0
N373 N 0.6694 0.06452 0.936 0.0
C374 C 0.65552 0.03673 0.99184 0.0
C375 C 0.63909 1.00348 0.94947 0.0
C376 C 0.64644 0.63638 0.14681 0.0
C377 C 0.65658 0.61625 0.19654 0.0
C378 C 0.63049 0.65299 0.18873 0.0
C379 C 0.62463 0.65069 0.28224 0.0
H380 H 0.64962 0.63826 0.07453 0.0
H381 H 0.62208 0.66727 0.14708 0.0
S382 S 0.64937 0.60378 0.4439 0.0
N383 N 0.6616 0.59665 0.34524 0.0
N384 N 0.63225 0.62842 0.42384 0.0
C385 C 0.63618 0.63203 0.3333 0.0
C386 C 0.65194 0.61465 0.29047 0.0
C387 C 0.01309 0.64798 0.31334 0.0
C388 C 0.044 0.6628 0.36293 0.0
C389 C 0.98074 0.63211 0.35643 0.0
C390 C 0.97792 0.63067 0.45091 0.0
H391 H 0.01379 0.64743 0.24066 0.0
H392 H 0.95771 0.62003 0.31503 0.0
S393 S 0.05112 0.6688 0.61178 0.0
N394 N 0.0698 0.67731 0.51201 0.0
N395 N 0.00904 0.6477 0.59252 0.0
C396 C 0.00863 0.64695 0.50129 0.0
C397 C 0.04162 0.66291 0.45744 0.0
C398 C 0.35954 0.01808 0.5245 0.0
C399 C 0.39542 0.04123 0.53069 0.0
C400 C 0.34328 0.98787 0.5773 0.0
C401 C 0.36243 0.97957 0.63719 0.0
H402 H 0.34394 0.02323 0.4783 0.0
H403 H 0.3158 0.9703 0.56865 0.0
S404 S 0.45681 0.03202 0.68076 0.0
N405 N 0.4493 0.05405 0.604 0.0
N406 N 0.41892 0.99753 0.70168 0.0
C407 C 0.39813 1.00286 0.6452 0.0
C408 C 0.41457 0.03359 0.59235 0.0
C409 C 0.39148 0.39192 0.62849 0.0
C410 C 0.35604 0.38032 0.63985 0.0
C411 C 0.4082 0.37835 0.67959 0.0
C412 C 0.39035 0.35272 0.74502 0.0
H413 H 0.40676 0.41229 0.58092 0.0
H414 H 0.43562 0.3886 0.66848 0.0
S415 S 0.2968 0.31214 0.79853 0.0
N416 N 0.30318 0.3406 0.71934 0.0
N417 N 0.33476 0.31513 0.8158 0.0
C418 C 0.35469 0.3402 0.75584 0.0
C419 C 0.3375 0.35391 0.70307 0.0
loop_
_geom_bond_atom_site_label_1
_geom_bond_atom_site_label_2
_geom_bond_distance
_geom_bond_site_symmetry_2
_ccdc_geom_bond_type
In0 O1 2.294 . S
In0 O2 2.326 1_554 S
In0 O6 2.266 . S
In0 O7 2.326 . S
In0 O8 2.266 1_554 S
In0 O9 2.326 1_554 S
In0 O11 2.294 . S
In0 O12 2.326 . S
O1 In0 2.294 . S
O1 C10 1.240 1_554 S
O2 In0 2.326 1_556 S
O2 C10 1.252 . S
C3 O6 1.252 . S
C3 O7 1.260 . S
C4 O11 1.240 . S
C4 O12 1.252 . S
C5 O8 1.252 . S
C5 O9 1.260 . S
O6 In0 2.266 . S
O6 C3 1.252 . S
O7 In0 2.326 . S
O7 C3 1.260 . S
O8 In0 2.266 1_556 S
O8 C5 1.252 . S
O9 In0 2.326 1_556 S
O9 C5 1.260 . S
C10 O1 1.240 1_556 S
C10 O2 1.252 . S
O11 In0 2.294 . S
O11 C4 1.240 . S
O12 In0 2.326 . S
O12 C4 1.252 . S
In13 O14 2.294 . S
In13 O15 2.326 . S
In13 O19 2.266 . S
In13 O20 2.326 . S
In13 O21 2.266 . S
In13 O22 2.326 . S
In13 O24 2.294 . S
In13 O25 2.326 . S
O14 In13 2.294 . S
O14 C23 1.240 . S
O15 In13 2.326 . S
O15 C23 1.252 . S
C16 O19 1.252 . S
C16 O20 1.260 . S
C17 O24 1.240 . S
C17 O25 1.252 . S
C18 O21 1.252 . S
C18 O22 1.260 . S
O19 In13 2.266 . S
O19 C16 1.252 . S
O20 In13 2.326 . S
O20 C16 1.260 . S
O21 In13 2.266 . S
O21 C18 1.252 . S
O22 In13 2.326 . S
O22 C18 1.260 . S
C23 O14 1.240 . S
C23 O15 1.252 . S
O24 In13 2.294 . S
O24 C17 1.240 . S
O25 In13 2.326 . S
O25 C17 1.252 . S
In26 O27 2.294 . S
In26 O28 2.326 . S
In26 O32 2.266 . S
In26 O33 2.326 . S
In26 O34 2.266 . S
In26 O35 2.326 . S
In26 O37 2.294 . S
In26 O38 2.326 . S
O27 In26 2.294 . S
O27 C36 1.240 . S
O28 In26 2.326 . S
O28 C36 1.252 . S
C29 O32 1.252 . S
C29 O33 1.260 . S
C30 O37 1.240 . S
C30 O38 1.252 . S
C31 O34 1.252 . S
C31 O35 1.260 . S
O32 In26 2.266 . S
O32 C29 1.252 . S
O33 In26 2.326 . S
O33 C29 1.260 . S
O34 In26 2.266 . S
O34 C31 1.252 . S
O35 In26 2.326 . S
O35 C31 1.260 . S
C36 O27 1.240 . S
C36 O28 1.252 . S
O37 In26 2.294 . S
O37 C30 1.240 . S
O38 In26 2.326 . S
O38 C30 1.252 . S
In39 O40 2.294 . S
In39 O41 2.326 . S
In39 O45 2.266 . S
In39 O46 2.326 . S
In39 O47 2.266 . S
In39 O48 2.326 . S
In39 O50 2.294 . S
In39 O51 2.326 . S
O40 In39 2.294 . S
O40 C49 1.240 . S
O41 In39 2.326 . S
O41 C49 1.252 . S
C42 O45 1.252 . S
C42 O46 1.260 . S
C43 O50 1.240 . S
C43 O51 1.252 . S
C44 O47 1.252 . S
C44 O48 1.260 . S
O45 In39 2.266 . S
O45 C42 1.252 . S
O46 In39 2.326 . S
O46 C42 1.260 . S
O47 In39 2.266 . S
O47 C44 1.252 . S
O48 In39 2.326 . S
O48 C44 1.260 . S
C49 O40 1.240 . S
C49 O41 1.252 . S
O50 In39 2.294 . S
O50 C43 1.240 . S
O51 In39 2.326 . S
O51 C43 1.252 . S
In52 O53 2.294 . S
In52 O54 2.326 . S
In52 O58 2.266 . S
In52 O59 2.326 . S
In52 O60 2.266 . S
In52 O61 2.326 . S
In52 O63 2.294 . S
In52 O64 2.326 . S
O53 In52 2.294 . S
O53 C62 1.240 . S
O54 In52 2.326 . S
O54 C62 1.252 . S
C55 O58 1.252 . S
C55 O59 1.260 . S
C56 O63 1.240 . S
C56 O64 1.252 . S
C57 O60 1.252 . S
C57 O61 1.260 . S
O58 In52 2.266 . S
O58 C55 1.252 . S
O59 In52 2.326 . S
O59 C55 1.260 . S
O60 In52 2.266 . S
O60 C57 1.252 . S
O61 In52 2.326 . S
O61 C57 1.260 . S
C62 O53 1.240 . S
C62 O54 1.252 . S
O63 In52 2.294 . S
O63 C56 1.240 . S
O64 In52 2.326 . S
O64 C56 1.252 . S
In65 O66 2.294 . S
In65 O67 2.326 . S
In65 O71 2.266 1_556 S
In65 O72 2.326 . S
In65 O73 2.266 . S
In65 O74 2.326 . S
In65 O76 2.294 . S
In65 O77 2.326 . S
O66 In65 2.294 . S
O66 C75 1.240 . S
O67 In65 2.326 . S
O67 C75 1.252 . S
C68 O71 1.252 . S
C68 O72 1.260 1_554 S
C69 O76 1.240 . S
C69 O77 1.252 . S
C70 O73 1.252 . S
C70 O74 1.260 . S
O71 In65 2.266 1_554 S
O71 C68 1.252 . S
O72 In65 2.326 . S
O72 C68 1.260 1_556 S
O73 In65 2.266 . S
O73 C70 1.252 . S
O74 In65 2.326 . S
O74 C70 1.260 . S
C75 O66 1.240 . S
C75 O67 1.252 . S
O76 In65 2.294 . S
O76 C69 1.240 . S
O77 In65 2.326 . S
O77 C69 1.252 . S
In78 O79 2.294 . S
In78 O80 2.326 . S
In78 O84 2.266 . S
In78 O85 2.326 . S
In78 O86 2.266 . S
In78 O87 2.326 . S
In78 O89 2.294 . S
In78 O90 2.326 . S
O79 In78 2.294 . S
O79 C88 1.240 . S
O80 In78 2.326 . S
O80 C88 1.252 . S
C81 O84 1.252 1_554 S
C81 O85 1.260 1_554 S
C82 O89 1.240 . S
C82 O90 1.252 . S
C83 O86 1.252 . S
C83 O87 1.260 . S
O84 In78 2.266 . S
O84 C81 1.252 1_556 S
O85 In78 2.326 . S
O85 C81 1.260 1_556 S
O86 In78 2.266 . S
O86 C83 1.252 . S
O87 In78 2.326 . S
O87 C83 1.260 . S
C88 O79 1.240 . S
C88 O80 1.252 . S
O89 In78 2.294 . S
O89 C82 1.240 . S
O90 In78 2.326 . S
O90 C82 1.252 . S
In91 O92 2.294 . S
In91 O93 2.326 1_554 S
In91 O97 2.266 . S
In91 O98 2.326 . S
In91 O99 2.266 1_554 S
In91 O100 2.326 1_554 S
In91 O102 2.294 . S
In91 O103 2.326 . S
O92 In91 2.294 . S
O92 C101 1.240 . S
O93 In91 2.326 1_556 S
O93 C101 1.252 1_556 S
C94 O97 1.252 . S
C94 O98 1.260 . S
C95 O102 1.240 . S
C95 O103 1.252 . S
C96 O99 1.252 . S
C96 O100 1.260 . S
O97 In91 2.266 . S
O97 C94 1.252 . S
O98 In91 2.326 . S
O98 C94 1.260 . S
O99 In91 2.266 1_556 S
O99 C96 1.252 . S
O100 In91 2.326 1_556 S
O100 C96 1.260 . S
C101 O92 1.240 . S
C101 O93 1.252 1_554 S
O102 In91 2.294 . S
O102 C95 1.240 . S
O103 In91 2.326 . S
O103 C95 1.252 . S
In104 O105 2.294 . S
In104 O106 2.326 . S
In104 O110 2.266 . S
In104 O111 2.326 . S
In104 O112 2.266 . S
In104 O113 2.326 . S
In104 O115 2.294 . S
In104 O116 2.326 . S
O105 In104 2.294 . S
O105 C114 1.240 . S
O106 In104 2.326 . S
O106 C114 1.252 . S
C107 O110 1.252 . S
C107 O111 1.260 . S
C108 O115 1.240 . S
C108 O116 1.252 . S
C109 O112 1.252 . S
C109 O113 1.260 . S
O110 In104 2.266 . S
O110 C107 1.252 . S
O111 In104 2.326 . S
O111 C107 1.260 . S
O112 In104 2.266 . S
O112 C109 1.252 . S
O113 In104 2.326 . S
O113 C109 1.260 . S
C114 O105 1.240 . S
C114 O106 1.252 . S
O115 In104 2.294 . S
O115 C108 1.240 . S
O116 In104 2.326 . S
O116 C108 1.252 . S
In117 O118 2.294 . S
In117 O119 2.326 . S
In117 O123 2.266 . S
In117 O124 2.326 . S
In117 O125 2.266 . S
In117 O126 2.326 . S
In117 O128 2.294 . S
In117 O129 2.326 . S
O118 In117 2.294 . S
O118 C127 1.240 . S
O119 In117 2.326 . S
O119 C127 1.252 . S
C120 O123 1.252 . S
C120 O124 1.260 . S
C121 O128 1.240 . S
C121 O129 1.252 . S
C122 O125 1.252 . S
C122 O126 1.260 . S
O123 In117 2.266 . S
O123 C120 1.252 . S
O124 In117 2.326 . S
O124 C120 1.260 . S
O125 In117 2.266 . S
O125 C122 1.252 . S
O126 In117 2.326 . S
O126 C122 1.260 . S
C127 O118 1.240 . S
C127 O119 1.252 . S
O128 In117 2.294 . S
O128 C121 1.240 . S
O129 In117 2.326 . S
O129 C121 1.252 . S
In130 O131 2.294 . S
In130 O132 2.326 . S
In130 O136 2.266 . S
In130 O137 2.326 . S
In130 O138 2.266 . S
In130 O139 2.326 . S
In130 O141 2.294 . S
In130 O142 2.326 . S
O131 In130 2.294 . S
O131 C140 1.240 . S
O132 In130 2.326 . S
O132 C140 1.252 . S
C133 O136 1.252 . S
C133 O137 1.260 . S
C134 O141 1.240 . S
C134 O142 1.252 . S
C135 O138 1.252 . S
C135 O139 1.260 . S
O136 In130 2.266 . S
O136 C133 1.252 . S
O137 In130 2.326 . S
O137 C133 1.260 . S
O138 In130 2.266 . S
O138 C135 1.252 . S
O139 In130 2.326 . S
O139 C135 1.260 . S
C140 O131 1.240 . S
C140 O132 1.252 . S
O141 In130 2.294 . S
O141 C134 1.240 . S
O142 In130 2.326 . S
O142 C134 1.252 . S
In143 O144 2.294 . S
In143 O145 2.326 . S
In143 O149 2.266 . S
In143 O150 2.326 . S
In143 O151 2.266 . S
In143 O152 2.326 . S
In143 O154 2.294 . S
In143 O155 2.326 . S
O144 In143 2.294 . S
O144 C153 1.240 . S
O145 In143 2.326 . S
O145 C153 1.252 . S
C146 O149 1.252 . S
C146 O150 1.260 . S
C147 O154 1.240 . S
C147 O155 1.252 . S
C148 O151 1.252 . S
C148 O152 1.260 . S
O149 In143 2.266 . S
O149 C146 1.252 . S
O150 In143 2.326 . S
O150 C146 1.260 . S
O151 In143 2.266 . S
O151 C148 1.252 . S
O152 In143 2.326 . S
O152 C148 1.260 . S
C153 O144 1.240 . S
C153 O145 1.252 . S
O154 In143 2.294 . S
O154 C147 1.240 . S
O155 In143 2.326 . S
O155 C147 1.252 . S
C156 C157 1.369 . S
C156 C158 1.419 . S
C156 H160 0.930 . S
C157 C156 1.369 . S
C157 C166 1.429 . S
C158 C156 1.419 . S
C158 C159 1.363 . S
C158 H161 0.929 . S
C159 C158 1.363 . S
C159 C165 1.428 . S
H160 C156 0.930 . S
H161 C158 0.929 . S
S162 N163 1.613 . S
S162 N164 1.610 . S
N163 S162 1.613 . S
N163 C166 1.350 . S
N164 S162 1.610 . S
N164 C165 1.351 . S
C165 C159 1.428 . S
C165 N164 1.351 . S
C165 C166 1.434 . S
C166 C157 1.429 . S
C166 N163 1.350 . S
C166 C165 1.434 . S
C167 C168 1.369 . S
C167 C169 1.419 . S
C167 H171 0.930 . S
C168 C167 1.369 . S
C168 C177 1.429 . S
C169 C167 1.419 . S
C169 C170 1.363 . S
C169 H172 0.929 . S
C170 C169 1.363 . S
C170 C176 1.428 . S
H171 C167 0.930 . S
H172 C169 0.929 . S
S173 N174 1.613 . S
S173 N175 1.610 . S
N174 S173 1.613 . S
N174 C177 1.350 . S
N175 S173 1.610 . S
N175 C176 1.351 . S
C176 C170 1.428 . S
C176 N175 1.351 . S
C176 C177 1.434 . S
C177 C168 1.429 . S
C177 N174 1.350 . S
C177 C176 1.434 . S
C178 C179 1.369 . S
C178 C180 1.419 . S
C178 H182 0.930 . S
C179 C178 1.369 . S
C179 C188 1.429 . S
C180 C178 1.419 . S
C180 C181 1.363 . S
C180 H183 0.929 . S
C181 C180 1.363 . S
C181 C187 1.428 . S
H182 C178 0.930 . S
H183 C180 0.929 . S
S184 N185 1.613 . S
S184 N186 1.610 . S
N185 S184 1.613 . S
N185 C188 1.350 . S
N186 S184 1.610 . S
N186 C187 1.351 . S
C187 C181 1.428 . S
C187 N186 1.351 . S
C187 C188 1.434 . S
C188 C179 1.429 . S
C188 N185 1.350 . S
C188 C187 1.434 . S
C189 C190 1.369 . S
C189 C191 1.419 . S
C189 H193 0.930 . S
C190 C189 1.369 . S
C190 C199 1.429 . S
C191 C189 1.419 . S
C191 C192 1.363 . S
C191 H194 0.929 . S
C192 C191 1.363 . S
C192 C198 1.428 . S
H193 C189 0.930 . S
H194 C191 0.929 . S
S195 N196 1.613 1_554 S
S195 N197 1.610 1_554 S
N196 S195 1.613 1_556 S
N196 C199 1.350 . S
N197 S195 1.610 1_556 S
N197 C198 1.351 . S
C198 C192 1.428 . S
C198 N197 1.351 . S
C198 C199 1.434 . S
C199 C190 1.429 . S
C199 N196 1.350 . S
C199 C198 1.434 . S
C200 C201 1.369 . S
C200 C202 1.419 . S
C200 H204 0.930 . S
C201 C200 1.369 . S
C201 C210 1.429 1_556 S
C202 C200 1.419 . S
C202 C203 1.363 1_556 S
C202 H205 0.929 . S
C203 C202 1.363 1_554 S
C203 C209 1.428 . S
H204 C200 0.930 . S
H205 C202 0.929 . S
S206 N207 1.613 . S
S206 N208 1.610 . S
N207 S206 1.613 . S
N207 C210 1.350 . S
N208 S206 1.610 . S
N208 C209 1.351 . S
C209 C203 1.428 . S
C209 N208 1.351 . S
C209 C210 1.434 . S
C210 C201 1.429 1_554 S
C210 N207 1.350 . S
C210 C209 1.434 . S
C211 C212 1.369 . S
C211 C213 1.419 . S
C211 H215 0.930 . S
C212 C211 1.369 . S
C212 C221 1.429 . S
C213 C211 1.419 . S
C213 C214 1.363 . S
C213 H216 0.929 . S
C214 C213 1.363 . S
C214 C220 1.428 . S
H215 C211 0.930 . S
H216 C213 0.929 . S
S217 N218 1.613 1_556 S
S217 N219 1.610 . S
N218 S217 1.613 1_554 S
N218 C221 1.350 . S
N219 S217 1.610 . S
N219 C220 1.351 1_556 S
C220 C214 1.428 . S
C220 N219 1.351 1_554 S
C220 C221 1.434 . S
C221 C212 1.429 . S
C221 N218 1.350 . S
C221 C220 1.434 . S
C222 C223 1.369 . S
C222 C224 1.419 . S
C222 H226 0.930 . S
C223 C222 1.369 . S
C223 C232 1.429 . S
C224 C222 1.419 . S
C224 C225 1.363 . S
C224 H227 0.929 . S
C225 C224 1.363 . S
C225 C231 1.428 . S
H226 C222 0.930 . S
H227 C224 0.929 . S
S228 N229 1.613 . S
S228 N230 1.610 . S
N229 S228 1.613 . S
N229 C232 1.350 . S
N230 S228 1.610 . S
N230 C231 1.351 . S
C231 C225 1.428 . S
C231 N230 1.351 . S
C231 C232 1.434 . S
C232 C223 1.429 . S
C232 N229 1.350 . S
C232 C231 1.434 . S
C233 C234 1.369 . S
C233 C235 1.419 . S
C233 H237 0.930 . S
C234 C233 1.369 . S
C234 C243 1.429 . S
C235 C233 1.419 . S
C235 C236 1.363 . S
C235 H238 0.929 . S
C236 C235 1.363 . S
C236 C242 1.428 . S
H237 C233 0.930 . S
H238 C235 0.929 . S
S239 N240 1.613 . S
S239 N241 1.610 . S
N240 S239 1.613 . S
N240 C243 1.350 . S
N241 S239 1.610 . S
N241 C242 1.351 . S
C242 C236 1.428 . S
C242 N241 1.351 . S
C242 C243 1.434 . S
C243 C234 1.429 . S
C243 N240 1.350 . S
C243 C242 1.434 . S
C244 C245 1.369 . S
C244 C246 1.419 . S
C244 H248 0.930 . S
C245 C244 1.369 . S
C245 C254 1.429 . S
C246 C244 1.419 . S
C246 C247 1.363 . S
C246 H249 0.929 . S
C247 C246 1.363 . S
C247 C253 1.428 . S
H248 C244 0.930 . S
H249 C246 0.929 . S
S250 N251 1.613 . S
S250 N252 1.610 . S
N251 S250 1.613 . S
N251 C254 1.350 . S
N252 S250 1.610 . S
N252 C253 1.351 . S
C253 C247 1.428 . S
C253 N252 1.351 . S
C253 C254 1.434 . S
C254 C245 1.429 . S
C254 N251 1.350 . S
C254 C253 1.434 . S
C255 C256 1.369 . S
C255 C257 1.419 . S
C255 H259 0.930 . S
C256 C255 1.369 . S
C256 C265 1.429 . S
C257 C255 1.419 . S
C257 C258 1.363 . S
C257 H260 0.929 . S
C258 C257 1.363 . S
C258 C264 1.428 . S
H259 C255 0.930 . S
H260 C257 0.929 . S
S261 N262 1.613 . S
S261 N263 1.610 . S
N262 S261 1.613 . S
N262 C265 1.350 . S
N263 S261 1.610 . S
N263 C264 1.351 . S
C264 C258 1.428 . S
C264 N263 1.351 . S
C264 C265 1.434 . S
C265 C256 1.429 . S
C265 N262 1.350 . S
C265 C264 1.434 . S
C266 C267 1.369 . S
C266 C268 1.419 . S
C266 H270 0.930 . S
C267 C266 1.369 . S
C267 C276 1.429 . S
C268 C266 1.419 . S
C268 C269 1.363 . S
C268 H271 0.929 . S
C269 C268 1.363 . S
C269 C275 1.428 . S
H270 C266 0.930 . S
H271 C268 0.929 . S
S272 N273 1.613 . S
S272 N274 1.610 . S
N273 S272 1.613 . S
N273 C276 1.350 . S
N274 S272 1.610 . S
N274 C275 1.351 . S
C275 C269 1.428 . S
C275 N274 1.351 . S
C275 C276 1.434 . S
C276 C267 1.429 . S
C276 N273 1.350 . S
C276 C275 1.434 . S
C277 C278 1.369 . S
C277 C279 1.419 . S
C277 H281 0.930 . S
C278 C277 1.369 . S
C278 C287 1.429 . S
C279 C277 1.419 . S
C279 C280 1.363 . S
C279 H282 0.929 . S
C280 C279 1.363 . S
C280 C286 1.428 . S
H281 C277 0.930 . S
H282 C279 0.929 . S
S283 N284 1.612 1_554 S
S283 N285 1.610 . S
N284 S283 1.612 1_556 S
N284 C287 1.351 . S
N285 S283 1.610 . S
N285 C286 1.351 1_554 S
C286 C280 1.428 . S
C286 N285 1.351 1_556 S
C286 C287 1.434 . S
C287 C278 1.429 . S
C287 N284 1.351 . S
C287 C286 1.434 . S
C288 C289 1.369 . S
C288 C290 1.419 . S
C288 H292 0.930 . S
C289 C288 1.369 . S
C289 C298 1.429 . S
C290 C288 1.419 . S
C290 C291 1.363 . S
C290 H293 0.929 . S
C291 C290 1.363 . S
C291 C297 1.428 . S
H292 C288 0.930 . S
H293 C290 0.929 . S
S294 N295 1.613 . S
S294 N296 1.610 . S
N295 S294 1.613 . S
N295 C298 1.350 . S
N296 S294 1.610 . S
N296 C297 1.351 . S
C297 C291 1.428 . S
C297 N296 1.351 . S
C297 C298 1.434 . S
C298 C289 1.429 . S
C298 N295 1.350 . S
C298 C297 1.434 . S
C299 C300 1.369 1_556 S
C299 C301 1.419 . S
C299 H303 0.930 . S
C300 C299 1.369 1_554 S
C300 C309 1.429 . S
C301 C299 1.419 . S
C301 C302 1.363 . S
C301 H304 0.929 . S
C302 C301 1.363 . S
C302 C308 1.428 . S
H303 C299 0.930 . S
H304 C301 0.929 . S
S305 N306 1.613 . S
S305 N307 1.610 1_554 S
N306 S305 1.613 . S
N306 C309 1.350 . S
N307 S305 1.610 1_556 S
N307 C308 1.351 . S
C308 C302 1.428 . S
C308 N307 1.351 . S
C308 C309 1.434 1_556 S
C309 C300 1.429 . S
C309 N306 1.350 . S
C309 C308 1.434 1_554 S
C310 C311 1.369 . S
C310 C312 1.419 . S
C310 H314 0.930 . S
C311 C310 1.369 . S
C311 C320 1.429 . S
C312 C310 1.419 . S
C312 C313 1.363 . S
C312 H315 0.929 . S
C313 C312 1.363 . S
C313 C319 1.428 . S
H314 C310 0.930 . S
H315 C312 0.929 . S
S316 N317 1.613 . S
S316 N318 1.610 . S
N317 S316 1.613 . S
N317 C320 1.350 . S
N318 S316 1.610 . S
N318 C319 1.351 . S
C319 C313 1.428 . S
C319 N318 1.351 . S
C319 C320 1.434 . S
C320 C311 1.429 . S
C320 N317 1.350 . S
C320 C319 1.434 . S
C321 C322 1.369 . S
C321 C323 1.419 . S
C321 H325 0.930 . S
C322 C321 1.369 . S
C322 C331 1.429 . S
C323 C321 1.419 . S
C323 C324 1.363 . S
C323 H326 0.929 . S
C324 C323 1.363 . S
C324 C330 1.428 . S
H325 C321 0.930 . S
H326 C323 0.929 . S
S327 N328 1.613 . S
S327 N329 1.610 . S
N328 S327 1.613 . S
N328 C331 1.350 . S
N329 S327 1.610 . S
N329 C330 1.351 . S
C330 C324 1.428 . S
C330 N329 1.351 . S
C330 C331 1.434 . S
C331 C322 1.429 . S
C331 N328 1.350 . S
C331 C330 1.434 . S
C332 C333 1.369 . S
C332 C334 1.419 . S
C332 H336 0.930 . S
C333 C332 1.369 . S
C333 C342 1.429 . S
C334 C332 1.419 . S
C334 C335 1.363 . S
C334 H337 0.929 . S
C335 C334 1.363 . S
C335 C341 1.428 . S
H336 C332 0.930 . S
H337 C334 0.929 . S
S338 N339 1.613 . S
S338 N340 1.610 . S
N339 S338 1.613 . S
N339 C342 1.350 . S
N340 S338 1.610 . S
N340 C341 1.351 . S
C341 C335 1.428 . S
C341 N340 1.351 . S
C341 C342 1.434 . S
C342 C333 1.429 . S
C342 N339 1.350 . S
C342 C341 1.434 . S
C343 C344 1.369 . S
C343 C345 1.419 . S
C343 H347 0.930 . S
C344 C343 1.369 . S
C344 C353 1.429 . S
C345 C343 1.419 . S
C345 C346 1.363 . S
C345 H348 0.929 . S
C346 C345 1.363 . S
C346 C352 1.428 . S
H347 C343 0.930 . S
H348 C345 0.929 . S
S349 N350 1.613 . S
S349 N351 1.610 . S
N350 S349 1.613 . S
N350 C353 1.350 . S
N351 S349 1.610 . S
N351 C352 1.351 . S
C352 C346 1.428 . S
C352 N351 1.351 . S
C352 C353 1.434 . S
C353 C344 1.429 . S
C353 N350 1.350 . S
C353 C352 1.434 . S
C354 C355 1.369 . S
C354 C356 1.419 1_455 S
C354 H358 0.930 1_556 S
C355 C354 1.369 . S
C355 C364 1.429 . S
C356 C354 1.419 1_655 S
C356 C357 1.363 . S
C356 H359 0.929 . S
C357 C356 1.363 . S
C357 C363 1.428 . S
H358 C354 0.930 1_554 S
H359 C356 0.929 . S
S360 N361 1.613 . S
S360 N362 1.610 1_455 S
N361 S360 1.613 . S
N361 C364 1.350 . S
N362 S360 1.610 1_655 S
N362 C363 1.351 . S
C363 C357 1.428 . S
C363 N362 1.351 . S
C363 C364 1.434 1_655 S
C364 C355 1.429 . S
C364 N361 1.350 . S
C364 C363 1.434 1_455 S
C365 C366 1.369 1_554 S
C365 C367 1.419 1_565 S
C365 H369 0.930 . S
C366 C365 1.369 1_556 S
C366 C375 1.434 . S
C367 C365 1.419 1_545 S
C367 C368 1.363 . S
C367 H370 0.929 . S
C368 C367 1.363 . S
C368 C374 1.428 . S
H369 C365 0.930 . S
H370 C367 0.929 . S
S371 N372 1.613 . S
S371 N373 1.610 1_556 S
N372 S371 1.613 . S
N372 C375 1.347 1_545 S
N373 S371 1.610 1_554 S
N373 C374 1.351 . S
C374 C368 1.428 . S
C374 N373 1.351 . S
C374 C375 1.430 1_544 S
C375 C366 1.434 . S
C375 N372 1.347 1_565 S
C375 C374 1.430 1_566 S
C376 C377 1.369 . S
C376 C378 1.419 . S
C376 H380 0.930 . S
C377 C376 1.369 . S
C377 C386 1.429 . S
C378 C376 1.419 . S
C378 C379 1.363 . S
C378 H381 0.929 . S
C379 C378 1.363 . S
C379 C385 1.428 . S
H380 C376 0.930 . S
H381 C378 0.929 . S
S382 N383 1.613 . S
S382 N384 1.610 . S
N383 S382 1.613 . S
N383 C386 1.350 . S
N384 S382 1.610 . S
N384 C385 1.351 . S
C385 C379 1.428 . S
C385 N384 1.351 . S
C385 C386 1.434 . S
C386 C377 1.429 . S
C386 N383 1.350 . S
C386 C385 1.434 . S
C387 C388 1.369 1_655 S
C387 C389 1.419 . S
C387 H391 0.930 . S
C388 C387 1.369 1_455 S
C388 C397 1.429 . S
C389 C387 1.419 . S
C389 C390 1.363 . S
C389 H392 0.929 . S
C390 C389 1.363 . S
C390 C396 1.428 1_655 S
H391 C387 0.930 . S
H392 C389 0.929 . S
S393 N394 1.613 . S
S393 N395 1.610 . S
N394 S393 1.613 . S
N394 C397 1.350 . S
N395 S393 1.610 . S
N395 C396 1.351 . S
C396 C390 1.428 1_455 S
C396 N395 1.351 . S
C396 C397 1.434 . S
C397 C388 1.429 . S
C397 N394 1.350 . S
C397 C396 1.434 . S
C398 C399 1.369 . S
C398 C400 1.419 1_545 S
C398 H402 0.930 . S
C399 C398 1.369 . S
C399 C408 1.429 . S
C400 C398 1.419 1_565 S
C400 C401 1.363 . S
C400 H403 0.929 . S
C401 C400 1.363 . S
C401 C407 1.428 . S
H402 C398 0.930 . S
H403 C400 0.929 . S
S404 N405 1.613 . S
S404 N406 1.610 1_545 S
N405 S404 1.613 . S
N405 C408 1.350 . S
N406 S404 1.610 1_565 S
N406 C407 1.351 . S
C407 C401 1.428 . S
C407 N406 1.351 . S
C407 C408 1.434 1_565 S
C408 C399 1.429 . S
C408 N405 1.350 . S
C408 C407 1.434 1_545 S
C409 C410 1.369 . S
C409 C411 1.419 . S
C409 H413 0.930 . S
C410 C409 1.369 . S
C410 C419 1.429 . S
C411 C409 1.419 . S
C411 C412 1.363 . S
C411 H414 0.929 . S
C412 C411 1.363 . S
C412 C418 1.428 . S
H413 C409 0.930 . S
H414 C411 0.929 . S
S415 N416 1.613 . S
S415 N417 1.610 . S
N416 S415 1.613 . S
N416 C419 1.350 . S
N417 S415 1.610 . S
N417 C418 1.351 . S
C418 C412 1.428 . S
C418 N417 1.351 . S
C418 C419 1.434 . S
C419 C410 1.429 . S
C419 N416 1.350 . S
C419 C418 1.434 . S
C157 C3 1.514 . S
C159 C135 1.517 . S
C168 C148 1.514 . S
C170 C16 1.517 . S
C179 C29 1.518 . S
C181 C83 1.515 . S
C190 C44 1.517 . S
C192 C96 1.513 . S
C201 C57 1.517 . S
C203 C107 1.513 . S
C212 C122 1.517 . S
C214 C68 1.513 . S
C223 C4 1.697 . S
C225 C108 1.697 . S
C234 C17 1.696 . S
C236 C127 1.697 . S
C245 C140 1.695 . S
C247 C30 1.697 . S
C256 C49 1.696 . S
C258 C153 1.698 . S
C267 C62 1.697 . S
C269 C88 1.695 . S
C278 C69 1.696 . S
C280 C101 1.695 1_556 S
C289 C133 1.489 . S
C291 C5 1.489 . S
C300 C18 1.488 . S
C302 C146 1.489 . S
C311 C31 1.489 . S
C313 C81 1.490 . S
C322 C42 1.489 . S
C324 C94 1.489 . S
C333 C109 1.488 . S
C335 C55 1.488 . S
C344 C70 1.490 . S
C346 C120 1.490 . S
C355 C10 1.450 . S
C357 C147 1.452 . S
C366 C82 1.454 . S
C368 C23 1.450 . S
C377 C95 1.449 . S
C379 C36 1.453 . S
C388 C114 1.449 . S
C390 C43 1.453 . S
C399 C121 1.451 . S
C401 C56 1.451 . S
C410 C134 1.451 . S
C412 C75 1.453 . S
