# Generated by pormake.
# Topology ukd, (4)-cn, num edge types: 1
# Building blocks:
#     Node 0, Type 0, BuildingBlock: NAHDIM_clean_sbu_0, # of connection points: 4
#     Node 1, Type 0, BuildingBlock: NAHDIM_clean_sbu_0, # of connection points: 4
#     Node 2, Type 0, BuildingBlock: NAHDIM_clean_sbu_0, # of connection points: 4
#     Node 3, Type 0, BuildingBlock: NAHDIM_clean_sbu_0, # of connection points: 4
#     Node 4, Type 0, BuildingBlock: NAHDIM_clean_sbu_0, # of connection points: 4
#     Node 5, Type 0, BuildingBlock: NAHDIM_clean_sbu_0, # of connection points: 4
#     Node 6, Type 0, BuildingBlock: NAHDIM_clean_sbu_0, # of connection points: 4
#     Node 7, Type 0, BuildingBlock: NAHDIM_clean_sbu_0, # of connection points: 4
#     Node 8, Type 0, BuildingBlock: NAHDIM_clean_sbu_0, # of connection points: 4
#     Node 9, Type 0, BuildingBlock: NAHDIM_clean_sbu_0, # of connection points: 4
#     Node 10, Type 0, BuildingBlock: NAHDIM_clean_sbu_0, # of connection points: 4
#     Node 11, Type 0, BuildingBlock: NAHDIM_clean_sbu_0, # of connection points: 4
#     Node 12, Type 0, BuildingBlock: NAHDIM_clean_sbu_0, # of connection points: 4
#     Node 13, Type 0, BuildingBlock: NAHDIM_clean_sbu_0, # of connection points: 4
#     Node 14, Type 0, BuildingBlock: NAHDIM_clean_sbu_0, # of connection points: 4
#     Node 15, Type 0, BuildingBlock: NAHDIM_clean_sbu_0, # of connection points: 4
#     Node 16, Type 0, BuildingBlock: NAHDIM_clean_sbu_0, # of connection points: 4
#     Node 17, Type 0, BuildingBlock: NAHDIM_clean_sbu_0, # of connection points: 4
#     Node 18, Type 0, BuildingBlock: NAHDIM_clean_sbu_0, # of connection points: 4
#     Node 19, Type 0, BuildingBlock: NAHDIM_clean_sbu_0, # of connection points: 4
#     Node 20, Type 0, BuildingBlock: NAHDIM_clean_sbu_0, # of connection points: 4
#     Node 21, Type 0, BuildingBlock: NAHDIM_clean_sbu_0, # of connection points: 4
#     Node 22, Type 0, BuildingBlock: NAHDIM_clean_sbu_0, # of connection points: 4
#     Node 23, Type 0, BuildingBlock: NAHDIM_clean_sbu_0, # of connection points: 4
#     Node 24, Type 0, BuildingBlock: NAHDIM_clean_sbu_0, # of connection points: 4
#     Node 25, Type 0, BuildingBlock: NAHDIM_clean_sbu_0, # of connection points: 4
#     Node 26, Type 0, BuildingBlock: NAHDIM_clean_sbu_0, # of connection points: 4
#     Node 27, Type 0, BuildingBlock: NAHDIM_clean_sbu_0, # of connection points: 4
#     Node 28, Type 0, BuildingBlock: NAHDIM_clean_sbu_0, # of connection points: 4
#     Node 29, Type 0, BuildingBlock: NAHDIM_clean_sbu_0, # of connection points: 4
#     Node 30, Type 0, BuildingBlock: NAHDIM_clean_sbu_0, # of connection points: 4
#     Node 31, Type 0, BuildingBlock: NAHDIM_clean_sbu_0, # of connection points: 4
#     Edge 32, Type (0, 0), BuildingBlock: XIVTED_clean_linker_0, # of connection points: 2
#     Edge 33, Type (0, 0), BuildingBlock: XIVTED_clean_linker_0, # of connection points: 2
#     Edge 34, Type (0, 0), BuildingBlock: XIVTED_clean_linker_0, # of connection points: 2
#     Edge 35, Type (0, 0), BuildingBlock: XIVTED_clean_linker_0, # of connection points: 2
#     Edge 36, Type (0, 0), BuildingBlock: XIVTED_clean_linker_0, # of connection points: 2
#     Edge 37, Type (0, 0), BuildingBlock: XIVTED_clean_linker_0, # of connection points: 2
#     Edge 38, Type (0, 0), BuildingBlock: XIVTED_clean_linker_0, # of connection points: 2
#     Edge 39, Type (0, 0), BuildingBlock: XIVTED_clean_linker_0, # of connection points: 2
#     Edge 40, Type (0, 0), BuildingBlock: XIVTED_clean_linker_0, # of connection points: 2
#     Edge 41, Type (0, 0), BuildingBlock: XIVTED_clean_linker_0, # of connection points: 2
#     Edge 42, Type (0, 0), BuildingBlock: XIVTED_clean_linker_0, # of connection points: 2
#     Edge 43, Type (0, 0), BuildingBlock: XIVTED_clean_linker_0, # of connection points: 2
#     Edge 44, Type (0, 0), BuildingBlock: XIVTED_clean_linker_0, # of connection points: 2
#     Edge 45, Type (0, 0), BuildingBlock: XIVTED_clean_linker_0, # of connection points: 2
#     Edge 46, Type (0, 0), BuildingBlock: XIVTED_clean_linker_0, # of connection points: 2
#     Edge 47, Type (0, 0), BuildingBlock: XIVTED_clean_linker_0, # of connection points: 2
#     Edge 48, Type (0, 0), BuildingBlock: XIVTED_clean_linker_0, # of connection points: 2
#     Edge 49, Type (0, 0), BuildingBlock: XIVTED_clean_linker_0, # of connection points: 2
#     Edge 50, Type (0, 0), BuildingBlock: XIVTED_clean_linker_0, # of connection points: 2
#     Edge 51, Type (0, 0), BuildingBlock: XIVTED_clean_linker_0, # of connection points: 2
#     Edge 52, Type (0, 0), BuildingBlock: XIVTED_clean_linker_0, # of connection points: 2
#     Edge 53, Type (0, 0), BuildingBlock: XIVTED_clean_linker_0, # of connection points: 2
#     Edge 54, Type (0, 0), BuildingBlock: XIVTED_clean_linker_0, # of connection points: 2
#     Edge 55, Type (0, 0), BuildingBlock: XIVTED_clean_linker_0, # of connection points: 2
#     Edge 56, Type (0, 0), BuildingBlock: XIVTED_clean_linker_0, # of connection points: 2
#     Edge 57, Type (0, 0), BuildingBlock: XIVTED_clean_linker_0, # of connection points: 2
#     Edge 58, Type (0, 0), BuildingBlock: XIVTED_clean_linker_0, # of connection points: 2
#     Edge 59, Type (0, 0), BuildingBlock: XIVTED_clean_linker_0, # of connection points: 2
#     Edge 60, Type (0, 0), BuildingBlock: XIVTED_clean_linker_0, # of connection points: 2
#     Edge 61, Type (0, 0), BuildingBlock: XIVTED_clean_linker_0, # of connection points: 2
#     Edge 62, Type (0, 0), BuildingBlock: XIVTED_clean_linker_0, # of connection points: 2
#     Edge 63, Type (0, 0), BuildingBlock: XIVTED_clean_linker_0, # of connection points: 2
#     Edge 64, Type (0, 0), BuildingBlock: XIVTED_clean_linker_0, # of connection points: 2
#     Edge 65, Type (0, 0), BuildingBlock: XIVTED_clean_linker_0, # of connection points: 2
#     Edge 66, Type (0, 0), BuildingBlock: XIVTED_clean_linker_0, # of connection points: 2
#     Edge 67, Type (0, 0), BuildingBlock: XIVTED_clean_linker_0, # of connection points: 2
#     Edge 68, Type (0, 0), BuildingBlock: XIVTED_clean_linker_0, # of connection points: 2
#     Edge 69, Type (0, 0), BuildingBlock: XIVTED_clean_linker_0, # of connection points: 2
#     Edge 70, Type (0, 0), BuildingBlock: XIVTED_clean_linker_0, # of connection points: 2
#     Edge 71, Type (0, 0), BuildingBlock: XIVTED_clean_linker_0, # of connection points: 2
#     Edge 72, Type (0, 0), BuildingBlock: XIVTED_clean_linker_0, # of connection points: 2
#     Edge 73, Type (0, 0), BuildingBlock: XIVTED_clean_linker_0, # of connection points: 2
#     Edge 74, Type (0, 0), BuildingBlock: XIVTED_clean_linker_0, # of connection points: 2
#     Edge 75, Type (0, 0), BuildingBlock: XIVTED_clean_linker_0, # of connection points: 2
#     Edge 76, Type (0, 0), BuildingBlock: XIVTED_clean_linker_0, # of connection points: 2
#     Edge 77, Type (0, 0), BuildingBlock: XIVTED_clean_linker_0, # of connection points: 2
#     Edge 78, Type (0, 0), BuildingBlock: XIVTED_clean_linker_0, # of connection points: 2
#     Edge 79, Type (0, 0), BuildingBlock: XIVTED_clean_linker_0, # of connection points: 2
#     Edge 80, Type (0, 0), BuildingBlock: XIVTED_clean_linker_0, # of connection points: 2
#     Edge 81, Type (0, 0), BuildingBlock: XIVTED_clean_linker_0, # of connection points: 2
#     Edge 82, Type (0, 0), BuildingBlock: XIVTED_clean_linker_0, # of connection points: 2
#     Edge 83, Type (0, 0), BuildingBlock: XIVTED_clean_linker_0, # of connection points: 2
#     Edge 84, Type (0, 0), BuildingBlock: XIVTED_clean_linker_0, # of connection points: 2
#     Edge 85, Type (0, 0), BuildingBlock: XIVTED_clean_linker_0, # of connection points: 2
#     Edge 86, Type (0, 0), BuildingBlock: XIVTED_clean_linker_0, # of connection points: 2
#     Edge 87, Type (0, 0), BuildingBlock: XIVTED_clean_linker_0, # of connection points: 2
#     Edge 88, Type (0, 0), BuildingBlock: XIVTED_clean_linker_0, # of connection points: 2
#     Edge 89, Type (0, 0), BuildingBlock: XIVTED_clean_linker_0, # of connection points: 2
#     Edge 90, Type (0, 0), BuildingBlock: XIVTED_clean_linker_0, # of connection points: 2
#     Edge 91, Type (0, 0), BuildingBlock: XIVTED_clean_linker_0, # of connection points: 2
#     Edge 92, Type (0, 0), BuildingBlock: XIVTED_clean_linker_0, # of connection points: 2
#     Edge 93, Type (0, 0), BuildingBlock: XIVTED_clean_linker_0, # of connection points: 2
#     Edge 94, Type (0, 0), BuildingBlock: XIVTED_clean_linker_0, # of connection points: 2
#     Edge 95, Type (0, 0), BuildingBlock: XIVTED_clean_linker_0, # of connection points: 2
# Relax obj value: 0.150
# Max RMSD: 0.183
# Mean RMSD: 0.183
data_MOF--net-ukd--node1-NAHDIM_clean_sbu_0--edge1-XIVTED_clean_linker_0
_symmetry_space_group_name_H-M    P1
_symmetry_Int_Tables_number       1
_symmetry_cell_setting            triclinic
loop_
_symmetry_equiv_pos_as_xyz
'x, y, z'
_cell_length_a     43.393619
_cell_length_b     43.376289
_cell_length_c     74.231418
_cell_angle_alpha  90.018979
_cell_angle_beta   89.927092
_cell_angle_gamma 90.018355
loop_
_atom_site_label
_atom_site_type_symbol
_atom_site_fract_x
_atom_site_fract_y
_atom_site_fract_z
_atom_type_partial_charge
C0 C 0.29847 0.18827 0.34618 0.0
O1 O 0.29169 0.18408 0.32911 0.0
O2 O 0.24473 0.22366 0.31967 0.0
Zn3 Zn 0.23782 0.21215 0.34549 0.0
O4 O 0.20963 0.17521 0.3465 0.0
C5 C 0.22093 0.27493 0.35499 0.0
O6 O 0.24076 0.28252 0.34235 0.0
O7 O 0.27879 0.20117 0.3564 0.0
C8 C 0.21497 0.15213 0.35659 0.0
O9 O 0.24006 0.15179 0.36646 0.0
C10 C 0.22323 0.22939 0.3086 0.0
O11 O 0.1945 0.2291 0.3142 0.0
O12 O 0.21695 0.24666 0.35879 0.0
C13 C 0.03441 0.05921 0.60834 0.0
O14 O 0.02068 0.06147 0.59263 0.0
O15 O 0.01901 0.99867 0.57761 0.0
Zn16 Zn 0.02402 0.9931 0.60425 0.0
O17 O 0.05835 0.96294 0.60843 0.0
C18 C 0.95898 0.98062 0.60739 0.0
O19 O 0.95741 -0.00064 0.59353 0.0
O20 O 0.03651 0.03301 0.6159 0.0
C21 C 0.06063 0.93829 0.59928 0.0
O22 O 0.03985 0.93224 0.58691 0.0
C23 C 0.04109 0.00772 0.56769 0.0
O24 O 0.06793 0.01388 0.57504 0.0
O25 O 0.98499 0.97553 0.61467 0.0
C26 C 0.18979 0.79611 0.84966 0.0
O27 O 0.19218 0.78735 0.83279 0.0
O28 O 0.25318 0.76994 0.82447 0.0
Zn29 Zn 0.25531 0.78254 0.8505 0.0
O30 O 0.28424 0.81855 0.8531 0.0
C31 C 0.26525 0.71944 0.8602 0.0
O32 O 0.24395 0.71503 0.8479 0.0
O33 O 0.21337 0.79494 0.8598 0.0
C34 C 0.31128 0.81692 0.84657 0.0
O35 O 0.31968 0.79171 0.83807 0.0
C36 C 0.2541 0.78903 0.81151 0.0
O37 O 0.25628 0.81865 0.81501 0.0
O38 O 0.27291 0.74684 0.86428 0.0
C39 C 0.45371 0.93495 0.09892 0.0
O40 O 0.46362 0.93516 0.0822 0.0
O41 O 0.46981 0.99832 0.07026 0.0
Zn42 Zn 0.46178 0.00171 0.09688 0.0
O43 O 0.42466 0.02866 0.10074 0.0
C44 C 0.52498 0.02097 0.10292 0.0
O45 O 0.53071 0.00336 0.0889 0.0
O46 O 0.45257 0.96007 0.10774 0.0
C47 C 0.42152 0.05336 0.09173 0.0
O48 O 0.44256 0.06071 0.07973 0.0
C49 C 0.4483 0.99123 0.05943 0.0
O50 O 0.42057 0.98574 0.0658 0.0
O51 O 0.49761 0.02265 0.10894 0.0
C52 C 0.30387 0.78983 0.15085 0.0
O53 O 0.30392 0.78169 0.16788 0.0
O54 O 0.24587 0.77352 0.18105 0.0
Zn55 Zn 0.23808 0.78108 0.15469 0.0
O56 O 0.21052 0.81789 0.15106 0.0
C57 C 0.20201 0.72615 0.15542 0.0
O58 O 0.20257 0.73277 0.17267 0.0
O59 O 0.27858 0.78982 0.14219 0.0
C60 C 0.18369 0.81944 0.15788 0.0
O61 O 0.17389 0.79683 0.16817 0.0
C62 C 0.24322 0.79234 0.19406 0.0
O63 O 0.23492 0.82095 0.19089 0.0
O64 O 0.21636 0.74354 0.14443 0.0
C65 C 0.44601 0.04135 0.39805 0.0
O66 O 0.44428 0.03677 0.41551 0.0
O67 O 0.47778 0.98593 0.4253 0.0
Zn68 Zn 0.46705 0.97914 0.39929 0.0
O69 O 0.42957 0.95198 0.39783 0.0
C70 C 0.52948 0.96677 0.38681 0.0
O71 O 0.53681 0.99114 0.39641 0.0
O72 O 0.45622 0.01988 0.38802 0.0
C73 C 0.42742 0.9274 0.40705 0.0
O74 O 0.45005 0.91976 0.4179 0.0
C75 C 0.49647 0.97035 0.43477 0.0
O76 O 0.5114 0.94712 0.42749 0.0
O77 O 0.50152 0.95823 0.38604 0.0
C78 C 0.20661 0.19237 0.64699 0.0
O79 O 0.21975 0.18607 0.6625 0.0
O80 O 0.25901 0.23448 0.67018 0.0
Zn81 Zn 0.26282 0.22363 0.644 0.0
O82 O 0.29419 0.1896 0.64139 0.0
C83 C 0.26891 0.28781 0.63531 0.0
O84 O 0.24783 0.29046 0.64794 0.0
O85 O 0.22102 0.20909 0.63571 0.0
C86 C 0.28982 0.16544 0.63203 0.0
O87 O 0.26364 0.16193 0.62341 0.0
C88 C 0.28135 0.23414 0.6812 0.0
O89 O 0.30912 0.22726 0.6754 0.0
O90 O 0.27787 0.26106 0.63067 0.0
C91 C 0.0381 0.94739 0.89307 0.0
O92 O 0.02963 0.94984 0.91 0.0
O93 O 0.01863 0.01249 0.91911 0.0
Zn94 Zn 0.02975 0.01396 0.89277 0.0
O95 O 0.06835 0.03892 0.8892 0.0
C96 C 0.96753 0.03141 0.88382 0.0
O97 O 0.96072 0.01162 0.89662 0.0
O98 O 0.0382 0.97127 0.88313 0.0
C99 C 0.07273 0.06444 0.8972 0.0
O100 O 0.05165 0.07475 0.9084 0.0
C101 C 0.03862 0.0098 0.9315 0.0
O102 O 0.06793 0.00791 0.92716 0.0
O103 O 0.99556 0.03521 0.87938 0.0
C104 C 0.70289 0.80077 0.64744 0.0
O105 O 0.71367 0.8048 0.66379 0.0
O106 O 0.76247 0.76053 0.66906 0.0
Zn107 Zn 0.76257 0.77448 0.64316 0.0
O108 O 0.79148 0.81053 0.64052 0.0
C109 C 0.77412 0.71199 0.63167 0.0
O110 O 0.75554 0.70533 0.64511 0.0
O111 O 0.71965 0.78723 0.63581 0.0
C112 C 0.78658 0.83299 0.62991 0.0
O113 O 0.76145 0.8332 0.62006 0.0
C114 C 0.77163 0.77811 0.68167 0.0
O115 O 0.78147 0.80595 0.67774 0.0
O116 O 0.77922 0.74009 0.62785 0.0
C117 C 0.94488 0.95717 0.40687 0.0
O118 O 0.93949 0.97284 0.4217 0.0
O119 O 0.98986 0.01207 0.42732 0.0
Zn120 Zn 0.97992 0.0106 0.40095 0.0
O121 O 0.9471 0.04186 0.39554 0.0
C122 C 0.04419 0.01106 0.38994 0.0
O123 O 0.04743 0.9906 0.40285 0.0
O124 O 0.96299 0.96854 0.39514 0.0
C125 C 0.93559 0.04171 0.37982 0.0
O126 O 0.94552 0.02129 0.36809 0.0
C127 C 0.00905 0.03018 0.43472 0.0
O128 O 0.02425 0.05016 0.4248 0.0
O129 O 0.01748 0.02141 0.38642 0.0
C130 C 0.79942 0.20362 0.13717 0.0
O131 O 0.79516 0.20958 0.15433 0.0
O132 O 0.73453 0.23048 0.16093 0.0
Zn133 Zn 0.73429 0.21814 0.13477 0.0
O134 O 0.70662 0.18137 0.13126 0.0
C135 C 0.72166 0.281 0.12522 0.0
O136 O 0.74109 0.28648 0.1384 0.0
O137 O 0.77707 0.20687 0.12626 0.0
C138 C 0.67926 0.18163 0.13738 0.0
O139 O 0.66953 0.20599 0.14625 0.0
C140 C 0.73209 0.21112 0.17369 0.0
O141 O 0.72958 0.18165 0.16988 0.0
O142 O 0.71635 0.25327 0.12065 0.0
C143 C 0.55346 0.04645 0.8973 0.0
O144 O 0.55795 0.03637 0.91377 0.0
O145 O 0.51727 0.98763 0.92069 0.0
Zn146 Zn 0.52925 0.98611 0.89444 0.0
O147 O 0.56704 0.95972 0.89134 0.0
C148 C 0.46722 0.97574 0.88057 0.0
O149 O 0.45993 -0.00025 0.89049 0.0
O150 O 0.54011 0.02893 0.886 0.0
C151 C 0.57118 0.93506 0.90024 0.0
O152 O 0.55043 0.92658 0.91214 0.0
C153 C 0.49712 0.97037 0.92797 0.0
O154 O 0.48282 0.94961 0.91817 0.0
O155 O 0.49515 0.96702 0.87986 0.0
C156 C 0.69261 0.20924 0.85224 0.0
O157 O 0.6933 0.21719 0.83517 0.0
O158 O 0.75399 0.23696 0.82537 0.0
Zn159 Zn 0.75753 0.22637 0.85162 0.0
O160 O 0.7876 0.1915 0.85483 0.0
C161 C 0.76654 0.29056 0.85911 0.0
O162 O 0.74609 0.29338 0.84618 0.0
O163 O 0.71671 0.21255 0.86178 0.0
C164 C 0.81412 0.19174 0.84755 0.0
O165 O 0.82221 0.21537 0.83753 0.0
C166 C 0.75476 0.21725 0.81272 0.0
O167 O 0.7576 0.18786 0.81665 0.0
O168 O 0.77408 0.26373 0.86441 0.0
C169 C 0.53977 0.94253 0.6067 0.0
O170 O 0.53079 0.94228 0.58981 0.0
O171 O 0.52438 0.00171 0.57686 0.0
Zn172 Zn 0.52837 0.00802 0.60361 0.0
O173 O 0.56386 0.0369 0.60797 0.0
C174 C 0.46291 0.01765 0.61012 0.0
O175 O 0.45956 0.99308 0.59995 0.0
O176 O 0.53894 0.96767 0.61551 0.0
C177 C 0.5641 0.06384 0.60126 0.0
O178 O 0.5406 0.07296 0.5915 0.0
C179 C 0.5076 0.01815 0.56667 0.0
O180 O 0.49138 0.04077 0.57365 0.0
O181 O 0.48988 0.02718 0.61378 0.0
C182 C 0.78912 0.79967 0.37589 0.0
O183 O 0.76524 0.79679 0.38666 0.0
O184 O 0.74876 0.77307 0.32288 0.0
Zn185 Zn 0.74481 0.78171 0.3493 0.0
O186 O 0.71678 0.818 0.35266 0.0
C187 C 0.72863 0.71796 0.35698 0.0
O188 O 0.74749 0.71168 0.34362 0.0
O189 O 0.78615 0.79284 0.35936 0.0
C190 C 0.68978 0.817 0.3461 0.0
O191 O 0.6813 0.79253 0.33692 0.0
C192 C 0.76561 0.79029 0.31315 0.0
O193 O 0.78046 0.81334 0.32067 0.0
O194 O 0.72519 0.74577 0.36195 0.0
C195 C 0.95922 0.05653 0.09753 0.0
O196 O 0.96724 0.05427 0.08052 0.0
O197 O 0.9872 0.99288 0.07247 0.0
Zn198 Zn 0.97379 0.99103 0.09845 0.0
O199 O 0.93661 0.96361 0.10068 0.0
C200 C 0.0358 0.97499 0.10948 0.0
O201 O 0.04374 0.99271 0.09589 0.0
O202 O 0.96163 0.03308 0.10771 0.0
C203 C 0.93675 0.93644 0.0943 0.0
O204 O 0.96143 0.92649 0.08582 0.0
C205 C 0.96753 0.99321 0.0598 0.0
O206 O 0.93803 0.99251 0.0638 0.0
O207 O 0.00743 0.97194 0.11335 0.0
C208 C 0.81308 0.70833 0.84994 0.0
O209 O 0.81206 0.71625 0.83288 0.0
O210 O 0.7517 0.73567 0.82346 0.0
Zn211 Zn 0.74795 0.7241 0.84958 0.0
O212 O 0.71899 0.68819 0.85205 0.0
C213 C 0.73184 0.78718 0.85825 0.0
O214 O 0.7487 0.79352 0.84401 0.0
O215 O 0.78905 0.71116 0.85962 0.0
C216 C 0.69225 0.68918 0.84513 0.0
O217 O 0.68394 0.7138 0.83605 0.0
C218 C 0.75102 0.71548 0.81106 0.0
O219 O 0.74784 0.68628 0.81539 0.0
O220 O 0.72944 0.75937 0.86344 0.0
C221 C 0.54179 0.56318 0.10408 0.0
O222 O 0.53113 0.56397 0.08753 0.0
O223 O 0.52093 0.50351 0.07474 0.0
Zn224 Zn 0.53135 0.49724 0.10086 0.0
O225 O 0.56759 0.46863 0.10275 0.0
C226 C 0.46878 0.47722 0.10656 0.0
O227 O 0.46417 0.4924 0.09149 0.0
O228 O 0.54282 0.5376 0.11242 0.0
C229 C 0.56699 0.44259 0.09492 0.0
O230 O 0.54259 0.43491 0.08546 0.0
C231 C 0.54114 0.50456 0.06236 0.0
O232 O 0.57038 0.50145 0.06655 0.0
O233 O 0.49553 0.4771 0.1135 0.0
C234 C 0.69268 0.28026 0.34581 0.0
O235 O 0.69105 0.2732 0.32863 0.0
O236 O 0.7491 0.25778 0.31493 0.0
Zn237 Zn 0.75748 0.26555 0.34119 0.0
O238 O 0.78598 0.30173 0.34433 0.0
C239 C 0.79279 0.21022 0.34103 0.0
O240 O 0.79313 0.21682 0.32377 0.0
O241 O 0.71811 0.27679 0.35408 0.0
C242 C 0.81231 0.30404 0.33695 0.0
O243 O 0.82193 0.28202 0.32617 0.0
C244 C 0.74978 0.27793 0.30254 0.0
O245 O 0.75557 0.30682 0.30664 0.0
O246 O 0.77815 0.22781 0.35177 0.0
C247 C 0.95887 0.43996 0.59922 0.0
O248 O 0.9677 0.44118 0.58232 0.0
O249 O 0.98323 0.5029 0.57256 0.0
Zn250 Zn 0.97007 0.50611 0.59851 0.0
O251 O 0.93246 0.53299 0.60037 0.0
C252 C 0.03194 0.52254 0.60944 0.0
O253 O 0.03995 0.50254 0.59699 0.0
O254 O 0.95933 0.46438 0.60871 0.0
C255 C 0.93194 0.55933 0.59289 0.0
O256 O 0.95602 0.56845 0.58356 0.0
C257 C 0.96352 0.50081 0.55997 0.0
O258 O 0.93404 0.50059 0.56403 0.0
O259 O 0.00353 0.52681 0.61273 0.0
C260 C 0.8061 0.29275 0.64595 0.0
O261 O 0.80338 0.28575 0.66309 0.0
O262 O 0.74229 0.26735 0.67131 0.0
Zn263 Zn 0.74042 0.28013 0.6453 0.0
O264 O 0.71305 0.3173 0.6428 0.0
C265 C 0.72449 0.21783 0.63581 0.0
O266 O 0.74338 0.21119 0.64907 0.0
O267 O 0.78263 0.29086 0.63576 0.0
C268 C 0.68603 0.3168 0.64942 0.0
O269 O 0.67675 0.2921 0.65811 0.0
C270 C 0.74178 0.28675 0.68413 0.0
O271 O 0.74036 0.31632 0.6804 0.0
O272 O 0.72082 0.24582 0.63126 0.0
C273 C 0.94992 0.54524 0.89546 0.0
O274 O 0.94452 0.53594 0.912 0.0
O275 O 0.98524 0.48987 0.92062 0.0
Zn276 Zn 0.97296 0.48487 0.89468 0.0
O277 O 0.93482 0.45834 0.89311 0.0
C278 C 0.00835 0.43404 0.88503 0.0
O279 O 0.987 0.42192 0.8954 0.0
O280 O 0.96335 0.52697 0.88459 0.0
C281 C 0.91194 0.46355 0.88289 0.0
O282 O 0.91195 0.48823 0.87264 0.0
C283 C 0.97266 0.47473 0.9333 0.0
O284 O 0.95155 0.45405 0.92945 0.0
O285 O 0.00766 0.46288 0.88196 0.0
C286 C 0.69812 0.70626 0.14998 0.0
O287 O 0.70858 0.70144 0.16633 0.0
O288 O 0.7597 0.73882 0.17242 0.0
Zn289 Zn 0.75937 0.72726 0.14618 0.0
O290 O 0.7834 0.6881 0.14226 0.0
C291 C 0.77339 0.78902 0.13326 0.0
O292 O 0.75161 0.7975 0.14454 0.0
O293 O 0.71578 0.71878 0.13842 0.0
C294 C 0.80078 0.67556 0.15392 0.0
O295 O 0.80374 0.68829 0.16987 0.0
C296 C 0.78045 0.75496 0.17994 0.0
O297 O 0.80362 0.76541 0.1703 0.0
O298 O 0.77949 0.76055 0.13147 0.0
C299 C 0.5642 0.44734 0.39595 0.0
O300 O 0.57068 0.45763 0.41214 0.0
O301 O 0.52552 0.5032 0.42079 0.0
Zn302 Zn 0.53714 0.50659 0.39455 0.0
O303 O 0.57321 0.53522 0.39118 0.0
C304 C 0.47358 0.52025 0.38601 0.0
O305 O 0.46801 0.50064 0.3991 0.0
O306 O 0.54891 0.46446 0.3853 0.0
C307 C 0.57007 0.56369 0.3948 0.0
O308 O 0.54356 0.57353 0.40116 0.0
C309 C 0.54212 0.5126 0.43377 0.0
O310 O 0.56871 0.52585 0.43038 0.0
O311 O 0.50128 0.52503 0.38118 0.0
C312 C 0.22258 0.32362 0.13914 0.0
O313 O 0.24221 0.33334 0.15134 0.0
O314 O 0.25812 0.26872 0.16786 0.0
Zn315 Zn 0.26509 0.2774 0.14163 0.0
O316 O 0.29901 0.30864 0.13789 0.0
C317 C 0.27164 0.21178 0.13328 0.0
O318 O 0.25457 0.20736 0.14768 0.0
O319 O 0.22652 0.29715 0.13216 0.0
C320 C 0.31504 0.32208 0.14988 0.0
O321 O 0.31087 0.31523 0.16694 0.0
C322 C 0.27721 0.25526 0.17814 0.0
O323 O 0.30375 0.2459 0.17158 0.0
O324 O 0.27735 0.23912 0.12813 0.0
C325 C 0.44578 0.46559 0.89949 0.0
O326 O 0.44169 0.4754 0.91605 0.0
O327 O 0.48715 0.52386 0.92211 0.0
Zn328 Zn 0.47264 0.52535 0.89635 0.0
O329 O 0.43685 0.55481 0.89435 0.0
C330 C 0.53497 0.5359 0.88431 0.0
O331 O 0.54154 0.51604 0.8971 0.0
O332 O 0.4596 0.48291 0.88827 0.0
C333 C 0.4116 0.54823 0.88658 0.0
O334 O 0.40799 0.52082 0.87936 0.0
C335 C 0.46994 0.53243 0.93504 0.0
O336 O 0.44204 0.5425 0.93154 0.0
O337 O 0.50694 0.54227 0.8811 0.0
C338 C 0.30007 0.70532 0.64411 0.0
O339 O 0.29888 0.71185 0.66137 0.0
O340 O 0.23877 0.73409 0.67084 0.0
Zn341 Zn 0.235 0.72118 0.64491 0.0
O342 O 0.20721 0.68431 0.6429 0.0
C343 C 0.21937 0.78367 0.63573 0.0
O344 O 0.23872 0.78994 0.64882 0.0
O345 O 0.27616 0.7091 0.63448 0.0
C346 C 0.18017 0.68435 0.64948 0.0
O347 O 0.17042 0.70886 0.6582 0.0
C348 C 0.2382 0.71506 0.68384 0.0
O349 O 0.23547 0.68547 0.68042 0.0
O350 O 0.21521 0.75576 0.63113 0.0
C351 C 0.03604 0.5445 0.39354 0.0
O352 O 0.02632 0.54228 0.41024 0.0
O353 O 0.01038 0.47999 0.41841 0.0
Zn354 Zn 0.0233 0.47861 0.39236 0.0
O355 O 0.06036 0.45125 0.38966 0.0
C356 C 0.96126 0.46146 0.38206 0.0
O357 O 0.95358 0.47785 0.39625 0.0
O358 O 0.03529 0.52085 0.38341 0.0
C359 C 0.06055 0.42418 0.39618 0.0
O360 O 0.03638 0.41441 0.4052 0.0
C361 C 0.03013 0.48091 0.43102 0.0
O362 O 0.05961 0.48095 0.42696 0.0
O363 O 0.98945 0.45972 0.37753 0.0
C364 C 0.19523 0.6931 0.35499 0.0
O365 O 0.20101 0.69824 0.33789 0.0
O366 O 0.25825 0.7283 0.33348 0.0
Zn367 Zn 0.25866 0.71221 0.35895 0.0
O368 O 0.28785 0.67625 0.36089 0.0
C369 C 0.26873 0.77399 0.37145 0.0
O370 O 0.2492 0.78047 0.35849 0.0
O371 O 0.21614 0.69837 0.36659 0.0
C372 C 0.31555 0.67918 0.35556 0.0
O373 O 0.3244 0.70559 0.3486 0.0
C374 C 0.26345 0.71128 0.31988 0.0
O375 O 0.26901 0.6818 0.32229 0.0
O376 O 0.27501 0.74596 0.37478 0.0
C377 C 0.06692 0.47862 0.09967 0.0
O378 O 0.07545 0.50067 0.0886 0.0
O379 O 0.00717 0.51502 0.0738 0.0
Zn380 Zn 0.01795 0.51879 0.09996 0.0
O381 O 0.04696 0.5543 0.10422 0.0
C382 C 0.95306 0.5247 0.10826 0.0
O383 O 0.94962 0.51407 0.09182 0.0
O384 O 0.04051 0.48019 0.10702 0.0
C385 C 0.05825 0.55594 0.11997 0.0
O386 O 0.04981 0.53541 0.13203 0.0
C387 C 0.02073 0.52973 0.06131 0.0
O388 O 0.0425 0.54958 0.06541 0.0
O389 O 0.98 0.5268 0.11484 0.0
C390 C 0.31015 0.30034 0.85207 0.0
O391 O 0.31162 0.29137 0.8352 0.0
O392 O 0.25594 0.26721 0.8236 0.0
Zn393 Zn 0.24805 0.27606 0.84987 0.0
O394 O 0.21281 0.30643 0.85205 0.0
C395 C 0.23441 0.21095 0.85604 0.0
O396 O 0.24504 0.20716 0.83961 0.0
O397 O 0.28568 0.29534 0.86107 0.0
C398 C 0.18553 0.29635 0.85422 0.0
O399 O 0.18084 0.26644 0.85468 0.0
C400 C 0.23422 0.26556 0.81218 0.0
O401 O 0.20563 0.26894 0.81763 0.0
O402 O 0.23546 0.23754 0.86319 0.0
C403 C 0.44294 0.54668 0.59756 0.0
O404 O 0.43921 0.53695 0.58095 0.0
O405 O 0.48611 0.49232 0.57417 0.0
Zn406 Zn 0.47094 0.48796 0.59971 0.0
O407 O 0.43521 0.4582 0.60053 0.0
C408 C 0.53313 0.47526 0.61134 0.0
O409 O 0.54024 0.49495 0.59855 0.0
O410 O 0.45709 0.52954 0.60871 0.0
C411 C 0.41087 0.46281 0.60969 0.0
O412 O 0.40815 0.48834 0.61908 0.0
C413 C 0.47606 0.4756 0.5614 0.0
O414 O 0.45537 0.45429 0.56486 0.0
O415 O 0.50493 0.46991 0.61474 0.0
H416 H 0.06838 0.36477 0.40778 0.0
H417 H 0.21999 0.33719 0.34851 0.0
H418 H 0.11256 0.43601 0.37638 0.0
H419 H 0.17627 0.26655 0.38059 0.0
H420 H 0.18346 0.37484 0.36055 0.0
H421 H 0.11017 0.32956 0.39989 0.0
C422 C 0.08695 0.37308 0.39931 0.0
C423 C 0.08681 0.40331 0.39261 0.0
C424 C 0.18201 0.35115 0.36506 0.0
C425 C 0.13473 0.36307 0.38346 0.0
C426 C 0.2029 0.32963 0.3582 0.0
C427 C 0.20104 0.2986 0.36342 0.0
C428 C 0.15903 0.34154 0.37718 0.0
C429 C 0.17847 0.29018 0.37607 0.0
C430 C 0.11084 0.35295 0.39482 0.0
C431 C 0.11161 0.41284 0.38178 0.0
N432 N 0.15823 0.31147 0.38241 0.0
N433 N 0.13444 0.39273 0.37744 0.0
H434 H 0.95453 0.93903 0.63502 0.0
H435 H 0.78549 0.88286 0.60721 0.0
H436 H 0.90112 0.98113 0.59261 0.0
H437 H 0.84044 0.83983 0.64862 0.0
H438 H 0.82555 0.922 0.60345 0.0
H439 H 0.91084 0.90576 0.64211 0.0
C440 C 0.93352 0.94149 0.6273 0.0
C441 C 0.9316 0.96274 0.61309 0.0
C442 C 0.82876 0.90409 0.61342 0.0
C443 C 0.88148 0.92448 0.62106 0.0
C444 C 0.80589 0.88172 0.61558 0.0
C445 C 0.80972 0.85786 0.62815 0.0
C446 C 0.85566 0.90258 0.6239 0.0
C447 C 0.83658 0.85764 0.63867 0.0
C448 C 0.90857 0.92242 0.63133 0.0
C449 C 0.90371 0.96497 0.60361 0.0
N450 N 0.85856 0.87955 0.63624 0.0
N451 N 0.87983 0.9459 0.60767 0.0
H452 H 0.35599 0.54325 0.86935 0.0
H453 H 0.3127 0.72061 0.88449 0.0
H454 H 0.41137 0.6069 0.90019 0.0
H455 H 0.25883 0.65822 0.85191 0.0
H456 H 0.3459 0.67771 0.89314 0.0
H457 H 0.3173 0.58361 0.86537 0.0
C458 C 0.35995 0.56565 0.87537 0.0
C459 C 0.38711 0.57178 0.88497 0.0
C460 C 0.32667 0.67334 0.88422 0.0
C461 C 0.34291 0.61808 0.88047 0.0
C462 C 0.30763 0.69783 0.8793 0.0
C463 C 0.2831 0.69308 0.86731 0.0
C464 C 0.32123 0.64386 0.87705 0.0
C465 C 0.27759 0.66301 0.86109 0.0
C466 C 0.33784 0.58868 0.8731 0.0
C467 C 0.39091 0.60119 0.89256 0.0
N468 N 0.29668 0.63959 0.86591 0.0
N469 N 0.36915 0.62328 0.89005 0.0
H470 H 0.51967 0.06314 0.1302 0.0
H471 H 0.69031 0.12981 0.11722 0.0
H472 H 0.58547 0.02551 0.09246 0.0
H473 H 0.6204 0.17356 0.14983 0.0
H474 H 0.65425 0.08802 0.11059 0.0
H475 H 0.55846 0.10004 0.14024 0.0
C476 C 0.54236 0.06243 0.12412 0.0
C477 C 0.54923 0.04132 0.11035 0.0
C478 C 0.64686 0.1067 0.11926 0.0
C479 C 0.59376 0.08371 0.12175 0.0
C480 C 0.66743 0.13057 0.12307 0.0
C481 C 0.65829 0.15537 0.134 0.0
C482 C 0.61692 0.10756 0.12646 0.0
C483 C 0.6284 0.15503 0.14124 0.0
C484 C 0.56449 0.0836 0.12984 0.0
C485 C 0.57909 0.04147 0.10304 0.0
N486 N 0.60877 0.13158 0.13729 0.0
N487 N 0.6002 0.06246 0.10876 0.0
H488 H 0.18552 0.71098 0.12069 0.0
H489 H 0.08501 0.56598 0.15265 0.0
H490 H 0.17605 0.68113 0.1759 0.0
H491 H 0.08314 0.6008 0.09817 0.0
H492 H 0.12193 0.60591 0.16061 0.0
H493 H 0.15173 0.66846 0.11135 0.0
C494 C 0.17655 0.69538 0.13081 0.0
C495 C 0.18348 0.69969 0.14911 0.0
C496 C 0.1135 0.60488 0.1469 0.0
C497 C 0.14493 0.65124 0.13857 0.0
C498 C 0.09236 0.58204 0.14233 0.0
C499 C 0.08082 0.58013 0.12474 0.0
C500 C 0.12331 0.62607 0.13378 0.0
C501 C 0.09134 0.60154 0.11193 0.0
C502 C 0.15719 0.67123 0.12549 0.0
C503 C 0.17119 0.67886 0.16166 0.0
N504 N 0.11199 0.62369 0.11672 0.0
N505 N 0.15252 0.65564 0.15616 0.0
H506 H 0.52167 0.9177 0.36417 0.0
H507 H 0.6996 0.8707 0.36472 0.0
H508 H 0.59226 0.97205 0.39006 0.0
H509 H 0.6292 0.82023 0.33611 0.0
H510 H 0.66138 0.90983 0.37261 0.0
H511 H 0.56138 0.88365 0.35222 0.0
C512 C 0.54556 0.92261 0.36726 0.0
C513 C 0.55363 0.94765 0.37827 0.0
C514 C 0.65435 0.89031 0.3645 0.0
C515 C 0.59931 0.90854 0.36467 0.0
C516 C 0.67616 0.86793 0.35999 0.0
C517 C 0.66753 0.842 0.34985 0.0
C518 C 0.62366 0.88666 0.3589 0.0
C519 C 0.63687 0.83973 0.34403 0.0
C520 C 0.56826 0.90313 0.36041 0.0
C521 C 0.58499 0.95296 0.38169 0.0
N522 N 0.61601 0.86164 0.34874 0.0
N523 N 0.60668 0.9334 0.37504 0.0
H524 H 0.25976 0.34814 0.64486 0.0
H525 H 0.40964 0.40707 0.59237 0.0
H526 H 0.31542 0.29044 0.61036 0.0
H527 H 0.35726 0.46351 0.62927 0.0
H528 H 0.37169 0.36598 0.59597 0.0
H529 H 0.29129 0.39246 0.63632 0.0
C530 C 0.27837 0.34483 0.63533 0.0
C531 C 0.28515 0.31543 0.62847 0.0
C532 C 0.36837 0.38742 0.60319 0.0
C533 C 0.32149 0.36607 0.61873 0.0
C534 C 0.39006 0.41092 0.60115 0.0
C535 C 0.38682 0.43868 0.61069 0.0
C536 C 0.34325 0.39164 0.61489 0.0
C537 C 0.36083 0.44241 0.62176 0.0
C538 C 0.29643 0.37016 0.63049 0.0
C539 C 0.30949 0.3126 0.6161 0.0
N540 N 0.34017 0.41907 0.62365 0.0
N541 N 0.32693 0.33754 0.61175 0.0
H542 H 0.90576 0.03178 0.89153 0.0
H543 H 0.87303 0.18513 0.83472 0.0
H544 H 0.97432 0.07743 0.85883 0.0
H545 H 0.80491 0.13991 0.86793 0.0
H546 H 0.90936 0.14373 0.84155 0.0
H547 H 0.86735 0.06876 0.88102 0.0
C548 C 0.9127 0.04939 0.88201 0.0
C549 C 0.94339 0.05162 0.87617 0.0
C550 C 0.88641 0.14279 0.84727 0.0
C551 C 0.89953 0.09422 0.86417 0.0
C552 C 0.86565 0.16645 0.84338 0.0
C553 C 0.83593 0.16614 0.85086 0.0
C554 C 0.87744 0.11863 0.85875 0.0
C555 C 0.82763 0.14123 0.86194 0.0
C556 C 0.89075 0.07056 0.87604 0.0
C557 C 0.95098 0.0749 0.86378 0.0
N558 N 0.84831 0.11858 0.86561 0.0
N559 N 0.92926 0.09541 0.8583 0.0
H560 H 0.92357 0.61736 0.57925 0.0
H561 H 0.77315 0.6499 0.63851 0.0
H562 H 0.87989 0.54897 0.61294 0.0
H563 H 0.81722 0.71823 0.60493 0.0
H564 H 0.80847 0.611 0.62664 0.0
H565 H 0.88157 0.653 0.58599 0.0
C566 C 0.90505 0.60975 0.58797 0.0
C567 C 0.90543 0.58023 0.59569 0.0
C568 C 0.81021 0.63444 0.62174 0.0
C569 C 0.85726 0.62098 0.60351 0.0
C570 C 0.78999 0.65667 0.62848 0.0
C571 C 0.79243 0.68747 0.62287 0.0
C572 C 0.83312 0.64308 0.60933 0.0
C573 C 0.81464 0.69483 0.60977 0.0
C574 C 0.88104 0.63012 0.5918 0.0
C575 C 0.88067 0.57158 0.60679 0.0
N576 N 0.8343 0.67288 0.60359 0.0
N577 N 0.85773 0.59194 0.61048 0.0
H578 H 0.15961 0.1466 0.33917 0.0
H579 H 0.10507 0.00294 0.39866 0.0
H580 H 0.21769 0.10081 0.37804 0.0
H581 H 0.0455 0.05338 0.36264 0.0
H582 H 0.14878 0.03342 0.38791 0.0
H583 H 0.11985 0.10779 0.34439 0.0
C584 C 0.16412 0.12825 0.3487 0.0
C585 C 0.1919 0.12719 0.35835 0.0
C586 C 0.12619 0.03757 0.38222 0.0
C587 C 0.14638 0.08268 0.36443 0.0
C588 C 0.10123 0.02009 0.3883 0.0
C589 C 0.07149 0.02587 0.38171 0.0
C590 C 0.12137 0.06099 0.36946 0.0
C591 C 0.06795 0.04835 0.36826 0.0
C592 C 0.14139 0.10607 0.35168 0.0
C593 C 0.19652 0.10271 0.37042 0.0
N594 N 0.09252 0.06527 0.36271 0.0
N595 N 0.17389 0.08158 0.37323 0.0
H596 H 0.62032 0.45073 0.11406 0.0
H597 H 0.67714 0.27724 0.09917 0.0
H598 H 0.57259 0.38454 0.08078 0.0
H599 H 0.72303 0.3423 0.13408 0.0
H600 H 0.64205 0.31801 0.08959 0.0
H601 H 0.66118 0.41301 0.11903 0.0
C602 C 0.61849 0.42832 0.10771 0.0
C603 C 0.59282 0.42069 0.09712 0.0
C604 C 0.65996 0.32345 0.09923 0.0
C605 C 0.63957 0.37736 0.10277 0.0
C606 C 0.68008 0.30019 0.10468 0.0
C607 C 0.7029 0.30628 0.11759 0.0
C608 C 0.66258 0.35303 0.10677 0.0
C609 C 0.70567 0.33649 0.12418 0.0
C610 C 0.64187 0.40679 0.11055 0.0
C611 C 0.59183 0.39136 0.08915 0.0
N612 N 0.68556 0.35867 0.11882 0.0
N613 N 0.61476 0.37071 0.09223 0.0
H614 H 0.40451 0.9811 0.88425 0.0
H615 H 0.37113 0.82022 0.83508 0.0
H616 H 0.47458 0.9253 0.85886 0.0
H617 H 0.30184 0.87203 0.86387 0.0
H618 H 0.40812 0.86144 0.84084 0.0
H619 H 0.36539 0.94458 0.87387 0.0
C620 C 0.41165 0.9614 0.87631 0.0
C621 C 0.44292 0.95612 0.87256 0.0
C622 C 0.38479 0.86389 0.84583 0.0
C623 C 0.39829 0.91414 0.86075 0.0
C624 C 0.36363 0.84033 0.84254 0.0
C625 C 0.33339 0.84253 0.84913 0.0
C626 C 0.3757 0.88989 0.8558 0.0
C627 C 0.32497 0.86925 0.85863 0.0
C628 C 0.3893 0.94049 0.87045 0.0
C629 C 0.45079 0.93019 0.8622 0.0
N630 N 0.34606 0.8918 0.86176 0.0
N631 N 0.42867 0.91009 0.85678 0.0
H632 H 0.86031 0.46562 0.86162 0.0
H633 H 0.81052 0.29303 0.88552 0.0
H634 H 0.90625 0.40915 0.90123 0.0
H635 H 0.76192 0.35026 0.84739 0.0
H636 H 0.84282 0.33704 0.89345 0.0
H637 H 0.82131 0.42539 0.85808 0.0
C638 C 0.86209 0.44489 0.86967 0.0
C639 C 0.88677 0.44065 0.88161 0.0
C640 C 0.8249 0.34008 0.88347 0.0
C641 C 0.84225 0.39446 0.87759 0.0
C642 C 0.8064 0.31494 0.87894 0.0
C643 C 0.78365 0.31786 0.86564 0.0
C644 C 0.82079 0.36834 0.87455 0.0
C645 C 0.77929 0.34687 0.85765 0.0
C646 C 0.83979 0.42192 0.86765 0.0
C647 C 0.88778 0.41335 0.89176 0.0
N648 N 0.7979 0.37091 0.8621 0.0
N649 N 0.866 0.39123 0.88942 0.0
H650 H 0.34695 0.16605 0.64763 0.0
H651 H 0.40241 0.00944 0.60051 0.0
H652 H 0.28877 0.11121 0.61301 0.0
H653 H 0.46185 0.06874 0.63172 0.0
H654 H 0.35909 0.04367 0.60724 0.0
H655 H 0.38791 0.12803 0.64408 0.0
C656 C 0.34273 0.14596 0.63932 0.0
C657 C 0.31441 0.14194 0.6305 0.0
C658 C 0.38158 0.04906 0.61271 0.0
C659 C 0.36133 0.09822 0.62639 0.0
C660 C 0.40631 0.02947 0.60892 0.0
C661 C 0.43586 0.03632 0.61546 0.0
C662 C 0.38643 0.07566 0.62313 0.0
C663 C 0.43952 0.06261 0.62629 0.0
C664 C 0.36616 0.12423 0.6373 0.0
C665 C 0.31027 0.11535 0.61998 0.0
N666 N 0.41516 0.08137 0.6297 0.0
N667 N 0.33352 0.09456 0.61816 0.0
H668 H 0.72877 0.65598 0.3495 0.0
H669 H 0.57274 0.62482 0.40365 0.0
H670 H 0.68287 0.72454 0.38207 0.0
H671 H 0.62524 0.5526 0.37793 0.0
H672 H 0.61366 0.66136 0.39637 0.0
H673 H 0.69217 0.61731 0.36039 0.0
C674 C 0.7112 0.66286 0.35906 0.0
C675 C 0.70878 0.69361 0.36477 0.0
C676 C 0.61635 0.63749 0.39241 0.0
C677 C 0.66667 0.64954 0.37717 0.0
C678 C 0.59294 0.6166 0.39654 0.0
C679 C 0.59547 0.58563 0.3913 0.0
C680 C 0.64244 0.62743 0.38285 0.0
C681 C 0.62227 0.57629 0.38218 0.0
C682 C 0.69029 0.64077 0.36526 0.0
C683 C 0.68557 0.70115 0.37722 0.0
N684 N 0.64461 0.59715 0.37813 0.0
N685 N 0.66529 0.67935 0.38287 0.0
H686 H 0.12431 0.82916 0.16912 0.0
H687 H 0.09815 0.97316 0.10356 0.0
H688 H 0.19585 0.86872 0.1359 0.0
H689 H 0.02667 0.93348 0.13677 0.0
H690 H 0.13539 0.93807 0.11726 0.0
H691 H 0.08935 0.87 0.15939 0.0
C692 C 0.13275 0.84655 0.15988 0.0
C693 C 0.163 0.84534 0.15321 0.0
C694 C 0.1116 0.93719 0.12165 0.0
C695 C 0.12303 0.89216 0.14195 0.0
C696 C 0.09031 0.95727 0.11384 0.0
C697 C 0.05916 0.95611 0.11891 0.0
C698 C 0.10168 0.91571 0.13458 0.0
C699 C 0.0504 0.93509 0.13236 0.0
C700 C 0.11276 0.86988 0.15432 0.0
C701 C 0.17268 0.8686 0.14132 0.0
N702 N 0.07149 0.91559 0.13963 0.0
N703 N 0.1527 0.89091 0.13598 0.0
H704 H 0.72713 0.84809 0.8488 0.0
H705 H 0.58592 0.87968 0.91571 0.0
H706 H 0.69267 0.78137 0.88701 0.0
H707 H 0.61772 0.94501 0.87594 0.0
H708 H 0.62845 0.8455 0.90759 0.0
H709 H 0.69101 0.88604 0.8609 0.0
C710 C 0.71221 0.84149 0.85986 0.0
C711 C 0.71274 0.81139 0.86677 0.0
C712 C 0.62624 0.8674 0.90072 0.0
C713 C 0.67118 0.85469 0.88061 0.0
C714 C 0.60195 0.88694 0.90535 0.0
C715 C 0.59806 0.91514 0.89638 0.0
C716 C 0.6468 0.87606 0.88699 0.0
C717 C 0.61967 0.92339 0.88313 0.0
C718 C 0.69153 0.86317 0.86673 0.0
C719 C 0.69293 0.80423 0.88115 0.0
N720 N 0.64298 0.90386 0.87876 0.0
N721 N 0.67281 0.82563 0.88749 0.0
H722 H 0.4124 0.46448 0.09199 0.0
H723 H 0.3601 0.34925 0.1704 0.0
H724 H 0.46903 0.44514 0.13842 0.0
H725 H 0.32003 0.35041 0.11719 0.0
H726 H 0.39632 0.38954 0.16091 0.0
H727 H 0.37389 0.42836 0.10334 0.0
C728 C 0.41663 0.45287 0.10466 0.0
C729 C 0.4441 0.45768 0.1142 0.0
C730 C 0.37956 0.38093 0.15136 0.0
C731 C 0.40009 0.41621 0.12724 0.0
C732 C 0.35889 0.35799 0.15675 0.0
C733 C 0.33715 0.34633 0.14454 0.0
C734 C 0.37816 0.39249 0.1337 0.0
C735 C 0.33656 0.35853 0.12703 0.0
C736 C 0.39468 0.43213 0.11109 0.0
C737 C 0.44827 0.44198 0.13057 0.0
N738 N 0.35671 0.38096 0.12216 0.0
N739 N 0.42652 0.42185 0.13655 0.0
H740 H 0.90905 0.04945 0.3468 0.0
H741 H 0.80676 0.19486 0.37606 0.0
H742 H 0.90863 0.08636 0.40083 0.0
H743 H 0.81981 0.16497 0.32109 0.0
H744 H 0.83954 0.15218 0.38616 0.0
H745 H 0.87185 0.08865 0.33793 0.0
C746 C 0.90106 0.06574 0.35683 0.0
C747 C 0.91213 0.06472 0.37456 0.0
C748 C 0.83508 0.15495 0.37191 0.0
C749 C 0.86942 0.10978 0.36447 0.0
C750 C 0.8163 0.17922 0.36614 0.0
C751 C 0.81069 0.18358 0.3477 0.0
C752 C 0.84811 0.13487 0.35913 0.0
C753 C 0.82367 0.16265 0.33544 0.0
C754 C 0.87981 0.08817 0.35174 0.0
C755 C 0.90083 0.0864 0.38698 0.0
N756 N 0.84178 0.13929 0.34137 0.0
N757 N 0.88013 0.10812 0.38169 0.0
H758 H 0.12047 0.67718 0.66082 0.0
H759 H 0.09447 0.52253 0.60411 0.0
H760 H 0.1924 0.63123 0.63086 0.0
H761 H 0.02268 0.5683 0.63428 0.0
H762 H 0.1318 0.55937 0.61609 0.0
H763 H 0.08542 0.63493 0.65348 0.0
C764 C 0.12897 0.65812 0.6528 0.0
C765 C 0.15935 0.6579 0.64631 0.0
C766 C 0.10792 0.5612 0.62021 0.0
C767 C 0.1193 0.60948 0.6378 0.0
C768 C 0.08659 0.54013 0.61338 0.0
C769 C 0.05533 0.54249 0.61805 0.0
C770 C 0.09792 0.58489 0.63174 0.0
C771 C 0.0465 0.56571 0.6302 0.0
C772 C 0.10893 0.63398 0.64861 0.0
C773 C 0.16912 0.6325 0.63605 0.0
N774 N 0.06763 0.58614 0.63649 0.0
N775 N 0.1491 0.60943 0.63201 0.0
H776 H 0.61576 0.05298 0.6215 0.0
H777 H 0.68091 0.22428 0.60944 0.0
H778 H 0.57206 0.12268 0.58881 0.0
H779 H 0.72221 0.15645 0.64446 0.0
H780 H 0.64403 0.18557 0.59928 0.0
H781 H 0.65771 0.08894 0.62786 0.0
C782 C 0.61502 0.0758 0.6156 0.0
C783 C 0.59023 0.08491 0.60471 0.0
C784 C 0.6613 0.17907 0.60909 0.0
C785 C 0.63821 0.12616 0.61192 0.0
C786 C 0.68245 0.20116 0.61487 0.0
C787 C 0.70454 0.19369 0.62796 0.0
C788 C 0.66216 0.14928 0.61647 0.0
C789 C 0.70548 0.1633 0.63443 0.0
C790 C 0.63901 0.09632 0.61923 0.0
C791 C 0.5906 0.11471 0.59737 0.0
N792 N 0.68442 0.14227 0.62872 0.0
N793 N 0.61413 0.13431 0.60117 0.0
H794 H 0.1859 0.3598 0.85375 0.0
H795 H 0.00969 0.37145 0.884 0.0
H796 H 0.12532 0.28157 0.86017 0.0
H797 H 0.06393 0.45152 0.87026 0.0
H798 H 0.05214 0.33853 0.87468 0.0
H799 H 0.14202 0.39419 0.85919 0.0
C800 C 0.16339 0.34986 0.85622 0.0
C801 C 0.15932 0.31774 0.85663 0.0
C802 C 0.05481 0.36328 0.87357 0.0
C803 C 0.10918 0.35687 0.86286 0.0
C804 C 0.03054 0.38213 0.87893 0.0
C805 C 0.03335 0.41429 0.87801 0.0
C806 C 0.08235 0.37659 0.86739 0.0
C807 C 0.06083 0.42681 0.87119 0.0
C808 C 0.13837 0.3695 0.85928 0.0
C809 C 0.12964 0.30614 0.85981 0.0
N810 N 0.08445 0.4079 0.86628 0.0
N811 N 0.10581 0.32567 0.8629 0.0
H812 H 0.92993 0.87654 0.08332 0.0
H813 H 0.77202 0.85191 0.13721 0.0
H814 H 0.88291 0.94911 0.11215 0.0
H815 H 0.8209 0.77906 0.10971 0.0
H816 H 0.80933 0.88905 0.12543 0.0
H817 H 0.88733 0.84171 0.09026 0.0
C818 C 0.91057 0.88522 0.09101 0.0
C819 C 0.91014 0.91572 0.0973 0.0
C820 C 0.81173 0.86497 0.12185 0.0
C821 C 0.86127 0.87591 0.10534 0.0
C822 C 0.79037 0.84375 0.12854 0.0
C823 C 0.79349 0.81226 0.12459 0.0
C824 C 0.8364 0.85462 0.11116 0.0
C825 C 0.81771 0.80306 0.11324 0.0
C826 C 0.88622 0.8653 0.09497 0.0
C827 C 0.88433 0.92572 0.10713 0.0
N828 N 0.83835 0.82409 0.10705 0.0
N829 N 0.86104 0.90581 0.11095 0.0
H830 H 0.41192 0.51795 0.39405 0.0
H831 H 0.37528 0.67662 0.34382 0.0
H832 H 0.47819 0.56752 0.3617 0.0
H833 H 0.30658 0.62346 0.37224 0.0
H834 H 0.41252 0.63539 0.3489 0.0
H835 H 0.37217 0.55449 0.3847 0.0
C836 C 0.41806 0.5363 0.38483 0.0
C837 C 0.44852 0.5398 0.37877 0.0
C838 C 0.38926 0.63263 0.35394 0.0
C839 C 0.40316 0.58189 0.36815 0.0
C840 C 0.36797 0.65622 0.35106 0.0
C841 C 0.33781 0.65361 0.35772 0.0
C842 C 0.38042 0.60626 0.36364 0.0
C843 C 0.32962 0.62653 0.36693 0.0
C844 C 0.39534 0.5572 0.37951 0.0
C845 C 0.45507 0.56398 0.36679 0.0
N846 N 0.35087 0.60401 0.36973 0.0
N847 N 0.43266 0.58424 0.36201 0.0
H848 H 0.40823 0.1081 0.07516 0.0
H849 H 0.27285 0.15117 0.14389 0.0
H850 H 0.37563 0.04684 0.11688 0.0
H851 H 0.30818 0.21304 0.10324 0.0
H852 H 0.30578 0.11031 0.13183 0.0
H853 H 0.36752 0.14448 0.08305 0.0
C854 C 0.3924 0.10219 0.08591 0.0
C855 C 0.39556 0.07451 0.0955 0.0
C856 C 0.30608 0.13275 0.12545 0.0
C857 C 0.34887 0.11615 0.10464 0.0
C858 C 0.2872 0.15607 0.13228 0.0
C859 C 0.288 0.18569 0.1247 0.0
C860 C 0.32591 0.13911 0.11093 0.0
C861 C 0.30701 0.19065 0.10965 0.0
C862 C 0.36912 0.12299 0.09041 0.0
C863 C 0.37421 0.06802 0.10922 0.0
N864 N 0.32538 0.1677 0.10337 0.0
N865 N 0.35191 0.0888 0.11347 0.0
H866 H 0.59726 0.53227 0.89006 0.0
H867 H 0.6331 0.68405 0.83266 0.0
H868 H 0.52912 0.58084 0.85865 0.0
H869 H 0.70119 0.63611 0.86443 0.0
H870 H 0.59598 0.6434 0.83955 0.0
H871 H 0.63692 0.56671 0.87817 0.0
C872 C 0.59067 0.54993 0.88051 0.0
C873 C 0.55975 0.55388 0.87551 0.0
C874 C 0.6191 0.64165 0.84492 0.0
C875 C 0.60502 0.59355 0.86195 0.0
C876 C 0.64032 0.66489 0.84099 0.0
C877 C 0.67022 0.66366 0.84812 0.0
C878 C 0.62779 0.61703 0.8561 0.0
C879 C 0.67832 0.63814 0.85875 0.0
C880 C 0.61334 0.56965 0.87375 0.0
C881 C 0.55262 0.5771 0.86301 0.0
N882 N 0.65716 0.61596 0.86252 0.0
N883 N 0.57503 0.59622 0.85679 0.0
H884 H 0.21826 0.8449 0.6447 0.0
H885 H 0.07065 0.88179 0.58379 0.0
H886 H 0.17536 0.77835 0.60945 0.0
H887 H 0.10872 0.94509 0.62277 0.0
H888 H 0.11196 0.84538 0.59071 0.0
H889 H 0.18176 0.88379 0.63426 0.0
C890 C 0.20137 0.83852 0.63463 0.0
C891 C 0.19972 0.80823 0.62805 0.0
C892 C 0.11133 0.86729 0.59769 0.0
C893 C 0.15769 0.85264 0.61613 0.0
C894 C 0.08774 0.8881 0.59375 0.0
C895 C 0.08608 0.91645 0.6028 0.0
C896 C 0.13346 0.8749 0.61076 0.0
C897 C 0.10895 0.92341 0.61553 0.0
C898 C 0.18046 0.86074 0.62872 0.0
C899 C 0.17738 0.80136 0.61498 0.0
N900 N 0.13161 0.90275 0.61917 0.0
N901 N 0.15712 0.82334 0.60954 0.0
H902 H 0.97009 0.42217 0.3536 0.0
H903 H 0.79945 0.35303 0.35895 0.0
H904 H 0.89956 0.45652 0.38944 0.0
H905 H 0.87125 0.31525 0.32522 0.0
H906 H 0.83425 0.39446 0.36788 0.0
H907 H 0.93263 0.38653 0.34062 0.0
C908 C 0.94665 0.42246 0.35863 0.0
C909 C 0.93803 0.44221 0.37276 0.0
C910 C 0.84236 0.37723 0.35844 0.0
C911 C 0.89506 0.40127 0.358 0.0
C912 C 0.82249 0.35352 0.35333 0.0
C913 C 0.83253 0.33043 0.34143 0.0
C914 C 0.87257 0.3779 0.35165 0.0
C915 C 0.86258 0.33243 0.33451 0.0
C916 C 0.92528 0.40202 0.35123 0.0
C917 C 0.9073 0.44159 0.37866 0.0
N918 N 0.8816 0.35563 0.33981 0.0
N919 N 0.887 0.42129 0.37134 0.0
H920 H 0.2667 0.83599 0.36452 0.0
H921 H 0.41719 0.87144 0.42304 0.0
H922 H 0.31254 0.7685 0.39779 0.0
H923 H 0.37658 0.93614 0.3858 0.0
H924 H 0.3747 0.83587 0.41727 0.0
H925 H 0.30209 0.87536 0.37572 0.0
C926 C 0.28393 0.82951 0.37436 0.0
C927 C 0.28689 0.7988 0.38006 0.0
C928 C 0.37497 0.85794 0.41046 0.0
C929 C 0.32764 0.84373 0.39281 0.0
C930 C 0.39924 0.87828 0.41375 0.0
C931 C 0.40064 0.90668 0.40474 0.0
C932 C 0.35192 0.86604 0.39806 0.0
C933 C 0.3766 0.91437 0.39293 0.0
C934 C 0.30421 0.852 0.3807 0.0
C935 C 0.30958 0.79182 0.39289 0.0
N936 N 0.35334 0.89407 0.38984 0.0
N937 N 0.32926 0.81404 0.39871 0.0
H938 H 0.95209 0.54979 0.14216 0.0
H939 H 0.79581 0.64002 0.12362 0.0
H940 H 0.89449 0.53386 0.09569 0.0
H941 H 0.84745 0.64841 0.17305 0.0
H942 H 0.82918 0.59754 0.11451 0.0
H943 H 0.91151 0.58178 0.1552 0.0
C944 C 0.93073 0.55263 0.13481 0.0
C945 C 0.92687 0.53948 0.11767 0.0
C946 C 0.83306 0.60844 0.12743 0.0
C947 C 0.88046 0.57639 0.13245 0.0
C948 C 0.81405 0.63279 0.13262 0.0
C949 C 0.81909 0.64805 0.14903 0.0
C950 C 0.85751 0.59943 0.13863 0.0
C951 C 0.84287 0.63745 0.16023 0.0
C952 C 0.90757 0.57095 0.14226 0.0
C953 C 0.89861 0.54376 0.10885 0.0
N954 N 0.86143 0.61402 0.15473 0.0
N955 N 0.87666 0.5622 0.11623 0.0
H956 H 0.20357 0.21341 0.88821 0.0
H957 H 0.11842 0.05204 0.87275 0.0
H958 H 0.22351 0.1523 0.84377 0.0
H959 H 0.09032 0.11922 0.91243 0.0
H960 H 0.16212 0.08488 0.86481 0.0
H961 H 0.16765 0.17529 0.9002 0.0
C962 C 0.20075 0.1918 0.88109 0.0
C963 C 0.21636 0.18621 0.86483 0.0
C964 C 0.1465 0.09234 0.87533 0.0
C965 C 0.17499 0.14254 0.87845 0.0
C966 C 0.12154 0.0736 0.87989 0.0
C967 C 0.10047 0.08304 0.89316 0.0
C968 C 0.15051 0.12072 0.88412 0.0
C969 C 0.10581 0.11113 0.90201 0.0
C970 C 0.1801 0.17008 0.88792 0.0
C971 C 0.21181 0.15771 0.85627 0.0
N972 N 0.1302 0.12905 0.89726 0.0
N973 N 0.19133 0.13706 0.86309 0.0
H974 H 0.59546 0.47697 0.60531 0.0
H975 H 0.62689 0.32321 0.66173 0.0
H976 H 0.52605 0.42999 0.63673 0.0
H977 H 0.69658 0.36998 0.63043 0.0
H978 H 0.59092 0.3649 0.65502 0.0
H979 H 0.6341 0.44109 0.61682 0.0
C980 C 0.58838 0.45934 0.61478 0.0
C981 C 0.55738 0.45631 0.61991 0.0
C982 C 0.61414 0.36616 0.64971 0.0
C983 C 0.60149 0.41499 0.63304 0.0
C984 C 0.63471 0.34233 0.65353 0.0
C985 C 0.66473 0.34294 0.6465 0.0
C986 C 0.62359 0.39078 0.63871 0.0
C987 C 0.6736 0.36844 0.63604 0.0
C988 C 0.61047 0.43881 0.62133 0.0
C989 C 0.54962 0.43308 0.63229 0.0
N990 N 0.65305 0.39121 0.63237 0.0
N991 N 0.57146 0.41317 0.63829 0.0
H992 H 0.31452 0.23353 0.20506 0.0
H993 H 0.18396 0.24476 0.2811 0.0
H994 H 0.2226 0.26752 0.19505 0.0
H995 H 0.27962 0.22532 0.29236 0.0
H996 H 0.19703 0.25107 0.24924 0.0
H997 H 0.30142 0.22778 0.23694 0.0
C998 C 0.29158 0.23971 0.20955 0.0
C999 C 0.26965 0.25104 0.19738 0.0
C1000 C 0.21515 0.24552 0.25871 0.0
C1001 C 0.2545 0.24454 0.2338 0.0
C1002 C 0.2077 0.24191 0.27689 0.0
C1003 C 0.23071 0.23449 0.28941 0.0
C1004 C 0.24579 0.24147 0.25301 0.0
C1005 C 0.26111 0.23108 0.2832 0.0
C1006 C 0.28414 0.23652 0.22775 0.0
C1007 C 0.24028 0.25876 0.20396 0.0
N1008 N 0.26773 0.23448 0.26544 0.0
N1009 N 0.23355 0.25532 0.22171 0.0
H1010 H 0.99088 0.99067 0.54797 0.0
H1011 H 0.05398 0.05853 0.45483 0.0
H1012 H 0.08023 0.03371 0.54291 0.0
H1013 H 0.97587 0.99727 0.45928 0.0
H1014 H 0.06211 0.05381 0.4874 0.0
H1015 H 0.98308 0.99709 0.5157 0.0
C1016 C 0.00888 0.00151 0.54007 0.0
C1017 C 0.0363 0.0116 0.54814 0.0
C1018 C 0.04323 0.04143 0.4812 0.0
C1019 C 0.02745 0.01911 0.51113 0.0
C1020 C 0.03851 0.04418 0.46265 0.0
C1021 C 0.01424 0.02824 0.45433 0.0
C1022 C 0.02335 0.02284 0.49146 0.0
C1023 C 0.99494 0.00991 0.46509 0.0
C1024 C 0.00443 0.00511 0.52162 0.0
C1025 C 0.05879 0.02548 0.53721 0.0
N1026 N -0.00012 0.00778 0.48308 0.0
N1027 N 0.05385 0.02889 0.51924 0.0
H1028 H 0.24417 0.77467 0.6954 0.0
H1029 H 0.24905 0.72943 0.79986 0.0
H1030 H 0.23826 0.68109 0.71495 0.0
H1031 H 0.25462 0.82308 0.78041 0.0
H1032 H 0.24544 0.71132 0.76883 0.0
H1033 H 0.24835 0.79281 0.72642 0.0
C1034 C 0.24376 0.75791 0.70622 0.0
C1035 C 0.24085 0.72628 0.70257 0.0
C1036 C 0.24746 0.73583 0.77133 0.0
C1037 C 0.24563 0.74696 0.73814 0.0
C1038 C 0.24953 0.74621 0.78906 0.0
C1039 C 0.25212 0.77786 0.79275 0.0
C1040 C 0.24798 0.75721 0.75714 0.0
C1041 C 0.25264 0.79849 0.7782 0.0
C1042 C 0.24615 0.76831 0.72394 0.0
C1043 C 0.24046 0.70567 0.71713 0.0
N1044 N 0.25057 0.78781 0.76103 0.0
N1045 N 0.24282 0.71638 0.73428 0.0
H1046 H 0.41075 0.96759 0.0332 0.0
H1047 H 0.52803 0.00468 0.95302 0.0
H1048 H 0.50049 0.00829 0.04132 0.0
H1049 H 0.44995 0.94381 0.94702 0.0
H1050 H 0.51586 0.01008 0.98497 0.0
H1051 H 0.42231 0.96253 0.00107 0.0
C1052 C 0.43285 0.97553 0.02823 0.0
C1053 C 0.45471 0.98835 0.03996 0.0
C1054 C 0.50142 0.9955 0.97667 0.0
C1055 C 0.46801 0.98271 0.00325 0.0
C1056 C 0.5083 0.99245 0.95841 0.0
C1057 C 0.48999 0.97371 0.94733 0.0
C1058 C 0.47588 0.97992 0.9839 0.0
C1059 C 0.46475 0.9584 0.95508 0.0
C1060 C 0.43946 0.97253 0.0099 0.0
C1061 C 0.48299 0.99818 0.03278 0.0
N1062 N 0.45837 0.96192 0.97289 0.0
N1063 N 0.48878 0.99523 0.01488 0.0
H1064 H 0.25028 0.77074 0.31008 0.0
H1065 H 0.26213 0.73516 0.20457 0.0
H1066 H 0.27368 0.68174 0.28787 0.0
H1067 H 0.23613 0.8241 0.22587 0.0
H1068 H 0.26868 0.71616 0.23515 0.0
H1069 H 0.24706 0.79152 0.27954 0.0
C1070 C 0.25481 0.75557 0.29879 0.0
C1071 C 0.26215 0.72439 0.30153 0.0
C1072 C 0.26161 0.73986 0.23318 0.0
C1073 C 0.25851 0.74807 0.26657 0.0
C1074 C 0.25787 0.75078 0.21569 0.0
C1075 C 0.24843 0.78128 0.21264 0.0
C1076 C 0.25585 0.75952 0.24782 0.0
C1077 C 0.24338 0.80041 0.2276 0.0
C1078 C 0.25296 0.76747 0.28136 0.0
C1079 C 0.26785 0.70587 0.28641 0.0
N1080 N 0.24705 0.78917 0.24457 0.0
N1081 N 0.26584 0.71798 0.26959 0.0
H1082 H 0.53173 0.94052 0.46003 0.0
H1083 H 0.47515 0.0492 0.54083 0.0
H1084 H 0.46922 0.01715 0.4535 0.0
H1085 H 0.53768 0.97275 0.548 0.0
H1086 H 0.47365 0.03824 0.50861 0.0
H1087 H 0.53542 0.95255 0.49218 0.0
C1088 C 0.51888 0.95991 0.46533 0.0
C1089 C 0.50007 0.97777 0.45407 0.0
C1090 C 0.48773 0.02387 0.51722 0.0
C1091 C 0.50409 0.99162 0.49078 0.0
C1092 C 0.48857 0.03011 0.53564 0.0
C1093 C 0.50652 0.01185 0.54714 0.0
C1094 C 0.50494 -0.00084 0.51023 0.0
C1095 C 0.52349 0.98743 0.53963 0.0
C1096 C 0.52096 0.96675 0.48368 0.0
C1097 C 0.48394 0.00266 0.46167 0.0
N1098 N 0.52225 0.98178 0.52165 0.0
N1099 N 0.48628 0.00878 0.47953 0.0
H1100 H 0.19349 0.26298 0.78417 0.0
H1101 H 0.32301 0.23473 0.70902 0.0
H1102 H 0.29064 0.25721 0.79624 0.0
H1103 H 0.2262 0.24638 0.69744 0.0
H1104 H 0.31194 0.24243 0.74105 0.0
H1105 H 0.2053 0.25598 0.75232 0.0
C1106 C 0.21732 0.26018 0.78013 0.0
C1107 C 0.24111 0.26069 0.7929 0.0
C1108 C 0.29316 0.24337 0.73147 0.0
C1109 C 0.25483 0.25272 0.75639 0.0
C1110 C 0.29947 0.23901 0.71319 0.0
C1111 C 0.2755 0.23988 0.70053 0.0
C1112 C 0.26267 0.24855 0.73711 0.0
C1113 C 0.24543 0.24549 0.7067 0.0
C1114 C 0.22406 0.25625 0.76192 0.0
C1115 C 0.27157 0.25697 0.78686 0.0
N1116 N 0.23989 0.24953 0.72454 0.0
N1117 N 0.27756 0.25314 0.76902 0.0
H1118 H 0.0749 0.00432 0.96154 0.0
H1119 H 0.93167 0.99669 0.02958 0.0
H1120 H 0.97982 0.01044 0.94482 0.0
H1121 H 0.02665 0.99476 0.04681 0.0
H1122 H 0.94899 0.00092 -0.00162 0.0
H1123 H 0.05779 0.00016 0.99284 0.0
C1124 C 0.05043 0.00483 0.96444 0.0
C1125 C 0.02876 0.00773 0.95053 0.0
C1126 C 0.96606 -0.00043 0.00898 0.0
C1127 C 0.00903 0.00291 0.98631 0.0
C1128 C 0.95617 0.99712 0.02681 0.0
C1129 C 0.97773 0.99539 0.04084 0.0
C1130 C 0.99776 0.00025 0.00512 0.0
C1131 C 0.0092 0.99606 0.03643 0.0
C1132 C 0.04068 0.00245 0.98232 0.0
C1133 C 0.99736 0.00825 0.9551 0.0
N1134 N 0.01826 0.99843 0.01895 0.0
N1135 N 0.98845 0.00583 0.97258 0.0
H1136 H 0.75509 0.72126 0.69454 0.0
H1137 H 0.76306 0.77307 0.79783 0.0
H1138 H 0.78348 0.81191 0.71198 0.0
H1139 H 0.74696 0.67915 0.78097 0.0
H1140 H 0.76889 0.78803 0.76634 0.0
H1141 H 0.7505 0.70562 0.72605 0.0
C1142 C 0.76043 0.73786 0.70499 0.0
C1143 C 0.76964 0.76797 0.70062 0.0
C1144 C 0.76413 0.76413 0.76952 0.0
C1145 C 0.76432 0.75024 0.73669 0.0
C1146 C 0.76073 0.75557 0.7875 0.0
C1147 C 0.7545 0.72479 0.79204 0.0
C1148 C 0.76115 0.7418 0.75593 0.0
C1149 C 0.75178 0.70313 0.77809 0.0
C1150 C 0.75782 0.7289 0.72298 0.0
C1151 C 0.77631 0.78847 0.71471 0.0
N1152 N 0.75506 0.71206 0.76065 0.0
N1153 N 0.77341 0.77925 0.73211 0.0
H1154 H 0.73859 0.27019 0.18615 0.0
H1155 H 0.73778 0.22005 0.28985 0.0
H1156 H 0.72783 0.17624 0.20432 0.0
H1157 H 0.75121 0.31392 0.27212 0.0
H1158 H 0.73197 0.20409 0.25858 0.0
H1159 H 0.74127 0.28706 0.2175 0.0
C1160 C 0.73673 0.2531 0.19673 0.0
C1161 C 0.73307 0.22171 0.1926 0.0
C1162 C 0.73611 0.2282 0.2615 0.0
C1163 C 0.73612 0.24091 0.22852 0.0
C1164 C 0.73941 0.23737 0.27938 0.0
C1165 C 0.74509 0.2684 0.28362 0.0
C1166 C 0.73851 0.25017 0.2477 0.0
C1167 C 0.74691 0.28976 0.26947 0.0
C1168 C 0.73827 0.26276 0.21463 0.0
C1169 C 0.73074 0.20064 0.20686 0.0
N1170 N 0.74371 0.28022 0.25212 0.0
N1171 N 0.73236 0.21062 0.22418 0.0
H1172 H 0.74898 0.27626 0.80029 0.0
H1173 H 0.74578 0.22736 0.69637 0.0
H1174 H 0.75521 0.1819 0.78207 0.0
H1175 H 0.74131 0.32166 0.71487 0.0
H1176 H 0.7486 0.21015 0.72763 0.0
H1177 H 0.74549 0.29314 0.76905 0.0
C1178 C 0.74959 0.25905 0.78972 0.0
C1179 C 0.75241 0.22759 0.79381 0.0
C1180 C 0.747 0.2346 0.72486 0.0
C1181 C 0.74842 0.24683 0.75795 0.0
C1182 C 0.74538 0.24447 0.707 0.0
C1183 C 0.74333 0.27603 0.70299 0.0
C1184 C 0.74656 0.25643 0.73882 0.0
C1185 C 0.74289 0.29711 0.71732 0.0
C1186 C 0.7476 0.26874 0.77186 0.0
C1187 C 0.75308 0.20638 0.77954 0.0
N1188 N 0.7445 0.28693 0.7346 0.0
N1189 N 0.7511 0.2164 0.76223 0.0
H1190 H 0.73413 0.748 0.29297 0.0
H1191 H 0.81794 0.79198 0.20039 0.0
H1192 H 0.8026 0.8199 0.28871 0.0
H1193 H 0.73927 0.73131 0.20411 0.0
H1194 H 0.8148 0.8007 0.23292 0.0
H1195 H 0.73798 0.73955 0.26056 0.0
C1196 C 0.75002 0.76199 0.28523 0.0
C1197 C 0.76805 0.78473 0.29356 0.0
C1198 C 0.79822 0.78553 0.22659 0.0
C1199 C 0.77258 0.77515 0.25642 0.0
C1200 C 0.80002 0.78051 0.20803 0.0
C1201 C 0.77883 0.7609 0.19952 0.0
C1202 C 0.7752 0.77066 0.23669 0.0
C1203 C 0.75606 0.74667 0.21008 0.0
C1204 C 0.75216 0.7572 0.2667 0.0
C1205 C 0.78822 0.80217 0.28283 0.0
N1206 N 0.75491 0.75178 0.22811 0.0
N1207 N 0.78998 0.79699 0.2648 0.0
H1208 H 0.5771 0.50305 0.03197 0.0
H1209 H 0.43723 0.54346 0.96587 0.0
H1210 H 0.48341 0.51734 0.04978 0.0
H1211 H 0.52714 0.51536 0.94705 0.0
H1212 H 0.45496 0.53763 0.99685 0.0
H1213 H 0.56034 0.51093 0.00085 0.0
C1214 C 0.55303 0.50789 0.02935 0.0
C1215 C 0.53161 0.50948 0.04349 0.0
C1216 C 0.47083 0.53275 0.98595 0.0
C1217 C 0.51233 0.51859 0.00797 0.0
C1218 C 0.46074 0.53615 0.96824 0.0
C1219 C 0.48071 0.5298 0.95384 0.0
C1220 C 0.50117 0.52307 0.98931 0.0
C1221 C 0.51093 0.5204 0.95774 0.0
C1222 C 0.54348 0.51234 0.01158 0.0
C1223 C 0.50072 0.51581 0.03931 0.0
N1224 N 0.52025 0.51731 0.97512 0.0
N1225 N 0.49203 0.52015 0.02194 0.0
H1226 H 0.97106 0.48199 0.444 0.0
H1227 H 0.02263 0.49937 0.54704 0.0
H1228 H 0.066 0.48502 0.46127 0.0
H1229 H 0.92771 0.49545 0.52979 0.0
H1230 H 0.03897 0.49409 0.5157 0.0
H1231 H 0.95476 0.48668 0.47537 0.0
C1232 C 0.9885 0.48359 0.45439 0.0
C1233 C 0.01996 0.48314 0.44999 0.0
C1234 C 0.01456 0.49438 0.51877 0.0
C1235 C 0.00143 0.48857 0.48596 0.0
C1236 C 0.00521 0.49742 0.53666 0.0
C1237 C 0.97373 0.49786 0.54105 0.0
C1238 C 0.99231 0.49177 0.50513 0.0
C1239 C 0.95221 0.49522 0.52704 0.0
C1240 C 0.97916 0.48629 0.47231 0.0
C1241 C 0.0415 0.48529 0.46403 0.0
N1242 N 0.96191 0.49229 0.50971 0.0
N1243 N 0.03183 0.48794 0.48137 0.0
H1244 H 0.0465 0.55484 0.03093 0.0
H1245 H 0.94839 0.44885 0.96379 0.0
H1246 H 0.97821 0.48883 0.04843 0.0
H1247 H 0.0141 0.51713 0.9459 0.0
H1248 H 0.95978 0.46266 0.99495 0.0
H1249 H 0.03523 0.54126 -0.00034 0.0
C1250 C 0.02906 0.53759 0.02821 0.0
C1251 C 0.01331 0.52292 0.04232 0.0
C1252 C 0.97174 0.4746 0.98421 0.0
C1253 C 0.00043 0.50716 0.00661 0.0
C1254 C 0.9653 0.46666 0.96641 0.0
C1255 C 0.9803 0.48187 0.95222 0.0
C1256 C 0.99334 0.4979 0.98786 0.0
C1257 C 0.00198 0.50479 0.95642 0.0
C1258 C 0.02268 0.5298 0.01035 0.0
C1259 C 0.99096 0.50072 0.03799 0.0
N1260 N 0.00782 0.51214 0.97387 0.0
N1261 N 0.98525 0.49348 0.02053 0.0
H1262 H 0.49268 0.47899 0.44548 0.0
H1263 H 0.52073 0.51555 0.54974 0.0
H1264 H 0.56868 0.53408 0.46481 0.0
H1265 H 0.45566 0.44775 0.53057 0.0
H1266 H 0.53702 0.52478 0.51868 0.0
H1267 H 0.47696 0.46968 0.47657 0.0
C1268 C 0.50604 0.48921 0.45627 0.0
C1269 C 0.53207 0.50734 0.45254 0.0
C1270 C 0.51924 0.50783 0.52129 0.0
C1271 C 0.51415 0.49675 0.48819 0.0
C1272 C 0.5099 0.50255 0.53901 0.0
C1273 C 0.48676 0.48085 0.54276 0.0
C1274 C 0.50521 0.49142 0.5072 0.0
C1275 C 0.47358 0.46469 0.52832 0.0
C1276 C 0.49709 0.48379 0.47402 0.0
C1277 C 0.54851 0.51991 0.46706 0.0
N1278 N 0.48292 0.47038 0.51117 0.0
N1279 N 0.53924 0.51442 0.48426 0.0
H1280 H 0.31736 0.18737 0.38142 0.0
H1281 H 0.44222 0.05705 0.36235 0.0
H1282 H 0.34363 0.15701 0.32817 0.0
H1283 H 0.41799 0.08917 0.41558 0.0
H1284 H 0.41232 0.09925 0.34942 0.0
H1285 H 0.35992 0.15748 0.39398 0.0
C1286 C 0.33232 0.17476 0.37235 0.0
C1287 C 0.32661 0.17425 0.35375 0.0
C1288 C 0.41386 0.09731 0.36394 0.0
C1289 C 0.37518 0.13981 0.36803 0.0
C1290 C 0.43096 0.07321 0.37132 0.0
C1291 C 0.43214 0.06925 0.39007 0.0
C1292 C 0.39767 0.11744 0.37537 0.0
C1293 C 0.41735 0.09108 0.40104 0.0
C1294 C 0.35662 0.15767 0.37953 0.0
C1295 C 0.3469 0.15772 0.34262 0.0
N1296 N 0.40038 0.11398 0.39353 0.0
N1297 N 0.37003 0.14084 0.34995 0.0
H1298 H 0.05176 0.11221 0.59093 0.0
H1299 H 0.1698 0.15804 0.66896 0.0
H1300 H 0.05896 0.06516 0.64199 0.0
H1301 H 0.17468 0.19496 0.61502 0.0
H1302 H 0.12247 0.13123 0.66097 0.0
H1303 H 0.0896 0.15005 0.60141 0.0
C1304 C 0.06082 0.11018 0.60447 0.0
C1305 C 0.05253 0.08526 0.61553 0.0
C1306 C 0.13373 0.14536 0.6509 0.0
C1307 C 0.09587 0.12827 0.6275 0.0
C1308 C 0.16082 0.16068 0.65544 0.0
C1309 C 0.17649 0.17842 0.64256 0.0
C1310 C 0.12217 0.14764 0.63331 0.0
C1311 C 0.1635 0.18128 0.62533 0.0
C1312 C 0.08255 0.13168 0.61039 0.0
C1313 C 0.06499 0.08378 0.63293 0.0
N1314 N 0.1372 0.16578 0.62114 0.0
N1315 N 0.08624 0.1048 0.63831 0.0
H1316 H 0.14147 0.81716 0.82951 0.0
H1317 H 0.05841 0.89849 0.91305 0.0
H1318 H 0.17339 0.80977 0.8844 0.0
H1319 H 0.05137 0.93112 0.85827 0.0
H1320 H 0.09012 0.8555 0.90251 0.0
H1321 H 0.09817 0.84855 0.83997 0.0
C1322 C 0.13912 0.8217 0.84379 0.0
C1323 C 0.16131 0.81121 0.85609 0.0
C1324 C 0.08124 0.87185 0.89279 0.0
C1325 C 0.11182 0.84694 0.86808 0.0
C1326 C 0.06301 0.89631 0.89876 0.0
C1327 C 0.0526 0.91867 0.88653 0.0
C1328 C 0.08878 0.86957 0.87445 0.0
C1329 C 0.05926 0.91462 0.86818 0.0
C1330 C 0.11447 0.8397 0.84972 0.0
C1331 C 0.15703 0.81773 0.87444 0.0
N1332 N 0.07714 0.89067 0.8627 0.0
N1333 N 0.13287 0.83537 0.87988 0.0
H1334 H 0.3561 0.80881 0.16811 0.0
H1335 H 0.43066 0.88547 0.08051 0.0
H1336 H 0.31514 0.80261 0.11525 0.0
H1337 H 0.44275 0.9213 0.1343 0.0
H1338 H 0.39896 0.84374 0.09284 0.0
H1339 H 0.39859 0.83863 0.15528 0.0
C1340 C 0.35629 0.81323 0.15375 0.0
C1341 C 0.33181 0.80358 0.14276 0.0
C1342 C 0.40898 0.8605 0.10193 0.0
C1343 C 0.38041 0.83752 0.12806 0.0
C1344 C 0.42719 0.8842 0.09495 0.0
C1345 C 0.43904 0.90705 0.10641 0.0
C1346 C 0.40305 0.85944 0.1205 0.0
C1347 C 0.43375 0.90433 0.12498 0.0
C1348 C 0.38049 0.83035 0.14648 0.0
C1349 C 0.33335 0.80994 0.12424 0.0
N1350 N 0.41599 0.88104 0.13146 0.0
N1351 N 0.35717 0.82671 0.11747 0.0
H1352 H 0.67447 0.79991 0.6144 0.0
H1353 H 0.55825 0.93348 0.64154 0.0
H1354 H 0.66375 0.83412 0.66868 0.0
H1355 H 0.55894 0.89046 0.58909 0.0
H1356 H 0.5928 0.89333 0.65253 0.0
H1357 H 0.62864 0.82893 0.60551 0.0
C1358 C 0.66229 0.81322 0.6245 0.0
C1359 C 0.67323 0.81494 0.64225 0.0
C1360 C 0.58507 0.89239 0.63868 0.0
C1361 C 0.62091 0.84834 0.63216 0.0
C1362 C 0.56531 0.91533 0.6324 0.0
C1363 C 0.55606 0.9156 0.6143 0.0
C1364 C 0.59599 0.86977 0.62672 0.0
C1365 C 0.5657 0.89132 0.60311 0.0
C1366 C 0.6361 0.82977 0.61942 0.0
C1367 C 0.65639 0.83238 0.65479 0.0
N1368 N 0.58555 0.86966 0.60942 0.0
N1369 N 0.63132 0.84869 0.64945 0.0
H1370 H 0.94452 0.92202 0.37608 0.0
H1371 H 0.80231 0.82054 0.40984 0.0
H1372 H 0.90602 0.92672 0.42967 0.0
H1373 H 0.83999 0.8155 0.35605 0.0
H1374 H 0.8451 0.85382 0.41861 0.0
H1375 H 0.91129 0.87776 0.3697 0.0
C1376 C 0.92935 0.91354 0.38657 0.0
C1377 C 0.92774 0.92836 0.40335 0.0
C1378 C 0.84422 0.84515 0.40494 0.0
C1379 C 0.88961 0.87786 0.39613 0.0
C1380 C 0.8198 0.82607 0.39993 0.0
C1381 C 0.81729 0.81559 0.38212 0.0
C1382 C 0.86621 0.85397 0.39201 0.0
C1383 C 0.8408 0.82332 0.3699 0.0
C1384 C 0.91037 0.88829 0.38292 0.0
C1385 C 0.90778 0.91628 0.41646 0.0
N1386 N 0.86406 0.84237 0.37501 0.0
N1387 N 0.8893 0.89195 0.41252 0.0
H1388 H 0.81862 0.193 0.10253 0.0
H1389 H 0.9447 0.07198 0.13229 0.0
H1390 H 0.84609 0.18068 0.15794 0.0
H1391 H 0.9358 0.10395 0.07748 0.0
H1392 H 0.91074 0.11364 0.14213 0.0
H1393 H 0.8632 0.16262 0.09302 0.0
C1394 C 0.83423 0.18422 0.11268 0.0
C1395 C 0.82841 0.18906 0.13106 0.0
C1396 C 0.91659 0.11183 0.12798 0.0
C1397 C 0.87925 0.15401 0.12029 0.0
C1398 C 0.93595 0.08801 0.12236 0.0
C1399 C 0.9428 0.08425 0.10401 0.0
C1400 C 0.9036 0.13172 0.11513 0.0
C1401 C 0.93099 0.10585 0.09175 0.0
C1402 C 0.85972 0.16694 0.10724 0.0
C1403 C 0.84954 0.17735 0.14362 0.0
N1404 N 0.91156 0.12837 0.09749 0.0
N1405 N 0.87376 0.15997 0.13802 0.0
H1406 H 0.58408 0.08832 0.91813 0.0
H1407 H 0.64235 0.18723 0.83397 0.0
H1408 H 0.55439 0.07209 0.86345 0.0
H1409 H 0.68216 0.19199 0.88717 0.0
H1410 H 0.60266 0.15245 0.84558 0.0
H1411 H 0.61252 0.13355 0.90794 0.0
C1412 C 0.58325 0.09443 0.90399 0.0
C1413 C 0.5672 0.07608 0.89157 0.0
C1414 C 0.61987 0.16142 0.85475 0.0
C1415 C 0.5999 0.12787 0.87981 0.0
C1416 C 0.64249 0.18136 0.84815 0.0
C1417 C 0.66589 0.19219 0.85957 0.0
C1418 C 0.62062 0.15234 0.8729 0.0
C1419 C 0.66481 0.18391 0.87783 0.0
C1420 C 0.59955 0.12028 0.89819 0.0
C1421 C 0.56671 0.08539 0.87346 0.0
N1422 N 0.64274 0.16426 0.88388 0.0
N1423 N 0.58312 0.11047 0.86808 0.0
H1424 H 0.86228 0.68513 0.83114 0.0
H1425 H 0.92286 0.58981 0.91595 0.0
H1426 H 0.82519 0.69301 0.88494 0.0
H1427 H 0.94782 0.5685 0.86102 0.0
H1428 H 0.89566 0.63545 0.90541 0.0
H1429 H 0.90208 0.65039 0.84261 0.0
C1430 C 0.8628 0.67999 0.84542 0.0
C1431 C 0.84008 0.69161 0.85707 0.0
C1432 C 0.90733 0.62099 0.89566 0.0
C1433 C 0.88545 0.65186 0.87022 0.0
C1434 C 0.9229 0.59489 0.90166 0.0
C1435 C 0.93721 0.57501 0.8893 0.0
C1436 C 0.90591 0.62727 0.87714 0.0
C1437 C 0.93684 0.58304 0.87099 0.0
C1438 C 0.88546 0.66006 0.85193 0.0
C1439 C 0.84198 0.68426 0.87543 0.0
N1440 N 0.92108 0.6084 0.86542 0.0
N1441 N 0.86407 0.66463 0.88141 0.0
H1442 H 0.6568 0.67528 0.17104 0.0
H1443 H 0.55787 0.6169 0.08709 0.0
H1444 H 0.67134 0.70658 0.11647 0.0
H1445 H 0.56018 0.57183 0.13892 0.0
H1446 H 0.58995 0.65833 0.09929 0.0
H1447 H 0.61192 0.6462 0.16095 0.0
C1448 C 0.65033 0.6764 0.15696 0.0
C1449 C 0.66822 0.69293 0.14451 0.0
C1450 C 0.58305 0.63957 0.10804 0.0
C1451 C 0.61689 0.65955 0.13288 0.0
C1452 C 0.56466 0.61596 0.10112 0.0
C1453 C 0.55677 0.59062 0.11194 0.0
C1454 C 0.59341 0.63786 0.12592 0.0
C1455 C 0.56611 0.5907 0.13003 0.0
C1456 C 0.62471 0.65973 0.15122 0.0
C1457 C 0.65845 0.69382 0.12649 0.0
N1458 N 0.58417 0.6138 0.1364 0.0
N1459 N 0.63364 0.67701 0.12117 0.0
H1460 H 0.63969 0.30192 0.33028 0.0
H1461 H 0.59809 0.4063 0.41552 0.0
H1462 H 0.68803 0.29847 0.38105 0.0
H1463 H 0.55963 0.42037 0.36254 0.0
H1464 H 0.62383 0.36 0.40459 0.0
H1465 H 0.60288 0.33804 0.34352 0.0
C1466 C 0.64229 0.30832 0.3443 0.0
C1467 C 0.6673 0.29751 0.35449 0.0
C1468 C 0.60955 0.37304 0.39539 0.0
C1469 C 0.62534 0.339 0.36966 0.0
C1470 C 0.59481 0.39952 0.40161 0.0
C1471 C 0.57702 0.41753 0.38985 0.0
C1472 C 0.60656 0.36443 0.37724 0.0
C1473 C 0.57338 0.40736 0.37203 0.0
C1474 C 0.62132 0.32907 0.35182 0.0
C1475 C 0.66936 0.3065 0.37261 0.0
N1476 N 0.58828 0.38163 0.36621 0.0
N1477 N 0.64886 0.32697 0.37956 0.0
H1478 H 0.93787 0.39015 0.58025 0.0
H1479 H 0.85458 0.31484 0.66561 0.0
H1480 H 0.94538 0.42604 0.63432 0.0
H1481 H 0.82279 0.30348 0.61091 0.0
H1482 H 0.89807 0.3452 0.65442 0.0
H1483 H 0.90595 0.34798 0.59172 0.0
C1484 C 0.93329 0.38888 0.59457 0.0
C1485 C 0.94391 0.41189 0.60633 0.0
C1486 C 0.88177 0.3357 0.64488 0.0
C1487 C 0.90754 0.36374 0.61946 0.0
C1488 C 0.85701 0.31828 0.65122 0.0
C1489 C 0.83478 0.30701 0.63918 0.0
C1490 C 0.88447 0.34159 0.62636 0.0
C1491 C 0.83917 0.3121 0.62068 0.0
C1492 C 0.91497 0.36488 0.60107 0.0
C1493 C 0.93731 0.40901 0.62476 0.0
N1494 N 0.86342 0.32923 0.61484 0.0
N1495 N 0.91934 0.3855 0.63075 0.0
H1496 H 0.12907 0.4805 0.0962 0.0
H1497 H 0.1663 0.30894 0.12437 0.0
H1498 H 0.05502 0.42126 0.11392 0.0
H1499 H 0.22381 0.38592 0.13944 0.0
H1500 H 0.12655 0.34566 0.11412 0.0
H1501 H 0.16613 0.44115 0.10516 0.0
C1502 C 0.12058 0.45908 0.10185 0.0
C1503 C 0.08896 0.45414 0.10444 0.0
C1504 C 0.14792 0.35427 0.11972 0.0
C1505 C 0.13125 0.40903 0.1145 0.0
C1506 C 0.17054 0.33348 0.12546 0.0
C1507 C 0.19822 0.34453 0.13278 0.0
C1508 C 0.15366 0.38605 0.12089 0.0
C1509 C 0.20269 0.37646 0.13399 0.0
C1510 C 0.14175 0.43675 0.10701 0.0
C1511 C 0.07927 0.42598 0.11186 0.0
N1512 N 0.18077 0.3961 0.12794 0.0
N1513 N 0.10042 0.40426 0.1166 0.0
H1514 H 0.41173 0.4254 0.91968 0.0
H1515 H 0.36138 0.32313 0.83509 0.0
H1516 H 0.44649 0.43954 0.86578 0.0
H1517 H 0.31578 0.32084 0.88681 0.0
H1518 H 0.39912 0.35927 0.84738 0.0
H1519 H 0.38304 0.38063 0.90903 0.0
C1520 C 0.4136 0.41893 0.90563 0.0
C1521 C 0.43126 0.43649 0.89355 0.0
C1522 C 0.38101 0.35063 0.85607 0.0
C1523 C 0.39833 0.38525 0.88126 0.0
C1524 C 0.35949 0.32993 0.84909 0.0
C1525 C 0.33515 0.31923 0.85988 0.0
C1526 C 0.37822 0.36062 0.87399 0.0
C1527 C 0.33396 0.32874 0.87794 0.0
C1528 C 0.39714 0.39337 0.89955 0.0
C1529 C 0.43295 0.42683 0.87553 0.0
N1530 N 0.35506 0.34906 0.88439 0.0
N1531 N 0.41647 0.40198 0.86989 0.0
H1532 H 0.4103 0.58757 0.57714 0.0
H1533 H 0.35067 0.6836 0.66214 0.0
H1534 H 0.44118 0.57147 0.6316 0.0
H1535 H 0.31085 0.68939 0.60897 0.0
H1536 H 0.39079 0.64972 0.65019 0.0
H1537 H 0.38068 0.63179 0.5877 0.0
C1538 C 0.41111 0.5935 0.59131 0.0
C1539 C 0.42792 0.57551 0.60355 0.0
C1540 C 0.37348 0.65871 0.64111 0.0
C1541 C 0.39391 0.62614 0.61574 0.0
C1542 C 0.35061 0.67815 0.6479 0.0
C1543 C 0.32708 0.68899 0.63659 0.0
C1544 C 0.37284 0.65012 0.62288 0.0
C1545 C 0.3283 0.68127 0.61824 0.0
C1546 C 0.39415 0.61877 0.59733 0.0
C1547 C 0.42832 0.58451 0.62171 0.0
N1548 N 0.3506 0.66207 0.612 0.0
N1549 N 0.41129 0.60904 0.6273 0.0
H1550 H 0.05624 0.59286 0.41408 0.0
H1551 H 0.1507 0.66913 0.33305 0.0
H1552 H 0.05358 0.55975 0.35924 0.0
H1553 H 0.17369 0.68192 0.38914 0.0
H1554 H 0.10624 0.63821 0.34205 0.0
H1555 H 0.09026 0.63474 0.40448 0.0
C1556 C 0.06236 0.59468 0.39997 0.0
C1557 C 0.05239 0.57253 0.38747 0.0
C1558 C 0.12084 0.64807 0.35238 0.0
C1559 C 0.09128 0.62032 0.37647 0.0
C1560 C 0.1462 0.6658 0.34727 0.0
C1561 C 0.16621 0.67778 0.36037 0.0
C1562 C 0.11532 0.64245 0.37071 0.0
C1563 C 0.15908 0.67282 0.37859 0.0
C1564 C 0.08189 0.61851 0.39454 0.0
C1565 C 0.06102 0.5761 0.36936 0.0
N1566 N 0.13432 0.65533 0.38323 0.0
N1567 N 0.08016 0.5994 0.36443 0.0
loop_
_geom_bond_atom_site_label_1
_geom_bond_atom_site_label_2
_geom_bond_distance
_geom_bond_site_symmetry_2
_ccdc_geom_bond_type
C0 O1 1.160 . S
C0 O7 1.185 . S
O1 C0 1.160 . S
O2 Zn3 1.899 . S
O2 C10 1.284 . S
Zn3 O2 1.899 . S
Zn3 O4 2.032 . S
Zn3 O7 2.086 . S
Zn3 O12 1.977 . S
O4 Zn3 2.032 . S
O4 C8 1.278 . S
C5 O6 1.203 . S
C5 O12 1.267 . S
O6 C5 1.203 . S
O7 C0 1.185 . S
O7 Zn3 2.086 . S
C8 O4 1.278 . S
C8 O9 1.211 . S
O9 C8 1.211 . S
C10 O2 1.284 . S
C10 O11 1.273 . S
O11 C10 1.273 . S
O12 Zn3 1.977 . S
O12 C5 1.267 . S
C13 O14 1.160 . S
C13 O20 1.185 . S
O14 C13 1.160 . S
O15 Zn16 1.899 . S
O15 C23 1.284 . S
Zn16 O15 1.899 . S
Zn16 O17 2.032 . S
Zn16 O20 2.086 1_565 S
Zn16 O25 1.977 . S
O17 Zn16 2.032 . S
O17 C21 1.278 . S
C18 O19 1.203 . S
C18 O25 1.267 1_655 S
O19 C18 1.203 . S
O20 C13 1.185 . S
O20 Zn16 2.086 1_545 S
C21 O17 1.278 . S
C21 O22 1.211 . S
O22 C21 1.211 . S
C23 O15 1.284 . S
C23 O24 1.273 . S
O24 C23 1.273 . S
O25 Zn16 1.977 . S
O25 C18 1.267 1_455 S
C26 O27 1.160 . S
C26 O33 1.185 . S
O27 C26 1.160 . S
O28 Zn29 1.899 . S
O28 C36 1.284 . S
Zn29 O28 1.899 . S
Zn29 O30 2.032 . S
Zn29 O33 2.086 . S
Zn29 O38 1.977 . S
O30 Zn29 2.032 . S
O30 C34 1.278 . S
C31 O32 1.203 . S
C31 O38 1.267 . S
O32 C31 1.203 . S
O33 C26 1.185 . S
O33 Zn29 2.086 . S
C34 O30 1.278 . S
C34 O35 1.211 . S
O35 C34 1.211 . S
C36 O28 1.284 . S
C36 O37 1.273 . S
O37 C36 1.273 . S
O38 Zn29 1.977 . S
O38 C31 1.267 . S
C39 O40 1.160 . S
C39 O46 1.185 . S
O40 C39 1.160 . S
O41 Zn42 1.899 . S
O41 C49 1.284 . S
Zn42 O41 1.899 . S
Zn42 O43 2.032 . S
Zn42 O46 2.086 1_545 S
Zn42 O51 1.977 . S
O43 Zn42 2.032 . S
O43 C47 1.278 . S
C44 O45 1.203 . S
C44 O51 1.267 . S
O45 C44 1.203 . S
O46 C39 1.185 . S
O46 Zn42 2.086 1_565 S
C47 O43 1.278 . S
C47 O48 1.211 . S
O48 C47 1.211 . S
C49 O41 1.284 . S
C49 O50 1.273 . S
O50 C49 1.273 . S
O51 Zn42 1.977 . S
O51 C44 1.267 . S
C52 O53 1.160 . S
C52 O59 1.185 . S
O53 C52 1.160 . S
O54 Zn55 1.899 . S
O54 C62 1.284 . S
Zn55 O54 1.899 . S
Zn55 O56 2.032 . S
Zn55 O59 2.086 . S
Zn55 O64 1.977 . S
O56 Zn55 2.032 . S
O56 C60 1.278 . S
C57 O58 1.203 . S
C57 O64 1.267 . S
O58 C57 1.203 . S
O59 C52 1.185 . S
O59 Zn55 2.086 . S
C60 O56 1.278 . S
C60 O61 1.211 . S
O61 C60 1.211 . S
C62 O54 1.284 . S
C62 O63 1.273 . S
O63 C62 1.273 . S
O64 Zn55 1.977 . S
O64 C57 1.267 . S
C65 O66 1.160 . S
C65 O72 1.185 . S
O66 C65 1.160 . S
O67 Zn68 1.899 . S
O67 C75 1.284 . S
Zn68 O67 1.899 . S
Zn68 O69 2.032 . S
Zn68 O72 2.086 1_565 S
Zn68 O77 1.977 . S
O69 Zn68 2.032 . S
O69 C73 1.278 . S
C70 O71 1.203 . S
C70 O77 1.267 . S
O71 C70 1.203 . S
O72 C65 1.185 . S
O72 Zn68 2.086 1_545 S
C73 O69 1.278 . S
C73 O74 1.211 . S
O74 C73 1.211 . S
C75 O67 1.284 . S
C75 O76 1.273 . S
O76 C75 1.273 . S
O77 Zn68 1.977 . S
O77 C70 1.267 . S
C78 O79 1.160 . S
C78 O85 1.185 . S
O79 C78 1.160 . S
O80 Zn81 1.899 . S
O80 C88 1.284 . S
Zn81 O80 1.899 . S
Zn81 O82 2.032 . S
Zn81 O85 2.086 . S
Zn81 O90 1.977 . S
O82 Zn81 2.032 . S
O82 C86 1.278 . S
C83 O84 1.203 . S
C83 O90 1.267 . S
O84 C83 1.203 . S
O85 C78 1.185 . S
O85 Zn81 2.086 . S
C86 O82 1.278 . S
C86 O87 1.211 . S
O87 C86 1.211 . S
C88 O80 1.284 . S
C88 O89 1.273 . S
O89 C88 1.273 . S
O90 Zn81 1.977 . S
O90 C83 1.267 . S
C91 O92 1.160 . S
C91 O98 1.185 . S
O92 C91 1.160 . S
O93 Zn94 1.899 . S
O93 C101 1.284 . S
Zn94 O93 1.899 . S
Zn94 O95 2.032 . S
Zn94 O98 2.086 1_545 S
Zn94 O103 1.977 . S
O95 Zn94 2.032 . S
O95 C99 1.278 . S
C96 O97 1.203 . S
C96 O103 1.267 1_655 S
O97 C96 1.203 . S
O98 C91 1.185 . S
O98 Zn94 2.086 1_565 S
C99 O95 1.278 . S
C99 O100 1.211 . S
O100 C99 1.211 . S
C101 O93 1.284 . S
C101 O102 1.273 . S
O102 C101 1.273 . S
O103 Zn94 1.977 . S
O103 C96 1.267 1_455 S
C104 O105 1.160 . S
C104 O111 1.185 . S
O105 C104 1.160 . S
O106 Zn107 1.899 . S
O106 C114 1.284 . S
Zn107 O106 1.899 . S
Zn107 O108 2.032 . S
Zn107 O111 2.086 . S
Zn107 O116 1.977 . S
O108 Zn107 2.032 . S
O108 C112 1.278 . S
C109 O110 1.203 . S
C109 O116 1.267 . S
O110 C109 1.203 . S
O111 C104 1.185 . S
O111 Zn107 2.086 . S
C112 O108 1.278 . S
C112 O113 1.211 . S
O113 C112 1.211 . S
C114 O106 1.284 . S
C114 O115 1.273 . S
O115 C114 1.273 . S
O116 Zn107 1.977 . S
O116 C109 1.267 . S
C117 O118 1.160 . S
C117 O124 1.185 . S
O118 C117 1.160 . S
O119 Zn120 1.899 . S
O119 C127 1.284 . S
Zn120 O119 1.899 . S
Zn120 O121 2.032 . S
Zn120 O124 2.086 1_545 S
Zn120 O129 1.977 . S
O121 Zn120 2.032 . S
O121 C125 1.278 . S
C122 O123 1.203 . S
C122 O129 1.267 1_455 S
O123 C122 1.203 . S
O124 C117 1.185 . S
O124 Zn120 2.086 1_565 S
C125 O121 1.278 . S
C125 O126 1.211 . S
O126 C125 1.211 . S
C127 O119 1.284 . S
C127 O128 1.273 . S
O128 C127 1.273 . S
O129 Zn120 1.977 . S
O129 C122 1.267 1_655 S
C130 O131 1.160 . S
C130 O137 1.185 . S
O131 C130 1.160 . S
O132 Zn133 1.899 . S
O132 C140 1.284 . S
Zn133 O132 1.899 . S
Zn133 O134 2.032 . S
Zn133 O137 2.086 . S
Zn133 O142 1.977 . S
O134 Zn133 2.032 . S
O134 C138 1.278 . S
C135 O136 1.203 . S
C135 O142 1.267 . S
O136 C135 1.203 . S
O137 C130 1.185 . S
O137 Zn133 2.086 . S
C138 O134 1.278 . S
C138 O139 1.211 . S
O139 C138 1.211 . S
C140 O132 1.284 . S
C140 O141 1.273 . S
O141 C140 1.273 . S
O142 Zn133 1.977 . S
O142 C135 1.267 . S
C143 O144 1.160 . S
C143 O150 1.185 . S
O144 C143 1.160 . S
O145 Zn146 1.899 . S
O145 C153 1.284 . S
Zn146 O145 1.899 . S
Zn146 O147 2.032 . S
Zn146 O150 2.086 1_565 S
Zn146 O155 1.977 . S
O147 Zn146 2.032 . S
O147 C151 1.278 . S
C148 O149 1.203 . S
C148 O155 1.267 . S
O149 C148 1.203 . S
O150 C143 1.185 . S
O150 Zn146 2.086 1_545 S
C151 O147 1.278 . S
C151 O152 1.211 . S
O152 C151 1.211 . S
C153 O145 1.284 . S
C153 O154 1.273 . S
O154 C153 1.273 . S
O155 Zn146 1.977 . S
O155 C148 1.267 . S
C156 O157 1.160 . S
C156 O163 1.185 . S
O157 C156 1.160 . S
O158 Zn159 1.899 . S
O158 C166 1.284 . S
Zn159 O158 1.899 . S
Zn159 O160 2.032 . S
Zn159 O163 2.086 . S
Zn159 O168 1.977 . S
O160 Zn159 2.032 . S
O160 C164 1.278 . S
C161 O162 1.203 . S
C161 O168 1.267 . S
O162 C161 1.203 . S
O163 C156 1.185 . S
O163 Zn159 2.086 . S
C164 O160 1.278 . S
C164 O165 1.211 . S
O165 C164 1.211 . S
C166 O158 1.284 . S
C166 O167 1.273 . S
O167 C166 1.273 . S
O168 Zn159 1.977 . S
O168 C161 1.267 . S
C169 O170 1.160 . S
C169 O176 1.185 . S
O170 C169 1.160 . S
O171 Zn172 1.899 . S
O171 C179 1.284 . S
Zn172 O171 1.899 . S
Zn172 O173 2.032 . S
Zn172 O176 2.086 1_545 S
Zn172 O181 1.977 . S
O173 Zn172 2.032 . S
O173 C177 1.278 . S
C174 O175 1.203 . S
C174 O181 1.267 . S
O175 C174 1.203 . S
O176 C169 1.185 . S
O176 Zn172 2.086 1_565 S
C177 O173 1.278 . S
C177 O178 1.211 . S
O178 C177 1.211 . S
C179 O171 1.284 . S
C179 O180 1.273 . S
O180 C179 1.273 . S
O181 Zn172 1.977 . S
O181 C174 1.267 . S
C182 O183 1.160 . S
C182 O189 1.185 . S
O183 C182 1.160 . S
O184 Zn185 1.899 . S
O184 C192 1.284 . S
Zn185 O184 1.899 . S
Zn185 O186 2.032 . S
Zn185 O189 2.086 . S
Zn185 O194 1.977 . S
O186 Zn185 2.032 . S
O186 C190 1.278 . S
C187 O188 1.203 . S
C187 O194 1.267 . S
O188 C187 1.203 . S
O189 C182 1.185 . S
O189 Zn185 2.086 . S
C190 O186 1.278 . S
C190 O191 1.211 . S
O191 C190 1.211 . S
C192 O184 1.284 . S
C192 O193 1.273 . S
O193 C192 1.273 . S
O194 Zn185 1.977 . S
O194 C187 1.267 . S
C195 O196 1.160 . S
C195 O202 1.185 . S
O196 C195 1.160 . S
O197 Zn198 1.899 . S
O197 C205 1.284 . S
Zn198 O197 1.899 . S
Zn198 O199 2.032 . S
Zn198 O202 2.086 1_565 S
Zn198 O207 1.977 . S
O199 Zn198 2.032 . S
O199 C203 1.278 . S
C200 O201 1.203 . S
C200 O207 1.267 1_455 S
O201 C200 1.203 . S
O202 C195 1.185 . S
O202 Zn198 2.086 1_545 S
C203 O199 1.278 . S
C203 O204 1.211 . S
O204 C203 1.211 . S
C205 O197 1.284 . S
C205 O206 1.273 . S
O206 C205 1.273 . S
O207 Zn198 1.977 . S
O207 C200 1.267 1_655 S
C208 O209 1.160 . S
C208 O215 1.185 . S
O209 C208 1.160 . S
O210 Zn211 1.899 . S
O210 C218 1.284 . S
Zn211 O210 1.899 . S
Zn211 O212 2.032 . S
Zn211 O215 2.086 . S
Zn211 O220 1.977 . S
O212 Zn211 2.032 . S
O212 C216 1.278 . S
C213 O214 1.203 . S
C213 O220 1.267 . S
O214 C213 1.203 . S
O215 C208 1.185 . S
O215 Zn211 2.086 . S
C216 O212 1.278 . S
C216 O217 1.211 . S
O217 C216 1.211 . S
C218 O210 1.284 . S
C218 O219 1.273 . S
O219 C218 1.273 . S
O220 Zn211 1.977 . S
O220 C213 1.267 . S
C221 O222 1.160 . S
C221 O228 1.185 . S
O222 C221 1.160 . S
O223 Zn224 1.899 . S
O223 C231 1.284 . S
Zn224 O223 1.899 . S
Zn224 O225 2.032 . S
Zn224 O228 2.086 . S
Zn224 O233 1.977 . S
O225 Zn224 2.032 . S
O225 C229 1.278 . S
C226 O227 1.203 . S
C226 O233 1.267 . S
O227 C226 1.203 . S
O228 C221 1.185 . S
O228 Zn224 2.086 . S
C229 O225 1.278 . S
C229 O230 1.211 . S
O230 C229 1.211 . S
C231 O223 1.284 . S
C231 O232 1.273 . S
O232 C231 1.273 . S
O233 Zn224 1.977 . S
O233 C226 1.267 . S
C234 O235 1.160 . S
C234 O241 1.185 . S
O235 C234 1.160 . S
O236 Zn237 1.899 . S
O236 C244 1.284 . S
Zn237 O236 1.899 . S
Zn237 O238 2.032 . S
Zn237 O241 2.086 . S
Zn237 O246 1.977 . S
O238 Zn237 2.032 . S
O238 C242 1.278 . S
C239 O240 1.203 . S
C239 O246 1.267 . S
O240 C239 1.203 . S
O241 C234 1.185 . S
O241 Zn237 2.086 . S
C242 O238 1.278 . S
C242 O243 1.211 . S
O243 C242 1.211 . S
C244 O236 1.284 . S
C244 O245 1.273 . S
O245 C244 1.273 . S
O246 Zn237 1.977 . S
O246 C239 1.267 . S
C247 O248 1.160 . S
C247 O254 1.185 . S
O248 C247 1.160 . S
O249 Zn250 1.899 . S
O249 C257 1.284 . S
Zn250 O249 1.899 . S
Zn250 O251 2.032 . S
Zn250 O254 2.086 . S
Zn250 O259 1.977 . S
O251 Zn250 2.032 . S
O251 C255 1.278 . S
C252 O253 1.203 . S
C252 O259 1.267 1_455 S
O253 C252 1.203 . S
O254 C247 1.185 . S
O254 Zn250 2.086 . S
C255 O251 1.278 . S
C255 O256 1.211 . S
O256 C255 1.211 . S
C257 O249 1.284 . S
C257 O258 1.273 . S
O258 C257 1.273 . S
O259 Zn250 1.977 . S
O259 C252 1.267 1_655 S
C260 O261 1.160 . S
C260 O267 1.185 . S
O261 C260 1.160 . S
O262 Zn263 1.899 . S
O262 C270 1.284 . S
Zn263 O262 1.899 . S
Zn263 O264 2.032 . S
Zn263 O267 2.086 . S
Zn263 O272 1.977 . S
O264 Zn263 2.032 . S
O264 C268 1.278 . S
C265 O266 1.203 . S
C265 O272 1.267 . S
O266 C265 1.203 . S
O267 C260 1.185 . S
O267 Zn263 2.086 . S
C268 O264 1.278 . S
C268 O269 1.211 . S
O269 C268 1.211 . S
C270 O262 1.284 . S
C270 O271 1.273 . S
O271 C270 1.273 . S
O272 Zn263 1.977 . S
O272 C265 1.267 . S
C273 O274 1.160 . S
C273 O280 1.185 . S
O274 C273 1.160 . S
O275 Zn276 1.899 . S
O275 C283 1.284 . S
Zn276 O275 1.899 . S
Zn276 O277 2.032 . S
Zn276 O280 2.086 . S
Zn276 O285 1.977 . S
O277 Zn276 2.032 . S
O277 C281 1.278 . S
C278 O279 1.203 . S
C278 O285 1.267 1_455 S
O279 C278 1.203 . S
O280 C273 1.185 . S
O280 Zn276 2.086 . S
C281 O277 1.278 . S
C281 O282 1.211 . S
O282 C281 1.211 . S
C283 O275 1.284 . S
C283 O284 1.273 . S
O284 C283 1.273 . S
O285 Zn276 1.977 . S
O285 C278 1.267 1_655 S
C286 O287 1.160 . S
C286 O293 1.185 . S
O287 C286 1.160 . S
O288 Zn289 1.899 . S
O288 C296 1.284 . S
Zn289 O288 1.899 . S
Zn289 O290 2.032 . S
Zn289 O293 2.086 . S
Zn289 O298 1.977 . S
O290 Zn289 2.032 . S
O290 C294 1.278 . S
C291 O292 1.203 . S
C291 O298 1.267 . S
O292 C291 1.203 . S
O293 C286 1.185 . S
O293 Zn289 2.086 . S
C294 O290 1.278 . S
C294 O295 1.211 . S
O295 C294 1.211 . S
C296 O288 1.284 . S
C296 O297 1.273 . S
O297 C296 1.273 . S
O298 Zn289 1.977 . S
O298 C291 1.267 . S
C299 O300 1.160 . S
C299 O306 1.185 . S
O300 C299 1.160 . S
O301 Zn302 1.899 . S
O301 C309 1.284 . S
Zn302 O301 1.899 . S
Zn302 O303 2.032 . S
Zn302 O306 2.086 . S
Zn302 O311 1.977 . S
O303 Zn302 2.032 . S
O303 C307 1.278 . S
C304 O305 1.203 . S
C304 O311 1.267 . S
O305 C304 1.203 . S
O306 C299 1.185 . S
O306 Zn302 2.086 . S
C307 O303 1.278 . S
C307 O308 1.211 . S
O308 C307 1.211 . S
C309 O301 1.284 . S
C309 O310 1.273 . S
O310 C309 1.273 . S
O311 Zn302 1.977 . S
O311 C304 1.267 . S
C312 O313 1.160 . S
C312 O319 1.185 . S
O313 C312 1.160 . S
O314 Zn315 1.899 . S
O314 C322 1.284 . S
Zn315 O314 1.899 . S
Zn315 O316 2.032 . S
Zn315 O319 2.086 . S
Zn315 O324 1.977 . S
O316 Zn315 2.032 . S
O316 C320 1.278 . S
C317 O318 1.203 . S
C317 O324 1.267 . S
O318 C317 1.203 . S
O319 C312 1.185 . S
O319 Zn315 2.086 . S
C320 O316 1.278 . S
C320 O321 1.211 . S
O321 C320 1.211 . S
C322 O314 1.284 . S
C322 O323 1.273 . S
O323 C322 1.273 . S
O324 Zn315 1.977 . S
O324 C317 1.267 . S
C325 O326 1.160 . S
C325 O332 1.185 . S
O326 C325 1.160 . S
O327 Zn328 1.899 . S
O327 C335 1.284 . S
Zn328 O327 1.899 . S
Zn328 O329 2.032 . S
Zn328 O332 2.086 . S
Zn328 O337 1.977 . S
O329 Zn328 2.032 . S
O329 C333 1.278 . S
C330 O331 1.203 . S
C330 O337 1.267 . S
O331 C330 1.203 . S
O332 C325 1.185 . S
O332 Zn328 2.086 . S
C333 O329 1.278 . S
C333 O334 1.211 . S
O334 C333 1.211 . S
C335 O327 1.284 . S
C335 O336 1.273 . S
O336 C335 1.273 . S
O337 Zn328 1.977 . S
O337 C330 1.267 . S
C338 O339 1.160 . S
C338 O345 1.185 . S
O339 C338 1.160 . S
O340 Zn341 1.899 . S
O340 C348 1.284 . S
Zn341 O340 1.899 . S
Zn341 O342 2.032 . S
Zn341 O345 2.086 . S
Zn341 O350 1.977 . S
O342 Zn341 2.032 . S
O342 C346 1.278 . S
C343 O344 1.203 . S
C343 O350 1.267 . S
O344 C343 1.203 . S
O345 C338 1.185 . S
O345 Zn341 2.086 . S
C346 O342 1.278 . S
C346 O347 1.211 . S
O347 C346 1.211 . S
C348 O340 1.284 . S
C348 O349 1.273 . S
O349 C348 1.273 . S
O350 Zn341 1.977 . S
O350 C343 1.267 . S
C351 O352 1.160 . S
C351 O358 1.185 . S
O352 C351 1.160 . S
O353 Zn354 1.899 . S
O353 C361 1.284 . S
Zn354 O353 1.899 . S
Zn354 O355 2.032 . S
Zn354 O358 2.086 . S
Zn354 O363 1.977 . S
O355 Zn354 2.032 . S
O355 C359 1.278 . S
C356 O357 1.203 . S
C356 O363 1.267 1_655 S
O357 C356 1.203 . S
O358 C351 1.185 . S
O358 Zn354 2.086 . S
C359 O355 1.278 . S
C359 O360 1.211 . S
O360 C359 1.211 . S
C361 O353 1.284 . S
C361 O362 1.273 . S
O362 C361 1.273 . S
O363 Zn354 1.977 . S
O363 C356 1.267 1_455 S
C364 O365 1.160 . S
C364 O371 1.185 . S
O365 C364 1.160 . S
O366 Zn367 1.899 . S
O366 C374 1.284 . S
Zn367 O366 1.899 . S
Zn367 O368 2.032 . S
Zn367 O371 2.086 . S
Zn367 O376 1.977 . S
O368 Zn367 2.032 . S
O368 C372 1.278 . S
C369 O370 1.203 . S
C369 O376 1.267 . S
O370 C369 1.203 . S
O371 C364 1.185 . S
O371 Zn367 2.086 . S
C372 O368 1.278 . S
C372 O373 1.211 . S
O373 C372 1.211 . S
C374 O366 1.284 . S
C374 O375 1.273 . S
O375 C374 1.273 . S
O376 Zn367 1.977 . S
O376 C369 1.267 . S
C377 O378 1.160 . S
C377 O384 1.185 . S
O378 C377 1.160 . S
O379 Zn380 1.899 . S
O379 C387 1.284 . S
Zn380 O379 1.899 . S
Zn380 O381 2.032 . S
Zn380 O384 2.086 . S
Zn380 O389 1.977 . S
O381 Zn380 2.032 . S
O381 C385 1.278 . S
C382 O383 1.203 . S
C382 O389 1.267 1_655 S
O383 C382 1.203 . S
O384 C377 1.185 . S
O384 Zn380 2.086 . S
C385 O381 1.278 . S
C385 O386 1.211 . S
O386 C385 1.211 . S
C387 O379 1.284 . S
C387 O388 1.273 . S
O388 C387 1.273 . S
O389 Zn380 1.977 . S
O389 C382 1.267 1_455 S
C390 O391 1.160 . S
C390 O397 1.185 . S
O391 C390 1.160 . S
O392 Zn393 1.899 . S
O392 C400 1.284 . S
Zn393 O392 1.899 . S
Zn393 O394 2.032 . S
Zn393 O397 2.086 . S
Zn393 O402 1.977 . S
O394 Zn393 2.032 . S
O394 C398 1.278 . S
C395 O396 1.203 . S
C395 O402 1.267 . S
O396 C395 1.203 . S
O397 C390 1.185 . S
O397 Zn393 2.086 . S
C398 O394 1.278 . S
C398 O399 1.211 . S
O399 C398 1.211 . S
C400 O392 1.284 . S
C400 O401 1.273 . S
O401 C400 1.273 . S
O402 Zn393 1.977 . S
O402 C395 1.267 . S
C403 O404 1.160 . S
C403 O410 1.185 . S
O404 C403 1.160 . S
O405 Zn406 1.899 . S
O405 C413 1.284 . S
Zn406 O405 1.899 . S
Zn406 O407 2.032 . S
Zn406 O410 2.086 . S
Zn406 O415 1.977 . S
O407 Zn406 2.032 . S
O407 C411 1.278 . S
C408 O409 1.203 . S
C408 O415 1.267 . S
O409 C408 1.203 . S
O410 C403 1.185 . S
O410 Zn406 2.086 . S
C411 O407 1.278 . S
C411 O412 1.211 . S
O412 C411 1.211 . S
C413 O405 1.284 . S
C413 O414 1.273 . S
O414 C413 1.273 . S
O415 Zn406 1.977 . S
O415 C408 1.267 . S
H416 C422 0.930 . S
H417 C426 0.930 . S
H418 C431 0.929 . S
H419 C429 0.929 . S
H420 C424 0.929 . S
H421 C430 0.929 . S
C422 H416 0.930 . S
C422 C423 1.367 . S
C422 C430 1.378 . S
C423 C422 1.367 . S
C423 C431 1.433 . S
C424 H420 0.929 . S
C424 C426 1.378 . S
C424 C428 1.350 . S
C425 C428 1.463 . S
C425 C430 1.350 . S
C425 N433 1.427 . S
C426 H417 0.930 . S
C426 C424 1.378 . S
C426 C427 1.367 . S
C427 C426 1.367 . S
C427 C429 1.433 . S
C428 C424 1.350 . S
C428 C425 1.463 . S
C428 N432 1.427 . S
C429 H419 0.929 . S
C429 C427 1.433 . S
C429 N432 1.384 . S
C430 H421 0.929 . S
C430 C422 1.378 . S
C430 C425 1.350 . S
C431 H418 0.929 . S
C431 C423 1.433 . S
C431 N433 1.384 . S
N432 C428 1.427 . S
N432 C429 1.384 . S
N433 C425 1.427 . S
N433 C431 1.384 . S
H434 C440 0.930 . S
H435 C444 0.930 . S
H436 C449 0.929 . S
H437 C447 0.929 . S
H438 C442 0.929 . S
H439 C448 0.929 . S
C440 H434 0.930 . S
C440 C441 1.367 . S
C440 C448 1.378 . S
C441 C440 1.367 . S
C441 C449 1.433 . S
C442 H438 0.929 . S
C442 C444 1.378 . S
C442 C446 1.350 . S
C443 C446 1.463 . S
C443 C448 1.350 . S
C443 N451 1.427 . S
C444 H435 0.930 . S
C444 C442 1.378 . S
C444 C445 1.367 . S
C445 C444 1.367 . S
C445 C447 1.433 . S
C446 C442 1.350 . S
C446 C443 1.463 . S
C446 N450 1.427 . S
C447 H437 0.929 . S
C447 C445 1.433 . S
C447 N450 1.384 . S
C448 H439 0.929 . S
C448 C440 1.378 . S
C448 C443 1.350 . S
C449 H436 0.929 . S
C449 C441 1.433 . S
C449 N451 1.384 . S
N450 C446 1.427 . S
N450 C447 1.384 . S
N451 C443 1.427 . S
N451 C449 1.384 . S
H452 C458 0.930 . S
H453 C462 0.930 . S
H454 C467 0.929 . S
H455 C465 0.929 . S
H456 C460 0.929 . S
H457 C466 0.929 . S
C458 H452 0.930 . S
C458 C459 1.367 . S
C458 C466 1.378 . S
C459 C458 1.367 . S
C459 C467 1.433 . S
C460 H456 0.929 . S
C460 C462 1.378 . S
C460 C464 1.350 . S
C461 C464 1.463 . S
C461 C466 1.350 . S
C461 N469 1.427 . S
C462 H453 0.930 . S
C462 C460 1.378 . S
C462 C463 1.367 . S
C463 C462 1.367 . S
C463 C465 1.433 . S
C464 C460 1.350 . S
C464 C461 1.463 . S
C464 N468 1.427 . S
C465 H455 0.929 . S
C465 C463 1.433 . S
C465 N468 1.384 . S
C466 H457 0.929 . S
C466 C458 1.378 . S
C466 C461 1.350 . S
C467 H454 0.929 . S
C467 C459 1.433 . S
C467 N469 1.384 . S
N468 C464 1.427 . S
N468 C465 1.384 . S
N469 C461 1.427 . S
N469 C467 1.384 . S
H470 C476 0.930 . S
H471 C480 0.930 . S
H472 C485 0.929 . S
H473 C483 0.929 . S
H474 C478 0.929 . S
H475 C484 0.929 . S
C476 H470 0.930 . S
C476 C477 1.367 . S
C476 C484 1.378 . S
C477 C476 1.367 . S
C477 C485 1.433 . S
C478 H474 0.929 . S
C478 C480 1.378 . S
C478 C482 1.350 . S
C479 C482 1.463 . S
C479 C484 1.350 . S
C479 N487 1.427 . S
C480 H471 0.930 . S
C480 C478 1.378 . S
C480 C481 1.367 . S
C481 C480 1.367 . S
C481 C483 1.433 . S
C482 C478 1.350 . S
C482 C479 1.463 . S
C482 N486 1.427 . S
C483 H473 0.929 . S
C483 C481 1.433 . S
C483 N486 1.384 . S
C484 H475 0.929 . S
C484 C476 1.378 . S
C484 C479 1.350 . S
C485 H472 0.929 . S
C485 C477 1.433 . S
C485 N487 1.384 . S
N486 C482 1.427 . S
N486 C483 1.384 . S
N487 C479 1.427 . S
N487 C485 1.384 . S
H488 C494 0.930 . S
H489 C498 0.930 . S
H490 C503 0.929 . S
H491 C501 0.929 . S
H492 C496 0.929 . S
H493 C502 0.929 . S
C494 H488 0.930 . S
C494 C495 1.367 . S
C494 C502 1.378 . S
C495 C494 1.367 . S
C495 C503 1.433 . S
C496 H492 0.929 . S
C496 C498 1.378 . S
C496 C500 1.350 . S
C497 C500 1.463 . S
C497 C502 1.350 . S
C497 N505 1.427 . S
C498 H489 0.930 . S
C498 C496 1.378 . S
C498 C499 1.367 . S
C499 C498 1.367 . S
C499 C501 1.433 . S
C500 C496 1.350 . S
C500 C497 1.463 . S
C500 N504 1.427 . S
C501 H491 0.929 . S
C501 C499 1.433 . S
C501 N504 1.384 . S
C502 H493 0.929 . S
C502 C494 1.378 . S
C502 C497 1.350 . S
C503 H490 0.929 . S
C503 C495 1.433 . S
C503 N505 1.384 . S
N504 C500 1.427 . S
N504 C501 1.384 . S
N505 C497 1.427 . S
N505 C503 1.384 . S
H506 C512 0.930 . S
H507 C516 0.930 . S
H508 C521 0.929 . S
H509 C519 0.929 . S
H510 C514 0.929 . S
H511 C520 0.929 . S
C512 H506 0.930 . S
C512 C513 1.367 . S
C512 C520 1.378 . S
C513 C512 1.367 . S
C513 C521 1.433 . S
C514 H510 0.929 . S
C514 C516 1.378 . S
C514 C518 1.350 . S
C515 C518 1.463 . S
C515 C520 1.350 . S
C515 N523 1.427 . S
C516 H507 0.930 . S
C516 C514 1.378 . S
C516 C517 1.367 . S
C517 C516 1.367 . S
C517 C519 1.433 . S
C518 C514 1.350 . S
C518 C515 1.463 . S
C518 N522 1.427 . S
C519 H509 0.929 . S
C519 C517 1.433 . S
C519 N522 1.384 . S
C520 H511 0.929 . S
C520 C512 1.378 . S
C520 C515 1.350 . S
C521 H508 0.929 . S
C521 C513 1.433 . S
C521 N523 1.384 . S
N522 C518 1.427 . S
N522 C519 1.384 . S
N523 C515 1.427 . S
N523 C521 1.384 . S
H524 C530 0.930 . S
H525 C534 0.930 . S
H526 C539 0.929 . S
H527 C537 0.929 . S
H528 C532 0.929 . S
H529 C538 0.929 . S
C530 H524 0.930 . S
C530 C531 1.367 . S
C530 C538 1.378 . S
C531 C530 1.367 . S
C531 C539 1.433 . S
C532 H528 0.929 . S
C532 C534 1.378 . S
C532 C536 1.350 . S
C533 C536 1.463 . S
C533 C538 1.350 . S
C533 N541 1.427 . S
C534 H525 0.930 . S
C534 C532 1.378 . S
C534 C535 1.367 . S
C535 C534 1.367 . S
C535 C537 1.433 . S
C536 C532 1.350 . S
C536 C533 1.463 . S
C536 N540 1.427 . S
C537 H527 0.929 . S
C537 C535 1.433 . S
C537 N540 1.384 . S
C538 H529 0.929 . S
C538 C530 1.378 . S
C538 C533 1.350 . S
C539 H526 0.929 . S
C539 C531 1.433 . S
C539 N541 1.384 . S
N540 C536 1.427 . S
N540 C537 1.384 . S
N541 C533 1.427 . S
N541 C539 1.384 . S
H542 C548 0.930 . S
H543 C552 0.930 . S
H544 C557 0.929 . S
H545 C555 0.929 . S
H546 C550 0.929 . S
H547 C556 0.929 . S
C548 H542 0.930 . S
C548 C549 1.367 . S
C548 C556 1.378 . S
C549 C548 1.367 . S
C549 C557 1.433 . S
C550 H546 0.929 . S
C550 C552 1.378 . S
C550 C554 1.350 . S
C551 C554 1.463 . S
C551 C556 1.350 . S
C551 N559 1.427 . S
C552 H543 0.930 . S
C552 C550 1.378 . S
C552 C553 1.367 . S
C553 C552 1.367 . S
C553 C555 1.433 . S
C554 C550 1.350 . S
C554 C551 1.463 . S
C554 N558 1.427 . S
C555 H545 0.929 . S
C555 C553 1.433 . S
C555 N558 1.384 . S
C556 H547 0.929 . S
C556 C548 1.378 . S
C556 C551 1.350 . S
C557 H544 0.929 . S
C557 C549 1.433 . S
C557 N559 1.384 . S
N558 C554 1.427 . S
N558 C555 1.384 . S
N559 C551 1.427 . S
N559 C557 1.384 . S
H560 C566 0.930 . S
H561 C570 0.930 . S
H562 C575 0.929 . S
H563 C573 0.929 . S
H564 C568 0.929 . S
H565 C574 0.929 . S
C566 H560 0.930 . S
C566 C567 1.367 . S
C566 C574 1.378 . S
C567 C566 1.367 . S
C567 C575 1.433 . S
C568 H564 0.929 . S
C568 C570 1.378 . S
C568 C572 1.350 . S
C569 C572 1.463 . S
C569 C574 1.350 . S
C569 N577 1.427 . S
C570 H561 0.930 . S
C570 C568 1.378 . S
C570 C571 1.367 . S
C571 C570 1.367 . S
C571 C573 1.433 . S
C572 C568 1.350 . S
C572 C569 1.463 . S
C572 N576 1.427 . S
C573 H563 0.929 . S
C573 C571 1.433 . S
C573 N576 1.384 . S
C574 H565 0.929 . S
C574 C566 1.378 . S
C574 C569 1.350 . S
C575 H562 0.929 . S
C575 C567 1.433 . S
C575 N577 1.384 . S
N576 C572 1.427 . S
N576 C573 1.384 . S
N577 C569 1.427 . S
N577 C575 1.384 . S
H578 C584 0.930 . S
H579 C588 0.930 . S
H580 C593 0.929 . S
H581 C591 0.929 . S
H582 C586 0.929 . S
H583 C592 0.929 . S
C584 H578 0.930 . S
C584 C585 1.367 . S
C584 C592 1.378 . S
C585 C584 1.367 . S
C585 C593 1.433 . S
C586 H582 0.929 . S
C586 C588 1.378 . S
C586 C590 1.350 . S
C587 C590 1.463 . S
C587 C592 1.350 . S
C587 N595 1.427 . S
C588 H579 0.930 . S
C588 C586 1.378 . S
C588 C589 1.367 . S
C589 C588 1.367 . S
C589 C591 1.433 . S
C590 C586 1.350 . S
C590 C587 1.463 . S
C590 N594 1.427 . S
C591 H581 0.929 . S
C591 C589 1.433 . S
C591 N594 1.384 . S
C592 H583 0.929 . S
C592 C584 1.378 . S
C592 C587 1.350 . S
C593 H580 0.929 . S
C593 C585 1.433 . S
C593 N595 1.384 . S
N594 C590 1.427 . S
N594 C591 1.384 . S
N595 C587 1.427 . S
N595 C593 1.384 . S
H596 C602 0.930 . S
H597 C606 0.930 . S
H598 C611 0.929 . S
H599 C609 0.929 . S
H600 C604 0.929 . S
H601 C610 0.929 . S
C602 H596 0.930 . S
C602 C603 1.367 . S
C602 C610 1.378 . S
C603 C602 1.367 . S
C603 C611 1.433 . S
C604 H600 0.929 . S
C604 C606 1.378 . S
C604 C608 1.350 . S
C605 C608 1.463 . S
C605 C610 1.350 . S
C605 N613 1.427 . S
C606 H597 0.930 . S
C606 C604 1.378 . S
C606 C607 1.367 . S
C607 C606 1.367 . S
C607 C609 1.433 . S
C608 C604 1.350 . S
C608 C605 1.463 . S
C608 N612 1.427 . S
C609 H599 0.929 . S
C609 C607 1.433 . S
C609 N612 1.384 . S
C610 H601 0.929 . S
C610 C602 1.378 . S
C610 C605 1.350 . S
C611 H598 0.929 . S
C611 C603 1.433 . S
C611 N613 1.384 . S
N612 C608 1.427 . S
N612 C609 1.384 . S
N613 C605 1.427 . S
N613 C611 1.384 . S
H614 C620 0.930 . S
H615 C624 0.930 . S
H616 C629 0.929 . S
H617 C627 0.929 . S
H618 C622 0.929 . S
H619 C628 0.929 . S
C620 H614 0.930 . S
C620 C621 1.367 . S
C620 C628 1.378 . S
C621 C620 1.367 . S
C621 C629 1.433 . S
C622 H618 0.929 . S
C622 C624 1.378 . S
C622 C626 1.350 . S
C623 C626 1.463 . S
C623 C628 1.350 . S
C623 N631 1.427 . S
C624 H615 0.930 . S
C624 C622 1.378 . S
C624 C625 1.367 . S
C625 C624 1.367 . S
C625 C627 1.433 . S
C626 C622 1.350 . S
C626 C623 1.463 . S
C626 N630 1.427 . S
C627 H617 0.929 . S
C627 C625 1.433 . S
C627 N630 1.384 . S
C628 H619 0.929 . S
C628 C620 1.378 . S
C628 C623 1.350 . S
C629 H616 0.929 . S
C629 C621 1.433 . S
C629 N631 1.384 . S
N630 C626 1.427 . S
N630 C627 1.384 . S
N631 C623 1.427 . S
N631 C629 1.384 . S
H632 C638 0.930 . S
H633 C642 0.930 . S
H634 C647 0.929 . S
H635 C645 0.929 . S
H636 C640 0.929 . S
H637 C646 0.929 . S
C638 H632 0.930 . S
C638 C639 1.367 . S
C638 C646 1.378 . S
C639 C638 1.367 . S
C639 C647 1.433 . S
C640 H636 0.929 . S
C640 C642 1.378 . S
C640 C644 1.350 . S
C641 C644 1.463 . S
C641 C646 1.350 . S
C641 N649 1.427 . S
C642 H633 0.930 . S
C642 C640 1.378 . S
C642 C643 1.367 . S
C643 C642 1.367 . S
C643 C645 1.433 . S
C644 C640 1.350 . S
C644 C641 1.463 . S
C644 N648 1.427 . S
C645 H635 0.929 . S
C645 C643 1.433 . S
C645 N648 1.384 . S
C646 H637 0.929 . S
C646 C638 1.378 . S
C646 C641 1.350 . S
C647 H634 0.929 . S
C647 C639 1.433 . S
C647 N649 1.384 . S
N648 C644 1.427 . S
N648 C645 1.384 . S
N649 C641 1.427 . S
N649 C647 1.384 . S
H650 C656 0.930 . S
H651 C660 0.930 . S
H652 C665 0.929 . S
H653 C663 0.929 . S
H654 C658 0.929 . S
H655 C664 0.929 . S
C656 H650 0.930 . S
C656 C657 1.367 . S
C656 C664 1.378 . S
C657 C656 1.367 . S
C657 C665 1.433 . S
C658 H654 0.929 . S
C658 C660 1.378 . S
C658 C662 1.350 . S
C659 C662 1.463 . S
C659 C664 1.350 . S
C659 N667 1.427 . S
C660 H651 0.930 . S
C660 C658 1.378 . S
C660 C661 1.367 . S
C661 C660 1.367 . S
C661 C663 1.433 . S
C662 C658 1.350 . S
C662 C659 1.463 . S
C662 N666 1.427 . S
C663 H653 0.929 . S
C663 C661 1.433 . S
C663 N666 1.384 . S
C664 H655 0.929 . S
C664 C656 1.378 . S
C664 C659 1.350 . S
C665 H652 0.929 . S
C665 C657 1.433 . S
C665 N667 1.384 . S
N666 C662 1.427 . S
N666 C663 1.384 . S
N667 C659 1.427 . S
N667 C665 1.384 . S
H668 C674 0.930 . S
H669 C678 0.930 . S
H670 C683 0.929 . S
H671 C681 0.929 . S
H672 C676 0.929 . S
H673 C682 0.929 . S
C674 H668 0.930 . S
C674 C675 1.367 . S
C674 C682 1.378 . S
C675 C674 1.367 . S
C675 C683 1.433 . S
C676 H672 0.929 . S
C676 C678 1.378 . S
C676 C680 1.350 . S
C677 C680 1.463 . S
C677 C682 1.350 . S
C677 N685 1.427 . S
C678 H669 0.930 . S
C678 C676 1.378 . S
C678 C679 1.367 . S
C679 C678 1.367 . S
C679 C681 1.433 . S
C680 C676 1.350 . S
C680 C677 1.463 . S
C680 N684 1.427 . S
C681 H671 0.929 . S
C681 C679 1.433 . S
C681 N684 1.384 . S
C682 H673 0.929 . S
C682 C674 1.378 . S
C682 C677 1.350 . S
C683 H670 0.929 . S
C683 C675 1.433 . S
C683 N685 1.384 . S
N684 C680 1.427 . S
N684 C681 1.384 . S
N685 C677 1.427 . S
N685 C683 1.384 . S
H686 C692 0.930 . S
H687 C696 0.930 . S
H688 C701 0.929 . S
H689 C699 0.929 . S
H690 C694 0.929 . S
H691 C700 0.929 . S
C692 H686 0.930 . S
C692 C693 1.367 . S
C692 C700 1.378 . S
C693 C692 1.367 . S
C693 C701 1.433 . S
C694 H690 0.929 . S
C694 C696 1.378 . S
C694 C698 1.350 . S
C695 C698 1.463 . S
C695 C700 1.350 . S
C695 N703 1.427 . S
C696 H687 0.930 . S
C696 C694 1.378 . S
C696 C697 1.367 . S
C697 C696 1.367 . S
C697 C699 1.433 . S
C698 C694 1.350 . S
C698 C695 1.463 . S
C698 N702 1.427 . S
C699 H689 0.929 . S
C699 C697 1.433 . S
C699 N702 1.384 . S
C700 H691 0.929 . S
C700 C692 1.378 . S
C700 C695 1.350 . S
C701 H688 0.929 . S
C701 C693 1.433 . S
C701 N703 1.384 . S
N702 C698 1.427 . S
N702 C699 1.384 . S
N703 C695 1.427 . S
N703 C701 1.384 . S
H704 C710 0.930 . S
H705 C714 0.930 . S
H706 C719 0.929 . S
H707 C717 0.929 . S
H708 C712 0.929 . S
H709 C718 0.929 . S
C710 H704 0.930 . S
C710 C711 1.367 . S
C710 C718 1.378 . S
C711 C710 1.367 . S
C711 C719 1.433 . S
C712 H708 0.929 . S
C712 C714 1.378 . S
C712 C716 1.350 . S
C713 C716 1.463 . S
C713 C718 1.350 . S
C713 N721 1.427 . S
C714 H705 0.930 . S
C714 C712 1.378 . S
C714 C715 1.367 . S
C715 C714 1.367 . S
C715 C717 1.433 . S
C716 C712 1.350 . S
C716 C713 1.463 . S
C716 N720 1.427 . S
C717 H707 0.929 . S
C717 C715 1.433 . S
C717 N720 1.384 . S
C718 H709 0.929 . S
C718 C710 1.378 . S
C718 C713 1.350 . S
C719 H706 0.929 . S
C719 C711 1.433 . S
C719 N721 1.384 . S
N720 C716 1.427 . S
N720 C717 1.384 . S
N721 C713 1.427 . S
N721 C719 1.384 . S
H722 C728 0.930 . S
H723 C732 0.930 . S
H724 C737 0.929 . S
H725 C735 0.929 . S
H726 C730 0.929 . S
H727 C736 0.929 . S
C728 H722 0.930 . S
C728 C729 1.367 . S
C728 C736 1.378 . S
C729 C728 1.367 . S
C729 C737 1.433 . S
C730 H726 0.929 . S
C730 C732 1.378 . S
C730 C734 1.350 . S
C731 C734 1.463 . S
C731 C736 1.350 . S
C731 N739 1.427 . S
C732 H723 0.930 . S
C732 C730 1.378 . S
C732 C733 1.367 . S
C733 C732 1.367 . S
C733 C735 1.433 . S
C734 C730 1.350 . S
C734 C731 1.463 . S
C734 N738 1.427 . S
C735 H725 0.929 . S
C735 C733 1.433 . S
C735 N738 1.384 . S
C736 H727 0.929 . S
C736 C728 1.378 . S
C736 C731 1.350 . S
C737 H724 0.929 . S
C737 C729 1.433 . S
C737 N739 1.384 . S
N738 C734 1.427 . S
N738 C735 1.384 . S
N739 C731 1.427 . S
N739 C737 1.384 . S
H740 C746 0.930 . S
H741 C750 0.930 . S
H742 C755 0.929 . S
H743 C753 0.929 . S
H744 C748 0.929 . S
H745 C754 0.929 . S
C746 H740 0.930 . S
C746 C747 1.367 . S
C746 C754 1.378 . S
C747 C746 1.367 . S
C747 C755 1.433 . S
C748 H744 0.929 . S
C748 C750 1.378 . S
C748 C752 1.350 . S
C749 C752 1.463 . S
C749 C754 1.350 . S
C749 N757 1.427 . S
C750 H741 0.930 . S
C750 C748 1.378 . S
C750 C751 1.367 . S
C751 C750 1.367 . S
C751 C753 1.433 . S
C752 C748 1.350 . S
C752 C749 1.463 . S
C752 N756 1.427 . S
C753 H743 0.929 . S
C753 C751 1.433 . S
C753 N756 1.384 . S
C754 H745 0.929 . S
C754 C746 1.378 . S
C754 C749 1.350 . S
C755 H742 0.929 . S
C755 C747 1.433 . S
C755 N757 1.384 . S
N756 C752 1.427 . S
N756 C753 1.384 . S
N757 C749 1.427 . S
N757 C755 1.384 . S
H758 C764 0.930 . S
H759 C768 0.930 . S
H760 C773 0.929 . S
H761 C771 0.929 . S
H762 C766 0.929 . S
H763 C772 0.929 . S
C764 H758 0.930 . S
C764 C765 1.367 . S
C764 C772 1.378 . S
C765 C764 1.367 . S
C765 C773 1.433 . S
C766 H762 0.929 . S
C766 C768 1.378 . S
C766 C770 1.350 . S
C767 C770 1.463 . S
C767 C772 1.350 . S
C767 N775 1.427 . S
C768 H759 0.930 . S
C768 C766 1.378 . S
C768 C769 1.367 . S
C769 C768 1.367 . S
C769 C771 1.433 . S
C770 C766 1.350 . S
C770 C767 1.463 . S
C770 N774 1.427 . S
C771 H761 0.929 . S
C771 C769 1.433 . S
C771 N774 1.384 . S
C772 H763 0.929 . S
C772 C764 1.378 . S
C772 C767 1.350 . S
C773 H760 0.929 . S
C773 C765 1.433 . S
C773 N775 1.384 . S
N774 C770 1.427 . S
N774 C771 1.384 . S
N775 C767 1.427 . S
N775 C773 1.384 . S
H776 C782 0.930 . S
H777 C786 0.930 . S
H778 C791 0.929 . S
H779 C789 0.929 . S
H780 C784 0.929 . S
H781 C790 0.929 . S
C782 H776 0.930 . S
C782 C783 1.367 . S
C782 C790 1.378 . S
C783 C782 1.367 . S
C783 C791 1.433 . S
C784 H780 0.929 . S
C784 C786 1.378 . S
C784 C788 1.350 . S
C785 C788 1.463 . S
C785 C790 1.350 . S
C785 N793 1.427 . S
C786 H777 0.930 . S
C786 C784 1.378 . S
C786 C787 1.367 . S
C787 C786 1.367 . S
C787 C789 1.433 . S
C788 C784 1.350 . S
C788 C785 1.463 . S
C788 N792 1.427 . S
C789 H779 0.929 . S
C789 C787 1.433 . S
C789 N792 1.384 . S
C790 H781 0.929 . S
C790 C782 1.378 . S
C790 C785 1.350 . S
C791 H778 0.929 . S
C791 C783 1.433 . S
C791 N793 1.384 . S
N792 C788 1.427 . S
N792 C789 1.384 . S
N793 C785 1.427 . S
N793 C791 1.384 . S
H794 C800 0.930 . S
H795 C804 0.930 . S
H796 C809 0.929 . S
H797 C807 0.929 . S
H798 C802 0.929 . S
H799 C808 0.929 . S
C800 H794 0.930 . S
C800 C801 1.367 . S
C800 C808 1.378 . S
C801 C800 1.367 . S
C801 C809 1.433 . S
C802 H798 0.929 . S
C802 C804 1.378 . S
C802 C806 1.350 . S
C803 C806 1.463 . S
C803 C808 1.350 . S
C803 N811 1.427 . S
C804 H795 0.930 . S
C804 C802 1.378 . S
C804 C805 1.367 . S
C805 C804 1.367 . S
C805 C807 1.433 . S
C806 C802 1.350 . S
C806 C803 1.463 . S
C806 N810 1.427 . S
C807 H797 0.929 . S
C807 C805 1.433 . S
C807 N810 1.384 . S
C808 H799 0.929 . S
C808 C800 1.378 . S
C808 C803 1.350 . S
C809 H796 0.929 . S
C809 C801 1.433 . S
C809 N811 1.384 . S
N810 C806 1.427 . S
N810 C807 1.384 . S
N811 C803 1.427 . S
N811 C809 1.384 . S
H812 C818 0.930 . S
H813 C822 0.930 . S
H814 C827 0.929 . S
H815 C825 0.929 . S
H816 C820 0.929 . S
H817 C826 0.929 . S
C818 H812 0.930 . S
C818 C819 1.367 . S
C818 C826 1.378 . S
C819 C818 1.367 . S
C819 C827 1.433 . S
C820 H816 0.929 . S
C820 C822 1.378 . S
C820 C824 1.350 . S
C821 C824 1.463 . S
C821 C826 1.350 . S
C821 N829 1.427 . S
C822 H813 0.930 . S
C822 C820 1.378 . S
C822 C823 1.367 . S
C823 C822 1.367 . S
C823 C825 1.433 . S
C824 C820 1.350 . S
C824 C821 1.463 . S
C824 N828 1.427 . S
C825 H815 0.929 . S
C825 C823 1.433 . S
C825 N828 1.384 . S
C826 H817 0.929 . S
C826 C818 1.378 . S
C826 C821 1.350 . S
C827 H814 0.929 . S
C827 C819 1.433 . S
C827 N829 1.384 . S
N828 C824 1.427 . S
N828 C825 1.384 . S
N829 C821 1.427 . S
N829 C827 1.384 . S
H830 C836 0.930 . S
H831 C840 0.930 . S
H832 C845 0.929 . S
H833 C843 0.929 . S
H834 C838 0.929 . S
H835 C844 0.929 . S
C836 H830 0.930 . S
C836 C837 1.367 . S
C836 C844 1.378 . S
C837 C836 1.367 . S
C837 C845 1.433 . S
C838 H834 0.929 . S
C838 C840 1.378 . S
C838 C842 1.350 . S
C839 C842 1.463 . S
C839 C844 1.350 . S
C839 N847 1.427 . S
C840 H831 0.930 . S
C840 C838 1.378 . S
C840 C841 1.367 . S
C841 C840 1.367 . S
C841 C843 1.433 . S
C842 C838 1.350 . S
C842 C839 1.463 . S
C842 N846 1.427 . S
C843 H833 0.929 . S
C843 C841 1.433 . S
C843 N846 1.384 . S
C844 H835 0.929 . S
C844 C836 1.378 . S
C844 C839 1.350 . S
C845 H832 0.929 . S
C845 C837 1.433 . S
C845 N847 1.384 . S
N846 C842 1.427 . S
N846 C843 1.384 . S
N847 C839 1.427 . S
N847 C845 1.384 . S
H848 C854 0.930 . S
H849 C858 0.930 . S
H850 C863 0.929 . S
H851 C861 0.929 . S
H852 C856 0.929 . S
H853 C862 0.929 . S
C854 H848 0.930 . S
C854 C855 1.367 . S
C854 C862 1.378 . S
C855 C854 1.367 . S
C855 C863 1.433 . S
C856 H852 0.929 . S
C856 C858 1.378 . S
C856 C860 1.350 . S
C857 C860 1.463 . S
C857 C862 1.350 . S
C857 N865 1.427 . S
C858 H849 0.930 . S
C858 C856 1.378 . S
C858 C859 1.367 . S
C859 C858 1.367 . S
C859 C861 1.433 . S
C860 C856 1.350 . S
C860 C857 1.463 . S
C860 N864 1.427 . S
C861 H851 0.929 . S
C861 C859 1.433 . S
C861 N864 1.384 . S
C862 H853 0.929 . S
C862 C854 1.378 . S
C862 C857 1.350 . S
C863 H850 0.929 . S
C863 C855 1.433 . S
C863 N865 1.384 . S
N864 C860 1.427 . S
N864 C861 1.384 . S
N865 C857 1.427 . S
N865 C863 1.384 . S
H866 C872 0.930 . S
H867 C876 0.930 . S
H868 C881 0.929 . S
H869 C879 0.929 . S
H870 C874 0.929 . S
H871 C880 0.929 . S
C872 H866 0.930 . S
C872 C873 1.367 . S
C872 C880 1.378 . S
C873 C872 1.367 . S
C873 C881 1.433 . S
C874 H870 0.929 . S
C874 C876 1.378 . S
C874 C878 1.350 . S
C875 C878 1.463 . S
C875 C880 1.350 . S
C875 N883 1.427 . S
C876 H867 0.930 . S
C876 C874 1.378 . S
C876 C877 1.367 . S
C877 C876 1.367 . S
C877 C879 1.433 . S
C878 C874 1.350 . S
C878 C875 1.463 . S
C878 N882 1.427 . S
C879 H869 0.929 . S
C879 C877 1.433 . S
C879 N882 1.384 . S
C880 H871 0.929 . S
C880 C872 1.378 . S
C880 C875 1.350 . S
C881 H868 0.929 . S
C881 C873 1.433 . S
C881 N883 1.384 . S
N882 C878 1.427 . S
N882 C879 1.384 . S
N883 C875 1.427 . S
N883 C881 1.384 . S
H884 C890 0.930 . S
H885 C894 0.930 . S
H886 C899 0.929 . S
H887 C897 0.929 . S
H888 C892 0.929 . S
H889 C898 0.929 . S
C890 H884 0.930 . S
C890 C891 1.367 . S
C890 C898 1.378 . S
C891 C890 1.367 . S
C891 C899 1.433 . S
C892 H888 0.929 . S
C892 C894 1.378 . S
C892 C896 1.350 . S
C893 C896 1.463 . S
C893 C898 1.350 . S
C893 N901 1.427 . S
C894 H885 0.930 . S
C894 C892 1.378 . S
C894 C895 1.367 . S
C895 C894 1.367 . S
C895 C897 1.433 . S
C896 C892 1.350 . S
C896 C893 1.463 . S
C896 N900 1.427 . S
C897 H887 0.929 . S
C897 C895 1.433 . S
C897 N900 1.384 . S
C898 H889 0.929 . S
C898 C890 1.378 . S
C898 C893 1.350 . S
C899 H886 0.929 . S
C899 C891 1.433 . S
C899 N901 1.384 . S
N900 C896 1.427 . S
N900 C897 1.384 . S
N901 C893 1.427 . S
N901 C899 1.384 . S
H902 C908 0.930 . S
H903 C912 0.930 . S
H904 C917 0.929 . S
H905 C915 0.929 . S
H906 C910 0.929 . S
H907 C916 0.929 . S
C908 H902 0.930 . S
C908 C909 1.367 . S
C908 C916 1.378 . S
C909 C908 1.367 . S
C909 C917 1.433 . S
C910 H906 0.929 . S
C910 C912 1.378 . S
C910 C914 1.350 . S
C911 C914 1.463 . S
C911 C916 1.350 . S
C911 N919 1.427 . S
C912 H903 0.930 . S
C912 C910 1.378 . S
C912 C913 1.367 . S
C913 C912 1.367 . S
C913 C915 1.433 . S
C914 C910 1.350 . S
C914 C911 1.463 . S
C914 N918 1.427 . S
C915 H905 0.929 . S
C915 C913 1.433 . S
C915 N918 1.384 . S
C916 H907 0.929 . S
C916 C908 1.378 . S
C916 C911 1.350 . S
C917 H904 0.929 . S
C917 C909 1.433 . S
C917 N919 1.384 . S
N918 C914 1.427 . S
N918 C915 1.384 . S
N919 C911 1.427 . S
N919 C917 1.384 . S
H920 C926 0.930 . S
H921 C930 0.930 . S
H922 C935 0.929 . S
H923 C933 0.929 . S
H924 C928 0.929 . S
H925 C934 0.929 . S
C926 H920 0.930 . S
C926 C927 1.367 . S
C926 C934 1.378 . S
C927 C926 1.367 . S
C927 C935 1.433 . S
C928 H924 0.929 . S
C928 C930 1.378 . S
C928 C932 1.350 . S
C929 C932 1.463 . S
C929 C934 1.350 . S
C929 N937 1.427 . S
C930 H921 0.930 . S
C930 C928 1.378 . S
C930 C931 1.367 . S
C931 C930 1.367 . S
C931 C933 1.433 . S
C932 C928 1.350 . S
C932 C929 1.463 . S
C932 N936 1.427 . S
C933 H923 0.929 . S
C933 C931 1.433 . S
C933 N936 1.384 . S
C934 H925 0.929 . S
C934 C926 1.378 . S
C934 C929 1.350 . S
C935 H922 0.929 . S
C935 C927 1.433 . S
C935 N937 1.384 . S
N936 C932 1.427 . S
N936 C933 1.384 . S
N937 C929 1.427 . S
N937 C935 1.384 . S
H938 C944 0.930 . S
H939 C948 0.930 . S
H940 C953 0.929 . S
H941 C951 0.929 . S
H942 C946 0.929 . S
H943 C952 0.929 . S
C944 H938 0.930 . S
C944 C945 1.367 . S
C944 C952 1.378 . S
C945 C944 1.367 . S
C945 C953 1.433 . S
C946 H942 0.929 . S
C946 C948 1.378 . S
C946 C950 1.350 . S
C947 C950 1.463 . S
C947 C952 1.350 . S
C947 N955 1.427 . S
C948 H939 0.930 . S
C948 C946 1.378 . S
C948 C949 1.367 . S
C949 C948 1.367 . S
C949 C951 1.433 . S
C950 C946 1.350 . S
C950 C947 1.463 . S
C950 N954 1.427 . S
C951 H941 0.929 . S
C951 C949 1.433 . S
C951 N954 1.384 . S
C952 H943 0.929 . S
C952 C944 1.378 . S
C952 C947 1.350 . S
C953 H940 0.929 . S
C953 C945 1.433 . S
C953 N955 1.384 . S
N954 C950 1.427 . S
N954 C951 1.384 . S
N955 C947 1.427 . S
N955 C953 1.384 . S
H956 C962 0.930 . S
H957 C966 0.930 . S
H958 C971 0.929 . S
H959 C969 0.929 . S
H960 C964 0.929 . S
H961 C970 0.929 . S
C962 H956 0.930 . S
C962 C963 1.367 . S
C962 C970 1.378 . S
C963 C962 1.367 . S
C963 C971 1.433 . S
C964 H960 0.929 . S
C964 C966 1.378 . S
C964 C968 1.350 . S
C965 C968 1.463 . S
C965 C970 1.350 . S
C965 N973 1.427 . S
C966 H957 0.930 . S
C966 C964 1.378 . S
C966 C967 1.367 . S
C967 C966 1.367 . S
C967 C969 1.433 . S
C968 C964 1.350 . S
C968 C965 1.463 . S
C968 N972 1.427 . S
C969 H959 0.929 . S
C969 C967 1.433 . S
C969 N972 1.384 . S
C970 H961 0.929 . S
C970 C962 1.378 . S
C970 C965 1.350 . S
C971 H958 0.929 . S
C971 C963 1.433 . S
C971 N973 1.384 . S
N972 C968 1.427 . S
N972 C969 1.384 . S
N973 C965 1.427 . S
N973 C971 1.384 . S
H974 C980 0.930 . S
H975 C984 0.930 . S
H976 C989 0.929 . S
H977 C987 0.929 . S
H978 C982 0.929 . S
H979 C988 0.929 . S
C980 H974 0.930 . S
C980 C981 1.367 . S
C980 C988 1.378 . S
C981 C980 1.367 . S
C981 C989 1.433 . S
C982 H978 0.929 . S
C982 C984 1.378 . S
C982 C986 1.350 . S
C983 C986 1.463 . S
C983 C988 1.350 . S
C983 N991 1.427 . S
C984 H975 0.930 . S
C984 C982 1.378 . S
C984 C985 1.367 . S
C985 C984 1.367 . S
C985 C987 1.433 . S
C986 C982 1.350 . S
C986 C983 1.463 . S
C986 N990 1.427 . S
C987 H977 0.929 . S
C987 C985 1.433 . S
C987 N990 1.384 . S
C988 H979 0.929 . S
C988 C980 1.378 . S
C988 C983 1.350 . S
C989 H976 0.929 . S
C989 C981 1.433 . S
C989 N991 1.384 . S
N990 C986 1.427 . S
N990 C987 1.384 . S
N991 C983 1.427 . S
N991 C989 1.384 . S
H992 C998 0.930 . S
H993 C1002 0.930 . S
H994 C1007 0.929 . S
H995 C1005 0.929 . S
H996 C1000 0.929 . S
H997 C1006 0.929 . S
C998 H992 0.930 . S
C998 C999 1.367 . S
C998 C1006 1.378 . S
C999 C998 1.367 . S
C999 C1007 1.433 . S
C1000 H996 0.929 . S
C1000 C1002 1.378 . S
C1000 C1004 1.350 . S
C1001 C1004 1.463 . S
C1001 C1006 1.350 . S
C1001 N1009 1.427 . S
C1002 H993 0.930 . S
C1002 C1000 1.378 . S
C1002 C1003 1.367 . S
C1003 C1002 1.367 . S
C1003 C1005 1.433 . S
C1004 C1000 1.350 . S
C1004 C1001 1.463 . S
C1004 N1008 1.427 . S
C1005 H995 0.929 . S
C1005 C1003 1.433 . S
C1005 N1008 1.384 . S
C1006 H997 0.929 . S
C1006 C998 1.378 . S
C1006 C1001 1.350 . S
C1007 H994 0.929 . S
C1007 C999 1.433 . S
C1007 N1009 1.384 . S
N1008 C1004 1.427 . S
N1008 C1005 1.384 . S
N1009 C1001 1.427 . S
N1009 C1007 1.384 . S
H1010 C1016 0.930 . S
H1011 C1020 0.930 . S
H1012 C1025 0.929 . S
H1013 C1023 0.929 . S
H1014 C1018 0.929 . S
H1015 C1024 0.929 . S
C1016 H1010 0.930 . S
C1016 C1017 1.367 1_655 S
C1016 C1024 1.378 . S
C1017 C1016 1.367 1_455 S
C1017 C1025 1.433 1_565 S
C1018 H1014 0.929 . S
C1018 C1020 1.378 . S
C1018 C1022 1.350 1_455 S
C1019 C1022 1.463 1_465 S
C1019 C1024 1.350 1_455 S
C1019 N1027 1.427 1_565 S
C1020 H1011 0.930 . S
C1020 C1018 1.378 . S
C1020 C1021 1.367 1_455 S
C1021 C1020 1.367 1_655 S
C1021 C1023 1.433 1_545 S
C1022 C1018 1.350 1_655 S
C1022 C1019 1.463 1_645 S
C1022 N1026 1.427 1_545 S
C1023 H1013 0.929 . S
C1023 C1021 1.433 1_565 S
C1023 N1026 1.384 . S
C1024 H1015 0.929 . S
C1024 C1016 1.378 . S
C1024 C1019 1.350 1_655 S
C1025 H1012 0.929 . S
C1025 C1017 1.433 1_545 S
C1025 N1027 1.384 . S
N1026 C1022 1.427 1_565 S
N1026 C1023 1.384 . S
N1027 C1019 1.427 1_545 S
N1027 C1025 1.384 . S
H1028 C1034 0.930 . S
H1029 C1038 0.930 . S
H1030 C1043 0.929 . S
H1031 C1041 0.929 . S
H1032 C1036 0.929 . S
H1033 C1042 0.929 . S
C1034 H1028 0.930 . S
C1034 C1035 1.367 . S
C1034 C1042 1.378 . S
C1035 C1034 1.367 . S
C1035 C1043 1.433 . S
C1036 H1032 0.929 . S
C1036 C1038 1.378 . S
C1036 C1040 1.350 . S
C1037 C1040 1.463 . S
C1037 C1042 1.350 . S
C1037 N1045 1.427 . S
C1038 H1029 0.930 . S
C1038 C1036 1.378 . S
C1038 C1039 1.367 . S
C1039 C1038 1.367 . S
C1039 C1041 1.433 . S
C1040 C1036 1.350 . S
C1040 C1037 1.463 . S
C1040 N1044 1.427 . S
C1041 H1031 0.929 . S
C1041 C1039 1.433 . S
C1041 N1044 1.384 . S
C1042 H1033 0.929 . S
C1042 C1034 1.378 . S
C1042 C1037 1.350 . S
C1043 H1030 0.929 . S
C1043 C1035 1.433 . S
C1043 N1045 1.384 . S
N1044 C1040 1.427 . S
N1044 C1041 1.384 . S
N1045 C1037 1.427 . S
N1045 C1043 1.384 . S
H1046 C1052 0.930 . S
H1047 C1056 0.930 . S
H1048 C1061 0.929 . S
H1049 C1059 0.929 . S
H1050 C1054 0.929 . S
H1051 C1060 0.929 . S
C1052 H1046 0.930 . S
C1052 C1053 1.367 1_565 S
C1052 C1060 1.378 . S
C1053 C1052 1.367 1_545 S
C1053 C1061 1.433 . S
C1054 H1050 0.929 . S
C1054 C1056 1.378 . S
C1054 C1058 1.350 1_545 S
C1055 C1058 1.463 1_544 S
C1055 C1060 1.350 1_545 S
C1055 N1063 1.427 . S
C1056 H1047 0.930 . S
C1056 C1054 1.378 . S
C1056 C1057 1.367 1_545 S
C1057 C1056 1.367 1_565 S
C1057 C1059 1.433 . S
C1058 C1054 1.350 1_565 S
C1058 C1055 1.463 1_566 S
C1058 N1062 1.427 . S
C1059 H1049 0.929 . S
C1059 C1057 1.433 . S
C1059 N1062 1.384 . S
C1060 H1051 0.929 . S
C1060 C1052 1.378 . S
C1060 C1055 1.350 1_565 S
C1061 H1048 0.929 . S
C1061 C1053 1.433 . S
C1061 N1063 1.384 . S
N1062 C1058 1.427 . S
N1062 C1059 1.384 . S
N1063 C1055 1.427 . S
N1063 C1061 1.384 . S
H1064 C1070 0.930 . S
H1065 C1074 0.930 . S
H1066 C1079 0.929 . S
H1067 C1077 0.929 . S
H1068 C1072 0.929 . S
H1069 C1078 0.929 . S
C1070 H1064 0.930 . S
C1070 C1071 1.367 . S
C1070 C1078 1.378 . S
C1071 C1070 1.367 . S
C1071 C1079 1.433 . S
C1072 H1068 0.929 . S
C1072 C1074 1.378 . S
C1072 C1076 1.350 . S
C1073 C1076 1.463 . S
C1073 C1078 1.350 . S
C1073 N1081 1.427 . S
C1074 H1065 0.930 . S
C1074 C1072 1.378 . S
C1074 C1075 1.367 . S
C1075 C1074 1.367 . S
C1075 C1077 1.433 . S
C1076 C1072 1.350 . S
C1076 C1073 1.463 . S
C1076 N1080 1.427 . S
C1077 H1067 0.929 . S
C1077 C1075 1.433 . S
C1077 N1080 1.384 . S
C1078 H1069 0.929 . S
C1078 C1070 1.378 . S
C1078 C1073 1.350 . S
C1079 H1066 0.929 . S
C1079 C1071 1.433 . S
C1079 N1081 1.384 . S
N1080 C1076 1.427 . S
N1080 C1077 1.384 . S
N1081 C1073 1.427 . S
N1081 C1079 1.384 . S
H1082 C1088 0.930 . S
H1083 C1092 0.930 . S
H1084 C1097 0.929 . S
H1085 C1095 0.929 . S
H1086 C1090 0.929 . S
H1087 C1096 0.929 . S
C1088 H1082 0.930 . S
C1088 C1089 1.367 . S
C1088 C1096 1.378 . S
C1089 C1088 1.367 . S
C1089 C1097 1.433 1_565 S
C1090 H1086 0.929 . S
C1090 C1092 1.378 . S
C1090 C1094 1.350 . S
C1091 C1094 1.463 1_565 S
C1091 C1096 1.350 . S
C1091 N1099 1.427 1_565 S
C1092 H1083 0.930 . S
C1092 C1090 1.378 . S
C1092 C1093 1.367 . S
C1093 C1092 1.367 . S
C1093 C1095 1.433 1_545 S
C1094 C1090 1.350 . S
C1094 C1091 1.463 1_545 S
C1094 N1098 1.427 1_545 S
C1095 H1085 0.929 . S
C1095 C1093 1.433 1_565 S
C1095 N1098 1.384 . S
C1096 H1087 0.929 . S
C1096 C1088 1.378 . S
C1096 C1091 1.350 . S
C1097 H1084 0.929 . S
C1097 C1089 1.433 1_545 S
C1097 N1099 1.384 . S
N1098 C1094 1.427 1_565 S
N1098 C1095 1.384 . S
N1099 C1091 1.427 1_545 S
N1099 C1097 1.384 . S
H1100 C1106 0.930 . S
H1101 C1110 0.930 . S
H1102 C1115 0.929 . S
H1103 C1113 0.929 . S
H1104 C1108 0.929 . S
H1105 C1114 0.929 . S
C1106 H1100 0.930 . S
C1106 C1107 1.367 . S
C1106 C1114 1.378 . S
C1107 C1106 1.367 . S
C1107 C1115 1.433 . S
C1108 H1104 0.929 . S
C1108 C1110 1.378 . S
C1108 C1112 1.350 . S
C1109 C1112 1.463 . S
C1109 C1114 1.350 . S
C1109 N1117 1.427 . S
C1110 H1101 0.930 . S
C1110 C1108 1.378 . S
C1110 C1111 1.367 . S
C1111 C1110 1.367 . S
C1111 C1113 1.433 . S
C1112 C1108 1.350 . S
C1112 C1109 1.463 . S
C1112 N1116 1.427 . S
C1113 H1103 0.929 . S
C1113 C1111 1.433 . S
C1113 N1116 1.384 . S
C1114 H1105 0.929 . S
C1114 C1106 1.378 . S
C1114 C1109 1.350 . S
C1115 H1102 0.929 . S
C1115 C1107 1.433 . S
C1115 N1117 1.384 . S
N1116 C1112 1.427 . S
N1116 C1113 1.384 . S
N1117 C1109 1.427 . S
N1117 C1115 1.384 . S
H1118 C1124 0.930 . S
H1119 C1128 0.930 . S
H1120 C1133 0.929 . S
H1121 C1131 0.929 . S
H1122 C1126 0.929 . S
H1123 C1132 0.929 . S
C1124 H1118 0.930 . S
C1124 C1125 1.367 . S
C1124 C1132 1.378 . S
C1125 C1124 1.367 . S
C1125 C1133 1.433 1_545 S
C1126 H1122 0.929 . S
C1126 C1128 1.378 . S
C1126 C1130 1.350 . S
C1127 C1130 1.463 1_446 S
C1127 C1132 1.350 . S
C1127 N1135 1.427 1_545 S
C1128 H1119 0.930 . S
C1128 C1126 1.378 . S
C1128 C1129 1.367 . S
C1129 C1128 1.367 . S
C1129 C1131 1.433 1_565 S
C1130 C1126 1.350 . S
C1130 C1127 1.463 1_664 S
C1130 N1134 1.427 1_565 S
C1131 H1121 0.929 . S
C1131 C1129 1.433 1_545 S
C1131 N1134 1.384 . S
C1132 H1123 0.929 . S
C1132 C1124 1.378 . S
C1132 C1127 1.350 . S
C1133 H1120 0.929 . S
C1133 C1125 1.433 1_565 S
C1133 N1135 1.384 . S
N1134 C1130 1.427 1_545 S
N1134 C1131 1.384 . S
N1135 C1127 1.427 1_565 S
N1135 C1133 1.384 . S
H1136 C1142 0.930 . S
H1137 C1146 0.930 . S
H1138 C1151 0.929 . S
H1139 C1149 0.929 . S
H1140 C1144 0.929 . S
H1141 C1150 0.929 . S
C1142 H1136 0.930 . S
C1142 C1143 1.367 . S
C1142 C1150 1.378 . S
C1143 C1142 1.367 . S
C1143 C1151 1.433 . S
C1144 H1140 0.929 . S
C1144 C1146 1.378 . S
C1144 C1148 1.350 . S
C1145 C1148 1.463 . S
C1145 C1150 1.350 . S
C1145 N1153 1.427 . S
C1146 H1137 0.930 . S
C1146 C1144 1.378 . S
C1146 C1147 1.367 . S
C1147 C1146 1.367 . S
C1147 C1149 1.433 . S
C1148 C1144 1.350 . S
C1148 C1145 1.463 . S
C1148 N1152 1.427 . S
C1149 H1139 0.929 . S
C1149 C1147 1.433 . S
C1149 N1152 1.384 . S
C1150 H1141 0.929 . S
C1150 C1142 1.378 . S
C1150 C1145 1.350 . S
C1151 H1138 0.929 . S
C1151 C1143 1.433 . S
C1151 N1153 1.384 . S
N1152 C1148 1.427 . S
N1152 C1149 1.384 . S
N1153 C1145 1.427 . S
N1153 C1151 1.384 . S
H1154 C1160 0.930 . S
H1155 C1164 0.930 . S
H1156 C1169 0.929 . S
H1157 C1167 0.929 . S
H1158 C1162 0.929 . S
H1159 C1168 0.929 . S
C1160 H1154 0.930 . S
C1160 C1161 1.367 . S
C1160 C1168 1.378 . S
C1161 C1160 1.367 . S
C1161 C1169 1.433 . S
C1162 H1158 0.929 . S
C1162 C1164 1.378 . S
C1162 C1166 1.350 . S
C1163 C1166 1.463 . S
C1163 C1168 1.350 . S
C1163 N1171 1.427 . S
C1164 H1155 0.930 . S
C1164 C1162 1.378 . S
C1164 C1165 1.367 . S
C1165 C1164 1.367 . S
C1165 C1167 1.433 . S
C1166 C1162 1.350 . S
C1166 C1163 1.463 . S
C1166 N1170 1.427 . S
C1167 H1157 0.929 . S
C1167 C1165 1.433 . S
C1167 N1170 1.384 . S
C1168 H1159 0.929 . S
C1168 C1160 1.378 . S
C1168 C1163 1.350 . S
C1169 H1156 0.929 . S
C1169 C1161 1.433 . S
C1169 N1171 1.384 . S
N1170 C1166 1.427 . S
N1170 C1167 1.384 . S
N1171 C1163 1.427 . S
N1171 C1169 1.384 . S
H1172 C1178 0.930 . S
H1173 C1182 0.930 . S
H1174 C1187 0.929 . S
H1175 C1185 0.929 . S
H1176 C1180 0.929 . S
H1177 C1186 0.929 . S
C1178 H1172 0.930 . S
C1178 C1179 1.367 . S
C1178 C1186 1.378 . S
C1179 C1178 1.367 . S
C1179 C1187 1.433 . S
C1180 H1176 0.929 . S
C1180 C1182 1.378 . S
C1180 C1184 1.350 . S
C1181 C1184 1.463 . S
C1181 C1186 1.350 . S
C1181 N1189 1.427 . S
C1182 H1173 0.930 . S
C1182 C1180 1.378 . S
C1182 C1183 1.367 . S
C1183 C1182 1.367 . S
C1183 C1185 1.433 . S
C1184 C1180 1.350 . S
C1184 C1181 1.463 . S
C1184 N1188 1.427 . S
C1185 H1175 0.929 . S
C1185 C1183 1.433 . S
C1185 N1188 1.384 . S
C1186 H1177 0.929 . S
C1186 C1178 1.378 . S
C1186 C1181 1.350 . S
C1187 H1174 0.929 . S
C1187 C1179 1.433 . S
C1187 N1189 1.384 . S
N1188 C1184 1.427 . S
N1188 C1185 1.384 . S
N1189 C1181 1.427 . S
N1189 C1187 1.384 . S
H1190 C1196 0.930 . S
H1191 C1200 0.930 . S
H1192 C1205 0.929 . S
H1193 C1203 0.929 . S
H1194 C1198 0.929 . S
H1195 C1204 0.929 . S
C1196 H1190 0.930 . S
C1196 C1197 1.367 . S
C1196 C1204 1.378 . S
C1197 C1196 1.367 . S
C1197 C1205 1.433 . S
C1198 H1194 0.929 . S
C1198 C1200 1.378 . S
C1198 C1202 1.350 . S
C1199 C1202 1.463 . S
C1199 C1204 1.350 . S
C1199 N1207 1.427 . S
C1200 H1191 0.930 . S
C1200 C1198 1.378 . S
C1200 C1201 1.367 . S
C1201 C1200 1.367 . S
C1201 C1203 1.433 . S
C1202 C1198 1.350 . S
C1202 C1199 1.463 . S
C1202 N1206 1.427 . S
C1203 H1193 0.929 . S
C1203 C1201 1.433 . S
C1203 N1206 1.384 . S
C1204 H1195 0.929 . S
C1204 C1196 1.378 . S
C1204 C1199 1.350 . S
C1205 H1192 0.929 . S
C1205 C1197 1.433 . S
C1205 N1207 1.384 . S
N1206 C1202 1.427 . S
N1206 C1203 1.384 . S
N1207 C1199 1.427 . S
N1207 C1205 1.384 . S
H1208 C1214 0.930 . S
H1209 C1218 0.930 . S
H1210 C1223 0.929 . S
H1211 C1221 0.929 . S
H1212 C1216 0.929 . S
H1213 C1222 0.929 . S
C1214 H1208 0.930 . S
C1214 C1215 1.367 . S
C1214 C1222 1.378 . S
C1215 C1214 1.367 . S
C1215 C1223 1.433 . S
C1216 H1212 0.929 . S
C1216 C1218 1.378 . S
C1216 C1220 1.350 . S
C1217 C1220 1.463 1_554 S
C1217 C1222 1.350 . S
C1217 N1225 1.427 . S
C1218 H1209 0.930 . S
C1218 C1216 1.378 . S
C1218 C1219 1.367 . S
C1219 C1218 1.367 . S
C1219 C1221 1.433 . S
C1220 C1216 1.350 . S
C1220 C1217 1.463 1_556 S
C1220 N1224 1.427 . S
C1221 H1211 0.929 . S
C1221 C1219 1.433 . S
C1221 N1224 1.384 . S
C1222 H1213 0.929 . S
C1222 C1214 1.378 . S
C1222 C1217 1.350 . S
C1223 H1210 0.929 . S
C1223 C1215 1.433 . S
C1223 N1225 1.384 . S
N1224 C1220 1.427 . S
N1224 C1221 1.384 . S
N1225 C1217 1.427 . S
N1225 C1223 1.384 . S
H1226 C1232 0.930 . S
H1227 C1236 0.930 . S
H1228 C1241 0.929 . S
H1229 C1239 0.929 . S
H1230 C1234 0.929 . S
H1231 C1240 0.929 . S
C1232 H1226 0.930 . S
C1232 C1233 1.367 1_655 S
C1232 C1240 1.378 . S
C1233 C1232 1.367 1_455 S
C1233 C1241 1.433 . S
C1234 H1230 0.929 . S
C1234 C1236 1.378 . S
C1234 C1238 1.350 1_455 S
C1235 C1238 1.463 1_455 S
C1235 C1240 1.350 1_455 S
C1235 N1243 1.427 . S
C1236 H1227 0.930 . S
C1236 C1234 1.378 . S
C1236 C1237 1.367 1_455 S
C1237 C1236 1.367 1_655 S
C1237 C1239 1.433 . S
C1238 C1234 1.350 1_655 S
C1238 C1235 1.463 1_655 S
C1238 N1242 1.427 . S
C1239 H1229 0.929 . S
C1239 C1237 1.433 . S
C1239 N1242 1.384 . S
C1240 H1231 0.929 . S
C1240 C1232 1.378 . S
C1240 C1235 1.350 1_655 S
C1241 H1228 0.929 . S
C1241 C1233 1.433 . S
C1241 N1243 1.384 . S
N1242 C1238 1.427 . S
N1242 C1239 1.384 . S
N1243 C1235 1.427 . S
N1243 C1241 1.384 . S
H1244 C1250 0.930 . S
H1245 C1254 0.930 . S
H1246 C1259 0.929 1_655 S
H1247 C1257 0.929 1_455 S
H1248 C1252 0.929 . S
H1249 C1258 0.929 . S
C1250 H1244 0.930 . S
C1250 C1251 1.367 . S
C1250 C1258 1.378 . S
C1251 C1250 1.367 . S
C1251 C1259 1.433 . S
C1252 H1248 0.929 . S
C1252 C1254 1.378 . S
C1252 C1256 1.350 . S
C1253 C1256 1.463 1_454 S
C1253 C1258 1.350 . S
C1253 N1261 1.427 1_455 S
C1254 H1245 0.930 . S
C1254 C1252 1.378 . S
C1254 C1255 1.367 . S
C1255 C1254 1.367 . S
C1255 C1257 1.433 . S
C1256 C1252 1.350 . S
C1256 C1253 1.463 1_656 S
C1256 N1260 1.427 1_655 S
C1257 H1247 0.929 1_655 S
C1257 C1255 1.433 . S
C1257 N1260 1.384 1_655 S
C1258 H1249 0.929 . S
C1258 C1250 1.378 . S
C1258 C1253 1.350 . S
C1259 H1246 0.929 1_455 S
C1259 C1251 1.433 . S
C1259 N1261 1.384 1_455 S
N1260 C1256 1.427 1_455 S
N1260 C1257 1.384 1_455 S
N1261 C1253 1.427 1_655 S
N1261 C1259 1.384 1_655 S
H1262 C1268 0.930 . S
H1263 C1272 0.930 . S
H1264 C1277 0.929 . S
H1265 C1275 0.929 . S
H1266 C1270 0.929 . S
H1267 C1276 0.929 . S
C1268 H1262 0.930 . S
C1268 C1269 1.367 . S
C1268 C1276 1.378 . S
C1269 C1268 1.367 . S
C1269 C1277 1.433 . S
C1270 H1266 0.929 . S
C1270 C1272 1.378 . S
C1270 C1274 1.350 . S
C1271 C1274 1.463 . S
C1271 C1276 1.350 . S
C1271 N1279 1.427 . S
C1272 H1263 0.930 . S
C1272 C1270 1.378 . S
C1272 C1273 1.367 . S
C1273 C1272 1.367 . S
C1273 C1275 1.433 . S
C1274 C1270 1.350 . S
C1274 C1271 1.463 . S
C1274 N1278 1.427 . S
C1275 H1265 0.929 . S
C1275 C1273 1.433 . S
C1275 N1278 1.384 . S
C1276 H1267 0.929 . S
C1276 C1268 1.378 . S
C1276 C1271 1.350 . S
C1277 H1264 0.929 . S
C1277 C1269 1.433 . S
C1277 N1279 1.384 . S
N1278 C1274 1.427 . S
N1278 C1275 1.384 . S
N1279 C1271 1.427 . S
N1279 C1277 1.384 . S
H1280 C1286 0.930 . S
H1281 C1290 0.930 . S
H1282 C1295 0.929 . S
H1283 C1293 0.929 . S
H1284 C1288 0.929 . S
H1285 C1294 0.929 . S
C1286 H1280 0.930 . S
C1286 C1287 1.367 . S
C1286 C1294 1.378 . S
C1287 C1286 1.367 . S
C1287 C1295 1.433 . S
C1288 H1284 0.929 . S
C1288 C1290 1.378 . S
C1288 C1292 1.350 . S
C1289 C1292 1.463 . S
C1289 C1294 1.350 . S
C1289 N1297 1.427 . S
C1290 H1281 0.930 . S
C1290 C1288 1.378 . S
C1290 C1291 1.367 . S
C1291 C1290 1.367 . S
C1291 C1293 1.433 . S
C1292 C1288 1.350 . S
C1292 C1289 1.463 . S
C1292 N1296 1.427 . S
C1293 H1283 0.929 . S
C1293 C1291 1.433 . S
C1293 N1296 1.384 . S
C1294 H1285 0.929 . S
C1294 C1286 1.378 . S
C1294 C1289 1.350 . S
C1295 H1282 0.929 . S
C1295 C1287 1.433 . S
C1295 N1297 1.384 . S
N1296 C1292 1.427 . S
N1296 C1293 1.384 . S
N1297 C1289 1.427 . S
N1297 C1295 1.384 . S
H1298 C1304 0.930 . S
H1299 C1308 0.930 . S
H1300 C1313 0.929 . S
H1301 C1311 0.929 . S
H1302 C1306 0.929 . S
H1303 C1312 0.929 . S
C1304 H1298 0.930 . S
C1304 C1305 1.367 . S
C1304 C1312 1.378 . S
C1305 C1304 1.367 . S
C1305 C1313 1.433 . S
C1306 H1302 0.929 . S
C1306 C1308 1.378 . S
C1306 C1310 1.350 . S
C1307 C1310 1.463 . S
C1307 C1312 1.350 . S
C1307 N1315 1.427 . S
C1308 H1299 0.930 . S
C1308 C1306 1.378 . S
C1308 C1309 1.367 . S
C1309 C1308 1.367 . S
C1309 C1311 1.433 . S
C1310 C1306 1.350 . S
C1310 C1307 1.463 . S
C1310 N1314 1.427 . S
C1311 H1301 0.929 . S
C1311 C1309 1.433 . S
C1311 N1314 1.384 . S
C1312 H1303 0.929 . S
C1312 C1304 1.378 . S
C1312 C1307 1.350 . S
C1313 H1300 0.929 . S
C1313 C1305 1.433 . S
C1313 N1315 1.384 . S
N1314 C1310 1.427 . S
N1314 C1311 1.384 . S
N1315 C1307 1.427 . S
N1315 C1313 1.384 . S
H1316 C1322 0.930 . S
H1317 C1326 0.930 . S
H1318 C1331 0.929 . S
H1319 C1329 0.929 . S
H1320 C1324 0.929 . S
H1321 C1330 0.929 . S
C1322 H1316 0.930 . S
C1322 C1323 1.367 . S
C1322 C1330 1.378 . S
C1323 C1322 1.367 . S
C1323 C1331 1.433 . S
C1324 H1320 0.929 . S
C1324 C1326 1.378 . S
C1324 C1328 1.350 . S
C1325 C1328 1.463 . S
C1325 C1330 1.350 . S
C1325 N1333 1.427 . S
C1326 H1317 0.930 . S
C1326 C1324 1.378 . S
C1326 C1327 1.367 . S
C1327 C1326 1.367 . S
C1327 C1329 1.433 . S
C1328 C1324 1.350 . S
C1328 C1325 1.463 . S
C1328 N1332 1.427 . S
C1329 H1319 0.929 . S
C1329 C1327 1.433 . S
C1329 N1332 1.384 . S
C1330 H1321 0.929 . S
C1330 C1322 1.378 . S
C1330 C1325 1.350 . S
C1331 H1318 0.929 . S
C1331 C1323 1.433 . S
C1331 N1333 1.384 . S
N1332 C1328 1.427 . S
N1332 C1329 1.384 . S
N1333 C1325 1.427 . S
N1333 C1331 1.384 . S
H1334 C1340 0.930 . S
H1335 C1344 0.930 . S
H1336 C1349 0.929 . S
H1337 C1347 0.929 . S
H1338 C1342 0.929 . S
H1339 C1348 0.929 . S
C1340 H1334 0.930 . S
C1340 C1341 1.367 . S
C1340 C1348 1.378 . S
C1341 C1340 1.367 . S
C1341 C1349 1.433 . S
C1342 H1338 0.929 . S
C1342 C1344 1.378 . S
C1342 C1346 1.350 . S
C1343 C1346 1.463 . S
C1343 C1348 1.350 . S
C1343 N1351 1.427 . S
C1344 H1335 0.930 . S
C1344 C1342 1.378 . S
C1344 C1345 1.367 . S
C1345 C1344 1.367 . S
C1345 C1347 1.433 . S
C1346 C1342 1.350 . S
C1346 C1343 1.463 . S
C1346 N1350 1.427 . S
C1347 H1337 0.929 . S
C1347 C1345 1.433 . S
C1347 N1350 1.384 . S
C1348 H1339 0.929 . S
C1348 C1340 1.378 . S
C1348 C1343 1.350 . S
C1349 H1336 0.929 . S
C1349 C1341 1.433 . S
C1349 N1351 1.384 . S
N1350 C1346 1.427 . S
N1350 C1347 1.384 . S
N1351 C1343 1.427 . S
N1351 C1349 1.384 . S
H1352 C1358 0.930 . S
H1353 C1362 0.930 . S
H1354 C1367 0.929 . S
H1355 C1365 0.929 . S
H1356 C1360 0.929 . S
H1357 C1366 0.929 . S
C1358 H1352 0.930 . S
C1358 C1359 1.367 . S
C1358 C1366 1.378 . S
C1359 C1358 1.367 . S
C1359 C1367 1.433 . S
C1360 H1356 0.929 . S
C1360 C1362 1.378 . S
C1360 C1364 1.350 . S
C1361 C1364 1.463 . S
C1361 C1366 1.350 . S
C1361 N1369 1.427 . S
C1362 H1353 0.930 . S
C1362 C1360 1.378 . S
C1362 C1363 1.367 . S
C1363 C1362 1.367 . S
C1363 C1365 1.433 . S
C1364 C1360 1.350 . S
C1364 C1361 1.463 . S
C1364 N1368 1.427 . S
C1365 H1355 0.929 . S
C1365 C1363 1.433 . S
C1365 N1368 1.384 . S
C1366 H1357 0.929 . S
C1366 C1358 1.378 . S
C1366 C1361 1.350 . S
C1367 H1354 0.929 . S
C1367 C1359 1.433 . S
C1367 N1369 1.384 . S
N1368 C1364 1.427 . S
N1368 C1365 1.384 . S
N1369 C1361 1.427 . S
N1369 C1367 1.384 . S
H1370 C1376 0.930 . S
H1371 C1380 0.930 . S
H1372 C1385 0.929 . S
H1373 C1383 0.929 . S
H1374 C1378 0.929 . S
H1375 C1384 0.929 . S
C1376 H1370 0.930 . S
C1376 C1377 1.367 . S
C1376 C1384 1.378 . S
C1377 C1376 1.367 . S
C1377 C1385 1.433 . S
C1378 H1374 0.929 . S
C1378 C1380 1.378 . S
C1378 C1382 1.350 . S
C1379 C1382 1.463 . S
C1379 C1384 1.350 . S
C1379 N1387 1.427 . S
C1380 H1371 0.930 . S
C1380 C1378 1.378 . S
C1380 C1381 1.367 . S
C1381 C1380 1.367 . S
C1381 C1383 1.433 . S
C1382 C1378 1.350 . S
C1382 C1379 1.463 . S
C1382 N1386 1.427 . S
C1383 H1373 0.929 . S
C1383 C1381 1.433 . S
C1383 N1386 1.384 . S
C1384 H1375 0.929 . S
C1384 C1376 1.378 . S
C1384 C1379 1.350 . S
C1385 H1372 0.929 . S
C1385 C1377 1.433 . S
C1385 N1387 1.384 . S
N1386 C1382 1.427 . S
N1386 C1383 1.384 . S
N1387 C1379 1.427 . S
N1387 C1385 1.384 . S
H1388 C1394 0.930 . S
H1389 C1398 0.930 . S
H1390 C1403 0.929 . S
H1391 C1401 0.929 . S
H1392 C1396 0.929 . S
H1393 C1402 0.929 . S
C1394 H1388 0.930 . S
C1394 C1395 1.367 . S
C1394 C1402 1.378 . S
C1395 C1394 1.367 . S
C1395 C1403 1.433 . S
C1396 H1392 0.929 . S
C1396 C1398 1.378 . S
C1396 C1400 1.350 . S
C1397 C1400 1.463 . S
C1397 C1402 1.350 . S
C1397 N1405 1.427 . S
C1398 H1389 0.930 . S
C1398 C1396 1.378 . S
C1398 C1399 1.367 . S
C1399 C1398 1.367 . S
C1399 C1401 1.433 . S
C1400 C1396 1.350 . S
C1400 C1397 1.463 . S
C1400 N1404 1.427 . S
C1401 H1391 0.929 . S
C1401 C1399 1.433 . S
C1401 N1404 1.384 . S
C1402 H1393 0.929 . S
C1402 C1394 1.378 . S
C1402 C1397 1.350 . S
C1403 H1390 0.929 . S
C1403 C1395 1.433 . S
C1403 N1405 1.384 . S
N1404 C1400 1.427 . S
N1404 C1401 1.384 . S
N1405 C1397 1.427 . S
N1405 C1403 1.384 . S
H1406 C1412 0.930 . S
H1407 C1416 0.930 . S
H1408 C1421 0.929 . S
H1409 C1419 0.929 . S
H1410 C1414 0.929 . S
H1411 C1420 0.929 . S
C1412 H1406 0.930 . S
C1412 C1413 1.367 . S
C1412 C1420 1.378 . S
C1413 C1412 1.367 . S
C1413 C1421 1.433 . S
C1414 H1410 0.929 . S
C1414 C1416 1.378 . S
C1414 C1418 1.350 . S
C1415 C1418 1.463 . S
C1415 C1420 1.350 . S
C1415 N1423 1.427 . S
C1416 H1407 0.930 . S
C1416 C1414 1.378 . S
C1416 C1417 1.367 . S
C1417 C1416 1.367 . S
C1417 C1419 1.433 . S
C1418 C1414 1.350 . S
C1418 C1415 1.463 . S
C1418 N1422 1.427 . S
C1419 H1409 0.929 . S
C1419 C1417 1.433 . S
C1419 N1422 1.384 . S
C1420 H1411 0.929 . S
C1420 C1412 1.378 . S
C1420 C1415 1.350 . S
C1421 H1408 0.929 . S
C1421 C1413 1.433 . S
C1421 N1423 1.384 . S
N1422 C1418 1.427 . S
N1422 C1419 1.384 . S
N1423 C1415 1.427 . S
N1423 C1421 1.384 . S
H1424 C1430 0.930 . S
H1425 C1434 0.930 . S
H1426 C1439 0.929 . S
H1427 C1437 0.929 . S
H1428 C1432 0.929 . S
H1429 C1438 0.929 . S
C1430 H1424 0.930 . S
C1430 C1431 1.367 . S
C1430 C1438 1.378 . S
C1431 C1430 1.367 . S
C1431 C1439 1.433 . S
C1432 H1428 0.929 . S
C1432 C1434 1.378 . S
C1432 C1436 1.350 . S
C1433 C1436 1.463 . S
C1433 C1438 1.350 . S
C1433 N1441 1.427 . S
C1434 H1425 0.930 . S
C1434 C1432 1.378 . S
C1434 C1435 1.367 . S
C1435 C1434 1.367 . S
C1435 C1437 1.433 . S
C1436 C1432 1.350 . S
C1436 C1433 1.463 . S
C1436 N1440 1.427 . S
C1437 H1427 0.929 . S
C1437 C1435 1.433 . S
C1437 N1440 1.384 . S
C1438 H1429 0.929 . S
C1438 C1430 1.378 . S
C1438 C1433 1.350 . S
C1439 H1426 0.929 . S
C1439 C1431 1.433 . S
C1439 N1441 1.384 . S
N1440 C1436 1.427 . S
N1440 C1437 1.384 . S
N1441 C1433 1.427 . S
N1441 C1439 1.384 . S
H1442 C1448 0.930 . S
H1443 C1452 0.930 . S
H1444 C1457 0.929 . S
H1445 C1455 0.929 . S
H1446 C1450 0.929 . S
H1447 C1456 0.929 . S
C1448 H1442 0.930 . S
C1448 C1449 1.367 . S
C1448 C1456 1.378 . S
C1449 C1448 1.367 . S
C1449 C1457 1.433 . S
C1450 H1446 0.929 . S
C1450 C1452 1.378 . S
C1450 C1454 1.350 . S
C1451 C1454 1.463 . S
C1451 C1456 1.350 . S
C1451 N1459 1.427 . S
C1452 H1443 0.930 . S
C1452 C1450 1.378 . S
C1452 C1453 1.367 . S
C1453 C1452 1.367 . S
C1453 C1455 1.433 . S
C1454 C1450 1.350 . S
C1454 C1451 1.463 . S
C1454 N1458 1.427 . S
C1455 H1445 0.929 . S
C1455 C1453 1.433 . S
C1455 N1458 1.384 . S
C1456 H1447 0.929 . S
C1456 C1448 1.378 . S
C1456 C1451 1.350 . S
C1457 H1444 0.929 . S
C1457 C1449 1.433 . S
C1457 N1459 1.384 . S
N1458 C1454 1.427 . S
N1458 C1455 1.384 . S
N1459 C1451 1.427 . S
N1459 C1457 1.384 . S
H1460 C1466 0.930 . S
H1461 C1470 0.930 . S
H1462 C1475 0.929 . S
H1463 C1473 0.929 . S
H1464 C1468 0.929 . S
H1465 C1474 0.929 . S
C1466 H1460 0.930 . S
C1466 C1467 1.367 . S
C1466 C1474 1.378 . S
C1467 C1466 1.367 . S
C1467 C1475 1.433 . S
C1468 H1464 0.929 . S
C1468 C1470 1.378 . S
C1468 C1472 1.350 . S
C1469 C1472 1.463 . S
C1469 C1474 1.350 . S
C1469 N1477 1.427 . S
C1470 H1461 0.930 . S
C1470 C1468 1.378 . S
C1470 C1471 1.367 . S
C1471 C1470 1.367 . S
C1471 C1473 1.433 . S
C1472 C1468 1.350 . S
C1472 C1469 1.463 . S
C1472 N1476 1.427 . S
C1473 H1463 0.929 . S
C1473 C1471 1.433 . S
C1473 N1476 1.384 . S
C1474 H1465 0.929 . S
C1474 C1466 1.378 . S
C1474 C1469 1.350 . S
C1475 H1462 0.929 . S
C1475 C1467 1.433 . S
C1475 N1477 1.384 . S
N1476 C1472 1.427 . S
N1476 C1473 1.384 . S
N1477 C1469 1.427 . S
N1477 C1475 1.384 . S
H1478 C1484 0.930 . S
H1479 C1488 0.930 . S
H1480 C1493 0.929 . S
H1481 C1491 0.929 . S
H1482 C1486 0.929 . S
H1483 C1492 0.929 . S
C1484 H1478 0.930 . S
C1484 C1485 1.367 . S
C1484 C1492 1.378 . S
C1485 C1484 1.367 . S
C1485 C1493 1.433 . S
C1486 H1482 0.929 . S
C1486 C1488 1.378 . S
C1486 C1490 1.350 . S
C1487 C1490 1.463 . S
C1487 C1492 1.350 . S
C1487 N1495 1.427 . S
C1488 H1479 0.930 . S
C1488 C1486 1.378 . S
C1488 C1489 1.367 . S
C1489 C1488 1.367 . S
C1489 C1491 1.433 . S
C1490 C1486 1.350 . S
C1490 C1487 1.463 . S
C1490 N1494 1.427 . S
C1491 H1481 0.929 . S
C1491 C1489 1.433 . S
C1491 N1494 1.384 . S
C1492 H1483 0.929 . S
C1492 C1484 1.378 . S
C1492 C1487 1.350 . S
C1493 H1480 0.929 . S
C1493 C1485 1.433 . S
C1493 N1495 1.384 . S
N1494 C1490 1.427 . S
N1494 C1491 1.384 . S
N1495 C1487 1.427 . S
N1495 C1493 1.384 . S
H1496 C1502 0.930 . S
H1497 C1506 0.930 . S
H1498 C1511 0.929 . S
H1499 C1509 0.929 . S
H1500 C1504 0.929 . S
H1501 C1510 0.929 . S
C1502 H1496 0.930 . S
C1502 C1503 1.367 . S
C1502 C1510 1.378 . S
C1503 C1502 1.367 . S
C1503 C1511 1.433 . S
C1504 H1500 0.929 . S
C1504 C1506 1.378 . S
C1504 C1508 1.350 . S
C1505 C1508 1.463 . S
C1505 C1510 1.350 . S
C1505 N1513 1.427 . S
C1506 H1497 0.930 . S
C1506 C1504 1.378 . S
C1506 C1507 1.367 . S
C1507 C1506 1.367 . S
C1507 C1509 1.433 . S
C1508 C1504 1.350 . S
C1508 C1505 1.463 . S
C1508 N1512 1.427 . S
C1509 H1499 0.929 . S
C1509 C1507 1.433 . S
C1509 N1512 1.384 . S
C1510 H1501 0.929 . S
C1510 C1502 1.378 . S
C1510 C1505 1.350 . S
C1511 H1498 0.929 . S
C1511 C1503 1.433 . S
C1511 N1513 1.384 . S
N1512 C1508 1.427 . S
N1512 C1509 1.384 . S
N1513 C1505 1.427 . S
N1513 C1511 1.384 . S
H1514 C1520 0.930 . S
H1515 C1524 0.930 . S
H1516 C1529 0.929 . S
H1517 C1527 0.929 . S
H1518 C1522 0.929 . S
H1519 C1528 0.929 . S
C1520 H1514 0.930 . S
C1520 C1521 1.367 . S
C1520 C1528 1.378 . S
C1521 C1520 1.367 . S
C1521 C1529 1.433 . S
C1522 H1518 0.929 . S
C1522 C1524 1.378 . S
C1522 C1526 1.350 . S
C1523 C1526 1.463 . S
C1523 C1528 1.350 . S
C1523 N1531 1.427 . S
C1524 H1515 0.930 . S
C1524 C1522 1.378 . S
C1524 C1525 1.367 . S
C1525 C1524 1.367 . S
C1525 C1527 1.433 . S
C1526 C1522 1.350 . S
C1526 C1523 1.463 . S
C1526 N1530 1.427 . S
C1527 H1517 0.929 . S
C1527 C1525 1.433 . S
C1527 N1530 1.384 . S
C1528 H1519 0.929 . S
C1528 C1520 1.378 . S
C1528 C1523 1.350 . S
C1529 H1516 0.929 . S
C1529 C1521 1.433 . S
C1529 N1531 1.384 . S
N1530 C1526 1.427 . S
N1530 C1527 1.384 . S
N1531 C1523 1.427 . S
N1531 C1529 1.384 . S
H1532 C1538 0.930 . S
H1533 C1542 0.930 . S
H1534 C1547 0.929 . S
H1535 C1545 0.929 . S
H1536 C1540 0.929 . S
H1537 C1546 0.929 . S
C1538 H1532 0.930 . S
C1538 C1539 1.367 . S
C1538 C1546 1.378 . S
C1539 C1538 1.367 . S
C1539 C1547 1.433 . S
C1540 H1536 0.929 . S
C1540 C1542 1.378 . S
C1540 C1544 1.350 . S
C1541 C1544 1.463 . S
C1541 C1546 1.350 . S
C1541 N1549 1.427 . S
C1542 H1533 0.930 . S
C1542 C1540 1.378 . S
C1542 C1543 1.367 . S
C1543 C1542 1.367 . S
C1543 C1545 1.433 . S
C1544 C1540 1.350 . S
C1544 C1541 1.463 . S
C1544 N1548 1.427 . S
C1545 H1535 0.929 . S
C1545 C1543 1.433 . S
C1545 N1548 1.384 . S
C1546 H1537 0.929 . S
C1546 C1538 1.378 . S
C1546 C1541 1.350 . S
C1547 H1534 0.929 . S
C1547 C1539 1.433 . S
C1547 N1549 1.384 . S
N1548 C1544 1.427 . S
N1548 C1545 1.384 . S
N1549 C1541 1.427 . S
N1549 C1547 1.384 . S
H1550 C1556 0.930 . S
H1551 C1560 0.930 . S
H1552 C1565 0.929 . S
H1553 C1563 0.929 . S
H1554 C1558 0.929 . S
H1555 C1564 0.929 . S
C1556 H1550 0.930 . S
C1556 C1557 1.367 . S
C1556 C1564 1.378 . S
C1557 C1556 1.367 . S
C1557 C1565 1.433 . S
C1558 H1554 0.929 . S
C1558 C1560 1.378 . S
C1558 C1562 1.350 . S
C1559 C1562 1.463 . S
C1559 C1564 1.350 . S
C1559 N1567 1.427 . S
C1560 H1551 0.930 . S
C1560 C1558 1.378 . S
C1560 C1561 1.367 . S
C1561 C1560 1.367 . S
C1561 C1563 1.433 . S
C1562 C1558 1.350 . S
C1562 C1559 1.463 . S
C1562 N1566 1.427 . S
C1563 H1553 0.929 . S
C1563 C1561 1.433 . S
C1563 N1566 1.384 . S
C1564 H1555 0.929 . S
C1564 C1556 1.378 . S
C1564 C1559 1.350 . S
C1565 H1552 0.929 . S
C1565 C1557 1.433 . S
C1565 N1567 1.384 . S
N1566 C1562 1.427 . S
N1566 C1563 1.384 . S
N1567 C1559 1.427 . S
N1567 C1565 1.384 . S
C423 C359 1.346 . S
C427 C5 1.306 . S
C441 C18 1.312 . S
C445 C112 1.344 . S
C459 C333 1.344 . S
C463 C31 1.312 . S
C477 C44 1.312 . S
C481 C138 1.344 . S
C495 C57 1.312 . S
C499 C385 1.343 . S
C513 C70 1.308 . S
C517 C190 1.348 . S
C531 C83 1.293 . S
C535 C411 1.354 . S
C549 C96 1.296 . S
C553 C164 1.352 . S
C567 C255 1.343 . S
C571 C109 1.311 . S
C585 C8 1.356 . S
C589 C122 1.292 . S
C603 C229 1.348 . S
C607 C135 1.307 . S
C621 C148 1.293 . S
C625 C34 1.355 . S
C639 C281 1.343 . S
C643 C161 1.312 . S
C657 C86 1.355 . S
C661 C174 1.292 . S
C675 C187 1.298 . S
C679 C307 1.351 . S
C693 C60 1.352 . S
C697 C200 1.297 . S
C711 C213 1.308 . S
C715 C151 1.345 . S
C729 C226 1.295 . S
C733 C320 1.353 . S
C747 C125 1.343 . S
C751 C239 1.312 . S
C765 C346 1.344 . S
C769 C252 1.310 . S
C783 C177 1.355 . S
C787 C265 1.295 . S
C801 C398 1.356 . S
C805 C278 1.292 . S
C819 C203 1.348 . S
C823 C291 1.302 . S
C837 C304 1.306 . S
C841 C372 1.346 . S
C855 C47 1.346 . S
C859 C317 1.305 . S
C873 C330 1.294 . S
C877 C216 1.354 . S
C891 C343 1.309 . S
C895 C21 1.344 . S
C909 C356 1.302 . S
C913 C242 1.351 . S
C927 C369 1.302 . S
C931 C73 1.348 . S
C945 C382 1.295 . S
C949 C294 1.355 . S
C963 C395 1.309 . S
C967 C99 1.346 . S
C981 C408 1.300 . S
C985 C268 1.349 . S
C999 C322 1.499 . S
C1003 C10 1.499 . S
C1017 C23 1.499 . S
C1021 C127 1.499 . S
C1035 C348 1.503 . S
C1039 C36 1.503 . S
C1053 C49 1.501 . S
C1057 C153 1.501 . S
C1071 C374 1.501 . S
C1075 C62 1.501 . S
C1089 C75 1.498 . S
C1093 C179 1.498 . S
C1107 C400 1.498 . S
C1111 C88 1.498 . S
C1125 C101 1.497 . S
C1129 C205 1.497 . S
C1143 C114 1.500 . S
C1147 C218 1.500 . S
C1161 C140 1.501 . S
C1165 C244 1.501 . S
C1179 C166 1.499 . S
C1183 C270 1.499 . S
C1197 C192 1.499 . S
C1201 C296 1.499 . S
C1215 C231 1.498 . S
C1219 C335 1.498 . S
C1233 C361 1.500 . S
C1237 C257 1.500 . S
C1251 C387 1.497 . S
C1255 C283 1.497 . S
C1269 C309 1.502 . S
C1273 C413 1.502 . S
C1287 C0 1.051 . S
C1291 C65 1.051 . S
C1305 C13 1.028 . S
C1309 C78 1.028 . S
C1323 C26 1.034 . S
C1327 C91 1.031 . S
C1341 C52 1.029 . S
C1345 C39 1.028 . S
C1359 C104 1.050 . S
C1363 C169 1.049 . S
C1377 C117 1.039 . S
C1381 C182 1.036 . S
C1395 C130 1.050 . S
C1399 C195 1.048 . S
C1413 C143 1.028 . S
C1417 C156 1.028 . S
C1431 C208 1.032 . S
C1435 C273 1.030 . S
C1449 C286 1.031 . S
C1453 C221 1.029 . S
C1467 C234 1.032 . S
C1471 C299 1.030 . S
C1485 C247 1.032 . S
C1489 C260 1.030 . S
C1503 C377 1.034 . S
C1507 C312 1.037 . S
C1521 C325 1.029 . S
C1525 C390 1.030 . S
C1539 C403 1.033 . S
C1543 C338 1.036 . S
C1557 C351 1.028 . S
C1561 C364 1.029 . S
