# Generated by pormake.
# Topology xbj, (5)-cn, num edge types: 1
# Building blocks:
#     Node 0, Type 0, BuildingBlock: XOMCOT_clean_sbu_1, # of connection points: 5
#     Node 1, Type 0, BuildingBlock: XOMCOT_clean_sbu_1, # of connection points: 5
#     Node 2, Type 0, BuildingBlock: XOMCOT_clean_sbu_1, # of connection points: 5
#     Node 3, Type 0, BuildingBlock: XOMCOT_clean_sbu_1, # of connection points: 5
#     Node 4, Type 0, BuildingBlock: XOMCOT_clean_sbu_1, # of connection points: 5
#     Node 5, Type 0, BuildingBlock: XOMCOT_clean_sbu_1, # of connection points: 5
#     Node 6, Type 0, BuildingBlock: XOMCOT_clean_sbu_1, # of connection points: 5
#     Node 7, Type 0, BuildingBlock: XOMCOT_clean_sbu_1, # of connection points: 5
#     Edge 8, Type (0, 0), BuildingBlock: AJUNOK_clean_linker_0, # of connection points: 2
#     Edge 9, Type (0, 0), BuildingBlock: AJUNOK_clean_linker_0, # of connection points: 2
#     Edge 10, Type (0, 0), BuildingBlock: AJUNOK_clean_linker_0, # of connection points: 2
#     Edge 11, Type (0, 0), BuildingBlock: AJUNOK_clean_linker_0, # of connection points: 2
#     Edge 12, Type (0, 0), BuildingBlock: AJUNOK_clean_linker_0, # of connection points: 2
#     Edge 13, Type (0, 0), BuildingBlock: AJUNOK_clean_linker_0, # of connection points: 2
#     Edge 14, Type (0, 0), BuildingBlock: AJUNOK_clean_linker_0, # of connection points: 2
#     Edge 15, Type (0, 0), BuildingBlock: AJUNOK_clean_linker_0, # of connection points: 2
#     Edge 16, Type (0, 0), BuildingBlock: AJUNOK_clean_linker_0, # of connection points: 2
#     Edge 17, Type (0, 0), BuildingBlock: AJUNOK_clean_linker_0, # of connection points: 2
#     Edge 18, Type (0, 0), BuildingBlock: AJUNOK_clean_linker_0, # of connection points: 2
#     Edge 19, Type (0, 0), BuildingBlock: AJUNOK_clean_linker_0, # of connection points: 2
#     Edge 20, Type (0, 0), BuildingBlock: AJUNOK_clean_linker_0, # of connection points: 2
#     Edge 21, Type (0, 0), BuildingBlock: AJUNOK_clean_linker_0, # of connection points: 2
#     Edge 22, Type (0, 0), BuildingBlock: AJUNOK_clean_linker_0, # of connection points: 2
#     Edge 23, Type (0, 0), BuildingBlock: AJUNOK_clean_linker_0, # of connection points: 2
#     Edge 24, Type (0, 0), BuildingBlock: AJUNOK_clean_linker_0, # of connection points: 2
#     Edge 25, Type (0, 0), BuildingBlock: AJUNOK_clean_linker_0, # of connection points: 2
#     Edge 26, Type (0, 0), BuildingBlock: AJUNOK_clean_linker_0, # of connection points: 2
#     Edge 27, Type (0, 0), BuildingBlock: AJUNOK_clean_linker_0, # of connection points: 2
# Relax obj value: 0.176
# Max RMSD: 0.161
# Mean RMSD: 0.154
data_MOF--net-xbj--node1-XOMCOT_clean_sbu_1--edge1-AJUNOK_clean_linker_0
_symmetry_space_group_name_H-M    P1
_symmetry_Int_Tables_number       1
_symmetry_cell_setting            triclinic
loop_
_symmetry_equiv_pos_as_xyz
'x, y, z'
_cell_length_a     13.735965
_cell_length_b     13.745357
_cell_length_c     80.455676
_cell_angle_alpha  95.41131
_cell_angle_beta   95.413263
_cell_angle_gamma 89.349118
loop_
_atom_site_label
_atom_site_type_symbol
_atom_site_fract_x
_atom_site_fract_y
_atom_site_fract_z
_atom_type_partial_charge
C0 C 0.21446 0.97343 0.06413 0.0
C1 C 0.31497 0.97765 0.06509 0.0
N2 N 0.34662 0.91042 0.05354 0.0
N3 N 0.18153 0.90333 0.0521 0.0
C4 C 0.26429 0.86759 0.04565 0.0
H5 H 0.16856 1.02019 0.07162 0.0
Co6 Co 0.04703 0.87269 0.04616 0.0
C7 C 0.13608 0.67473 0.04641 0.0
O8 O 0.18639 0.69481 0.06102 0.0
N9 N 0.91255 0.84377 0.04009 0.0
C10 C 0.77621 0.77936 0.02636 0.0
C11 C 0.87669 0.78178 0.02698 0.0
C12 C 0.83154 0.87905 0.0471 0.0
N13 N 0.74746 0.84017 0.0391 0.0
O14 O 1.03274 0.84416 0.06873 0.0
H15 H 0.92074 0.74135 0.01826 0.0
H16 H 0.8336 0.93406 0.05762 0.0
O17 O 0.07845 0.73838 0.04038 0.0
C18 C 1.00364 0.91101 0.07919 0.0
O19 O 0.98715 0.99889 0.07436 0.0
N20 N 0.06043 0.90302 0.02414 0.0
C21 C 0.08799 0.96786 -0.00684 0.0
C22 C 0.11653 0.87367 -0.00327 0.0
C23 C 0.10193 0.84238 0.01226 0.0
C24 C 1.02915 0.99395 0.02065 0.0
C25 C 0.0418 1.0279 0.00513 0.0
H26 H 0.1274 0.77026 0.01465 0.0
H27 H 0.99642 0.04112 0.03014 0.0
H28 H 0.26478 0.81045 0.03547 0.0
H29 H 0.36096 1.02828 0.07338 0.0
H30 H 0.72804 0.73535 0.01728 0.0
H31 H 0.15239 0.82549 0.98773 0.0
H32 H 1.01953 0.10158 0.00277 0.0
C33 C 0.44398 0.78784 0.3084 0.0
C34 C 0.43489 0.88799 0.3092 0.0
N35 N 0.501 0.92287 0.29995 0.0
N36 N 0.51645 0.75828 0.29889 0.0
C37 C 0.54972 0.84268 0.29389 0.0
H38 H 0.39976 0.7394 0.31436 0.0
Co39 Co 0.5476 0.62384 0.29431 0.0
C40 C 0.75035 0.70752 0.29551 0.0
O41 O 0.74656 0.76644 0.30928 0.0
N42 N 0.57561 0.48903 0.28977 0.0
C43 C 0.63759 0.35028 0.2785 0.0
C44 C 0.63661 0.45046 0.27867 0.0
C45 C 0.53864 0.40996 0.29593 0.0
N46 N 0.57569 0.32449 0.28931 0.0
O47 O 0.59286 0.6182 0.31744 0.0
H48 H 0.67644 0.49227 0.27084 0.0
H49 H 0.48586 0.41474 0.30512 0.0
O50 O 0.67787 0.65343 0.28992 0.0
C51 C 0.54163 0.59479 0.32884 0.0
O52 O 0.45049 0.56766 0.32474 0.0
N53 N 0.50344 0.63073 0.27152 0.0
C54 C 0.42683 0.64348 0.23845 0.0
C55 C 0.51635 0.68667 0.24441 0.0
C56 C 0.55328 0.67982 0.26095 0.0
C57 C 0.41699 0.5861 0.26583 0.0
C58 C 0.37736 0.59115 0.24923 0.0
H59 H 0.62114 0.71664 0.26509 0.0
H60 H 0.37802 0.54771 0.27428 0.0
H61 H 0.60757 0.84581 0.28574 0.0
H62 H 0.38441 0.9316 0.31634 0.0
H63 H 0.67897 0.29993 0.2707 0.0
H64 H 0.55662 0.72737 0.23641 0.0
H65 H 0.3073 0.55752 0.24502 0.0
C66 C 0.7494 0.43033 0.5759 0.0
C67 C 0.84975 0.43054 0.57656 0.0
N68 N 0.87569 0.42556 0.56081 0.0
N69 N 0.71014 0.42588 0.55976 0.0
C70 C 0.79017 0.42148 0.55091 0.0
H71 H 0.70935 0.432 0.58677 0.0
Co72 Co 0.57275 0.41761 0.55116 0.0
C73 C 0.62146 0.29561 0.52899 0.0
O74 O 0.61817 0.38399 0.52398 0.0
N75 N 0.43628 0.4 0.54277 0.0
C76 C 0.29736 0.38283 0.52591 0.0
C77 C 0.398 0.38583 0.52661 0.0
C78 C 0.35627 0.40337 0.55158 0.0
N79 N 0.27089 0.39516 0.54166 0.0
O80 O 0.53778 0.38217 0.57278 0.0
H81 H 0.43963 0.38169 0.51584 0.0
H82 H 0.36002 0.41542 0.56505 0.0
O83 O 0.59606 0.28511 0.54359 0.0
C84 C 0.52292 0.43207 0.58655 0.0
O85 O 0.53859 0.5267 0.58835 0.0
N86 N 0.5533 0.55835 0.5563 0.0
C87 C 0.58529 0.61583 0.52555 0.0
C88 C 0.65955 0.62797 0.53896 0.0
C89 C 0.6384 0.60592 0.55491 0.0
C90 C 0.47545 0.59123 0.54652 0.0
C91 C 0.48893 0.60793 0.52994 0.0
H92 H 0.6956 0.6113 0.56515 0.0
H93 H 0.40214 0.5861 0.55017 0.0
H94 H 0.78664 0.41444 0.53744 0.0
H95 H 0.89971 0.43117 0.5878 0.0
H96 H 0.24742 0.37614 0.51463 0.0
H97 H 0.73266 0.65067 0.53714 0.0
H98 H 0.42589 0.60972 0.52085 0.0
C99 C 1.00065 0.42527 0.81914 0.0
C100 C 0.99901 0.52577 0.82094 0.0
N101 N 0.04941 0.55949 0.80906 0.0
N102 N 0.0534 0.39383 0.80641 0.0
C103 C 0.08323 0.47746 0.80064 0.0
H104 H 0.96555 0.378 0.82675 0.0
Co105 Co 0.07443 0.25932 0.79993 0.0
C106 C 0.23723 0.25892 0.77791 0.0
O107 O 0.29049 0.19677 0.78634 0.0
N108 N 0.09443 0.12226 0.79362 0.0
C109 C 0.1069 0.98029 0.77789 0.0
C110 C 0.10195 0.08033 0.77787 0.0
C111 C 0.09182 0.04455 0.80287 0.0
N112 N 0.09983 0.95767 0.79361 0.0
O113 O 0.17897 0.25898 0.81744 0.0
H114 H 0.09865 0.11949 0.7668 0.0
H115 H 0.08106 0.05048 0.81604 0.0
O116 O 0.15955 0.29333 0.78363 0.0
C117 C 0.1482 0.23601 0.831 0.0
O118 O 0.05546 0.21356 0.83096 0.0
N119 N 0.96921 0.25998 0.78336 0.0
C120 C 0.8283 0.23407 0.75623 0.0
C121 C 0.8967 0.30929 0.7572 0.0
C122 C 0.96627 0.32132 0.77092 0.0
C123 C 0.8982 0.19156 0.78333 0.0
C124 C 0.82755 0.17636 0.76972 0.0
H125 H 1.01897 0.37881 0.77123 0.0
H126 H 0.89929 0.14534 0.79351 0.0
H127 H 0.12749 0.47826 0.79023 0.0
H128 H 0.96467 0.56971 0.83061 0.0
H129 H 0.10961 0.92787 0.76702 0.0
H130 H 0.89654 0.35855 0.74745 0.0
H131 H 0.77427 0.11873 0.76958 0.0
C132 C 0.1338 0.45199 0.92012 0.0
C133 C 1.03417 0.46479 0.91975 0.0
N134 N 0.99765 0.40131 0.92937 0.0
N135 N 0.1623 0.38179 0.93013 0.0
C136 C 0.07782 0.35388 0.9359 0.0
H137 H 0.18298 0.49213 0.91357 0.0
Co138 Co 0.29599 0.34244 0.93326 0.0
C139 C 0.19643 0.15293 0.9361 0.0
O140 O 0.14162 0.155 0.92185 0.0
N141 N 0.42982 0.30555 0.93587 0.0
C142 C 0.56756 0.21844 0.9383 0.0
C143 C 0.46699 0.21498 0.93726 0.0
C144 C 0.50982 0.36249 0.93565 0.0
N145 N 0.59466 0.31111 0.93721 0.0
O146 O 0.28638 0.28536 0.91057 0.0
H147 H 0.42412 0.14943 0.93685 0.0
H148 H 0.50582 0.43981 0.93406 0.0
O149 O 0.2573 0.22119 0.94095 0.0
C150 C 0.31935 0.32729 0.89881 0.0
O151 O 0.36673 0.41014 0.90256 0.0
N152 N 0.30458 0.39919 0.95555 0.0
C153 C 0.27321 0.47316 0.98793 0.0
C154 C 0.31638 0.38135 0.9851 0.0
C155 C 0.33204 0.34565 0.96872 0.0
C156 C 0.27227 0.49285 0.95839 0.0
C157 C 0.25445 0.53086 0.97453 0.0
H158 H 0.36153 0.27286 0.96659 0.0
H159 H 0.25427 0.53617 0.94799 0.0
H160 H 0.07476 0.29897 0.94458 0.0
H161 H 0.99306 0.51876 0.91307 0.0
H162 H 0.61697 0.15669 0.93897 0.0
H163 H 0.33274 0.33564 -0.00473 0.0
H164 H 0.22236 0.60298 0.97643 0.0
C165 C 0.8783 0.61314 0.16251 0.0
C166 C 0.87405 0.51276 0.16158 0.0
N167 N 0.94722 0.48041 0.17201 0.0
N168 N 0.95418 0.64557 0.1734 0.0
C169 C 0.99437 0.5626 0.17907 0.0
H170 H 0.8274 0.65949 0.15585 0.0
Co171 Co 0.98167 0.78037 0.17934 0.0
C172 C 0.18761 0.70498 0.17846 0.0
O173 O 0.17244 0.64623 0.16463 0.0
N174 N 1.00757 0.91532 0.18536 0.0
C175 C 0.07116 0.05068 0.19953 0.0
C176 C 0.06692 0.95057 0.19889 0.0
C177 C 0.97515 0.99664 0.17815 0.0
N178 N 1.01395 0.07975 0.18641 0.0
O179 O 1.00291 0.79627 0.15649 0.0
H180 H 0.10449 0.90626 0.20789 0.0
H181 H 0.92506 0.99579 0.16696 0.0
O182 O 0.1178 0.75544 0.1841 0.0
C183 C 0.9333 0.82516 0.14653 0.0
O184 O 0.84685 0.84119 0.152 0.0
N185 N 0.9596 0.76527 0.20174 0.0
C186 C 0.91944 0.75749 0.2349 0.0
C187 C 1.00406 0.71425 0.22921 0.0
C188 C 1.02333 0.71953 0.21264 0.0
C189 C 0.87606 0.80684 0.20704 0.0
C190 C 0.85474 0.8044 0.22366 0.0
H191 H 0.09017 0.6867 0.20883 0.0
H192 H 0.82635 0.84293 0.19833 0.0
H193 H 0.05526 0.56244 0.18856 0.0
H194 H 0.82054 0.4672 0.15383 0.0
H195 H 0.11211 0.09852 0.2091 0.0
H196 H 0.05521 0.67695 0.23755 0.0
H197 H 0.78759 0.83714 0.22762 0.0
C198 C 0.51683 0.89427 0.42654 0.0
C199 C 0.41637 0.89903 0.4255 0.0
N200 N 0.38125 0.80931 0.42699 0.0
N201 N 0.54598 0.80243 0.42898 0.0
C202 C 0.46176 0.75205 0.42915 0.0
H203 H 0.56597 0.95439 0.42585 0.0
Co204 Co 0.67788 0.76299 0.43103 0.0
C205 C 0.70012 0.64249 0.45925 0.0
O206 O 0.78634 0.68398 0.46261 0.0
N207 N 0.81282 0.72163 0.43172 0.0
C208 C 0.94035 0.61941 0.43 0.0
C209 C 0.8408 0.62658 0.4307 0.0
C210 C 0.89734 0.76998 0.43043 0.0
N211 N 0.976 0.70977 0.42976 0.0
O212 O 0.65147 0.67699 0.41113 0.0
H213 H 0.79136 0.56553 0.43027 0.0
H214 H 0.90181 0.84704 0.42926 0.0
O215 O 0.64683 0.66092 0.44588 0.0
C216 C 0.67693 0.71315 0.3982 0.0
O217 O 0.72273 0.79748 0.40022 0.0
N218 N 0.69981 0.854 0.45053 0.0
C219 C 0.71385 0.98771 0.4791 0.0
C220 C 0.64299 0.91477 0.47694 0.0
C221 C 0.63583 0.85099 0.46252 0.0
C222 C 0.76505 0.92908 0.45185 0.0
C223 C 0.775 0.99551 0.46624 0.0
H224 H 0.57508 0.80153 0.46069 0.0
H225 H 0.80506 0.94233 0.44147 0.0
H226 H 0.45954 0.67481 0.43073 0.0
H227 H 0.37296 0.96453 0.42423 0.0
H228 H 0.98283 0.5526 0.42913 0.0
H229 H 0.5889 0.91058 0.48582 0.0
H230 H 0.82689 0.05484 0.46696 0.0
C231 C 0.42953 0.05236 0.65598 0.0
C232 C 0.43163 0.95214 0.65584 0.0
N233 N 0.40677 0.92824 0.67068 0.0
N234 N 0.4005 0.09313 0.6707 0.0
C235 C 0.38924 1.01455 0.67949 0.0
H236 H 0.45304 0.09166 0.64611 0.0
Co237 Co 0.39549 0.23056 0.67885 0.0
C238 C 0.52347 0.19806 0.7012 0.0
O239 O 0.43597 0.18002 0.70543 0.0
N240 N 0.40028 0.36701 0.68736 0.0
C241 C 0.40368 0.50218 0.70508 0.0
C242 C 0.40068 0.40168 0.70364 0.0
C243 C 0.40572 0.449 0.67924 0.0
N244 N 0.40767 0.53255 0.68971 0.0
O245 O 0.42448 0.26929 0.65714 0.0
H246 H 0.3952 0.35712 0.71388 0.0
H247 H 0.40606 0.44788 0.66583 0.0
O248 O 0.53028 0.22292 0.68647 0.0
C249 C 0.37521 0.26206 0.64279 0.0
O250 O 0.29048 0.21709 0.64077 0.0
N251 N 0.25383 0.23583 0.67335 0.0
C252 C 0.19044 0.24133 0.70463 0.0
C253 C 0.18801 0.15246 0.69432 0.0
C254 C 0.21303 0.15335 0.67785 0.0
C255 C 0.21235 0.32051 0.67959 0.0
C256 C 0.18897 0.32747 0.6963 0.0
H257 H 0.21412 0.08567 0.66985 0.0
H258 H 0.219 0.38666 0.67351 0.0
H259 H 0.36762 1.02019 0.69211 0.0
H260 H 0.45409 0.90087 0.64586 0.0
H261 H 0.39904 0.54873 0.71659 0.0
H262 H 0.17163 0.08377 0.69898 0.0
H263 H 0.18036 0.3992 0.70276 0.0
C264 C 1.03367 0.81228 0.1039 0.0
C265 C 0.98498 0.88988 0.09635 0.0
C266 C 1.01774 0.79235 0.12025 0.0
C267 C 0.9507 0.8477 0.12943 0.0
H268 H 0.08542 0.76741 0.09723 0.0
H269 H 0.0571 0.73234 0.12564 0.0
S270 S 0.80508 0.05913 0.11547 0.0
N271 N 0.86785 1.02303 0.09948 0.0
N272 N 0.83661 0.98415 0.12993 0.0
C273 C 0.90125 0.92503 0.122 0.0
C274 C 0.91876 0.9465 0.10553 0.0
C275 C 0.70009 0.69381 0.36776 0.0
C276 C 0.64823 0.66849 0.38098 0.0
C277 C 0.6675 0.66541 0.35102 0.0
C278 C 0.58079 0.61146 0.34674 0.0
H279 H 0.76527 0.73844 0.37033 0.0
H280 H 0.70885 0.68961 0.34136 0.0
S281 S 0.4223 0.51947 0.37677 0.0
N282 N 0.50958 0.58047 0.38879 0.0
N283 N 0.44744 0.52742 0.35727 0.0
C284 C 0.53057 0.58156 0.35988 0.0
C285 C 0.56455 0.60984 0.377 0.0
C286 C 0.51401 0.42288 0.61724 0.0
C287 C 0.48883 0.38362 0.60063 0.0
C288 C 0.47947 0.38122 0.63081 0.0
C289 C 0.41561 0.30075 0.62828 0.0
H290 H 0.5612 0.48619 0.6198 0.0
H291 H 0.50153 0.41386 0.64335 0.0
S292 S 0.33064 0.16793 0.58723 0.0
N293 N 0.40047 0.25617 0.58243 0.0
N294 N 0.33183 0.18074 0.60787 0.0
C295 C 0.39081 0.25997 0.61173 0.0
C296 C 0.42836 0.30064 0.59793 0.0
C297 C 0.3116 0.34936 0.86806 0.0
C298 C 0.29129 0.29189 0.88096 0.0
C299 C 0.27151 0.32657 0.85143 0.0
C300 C 0.20929 0.24591 0.84718 0.0
H301 H 0.35473 0.41531 0.87091 0.0
H302 H 0.28396 0.37606 0.84214 0.0
S303 S 0.14712 0.06214 0.87536 0.0
N304 N 0.21588 0.14253 0.88759 0.0
N305 N 0.13927 0.10149 0.85652 0.0
C306 C 0.1945 0.18382 0.85961 0.0
C307 C 0.2359 0.20627 0.87645 0.0
C308 C 0.27038 0.58434 0.03281 0.0
C309 C 0.16948 0.59786 0.03415 0.0
C310 C 0.30445 0.53866 0.01807 0.0
C311 C 0.23848 0.50558 0.00435 0.0
H312 H 0.32335 0.61645 0.04256 0.0
H313 H 0.38247 0.53466 0.01702 0.0
S314 S 0.96819 0.5083 0.00268 0.0
N315 N 1.00478 0.5623 0.02141 0.0
N316 N 0.0689 0.47792 -0.0063 0.0
C317 C 0.13795 0.51131 0.00609 0.0
C318 C 0.1034 0.55683 0.02104 0.0
C319 C 0.84815 0.64164 0.27269 0.0
C320 C 0.82139 0.72261 0.28335 0.0
C321 C 0.88501 0.65381 0.25739 0.0
C322 C 0.89548 0.74746 0.25217 0.0
H323 H 0.83456 0.56818 0.2757 0.0
H324 H 0.89965 0.58944 0.24914 0.0
S325 S 0.85378 0.98319 0.27677 0.0
N326 N 0.82211 0.89961 0.28872 0.0
N327 N 0.88962 0.92246 0.25969 0.0
C328 C 0.87713 0.82906 0.26329 0.0
C329 C 0.84109 0.81662 0.27902 0.0
C330 C 0.56517 0.63738 0.47811 0.0
C331 C 0.65783 0.60561 0.47371 0.0
C332 C 0.54162 0.64027 0.4948 0.0
C333 C 0.60848 0.60807 0.50759 0.0
H334 H 0.51309 0.667 0.46896 0.0
H335 H 0.47223 0.67224 0.49772 0.0
S336 S 0.8484 0.4888 0.50094 0.0
N337 N 0.80808 0.52293 0.48241 0.0
N338 N 0.763 0.52288 0.51339 0.0
C339 C 0.69627 0.56454 0.50268 0.0
C340 C 0.72054 0.56355 0.48583 0.0
C341 C 0.65592 0.21081 0.74451 0.0
C342 C 0.75428 0.21983 0.74168 0.0
C343 C 0.58317 0.20236 0.73122 0.0
C344 C 0.60545 0.20285 0.71447 0.0
H345 H 0.63447 0.21282 0.75716 0.0
H346 H 0.50833 0.19773 0.73426 0.0
S347 S 0.85325 0.21812 0.70026 0.0
N348 N 0.87199 0.22345 0.72092 0.0
N349 N 0.73361 0.20917 0.69572 0.0
C350 C 0.70378 0.21023 0.71137 0.0
C351 C 0.77856 0.21836 0.72502 0.0
C352 C 0.18996 0.33324 0.75106 0.0
C353 C 0.2415 0.26039 0.75949 0.0
C354 C 0.17119 0.32515 0.73354 0.0
C355 C 0.20477 0.24456 0.72346 0.0
H356 H 0.16109 0.3962 0.75813 0.0
H357 H 0.12823 0.38223 0.72798 0.0
S358 S 0.35207 0.03708 0.73934 0.0
N359 N 0.33073 0.10721 0.7564 0.0
N360 N 0.29897 0.09266 0.72358 0.0
C361 C 0.26021 0.17279 0.73177 0.0
C362 C 0.27858 0.181 0.74967 0.0
C363 C 0.30057 0.59723 0.19441 0.0
C364 C 0.27269 0.69188 0.19065 0.0
C365 C 0.35291 0.58146 0.20978 0.0
C366 C 0.38166 0.66043 0.22155 0.0
H367 H 0.27566 0.5349 0.186 0.0
H368 H 0.3683 0.50716 0.2127 0.0
S369 S 0.34229 0.92341 0.21617 0.0
N370 N 0.28893 0.86589 0.1988 0.0
N371 N 0.38859 0.83707 0.22754 0.0
C372 C 0.3623 0.75582 0.21719 0.0
C373 C 0.30797 0.77144 0.20171 0.0
C374 C 0.70351 0.16275 0.48951 0.0
C375 C 0.70932 0.06498 0.49312 0.0
C376 C 0.67755 0.23609 0.50145 0.0
C377 C 0.65573 0.21491 0.51751 0.0
H378 H 0.7134 0.1824 0.47705 0.0
H379 H 0.67133 0.30977 0.49772 0.0
S380 S 0.67451 0.97185 0.53399 0.0
N381 N 0.70247 0.95142 0.51444 0.0
N382 N 0.6518 0.09022 0.53696 0.0
C383 C 0.66696 0.11827 0.52167 0.0
C384 C 0.69422 0.04315 0.50946 0.0
C385 C 0.04388 0.03796 0.96575 0.0
C386 C 0.1155 1.0061 0.9777 0.0
C387 C 0.07051 0.07874 0.95146 0.0
C388 C 0.16957 0.09058 0.94892 0.0
H389 H 0.96709 1.03268 0.96761 0.0
H390 H 1.01338 0.10605 0.94288 0.0
S391 S 0.38411 1.01622 0.97643 0.0
N392 N 0.28872 0.98592 0.98586 0.0
N393 N 0.33877 0.06398 0.95927 0.0
C394 C 0.24137 0.05662 0.96061 0.0
C395 C 0.21433 1.01405 0.97496 0.0
C396 C 0.57004 0.85583 0.03011 0.0
C397 C 0.64738 0.85869 0.04302 0.0
C398 C 0.47215 0.87138 0.0336 0.0
C399 C 0.44727 0.89094 0.05016 0.0
H400 H 0.58539 0.8426 0.01714 0.0
H401 H 0.41568 0.86994 0.02323 0.0
S402 S 0.61982 0.89538 0.08865 0.0
N403 N 0.69033 0.87511 0.07315 0.0
N404 N 0.50739 0.90499 0.07967 0.0
C405 C 0.52346 0.89209 0.06321 0.0
C406 C 0.62305 0.87596 0.05966 0.0
C407 C 0.63111 0.15574 0.29366 0.0
C408 C 0.55516 0.22536 0.2927 0.0
C409 C 0.61277 0.05784 0.2961 0.0
C410 C 0.51768 1.02451 0.29746 0.0
H411 H 0.70568 0.17745 0.29265 0.0
H412 H 0.67372 1.00799 0.2972 0.0
S413 S 0.29187 0.17606 0.29462 0.0
N414 N 0.38051 0.25339 0.29278 0.0
N415 N 0.34555 0.06942 0.29694 0.0
C416 C 0.44077 0.09338 0.29641 0.0
C417 C 0.45965 0.19355 0.29412 0.0
C418 C 0.09449 0.35127 0.53723 0.0
C419 C 0.17188 0.40441 0.54658 0.0
C420 C 0.99778 0.35961 0.54172 0.0
C421 C 0.97442 0.4212 0.55579 0.0
H422 H 0.10906 0.30163 0.52648 0.0
H423 H 0.94125 0.31592 0.53434 0.0
S424 S 0.14677 0.58582 0.58319 0.0
N425 N 0.21565 0.52785 0.56969 0.0
N426 N 0.03524 0.54244 0.57816 0.0
C427 C 0.05044 0.4767 0.56496 0.0
C428 C 0.14866 0.46856 0.56036 0.0
C429 C 0.15533 0.78548 0.79382 0.0
C430 C 0.08975 0.86009 0.7986 0.0
C431 C 0.14264 0.68837 0.79749 0.0
C432 C 0.06253 0.66101 0.8058 0.0
H433 H 0.21706 0.8026 0.78719 0.0
H434 H 0.19629 0.63447 0.79375 0.0
S435 S 0.86408 0.82922 0.8193 0.0
N436 N 0.93994 0.90035 0.81131 0.0
N437 N 0.91242 0.71866 0.81755 0.0
C438 C 0.99535 0.73561 0.81035 0.0
C439 C 1.00981 0.83469 0.8069 0.0
C440 C 0.86857 0.34096 0.94575 0.0
C441 C 0.89495 0.38435 0.93159 0.0
C442 C 0.7703 0.31975 0.94774 0.0
C443 C 0.69356 0.34288 0.93588 0.0
H444 H 0.92418 0.32246 0.95539 0.0
H445 H 0.75398 0.2843 0.95861 0.0
S446 S 0.71981 0.44982 0.89604 0.0
N447 N 0.83284 0.44334 0.90488 0.0
N448 N 0.64965 0.40769 0.90928 0.0
C449 C 0.71784 0.38679 0.92181 0.0
C450 C 0.81788 0.40653 0.91951 0.0
C451 C 0.90475 0.21305 0.17704 0.0
C452 C 0.99868 0.17923 0.18222 0.0
C453 C 0.88861 0.31115 0.17379 0.0
C454 C 0.96593 0.37941 0.1754 0.0
H455 H 0.84298 0.16385 0.1759 0.0
H456 H 0.81446 0.33391 0.17027 0.0
S457 S 0.22774 0.32312 0.18656 0.0
N458 N 0.17096 0.2191 0.18762 0.0
N459 N 0.14151 0.40181 0.18112 0.0
C460 C 0.06065 0.34506 0.18006 0.0
C461 C 0.07678 0.24558 0.18354 0.0
C462 C 0.15296 0.68816 0.43802 0.0
C463 C 0.07722 0.73494 0.42869 0.0
C464 C 0.2519 0.71159 0.43724 0.0
C465 C 0.27934 0.78242 0.42701 0.0
H466 H 0.13532 0.63419 0.44623 0.0
H467 H 0.30718 0.67544 0.44498 0.0
S468 S 0.10962 0.91647 0.3984 0.0
N469 N 0.03699 0.84944 0.4079 0.0
N470 N 0.22197 0.89242 0.40616 0.0
C471 C 0.20421 0.82737 0.41721 0.0
C472 C 0.10357 0.80398 0.41812 0.0
C473 C 0.36657 0.7523 0.66476 0.0
C474 C 0.40473 0.83045 0.67597 0.0
C475 C 0.36757 0.65587 0.66932 0.0
C476 C 0.40799 0.63284 0.68526 0.0
H477 H 0.33488 0.76611 0.65236 0.0
H478 H 0.3354 0.59917 0.6603 0.0
S479 S 0.52621 0.81075 0.71865 0.0
N480 N 0.48826 0.87818 0.70337 0.0
N481 N 0.49342 0.69764 0.71187 0.0
C482 C 0.44808 0.71065 0.69649 0.0
C483 C 0.44564 0.80905 0.69188 0.0
loop_
_geom_bond_atom_site_label_1
_geom_bond_atom_site_label_2
_geom_bond_distance
_geom_bond_site_symmetry_2
_ccdc_geom_bond_type
C0 C1 1.351 . S
C0 N3 1.368 . S
C0 H5 0.931 . S
C1 C0 1.351 . S
C1 N2 1.373 . S
C1 H29 0.930 . S
N2 C1 1.373 . S
N2 C4 1.340 . S
N3 C0 1.368 . S
N3 C4 1.321 . S
N3 Co6 2.135 . S
C4 N2 1.340 . S
C4 N3 1.321 . S
C4 H28 0.930 . S
H5 C0 0.931 . S
Co6 N3 2.135 . S
Co6 N9 2.121 1_455 S
Co6 O14 2.055 . S
Co6 O17 2.039 . S
Co6 N20 2.140 . S
C7 O8 1.227 . S
C7 O17 1.265 . S
O8 C7 1.227 . S
N9 Co6 2.121 1_655 S
N9 C11 1.375 . S
N9 C12 1.313 . S
C10 C11 1.338 . S
C10 N13 1.377 . S
C10 H30 0.930 . S
C11 N9 1.375 . S
C11 C10 1.338 . S
C11 H15 0.931 . S
C12 N9 1.313 . S
C12 N13 1.344 . S
C12 H16 0.930 . S
N13 C10 1.377 . S
N13 C12 1.344 . S
O14 Co6 2.055 . S
O14 C18 1.253 . S
H15 C11 0.931 . S
H16 C12 0.930 . S
O17 Co6 2.039 . S
O17 C7 1.265 . S
C18 O14 1.253 . S
C18 O19 1.227 . S
O19 C18 1.227 . S
N20 Co6 2.140 . S
N20 C23 1.346 . S
N20 C24 1.345 1_455 S
C21 C22 1.387 1_545 S
C21 C25 1.390 1_445 S
C22 C21 1.387 1_565 S
C22 C23 1.369 . S
C22 H31 0.929 . S
C23 N20 1.346 . S
C23 C22 1.369 . S
C23 H26 0.928 . S
C24 N20 1.345 1_655 S
C24 C25 1.377 . S
C24 H27 0.931 . S
C25 C21 1.390 1_665 S
C25 C24 1.377 . S
C25 H32 0.926 1_565 S
H26 C23 0.928 . S
H27 C24 0.931 . S
H28 C4 0.930 . S
H29 C1 0.930 . S
H30 C10 0.930 . S
H31 C22 0.929 . S
H32 C25 0.926 1_545 S
C33 C34 1.351 1_565 S
C33 N36 1.368 . S
C33 H38 0.931 . S
C34 C33 1.351 1_545 S
C34 N35 1.373 . S
C34 H62 0.930 . S
N35 C34 1.373 . S
N35 C37 1.340 1_545 S
N36 C33 1.368 . S
N36 C37 1.321 . S
N36 Co39 2.135 . S
C37 N35 1.340 1_565 S
C37 N36 1.321 . S
C37 H61 0.930 . S
H38 C33 0.931 . S
Co39 N36 2.135 . S
Co39 N42 2.121 . S
Co39 O47 2.055 . S
Co39 O50 2.039 . S
Co39 N53 2.140 . S
C40 O41 1.227 . S
C40 O50 1.265 . S
O41 C40 1.227 . S
N42 Co39 2.121 . S
N42 C44 1.375 . S
N42 C45 1.313 . S
C43 C44 1.338 . S
C43 N46 1.377 . S
C43 H63 0.930 . S
C44 N42 1.375 . S
C44 C43 1.338 . S
C44 H48 0.931 . S
C45 N42 1.313 . S
C45 N46 1.344 . S
C45 H49 0.930 . S
N46 C43 1.377 . S
N46 C45 1.344 . S
O47 Co39 2.055 . S
O47 C51 1.253 . S
H48 C44 0.931 . S
H49 C45 0.930 . S
O50 Co39 2.039 . S
O50 C40 1.265 . S
C51 O47 1.253 . S
C51 O52 1.227 . S
O52 C51 1.227 . S
N53 Co39 2.140 . S
N53 C56 1.346 . S
N53 C57 1.345 . S
C54 C55 1.387 . S
C54 C58 1.391 . S
C55 C54 1.387 . S
C55 C56 1.369 . S
C55 H64 0.929 . S
C56 N53 1.346 . S
C56 C55 1.369 . S
C56 H59 0.928 . S
C57 N53 1.345 . S
C57 C58 1.371 . S
C57 H60 0.931 . S
C58 C54 1.391 . S
C58 C57 1.371 . S
C58 H65 0.930 . S
H59 C56 0.928 . S
H60 C57 0.931 . S
H61 C37 0.930 . S
H62 C34 0.930 . S
H63 C43 0.930 . S
H64 C55 0.929 . S
H65 C58 0.930 . S
C66 C67 1.351 . S
C66 N69 1.368 . S
C66 H71 0.931 . S
C67 C66 1.351 . S
C67 N68 1.373 . S
C67 H95 0.930 . S
N68 C67 1.373 . S
N68 C70 1.340 . S
N69 C66 1.368 . S
N69 C70 1.321 . S
N69 Co72 2.135 . S
C70 N68 1.340 . S
C70 N69 1.321 . S
C70 H94 0.930 . S
H71 C66 0.931 . S
Co72 N69 2.135 . S
Co72 N75 2.121 . S
Co72 O80 2.055 . S
Co72 O83 2.039 . S
Co72 N86 2.140 . S
C73 O74 1.227 . S
C73 O83 1.265 . S
O74 C73 1.227 . S
N75 Co72 2.121 . S
N75 C77 1.375 . S
N75 C78 1.313 . S
C76 C77 1.338 . S
C76 N79 1.377 . S
C76 H96 0.930 . S
C77 N75 1.375 . S
C77 C76 1.338 . S
C77 H81 0.931 . S
C78 N75 1.313 . S
C78 N79 1.344 . S
C78 H82 0.930 . S
N79 C76 1.377 . S
N79 C78 1.344 . S
O80 Co72 2.055 . S
O80 C84 1.253 . S
H81 C77 0.931 . S
H82 C78 0.930 . S
O83 Co72 2.039 . S
O83 C73 1.265 . S
C84 O80 1.253 . S
C84 O85 1.227 . S
O85 C84 1.227 . S
N86 Co72 2.140 . S
N86 C89 1.346 . S
N86 C90 1.345 . S
C87 C88 1.387 . S
C87 C91 1.391 . S
C88 C87 1.387 . S
C88 C89 1.369 . S
C88 H97 0.929 . S
C89 N86 1.346 . S
C89 C88 1.369 . S
C89 H92 0.928 . S
C90 N86 1.345 . S
C90 C91 1.371 . S
C90 H93 0.931 . S
C91 C87 1.391 . S
C91 C90 1.371 . S
C91 H98 0.930 . S
H92 C89 0.928 . S
H93 C90 0.931 . S
H94 C70 0.930 . S
H95 C67 0.930 . S
H96 C76 0.930 . S
H97 C88 0.929 . S
H98 C91 0.930 . S
C99 C100 1.351 . S
C99 N102 1.368 . S
C99 H104 0.931 . S
C100 C99 1.351 . S
C100 N101 1.373 . S
C100 H128 0.930 . S
N101 C100 1.373 . S
N101 C103 1.340 . S
N102 C99 1.368 . S
N102 C103 1.321 . S
N102 Co105 2.135 . S
C103 N101 1.340 . S
C103 N102 1.321 . S
C103 H127 0.930 . S
H104 C99 0.931 . S
Co105 N102 2.135 . S
Co105 N108 2.121 . S
Co105 O113 2.055 . S
Co105 O116 2.039 . S
Co105 N119 2.140 1_455 S
C106 O107 1.227 . S
C106 O116 1.265 . S
O107 C106 1.227 . S
N108 Co105 2.121 . S
N108 C110 1.375 . S
N108 C111 1.313 . S
C109 C110 1.338 1_565 S
C109 N112 1.377 . S
C109 H129 0.930 . S
C110 N108 1.375 . S
C110 C109 1.338 1_545 S
C110 H114 0.931 . S
C111 N108 1.313 . S
C111 N112 1.344 1_545 S
C111 H115 0.930 . S
N112 C109 1.377 . S
N112 C111 1.344 1_565 S
O113 Co105 2.055 . S
O113 C117 1.253 . S
H114 C110 0.931 . S
H115 C111 0.930 . S
O116 Co105 2.039 . S
O116 C106 1.265 . S
C117 O113 1.253 . S
C117 O118 1.227 . S
O118 C117 1.227 . S
N119 Co105 2.140 1_655 S
N119 C122 1.346 . S
N119 C123 1.345 . S
C120 C121 1.387 . S
C120 C124 1.391 . S
C121 C120 1.387 . S
C121 C122 1.369 . S
C121 H130 0.929 . S
C122 N119 1.346 . S
C122 C121 1.369 . S
C122 H125 0.928 1_655 S
C123 N119 1.345 . S
C123 C124 1.371 . S
C123 H126 0.931 . S
C124 C120 1.391 . S
C124 C123 1.371 . S
C124 H131 0.930 . S
H125 C122 0.928 1_455 S
H126 C123 0.931 . S
H127 C103 0.930 . S
H128 C100 0.930 . S
H129 C109 0.930 . S
H130 C121 0.929 . S
H131 C124 0.930 . S
C132 C133 1.351 . S
C132 N135 1.368 . S
C132 H137 0.931 . S
C133 C132 1.351 . S
C133 N134 1.373 . S
C133 H161 0.930 . S
N134 C133 1.373 . S
N134 C136 1.340 . S
N135 C132 1.368 . S
N135 C136 1.321 . S
N135 Co138 2.135 1_655 S
C136 N134 1.340 . S
C136 N135 1.321 . S
C136 H160 0.930 . S
H137 C132 0.931 . S
Co138 N135 2.135 1_455 S
Co138 N141 2.121 . S
Co138 O146 2.055 . S
Co138 O149 2.039 . S
Co138 N152 2.140 . S
C139 O140 1.227 . S
C139 O149 1.265 . S
O140 C139 1.227 . S
N141 Co138 2.121 . S
N141 C143 1.375 . S
N141 C144 1.313 . S
C142 C143 1.338 . S
C142 N145 1.377 . S
C142 H162 0.930 . S
C143 N141 1.375 . S
C143 C142 1.338 . S
C143 H147 0.931 . S
C144 N141 1.313 . S
C144 N145 1.344 . S
C144 H148 0.930 . S
N145 C142 1.377 . S
N145 C144 1.344 . S
O146 Co138 2.055 . S
O146 C150 1.253 . S
H147 C143 0.931 . S
H148 C144 0.930 . S
O149 Co138 2.039 . S
O149 C139 1.265 . S
C150 O146 1.253 . S
C150 O151 1.227 . S
O151 C150 1.227 . S
N152 Co138 2.140 . S
N152 C155 1.346 1_455 S
N152 C156 1.345 . S
C153 C154 1.387 1_455 S
C153 C157 1.391 . S
C154 C153 1.387 1_655 S
C154 C155 1.369 . S
C154 H163 0.929 . S
C155 N152 1.346 1_655 S
C155 C154 1.369 . S
C155 H158 0.928 . S
C156 N152 1.345 . S
C156 C157 1.371 . S
C156 H159 0.931 . S
C157 C153 1.391 . S
C157 C156 1.371 . S
C157 H164 0.930 . S
H158 C155 0.928 . S
H159 C156 0.931 . S
H160 C136 0.930 . S
H161 C133 0.930 . S
H162 C142 0.930 . S
H163 C154 0.929 . S
H164 C157 0.930 . S
C165 C166 1.351 . S
C165 N168 1.368 1_655 S
C165 H170 0.931 . S
C166 C165 1.351 . S
C166 N167 1.373 1_655 S
C166 H194 0.930 . S
N167 C166 1.373 1_455 S
N167 C169 1.340 . S
N168 C165 1.368 1_455 S
N168 C169 1.321 . S
N168 Co171 2.135 . S
C169 N167 1.340 . S
C169 N168 1.321 . S
C169 H193 0.930 . S
H170 C165 0.931 . S
Co171 N168 2.135 . S
Co171 N174 2.121 . S
Co171 O179 2.055 . S
Co171 O182 2.039 . S
Co171 N185 2.140 1_455 S
C172 O173 1.227 . S
C172 O182 1.265 . S
O173 C172 1.227 . S
N174 Co171 2.121 . S
N174 C176 1.375 . S
N174 C177 1.313 . S
C175 C176 1.338 1_545 S
C175 N178 1.377 . S
C175 H195 0.930 . S
C176 N174 1.375 . S
C176 C175 1.338 1_565 S
C176 H180 0.931 . S
C177 N174 1.313 . S
C177 N178 1.344 1_565 S
C177 H181 0.930 . S
N178 C175 1.377 . S
N178 C177 1.344 1_545 S
O179 Co171 2.055 . S
O179 C183 1.253 1_455 S
H180 C176 0.931 . S
H181 C177 0.930 . S
O182 Co171 2.039 . S
O182 C172 1.265 . S
C183 O179 1.253 1_655 S
C183 O184 1.227 . S
O184 C183 1.227 . S
N185 Co171 2.140 1_655 S
N185 C188 1.346 . S
N185 C189 1.345 . S
C186 C187 1.387 . S
C186 C190 1.391 . S
C187 C186 1.387 . S
C187 C188 1.369 . S
C187 H196 0.929 . S
C188 N185 1.346 . S
C188 C187 1.369 . S
C188 H191 0.928 . S
C189 N185 1.345 . S
C189 C190 1.371 . S
C189 H192 0.931 . S
C190 C186 1.391 . S
C190 C189 1.371 . S
C190 H197 0.930 . S
H191 C188 0.928 . S
H192 C189 0.931 . S
H193 C169 0.930 . S
H194 C166 0.930 . S
H195 C175 0.930 . S
H196 C187 0.929 . S
H197 C190 0.930 . S
C198 C199 1.351 . S
C198 N201 1.368 . S
C198 H203 0.931 . S
C199 C198 1.351 . S
C199 N200 1.373 . S
C199 H227 0.930 . S
N200 C199 1.373 . S
N200 C202 1.340 . S
N201 C198 1.368 . S
N201 C202 1.321 . S
N201 Co204 2.135 . S
C202 N200 1.340 . S
C202 N201 1.321 . S
C202 H226 0.930 . S
H203 C198 0.931 . S
Co204 N201 2.135 . S
Co204 N207 2.121 . S
Co204 O212 2.055 . S
Co204 O215 2.039 . S
Co204 N218 2.140 . S
C205 O206 1.227 . S
C205 O215 1.265 . S
O206 C205 1.227 . S
N207 Co204 2.121 . S
N207 C209 1.375 . S
N207 C210 1.313 . S
C208 C209 1.338 . S
C208 N211 1.377 . S
C208 H228 0.930 . S
C209 N207 1.375 . S
C209 C208 1.338 . S
C209 H213 0.931 . S
C210 N207 1.313 . S
C210 N211 1.344 . S
C210 H214 0.930 . S
N211 C208 1.377 . S
N211 C210 1.344 . S
O212 Co204 2.055 . S
O212 C216 1.253 . S
H213 C209 0.931 . S
H214 C210 0.930 . S
O215 Co204 2.039 . S
O215 C205 1.265 . S
C216 O212 1.253 . S
C216 O217 1.227 . S
O217 C216 1.227 . S
N218 Co204 2.140 . S
N218 C221 1.346 . S
N218 C222 1.345 . S
C219 C220 1.387 . S
C219 C223 1.391 . S
C220 C219 1.387 . S
C220 C221 1.369 . S
C220 H229 0.929 . S
C221 N218 1.346 . S
C221 C220 1.369 . S
C221 H224 0.928 . S
C222 N218 1.345 . S
C222 C223 1.371 . S
C222 H225 0.931 . S
C223 C219 1.391 . S
C223 C222 1.371 . S
C223 H230 0.930 . S
H224 C221 0.928 . S
H225 C222 0.931 . S
H226 C202 0.930 . S
H227 C199 0.930 . S
H228 C208 0.930 . S
H229 C220 0.929 . S
H230 C223 0.930 . S
C231 C232 1.351 1_545 S
C231 N234 1.368 . S
C231 H236 0.931 . S
C232 C231 1.351 1_565 S
C232 N233 1.373 . S
C232 H260 0.930 . S
N233 C232 1.373 . S
N233 C235 1.340 1_565 S
N234 C231 1.368 . S
N234 C235 1.321 . S
N234 Co237 2.135 . S
C235 N233 1.340 1_545 S
C235 N234 1.321 . S
C235 H259 0.930 . S
H236 C231 0.931 . S
Co237 N234 2.135 . S
Co237 N240 2.121 . S
Co237 O245 2.055 . S
Co237 O248 2.039 . S
Co237 N251 2.140 . S
C238 O239 1.227 . S
C238 O248 1.265 . S
O239 C238 1.227 . S
N240 Co237 2.121 . S
N240 C242 1.375 . S
N240 C243 1.313 . S
C241 C242 1.338 . S
C241 N244 1.377 . S
C241 H261 0.930 . S
C242 N240 1.375 . S
C242 C241 1.338 . S
C242 H246 0.931 . S
C243 N240 1.313 . S
C243 N244 1.344 . S
C243 H247 0.930 . S
N244 C241 1.377 . S
N244 C243 1.344 . S
O245 Co237 2.055 . S
O245 C249 1.253 . S
H246 C242 0.931 . S
H247 C243 0.930 . S
O248 Co237 2.039 . S
O248 C238 1.265 . S
C249 O245 1.253 . S
C249 O250 1.227 . S
O250 C249 1.227 . S
N251 Co237 2.140 . S
N251 C254 1.346 . S
N251 C255 1.345 . S
C252 C253 1.387 . S
C252 C256 1.391 . S
C253 C252 1.387 . S
C253 C254 1.369 . S
C253 H262 0.929 . S
C254 N251 1.346 . S
C254 C253 1.369 . S
C254 H257 0.928 . S
C255 N251 1.345 . S
C255 C256 1.371 . S
C255 H258 0.931 . S
C256 C252 1.391 . S
C256 C255 1.371 . S
C256 H263 0.930 . S
H257 C254 0.928 . S
H258 C255 0.931 . S
H259 C235 0.930 . S
H260 C232 0.930 . S
H261 C241 0.930 . S
H262 C253 0.929 . S
H263 C256 0.930 . S
C264 C265 1.369 . S
C264 C266 1.419 . S
C264 H268 0.930 . S
C265 C264 1.369 . S
C265 C274 1.429 1_455 S
C266 C264 1.419 . S
C266 C267 1.363 1_455 S
C266 H269 0.929 . S
C267 C266 1.363 1_655 S
C267 C273 1.428 . S
H268 C264 0.930 . S
H269 C266 0.929 . S
S270 N271 1.613 . S
S270 N272 1.610 . S
N271 S270 1.613 . S
N271 C274 1.350 . S
N272 S270 1.610 . S
N272 C273 1.351 . S
C273 C267 1.428 . S
C273 N272 1.351 . S
C273 C274 1.434 . S
C274 C265 1.429 1_655 S
C274 N271 1.350 . S
C274 C273 1.434 . S
C275 C276 1.369 . S
C275 C277 1.419 . S
C275 H279 0.930 . S
C276 C275 1.369 . S
C276 C285 1.429 . S
C277 C275 1.419 . S
C277 C278 1.363 . S
C277 H280 0.929 . S
C278 C277 1.363 . S
C278 C284 1.428 . S
H279 C275 0.930 . S
H280 C277 0.929 . S
S281 N282 1.613 . S
S281 N283 1.610 . S
N282 S281 1.613 . S
N282 C285 1.350 . S
N283 S281 1.610 . S
N283 C284 1.351 . S
C284 C278 1.428 . S
C284 N283 1.351 . S
C284 C285 1.434 . S
C285 C276 1.429 . S
C285 N282 1.350 . S
C285 C284 1.434 . S
C286 C287 1.369 . S
C286 C288 1.419 . S
C286 H290 0.930 . S
C287 C286 1.369 . S
C287 C296 1.429 . S
C288 C286 1.419 . S
C288 C289 1.363 . S
C288 H291 0.929 . S
C289 C288 1.363 . S
C289 C295 1.428 . S
H290 C286 0.930 . S
H291 C288 0.929 . S
S292 N293 1.613 . S
S292 N294 1.610 . S
N293 S292 1.613 . S
N293 C296 1.350 . S
N294 S292 1.610 . S
N294 C295 1.351 . S
C295 C289 1.428 . S
C295 N294 1.351 . S
C295 C296 1.434 . S
C296 C287 1.429 . S
C296 N293 1.350 . S
C296 C295 1.434 . S
C297 C298 1.369 . S
C297 C299 1.419 . S
C297 H301 0.930 . S
C298 C297 1.369 . S
C298 C307 1.429 . S
C299 C297 1.419 . S
C299 C300 1.363 . S
C299 H302 0.929 . S
C300 C299 1.363 . S
C300 C306 1.428 . S
H301 C297 0.930 . S
H302 C299 0.929 . S
S303 N304 1.613 . S
S303 N305 1.610 . S
N304 S303 1.613 . S
N304 C307 1.350 1_655 S
N305 S303 1.610 . S
N305 C306 1.351 1_655 S
C306 C300 1.428 . S
C306 N305 1.351 1_455 S
C306 C307 1.434 . S
C307 C298 1.429 . S
C307 N304 1.350 1_455 S
C307 C306 1.434 . S
C308 C309 1.369 . S
C308 C310 1.419 1_554 S
C308 H312 0.930 . S
C309 C308 1.369 . S
C309 C318 1.429 . S
C310 C308 1.419 1_556 S
C310 C311 1.363 . S
C310 H313 0.929 . S
C311 C310 1.363 . S
C311 C317 1.428 . S
H312 C308 0.930 . S
H313 C310 0.929 . S
S314 N315 1.613 1_656 S
S314 N316 1.610 1_655 S
N315 S314 1.613 1_454 S
N315 C318 1.350 . S
N316 S314 1.610 1_455 S
N316 C317 1.351 . S
C317 C311 1.428 . S
C317 N316 1.351 . S
C317 C318 1.434 1_556 S
C318 C309 1.429 . S
C318 N315 1.350 . S
C318 C317 1.434 1_554 S
C319 C320 1.369 . S
C319 C321 1.419 . S
C319 H323 0.930 . S
C320 C319 1.369 . S
C320 C329 1.429 . S
C321 C319 1.419 . S
C321 C322 1.363 . S
C321 H324 0.929 . S
C322 C321 1.363 . S
C322 C328 1.428 . S
H323 C319 0.930 . S
H324 C321 0.929 . S
S325 N326 1.613 . S
S325 N327 1.610 . S
N326 S325 1.613 . S
N326 C329 1.350 . S
N327 S325 1.610 . S
N327 C328 1.351 . S
C328 C322 1.428 . S
C328 N327 1.351 . S
C328 C329 1.434 . S
C329 C320 1.429 . S
C329 N326 1.350 . S
C329 C328 1.434 . S
C330 C331 1.369 . S
C330 C332 1.419 . S
C330 H334 0.930 . S
C331 C330 1.369 . S
C331 C340 1.429 . S
C332 C330 1.419 . S
C332 C333 1.363 . S
C332 H335 0.929 . S
C333 C332 1.363 . S
C333 C339 1.428 . S
H334 C330 0.930 . S
H335 C332 0.929 . S
S336 N337 1.613 . S
S336 N338 1.610 . S
N337 S336 1.613 . S
N337 C340 1.350 . S
N338 S336 1.610 . S
N338 C339 1.351 . S
C339 C333 1.428 . S
C339 N338 1.351 . S
C339 C340 1.434 . S
C340 C331 1.429 . S
C340 N337 1.350 . S
C340 C339 1.434 . S
C341 C342 1.369 . S
C341 C343 1.419 . S
C341 H345 0.930 . S
C342 C341 1.369 . S
C342 C351 1.429 . S
C343 C341 1.419 . S
C343 C344 1.363 . S
C343 H346 0.929 . S
C344 C343 1.363 . S
C344 C350 1.428 . S
H345 C341 0.930 . S
H346 C343 0.929 . S
S347 N348 1.613 . S
S347 N349 1.610 . S
N348 S347 1.613 . S
N348 C351 1.350 . S
N349 S347 1.610 . S
N349 C350 1.351 . S
C350 C344 1.428 . S
C350 N349 1.351 . S
C350 C351 1.434 . S
C351 C342 1.429 . S
C351 N348 1.350 . S
C351 C350 1.434 . S
C352 C353 1.369 . S
C352 C354 1.419 . S
C352 H356 0.930 . S
C353 C352 1.369 . S
C353 C362 1.429 . S
C354 C352 1.419 . S
C354 C355 1.363 . S
C354 H357 0.929 . S
C355 C354 1.363 . S
C355 C361 1.428 . S
H356 C352 0.930 . S
H357 C354 0.929 . S
S358 N359 1.613 . S
S358 N360 1.610 . S
N359 S358 1.613 . S
N359 C362 1.350 . S
N360 S358 1.610 . S
N360 C361 1.351 . S
C361 C355 1.428 . S
C361 N360 1.351 . S
C361 C362 1.434 . S
C362 C353 1.429 . S
C362 N359 1.350 . S
C362 C361 1.434 . S
C363 C364 1.369 . S
C363 C365 1.419 . S
C363 H367 0.930 . S
C364 C363 1.369 . S
C364 C373 1.429 . S
C365 C363 1.419 . S
C365 C366 1.363 . S
C365 H368 0.929 . S
C366 C365 1.363 . S
C366 C372 1.428 . S
H367 C363 0.930 . S
H368 C365 0.929 . S
S369 N370 1.613 . S
S369 N371 1.610 . S
N370 S369 1.613 . S
N370 C373 1.350 . S
N371 S369 1.610 . S
N371 C372 1.351 . S
C372 C366 1.428 . S
C372 N371 1.351 . S
C372 C373 1.434 . S
C373 C364 1.429 . S
C373 N370 1.350 . S
C373 C372 1.434 . S
C374 C375 1.369 . S
C374 C376 1.419 . S
C374 H378 0.930 . S
C375 C374 1.369 . S
C375 C384 1.429 1_545 S
C376 C374 1.419 . S
C376 C377 1.363 . S
C376 H379 0.929 . S
C377 C376 1.363 . S
C377 C383 1.428 1_545 S
H378 C374 0.930 . S
H379 C376 0.929 . S
S380 N381 1.613 . S
S380 N382 1.610 . S
N381 S380 1.613 . S
N381 C384 1.350 . S
N382 S380 1.610 . S
N382 C383 1.351 . S
C383 C377 1.428 1_565 S
C383 N382 1.351 . S
C383 C384 1.434 . S
C384 C375 1.429 1_565 S
C384 N381 1.350 . S
C384 C383 1.434 . S
C385 C386 1.369 1_665 S
C385 C387 1.419 1_554 S
C385 H389 0.930 . S
C386 C385 1.369 1_445 S
C386 C395 1.429 . S
C387 C385 1.419 1_556 S
C387 C388 1.363 1_665 S
C387 H390 0.929 . S
C388 C387 1.363 1_445 S
C388 C394 1.428 . S
H389 C385 0.930 . S
H390 C387 0.929 . S
S391 N392 1.613 1_556 S
S391 N393 1.610 . S
N392 S391 1.613 1_554 S
N392 C395 1.350 . S
N393 S391 1.610 . S
N393 C394 1.351 . S
C394 C388 1.428 . S
C394 N393 1.351 . S
C394 C395 1.434 1_556 S
C395 C386 1.429 . S
C395 N392 1.350 . S
C395 C394 1.434 1_554 S
C396 C397 1.369 . S
C396 C398 1.419 . S
C396 H400 0.930 . S
C397 C396 1.369 . S
C397 C406 1.429 . S
C398 C396 1.419 . S
C398 C399 1.363 . S
C398 H401 0.929 . S
C399 C398 1.363 . S
C399 C405 1.428 . S
H400 C396 0.930 . S
H401 C398 0.929 . S
S402 N403 1.613 . S
S402 N404 1.610 . S
N403 S402 1.613 . S
N403 C406 1.350 . S
N404 S402 1.610 . S
N404 C405 1.351 . S
C405 C399 1.428 . S
C405 N404 1.351 . S
C405 C406 1.434 . S
C406 C397 1.429 . S
C406 N403 1.350 . S
C406 C405 1.434 . S
C407 C408 1.369 . S
C407 C409 1.419 . S
C407 H411 0.930 . S
C408 C407 1.369 . S
C408 C417 1.429 . S
C409 C407 1.419 . S
C409 C410 1.363 . S
C409 H412 0.929 . S
C410 C409 1.363 . S
C410 C416 1.428 . S
H411 C407 0.930 . S
H412 C409 0.929 . S
S413 N414 1.613 . S
S413 N415 1.610 . S
N414 S413 1.613 . S
N414 C417 1.350 . S
N415 S413 1.610 . S
N415 C416 1.351 . S
C416 C410 1.428 . S
C416 N415 1.351 . S
C416 C417 1.434 . S
C417 C408 1.429 . S
C417 N414 1.350 . S
C417 C416 1.434 . S
C418 C419 1.369 . S
C418 C420 1.419 1_455 S
C418 H422 0.930 . S
C419 C418 1.369 . S
C419 C428 1.429 . S
C420 C418 1.419 1_655 S
C420 C421 1.363 . S
C420 H423 0.929 . S
C421 C420 1.363 . S
C421 C427 1.428 . S
H422 C418 0.930 . S
H423 C420 0.929 . S
S424 N425 1.613 . S
S424 N426 1.610 1_455 S
N425 S424 1.613 . S
N425 C428 1.350 . S
N426 S424 1.610 1_655 S
N426 C427 1.351 . S
C427 C421 1.428 . S
C427 N426 1.351 . S
C427 C428 1.434 1_655 S
C428 C419 1.429 . S
C428 N425 1.350 . S
C428 C427 1.434 1_455 S
C429 C430 1.369 . S
C429 C431 1.419 . S
C429 H433 0.930 . S
C430 C429 1.369 . S
C430 C439 1.429 . S
C431 C429 1.419 . S
C431 C432 1.363 . S
C431 H434 0.929 . S
C432 C431 1.363 . S
C432 C438 1.428 . S
H433 C429 0.930 . S
H434 C431 0.929 . S
S435 N436 1.613 . S
S435 N437 1.610 . S
N436 S435 1.613 . S
N436 C439 1.350 1_655 S
N437 S435 1.610 . S
N437 C438 1.351 1_655 S
C438 C432 1.428 . S
C438 N437 1.351 1_455 S
C438 C439 1.434 . S
C439 C430 1.429 . S
C439 N436 1.350 1_455 S
C439 C438 1.434 . S
C440 C441 1.369 . S
C440 C442 1.419 . S
C440 H444 0.930 . S
C441 C440 1.369 . S
C441 C450 1.429 . S
C442 C440 1.419 . S
C442 C443 1.363 . S
C442 H445 0.929 . S
C443 C442 1.363 . S
C443 C449 1.428 . S
H444 C440 0.930 . S
H445 C442 0.929 . S
S446 N447 1.613 . S
S446 N448 1.610 . S
N447 S446 1.613 . S
N447 C450 1.350 . S
N448 S446 1.610 . S
N448 C449 1.351 . S
C449 C443 1.428 . S
C449 N448 1.351 . S
C449 C450 1.434 . S
C450 C441 1.429 . S
C450 N447 1.350 . S
C450 C449 1.434 . S
C451 C452 1.369 . S
C451 C453 1.419 . S
C451 H455 0.930 1_455 S
C452 C451 1.369 . S
C452 C461 1.429 . S
C453 C451 1.419 . S
C453 C454 1.363 . S
C453 H456 0.932 . S
C454 C453 1.363 . S
C454 C460 1.428 . S
H455 C451 0.930 1_655 S
H456 C453 0.932 . S
S457 N458 1.613 . S
S457 N459 1.610 . S
N458 S457 1.613 . S
N458 C461 1.350 . S
N459 S457 1.610 . S
N459 C460 1.351 . S
C460 C454 1.428 . S
C460 N459 1.351 . S
C460 C461 1.434 . S
C461 C452 1.429 . S
C461 N458 1.350 . S
C461 C460 1.434 . S
C462 C463 1.369 1_455 S
C462 C464 1.419 . S
C462 H466 0.930 1_455 S
C463 C462 1.369 1_655 S
C463 C472 1.429 . S
C464 C462 1.419 . S
C464 C465 1.363 . S
C464 H467 0.929 . S
C465 C464 1.363 . S
C465 C471 1.428 . S
H466 C462 0.930 1_655 S
H467 C464 0.929 . S
S468 N469 1.613 1_455 S
S468 N470 1.610 . S
N469 S468 1.613 1_655 S
N469 C472 1.350 . S
N470 S468 1.610 . S
N470 C471 1.351 . S
C471 C465 1.428 . S
C471 N470 1.351 . S
C471 C472 1.434 1_455 S
C472 C463 1.429 . S
C472 N469 1.350 . S
C472 C471 1.434 1_655 S
C473 C474 1.369 . S
C473 C475 1.419 . S
C473 H477 0.930 . S
C474 C473 1.369 . S
C474 C483 1.429 . S
C475 C473 1.419 . S
C475 C476 1.363 . S
C475 H478 0.929 . S
C476 C475 1.363 . S
C476 C482 1.428 . S
H477 C473 0.930 . S
H478 C475 0.929 . S
S479 N480 1.613 . S
S479 N481 1.610 . S
N480 S479 1.613 . S
N480 C483 1.350 . S
N481 S479 1.610 . S
N481 C482 1.351 . S
C482 C476 1.428 . S
C482 N481 1.351 . S
C482 C483 1.434 . S
C483 C474 1.429 . S
C483 N480 1.350 . S
C483 C482 1.434 . S
C265 C18 1.372 . S
C267 C183 1.371 . S
C276 C216 1.369 . S
C278 C51 1.366 . S
C287 C84 1.369 . S
C289 C249 1.372 . S
C298 C150 1.369 . S
C300 C117 1.366 . S
C309 C7 0.838 . S
C311 C153 0.863 . S
C320 C40 1.030 . S
C322 C186 1.038 . S
C331 C205 1.031 . S
C333 C87 1.038 . S
C342 C120 0.846 . S
C344 C238 0.856 . S
C353 C106 1.025 . S
C355 C252 1.043 . S
C364 C172 0.854 . S
C366 C54 0.852 . S
C375 C219 0.846 1_545 S
C377 C73 0.856 . S
C386 C21 1.056 . S
C388 C139 1.012 . S
C397 N13 1.721 . S
C399 N2 1.712 . S
C408 N46 1.722 . S
C410 N35 1.712 . S
C419 N79 1.720 . S
C421 N68 1.713 . S
C430 N112 1.721 . S
C432 N101 1.713 . S
C441 N134 1.711 . S
C443 N145 1.721 . S
C452 N178 1.715 . S
C454 N167 1.717 . S
C463 N211 1.719 . S
C465 N200 1.714 . S
C474 N233 1.718 . S
C476 N244 1.715 . S
