# Generated by pormake.
# Topology smb, (6)-cn, num edge types: 1
# Building blocks:
#     Node 0, Type 0, BuildingBlock: OJICUG_clean_sbu_0, # of connection points: 6
#     Node 1, Type 0, BuildingBlock: OJICUG_clean_sbu_0, # of connection points: 6
#     Node 2, Type 0, BuildingBlock: OJICUG_clean_sbu_0, # of connection points: 6
#     Node 3, Type 0, BuildingBlock: OJICUG_clean_sbu_0, # of connection points: 6
#     Node 4, Type 0, BuildingBlock: OJICUG_clean_sbu_0, # of connection points: 6
#     Node 5, Type 0, BuildingBlock: OJICUG_clean_sbu_0, # of connection points: 6
#     Node 6, Type 0, BuildingBlock: OJICUG_clean_sbu_0, # of connection points: 6
#     Node 7, Type 0, BuildingBlock: OJICUG_clean_sbu_0, # of connection points: 6
#     Node 8, Type 0, BuildingBlock: OJICUG_clean_sbu_0, # of connection points: 6
#     Edge 9, Type (0, 0), BuildingBlock: XIVTED_clean_linker_0, # of connection points: 2
#     Edge 10, Type (0, 0), BuildingBlock: XIVTED_clean_linker_0, # of connection points: 2
#     Edge 11, Type (0, 0), BuildingBlock: XIVTED_clean_linker_0, # of connection points: 2
#     Edge 12, Type (0, 0), BuildingBlock: XIVTED_clean_linker_0, # of connection points: 2
#     Edge 13, Type (0, 0), BuildingBlock: XIVTED_clean_linker_0, # of connection points: 2
#     Edge 14, Type (0, 0), BuildingBlock: XIVTED_clean_linker_0, # of connection points: 2
#     Edge 15, Type (0, 0), BuildingBlock: XIVTED_clean_linker_0, # of connection points: 2
#     Edge 16, Type (0, 0), BuildingBlock: XIVTED_clean_linker_0, # of connection points: 2
#     Edge 17, Type (0, 0), BuildingBlock: XIVTED_clean_linker_0, # of connection points: 2
#     Edge 18, Type (0, 0), BuildingBlock: XIVTED_clean_linker_0, # of connection points: 2
#     Edge 19, Type (0, 0), BuildingBlock: XIVTED_clean_linker_0, # of connection points: 2
#     Edge 20, Type (0, 0), BuildingBlock: XIVTED_clean_linker_0, # of connection points: 2
#     Edge 21, Type (0, 0), BuildingBlock: XIVTED_clean_linker_0, # of connection points: 2
#     Edge 22, Type (0, 0), BuildingBlock: XIVTED_clean_linker_0, # of connection points: 2
#     Edge 23, Type (0, 0), BuildingBlock: XIVTED_clean_linker_0, # of connection points: 2
#     Edge 24, Type (0, 0), BuildingBlock: XIVTED_clean_linker_0, # of connection points: 2
#     Edge 25, Type (0, 0), BuildingBlock: XIVTED_clean_linker_0, # of connection points: 2
#     Edge 26, Type (0, 0), BuildingBlock: XIVTED_clean_linker_0, # of connection points: 2
#     Edge 27, Type (0, 0), BuildingBlock: XIVTED_clean_linker_0, # of connection points: 2
#     Edge 28, Type (0, 0), BuildingBlock: XIVTED_clean_linker_0, # of connection points: 2
#     Edge 29, Type (0, 0), BuildingBlock: XIVTED_clean_linker_0, # of connection points: 2
#     Edge 30, Type (0, 0), BuildingBlock: XIVTED_clean_linker_0, # of connection points: 2
#     Edge 31, Type (0, 0), BuildingBlock: XIVTED_clean_linker_0, # of connection points: 2
#     Edge 32, Type (0, 0), BuildingBlock: XIVTED_clean_linker_0, # of connection points: 2
#     Edge 33, Type (0, 0), BuildingBlock: XIVTED_clean_linker_0, # of connection points: 2
#     Edge 34, Type (0, 0), BuildingBlock: XIVTED_clean_linker_0, # of connection points: 2
#     Edge 35, Type (0, 0), BuildingBlock: XIVTED_clean_linker_0, # of connection points: 2
# Relax obj value: 0.341
# Max RMSD: 0.254
# Mean RMSD: 0.254
data_MOF--net-smb--node1-OJICUG_clean_sbu_0--edge1-XIVTED_clean_linker_0
_symmetry_space_group_name_H-M    P1
_symmetry_Int_Tables_number       1
_symmetry_cell_setting            triclinic
loop_
_symmetry_equiv_pos_as_xyz
'x, y, z'
_cell_length_a     40.326651
_cell_length_b     40.366399
_cell_length_c     28.994534
_cell_angle_alpha  90.027311
_cell_angle_beta   89.922116
_cell_angle_gamma 120.07354
loop_
_atom_site_label
_atom_site_type_symbol
_atom_site_fract_x
_atom_site_fract_y
_atom_site_fract_z
_atom_type_partial_charge
Sc0 Sc 0.33048 0.15453 0.00108 0.0
Sc1 Sc 0.41651 0.19784 0.93617 0.0
Sc2 Sc 0.4193 0.19817 0.05764 0.0
O3 O 0.38878 0.18349 -0.00172 0.0
C4 C 0.35154 0.21368 0.083 0.0
C5 C 0.34878 0.21518 0.92063 0.0
C6 C 0.46832 0.27255 -0.00411 0.0
C7 C 0.348 0.11329 0.91841 0.0
C8 C 0.35065 0.11485 0.08171 0.0
C9 C 0.46743 0.17288 -0.00565 0.0
O10 O 0.32811 0.19159 0.05286 0.0
O11 O 0.38106 0.21923 0.90948 0.0
O12 O 0.45772 0.2554 0.03443 0.0
O13 O 0.32683 0.11458 0.94998 0.0
O14 O 0.3841 0.14309 0.08758 0.0
O15 O 0.45561 0.1789 0.95639 0.0
O16 O 0.32757 0.11385 0.05133 0.0
O17 O 0.38065 0.14144 0.9082 0.0
O18 O 0.45675 0.1785 0.03338 0.0
O19 O 0.32753 0.19235 0.95186 0.0
O20 O 0.38501 0.21883 0.08826 0.0
O21 O 0.45601 0.25558 0.95749 0.0
Sc22 Sc 0.82983 0.15396 -0.00074 0.0
Sc23 Sc 0.78771 0.19773 0.93472 0.0
Sc24 Sc 0.78438 0.19727 0.05609 0.0
O25 O 0.80065 0.183 -0.00332 0.0
C26 C 0.769 0.11378 0.07935 0.0
C27 C 0.77101 0.11312 0.91663 0.0
C28 C 0.71144 0.17288 -0.0077 0.0
C29 C 0.87266 0.2145 0.91862 0.0
C30 C 0.86757 0.21246 0.08183 0.0
C31 C 0.81082 0.27209 -0.00481 0.0
O32 O 0.79183 0.11325 0.0496 0.0
O33 O 0.76707 0.14153 0.9064 0.0
O34 O 0.72751 0.1784 0.03142 0.0
O35 O 0.87085 0.19147 0.94965 0.0
O36 O 0.83895 0.21708 0.08738 0.0
O37 O 0.8061 0.25526 0.95668 0.0
O38 O 0.86939 0.19111 0.051 0.0
O39 O 0.84466 0.21907 0.90818 0.0
O40 O 0.80408 0.25482 0.03364 0.0
O41 O 0.79319 0.11404 0.94829 0.0
O42 O 0.76351 0.1418 0.08507 0.0
O43 O 0.72951 0.17878 0.95449 0.0
Sc44 Sc 0.83173 0.65364 0.00042 0.0
Sc45 Sc 0.788 0.56807 0.93512 0.0
Sc46 Sc 0.78454 0.5647 0.05649 0.0
O47 O 0.80138 0.59546 -0.00267 0.0
C48 C 0.86797 0.631 0.08308 0.0
C49 C 0.87402 0.63505 0.92043 0.0
C50 C 0.80953 0.51543 -0.00556 0.0
C51 C 0.7738 0.6374 0.91698 0.0
C52 C 0.77127 0.63434 0.0801 0.0
C53 C 0.71137 0.51761 -0.00703 0.0
O54 O 0.86961 0.65512 0.05381 0.0
O55 O 0.84495 0.60382 0.90799 0.0
O56 O 0.80166 0.52497 0.03292 0.0
O57 O 0.79742 0.65864 0.94759 0.0
O58 O 0.76621 0.60107 0.08678 0.0
O59 O 0.72979 0.52833 0.95517 0.0
O60 O 0.79307 0.65694 0.04908 0.0
O61 O 0.76732 0.60389 0.90807 0.0
O62 O 0.72716 0.52902 0.03209 0.0
O63 O 0.87319 0.65576 0.95282 0.0
O64 O 0.83965 0.59738 0.08716 0.0
O65 O 0.80657 0.52902 0.95617 0.0
Sc66 Sc -0.00313 0.48588 0.3347 0.0
Sc67 Sc 0.0816 0.52792 0.2674 0.0
Sc68 Sc 0.08683 0.53136 0.3887 0.0
O69 O 0.05511 0.51507 0.33026 0.0
C70 C 0.01913 0.54676 0.41485 0.0
C71 C 0.01311 0.54424 0.25206 0.0
C72 C 0.13414 0.60421 0.32415 0.0
C73 C 0.01327 0.44278 0.25331 0.0
C74 C 0.01917 0.44841 0.41592 0.0
C75 C 0.13407 0.50495 0.32543 0.0
O76 O -0.00478 0.52407 0.38548 0.0
O77 O 0.04539 0.54835 0.24075 0.0
O78 O 0.12438 0.58815 0.36339 0.0
O79 O -0.0074 0.44467 0.2851 0.0
O80 O 0.05266 0.47688 0.42047 0.0
O81 O 0.12133 0.50978 0.28748 0.0
O82 O -0.00467 0.44665 0.38613 0.0
O83 O 0.0455 0.47085 0.24161 0.0
O84 O 0.1242 0.51162 0.36439 0.0
O85 O -0.00753 0.52208 0.28416 0.0
O86 O 0.05275 0.55217 0.41947 0.0
O87 O 0.12122 0.58616 0.28651 0.0
Sc88 Sc 0.498 0.48915 0.33105 0.0
Sc89 Sc 0.45488 0.53129 0.26524 0.0
Sc90 Sc 0.45217 0.53261 0.38658 0.0
O91 O 0.46836 0.51769 0.32762 0.0
C92 C 0.43747 0.44967 0.41165 0.0
C93 C 0.43895 0.44675 0.24905 0.0
C94 C 0.37883 0.5068 0.32297 0.0
C95 C 0.5401 0.54881 0.24937 0.0
C96 C 0.53555 0.54858 0.41272 0.0
C97 C 0.47801 0.60646 0.32406 0.0
O98 O 0.4603 0.44892 0.38206 0.0
O99 O 0.43451 0.47475 0.23819 0.0
O100 O 0.39515 0.51312 0.362 0.0
O101 O 0.53874 0.52637 0.28096 0.0
O102 O 0.50683 0.55307 0.4179 0.0
O103 O 0.47297 0.58906 0.28591 0.0
O104 O 0.5375 0.527 0.38233 0.0
O105 O 0.51176 0.5527 0.23856 0.0
O106 O 0.47162 0.58977 0.36288 0.0
O107 O 0.46149 0.44845 0.28069 0.0
O108 O 0.43172 0.47759 0.41665 0.0
O109 O 0.3967 0.51218 0.2851 0.0
Sc110 Sc 0.49609 0.98658 0.3316 0.0
Sc111 Sc 0.45308 0.90131 0.26565 0.0
Sc112 Sc 0.45098 0.89721 0.38702 0.0
O113 O 0.46669 0.92836 0.32809 0.0
C114 C 0.53437 0.96477 0.41254 0.0
C115 C 0.53823 0.9693 0.24987 0.0
C116 C 0.47661 0.84937 0.32362 0.0
C117 C 0.43674 0.96961 0.2498 0.0
C118 C 0.43616 0.96537 0.41271 0.0
C119 C 0.37733 0.84943 0.32406 0.0
O120 O 0.53573 0.9885 0.38284 0.0
O121 O 0.50981 0.93723 0.23852 0.0
O122 O 0.46997 0.85924 0.36261 0.0
O123 O 0.45954 0.99067 0.28117 0.0
O124 O 0.43096 0.93191 0.41796 0.0
O125 O 0.39506 0.86167 0.28604 0.0
O126 O 0.45829 0.9888 0.38254 0.0
O127 O 0.43215 0.93708 0.23916 0.0
O128 O 0.39376 0.85984 0.363 0.0
O129 O 0.5369 0.99015 0.28176 0.0
O130 O 0.50598 0.93129 0.4175 0.0
O131 O 0.47178 0.86211 0.2857 0.0
Sc132 Sc 0.66402 0.82122 0.66666 0.0
Sc133 Sc 0.74848 0.86367 0.59894 0.0
Sc134 Sc 0.7541 0.86911 0.72019 0.0
O135 O 0.72222 0.85135 0.66192 0.0
C136 C 0.68554 0.88325 0.74535 0.0
C137 C 0.67931 0.87895 0.5836 0.0
C138 C 0.80082 0.94095 0.65402 0.0
C139 C 0.68087 0.77815 0.58564 0.0
C140 C 0.68758 0.78572 0.74873 0.0
C141 C 0.80159 0.8422 0.65813 0.0
O142 O 0.66153 0.85908 0.71722 0.0
O143 O 0.71156 0.88315 0.57187 0.0
O144 O 0.79134 0.92556 0.69364 0.0
O145 O 0.6601 0.78 0.61729 0.0
O146 O 0.72046 0.81513 0.75346 0.0
O147 O 0.7887 0.84634 0.6199 0.0
O148 O 0.66372 0.78266 0.71817 0.0
O149 O 0.71296 0.80632 0.57387 0.0
O150 O 0.79172 0.84935 0.69683 0.0
O151 O 0.65899 0.85699 0.61605 0.0
O152 O 0.71968 0.89009 0.74954 0.0
O153 O 0.78772 0.92222 0.61685 0.0
Sc154 Sc 0.16313 0.82134 0.66635 0.0
Sc155 Sc 0.12021 0.86312 0.59962 0.0
Sc156 Sc 0.11804 0.866 0.72093 0.0
O157 O 0.13378 0.85014 0.6623 0.0
C158 C 0.10285 0.78303 0.74736 0.0
C159 C 0.10396 0.77834 0.58459 0.0
C160 C 0.04446 0.83973 0.65762 0.0
C161 C 0.2053 0.88008 0.58397 0.0
C162 C 0.2014 0.88199 0.74689 0.0
C163 C 0.14381 0.93908 0.65686 0.0
O164 O 0.12522 0.7817 0.71755 0.0
O165 O 0.09945 0.80625 0.57353 0.0
O166 O 0.06089 0.84627 0.69662 0.0
O167 O 0.20393 0.85801 0.61603 0.0
O168 O 0.17297 0.88699 0.75177 0.0
O169 O 0.13874 0.92118 0.61911 0.0
O170 O 0.20281 0.85954 0.71732 0.0
O171 O 0.17696 0.88388 0.5728 0.0
O172 O 0.13737 0.92288 0.69602 0.0
O173 O 0.12658 0.78026 0.61626 0.0
O174 O 0.09766 0.81133 0.75226 0.0
O175 O 0.06219 0.84465 0.61972 0.0
Sc176 Sc 0.16514 0.32061 0.6677 0.0
Sc177 Sc 0.12293 0.23632 0.60004 0.0
Sc178 Sc 0.11921 0.23051 0.72133 0.0
O179 O 0.13577 0.26247 0.66302 0.0
C180 C 0.20235 0.29816 0.74879 0.0
C181 C 0.20808 0.30447 0.58567 0.0
C182 C 0.14597 0.18376 0.65804 0.0
C183 C 0.10652 0.30478 0.58567 0.0
C184 C 0.10369 0.29789 0.74767 0.0
C185 C 0.04651 0.18347 0.65637 0.0
O186 O 0.20467 0.32176 0.71832 0.0
O187 O 0.18013 0.27206 0.57446 0.0
O188 O 0.13985 0.19392 0.69712 0.0
O189 O 0.12835 0.32503 0.61815 0.0
O190 O 0.0975 0.26398 0.75157 0.0
O191 O 0.06452 0.19727 0.61888 0.0
O192 O 0.12734 0.32217 0.71927 0.0
O193 O 0.10297 0.27296 0.57343 0.0
O194 O 0.06262 0.19235 0.69562 0.0
O195 O 0.2061 0.32521 0.61725 0.0
O196 O 0.17339 0.26502 0.75386 0.0
O197 O 0.14051 0.19611 0.62014 0.0
H198 H 0.37225 0.09949 0.83549 0.0
H199 H 0.20558 0.88238 0.8396 0.0
H200 H 0.29458 0.04279 0.94889 0.0
H201 H 0.27132 0.93778 0.71776 0.0
H202 H 0.25172 0.9362 0.88602 0.0
H203 H 0.3473 0.03728 0.79709 0.0
C204 C 0.35014 0.074 0.85236 0.0
C205 C 0.33472 0.0764 0.89483 0.0
C206 C 0.25675 0.93633 0.8493 0.0
C207 C 0.30683 0.00547 0.85182 0.0
C208 C 0.23064 0.90542 0.82302 0.0
C209 C 0.23489 0.90608 0.77514 0.0
C210 C 0.28645 0.96853 0.82716 0.0
C211 C 0.26742 0.93649 0.75482 0.0
C212 C 0.33611 0.03855 0.8306 0.0
C213 C 0.30657 0.04247 0.91556 0.0
N214 N 0.29163 0.96719 0.78087 0.0
N215 N 0.2934 0.00854 0.89371 0.0
H216 H 0.88729 0.25364 0.83657 0.0
H217 H 0.10352 0.3017 0.84036 0.0
H218 H 0.94292 0.23114 0.94955 0.0
H219 H 0.04861 0.31297 0.71889 0.0
H220 H 0.0501 0.29485 0.88709 0.0
H221 H 0.94979 0.29098 0.79864 0.0
C222 C 0.91263 0.25674 0.85348 0.0
C223 C 0.90983 0.23843 0.89564 0.0
C224 C 0.05002 0.29979 0.85039 0.0
C225 C 0.98108 0.2815 0.85313 0.0
C226 C 0.0807 0.30411 0.82393 0.0
C227 C 0.08001 0.30771 0.77608 0.0
C228 C 0.01802 0.29778 0.82841 0.0
C229 C 0.04989 0.31033 0.75593 0.0
C230 C 0.94823 0.27819 0.83198 0.0
C231 C 0.94356 0.24383 0.91644 0.0
N232 N 0.0194 0.30432 0.78214 0.0
N233 N 0.97767 0.26461 0.8948 0.0
H234 H 0.66397 0.71305 0.72018 0.0
H235 H 0.72295 0.60436 0.84506 0.0
H236 H 0.69578 0.78473 0.84093 0.0
H237 H 0.77186 0.70247 0.9358 0.0
H238 H 0.68572 0.6292 0.8075 0.0
H239 H 0.67404 0.66679 0.76292 0.0
C240 C 0.67136 0.71806 0.75643 0.0
C241 C 0.67954 0.75267 0.7772 0.0
C242 C 0.70475 0.64547 0.83534 0.0
C243 C 0.69163 0.70052 0.82627 0.0
C244 C 0.72607 0.63125 0.85685 0.0
C245 C 0.75129 0.6518 0.89295 0.0
C246 C 0.70885 0.6805 0.85015 0.0
C247 C 0.75351 0.68597 0.9075 0.0
C248 C 0.67742 0.69175 0.7809 0.0
C249 C 0.68959 0.75839 0.8238 0.0
N250 N 0.73275 0.69921 0.88594 0.0
N251 N 0.69597 0.73287 0.84656 0.0
H252 H 0.0515 0.71098 0.71885 0.0
H253 H 0.94437 0.679 0.95796 0.0
H254 H 0.0991 0.78064 0.84015 0.0
H255 H 0.88845 0.61759 0.83364 0.0
H256 H 0.00614 0.70327 0.92045 0.0
H257 H -0.00221 0.66345 0.76557 0.0
C258 C 0.05136 0.71537 0.75571 0.0
C259 C 0.0792 0.74959 0.77599 0.0
C260 C 0.98046 0.68428 0.90133 0.0
C261 C 0.0182 0.69643 0.82893 0.0
C262 C 0.94513 0.67068 0.92261 0.0
C263 C 0.91125 0.64727 0.89829 0.0
C264 C 0.98203 0.67504 0.85503 0.0
C265 C 0.91396 0.63624 0.8532 0.0
C266 C 0.02063 0.68855 0.78221 0.0
C267 C 0.07783 0.75455 0.8235 0.0
N268 N 0.94884 0.65088 0.83258 0.0
N269 N 0.04745 0.72849 0.8483 0.0
H270 H 0.27482 0.31936 0.7212 0.0
H271 H 0.30226 0.23849 0.95785 0.0
H272 H 0.20352 0.29534 0.84154 0.0
H273 H 0.36792 0.24951 0.83527 0.0
H274 H 0.2782 0.27636 0.92133 0.0
H275 H 0.32163 0.31236 0.76808 0.0
C276 C 0.26991 0.31421 0.75792 0.0
C277 C 0.23541 0.30744 0.77782 0.0
C278 C 0.29805 0.27078 0.90235 0.0
C279 C 0.28775 0.29868 0.83091 0.0
C280 C 0.3115 0.24881 0.92305 0.0
C281 C 0.33612 0.23986 0.8989 0.0
C282 C 0.30863 0.28333 0.85676 0.0
C283 C 0.34832 0.25518 0.85462 0.0
C284 C 0.29633 0.30983 0.78451 0.0
C285 C 0.22981 0.30039 0.82516 0.0
N286 N 0.33381 0.27563 0.8345 0.0
N287 N 0.25547 0.29561 0.85002 0.0
H288 H 0.67815 0.88203 0.83772 0.0
H289 H 0.73338 0.10016 0.83372 0.0
H290 H 0.67291 0.93949 0.71521 0.0
H291 H 0.75228 0.04221 0.94707 0.0
H292 H 0.69496 0.03817 0.79527 0.0
H293 H 0.68534 0.93564 0.8842 0.0
C294 C 0.67704 0.90544 0.82096 0.0
C295 C 0.67512 0.90681 0.77296 0.0
C296 C 0.70722 0.03913 0.82879 0.0
C297 C 0.68552 0.96894 0.82505 0.0
C298 C 0.72932 0.07443 0.85057 0.0
C299 C 0.7469 0.07639 0.89301 0.0
C300 C 0.70252 0.00574 0.84996 0.0
C301 C 0.7402 0.0422 0.91374 0.0
C302 C 0.68159 0.93622 0.84728 0.0
C303 C 0.67423 0.9377 0.75238 0.0
N304 N 0.7188 0.00839 0.89186 0.0
N305 N 0.68046 0.96822 0.77852 0.0
H306 H 0.93959 0.26452 0.0537 0.0
H307 H 0.96495 0.37291 0.2897 0.0
H308 H 0.86963 0.21547 0.17465 0.0
H309 H 0.03298 0.42725 0.16848 0.0
H310 H 0.941 0.31091 0.25329 0.0
H311 H 0.98586 0.3188 0.10046 0.0
C312 C 0.93494 0.26446 0.09053 0.0
C313 C 0.90089 0.23605 0.11064 0.0
C314 C 0.96133 0.33628 0.23459 0.0
C315 C 0.95253 0.29781 0.16361 0.0
C316 C 0.97471 0.37177 0.25521 0.0
C317 C 8e-05 0.40531 0.23146 0.0
C318 C 0.97276 0.33419 0.18945 0.0
C319 C 0.01285 0.40204 0.18756 0.0
C320 C 0.96102 0.29555 0.11707 0.0
C321 C 0.89559 0.23719 0.15811 0.0
N322 N -0.00153 0.36704 0.16752 0.0
N323 N 0.92084 0.26797 0.18291 0.0
H324 H 0.55408 0.58733 0.16697 0.0
H325 H 0.77174 0.64061 0.17263 0.0
H326 H 0.61075 0.56698 0.2806 0.0
H327 H 0.71582 0.64841 0.05005 0.0
H328 H 0.71797 0.63351 0.21882 0.0
H329 H 0.6165 0.62583 0.1293 0.0
C330 C 0.57962 0.59111 0.18406 0.0
C331 C 0.57717 0.57309 0.22635 0.0
C332 C 0.71775 0.63778 0.18197 0.0
C333 C 0.64833 0.61755 0.18415 0.0
C334 C 0.74863 0.64227 0.1558 0.0
C335 C 0.74772 0.64481 0.1078 0.0
C336 C 0.68538 0.63455 0.1596 0.0
C337 C 0.71726 0.64654 0.08719 0.0
C338 C 0.61518 0.61325 0.16272 0.0
C339 C 0.61114 0.57942 0.24738 0.0
N340 N 0.68659 0.64031 0.11316 0.0
N341 N 0.64521 0.60086 0.2259 0.0
H342 H 0.34579 0.11006 0.17435 0.0
H343 H 0.39699 0.94447 0.16828 0.0
H344 H 0.33563 0.04489 0.05219 0.0
H345 H 0.42029 0.02332 0.28081 0.0
H346 H 0.35845 0.96847 0.13132 0.0
H347 H 0.35321 0.06372 0.22053 0.0
C348 C 0.34369 0.08505 0.15765 0.0
C349 C 0.3404 0.08109 0.10974 0.0
C350 C 0.37171 0.98013 0.16434 0.0
C351 C 0.35101 0.02937 0.16145 0.0
C352 C 0.39388 0.96668 0.18526 0.0
C353 C 0.4127 0.98268 0.22703 0.0
C354 C 0.36817 0.00945 0.18567 0.0
C355 C 0.40721 0.01089 0.24797 0.0
C356 C 0.34836 0.05885 0.1838 0.0
C357 C 0.3381 0.0486 0.08926 0.0
N358 N 0.3857 0.02352 0.2269 0.0
N359 N 0.34451 0.02433 0.11517 0.0
H360 H 0.71547 0.04333 0.04888 0.0
H361 H 0.60851 0.01577 0.28626 0.0
H362 H 0.76681 0.10888 0.17199 0.0
H363 H 0.55283 0.95007 0.16424 0.0
H364 H 0.67031 0.03875 0.24945 0.0
H365 H 0.6607 -0.00317 0.09494 0.0
C366 C 0.7159 0.04687 0.08597 0.0
C367 C 0.74515 0.07979 0.107 0.0
C368 C 0.64469 0.01914 0.23064 0.0
C369 C 0.68281 0.028 0.15924 0.0
C370 C 0.60933 0.00633 0.2515 0.0
C371 C 0.57551 0.98192 0.22766 0.0
C372 C 0.64638 0.00813 0.18516 0.0
C373 C 0.5783 0.96949 0.18339 0.0
C374 C 0.68453 0.02068 0.11213 0.0
C375 C 0.74447 0.08377 0.15479 0.0
N376 N 0.61322 0.98334 0.16312 0.0
N377 N 0.7134 0.05849 0.17926 0.0
H378 H 0.03775 0.58359 0.17009 0.0
H379 H 0.87083 0.633 0.1759 0.0
H380 H 0.95946 0.56071 0.28336 0.0
H381 H 0.9386 0.64695 0.05478 0.0
H382 H 0.91674 0.62508 0.22233 0.0
H383 H 0.01335 0.62176 0.13312 0.0
C384 C 0.01558 0.5867 0.18722 0.0
C385 C -0.00015 0.56811 0.22922 0.0
C386 C 0.92226 0.63083 0.18581 0.0
C387 C 0.97258 0.61219 0.18783 0.0
C388 C 0.89627 0.63576 0.15953 0.0
C389 C 0.90116 0.64036 0.1118 0.0
C390 C 0.95245 0.62919 0.16373 0.0
C391 C 0.93419 0.64348 0.09173 0.0
C392 C 0.0019 0.60867 0.1663 0.0
C393 C 0.97169 0.57361 0.25035 0.0
N394 N 0.95826 0.6368 0.1177 0.0
N395 N 0.95881 0.59489 0.22926 0.0
H396 H 0.34804 0.21482 0.17574 0.0
H397 H 0.39975 0.43174 0.16698 0.0
H398 H 0.33628 0.26832 0.0532 0.0
H399 H 0.42183 0.37671 0.28102 0.0
H400 H 0.36112 0.3689 0.13051 0.0
H401 H 0.35593 0.26909 0.22129 0.0
C402 C 0.34573 0.23753 0.15885 0.0
C403 C 0.34181 0.2376 0.11099 0.0
C404 C 0.37414 0.37069 0.16375 0.0
C405 C 0.35298 0.30054 0.16194 0.0
C406 C 0.39636 0.40649 0.18438 0.0
C407 C 0.41487 0.40952 0.22644 0.0
C408 C 0.37025 0.33789 0.18567 0.0
C409 C 0.40902 0.37589 0.24793 0.0
C410 C 0.35065 0.26869 0.18463 0.0
C411 C 0.33923 0.26754 0.09026 0.0
N412 N 0.38747 0.3416 0.22715 0.0
N413 N 0.34593 0.29853 0.11577 0.0
H414 H 0.63255 0.70817 0.62185 0.0
H415 H 0.60781 0.60067 0.38524 0.0
H416 H 0.70097 0.76283 0.50099 0.0
H417 H 0.53694 0.55149 0.5055 0.0
H418 H 0.65402 0.6546 0.43252 0.0
H419 H 0.60861 0.64626 0.58514 0.0
C420 C 0.64242 0.70712 0.58739 0.0
C421 C 0.66787 0.74071 0.5638 0.0
C422 C 0.62898 0.6314 0.44885 0.0
C423 C 0.64056 0.66974 0.52145 0.0
C424 C 0.60292 0.60052 0.42203 0.0
C425 C 0.56866 0.57219 0.4418 0.0
C426 C 0.62025 0.63352 0.49535 0.0
C427 C 0.56306 0.57318 0.48922 0.0
C428 C 0.62904 0.67169 0.5666 0.0
C429 C 0.68077 0.73757 0.51994 0.0
N430 N 0.58831 0.60375 0.51431 0.0
N431 N 0.66639 0.70264 0.49973 0.0
H432 H 0.43631 0.96936 0.50544 0.0
H433 H 0.21944 0.91874 0.50163 0.0
H434 H 0.38107 0.98054 0.38421 0.0
H435 H 0.27583 0.89742 0.61478 0.0
H436 H 0.28184 0.95681 0.46381 0.0
H437 H 0.38279 0.96205 0.5523 0.0
C438 C 0.41339 0.97166 0.48909 0.0
C439 C 0.41261 0.97528 0.44124 0.0
C440 C 0.28046 0.9441 0.49715 0.0
C441 C 0.35052 0.96481 0.49373 0.0
C442 C 0.24491 0.9222 0.51858 0.0
C443 C 0.24236 0.90405 0.56079 0.0
C444 C 0.31352 0.948 0.51839 0.0
C445 C 0.27626 0.90997 0.58163 0.0
C446 C 0.38266 0.96708 0.51563 0.0
C447 C 0.38241 0.97783 0.42123 0.0
N448 N 0.31033 0.93117 0.56005 0.0
N449 N 0.35185 0.97151 0.44751 0.0
H450 H 0.08351 0.35162 0.62281 0.0
H451 H -0.00041 0.37673 0.38753 0.0
H452 H 0.07204 0.2857 0.50044 0.0
H453 H 0.02048 0.44628 0.50868 0.0
H454 H 0.00822 0.33073 0.43389 0.0
H455 H 0.04459 0.37471 0.58691 0.0
C456 C 0.07295 0.34218 0.58815 0.0
C457 C 0.082 0.31768 0.56393 0.0
C458 C 0.00966 0.3554 0.45064 0.0
C459 C 0.03718 0.34397 0.52256 0.0
C460 C 0.0043 0.38132 0.42435 0.0
C461 C 0.00976 0.41518 0.44462 0.0
C462 C 0.02057 0.36388 0.49711 0.0
C463 C 0.01637 0.42045 0.49204 0.0
C464 C 0.05034 0.35505 0.56784 0.0
C465 C 0.06633 0.30522 0.51986 0.0
N466 N 0.02222 0.39535 0.51661 0.0
N467 N 0.04518 0.3191 0.50015 0.0
H468 H 0.27824 0.35409 0.62051 0.0
H469 H 0.38437 0.37828 0.38321 0.0
H470 H 0.22312 0.28387 0.5012 0.0
H471 H 0.43591 0.44673 0.50438 0.0
H472 H 0.33028 0.33225 0.43052 0.0
H473 H 0.34001 0.37796 0.58324 0.0
C474 C 0.27916 0.34382 0.58626 0.0
C475 C 0.24546 0.31781 0.56331 0.0
C476 C 0.35402 0.35666 0.44704 0.0
C477 C 0.31631 0.34502 0.5203 0.0
C478 C 0.38501 0.38259 0.42017 0.0
C479 C 0.41411 0.41616 0.44026 0.0
C480 C 0.3525 0.36489 0.49388 0.0
C481 C 0.41368 0.42111 0.4879 0.0
C482 C 0.31453 0.35716 0.56515 0.0
C483 C 0.24845 0.30447 0.51968 0.0
N484 N 0.38296 0.39606 0.51304 0.0
N485 N 0.28331 0.31878 0.49914 0.0
H486 H 0.60563 0.98309 0.38338 0.0
H487 H 0.63114 0.90077 0.61964 0.0
H488 H 0.53739 0.96492 0.50528 0.0
H489 H 0.69851 0.91321 0.49818 0.0
H490 H 0.6075 0.93892 0.58303 0.0
H491 H 0.65162 0.97437 0.42968 0.0
C492 C 0.60135 0.97898 0.42031 0.0
C493 C 0.56785 0.97435 0.44086 0.0
C494 C 0.62759 0.93356 0.56429 0.0
C495 C 0.6191 0.96335 0.49331 0.0
C496 C 0.64078 0.91137 0.58503 0.0
C497 C 0.66592 0.90287 0.56131 0.0
C498 C 0.63898 0.94684 0.51908 0.0
C499 C 0.67854 0.91854 0.51724 0.0
C500 C 0.62725 0.97355 0.44658 0.0
C501 C 0.56295 0.96844 0.48843 0.0
N502 N 0.66437 0.93928 0.49711 0.0
N503 N 0.588 0.96248 0.51299 0.0
H504 H 0.01612 0.54728 0.50759 0.0
H505 H 0.06439 0.76334 0.50287 0.0
H506 H 0.00356 0.60155 0.38629 0.0
H507 H 0.08817 0.70833 0.61547 0.0
H508 H 0.02677 0.70077 0.46554 0.0
H509 H 0.02364 0.60095 0.55414 0.0
C510 C 0.01357 0.57002 0.49118 0.0
C511 C 0.00946 0.57047 0.44338 0.0
C512 C 0.03993 0.70248 0.49865 0.0
C513 C 0.02014 0.63272 0.4955 0.0
C514 C 0.06157 0.73813 0.5198 0.0
C515 C 0.08026 0.74113 0.56172 0.0
C516 C 0.03682 0.66976 0.51987 0.0
C517 C 0.07516 0.70755 0.58255 0.0
C518 C 0.01827 0.60083 0.51754 0.0
C519 C 0.00662 0.60046 0.42328 0.0
N520 N 0.05418 0.67338 0.56124 0.0
N521 N 0.01302 0.63109 0.44936 0.0
H522 H 0.49742 0.15341 0.06721 0.0
H523 H 0.66703 0.16309 0.91621 0.0
H524 H 0.50457 0.16582 0.91892 0.0
H525 H 0.6622 0.15655 0.06504 0.0
H526 H 0.60194 0.15248 0.91541 0.0
H527 H 0.55177 0.14281 0.06565 0.0
C528 C 0.51015 0.15356 0.03424 0.0
C529 C 0.49686 0.16132 -0.00679 0.0
C530 C 0.615 0.15296 0.9482 0.0
C531 C 0.55927 0.14934 -0.00873 0.0
C532 C 0.65219 0.15902 0.94871 0.0
C533 C 0.67046 0.16151 -0.00918 0.0
C534 C 0.59598 0.14946 -0.00993 0.0
C535 C 0.64957 0.15551 0.03177 0.0
C536 C 0.5412 0.14746 0.03339 0.0
C537 C 0.51416 0.1605 0.95149 0.0
N538 N 0.61362 0.15023 0.03038 0.0
N539 N 0.54482 0.15517 0.95166 0.0
H540 H 0.82477 0.48369 0.9195 0.0
H541 H 0.82579 0.31915 0.06982 0.0
H542 H 0.81973 0.47925 0.06842 0.0
H543 H 0.82166 0.3185 0.92087 0.0
H544 H 0.83573 0.38385 0.06966 0.0
H545 H 0.83558 0.42943 0.91943 0.0
C546 C 0.82629 0.47159 0.95223 0.0
C547 C 0.82056 0.48562 -0.00598 0.0
C548 C 0.83304 0.36969 0.03699 0.0
C549 C 0.83288 0.42346 -0.00593 0.0
C550 C 0.82733 0.3327 0.03703 0.0
C551 C 0.82207 0.313 -0.0047 0.0
C552 C 0.83331 0.38708 -0.00502 0.0
C553 C 0.82499 0.33233 0.95391 0.0
C554 C 0.83248 0.4406 0.95212 0.0
C555 C 0.82335 0.46905 0.03532 0.0
N556 N 0.82993 0.36814 0.95483 0.0
N557 N 0.82888 0.43856 0.03426 0.0
H558 H 0.65807 0.50005 0.06096 0.0
H559 H 0.49938 0.31983 0.07035 0.0
H560 H 0.67098 0.46888 0.9224 0.0
H561 H 0.50501 0.31885 0.9216 0.0
H562 H 0.55334 0.3844 0.07077 0.0
H563 H 0.59288 0.44626 0.06263 0.0
C564 C 0.64715 0.48176 0.03088 0.0
C565 C 0.67032 0.48839 -0.00809 0.0
C566 C 0.54235 0.37081 0.03781 0.0
C567 C 0.59606 0.42555 -0.0058 0.0
C568 C 0.51156 0.33348 0.03762 0.0
C569 C 0.49788 0.31358 -0.00409 0.0
C570 C 0.55966 0.38858 -0.00411 0.0
C571 C 0.51477 0.33292 0.95464 0.0
C572 C 0.60993 0.4507 0.032 0.0
C573 C 0.65431 0.46452 0.95343 0.0
N574 N 0.54511 0.36916 0.95574 0.0
N575 N 0.61834 0.43381 0.95582 0.0
H576 H 0.33404 0.4961 0.24697 0.0
H577 H 0.16448 0.48606 0.39832 0.0
H578 H 0.32976 0.49046 0.39586 0.0
H579 H 0.17093 0.49757 0.24992 0.0
H580 H 0.21898 0.47571 0.39669 0.0
H581 H 0.2687 0.48484 0.24631 0.0
C582 C 0.31927 0.49208 0.27952 0.0
C583 C 0.33776 0.49504 0.3216 0.0
C584 C 0.20824 0.4801 0.36443 0.0
C585 C 0.26301 0.48224 0.321 0.0
C586 C 0.17711 0.48608 0.36531 0.0
C587 C 0.16359 0.49352 0.32426 0.0
C588 C 0.22617 0.48183 0.32225 0.0
C589 C 0.18071 0.49249 0.2825 0.0
C590 C 0.28194 0.48565 0.27908 0.0
C591 C 0.31696 0.4891 0.36261 0.0
N592 N 0.21148 0.48732 0.28263 0.0
N593 N 0.28087 0.48344 0.36128 0.0
H594 H 0.48866 0.81625 0.24761 0.0
H595 H 0.49628 0.65514 0.39757 0.0
H596 H 0.49123 0.81555 0.39661 0.0
H597 H 0.48597 0.6513 0.24907 0.0
H598 H 0.5067 0.71999 0.3967 0.0
H599 H 0.4998 0.7622 0.24669 0.0
C600 C 0.49196 0.80504 0.28015 0.0
C601 C 0.48819 0.81999 0.3223 0.0
C602 C 0.50255 0.70511 0.36426 0.0
C603 C 0.50086 0.75807 0.32138 0.0
C604 C 0.49654 0.66801 0.3647 0.0
C605 C 0.48941 0.64739 0.32339 0.0
C606 C 0.5012 0.72165 0.32225 0.0
C607 C 0.49079 0.66587 0.28183 0.0
C608 C 0.49833 0.77416 0.27955 0.0
C609 C 0.49325 0.80457 0.36329 0.0
N610 N 0.49601 0.7018 0.28239 0.0
N611 N 0.49886 0.77415 0.36179 0.0
H612 H 0.32788 0.81944 0.3971 0.0
H613 H 0.16832 0.6484 0.24763 0.0
H614 H 0.33316 0.81174 0.24888 0.0
H615 H 0.1672 0.65372 0.39646 0.0
H616 H 0.22253 0.71369 0.24622 0.0
H617 H 0.26309 0.76466 0.39599 0.0
C618 C 0.31533 0.80649 0.36423 0.0
C619 C 0.33635 0.81977 0.3231 0.0
C620 C 0.21013 0.70068 0.27914 0.0
C621 C 0.26214 0.75684 0.32168 0.0
C622 C 0.17915 0.66338 0.28 0.0
C623 C 0.16363 0.64521 0.32229 0.0
C624 C 0.22572 0.7199 0.32083 0.0
C625 C 0.17862 0.66627 0.36306 0.0
C626 C 0.27826 0.77519 0.36364 0.0
C627 C 0.31827 0.80219 0.28152 0.0
N628 N 0.20911 0.70233 0.36132 0.0
N629 N 0.28237 0.77127 0.28195 0.0
H630 H -0.00051 0.82845 0.58164 0.0
H631 H 0.83234 0.82472 0.73192 0.0
H632 H -0.0041 0.82537 0.73062 0.0
H633 H 0.838 0.8332 0.58324 0.0
H634 H 0.88629 0.81348 0.7311 0.0
H635 H 0.9347 0.81866 0.58084 0.0
C636 C 0.98498 0.82528 0.61419 0.0
C637 C 0.00353 0.82854 0.65631 0.0
C638 C 0.8755 0.81742 0.69861 0.0
C639 C 0.92942 0.81747 0.65554 0.0
C640 C 0.8447 0.82392 0.69903 0.0
C641 C 0.83107 0.83069 0.65763 0.0
C642 C 0.89301 0.81794 0.65654 0.0
C643 C 0.84785 0.82864 0.61606 0.0
C644 C 0.94796 0.8197 0.61367 0.0
C645 C 0.98305 0.82372 0.69733 0.0
N646 N 0.87829 0.82294 0.61663 0.0
N647 N 0.94728 0.8189 0.69591 0.0
H648 H 0.15424 0.98346 0.58053 0.0
H649 H 0.16597 0.15411 0.7307 0.0
H650 H 0.16019 0.98837 0.72938 0.0
H651 H 0.15227 0.14621 0.5826 0.0
H652 H 0.17616 0.09957 0.72923 0.0
H653 H 0.16559 0.04876 0.57936 0.0
C654 C 0.15834 -0.00165 0.61296 0.0
C655 C 0.15546 0.98007 0.65519 0.0
C656 C 0.17132 0.11 0.69699 0.0
C657 C 0.16838 0.05477 0.654 0.0
C658 C 0.16544 0.14116 0.69778 0.0
C659 C 0.15742 0.15429 0.65679 0.0
C660 C 0.16893 0.09165 0.65498 0.0
C661 C 0.15781 0.13675 0.61513 0.0
C662 C 0.16482 0.03567 0.61223 0.0
C663 C 0.16149 0.00102 0.69603 0.0
N664 N 0.16291 0.10596 0.61537 0.0
N665 N 0.16722 0.03709 0.69442 0.0
H666 H 0.83517 0.9831 0.57641 0.0
H667 H -0.00091 0.16123 0.58102 0.0
H668 H 0.83455 0.99199 0.72485 0.0
H669 H 0.00013 0.13897 0.72656 0.0
H670 H 0.93367 0.10814 0.57642 0.0
H671 H 0.8903 0.04704 0.573 0.0
C672 C 0.84617 -0.00117 0.6083 0.0
C673 C 0.83052 0.98181 0.65103 0.0
C674 C 0.94815 0.11442 0.60931 0.0
C675 C 0.89369 0.0559 0.6475 0.0
C676 C 0.98557 0.14509 0.61203 0.0
C677 C 0.00551 0.15404 0.65402 0.0
C678 C 0.93078 0.09216 0.64878 0.0
C679 C 0.98616 0.13279 0.69327 0.0
C680 C 0.87772 0.03574 0.60634 0.0
C681 C 0.84596 0.00369 0.69113 0.0
N682 N 0.95006 0.10259 0.68954 0.0
N683 N 0.87698 0.03937 0.68838 0.0
loop_
_geom_bond_atom_site_label_1
_geom_bond_atom_site_label_2
_geom_bond_distance
_geom_bond_site_symmetry_2
_ccdc_geom_bond_type
Sc0 O3 2.025 . S
Sc0 O10 2.105 . S
Sc0 O13 2.105 1_554 S
Sc0 O16 2.105 . S
Sc0 O19 2.105 1_554 S
Sc1 O3 2.025 1_556 S
Sc1 O11 2.105 . S
Sc1 O15 2.105 . S
Sc1 O17 2.105 . S
Sc1 O21 2.105 . S
Sc2 O3 2.025 . S
Sc2 O12 2.105 . S
Sc2 O14 2.105 . S
Sc2 O18 2.105 . S
Sc2 O20 2.105 . S
O3 Sc0 2.025 . S
O3 Sc1 2.025 1_554 S
O3 Sc2 2.025 . S
C4 O10 1.268 . S
C4 O20 1.268 . S
C5 O11 1.268 . S
C5 O19 1.268 . S
C6 O12 1.268 1_556 S
C6 O21 1.268 . S
C7 O13 1.268 . S
C7 O17 1.268 . S
C8 O14 1.268 . S
C8 O16 1.268 . S
C9 O15 1.268 . S
C9 O18 1.268 1_556 S
O10 Sc0 2.105 . S
O10 C4 1.268 . S
O11 Sc1 2.105 . S
O11 C5 1.268 . S
O12 Sc2 2.105 . S
O12 C6 1.268 1_554 S
O13 Sc0 2.105 1_556 S
O13 C7 1.268 . S
O14 Sc2 2.105 . S
O14 C8 1.268 . S
O15 Sc1 2.105 . S
O15 C9 1.268 . S
O16 Sc0 2.105 . S
O16 C8 1.268 . S
O17 Sc1 2.105 . S
O17 C7 1.268 . S
O18 Sc2 2.105 . S
O18 C9 1.268 1_554 S
O19 Sc0 2.105 1_556 S
O19 C5 1.268 . S
O20 Sc2 2.105 . S
O20 C4 1.268 . S
O21 Sc1 2.105 . S
O21 C6 1.268 . S
Sc22 O25 2.025 . S
Sc22 O32 2.105 . S
Sc22 O35 2.105 1_554 S
Sc22 O38 2.105 . S
Sc22 O41 2.105 1_554 S
Sc23 O25 2.025 1_556 S
Sc23 O33 2.105 . S
Sc23 O37 2.105 . S
Sc23 O39 2.105 . S
Sc23 O43 2.105 . S
Sc24 O25 2.025 . S
Sc24 O34 2.105 . S
Sc24 O36 2.105 . S
Sc24 O40 2.105 . S
Sc24 O42 2.105 . S
O25 Sc22 2.025 . S
O25 Sc23 2.025 1_554 S
O25 Sc24 2.025 . S
C26 O32 1.268 . S
C26 O42 1.268 . S
C27 O33 1.268 . S
C27 O41 1.268 . S
C28 O34 1.268 1_556 S
C28 O43 1.268 . S
C29 O35 1.268 . S
C29 O39 1.268 . S
C30 O36 1.268 . S
C30 O38 1.268 . S
C31 O37 1.268 . S
C31 O40 1.268 1_556 S
O32 Sc22 2.105 . S
O32 C26 1.268 . S
O33 Sc23 2.105 . S
O33 C27 1.268 . S
O34 Sc24 2.105 . S
O34 C28 1.268 1_554 S
O35 Sc22 2.105 1_556 S
O35 C29 1.268 . S
O36 Sc24 2.105 . S
O36 C30 1.268 . S
O37 Sc23 2.105 . S
O37 C31 1.268 . S
O38 Sc22 2.105 . S
O38 C30 1.268 . S
O39 Sc23 2.105 . S
O39 C29 1.268 . S
O40 Sc24 2.105 . S
O40 C31 1.268 1_554 S
O41 Sc22 2.105 1_556 S
O41 C27 1.268 . S
O42 Sc24 2.105 . S
O42 C26 1.268 . S
O43 Sc23 2.105 . S
O43 C28 1.268 . S
Sc44 O47 2.025 . S
Sc44 O54 2.105 . S
Sc44 O57 2.105 1_554 S
Sc44 O60 2.105 . S
Sc44 O63 2.105 1_554 S
Sc45 O47 2.025 1_556 S
Sc45 O55 2.105 . S
Sc45 O59 2.105 . S
Sc45 O61 2.105 . S
Sc45 O65 2.105 . S
Sc46 O47 2.025 . S
Sc46 O56 2.105 . S
Sc46 O58 2.105 . S
Sc46 O62 2.105 . S
Sc46 O64 2.105 . S
O47 Sc44 2.025 . S
O47 Sc45 2.025 1_554 S
O47 Sc46 2.025 . S
C48 O54 1.268 . S
C48 O64 1.268 . S
C49 O55 1.268 . S
C49 O63 1.268 . S
C50 O56 1.268 1_556 S
C50 O65 1.268 . S
C51 O57 1.268 . S
C51 O61 1.268 . S
C52 O58 1.268 . S
C52 O60 1.268 . S
C53 O59 1.268 . S
C53 O62 1.268 1_556 S
O54 Sc44 2.105 . S
O54 C48 1.268 . S
O55 Sc45 2.105 . S
O55 C49 1.268 . S
O56 Sc46 2.105 . S
O56 C50 1.268 1_554 S
O57 Sc44 2.105 1_556 S
O57 C51 1.268 . S
O58 Sc46 2.105 . S
O58 C52 1.268 . S
O59 Sc45 2.105 . S
O59 C53 1.268 . S
O60 Sc44 2.105 . S
O60 C52 1.268 . S
O61 Sc45 2.105 . S
O61 C51 1.268 . S
O62 Sc46 2.105 . S
O62 C53 1.268 1_554 S
O63 Sc44 2.105 1_556 S
O63 C49 1.268 . S
O64 Sc46 2.105 . S
O64 C48 1.268 . S
O65 Sc45 2.105 . S
O65 C50 1.268 . S
Sc66 O69 2.025 . S
Sc66 O76 2.105 . S
Sc66 O79 2.105 . S
Sc66 O82 2.105 . S
Sc66 O85 2.105 . S
Sc67 O69 2.025 . S
Sc67 O77 2.105 . S
Sc67 O81 2.105 . S
Sc67 O83 2.105 . S
Sc67 O87 2.105 . S
Sc68 O69 2.025 . S
Sc68 O78 2.105 . S
Sc68 O80 2.105 . S
Sc68 O84 2.105 . S
Sc68 O86 2.105 . S
O69 Sc66 2.025 . S
O69 Sc67 2.025 . S
O69 Sc68 2.025 . S
C70 O76 1.268 . S
C70 O86 1.268 . S
C71 O77 1.268 . S
C71 O85 1.268 . S
C72 O78 1.268 . S
C72 O87 1.268 . S
C73 O79 1.268 . S
C73 O83 1.268 . S
C74 O80 1.268 . S
C74 O82 1.268 . S
C75 O81 1.268 . S
C75 O84 1.268 . S
O76 Sc66 2.105 . S
O76 C70 1.268 . S
O77 Sc67 2.105 . S
O77 C71 1.268 . S
O78 Sc68 2.105 . S
O78 C72 1.268 . S
O79 Sc66 2.105 . S
O79 C73 1.268 . S
O80 Sc68 2.105 . S
O80 C74 1.268 . S
O81 Sc67 2.105 . S
O81 C75 1.268 . S
O82 Sc66 2.105 . S
O82 C74 1.268 . S
O83 Sc67 2.105 . S
O83 C73 1.268 . S
O84 Sc68 2.105 . S
O84 C75 1.268 . S
O85 Sc66 2.105 . S
O85 C71 1.268 . S
O86 Sc68 2.105 . S
O86 C70 1.268 . S
O87 Sc67 2.105 . S
O87 C72 1.268 . S
Sc88 O91 2.025 . S
Sc88 O98 2.105 . S
Sc88 O101 2.105 . S
Sc88 O104 2.105 . S
Sc88 O107 2.105 . S
Sc89 O91 2.025 . S
Sc89 O99 2.105 . S
Sc89 O103 2.105 . S
Sc89 O105 2.105 . S
Sc89 O109 2.105 . S
Sc90 O91 2.025 . S
Sc90 O100 2.105 . S
Sc90 O102 2.105 . S
Sc90 O106 2.105 . S
Sc90 O108 2.105 . S
O91 Sc88 2.025 . S
O91 Sc89 2.025 . S
O91 Sc90 2.025 . S
C92 O98 1.268 . S
C92 O108 1.268 . S
C93 O99 1.268 . S
C93 O107 1.268 . S
C94 O100 1.268 . S
C94 O109 1.268 . S
C95 O101 1.268 . S
C95 O105 1.268 . S
C96 O102 1.268 . S
C96 O104 1.268 . S
C97 O103 1.268 . S
C97 O106 1.268 . S
O98 Sc88 2.105 . S
O98 C92 1.268 . S
O99 Sc89 2.105 . S
O99 C93 1.268 . S
O100 Sc90 2.105 . S
O100 C94 1.268 . S
O101 Sc88 2.105 . S
O101 C95 1.268 . S
O102 Sc90 2.105 . S
O102 C96 1.268 . S
O103 Sc89 2.105 . S
O103 C97 1.268 . S
O104 Sc88 2.105 . S
O104 C96 1.268 . S
O105 Sc89 2.105 . S
O105 C95 1.268 . S
O106 Sc90 2.105 . S
O106 C97 1.268 . S
O107 Sc88 2.105 . S
O107 C93 1.268 . S
O108 Sc90 2.105 . S
O108 C92 1.268 . S
O109 Sc89 2.105 . S
O109 C94 1.268 . S
Sc110 O113 2.025 . S
Sc110 O120 2.105 . S
Sc110 O123 2.105 . S
Sc110 O126 2.105 . S
Sc110 O129 2.105 . S
Sc111 O113 2.025 . S
Sc111 O121 2.105 . S
Sc111 O125 2.105 . S
Sc111 O127 2.105 . S
Sc111 O131 2.105 . S
Sc112 O113 2.025 . S
Sc112 O122 2.105 . S
Sc112 O124 2.105 . S
Sc112 O128 2.105 . S
Sc112 O130 2.105 . S
O113 Sc110 2.025 . S
O113 Sc111 2.025 . S
O113 Sc112 2.025 . S
C114 O120 1.268 . S
C114 O130 1.268 . S
C115 O121 1.268 . S
C115 O129 1.268 . S
C116 O122 1.268 . S
C116 O131 1.268 . S
C117 O123 1.268 . S
C117 O127 1.268 . S
C118 O124 1.268 . S
C118 O126 1.268 . S
C119 O125 1.268 . S
C119 O128 1.268 . S
O120 Sc110 2.105 . S
O120 C114 1.268 . S
O121 Sc111 2.105 . S
O121 C115 1.268 . S
O122 Sc112 2.105 . S
O122 C116 1.268 . S
O123 Sc110 2.105 . S
O123 C117 1.268 . S
O124 Sc112 2.105 . S
O124 C118 1.268 . S
O125 Sc111 2.105 . S
O125 C119 1.268 . S
O126 Sc110 2.105 . S
O126 C118 1.268 . S
O127 Sc111 2.105 . S
O127 C117 1.268 . S
O128 Sc112 2.105 . S
O128 C119 1.268 . S
O129 Sc110 2.105 . S
O129 C115 1.268 . S
O130 Sc112 2.105 . S
O130 C114 1.268 . S
O131 Sc111 2.105 . S
O131 C116 1.268 . S
Sc132 O135 2.025 . S
Sc132 O142 2.105 . S
Sc132 O145 2.105 . S
Sc132 O148 2.105 . S
Sc132 O151 2.105 . S
Sc133 O135 2.025 . S
Sc133 O143 2.105 . S
Sc133 O147 2.105 . S
Sc133 O149 2.105 . S
Sc133 O153 2.105 . S
Sc134 O135 2.025 . S
Sc134 O144 2.105 . S
Sc134 O146 2.105 . S
Sc134 O150 2.105 . S
Sc134 O152 2.105 . S
O135 Sc132 2.025 . S
O135 Sc133 2.025 . S
O135 Sc134 2.025 . S
C136 O142 1.268 . S
C136 O152 1.268 . S
C137 O143 1.268 . S
C137 O151 1.268 . S
C138 O144 1.268 . S
C138 O153 1.268 . S
C139 O145 1.268 . S
C139 O149 1.268 . S
C140 O146 1.268 . S
C140 O148 1.268 . S
C141 O147 1.268 . S
C141 O150 1.268 . S
O142 Sc132 2.105 . S
O142 C136 1.268 . S
O143 Sc133 2.105 . S
O143 C137 1.268 . S
O144 Sc134 2.105 . S
O144 C138 1.268 . S
O145 Sc132 2.105 . S
O145 C139 1.268 . S
O146 Sc134 2.105 . S
O146 C140 1.268 . S
O147 Sc133 2.105 . S
O147 C141 1.268 . S
O148 Sc132 2.105 . S
O148 C140 1.268 . S
O149 Sc133 2.105 . S
O149 C139 1.268 . S
O150 Sc134 2.105 . S
O150 C141 1.268 . S
O151 Sc132 2.105 . S
O151 C137 1.268 . S
O152 Sc134 2.105 . S
O152 C136 1.268 . S
O153 Sc133 2.105 . S
O153 C138 1.268 . S
Sc154 O157 2.025 . S
Sc154 O164 2.105 . S
Sc154 O167 2.105 . S
Sc154 O170 2.105 . S
Sc154 O173 2.105 . S
Sc155 O157 2.025 . S
Sc155 O165 2.105 . S
Sc155 O169 2.105 . S
Sc155 O171 2.105 . S
Sc155 O175 2.105 . S
Sc156 O157 2.025 . S
Sc156 O166 2.105 . S
Sc156 O168 2.105 . S
Sc156 O172 2.105 . S
Sc156 O174 2.105 . S
O157 Sc154 2.025 . S
O157 Sc155 2.025 . S
O157 Sc156 2.025 . S
C158 O164 1.268 . S
C158 O174 1.268 . S
C159 O165 1.268 . S
C159 O173 1.268 . S
C160 O166 1.268 . S
C160 O175 1.268 . S
C161 O167 1.268 . S
C161 O171 1.268 . S
C162 O168 1.268 . S
C162 O170 1.268 . S
C163 O169 1.268 . S
C163 O172 1.268 . S
O164 Sc154 2.105 . S
O164 C158 1.268 . S
O165 Sc155 2.105 . S
O165 C159 1.268 . S
O166 Sc156 2.105 . S
O166 C160 1.268 . S
O167 Sc154 2.105 . S
O167 C161 1.268 . S
O168 Sc156 2.105 . S
O168 C162 1.268 . S
O169 Sc155 2.105 . S
O169 C163 1.268 . S
O170 Sc154 2.105 . S
O170 C162 1.268 . S
O171 Sc155 2.105 . S
O171 C161 1.268 . S
O172 Sc156 2.105 . S
O172 C163 1.268 . S
O173 Sc154 2.105 . S
O173 C159 1.268 . S
O174 Sc156 2.105 . S
O174 C158 1.268 . S
O175 Sc155 2.105 . S
O175 C160 1.268 . S
Sc176 O179 2.025 . S
Sc176 O186 2.105 . S
Sc176 O189 2.105 . S
Sc176 O192 2.105 . S
Sc176 O195 2.105 . S
Sc177 O179 2.025 . S
Sc177 O187 2.105 . S
Sc177 O191 2.105 . S
Sc177 O193 2.105 . S
Sc177 O197 2.105 . S
Sc178 O179 2.025 . S
Sc178 O188 2.105 . S
Sc178 O190 2.105 . S
Sc178 O194 2.105 . S
Sc178 O196 2.105 . S
O179 Sc176 2.025 . S
O179 Sc177 2.025 . S
O179 Sc178 2.025 . S
C180 O186 1.268 . S
C180 O196 1.268 . S
C181 O187 1.268 . S
C181 O195 1.268 . S
C182 O188 1.268 . S
C182 O197 1.268 . S
C183 O189 1.268 . S
C183 O193 1.268 . S
C184 O190 1.268 . S
C184 O192 1.268 . S
C185 O191 1.268 . S
C185 O194 1.268 . S
O186 Sc176 2.105 . S
O186 C180 1.268 . S
O187 Sc177 2.105 . S
O187 C181 1.268 . S
O188 Sc178 2.105 . S
O188 C182 1.268 . S
O189 Sc176 2.105 . S
O189 C183 1.268 . S
O190 Sc178 2.105 . S
O190 C184 1.268 . S
O191 Sc177 2.105 . S
O191 C185 1.268 . S
O192 Sc176 2.105 . S
O192 C184 1.268 . S
O193 Sc177 2.105 . S
O193 C183 1.268 . S
O194 Sc178 2.105 . S
O194 C185 1.268 . S
O195 Sc176 2.105 . S
O195 C181 1.268 . S
O196 Sc178 2.105 . S
O196 C180 1.268 . S
O197 Sc177 2.105 . S
O197 C182 1.268 . S
H198 C204 0.930 . S
H199 C208 0.930 . S
H200 C213 0.929 . S
H201 C211 0.929 . S
H202 C206 0.929 . S
H203 C212 0.929 . S
C204 H198 0.930 . S
C204 C205 1.367 . S
C204 C212 1.378 . S
C205 C204 1.367 . S
C205 C213 1.433 . S
C206 H202 0.929 . S
C206 C208 1.378 . S
C206 C210 1.350 . S
C207 C210 1.463 1_545 S
C207 C212 1.350 . S
C207 N215 1.427 . S
C208 H199 0.930 . S
C208 C206 1.378 . S
C208 C209 1.367 . S
C209 C208 1.367 . S
C209 C211 1.433 . S
C210 C206 1.350 . S
C210 C207 1.463 1_565 S
C210 N214 1.427 . S
C211 H201 0.929 . S
C211 C209 1.433 . S
C211 N214 1.384 . S
C212 H203 0.929 . S
C212 C204 1.378 . S
C212 C207 1.350 . S
C213 H200 0.929 . S
C213 C205 1.433 . S
C213 N215 1.384 . S
N214 C210 1.427 . S
N214 C211 1.384 . S
N215 C207 1.427 . S
N215 C213 1.384 . S
H216 C222 0.930 . S
H217 C226 0.930 . S
H218 C231 0.929 . S
H219 C229 0.929 . S
H220 C224 0.929 . S
H221 C230 0.929 . S
C222 H216 0.930 . S
C222 C223 1.367 . S
C222 C230 1.378 . S
C223 C222 1.367 . S
C223 C231 1.433 . S
C224 H220 0.929 . S
C224 C226 1.378 . S
C224 C228 1.350 . S
C225 C228 1.463 1_655 S
C225 C230 1.350 . S
C225 N233 1.427 . S
C226 H217 0.930 . S
C226 C224 1.378 . S
C226 C227 1.367 . S
C227 C226 1.367 . S
C227 C229 1.433 . S
C228 C224 1.350 . S
C228 C225 1.463 1_455 S
C228 N232 1.427 . S
C229 H219 0.929 . S
C229 C227 1.433 . S
C229 N232 1.384 . S
C230 H221 0.929 . S
C230 C222 1.378 . S
C230 C225 1.350 . S
C231 H218 0.929 . S
C231 C223 1.433 . S
C231 N233 1.384 . S
N232 C228 1.427 . S
N232 C229 1.384 . S
N233 C225 1.427 . S
N233 C231 1.384 . S
H234 C240 0.930 . S
H235 C244 0.930 . S
H236 C249 0.929 . S
H237 C247 0.929 . S
H238 C242 0.929 . S
H239 C248 0.929 . S
C240 H234 0.930 . S
C240 C241 1.367 . S
C240 C248 1.378 . S
C241 C240 1.367 . S
C241 C249 1.433 . S
C242 H238 0.929 . S
C242 C244 1.378 . S
C242 C246 1.350 . S
C243 C246 1.463 . S
C243 C248 1.350 . S
C243 N251 1.427 . S
C244 H235 0.930 . S
C244 C242 1.378 . S
C244 C245 1.367 . S
C245 C244 1.367 . S
C245 C247 1.433 . S
C246 C242 1.350 . S
C246 C243 1.463 . S
C246 N250 1.427 . S
C247 H237 0.929 . S
C247 C245 1.433 . S
C247 N250 1.384 . S
C248 H239 0.929 . S
C248 C240 1.378 . S
C248 C243 1.350 . S
C249 H236 0.929 . S
C249 C241 1.433 . S
C249 N251 1.384 . S
N250 C246 1.427 . S
N250 C247 1.384 . S
N251 C243 1.427 . S
N251 C249 1.384 . S
H252 C258 0.930 . S
H253 C262 0.930 . S
H254 C267 0.929 . S
H255 C265 0.929 . S
H256 C260 0.929 . S
H257 C266 0.929 . S
C258 H252 0.930 . S
C258 C259 1.367 . S
C258 C266 1.378 . S
C259 C258 1.367 . S
C259 C267 1.433 . S
C260 H256 0.929 . S
C260 C262 1.378 . S
C260 C264 1.350 . S
C261 C264 1.463 1_455 S
C261 C266 1.350 . S
C261 N269 1.427 . S
C262 H253 0.930 . S
C262 C260 1.378 . S
C262 C263 1.367 . S
C263 C262 1.367 . S
C263 C265 1.433 . S
C264 C260 1.350 . S
C264 C261 1.463 1_655 S
C264 N268 1.427 . S
C265 H255 0.929 . S
C265 C263 1.433 . S
C265 N268 1.384 . S
C266 H257 0.929 . S
C266 C258 1.378 . S
C266 C261 1.350 . S
C267 H254 0.929 . S
C267 C259 1.433 . S
C267 N269 1.384 . S
N268 C264 1.427 . S
N268 C265 1.384 . S
N269 C261 1.427 . S
N269 C267 1.384 . S
H270 C276 0.930 . S
H271 C280 0.930 . S
H272 C285 0.929 . S
H273 C283 0.929 . S
H274 C278 0.929 . S
H275 C284 0.929 . S
C276 H270 0.930 . S
C276 C277 1.367 . S
C276 C284 1.378 . S
C277 C276 1.367 . S
C277 C285 1.433 . S
C278 H274 0.929 . S
C278 C280 1.378 . S
C278 C282 1.350 . S
C279 C282 1.463 . S
C279 C284 1.350 . S
C279 N287 1.427 . S
C280 H271 0.930 . S
C280 C278 1.378 . S
C280 C281 1.367 . S
C281 C280 1.367 . S
C281 C283 1.433 . S
C282 C278 1.350 . S
C282 C279 1.463 . S
C282 N286 1.427 . S
C283 H273 0.929 . S
C283 C281 1.433 . S
C283 N286 1.384 . S
C284 H275 0.929 . S
C284 C276 1.378 . S
C284 C279 1.350 . S
C285 H272 0.929 . S
C285 C277 1.433 . S
C285 N287 1.384 . S
N286 C282 1.427 . S
N286 C283 1.384 . S
N287 C279 1.427 . S
N287 C285 1.384 . S
H288 C294 0.930 . S
H289 C298 0.930 . S
H290 C303 0.929 . S
H291 C301 0.929 . S
H292 C296 0.929 . S
H293 C302 0.929 . S
C294 H288 0.930 . S
C294 C295 1.367 . S
C294 C302 1.378 . S
C295 C294 1.367 . S
C295 C303 1.433 . S
C296 H292 0.929 . S
C296 C298 1.378 . S
C296 C300 1.350 . S
C297 C300 1.463 1_565 S
C297 C302 1.350 . S
C297 N305 1.427 . S
C298 H289 0.930 . S
C298 C296 1.378 . S
C298 C299 1.367 . S
C299 C298 1.367 . S
C299 C301 1.433 . S
C300 C296 1.350 . S
C300 C297 1.463 1_545 S
C300 N304 1.427 . S
C301 H291 0.929 . S
C301 C299 1.433 . S
C301 N304 1.384 . S
C302 H293 0.929 . S
C302 C294 1.378 . S
C302 C297 1.350 . S
C303 H290 0.929 . S
C303 C295 1.433 . S
C303 N305 1.384 . S
N304 C300 1.427 . S
N304 C301 1.384 . S
N305 C297 1.427 . S
N305 C303 1.384 . S
H306 C312 0.930 . S
H307 C316 0.930 . S
H308 C321 0.929 . S
H309 C319 0.929 . S
H310 C314 0.929 . S
H311 C320 0.929 . S
C312 H306 0.930 . S
C312 C313 1.367 . S
C312 C320 1.378 . S
C313 C312 1.367 . S
C313 C321 1.433 . S
C314 H310 0.929 . S
C314 C316 1.378 1_655 S
C314 C318 1.350 . S
C315 C318 1.463 . S
C315 C320 1.350 . S
C315 N323 1.427 . S
C316 H307 0.930 . S
C316 C314 1.378 1_455 S
C316 C317 1.367 . S
C317 C316 1.367 . S
C317 C319 1.433 1_455 S
C318 C314 1.350 . S
C318 C315 1.463 . S
C318 N322 1.427 . S
C319 H309 0.929 . S
C319 C317 1.433 1_655 S
C319 N322 1.384 . S
C320 H311 0.929 . S
C320 C312 1.378 . S
C320 C315 1.350 . S
C321 H308 0.929 . S
C321 C313 1.433 . S
C321 N323 1.384 . S
N322 C318 1.427 . S
N322 C319 1.384 . S
N323 C315 1.427 . S
N323 C321 1.384 . S
H324 C330 0.930 . S
H325 C334 0.930 . S
H326 C339 0.929 . S
H327 C337 0.929 . S
H328 C332 0.929 . S
H329 C338 0.929 . S
C330 H324 0.930 . S
C330 C331 1.367 . S
C330 C338 1.378 . S
C331 C330 1.367 . S
C331 C339 1.433 . S
C332 H328 0.929 . S
C332 C334 1.378 . S
C332 C336 1.350 . S
C333 C336 1.463 . S
C333 C338 1.350 . S
C333 N341 1.427 . S
C334 H325 0.930 . S
C334 C332 1.378 . S
C334 C335 1.367 . S
C335 C334 1.367 . S
C335 C337 1.433 . S
C336 C332 1.350 . S
C336 C333 1.463 . S
C336 N340 1.427 . S
C337 H327 0.929 . S
C337 C335 1.433 . S
C337 N340 1.384 . S
C338 H329 0.929 . S
C338 C330 1.378 . S
C338 C333 1.350 . S
C339 H326 0.929 . S
C339 C331 1.433 . S
C339 N341 1.384 . S
N340 C336 1.427 . S
N340 C337 1.384 . S
N341 C333 1.427 . S
N341 C339 1.384 . S
H342 C348 0.930 . S
H343 C352 0.930 . S
H344 C357 0.929 . S
H345 C355 0.929 . S
H346 C350 0.929 . S
H347 C356 0.929 . S
C348 H342 0.930 . S
C348 C349 1.367 . S
C348 C356 1.378 . S
C349 C348 1.367 . S
C349 C357 1.433 . S
C350 H346 0.929 . S
C350 C352 1.378 . S
C350 C354 1.350 1_565 S
C351 C354 1.463 . S
C351 C356 1.350 . S
C351 N359 1.427 . S
C352 H343 0.930 . S
C352 C350 1.378 . S
C352 C353 1.367 . S
C353 C352 1.367 . S
C353 C355 1.433 1_565 S
C354 C350 1.350 1_545 S
C354 C351 1.463 . S
C354 N358 1.427 . S
C355 H345 0.929 . S
C355 C353 1.433 1_545 S
C355 N358 1.384 . S
C356 H347 0.929 . S
C356 C348 1.378 . S
C356 C351 1.350 . S
C357 H344 0.929 . S
C357 C349 1.433 . S
C357 N359 1.384 . S
N358 C354 1.427 . S
N358 C355 1.384 . S
N359 C351 1.427 . S
N359 C357 1.384 . S
H360 C366 0.930 . S
H361 C370 0.930 . S
H362 C375 0.929 . S
H363 C373 0.929 . S
H364 C368 0.929 . S
H365 C374 0.929 . S
C366 H360 0.930 . S
C366 C367 1.367 . S
C366 C374 1.378 . S
C367 C366 1.367 . S
C367 C375 1.433 . S
C368 H364 0.929 . S
C368 C370 1.378 . S
C368 C372 1.350 . S
C369 C372 1.463 . S
C369 C374 1.350 . S
C369 N377 1.427 . S
C370 H361 0.930 . S
C370 C368 1.378 . S
C370 C371 1.367 1_545 S
C371 C370 1.367 1_565 S
C371 C373 1.433 . S
C372 C368 1.350 . S
C372 C369 1.463 . S
C372 N376 1.427 . S
C373 H363 0.929 . S
C373 C371 1.433 . S
C373 N376 1.384 1_565 S
C374 H365 0.929 . S
C374 C366 1.378 . S
C374 C369 1.350 . S
C375 H362 0.929 . S
C375 C367 1.433 . S
C375 N377 1.384 . S
N376 C372 1.427 . S
N376 C373 1.384 1_545 S
N377 C369 1.427 . S
N377 C375 1.384 . S
H378 C384 0.930 . S
H379 C388 0.930 . S
H380 C393 0.929 . S
H381 C391 0.929 . S
H382 C386 0.929 . S
H383 C392 0.929 1_455 S
C384 H378 0.930 . S
C384 C385 1.367 . S
C384 C392 1.378 1_455 S
C385 C384 1.367 . S
C385 C393 1.433 1_455 S
C386 H382 0.929 . S
C386 C388 1.378 . S
C386 C390 1.350 . S
C387 C390 1.463 . S
C387 C392 1.350 . S
C387 N395 1.427 . S
C388 H379 0.930 . S
C388 C386 1.378 . S
C388 C389 1.367 . S
C389 C388 1.367 . S
C389 C391 1.433 . S
C390 C386 1.350 . S
C390 C387 1.463 . S
C390 N394 1.427 . S
C391 H381 0.929 . S
C391 C389 1.433 . S
C391 N394 1.384 . S
C392 H383 0.929 1_655 S
C392 C384 1.378 1_655 S
C392 C387 1.350 . S
C393 H380 0.929 . S
C393 C385 1.433 1_655 S
C393 N395 1.384 . S
N394 C390 1.427 . S
N394 C391 1.384 . S
N395 C387 1.427 . S
N395 C393 1.384 . S
H396 C402 0.930 . S
H397 C406 0.930 . S
H398 C411 0.929 . S
H399 C409 0.929 . S
H400 C404 0.929 . S
H401 C410 0.929 . S
C402 H396 0.930 . S
C402 C403 1.367 . S
C402 C410 1.378 . S
C403 C402 1.367 . S
C403 C411 1.433 . S
C404 H400 0.929 . S
C404 C406 1.378 . S
C404 C408 1.350 . S
C405 C408 1.463 . S
C405 C410 1.350 . S
C405 N413 1.427 . S
C406 H397 0.930 . S
C406 C404 1.378 . S
C406 C407 1.367 . S
C407 C406 1.367 . S
C407 C409 1.433 . S
C408 C404 1.350 . S
C408 C405 1.463 . S
C408 N412 1.427 . S
C409 H399 0.929 . S
C409 C407 1.433 . S
C409 N412 1.384 . S
C410 H401 0.929 . S
C410 C402 1.378 . S
C410 C405 1.350 . S
C411 H398 0.929 . S
C411 C403 1.433 . S
C411 N413 1.384 . S
N412 C408 1.427 . S
N412 C409 1.384 . S
N413 C405 1.427 . S
N413 C411 1.384 . S
H414 C420 0.930 . S
H415 C424 0.930 . S
H416 C429 0.929 . S
H417 C427 0.929 . S
H418 C422 0.929 . S
H419 C428 0.929 . S
C420 H414 0.930 . S
C420 C421 1.367 . S
C420 C428 1.378 . S
C421 C420 1.367 . S
C421 C429 1.433 . S
C422 H418 0.929 . S
C422 C424 1.378 . S
C422 C426 1.350 . S
C423 C426 1.463 . S
C423 C428 1.350 . S
C423 N431 1.427 . S
C424 H415 0.930 . S
C424 C422 1.378 . S
C424 C425 1.367 . S
C425 C424 1.367 . S
C425 C427 1.433 . S
C426 C422 1.350 . S
C426 C423 1.463 . S
C426 N430 1.427 . S
C427 H417 0.929 . S
C427 C425 1.433 . S
C427 N430 1.384 . S
C428 H419 0.929 . S
C428 C420 1.378 . S
C428 C423 1.350 . S
C429 H416 0.929 . S
C429 C421 1.433 . S
C429 N431 1.384 . S
N430 C426 1.427 . S
N430 C427 1.384 . S
N431 C423 1.427 . S
N431 C429 1.384 . S
H432 C438 0.930 . S
H433 C442 0.930 . S
H434 C447 0.929 . S
H435 C445 0.929 . S
H436 C440 0.929 . S
H437 C446 0.929 . S
C438 H432 0.930 . S
C438 C439 1.367 . S
C438 C446 1.378 . S
C439 C438 1.367 . S
C439 C447 1.433 . S
C440 H436 0.929 . S
C440 C442 1.378 . S
C440 C444 1.350 . S
C441 C444 1.463 . S
C441 C446 1.350 . S
C441 N449 1.427 . S
C442 H433 0.930 . S
C442 C440 1.378 . S
C442 C443 1.367 . S
C443 C442 1.367 . S
C443 C445 1.433 . S
C444 C440 1.350 . S
C444 C441 1.463 . S
C444 N448 1.427 . S
C445 H435 0.929 . S
C445 C443 1.433 . S
C445 N448 1.384 . S
C446 H437 0.929 . S
C446 C438 1.378 . S
C446 C441 1.350 . S
C447 H434 0.929 . S
C447 C439 1.433 . S
C447 N449 1.384 . S
N448 C444 1.427 . S
N448 C445 1.384 . S
N449 C441 1.427 . S
N449 C447 1.384 . S
H450 C456 0.930 . S
H451 C460 0.930 . S
H452 C465 0.929 . S
H453 C463 0.929 . S
H454 C458 0.929 . S
H455 C464 0.929 . S
C456 H450 0.930 . S
C456 C457 1.367 . S
C456 C464 1.378 . S
C457 C456 1.367 . S
C457 C465 1.433 . S
C458 H454 0.929 . S
C458 C460 1.378 . S
C458 C462 1.350 . S
C459 C462 1.463 . S
C459 C464 1.350 . S
C459 N467 1.427 . S
C460 H451 0.930 . S
C460 C458 1.378 . S
C460 C461 1.367 . S
C461 C460 1.367 . S
C461 C463 1.433 . S
C462 C458 1.350 . S
C462 C459 1.463 . S
C462 N466 1.427 . S
C463 H453 0.929 . S
C463 C461 1.433 . S
C463 N466 1.384 . S
C464 H455 0.929 . S
C464 C456 1.378 . S
C464 C459 1.350 . S
C465 H452 0.929 . S
C465 C457 1.433 . S
C465 N467 1.384 . S
N466 C462 1.427 . S
N466 C463 1.384 . S
N467 C459 1.427 . S
N467 C465 1.384 . S
H468 C474 0.930 . S
H469 C478 0.930 . S
H470 C483 0.929 . S
H471 C481 0.929 . S
H472 C476 0.929 . S
H473 C482 0.929 . S
C474 H468 0.930 . S
C474 C475 1.367 . S
C474 C482 1.378 . S
C475 C474 1.367 . S
C475 C483 1.433 . S
C476 H472 0.929 . S
C476 C478 1.378 . S
C476 C480 1.350 . S
C477 C480 1.463 . S
C477 C482 1.350 . S
C477 N485 1.427 . S
C478 H469 0.930 . S
C478 C476 1.378 . S
C478 C479 1.367 . S
C479 C478 1.367 . S
C479 C481 1.433 . S
C480 C476 1.350 . S
C480 C477 1.463 . S
C480 N484 1.427 . S
C481 H471 0.929 . S
C481 C479 1.433 . S
C481 N484 1.384 . S
C482 H473 0.929 . S
C482 C474 1.378 . S
C482 C477 1.350 . S
C483 H470 0.929 . S
C483 C475 1.433 . S
C483 N485 1.384 . S
N484 C480 1.427 . S
N484 C481 1.384 . S
N485 C477 1.427 . S
N485 C483 1.384 . S
H486 C492 0.930 . S
H487 C496 0.930 . S
H488 C501 0.929 . S
H489 C499 0.929 . S
H490 C494 0.929 . S
H491 C500 0.929 . S
C492 H486 0.930 . S
C492 C493 1.367 . S
C492 C500 1.378 . S
C493 C492 1.367 . S
C493 C501 1.433 . S
C494 H490 0.929 . S
C494 C496 1.378 . S
C494 C498 1.350 . S
C495 C498 1.463 . S
C495 C500 1.350 . S
C495 N503 1.427 . S
C496 H487 0.930 . S
C496 C494 1.378 . S
C496 C497 1.367 . S
C497 C496 1.367 . S
C497 C499 1.433 . S
C498 C494 1.350 . S
C498 C495 1.463 . S
C498 N502 1.427 . S
C499 H489 0.929 . S
C499 C497 1.433 . S
C499 N502 1.384 . S
C500 H491 0.929 . S
C500 C492 1.378 . S
C500 C495 1.350 . S
C501 H488 0.929 . S
C501 C493 1.433 . S
C501 N503 1.384 . S
N502 C498 1.427 . S
N502 C499 1.384 . S
N503 C495 1.427 . S
N503 C501 1.384 . S
H504 C510 0.930 . S
H505 C514 0.930 . S
H506 C519 0.929 . S
H507 C517 0.929 . S
H508 C512 0.929 . S
H509 C518 0.929 . S
C510 H504 0.930 . S
C510 C511 1.367 . S
C510 C518 1.378 . S
C511 C510 1.367 . S
C511 C519 1.433 . S
C512 H508 0.929 . S
C512 C514 1.378 . S
C512 C516 1.350 . S
C513 C516 1.463 . S
C513 C518 1.350 . S
C513 N521 1.427 . S
C514 H505 0.930 . S
C514 C512 1.378 . S
C514 C515 1.367 . S
C515 C514 1.367 . S
C515 C517 1.433 . S
C516 C512 1.350 . S
C516 C513 1.463 . S
C516 N520 1.427 . S
C517 H507 0.929 . S
C517 C515 1.433 . S
C517 N520 1.384 . S
C518 H509 0.929 . S
C518 C510 1.378 . S
C518 C513 1.350 . S
C519 H506 0.929 . S
C519 C511 1.433 . S
C519 N521 1.384 . S
N520 C516 1.427 . S
N520 C517 1.384 . S
N521 C513 1.427 . S
N521 C519 1.384 . S
H522 C528 0.930 . S
H523 C532 0.930 . S
H524 C537 0.929 . S
H525 C535 0.929 . S
H526 C530 0.929 . S
H527 C536 0.929 . S
C528 H522 0.930 . S
C528 C529 1.367 1_554 S
C528 C536 1.378 . S
C529 C528 1.367 1_556 S
C529 C537 1.433 . S
C530 H526 0.929 . S
C530 C532 1.378 . S
C530 C534 1.350 . S
C531 C534 1.463 . S
C531 C536 1.350 1_556 S
C531 N539 1.427 . S
C532 H523 0.930 . S
C532 C530 1.378 . S
C532 C533 1.367 . S
C533 C532 1.367 . S
C533 C535 1.433 1_556 S
C534 C530 1.350 . S
C534 C531 1.463 . S
C534 N538 1.427 1_556 S
C535 H525 0.929 . S
C535 C533 1.433 1_554 S
C535 N538 1.384 . S
C536 H527 0.929 . S
C536 C528 1.378 . S
C536 C531 1.350 1_554 S
C537 H524 0.929 . S
C537 C529 1.433 . S
C537 N539 1.384 . S
N538 C534 1.427 1_554 S
N538 C535 1.384 . S
N539 C531 1.427 . S
N539 C537 1.384 . S
H540 C546 0.930 . S
H541 C550 0.930 . S
H542 C555 0.929 . S
H543 C553 0.929 . S
H544 C548 0.929 . S
H545 C554 0.929 . S
C546 H540 0.930 . S
C546 C547 1.367 . S
C546 C554 1.378 . S
C547 C546 1.367 . S
C547 C555 1.433 1_556 S
C548 H544 0.929 . S
C548 C550 1.378 . S
C548 C552 1.350 1_554 S
C549 C552 1.463 . S
C549 C554 1.350 . S
C549 N557 1.427 1_556 S
C550 H541 0.930 . S
C550 C548 1.378 . S
C550 C551 1.367 1_554 S
C551 C550 1.367 1_556 S
C551 C553 1.433 . S
C552 C548 1.350 1_556 S
C552 C549 1.463 . S
C552 N556 1.427 . S
C553 H543 0.929 . S
C553 C551 1.433 . S
C553 N556 1.384 . S
C554 H545 0.929 . S
C554 C546 1.378 . S
C554 C549 1.350 . S
C555 H542 0.929 . S
C555 C547 1.433 1_554 S
C555 N557 1.384 . S
N556 C552 1.427 . S
N556 C553 1.384 . S
N557 C549 1.427 1_554 S
N557 C555 1.384 . S
H558 C564 0.930 . S
H559 C568 0.930 1_554 S
H560 C573 0.929 1_554 S
H561 C571 0.929 . S
H562 C566 0.929 1_554 S
H563 C572 0.929 . S
C564 H558 0.930 . S
C564 C565 1.367 . S
C564 C572 1.378 . S
C565 C564 1.367 . S
C565 C573 1.433 . S
C566 H562 0.929 1_556 S
C566 C568 1.378 . S
C566 C570 1.350 . S
C567 C570 1.463 . S
C567 C572 1.350 . S
C567 N575 1.427 . S
C568 H559 0.930 1_556 S
C568 C566 1.378 . S
C568 C569 1.367 . S
C569 C568 1.367 . S
C569 C571 1.433 . S
C570 C566 1.350 . S
C570 C567 1.463 . S
C570 N574 1.427 . S
C571 H561 0.929 . S
C571 C569 1.433 . S
C571 N574 1.384 . S
C572 H563 0.929 . S
C572 C564 1.378 . S
C572 C567 1.350 . S
C573 H560 0.929 1_556 S
C573 C565 1.433 . S
C573 N575 1.384 . S
N574 C570 1.427 . S
N574 C571 1.384 . S
N575 C567 1.427 . S
N575 C573 1.384 . S
H576 C582 0.930 . S
H577 C586 0.930 . S
H578 C591 0.929 . S
H579 C589 0.929 . S
H580 C584 0.929 . S
H581 C590 0.929 . S
C582 H576 0.930 . S
C582 C583 1.367 . S
C582 C590 1.378 . S
C583 C582 1.367 . S
C583 C591 1.433 . S
C584 H580 0.929 . S
C584 C586 1.378 . S
C584 C588 1.350 . S
C585 C588 1.463 . S
C585 C590 1.350 . S
C585 N593 1.427 . S
C586 H577 0.930 . S
C586 C584 1.378 . S
C586 C587 1.367 . S
C587 C586 1.367 . S
C587 C589 1.433 . S
C588 C584 1.350 . S
C588 C585 1.463 . S
C588 N592 1.427 . S
C589 H579 0.929 . S
C589 C587 1.433 . S
C589 N592 1.384 . S
C590 H581 0.929 . S
C590 C582 1.378 . S
C590 C585 1.350 . S
C591 H578 0.929 . S
C591 C583 1.433 . S
C591 N593 1.384 . S
N592 C588 1.427 . S
N592 C589 1.384 . S
N593 C585 1.427 . S
N593 C591 1.384 . S
H594 C600 0.930 . S
H595 C604 0.930 . S
H596 C609 0.929 . S
H597 C607 0.929 . S
H598 C602 0.929 . S
H599 C608 0.929 . S
C600 H594 0.930 . S
C600 C601 1.367 . S
C600 C608 1.378 . S
C601 C600 1.367 . S
C601 C609 1.433 . S
C602 H598 0.929 . S
C602 C604 1.378 . S
C602 C606 1.350 . S
C603 C606 1.463 . S
C603 C608 1.350 . S
C603 N611 1.427 . S
C604 H595 0.930 . S
C604 C602 1.378 . S
C604 C605 1.367 . S
C605 C604 1.367 . S
C605 C607 1.433 . S
C606 C602 1.350 . S
C606 C603 1.463 . S
C606 N610 1.427 . S
C607 H597 0.929 . S
C607 C605 1.433 . S
C607 N610 1.384 . S
C608 H599 0.929 . S
C608 C600 1.378 . S
C608 C603 1.350 . S
C609 H596 0.929 . S
C609 C601 1.433 . S
C609 N611 1.384 . S
N610 C606 1.427 . S
N610 C607 1.384 . S
N611 C603 1.427 . S
N611 C609 1.384 . S
H612 C618 0.930 . S
H613 C622 0.930 . S
H614 C627 0.929 . S
H615 C625 0.929 . S
H616 C620 0.929 . S
H617 C626 0.929 . S
C618 H612 0.930 . S
C618 C619 1.367 . S
C618 C626 1.378 . S
C619 C618 1.367 . S
C619 C627 1.433 . S
C620 H616 0.929 . S
C620 C622 1.378 . S
C620 C624 1.350 . S
C621 C624 1.463 . S
C621 C626 1.350 . S
C621 N629 1.427 . S
C622 H613 0.930 . S
C622 C620 1.378 . S
C622 C623 1.367 . S
C623 C622 1.367 . S
C623 C625 1.433 . S
C624 C620 1.350 . S
C624 C621 1.463 . S
C624 N628 1.427 . S
C625 H615 0.929 . S
C625 C623 1.433 . S
C625 N628 1.384 . S
C626 H617 0.929 . S
C626 C618 1.378 . S
C626 C621 1.350 . S
C627 H614 0.929 . S
C627 C619 1.433 . S
C627 N629 1.384 . S
N628 C624 1.427 . S
N628 C625 1.384 . S
N629 C621 1.427 . S
N629 C627 1.384 . S
H630 C636 0.930 . S
H631 C640 0.930 . S
H632 C645 0.929 1_455 S
H633 C643 0.929 . S
H634 C638 0.929 . S
H635 C644 0.929 . S
C636 H630 0.930 . S
C636 C637 1.367 . S
C636 C644 1.378 1_455 S
C637 C636 1.367 . S
C637 C645 1.433 1_455 S
C638 H634 0.929 . S
C638 C640 1.378 . S
C638 C642 1.350 . S
C639 C642 1.463 . S
C639 C644 1.350 . S
C639 N647 1.427 . S
C640 H631 0.930 . S
C640 C638 1.378 . S
C640 C641 1.367 . S
C641 C640 1.367 . S
C641 C643 1.433 . S
C642 C638 1.350 . S
C642 C639 1.463 . S
C642 N646 1.427 . S
C643 H633 0.929 . S
C643 C641 1.433 . S
C643 N646 1.384 . S
C644 H635 0.929 . S
C644 C636 1.378 1_655 S
C644 C639 1.350 . S
C645 H632 0.929 1_655 S
C645 C637 1.433 1_655 S
C645 N647 1.384 . S
N646 C642 1.427 . S
N646 C643 1.384 . S
N647 C639 1.427 . S
N647 C645 1.384 . S
H648 C654 0.930 . S
H649 C658 0.930 . S
H650 C663 0.929 . S
H651 C661 0.929 . S
H652 C656 0.929 . S
H653 C662 0.929 . S
C654 H648 0.930 . S
C654 C655 1.367 . S
C654 C662 1.378 1_565 S
C655 C654 1.367 . S
C655 C663 1.433 1_565 S
C656 H652 0.929 . S
C656 C658 1.378 . S
C656 C660 1.350 . S
C657 C660 1.463 . S
C657 C662 1.350 . S
C657 N665 1.427 . S
C658 H649 0.930 . S
C658 C656 1.378 . S
C658 C659 1.367 . S
C659 C658 1.367 . S
C659 C661 1.433 . S
C660 C656 1.350 . S
C660 C657 1.463 . S
C660 N664 1.427 . S
C661 H651 0.929 . S
C661 C659 1.433 . S
C661 N664 1.384 . S
C662 H653 0.929 . S
C662 C654 1.378 1_545 S
C662 C657 1.350 . S
C663 H650 0.929 . S
C663 C655 1.433 1_545 S
C663 N665 1.384 . S
N664 C660 1.427 . S
N664 C661 1.384 . S
N665 C657 1.427 . S
N665 C663 1.384 . S
H666 C672 0.930 . S
H667 C676 0.930 . S
H668 C681 0.929 . S
H669 C679 0.929 . S
H670 C674 0.929 . S
H671 C680 0.929 . S
C672 H666 0.930 . S
C672 C673 1.367 . S
C672 C680 1.378 1_565 S
C673 C672 1.367 . S
C673 C681 1.433 1_565 S
C674 H670 0.929 . S
C674 C676 1.378 . S
C674 C678 1.350 . S
C675 C678 1.463 . S
C675 C680 1.350 . S
C675 N683 1.427 . S
C676 H667 0.930 . S
C676 C674 1.378 . S
C676 C677 1.367 1_655 S
C677 C676 1.367 1_455 S
C677 C679 1.433 . S
C678 C674 1.350 . S
C678 C675 1.463 . S
C678 N682 1.427 . S
C679 H669 0.929 . S
C679 C677 1.433 . S
C679 N682 1.384 1_455 S
C680 H671 0.929 . S
C680 C672 1.378 1_545 S
C680 C675 1.350 . S
C681 H668 0.929 . S
C681 C673 1.433 1_545 S
C681 N683 1.384 . S
N682 C678 1.427 . S
N682 C679 1.384 1_655 S
N683 C675 1.427 . S
N683 C681 1.384 . S
C205 C7 1.186 . S
C209 C162 1.195 . S
C223 C29 1.184 . S
C227 C184 1.195 . S
C241 C140 1.194 . S
C245 C51 1.190 . S
C259 C158 1.204 . S
C263 C49 1.180 . S
C277 C180 1.204 . S
C281 C5 1.178 . S
C295 C136 1.195 . S
C299 C27 1.185 . S
C313 C30 1.195 . S
C317 C73 1.191 . S
C331 C95 1.188 . S
C335 C52 1.194 . S
C349 C8 1.194 . S
C353 C117 1.186 . S
C367 C26 1.199 . S
C371 C115 1.188 . S
C385 C71 1.190 . S
C389 C48 1.194 . S
C403 C4 1.195 . S
C407 C93 1.184 . S
C421 C139 1.182 . S
C425 C96 1.203 . S
C439 C118 1.200 . S
C443 C161 1.177 . S
C457 C183 1.190 . S
C461 C74 1.196 . S
C475 C181 1.187 . S
C479 C92 1.200 . S
C493 C114 1.197 . S
C497 C137 1.189 . S
C511 C70 1.194 . S
C515 C159 1.190 . S
C529 C9 1.121 . S
C533 C28 1.138 . S
C547 C50 1.134 . S
C551 C31 1.125 . S
C565 C53 1.139 . S
C569 C6 1.119 . S
C583 C94 1.125 . S
C587 C75 1.133 . S
C601 C116 1.130 . S
C605 C97 1.129 . S
C619 C119 1.134 . S
C623 C72 1.125 . S
C637 C160 1.130 . S
C641 C141 1.128 . S
C655 C163 1.122 . S
C659 C182 1.136 . S
C673 C138 1.120 . S
C677 C185 1.139 . S
