# Generated by pormake.
# Topology wle, (5)-cn, num edge types: 1
# Building blocks:
#     Node 0, Type 0, BuildingBlock: BEQFEK_clean_sbu_0, # of connection points: 5
#     Node 1, Type 0, BuildingBlock: BEQFEK_clean_sbu_0, # of connection points: 5
#     Node 2, Type 0, BuildingBlock: BEQFEK_clean_sbu_0, # of connection points: 5
#     Node 3, Type 0, BuildingBlock: BEQFEK_clean_sbu_0, # of connection points: 5
#     Node 4, Type 0, BuildingBlock: BEQFEK_clean_sbu_0, # of connection points: 5
#     Node 5, Type 0, BuildingBlock: BEQFEK_clean_sbu_0, # of connection points: 5
#     Node 6, Type 0, BuildingBlock: BEQFEK_clean_sbu_0, # of connection points: 5
#     Node 7, Type 0, BuildingBlock: BEQFEK_clean_sbu_0, # of connection points: 5
#     Node 8, Type 0, BuildingBlock: BEQFEK_clean_sbu_0, # of connection points: 5
#     Node 9, Type 0, BuildingBlock: BEQFEK_clean_sbu_0, # of connection points: 5
#     Node 10, Type 0, BuildingBlock: BEQFEK_clean_sbu_0, # of connection points: 5
#     Node 11, Type 0, BuildingBlock: BEQFEK_clean_sbu_0, # of connection points: 5
#     Node 12, Type 0, BuildingBlock: BEQFEK_clean_sbu_0, # of connection points: 5
#     Node 13, Type 0, BuildingBlock: BEQFEK_clean_sbu_0, # of connection points: 5
#     Node 14, Type 0, BuildingBlock: BEQFEK_clean_sbu_0, # of connection points: 5
#     Node 15, Type 0, BuildingBlock: BEQFEK_clean_sbu_0, # of connection points: 5
#     Node 16, Type 0, BuildingBlock: BEQFEK_clean_sbu_0, # of connection points: 5
#     Node 17, Type 0, BuildingBlock: BEQFEK_clean_sbu_0, # of connection points: 5
#     Node 18, Type 0, BuildingBlock: BEQFEK_clean_sbu_0, # of connection points: 5
#     Node 19, Type 0, BuildingBlock: BEQFEK_clean_sbu_0, # of connection points: 5
#     Node 20, Type 0, BuildingBlock: BEQFEK_clean_sbu_0, # of connection points: 5
#     Node 21, Type 0, BuildingBlock: BEQFEK_clean_sbu_0, # of connection points: 5
#     Node 22, Type 0, BuildingBlock: BEQFEK_clean_sbu_0, # of connection points: 5
#     Node 23, Type 0, BuildingBlock: BEQFEK_clean_sbu_0, # of connection points: 5
#     Node 24, Type 0, BuildingBlock: BEQFEK_clean_sbu_0, # of connection points: 5
#     Node 25, Type 0, BuildingBlock: BEQFEK_clean_sbu_0, # of connection points: 5
#     Node 26, Type 0, BuildingBlock: BEQFEK_clean_sbu_0, # of connection points: 5
#     Node 27, Type 0, BuildingBlock: BEQFEK_clean_sbu_0, # of connection points: 5
#     Node 28, Type 0, BuildingBlock: BEQFEK_clean_sbu_0, # of connection points: 5
#     Node 29, Type 0, BuildingBlock: BEQFEK_clean_sbu_0, # of connection points: 5
#     Node 30, Type 0, BuildingBlock: BEQFEK_clean_sbu_0, # of connection points: 5
#     Node 31, Type 0, BuildingBlock: BEQFEK_clean_sbu_0, # of connection points: 5
#     Node 32, Type 0, BuildingBlock: BEQFEK_clean_sbu_0, # of connection points: 5
#     Node 33, Type 0, BuildingBlock: BEQFEK_clean_sbu_0, # of connection points: 5
#     Node 34, Type 0, BuildingBlock: BEQFEK_clean_sbu_0, # of connection points: 5
#     Node 35, Type 0, BuildingBlock: BEQFEK_clean_sbu_0, # of connection points: 5
#     Edge 36, Type (0, 0), BuildingBlock: XUDNAN_clean_linker_2, # of connection points: 2
#     Edge 37, Type (0, 0), BuildingBlock: XUDNAN_clean_linker_2, # of connection points: 2
#     Edge 38, Type (0, 0), BuildingBlock: XUDNAN_clean_linker_2, # of connection points: 2
#     Edge 39, Type (0, 0), BuildingBlock: XUDNAN_clean_linker_2, # of connection points: 2
#     Edge 40, Type (0, 0), BuildingBlock: XUDNAN_clean_linker_2, # of connection points: 2
#     Edge 41, Type (0, 0), BuildingBlock: XUDNAN_clean_linker_2, # of connection points: 2
#     Edge 42, Type (0, 0), BuildingBlock: XUDNAN_clean_linker_2, # of connection points: 2
#     Edge 43, Type (0, 0), BuildingBlock: XUDNAN_clean_linker_2, # of connection points: 2
#     Edge 44, Type (0, 0), BuildingBlock: XUDNAN_clean_linker_2, # of connection points: 2
#     Edge 45, Type (0, 0), BuildingBlock: XUDNAN_clean_linker_2, # of connection points: 2
#     Edge 46, Type (0, 0), BuildingBlock: XUDNAN_clean_linker_2, # of connection points: 2
#     Edge 47, Type (0, 0), BuildingBlock: XUDNAN_clean_linker_2, # of connection points: 2
#     Edge 48, Type (0, 0), BuildingBlock: XUDNAN_clean_linker_2, # of connection points: 2
#     Edge 49, Type (0, 0), BuildingBlock: XUDNAN_clean_linker_2, # of connection points: 2
#     Edge 50, Type (0, 0), BuildingBlock: XUDNAN_clean_linker_2, # of connection points: 2
#     Edge 51, Type (0, 0), BuildingBlock: XUDNAN_clean_linker_2, # of connection points: 2
#     Edge 52, Type (0, 0), BuildingBlock: XUDNAN_clean_linker_2, # of connection points: 2
#     Edge 53, Type (0, 0), BuildingBlock: XUDNAN_clean_linker_2, # of connection points: 2
#     Edge 54, Type (0, 0), BuildingBlock: XUDNAN_clean_linker_2, # of connection points: 2
#     Edge 55, Type (0, 0), BuildingBlock: XUDNAN_clean_linker_2, # of connection points: 2
#     Edge 56, Type (0, 0), BuildingBlock: XUDNAN_clean_linker_2, # of connection points: 2
#     Edge 57, Type (0, 0), BuildingBlock: XUDNAN_clean_linker_2, # of connection points: 2
#     Edge 58, Type (0, 0), BuildingBlock: XUDNAN_clean_linker_2, # of connection points: 2
#     Edge 59, Type (0, 0), BuildingBlock: XUDNAN_clean_linker_2, # of connection points: 2
#     Edge 60, Type (0, 0), BuildingBlock: XUDNAN_clean_linker_2, # of connection points: 2
#     Edge 61, Type (0, 0), BuildingBlock: XUDNAN_clean_linker_2, # of connection points: 2
#     Edge 62, Type (0, 0), BuildingBlock: XUDNAN_clean_linker_2, # of connection points: 2
#     Edge 63, Type (0, 0), BuildingBlock: XUDNAN_clean_linker_2, # of connection points: 2
#     Edge 64, Type (0, 0), BuildingBlock: XUDNAN_clean_linker_2, # of connection points: 2
#     Edge 65, Type (0, 0), BuildingBlock: XUDNAN_clean_linker_2, # of connection points: 2
#     Edge 66, Type (0, 0), BuildingBlock: XUDNAN_clean_linker_2, # of connection points: 2
#     Edge 67, Type (0, 0), BuildingBlock: XUDNAN_clean_linker_2, # of connection points: 2
#     Edge 68, Type (0, 0), BuildingBlock: XUDNAN_clean_linker_2, # of connection points: 2
#     Edge 69, Type (0, 0), BuildingBlock: XUDNAN_clean_linker_2, # of connection points: 2
#     Edge 70, Type (0, 0), BuildingBlock: XUDNAN_clean_linker_2, # of connection points: 2
#     Edge 71, Type (0, 0), BuildingBlock: XUDNAN_clean_linker_2, # of connection points: 2
#     Edge 72, Type (0, 0), BuildingBlock: XUDNAN_clean_linker_2, # of connection points: 2
#     Edge 73, Type (0, 0), BuildingBlock: XUDNAN_clean_linker_2, # of connection points: 2
#     Edge 74, Type (0, 0), BuildingBlock: XUDNAN_clean_linker_2, # of connection points: 2
#     Edge 75, Type (0, 0), BuildingBlock: XUDNAN_clean_linker_2, # of connection points: 2
#     Edge 76, Type (0, 0), BuildingBlock: XUDNAN_clean_linker_2, # of connection points: 2
#     Edge 77, Type (0, 0), BuildingBlock: XUDNAN_clean_linker_2, # of connection points: 2
#     Edge 78, Type (0, 0), BuildingBlock: XUDNAN_clean_linker_2, # of connection points: 2
#     Edge 79, Type (0, 0), BuildingBlock: XUDNAN_clean_linker_2, # of connection points: 2
#     Edge 80, Type (0, 0), BuildingBlock: XUDNAN_clean_linker_2, # of connection points: 2
#     Edge 81, Type (0, 0), BuildingBlock: XUDNAN_clean_linker_2, # of connection points: 2
#     Edge 82, Type (0, 0), BuildingBlock: XUDNAN_clean_linker_2, # of connection points: 2
#     Edge 83, Type (0, 0), BuildingBlock: XUDNAN_clean_linker_2, # of connection points: 2
#     Edge 84, Type (0, 0), BuildingBlock: XUDNAN_clean_linker_2, # of connection points: 2
#     Edge 85, Type (0, 0), BuildingBlock: XUDNAN_clean_linker_2, # of connection points: 2
#     Edge 86, Type (0, 0), BuildingBlock: XUDNAN_clean_linker_2, # of connection points: 2
#     Edge 87, Type (0, 0), BuildingBlock: XUDNAN_clean_linker_2, # of connection points: 2
#     Edge 88, Type (0, 0), BuildingBlock: XUDNAN_clean_linker_2, # of connection points: 2
#     Edge 89, Type (0, 0), BuildingBlock: XUDNAN_clean_linker_2, # of connection points: 2
#     Edge 90, Type (0, 0), BuildingBlock: XUDNAN_clean_linker_2, # of connection points: 2
#     Edge 91, Type (0, 0), BuildingBlock: XUDNAN_clean_linker_2, # of connection points: 2
#     Edge 92, Type (0, 0), BuildingBlock: XUDNAN_clean_linker_2, # of connection points: 2
#     Edge 93, Type (0, 0), BuildingBlock: XUDNAN_clean_linker_2, # of connection points: 2
#     Edge 94, Type (0, 0), BuildingBlock: XUDNAN_clean_linker_2, # of connection points: 2
#     Edge 95, Type (0, 0), BuildingBlock: XUDNAN_clean_linker_2, # of connection points: 2
#     Edge 96, Type (0, 0), BuildingBlock: XUDNAN_clean_linker_2, # of connection points: 2
#     Edge 97, Type (0, 0), BuildingBlock: XUDNAN_clean_linker_2, # of connection points: 2
#     Edge 98, Type (0, 0), BuildingBlock: XUDNAN_clean_linker_2, # of connection points: 2
#     Edge 99, Type (0, 0), BuildingBlock: XUDNAN_clean_linker_2, # of connection points: 2
#     Edge 100, Type (0, 0), BuildingBlock: XUDNAN_clean_linker_2, # of connection points: 2
#     Edge 101, Type (0, 0), BuildingBlock: XUDNAN_clean_linker_2, # of connection points: 2
#     Edge 102, Type (0, 0), BuildingBlock: XUDNAN_clean_linker_2, # of connection points: 2
#     Edge 103, Type (0, 0), BuildingBlock: XUDNAN_clean_linker_2, # of connection points: 2
#     Edge 104, Type (0, 0), BuildingBlock: XUDNAN_clean_linker_2, # of connection points: 2
#     Edge 105, Type (0, 0), BuildingBlock: XUDNAN_clean_linker_2, # of connection points: 2
#     Edge 106, Type (0, 0), BuildingBlock: XUDNAN_clean_linker_2, # of connection points: 2
#     Edge 107, Type (0, 0), BuildingBlock: XUDNAN_clean_linker_2, # of connection points: 2
#     Edge 108, Type (0, 0), BuildingBlock: XUDNAN_clean_linker_2, # of connection points: 2
#     Edge 109, Type (0, 0), BuildingBlock: XUDNAN_clean_linker_2, # of connection points: 2
#     Edge 110, Type (0, 0), BuildingBlock: XUDNAN_clean_linker_2, # of connection points: 2
#     Edge 111, Type (0, 0), BuildingBlock: XUDNAN_clean_linker_2, # of connection points: 2
#     Edge 112, Type (0, 0), BuildingBlock: XUDNAN_clean_linker_2, # of connection points: 2
#     Edge 113, Type (0, 0), BuildingBlock: XUDNAN_clean_linker_2, # of connection points: 2
#     Edge 114, Type (0, 0), BuildingBlock: XUDNAN_clean_linker_2, # of connection points: 2
#     Edge 115, Type (0, 0), BuildingBlock: XUDNAN_clean_linker_2, # of connection points: 2
#     Edge 116, Type (0, 0), BuildingBlock: XUDNAN_clean_linker_2, # of connection points: 2
#     Edge 117, Type (0, 0), BuildingBlock: XUDNAN_clean_linker_2, # of connection points: 2
#     Edge 118, Type (0, 0), BuildingBlock: XUDNAN_clean_linker_2, # of connection points: 2
#     Edge 119, Type (0, 0), BuildingBlock: XUDNAN_clean_linker_2, # of connection points: 2
#     Edge 120, Type (0, 0), BuildingBlock: XUDNAN_clean_linker_2, # of connection points: 2
#     Edge 121, Type (0, 0), BuildingBlock: XUDNAN_clean_linker_2, # of connection points: 2
#     Edge 122, Type (0, 0), BuildingBlock: XUDNAN_clean_linker_2, # of connection points: 2
#     Edge 123, Type (0, 0), BuildingBlock: XUDNAN_clean_linker_2, # of connection points: 2
#     Edge 124, Type (0, 0), BuildingBlock: XUDNAN_clean_linker_2, # of connection points: 2
#     Edge 125, Type (0, 0), BuildingBlock: XUDNAN_clean_linker_2, # of connection points: 2
# Relax obj value: 0.558
# Max RMSD: 0.255
# Mean RMSD: 0.252
data_MOF--net-wle--node1-BEQFEK_clean_sbu_0--edge1-XUDNAN_clean_linker_2
_symmetry_space_group_name_H-M    P1
_symmetry_Int_Tables_number       1
_symmetry_cell_setting            triclinic
loop_
_symmetry_equiv_pos_as_xyz
'x, y, z'
_cell_length_a     94.948055
_cell_length_b     94.919908
_cell_length_c     28.584675
_cell_angle_alpha  90.021361
_cell_angle_beta   89.972571
_cell_angle_gamma 119.99086
loop_
_atom_site_label
_atom_site_type_symbol
_atom_site_fract_x
_atom_site_fract_y
_atom_site_fract_z
_atom_type_partial_charge
Co0 Co 0.27255 0.08779 0.06669 0.0
Co1 Co 0.24588 0.08932 0.12734 0.0
C2 C 0.2812 0.11595 0.12962 0.0
O3 O 0.2856 0.10837 0.1018 0.0
O4 O 0.2663 0.11015 0.14091 0.0
C5 C 0.30055 0.08477 0.0369 0.0
O6 O 0.30631 0.08873 0.07961 0.0
C7 C 0.22964 0.09495 0.20672 0.0
C8 C 0.20371 0.07735 0.19325 0.0
C9 C 0.2141 0.08935 0.22383 0.0
N10 N 0.22859 0.08684 0.16723 0.0
N11 N 0.21305 0.07635 0.15928 0.0
C12 C 0.24528 0.10692 0.22959 0.0
H13 H 0.24919 0.11918 0.21524 0.0
H14 H 0.25482 0.10373 0.22244 0.0
H15 H 0.24378 0.10727 0.268 0.0
C16 C 0.26057 0.0569 0.11965 0.0
N17 N 0.26008 0.07042 0.10826 0.0
N18 N 0.24965 0.07167 0.13579 0.0
C19 C 0.24367 0.05938 0.16687 0.0
C20 C 0.25024 0.04948 0.15736 0.0
C21 C 0.27032 0.05096 0.09383 0.0
H22 H 0.27065 0.0537 0.05603 0.0
H23 H 0.28295 0.05728 0.10746 0.0
H24 H 0.26509 0.03766 0.09843 0.0
O25 O 0.25864 0.09065 0.02157 0.0
O26 O 0.23844 0.08971 0.06287 0.0
H27 H 0.22061 0.05316 0.19664 0.0
H28 H 0.23396 0.05057 0.23628 0.0
C29 C 0.23341 0.0583 0.20807 0.0
H30 H 0.23771 0.0706 0.22262 0.0
H31 H 0.20882 0.06842 0.1308 0.0
O32 O 0.28695 0.08354 0.02691 0.0
C33 C 0.24536 0.09079 0.02394 0.0
Co34 Co 0.9116 0.1812 0.06695 0.0
Co35 Co 0.90719 0.15052 0.11986 0.0
C36 C 0.88 0.15811 0.11163 0.0
O37 O 0.88886 0.17132 0.08964 0.0
O38 O 0.88555 0.14895 0.12422 0.0
C39 C 0.91286 0.21166 0.05122 0.0
O40 O 0.90559 0.20893 0.09207 0.0
C41 C 0.89881 0.12869 0.19886 0.0
C42 C 0.91217 0.11558 0.1851 0.0
C43 C 0.90184 0.11692 0.21668 0.0
N44 N 0.90681 0.13401 0.15829 0.0
N45 N 0.9147 0.12608 0.14994 0.0
C46 C 0.88967 0.13586 0.22198 0.0
H47 H 0.89452 0.14864 0.21056 0.0
H48 H 0.89049 0.13546 0.26065 0.0
H49 H 0.87667 0.12871 0.21186 0.0
C50 C 0.93845 0.19764 0.13582 0.0
N51 N 0.92589 0.18427 0.11683 0.0
N52 N 0.92379 0.17132 0.13974 0.0
C53 C 0.93481 0.17606 0.17444 0.0
C54 C 0.94433 0.19284 0.17322 0.0
C55 C 0.94447 0.21463 0.11902 0.0
H56 H 0.94549 0.21504 0.08034 0.0
H57 H 0.93558 0.21843 0.12905 0.0
H58 H 0.95641 0.22332 0.13461 0.0
O59 O 0.91313 0.16745 0.01764 0.0
O60 O 0.91104 0.14609 0.05536 0.0
H61 H 0.93755 0.15527 0.18565 0.0
H62 H 0.94793 0.17117 0.22822 0.0
C63 C 0.9368 0.16471 0.20652 0.0
H64 H 0.92608 0.15864 0.22991 0.0
H65 H 0.92202 0.12801 0.12068 0.0
O66 O 0.91706 0.20175 0.03584 0.0
C67 C 0.91297 0.15397 0.01771 0.0
Co68 Co 0.83161 0.73842 0.07703 0.0
Co69 Co 0.8644 0.76129 0.12726 0.0
C70 C 0.85045 0.72478 0.12164 0.0
O71 O 0.83777 0.72239 0.09968 0.0
O72 O 0.86144 0.73908 0.13316 0.0
C73 C 0.79956 0.71193 0.05445 0.0
O74 O 0.80277 0.7036 0.08505 0.0
C75 C 0.88699 0.77168 0.20436 0.0
C76 C 0.90619 0.79634 0.18358 0.0
C77 C 0.90186 0.78459 0.2179 0.0
N78 N 0.88282 0.77543 0.16348 0.0
N79 N 0.8943 0.79019 0.15109 0.0
C80 C 0.8763 0.7564 0.23104 0.0
H81 H 0.86343 0.75123 0.2202 0.0
H82 H 0.87742 0.75883 0.26925 0.0
H83 H 0.88009 0.74732 0.22365 0.0
C84 C 0.81975 0.75326 0.14686 0.0
N85 N 0.83171 0.75164 0.12692 0.0
N86 N 0.84556 0.76147 0.14782 0.0
C87 C 0.8429 0.76979 0.18153 0.0
C88 C 0.82645 0.76483 0.18213 0.0
C89 C 0.80218 0.74317 0.13393 0.0
H90 H 0.80035 0.74649 0.09814 0.0
H91 H 0.79871 0.73015 0.13356 0.0
H92 H 0.79416 0.74485 0.15876 0.0
O93 O 0.84652 0.75204 0.02614 0.0
O94 O 0.86944 0.76893 0.06266 0.0
H95 H 0.86671 0.7906 0.18896 0.0
H96 H 0.85176 0.79045 0.22832 0.0
C97 C 0.85599 0.78277 0.21098 0.0
H98 H 0.85978 0.777 0.23816 0.0
H99 H 0.89409 0.79599 0.12033 0.0
O100 O 0.80992 0.72681 0.04752 0.0
C101 C 0.86107 0.76389 0.02547 0.0
Co102 Co 0.0881 0.26774 0.41646 0.0
Co103 Co 0.0904 0.24243 0.35217 0.0
C104 C 0.11656 0.27804 0.35427 0.0
O105 O 0.10898 0.28185 0.38386 0.0
O106 O 0.11076 0.2634 0.34047 0.0
C107 C 0.08644 0.29575 0.44909 0.0
O108 O 0.09549 0.30336 0.41261 0.0
C109 C 0.09589 0.23051 0.2653 0.0
C110 C 0.08813 0.20483 0.28079 0.0
C111 C 0.09531 0.21676 0.24685 0.0
N112 N 0.08966 0.22705 0.30851 0.0
N113 N 0.08486 0.21164 0.31758 0.0
C114 C 0.102 0.24667 0.24208 0.0
H115 H 0.09558 0.25283 0.25618 0.0
H116 H 0.10028 0.2452 0.20361 0.0
H117 H 0.11517 0.25445 0.24931 0.0
C118 C 0.05717 0.25564 0.36513 0.0
N119 N 0.07129 0.25597 0.37301 0.0
N120 N 0.07203 0.24506 0.34633 0.0
C121 C 0.05833 0.23733 0.32075 0.0
C122 C 0.04846 0.2438 0.3319 0.0
C123 C 0.05228 0.26664 0.38863 0.0
H124 H 0.06201 0.27944 0.38365 0.0
H125 H 0.04081 0.26521 0.37418 0.0
H126 H 0.05084 0.26405 0.42672 0.0
O127 O 0.09012 0.25256 0.45991 0.0
O128 O 0.09103 0.23413 0.41439 0.0
H129 H 0.04137 0.21685 0.27827 0.0
H130 H 0.06225 0.22738 0.25837 0.0
C131 C 0.05426 0.2231 0.28964 0.0
H132 H 0.05663 0.21429 0.30847 0.0
H133 H 0.07986 0.20593 0.34938 0.0
O134 O 0.08222 0.28096 0.4562 0.0
C135 C 0.09092 0.23965 0.45477 0.0
Co136 Co 0.72847 0.80543 0.43098 0.0
Co137 Co 0.7479 0.83764 0.37373 0.0
C138 C 0.71168 0.82077 0.3802 0.0
O139 O 0.71176 0.80991 0.40602 0.0
O140 O 0.72489 0.83252 0.36442 0.0
C141 C 0.70346 0.77268 0.44677 0.0
O142 O 0.69908 0.77397 0.4041 0.0
C143 C 0.75993 0.85837 0.28999 0.0
C144 C 0.78167 0.88008 0.31776 0.0
C145 C 0.77248 0.87371 0.27759 0.0
N146 N 0.76173 0.85579 0.33528 0.0
N147 N 0.77482 0.86876 0.35155 0.0
C148 C 0.74584 0.84679 0.26044 0.0
H149 H 0.73617 0.83712 0.28209 0.0
H150 H 0.74999 0.84089 0.23471 0.0
H151 H 0.74088 0.85344 0.2408 0.0
C152 C 0.74742 0.79543 0.37263 0.0
N153 N 0.74226 0.8059 0.38327 0.0
N154 N 0.75077 0.81947 0.35946 0.0
C155 C 0.76174 0.81803 0.33287 0.0
C156 C 0.75995 0.80275 0.34038 0.0
C157 C 0.74108 0.77917 0.39538 0.0
H158 H 0.72772 0.77197 0.39064 0.0
H159 H 0.74658 0.77227 0.38026 0.0
H160 H 0.74358 0.78086 0.4335 0.0
O161 O 0.74171 0.82143 0.47906 0.0
O162 O 0.75461 0.84467 0.4396 0.0
H163 H 0.78448 0.8288 0.29432 0.0
H164 H 0.76995 0.83452 0.27518 0.0
C165 C 0.77514 0.83177 0.30621 0.0
H166 H 0.78104 0.84278 0.32856 0.0
H167 H 0.7789 0.87003 0.386 0.0
O168 O 0.71656 0.78427 0.46334 0.0
C169 C 0.75146 0.83669 0.47769 0.0
Co170 Co 0.19676 0.92124 0.46367 0.0
Co171 Co 0.16752 0.90979 0.39458 0.0
C172 C 0.18156 0.8887 0.41274 0.0
O173 O 0.19168 0.89927 0.44121 0.0
O174 O 0.17108 0.89096 0.39131 0.0
C175 C 0.22791 0.92725 0.49557 0.0
O176 O 0.22778 0.91974 0.4568 0.0
C177 C 0.14619 0.89909 0.31147 0.0
C178 C 0.13514 0.91476 0.31697 0.0
C179 C 0.13575 0.90316 0.28907 0.0
N180 N 0.15154 0.90793 0.35087 0.0
N181 N 0.14472 0.9171 0.35425 0.0
C182 C 0.15246 0.88844 0.29335 0.0
H183 H 0.14493 0.87601 0.30789 0.0
H184 H 0.16521 0.89317 0.30468 0.0
H185 H 0.15186 0.88769 0.2546 0.0
C186 C 0.21197 0.94882 0.3976 0.0
N187 N 0.19942 0.93461 0.41238 0.0
N188 N 0.18747 0.9294 0.38194 0.0
C189 C 0.19229 0.93985 0.34567 0.0
C190 C 0.2079 0.95262 0.35462 0.0
C191 C 0.22712 0.9588 0.42543 0.0
H192 H 0.22425 0.95743 0.46333 0.0
H193 H 0.23579 0.95442 0.41853 0.0
H194 H 0.23297 0.97186 0.4159 0.0
O195 O 0.1796 0.91988 0.50451 0.0
O196 O 0.15834 0.91023 0.45691 0.0
H197 H 0.17307 0.93985 0.30668 0.0
H198 H 0.19065 0.94413 0.27185 0.0
C199 C 0.1828 0.93679 0.30131 0.0
H200 H 0.17714 0.9238 0.29167 0.0
H201 H 0.14705 0.92537 0.38125 0.0
O202 O 0.21633 0.92997 0.50341 0.0
C203 C 0.16468 0.91496 0.49713 0.0
Co204 Co 0.73012 0.91047 0.92779 0.0
Co205 Co 0.75489 0.90562 0.86781 0.0
C206 C 0.71911 0.88067 0.86972 0.0
O207 O 0.71561 0.8891 0.89696 0.0
O208 O 0.73372 0.88571 0.85717 0.0
C209 C 0.70345 0.91592 0.95146 0.0
O210 O 0.69858 0.91195 0.90798 0.0
C211 C 0.76729 0.89906 0.78196 0.0
C212 C 0.79157 0.90369 0.80351 0.0
C213 C 0.78068 0.89821 0.76658 0.0
N214 N 0.77016 0.90493 0.82583 0.0
N215 N 0.78482 0.90793 0.83827 0.0
C216 C 0.75133 0.8927 0.75734 0.0
H217 H 0.74521 0.87924 0.75521 0.0
H218 H 0.7434 0.89635 0.77589 0.0
H219 H 0.75325 0.89747 0.72112 0.0
C220 C 0.74446 0.94124 0.87385 0.0
N221 N 0.74304 0.92675 0.88395 0.0
N222 N 0.75313 0.92455 0.85748 0.0
C223 C 0.7609 0.93737 0.82841 0.0
C224 C 0.75569 0.94843 0.83795 0.0
C225 C 0.73631 0.94867 0.90099 0.0
H226 H 0.73571 0.94551 0.93853 0.0
H227 H 0.72374 0.94381 0.88773 0.0
H228 H 0.74295 0.96211 0.89755 0.0
O229 O 0.74448 0.90874 0.97391 0.0
O230 O 0.76238 0.90528 0.93272 0.0
H231 H 0.7833 0.93919 0.80638 0.0
H232 H 0.77575 0.94882 0.76674 0.0
C233 C 0.77225 0.93837 0.79047 0.0
H234 H 0.76622 0.92716 0.76913 0.0
H235 H 0.78987 0.91208 0.8713 0.0
O236 O 0.71639 0.91635 0.96491 0.0
C237 C 0.75677 0.90682 0.97163 0.0
Co238 Co 0.0824 0.81563 0.95268 0.0
Co239 Co 0.09357 0.8453 0.88503 0.0
C240 C 0.11141 0.82681 0.88932 0.0
O241 O 0.10146 0.81729 0.91998 0.0
O242 O 0.11019 0.83861 0.8726 0.0
C243 C 0.07547 0.78447 0.98726 0.0
O244 O 0.08243 0.78383 0.94822 0.0
C245 C 0.10343 0.86541 0.80007 0.0
C246 C 0.09585 0.8834 0.81705 0.0
C247 C 0.10323 0.87899 0.78285 0.0
N248 N 0.09627 0.86185 0.8423 0.0
N249 N 0.09168 0.87258 0.85214 0.0
C250 C 0.11172 0.85691 0.77968 0.0
H251 H 0.12266 0.85995 0.80091 0.0
H252 H 0.10348 0.84355 0.7817 0.0
H253 H 0.11561 0.86052 0.74303 0.0
C254 C 0.05303 0.80231 0.89433 0.0
N255 N 0.06749 0.81469 0.90814 0.0
N256 N 0.07221 0.82697 0.87895 0.0
C257 C 0.06085 0.82272 0.84537 0.0
C258 C 0.0484 0.80696 0.85387 0.0
C259 C 0.0452 0.78568 0.91556 0.0
H260 H 0.05295 0.78021 0.90872 0.0
H261 H 0.03292 0.77757 0.90097 0.0
H262 H 0.04431 0.78663 0.954 0.0
O263 O 0.08921 0.83417 0.99497 0.0
O264 O 0.09707 0.85532 0.94797 0.0
H265 H 0.06481 0.84525 0.8169 0.0
H266 H 0.05106 0.8277 0.78305 0.0
C267 C 0.06233 0.83318 0.80436 0.0
H268 H 0.07267 0.83495 0.78215 0.0
H269 H 0.08598 0.87268 0.88321 0.0
O270 O 0.0732 0.7964 0.99413 0.0
C271 C 0.0948 0.84929 0.98884 0.0
Co272 Co 0.18389 0.27359 0.91473 0.0
Co273 Co 0.15599 0.24789 0.85181 0.0
C274 C 0.16312 0.28247 0.8574 0.0
O275 O 0.17521 0.28673 0.88466 0.0
O276 O 0.15466 0.26785 0.8433 0.0
C277 C 0.21515 0.30157 0.93604 0.0
O278 O 0.21513 0.3057 0.89218 0.0
C279 C 0.1355 0.23387 0.76998 0.0
C280 C 0.12356 0.20742 0.78351 0.0
C281 C 0.12426 0.21883 0.75205 0.0
N282 N 0.14105 0.23154 0.81062 0.0
N283 N 0.13389 0.21572 0.81865 0.0
C284 C 0.14193 0.25014 0.74712 0.0
H285 H 0.13437 0.25548 0.75781 0.0
H286 H 0.15466 0.25848 0.75819 0.0
H287 H 0.14147 0.24899 0.70843 0.0
C288 C 0.20283 0.26205 0.85909 0.0
N289 N 0.18908 0.26229 0.86931 0.0
N290 N 0.17739 0.2521 0.84138 0.0
C291 C 0.18338 0.24543 0.81164 0.0
C292 C 0.19966 0.25138 0.82216 0.0
C293 C 0.2182 0.2706 0.88695 0.0
H294 H 0.21535 0.27081 0.92447 0.0
H295 H 0.22552 0.28331 0.87431 0.0
H296 H 0.22556 0.26455 0.88311 0.0
O297 O 0.16796 0.25798 0.96022 0.0
O298 O 0.14877 0.2393 0.91492 0.0
H299 H 0.16528 0.22186 0.78795 0.0
H300 H 0.18176 0.23272 0.74695 0.0
C301 C 0.17379 0.23398 0.77296 0.0
H302 H 0.1666 0.23854 0.75464 0.0
H303 H 0.13603 0.21059 0.84814 0.0
O304 O 0.20324 0.28849 0.95154 0.0
C305 C 0.15462 0.24466 0.9552 0.0
Co306 Co 0.91506 0.7252 0.57085 0.0
Co307 Co 0.91295 0.7533 0.62047 0.0
C308 C 0.88362 0.71997 0.608 0.0
O309 O 0.89177 0.71431 0.58844 0.0
O310 O 0.8904 0.73475 0.62103 0.0
C311 C 0.91284 0.69433 0.56326 0.0
O312 O 0.90495 0.69165 0.60303 0.0
C313 C 0.90514 0.76694 0.69927 0.0
C314 C 0.91671 0.79314 0.68276 0.0
C315 C 0.90723 0.78158 0.71583 0.0
N316 N 0.9128 0.76964 0.65813 0.0
N317 N 0.91966 0.78531 0.64814 0.0
C318 C 0.89707 0.75075 0.72332 0.0
H319 H 0.90228 0.74324 0.71086 0.0
H320 H 0.89851 0.75226 0.76184 0.0
H321 H 0.8839 0.74423 0.71489 0.0
C322 C 0.94133 0.73441 0.64084 0.0
N323 N 0.92869 0.73535 0.62307 0.0
N324 N 0.9279 0.74734 0.64362 0.0
C325 C 0.9401 0.75456 0.67476 0.0
C326 C 0.949 0.74656 0.67417 0.0
C327 C 0.9464 0.72263 0.62441 0.0
H328 H 0.93639 0.71009 0.63105 0.0
H329 H 0.95737 0.72425 0.64293 0.0
H330 H 0.94871 0.72406 0.58617 0.0
O331 O 0.91985 0.74155 0.52059 0.0
O332 O 0.9192 0.76188 0.55709 0.0
H333 H 0.95692 0.77612 0.71415 0.0
H334 H 0.93562 0.76803 0.72676 0.0
C335 C 0.94458 0.7703 0.69867 0.0
H336 H 0.94412 0.77886 0.67316 0.0
H337 H 0.92639 0.79063 0.6179 0.0
O338 O 0.91882 0.70824 0.54422 0.0
C339 C 0.92142 0.7557 0.52034 0.0
Co340 Co 0.26239 0.18199 0.53456 0.0
Co341 Co 0.24579 0.15445 0.60953 0.0
C342 C 0.2805 0.16798 0.58723 0.0
O343 O 0.27935 0.17731 0.55734 0.0
O344 O 0.26825 0.15798 0.61123 0.0
C345 C 0.28666 0.21383 0.51168 0.0
O346 O 0.29058 0.21354 0.55561 0.0
C347 C 0.23665 0.13143 0.68769 0.0
C348 C 0.2123 0.12746 0.70594 0.0
C349 C 0.22411 0.12387 0.72015 0.0
N350 N 0.23264 0.13959 0.65712 0.0
N351 N 0.21791 0.13681 0.66744 0.0
C352 C 0.25161 0.13003 0.68309 0.0
H353 H 0.25431 0.12951 0.64559 0.0
H354 H 0.26209 0.1409 0.69885 0.0
H355 H 0.25004 0.11888 0.70048 0.0
C356 C 0.25143 0.19882 0.59934 0.0
N357 N 0.25238 0.18572 0.586 0.0
N358 N 0.24678 0.17482 0.61969 0.0
C359 C 0.24293 0.18105 0.65668 0.0
C360 C 0.24559 0.19638 0.6448 0.0
C361 C 0.25514 0.21294 0.5682 0.0
H362 H 0.25355 0.20917 0.53096 0.0
H363 H 0.26789 0.22272 0.57385 0.0
H364 H 0.24705 0.21792 0.5765 0.0
O365 O 0.24639 0.16399 0.49636 0.0
O366 O 0.23494 0.1443 0.5491 0.0
H367 H 0.22532 0.16576 0.70734 0.0
H368 H 0.24296 0.1829 0.73192 0.0
C369 C 0.23871 0.17344 0.70426 0.0
H370 H 0.24436 0.1658 0.70996 0.0
H371 H 0.21192 0.1418 0.64918 0.0
O372 O 0.27416 0.20153 0.49496 0.0
C373 C 0.23617 0.14938 0.50723 0.0
Co374 Co 0.81536 0.08071 0.55112 0.0
Co375 Co 0.84552 0.09351 0.61696 0.0
C376 C 0.83034 0.11367 0.59911 0.0
O377 O 0.8202 0.10253 0.57215 0.0
O378 O 0.84137 0.11218 0.62011 0.0
C379 C 0.78337 0.07388 0.52891 0.0
O380 O 0.78509 0.08207 0.5676 0.0
C381 C 0.86839 0.10611 0.69596 0.0
C382 C 0.88283 0.094 0.68372 0.0
C383 C 0.88125 0.10463 0.7135 0.0
N384 N 0.86278 0.09686 0.65739 0.0
N385 N 0.87151 0.08975 0.6501 0.0
C386 C 0.86055 0.1149 0.71733 0.0
H387 H 0.8476 0.10911 0.70676 0.0
H388 H 0.86132 0.11492 0.75607 0.0
H389 H 0.86688 0.12767 0.70479 0.0
C390 C 0.80184 0.05383 0.61907 0.0
N391 N 0.81403 0.06802 0.60306 0.0
N392 N 0.8263 0.07366 0.63249 0.0
C393 C 0.82213 0.06337 0.6691 0.0
C394 C 0.80644 0.05045 0.66182 0.0
C395 C 0.7865 0.0434 0.59243 0.0
H396 H 0.78907 0.04441 0.55436 0.0
H397 H 0.77773 0.04765 0.59933 0.0
H398 H 0.78091 0.03045 0.60293 0.0
O399 O 0.83203 0.08255 0.50733 0.0
O400 O 0.85353 0.09214 0.5538 0.0
H401 H 0.84257 0.06415 0.70291 0.0
H402 H 0.82548 0.05875 0.74141 0.0
C403 C 0.83253 0.06651 0.71149 0.0
H404 H 0.83796 0.07942 0.72198 0.0
H405 H 0.86961 0.08183 0.62241 0.0
O406 O 0.79466 0.07121 0.51635 0.0
C407 C 0.84703 0.08748 0.51371 0.0
Co408 Co 0.93889 0.42506 0.42637 0.0
Co409 Co 0.91317 0.42933 0.48291 0.0
C410 C 0.94871 0.4548 0.48408 0.0
O411 O 0.95254 0.44632 0.45802 0.0
O412 O 0.93394 0.44979 0.49521 0.0
C413 C 0.96621 0.42015 0.40447 0.0
O414 O 0.97133 0.42459 0.44755 0.0
C415 C 0.89763 0.43706 0.55905 0.0
C416 C 0.87149 0.42204 0.54216 0.0
C417 C 0.88226 0.43334 0.57368 0.0
N418 N 0.89615 0.42862 0.51999 0.0
N419 N 0.88049 0.41966 0.50996 0.0
C420 C 0.91335 0.44741 0.5841 0.0
H421 H 0.9221 0.4432 0.57657 0.0
H422 H 0.9114 0.44709 0.62247 0.0
H423 H 0.91855 0.46016 0.57215 0.0
C424 C 0.92528 0.39496 0.48344 0.0
N425 N 0.92587 0.40884 0.47021 0.0
N426 N 0.91575 0.41115 0.49612 0.0
C427 C 0.90888 0.39917 0.52809 0.0
C428 C 0.91462 0.38841 0.52096 0.0
C429 C 0.93386 0.38756 0.45833 0.0
H430 H 0.93457 0.39027 0.42042 0.0
H431 H 0.94638 0.39282 0.4723 0.0
H432 H 0.92744 0.37417 0.46311 0.0
O433 O 0.92537 0.42705 0.37796 0.0
O434 O 0.90636 0.42899 0.41736 0.0
H435 H 0.88574 0.39463 0.55294 0.0
H436 H 0.89739 0.39072 0.59582 0.0
C437 C 0.89812 0.39884 0.56689 0.0
H438 H 0.90293 0.41125 0.58119 0.0
H439 H 0.87595 0.41188 0.48119 0.0
O440 O 0.95309 0.41937 0.39119 0.0
C441 C 0.91266 0.42827 0.37886 0.0
Co442 Co 0.57233 0.50983 0.41175 0.0
Co443 Co 0.57059 0.48102 0.46872 0.0
C444 C 0.54239 0.48707 0.4653 0.0
O445 O 0.5502 0.49949 0.43921 0.0
O446 O 0.54875 0.4787 0.47885 0.0
C447 C 0.57166 0.5393 0.39507 0.0
O448 O 0.56409 0.53612 0.4355 0.0
C449 C 0.56734 0.46131 0.55026 0.0
C450 C 0.57601 0.44508 0.52381 0.0
C451 C 0.56963 0.44853 0.56276 0.0
N452 N 0.57238 0.46548 0.50606 0.0
N453 N 0.57773 0.45587 0.4905 0.0
C454 C 0.55894 0.46834 0.57807 0.0
H455 H 0.54572 0.4594 0.57944 0.0
H456 H 0.56083 0.47978 0.56193 0.0
H457 H 0.56357 0.47081 0.6145 0.0
C458 C 0.5999 0.52875 0.47675 0.0
N459 N 0.58796 0.5146 0.45928 0.0
N460 N 0.58719 0.50244 0.48357 0.0
C461 C 0.59861 0.5085 0.51735 0.0
C462 C 0.60684 0.5253 0.51443 0.0
C463 C 0.60375 0.54522 0.45986 0.0
H464 H 0.59392 0.54755 0.47105 0.0
H465 H 0.61537 0.555 0.47436 0.0
H466 H 0.60441 0.54562 0.42113 0.0
O467 O 0.57354 0.49566 0.36295 0.0
O468 O 0.57263 0.47545 0.40398 0.0
H469 H 0.61404 0.50571 0.56771 0.0
H470 H 0.59255 0.49403 0.57928 0.0
C471 C 0.60188 0.49847 0.5513 0.0
H472 H 0.60132 0.48788 0.53321 0.0
H473 H 0.58206 0.45633 0.45669 0.0
O474 O 0.57632 0.52978 0.37938 0.0
C475 C 0.57363 0.48232 0.36506 0.0
Co476 Co 0.47528 0.06356 0.38659 0.0
Co477 Co 0.50932 0.08147 0.43539 0.0
C478 C 0.49127 0.0456 0.42887 0.0
O479 O 0.47983 0.04619 0.40728 0.0
O480 O 0.50393 0.05853 0.44223 0.0
C481 C 0.44152 0.0393 0.37291 0.0
O482 O 0.44278 0.03346 0.41337 0.0
C483 C 0.5353 0.09308 0.50636 0.0
C484 C 0.55012 0.11902 0.48676 0.0
C485 C 0.54875 0.10771 0.51968 0.0
N486 N 0.529 0.0957 0.46747 0.0
N487 N 0.5381 0.11114 0.45544 0.0
C488 C 0.52733 0.07741 0.53316 0.0
H489 H 0.53322 0.07022 0.52378 0.0
H490 H 0.51423 0.07017 0.52433 0.0
H491 H 0.52866 0.07972 0.57141 0.0
C492 C 0.46857 0.08311 0.45443 0.0
N493 N 0.47802 0.07759 0.43655 0.0
N494 N 0.49197 0.08427 0.45909 0.0
C495 C 0.49151 0.09365 0.49373 0.0
C496 C 0.47681 0.09355 0.49146 0.0
C497 C 0.45279 0.07971 0.43303 0.0
H498 H 0.45265 0.07713 0.39516 0.0
H499 H 0.4427 0.06886 0.45013 0.0
H500 H 0.45077 0.09017 0.43771 0.0
O501 O 0.48958 0.07643 0.33561 0.0
O502 O 0.51395 0.08846 0.3687 0.0
H503 H 0.51495 0.11278 0.51503 0.0
H504 H 0.49999 0.1051 0.56146 0.0
C505 C 0.5045 0.10172 0.53006 0.0
H506 H 0.5087 0.09329 0.54125 0.0
H507 H 0.53568 0.11646 0.42697 0.0
O508 O 0.45335 0.05263 0.35844 0.0
C509 C 0.50484 0.08584 0.3333 0.0
Co510 Co 0.74732 0.61914 0.75963 0.0
Co511 Co 0.75182 0.59672 0.68814 0.0
C512 C 0.7742 0.63302 0.68972 0.0
O513 O 0.76599 0.63462 0.72237 0.0
O514 O 0.77045 0.61905 0.67348 0.0
C515 C 0.74385 0.64543 0.79713 0.0
O516 O 0.74759 0.65152 0.75469 0.0
C517 C 0.75246 0.58314 0.59623 0.0
C518 C 0.75104 0.55998 0.61643 0.0
C519 C 0.75228 0.56949 0.57824 0.0
N520 N 0.75117 0.58167 0.64298 0.0
N521 N 0.75015 0.56772 0.65479 0.0
C522 C 0.75517 0.59791 0.56994 0.0
H523 H 0.76708 0.6034 0.5517 0.0
H524 H 0.75488 0.60695 0.59391 0.0
H525 H 0.7456 0.59443 0.54298 0.0
C526 C 0.7147 0.60367 0.71627 0.0
N527 N 0.7298 0.6059 0.72013 0.0
N528 N 0.73163 0.59643 0.69002 0.0
C529 C 0.7176 0.58765 0.66647 0.0
C530 C 0.70652 0.59211 0.68191 0.0
C531 C 0.70856 0.61285 0.74406 0.0
H532 H 0.70933 0.61074 0.78192 0.0
H533 H 0.71643 0.62604 0.73734 0.0
H534 H 0.69587 0.60929 0.73481 0.0
O535 O 0.7536 0.60601 0.7984 0.0
O536 O 0.75548 0.5891 0.74855 0.0
H537 H 0.71966 0.56694 0.64678 0.0
H538 H 0.70115 0.56591 0.6276 0.0
C539 C 0.71437 0.57419 0.63308 0.0
H540 H 0.72009 0.57949 0.59891 0.0
H541 H 0.74924 0.56366 0.68914 0.0
O542 O 0.7421 0.63148 0.805 0.0
C543 C 0.75612 0.59432 0.78982 0.0
Co544 Co 0.39216 0.14922 0.73955 0.0
Co545 Co 0.41632 0.1834 0.69701 0.0
C546 C 0.37998 0.16863 0.68898 0.0
O547 O 0.37695 0.15559 0.71015 0.0
O548 O 0.39454 0.18007 0.68283 0.0
C549 C 0.36444 0.11798 0.76265 0.0
O550 O 0.35649 0.12187 0.73252 0.0
C551 C 0.43015 0.20812 0.62404 0.0
C552 C 0.45517 0.22457 0.64898 0.0
C553 C 0.44445 0.22214 0.61299 0.0
N554 N 0.4321 0.2025 0.66514 0.0
N555 N 0.44707 0.21243 0.68008 0.0
C556 C 0.41555 0.19927 0.59318 0.0
H557 H 0.40819 0.18633 0.60356 0.0
H558 H 0.41937 0.19999 0.55612 0.0
H559 H 0.40808 0.20522 0.59564 0.0
C560 C 0.41286 0.14011 0.6844 0.0
N561 N 0.40813 0.15077 0.69714 0.0
N562 N 0.41784 0.16498 0.67779 0.0
C563 C 0.42865 0.16364 0.65044 0.0
C564 C 0.42609 0.14792 0.6543 0.0
C565 C 0.40604 0.12351 0.70538 0.0
H566 H 0.40385 0.124 0.74328 0.0
H567 H 0.3942 0.11518 0.68856 0.0
H568 H 0.41435 0.11857 0.70084 0.0
O569 O 0.40336 0.16304 0.79376 0.0
O570 O 0.42068 0.18742 0.76499 0.0
H571 H 0.45068 0.18639 0.64213 0.0
H572 H 0.44613 0.17253 0.59349 0.0
C573 C 0.44083 0.17706 0.62003 0.0
H574 H 0.43485 0.18284 0.60126 0.0
H575 H 0.45183 0.2108 0.71114 0.0
O576 O 0.37966 0.12731 0.76728 0.0
C577 C 0.41441 0.17776 0.79942 0.0
Co578 Co 0.84552 0.24198 0.75712 0.0
Co579 Co 0.81911 0.23844 0.68552 0.0
C580 C 0.82967 0.21333 0.69313 0.0
O581 O 0.8403 0.22126 0.72442 0.0
O582 O 0.82074 0.21863 0.67647 0.0
C583 C 0.87562 0.246 0.79488 0.0
O584 O 0.87703 0.23979 0.75527 0.0
C585 C 0.80179 0.232 0.59702 0.0
C586 C 0.78753 0.24445 0.60553 0.0
C587 C 0.79047 0.23484 0.5752 0.0
N588 N 0.8053 0.23935 0.63885 0.0
N589 N 0.79682 0.24687 0.64372 0.0
C590 C 0.80988 0.22327 0.57702 0.0
H591 H 0.80246 0.21016 0.58546 0.0
H592 H 0.82222 0.22811 0.59202 0.0
H593 H 0.81078 0.22453 0.53836 0.0
C594 C 0.86425 0.27376 0.70893 0.0
N595 N 0.85086 0.25907 0.71434 0.0
N596 N 0.84003 0.25724 0.68268 0.0
C597 C 0.84642 0.27041 0.65475 0.0
C598 C 0.86195 0.28144 0.67076 0.0
C599 C 0.87828 0.28077 0.74232 0.0
H600 H 0.87379 0.27733 0.77866 0.0
H601 H 0.88635 0.27575 0.73421 0.0
H602 H 0.88541 0.29422 0.74 0.0
O603 O 0.82715 0.23885 0.79627 0.0
O604 O 0.80837 0.23688 0.74611 0.0
H605 H 0.82861 0.27471 0.62236 0.0
H606 H 0.84687 0.28146 0.58789 0.0
C607 C 0.83817 0.27187 0.61187 0.0
H608 H 0.83233 0.26017 0.59268 0.0
H609 H 0.79723 0.25349 0.67334 0.0
O610 O 0.86344 0.24788 0.80135 0.0
C611 C 0.81328 0.23719 0.78761 0.0
Co612 Co 0.39384 0.25247 0.2675 0.0
Co613 Co 0.41257 0.23892 0.21032 0.0
C614 C 0.37691 0.21856 0.22826 0.0
O615 O 0.37711 0.23008 0.25146 0.0
O616 O 0.38984 0.22013 0.20995 0.0
C617 C 0.36789 0.25831 0.28315 0.0
O618 O 0.36248 0.24963 0.24471 0.0
C619 C 0.42122 0.22709 0.12742 0.0
C620 C 0.44447 0.22879 0.14805 0.0
C621 C 0.43332 0.22414 0.11193 0.0
N622 N 0.42513 0.23343 0.1706 0.0
N623 N 0.43908 0.23451 0.18272 0.0
C624 C 0.40551 0.22264 0.10353 0.0
H625 H 0.39903 0.22797 0.12217 0.0
H626 H 0.40771 0.22698 0.06683 0.0
H627 H 0.39773 0.20919 0.10283 0.0
C628 C 0.4071 0.27745 0.19309 0.0
N629 N 0.40512 0.26378 0.2133 0.0
N630 N 0.41316 0.25822 0.18922 0.0
C631 C 0.42065 0.26833 0.15301 0.0
C632 C 0.41691 0.28069 0.15405 0.0
C633 C 0.39927 0.2868 0.21025 0.0
H634 H 0.40212 0.28973 0.24785 0.0
H635 H 0.38589 0.2791 0.20683 0.0
H636 H 0.40322 0.29814 0.19013 0.0
O637 O 0.40904 0.25216 0.31408 0.0
O638 O 0.42226 0.24244 0.27352 0.0
H639 H 0.43992 0.26322 0.13964 0.0
H640 H 0.44031 0.27877 0.10264 0.0
C641 C 0.43226 0.26701 0.12026 0.0
H642 H 0.42528 0.25779 0.0931 0.0
H643 H 0.44475 0.23885 0.21494 0.0
O644 O 0.38204 0.26227 0.2977 0.0
C645 C 0.41975 0.24787 0.31144 0.0
Co646 Co 0.74631 0.13757 0.25948 0.0
Co647 Co 0.75562 0.16557 0.18667 0.0
C648 C 0.77567 0.14967 0.1964 0.0
O649 O 0.7661 0.14051 0.22821 0.0
O650 O 0.7734 0.16037 0.17641 0.0
C651 C 0.73884 0.10572 0.28599 0.0
O652 O 0.7423 0.10486 0.24193 0.0
C653 C 0.76178 0.18457 0.09877 0.0
C654 C 0.75548 0.20295 0.1222 0.0
C655 C 0.76084 0.19803 0.08386 0.0
N656 N 0.757 0.18162 0.14374 0.0
N657 N 0.75322 0.19263 0.15736 0.0
C658 C 0.76791 0.17519 0.07177 0.0
H659 H 0.75806 0.16629 0.04877 0.0
H660 H 0.7784 0.18348 0.04953 0.0
H661 H 0.77154 0.16836 0.09546 0.0
C662 C 0.71496 0.12361 0.20937 0.0
N663 N 0.73068 0.13504 0.21484 0.0
N664 N 0.73463 0.1466 0.18356 0.0
C665 C 0.72152 0.14284 0.15692 0.0
C666 C 0.70865 0.12815 0.1724 0.0
C667 C 0.70628 0.10873 0.23926 0.0
H668 H 0.71144 0.10072 0.2325 0.0
H669 H 0.69307 0.10174 0.23175 0.0
H670 H 0.70828 0.11226 0.27672 0.0
O671 O 0.75148 0.15627 0.3003 0.0
O672 O 0.75841 0.17597 0.2483 0.0
H673 H 0.70871 0.14895 0.10479 0.0
H674 H 0.72994 0.1562 0.09302 0.0
C675 C 0.72091 0.15396 0.12081 0.0
H676 H 0.72414 0.16576 0.13732 0.0
H677 H 0.74919 0.19318 0.19089 0.0
O678 O 0.7388 0.11838 0.30028 0.0
C679 C 0.7562 0.17104 0.29041 0.0
Co680 Co 0.84521 0.59783 0.27869 0.0
Co681 Co 0.82133 0.5847 0.19392 0.0
C682 C 0.84045 0.62015 0.21266 0.0
O683 O 0.84692 0.6175 0.24816 0.0
O684 O 0.8301 0.6085 0.18739 0.0
C685 C 0.87575 0.61787 0.32224 0.0
O686 O 0.87942 0.6252 0.28139 0.0
C687 C 0.80137 0.57891 0.11045 0.0
C688 C 0.79474 0.55376 0.09153 0.0
C689 C 0.79335 0.56691 0.07672 0.0
N690 N 0.80773 0.57328 0.14227 0.0
N691 N 0.80337 0.5581 0.13149 0.0
C692 C 0.80155 0.59469 0.11596 0.0
H693 H 0.80165 0.59756 0.15361 0.0
H694 H 0.81272 0.6046 0.09957 0.0
H695 H 0.7907 0.59414 0.09953 0.0
C696 C 0.86024 0.58154 0.22926 0.0
N697 N 0.84828 0.5851 0.23433 0.0
N698 N 0.8391 0.58057 0.19663 0.0
C699 C 0.84549 0.57465 0.16531 0.0
C700 C 0.85893 0.5749 0.1853 0.0
C701 C 0.87279 0.58462 0.26563 0.0
H702 H 0.86739 0.58273 0.30107 0.0
H703 H 0.88286 0.59738 0.26272 0.0
H704 H 0.87786 0.57641 0.26071 0.0
O705 O 0.82416 0.58531 0.30964 0.0
O706 O 0.80696 0.5767 0.24997 0.0
H707 H 0.83193 0.5583 0.10998 0.0
H708 H 0.85143 0.5746 0.09248 0.0
C709 C 0.84068 0.57144 0.11484 0.0
H710 H 0.83506 0.57864 0.10329 0.0
H711 H 0.80647 0.55079 0.15111 0.0
O712 O 0.86183 0.60541 0.32811 0.0
C713 C 0.80976 0.57768 0.29371 0.0
Co714 Co 0.57953 0.06897 0.88421 0.0
Co715 Co 0.56927 0.09158 0.9353 0.0
C716 C 0.54593 0.05585 0.92121 0.0
O717 O 0.55663 0.05403 0.89969 0.0
O718 O 0.54907 0.06963 0.93742 0.0
C719 C 0.58279 0.04139 0.86216 0.0
O720 O 0.57182 0.03436 0.89523 0.0
C721 C 0.5595 0.10252 0.01718 0.0
C722 C 0.56211 0.12599 0.9946 0.0
C723 C 0.55747 0.11528 0.03191 0.0
N724 N 0.56534 0.10563 0.97341 0.0
N725 N 0.567 0.11972 0.96009 0.0
C726 C 0.55449 0.08688 0.04238 0.0
H727 H 0.55817 0.0792 0.02252 0.0
H728 H 0.56016 0.08931 0.07752 0.0
H729 H 0.5411 0.0802 0.04727 0.0
C730 C 0.60351 0.08023 0.9608 0.0
N731 N 0.59119 0.08026 0.93773 0.0
N732 N 0.58752 0.09043 0.95818 0.0
C733 C 0.59777 0.0976 0.99435 0.0
C734 C 0.60808 0.09121 -0.00247 0.0
C735 C 0.60993 0.0691 0.94932 0.0
H736 H 0.61664 0.07291 0.91567 0.0
H737 H 0.59962 0.05655 0.94495 0.0
H738 H 0.61805 0.06903 0.97707 0.0
O739 O 0.58043 0.084 0.83557 0.0
O740 O 0.57315 0.10024 0.87052 0.0
H741 H 0.59544 0.11889 0.00148 0.0
H742 H 0.61098 0.1189 0.03775 0.0
C743 C 0.59861 0.11119 0.02309 0.0
H744 H 0.58992 0.10605 0.05261 0.0
H745 H 0.57109 0.12486 0.92711 0.0
O746 O 0.58856 0.05645 0.85433 0.0
C747 C 0.57758 0.09573 0.83415 0.0
Co748 Co 0.9369 0.52059 0.89852 0.0
Co749 Co 0.91871 0.49049 0.9642 0.0
C750 C 0.9537 0.50393 0.9431 0.0
O751 O 0.95328 0.51454 0.91683 0.0
O752 O 0.94104 0.49344 0.96475 0.0
C753 C 0.96184 0.553 0.88247 0.0
O754 O 0.96569 0.55159 0.92569 0.0
C755 C 0.90911 0.46931 0.04647 0.0
C756 C 0.88255 0.45409 0.03599 0.0
C757 C 0.89502 0.45688 0.06644 0.0
N758 N 0.9051 0.4736 0.00608 0.0
N759 N 0.88925 0.46435 -0.0003 0.0
C760 C 0.92581 0.47817 0.0673 0.0
H761 H 0.93272 0.49071 0.05311 0.0
H762 H 0.92519 0.47871 0.10598 0.0
H763 H 0.93242 0.47166 0.0581 0.0
C764 C 0.92453 0.53492 0.96815 0.0
N765 N 0.92647 0.52268 0.95202 0.0
N766 N 0.91915 0.51015 0.98054 0.0
C767 C 0.91247 0.51414 0.01609 0.0
C768 C 0.91573 0.52996 0.00938 0.0
C769 C 0.92974 0.55053 0.9426 0.0
H770 H 0.92919 0.5485 0.9043 0.0
H771 H 0.94244 0.55947 0.95248 0.0
H772 H 0.92191 0.55572 0.95191 0.0
O773 O 0.92079 0.50436 0.85548 0.0
O774 O 0.90838 0.48295 0.90226 0.0
H775 H 0.89206 0.49257 0.043 0.0
H776 H 0.90041 0.50946 0.08353 0.0
C777 C 0.90344 0.50313 0.05612 0.0
H778 H 0.91099 0.49854 0.07208 0.0
H779 H 0.88297 0.46533 0.97112 0.0
O780 O 0.9492 0.54128 0.86426 0.0
C781 C 0.91005 0.48958 0.86244 0.0
Co782 Co 0.48598 0.42141 0.89552 0.0
Co783 Co 0.51513 0.42563 0.95641 0.0
C784 C 0.50614 0.45195 0.94895 0.0
O785 O 0.49417 0.44365 0.92168 0.0
O786 O 0.51499 0.44632 0.96387 0.0
C787 C 0.45554 0.41892 0.86641 0.0
O788 O 0.45768 0.42886 0.90116 0.0
C789 C 0.53369 0.43249 0.04176 0.0
C790 C 0.55069 0.42349 0.02715 0.0
C791 C 0.5465 0.43132 0.06055 0.0
N792 N 0.53058 0.42592 -0.00107 0.0
N793 N 0.54073 0.4205 0.99026 0.0
C794 C 0.52386 0.43888 0.06487 0.0
H795 H 0.51135 0.43282 0.05028 0.0
H796 H 0.52332 0.43694 0.10328 0.0
H797 H 0.5296 0.45212 0.05809 0.0
C798 C 0.46845 0.39217 0.95428 0.0
N799 N 0.48191 0.40622 0.94335 0.0
N800 N 0.49421 0.4076 0.96817 0.0
C801 C 0.48897 0.39438 0.99561 0.0
C802 C 0.47247 0.38416 0.98754 0.0
C803 C 0.45216 0.38638 0.9323 0.0
H804 H 0.44885 0.396 0.93559 0.0
H805 H 0.44253 0.37517 0.94922 0.0
H806 H 0.45279 0.38404 0.89454 0.0
O807 O 0.50143 0.42066 0.85048 0.0
O808 O 0.52249 0.42424 0.89339 0.0
H809 H 0.49361 0.37824 0.0385 0.0
H810 H 0.50472 0.39952 0.05431 0.0
C811 C 0.49995 0.39084 0.02464 0.0
H812 H 0.51044 0.39261 0.00316 0.0
H813 H 0.54096 0.41491 0.95907 0.0
O814 O 0.46599 0.41457 0.85907 0.0
C815 C 0.51535 0.42188 0.85424 0.0
Co816 Co 0.60279 0.7479 0.71895 0.0
Co817 Co 0.58536 0.75946 0.7893 0.0
C818 C 0.62082 0.77987 0.77141 0.0
O819 O 0.61998 0.76925 0.74248 0.0
O820 O 0.60823 0.77796 0.79298 0.0
C821 C 0.62742 0.74082 0.69005 0.0
O822 O 0.63448 0.74834 0.72909 0.0
C823 C 0.57578 0.7707 0.873 0.0
C824 C 0.54911 0.75863 0.86352 0.0
C825 C 0.56161 0.76876 0.89328 0.0
N826 N 0.57179 0.76216 0.83297 0.0
N827 N 0.55587 0.75507 0.82735 0.0
C828 C 0.5926 0.7792 0.89303 0.0
H829 H 0.5995 0.77331 0.88076 0.0
H830 H 0.59225 0.77905 0.93185 0.0
H831 H 0.59906 0.79203 0.88098 0.0
C832 C 0.58921 0.71969 0.78271 0.0
N833 N 0.59147 0.73427 0.76951 0.0
N834 N 0.58462 0.73931 0.80024 0.0
C835 C 0.578 0.72815 0.83461 0.0
C836 C 0.58066 0.71535 0.82454 0.0
C837 C 0.59448 0.70986 0.75448 0.0
H838 H 0.59282 0.71121 0.71669 0.0
H839 H 0.60758 0.7144 0.76096 0.0
H840 H 0.58746 0.69678 0.76394 0.0
O841 O 0.58777 0.75062 0.67794 0.0
O842 O 0.57573 0.75918 0.72758 0.0
H843 H 0.55816 0.72859 0.8685 0.0
H844 H 0.56878 0.72148 0.90542 0.0
C845 C 0.57026 0.73027 0.87764 0.0
H846 H 0.57787 0.74274 0.89149 0.0
H847 H 0.54959 0.74761 0.79908 0.0
O848 O 0.61348 0.73874 0.67995 0.0
C849 C 0.57759 0.75527 0.68644 0.0
Co850 Co 0.24293 0.84499 0.74911 0.0
Co851 Co 0.23198 0.81147 0.79656 0.0
C852 C 0.20925 0.82454 0.78825 0.0
O853 O 0.21995 0.83775 0.76923 0.0
O854 O 0.21248 0.81349 0.79923 0.0
C855 C 0.2521 0.87905 0.74259 0.0
O856 O 0.2466 0.87747 0.78559 0.0
C857 C 0.21893 0.78698 0.86989 0.0
C858 C 0.23056 0.77226 0.85523 0.0
C859 C 0.22029 0.77395 0.88628 0.0
N860 N 0.22793 0.79267 0.83096 0.0
N861 N 0.23463 0.78367 0.82184 0.0
C862 C 0.21114 0.79537 0.89413 0.0
H863 H 0.19809 0.7893 0.88447 0.0
H864 H 0.21702 0.80832 0.88343 0.0
H865 H 0.21207 0.79478 0.93269 0.0
C866 C 0.2702 0.85526 0.81691 0.0
N867 N 0.2556 0.84429 0.79927 0.0
N868 N 0.25024 0.83038 0.8214 0.0
C869 C 0.2608 0.83228 0.85557 0.0
C870 C 0.27401 0.84802 0.8534 0.0
C871 C 0.28109 0.87151 0.79516 0.0
H872 H 0.27873 0.87107 0.75708 0.0
H873 H 0.2786 0.88068 0.81131 0.0
H874 H 0.29409 0.87537 0.80061 0.0
O875 O 0.24352 0.8315 0.69731 0.0
O876 O 0.23596 0.80773 0.73125 0.0
H877 H 0.25976 0.80991 0.87402 0.0
H878 H 0.26607 0.8245 0.92146 0.0
C879 C 0.25792 0.81942 0.89076 0.0
H880 H 0.24529 0.81373 0.90367 0.0
H881 H 0.24248 0.78571 0.79385 0.0
O882 O 0.25202 0.86703 0.72281 0.0
C883 C 0.24059 0.81689 0.69543 0.0
Co884 Co 0.13735 0.39331 0.7109 0.0
Co885 Co 0.17037 0.41289 0.76334 0.0
C886 C 0.15318 0.37652 0.75787 0.0
O887 O 0.14167 0.37637 0.7347 0.0
O888 O 0.1654 0.38987 0.77113 0.0
C889 C 0.10469 0.36838 0.69384 0.0
O890 O 0.10594 0.363 0.73509 0.0
C891 C 0.19299 0.42365 0.84176 0.0
C892 C 0.21299 0.44729 0.81661 0.0
C893 C 0.20802 0.43661 0.85399 0.0
N894 N 0.18912 0.42662 0.79921 0.0
N895 N 0.20106 0.44078 0.78438 0.0
C896 C 0.18309 0.40801 0.86771 0.0
H897 H 0.18802 0.39982 0.86026 0.0
H898 H 0.17023 0.40194 0.85612 0.0
H899 H 0.18366 0.41002 0.90599 0.0
C900 C 0.12718 0.40939 0.78112 0.0
N901 N 0.13853 0.40701 0.76022 0.0
N902 N 0.15239 0.41513 0.78298 0.0
C903 C 0.15026 0.42296 0.81921 0.0
C904 C 0.13423 0.41945 0.81943 0.0
C905 C 0.10965 0.40091 0.76718 0.0
H906 H 0.10867 0.40155 0.72867 0.0
H907 H 0.10391 0.38791 0.77724 0.0
H908 H 0.10297 0.40626 0.78452 0.0
O909 O 0.15281 0.40552 0.66058 0.0
O910 O 0.17624 0.42002 0.69769 0.0
H911 H 0.17466 0.44173 0.83415 0.0
H912 H 0.15962 0.44123 0.87373 0.0
C913 C 0.16325 0.43363 0.85316 0.0
H914 H 0.16552 0.42594 0.87767 0.0
H915 H 0.20118 0.44589 0.75197 0.0
O916 O 0.11604 0.38208 0.67989 0.0
C917 C 0.16791 0.41585 0.66025 0.0
Co918 Co 0.41643 0.94471 0.08562 0.0
Co919 Co 0.42774 0.92318 0.03154 0.0
C920 C 0.44578 0.95957 0.02299 0.0
O921 O 0.43638 0.96132 0.05129 0.0
O922 O 0.44372 0.94558 0.01316 0.0
C923 C 0.40993 0.97037 0.11309 0.0
O924 O 0.41967 0.97865 0.07846 0.0
C925 C 0.43741 0.91023 0.95211 0.0
C926 C 0.43149 0.88587 0.97743 0.0
C927 C 0.43759 0.89622 0.93935 0.0
N928 N 0.43118 0.90816 0.99542 0.0
N929 N 0.42768 0.89358 0.0104 0.0
C930 C 0.44419 0.92587 0.92566 0.0
H931 H 0.45551 0.93501 0.9433 0.0
H932 H 0.4354 0.93034 0.92666 0.0
H933 H 0.44721 0.92477 0.88894 0.0
C934 C 0.38548 0.92222 0.03703 0.0
N935 N 0.40149 0.92831 0.0448 0.0
N936 N 0.40651 0.91977 0.02096 0.0
C937 C 0.39405 0.90845 0.99568 0.0
C938 C 0.38019 0.90933 0.00574 0.0
C939 C 0.37529 0.92755 0.06321 0.0
H940 H 0.37884 0.92936 0.10064 0.0
H941 H 0.37759 0.93939 0.04898 0.0
H942 H 0.36214 0.91855 0.06044 0.0
O943 O 0.42175 0.93385 0.13546 0.0
O944 O 0.43023 0.91891 0.09829 0.0
H945 H 0.3968 0.88789 0.98025 0.0
H946 H 0.38494 0.89152 0.93742 0.0
C947 C 0.39557 0.89739 0.9612 0.0
H948 H 0.40656 0.9045 0.93951 0.0
H949 H 0.42272 0.8889 0.0432 0.0
O950 O 0.4064 0.95572 0.11955 0.0
C951 C 0.42696 0.92385 0.13594 0.0
Co952 Co 0.06083 0.48107 0.10435 0.0
Co953 Co 0.08675 0.51064 0.04641 0.0
C954 C 0.05061 0.49912 0.04139 0.0
O955 O 0.04668 0.48736 0.06971 0.0
O956 O 0.06544 0.50883 0.03073 0.0
C957 C 0.0327 0.4514 0.13706 0.0
O958 O 0.02478 0.45331 0.10223 0.0
C959 C 0.10222 0.5297 0.96182 0.0
C960 C 0.12559 0.54915 0.98991 0.0
C961 C 0.11629 0.54394 0.94955 0.0
N962 N 0.1032 0.52668 0.00726 0.0
N963 N 0.11733 0.53819 0.02362 0.0
C964 C 0.08744 0.51996 0.93226 0.0
H965 H 0.07763 0.50992 0.95256 0.0
H966 H 0.09053 0.51452 0.90249 0.0
H967 H 0.0831 0.52797 0.91782 0.0
C968 C 0.0752 0.46444 0.05192 0.0
N969 N 0.07441 0.47782 0.06284 0.0
N970 N 0.08552 0.49028 0.03896 0.0
C971 C 0.09388 0.48526 0.0123 0.0
C972 C 0.08754 0.46872 0.01947 0.0
C973 C 0.06376 0.44782 0.07055 0.0
H974 H 0.05107 0.44527 0.06668 0.0
H975 H 0.06506 0.43827 0.052 0.0
H976 H 0.06613 0.44745 0.1084 0.0
O977 O 0.07385 0.49785 0.15153 0.0
O978 O 0.09283 0.51851 0.11106 0.0
H979 H 0.11543 0.49052 0.97267 0.0
H980 H 0.10377 0.4993 0.95018 0.0
C981 C 0.10817 0.49628 0.98249 0.0
H982 H 0.1161 0.50773 0.00158 0.0
H983 H 0.12102 0.53895 0.05834 0.0
O984 O 0.04776 0.46139 0.14202 0.0
C985 C 0.08629 0.51201 0.14986 0.0
Co986 Co 0.51807 0.5815 0.11153 0.0
Co987 Co 0.48992 0.57005 0.03891 0.0
C988 C 0.50756 0.55175 0.05077 0.0
O989 O 0.5164 0.56174 0.08238 0.0
O990 O 0.49651 0.5533 0.03008 0.0
C991 C 0.54939 0.58948 0.1464 0.0
O992 O 0.55067 0.58334 0.10647 0.0
C993 C 0.46994 0.55914 0.95386 0.0
C994 C 0.45225 0.56735 0.96799 0.0
C995 C 0.45632 0.55903 0.93601 0.0
N996 N 0.47385 0.5673 0.99453 0.0
N997 N 0.46335 0.57233 0.00253 0.0
C998 C 0.4781 0.55024 0.93553 0.0
H999 H 0.49144 0.55775 0.94051 0.0
H1000 H 0.47535 0.54705 0.89806 0.0
H1001 H 0.47374 0.53884 0.95579 0.0
C1002 C 0.53205 0.61109 0.05378 0.0
N1003 N 0.51988 0.5962 0.06505 0.0
N1004 N 0.50834 0.5913 0.03333 0.0
C1005 C 0.51297 0.60287 0.00014 0.0
C1006 C 0.52818 0.61579 0.01204 0.0
C1007 C 0.54709 0.62053 0.08255 0.0
H1008 H 0.54394 0.61884 0.12027 0.0
H1009 H 0.55556 0.61591 0.07558 0.0
H1010 H 0.55328 0.63369 0.07408 0.0
O1011 O 0.4992 0.57556 0.15162 0.0
O1012 O 0.47902 0.56665 0.10057 0.0
H1013 H 0.49257 0.60111 0.96336 0.0
H1014 H 0.51113 0.61018 0.92942 0.0
C1015 C 0.5038 0.6007 0.9556 0.0
H1016 H 0.50019 0.58861 0.94042 0.0
H1017 H 0.46347 0.57872 0.03237 0.0
O1018 O 0.5369 0.59075 0.15392 0.0
C1019 C 0.48419 0.56954 0.14247 0.0
Co1020 Co 0.0665 0.58737 0.63069 0.0
Co1021 Co 0.08276 0.57375 0.56327 0.0
C1022 C 0.04768 0.55421 0.58435 0.0
O1023 O 0.04896 0.56542 0.61153 0.0
O1024 O 0.05997 0.55554 0.56243 0.0
C1025 C 0.04206 0.59501 0.65272 0.0
O1026 O 0.0362 0.5878 0.61239 0.0
C1027 C 0.09093 0.56097 0.48015 0.0
C1028 C 0.11763 0.57254 0.48713 0.0
C1029 C 0.10472 0.56247 0.45845 0.0
N1030 N 0.09555 0.56975 0.5198 0.0
N1031 N 0.11149 0.57647 0.52402 0.0
C1032 C 0.07392 0.55282 0.46141 0.0
H1033 H 0.06724 0.5587 0.47547 0.0
H1034 H 0.07393 0.55335 0.42263 0.0
H1035 H 0.06744 0.53988 0.4724 0.0
C1036 C 0.07915 0.61376 0.56139 0.0
N1037 N 0.0772 0.59963 0.57765 0.0
N1038 N 0.08346 0.59371 0.54778 0.0
C1039 C 0.08918 0.60375 0.51049 0.0
C1040 C 0.0866 0.61679 0.51791 0.0
C1041 C 0.07481 0.62456 0.5885 0.0
H1042 H 0.07656 0.62357 0.62645 0.0
H1043 H 0.06184 0.62068 0.58226 0.0
H1044 H 0.0824 0.63745 0.57766 0.0
O1045 O 0.08213 0.58606 0.67234 0.0
O1046 O 0.09265 0.57493 0.62584 0.0
H1047 H 0.10789 0.60169 0.47493 0.0
H1048 H 0.09682 0.60825 0.43776 0.0
C1049 C 0.09577 0.60021 0.46725 0.0
H1050 H 0.08757 0.58748 0.45638 0.0
H1051 H 0.11821 0.58411 0.55152 0.0
O1052 O 0.05567 0.59705 0.66649 0.0
C1053 C 0.09164 0.58048 0.66549 0.0
Co1054 Co 0.40606 0.46487 0.60297 0.0
Co1055 Co 0.42039 0.49699 0.54536 0.0
C1056 C 0.43776 0.478 0.55175 0.0
O1057 O 0.42666 0.46759 0.57817 0.0
O1058 O 0.43691 0.49006 0.53562 0.0
C1059 C 0.39714 0.43224 0.62465 0.0
O1060 O 0.40277 0.43241 0.58253 0.0
C1061 C 0.42766 0.51524 0.45851 0.0
C1062 C 0.43294 0.53957 0.48221 0.0
C1063 C 0.43189 0.53063 0.4428 0.0
N1064 N 0.42597 0.51493 0.50513 0.0
N1065 N 0.42911 0.5295 0.51919 0.0
C1066 C 0.42642 0.50139 0.43024 0.0
H1067 H 0.43838 0.50507 0.41397 0.0
H1068 H 0.42265 0.4905 0.4525 0.0
H1069 H 0.41749 0.49833 0.40155 0.0
C1070 C 0.37751 0.45599 0.54389 0.0
N1071 N 0.39312 0.46608 0.55554 0.0
N1072 N 0.39868 0.47986 0.53244 0.0
C1073 C 0.38655 0.47901 0.50576 0.0
C1074 C 0.37283 0.46385 0.51199 0.0
C1075 C 0.36731 0.43933 0.56406 0.0
H1076 H 0.37405 0.43262 0.56199 0.0
H1077 H 0.3556 0.43231 0.54522 0.0
H1078 H 0.36492 0.4404 0.60153 0.0
O1079 O 0.41029 0.4816 0.65018 0.0
O1080 O 0.42183 0.50482 0.61042 0.0
H1081 H 0.37499 0.49146 0.47488 0.0
H1082 H 0.39272 0.49399 0.44484 0.0
C1083 C 0.3873 0.49308 0.47983 0.0
H1084 H 0.39489 0.50455 0.4992 0.0
H1085 H 0.42878 0.5326 0.55404 0.0
O1086 O 0.39558 0.44419 0.63755 0.0
C1087 C 0.41678 0.49699 0.64863 0.0
Co1088 Co 0.51533 0.93899 0.59223 0.0
Co1089 Co 0.48655 0.91392 0.53045 0.0
C1090 C 0.4956 0.94913 0.53526 0.0
O1091 O 0.50768 0.953 0.56217 0.0
O1092 O 0.48655 0.93451 0.5221 0.0
C1093 C 0.54684 0.96641 0.61427 0.0
O1094 O 0.54728 0.97043 0.57009 0.0
C1095 C 0.46877 0.90286 0.44305 0.0
C1096 C 0.44903 0.87809 0.45997 0.0
C1097 C 0.45486 0.88978 0.42508 0.0
N1098 N 0.47126 0.89908 0.48636 0.0
N1099 N 0.45956 0.88413 0.49606 0.0
C1100 C 0.47842 0.91941 0.42158 0.0
H1101 H 0.49022 0.92665 0.43984 0.0
H1102 H 0.48077 0.91841 0.38407 0.0
H1103 H 0.47135 0.9258 0.42383 0.0
C1104 C 0.53314 0.92627 0.53734 0.0
N1105 N 0.51967 0.92702 0.54735 0.0
N1106 N 0.50776 0.917 0.51974 0.0
C1107 C 0.51346 0.91004 0.48983 0.0
C1108 C 0.52976 0.91562 0.50017 0.0
C1109 C 0.54835 0.93424 0.56611 0.0
H1110 H 0.54534 0.93472 0.60332 0.0
H1111 H 0.5563 0.94684 0.55336 0.0
H1112 H 0.5551 0.92752 0.56359 0.0
O1113 O 0.49935 0.92372 0.63744 0.0
O1114 O 0.47866 0.90546 0.59474 0.0
H1115 H 0.49386 0.88737 0.46524 0.0
H1116 H 0.51115 0.89659 0.42581 0.0
C1117 C 0.50365 0.899 0.45064 0.0
H1118 H 0.49792 0.90475 0.43061 0.0
H1119 H 0.45825 0.87841 0.52827 0.0
O1120 O 0.53471 0.95344 0.62941 0.0
C1121 C 0.48547 0.91097 0.63413 0.0
Co1122 Co 0.24928 0.39604 0.20996 0.0
Co1123 Co 0.23168 0.41275 0.25709 0.0
C1124 C 0.21533 0.37655 0.24804 0.0
O1125 O 0.22767 0.37765 0.22708 0.0
O1126 O 0.21512 0.3892 0.26194 0.0
C1127 C 0.25861 0.3724 0.19116 0.0
O1128 O 0.24891 0.36478 0.22651 0.0
C1129 C 0.21623 0.42063 0.33265 0.0
C1130 C 0.22117 0.44524 0.31322 0.0
C1131 C 0.2142 0.4334 0.3475 0.0
N1132 N 0.22403 0.42471 0.29143 0.0
N1133 N 0.22674 0.43933 0.27958 0.0
C1134 C 0.21249 0.40558 0.35933 0.0
H1135 H 0.22061 0.40094 0.34802 0.0
H1136 H 0.21389 0.40801 0.39752 0.0
H1137 H 0.19972 0.39606 0.35234 0.0
C1138 C 0.27287 0.41301 0.28566 0.0
N1139 N 0.25919 0.40932 0.26221 0.0
N1140 N 0.2521 0.41675 0.28173 0.0
C1141 C 0.26125 0.4256 0.31823 0.0
C1142 C 0.27464 0.42346 0.322 0.0
C1143 C 0.2833 0.4057 0.27497 0.0
H1144 H 0.28968 0.41066 0.24127 0.0
H1145 H 0.2755 0.39236 0.27091 0.0
H1146 H 0.29236 0.40819 0.30287 0.0
O1147 O 0.24737 0.40897 0.15937 0.0
O1148 O 0.23391 0.42007 0.19124 0.0
H1149 H 0.25386 0.44345 0.32535 0.0
H1150 H 0.26845 0.44511 0.36843 0.0
C1151 C 0.25766 0.43644 0.34783 0.0
H1152 H 0.24762 0.4289 0.3723 0.0
H1153 H 0.2329 0.44549 0.24937 0.0
O1154 O 0.26203 0.38687 0.18217 0.0
C1155 C 0.24086 0.41781 0.15633 0.0
Co1156 Co 0.60624 0.85096 0.24042 0.0
Co1157 Co 0.58103 0.82148 0.29965 0.0
C1158 C 0.6163 0.83042 0.29384 0.0
O1159 O 0.62027 0.84299 0.26883 0.0
O1160 O 0.60163 0.82116 0.30677 0.0
C1161 C 0.63431 0.88158 0.21259 0.0
O1162 O 0.64159 0.88014 0.24987 0.0
C1163 C 0.5671 0.79925 0.3787 0.0
C1164 C 0.54066 0.78865 0.36769 0.0
C1165 C 0.55204 0.78831 0.39711 0.0
N1166 N 0.5648 0.80566 0.33966 0.0
N1167 N 0.54897 0.79924 0.33307 0.0
C1168 C 0.5834 0.80478 0.40038 0.0
H1169 H 0.59198 0.81764 0.39118 0.0
H1170 H 0.58245 0.80358 0.43904 0.0
H1171 H 0.58829 0.79711 0.387 0.0
C1172 C 0.5937 0.86805 0.29935 0.0
N1173 N 0.59414 0.85464 0.28647 0.0
N1174 N 0.58438 0.84245 0.31359 0.0
C1175 C 0.57798 0.84786 0.34617 0.0
C1176 C 0.58348 0.86426 0.33796 0.0
C1177 C 0.60186 0.88371 0.2726 0.0
H1178 H 0.60147 0.88119 0.23462 0.0
H1179 H 0.61478 0.89085 0.28353 0.0
H1180 H 0.59588 0.89102 0.27875 0.0
O1181 O 0.59173 0.83514 0.19368 0.0
O1182 O 0.57288 0.81474 0.23525 0.0
H1183 H 0.55521 0.82963 0.37439 0.0
H1184 H 0.56777 0.84546 0.41559 0.0
C1185 C 0.56786 0.83779 0.38645 0.0
H1186 H 0.57281 0.83022 0.39993 0.0
H1187 H 0.54385 0.80224 0.30526 0.0
O1188 O 0.61971 0.87083 0.20408 0.0
C1189 C 0.57879 0.82138 0.19603 0.0
Co1190 Co 0.15137 0.75649 0.2502 0.0
Co1191 Co 0.18066 0.75871 0.30591 0.0
C1192 C 0.17298 0.78583 0.30758 0.0
O1193 O 0.16055 0.77809 0.28151 0.0
O1194 O 0.18183 0.77978 0.31851 0.0
C1195 C 0.12027 0.75437 0.23655 0.0
O1196 O 0.12165 0.75887 0.28057 0.0
C1197 C 0.20108 0.76366 0.38707 0.0
C1198 C 0.21896 0.75722 0.36026 0.0
C1199 C 0.21497 0.76326 0.39895 0.0
N1200 N 0.19678 0.75788 0.34347 0.0
N1201 N 0.2074 0.75384 0.32775 0.0
C1202 C 0.19307 0.77107 0.41497 0.0
H1203 H 0.1811 0.76792 0.3998 0.0
H1204 H 0.19136 0.76675 0.4517 0.0
H1205 H 0.20106 0.78448 0.41546 0.0
C1206 C 0.13378 0.72575 0.30416 0.0
N1207 N 0.14732 0.73983 0.29364 0.0
N1208 N 0.15951 0.74112 0.31887 0.0
C1209 C 0.154 0.72815 0.3475 0.0
C1210 C 0.1375 0.7179 0.33891 0.0
C1211 C 0.11807 0.71924 0.27807 0.0
H1212 H 0.12048 0.72268 0.24065 0.0
H1213 H 0.11097 0.72455 0.29297 0.0
H1214 H 0.11074 0.7058 0.28066 0.0
O1215 O 0.16596 0.75675 0.20081 0.0
O1216 O 0.18646 0.75754 0.24017 0.0
H1217 H 0.17323 0.72366 0.36613 0.0
H1218 H 0.15694 0.7163 0.40886 0.0
C1219 C 0.16427 0.72615 0.38368 0.0
H1220 H 0.17103 0.73755 0.4038 0.0
H1221 H 0.20722 0.74953 0.29403 0.0
O1222 O 0.1313 0.75236 0.21807 0.0
C1223 C 0.1794 0.75683 0.20172 0.0
H1224 H 0.33173 0.10177 0.7793 0.0
H1225 H 0.37728 0.10772 0.83146 0.0
H1226 H 0.36379 0.09424 0.905 0.0
H1227 H 0.32107 0.11317 0.87467 0.0
H1228 H 0.29949 0.0991 0.87296 0.0
H1229 H 0.31106 0.10454 0.81984 0.0
H1230 H 0.30109 0.07421 0.80235 0.0
H1231 H 0.28918 0.06858 0.85533 0.0
H1232 H 0.30369 0.0619 0.84569 0.0
H1233 H 0.34769 0.0872 0.97868 0.0
H1234 H 0.32956 0.08499 0.04382 0.0
H1235 H 0.29426 0.08287 0.94352 0.0
C1236 C 0.33868 0.09952 0.80524 0.0
C1237 C 0.35555 0.10585 0.79968 0.0
C1238 C 0.36432 0.10297 0.8349 0.0
C1239 C 0.35674 0.09528 0.87684 0.0
C1240 C 0.34032 0.09024 0.88267 0.0
C1241 C 0.33128 0.09188 0.84732 0.0
C1242 C 0.31454 0.08767 0.8645 0.0
C1243 C 0.31138 0.10197 0.85761 0.0
C1244 C 0.30134 0.07216 0.84055 0.0
C1245 C 0.31606 0.08466 0.91573 0.0
C1246 C 0.33087 0.08585 0.92545 0.0
C1247 C 0.33584 0.0857 0.97133 0.0
C1248 C 0.32552 0.08455 0.00815 0.0
C1249 C 0.31046 0.08365 -0.00123 0.0
C1250 C 0.30556 0.08322 0.95188 0.0
H1251 H 0.89694 0.23477 0.80453 0.0
H1252 H 0.87846 0.26262 0.87549 0.0
H1253 H 0.89215 0.26206 0.94795 0.0
H1254 H 0.88888 0.20805 0.88833 0.0
H1255 H 0.90661 0.20587 0.88256 0.0
H1256 H 0.89963 0.21241 0.83341 0.0
H1257 H 0.92793 0.23837 0.82593 0.0
H1258 H 0.93507 0.23181 0.8752 0.0
H1259 H 0.93671 0.25157 0.87575 0.0
H1260 H 0.90144 0.25274 0.01563 0.0
H1261 H 0.90625 0.23597 0.07219 0.0
H1262 H 0.91958 0.21482 0.95798 0.0
C1263 C 0.8964 0.24137 0.83475 0.0
C1264 C 0.88665 0.24871 0.83446 0.0
C1265 C 0.88586 0.25688 0.87498 0.0
C1266 C 0.8937 0.25674 0.91627 0.0
C1267 C 0.90248 0.24859 0.91629 0.0
C1268 C 0.90413 0.24128 0.87633 0.0
C1269 C 0.91202 0.2312 0.88724 0.0
C1270 C 0.90113 0.21334 0.87202 0.0
C1271 C 0.92894 0.23869 0.86469 0.0
C1272 C 0.91327 0.23289 0.93994 0.0
C1273 C 0.90814 0.24332 0.95597 0.0
C1274 C 0.90599 0.24496 0.00356 0.0
C1275 C 0.90868 0.23533 0.03545 0.0
C1276 C 0.91336 0.22416 0.01948 0.0
C1277 C 0.91632 0.22348 0.97134 0.0
H1278 H 0.77971 0.67921 0.04257 0.0
H1279 H 0.78829 0.72601 0.99274 0.0
H1280 H 0.769 0.71242 0.92819 0.0
H1281 H 0.78145 0.66442 0.93971 0.0
H1282 H 0.76578 0.64359 0.94884 0.0
H1283 H 0.77635 0.65615 -0.00194 0.0
H1284 H 0.74898 0.65033 0.03469 0.0
H1285 H 0.73825 0.63759 0.98541 0.0
H1286 H 0.73521 0.65426 0.00129 0.0
H1287 H 0.7547 0.69511 0.85988 0.0
H1288 H 0.7461 0.67538 0.79492 0.0
H1289 H 0.74596 0.63955 0.88939 0.0
C1290 C 0.77697 0.68652 0.01929 0.0
C1291 C 0.78548 0.70364 0.02265 0.0
C1292 C 0.78189 0.71285 0.99084 0.0
C1293 C 0.77086 0.70522 0.95417 0.0
C1294 C 0.76334 0.68836 0.95019 0.0
C1295 C 0.76603 0.67907 0.98239 0.0
C1296 C 0.75846 0.66156 0.96648 0.0
C1297 C 0.77127 0.65614 0.96304 0.0
C1298 C 0.74438 0.65027 -0.0011 0.0
C1299 C 0.75223 0.66276 0.91876 0.0
C1300 C 0.75477 0.6782 0.91045 0.0
C1301 C 0.75215 0.68283 0.86643 0.0
C1302 C 0.74733 0.67156 0.82965 0.0
C1303 C 0.74527 0.65591 0.83715 0.0
C1304 C 0.74709 0.65131 0.88275 0.0
H1305 H 0.10668 0.37204 0.59926 0.0
H1306 H 0.07823 0.33822 0.70918 0.0
H1307 H 0.06522 0.31633 0.65066 0.0
H1308 H 0.07616 0.35108 0.49784 0.0
H1309 H 0.09282 0.35558 0.45886 0.0
H1310 H 0.09538 0.36956 0.50523 0.0
H1311 H 0.12038 0.36813 0.53492 0.0
H1312 H 0.11775 0.35395 0.48972 0.0
H1313 H 0.1181 0.34865 0.5501 0.0
H1314 H 0.06098 0.29723 0.58662 0.0
H1315 H 0.06537 0.28256 0.52245 0.0
H1316 H 0.09767 0.32847 0.45431 0.0
C1317 C 0.09709 0.36024 0.61074 0.0
C1318 C 0.09341 0.35683 0.65875 0.0
C1319 C 0.08114 0.34112 0.67254 0.0
C1320 C 0.07366 0.32861 0.63945 0.0
C1321 C 0.07853 0.33207 0.5928 0.0
C1322 C 0.08982 0.3476 0.57829 0.0
C1323 C 0.09537 0.3476 0.52856 0.0
C1324 C 0.08958 0.35648 0.49567 0.0
C1325 C 0.11399 0.355 0.52574 0.0
C1326 C 0.08649 0.32953 0.51876 0.0
C1327 C 0.07641 0.32083 0.55558 0.0
C1328 C 0.06846 0.30391 0.55705 0.0
C1329 C 0.07115 0.29569 0.52058 0.0
C1330 C 0.08189 0.3044 0.48343 0.0
C1331 C 0.08922 0.32149 0.4819 0.0
H1332 H 0.66015 0.75267 0.68713 0.0
H1333 H 0.61552 0.72233 0.61096 0.0
H1334 H 0.63147 0.72186 0.54353 0.0
H1335 H 0.67962 0.77787 0.60076 0.0
H1336 H 0.6997 0.78115 0.61235 0.0
H1337 H 0.68518 0.7751 0.65893 0.0
H1338 H 0.68862 0.75018 0.67616 0.0
H1339 H 0.7033 0.75623 0.62946 0.0
H1340 H 0.68574 0.73609 0.62983 0.0
H1341 H 0.65156 0.73003 0.4794 0.0
H1342 H 0.6739 0.74638 0.42449 0.0
H1343 H 0.70574 0.77134 0.54165 0.0
C1344 C 0.65373 0.74531 0.65708 0.0
C1345 C 0.63662 0.73749 0.65432 0.0
C1346 C 0.62864 0.72837 0.61387 0.0
C1347 C 0.63761 0.72795 0.57547 0.0
C1348 C 0.65453 0.73656 0.57823 0.0
C1349 C 0.66253 0.74491 0.61832 0.0
C1350 C 0.68063 0.75541 0.60988 0.0
C1351 C 0.68661 0.77343 0.6211 0.0
C1352 C 0.69013 0.74909 0.638 0.0
C1353 C 0.68139 0.75267 0.55798 0.0
C1354 C 0.6663 0.74138 0.54063 0.0
C1355 C 0.66353 0.73853 0.49272 0.0
C1356 C 0.67629 0.74792 0.46172 0.0
C1357 C 0.69157 0.76011 0.47877 0.0
C1358 C 0.69429 0.76191 0.52755 0.0
H1359 H 0.26127 0.88438 0.65112 0.0
H1360 H 0.24996 0.90575 0.76904 0.0
H1361 H 0.24976 0.92625 0.71645 0.0
H1362 H 0.28476 0.92368 0.57837 0.0
H1363 H 0.27589 0.91233 0.52546 0.0
H1364 H 0.2804 0.90294 0.5736 0.0
H1365 H 0.25048 0.8794 0.57367 0.0
H1366 H 0.24589 0.88868 0.52605 0.0
H1367 H 0.23433 0.88407 0.57952 0.0
H1368 H 0.24392 0.93945 0.65053 0.0
H1369 H 0.23229 0.94349 0.57822 0.0
H1370 H 0.24703 0.91343 0.50231 0.0
C1371 C 0.25942 0.89378 0.66626 0.0
C1372 C 0.25562 0.89346 0.71416 0.0
C1373 C 0.25298 0.9058 0.73249 0.0
C1374 C 0.25293 0.91756 0.70285 0.0
C1375 C 0.25576 0.91693 0.65516 0.0
C1376 C 0.25918 0.90545 0.63707 0.0
C1377 C 0.25889 0.90538 0.5841 0.0
C1378 C 0.27601 0.91145 0.56422 0.0
C1379 C 0.24666 0.88839 0.56477 0.0
C1380 C 0.25335 0.91756 0.57522 0.0
C1381 C 0.25219 0.92455 0.61652 0.0
C1382 C 0.24521 0.93443 0.61788 0.0
C1383 C 0.23857 0.93661 0.57659 0.0
C1384 C 0.23877 0.92875 0.53465 0.0
C1385 C 0.24699 0.91983 0.53361 0.0
H1386 H 0.6673 0.8991 0.20226 0.0
H1387 H 0.62217 0.89028 0.13859 0.0
H1388 H 0.63704 0.90456 0.06741 0.0
H1389 H 0.69527 0.93974 0.13804 0.0
H1390 H 0.71086 0.93426 0.13311 0.0
H1391 H 0.69772 0.92801 0.18363 0.0
H1392 H 0.68979 0.89806 0.16792 0.0
H1393 H 0.70265 0.90412 0.11734 0.0
H1394 H 0.68141 0.88911 0.11179 0.0
H1395 H 0.65486 0.91273 -0.00218 0.0
H1396 H 0.67449 0.91523 0.93713 0.0
H1397 H 0.70834 0.91943 0.04557 0.0
C1398 C 0.6607 0.9009 0.17422 0.0
C1399 C 0.64363 0.8936 0.17586 0.0
C1400 C 0.63529 0.89579 0.13802 0.0
C1401 C 0.64365 0.90398 0.09749 0.0
C1402 C 0.66037 0.91011 0.09561 0.0
C1403 C 0.66889 0.90898 0.13339 0.0
C1404 C 0.68623 0.91415 0.12006 0.0
C1405 C 0.69823 0.92999 0.1452 0.0
C1406 C 0.69023 0.90055 0.12982 0.0
C1407 C 0.6857 0.91699 0.06816 0.0
C1408 C 0.67084 0.91506 0.05489 0.0
C1409 C 0.66674 0.91481 0.00789 0.0
C1410 C 0.67792 0.91614 0.97361 0.0
C1411 C 0.69295 0.91756 0.98662 0.0
C1412 C 0.69706 0.91862 0.03449 0.0
H1413 H 0.08845 0.76463 0.99464 0.0
H1414 H 0.06029 0.78157 0.07109 0.0
H1415 H 0.06424 0.76999 0.14372 0.0
H1416 H 0.07705 0.72693 0.07065 0.0
H1417 H 0.09744 0.73035 0.0652 0.0
H1418 H 0.08841 0.73552 0.01757 0.0
H1419 H 0.11294 0.76491 0.01805 0.0
H1420 H 0.12191 0.75996 0.06583 0.0
H1421 H 0.11805 0.77665 0.0713 0.0
H1422 H 0.07658 0.76281 0.20958 0.0
H1423 H 0.09554 0.75985 0.26228 0.0
H1424 H 0.11574 0.74761 0.14324 0.0
C1425 C 0.08245 0.76521 0.02619 0.0
C1426 C 0.07404 0.77395 0.0272 0.0
C1427 C 0.06674 0.77486 0.06947 0.0
C1428 C 0.06887 0.76826 0.11092 0.0
C1429 C 0.07816 0.76063 0.10939 0.0
C1430 C 0.0846 0.75881 0.06787 0.0
C1431 C 0.09619 0.7525 0.0765 0.0
C1432 C 0.08936 0.7353 0.05629 0.0
C1433 C 0.11327 0.76421 0.05679 0.0
C1434 C 0.09619 0.7522 0.1294 0.0
C1435 C 0.08539 0.7565 0.14778 0.0
C1436 C 0.08473 0.75897 0.19567 0.0
C1437 C 0.0956 0.75735 0.22535 0.0
C1438 C 0.1071 0.75348 0.20689 0.0
C1439 C 0.10696 0.75038 0.15852 0.0
H1440 H 0.21664 0.29765 0.02998 0.0
H1441 H 0.24265 0.33057 0.91573 0.0
H1442 H 0.26196 0.35054 0.97229 0.0
H1443 H 0.21632 0.32529 0.10041 0.0
H1444 H 0.21871 0.31716 0.1549 0.0
H1445 H 0.20996 0.30399 0.10548 0.0
H1446 H 0.23184 0.29535 0.11161 0.0
H1447 H 0.24076 0.30866 0.16121 0.0
H1448 H 0.25309 0.31064 0.11093 0.0
H1449 H 0.27451 0.36879 0.04052 0.0
H1450 H 0.27777 0.38415 0.11304 0.0
H1451 H 0.24372 0.33942 0.18341 0.0
C1452 C 0.22673 0.30882 0.01665 0.0
C1453 C 0.22817 0.31255 0.96845 0.0
C1454 C 0.24134 0.32743 0.95251 0.0
C1455 C 0.25246 0.33879 0.98439 0.0
C1456 C 0.25032 0.335 0.03197 0.0
C1457 C 0.23781 0.32028 0.04799 0.0
C1458 C 0.23644 0.32012 0.10076 0.0
C1459 C 0.21936 0.31644 0.11624 0.0
C1460 C 0.2408 0.30797 0.12239 0.0
C1461 C 0.2493 0.33745 0.11174 0.0
C1462 C 0.25757 0.34568 0.07181 0.0
C1463 C 0.26843 0.36239 0.07218 0.0
C1464 C 0.2702 0.37103 0.1136 0.0
C1465 C 0.26097 0.36297 0.15386 0.0
C1466 C 0.25115 0.34587 0.1535 0.0
H1467 H 0.92299 0.69482 0.47385 0.0
H1468 H 0.90147 0.6631 0.5936 0.0
H1469 H 0.89582 0.63944 0.54479 0.0
H1470 H 0.89439 0.67253 0.39926 0.0
H1471 H 0.90685 0.67602 0.34813 0.0
H1472 H 0.91401 0.69071 0.39439 0.0
H1473 H 0.94007 0.68857 0.402 0.0
H1474 H 0.93299 0.67384 0.35524 0.0
H1475 H 0.93836 0.66898 0.41098 0.0
H1476 H 0.88633 0.61928 0.48114 0.0
H1477 H 0.87349 0.60446 0.40848 0.0
H1478 H 0.90093 0.64898 0.32906 0.0
C1479 C 0.91774 0.68298 0.4903 0.0
C1480 C 0.91268 0.68078 0.53747 0.0
C1481 C 0.90549 0.66507 0.55753 0.0
C1482 C 0.90234 0.65156 0.5301 0.0
C1483 C 0.90662 0.65401 0.48289 0.0
C1484 C 0.91438 0.6694 0.46324 0.0
C1485 C 0.91507 0.6686 0.41045 0.0
C1486 C 0.90709 0.67747 0.38673 0.0
C1487 C 0.93267 0.67539 0.39369 0.0
C1488 C 0.90522 0.6504 0.4032 0.0
C1489 C 0.90096 0.64216 0.44544 0.0
C1490 C 0.88998 0.62551 0.44785 0.0
C1491 C 0.88267 0.6172 0.40639 0.0
C1492 C 0.88625 0.62561 0.36322 0.0
C1493 C 0.89823 0.64221 0.36146 0.0
H1494 H 0.33486 0.24153 0.27872 0.0
H1495 H 0.37517 0.2775 0.36107 0.0
H1496 H 0.35619 0.27429 0.4245 0.0
H1497 H 0.30177 0.24976 0.329 0.0
H1498 H 0.28728 0.22827 0.32764 0.0
H1499 H 0.30285 0.23722 0.28336 0.0
H1500 H 0.31203 0.21641 0.3033 0.0
H1501 H 0.29675 0.20758 0.3478 0.0
H1502 H 0.31778 0.21509 0.36257 0.0
H1503 H 0.33486 0.26228 0.48508 0.0
H1504 H 0.313 0.24287 0.53695 0.0
H1505 H 0.28633 0.21431 0.41622 0.0
C1506 C 0.33958 0.24934 0.30909 0.0
C1507 C 0.35645 0.25982 0.31494 0.0
C1508 C 0.36226 0.26947 0.3558 0.0
C1509 C 0.35154 0.26776 0.39195 0.0
C1510 C 0.33506 0.25648 0.38649 0.0
C1511 C 0.32905 0.24759 0.34568 0.0
C1512 C 0.31153 0.23423 0.35149 0.0
C1513 C 0.30019 0.23758 0.32107 0.0
C1514 C 0.30943 0.21735 0.3407 0.0
C1515 C 0.30906 0.23612 0.40291 0.0
C1516 C 0.32258 0.24933 0.42214 0.0
C1517 C 0.32401 0.25221 0.47021 0.0
C1518 C 0.31157 0.24105 0.49946 0.0
C1519 C 0.29796 0.22712 0.48056 0.0
C1520 C 0.29644 0.22502 0.43157 0.0
H1521 H 0.76498 0.08852 0.52667 0.0
H1522 H 0.77314 0.0531 0.45427 0.0
H1523 H 0.75606 0.05278 0.38887 0.0
H1524 H 0.72234 0.07482 0.47657 0.0
H1525 H 0.72717 0.09572 0.4725 0.0
H1526 H 0.73558 0.08945 0.51922 0.0
H1527 H 0.76457 0.11176 0.49498 0.0
H1528 H 0.75633 0.11798 0.44823 0.0
H1529 H 0.77132 0.11213 0.43577 0.0
H1530 H 0.74422 0.06108 0.32497 0.0
H1531 H 0.73889 0.07739 0.26814 0.0
H1532 H 0.73845 0.10766 0.38121 0.0
C1533 C 0.76251 0.08011 0.49808 0.0
C1534 C 0.77026 0.07075 0.49559 0.0
C1535 C 0.76722 0.0603 0.45692 0.0
C1536 C 0.75746 0.05998 0.41973 0.0
C1537 C 0.75073 0.07009 0.42192 0.0
C1538 C 0.75297 0.07983 0.46045 0.0
C1539 C 0.74695 0.09162 0.45098 0.0
C1540 C 0.73212 0.08766 0.48164 0.0
C1541 C 0.7606 0.1094 0.45786 0.0
C1542 C 0.74215 0.08785 0.40008 0.0
C1543 C 0.74394 0.07506 0.38434 0.0
C1544 C 0.74231 0.07079 0.33714 0.0
C1545 C 0.73935 0.08018 0.30504 0.0
C1546 C 0.73822 0.09377 0.32026 0.0
C1547 C 0.73896 0.09717 0.36859 0.0
H1548 H -0.00016 0.43398 0.15092 0.0
H1549 H 0.04577 0.44385 0.21144 0.0
H1550 H 0.03179 0.4307 0.28472 0.0
H1551 H 0.98652 0.4451 0.24117 0.0
H1552 H 0.96529 0.42987 0.23781 0.0
H1553 H 0.97764 0.43537 0.18621 0.0
H1554 H 0.96984 0.40529 0.17352 0.0
H1555 H 0.95724 0.39963 0.22513 0.0
H1556 H 0.97292 0.39429 0.22001 0.0
H1557 H 0.01474 0.42355 0.35603 0.0
H1558 H 0.9956 0.42158 0.41771 0.0
H1559 H 0.96047 0.41542 0.31098 0.0
C1560 C 0.00682 0.43268 0.17881 0.0
C1561 C 0.02387 0.43997 0.17555 0.0
C1562 C 0.03267 0.43835 0.21317 0.0
C1563 C 0.02481 0.43082 0.25494 0.0
C1564 C 0.00812 0.42469 0.25824 0.0
C1565 C -0.00087 0.42521 0.22077 0.0
C1566 C 0.9819 0.42005 0.2353 0.0
C1567 C 0.97761 0.43339 0.22452 0.0
C1568 C 0.96976 0.40385 0.21212 0.0
C1569 C 0.98303 0.41794 0.28737 0.0
C1570 C 0.99809 0.42024 0.29985 0.0
C1571 C 0.00271 0.42118 0.34664 0.0
C1572 C 0.9918 0.42014 0.38147 0.0
C1573 C 0.97654 0.41831 0.36917 0.0
C1574 C 0.97195 0.41658 0.32159 0.0
H1575 H 0.58071 0.54502 0.30354 0.0
H1576 H 0.56667 0.56428 0.42097 0.0
H1577 H 0.5665 0.58499 0.36919 0.0
H1578 H 0.60476 0.58494 0.23625 0.0
H1579 H 0.597 0.57446 0.18149 0.0
H1580 H 0.60053 0.5643 0.22953 0.0
H1581 H 0.57066 0.54077 0.22438 0.0
H1582 H 0.5671 0.55077 0.1765 0.0
H1583 H 0.55441 0.54537 0.22785 0.0
H1584 H 0.56219 0.59934 0.30363 0.0
H1585 H 0.55212 0.60457 0.23003 0.0
H1586 H 0.56872 0.57597 0.15442 0.0
C1587 C 0.57819 0.55398 0.31875 0.0
C1588 C 0.57378 0.55312 0.36627 0.0
C1589 C 0.57014 0.56477 0.38465 0.0
C1590 C 0.57016 0.57667 0.35557 0.0
C1591 C 0.57397 0.57682 0.30836 0.0
C1592 C 0.578 0.56579 0.2901 0.0
C1593 C 0.57882 0.56657 0.23722 0.0
C1594 C 0.59632 0.57295 0.22013 0.0
C1595 C 0.56704 0.54989 0.21525 0.0
C1596 C 0.57342 0.57887 0.22835 0.0
C1597 C 0.57125 0.58507 0.26986 0.0
C1598 C 0.56423 0.59492 0.27089 0.0
C1599 C 0.55851 0.59779 0.22889 0.0
C1600 C 0.55967 0.59067 0.18659 0.0
C1601 C 0.568 0.58185 0.18606 0.0
H1602 H 0.44077 0.04445 0.27935 0.0
H1603 H 0.41445 0.00955 0.3892 0.0
H1604 H 0.39796 0.98913 0.32952 0.0
H1605 H 0.40627 0.02788 0.18804 0.0
H1606 H 0.42078 0.0318 0.14207 0.0
H1607 H 0.42659 0.04504 0.19231 0.0
H1608 H 0.45081 0.04029 0.207 0.0
H1609 H 0.44505 0.02699 0.15745 0.0
H1610 H 0.44698 0.01979 0.21411 0.0
H1611 H 0.38935 0.97098 0.2602 0.0
H1612 H 0.38993 0.95675 0.18878 0.0
H1613 H 0.42245 0.00314 0.12351 0.0
C1614 C 0.43101 0.03276 0.291 0.0
C1615 C 0.42885 0.02863 0.339 0.0
C1616 C 0.41625 0.01305 0.35267 0.0
C1617 C 0.40678 0.00137 0.31893 0.0
C1618 C 0.40996 0.00551 0.2717 0.0
C1619 C 0.42168 0.02094 0.25774 0.0
C1620 C 0.42492 0.02156 0.20565 0.0
C1621 C 0.4193 0.0322 0.18054 0.0
C1622 C 0.443 0.02749 0.19552 0.0
C1623 C 0.41417 0.0038 0.1931 0.0
C1624 C 0.40521 0.99485 0.23129 0.0
C1625 C 0.39598 0.97792 0.22978 0.0
C1626 C 0.39643 0.96993 0.18903 0.0
C1627 C 0.40625 0.97884 0.15052 0.0
C1628 C 0.41462 0.99601 0.15202 0.0
H1629 H 0.54593 0.96378 0.70918 0.0
H1630 H 0.57482 0.99513 0.59529 0.0
H1631 H 0.5922 0.01621 0.65243 0.0
H1632 H 0.54271 0.99196 0.76806 0.0
H1633 H 0.5436 0.98515 0.82627 0.0
H1634 H 0.53669 0.97096 0.77868 0.0
H1635 H 0.55878 0.9634 0.79772 0.0
H1636 H 0.56579 0.97763 0.84575 0.0
H1637 H 0.57982 0.97915 0.80086 0.0
H1638 H 0.60236 0.03563 0.7188 0.0
H1639 H 0.60341 0.05203 0.78687 0.0
H1640 H 0.56754 0.00827 0.85776 0.0
C1641 C 0.55631 0.97482 0.69628 0.0
C1642 C 0.55907 0.9778 0.64781 0.0
C1643 C 0.57252 0.99255 0.63229 0.0
C1644 C 0.58253 0.00455 0.66456 0.0
C1645 C 0.57899 0.00154 0.71213 0.0
C1646 C 0.56624 0.98694 0.72795 0.0
C1647 C 0.56313 0.98765 0.7796 0.0
C1648 C 0.5455 0.98372 0.78862 0.0
C1649 C 0.56713 0.97628 0.80764 0.0
C1650 C 0.57527 0.00529 0.78963 0.0
C1651 C 0.58471 0.01295 0.75074 0.0
C1652 C 0.59535 0.02969 0.74979 0.0
C1653 C 0.59582 0.03893 0.78865 0.0
C1654 C 0.5855 0.03141 0.82759 0.0
C1655 C 0.57573 0.01432 0.82882 0.0
H1656 H 0.96096 0.5556 0.78768 0.0
H1657 H 0.98956 0.58049 0.91015 0.0
H1658 H 0.01195 0.59957 0.85918 0.0
H1659 H 0.98987 0.55375 0.73107 0.0
H1660 H 0.98485 0.55681 0.67254 0.0
H1661 H 0.96939 0.54872 0.71662 0.0
H1662 H 0.96312 0.57196 0.70178 0.0
H1663 H 0.97862 0.58014 0.65712 0.0
H1664 H 0.97928 0.59284 0.70496 0.0
H1665 H 0.03316 0.61079 0.79831 0.0
H1666 H 0.0512 0.61297 0.73328 0.0
H1667 H 0.00913 0.5811 0.64933 0.0
C1668 C 0.97164 0.56553 0.80374 0.0
C1669 C 0.97352 0.56659 0.85282 0.0
C1670 C 0.98784 0.57948 0.87259 0.0
C1671 C 0.00059 0.59045 0.84386 0.0
C1672 C 0.99876 0.58847 0.79547 0.0
C1673 C 0.98451 0.57644 0.77549 0.0
C1674 C 0.98656 0.57496 0.7235 0.0
C1675 C 0.98244 0.55754 0.71023 0.0
C1676 C 0.97629 0.5803 0.69517 0.0
C1677 C 0.00452 0.587 0.71813 0.0
C1678 C 0.01123 0.59508 0.75968 0.0
C1679 C 0.02799 0.60495 0.76521 0.0
C1680 C 0.03816 0.60607 0.72814 0.0
C1681 C 0.03153 0.59725 0.68626 0.0
C1682 C 0.0145 0.58827 0.68054 0.0
H1683 H 0.43361 0.4296 0.86204 0.0
H1684 H 0.44661 0.39646 0.79635 0.0
H1685 H 0.42645 0.39069 0.73442 0.0
H1686 H 0.38868 0.407 0.82399 0.0
H1687 H 0.38929 0.42609 0.8148 0.0
H1688 H 0.40136 0.42425 0.86054 0.0
H1689 H 0.42732 0.44869 0.82583 0.0
H1690 H 0.41537 0.45063 0.78053 0.0
H1691 H 0.4324 0.44808 0.76533 0.0
H1692 H 0.41044 0.39358 0.67119 0.0
H1693 H 0.40061 0.40551 0.61199 0.0
H1694 H 0.39664 0.43572 0.7191 0.0
C1695 C 0.43176 0.42066 0.8356 0.0
C1696 C 0.44168 0.41351 0.83397 0.0
C1697 C 0.43915 0.40212 0.79829 0.0
C1698 C 0.4276 0.39864 0.76313 0.0
C1699 C 0.41848 0.40642 0.76451 0.0
C1700 C 0.42027 0.41706 0.80021 0.0
C1701 C 0.4109 0.42574 0.7899 0.0
C1702 C 0.39671 0.42045 0.82436 0.0
C1703 C 0.42217 0.44437 0.79038 0.0
C1704 C 0.40476 0.41939 0.74117 0.0
C1705 C 0.40882 0.40787 0.72768 0.0
C1706 C 0.40672 0.40219 0.68174 0.0
C1707 C 0.40114 0.40905 0.64826 0.0
C1708 C 0.39783 0.42152 0.66093 0.0
C1709 C 0.39876 0.42598 0.70846 0.0
H1710 H 0.31433 0.13256 0.11394 0.0
H1711 H 0.2763 0.13523 0.19103 0.0
H1712 H 0.29675 0.16106 0.2263 0.0
H1713 H 0.34498 0.14941 0.20411 0.0
H1714 H 0.36148 0.16082 0.16394 0.0
H1715 H 0.34389 0.14224 0.14506 0.0
H1716 H 0.33972 0.15763 0.0765 0.0
H1717 H 0.35732 0.17623 0.09508 0.0
H1718 H 0.33802 0.17536 0.08864 0.0
H1719 H 0.32102 0.18658 0.25287 0.0
H1720 H 0.34765 0.21083 0.26735 0.0
H1721 H 0.3703 0.19217 0.17255 0.0
C1722 C 0.31028 0.13855 0.13828 0.0
C1723 C 0.29363 0.13171 0.14993 0.0
C1724 C 0.28891 0.14006 0.18176 0.0
C1725 C 0.30047 0.15478 0.20201 0.0
C1726 C 0.31673 0.1611 0.18999 0.0
C1727 C 0.32167 0.15334 0.15872 0.0
C1728 C 0.33992 0.16301 0.15114 0.0
C1729 C 0.34804 0.15328 0.16702 0.0
C1730 C 0.34398 0.16838 0.09979 0.0
C1731 C 0.34442 0.17741 0.18305 0.0
C1732 C 0.33083 0.176 0.20517 0.0
C1733 C 0.33177 0.18783 0.23583 0.0
C1734 C 0.34699 0.20157 0.24382 0.0
C1735 C 0.36113 0.20343 0.2212 0.0
C1736 C 0.35977 0.19108 0.19065 0.0
H1737 H 0.8032 0.17067 0.14615 0.0
H1738 H 0.77981 0.12398 0.21742 0.0
H1739 H 0.8033 0.12063 0.19973 0.0
H1740 H 0.82273 0.15947 0.05391 0.0
H1741 H 0.84106 0.17905 0.05426 0.0
H1742 H 0.82189 0.17744 0.06957 0.0
H1743 H 0.83403 0.19168 0.14868 0.0
H1744 H 0.8532 0.1933 0.13365 0.0
H1745 H 0.84309 0.1834 0.18724 0.0
H1746 H 0.82949 0.1226 0.17798 0.0
H1747 H 0.85725 0.13002 0.15395 0.0
H1748 H 0.86432 0.17564 0.09756 0.0
C1749 C 0.80295 0.15966 0.15748 0.0
C1750 C 0.78962 0.14759 0.18315 0.0
C1751 C 0.78986 0.13344 0.19784 0.0
C1752 C 0.80314 0.13137 0.18784 0.0
C1753 C 0.81614 0.14355 0.16311 0.0
C1754 C 0.81621 0.15742 0.14806 0.0
C1755 C 0.83213 0.16894 0.12394 0.0
C1756 C 0.82928 0.17136 0.07235 0.0
C1757 C 0.84114 0.18529 0.14994 0.0
C1758 C 0.84102 0.15943 0.12847 0.0
C1759 C 0.83148 0.14477 0.15087 0.0
C1760 C 0.83707 0.13402 0.16019 0.0
C1761 C 0.8529 0.13838 0.1465 0.0
C1762 C 0.86303 0.15343 0.12392 0.0
C1763 C 0.85689 0.16401 0.11454 0.0
H1764 H 0.82385 0.63094 0.15787 0.0
H1765 H 0.86757 0.64782 0.24146 0.0
H1766 H 0.87536 0.67622 0.22378 0.0
H1767 H 0.84129 0.66238 0.06817 0.0
H1768 H 0.82333 0.66418 0.06322 0.0
H1769 H 0.82155 0.64506 0.08009 0.0
H1770 H 0.80611 0.64472 0.15514 0.0
H1771 H 0.80783 0.66382 0.13854 0.0
H1772 H 0.81528 0.6618 0.19468 0.0
H1773 H 0.87837 0.70265 0.19825 0.0
H1774 H 0.87574 0.7257 0.17002 0.0
H1775 H 0.82948 0.69203 0.10541 0.0
C1776 C 0.83515 0.64061 0.17201 0.0
C1777 C 0.84515 0.63714 0.20085 0.0
C1778 C 0.8597 0.65016 0.21933 0.0
C1779 C 0.86427 0.66634 0.20934 0.0
C1780 C 0.85412 0.66934 0.18107 0.0
C1781 C 0.83982 0.65688 0.16285 0.0
C1782 C 0.83074 0.66354 0.13535 0.0
C1783 C 0.82914 0.65849 0.08364 0.0
C1784 C 0.814 0.65815 0.15725 0.0
C1785 C 0.84215 0.68168 0.14128 0.0
C1786 C 0.85563 0.68471 0.16737 0.0
C1787 C 0.86786 0.70045 0.17786 0.0
C1788 C 0.86621 0.71348 0.16172 0.0
C1789 C 0.85234 0.71075 0.13579 0.0
C1790 C 0.84023 0.69458 0.12516 0.0
H1791 H 0.13106 0.31128 0.36526 0.0
H1792 H 0.13763 0.27381 0.29861 0.0
H1793 H 0.16317 0.29492 0.2632 0.0
H1794 H 0.14643 0.33987 0.27039 0.0
H1795 H 0.1565 0.35749 0.30771 0.0
H1796 H 0.13868 0.33944 0.32828 0.0
H1797 H 0.1547 0.33852 0.40044 0.0
H1798 H 0.17254 0.35661 0.38018 0.0
H1799 H 0.17347 0.33843 0.39191 0.0
H1800 H 0.18794 0.31992 0.23495 0.0
H1801 H 0.21067 0.34727 0.21673 0.0
H1802 H 0.18821 0.3687 0.30153 0.0
C1803 C 0.13789 0.30749 0.34338 0.0
C1804 C 0.13223 0.29084 0.33453 0.0
C1805 C 0.14157 0.28645 0.30559 0.0
C1806 C 0.15614 0.29836 0.28537 0.0
C1807 C 0.16127 0.31464 0.29446 0.0
C1808 C 0.15249 0.31924 0.32287 0.0
C1809 C 0.16078 0.33761 0.32695 0.0
C1810 C 0.14995 0.34397 0.30714 0.0
C1811 C 0.16566 0.34311 0.3779 0.0
C1812 C 0.17559 0.34257 0.2964 0.0
C1813 C 0.17561 0.32912 0.27803 0.0
C1814 C 0.18807 0.33056 0.24911 0.0
C1815 C 0.20093 0.34618 0.23896 0.0
C1816 C 0.20126 0.36019 0.25761 0.0
C1817 C 0.18831 0.35828 0.2865 0.0
H1818 H 0.70568 0.84292 0.33381 0.0
H1819 H 0.68158 0.79548 0.40104 0.0
H1820 H 0.65502 0.7929 0.3845 0.0
H1821 H 0.67834 0.85585 0.37635 0.0
H1822 H 0.67856 0.86621 0.32327 0.0
H1823 H 0.69596 0.86436 0.33881 0.0
H1824 H 0.69437 0.85077 0.2589 0.0
H1825 H 0.67698 0.85259 0.24311 0.0
H1826 H 0.67565 0.83298 0.24173 0.0
H1827 H 0.63118 0.79523 0.36256 0.0
H1828 H 0.61101 0.8025 0.33645 0.0
H1829 H 0.64981 0.84863 0.28368 0.0
C1830 C 0.69481 0.83196 0.34482 0.0
C1831 C 0.69579 0.81942 0.3688 0.0
C1832 C 0.68124 0.8053 0.38276 0.0
C1833 C 0.66604 0.80368 0.37347 0.0
C1834 C 0.6655 0.81625 0.35015 0.0
C1835 C 0.67943 0.83013 0.33594 0.0
C1836 C 0.67524 0.8419 0.31222 0.0
C1837 C 0.68245 0.85803 0.33929 0.0
C1838 C 0.6809 0.84472 0.26094 0.0
C1839 C 0.65681 0.83244 0.31568 0.0
C1840 C 0.65153 0.81767 0.33759 0.0
C1841 C 0.63513 0.80678 0.34539 0.0
C1842 C 0.62376 0.81108 0.33056 0.0
C1843 C 0.62876 0.8262 0.30829 0.0
C1844 C 0.64556 0.83698 0.30056 0.0
H1845 H 0.16196 0.86298 0.3549 0.0
H1846 H 0.20338 0.88073 0.44878 0.0
H1847 H 0.20573 0.85659 0.43118 0.0
H1848 H 0.14447 0.8204 0.38402 0.0
H1849 H 0.13799 0.81351 0.32502 0.0
H1850 H 0.13946 0.83219 0.34509 0.0
H1851 H 0.15871 0.84766 0.27606 0.0
H1852 H 0.15737 0.82904 0.25586 0.0
H1853 H 0.17696 0.84654 0.2679 0.0
H1854 H 0.20409 0.831 0.40255 0.0
H1855 H 0.19786 0.80488 0.36714 0.0
H1856 H 0.1572 0.80324 0.29251 0.0
C1857 C 0.17148 0.86178 0.37193 0.0
C1858 C 0.18248 0.87381 0.40328 0.0
C1859 C 0.19478 0.87172 0.42472 0.0
C1860 C 0.19625 0.85805 0.41488 0.0
C1861 C 0.18531 0.84652 0.38363 0.0
C1862 C 0.17311 0.84816 0.36263 0.0
C1863 C 0.16293 0.83392 0.33046 0.0
C1864 C 0.14516 0.82444 0.34717 0.0
C1865 C 0.16407 0.83964 0.27956 0.0
C1866 C 0.17134 0.82403 0.3367 0.0
C1867 C 0.18425 0.83159 0.36739 0.0
C1868 C 0.19397 0.82492 0.37859 0.0
C1869 C 0.19031 0.81005 0.35822 0.0
C1870 C 0.17699 0.80191 0.32711 0.0
C1871 C 0.16745 0.80911 0.31615 0.0
H1872 H 0.68596 0.86503 0.88747 0.0
H1873 H 0.7228 0.86044 0.80956 0.0
H1874 H 0.70164 0.83466 0.7761 0.0
H1875 H 0.6609 0.82211 0.91444 0.0
H1876 H 0.64195 0.82197 0.90792 0.0
H1877 H 0.65996 0.84029 0.92615 0.0
H1878 H 0.65642 0.85596 0.85725 0.0
H1879 H 0.63843 0.83768 0.83876 0.0
H1880 H 0.655 0.84854 0.79837 0.0
H1881 H 0.67699 0.80981 0.74995 0.0
H1882 H 0.64995 0.78643 0.73423 0.0
H1883 H 0.62841 0.80613 0.82951 0.0
C1884 C 0.68958 0.85859 0.86346 0.0
C1885 C 0.70611 0.86488 0.85107 0.0
C1886 C 0.71028 0.856 0.81955 0.0
C1887 C 0.69833 0.8413 0.80029 0.0
C1888 C 0.68221 0.83551 0.81295 0.0
C1889 C 0.67776 0.84376 0.84394 0.0
C1890 C 0.65947 0.83462 0.85166 0.0
C1891 C 0.65533 0.82944 0.9031 0.0
C1892 C 0.65189 0.84481 0.83554 0.0
C1893 C 0.65443 0.82 0.82003 0.0
C1894 C 0.6678 0.82086 0.79804 0.0
C1895 C 0.66641 0.80895 0.76699 0.0
C1896 C 0.65093 0.7957 0.75827 0.0
C1897 C 0.63697 0.79437 0.78058 0.0
C1898 C 0.6388 0.80676 0.81186 0.0
H1899 H 0.14035 0.84776 0.84439 0.0
H1900 H 0.11144 0.7983 0.89613 0.0
H1901 H 0.13256 0.79228 0.87068 0.0
H1902 H 0.15756 0.83796 0.74237 0.0
H1903 H 0.17732 0.85585 0.74858 0.0
H1904 H 0.1594 0.85622 0.76757 0.0
H1905 H 0.17188 0.86528 0.85023 0.0
H1906 H 0.18981 0.86493 0.8315 0.0
H1907 H 0.17853 0.85318 0.88163 0.0
H1908 H 0.15659 0.79151 0.84336 0.0
H1909 H 0.18328 0.79629 0.81815 0.0
H1910 H 0.19795 0.84648 0.7849 0.0
C1911 C 0.13842 0.83563 0.84981 0.0
C1912 C 0.1242 0.82349 0.87225 0.0
C1913 C 0.12222 0.80783 0.87928 0.0
C1914 C 0.13412 0.80424 0.86469 0.0
C1915 C 0.14801 0.81644 0.8432 0.0
C1916 C 0.15034 0.83184 0.83583 0.0
C1917 C 0.16693 0.84288 0.81418 0.0
C1918 C 0.1652 0.84856 0.76526 0.0
C1919 C 0.1774 0.85742 0.84632 0.0
C1920 C 0.17358 0.83129 0.81137 0.0
C1921 C 0.1623 0.81607 0.82787 0.0
C1922 C 0.16553 0.80334 0.83017 0.0
C1923 C 0.18081 0.80623 0.81583 0.0
C1924 C 0.19281 0.82179 0.79959 0.0
C1925 C 0.18903 0.83443 0.79682 0.0
H1926 H 0.18057 0.31597 0.86708 0.0
H1927 H 0.13564 0.27645 0.81056 0.0
H1928 H 0.12844 0.29622 0.77998 0.0
H1929 H 0.16375 0.34153 0.90178 0.0
H1930 H 0.18174 0.36025 0.88582 0.0
H1931 H 0.18342 0.34301 0.90446 0.0
H1932 H 0.19845 0.34433 0.82751 0.0
H1933 H 0.19679 0.36154 0.8086 0.0
H1934 H 0.18904 0.34369 0.77218 0.0
H1935 H 0.12615 0.31982 0.75397 0.0
H1936 H 0.12865 0.34619 0.73467 0.0
H1937 H 0.17494 0.37101 0.80796 0.0
C1938 C 0.16917 0.31148 0.84855 0.0
C1939 C 0.15873 0.29461 0.841 0.0
C1940 C 0.14395 0.28927 0.81641 0.0
C1941 C 0.1397 0.30041 0.79901 0.0
C1942 C 0.1503 0.3169 0.80656 0.0
C1943 C 0.1647 0.32248 0.83085 0.0
C1944 C 0.17393 0.34093 0.8334 0.0
C1945 C 0.17582 0.34677 0.8844 0.0
C1946 C 0.19054 0.34804 0.80896 0.0
C1947 C 0.16249 0.34478 0.80646 0.0
C1948 C 0.14894 0.33069 0.79146 0.0
C1949 C 0.13668 0.33096 0.76561 0.0
C1950 C 0.13825 0.34605 0.75478 0.0
C1951 C 0.152 0.36075 0.76972 0.0
C1952 C 0.16428 0.36003 0.79598 0.0
H1953 H 0.80099 0.63556 0.644 0.0
H1954 H 0.7802 0.66411 0.69686 0.0
H1955 H 0.80521 0.6893 0.6757 0.0
H1956 H 0.84014 0.66078 0.68767 0.0
H1957 H 0.85084 0.65867 0.6385 0.0
H1958 H 0.83059 0.64265 0.65221 0.0
H1959 H 0.82112 0.64416 0.56832 0.0
H1960 H 0.8414 0.66013 0.55423 0.0
H1961 H 0.82439 0.66334 0.54614 0.0
H1962 H 0.83297 0.71127 0.65653 0.0
H1963 H 0.862 0.72899 0.63856 0.0
H1964 H 0.86539 0.68666 0.59787 0.0
C1965 C 0.80158 0.64711 0.65006 0.0
C1966 C 0.78862 0.64786 0.67198 0.0
C1967 C 0.78997 0.66322 0.68021 0.0
C1968 C 0.80412 0.67762 0.66816 0.0
C1969 C 0.81683 0.6765 0.6478 0.0
C1970 C 0.81572 0.66168 0.6385 0.0
C1971 C 0.83166 0.66403 0.6193 0.0
C1972 C 0.83872 0.65606 0.65134 0.0
C1973 C 0.82951 0.65753 0.569 0.0
C1974 C 0.84195 0.68244 0.62048 0.0
C1975 C 0.83306 0.68935 0.63666 0.0
C1976 C 0.84003 0.70605 0.64321 0.0
C1977 C 0.85656 0.71601 0.63305 0.0
C1978 C 0.866 0.70925 0.61659 0.0
C1979 C 0.85849 0.69223 0.60988 0.0
H1980 H 0.28828 0.14876 0.64219 0.0
H1981 H 0.30949 0.19126 0.55161 0.0
H1982 H 0.33671 0.19552 0.56796 0.0
H1983 H 0.31959 0.16466 0.72897 0.0
H1984 H 0.31936 0.14579 0.73875 0.0
H1985 H 0.30119 0.14555 0.71942 0.0
H1986 H 0.29929 0.12779 0.64829 0.0
H1987 H 0.31742 0.12792 0.66751 0.0
H1988 H 0.31642 0.13468 0.60932 0.0
H1989 H 0.3615 0.19651 0.59682 0.0
H1990 H 0.38299 0.19298 0.63226 0.0
H1991 H 0.34663 0.14906 0.70193 0.0
C1992 C 0.29865 0.15889 0.62559 0.0
C1993 C 0.29668 0.16968 0.59561 0.0
C1994 C 0.31059 0.18278 0.57456 0.0
C1995 C 0.32616 0.18535 0.5837 0.0
C1996 C 0.32768 0.17466 0.61368 0.0
C1997 C 0.31437 0.16159 0.634 0.0
C1998 C 0.31964 0.15199 0.66484 0.0
C1999 C 0.31465 0.15201 0.71603 0.0
C2000 C 0.31278 0.13456 0.64637 0.0
C2001 C 0.33798 0.16188 0.65888 0.0
C2002 C 0.34224 0.17493 0.62938 0.0
C2003 C 0.35835 0.18622 0.61948 0.0
C2004 C 0.3705 0.18407 0.63985 0.0
C2005 C 0.3666 0.17061 0.6694 0.0
C2006 C 0.35004 0.15938 0.67911 0.0
H2007 H 0.84793 0.19855 0.71266 0.0
H2008 H 0.80627 0.19244 0.633 0.0
H2009 H 0.80286 0.16719 0.59928 0.0
H2010 H 0.86384 0.18276 0.62527 0.0
H2011 H 0.86959 0.17215 0.66645 0.0
H2012 H 0.86922 0.19016 0.68439 0.0
H2013 H 0.84962 0.17412 0.75218 0.0
H2014 H 0.84998 0.15607 0.73455 0.0
H2015 H 0.83086 0.15568 0.73949 0.0
H2016 H 0.80378 0.14301 0.57327 0.0
H2017 H 0.80802 0.11993 0.55908 0.0
H2018 H 0.84852 0.14026 0.65689 0.0
C2019 C 0.83809 0.19189 0.68816 0.0
C2020 C 0.82754 0.19773 0.6749 0.0
C2021 C 0.81474 0.18852 0.64302 0.0
C2022 C 0.81264 0.17407 0.62375 0.0
C2023 C 0.82331 0.16878 0.63699 0.0
C2024 C 0.8357 0.17725 0.66872 0.0
C2025 C 0.84515 0.16846 0.67747 0.0
C2026 C 0.86301 0.17902 0.66249 0.0
C2027 C 0.84382 0.16327 0.72898 0.0
C2028 C 0.83611 0.15381 0.64554 0.0
C2029 C 0.82362 0.15438 0.6225 0.0
C2030 C 0.81349 0.14238 0.59114 0.0
C2031 C 0.81604 0.12929 0.58331 0.0
C2032 C 0.82861 0.12819 0.60685 0.0
C2033 C 0.83884 0.14073 0.63825 0.0
H2034 H 0.98184 0.46964 0.46952 0.0
H2035 H 0.94495 0.47572 0.54167 0.0
H2036 H 0.96627 0.5012 0.57651 0.0
H2037 H 0.0117 0.48519 0.56106 0.0
H2038 H 0.02878 0.49559 0.52199 0.0
H2039 H 0.01063 0.47765 0.50252 0.0
H2040 H 0.00845 0.49368 0.43224 0.0
H2041 H 0.02664 0.51164 0.45137 0.0
H2042 H 0.00815 0.51226 0.44271 0.0
H2043 H 0.99136 0.5257 0.60461 0.0
H2044 H 0.01872 0.54865 0.62091 0.0
H2045 H 0.03962 0.52733 0.52928 0.0
C2046 C 0.97822 0.47633 0.49255 0.0
C2047 C 0.96165 0.47053 0.50314 0.0
C2048 C 0.9575 0.47976 0.5333 0.0
C2049 C 0.96955 0.49429 0.55329 0.0
C2050 C 0.98572 0.49954 0.54256 0.0
C2051 C 0.99011 0.49096 0.51261 0.0
C2052 C 0.00842 0.49952 0.50641 0.0
C2053 C 0.01528 0.48885 0.52406 0.0
C2054 C 0.01319 0.50458 0.45514 0.0
C2055 C 0.01359 0.51421 0.53765 0.0
C2056 C 0.00028 0.51391 0.55829 0.0
C2057 C 0.00189 0.5261 0.58861 0.0
C2058 C 0.01752 0.53908 0.59772 0.0
C2059 C 0.03138 0.53984 0.57643 0.0
C2060 C 0.02932 0.52713 0.5462 0.0
H2061 H 0.52561 0.50324 0.44842 0.0
H2062 H 0.5215 0.46068 0.51816 0.0
H2063 H 0.49405 0.45341 0.54562 0.0
H2064 H 0.50573 0.51344 0.53702 0.0
H2065 H 0.49563 0.52 0.49649 0.0
H2066 H 0.51473 0.52157 0.48077 0.0
H2067 H 0.50158 0.50456 0.40604 0.0
H2068 H 0.48243 0.50294 0.42154 0.0
H2069 H 0.4836 0.48482 0.41115 0.0
H2070 H 0.46732 0.45098 0.5667 0.0
H2071 H 0.44326 0.45376 0.58131 0.0
H2072 H 0.46473 0.49807 0.49846 0.0
C2073 C 0.51892 0.49232 0.46919 0.0
C2074 C 0.52573 0.48249 0.48092 0.0
C2075 C 0.51657 0.46839 0.50855 0.0
C2076 C 0.50094 0.46414 0.52431 0.0
C2077 C 0.49464 0.47412 0.5122 0.0
C2078 C 0.50332 0.48792 0.48533 0.0
C2079 C 0.49389 0.49677 0.47825 0.0
C2080 C 0.50304 0.51396 0.49941 0.0
C2081 C 0.49015 0.4973 0.42615 0.0
C2082 C 0.47856 0.48581 0.50558 0.0
C2083 C 0.47924 0.47279 0.52469 0.0
C2084 C 0.46663 0.46111 0.55183 0.0
C2085 C 0.453 0.46281 0.55991 0.0
C2086 C 0.45205 0.47614 0.54106 0.0
C2087 C 0.46503 0.48772 0.5133 0.0
H2088 H 0.51406 0.98259 0.54463 0.0
H2089 H 0.4691 0.94414 0.48486 0.0
H2090 H 0.46346 0.96461 0.45112 0.0
H2091 H 0.49853 0.00961 0.57405 0.0
H2092 H 0.51719 0.02784 0.55914 0.0
H2093 H 0.51771 0.01016 0.5796 0.0
H2094 H 0.5334 0.01062 0.5049 0.0
H2095 H 0.53284 0.02825 0.48412 0.0
H2096 H 0.52488 0.01025 0.44824 0.0
H2097 H 0.46267 0.98886 0.42257 0.0
H2098 H 0.46645 0.01575 0.40251 0.0
H2099 H 0.51184 0.03892 0.48044 0.0
C2100 C 0.50298 0.97848 0.52474 0.0
C2101 C 0.49207 0.96171 0.51734 0.0
C2102 C 0.47773 0.95687 0.49088 0.0
C2103 C 0.47438 0.96842 0.47154 0.0
C2104 C 0.48544 0.9848 0.47899 0.0
C2105 C 0.49941 0.98989 0.50508 0.0
C2106 C 0.50926 0.00832 0.50734 0.0
C2107 C 0.51076 0.01433 0.55805 0.0
C2108 C 0.52609 0.01473 0.4848 0.0
C2109 C 0.49864 0.01272 0.47832 0.0
C2110 C 0.48497 0.99893 0.46237 0.0
C2111 C 0.47331 -0.00023 0.43489 0.0
C2112 C 0.4756 0.01513 0.42364 0.0
C2113 C 0.48945 0.0295 0.43979 0.0
C2114 C 0.50114 0.0282 0.46737 0.0
H2115 H 0.4654 0.99097 0.05591 0.0
H2116 H 0.45559 0.96021 0.934 0.0
H2117 H 0.47882 0.9824 0.89315 0.0
H2118 H 0.47944 0.02963 0.98941 0.0
H2119 H 0.49508 0.0416 0.03137 0.0
H2120 H 0.47664 0.02381 0.05022 0.0
H2121 H 0.49363 0.01214 0.08673 0.0
H2122 H 0.51209 0.02985 0.06791 0.0
H2123 H 0.50798 0.00987 0.05076 0.0
H2124 H 0.50429 0.00611 0.86846 0.0
H2125 H 0.53071 0.0312 0.85942 0.0
H2126 H 0.52445 0.04806 0.99484 0.0
C2127 C 0.46802 0.98909 0.02033 0.0
C2128 C 0.45886 0.97377 -0.00169 0.0
C2129 C 0.46269 0.97167 0.95192 0.0
C2130 C 0.47576 0.98427 0.9282 0.0
C2131 C 0.48486 0.99904 0.95113 0.0
C2132 C 0.48116 0.00166 0.99594 0.0
C2133 C 0.49365 0.01853 0.01302 0.0
C2134 C 0.48573 0.02901 0.0215 0.0
C2135 C 0.50235 0.01753 0.05722 0.0
C2136 C 0.5051 0.02469 0.9713 0.0
C2137 C 0.49965 0.0132 0.93601 0.0
C2138 C 0.50858 0.01535 0.89538 0.0
C2139 C 0.5236 0.0296 0.89068 0.0
C2140 C 0.52951 0.04158 0.9262 0.0
C2141 C 0.52002 0.03921 0.96676 0.0
H2142 H 0.0178 0.48339 0.0621 0.0
H2143 H 0.05436 0.52038 0.97155 0.0
H2144 H 0.03332 0.52469 0.93518 0.0
H2145 H 0.98512 0.46651 0.97676 0.0
H2146 H 0.96959 0.46324 0.01872 0.0
H2147 H 0.98741 0.4626 0.0372 0.0
H2148 H 0.99334 0.4847 0.09951 0.0
H2149 H 0.97554 0.48538 0.08129 0.0
H2150 H 0.99509 0.50374 0.08172 0.0
H2151 H 0.00878 0.5255 0.90943 0.0
H2152 H 0.98214 0.52329 0.89687 0.0
H2153 H 0.96106 0.48589 0.00406 0.0
C2154 C 0.02137 0.49235 0.03449 0.0
C2155 C 0.03778 0.50154 0.01973 0.0
C2156 C 0.04192 0.51321 0.98363 0.0
C2157 C 0.03004 0.51572 0.9626 0.0
C2158 C 0.01404 0.5065 0.978 0.0
C2159 C 0.00965 0.49508 0.01316 0.0
C2160 C 0.9916 0.48713 0.02379 0.0
C2161 C 0.98292 0.46878 0.01349 0.0
C2162 C 0.98873 0.49044 0.07459 0.0
C2163 C 0.9866 0.49597 0.98929 0.0
C2164 C -0.00024 0.50702 0.96314 0.0
C2165 C 0.99836 0.51686 0.92957 0.0
C2166 C 0.98313 0.5155 0.92273 0.0
C2167 C 0.96943 0.50439 0.9494 0.0
C2168 C 0.97123 0.49442 0.98289 0.0
H2169 H 0.48923 0.52562 0.99251 0.0
H2170 H 0.53224 0.54708 0.08082 0.0
H2171 H 0.53699 0.52454 0.06146 0.0
H2172 H 0.47567 0.48432 0.02324 0.0
H2173 H 0.46854 0.47639 0.9654 0.0
H2174 H 0.4688 0.49461 0.98437 0.0
H2175 H 0.48638 0.5101 0.91254 0.0
H2176 H 0.48618 0.49191 0.89335 0.0
H2177 H 0.50526 0.5104 0.90223 0.0
H2178 H 0.53697 0.49967 0.0343 0.0
H2179 H 0.53175 0.4734 0.0027 0.0
H2180 H 0.48848 0.46742 0.93261 0.0
C2181 C 0.49971 0.52565 0.00752 0.0
C2182 C 0.51037 0.5382 0.03814 0.0
C2183 C 0.52387 0.53765 0.05731 0.0
C2184 C 0.52672 0.52491 0.04644 0.0
C2185 C 0.51597 0.51274 0.01634 0.0
C2186 C 0.50271 0.51294 0.99718 0.0
C2187 C 0.4928 0.49804 0.96694 0.0
C2188 C 0.47542 0.48773 0.98616 0.0
C2189 C 0.49265 0.50291 0.91573 0.0
C2190 C 0.50248 0.48938 0.97258 0.0
C2191 C 0.51586 0.49818 0.00097 0.0
C2192 C 0.52655 0.49266 0.01198 0.0
C2193 C 0.52343 0.47767 0.99388 0.0
C2194 C 0.50965 0.46824 0.96527 0.0
C2195 C 0.49914 0.47432 0.95422 0.0
H2196 H 0.26214 0.10882 0.94918 0.0
H2197 H 0.21315 0.07821 0.0015 0.0
H2198 H 0.20206 0.08206 0.92698 0.0
H2199 H 0.25391 0.13775 0.89451 0.0
H2200 H 0.26776 0.14154 0.84672 0.0
H2201 H 0.27142 0.13535 0.90275 0.0
H2202 H 0.27218 0.11113 0.86316 0.0
H2203 H 0.2683 0.11715 0.80708 0.0
H2204 H 0.25508 0.09685 0.82859 0.0
H2205 H 0.19667 0.08926 0.84546 0.0
H2206 H 0.19736 0.10117 0.76785 0.0
H2207 H 0.25003 0.12917 0.77553 0.0
C2208 C 0.24907 0.1028 0.94476 0.0
C2209 C 0.23845 0.09305 0.98051 0.0
C2210 C 0.22143 0.08568 0.97419 0.0
C2211 C 0.21506 0.08774 0.93203 0.0
C2212 C 0.22593 0.09741 0.89725 0.0
C2213 C 0.24257 0.10502 0.90364 0.0
C2214 C 0.25171 0.1157 0.8626 0.0
C2215 C 0.26178 0.13365 0.87755 0.0
C2216 C 0.26245 0.10985 0.83897 0.0
C2217 C 0.23763 0.11282 0.83172 0.0
C2218 C 0.22285 0.10209 0.85183 0.0
C2219 C 0.20819 0.09766 0.8294 0.0
C2220 C 0.20871 0.10448 0.78539 0.0
C2221 C 0.22377 0.11568 0.76457 0.0
C2222 C 0.23834 0.11999 0.78866 0.0
H2223 H 0.91042 0.16386 0.92996 0.0
H2224 H 0.91623 0.12716 0.00405 0.0
H2225 H 0.913 0.11264 0.92974 0.0
H2226 H 0.87925 0.13792 0.8616 0.0
H2227 H 0.88513 0.15025 0.80948 0.0
H2228 H 0.89145 0.15976 0.86581 0.0
H2229 H 0.92161 0.17406 0.83978 0.0
H2230 H 0.91539 0.16476 0.78289 0.0
H2231 H 0.92996 0.16212 0.81655 0.0
H2232 H 0.90476 0.0999 0.85099 0.0
H2233 H 0.8919 0.08984 0.77385 0.0
H2234 H 0.89173 0.13492 0.75084 0.0
C2235 C 0.91157 0.15307 0.93039 0.0
C2236 C 0.91363 0.14666 0.97275 0.0
C2237 C 0.91469 0.13231 0.97196 0.0
C2238 C 0.91296 0.12402 0.9299 0.0
C2239 C 0.9103 0.13032 0.88899 0.0
C2240 C 0.90977 0.14462 0.88882 0.0
C2241 C 0.9048 0.14778 0.84143 0.0
C2242 C 0.88924 0.14898 0.84483 0.0
C2243 C 0.91878 0.16308 0.81883 0.0
C2244 C 0.90173 0.13257 0.8158 0.0
C2245 C 0.90533 0.12284 0.84345 0.0
C2246 C 0.90219 0.10755 0.82869 0.0
C2247 C 0.89486 0.10193 0.78493 0.0
C2248 C 0.89055 0.11149 0.75696 0.0
C2249 C 0.89455 0.1272 0.77199 0.0
H2250 H 0.87728 0.76302 0.75489 0.0
H2251 H 0.9239 0.80656 0.77696 0.0
H2252 H 0.91536 0.80903 0.85698 0.0
H2253 H 0.85233 0.77494 0.82861 0.0
H2254 H 0.83992 0.75443 0.8497 0.0
H2255 H 0.84851 0.75798 0.79171 0.0
H2256 H 0.8619 0.74069 0.8115 0.0
H2257 H 0.85347 0.73716 0.86946 0.0
H2258 H 0.8751 0.746 0.86166 0.0
H2259 H 0.90364 0.80403 0.93768 0.0
H2260 H 0.88936 0.79268 0.01225 0.0
H2261 H 0.85041 0.75212 0.93732 0.0
C2262 C 0.8856 0.77318 0.7764 0.0
C2263 C 0.90132 0.78446 0.76039 0.0
C2264 C 0.91178 0.79781 0.78887 0.0
C2265 C 0.90703 0.79929 0.83424 0.0
C2266 C 0.8917 0.78747 0.84991 0.0
C2267 C 0.88105 0.77478 0.82159 0.0
C2268 C 0.86597 0.76278 0.848 0.0
C2269 C 0.85078 0.76253 0.82833 0.0
C2270 C 0.86401 0.74566 0.84764 0.0
C2271 C 0.87011 0.77028 0.89626 0.0
C2272 C 0.88488 0.78464 0.8965 0.0
C2273 C 0.89192 0.79299 0.93779 0.0
C2274 C 0.88375 0.78639 0.97998 0.0
C2275 C 0.86873 0.77155 0.98053 0.0
C2276 C 0.86173 0.76362 0.93795 0.0
H2277 H 0.09008 0.24737 0.54642 0.0
H2278 H 0.09518 0.21311 0.45736 0.0
H2279 H 0.10004 0.2008 0.52709 0.0
H2280 H 0.1215 0.25556 0.61986 0.0
H2281 H 0.11195 0.25718 0.67249 0.0
H2282 H 0.10612 0.26137 0.61674 0.0
H2283 H 0.07603 0.23974 0.6332 0.0
H2284 H 0.08181 0.2355 0.68923 0.0
H2285 H 0.07088 0.21925 0.64793 0.0
H2286 H 0.1082 0.1949 0.60513 0.0
H2287 H 0.11965 0.19663 0.68429 0.0
H2288 H 0.10841 0.23417 0.72151 0.0
C2289 C 0.09185 0.23704 0.54154 0.0
C2290 C 0.09226 0.23122 0.49646 0.0
C2291 C 0.09478 0.21777 0.49162 0.0
C2292 C 0.09746 0.21063 0.53103 0.0
C2293 C 0.09736 0.21694 0.57495 0.0
C2294 C 0.09449 0.22977 0.58038 0.0
C2295 C 0.0966 0.2354 0.63062 0.0
C2296 C 0.10983 0.25343 0.63515 0.0
C2297 C 0.08036 0.23228 0.65147 0.0
C2298 C 0.10194 0.22432 0.65217 0.0
C2299 C 0.10201 0.21351 0.61986 0.0
C2300 C 0.10791 0.20309 0.63096 0.0
C2301 C 0.11436 0.20412 0.67584 0.0
C2302 C 0.11504 0.21567 0.70831 0.0
C2303 C 0.10818 0.22538 0.6969 0.0
H2304 H 0.77638 0.90378 0.67528 0.0
H2305 H 0.78617 0.87281 0.76467 0.0
H2306 H 0.78259 0.855 0.6972 0.0
H2307 H 0.74506 0.87327 0.61304 0.0
H2308 H 0.75012 0.88342 0.55715 0.0
H2309 H 0.75604 0.89517 0.61022 0.0
H2310 H 0.78613 0.91019 0.58333 0.0
H2311 H 0.7803 0.89859 0.52979 0.0
H2312 H 0.79565 0.89857 0.56682 0.0
H2313 H 0.77315 0.83821 0.62479 0.0
H2314 H 0.76133 0.82488 0.54928 0.0
H2315 H 0.75879 0.86725 0.50507 0.0
C2316 C 0.77805 0.8934 0.68025 0.0
C2317 C 0.78142 0.88951 0.7249 0.0
C2318 C 0.78371 0.87599 0.73045 0.0
C2319 C 0.78165 0.86581 0.69243 0.0
C2320 C 0.77764 0.86957 0.6491 0.0
C2321 C 0.77619 0.88322 0.64254 0.0
C2322 C 0.77073 0.88391 0.59322 0.0
C2323 C 0.75453 0.88394 0.59345 0.0
C2324 C 0.78399 0.89869 0.56672 0.0
C2325 C 0.76866 0.86816 0.57368 0.0
C2326 C 0.77276 0.86011 0.60649 0.0
C2327 C 0.77031 0.84457 0.59837 0.0
C2328 C 0.76349 0.83706 0.5556 0.0
C2329 C 0.75937 0.84516 0.52138 0.0
C2330 C 0.76221 0.86099 0.53031 0.0
H2331 H 0.09957 0.86764 0.69318 0.0
H2332 H 0.1245 0.91136 0.77723 0.0
H2333 H 0.14034 0.92673 0.708 0.0
H2334 H 0.13282 0.87292 0.63189 0.0
H2335 H 0.12268 0.86525 0.57665 0.0
H2336 H 0.11133 0.85846 0.63024 0.0
H2337 H 0.09145 0.86769 0.6003 0.0
H2338 H 0.10276 0.8745 0.54637 0.0
H2339 H 0.09933 0.88837 0.58104 0.0
H2340 H 0.15687 0.93573 0.6355 0.0
H2341 H 0.17184 0.93834 0.56223 0.0
H2342 H 0.13547 0.88935 0.52288 0.0
C2343 C 0.1082 0.88051 0.69659 0.0
C2344 C 0.11108 0.88836 0.7403 0.0
C2345 C 0.12222 0.90521 0.74381 0.0
C2346 C 0.13122 0.91401 0.70474 0.0
C2347 C 0.12861 0.9058 0.66237 0.0
C2348 C 0.11719 0.88948 0.65781 0.0
C2349 C 0.11773 0.88322 0.60949 0.0
C2350 C 0.12137 0.86914 0.61226 0.0
C2351 C 0.10187 0.87815 0.58272 0.0
C2352 C 0.13182 0.89834 0.58843 0.0
C2353 C 0.13781 0.91127 0.61941 0.0
C2354 C 0.15202 0.92589 0.61033 0.0
C2355 C 0.16046 0.92726 0.56886 0.0
C2356 C 0.15454 0.91416 0.53689 0.0
C2357 C 0.13987 0.89969 0.54623 0.0
H2358 H 0.76879 0.86211 0.18743 0.0
H2359 H 0.78134 0.90553 0.26813 0.0
H2360 H 0.78253 0.92012 0.19544 0.0
H2361 H 0.79348 0.8833 0.08222 0.0
H2362 H 0.77832 0.86881 0.04287 0.0
H2363 H 0.78072 0.86248 0.10035 0.0
H2364 H 0.75021 0.8517 0.11765 0.0
H2365 H 0.74772 0.85793 0.06033 0.0
H2366 H 0.74212 0.8652 0.11135 0.0
H2367 H 0.77787 0.92842 0.11728 0.0
H2368 H 0.76897 0.93034 0.03743 0.0
H2369 H 0.76051 0.88209 0.0059 0.0
C2370 C 0.77182 0.87469 0.18978 0.0
C2371 C 0.77468 0.88263 0.2334 0.0
C2372 C 0.7791 0.89924 0.23496 0.0
C2373 C 0.77982 0.90762 0.1939 0.0
C2374 C 0.77641 0.89929 0.15153 0.0
C2375 C 0.7727 0.88325 0.14905 0.0
C2376 C 0.76843 0.87679 0.09953 0.0
C2377 C 0.78099 0.8726 0.0801 0.0
C2378 C 0.75109 0.86204 0.09709 0.0
C2379 C 0.76959 0.89147 0.07495 0.0
C2380 C 0.77437 0.90437 0.1056 0.0
C2381 C 0.77458 0.91861 0.09258 0.0
C2382 C 0.76951 0.9196 0.04734 0.0
C2383 C 0.76451 0.90653 0.01566 0.0
C2384 C 0.76487 0.89244 0.0292 0.0
H2385 H 0.11972 0.87223 0.25464 0.0
H2386 H 0.13475 0.92221 0.21952 0.0
H2387 H 0.12396 0.91368 0.13929 0.0
H2388 H 0.13051 0.86178 0.14905 0.0
H2389 H 0.11338 0.84138 0.14705 0.0
H2390 H 0.12088 0.8513 0.20249 0.0
H2391 H 0.0922 0.84646 0.22332 0.0
H2392 H 0.08459 0.83649 0.16786 0.0
H2393 H 0.08221 0.85354 0.18404 0.0
H2394 H 0.11405 0.89993 0.0609 0.0
H2395 H 0.1047 0.88192 0.99158 0.0
H2396 H 0.09572 0.84098 0.07973 0.0
C2397 C 0.12064 0.88133 0.23006 0.0
C2398 C 0.12818 0.89786 0.24271 0.0
C2399 C 0.12896 0.90946 0.21017 0.0
C2400 C 0.12289 0.90473 0.16466 0.0
C2401 C 0.11586 0.88834 0.15282 0.0
C2402 C 0.11452 0.8768 0.1848 0.0
C2403 C 0.10698 0.86009 0.16302 0.0
C2404 C 0.11863 0.85325 0.16554 0.0
C2405 C 0.09052 0.84846 0.18592 0.0
C2406 C 0.10481 0.86411 0.11335 0.0
C2407 C 0.10987 0.88042 0.10812 0.0
C2408 C 0.10982 0.88708 0.06468 0.0
C2409 C 0.10454 0.87677 0.02553 0.0
C2410 C 0.09941 0.86003 0.03023 0.0
C2411 C 0.09939 0.85368 0.07492 0.0
H2412 H 0.16061 0.25453 0.04649 0.0
H2413 H 0.12711 0.21462 0.95775 0.0
H2414 H 0.10975 0.20105 0.02621 0.0
H2415 H 0.15516 0.22975 0.15368 0.0
H2416 H 0.15641 0.24559 0.19124 0.0
H2417 H 0.16752 0.25078 0.13688 0.0
H2418 H 0.15364 0.26718 0.11189 0.0
H2419 H 0.14242 0.26196 0.16584 0.0
H2420 H 0.13174 0.25724 0.11083 0.0
H2421 H 0.09432 0.19353 0.10226 0.0
H2422 H 0.08211 0.19326 0.17934 0.0
H2423 H 0.12583 0.23791 0.21714 0.0
C2424 C 0.14986 0.24274 0.04159 0.0
C2425 C 0.14524 0.23564 0.99682 0.0
C2426 C 0.1309 0.22031 0.99179 0.0
C2427 C 0.12099 0.21245 0.03049 0.0
C2428 C 0.12566 0.22002 0.07395 0.0
C2429 C 0.13983 0.23478 0.07973 0.0
C2430 C 0.14134 0.24116 0.12897 0.0
C2431 C 0.15597 0.24185 0.15418 0.0
C2432 C 0.14233 0.25786 0.12936 0.0
C2433 C 0.12548 0.22806 0.14933 0.0
C2434 C 0.11671 0.21579 0.1175 0.0
C2435 C 0.10117 0.20295 0.12772 0.0
C2436 C 0.09433 0.20288 0.17134 0.0
C2437 C 0.10297 0.21572 0.20334 0.0
C2438 C 0.11887 0.22813 0.19271 0.0
H2439 H 0.91867 0.74388 0.4316 0.0
H2440 H 0.93119 0.78792 0.5092 0.0
H2441 H 0.93278 0.80206 0.43543 0.0
H2442 H 0.94297 0.76452 0.32202 0.0
H2443 H 0.92722 0.74939 0.28539 0.0
H2444 H 0.93086 0.7439 0.34265 0.0
H2445 H 0.90058 0.73279 0.36409 0.0
H2446 H 0.89688 0.73833 0.30729 0.0
H2447 H 0.89207 0.74599 0.35896 0.0
H2448 H 0.92809 0.80983 0.35623 0.0
H2449 H 0.91674 0.81011 0.27844 0.0
H2450 H 0.90767 0.76131 0.25233 0.0
C2451 C 0.92233 0.75667 0.43293 0.0
C2452 C 0.92485 0.76481 0.47604 0.0
C2453 C 0.92921 0.78143 0.47648 0.0
C2454 C 0.93027 0.78961 0.43473 0.0
C2455 C 0.92707 0.78105 0.39286 0.0
C2456 C 0.92332 0.76496 0.3916 0.0
C2457 C 0.91818 0.75783 0.34314 0.0
C2458 C 0.93055 0.75367 0.32206 0.0
C2459 C 0.90091 0.74287 0.34343 0.0
C2460 C 0.91863 0.77208 0.31816 0.0
C2461 C 0.92419 0.78551 0.34698 0.0
C2462 C 0.92405 0.79953 0.33297 0.0
C2463 C 0.9176 0.7996 0.28889 0.0
C2464 C 0.91115 0.78564 0.26014 0.0
C2465 C 0.91231 0.77203 0.27416 0.0
H2466 H 0.22344 0.1204 0.24634 0.0
H2467 H 0.19579 0.07098 0.29742 0.0
H2468 H 0.19404 0.08132 0.37564 0.0
H2469 H 0.24802 0.1356 0.33794 0.0
H2470 H 0.24948 0.15528 0.33923 0.0
H2471 H 0.24482 0.14412 0.28538 0.0
H2472 H 0.21842 0.1456 0.27665 0.0
H2473 H 0.22309 0.15702 0.33041 0.0
H2474 H 0.2038 0.13859 0.32365 0.0
H2475 H 0.20054 0.09715 0.45084 0.0
H2476 H 0.21368 0.11679 0.51531 0.0
H2477 H 0.2371 0.15585 0.41397 0.0
C2478 C 0.21651 0.1118 0.27367 0.0
C2479 C 0.20975 0.09498 0.26643 0.0
C2480 C 0.20088 0.08393 0.3026 0.0
C2481 C 0.19986 0.08972 0.34698 0.0
C2482 C 0.2075 0.10651 0.3539 0.0
C2483 C 0.2154 0.11738 0.31785 0.0
C2484 C 0.22447 0.13473 0.3352 0.0
C2485 C 0.24277 0.14289 0.32378 0.0
C2486 C 0.21699 0.14456 0.3153 0.0
C2487 C 0.22133 0.13191 0.38708 0.0
C2488 C 0.21124 0.11562 0.39724 0.0
C2489 C 0.2081 0.10997 0.44324 0.0
C2490 C 0.21569 0.12122 0.47964 0.0
C2491 C 0.22641 0.13788 0.46972 0.0
C2492 C 0.22884 0.14325 0.42283 0.0
H2493 H 0.83868 0.08439 0.4215 0.0
H2494 H 0.87849 0.09344 0.51442 0.0
H2495 H 0.89605 0.09763 0.44587 0.0
H2496 H 0.84888 0.0645 0.32527 0.0
H2497 H 0.84316 0.07429 0.28123 0.0
H2498 H 0.83301 0.06917 0.33715 0.0
H2499 H 0.84043 0.09923 0.34862 0.0
H2500 H 0.85054 0.1044 0.29292 0.0
H2501 H 0.86143 0.11508 0.34479 0.0
H2502 H 0.91012 0.10413 0.36745 0.0
H2503 H 0.91971 0.11405 0.28692 0.0
H2504 H 0.8707 0.10102 0.24685 0.0
C2505 C 0.85096 0.08683 0.42756 0.0
C2506 C 0.85719 0.0885 0.47328 0.0
C2507 C 0.87344 0.09206 0.47963 0.0
C2508 C 0.88347 0.09435 0.44093 0.0
C2509 C 0.87702 0.09296 0.39625 0.0
C2510 C 0.86111 0.08926 0.38948 0.0
C2511 C 0.85758 0.09033 0.33849 0.0
C2512 C 0.84491 0.07357 0.31942 0.0
C2513 C 0.85219 0.10302 0.33079 0.0
C2514 C 0.87416 0.09587 0.31777 0.0
C2515 C 0.88516 0.09697 0.35131 0.0
C2516 C 0.90156 0.10306 0.34076 0.0
C2517 C 0.9069 0.10861 0.29508 0.0
C2518 C 0.89588 0.10827 0.26128 0.0
C2519 C 0.87929 0.10135 0.27236 0.0
H2520 H 0.92546 0.43144 0.29135 0.0
H2521 H 0.88401 0.42827 0.36541 0.0
H2522 H 0.87335 0.43231 0.29085 0.0
H2523 H 0.93183 0.46312 0.21813 0.0
H2524 H 0.93768 0.45582 0.16772 0.0
H2525 H 0.94094 0.45054 0.22553 0.0
H2526 H 0.92433 0.41993 0.20448 0.0
H2527 H 0.92106 0.42509 0.14638 0.0
H2528 H 0.90393 0.41157 0.18216 0.0
H2529 H 0.86851 0.43906 0.20959 0.0
H2530 H 0.87048 0.44905 0.12862 0.0
H2531 H 0.91503 0.44765 0.10852 0.0
C2532 C 0.91397 0.43127 0.29191 0.0
C2533 C 0.90553 0.42948 0.33419 0.0
C2534 C 0.89067 0.4296 0.3334 0.0
C2535 C 0.88448 0.43181 0.29123 0.0
C2536 C 0.89328 0.43381 0.2503 0.0
C2537 C 0.90769 0.43353 0.25033 0.0
C2538 C 0.9155 0.43727 0.20243 0.0
C2539 C 0.93248 0.4526 0.20356 0.0
C2540 C 0.91624 0.42259 0.18271 0.0
C2541 C 0.90349 0.44023 0.17574 0.0
C2542 C 0.89062 0.43793 0.2037 0.0
C2543 C 0.87844 0.44074 0.18725 0.0
C2544 C 0.87964 0.44639 0.1413 0.0
C2545 C 0.89305 0.44936 0.11282 0.0
C2546 C 0.90484 0.4458 0.12991 0.0
H2547 H 0.5715 0.49101 0.27526 0.0
H2548 H 0.57576 0.45467 0.35652 0.0
H2549 H 0.57287 0.43919 0.28437 0.0
H2550 H 0.54084 0.46438 0.204 0.0
H2551 H 0.54786 0.47655 0.15166 0.0
H2552 H 0.55307 0.48622 0.20804 0.0
H2553 H 0.58371 0.50029 0.18696 0.0
H2554 H 0.57858 0.49075 0.13018 0.0
H2555 H 0.59236 0.48815 0.16773 0.0
H2556 H 0.56609 0.42597 0.20501 0.0
H2557 H 0.55539 0.41607 0.12526 0.0
H2558 H 0.5558 0.46112 0.09699 0.0
C2559 C 0.57226 0.48003 0.27782 0.0
C2560 C 0.57389 0.47408 0.3215 0.0
C2561 C 0.57455 0.45949 0.32338 0.0
C2562 C 0.57299 0.45064 0.28257 0.0
C2563 C 0.57093 0.45661 0.2402 0.0
C2564 C 0.57068 0.47104 0.23754 0.0
C2565 C 0.56673 0.47404 0.18865 0.0
C2566 C 0.55121 0.47536 0.1881 0.0
C2567 C 0.58121 0.48921 0.16711 0.0
C2568 C 0.56406 0.4587 0.16478 0.0
C2569 C 0.56684 0.44892 0.1947 0.0
C2570 C 0.5641 0.43363 0.18105 0.0
C2571 C 0.55804 0.4281 0.1359 0.0
C2572 C 0.55457 0.43776 0.1057 0.0
C2573 C 0.55808 0.45339 0.11988 0.0
H2574 H 0.56635 0.11278 0.12068 0.0
H2575 H 0.5313 0.1194 0.04095 0.0
H2576 H 0.51551 0.11596 0.1132 0.0
H2577 H 0.53902 0.08143 0.18848 0.0
H2578 H 0.55077 0.08737 0.24171 0.0
H2579 H 0.5609 0.09341 0.18607 0.0
H2580 H 0.57525 0.12367 0.21127 0.0
H2581 H 0.56529 0.11774 0.26739 0.0
H2582 H 0.56326 0.13232 0.2319 0.0
H2583 H 0.50118 0.10671 0.18948 0.0
H2584 H 0.49031 0.09472 0.26693 0.0
H2585 H 0.53504 0.0948 0.29841 0.0
C2586 C 0.55549 0.11378 0.11879 0.0
C2587 C 0.54984 0.11616 0.07563 0.0
C2588 C 0.53578 0.11766 0.07404 0.0
C2589 C 0.52676 0.1157 0.11479 0.0
C2590 C 0.53224 0.11258 0.15666 0.0
C2591 C 0.54645 0.11195 0.15915 0.0
C2592 C 0.54895 0.10709 0.20753 0.0
C2593 C 0.54996 0.0914 0.20581 0.0
C2594 C 0.56409 0.12104 0.2309 0.0
C2595 C 0.53352 0.1043 0.23125 0.0
C2596 C 0.52413 0.10767 0.20138 0.0
C2597 C 0.5086 0.10443 0.21362 0.0
C2598 C 0.50248 0.09751 0.25747 0.0
C2599 C 0.51193 0.094 0.28859 0.0
C2600 C 0.52774 0.0977 0.27559 0.0
H2601 H 0.77715 0.60989 0.86073 0.0
H2602 H 0.74386 0.56194 0.80585 0.0
H2603 H 0.74946 0.5494 0.87426 0.0
H2604 H 0.80686 0.59926 0.90205 0.0
H2605 H 0.81236 0.61254 0.95209 0.0
H2606 H 0.80531 0.61742 0.8994 0.0
H2607 H 0.7828 0.61887 0.94705 0.0
H2608 H 0.78967 0.61379 -0.00026 0.0
H2609 H 0.76879 0.60158 0.98149 0.0
H2610 H 0.75762 0.54243 0.95154 0.0
H2611 H 0.76981 0.54142 0.02696 0.0
H2612 H 0.80031 0.59401 0.02385 0.0
C2613 C 0.77106 0.59675 0.86326 0.0
C2614 C 0.75997 0.58679 0.82877 0.0
C2615 C 0.7524 0.56968 0.83232 0.0
C2616 C 0.75545 0.56249 0.87098 0.0
C2617 C 0.76639 0.57268 0.90481 0.0
C2618 C 0.77433 0.58943 0.90073 0.0
C2619 C 0.7861 0.59767 0.94051 0.0
C2620 C 0.8037 0.60729 0.92242 0.0
C2621 C 0.78156 0.60862 0.96886 0.0
C2622 C 0.78323 0.58295 0.96835 0.0
C2623 C 0.77172 0.56865 0.94757 0.0
C2624 C 0.76674 0.55355 0.96796 0.0
C2625 C 0.77373 0.55311 0.01077 0.0
C2626 C 0.78566 0.56767 0.03244 0.0
C2627 C 0.79065 0.58269 0.01009 0.0
H2628 H 0.42144 0.20684 0.83861 0.0
H2629 H 0.41952 0.1611 0.86787 0.0
H2630 H 0.42725 0.16952 0.95001 0.0
H2631 H 0.45488 0.23279 0.91981 0.0
H2632 H 0.4453 0.24426 0.9373 0.0
H2633 H 0.44204 0.23575 0.87927 0.0
H2634 H 0.41088 0.22078 0.89304 0.0
H2635 H 0.41406 0.22919 0.95106 0.0
H2636 H 0.40242 0.20747 0.94281 0.0
H2637 H 0.43357 0.18207 0.02941 0.0
H2638 H 0.43563 0.19694 0.10267 0.0
H2639 H 0.43179 0.23372 0.02308 0.0
C2640 C 0.42306 0.19883 0.86218 0.0
C2641 C 0.42014 0.18345 0.84715 0.0
C2642 C 0.42181 0.17297 0.87899 0.0
C2643 C 0.42628 0.17768 0.92551 0.0
C2644 C 0.42881 0.19281 0.93962 0.0
C2645 C 0.42713 0.20319 0.90907 0.0
C2646 C 0.42877 0.21795 0.93438 0.0
C2647 C 0.44364 0.23362 0.91663 0.0
C2648 C 0.4131 0.21889 0.93006 0.0
C2649 C 0.4313 0.21407 0.98395 0.0
C2650 C 0.43163 0.19969 0.98605 0.0
C2651 C 0.43341 0.19338 0.02824 0.0
C2652 C 0.43458 0.20187 0.06952 0.0
C2653 C 0.43363 0.21624 0.06811 0.0
C2654 C 0.43228 0.22257 0.02484 0.0
H2655 H 0.78866 0.20871 0.81949 0.0
H2656 H 0.81517 0.26053 0.84586 0.0
H2657 H 0.80063 0.25618 0.92113 0.0
H2658 H 0.74949 0.19931 0.8819 0.0
H2659 H 0.7471 0.1805 0.90443 0.0
H2660 H 0.75659 0.188 0.8483 0.0
H2661 H 0.78182 0.18665 0.87647 0.0
H2662 H 0.77257 0.17941 0.93275 0.0
H2663 H 0.79229 0.19747 0.92871 0.0
H2664 H 0.78691 0.24596 -0.00234 0.0
H2665 H 0.77548 0.23071 0.07087 0.0
H2666 H 0.75776 0.1853 0.99528 0.0
C2667 C 0.79079 0.21912 0.84038 0.0
C2668 C 0.80259 0.23496 0.82701 0.0
C2669 C 0.80582 0.24837 0.85559 0.0
C2670 C 0.79762 0.24599 0.89817 0.0
C2671 C 0.78634 0.23012 0.91136 0.0
C2672 C 0.78282 0.2169 0.88318 0.0
C2673 C 0.772 0.20101 0.90819 0.0
C2674 C 0.7553 0.19166 0.88428 0.0
C2675 C 0.78017 0.19053 0.91173 0.0
C2676 C 0.77068 0.20736 0.95557 0.0
C2677 C 0.77873 0.22416 0.95635 0.0
C2678 C 0.78033 0.2328 0.99728 0.0
C2679 C 0.77382 0.22403 0.03868 0.0
C2680 C 0.76606 0.20684 0.03892 0.0
C2681 C 0.76402 0.19843 0.9965 0.0
H2682 H 0.4117 0.24953 0.40203 0.0
H2683 H 0.44809 0.24687 0.31661 0.0
H2684 H 0.46175 0.24513 0.38813 0.0
H2685 H 0.43851 0.27194 0.50358 0.0
H2686 H 0.42253 0.26007 0.5448 0.0
H2687 H 0.41756 0.26437 0.48765 0.0
H2688 H 0.39865 0.23347 0.47305 0.0
H2689 H 0.40351 0.22913 0.52999 0.0
H2690 H 0.40675 0.21996 0.47896 0.0
H2691 H 0.46922 0.23994 0.46812 0.0
H2692 H 0.46834 0.22961 0.5484 0.0
H2693 H 0.42685 0.23522 0.58041 0.0
C2694 C 0.42283 0.24909 0.39835 0.0
C2695 C 0.42892 0.24848 0.35384 0.0
C2696 C 0.44324 0.24741 0.35046 0.0
C2697 C 0.45116 0.24654 0.39087 0.0
C2698 C 0.4446 0.24679 0.43431 0.0
C2699 C 0.43073 0.24802 0.43821 0.0
C2700 C 0.42482 0.24581 0.48822 0.0
C2701 C 0.42593 0.26148 0.50717 0.0
C2702 C 0.40741 0.23123 0.49278 0.0
C2703 C 0.43711 0.24245 0.51158 0.0
C2704 C 0.44869 0.24347 0.48027 0.0
C2705 C 0.46042 0.23943 0.49315 0.0
C2706 C 0.4599 0.23365 0.53872 0.0
C2707 C 0.44757 0.23176 0.57007 0.0
C2708 C 0.43646 0.23674 0.55688 0.0
H2709 H 0.7563 0.16594 0.3845 0.0
H2710 H 0.76333 0.20274 0.28228 0.0
H2711 H 0.76965 0.22259 0.34599 0.0
H2712 H 0.73859 0.17922 0.47744 0.0
H2713 H 0.74899 0.17485 0.52292 0.0
H2714 H 0.74315 0.16307 0.46973 0.0
H2715 H 0.77304 0.17017 0.4567 0.0
H2716 H 0.77894 0.1819 0.50978 0.0
H2717 H 0.78889 0.19122 0.45549 0.0
H2718 H 0.77745 0.23905 0.42066 0.0
H2719 H 0.78758 0.25082 0.49948 0.0
H2720 H 0.77531 0.20313 0.55111 0.0
C2721 C 0.7589 0.17808 0.37545 0.0
C2722 C 0.75927 0.18276 0.32845 0.0
C2723 C 0.76296 0.19887 0.31811 0.0
C2724 C 0.76647 0.21021 0.35405 0.0
C2725 C 0.76616 0.20522 0.40003 0.0
C2726 C 0.76247 0.18953 0.41074 0.0
C2727 C 0.76424 0.18753 0.46243 0.0
C2728 C 0.74776 0.17545 0.48441 0.0
C2729 C 0.77704 0.18241 0.4716 0.0
C2730 C 0.77002 0.20467 0.47892 0.0
C2731 C 0.7708 0.21469 0.44271 0.0
C2732 C 0.77671 0.23129 0.4494 0.0
C2733 C 0.78238 0.23786 0.49407 0.0
C2734 C 0.78227 0.22782 0.53069 0.0
C2735 C 0.77559 0.21101 0.52332 0.0
H2736 H 0.776 0.56356 0.55065 0.0
H2737 H 0.73679 0.56991 0.49788 0.0
H2738 H 0.74476 0.56794 0.41658 0.0
H2739 H 0.80443 0.58886 0.47166 0.0
H2740 H 0.81469 0.5773 0.4657 0.0
H2741 H 0.80393 0.57597 0.51871 0.0
H2742 H 0.78677 0.54464 0.50932 0.0
H2743 H 0.7975 0.54589 0.45602 0.0
H2744 H 0.77562 0.53611 0.45592 0.0
H2745 H 0.75887 0.56818 0.34165 0.0
H2746 H 0.77934 0.5735 0.28034 0.0
H2747 H 0.8099 0.56822 0.38336 0.0
C2748 C 0.76883 0.56406 0.52188 0.0
C2749 C 0.75581 0.56683 0.53003 0.0
C2750 C 0.74691 0.5679 0.49193 0.0
C2751 C 0.75123 0.5666 0.44582 0.0
C2752 C 0.76445 0.56424 0.43878 0.0
C2753 C 0.77315 0.56304 0.47587 0.0
C2754 C 0.78813 0.56275 0.45936 0.0
C2755 C 0.8037 0.57707 0.48006 0.0
C2756 C 0.78692 0.54637 0.47083 0.0
C2757 C 0.7869 0.56468 0.40731 0.0
C2758 C 0.77293 0.56502 0.39586 0.0
C2759 C 0.76974 0.56771 0.35011 0.0
C2760 C 0.7814 0.57067 0.31551 0.0
C2761 C 0.79616 0.57127 0.32728 0.0
C2762 C 0.79867 0.56776 0.37343 0.0
H2763 H 0.56039 0.09001 0.56336 0.0
H2764 H 0.55691 0.13365 0.57652 0.0
H2765 H 0.56803 0.13778 0.65671 0.0
H2766 H 0.54645 0.07505 0.6722 0.0
H2767 H 0.55969 0.06686 0.68255 0.0
H2768 H 0.55447 0.06909 0.6237 0.0
H2769 H 0.58504 0.08661 0.60273 0.0
H2770 H 0.59039 0.08437 0.66167 0.0
H2771 H 0.59796 0.10438 0.63718 0.0
H2772 H 0.57455 0.13424 0.7394 0.0
H2773 H 0.57753 0.12418 0.81649 0.0
H2774 H 0.57751 0.08331 0.74823 0.0
C2775 C 0.5623 0.10059 0.58288 0.0
C2776 C 0.55771 0.11144 0.56423 0.0
C2777 C 0.56046 0.12525 0.59034 0.0
C2778 C 0.56676 0.12769 0.63585 0.0
C2779 C 0.57053 0.11637 0.65413 0.0
C2780 C 0.56866 0.10324 0.62813 0.0
C2781 C 0.5722 0.09205 0.65708 0.0
C2782 C 0.55732 0.07475 0.659 0.0
C2783 C 0.5873 0.09185 0.63856 0.0
C2784 C 0.57552 0.10046 0.70402 0.0
C2785 C 0.5747 0.11458 0.7016 0.0
C2786 C 0.57565 0.12345 0.74157 0.0
C2787 C 0.57726 0.11761 0.7852 0.0
C2788 C 0.57792 0.10307 0.78832 0.0
C2789 C 0.57741 0.09466 0.74699 0.0
H2790 H 0.8954 0.46489 0.5981 0.0
H2791 H 0.86125 0.416 0.6439 0.0
H2792 H 0.86057 0.42651 0.72269 0.0
H2793 H 0.91926 0.47525 0.6902 0.0
H2794 H 0.9244 0.49624 0.69457 0.0
H2795 H 0.91846 0.486 0.63923 0.0
H2796 H 0.89533 0.49284 0.63182 0.0
H2797 H 0.90139 0.50345 0.687 0.0
H2798 H 0.8807 0.48739 0.67839 0.0
H2799 H 0.86879 0.44109 0.79909 0.0
H2800 H 0.8839 0.45859 0.86589 0.0
H2801 H 0.91319 0.49804 0.77009 0.0
C2802 C 0.8873 0.45655 0.62435 0.0
C2803 C 0.8784 0.43972 0.61555 0.0
C2804 C 0.86799 0.42898 0.65026 0.0
C2805 C 0.86757 0.43486 0.69499 0.0
C2806 C 0.87742 0.45149 0.70369 0.0
C2807 C 0.88685 0.46223 0.66896 0.0
C2808 C 0.89821 0.47898 0.68845 0.0
C2809 C 0.91612 0.48441 0.67748 0.0
C2810 C 0.89363 0.4914 0.67035 0.0
C2811 C 0.89455 0.47572 0.74001 0.0
C2812 C 0.88226 0.45993 0.74808 0.0
C2813 C 0.8781 0.45361 0.79318 0.0
C2814 C 0.88685 0.46361 0.83089 0.0
C2815 C 0.89972 0.4797 0.82318 0.0
C2816 C 0.90327 0.48589 0.77718 0.0
H2817 H 0.57897 0.45863 0.65167 0.0
H2818 H 0.54588 0.41701 0.56852 0.0
H2819 H 0.53054 0.40299 0.63987 0.0
H2820 H 0.57641 0.43455 0.76347 0.0
H2821 H 0.57746 0.45067 0.79935 0.0
H2822 H 0.58818 0.45539 0.74434 0.0
H2823 H 0.57349 0.47086 0.71843 0.0
H2824 H 0.56245 0.46594 0.77256 0.0
H2825 H 0.55157 0.46037 0.71782 0.0
H2826 H 0.51496 0.3973 0.71339 0.0
H2827 H 0.50217 0.39843 0.78766 0.0
H2828 H 0.54612 0.44277 0.82568 0.0
C2829 C 0.56894 0.44626 0.64916 0.0
C2830 C 0.56352 0.43874 0.6053 0.0
C2831 C 0.55023 0.42274 0.60229 0.0
C2832 C 0.54148 0.41475 0.64254 0.0
C2833 C 0.5465 0.42286 0.68527 0.0
C2834 C 0.56022 0.43809 0.6891 0.0
C2835 C 0.56187 0.44503 0.73776 0.0
C2836 C 0.57687 0.44649 0.76271 0.0
C2837 C 0.56236 0.46151 0.73652 0.0
C2838 C 0.54631 0.4319 0.75963 0.0
C2839 C 0.53769 0.41913 0.72895 0.0
C2840 C 0.52184 0.40685 0.73847 0.0
C2841 C 0.51462 0.40766 0.78034 0.0
C2842 C 0.52336 0.42053 0.81216 0.0
C2843 C 0.53947 0.43257 0.80223 0.0
H2844 H 0.56535 0.77008 0.4226 0.0
H2845 H 0.53234 0.78619 0.46952 0.0
H2846 H 0.53187 0.77526 0.54864 0.0
H2847 H 0.5495 0.7329 0.50032 0.0
H2848 H 0.56982 0.73643 0.50903 0.0
H2849 H 0.56443 0.74203 0.45445 0.0
H2850 H 0.58843 0.77147 0.46442 0.0
H2851 H 0.59377 0.7661 0.51914 0.0
H2852 H 0.58964 0.78268 0.51665 0.0
H2853 H 0.53944 0.76766 0.62499 0.0
H2854 H 0.55309 0.76267 0.69119 0.0
H2855 H 0.58127 0.75171 0.59326 0.0
C2856 C 0.55764 0.77083 0.44928 0.0
C2857 C 0.54894 0.77896 0.44058 0.0
C2858 C 0.53898 0.77983 0.47585 0.0
C2859 C 0.53867 0.7737 0.52074 0.0
C2860 C 0.54816 0.7665 0.52905 0.0
C2861 C 0.55723 0.76479 0.49396 0.0
C2862 C 0.56787 0.75843 0.51269 0.0
C2863 C 0.56258 0.74144 0.49295 0.0
C2864 C 0.58599 0.77039 0.50264 0.0
C2865 C 0.56407 0.75767 0.56422 0.0
C2866 C 0.55248 0.76209 0.57301 0.0
C2867 C 0.54823 0.7638 0.61847 0.0
C2868 C 0.55613 0.76104 0.65583 0.0
C2869 C 0.56822 0.75675 0.6474 0.0
C2870 C 0.57194 0.75475 0.60094 0.0
H2871 H 0.20729 0.75366 0.48888 0.0
H2872 H 0.2444 0.79079 0.40109 0.0
H2873 H 0.25777 0.80755 0.47113 0.0
H2874 H 0.20169 0.77841 0.5594 0.0
H2875 H 0.19873 0.76749 0.61345 0.0
H2876 H 0.19425 0.75682 0.5587 0.0
H2877 H 0.21393 0.74622 0.57858 0.0
H2878 H 0.21828 0.75659 0.6341 0.0
H2879 H 0.23465 0.76044 0.59468 0.0
H2880 H 0.263 0.82248 0.54675 0.0
H2881 H 0.26183 0.83328 0.62454 0.0
H2882 H 0.22226 0.7858 0.66432 0.0
C2883 C 0.21866 0.76499 0.48495 0.0
C2884 C 0.22505 0.77097 0.44025 0.0
C2885 C 0.23962 0.78599 0.43549 0.0
C2886 C 0.24722 0.79556 0.47497 0.0
C2887 C 0.24019 0.78969 0.5187 0.0
C2888 C 0.22646 0.77455 0.52404 0.0
C2889 C 0.22034 0.77176 0.57393 0.0
C2890 C 0.20272 0.76844 0.57648 0.0
C2891 C 0.2219 0.75794 0.59667 0.0
C2892 C 0.23218 0.78803 0.59523 0.0
C2893 C 0.24361 0.79819 0.56293 0.0
C2894 C 0.25448 0.81449 0.57282 0.0
C2895 C 0.25364 0.82055 0.61684 0.0
C2896 C 0.24212 0.81027 0.65039 0.0
C2897 C 0.23147 0.79377 0.63965 0.0
H2898 H 0.18641 0.41123 0.39179 0.0
H2899 H 0.22848 0.45943 0.40594 0.0
H2900 H 0.22011 0.46118 0.48678 0.0
H2901 H 0.15832 0.4192 0.46233 0.0
H2902 H 0.14838 0.39903 0.48708 0.0
H2903 H 0.1569 0.4024 0.42905 0.0
H2904 H 0.17408 0.38934 0.45369 0.0
H2905 H 0.1657 0.38606 0.51175 0.0
H2906 H 0.18743 0.39738 0.5035 0.0
H2907 H 0.20923 0.45599 0.56889 0.0
H2908 H 0.19507 0.44536 0.6444 0.0
H2909 H 0.1593 0.40118 0.57495 0.0
C2910 C 0.1937 0.42221 0.41181 0.0
C2911 C 0.20812 0.43516 0.39319 0.0
C2912 C 0.21734 0.44944 0.41986 0.0
C2913 C 0.21271 0.45051 0.4657 0.0
C2914 C 0.19866 0.43731 0.48369 0.0
C2915 C 0.18912 0.42355 0.45729 0.0
C2916 C 0.17495 0.41083 0.48534 0.0
C2917 C 0.15867 0.40769 0.46472 0.0
C2918 C 0.17559 0.39497 0.48877 0.0
C2919 C 0.17829 0.41937 0.53209 0.0
C2920 C 0.19202 0.43463 0.53048 0.0
C2921 C 0.19826 0.44423 0.5704 0.0
C2922 C 0.19021 0.43808 0.61308 0.0
C2923 C 0.17602 0.42258 0.6152 0.0
C2924 C 0.16993 0.41323 0.57407 0.0
H2925 H 0.46521 0.89428 0.33442 0.0
H2926 H 0.42501 0.88685 0.42293 0.0
H2927 H 0.4124 0.89296 0.35606 0.0
H2928 H 0.46937 0.92749 0.27442 0.0
H2929 H 0.47389 0.92221 0.21801 0.0
H2930 H 0.47864 0.91496 0.27045 0.0
H2931 H 0.46148 0.8852 0.24166 0.0
H2932 H 0.45688 0.89235 0.1886 0.0
H2933 H 0.44062 0.87751 0.22455 0.0
H2934 H 0.40682 0.90437 0.28472 0.0
H2935 H 0.40632 0.91665 0.20912 0.0
H2936 H 0.44926 0.91523 0.16441 0.0
C2937 C 0.45353 0.89352 0.33913 0.0
C2938 C 0.44598 0.8901 0.3834 0.0
C2939 C 0.4308 0.88927 0.38891 0.0
C2940 C 0.42362 0.8928 0.35127 0.0
C2941 C 0.43169 0.8968 0.30838 0.0
C2942 C 0.44611 0.8968 0.30172 0.0
C2943 C 0.45269 0.90232 0.25275 0.0
C2944 C 0.46965 0.91766 0.25402 0.0
C2945 C 0.45292 0.88852 0.22526 0.0
C2946 C 0.44004 0.90603 0.23349 0.0
C2947 C 0.42807 0.9028 0.26627 0.0
C2948 C 0.41588 0.90659 0.25834 0.0
C2949 C 0.41579 0.91369 0.21554 0.0
C2950 C 0.42769 0.91675 0.18103 0.0
C2951 C 0.43989 0.91275 0.19001 0.0
H2952 H 0.07306 0.50383 0.2377 0.0
H2953 H 0.11453 0.5411 0.1612 0.0
H2954 H 0.12495 0.55703 0.23393 0.0
H2955 H 0.06661 0.53037 0.30756 0.0
H2956 H 0.0609 0.51786 0.35929 0.0
H2957 H 0.05749 0.50861 0.30238 0.0
H2958 H 0.07416 0.49488 0.3259 0.0
H2959 H 0.07757 0.50405 0.38304 0.0
H2960 H 0.0946 0.50721 0.34754 0.0
H2961 H 0.12996 0.56966 0.31367 0.0
H2962 H 0.12862 0.57851 0.39408 0.0
H2963 H 0.08402 0.53291 0.41823 0.0
C2964 C 0.08446 0.51523 0.23628 0.0
C2965 C 0.093 0.52119 0.19375 0.0
C2966 C 0.10777 0.53627 0.19337 0.0
C2967 C 0.11383 0.54538 0.23452 0.0
C2968 C 0.10499 0.53923 0.27569 0.0
C2969 C 0.09064 0.52449 0.2769 0.0
C2970 C 0.08297 0.52106 0.32503 0.0
C2971 C 0.06599 0.51938 0.32344 0.0
C2972 C 0.08229 0.5059 0.34665 0.0
C2973 C 0.09505 0.53636 0.35038 0.0
C2974 C 0.10777 0.5466 0.32151 0.0
C2975 C 0.12012 0.56171 0.3367 0.0
C2976 C 0.11927 0.56661 0.38237 0.0
C2977 C 0.10606 0.5565 0.41194 0.0
C2978 C 0.09404 0.54104 0.39601 0.0
H2979 H 0.46025 0.55563 0.41063 0.0
H2980 H 0.41198 0.51886 0.36704 0.0
H2981 H 0.41914 0.52755 0.28457 0.0
H2982 H 0.46684 0.58688 0.32096 0.0
H2983 H 0.48791 0.59268 0.31369 0.0
H2984 H 0.47812 0.58537 0.36954 0.0
H2985 H 0.48635 0.56312 0.36899 0.0
H2986 H 0.49612 0.57033 0.31328 0.0
H2987 H 0.48057 0.54933 0.32009 0.0
H2988 H 0.43238 0.53852 0.20686 0.0
H2989 H 0.4511 0.54948 0.13949 0.0
H2990 H 0.49106 0.57835 0.23427 0.0
C2991 C 0.45112 0.54974 0.38368 0.0
C2992 C 0.4356 0.53668 0.39459 0.0
C2993 C 0.42397 0.52888 0.35882 0.0
C2994 C 0.42789 0.53382 0.31213 0.0
C2995 C 0.44347 0.54654 0.30214 0.0
C2996 C 0.45492 0.55437 0.33692 0.0
C2997 C 0.47132 0.56638 0.31659 0.0
C2998 C 0.47634 0.58387 0.33106 0.0
C2999 C 0.48435 0.56202 0.33055 0.0
C3000 C 0.46745 0.56369 0.26494 0.0
C3001 C 0.45125 0.55249 0.25728 0.0
C3002 C 0.44505 0.54745 0.21237 0.0
C3003 C 0.45577 0.55374 0.17434 0.0
C3004 C 0.47254 0.56474 0.18165 0.0
C3005 C 0.4783 0.57 0.22752 0.0
H3006 H 0.11143 0.53377 0.85794 0.0
H3007 H 0.12719 0.57633 0.94562 0.0
H3008 H 0.12708 0.59204 0.87706 0.0
H3009 H 0.1329 0.5563 0.74749 0.0
H3010 H 0.11615 0.54216 0.7116 0.0
H3011 H 0.12087 0.53532 0.76508 0.0
H3012 H 0.0913 0.52431 0.79381 0.0
H3013 H 0.08651 0.53117 0.74078 0.0
H3014 H 0.08319 0.53788 0.7966 0.0
H3015 H 0.1194 0.60106 0.80518 0.0
H3016 H 0.10677 0.60352 0.73241 0.0
H3017 H 0.09675 0.5556 0.68937 0.0
C3018 C 0.11508 0.54645 0.86249 0.0
C3019 C 0.11906 0.5538 0.90705 0.0
C3020 C 0.12415 0.57051 0.91162 0.0
C3021 C 0.12413 0.57952 0.87289 0.0
C3022 C 0.1193 0.5717 0.82977 0.0
C3023 C 0.11516 0.55561 0.82409 0.0
C3024 C 0.10881 0.54962 0.77525 0.0
C3025 C 0.12038 0.54562 0.74826 0.0
C3026 C 0.09142 0.53489 0.77673 0.0
C3027 C 0.10909 0.56453 0.75532 0.0
C3028 C 0.11539 0.5772 0.78718 0.0
C3029 C 0.11495 0.59146 0.7793 0.0
C3030 C 0.10768 0.59272 0.73811 0.0
C3031 C 0.10112 0.57987 0.70525 0.0
C3032 C 0.10219 0.56579 0.71341 0.0
H3033 H 0.46612 0.56224 0.84516 0.0
H3034 H 0.4247 0.53525 0.9365 0.0
H3035 H 0.40888 0.51773 0.87005 0.0
H3036 H 0.44217 0.55998 0.73931 0.0
H3037 H 0.45605 0.55793 0.7007 0.0
H3038 H 0.46341 0.56934 0.75429 0.0
H3039 H 0.47541 0.55121 0.77898 0.0
H3040 H 0.46805 0.53972 0.72571 0.0
H3041 H 0.46231 0.52945 0.7814 0.0
H3042 H 0.3993 0.50092 0.79757 0.0
H3043 H 0.39551 0.4872 0.72128 0.0
H3044 H 0.44245 0.52618 0.67518 0.0
C3045 C 0.45362 0.55278 0.85072 0.0
C3046 C 0.44654 0.54988 0.89552 0.0
C3047 C 0.43021 0.53755 0.90209 0.0
C3048 C 0.42118 0.52759 0.86468 0.0
C3049 C 0.42864 0.53044 0.82099 0.0
C3050 C 0.44439 0.54291 0.8136 0.0
C3051 C 0.44979 0.54291 0.76378 0.0
C3052 C 0.45304 0.55847 0.738 0.0
C3053 C 0.46477 0.54068 0.76242 0.0
C3054 C 0.43483 0.52813 0.74477 0.0
C3055 C 0.42277 0.52113 0.77836 0.0
C3056 C 0.40847 0.50648 0.77058 0.0
C3057 C 0.40646 0.49876 0.72737 0.0
C3058 C 0.4186 0.50581 0.69246 0.0
C3059 C 0.43283 0.52079 0.70101 0.0
H3060 H 0.42929 0.89934 0.85016 0.0
H3061 H 0.45956 0.88597 0.93022 0.0
H3062 H 0.4724 0.88397 0.857 0.0
H3063 H 0.42483 0.87419 0.74387 0.0
H3064 H 0.42588 0.88967 0.70513 0.0
H3065 H 0.4172 0.88726 0.76271 0.0
H3066 H 0.43744 0.9176 0.78062 0.0
H3067 H 0.44617 0.92011 0.72331 0.0
H3068 H 0.45896 0.92525 0.77435 0.0
H3069 H 0.48528 0.88852 0.77826 0.0
H3070 H 0.49634 0.89787 0.69875 0.0
H3071 H 0.4571 0.90725 0.6685 0.0
C3072 C 0.43845 0.89575 0.852 0.0
C3073 C 0.44369 0.89304 0.8955 0.0
C3074 C 0.45548 0.88812 0.89699 0.0
C3075 C 0.46279 0.88694 0.85565 0.0
C3076 C 0.45787 0.89038 0.81326 0.0
C3077 C 0.4458 0.89446 0.81107 0.0
C3078 C 0.44376 0.89901 0.76178 0.0
C3079 C 0.42691 0.8868 0.74222 0.0
C3080 C 0.44677 0.91653 0.75993 0.0
C3081 C 0.45707 0.89758 0.7369 0.0
C3082 C 0.46496 0.89242 0.76717 0.0
C3083 C 0.4789 0.89206 0.75385 0.0
C3084 C 0.4851 0.89739 0.70879 0.0
C3085 C 0.47724 0.90278 0.67757 0.0
C3086 C 0.46289 0.90255 0.69137 0.0
H3087 H 0.21815 0.42485 0.12291 0.0
H3088 H 0.26306 0.42603 0.08618 0.0
H3089 H 0.26142 0.43504 0.00637 0.0
H3090 H 0.19831 0.4071 0.02056 0.0
H3091 H 0.18727 0.41793 0.01589 0.0
H3092 H 0.19349 0.4147 0.07238 0.0
H3093 H 0.20867 0.44576 0.08816 0.0
H3094 H 0.20239 0.44908 0.03167 0.0
H3095 H 0.22366 0.45939 0.04689 0.0
H3096 H 0.25342 0.44085 0.9288 0.0
H3097 H 0.23866 0.44137 0.85797 0.0
H3098 H 0.19862 0.43557 0.94444 0.0
C3099 C 0.22789 0.42751 0.09845 0.0
C3100 C 0.24082 0.42494 0.11065 0.0
C3101 C 0.25309 0.42801 0.07741 0.0
C3102 C 0.25231 0.43322 0.03215 0.0
C3103 C 0.23917 0.43524 0.02075 0.0
C3104 C 0.22716 0.43246 0.05291 0.0
C3105 C 0.21331 0.43351 0.03027 0.0
C3106 C 0.19715 0.41735 0.03506 0.0
C3107 C 0.21193 0.44779 0.05045 0.0
C3108 C 0.21913 0.4367 0.98012 0.0
C3109 C 0.23425 0.43803 0.9755 0.0
C3110 C 0.24168 0.44003 0.93202 0.0
C3111 C 0.23325 0.44031 0.8921 0.0
C3112 C 0.21752 0.43827 0.89619 0.0
C3113 C 0.21058 0.43691 0.94069 0.0
H3114 H 0.58127 0.79895 0.9308 0.0
H3115 H 0.53735 0.75296 0.95695 0.0
H3116 H 0.53504 0.76273 0.03526 0.0
H3117 H 0.59807 0.80335 0.04141 0.0
H3118 H 0.60674 0.82511 0.04428 0.0
H3119 H 0.60361 0.81525 0.98845 0.0
H3120 H 0.58639 0.82802 0.96131 0.0
H3121 H 0.58943 0.8379 0.01726 0.0
H3122 H 0.56912 0.82486 0.99563 0.0
H3123 H 0.53946 0.77626 0.11376 0.0
H3124 H 0.55003 0.79259 0.18587 0.0
H3125 H 0.59101 0.8297 0.10745 0.0
C3126 C 0.57116 0.79094 0.95299 0.0
C3127 C 0.55965 0.77511 0.9384 0.0
C3128 C 0.54632 0.76514 0.96775 0.0
C3129 C 0.5449 0.77059 0.01216 0.0
C3130 C 0.55677 0.78612 0.02614 0.0
C3131 C 0.56956 0.7962 0.99723 0.0
C3132 C 0.58127 0.8119 0.02153 0.0
C3133 C 0.59843 0.81402 0.02408 0.0
C3134 C 0.58156 0.82653 -0.00251 0.0
C3135 C 0.57342 0.80882 0.06927 0.0
C3136 C 0.55919 0.79399 0.07113 0.0
C3137 C 0.55044 0.78802 0.11256 0.0
C3138 C 0.55656 0.79737 0.15335 0.0
C3139 C 0.57131 0.81245 0.1523 0.0
C3140 C 0.5796 0.81833 0.10939 0.0
H3141 H 0.19073 0.76318 0.92711 0.0
H3142 H 0.23774 0.76715 0.9487 0.0
H3143 H 0.23074 0.75934 0.03162 0.0
H3144 H 0.19097 0.78258 0.02623 0.0
H3145 H 0.16959 0.7705 0.03939 0.0
H3146 H 0.17647 0.77238 0.97996 0.0
H3147 H 0.16258 0.74102 0.97263 0.0
H3148 H 0.15537 0.73899 0.03198 0.0
H3149 H 0.16714 0.72972 0.01468 0.0
H3150 H 0.22074 0.75626 0.11425 0.0
H3151 H 0.20791 0.75647 0.1892 0.0
H3152 H 0.16781 0.75549 0.1133 0.0
C3153 C 0.19935 0.76199 0.94909 0.0
C3154 C 0.21479 0.76588 0.93199 0.0
C3155 C 0.22579 0.76409 0.96133 0.0
C3156 C 0.22193 0.75972 0.00843 0.0
C3157 C 0.20696 0.75697 0.0251 0.0
C3158 C 0.19573 0.75778 0.99608 0.0
C3159 C 0.18137 0.75621 0.02336 0.0
C3160 C 0.17951 0.77132 0.01685 0.0
C3161 C 0.16569 0.74055 0.00986 0.0
C3162 C 0.18663 0.75519 0.07251 0.0
C3163 C 0.20127 0.75536 0.07282 0.0
C3164 C 0.20911 0.75577 0.11443 0.0
C3165 C 0.20178 0.756 0.15681 0.0
C3166 C 0.18684 0.75599 0.15715 0.0
C3167 C 0.17916 0.75539 0.11433 0.0
H3168 H 0.19715 0.97075 0.30997 0.0
H3169 H 0.24042 0.96723 0.33319 0.0
H3170 H 0.25629 0.99159 0.2837 0.0
H3171 H 0.20536 0.98144 0.18755 0.0
H3172 H 0.19681 0.99464 0.18933 0.0
H3173 H 0.18926 0.97744 0.2282 0.0
H3174 H 0.19526 0.99657 0.29942 0.0
H3175 H 0.20286 0.01383 0.26081 0.0
H3176 H 0.21549 0.0136 0.30749 0.0
H3177 H 0.26743 0.01721 0.23421 0.0
H3178 H 0.27264 0.0411 0.18649 0.0
H3179 H 0.22108 0.02491 0.18745 0.0
C3180 C 0.20992 0.97495 0.30417 0.0
C3181 C 0.21759 0.96717 0.32538 0.0
C3182 C 0.23439 0.97322 0.31778 0.0
C3183 C 0.24344 0.98693 0.28945 0.0
C3184 C 0.2354 0.99419 0.26849 0.0
C3185 C 0.21896 0.98827 0.27515 0.0
C3186 C 0.21303 0.99792 0.24793 0.0
C3187 C 0.20037 0.98722 0.21106 0.0
C3188 C 0.20627 0.00595 0.28089 0.0
C3189 C 0.22874 0.01039 0.2254 0.0
C3190 C 0.24156 0.00817 0.23788 0.0
C3191 C 0.25744 0.0189 0.22354 0.0
C3192 C 0.26026 0.03235 0.19619 0.0
C3193 C 0.24723 0.03474 0.18313 0.0
C3194 C 0.23128 0.02341 0.19719 0.0
H3195 H 0.9761 0.21092 0.14866 0.0
H3196 H 0.94324 0.19657 0.26685 0.0
H3197 H 0.9667 0.21063 0.32063 0.0
H3198 H 0.00454 0.20364 0.2012 0.0
H3199 H 0.02223 0.22055 0.17535 0.0
H3200 H 0.00299 0.21171 0.14556 0.0
H3201 H 0.00471 0.23983 0.14261 0.0
H3202 H 0.0241 0.24883 0.17191 0.0
H3203 H 0.00782 0.25114 0.19598 0.0
H3204 H 0.99341 0.22324 0.36141 0.0
H3205 H 0.02186 0.23404 0.38697 0.0
H3206 H 0.03745 0.24021 0.24224 0.0
C3207 C 0.97394 0.21125 0.18576 0.0
C3208 C 0.95805 0.20302 0.20404 0.0
C3209 C 0.95545 0.20309 0.25265 0.0
C3210 C 0.96864 0.21102 0.28324 0.0
C3211 C 0.98427 0.21877 0.26434 0.0
C3212 C 0.98698 0.21904 0.21671 0.0
C3213 C 0.00494 0.22692 0.2058 0.0
C3214 C 0.0089 0.21499 0.1805 0.0
C3215 C 0.01073 0.24261 0.1774 0.0
C3216 C 0.01186 0.23056 0.25478 0.0
C3217 C -0.00026 0.22595 0.288 0.0
C3218 C 0.00304 0.2272 0.33576 0.0
C3219 C 0.01917 0.23332 0.34993 0.0
C3220 C 0.03169 0.23804 0.31642 0.0
C3221 C 0.02802 0.23675 0.26836 0.0
H3222 H 0.7672 0.79852 0.25094 0.0
H3223 H 0.77767 0.79425 0.3961 0.0
H3224 H 0.79617 0.78432 0.3714 0.0
H3225 H 0.76688 0.76259 0.21008 0.0
H3226 H 0.77639 0.77136 0.15486 0.0
H3227 H 0.76422 0.77839 0.18396 0.0
H3228 H 0.78849 0.80795 0.18201 0.0
H3229 H 0.80072 0.80101 0.15278 0.0
H3230 H 0.80774 0.81233 0.20661 0.0
H3231 H 0.81325 0.77471 0.331 0.0
H3232 H 0.82766 0.7657 0.27723 0.0
H3233 H 0.80618 0.77631 0.15836 0.0
C3234 C 0.77346 0.79551 0.27732 0.0
C3235 C 0.77103 0.79697 0.32529 0.0
C3236 C 0.77933 0.79298 0.35915 0.0
C3237 C 0.78986 0.78741 0.34546 0.0
C3238 C 0.79194 0.78596 0.29781 0.0
C3239 C 0.78398 0.78988 0.26422 0.0
C3240 C 0.78822 0.78704 0.21538 0.0
C3241 C 0.77302 0.77407 0.18957 0.0
C3242 C 0.7968 0.80304 0.18757 0.0
C3243 C 0.79975 0.78086 0.22678 0.0
C3244 C 0.80177 0.78039 0.27452 0.0
C3245 C 0.8118 0.77505 0.29355 0.0
C3246 C 0.81995 0.77002 0.26289 0.0
C3247 C 0.81795 0.77034 0.21396 0.0
C3248 C 0.80777 0.77587 0.19574 0.0
H3249 H 0.81597 0.0312 0.70751 0.0
H3250 H 0.77459 0.03806 0.68544 0.0
H3251 H 0.75718 0.01304 0.7303 0.0
H3252 H 0.79585 0.98892 0.69904 0.0
H3253 H 0.80679 0.98579 0.7456 0.0
H3254 H 0.81626 0.00459 0.71331 0.0
H3255 H 0.82147 0.02091 0.79028 0.0
H3256 H 0.81222 0.00216 0.82294 0.0
H3257 H 0.80471 0.01615 0.82914 0.0
H3258 H 0.74383 0.98589 0.76953 0.0
H3259 H 0.73588 0.95974 0.80843 0.0
H3260 H 0.78653 0.97245 0.81483 0.0
C3261 C 0.80333 0.02763 0.71309 0.0
C3262 C 0.79654 0.03641 0.69262 0.0
C3263 C 0.77992 0.03127 0.70004 0.0
C3264 C 0.76998 0.01717 0.72572 0.0
C3265 C 0.77697 0.0086 0.74467 0.0
C3266 C 0.79333 0.0138 0.73959 0.0
C3267 C 0.79776 0.00231 0.76351 0.0
C3268 C 0.80456 0.99497 0.72825 0.0
C3269 C 0.80975 0.0109 0.80387 0.0
C3270 C 0.78124 0.98961 0.78156 0.0
C3271 C 0.76941 0.99342 0.77006 0.0
C3272 C 0.75303 0.98294 0.77976 0.0
C3273 C 0.74864 0.96816 0.80197 0.0
C3274 C 0.7606 0.96414 0.81481 0.0
C3275 C 0.77712 0.97514 0.80498 0.0
H3276 H 0.95721 0.75341 0.76599 0.0
H3277 H 0.97707 0.75389 0.6291 0.0
H3278 H 0.00472 0.76696 0.66263 0.0
H3279 H 0.98709 0.79221 0.79676 0.0
H3280 H 0.98794 0.78802 0.85789 0.0
H3281 H 0.96948 0.77607 0.82536 0.0
H3282 H 0.96944 0.74966 0.84855 0.0
H3283 H 0.98785 0.76151 0.88162 0.0
H3284 H 0.98712 0.74784 0.83665 0.0
H3285 H 0.03014 0.78261 0.70845 0.0
H3286 H 0.05194 0.79978 0.76434 0.0
H3287 H 0.01579 0.79039 0.87084 0.0
C3288 C 0.96739 0.75589 0.74354 0.0
C3289 C 0.96511 0.75238 0.69534 0.0
C3290 C 0.97862 0.75611 0.66642 0.0
C3291 C 0.99434 0.76359 0.6851 0.0
C3292 C 0.99626 0.7673 0.73263 0.0
C3293 C 0.98317 0.76354 0.76157 0.0
C3294 C 0.9887 0.77029 0.8103 0.0
C3295 C 0.98296 0.78236 0.82331 0.0
C3296 C 0.98293 0.7565 0.84641 0.0
C3297 C 0.00694 0.77884 0.80384 0.0
C3298 C 0.01103 0.77677 0.75893 0.0
C3299 C 0.02712 0.78417 0.74385 0.0
C3300 C 0.03936 0.79396 0.77557 0.0
C3301 C 0.03538 0.79632 0.82146 0.0
C3302 C 0.01902 0.78858 0.8359 0.0
H3303 H 0.21904 0.18859 0.6984 0.0
H3304 H 0.26561 0.22921 0.65663 0.0
H3305 H 0.25987 0.24789 0.7025 0.0
H3306 H 0.19665 0.20849 0.69289 0.0
H3307 H 0.18432 0.19866 0.74356 0.0
H3308 H 0.1926 0.1885 0.70977 0.0
H3309 H 0.20635 0.18523 0.78413 0.0
H3310 H 0.19803 0.19532 0.81828 0.0
H3311 H 0.21964 0.20293 0.81831 0.0
H3312 H 0.24788 0.26225 0.74809 0.0
H3313 H 0.23064 0.27095 0.79008 0.0
H3314 H 0.19311 0.22051 0.80624 0.0
C3315 C 0.22818 0.20136 0.69976 0.0
C3316 C 0.24272 0.20751 0.674 0.0
C3317 C 0.25426 0.22433 0.67564 0.0
C3318 C 0.25118 0.23499 0.70192 0.0
C3319 C 0.23663 0.22852 0.72673 0.0
C3320 C 0.22539 0.21207 0.72614 0.0
C3321 C 0.21041 0.20821 0.75423 0.0
C3322 C 0.1951 0.20052 0.72325 0.0
C3323 C 0.2085 0.19728 0.79624 0.0
C3324 C 0.21478 0.22512 0.76979 0.0
C3325 C 0.22997 0.2367 0.75383 0.0
C3326 C 0.23609 0.25327 0.76139 0.0
C3327 C 0.22628 0.2581 0.78528 0.0
C3328 C 0.21061 0.24637 0.80102 0.0
C3329 C 0.20502 0.22971 0.79416 0.0
H3330 H 0.8542 0.30425 0.64335 0.0
H3331 H 0.89478 0.29562 0.65639 0.0
H3332 H 0.91325 0.32305 0.62444 0.0
H3333 H 0.86611 0.323 0.53148 0.0
H3334 H 0.85887 0.33702 0.54206 0.0
H3335 H 0.8494 0.3176 0.57113 0.0
H3336 H 0.85491 0.33214 0.65146 0.0
H3337 H 0.86451 0.35162 0.62263 0.0
H3338 H 0.87538 0.34734 0.66685 0.0
H3339 H 0.92709 0.35144 0.59056 0.0
H3340 H 0.93487 0.37748 0.55086 0.0
H3341 H 0.88431 0.36522 0.54938 0.0
C3342 C 0.86696 0.30809 0.63927 0.0
C3343 C 0.87312 0.2979 0.65251 0.0
C3344 C 0.8899 0.30341 0.64722 0.0
C3345 C 0.90044 0.31891 0.62895 0.0
C3346 C 0.8939 0.32856 0.61555 0.0
C3347 C 0.8775 0.32326 0.61992 0.0
C3348 C 0.87325 0.33534 0.59949 0.0
C3349 C 0.8612 0.32779 0.55861 0.0
C3350 C 0.86662 0.342 0.63738 0.0
C3351 C 0.88982 0.34827 0.5827 0.0
C3352 C 0.90163 0.3443 0.59308 0.0
C3353 C 0.91792 0.35459 0.58181 0.0
C3354 C 0.9222 0.36926 0.55896 0.0
C3355 C 0.91017 0.37327 0.54677 0.0
C3356 C 0.8938 0.36259 0.55883 0.0
H3357 H 0.69608 0.58953 0.59263 0.0
H3358 H 0.67916 0.57844 0.73585 0.0
H3359 H 0.65072 0.56287 0.70784 0.0
H3360 H 0.66017 0.59098 0.54281 0.0
H3361 H 0.66095 0.5812 0.4896 0.0
H3362 H 0.67941 0.59423 0.5212 0.0
H3363 H 0.68588 0.57077 0.52495 0.0
H3364 H 0.66742 0.55762 0.49392 0.0
H3365 H 0.67117 0.55155 0.55017 0.0
H3366 H 0.62502 0.54511 0.66434 0.0
H3367 H 0.60371 0.52701 0.60834 0.0
H3368 H 0.63766 0.54894 0.49366 0.0
C3369 C 0.68629 0.58422 0.61797 0.0
C3370 C 0.6896 0.58525 0.66622 0.0
C3371 C 0.67669 0.57798 0.69872 0.0
C3372 C 0.66057 0.56911 0.68311 0.0
C3373 C 0.6577 0.56776 0.63503 0.0
C3374 C 0.67021 0.57525 0.60292 0.0
C3375 C 0.66419 0.57037 0.55334 0.0
C3376 C 0.6663 0.58507 0.52508 0.0
C3377 C 0.67267 0.56208 0.52921 0.0
C3378 C 0.64646 0.55845 0.56261 0.0
C3379 C 0.64289 0.55731 0.60987 0.0
C3380 C 0.62758 0.54615 0.6272 0.0
C3381 C 0.61562 0.53588 0.59536 0.0
C3382 C 0.61915 0.53685 0.54704 0.0
C3383 C 0.63467 0.54832 0.53045 0.0
H3384 H 0.41641 0.11808 0.61425 0.0
H3385 H 0.4592 0.16359 0.65273 0.0
H3386 H 0.47667 0.15463 0.6147 0.0
H3387 H 0.43576 0.09339 0.63915 0.0
H3388 H 0.42505 0.07923 0.59252 0.0
H3389 H 0.41582 0.08937 0.62204 0.0
H3390 H 0.41207 0.10007 0.5423 0.0
H3391 H 0.42149 0.09016 0.51262 0.0
H3392 H 0.42953 0.11171 0.50536 0.0
H3393 H 0.48899 0.1423 0.56441 0.0
H3394 H 0.49628 0.12526 0.51709 0.0
H3395 H 0.4464 0.08549 0.52473 0.0
C3396 C 0.42947 0.12603 0.61529 0.0
C3397 C 0.43645 0.14173 0.63515 0.0
C3398 C 0.45358 0.15177 0.63606 0.0
C3399 C 0.46361 0.14674 0.61496 0.0
C3400 C 0.45634 0.13138 0.59464 0.0
C3401 C 0.43972 0.12095 0.59583 0.0
C3402 C 0.43519 0.10481 0.57302 0.0
C3403 C 0.4275 0.09088 0.60882 0.0
C3404 C 0.4239 0.1015 0.53082 0.0
C3405 C 0.45182 0.10804 0.55769 0.0
C3406 C 0.46378 0.12354 0.56997 0.0
C3407 C 0.47986 0.12992 0.55605 0.0
C3408 C 0.48391 0.12007 0.52953 0.0
C3409 C 0.47206 0.10383 0.51857 0.0
C3410 C 0.45578 0.09779 0.53281 0.0
H3411 H 0.43357 0.31294 0.17544 0.0
H3412 H 0.41357 0.27912 0.05961 0.0
H3413 H 0.4247 0.30219 0.00388 0.0
H3414 H 0.42647 0.3445 0.12568 0.0
H3415 H 0.4452 0.36085 0.1488 0.0
H3416 H 0.43476 0.3417 0.17931 0.0
H3417 H 0.46093 0.33957 0.17654 0.0
H3418 H 0.4714 0.35863 0.14573 0.0
H3419 H 0.47039 0.34069 0.1209 0.0
H3420 H 0.43919 0.32867 0.96127 0.0
H3421 H 0.45606 0.35706 0.93405 0.0
H3422 H 0.46625 0.37364 0.07785 0.0
C3423 C 0.43129 0.31048 0.13837 0.0
C3424 C 0.42262 0.29442 0.12142 0.0
C3425 C 0.42016 0.29146 0.07284 0.0
C3426 C 0.42638 0.30444 0.04114 0.0
C3427 C 0.43498 0.3202 0.05888 0.0
C3428 C 0.4374 0.32328 0.10634 0.0
C3429 C 0.44764 0.3413 0.11617 0.0
C3430 C 0.43793 0.34745 0.14414 0.0
C3431 C 0.46353 0.34527 0.14131 0.0
C3432 C 0.45083 0.34786 0.06678 0.0
C3433 C 0.44335 0.33549 0.03428 0.0
C3434 C 0.44496 0.33848 0.98635 0.0
C3435 C 0.45449 0.35458 0.97125 0.0
C3436 C 0.46222 0.36737 0.00404 0.0
C3437 C 0.46035 0.36398 0.0523 0.0
H3438 H 0.63935 0.09885 0.98079 0.0
H3439 H 0.60578 0.09273 0.09227 0.0
H3440 H 0.62764 0.10005 0.1506 0.0
H3441 H 0.66086 0.08194 0.04464 0.0
H3442 H 0.68024 0.09611 0.01922 0.0
H3443 H 0.66178 0.08991 0.98677 0.0
H3444 H 0.66961 0.12012 0.97679 0.0
H3445 H 0.68806 0.1264 0.00918 0.0
H3446 H 0.67398 0.13277 0.02793 0.0
H3447 H 0.65355 0.10956 0.19572 0.0
H3448 H 0.68175 0.12061 0.22446 0.0
H3449 H 0.69774 0.11877 0.08376 0.0
C3450 C 0.63657 0.09881 0.01757 0.0
C3451 C 0.62097 0.09521 0.03234 0.0
C3452 C 0.61777 0.09559 0.08051 0.0
C3453 C 0.63003 0.0996 0.11377 0.0
C3454 C 0.64533 0.10304 0.09807 0.0
C3455 C 0.64861 0.10262 0.05113 0.0
C3456 C 0.66613 0.10723 0.04323 0.0
C3457 C 0.66732 0.09294 0.02223 0.0
C3458 C 0.67496 0.12254 0.01248 0.0
C3459 C 0.6723 0.11063 0.09298 0.0
C3460 C 0.66011 0.1081 0.12416 0.0
C3461 C 0.66314 0.11133 0.17179 0.0
C3462 C 0.67911 0.11751 0.18781 0.0
C3463 C 0.6917 0.12026 0.15624 0.0
C3464 C 0.6882 0.11657 0.10848 0.0
H3465 H 0.85157 0.54708 0.13865 0.0
H3466 H 0.89193 0.59387 0.18003 0.0
H3467 H 0.91109 0.58727 0.14047 0.0
H3468 H 0.87226 0.52414 0.15278 0.0
H3469 H 0.86269 0.5114 0.10256 0.0
H3470 H 0.85225 0.51973 0.13492 0.0
H3471 H 0.84893 0.53271 0.05894 0.0
H3472 H 0.85933 0.5244 0.02635 0.0
H3473 H 0.86668 0.54596 0.02486 0.0
H3474 H 0.92564 0.57588 0.09441 0.0
H3475 H 0.93466 0.56004 0.04664 0.0
H3476 H 0.88477 0.52079 0.03566 0.0
C3477 C 0.86445 0.55589 0.13931 0.0
C3478 C 0.87038 0.57089 0.16251 0.0
C3479 C 0.88726 0.58218 0.16297 0.0
C3480 C 0.89819 0.57859 0.14043 0.0
C3481 C 0.89197 0.56365 0.11779 0.0
C3482 C 0.8755 0.55246 0.11718 0.0
C3483 C 0.87194 0.53734 0.09016 0.0
C3484 C 0.86434 0.52226 0.12202 0.0
C3485 C 0.86108 0.53497 0.04755 0.0
C3486 C 0.88897 0.54181 0.07545 0.0
C3487 C 0.90035 0.55704 0.09165 0.0
C3488 C 0.91686 0.56391 0.08173 0.0
C3489 C 0.92187 0.55489 0.05462 0.0
C3490 C 0.91038 0.53924 0.03819 0.0
C3491 C 0.89376 0.53266 0.0486 0.0
H3492 H 0.52018 0.63706 0.97272 0.0
H3493 H 0.55981 0.62711 0.98822 0.0
H3494 H 0.57776 0.65178 0.94247 0.0
H3495 H 0.52938 0.6512 0.85325 0.0
H3496 H 0.52369 0.66655 0.86093 0.0
H3497 H 0.51413 0.6483 0.89577 0.0
H3498 H 0.52274 0.66575 0.97133 0.0
H3499 H 0.5324 0.68405 0.93673 0.0
H3500 H 0.54389 0.68048 0.98061 0.0
H3501 H 0.59139 0.67761 0.89624 0.0
H3502 H 0.59964 0.70263 0.85032 0.0
H3503 H 0.5507 0.69485 0.8612 0.0
C3504 C 0.53262 0.64008 0.96618 0.0
C3505 C 0.53873 0.63036 0.98411 0.0
C3506 C 0.55504 0.63462 0.97526 0.0
C3507 C 0.56527 0.64852 0.94918 0.0
C3508 C 0.5589 0.6579 0.93201 0.0
C3509 C 0.54294 0.65383 0.93988 0.0
C3510 C 0.53906 0.66585 0.91694 0.0
C3511 C 0.52578 0.65747 0.87949 0.0
C3512 C 0.53424 0.67455 0.9536 0.0
C3513 C 0.55537 0.67735 0.89516 0.0
C3514 C 0.56666 0.67258 0.90439 0.0
C3515 C 0.58264 0.68142 0.8885 0.0
C3516 C 0.58719 0.69554 0.86236 0.0
C3517 C 0.57576 0.70054 0.85232 0.0
C3518 C 0.55967 0.69131 0.86883 0.0
H3519 H 0.35648 0.91558 0.97357 0.0
H3520 H 0.36598 0.87644 0.00612 0.0
H3521 H 0.3397 0.85662 0.97144 0.0
H3522 H 0.31213 0.89102 0.00224 0.0
H3523 H 0.30664 0.90062 0.95705 0.0
H3524 H 0.32607 0.91179 0.9858 0.0
H3525 H 0.34041 0.91786 0.90517 0.0
H3526 H 0.32107 0.90647 0.87623 0.0
H3527 H 0.33665 0.90119 0.86704 0.0
H3528 H 0.31528 0.84213 0.9219 0.0
H3529 H 0.29041 0.83212 0.87511 0.0
H3530 H 0.29335 0.87911 0.88778 0.0
C3531 C 0.35282 0.90279 0.9743 0.0
C3532 C 0.36341 0.89754 0.99119 0.0
C3533 C 0.35824 0.88073 0.99182 0.0
C3534 C 0.34331 0.86938 0.97253 0.0
C3535 C 0.33343 0.87498 0.95441 0.0
C3536 C 0.33764 0.89116 0.95652 0.0
C3537 C 0.32447 0.89373 0.93517 0.0
C3538 C 0.31687 0.89964 0.97228 0.0
C3539 C 0.33105 0.90551 0.89343 0.0
C3540 C 0.31255 0.87655 0.91933 0.0
C3541 C 0.31816 0.86604 0.93026 0.0
C3542 C 0.31033 0.85 0.91491 0.0
C3543 C 0.29612 0.8444 0.88866 0.0
C3544 C 0.28951 0.85459 0.87954 0.0
C3545 C 0.29794 0.87094 0.89483 0.0
H3546 H 0.11858 0.43669 0.80895 0.0
H3547 H 0.13217 0.41211 0.91177 0.0
H3548 H 0.11972 0.42036 0.97439 0.0
H3549 H 0.12753 0.47075 0.87843 0.0
H3550 H 0.1108 0.47292 0.85759 0.0
H3551 H 0.11944 0.46385 0.82058 0.0
H3552 H 0.09104 0.43809 0.81126 0.0
H3553 H 0.0823 0.44713 0.84818 0.0
H3554 H 0.0797 0.42749 0.86268 0.0
H3555 H 0.10726 0.4326 0.02585 0.0
H3556 H 0.09638 0.44879 0.06301 0.0
H3557 H 0.091 0.46535 0.92646 0.0
C3558 C 0.11863 0.43284 0.8446 0.0
C3559 C 0.12611 0.4237 0.85596 0.0
C3560 C 0.12638 0.41911 0.90283 0.0
C3561 C 0.11931 0.42367 0.9384 0.0
C3562 C 0.11208 0.43281 0.92624 0.0
C3563 C 0.1117 0.43736 0.88048 0.0
C3564 C 0.10407 0.448 0.87713 0.0
C3565 C 0.11618 0.46488 0.85727 0.0
C3566 C 0.08834 0.43967 0.8481 0.0
C3567 C 0.10052 0.44898 0.92821 0.0
C3568 C 0.10506 0.44 0.95594 0.0
C3569 C 0.1035 0.43955 0.00449 0.0
C3570 C 0.0973 0.44871 0.02525 0.0
C3571 C 0.09288 0.45817 -0.00262 0.0
C3572 C 0.09432 0.45815 0.94834 0.0
H3573 H 0.14349 0.69316 0.35865 0.0
H3574 H 0.10658 0.70717 0.36996 0.0
H3575 H 0.08831 0.68117 0.4096 0.0
H3576 H 0.11708 0.64936 0.34683 0.0
H3577 H 0.12948 0.64471 0.38428 0.0
H3578 H 0.13869 0.66318 0.35032 0.0
H3579 H 0.15094 0.68014 0.42577 0.0
H3580 H 0.14189 0.66174 0.45986 0.0
H3581 H 0.1377 0.6778 0.47399 0.0
H3582 H 0.07453 0.65417 0.45019 0.0
H3583 H 0.06718 0.62945 0.49631 0.0
H3584 H 0.11484 0.63543 0.46937 0.0
C3585 C 0.13158 0.69077 0.36958 0.0
C3586 C 0.12639 0.70211 0.36116 0.0
C3587 C 0.11065 0.69848 0.37535 0.0
C3588 C 0.10023 0.68379 0.39798 0.0
C3589 C 0.10587 0.67303 0.40669 0.0
C3590 C 0.12126 0.67644 0.39351 0.0
C3591 C 0.12505 0.66371 0.41147 0.0
C3592 C 0.12773 0.65471 0.37079 0.0
C3593 C 0.13976 0.6713 0.44476 0.0
C3594 C 0.10945 0.65271 0.43735 0.0
C3595 C 0.0984 0.65808 0.43318 0.0
C3596 C 0.08311 0.6499 0.45397 0.0
C3597 C 0.07911 0.63597 0.48037 0.0
C3598 C 0.09051 0.63066 0.48668 0.0
C3599 C 0.10581 0.63909 0.46457 0.0
H3600 H 0.30746 0.43966 0.30891 0.0
H3601 H 0.27027 0.42159 0.41635 0.0
H3602 H 0.29155 0.43128 0.47751 0.0
H3603 H 0.33323 0.42786 0.3643 0.0
H3604 H 0.35189 0.44547 0.34588 0.0
H3605 H 0.3338 0.43826 0.31095 0.0
H3606 H 0.33633 0.46672 0.31545 0.0
H3607 H 0.35445 0.47403 0.3504 0.0
H3608 H 0.33754 0.47578 0.37182 0.0
H3609 H 0.31673 0.4415 0.52631 0.0
H3610 H 0.34425 0.45192 0.5597 0.0
H3611 H 0.3649 0.46288 0.4202 0.0
C3612 C 0.30387 0.43787 0.34537 0.0
C3613 C 0.28734 0.42997 0.35828 0.0
C3614 C 0.28295 0.4278 0.4061 0.0
C3615 C 0.29492 0.43321 0.44091 0.0
C3616 C 0.31115 0.44078 0.42707 0.0
C3617 C 0.31565 0.44317 0.38046 0.0
C3618 C 0.33389 0.45108 0.37487 0.0
C3619 C 0.33847 0.44 0.34738 0.0
C3620 C 0.34097 0.4679 0.35177 0.0
C3621 C 0.33893 0.45252 0.42559 0.0
C3622 C 0.32565 0.44659 0.45517 0.0
C3623 C 0.32723 0.44623 0.50354 0.0
C3624 C 0.34283 0.45206 0.52213 0.0
C3625 C 0.35651 0.45803 0.49231 0.0
C3626 C 0.35456 0.45841 0.44358 0.0
H3627 H 0.55331 0.8563 0.37025 0.0
H3628 H 0.60305 0.89627 0.363 0.0
H3629 H 0.59476 0.91412 0.40284 0.0
H3630 H 0.53252 0.87804 0.35689 0.0
H3631 H 0.51717 0.86652 0.40006 0.0
H3632 H 0.52683 0.8572 0.36865 0.0
H3633 H 0.53551 0.84997 0.44693 0.0
H3634 H 0.5257 0.8591 0.47863 0.0
H3635 H 0.54686 0.86581 0.48901 0.0
H3636 H 0.58027 0.92786 0.43875 0.0
H3637 H 0.56163 0.93563 0.47606 0.0
H3638 H 0.52307 0.88517 0.47362 0.0
C3639 C 0.56256 0.86871 0.37776 0.0
C3640 C 0.5788 0.87494 0.36314 0.0
C3641 C 0.59044 0.89136 0.37287 0.0
C3642 C 0.58588 0.90154 0.39582 0.0
C3643 C 0.56975 0.89494 0.40993 0.0
C3644 C 0.55837 0.87881 0.40217 0.0
C3645 C 0.54204 0.87442 0.42296 0.0
C3646 C 0.52887 0.86871 0.38485 0.0
C3647 C 0.53725 0.86157 0.46169 0.0
C3648 C 0.5459 0.89071 0.4428 0.0
C3649 C 0.56186 0.90247 0.43432 0.0
C3650 C 0.56785 0.91869 0.44648 0.0
C3651 C 0.55721 0.92297 0.46787 0.0
C3652 C 0.54092 0.911 0.47777 0.0
C3653 C 0.53536 0.89465 0.46574 0.0
loop_
_geom_bond_atom_site_label_1
_geom_bond_atom_site_label_2
_geom_bond_distance
_geom_bond_site_symmetry_2
_ccdc_geom_bond_type
Co0 O3 1.970 . S
Co0 N17 1.989 . S
Co0 O25 1.967 . S
Co0 O32 1.920 . S
Co1 O4 1.966 . S
Co1 N10 2.022 . S
Co1 N18 1.993 . S
Co1 O26 1.941 . S
C2 O3 1.258 . S
C2 O4 1.263 . S
O3 Co0 1.970 . S
O3 C2 1.258 . S
O4 Co1 1.966 . S
O4 C2 1.263 . S
C5 O6 1.235 . S
C5 O32 1.289 . S
O6 C5 1.235 . S
C7 C9 1.400 . S
C7 N10 1.351 . S
C7 C12 1.501 . S
C8 C9 1.387 . S
C8 N11 1.341 . S
C9 C7 1.400 . S
C9 C8 1.387 . S
N10 Co1 2.022 . S
N10 C7 1.351 . S
N10 N11 1.365 . S
N11 C8 1.341 . S
N11 N10 1.365 . S
N11 H31 0.862 . S
C12 C7 1.501 . S
C12 H13 0.961 . S
C12 H14 0.961 . S
C12 H15 0.960 . S
H13 C12 0.961 . S
H14 C12 0.961 . S
H15 C12 0.960 . S
C16 N17 1.342 . S
C16 C20 1.401 . S
C16 C21 1.499 . S
N17 Co0 1.989 . S
N17 C16 1.342 . S
N17 N18 1.388 . S
N18 Co1 1.993 . S
N18 N17 1.388 . S
N18 C19 1.346 . S
C19 N18 1.346 . S
C19 C20 1.396 . S
C19 C29 1.510 . S
C20 C16 1.401 . S
C20 C19 1.396 . S
C21 C16 1.499 . S
C21 H22 0.959 . S
C21 H23 0.960 . S
C21 H24 0.961 . S
H22 C21 0.959 . S
H23 C21 0.960 . S
H24 C21 0.961 . S
O25 Co0 1.967 . S
O25 C33 1.258 . S
O26 Co1 1.941 . S
O26 C33 1.266 . S
H27 C29 0.959 . S
H28 C29 0.961 . S
C29 C19 1.510 . S
C29 H27 0.959 . S
C29 H28 0.961 . S
C29 H30 0.960 . S
H30 C29 0.960 . S
H31 N11 0.862 . S
O32 Co0 1.920 . S
O32 C5 1.289 . S
C33 O25 1.258 . S
C33 O26 1.266 . S
Co34 O37 1.970 . S
Co34 N51 1.989 . S
Co34 O59 1.967 . S
Co34 O66 1.920 . S
Co35 O38 1.966 . S
Co35 N44 2.022 . S
Co35 N52 1.993 . S
Co35 O60 1.941 . S
C36 O37 1.258 . S
C36 O38 1.263 . S
O37 Co34 1.970 . S
O37 C36 1.258 . S
O38 Co35 1.966 . S
O38 C36 1.263 . S
C39 O40 1.235 . S
C39 O66 1.289 . S
O40 C39 1.235 . S
C41 C43 1.400 . S
C41 N44 1.351 . S
C41 C46 1.501 . S
C42 C43 1.387 . S
C42 N45 1.341 . S
C43 C41 1.400 . S
C43 C42 1.387 . S
N44 Co35 2.022 . S
N44 C41 1.351 . S
N44 N45 1.365 . S
N45 C42 1.341 . S
N45 N44 1.365 . S
N45 H65 0.862 . S
C46 C41 1.501 . S
C46 H47 0.961 . S
C46 H48 0.961 . S
C46 H49 0.960 . S
H47 C46 0.961 . S
H48 C46 0.961 . S
H49 C46 0.960 . S
C50 N51 1.342 . S
C50 C54 1.401 . S
C50 C55 1.499 . S
N51 Co34 1.989 . S
N51 C50 1.342 . S
N51 N52 1.388 . S
N52 Co35 1.993 . S
N52 N51 1.388 . S
N52 C53 1.346 . S
C53 N52 1.346 . S
C53 C54 1.396 . S
C53 C63 1.510 . S
C54 C50 1.401 . S
C54 C53 1.396 . S
C55 C50 1.499 . S
C55 H56 0.959 . S
C55 H57 0.960 . S
C55 H58 0.961 . S
H56 C55 0.959 . S
H57 C55 0.960 . S
H58 C55 0.961 . S
O59 Co34 1.967 . S
O59 C67 1.258 . S
O60 Co35 1.941 . S
O60 C67 1.266 . S
H61 C63 0.959 . S
H62 C63 0.961 . S
C63 C53 1.510 . S
C63 H61 0.959 . S
C63 H62 0.961 . S
C63 H64 0.960 . S
H64 C63 0.960 . S
H65 N45 0.862 . S
O66 Co34 1.920 . S
O66 C39 1.289 . S
C67 O59 1.258 . S
C67 O60 1.266 . S
Co68 O71 1.970 . S
Co68 N85 1.989 . S
Co68 O93 1.967 . S
Co68 O100 1.920 . S
Co69 O72 1.966 . S
Co69 N78 2.022 . S
Co69 N86 1.993 . S
Co69 O94 1.941 . S
C70 O71 1.258 . S
C70 O72 1.263 . S
O71 Co68 1.970 . S
O71 C70 1.258 . S
O72 Co69 1.966 . S
O72 C70 1.263 . S
C73 O74 1.235 . S
C73 O100 1.289 . S
O74 C73 1.235 . S
C75 C77 1.400 . S
C75 N78 1.351 . S
C75 C80 1.501 . S
C76 C77 1.387 . S
C76 N79 1.341 . S
C77 C75 1.400 . S
C77 C76 1.387 . S
N78 Co69 2.022 . S
N78 C75 1.351 . S
N78 N79 1.365 . S
N79 C76 1.341 . S
N79 N78 1.365 . S
N79 H99 0.862 . S
C80 C75 1.501 . S
C80 H81 0.961 . S
C80 H82 0.961 . S
C80 H83 0.960 . S
H81 C80 0.961 . S
H82 C80 0.961 . S
H83 C80 0.960 . S
C84 N85 1.342 . S
C84 C88 1.401 . S
C84 C89 1.499 . S
N85 Co68 1.989 . S
N85 C84 1.342 . S
N85 N86 1.388 . S
N86 Co69 1.993 . S
N86 N85 1.388 . S
N86 C87 1.346 . S
C87 N86 1.346 . S
C87 C88 1.396 . S
C87 C97 1.510 . S
C88 C84 1.401 . S
C88 C87 1.396 . S
C89 C84 1.499 . S
C89 H90 0.959 . S
C89 H91 0.960 . S
C89 H92 0.961 . S
H90 C89 0.959 . S
H91 C89 0.960 . S
H92 C89 0.961 . S
O93 Co68 1.967 . S
O93 C101 1.258 . S
O94 Co69 1.941 . S
O94 C101 1.266 . S
H95 C97 0.959 . S
H96 C97 0.961 . S
C97 C87 1.510 . S
C97 H95 0.959 . S
C97 H96 0.961 . S
C97 H98 0.960 . S
H98 C97 0.960 . S
H99 N79 0.862 . S
O100 Co68 1.920 . S
O100 C73 1.289 . S
C101 O93 1.258 . S
C101 O94 1.266 . S
Co102 O105 1.970 . S
Co102 N119 1.989 . S
Co102 O127 1.967 . S
Co102 O134 1.920 . S
Co103 O106 1.966 . S
Co103 N112 2.022 . S
Co103 N120 1.993 . S
Co103 O128 1.941 . S
C104 O105 1.258 . S
C104 O106 1.263 . S
O105 Co102 1.970 . S
O105 C104 1.258 . S
O106 Co103 1.966 . S
O106 C104 1.263 . S
C107 O108 1.235 . S
C107 O134 1.289 . S
O108 C107 1.235 . S
C109 C111 1.400 . S
C109 N112 1.351 . S
C109 C114 1.501 . S
C110 C111 1.387 . S
C110 N113 1.341 . S
C111 C109 1.400 . S
C111 C110 1.387 . S
N112 Co103 2.022 . S
N112 C109 1.351 . S
N112 N113 1.365 . S
N113 C110 1.341 . S
N113 N112 1.365 . S
N113 H133 0.862 . S
C114 C109 1.501 . S
C114 H115 0.961 . S
C114 H116 0.961 . S
C114 H117 0.960 . S
H115 C114 0.961 . S
H116 C114 0.961 . S
H117 C114 0.960 . S
C118 N119 1.342 . S
C118 C122 1.401 . S
C118 C123 1.499 . S
N119 Co102 1.989 . S
N119 C118 1.342 . S
N119 N120 1.388 . S
N120 Co103 1.993 . S
N120 N119 1.388 . S
N120 C121 1.346 . S
C121 N120 1.346 . S
C121 C122 1.396 . S
C121 C131 1.510 . S
C122 C118 1.401 . S
C122 C121 1.396 . S
C123 C118 1.499 . S
C123 H124 0.959 . S
C123 H125 0.960 . S
C123 H126 0.961 . S
H124 C123 0.959 . S
H125 C123 0.960 . S
H126 C123 0.961 . S
O127 Co102 1.967 . S
O127 C135 1.258 . S
O128 Co103 1.941 . S
O128 C135 1.266 . S
H129 C131 0.959 . S
H130 C131 0.961 . S
C131 C121 1.510 . S
C131 H129 0.959 . S
C131 H130 0.961 . S
C131 H132 0.960 . S
H132 C131 0.960 . S
H133 N113 0.862 . S
O134 Co102 1.920 . S
O134 C107 1.289 . S
C135 O127 1.258 . S
C135 O128 1.266 . S
Co136 O139 1.970 . S
Co136 N153 1.989 . S
Co136 O161 1.967 . S
Co136 O168 1.920 . S
Co137 O140 1.966 . S
Co137 N146 2.022 . S
Co137 N154 1.993 . S
Co137 O162 1.941 . S
C138 O139 1.258 . S
C138 O140 1.263 . S
O139 Co136 1.970 . S
O139 C138 1.258 . S
O140 Co137 1.966 . S
O140 C138 1.263 . S
C141 O142 1.235 . S
C141 O168 1.289 . S
O142 C141 1.235 . S
C143 C145 1.400 . S
C143 N146 1.351 . S
C143 C148 1.501 . S
C144 C145 1.387 . S
C144 N147 1.341 . S
C145 C143 1.400 . S
C145 C144 1.387 . S
N146 Co137 2.022 . S
N146 C143 1.351 . S
N146 N147 1.365 . S
N147 C144 1.341 . S
N147 N146 1.365 . S
N147 H167 0.862 . S
C148 C143 1.501 . S
C148 H149 0.961 . S
C148 H150 0.961 . S
C148 H151 0.960 . S
H149 C148 0.961 . S
H150 C148 0.961 . S
H151 C148 0.960 . S
C152 N153 1.342 . S
C152 C156 1.401 . S
C152 C157 1.499 . S
N153 Co136 1.989 . S
N153 C152 1.342 . S
N153 N154 1.388 . S
N154 Co137 1.993 . S
N154 N153 1.388 . S
N154 C155 1.346 . S
C155 N154 1.346 . S
C155 C156 1.396 . S
C155 C165 1.510 . S
C156 C152 1.401 . S
C156 C155 1.396 . S
C157 C152 1.499 . S
C157 H158 0.959 . S
C157 H159 0.960 . S
C157 H160 0.961 . S
H158 C157 0.959 . S
H159 C157 0.960 . S
H160 C157 0.961 . S
O161 Co136 1.967 . S
O161 C169 1.258 . S
O162 Co137 1.941 . S
O162 C169 1.266 . S
H163 C165 0.959 . S
H164 C165 0.961 . S
C165 C155 1.510 . S
C165 H163 0.959 . S
C165 H164 0.961 . S
C165 H166 0.960 . S
H166 C165 0.960 . S
H167 N147 0.862 . S
O168 Co136 1.920 . S
O168 C141 1.289 . S
C169 O161 1.258 . S
C169 O162 1.266 . S
Co170 O173 1.970 . S
Co170 N187 1.989 . S
Co170 O195 1.967 . S
Co170 O202 1.920 . S
Co171 O174 1.966 . S
Co171 N180 2.022 . S
Co171 N188 1.993 . S
Co171 O196 1.941 . S
C172 O173 1.258 . S
C172 O174 1.263 . S
O173 Co170 1.970 . S
O173 C172 1.258 . S
O174 Co171 1.966 . S
O174 C172 1.263 . S
C175 O176 1.235 . S
C175 O202 1.289 . S
O176 C175 1.235 . S
C177 C179 1.400 . S
C177 N180 1.351 . S
C177 C182 1.501 . S
C178 C179 1.387 . S
C178 N181 1.341 . S
C179 C177 1.400 . S
C179 C178 1.387 . S
N180 Co171 2.022 . S
N180 C177 1.351 . S
N180 N181 1.365 . S
N181 C178 1.341 . S
N181 N180 1.365 . S
N181 H201 0.862 . S
C182 C177 1.501 . S
C182 H183 0.961 . S
C182 H184 0.961 . S
C182 H185 0.960 . S
H183 C182 0.961 . S
H184 C182 0.961 . S
H185 C182 0.960 . S
C186 N187 1.342 . S
C186 C190 1.401 . S
C186 C191 1.499 . S
N187 Co170 1.989 . S
N187 C186 1.342 . S
N187 N188 1.388 . S
N188 Co171 1.993 . S
N188 N187 1.388 . S
N188 C189 1.346 . S
C189 N188 1.346 . S
C189 C190 1.396 . S
C189 C199 1.510 . S
C190 C186 1.401 . S
C190 C189 1.396 . S
C191 C186 1.499 . S
C191 H192 0.959 . S
C191 H193 0.960 . S
C191 H194 0.961 . S
H192 C191 0.959 . S
H193 C191 0.960 . S
H194 C191 0.961 . S
O195 Co170 1.967 . S
O195 C203 1.258 . S
O196 Co171 1.941 . S
O196 C203 1.266 . S
H197 C199 0.959 . S
H198 C199 0.961 . S
C199 C189 1.510 . S
C199 H197 0.959 . S
C199 H198 0.961 . S
C199 H200 0.960 . S
H200 C199 0.960 . S
H201 N181 0.862 . S
O202 Co170 1.920 . S
O202 C175 1.289 . S
C203 O195 1.258 . S
C203 O196 1.266 . S
Co204 O207 1.970 . S
Co204 N221 1.989 . S
Co204 O229 1.967 . S
Co204 O236 1.920 . S
Co205 O208 1.966 . S
Co205 N214 2.022 . S
Co205 N222 1.993 . S
Co205 O230 1.941 . S
C206 O207 1.258 . S
C206 O208 1.263 . S
O207 Co204 1.970 . S
O207 C206 1.258 . S
O208 Co205 1.966 . S
O208 C206 1.263 . S
C209 O210 1.235 . S
C209 O236 1.289 . S
O210 C209 1.235 . S
C211 C213 1.400 . S
C211 N214 1.351 . S
C211 C216 1.501 . S
C212 C213 1.387 . S
C212 N215 1.341 . S
C213 C211 1.400 . S
C213 C212 1.387 . S
N214 Co205 2.022 . S
N214 C211 1.351 . S
N214 N215 1.365 . S
N215 C212 1.341 . S
N215 N214 1.365 . S
N215 H235 0.862 . S
C216 C211 1.501 . S
C216 H217 0.961 . S
C216 H218 0.961 . S
C216 H219 0.960 . S
H217 C216 0.961 . S
H218 C216 0.961 . S
H219 C216 0.960 . S
C220 N221 1.342 . S
C220 C224 1.401 . S
C220 C225 1.499 . S
N221 Co204 1.989 . S
N221 C220 1.342 . S
N221 N222 1.388 . S
N222 Co205 1.993 . S
N222 N221 1.388 . S
N222 C223 1.346 . S
C223 N222 1.346 . S
C223 C224 1.396 . S
C223 C233 1.510 . S
C224 C220 1.401 . S
C224 C223 1.396 . S
C225 C220 1.499 . S
C225 H226 0.959 . S
C225 H227 0.960 . S
C225 H228 0.961 . S
H226 C225 0.959 . S
H227 C225 0.960 . S
H228 C225 0.961 . S
O229 Co204 1.967 . S
O229 C237 1.258 . S
O230 Co205 1.941 . S
O230 C237 1.266 . S
H231 C233 0.959 . S
H232 C233 0.961 . S
C233 C223 1.510 . S
C233 H231 0.959 . S
C233 H232 0.961 . S
C233 H234 0.960 . S
H234 C233 0.960 . S
H235 N215 0.862 . S
O236 Co204 1.920 . S
O236 C209 1.289 . S
C237 O229 1.258 . S
C237 O230 1.266 . S
Co238 O241 1.970 . S
Co238 N255 1.989 . S
Co238 O263 1.967 . S
Co238 O270 1.920 . S
Co239 O242 1.966 . S
Co239 N248 2.022 . S
Co239 N256 1.993 . S
Co239 O264 1.941 . S
C240 O241 1.258 . S
C240 O242 1.263 . S
O241 Co238 1.970 . S
O241 C240 1.258 . S
O242 Co239 1.966 . S
O242 C240 1.263 . S
C243 O244 1.235 . S
C243 O270 1.289 . S
O244 C243 1.235 . S
C245 C247 1.400 . S
C245 N248 1.351 . S
C245 C250 1.501 . S
C246 C247 1.387 . S
C246 N249 1.341 . S
C247 C245 1.400 . S
C247 C246 1.387 . S
N248 Co239 2.022 . S
N248 C245 1.351 . S
N248 N249 1.365 . S
N249 C246 1.341 . S
N249 N248 1.365 . S
N249 H269 0.862 . S
C250 C245 1.501 . S
C250 H251 0.961 . S
C250 H252 0.961 . S
C250 H253 0.960 . S
H251 C250 0.961 . S
H252 C250 0.961 . S
H253 C250 0.960 . S
C254 N255 1.342 . S
C254 C258 1.401 . S
C254 C259 1.499 . S
N255 Co238 1.989 . S
N255 C254 1.342 . S
N255 N256 1.388 . S
N256 Co239 1.993 . S
N256 N255 1.388 . S
N256 C257 1.346 . S
C257 N256 1.346 . S
C257 C258 1.396 . S
C257 C267 1.510 . S
C258 C254 1.401 . S
C258 C257 1.396 . S
C259 C254 1.499 . S
C259 H260 0.959 . S
C259 H261 0.960 . S
C259 H262 0.961 . S
H260 C259 0.959 . S
H261 C259 0.960 . S
H262 C259 0.961 . S
O263 Co238 1.967 . S
O263 C271 1.258 . S
O264 Co239 1.941 . S
O264 C271 1.266 . S
H265 C267 0.959 . S
H266 C267 0.961 . S
C267 C257 1.510 . S
C267 H265 0.959 . S
C267 H266 0.961 . S
C267 H268 0.960 . S
H268 C267 0.960 . S
H269 N249 0.862 . S
O270 Co238 1.920 . S
O270 C243 1.289 . S
C271 O263 1.258 . S
C271 O264 1.266 . S
Co272 O275 1.970 . S
Co272 N289 1.989 . S
Co272 O297 1.967 . S
Co272 O304 1.920 . S
Co273 O276 1.966 . S
Co273 N282 2.022 . S
Co273 N290 1.993 . S
Co273 O298 1.941 . S
C274 O275 1.258 . S
C274 O276 1.263 . S
O275 Co272 1.970 . S
O275 C274 1.258 . S
O276 Co273 1.966 . S
O276 C274 1.263 . S
C277 O278 1.235 . S
C277 O304 1.289 . S
O278 C277 1.235 . S
C279 C281 1.400 . S
C279 N282 1.351 . S
C279 C284 1.501 . S
C280 C281 1.387 . S
C280 N283 1.341 . S
C281 C279 1.400 . S
C281 C280 1.387 . S
N282 Co273 2.022 . S
N282 C279 1.351 . S
N282 N283 1.365 . S
N283 C280 1.341 . S
N283 N282 1.365 . S
N283 H303 0.862 . S
C284 C279 1.501 . S
C284 H285 0.961 . S
C284 H286 0.961 . S
C284 H287 0.960 . S
H285 C284 0.961 . S
H286 C284 0.961 . S
H287 C284 0.960 . S
C288 N289 1.342 . S
C288 C292 1.401 . S
C288 C293 1.499 . S
N289 Co272 1.989 . S
N289 C288 1.342 . S
N289 N290 1.388 . S
N290 Co273 1.993 . S
N290 N289 1.388 . S
N290 C291 1.346 . S
C291 N290 1.346 . S
C291 C292 1.396 . S
C291 C301 1.510 . S
C292 C288 1.401 . S
C292 C291 1.396 . S
C293 C288 1.499 . S
C293 H294 0.959 . S
C293 H295 0.960 . S
C293 H296 0.961 . S
H294 C293 0.959 . S
H295 C293 0.960 . S
H296 C293 0.961 . S
O297 Co272 1.967 . S
O297 C305 1.258 . S
O298 Co273 1.941 . S
O298 C305 1.266 . S
H299 C301 0.959 . S
H300 C301 0.961 . S
C301 C291 1.510 . S
C301 H299 0.959 . S
C301 H300 0.961 . S
C301 H302 0.960 . S
H302 C301 0.960 . S
H303 N283 0.862 . S
O304 Co272 1.920 . S
O304 C277 1.289 . S
C305 O297 1.258 . S
C305 O298 1.266 . S
Co306 O309 1.970 . S
Co306 N323 1.989 . S
Co306 O331 1.967 . S
Co306 O338 1.920 . S
Co307 O310 1.966 . S
Co307 N316 2.022 . S
Co307 N324 1.993 . S
Co307 O332 1.941 . S
C308 O309 1.258 . S
C308 O310 1.263 . S
O309 Co306 1.970 . S
O309 C308 1.258 . S
O310 Co307 1.966 . S
O310 C308 1.263 . S
C311 O312 1.235 . S
C311 O338 1.289 . S
O312 C311 1.235 . S
C313 C315 1.400 . S
C313 N316 1.351 . S
C313 C318 1.501 . S
C314 C315 1.387 . S
C314 N317 1.341 . S
C315 C313 1.400 . S
C315 C314 1.387 . S
N316 Co307 2.022 . S
N316 C313 1.351 . S
N316 N317 1.365 . S
N317 C314 1.341 . S
N317 N316 1.365 . S
N317 H337 0.862 . S
C318 C313 1.501 . S
C318 H319 0.961 . S
C318 H320 0.961 . S
C318 H321 0.960 . S
H319 C318 0.961 . S
H320 C318 0.961 . S
H321 C318 0.960 . S
C322 N323 1.342 . S
C322 C326 1.401 . S
C322 C327 1.499 . S
N323 Co306 1.989 . S
N323 C322 1.342 . S
N323 N324 1.388 . S
N324 Co307 1.993 . S
N324 N323 1.388 . S
N324 C325 1.346 . S
C325 N324 1.346 . S
C325 C326 1.396 . S
C325 C335 1.510 . S
C326 C322 1.401 . S
C326 C325 1.396 . S
C327 C322 1.499 . S
C327 H328 0.959 . S
C327 H329 0.960 . S
C327 H330 0.961 . S
H328 C327 0.959 . S
H329 C327 0.960 . S
H330 C327 0.961 . S
O331 Co306 1.967 . S
O331 C339 1.258 . S
O332 Co307 1.941 . S
O332 C339 1.266 . S
H333 C335 0.959 . S
H334 C335 0.961 . S
C335 C325 1.510 . S
C335 H333 0.959 . S
C335 H334 0.961 . S
C335 H336 0.960 . S
H336 C335 0.960 . S
H337 N317 0.862 . S
O338 Co306 1.920 . S
O338 C311 1.289 . S
C339 O331 1.258 . S
C339 O332 1.266 . S
Co340 O343 1.970 . S
Co340 N357 1.989 . S
Co340 O365 1.967 . S
Co340 O372 1.920 . S
Co341 O344 1.966 . S
Co341 N350 2.022 . S
Co341 N358 1.993 . S
Co341 O366 1.941 . S
C342 O343 1.258 . S
C342 O344 1.263 . S
O343 Co340 1.970 . S
O343 C342 1.258 . S
O344 Co341 1.966 . S
O344 C342 1.263 . S
C345 O346 1.235 . S
C345 O372 1.289 . S
O346 C345 1.235 . S
C347 C349 1.400 . S
C347 N350 1.351 . S
C347 C352 1.501 . S
C348 C349 1.387 . S
C348 N351 1.341 . S
C349 C347 1.400 . S
C349 C348 1.387 . S
N350 Co341 2.022 . S
N350 C347 1.351 . S
N350 N351 1.365 . S
N351 C348 1.341 . S
N351 N350 1.365 . S
N351 H371 0.862 . S
C352 C347 1.501 . S
C352 H353 0.961 . S
C352 H354 0.961 . S
C352 H355 0.960 . S
H353 C352 0.961 . S
H354 C352 0.961 . S
H355 C352 0.960 . S
C356 N357 1.342 . S
C356 C360 1.401 . S
C356 C361 1.499 . S
N357 Co340 1.989 . S
N357 C356 1.342 . S
N357 N358 1.388 . S
N358 Co341 1.993 . S
N358 N357 1.388 . S
N358 C359 1.346 . S
C359 N358 1.346 . S
C359 C360 1.396 . S
C359 C369 1.510 . S
C360 C356 1.401 . S
C360 C359 1.396 . S
C361 C356 1.499 . S
C361 H362 0.959 . S
C361 H363 0.960 . S
C361 H364 0.961 . S
H362 C361 0.959 . S
H363 C361 0.960 . S
H364 C361 0.961 . S
O365 Co340 1.967 . S
O365 C373 1.258 . S
O366 Co341 1.941 . S
O366 C373 1.266 . S
H367 C369 0.959 . S
H368 C369 0.961 . S
C369 C359 1.510 . S
C369 H367 0.959 . S
C369 H368 0.961 . S
C369 H370 0.960 . S
H370 C369 0.960 . S
H371 N351 0.862 . S
O372 Co340 1.920 . S
O372 C345 1.289 . S
C373 O365 1.258 . S
C373 O366 1.266 . S
Co374 O377 1.970 . S
Co374 N391 1.989 . S
Co374 O399 1.967 . S
Co374 O406 1.920 . S
Co375 O378 1.966 . S
Co375 N384 2.022 . S
Co375 N392 1.993 . S
Co375 O400 1.941 . S
C376 O377 1.258 . S
C376 O378 1.263 . S
O377 Co374 1.970 . S
O377 C376 1.258 . S
O378 Co375 1.966 . S
O378 C376 1.263 . S
C379 O380 1.235 . S
C379 O406 1.289 . S
O380 C379 1.235 . S
C381 C383 1.400 . S
C381 N384 1.351 . S
C381 C386 1.501 . S
C382 C383 1.387 . S
C382 N385 1.341 . S
C383 C381 1.400 . S
C383 C382 1.387 . S
N384 Co375 2.022 . S
N384 C381 1.351 . S
N384 N385 1.365 . S
N385 C382 1.341 . S
N385 N384 1.365 . S
N385 H405 0.862 . S
C386 C381 1.501 . S
C386 H387 0.961 . S
C386 H388 0.961 . S
C386 H389 0.960 . S
H387 C386 0.961 . S
H388 C386 0.961 . S
H389 C386 0.960 . S
C390 N391 1.342 . S
C390 C394 1.401 . S
C390 C395 1.499 . S
N391 Co374 1.989 . S
N391 C390 1.342 . S
N391 N392 1.388 . S
N392 Co375 1.993 . S
N392 N391 1.388 . S
N392 C393 1.346 . S
C393 N392 1.346 . S
C393 C394 1.396 . S
C393 C403 1.510 . S
C394 C390 1.401 . S
C394 C393 1.396 . S
C395 C390 1.499 . S
C395 H396 0.959 . S
C395 H397 0.960 . S
C395 H398 0.961 . S
H396 C395 0.959 . S
H397 C395 0.960 . S
H398 C395 0.961 . S
O399 Co374 1.967 . S
O399 C407 1.258 . S
O400 Co375 1.941 . S
O400 C407 1.266 . S
H401 C403 0.959 . S
H402 C403 0.961 . S
C403 C393 1.510 . S
C403 H401 0.959 . S
C403 H402 0.961 . S
C403 H404 0.960 . S
H404 C403 0.960 . S
H405 N385 0.862 . S
O406 Co374 1.920 . S
O406 C379 1.289 . S
C407 O399 1.258 . S
C407 O400 1.266 . S
Co408 O411 1.970 . S
Co408 N425 1.989 . S
Co408 O433 1.967 . S
Co408 O440 1.920 . S
Co409 O412 1.966 . S
Co409 N418 2.022 . S
Co409 N426 1.993 . S
Co409 O434 1.941 . S
C410 O411 1.258 . S
C410 O412 1.263 . S
O411 Co408 1.970 . S
O411 C410 1.258 . S
O412 Co409 1.966 . S
O412 C410 1.263 . S
C413 O414 1.235 . S
C413 O440 1.289 . S
O414 C413 1.235 . S
C415 C417 1.400 . S
C415 N418 1.351 . S
C415 C420 1.501 . S
C416 C417 1.387 . S
C416 N419 1.341 . S
C417 C415 1.400 . S
C417 C416 1.387 . S
N418 Co409 2.022 . S
N418 C415 1.351 . S
N418 N419 1.365 . S
N419 C416 1.341 . S
N419 N418 1.365 . S
N419 H439 0.862 . S
C420 C415 1.501 . S
C420 H421 0.961 . S
C420 H422 0.961 . S
C420 H423 0.960 . S
H421 C420 0.961 . S
H422 C420 0.961 . S
H423 C420 0.960 . S
C424 N425 1.342 . S
C424 C428 1.401 . S
C424 C429 1.499 . S
N425 Co408 1.989 . S
N425 C424 1.342 . S
N425 N426 1.388 . S
N426 Co409 1.993 . S
N426 N425 1.388 . S
N426 C427 1.346 . S
C427 N426 1.346 . S
C427 C428 1.396 . S
C427 C437 1.510 . S
C428 C424 1.401 . S
C428 C427 1.396 . S
C429 C424 1.499 . S
C429 H430 0.959 . S
C429 H431 0.960 . S
C429 H432 0.961 . S
H430 C429 0.959 . S
H431 C429 0.960 . S
H432 C429 0.961 . S
O433 Co408 1.967 . S
O433 C441 1.258 . S
O434 Co409 1.941 . S
O434 C441 1.266 . S
H435 C437 0.959 . S
H436 C437 0.961 . S
C437 C427 1.510 . S
C437 H435 0.959 . S
C437 H436 0.961 . S
C437 H438 0.960 . S
H438 C437 0.960 . S
H439 N419 0.862 . S
O440 Co408 1.920 . S
O440 C413 1.289 . S
C441 O433 1.258 . S
C441 O434 1.266 . S
Co442 O445 1.970 . S
Co442 N459 1.989 . S
Co442 O467 1.967 . S
Co442 O474 1.920 . S
Co443 O446 1.966 . S
Co443 N452 2.022 . S
Co443 N460 1.993 . S
Co443 O468 1.941 . S
C444 O445 1.258 . S
C444 O446 1.263 . S
O445 Co442 1.970 . S
O445 C444 1.258 . S
O446 Co443 1.966 . S
O446 C444 1.263 . S
C447 O448 1.235 . S
C447 O474 1.289 . S
O448 C447 1.235 . S
C449 C451 1.400 . S
C449 N452 1.351 . S
C449 C454 1.501 . S
C450 C451 1.387 . S
C450 N453 1.341 . S
C451 C449 1.400 . S
C451 C450 1.387 . S
N452 Co443 2.022 . S
N452 C449 1.351 . S
N452 N453 1.365 . S
N453 C450 1.341 . S
N453 N452 1.365 . S
N453 H473 0.862 . S
C454 C449 1.501 . S
C454 H455 0.961 . S
C454 H456 0.961 . S
C454 H457 0.960 . S
H455 C454 0.961 . S
H456 C454 0.961 . S
H457 C454 0.960 . S
C458 N459 1.342 . S
C458 C462 1.401 . S
C458 C463 1.499 . S
N459 Co442 1.989 . S
N459 C458 1.342 . S
N459 N460 1.388 . S
N460 Co443 1.993 . S
N460 N459 1.388 . S
N460 C461 1.346 . S
C461 N460 1.346 . S
C461 C462 1.396 . S
C461 C471 1.510 . S
C462 C458 1.401 . S
C462 C461 1.396 . S
C463 C458 1.499 . S
C463 H464 0.959 . S
C463 H465 0.960 . S
C463 H466 0.961 . S
H464 C463 0.959 . S
H465 C463 0.960 . S
H466 C463 0.961 . S
O467 Co442 1.967 . S
O467 C475 1.258 . S
O468 Co443 1.941 . S
O468 C475 1.266 . S
H469 C471 0.959 . S
H470 C471 0.961 . S
C471 C461 1.510 . S
C471 H469 0.959 . S
C471 H470 0.961 . S
C471 H472 0.960 . S
H472 C471 0.960 . S
H473 N453 0.862 . S
O474 Co442 1.920 . S
O474 C447 1.289 . S
C475 O467 1.258 . S
C475 O468 1.266 . S
Co476 O479 1.970 . S
Co476 N493 1.989 . S
Co476 O501 1.967 . S
Co476 O508 1.920 . S
Co477 O480 1.966 . S
Co477 N486 2.022 . S
Co477 N494 1.993 . S
Co477 O502 1.941 . S
C478 O479 1.258 . S
C478 O480 1.263 . S
O479 Co476 1.970 . S
O479 C478 1.258 . S
O480 Co477 1.966 . S
O480 C478 1.263 . S
C481 O482 1.235 . S
C481 O508 1.289 . S
O482 C481 1.235 . S
C483 C485 1.400 . S
C483 N486 1.351 . S
C483 C488 1.501 . S
C484 C485 1.387 . S
C484 N487 1.341 . S
C485 C483 1.400 . S
C485 C484 1.387 . S
N486 Co477 2.022 . S
N486 C483 1.351 . S
N486 N487 1.365 . S
N487 C484 1.341 . S
N487 N486 1.365 . S
N487 H507 0.862 . S
C488 C483 1.501 . S
C488 H489 0.961 . S
C488 H490 0.961 . S
C488 H491 0.960 . S
H489 C488 0.961 . S
H490 C488 0.961 . S
H491 C488 0.960 . S
C492 N493 1.342 . S
C492 C496 1.401 . S
C492 C497 1.499 . S
N493 Co476 1.989 . S
N493 C492 1.342 . S
N493 N494 1.388 . S
N494 Co477 1.993 . S
N494 N493 1.388 . S
N494 C495 1.346 . S
C495 N494 1.346 . S
C495 C496 1.396 . S
C495 C505 1.510 . S
C496 C492 1.401 . S
C496 C495 1.396 . S
C497 C492 1.499 . S
C497 H498 0.959 . S
C497 H499 0.960 . S
C497 H500 0.961 . S
H498 C497 0.959 . S
H499 C497 0.960 . S
H500 C497 0.961 . S
O501 Co476 1.967 . S
O501 C509 1.258 . S
O502 Co477 1.941 . S
O502 C509 1.266 . S
H503 C505 0.959 . S
H504 C505 0.961 . S
C505 C495 1.510 . S
C505 H503 0.959 . S
C505 H504 0.961 . S
C505 H506 0.960 . S
H506 C505 0.960 . S
H507 N487 0.862 . S
O508 Co476 1.920 . S
O508 C481 1.289 . S
C509 O501 1.258 . S
C509 O502 1.266 . S
Co510 O513 1.970 . S
Co510 N527 1.989 . S
Co510 O535 1.967 . S
Co510 O542 1.920 . S
Co511 O514 1.966 . S
Co511 N520 2.022 . S
Co511 N528 1.993 . S
Co511 O536 1.941 . S
C512 O513 1.258 . S
C512 O514 1.263 . S
O513 Co510 1.970 . S
O513 C512 1.258 . S
O514 Co511 1.966 . S
O514 C512 1.263 . S
C515 O516 1.235 . S
C515 O542 1.289 . S
O516 C515 1.235 . S
C517 C519 1.400 . S
C517 N520 1.351 . S
C517 C522 1.501 . S
C518 C519 1.387 . S
C518 N521 1.341 . S
C519 C517 1.400 . S
C519 C518 1.387 . S
N520 Co511 2.022 . S
N520 C517 1.351 . S
N520 N521 1.365 . S
N521 C518 1.341 . S
N521 N520 1.365 . S
N521 H541 0.862 . S
C522 C517 1.501 . S
C522 H523 0.961 . S
C522 H524 0.961 . S
C522 H525 0.960 . S
H523 C522 0.961 . S
H524 C522 0.961 . S
H525 C522 0.960 . S
C526 N527 1.342 . S
C526 C530 1.401 . S
C526 C531 1.499 . S
N527 Co510 1.989 . S
N527 C526 1.342 . S
N527 N528 1.388 . S
N528 Co511 1.993 . S
N528 N527 1.388 . S
N528 C529 1.346 . S
C529 N528 1.346 . S
C529 C530 1.396 . S
C529 C539 1.510 . S
C530 C526 1.401 . S
C530 C529 1.396 . S
C531 C526 1.499 . S
C531 H532 0.959 . S
C531 H533 0.960 . S
C531 H534 0.961 . S
H532 C531 0.959 . S
H533 C531 0.960 . S
H534 C531 0.961 . S
O535 Co510 1.967 . S
O535 C543 1.258 . S
O536 Co511 1.941 . S
O536 C543 1.266 . S
H537 C539 0.959 . S
H538 C539 0.961 . S
C539 C529 1.510 . S
C539 H537 0.959 . S
C539 H538 0.961 . S
C539 H540 0.960 . S
H540 C539 0.960 . S
H541 N521 0.862 . S
O542 Co510 1.920 . S
O542 C515 1.289 . S
C543 O535 1.258 . S
C543 O536 1.266 . S
Co544 O547 1.970 . S
Co544 N561 1.989 . S
Co544 O569 1.967 . S
Co544 O576 1.920 . S
Co545 O548 1.966 . S
Co545 N554 2.022 . S
Co545 N562 1.993 . S
Co545 O570 1.941 . S
C546 O547 1.258 . S
C546 O548 1.263 . S
O547 Co544 1.970 . S
O547 C546 1.258 . S
O548 Co545 1.966 . S
O548 C546 1.263 . S
C549 O550 1.235 . S
C549 O576 1.289 . S
O550 C549 1.235 . S
C551 C553 1.400 . S
C551 N554 1.351 . S
C551 C556 1.501 . S
C552 C553 1.387 . S
C552 N555 1.341 . S
C553 C551 1.400 . S
C553 C552 1.387 . S
N554 Co545 2.022 . S
N554 C551 1.351 . S
N554 N555 1.365 . S
N555 C552 1.341 . S
N555 N554 1.365 . S
N555 H575 0.862 . S
C556 C551 1.501 . S
C556 H557 0.961 . S
C556 H558 0.961 . S
C556 H559 0.960 . S
H557 C556 0.961 . S
H558 C556 0.961 . S
H559 C556 0.960 . S
C560 N561 1.342 . S
C560 C564 1.401 . S
C560 C565 1.499 . S
N561 Co544 1.989 . S
N561 C560 1.342 . S
N561 N562 1.388 . S
N562 Co545 1.993 . S
N562 N561 1.388 . S
N562 C563 1.346 . S
C563 N562 1.346 . S
C563 C564 1.396 . S
C563 C573 1.510 . S
C564 C560 1.401 . S
C564 C563 1.396 . S
C565 C560 1.499 . S
C565 H566 0.959 . S
C565 H567 0.960 . S
C565 H568 0.961 . S
H566 C565 0.959 . S
H567 C565 0.960 . S
H568 C565 0.961 . S
O569 Co544 1.967 . S
O569 C577 1.258 . S
O570 Co545 1.941 . S
O570 C577 1.266 . S
H571 C573 0.959 . S
H572 C573 0.961 . S
C573 C563 1.510 . S
C573 H571 0.959 . S
C573 H572 0.961 . S
C573 H574 0.960 . S
H574 C573 0.960 . S
H575 N555 0.862 . S
O576 Co544 1.920 . S
O576 C549 1.289 . S
C577 O569 1.258 . S
C577 O570 1.266 . S
Co578 O581 1.970 . S
Co578 N595 1.989 . S
Co578 O603 1.967 . S
Co578 O610 1.920 . S
Co579 O582 1.966 . S
Co579 N588 2.022 . S
Co579 N596 1.993 . S
Co579 O604 1.941 . S
C580 O581 1.258 . S
C580 O582 1.263 . S
O581 Co578 1.970 . S
O581 C580 1.258 . S
O582 Co579 1.966 . S
O582 C580 1.263 . S
C583 O584 1.235 . S
C583 O610 1.289 . S
O584 C583 1.235 . S
C585 C587 1.400 . S
C585 N588 1.351 . S
C585 C590 1.501 . S
C586 C587 1.387 . S
C586 N589 1.341 . S
C587 C585 1.400 . S
C587 C586 1.387 . S
N588 Co579 2.022 . S
N588 C585 1.351 . S
N588 N589 1.365 . S
N589 C586 1.341 . S
N589 N588 1.365 . S
N589 H609 0.862 . S
C590 C585 1.501 . S
C590 H591 0.961 . S
C590 H592 0.961 . S
C590 H593 0.960 . S
H591 C590 0.961 . S
H592 C590 0.961 . S
H593 C590 0.960 . S
C594 N595 1.342 . S
C594 C598 1.401 . S
C594 C599 1.499 . S
N595 Co578 1.989 . S
N595 C594 1.342 . S
N595 N596 1.388 . S
N596 Co579 1.993 . S
N596 N595 1.388 . S
N596 C597 1.346 . S
C597 N596 1.346 . S
C597 C598 1.396 . S
C597 C607 1.510 . S
C598 C594 1.401 . S
C598 C597 1.396 . S
C599 C594 1.499 . S
C599 H600 0.959 . S
C599 H601 0.960 . S
C599 H602 0.961 . S
H600 C599 0.959 . S
H601 C599 0.960 . S
H602 C599 0.961 . S
O603 Co578 1.967 . S
O603 C611 1.258 . S
O604 Co579 1.941 . S
O604 C611 1.266 . S
H605 C607 0.959 . S
H606 C607 0.961 . S
C607 C597 1.510 . S
C607 H605 0.959 . S
C607 H606 0.961 . S
C607 H608 0.960 . S
H608 C607 0.960 . S
H609 N589 0.862 . S
O610 Co578 1.920 . S
O610 C583 1.289 . S
C611 O603 1.258 . S
C611 O604 1.266 . S
Co612 O615 1.970 . S
Co612 N629 1.989 . S
Co612 O637 1.967 . S
Co612 O644 1.920 . S
Co613 O616 1.966 . S
Co613 N622 2.022 . S
Co613 N630 1.993 . S
Co613 O638 1.941 . S
C614 O615 1.258 . S
C614 O616 1.263 . S
O615 Co612 1.970 . S
O615 C614 1.258 . S
O616 Co613 1.966 . S
O616 C614 1.263 . S
C617 O618 1.235 . S
C617 O644 1.289 . S
O618 C617 1.235 . S
C619 C621 1.400 1_554 S
C619 N622 1.351 . S
C619 C624 1.501 . S
C620 C621 1.387 1_554 S
C620 N623 1.341 . S
C621 C619 1.400 1_556 S
C621 C620 1.387 1_556 S
N622 Co613 2.022 . S
N622 C619 1.351 . S
N622 N623 1.365 . S
N623 C620 1.341 . S
N623 N622 1.365 . S
N623 H643 0.862 . S
C624 C619 1.501 . S
C624 H625 0.961 . S
C624 H626 0.963 1_554 S
C624 H627 0.960 . S
H625 C624 0.961 . S
H626 C624 0.963 1_556 S
H627 C624 0.960 . S
C628 N629 1.342 . S
C628 C632 1.401 . S
C628 C633 1.499 . S
N629 Co612 1.989 . S
N629 C628 1.342 . S
N629 N630 1.388 . S
N630 Co613 1.993 . S
N630 N629 1.388 . S
N630 C631 1.346 . S
C631 N630 1.346 . S
C631 C632 1.396 . S
C631 C641 1.510 . S
C632 C628 1.401 . S
C632 C631 1.396 . S
C633 C628 1.499 . S
C633 H634 0.959 . S
C633 H635 0.960 . S
C633 H636 0.961 . S
H634 C633 0.959 . S
H635 C633 0.960 . S
H636 C633 0.961 . S
O637 Co612 1.967 . S
O637 C645 1.258 . S
O638 Co613 1.941 . S
O638 C645 1.266 . S
H639 C641 0.959 . S
H640 C641 0.961 . S
C641 C631 1.510 . S
C641 H639 0.959 . S
C641 H640 0.961 . S
C641 H642 0.960 . S
H642 C641 0.960 . S
H643 N623 0.862 . S
O644 Co612 1.920 . S
O644 C617 1.289 . S
C645 O637 1.258 . S
C645 O638 1.266 . S
Co646 O649 1.970 . S
Co646 N663 1.989 . S
Co646 O671 1.967 . S
Co646 O678 1.920 . S
Co647 O650 1.966 . S
Co647 N656 2.022 . S
Co647 N664 1.993 . S
Co647 O672 1.941 . S
C648 O649 1.258 . S
C648 O650 1.263 . S
O649 Co646 1.970 . S
O649 C648 1.258 . S
O650 Co647 1.966 . S
O650 C648 1.263 . S
C651 O652 1.235 . S
C651 O678 1.289 . S
O652 C651 1.235 . S
C653 C655 1.400 1_554 S
C653 N656 1.351 . S
C653 C658 1.501 . S
C654 C655 1.387 1_554 S
C654 N657 1.341 . S
C655 C653 1.400 1_556 S
C655 C654 1.387 1_556 S
N656 Co647 2.022 . S
N656 C653 1.351 . S
N656 N657 1.365 . S
N657 C654 1.341 . S
N657 N656 1.365 . S
N657 H677 0.862 . S
C658 C653 1.501 . S
C658 H659 0.961 . S
C658 H660 0.962 1_554 S
C658 H661 0.960 . S
H659 C658 0.961 . S
H660 C658 0.962 1_556 S
H661 C658 0.960 . S
C662 N663 1.342 . S
C662 C666 1.401 . S
C662 C667 1.499 . S
N663 Co646 1.989 . S
N663 C662 1.342 . S
N663 N664 1.388 . S
N664 Co647 1.993 . S
N664 N663 1.388 . S
N664 C665 1.346 . S
C665 N664 1.346 . S
C665 C666 1.396 . S
C665 C675 1.510 . S
C666 C662 1.401 . S
C666 C665 1.396 . S
C667 C662 1.499 . S
C667 H668 0.959 . S
C667 H669 0.960 . S
C667 H670 0.961 . S
H668 C667 0.959 . S
H669 C667 0.960 . S
H670 C667 0.961 . S
O671 Co646 1.967 . S
O671 C679 1.258 . S
O672 Co647 1.941 . S
O672 C679 1.266 . S
H673 C675 0.959 . S
H674 C675 0.961 . S
C675 C665 1.510 . S
C675 H673 0.959 . S
C675 H674 0.961 . S
C675 H676 0.960 . S
H676 C675 0.960 . S
H677 N657 0.862 . S
O678 Co646 1.920 . S
O678 C651 1.289 . S
C679 O671 1.258 . S
C679 O672 1.266 . S
Co680 O683 1.970 . S
Co680 N697 1.989 . S
Co680 O705 1.967 . S
Co680 O712 1.920 . S
Co681 O684 1.966 . S
Co681 N690 2.022 . S
Co681 N698 1.993 . S
Co681 O706 1.941 . S
C682 O683 1.258 . S
C682 O684 1.263 . S
O683 Co680 1.970 . S
O683 C682 1.258 . S
O684 Co681 1.966 . S
O684 C682 1.263 . S
C685 O686 1.235 . S
C685 O712 1.289 . S
O686 C685 1.235 . S
C687 C689 1.400 1_554 S
C687 N690 1.351 . S
C687 C692 1.501 . S
C688 C689 1.387 1_554 S
C688 N691 1.341 . S
C689 C687 1.400 1_556 S
C689 C688 1.387 1_556 S
N690 Co681 2.022 . S
N690 C687 1.351 . S
N690 N691 1.365 . S
N691 C688 1.341 . S
N691 N690 1.365 . S
N691 H711 0.862 . S
C692 C687 1.501 . S
C692 H693 0.961 . S
C692 H694 0.962 1_554 S
C692 H695 0.960 . S
H693 C692 0.961 . S
H694 C692 0.962 1_556 S
H695 C692 0.960 . S
C696 N697 1.342 . S
C696 C700 1.401 . S
C696 C701 1.499 . S
N697 Co680 1.989 . S
N697 C696 1.342 . S
N697 N698 1.388 . S
N698 Co681 1.993 . S
N698 N697 1.388 . S
N698 C699 1.346 . S
C699 N698 1.346 . S
C699 C700 1.396 . S
C699 C709 1.510 . S
C700 C696 1.401 . S
C700 C699 1.396 . S
C701 C696 1.499 . S
C701 H702 0.959 . S
C701 H703 0.960 . S
C701 H704 0.961 . S
H702 C701 0.959 . S
H703 C701 0.960 . S
H704 C701 0.961 . S
O705 Co680 1.967 . S
O705 C713 1.258 . S
O706 Co681 1.941 . S
O706 C713 1.266 . S
H707 C709 0.959 . S
H708 C709 0.961 . S
C709 C699 1.510 . S
C709 H707 0.959 . S
C709 H708 0.961 . S
C709 H710 0.960 . S
H710 C709 0.960 . S
H711 N691 0.862 . S
O712 Co680 1.920 . S
O712 C685 1.289 . S
C713 O705 1.258 . S
C713 O706 1.266 . S
Co714 O717 1.970 . S
Co714 N731 1.989 . S
Co714 O739 1.967 . S
Co714 O746 1.920 . S
Co715 O718 1.966 . S
Co715 N724 2.022 . S
Co715 N732 1.993 . S
Co715 O740 1.941 1_554 S
C716 O717 1.258 1_554 S
C716 O718 1.263 . S
O717 Co714 1.970 . S
O717 C716 1.258 1_556 S
O718 Co715 1.966 . S
O718 C716 1.263 . S
C719 O720 1.235 . S
C719 O746 1.289 . S
O720 C719 1.235 . S
C721 C723 1.400 . S
C721 N724 1.351 . S
C721 C726 1.501 . S
C722 C723 1.387 . S
C722 N725 1.341 . S
C723 C721 1.400 . S
C723 C722 1.387 . S
N724 Co715 2.022 . S
N724 C721 1.351 . S
N724 N725 1.365 . S
N725 C722 1.341 . S
N725 N724 1.365 . S
N725 H745 0.862 . S
C726 C721 1.501 . S
C726 H727 0.961 . S
C726 H728 0.961 . S
C726 H729 0.960 . S
H727 C726 0.961 . S
H728 C726 0.961 . S
H729 C726 0.960 . S
C730 N731 1.342 . S
C730 C734 1.401 1_556 S
C730 C735 1.499 . S
N731 Co714 1.989 . S
N731 C730 1.342 . S
N731 N732 1.388 1_556 S
N732 Co715 1.993 . S
N732 N731 1.388 1_554 S
N732 C733 1.346 . S
C733 N732 1.346 . S
C733 C734 1.396 . S
C733 C743 1.510 . S
C734 C730 1.401 1_554 S
C734 C733 1.396 . S
C735 C730 1.499 . S
C735 H736 0.959 . S
C735 H737 0.960 . S
C735 H738 0.961 . S
H736 C735 0.959 . S
H737 C735 0.960 . S
H738 C735 0.961 . S
O739 Co714 1.967 . S
O739 C747 1.258 . S
O740 Co715 1.941 1_556 S
O740 C747 1.266 . S
H741 C743 0.959 . S
H742 C743 0.961 . S
C743 C733 1.510 . S
C743 H741 0.959 . S
C743 H742 0.961 . S
C743 H744 0.960 . S
H744 C743 0.960 . S
H745 N725 0.862 . S
O746 Co714 1.920 . S
O746 C719 1.289 . S
C747 O739 1.258 . S
C747 O740 1.266 . S
Co748 O751 1.970 . S
Co748 N765 1.989 . S
Co748 O773 1.967 . S
Co748 O780 1.920 . S
Co749 O752 1.966 . S
Co749 N758 2.022 . S
Co749 N766 1.993 . S
Co749 O774 1.941 1_554 S
C750 O751 1.258 1_554 S
C750 O752 1.263 . S
O751 Co748 1.970 . S
O751 C750 1.258 1_556 S
O752 Co749 1.966 . S
O752 C750 1.263 . S
C753 O754 1.235 . S
C753 O780 1.289 . S
O754 C753 1.235 . S
C755 C757 1.400 . S
C755 N758 1.351 . S
C755 C760 1.501 . S
C756 C757 1.387 . S
C756 N759 1.341 . S
C757 C755 1.400 . S
C757 C756 1.387 . S
N758 Co749 2.022 . S
N758 C755 1.351 . S
N758 N759 1.365 . S
N759 C756 1.341 . S
N759 N758 1.365 . S
N759 H779 0.862 . S
C760 C755 1.501 . S
C760 H761 0.961 . S
C760 H762 0.961 . S
C760 H763 0.960 . S
H761 C760 0.961 . S
H762 C760 0.961 . S
H763 C760 0.960 . S
C764 N765 1.342 . S
C764 C768 1.401 1_556 S
C764 C769 1.499 . S
N765 Co748 1.989 . S
N765 C764 1.342 . S
N765 N766 1.388 1_556 S
N766 Co749 1.993 . S
N766 N765 1.388 1_554 S
N766 C767 1.346 . S
C767 N766 1.346 . S
C767 C768 1.396 . S
C767 C777 1.510 . S
C768 C764 1.401 1_554 S
C768 C767 1.396 . S
C769 C764 1.499 . S
C769 H770 0.959 . S
C769 H771 0.960 . S
C769 H772 0.961 . S
H770 C769 0.959 . S
H771 C769 0.960 . S
H772 C769 0.961 . S
O773 Co748 1.967 . S
O773 C781 1.258 . S
O774 Co749 1.941 1_556 S
O774 C781 1.266 . S
H775 C777 0.959 . S
H776 C777 0.961 . S
C777 C767 1.510 . S
C777 H775 0.959 . S
C777 H776 0.961 . S
C777 H778 0.960 . S
H778 C777 0.960 . S
H779 N759 0.862 . S
O780 Co748 1.920 . S
O780 C753 1.289 . S
C781 O773 1.258 . S
C781 O774 1.266 . S
Co782 O785 1.970 . S
Co782 N799 1.989 . S
Co782 O807 1.967 . S
Co782 O814 1.920 . S
Co783 O786 1.966 . S
Co783 N792 2.022 . S
Co783 N800 1.993 . S
Co783 O808 1.941 1_554 S
C784 O785 1.258 1_554 S
C784 O786 1.263 . S
O785 Co782 1.970 . S
O785 C784 1.258 1_556 S
O786 Co783 1.966 . S
O786 C784 1.263 . S
C787 O788 1.235 . S
C787 O814 1.289 . S
O788 C787 1.235 . S
C789 C791 1.400 . S
C789 N792 1.351 . S
C789 C794 1.501 . S
C790 C791 1.387 . S
C790 N793 1.341 . S
C791 C789 1.400 . S
C791 C790 1.387 . S
N792 Co783 2.022 . S
N792 C789 1.351 . S
N792 N793 1.365 . S
N793 C790 1.341 . S
N793 N792 1.365 . S
N793 H813 0.862 . S
C794 C789 1.501 . S
C794 H795 0.961 . S
C794 H796 0.961 . S
C794 H797 0.960 . S
H795 C794 0.961 . S
H796 C794 0.961 . S
H797 C794 0.960 . S
C798 N799 1.342 . S
C798 C802 1.401 1_556 S
C798 C803 1.499 . S
N799 Co782 1.989 . S
N799 C798 1.342 . S
N799 N800 1.388 1_556 S
N800 Co783 1.993 . S
N800 N799 1.388 1_554 S
N800 C801 1.346 . S
C801 N800 1.346 . S
C801 C802 1.396 . S
C801 C811 1.510 . S
C802 C798 1.401 1_554 S
C802 C801 1.396 . S
C803 C798 1.499 . S
C803 H804 0.959 . S
C803 H805 0.960 . S
C803 H806 0.961 . S
H804 C803 0.959 . S
H805 C803 0.960 . S
H806 C803 0.961 . S
O807 Co782 1.967 . S
O807 C815 1.258 . S
O808 Co783 1.941 1_556 S
O808 C815 1.266 . S
H809 C811 0.959 . S
H810 C811 0.961 . S
C811 C801 1.510 . S
C811 H809 0.959 . S
C811 H810 0.961 . S
C811 H812 0.960 . S
H812 C811 0.960 . S
H813 N793 0.862 . S
O814 Co782 1.920 . S
O814 C787 1.289 . S
C815 O807 1.258 . S
C815 O808 1.266 . S
Co816 O819 1.970 . S
Co816 N833 1.989 . S
Co816 O841 1.967 . S
Co816 O848 1.920 . S
Co817 O820 1.966 . S
Co817 N826 2.022 . S
Co817 N834 1.993 . S
Co817 O842 1.941 . S
C818 O819 1.258 . S
C818 O820 1.263 . S
O819 Co816 1.970 . S
O819 C818 1.258 . S
O820 Co817 1.966 . S
O820 C818 1.263 . S
C821 O822 1.235 . S
C821 O848 1.289 . S
O822 C821 1.235 . S
C823 C825 1.400 1_556 S
C823 N826 1.351 . S
C823 C828 1.501 . S
C824 C825 1.387 1_556 S
C824 N827 1.341 . S
C825 C823 1.400 1_554 S
C825 C824 1.387 1_554 S
N826 Co817 2.022 . S
N826 C823 1.351 . S
N826 N827 1.365 . S
N827 C824 1.341 . S
N827 N826 1.365 . S
N827 H847 0.862 . S
C828 C823 1.501 . S
C828 H829 0.961 . S
C828 H830 0.963 1_556 S
C828 H831 0.960 . S
H829 C828 0.961 . S
H830 C828 0.963 1_554 S
H831 C828 0.960 . S
C832 N833 1.342 . S
C832 C836 1.401 . S
C832 C837 1.499 . S
N833 Co816 1.989 . S
N833 C832 1.342 . S
N833 N834 1.388 . S
N834 Co817 1.993 . S
N834 N833 1.388 . S
N834 C835 1.346 . S
C835 N834 1.346 . S
C835 C836 1.396 . S
C835 C845 1.510 . S
C836 C832 1.401 . S
C836 C835 1.396 . S
C837 C832 1.499 . S
C837 H838 0.959 . S
C837 H839 0.960 . S
C837 H840 0.961 . S
H838 C837 0.959 . S
H839 C837 0.960 . S
H840 C837 0.961 . S
O841 Co816 1.967 . S
O841 C849 1.258 . S
O842 Co817 1.941 . S
O842 C849 1.266 . S
H843 C845 0.959 . S
H844 C845 0.961 . S
C845 C835 1.510 . S
C845 H843 0.959 . S
C845 H844 0.961 . S
C845 H846 0.960 . S
H846 C845 0.960 . S
H847 N827 0.862 . S
O848 Co816 1.920 . S
O848 C821 1.289 . S
C849 O841 1.258 . S
C849 O842 1.266 . S
Co850 O853 1.970 . S
Co850 N867 1.989 . S
Co850 O875 1.967 . S
Co850 O882 1.920 . S
Co851 O854 1.966 . S
Co851 N860 2.022 . S
Co851 N868 1.993 . S
Co851 O876 1.941 . S
C852 O853 1.258 . S
C852 O854 1.263 . S
O853 Co850 1.970 . S
O853 C852 1.258 . S
O854 Co851 1.966 . S
O854 C852 1.263 . S
C855 O856 1.235 . S
C855 O882 1.289 . S
O856 C855 1.235 . S
C857 C859 1.400 1_556 S
C857 N860 1.351 . S
C857 C862 1.501 . S
C858 C859 1.387 1_556 S
C858 N861 1.341 . S
C859 C857 1.400 1_554 S
C859 C858 1.387 1_554 S
N860 Co851 2.022 . S
N860 C857 1.351 . S
N860 N861 1.365 . S
N861 C858 1.341 . S
N861 N860 1.365 . S
N861 H881 0.862 . S
C862 C857 1.501 . S
C862 H863 0.961 . S
C862 H864 0.962 1_556 S
C862 H865 0.960 . S
H863 C862 0.961 . S
H864 C862 0.962 1_554 S
H865 C862 0.960 . S
C866 N867 1.342 . S
C866 C870 1.401 . S
C866 C871 1.499 . S
N867 Co850 1.989 . S
N867 C866 1.342 . S
N867 N868 1.388 . S
N868 Co851 1.993 . S
N868 N867 1.388 . S
N868 C869 1.346 . S
C869 N868 1.346 . S
C869 C870 1.396 . S
C869 C879 1.510 . S
C870 C866 1.401 . S
C870 C869 1.396 . S
C871 C866 1.499 . S
C871 H872 0.959 . S
C871 H873 0.960 . S
C871 H874 0.961 . S
H872 C871 0.959 . S
H873 C871 0.960 . S
H874 C871 0.961 . S
O875 Co850 1.967 . S
O875 C883 1.258 . S
O876 Co851 1.941 . S
O876 C883 1.266 . S
H877 C879 0.959 . S
H878 C879 0.961 . S
C879 C869 1.510 . S
C879 H877 0.959 . S
C879 H878 0.961 . S
C879 H880 0.960 . S
H880 C879 0.960 . S
H881 N861 0.862 . S
O882 Co850 1.920 . S
O882 C855 1.289 . S
C883 O875 1.258 . S
C883 O876 1.266 . S
Co884 O887 1.970 . S
Co884 N901 1.989 . S
Co884 O909 1.967 . S
Co884 O916 1.920 . S
Co885 O888 1.966 . S
Co885 N894 2.022 . S
Co885 N902 1.993 . S
Co885 O910 1.941 . S
C886 O887 1.258 . S
C886 O888 1.263 . S
O887 Co884 1.970 . S
O887 C886 1.258 . S
O888 Co885 1.966 . S
O888 C886 1.263 . S
C889 O890 1.235 . S
C889 O916 1.289 . S
O890 C889 1.235 . S
C891 C893 1.400 1_556 S
C891 N894 1.351 . S
C891 C896 1.501 . S
C892 C893 1.387 1_556 S
C892 N895 1.341 . S
C893 C891 1.400 1_554 S
C893 C892 1.387 1_554 S
N894 Co885 2.022 . S
N894 C891 1.351 . S
N894 N895 1.365 . S
N895 C892 1.341 . S
N895 N894 1.365 . S
N895 H915 0.862 . S
C896 C891 1.501 . S
C896 H897 0.961 . S
C896 H898 0.962 1_556 S
C896 H899 0.960 . S
H897 C896 0.961 . S
H898 C896 0.962 1_554 S
H899 C896 0.960 . S
C900 N901 1.342 . S
C900 C904 1.401 . S
C900 C905 1.499 . S
N901 Co884 1.989 . S
N901 C900 1.342 . S
N901 N902 1.388 . S
N902 Co885 1.993 . S
N902 N901 1.388 . S
N902 C903 1.346 . S
C903 N902 1.346 . S
C903 C904 1.396 . S
C903 C913 1.510 . S
C904 C900 1.401 . S
C904 C903 1.396 . S
C905 C900 1.499 . S
C905 H906 0.959 . S
C905 H907 0.960 . S
C905 H908 0.961 . S
H906 C905 0.959 . S
H907 C905 0.960 . S
H908 C905 0.961 . S
O909 Co884 1.967 . S
O909 C917 1.258 . S
O910 Co885 1.941 . S
O910 C917 1.266 . S
H911 C913 0.959 . S
H912 C913 0.961 . S
C913 C903 1.510 . S
C913 H911 0.959 . S
C913 H912 0.961 . S
C913 H914 0.960 . S
H914 C913 0.960 . S
H915 N895 0.862 . S
O916 Co884 1.920 . S
O916 C889 1.289 . S
C917 O909 1.258 . S
C917 O910 1.266 . S
Co918 O921 1.970 . S
Co918 N935 1.989 . S
Co918 O943 1.967 . S
Co918 O950 1.920 . S
Co919 O922 1.966 . S
Co919 N928 2.022 . S
Co919 N936 1.993 . S
Co919 O944 1.941 1_556 S
C920 O921 1.258 1_556 S
C920 O922 1.263 . S
O921 Co918 1.970 . S
O921 C920 1.258 1_554 S
O922 Co919 1.966 . S
O922 C920 1.263 . S
C923 O924 1.235 . S
C923 O950 1.289 . S
O924 C923 1.235 . S
C925 C927 1.400 . S
C925 N928 1.351 . S
C925 C930 1.501 . S
C926 C927 1.387 . S
C926 N929 1.341 . S
C927 C925 1.400 . S
C927 C926 1.387 . S
N928 Co919 2.022 . S
N928 C925 1.351 . S
N928 N929 1.365 . S
N929 C926 1.341 . S
N929 N928 1.365 . S
N929 H949 0.862 . S
C930 C925 1.501 . S
C930 H931 0.961 . S
C930 H932 0.961 . S
C930 H933 0.960 . S
H931 C930 0.961 . S
H932 C930 0.961 . S
H933 C930 0.960 . S
C934 N935 1.342 . S
C934 C938 1.401 1_554 S
C934 C939 1.499 . S
N935 Co918 1.989 . S
N935 C934 1.342 . S
N935 N936 1.388 1_554 S
N936 Co919 1.993 . S
N936 N935 1.388 1_556 S
N936 C937 1.346 . S
C937 N936 1.346 . S
C937 C938 1.396 . S
C937 C947 1.510 . S
C938 C934 1.401 1_556 S
C938 C937 1.396 . S
C939 C934 1.499 . S
C939 H940 0.959 . S
C939 H941 0.960 . S
C939 H942 0.961 . S
H940 C939 0.959 . S
H941 C939 0.960 . S
H942 C939 0.961 . S
O943 Co918 1.967 . S
O943 C951 1.258 . S
O944 Co919 1.941 1_554 S
O944 C951 1.266 . S
H945 C947 0.959 . S
H946 C947 0.961 . S
C947 C937 1.510 . S
C947 H945 0.959 . S
C947 H946 0.961 . S
C947 H948 0.960 . S
H948 C947 0.960 . S
H949 N929 0.862 . S
O950 Co918 1.920 . S
O950 C923 1.289 . S
C951 O943 1.258 . S
C951 O944 1.266 . S
Co952 O955 1.970 . S
Co952 N969 1.989 . S
Co952 O977 1.967 . S
Co952 O984 1.920 . S
Co953 O956 1.966 . S
Co953 N962 2.022 . S
Co953 N970 1.993 . S
Co953 O978 1.941 1_556 S
C954 O955 1.258 1_556 S
C954 O956 1.263 . S
O955 Co952 1.970 . S
O955 C954 1.258 1_554 S
O956 Co953 1.966 . S
O956 C954 1.263 . S
C957 O958 1.235 . S
C957 O984 1.289 . S
O958 C957 1.235 . S
C959 C961 1.400 . S
C959 N962 1.351 . S
C959 C964 1.501 . S
C960 C961 1.387 . S
C960 N963 1.341 . S
C961 C959 1.400 . S
C961 C960 1.387 . S
N962 Co953 2.022 . S
N962 C959 1.351 . S
N962 N963 1.365 . S
N963 C960 1.341 . S
N963 N962 1.365 . S
N963 H983 0.862 . S
C964 C959 1.501 . S
C964 H965 0.961 . S
C964 H966 0.961 . S
C964 H967 0.960 . S
H965 C964 0.961 . S
H966 C964 0.961 . S
H967 C964 0.960 . S
C968 N969 1.342 . S
C968 C972 1.401 1_554 S
C968 C973 1.499 . S
N969 Co952 1.989 . S
N969 C968 1.342 . S
N969 N970 1.388 1_554 S
N970 Co953 1.993 . S
N970 N969 1.388 1_556 S
N970 C971 1.346 . S
C971 N970 1.346 . S
C971 C972 1.396 . S
C971 C981 1.510 . S
C972 C968 1.401 1_556 S
C972 C971 1.396 . S
C973 C968 1.499 . S
C973 H974 0.959 . S
C973 H975 0.960 . S
C973 H976 0.961 . S
H974 C973 0.959 . S
H975 C973 0.960 . S
H976 C973 0.961 . S
O977 Co952 1.967 . S
O977 C985 1.258 . S
O978 Co953 1.941 1_554 S
O978 C985 1.266 . S
H979 C981 0.959 . S
H980 C981 0.961 . S
C981 C971 1.510 . S
C981 H979 0.959 . S
C981 H980 0.961 . S
C981 H982 0.960 . S
H982 C981 0.960 . S
H983 N963 0.862 . S
O984 Co952 1.920 . S
O984 C957 1.289 . S
C985 O977 1.258 . S
C985 O978 1.266 . S
Co986 O989 1.970 . S
Co986 N1003 1.989 . S
Co986 O1011 1.967 . S
Co986 O1018 1.920 . S
Co987 O990 1.966 . S
Co987 N996 2.022 . S
Co987 N1004 1.993 . S
Co987 O1012 1.941 1_556 S
C988 O989 1.258 1_556 S
C988 O990 1.263 . S
O989 Co986 1.970 . S
O989 C988 1.258 1_554 S
O990 Co987 1.966 . S
O990 C988 1.263 . S
C991 O992 1.235 . S
C991 O1018 1.289 . S
O992 C991 1.235 . S
C993 C995 1.400 . S
C993 N996 1.351 . S
C993 C998 1.501 . S
C994 C995 1.387 . S
C994 N997 1.341 . S
C995 C993 1.400 . S
C995 C994 1.387 . S
N996 Co987 2.022 . S
N996 C993 1.351 . S
N996 N997 1.365 . S
N997 C994 1.341 . S
N997 N996 1.365 . S
N997 H1017 0.862 . S
C998 C993 1.501 . S
C998 H999 0.961 . S
C998 H1000 0.961 . S
C998 H1001 0.960 . S
H999 C998 0.961 . S
H1000 C998 0.961 . S
H1001 C998 0.960 . S
C1002 N1003 1.342 . S
C1002 C1006 1.401 1_554 S
C1002 C1007 1.499 . S
N1003 Co986 1.989 . S
N1003 C1002 1.342 . S
N1003 N1004 1.388 1_554 S
N1004 Co987 1.993 . S
N1004 N1003 1.388 1_556 S
N1004 C1005 1.346 . S
C1005 N1004 1.346 . S
C1005 C1006 1.396 . S
C1005 C1015 1.510 . S
C1006 C1002 1.401 1_556 S
C1006 C1005 1.396 . S
C1007 C1002 1.499 . S
C1007 H1008 0.959 . S
C1007 H1009 0.960 . S
C1007 H1010 0.961 . S
H1008 C1007 0.959 . S
H1009 C1007 0.960 . S
H1010 C1007 0.961 . S
O1011 Co986 1.967 . S
O1011 C1019 1.258 . S
O1012 Co987 1.941 1_554 S
O1012 C1019 1.266 . S
H1013 C1015 0.959 . S
H1014 C1015 0.961 . S
C1015 C1005 1.510 . S
C1015 H1013 0.959 . S
C1015 H1014 0.961 . S
C1015 H1016 0.960 . S
H1016 C1015 0.960 . S
H1017 N997 0.862 . S
O1018 Co986 1.920 . S
O1018 C991 1.289 . S
C1019 O1011 1.258 . S
C1019 O1012 1.266 . S
Co1020 O1023 1.970 . S
Co1020 N1037 1.989 . S
Co1020 O1045 1.967 . S
Co1020 O1052 1.920 . S
Co1021 O1024 1.966 . S
Co1021 N1030 2.022 . S
Co1021 N1038 1.993 . S
Co1021 O1046 1.941 . S
C1022 O1023 1.258 . S
C1022 O1024 1.263 . S
O1023 Co1020 1.970 . S
O1023 C1022 1.258 . S
O1024 Co1021 1.966 . S
O1024 C1022 1.263 . S
C1025 O1026 1.235 . S
C1025 O1052 1.289 . S
O1026 C1025 1.235 . S
C1027 C1029 1.400 . S
C1027 N1030 1.351 . S
C1027 C1032 1.501 . S
C1028 C1029 1.387 . S
C1028 N1031 1.341 . S
C1029 C1027 1.400 . S
C1029 C1028 1.387 . S
N1030 Co1021 2.022 . S
N1030 C1027 1.351 . S
N1030 N1031 1.365 . S
N1031 C1028 1.341 . S
N1031 N1030 1.365 . S
N1031 H1051 0.862 . S
C1032 C1027 1.501 . S
C1032 H1033 0.961 . S
C1032 H1034 0.961 . S
C1032 H1035 0.960 . S
H1033 C1032 0.961 . S
H1034 C1032 0.961 . S
H1035 C1032 0.960 . S
C1036 N1037 1.342 . S
C1036 C1040 1.401 . S
C1036 C1041 1.499 . S
N1037 Co1020 1.989 . S
N1037 C1036 1.342 . S
N1037 N1038 1.388 . S
N1038 Co1021 1.993 . S
N1038 N1037 1.388 . S
N1038 C1039 1.346 . S
C1039 N1038 1.346 . S
C1039 C1040 1.396 . S
C1039 C1049 1.510 . S
C1040 C1036 1.401 . S
C1040 C1039 1.396 . S
C1041 C1036 1.499 . S
C1041 H1042 0.959 . S
C1041 H1043 0.960 . S
C1041 H1044 0.961 . S
H1042 C1041 0.959 . S
H1043 C1041 0.960 . S
H1044 C1041 0.961 . S
O1045 Co1020 1.967 . S
O1045 C1053 1.258 . S
O1046 Co1021 1.941 . S
O1046 C1053 1.266 . S
H1047 C1049 0.959 . S
H1048 C1049 0.961 . S
C1049 C1039 1.510 . S
C1049 H1047 0.959 . S
C1049 H1048 0.961 . S
C1049 H1050 0.960 . S
H1050 C1049 0.960 . S
H1051 N1031 0.862 . S
O1052 Co1020 1.920 . S
O1052 C1025 1.289 . S
C1053 O1045 1.258 . S
C1053 O1046 1.266 . S
Co1054 O1057 1.970 . S
Co1054 N1071 1.989 . S
Co1054 O1079 1.967 . S
Co1054 O1086 1.920 . S
Co1055 O1058 1.966 . S
Co1055 N1064 2.022 . S
Co1055 N1072 1.993 . S
Co1055 O1080 1.941 . S
C1056 O1057 1.258 . S
C1056 O1058 1.263 . S
O1057 Co1054 1.970 . S
O1057 C1056 1.258 . S
O1058 Co1055 1.966 . S
O1058 C1056 1.263 . S
C1059 O1060 1.235 . S
C1059 O1086 1.289 . S
O1060 C1059 1.235 . S
C1061 C1063 1.400 . S
C1061 N1064 1.351 . S
C1061 C1066 1.501 . S
C1062 C1063 1.387 . S
C1062 N1065 1.341 . S
C1063 C1061 1.400 . S
C1063 C1062 1.387 . S
N1064 Co1055 2.022 . S
N1064 C1061 1.351 . S
N1064 N1065 1.365 . S
N1065 C1062 1.341 . S
N1065 N1064 1.365 . S
N1065 H1085 0.862 . S
C1066 C1061 1.501 . S
C1066 H1067 0.961 . S
C1066 H1068 0.961 . S
C1066 H1069 0.960 . S
H1067 C1066 0.961 . S
H1068 C1066 0.961 . S
H1069 C1066 0.960 . S
C1070 N1071 1.342 . S
C1070 C1074 1.401 . S
C1070 C1075 1.499 . S
N1071 Co1054 1.989 . S
N1071 C1070 1.342 . S
N1071 N1072 1.388 . S
N1072 Co1055 1.993 . S
N1072 N1071 1.388 . S
N1072 C1073 1.346 . S
C1073 N1072 1.346 . S
C1073 C1074 1.396 . S
C1073 C1083 1.510 . S
C1074 C1070 1.401 . S
C1074 C1073 1.396 . S
C1075 C1070 1.499 . S
C1075 H1076 0.959 . S
C1075 H1077 0.960 . S
C1075 H1078 0.961 . S
H1076 C1075 0.959 . S
H1077 C1075 0.960 . S
H1078 C1075 0.961 . S
O1079 Co1054 1.967 . S
O1079 C1087 1.258 . S
O1080 Co1055 1.941 . S
O1080 C1087 1.266 . S
H1081 C1083 0.959 . S
H1082 C1083 0.961 . S
C1083 C1073 1.510 . S
C1083 H1081 0.959 . S
C1083 H1082 0.961 . S
C1083 H1084 0.960 . S
H1084 C1083 0.960 . S
H1085 N1065 0.862 . S
O1086 Co1054 1.920 . S
O1086 C1059 1.289 . S
C1087 O1079 1.258 . S
C1087 O1080 1.266 . S
Co1088 O1091 1.970 . S
Co1088 N1105 1.989 . S
Co1088 O1113 1.967 . S
Co1088 O1120 1.920 . S
Co1089 O1092 1.966 . S
Co1089 N1098 2.022 . S
Co1089 N1106 1.993 . S
Co1089 O1114 1.941 . S
C1090 O1091 1.258 . S
C1090 O1092 1.263 . S
O1091 Co1088 1.970 . S
O1091 C1090 1.258 . S
O1092 Co1089 1.966 . S
O1092 C1090 1.263 . S
C1093 O1094 1.235 . S
C1093 O1120 1.289 . S
O1094 C1093 1.235 . S
C1095 C1097 1.400 . S
C1095 N1098 1.351 . S
C1095 C1100 1.501 . S
C1096 C1097 1.387 . S
C1096 N1099 1.341 . S
C1097 C1095 1.400 . S
C1097 C1096 1.387 . S
N1098 Co1089 2.022 . S
N1098 C1095 1.351 . S
N1098 N1099 1.365 . S
N1099 C1096 1.341 . S
N1099 N1098 1.365 . S
N1099 H1119 0.862 . S
C1100 C1095 1.501 . S
C1100 H1101 0.961 . S
C1100 H1102 0.961 . S
C1100 H1103 0.960 . S
H1101 C1100 0.961 . S
H1102 C1100 0.961 . S
H1103 C1100 0.960 . S
C1104 N1105 1.342 . S
C1104 C1108 1.401 . S
C1104 C1109 1.499 . S
N1105 Co1088 1.989 . S
N1105 C1104 1.342 . S
N1105 N1106 1.388 . S
N1106 Co1089 1.993 . S
N1106 N1105 1.388 . S
N1106 C1107 1.346 . S
C1107 N1106 1.346 . S
C1107 C1108 1.396 . S
C1107 C1117 1.510 . S
C1108 C1104 1.401 . S
C1108 C1107 1.396 . S
C1109 C1104 1.499 . S
C1109 H1110 0.959 . S
C1109 H1111 0.960 . S
C1109 H1112 0.961 . S
H1110 C1109 0.959 . S
H1111 C1109 0.960 . S
H1112 C1109 0.961 . S
O1113 Co1088 1.967 . S
O1113 C1121 1.258 . S
O1114 Co1089 1.941 . S
O1114 C1121 1.266 . S
H1115 C1117 0.959 . S
H1116 C1117 0.961 . S
C1117 C1107 1.510 . S
C1117 H1115 0.959 . S
C1117 H1116 0.961 . S
C1117 H1118 0.960 . S
H1118 C1117 0.960 . S
H1119 N1099 0.862 . S
O1120 Co1088 1.920 . S
O1120 C1093 1.289 . S
C1121 O1113 1.258 . S
C1121 O1114 1.266 . S
Co1122 O1125 1.970 . S
Co1122 N1139 1.989 . S
Co1122 O1147 1.967 . S
Co1122 O1154 1.920 . S
Co1123 O1126 1.966 . S
Co1123 N1132 2.022 . S
Co1123 N1140 1.993 . S
Co1123 O1148 1.941 . S
C1124 O1125 1.258 . S
C1124 O1126 1.263 . S
O1125 Co1122 1.970 . S
O1125 C1124 1.258 . S
O1126 Co1123 1.966 . S
O1126 C1124 1.263 . S
C1127 O1128 1.235 . S
C1127 O1154 1.289 . S
O1128 C1127 1.235 . S
C1129 C1131 1.400 . S
C1129 N1132 1.351 . S
C1129 C1134 1.501 . S
C1130 C1131 1.387 . S
C1130 N1133 1.341 . S
C1131 C1129 1.400 . S
C1131 C1130 1.387 . S
N1132 Co1123 2.022 . S
N1132 C1129 1.351 . S
N1132 N1133 1.365 . S
N1133 C1130 1.341 . S
N1133 N1132 1.365 . S
N1133 H1153 0.862 . S
C1134 C1129 1.501 . S
C1134 H1135 0.961 . S
C1134 H1136 0.961 . S
C1134 H1137 0.960 . S
H1135 C1134 0.961 . S
H1136 C1134 0.961 . S
H1137 C1134 0.960 . S
C1138 N1139 1.342 . S
C1138 C1142 1.401 . S
C1138 C1143 1.499 . S
N1139 Co1122 1.989 . S
N1139 C1138 1.342 . S
N1139 N1140 1.388 . S
N1140 Co1123 1.993 . S
N1140 N1139 1.388 . S
N1140 C1141 1.346 . S
C1141 N1140 1.346 . S
C1141 C1142 1.396 . S
C1141 C1151 1.510 . S
C1142 C1138 1.401 . S
C1142 C1141 1.396 . S
C1143 C1138 1.499 . S
C1143 H1144 0.959 . S
C1143 H1145 0.960 . S
C1143 H1146 0.961 . S
H1144 C1143 0.959 . S
H1145 C1143 0.960 . S
H1146 C1143 0.961 . S
O1147 Co1122 1.967 . S
O1147 C1155 1.258 . S
O1148 Co1123 1.941 . S
O1148 C1155 1.266 . S
H1149 C1151 0.959 . S
H1150 C1151 0.961 . S
C1151 C1141 1.510 . S
C1151 H1149 0.959 . S
C1151 H1150 0.961 . S
C1151 H1152 0.960 . S
H1152 C1151 0.960 . S
H1153 N1133 0.862 . S
O1154 Co1122 1.920 . S
O1154 C1127 1.289 . S
C1155 O1147 1.258 . S
C1155 O1148 1.266 . S
Co1156 O1159 1.970 . S
Co1156 N1173 1.989 . S
Co1156 O1181 1.967 . S
Co1156 O1188 1.920 . S
Co1157 O1160 1.966 . S
Co1157 N1166 2.022 . S
Co1157 N1174 1.993 . S
Co1157 O1182 1.941 . S
C1158 O1159 1.258 . S
C1158 O1160 1.263 . S
O1159 Co1156 1.970 . S
O1159 C1158 1.258 . S
O1160 Co1157 1.966 . S
O1160 C1158 1.263 . S
C1161 O1162 1.235 . S
C1161 O1188 1.289 . S
O1162 C1161 1.235 . S
C1163 C1165 1.400 . S
C1163 N1166 1.351 . S
C1163 C1168 1.501 . S
C1164 C1165 1.387 . S
C1164 N1167 1.341 . S
C1165 C1163 1.400 . S
C1165 C1164 1.387 . S
N1166 Co1157 2.022 . S
N1166 C1163 1.351 . S
N1166 N1167 1.365 . S
N1167 C1164 1.341 . S
N1167 N1166 1.365 . S
N1167 H1187 0.862 . S
C1168 C1163 1.501 . S
C1168 H1169 0.961 . S
C1168 H1170 0.961 . S
C1168 H1171 0.960 . S
H1169 C1168 0.961 . S
H1170 C1168 0.961 . S
H1171 C1168 0.960 . S
C1172 N1173 1.342 . S
C1172 C1176 1.401 . S
C1172 C1177 1.499 . S
N1173 Co1156 1.989 . S
N1173 C1172 1.342 . S
N1173 N1174 1.388 . S
N1174 Co1157 1.993 . S
N1174 N1173 1.388 . S
N1174 C1175 1.346 . S
C1175 N1174 1.346 . S
C1175 C1176 1.396 . S
C1175 C1185 1.510 . S
C1176 C1172 1.401 . S
C1176 C1175 1.396 . S
C1177 C1172 1.499 . S
C1177 H1178 0.959 . S
C1177 H1179 0.960 . S
C1177 H1180 0.961 . S
H1178 C1177 0.959 . S
H1179 C1177 0.960 . S
H1180 C1177 0.961 . S
O1181 Co1156 1.967 . S
O1181 C1189 1.258 . S
O1182 Co1157 1.941 . S
O1182 C1189 1.266 . S
H1183 C1185 0.959 . S
H1184 C1185 0.961 . S
C1185 C1175 1.510 . S
C1185 H1183 0.959 . S
C1185 H1184 0.961 . S
C1185 H1186 0.960 . S
H1186 C1185 0.960 . S
H1187 N1167 0.862 . S
O1188 Co1156 1.920 . S
O1188 C1161 1.289 . S
C1189 O1181 1.258 . S
C1189 O1182 1.266 . S
Co1190 O1193 1.970 . S
Co1190 N1207 1.989 . S
Co1190 O1215 1.967 . S
Co1190 O1222 1.920 . S
Co1191 O1194 1.966 . S
Co1191 N1200 2.022 . S
Co1191 N1208 1.993 . S
Co1191 O1216 1.941 . S
C1192 O1193 1.258 . S
C1192 O1194 1.263 . S
O1193 Co1190 1.970 . S
O1193 C1192 1.258 . S
O1194 Co1191 1.966 . S
O1194 C1192 1.263 . S
C1195 O1196 1.235 . S
C1195 O1222 1.289 . S
O1196 C1195 1.235 . S
C1197 C1199 1.400 . S
C1197 N1200 1.351 . S
C1197 C1202 1.501 . S
C1198 C1199 1.387 . S
C1198 N1201 1.341 . S
C1199 C1197 1.400 . S
C1199 C1198 1.387 . S
N1200 Co1191 2.022 . S
N1200 C1197 1.351 . S
N1200 N1201 1.365 . S
N1201 C1198 1.341 . S
N1201 N1200 1.365 . S
N1201 H1221 0.862 . S
C1202 C1197 1.501 . S
C1202 H1203 0.961 . S
C1202 H1204 0.961 . S
C1202 H1205 0.960 . S
H1203 C1202 0.961 . S
H1204 C1202 0.961 . S
H1205 C1202 0.960 . S
C1206 N1207 1.342 . S
C1206 C1210 1.401 . S
C1206 C1211 1.499 . S
N1207 Co1190 1.989 . S
N1207 C1206 1.342 . S
N1207 N1208 1.388 . S
N1208 Co1191 1.993 . S
N1208 N1207 1.388 . S
N1208 C1209 1.346 . S
C1209 N1208 1.346 . S
C1209 C1210 1.396 . S
C1209 C1219 1.510 . S
C1210 C1206 1.401 . S
C1210 C1209 1.396 . S
C1211 C1206 1.499 . S
C1211 H1212 0.959 . S
C1211 H1213 0.960 . S
C1211 H1214 0.961 . S
H1212 C1211 0.959 . S
H1213 C1211 0.960 . S
H1214 C1211 0.961 . S
O1215 Co1190 1.967 . S
O1215 C1223 1.258 . S
O1216 Co1191 1.941 . S
O1216 C1223 1.266 . S
H1217 C1219 0.959 . S
H1218 C1219 0.961 . S
C1219 C1209 1.510 . S
C1219 H1217 0.959 . S
C1219 H1218 0.961 . S
C1219 H1220 0.960 . S
H1220 C1219 0.960 . S
H1221 N1201 0.862 . S
O1222 Co1190 1.920 . S
O1222 C1195 1.289 . S
C1223 O1215 1.258 . S
C1223 O1216 1.266 . S
H1224 C1236 0.930 . S
H1225 C1238 0.930 . S
H1226 C1239 0.930 . S
H1227 C1243 0.959 . S
H1228 C1243 0.959 . S
H1229 C1243 0.961 . S
H1230 C1244 0.960 . S
H1231 C1244 0.961 . S
H1232 C1244 0.959 . S
H1233 C1247 0.929 . S
H1234 C1248 0.931 . S
H1235 C1250 0.930 . S
C1236 H1224 0.930 . S
C1236 C1237 1.399 . S
C1236 C1241 1.399 . S
C1237 C1236 1.399 . S
C1237 C1238 1.376 . S
C1238 H1225 0.930 . S
C1238 C1237 1.376 . S
C1238 C1239 1.388 . S
C1239 H1226 0.930 . S
C1239 C1238 1.388 . S
C1239 C1240 1.390 . S
C1240 C1239 1.390 . S
C1240 C1241 1.394 . S
C1240 C1246 1.465 . S
C1241 C1236 1.399 . S
C1241 C1240 1.394 . S
C1241 C1242 1.516 . S
C1242 C1241 1.516 . S
C1242 C1243 1.502 . S
C1242 C1244 1.561 . S
C1242 C1245 1.526 . S
C1243 H1227 0.959 . S
C1243 H1228 0.959 . S
C1243 H1229 0.961 . S
C1243 C1242 1.502 . S
C1244 H1230 0.960 . S
C1244 H1231 0.961 . S
C1244 H1232 0.959 . S
C1244 C1242 1.561 . S
C1245 C1242 1.526 . S
C1245 C1246 1.396 . S
C1245 C1250 1.390 . S
C1246 C1240 1.465 . S
C1246 C1245 1.396 . S
C1246 C1247 1.399 . S
C1247 H1233 0.929 . S
C1247 C1246 1.399 . S
C1247 C1248 1.385 1_556 S
C1248 H1234 0.931 . S
C1248 C1247 1.385 1_554 S
C1248 C1249 1.389 . S
C1249 C1248 1.389 . S
C1249 C1250 1.387 1_554 S
C1250 H1235 0.930 . S
C1250 C1245 1.390 . S
C1250 C1249 1.387 1_556 S
H1251 C1263 0.930 . S
H1252 C1265 0.930 . S
H1253 C1266 0.930 . S
H1254 C1270 0.959 . S
H1255 C1270 0.959 . S
H1256 C1270 0.961 . S
H1257 C1271 0.960 . S
H1258 C1271 0.961 . S
H1259 C1271 0.959 . S
H1260 C1274 0.929 . S
H1261 C1275 0.931 . S
H1262 C1277 0.930 . S
C1263 H1251 0.930 . S
C1263 C1264 1.399 . S
C1263 C1268 1.399 . S
C1264 C1263 1.399 . S
C1264 C1265 1.376 . S
C1265 H1252 0.930 . S
C1265 C1264 1.376 . S
C1265 C1266 1.388 . S
C1266 H1253 0.930 . S
C1266 C1265 1.388 . S
C1266 C1267 1.390 . S
C1267 C1266 1.390 . S
C1267 C1268 1.394 . S
C1267 C1273 1.465 . S
C1268 C1263 1.399 . S
C1268 C1267 1.394 . S
C1268 C1269 1.516 . S
C1269 C1268 1.516 . S
C1269 C1270 1.502 . S
C1269 C1271 1.561 . S
C1269 C1272 1.526 . S
C1270 H1254 0.959 . S
C1270 H1255 0.959 . S
C1270 H1256 0.961 . S
C1270 C1269 1.502 . S
C1271 H1257 0.960 . S
C1271 H1258 0.961 . S
C1271 H1259 0.959 . S
C1271 C1269 1.561 . S
C1272 C1269 1.526 . S
C1272 C1273 1.396 . S
C1272 C1277 1.390 . S
C1273 C1267 1.465 . S
C1273 C1272 1.396 . S
C1273 C1274 1.399 . S
C1274 H1260 0.929 . S
C1274 C1273 1.399 . S
C1274 C1275 1.385 1_556 S
C1275 H1261 0.931 . S
C1275 C1274 1.385 1_554 S
C1275 C1276 1.389 . S
C1276 C1275 1.389 . S
C1276 C1277 1.387 1_554 S
C1277 H1262 0.930 . S
C1277 C1272 1.390 . S
C1277 C1276 1.387 1_556 S
H1278 C1290 0.930 . S
H1279 C1292 0.930 . S
H1280 C1293 0.930 . S
H1281 C1297 0.959 . S
H1282 C1297 0.959 . S
H1283 C1297 0.961 . S
H1284 C1298 0.960 . S
H1285 C1298 0.961 . S
H1286 C1298 0.959 . S
H1287 C1301 0.929 . S
H1288 C1302 0.931 . S
H1289 C1304 0.930 . S
C1290 H1278 0.930 . S
C1290 C1291 1.399 . S
C1290 C1295 1.399 1_554 S
C1291 C1290 1.399 . S
C1291 C1292 1.376 1_554 S
C1292 H1279 0.930 . S
C1292 C1291 1.376 1_556 S
C1292 C1293 1.388 . S
C1293 H1280 0.930 . S
C1293 C1292 1.388 . S
C1293 C1294 1.390 . S
C1294 C1293 1.390 . S
C1294 C1295 1.394 . S
C1294 C1300 1.465 . S
C1295 C1290 1.399 1_556 S
C1295 C1294 1.394 . S
C1295 C1296 1.516 . S
C1296 C1295 1.516 . S
C1296 C1297 1.502 . S
C1296 C1298 1.561 . S
C1296 C1299 1.526 . S
C1297 H1281 0.959 . S
C1297 H1282 0.959 . S
C1297 H1283 0.961 . S
C1297 C1296 1.502 . S
C1298 H1284 0.960 . S
C1298 H1285 0.961 . S
C1298 H1286 0.959 . S
C1298 C1296 1.561 . S
C1299 C1296 1.526 . S
C1299 C1300 1.396 . S
C1299 C1304 1.390 . S
C1300 C1294 1.465 . S
C1300 C1299 1.396 . S
C1300 C1301 1.399 . S
C1301 H1287 0.929 . S
C1301 C1300 1.399 . S
C1301 C1302 1.385 . S
C1302 H1288 0.931 . S
C1302 C1301 1.385 . S
C1302 C1303 1.389 . S
C1303 C1302 1.389 . S
C1303 C1304 1.387 . S
C1304 H1289 0.930 . S
C1304 C1299 1.390 . S
C1304 C1303 1.387 . S
H1305 C1317 0.930 . S
H1306 C1319 0.930 . S
H1307 C1320 0.930 . S
H1308 C1324 0.959 . S
H1309 C1324 0.959 . S
H1310 C1324 0.961 . S
H1311 C1325 0.960 . S
H1312 C1325 0.961 . S
H1313 C1325 0.959 . S
H1314 C1328 0.929 . S
H1315 C1329 0.931 . S
H1316 C1331 0.930 . S
C1317 H1305 0.930 . S
C1317 C1318 1.399 . S
C1317 C1322 1.399 . S
C1318 C1317 1.399 . S
C1318 C1319 1.376 . S
C1319 H1306 0.930 . S
C1319 C1318 1.376 . S
C1319 C1320 1.388 . S
C1320 H1307 0.930 . S
C1320 C1319 1.388 . S
C1320 C1321 1.390 . S
C1321 C1320 1.390 . S
C1321 C1322 1.394 . S
C1321 C1327 1.465 . S
C1322 C1317 1.399 . S
C1322 C1321 1.394 . S
C1322 C1323 1.516 . S
C1323 C1322 1.516 . S
C1323 C1324 1.502 . S
C1323 C1325 1.561 . S
C1323 C1326 1.526 . S
C1324 H1308 0.959 . S
C1324 H1309 0.959 . S
C1324 H1310 0.961 . S
C1324 C1323 1.502 . S
C1325 H1311 0.960 . S
C1325 H1312 0.961 . S
C1325 H1313 0.959 . S
C1325 C1323 1.561 . S
C1326 C1323 1.526 . S
C1326 C1327 1.396 . S
C1326 C1331 1.390 . S
C1327 C1321 1.465 . S
C1327 C1326 1.396 . S
C1327 C1328 1.399 . S
C1328 H1314 0.929 . S
C1328 C1327 1.399 . S
C1328 C1329 1.385 . S
C1329 H1315 0.931 . S
C1329 C1328 1.385 . S
C1329 C1330 1.389 . S
C1330 C1329 1.389 . S
C1330 C1331 1.387 . S
C1331 H1316 0.930 . S
C1331 C1326 1.390 . S
C1331 C1330 1.387 . S
H1332 C1344 0.930 . S
H1333 C1346 0.930 . S
H1334 C1347 0.930 . S
H1335 C1351 0.959 . S
H1336 C1351 0.959 . S
H1337 C1351 0.961 . S
H1338 C1352 0.960 . S
H1339 C1352 0.961 . S
H1340 C1352 0.959 . S
H1341 C1355 0.929 . S
H1342 C1356 0.931 . S
H1343 C1358 0.930 . S
C1344 H1332 0.930 . S
C1344 C1345 1.399 . S
C1344 C1349 1.399 . S
C1345 C1344 1.399 . S
C1345 C1346 1.376 . S
C1346 H1333 0.930 . S
C1346 C1345 1.376 . S
C1346 C1347 1.388 . S
C1347 H1334 0.930 . S
C1347 C1346 1.388 . S
C1347 C1348 1.390 . S
C1348 C1347 1.390 . S
C1348 C1349 1.394 . S
C1348 C1354 1.465 . S
C1349 C1344 1.399 . S
C1349 C1348 1.394 . S
C1349 C1350 1.516 . S
C1350 C1349 1.516 . S
C1350 C1351 1.502 . S
C1350 C1352 1.561 . S
C1350 C1353 1.526 . S
C1351 H1335 0.959 . S
C1351 H1336 0.959 . S
C1351 H1337 0.961 . S
C1351 C1350 1.502 . S
C1352 H1338 0.960 . S
C1352 H1339 0.961 . S
C1352 H1340 0.959 . S
C1352 C1350 1.561 . S
C1353 C1350 1.526 . S
C1353 C1354 1.396 . S
C1353 C1358 1.390 . S
C1354 C1348 1.465 . S
C1354 C1353 1.396 . S
C1354 C1355 1.399 . S
C1355 H1341 0.929 . S
C1355 C1354 1.399 . S
C1355 C1356 1.385 . S
C1356 H1342 0.931 . S
C1356 C1355 1.385 . S
C1356 C1357 1.389 . S
C1357 C1356 1.389 . S
C1357 C1358 1.387 . S
C1358 H1343 0.930 . S
C1358 C1353 1.390 . S
C1358 C1357 1.387 . S
H1359 C1371 0.930 . S
H1360 C1373 0.930 . S
H1361 C1374 0.930 . S
H1362 C1378 0.959 . S
H1363 C1378 0.959 . S
H1364 C1378 0.961 . S
H1365 C1379 0.960 . S
H1366 C1379 0.961 . S
H1367 C1379 0.959 . S
H1368 C1382 0.929 . S
H1369 C1383 0.931 . S
H1370 C1385 0.930 . S
C1371 H1359 0.930 . S
C1371 C1372 1.399 . S
C1371 C1376 1.399 . S
C1372 C1371 1.399 . S
C1372 C1373 1.376 . S
C1373 H1360 0.930 . S
C1373 C1372 1.376 . S
C1373 C1374 1.388 . S
C1374 H1361 0.930 . S
C1374 C1373 1.388 . S
C1374 C1375 1.390 . S
C1375 C1374 1.390 . S
C1375 C1376 1.394 . S
C1375 C1381 1.465 . S
C1376 C1371 1.399 . S
C1376 C1375 1.394 . S
C1376 C1377 1.516 . S
C1377 C1376 1.516 . S
C1377 C1378 1.502 . S
C1377 C1379 1.561 . S
C1377 C1380 1.526 . S
C1378 H1362 0.959 . S
C1378 H1363 0.959 . S
C1378 H1364 0.961 . S
C1378 C1377 1.502 . S
C1379 H1365 0.960 . S
C1379 H1366 0.961 . S
C1379 H1367 0.959 . S
C1379 C1377 1.561 . S
C1380 C1377 1.526 . S
C1380 C1381 1.396 . S
C1380 C1385 1.390 . S
C1381 C1375 1.465 . S
C1381 C1380 1.396 . S
C1381 C1382 1.399 . S
C1382 H1368 0.929 . S
C1382 C1381 1.399 . S
C1382 C1383 1.385 . S
C1383 H1369 0.931 . S
C1383 C1382 1.385 . S
C1383 C1384 1.389 . S
C1384 C1383 1.389 . S
C1384 C1385 1.387 . S
C1385 H1370 0.930 . S
C1385 C1380 1.390 . S
C1385 C1384 1.387 . S
H1386 C1398 0.930 . S
H1387 C1400 0.930 . S
H1388 C1401 0.930 . S
H1389 C1405 0.959 . S
H1390 C1405 0.959 . S
H1391 C1405 0.961 . S
H1392 C1406 0.960 . S
H1393 C1406 0.961 . S
H1394 C1406 0.959 . S
H1395 C1409 0.929 . S
H1396 C1410 0.931 . S
H1397 C1412 0.930 . S
C1398 H1386 0.930 . S
C1398 C1399 1.399 . S
C1398 C1403 1.399 . S
C1399 C1398 1.399 . S
C1399 C1400 1.376 . S
C1400 H1387 0.930 . S
C1400 C1399 1.376 . S
C1400 C1401 1.388 . S
C1401 H1388 0.930 . S
C1401 C1400 1.388 . S
C1401 C1402 1.390 . S
C1402 C1401 1.390 . S
C1402 C1403 1.394 . S
C1402 C1408 1.465 . S
C1403 C1398 1.399 . S
C1403 C1402 1.394 . S
C1403 C1404 1.516 . S
C1404 C1403 1.516 . S
C1404 C1405 1.502 . S
C1404 C1406 1.561 . S
C1404 C1407 1.526 . S
C1405 H1389 0.959 . S
C1405 H1390 0.959 . S
C1405 H1391 0.961 . S
C1405 C1404 1.502 . S
C1406 H1392 0.960 . S
C1406 H1393 0.961 . S
C1406 H1394 0.959 . S
C1406 C1404 1.561 . S
C1407 C1404 1.526 . S
C1407 C1408 1.396 . S
C1407 C1412 1.390 . S
C1408 C1402 1.465 . S
C1408 C1407 1.396 . S
C1408 C1409 1.399 . S
C1409 H1395 0.929 . S
C1409 C1408 1.399 . S
C1409 C1410 1.385 1_554 S
C1410 H1396 0.931 . S
C1410 C1409 1.385 1_556 S
C1410 C1411 1.389 . S
C1411 C1410 1.389 . S
C1411 C1412 1.387 1_556 S
C1412 H1397 0.930 . S
C1412 C1407 1.390 . S
C1412 C1411 1.387 1_554 S
H1413 C1425 0.930 . S
H1414 C1427 0.930 1_556 S
H1415 C1428 0.930 . S
H1416 C1432 0.959 . S
H1417 C1432 0.959 . S
H1418 C1432 0.961 . S
H1419 C1433 0.960 . S
H1420 C1433 0.961 . S
H1421 C1433 0.959 . S
H1422 C1436 0.929 . S
H1423 C1437 0.931 . S
H1424 C1439 0.930 . S
C1425 H1413 0.930 . S
C1425 C1426 1.399 . S
C1425 C1430 1.399 1_556 S
C1426 C1425 1.399 . S
C1426 C1427 1.376 1_556 S
C1427 H1414 0.930 1_554 S
C1427 C1426 1.376 1_554 S
C1427 C1428 1.388 . S
C1428 H1415 0.930 . S
C1428 C1427 1.388 . S
C1428 C1429 1.390 . S
C1429 C1428 1.390 . S
C1429 C1430 1.394 . S
C1429 C1435 1.465 . S
C1430 C1425 1.399 1_554 S
C1430 C1429 1.394 . S
C1430 C1431 1.516 . S
C1431 C1430 1.516 . S
C1431 C1432 1.502 . S
C1431 C1433 1.561 . S
C1431 C1434 1.526 . S
C1432 H1416 0.959 . S
C1432 H1417 0.959 . S
C1432 H1418 0.961 . S
C1432 C1431 1.502 . S
C1433 H1419 0.960 . S
C1433 H1420 0.961 . S
C1433 H1421 0.959 . S
C1433 C1431 1.561 . S
C1434 C1431 1.526 . S
C1434 C1435 1.396 . S
C1434 C1439 1.390 . S
C1435 C1429 1.465 . S
C1435 C1434 1.396 . S
C1435 C1436 1.399 . S
C1436 H1422 0.929 . S
C1436 C1435 1.399 . S
C1436 C1437 1.385 . S
C1437 H1423 0.931 . S
C1437 C1436 1.385 . S
C1437 C1438 1.389 . S
C1438 C1437 1.389 . S
C1438 C1439 1.387 . S
C1439 H1424 0.930 . S
C1439 C1434 1.390 . S
C1439 C1438 1.387 . S
H1440 C1452 0.930 . S
H1441 C1454 0.930 . S
H1442 C1455 0.930 . S
H1443 C1459 0.959 . S
H1444 C1459 0.959 . S
H1445 C1459 0.961 . S
H1446 C1460 0.960 . S
H1447 C1460 0.961 . S
H1448 C1460 0.959 . S
H1449 C1463 0.929 . S
H1450 C1464 0.931 . S
H1451 C1466 0.930 . S
C1452 H1440 0.930 . S
C1452 C1453 1.399 1_554 S
C1452 C1457 1.399 . S
C1453 C1452 1.399 1_556 S
C1453 C1454 1.376 . S
C1454 H1441 0.930 . S
C1454 C1453 1.376 . S
C1454 C1455 1.388 1_556 S
C1455 H1442 0.930 . S
C1455 C1454 1.388 1_554 S
C1455 C1456 1.390 . S
C1456 C1455 1.390 . S
C1456 C1457 1.394 . S
C1456 C1462 1.465 . S
C1457 C1452 1.399 . S
C1457 C1456 1.394 . S
C1457 C1458 1.516 . S
C1458 C1457 1.516 . S
C1458 C1459 1.502 . S
C1458 C1460 1.561 . S
C1458 C1461 1.526 . S
C1459 H1443 0.959 . S
C1459 H1444 0.959 . S
C1459 H1445 0.961 . S
C1459 C1458 1.502 . S
C1460 H1446 0.960 . S
C1460 H1447 0.961 . S
C1460 H1448 0.959 . S
C1460 C1458 1.561 . S
C1461 C1458 1.526 . S
C1461 C1462 1.396 . S
C1461 C1466 1.390 . S
C1462 C1456 1.465 . S
C1462 C1461 1.396 . S
C1462 C1463 1.399 . S
C1463 H1449 0.929 . S
C1463 C1462 1.399 . S
C1463 C1464 1.385 . S
C1464 H1450 0.931 . S
C1464 C1463 1.385 . S
C1464 C1465 1.389 . S
C1465 C1464 1.389 . S
C1465 C1466 1.387 . S
C1466 H1451 0.930 . S
C1466 C1461 1.390 . S
C1466 C1465 1.387 . S
H1467 C1479 0.930 . S
H1468 C1481 0.930 . S
H1469 C1482 0.930 . S
H1470 C1486 0.959 . S
H1471 C1486 0.959 . S
H1472 C1486 0.961 . S
H1473 C1487 0.960 . S
H1474 C1487 0.961 . S
H1475 C1487 0.959 . S
H1476 C1490 0.929 . S
H1477 C1491 0.931 . S
H1478 C1493 0.930 . S
C1479 H1467 0.930 . S
C1479 C1480 1.399 . S
C1479 C1484 1.399 . S
C1480 C1479 1.399 . S
C1480 C1481 1.376 . S
C1481 H1468 0.930 . S
C1481 C1480 1.376 . S
C1481 C1482 1.388 . S
C1482 H1469 0.930 . S
C1482 C1481 1.388 . S
C1482 C1483 1.390 . S
C1483 C1482 1.390 . S
C1483 C1484 1.394 . S
C1483 C1489 1.465 . S
C1484 C1479 1.399 . S
C1484 C1483 1.394 . S
C1484 C1485 1.516 . S
C1485 C1484 1.516 . S
C1485 C1486 1.502 . S
C1485 C1487 1.561 . S
C1485 C1488 1.526 . S
C1486 H1470 0.959 . S
C1486 H1471 0.959 . S
C1486 H1472 0.961 . S
C1486 C1485 1.502 . S
C1487 H1473 0.960 . S
C1487 H1474 0.961 . S
C1487 H1475 0.959 . S
C1487 C1485 1.561 . S
C1488 C1485 1.526 . S
C1488 C1489 1.396 . S
C1488 C1493 1.390 . S
C1489 C1483 1.465 . S
C1489 C1488 1.396 . S
C1489 C1490 1.399 . S
C1490 H1476 0.929 . S
C1490 C1489 1.399 . S
C1490 C1491 1.385 . S
C1491 H1477 0.931 . S
C1491 C1490 1.385 . S
C1491 C1492 1.389 . S
C1492 C1491 1.389 . S
C1492 C1493 1.387 . S
C1493 H1478 0.930 . S
C1493 C1488 1.390 . S
C1493 C1492 1.387 . S
H1494 C1506 0.930 . S
H1495 C1508 0.930 . S
H1496 C1509 0.930 . S
H1497 C1513 0.959 . S
H1498 C1513 0.959 . S
H1499 C1513 0.961 . S
H1500 C1514 0.960 . S
H1501 C1514 0.961 . S
H1502 C1514 0.959 . S
H1503 C1517 0.929 . S
H1504 C1518 0.931 . S
H1505 C1520 0.930 . S
C1506 H1494 0.930 . S
C1506 C1507 1.399 . S
C1506 C1511 1.399 . S
C1507 C1506 1.399 . S
C1507 C1508 1.376 . S
C1508 H1495 0.930 . S
C1508 C1507 1.376 . S
C1508 C1509 1.388 . S
C1509 H1496 0.930 . S
C1509 C1508 1.388 . S
C1509 C1510 1.390 . S
C1510 C1509 1.390 . S
C1510 C1511 1.394 . S
C1510 C1516 1.465 . S
C1511 C1506 1.399 . S
C1511 C1510 1.394 . S
C1511 C1512 1.516 . S
C1512 C1511 1.516 . S
C1512 C1513 1.502 . S
C1512 C1514 1.561 . S
C1512 C1515 1.526 . S
C1513 H1497 0.959 . S
C1513 H1498 0.959 . S
C1513 H1499 0.961 . S
C1513 C1512 1.502 . S
C1514 H1500 0.960 . S
C1514 H1501 0.961 . S
C1514 H1502 0.959 . S
C1514 C1512 1.561 . S
C1515 C1512 1.526 . S
C1515 C1516 1.396 . S
C1515 C1520 1.390 . S
C1516 C1510 1.465 . S
C1516 C1515 1.396 . S
C1516 C1517 1.399 . S
C1517 H1503 0.929 . S
C1517 C1516 1.399 . S
C1517 C1518 1.385 . S
C1518 H1504 0.931 . S
C1518 C1517 1.385 . S
C1518 C1519 1.389 . S
C1519 C1518 1.389 . S
C1519 C1520 1.387 . S
C1520 H1505 0.930 . S
C1520 C1515 1.390 . S
C1520 C1519 1.387 . S
H1521 C1533 0.930 . S
H1522 C1535 0.930 . S
H1523 C1536 0.930 . S
H1524 C1540 0.959 . S
H1525 C1540 0.959 . S
H1526 C1540 0.961 . S
H1527 C1541 0.960 . S
H1528 C1541 0.961 . S
H1529 C1541 0.959 . S
H1530 C1544 0.929 . S
H1531 C1545 0.931 . S
H1532 C1547 0.930 . S
C1533 H1521 0.930 . S
C1533 C1534 1.399 . S
C1533 C1538 1.399 . S
C1534 C1533 1.399 . S
C1534 C1535 1.376 . S
C1535 H1522 0.930 . S
C1535 C1534 1.376 . S
C1535 C1536 1.388 . S
C1536 H1523 0.930 . S
C1536 C1535 1.388 . S
C1536 C1537 1.390 . S
C1537 C1536 1.390 . S
C1537 C1538 1.394 . S
C1537 C1543 1.465 . S
C1538 C1533 1.399 . S
C1538 C1537 1.394 . S
C1538 C1539 1.516 . S
C1539 C1538 1.516 . S
C1539 C1540 1.502 . S
C1539 C1541 1.561 . S
C1539 C1542 1.526 . S
C1540 H1524 0.959 . S
C1540 H1525 0.959 . S
C1540 H1526 0.961 . S
C1540 C1539 1.502 . S
C1541 H1527 0.960 . S
C1541 H1528 0.961 . S
C1541 H1529 0.959 . S
C1541 C1539 1.561 . S
C1542 C1539 1.526 . S
C1542 C1543 1.396 . S
C1542 C1547 1.390 . S
C1543 C1537 1.465 . S
C1543 C1542 1.396 . S
C1543 C1544 1.399 . S
C1544 H1530 0.929 . S
C1544 C1543 1.399 . S
C1544 C1545 1.385 . S
C1545 H1531 0.931 . S
C1545 C1544 1.385 . S
C1545 C1546 1.389 . S
C1546 C1545 1.389 . S
C1546 C1547 1.387 . S
C1547 H1532 0.930 . S
C1547 C1542 1.390 . S
C1547 C1546 1.387 . S
H1548 C1560 0.930 . S
H1549 C1562 0.930 . S
H1550 C1563 0.930 . S
H1551 C1567 0.959 . S
H1552 C1567 0.959 . S
H1553 C1567 0.961 . S
H1554 C1568 0.960 . S
H1555 C1568 0.961 . S
H1556 C1568 0.959 . S
H1557 C1571 0.929 1_455 S
H1558 C1572 0.931 . S
H1559 C1574 0.930 . S
C1560 H1548 0.930 . S
C1560 C1561 1.399 . S
C1560 C1565 1.399 . S
C1561 C1560 1.399 . S
C1561 C1562 1.376 . S
C1562 H1549 0.930 . S
C1562 C1561 1.376 . S
C1562 C1563 1.388 . S
C1563 H1550 0.930 . S
C1563 C1562 1.388 . S
C1563 C1564 1.390 . S
C1564 C1563 1.390 . S
C1564 C1565 1.394 . S
C1564 C1570 1.451 1_455 S
C1565 C1560 1.399 . S
C1565 C1564 1.394 . S
C1565 C1566 1.516 1_455 S
C1566 C1565 1.516 1_655 S
C1566 C1567 1.502 . S
C1566 C1568 1.561 1_655 S
C1566 C1569 1.526 . S
C1567 H1551 0.959 . S
C1567 H1552 0.959 . S
C1567 H1553 0.961 . S
C1567 C1566 1.502 . S
C1568 H1554 0.960 . S
C1568 H1555 0.961 . S
C1568 H1556 0.959 . S
C1568 C1566 1.561 1_455 S
C1569 C1566 1.526 . S
C1569 C1570 1.394 . S
C1569 C1574 1.390 . S
C1570 C1564 1.451 1_655 S
C1570 C1569 1.394 . S
C1570 C1571 1.414 . S
C1571 H1557 0.929 1_655 S
C1571 C1570 1.414 . S
C1571 C1572 1.385 . S
C1572 H1558 0.931 . S
C1572 C1571 1.385 . S
C1572 C1573 1.389 . S
C1573 C1572 1.389 . S
C1573 C1574 1.387 . S
C1574 H1559 0.930 . S
C1574 C1569 1.390 . S
C1574 C1573 1.387 . S
H1575 C1587 0.930 . S
H1576 C1589 0.930 . S
H1577 C1590 0.930 . S
H1578 C1594 0.959 . S
H1579 C1594 0.959 . S
H1580 C1594 0.961 . S
H1581 C1595 0.960 . S
H1582 C1595 0.961 . S
H1583 C1595 0.959 . S
H1584 C1598 0.929 . S
H1585 C1599 0.931 . S
H1586 C1601 0.930 . S
C1587 H1575 0.930 . S
C1587 C1588 1.399 . S
C1587 C1592 1.399 . S
C1588 C1587 1.399 . S
C1588 C1589 1.376 . S
C1589 H1576 0.930 . S
C1589 C1588 1.376 . S
C1589 C1590 1.388 . S
C1590 H1577 0.930 . S
C1590 C1589 1.388 . S
C1590 C1591 1.390 . S
C1591 C1590 1.390 . S
C1591 C1592 1.394 . S
C1591 C1597 1.465 . S
C1592 C1587 1.399 . S
C1592 C1591 1.394 . S
C1592 C1593 1.516 . S
C1593 C1592 1.516 . S
C1593 C1594 1.502 . S
C1593 C1595 1.561 . S
C1593 C1596 1.526 . S
C1594 H1578 0.959 . S
C1594 H1579 0.959 . S
C1594 H1580 0.961 . S
C1594 C1593 1.502 . S
C1595 H1581 0.960 . S
C1595 H1582 0.961 . S
C1595 H1583 0.959 . S
C1595 C1593 1.561 . S
C1596 C1593 1.526 . S
C1596 C1597 1.396 . S
C1596 C1601 1.390 . S
C1597 C1591 1.465 . S
C1597 C1596 1.396 . S
C1597 C1598 1.399 . S
C1598 H1584 0.929 . S
C1598 C1597 1.399 . S
C1598 C1599 1.385 . S
C1599 H1585 0.931 . S
C1599 C1598 1.385 . S
C1599 C1600 1.389 . S
C1600 C1599 1.389 . S
C1600 C1601 1.387 . S
C1601 H1586 0.930 . S
C1601 C1596 1.390 . S
C1601 C1600 1.387 . S
H1602 C1614 0.930 . S
H1603 C1616 0.930 . S
H1604 C1617 0.930 . S
H1605 C1621 0.959 . S
H1606 C1621 0.959 . S
H1607 C1621 0.961 . S
H1608 C1622 0.960 . S
H1609 C1622 0.961 . S
H1610 C1622 0.959 . S
H1611 C1625 0.929 . S
H1612 C1626 0.931 . S
H1613 C1628 0.930 . S
C1614 H1602 0.930 . S
C1614 C1615 1.399 . S
C1614 C1619 1.399 . S
C1615 C1614 1.399 . S
C1615 C1616 1.376 . S
C1616 H1603 0.930 . S
C1616 C1615 1.376 . S
C1616 C1617 1.388 1_545 S
C1617 H1604 0.930 . S
C1617 C1616 1.388 1_565 S
C1617 C1618 1.412 . S
C1618 C1617 1.412 . S
C1618 C1619 1.334 1_565 S
C1618 C1624 1.495 . S
C1619 C1614 1.399 . S
C1619 C1618 1.334 1_545 S
C1619 C1620 1.516 . S
C1620 C1619 1.516 . S
C1620 C1621 1.502 . S
C1620 C1622 1.561 . S
C1620 C1623 1.526 1_545 S
C1621 H1605 0.959 . S
C1621 H1606 0.959 . S
C1621 H1607 0.961 . S
C1621 C1620 1.502 . S
C1622 H1608 0.960 . S
C1622 H1609 0.961 . S
C1622 H1610 0.959 . S
C1622 C1620 1.561 . S
C1623 C1620 1.526 1_565 S
C1623 C1624 1.396 . S
C1623 C1628 1.390 . S
C1624 C1618 1.495 . S
C1624 C1623 1.396 . S
C1624 C1625 1.399 . S
C1625 H1611 0.929 . S
C1625 C1624 1.399 . S
C1625 C1626 1.385 . S
C1626 H1612 0.931 . S
C1626 C1625 1.385 . S
C1626 C1627 1.389 . S
C1627 C1626 1.389 . S
C1627 C1628 1.387 . S
C1628 H1613 0.930 . S
C1628 C1623 1.390 . S
C1628 C1627 1.387 . S
H1629 C1641 0.930 . S
H1630 C1643 0.930 . S
H1631 C1644 0.930 . S
H1632 C1648 0.959 . S
H1633 C1648 0.959 . S
H1634 C1648 0.961 . S
H1635 C1649 0.960 . S
H1636 C1649 0.961 . S
H1637 C1649 0.959 . S
H1638 C1652 0.929 . S
H1639 C1653 0.931 . S
H1640 C1655 0.930 . S
C1641 H1629 0.930 . S
C1641 C1642 1.399 . S
C1641 C1646 1.399 . S
C1642 C1641 1.399 . S
C1642 C1643 1.376 . S
C1643 H1630 0.930 . S
C1643 C1642 1.376 . S
C1643 C1644 1.388 1_565 S
C1644 H1631 0.930 . S
C1644 C1643 1.388 1_545 S
C1644 C1645 1.390 . S
C1645 C1644 1.390 . S
C1645 C1646 1.394 1_545 S
C1645 C1651 1.465 . S
C1646 C1641 1.399 . S
C1646 C1645 1.394 1_565 S
C1646 C1647 1.516 . S
C1647 C1646 1.516 . S
C1647 C1648 1.502 . S
C1647 C1649 1.561 . S
C1647 C1650 1.526 1_565 S
C1648 H1632 0.959 . S
C1648 H1633 0.959 . S
C1648 H1634 0.961 . S
C1648 C1647 1.502 . S
C1649 H1635 0.960 . S
C1649 H1636 0.961 . S
C1649 H1637 0.959 . S
C1649 C1647 1.561 . S
C1650 C1647 1.526 1_545 S
C1650 C1651 1.396 . S
C1650 C1655 1.390 . S
C1651 C1645 1.465 . S
C1651 C1650 1.396 . S
C1651 C1652 1.399 . S
C1652 H1638 0.929 . S
C1652 C1651 1.399 . S
C1652 C1653 1.385 . S
C1653 H1639 0.931 . S
C1653 C1652 1.385 . S
C1653 C1654 1.389 . S
C1654 C1653 1.389 . S
C1654 C1655 1.387 . S
C1655 H1640 0.930 . S
C1655 C1650 1.390 . S
C1655 C1654 1.387 . S
H1656 C1668 0.930 . S
H1657 C1670 0.930 . S
H1658 C1671 0.930 . S
H1659 C1675 0.959 . S
H1660 C1675 0.959 . S
H1661 C1675 0.961 1_655 S
H1662 C1676 0.960 . S
H1663 C1676 0.961 . S
H1664 C1676 0.959 . S
H1665 C1679 0.929 . S
H1666 C1680 0.931 . S
H1667 C1682 0.930 . S
C1668 H1656 0.930 . S
C1668 C1669 1.399 . S
C1668 C1673 1.399 . S
C1669 C1668 1.399 . S
C1669 C1670 1.376 . S
C1670 H1657 0.930 . S
C1670 C1669 1.376 . S
C1670 C1671 1.388 . S
C1671 H1658 0.930 . S
C1671 C1670 1.388 . S
C1671 C1672 1.390 . S
C1672 C1671 1.390 . S
C1672 C1673 1.394 . S
C1672 C1678 1.465 1_655 S
C1673 C1668 1.399 . S
C1673 C1672 1.394 . S
C1673 C1674 1.516 . S
C1674 C1673 1.516 . S
C1674 C1675 1.502 1_655 S
C1674 C1676 1.561 . S
C1674 C1677 1.526 1_655 S
C1675 H1659 0.959 . S
C1675 H1660 0.959 . S
C1675 H1661 0.961 1_455 S
C1675 C1674 1.502 1_455 S
C1676 H1662 0.960 . S
C1676 H1663 0.961 . S
C1676 H1664 0.959 . S
C1676 C1674 1.561 . S
C1677 C1674 1.526 1_455 S
C1677 C1678 1.396 . S
C1677 C1682 1.390 . S
C1678 C1672 1.465 1_455 S
C1678 C1677 1.396 . S
C1678 C1679 1.399 . S
C1679 H1665 0.929 . S
C1679 C1678 1.399 . S
C1679 C1680 1.385 . S
C1680 H1666 0.931 . S
C1680 C1679 1.385 . S
C1680 C1681 1.389 . S
C1681 C1680 1.389 . S
C1681 C1682 1.387 . S
C1682 H1667 0.930 . S
C1682 C1677 1.390 . S
C1682 C1681 1.387 . S
H1683 C1695 0.930 . S
H1684 C1697 0.930 . S
H1685 C1698 0.930 . S
H1686 C1702 0.959 . S
H1687 C1702 0.959 . S
H1688 C1702 0.961 . S
H1689 C1703 0.960 . S
H1690 C1703 0.961 . S
H1691 C1703 0.959 . S
H1692 C1706 0.929 . S
H1693 C1707 0.931 . S
H1694 C1709 0.930 . S
C1695 H1683 0.930 . S
C1695 C1696 1.399 . S
C1695 C1700 1.399 . S
C1696 C1695 1.399 . S
C1696 C1697 1.376 . S
C1697 H1684 0.930 . S
C1697 C1696 1.376 . S
C1697 C1698 1.388 . S
C1698 H1685 0.930 . S
C1698 C1697 1.388 . S
C1698 C1699 1.390 . S
C1699 C1698 1.390 . S
C1699 C1700 1.394 . S
C1699 C1705 1.465 . S
C1700 C1695 1.399 . S
C1700 C1699 1.394 . S
C1700 C1701 1.516 . S
C1701 C1700 1.516 . S
C1701 C1702 1.502 . S
C1701 C1703 1.561 . S
C1701 C1704 1.526 . S
C1702 H1686 0.959 . S
C1702 H1687 0.959 . S
C1702 H1688 0.961 . S
C1702 C1701 1.502 . S
C1703 H1689 0.960 . S
C1703 H1690 0.961 . S
C1703 H1691 0.959 . S
C1703 C1701 1.561 . S
C1704 C1701 1.526 . S
C1704 C1705 1.396 . S
C1704 C1709 1.390 . S
C1705 C1699 1.465 . S
C1705 C1704 1.396 . S
C1705 C1706 1.399 . S
C1706 H1692 0.929 . S
C1706 C1705 1.399 . S
C1706 C1707 1.385 . S
C1707 H1693 0.931 . S
C1707 C1706 1.385 . S
C1707 C1708 1.389 . S
C1708 C1707 1.389 . S
C1708 C1709 1.387 . S
C1709 H1694 0.930 . S
C1709 C1704 1.390 . S
C1709 C1708 1.387 . S
H1710 C1722 0.930 . S
H1711 C1724 0.930 . S
H1712 C1725 0.930 . S
H1713 C1729 0.959 . S
H1714 C1729 0.959 . S
H1715 C1729 0.961 . S
H1716 C1730 0.960 . S
H1717 C1730 0.961 . S
H1718 C1730 0.959 . S
H1719 C1733 0.929 . S
H1720 C1734 0.931 . S
H1721 C1736 0.930 . S
C1722 H1710 0.930 . S
C1722 C1723 1.399 . S
C1722 C1727 1.399 . S
C1723 C1722 1.399 . S
C1723 C1724 1.376 . S
C1724 H1711 0.930 . S
C1724 C1723 1.376 . S
C1724 C1725 1.388 . S
C1725 H1712 0.930 . S
C1725 C1724 1.388 . S
C1725 C1726 1.390 . S
C1726 C1725 1.390 . S
C1726 C1727 1.394 . S
C1726 C1732 1.465 . S
C1727 C1722 1.399 . S
C1727 C1726 1.394 . S
C1727 C1728 1.516 . S
C1728 C1727 1.516 . S
C1728 C1729 1.502 . S
C1728 C1730 1.561 . S
C1728 C1731 1.526 . S
C1729 H1713 0.959 . S
C1729 H1714 0.959 . S
C1729 H1715 0.961 . S
C1729 C1728 1.502 . S
C1730 H1716 0.960 . S
C1730 H1717 0.961 . S
C1730 H1718 0.959 . S
C1730 C1728 1.561 . S
C1731 C1728 1.526 . S
C1731 C1732 1.396 . S
C1731 C1736 1.390 . S
C1732 C1726 1.465 . S
C1732 C1731 1.396 . S
C1732 C1733 1.399 . S
C1733 H1719 0.929 . S
C1733 C1732 1.399 . S
C1733 C1734 1.385 . S
C1734 H1720 0.931 . S
C1734 C1733 1.385 . S
C1734 C1735 1.389 . S
C1735 C1734 1.389 . S
C1735 C1736 1.387 . S
C1736 H1721 0.930 . S
C1736 C1731 1.390 . S
C1736 C1735 1.387 . S
H1737 C1749 0.930 . S
H1738 C1751 0.930 . S
H1739 C1752 0.930 . S
H1740 C1756 0.959 . S
H1741 C1756 0.959 . S
H1742 C1756 0.961 . S
H1743 C1757 0.960 . S
H1744 C1757 0.961 . S
H1745 C1757 0.959 . S
H1746 C1760 0.929 . S
H1747 C1761 0.931 . S
H1748 C1763 0.930 . S
C1749 H1737 0.930 . S
C1749 C1750 1.399 . S
C1749 C1754 1.399 . S
C1750 C1749 1.399 . S
C1750 C1751 1.376 . S
C1751 H1738 0.930 . S
C1751 C1750 1.376 . S
C1751 C1752 1.388 . S
C1752 H1739 0.930 . S
C1752 C1751 1.388 . S
C1752 C1753 1.390 . S
C1753 C1752 1.390 . S
C1753 C1754 1.394 . S
C1753 C1759 1.465 . S
C1754 C1749 1.399 . S
C1754 C1753 1.394 . S
C1754 C1755 1.516 . S
C1755 C1754 1.516 . S
C1755 C1756 1.502 . S
C1755 C1757 1.561 . S
C1755 C1758 1.526 . S
C1756 H1740 0.959 . S
C1756 H1741 0.959 . S
C1756 H1742 0.961 . S
C1756 C1755 1.502 . S
C1757 H1743 0.960 . S
C1757 H1744 0.961 . S
C1757 H1745 0.959 . S
C1757 C1755 1.561 . S
C1758 C1755 1.526 . S
C1758 C1759 1.396 . S
C1758 C1763 1.390 . S
C1759 C1753 1.465 . S
C1759 C1758 1.396 . S
C1759 C1760 1.399 . S
C1760 H1746 0.929 . S
C1760 C1759 1.399 . S
C1760 C1761 1.385 . S
C1761 H1747 0.931 . S
C1761 C1760 1.385 . S
C1761 C1762 1.389 . S
C1762 C1761 1.389 . S
C1762 C1763 1.387 . S
C1763 H1748 0.930 . S
C1763 C1758 1.390 . S
C1763 C1762 1.387 . S
H1764 C1776 0.930 . S
H1765 C1778 0.930 . S
H1766 C1779 0.930 . S
H1767 C1783 0.959 . S
H1768 C1783 0.959 . S
H1769 C1783 0.961 . S
H1770 C1784 0.960 . S
H1771 C1784 0.961 . S
H1772 C1784 0.959 . S
H1773 C1787 0.929 . S
H1774 C1788 0.931 . S
H1775 C1790 0.930 . S
C1776 H1764 0.930 . S
C1776 C1777 1.399 . S
C1776 C1781 1.399 . S
C1777 C1776 1.399 . S
C1777 C1778 1.376 . S
C1778 H1765 0.930 . S
C1778 C1777 1.376 . S
C1778 C1779 1.388 . S
C1779 H1766 0.930 . S
C1779 C1778 1.388 . S
C1779 C1780 1.390 . S
C1780 C1779 1.390 . S
C1780 C1781 1.394 . S
C1780 C1786 1.465 . S
C1781 C1776 1.399 . S
C1781 C1780 1.394 . S
C1781 C1782 1.516 . S
C1782 C1781 1.516 . S
C1782 C1783 1.502 . S
C1782 C1784 1.561 . S
C1782 C1785 1.526 . S
C1783 H1767 0.959 . S
C1783 H1768 0.959 . S
C1783 H1769 0.961 . S
C1783 C1782 1.502 . S
C1784 H1770 0.960 . S
C1784 H1771 0.961 . S
C1784 H1772 0.959 . S
C1784 C1782 1.561 . S
C1785 C1782 1.526 . S
C1785 C1786 1.396 . S
C1785 C1790 1.390 . S
C1786 C1780 1.465 . S
C1786 C1785 1.396 . S
C1786 C1787 1.399 . S
C1787 H1773 0.929 . S
C1787 C1786 1.399 . S
C1787 C1788 1.385 . S
C1788 H1774 0.931 . S
C1788 C1787 1.385 . S
C1788 C1789 1.389 . S
C1789 C1788 1.389 . S
C1789 C1790 1.387 . S
C1790 H1775 0.930 . S
C1790 C1785 1.390 . S
C1790 C1789 1.387 . S
H1791 C1803 0.930 . S
H1792 C1805 0.930 . S
H1793 C1806 0.930 . S
H1794 C1810 0.959 . S
H1795 C1810 0.959 . S
H1796 C1810 0.961 . S
H1797 C1811 0.960 . S
H1798 C1811 0.961 . S
H1799 C1811 0.959 . S
H1800 C1814 0.929 . S
H1801 C1815 0.931 . S
H1802 C1817 0.930 . S
C1803 H1791 0.930 . S
C1803 C1804 1.399 . S
C1803 C1808 1.399 . S
C1804 C1803 1.399 . S
C1804 C1805 1.376 . S
C1805 H1792 0.930 . S
C1805 C1804 1.376 . S
C1805 C1806 1.388 . S
C1806 H1793 0.930 . S
C1806 C1805 1.388 . S
C1806 C1807 1.390 . S
C1807 C1806 1.390 . S
C1807 C1808 1.394 . S
C1807 C1813 1.465 . S
C1808 C1803 1.399 . S
C1808 C1807 1.394 . S
C1808 C1809 1.516 . S
C1809 C1808 1.516 . S
C1809 C1810 1.502 . S
C1809 C1811 1.561 . S
C1809 C1812 1.526 . S
C1810 H1794 0.959 . S
C1810 H1795 0.959 . S
C1810 H1796 0.961 . S
C1810 C1809 1.502 . S
C1811 H1797 0.960 . S
C1811 H1798 0.961 . S
C1811 H1799 0.959 . S
C1811 C1809 1.561 . S
C1812 C1809 1.526 . S
C1812 C1813 1.396 . S
C1812 C1817 1.390 . S
C1813 C1807 1.465 . S
C1813 C1812 1.396 . S
C1813 C1814 1.399 . S
C1814 H1800 0.929 . S
C1814 C1813 1.399 . S
C1814 C1815 1.385 . S
C1815 H1801 0.931 . S
C1815 C1814 1.385 . S
C1815 C1816 1.389 . S
C1816 C1815 1.389 . S
C1816 C1817 1.387 . S
C1817 H1802 0.930 . S
C1817 C1812 1.390 . S
C1817 C1816 1.387 . S
H1818 C1830 0.930 . S
H1819 C1832 0.930 . S
H1820 C1833 0.930 . S
H1821 C1837 0.959 . S
H1822 C1837 0.959 . S
H1823 C1837 0.961 . S
H1824 C1838 0.960 . S
H1825 C1838 0.961 . S
H1826 C1838 0.959 . S
H1827 C1841 0.929 . S
H1828 C1842 0.931 . S
H1829 C1844 0.930 . S
C1830 H1818 0.930 . S
C1830 C1831 1.399 . S
C1830 C1835 1.399 . S
C1831 C1830 1.399 . S
C1831 C1832 1.376 . S
C1832 H1819 0.930 . S
C1832 C1831 1.376 . S
C1832 C1833 1.388 . S
C1833 H1820 0.930 . S
C1833 C1832 1.388 . S
C1833 C1834 1.390 . S
C1834 C1833 1.390 . S
C1834 C1835 1.394 . S
C1834 C1840 1.465 . S
C1835 C1830 1.399 . S
C1835 C1834 1.394 . S
C1835 C1836 1.516 . S
C1836 C1835 1.516 . S
C1836 C1837 1.502 . S
C1836 C1838 1.561 . S
C1836 C1839 1.526 . S
C1837 H1821 0.959 . S
C1837 H1822 0.959 . S
C1837 H1823 0.961 . S
C1837 C1836 1.502 . S
C1838 H1824 0.960 . S
C1838 H1825 0.961 . S
C1838 H1826 0.959 . S
C1838 C1836 1.561 . S
C1839 C1836 1.526 . S
C1839 C1840 1.396 . S
C1839 C1844 1.390 . S
C1840 C1834 1.465 . S
C1840 C1839 1.396 . S
C1840 C1841 1.399 . S
C1841 H1827 0.929 . S
C1841 C1840 1.399 . S
C1841 C1842 1.385 . S
C1842 H1828 0.931 . S
C1842 C1841 1.385 . S
C1842 C1843 1.389 . S
C1843 C1842 1.389 . S
C1843 C1844 1.387 . S
C1844 H1829 0.930 . S
C1844 C1839 1.390 . S
C1844 C1843 1.387 . S
H1845 C1857 0.930 . S
H1846 C1859 0.930 . S
H1847 C1860 0.930 . S
H1848 C1864 0.959 . S
H1849 C1864 0.959 . S
H1850 C1864 0.961 . S
H1851 C1865 0.960 . S
H1852 C1865 0.961 . S
H1853 C1865 0.959 . S
H1854 C1868 0.929 . S
H1855 C1869 0.931 . S
H1856 C1871 0.930 . S
C1857 H1845 0.930 . S
C1857 C1858 1.399 . S
C1857 C1862 1.399 . S
C1858 C1857 1.399 . S
C1858 C1859 1.376 . S
C1859 H1846 0.930 . S
C1859 C1858 1.376 . S
C1859 C1860 1.388 . S
C1860 H1847 0.930 . S
C1860 C1859 1.388 . S
C1860 C1861 1.390 . S
C1861 C1860 1.390 . S
C1861 C1862 1.394 . S
C1861 C1867 1.465 . S
C1862 C1857 1.399 . S
C1862 C1861 1.394 . S
C1862 C1863 1.516 . S
C1863 C1862 1.516 . S
C1863 C1864 1.502 . S
C1863 C1865 1.561 . S
C1863 C1866 1.526 . S
C1864 H1848 0.959 . S
C1864 H1849 0.959 . S
C1864 H1850 0.961 . S
C1864 C1863 1.502 . S
C1865 H1851 0.960 . S
C1865 H1852 0.961 . S
C1865 H1853 0.959 . S
C1865 C1863 1.561 . S
C1866 C1863 1.526 . S
C1866 C1867 1.396 . S
C1866 C1871 1.390 . S
C1867 C1861 1.465 . S
C1867 C1866 1.396 . S
C1867 C1868 1.399 . S
C1868 H1854 0.929 . S
C1868 C1867 1.399 . S
C1868 C1869 1.385 . S
C1869 H1855 0.931 . S
C1869 C1868 1.385 . S
C1869 C1870 1.389 . S
C1870 C1869 1.389 . S
C1870 C1871 1.387 . S
C1871 H1856 0.930 . S
C1871 C1866 1.390 . S
C1871 C1870 1.387 . S
H1872 C1884 0.930 . S
H1873 C1886 0.930 . S
H1874 C1887 0.930 . S
H1875 C1891 0.959 . S
H1876 C1891 0.959 . S
H1877 C1891 0.961 . S
H1878 C1892 0.960 . S
H1879 C1892 0.961 . S
H1880 C1892 0.959 . S
H1881 C1895 0.929 . S
H1882 C1896 0.931 . S
H1883 C1898 0.930 . S
C1884 H1872 0.930 . S
C1884 C1885 1.399 . S
C1884 C1889 1.399 . S
C1885 C1884 1.399 . S
C1885 C1886 1.376 . S
C1886 H1873 0.930 . S
C1886 C1885 1.376 . S
C1886 C1887 1.388 . S
C1887 H1874 0.930 . S
C1887 C1886 1.388 . S
C1887 C1888 1.390 . S
C1888 C1887 1.390 . S
C1888 C1889 1.394 . S
C1888 C1894 1.465 . S
C1889 C1884 1.399 . S
C1889 C1888 1.394 . S
C1889 C1890 1.516 . S
C1890 C1889 1.516 . S
C1890 C1891 1.502 . S
C1890 C1892 1.561 . S
C1890 C1893 1.526 . S
C1891 H1875 0.959 . S
C1891 H1876 0.959 . S
C1891 H1877 0.961 . S
C1891 C1890 1.502 . S
C1892 H1878 0.960 . S
C1892 H1879 0.961 . S
C1892 H1880 0.959 . S
C1892 C1890 1.561 . S
C1893 C1890 1.526 . S
C1893 C1894 1.396 . S
C1893 C1898 1.390 . S
C1894 C1888 1.465 . S
C1894 C1893 1.396 . S
C1894 C1895 1.399 . S
C1895 H1881 0.929 . S
C1895 C1894 1.399 . S
C1895 C1896 1.385 . S
C1896 H1882 0.931 . S
C1896 C1895 1.385 . S
C1896 C1897 1.389 . S
C1897 C1896 1.389 . S
C1897 C1898 1.387 . S
C1898 H1883 0.930 . S
C1898 C1893 1.390 . S
C1898 C1897 1.387 . S
H1899 C1911 0.930 . S
H1900 C1913 0.930 . S
H1901 C1914 0.930 . S
H1902 C1918 0.959 . S
H1903 C1918 0.959 . S
H1904 C1918 0.961 . S
H1905 C1919 0.960 . S
H1906 C1919 0.961 . S
H1907 C1919 0.959 . S
H1908 C1922 0.929 . S
H1909 C1923 0.931 . S
H1910 C1925 0.930 . S
C1911 H1899 0.930 . S
C1911 C1912 1.399 . S
C1911 C1916 1.399 . S
C1912 C1911 1.399 . S
C1912 C1913 1.376 . S
C1913 H1900 0.930 . S
C1913 C1912 1.376 . S
C1913 C1914 1.388 . S
C1914 H1901 0.930 . S
C1914 C1913 1.388 . S
C1914 C1915 1.390 . S
C1915 C1914 1.390 . S
C1915 C1916 1.394 . S
C1915 C1921 1.465 . S
C1916 C1911 1.399 . S
C1916 C1915 1.394 . S
C1916 C1917 1.516 . S
C1917 C1916 1.516 . S
C1917 C1918 1.502 . S
C1917 C1919 1.561 . S
C1917 C1920 1.526 . S
C1918 H1902 0.959 . S
C1918 H1903 0.959 . S
C1918 H1904 0.961 . S
C1918 C1917 1.502 . S
C1919 H1905 0.960 . S
C1919 H1906 0.961 . S
C1919 H1907 0.959 . S
C1919 C1917 1.561 . S
C1920 C1917 1.526 . S
C1920 C1921 1.396 . S
C1920 C1925 1.390 . S
C1921 C1915 1.465 . S
C1921 C1920 1.396 . S
C1921 C1922 1.399 . S
C1922 H1908 0.929 . S
C1922 C1921 1.399 . S
C1922 C1923 1.385 . S
C1923 H1909 0.931 . S
C1923 C1922 1.385 . S
C1923 C1924 1.389 . S
C1924 C1923 1.389 . S
C1924 C1925 1.387 . S
C1925 H1910 0.930 . S
C1925 C1920 1.390 . S
C1925 C1924 1.387 . S
H1926 C1938 0.930 . S
H1927 C1940 0.930 . S
H1928 C1941 0.930 . S
H1929 C1945 0.959 . S
H1930 C1945 0.959 . S
H1931 C1945 0.961 . S
H1932 C1946 0.960 . S
H1933 C1946 0.961 . S
H1934 C1946 0.959 . S
H1935 C1949 0.929 . S
H1936 C1950 0.931 . S
H1937 C1952 0.930 . S
C1938 H1926 0.930 . S
C1938 C1939 1.399 . S
C1938 C1943 1.399 . S
C1939 C1938 1.399 . S
C1939 C1940 1.376 . S
C1940 H1927 0.930 . S
C1940 C1939 1.376 . S
C1940 C1941 1.388 . S
C1941 H1928 0.930 . S
C1941 C1940 1.388 . S
C1941 C1942 1.390 . S
C1942 C1941 1.390 . S
C1942 C1943 1.394 . S
C1942 C1948 1.465 . S
C1943 C1938 1.399 . S
C1943 C1942 1.394 . S
C1943 C1944 1.516 . S
C1944 C1943 1.516 . S
C1944 C1945 1.502 . S
C1944 C1946 1.561 . S
C1944 C1947 1.526 . S
C1945 H1929 0.959 . S
C1945 H1930 0.959 . S
C1945 H1931 0.961 . S
C1945 C1944 1.502 . S
C1946 H1932 0.960 . S
C1946 H1933 0.961 . S
C1946 H1934 0.959 . S
C1946 C1944 1.561 . S
C1947 C1944 1.526 . S
C1947 C1948 1.396 . S
C1947 C1952 1.390 . S
C1948 C1942 1.465 . S
C1948 C1947 1.396 . S
C1948 C1949 1.399 . S
C1949 H1935 0.929 . S
C1949 C1948 1.399 . S
C1949 C1950 1.385 . S
C1950 H1936 0.931 . S
C1950 C1949 1.385 . S
C1950 C1951 1.389 . S
C1951 C1950 1.389 . S
C1951 C1952 1.387 . S
C1952 H1937 0.930 . S
C1952 C1947 1.390 . S
C1952 C1951 1.387 . S
H1953 C1965 0.930 . S
H1954 C1967 0.930 . S
H1955 C1968 0.930 . S
H1956 C1972 0.959 . S
H1957 C1972 0.959 . S
H1958 C1972 0.961 . S
H1959 C1973 0.960 . S
H1960 C1973 0.961 . S
H1961 C1973 0.959 . S
H1962 C1976 0.929 . S
H1963 C1977 0.931 . S
H1964 C1979 0.930 . S
C1965 H1953 0.930 . S
C1965 C1966 1.399 . S
C1965 C1970 1.399 . S
C1966 C1965 1.399 . S
C1966 C1967 1.376 . S
C1967 H1954 0.930 . S
C1967 C1966 1.376 . S
C1967 C1968 1.388 . S
C1968 H1955 0.930 . S
C1968 C1967 1.388 . S
C1968 C1969 1.390 . S
C1969 C1968 1.390 . S
C1969 C1970 1.394 . S
C1969 C1975 1.465 . S
C1970 C1965 1.399 . S
C1970 C1969 1.394 . S
C1970 C1971 1.516 . S
C1971 C1970 1.516 . S
C1971 C1972 1.502 . S
C1971 C1973 1.561 . S
C1971 C1974 1.526 . S
C1972 H1956 0.959 . S
C1972 H1957 0.959 . S
C1972 H1958 0.961 . S
C1972 C1971 1.502 . S
C1973 H1959 0.960 . S
C1973 H1960 0.961 . S
C1973 H1961 0.959 . S
C1973 C1971 1.561 . S
C1974 C1971 1.526 . S
C1974 C1975 1.396 . S
C1974 C1979 1.390 . S
C1975 C1969 1.465 . S
C1975 C1974 1.396 . S
C1975 C1976 1.399 . S
C1976 H1962 0.929 . S
C1976 C1975 1.399 . S
C1976 C1977 1.385 . S
C1977 H1963 0.931 . S
C1977 C1976 1.385 . S
C1977 C1978 1.389 . S
C1978 C1977 1.389 . S
C1978 C1979 1.387 . S
C1979 H1964 0.930 . S
C1979 C1974 1.390 . S
C1979 C1978 1.387 . S
H1980 C1992 0.930 . S
H1981 C1994 0.930 . S
H1982 C1995 0.930 . S
H1983 C1999 0.959 . S
H1984 C1999 0.959 . S
H1985 C1999 0.961 . S
H1986 C2000 0.960 . S
H1987 C2000 0.961 . S
H1988 C2000 0.959 . S
H1989 C2003 0.929 . S
H1990 C2004 0.931 . S
H1991 C2006 0.930 . S
C1992 H1980 0.930 . S
C1992 C1993 1.399 . S
C1992 C1997 1.399 . S
C1993 C1992 1.399 . S
C1993 C1994 1.376 . S
C1994 H1981 0.930 . S
C1994 C1993 1.376 . S
C1994 C1995 1.388 . S
C1995 H1982 0.930 . S
C1995 C1994 1.388 . S
C1995 C1996 1.390 . S
C1996 C1995 1.390 . S
C1996 C1997 1.394 . S
C1996 C2002 1.465 . S
C1997 C1992 1.399 . S
C1997 C1996 1.394 . S
C1997 C1998 1.516 . S
C1998 C1997 1.516 . S
C1998 C1999 1.502 . S
C1998 C2000 1.561 . S
C1998 C2001 1.526 . S
C1999 H1983 0.959 . S
C1999 H1984 0.959 . S
C1999 H1985 0.961 . S
C1999 C1998 1.502 . S
C2000 H1986 0.960 . S
C2000 H1987 0.961 . S
C2000 H1988 0.959 . S
C2000 C1998 1.561 . S
C2001 C1998 1.526 . S
C2001 C2002 1.396 . S
C2001 C2006 1.390 . S
C2002 C1996 1.465 . S
C2002 C2001 1.396 . S
C2002 C2003 1.399 . S
C2003 H1989 0.929 . S
C2003 C2002 1.399 . S
C2003 C2004 1.385 . S
C2004 H1990 0.931 . S
C2004 C2003 1.385 . S
C2004 C2005 1.389 . S
C2005 C2004 1.389 . S
C2005 C2006 1.387 . S
C2006 H1991 0.930 . S
C2006 C2001 1.390 . S
C2006 C2005 1.387 . S
H2007 C2019 0.930 . S
H2008 C2021 0.930 . S
H2009 C2022 0.930 . S
H2010 C2026 0.959 . S
H2011 C2026 0.959 . S
H2012 C2026 0.961 . S
H2013 C2027 0.960 . S
H2014 C2027 0.961 . S
H2015 C2027 0.959 . S
H2016 C2030 0.929 . S
H2017 C2031 0.931 . S
H2018 C2033 0.930 . S
C2019 H2007 0.930 . S
C2019 C2020 1.399 . S
C2019 C2024 1.399 . S
C2020 C2019 1.399 . S
C2020 C2021 1.376 . S
C2021 H2008 0.930 . S
C2021 C2020 1.376 . S
C2021 C2022 1.388 . S
C2022 H2009 0.930 . S
C2022 C2021 1.388 . S
C2022 C2023 1.390 . S
C2023 C2022 1.390 . S
C2023 C2024 1.394 . S
C2023 C2029 1.465 . S
C2024 C2019 1.399 . S
C2024 C2023 1.394 . S
C2024 C2025 1.516 . S
C2025 C2024 1.516 . S
C2025 C2026 1.502 . S
C2025 C2027 1.561 . S
C2025 C2028 1.526 . S
C2026 H2010 0.959 . S
C2026 H2011 0.959 . S
C2026 H2012 0.961 . S
C2026 C2025 1.502 . S
C2027 H2013 0.960 . S
C2027 H2014 0.961 . S
C2027 H2015 0.959 . S
C2027 C2025 1.561 . S
C2028 C2025 1.526 . S
C2028 C2029 1.396 . S
C2028 C2033 1.390 . S
C2029 C2023 1.465 . S
C2029 C2028 1.396 . S
C2029 C2030 1.399 . S
C2030 H2016 0.929 . S
C2030 C2029 1.399 . S
C2030 C2031 1.385 . S
C2031 H2017 0.931 . S
C2031 C2030 1.385 . S
C2031 C2032 1.389 . S
C2032 C2031 1.389 . S
C2032 C2033 1.387 . S
C2033 H2018 0.930 . S
C2033 C2028 1.390 . S
C2033 C2032 1.387 . S
H2034 C2046 0.930 . S
H2035 C2048 0.930 . S
H2036 C2049 0.930 . S
H2037 C2053 0.959 . S
H2038 C2053 0.959 . S
H2039 C2053 0.961 . S
H2040 C2054 0.960 . S
H2041 C2054 0.961 . S
H2042 C2054 0.959 . S
H2043 C2057 0.929 . S
H2044 C2058 0.931 . S
H2045 C2060 0.930 . S
C2046 H2034 0.930 . S
C2046 C2047 1.399 . S
C2046 C2051 1.399 . S
C2047 C2046 1.399 . S
C2047 C2048 1.376 . S
C2048 H2035 0.930 . S
C2048 C2047 1.376 . S
C2048 C2049 1.388 . S
C2049 H2036 0.930 . S
C2049 C2048 1.388 . S
C2049 C2050 1.390 . S
C2050 C2049 1.390 . S
C2050 C2051 1.394 . S
C2050 C2056 1.465 1_655 S
C2051 C2046 1.399 . S
C2051 C2050 1.394 . S
C2051 C2052 1.516 1_655 S
C2052 C2051 1.516 1_455 S
C2052 C2053 1.502 . S
C2052 C2054 1.561 1_455 S
C2052 C2055 1.526 . S
C2053 H2037 0.959 . S
C2053 H2038 0.959 . S
C2053 H2039 0.961 . S
C2053 C2052 1.502 . S
C2054 H2040 0.960 . S
C2054 H2041 0.961 . S
C2054 H2042 0.959 . S
C2054 C2052 1.561 1_655 S
C2055 C2052 1.526 . S
C2055 C2056 1.396 . S
C2055 C2060 1.390 . S
C2056 C2050 1.465 1_455 S
C2056 C2055 1.396 . S
C2056 C2057 1.399 . S
C2057 H2043 0.929 . S
C2057 C2056 1.399 . S
C2057 C2058 1.385 . S
C2058 H2044 0.931 . S
C2058 C2057 1.385 . S
C2058 C2059 1.389 . S
C2059 C2058 1.389 . S
C2059 C2060 1.387 . S
C2060 H2045 0.930 . S
C2060 C2055 1.390 . S
C2060 C2059 1.387 . S
H2061 C2073 0.930 . S
H2062 C2075 0.930 . S
H2063 C2076 0.930 . S
H2064 C2080 0.959 . S
H2065 C2080 0.959 . S
H2066 C2080 0.961 . S
H2067 C2081 0.960 . S
H2068 C2081 0.961 . S
H2069 C2081 0.959 . S
H2070 C2084 0.929 . S
H2071 C2085 0.931 . S
H2072 C2087 0.930 . S
C2073 H2061 0.930 . S
C2073 C2074 1.399 . S
C2073 C2078 1.399 . S
C2074 C2073 1.399 . S
C2074 C2075 1.376 . S
C2075 H2062 0.930 . S
C2075 C2074 1.376 . S
C2075 C2076 1.388 . S
C2076 H2063 0.930 . S
C2076 C2075 1.388 . S
C2076 C2077 1.390 . S
C2077 C2076 1.390 . S
C2077 C2078 1.394 . S
C2077 C2083 1.465 . S
C2078 C2073 1.399 . S
C2078 C2077 1.394 . S
C2078 C2079 1.516 . S
C2079 C2078 1.516 . S
C2079 C2080 1.502 . S
C2079 C2081 1.561 . S
C2079 C2082 1.526 . S
C2080 H2064 0.959 . S
C2080 H2065 0.959 . S
C2080 H2066 0.961 . S
C2080 C2079 1.502 . S
C2081 H2067 0.960 . S
C2081 H2068 0.961 . S
C2081 H2069 0.959 . S
C2081 C2079 1.561 . S
C2082 C2079 1.526 . S
C2082 C2083 1.396 . S
C2082 C2087 1.390 . S
C2083 C2077 1.465 . S
C2083 C2082 1.396 . S
C2083 C2084 1.399 . S
C2084 H2070 0.929 . S
C2084 C2083 1.399 . S
C2084 C2085 1.385 . S
C2085 H2071 0.931 . S
C2085 C2084 1.385 . S
C2085 C2086 1.389 . S
C2086 C2085 1.389 . S
C2086 C2087 1.387 . S
C2087 H2072 0.930 . S
C2087 C2082 1.390 . S
C2087 C2086 1.387 . S
H2088 C2100 0.930 . S
H2089 C2102 0.930 . S
H2090 C2103 0.930 . S
H2091 C2107 0.959 . S
H2092 C2107 0.959 . S
H2093 C2107 0.961 . S
H2094 C2108 0.960 . S
H2095 C2108 0.961 . S
H2096 C2108 0.959 . S
H2097 C2111 0.930 1_565 S
H2098 C2112 0.931 . S
H2099 C2114 0.930 . S
C2100 H2088 0.930 . S
C2100 C2101 1.399 . S
C2100 C2105 1.399 . S
C2101 C2100 1.399 . S
C2101 C2102 1.376 . S
C2102 H2089 0.930 . S
C2102 C2101 1.376 . S
C2102 C2103 1.388 . S
C2103 H2090 0.930 . S
C2103 C2102 1.388 . S
C2103 C2104 1.390 . S
C2104 C2103 1.390 . S
C2104 C2105 1.394 . S
C2104 C2110 1.465 1_565 S
C2105 C2100 1.399 . S
C2105 C2104 1.394 . S
C2105 C2106 1.516 1_565 S
C2106 C2105 1.516 1_545 S
C2106 C2107 1.502 . S
C2106 C2108 1.561 . S
C2106 C2109 1.526 . S
C2107 H2091 0.959 . S
C2107 H2092 0.959 . S
C2107 H2093 0.961 . S
C2107 C2106 1.502 . S
C2108 H2094 0.960 . S
C2108 H2095 0.961 . S
C2108 H2096 0.959 . S
C2108 C2106 1.561 . S
C2109 C2106 1.526 . S
C2109 C2110 1.396 . S
C2109 C2114 1.390 . S
C2110 C2104 1.465 1_545 S
C2110 C2109 1.396 . S
C2110 C2111 1.399 . S
C2111 H2097 0.930 1_545 S
C2111 C2110 1.399 . S
C2111 C2112 1.385 . S
C2112 H2098 0.931 . S
C2112 C2111 1.385 . S
C2112 C2113 1.389 . S
C2113 C2112 1.389 . S
C2113 C2114 1.387 . S
C2114 H2099 0.930 . S
C2114 C2109 1.390 . S
C2114 C2113 1.387 . S
H2115 C2127 0.930 . S
H2116 C2129 0.930 . S
H2117 C2130 0.930 . S
H2118 C2134 0.959 . S
H2119 C2134 0.959 . S
H2120 C2134 0.961 . S
H2121 C2135 0.960 . S
H2122 C2135 0.961 . S
H2123 C2135 0.959 . S
H2124 C2138 0.929 . S
H2125 C2139 0.931 . S
H2126 C2141 0.930 . S
C2127 H2115 0.930 . S
C2127 C2128 1.399 1_554 S
C2127 C2132 1.399 . S
C2128 C2127 1.399 1_556 S
C2128 C2129 1.376 . S
C2129 H2116 0.930 . S
C2129 C2128 1.376 . S
C2129 C2130 1.388 . S
C2130 H2117 0.930 . S
C2130 C2129 1.388 . S
C2130 C2131 1.390 . S
C2131 C2130 1.390 . S
C2131 C2132 1.394 1_556 S
C2131 C2137 1.465 1_565 S
C2132 C2127 1.399 . S
C2132 C2131 1.394 1_554 S
C2132 C2133 1.504 1_565 S
C2133 C2132 1.504 1_545 S
C2133 C2134 1.542 . S
C2133 C2135 1.525 1_545 S
C2133 C2136 1.531 . S
C2134 H2118 0.959 . S
C2134 H2119 0.959 . S
C2134 H2120 0.961 . S
C2134 C2133 1.542 . S
C2135 H2121 0.960 . S
C2135 H2122 0.961 . S
C2135 H2123 0.959 . S
C2135 C2133 1.525 1_565 S
C2136 C2133 1.531 . S
C2136 C2137 1.396 1_554 S
C2136 C2141 1.390 . S
C2137 C2131 1.465 1_545 S
C2137 C2136 1.396 1_556 S
C2137 C2138 1.399 . S
C2138 H2124 0.929 . S
C2138 C2137 1.399 . S
C2138 C2139 1.385 . S
C2139 H2125 0.931 . S
C2139 C2138 1.385 . S
C2139 C2140 1.389 1_556 S
C2140 C2139 1.389 1_554 S
C2140 C2141 1.387 . S
C2141 H2126 0.930 . S
C2141 C2136 1.390 . S
C2141 C2140 1.387 . S
H2142 C2154 0.930 . S
H2143 C2156 0.930 . S
H2144 C2157 0.930 . S
H2145 C2161 0.959 . S
H2146 C2161 0.959 . S
H2147 C2161 0.961 . S
H2148 C2162 0.960 1_455 S
H2149 C2162 0.961 . S
H2150 C2162 0.959 1_455 S
H2151 C2165 0.929 1_455 S
H2152 C2166 0.931 . S
H2153 C2168 0.930 . S
C2154 H2142 0.930 . S
C2154 C2155 1.399 1_554 S
C2154 C2159 1.399 . S
C2155 C2154 1.399 1_556 S
C2155 C2156 1.376 . S
C2156 H2143 0.930 . S
C2156 C2155 1.376 . S
C2156 C2157 1.388 . S
C2157 H2144 0.930 . S
C2157 C2156 1.388 . S
C2157 C2158 1.390 . S
C2158 C2157 1.390 . S
C2158 C2159 1.394 1_556 S
C2158 C2164 1.465 1_455 S
C2159 C2154 1.399 . S
C2159 C2158 1.394 1_554 S
C2159 C2160 1.516 1_455 S
C2160 C2159 1.516 1_655 S
C2160 C2161 1.502 . S
C2160 C2162 1.561 . S
C2160 C2163 1.526 . S
C2161 H2145 0.959 . S
C2161 H2146 0.959 . S
C2161 H2147 0.961 . S
C2161 C2160 1.502 . S
C2162 H2148 0.960 1_655 S
C2162 H2149 0.961 . S
C2162 H2150 0.959 1_655 S
C2162 C2160 1.561 . S
C2163 C2160 1.526 . S
C2163 C2164 1.396 1_554 S
C2163 C2168 1.390 . S
C2164 C2158 1.465 1_655 S
C2164 C2163 1.396 1_556 S
C2164 C2165 1.399 . S
C2165 H2151 0.929 1_655 S
C2165 C2164 1.399 . S
C2165 C2166 1.385 . S
C2166 H2152 0.931 . S
C2166 C2165 1.385 . S
C2166 C2167 1.389 1_556 S
C2167 C2166 1.389 1_554 S
C2167 C2168 1.387 . S
C2168 H2153 0.930 . S
C2168 C2163 1.390 . S
C2168 C2167 1.387 . S
H2169 C2181 0.930 . S
H2170 C2183 0.930 . S
H2171 C2184 0.930 . S
H2172 C2188 0.959 . S
H2173 C2188 0.959 . S
H2174 C2188 0.961 . S
H2175 C2189 0.960 . S
H2176 C2189 0.961 . S
H2177 C2189 0.959 . S
H2178 C2192 0.929 . S
H2179 C2193 0.931 . S
H2180 C2195 0.930 . S
C2181 H2169 0.930 . S
C2181 C2182 1.399 . S
C2181 C2186 1.399 . S
C2182 C2181 1.399 . S
C2182 C2183 1.376 1_556 S
C2183 H2170 0.930 . S
C2183 C2182 1.376 1_554 S
C2183 C2184 1.388 . S
C2184 H2171 0.930 . S
C2184 C2183 1.388 . S
C2184 C2185 1.390 . S
C2185 C2184 1.390 . S
C2185 C2186 1.394 1_554 S
C2185 C2191 1.465 . S
C2186 C2181 1.399 . S
C2186 C2185 1.394 1_556 S
C2186 C2187 1.516 . S
C2187 C2186 1.516 . S
C2187 C2188 1.502 . S
C2187 C2189 1.561 . S
C2187 C2190 1.526 . S
C2188 H2172 0.959 . S
C2188 H2173 0.959 . S
C2188 H2174 0.961 . S
C2188 C2187 1.502 . S
C2189 H2175 0.960 . S
C2189 H2176 0.961 . S
C2189 H2177 0.959 . S
C2189 C2187 1.561 . S
C2190 C2187 1.526 . S
C2190 C2191 1.396 1_556 S
C2190 C2195 1.390 . S
C2191 C2185 1.465 . S
C2191 C2190 1.396 1_554 S
C2191 C2192 1.399 . S
C2192 H2178 0.929 . S
C2192 C2191 1.399 . S
C2192 C2193 1.385 . S
C2193 H2179 0.931 . S
C2193 C2192 1.385 . S
C2193 C2194 1.389 . S
C2194 C2193 1.389 . S
C2194 C2195 1.387 1_554 S
C2195 H2180 0.930 . S
C2195 C2190 1.390 . S
C2195 C2194 1.387 1_556 S
H2196 C2208 0.930 . S
H2197 C2210 0.930 . S
H2198 C2211 0.924 1_556 S
H2199 C2215 0.959 1_554 S
H2200 C2215 0.959 . S
H2201 C2215 0.961 1_554 S
H2202 C2216 0.960 . S
H2203 C2216 0.961 . S
H2204 C2216 0.959 . S
H2205 C2219 0.929 . S
H2206 C2220 0.931 . S
H2207 C2222 0.930 . S
C2208 H2196 0.930 . S
C2208 C2209 1.399 . S
C2208 C2213 1.399 . S
C2209 C2208 1.399 . S
C2209 C2210 1.376 . S
C2210 H2197 0.930 . S
C2210 C2209 1.376 . S
C2210 C2211 1.388 . S
C2211 H2198 0.924 1_554 S
C2211 C2210 1.388 . S
C2211 C2212 1.390 1_554 S
C2212 C2211 1.390 1_556 S
C2212 C2213 1.394 1_556 S
C2212 C2218 1.465 . S
C2213 C2208 1.399 . S
C2213 C2212 1.394 1_554 S
C2213 C2214 1.516 1_554 S
C2214 C2213 1.516 1_556 S
C2214 C2215 1.502 . S
C2214 C2216 1.561 . S
C2214 C2217 1.526 . S
C2215 H2199 0.959 1_556 S
C2215 H2200 0.959 . S
C2215 H2201 0.961 1_556 S
C2215 C2214 1.502 . S
C2216 H2202 0.960 . S
C2216 H2203 0.961 . S
C2216 H2204 0.959 . S
C2216 C2214 1.561 . S
C2217 C2214 1.526 . S
C2217 C2218 1.396 . S
C2217 C2222 1.390 . S
C2218 C2212 1.465 . S
C2218 C2217 1.396 . S
C2218 C2219 1.399 . S
C2219 H2205 0.929 . S
C2219 C2218 1.399 . S
C2219 C2220 1.385 . S
C2220 H2206 0.931 . S
C2220 C2219 1.385 . S
C2220 C2221 1.389 . S
C2221 C2220 1.389 . S
C2221 C2222 1.387 . S
C2222 H2207 0.930 . S
C2222 C2217 1.390 . S
C2222 C2221 1.387 . S
H2223 C2235 0.930 . S
H2224 C2237 0.930 . S
H2225 C2238 0.930 . S
H2226 C2242 0.959 . S
H2227 C2242 0.959 . S
H2228 C2242 0.961 . S
H2229 C2243 0.960 . S
H2230 C2243 0.961 . S
H2231 C2243 0.959 . S
H2232 C2246 0.929 . S
H2233 C2247 0.931 . S
H2234 C2249 0.930 . S
C2235 H2223 0.930 . S
C2235 C2236 1.399 . S
C2235 C2240 1.399 1_554 S
C2236 C2235 1.399 . S
C2236 C2237 1.376 . S
C2237 H2224 0.930 . S
C2237 C2236 1.376 . S
C2237 C2238 1.388 . S
C2238 H2225 0.930 . S
C2238 C2237 1.388 . S
C2238 C2239 1.391 1_554 S
C2239 C2238 1.391 1_556 S
C2239 C2240 1.394 . S
C2239 C2245 1.464 . S
C2240 C2235 1.399 1_556 S
C2240 C2239 1.394 . S
C2240 C2241 1.516 . S
C2241 C2240 1.516 . S
C2241 C2242 1.502 . S
C2241 C2243 1.561 . S
C2241 C2244 1.526 . S
C2242 H2226 0.959 . S
C2242 H2227 0.959 . S
C2242 H2228 0.961 . S
C2242 C2241 1.502 . S
C2243 H2229 0.960 . S
C2243 H2230 0.961 . S
C2243 H2231 0.959 . S
C2243 C2241 1.561 . S
C2244 C2241 1.526 . S
C2244 C2245 1.396 . S
C2244 C2249 1.390 . S
C2245 C2239 1.464 . S
C2245 C2244 1.396 . S
C2245 C2246 1.399 . S
C2246 H2232 0.929 . S
C2246 C2245 1.399 . S
C2246 C2247 1.385 . S
C2247 H2233 0.931 . S
C2247 C2246 1.385 . S
C2247 C2248 1.389 . S
C2248 C2247 1.389 . S
C2248 C2249 1.387 . S
C2249 H2234 0.930 . S
C2249 C2244 1.390 . S
C2249 C2248 1.387 . S
H2250 C2262 0.930 . S
H2251 C2264 0.930 . S
H2252 C2265 0.930 . S
H2253 C2269 0.959 . S
H2254 C2269 0.959 . S
H2255 C2269 0.961 . S
H2256 C2270 0.960 . S
H2257 C2270 0.961 . S
H2258 C2270 0.959 . S
H2259 C2273 0.929 . S
H2260 C2274 0.931 . S
H2261 C2276 0.930 . S
C2262 H2250 0.930 . S
C2262 C2263 1.399 . S
C2262 C2267 1.399 . S
C2263 C2262 1.399 . S
C2263 C2264 1.376 . S
C2264 H2251 0.930 . S
C2264 C2263 1.376 . S
C2264 C2265 1.388 . S
C2265 H2252 0.930 . S
C2265 C2264 1.388 . S
C2265 C2266 1.390 . S
C2266 C2265 1.390 . S
C2266 C2267 1.394 . S
C2266 C2272 1.465 1_556 S
C2267 C2262 1.399 . S
C2267 C2266 1.394 . S
C2267 C2268 1.516 . S
C2268 C2267 1.516 . S
C2268 C2269 1.502 . S
C2268 C2270 1.561 . S
C2268 C2271 1.526 1_556 S
C2269 H2253 0.959 . S
C2269 H2254 0.959 . S
C2269 H2255 0.961 . S
C2269 C2268 1.502 . S
C2270 H2256 0.960 . S
C2270 H2257 0.961 . S
C2270 H2258 0.959 . S
C2270 C2268 1.561 . S
C2271 C2268 1.526 1_554 S
C2271 C2272 1.396 . S
C2271 C2276 1.390 . S
C2272 C2266 1.465 1_554 S
C2272 C2271 1.396 . S
C2272 C2273 1.399 . S
C2273 H2259 0.929 . S
C2273 C2272 1.399 . S
C2273 C2274 1.385 . S
C2274 H2260 0.931 . S
C2274 C2273 1.385 . S
C2274 C2275 1.389 . S
C2275 C2274 1.389 . S
C2275 C2276 1.387 . S
C2276 H2261 0.930 . S
C2276 C2271 1.390 . S
C2276 C2275 1.387 . S
H2277 C2289 0.930 . S
H2278 C2291 0.930 . S
H2279 C2292 0.930 . S
H2280 C2296 0.959 . S
H2281 C2296 0.959 . S
H2282 C2296 0.961 . S
H2283 C2297 0.960 . S
H2284 C2297 0.961 . S
H2285 C2297 0.959 . S
H2286 C2300 0.929 . S
H2287 C2301 0.931 . S
H2288 C2303 0.930 . S
C2289 H2277 0.930 . S
C2289 C2290 1.399 . S
C2289 C2294 1.399 . S
C2290 C2289 1.399 . S
C2290 C2291 1.376 . S
C2291 H2278 0.930 . S
C2291 C2290 1.376 . S
C2291 C2292 1.388 . S
C2292 H2279 0.930 . S
C2292 C2291 1.388 . S
C2292 C2293 1.390 . S
C2293 C2292 1.390 . S
C2293 C2294 1.394 . S
C2293 C2299 1.465 . S
C2294 C2289 1.399 . S
C2294 C2293 1.394 . S
C2294 C2295 1.516 . S
C2295 C2294 1.516 . S
C2295 C2296 1.502 . S
C2295 C2297 1.561 . S
C2295 C2298 1.526 . S
C2296 H2280 0.959 . S
C2296 H2281 0.959 . S
C2296 H2282 0.961 . S
C2296 C2295 1.502 . S
C2297 H2283 0.960 . S
C2297 H2284 0.961 . S
C2297 H2285 0.959 . S
C2297 C2295 1.561 . S
C2298 C2295 1.526 . S
C2298 C2299 1.396 . S
C2298 C2303 1.390 . S
C2299 C2293 1.465 . S
C2299 C2298 1.396 . S
C2299 C2300 1.399 . S
C2300 H2286 0.929 . S
C2300 C2299 1.399 . S
C2300 C2301 1.385 . S
C2301 H2287 0.931 . S
C2301 C2300 1.385 . S
C2301 C2302 1.389 . S
C2302 C2301 1.389 . S
C2302 C2303 1.387 . S
C2303 H2288 0.930 . S
C2303 C2298 1.390 . S
C2303 C2302 1.387 . S
H2304 C2316 0.930 . S
H2305 C2318 0.930 . S
H2306 C2319 0.930 . S
H2307 C2323 0.959 . S
H2308 C2323 0.959 . S
H2309 C2323 0.961 . S
H2310 C2324 0.960 . S
H2311 C2324 0.961 . S
H2312 C2324 0.959 . S
H2313 C2327 0.929 . S
H2314 C2328 0.931 . S
H2315 C2330 0.930 . S
C2316 H2304 0.930 . S
C2316 C2317 1.399 . S
C2316 C2321 1.399 . S
C2317 C2316 1.399 . S
C2317 C2318 1.376 . S
C2318 H2305 0.930 . S
C2318 C2317 1.376 . S
C2318 C2319 1.388 . S
C2319 H2306 0.930 . S
C2319 C2318 1.388 . S
C2319 C2320 1.390 . S
C2320 C2319 1.390 . S
C2320 C2321 1.394 . S
C2320 C2326 1.465 . S
C2321 C2316 1.399 . S
C2321 C2320 1.394 . S
C2321 C2322 1.516 . S
C2322 C2321 1.516 . S
C2322 C2323 1.502 . S
C2322 C2324 1.561 . S
C2322 C2325 1.526 . S
C2323 H2307 0.959 . S
C2323 H2308 0.959 . S
C2323 H2309 0.961 . S
C2323 C2322 1.502 . S
C2324 H2310 0.960 . S
C2324 H2311 0.961 . S
C2324 H2312 0.959 . S
C2324 C2322 1.561 . S
C2325 C2322 1.526 . S
C2325 C2326 1.396 . S
C2325 C2330 1.390 . S
C2326 C2320 1.465 . S
C2326 C2325 1.396 . S
C2326 C2327 1.399 . S
C2327 H2313 0.929 . S
C2327 C2326 1.399 . S
C2327 C2328 1.385 . S
C2328 H2314 0.931 . S
C2328 C2327 1.385 . S
C2328 C2329 1.389 . S
C2329 C2328 1.389 . S
C2329 C2330 1.387 . S
C2330 H2315 0.930 . S
C2330 C2325 1.390 . S
C2330 C2329 1.387 . S
H2331 C2343 0.930 . S
H2332 C2345 0.930 . S
H2333 C2346 0.930 . S
H2334 C2350 0.959 . S
H2335 C2350 0.959 . S
H2336 C2350 0.961 . S
H2337 C2351 0.960 . S
H2338 C2351 0.961 . S
H2339 C2351 0.959 . S
H2340 C2354 0.929 . S
H2341 C2355 0.931 . S
H2342 C2357 0.930 . S
C2343 H2331 0.930 . S
C2343 C2344 1.399 . S
C2343 C2348 1.399 . S
C2344 C2343 1.399 . S
C2344 C2345 1.376 . S
C2345 H2332 0.930 . S
C2345 C2344 1.376 . S
C2345 C2346 1.388 . S
C2346 H2333 0.930 . S
C2346 C2345 1.388 . S
C2346 C2347 1.390 . S
C2347 C2346 1.390 . S
C2347 C2348 1.394 . S
C2347 C2353 1.465 . S
C2348 C2343 1.399 . S
C2348 C2347 1.394 . S
C2348 C2349 1.516 . S
C2349 C2348 1.516 . S
C2349 C2350 1.502 . S
C2349 C2351 1.561 . S
C2349 C2352 1.526 . S
C2350 H2334 0.959 . S
C2350 H2335 0.959 . S
C2350 H2336 0.961 . S
C2350 C2349 1.502 . S
C2351 H2337 0.960 . S
C2351 H2338 0.961 . S
C2351 H2339 0.959 . S
C2351 C2349 1.561 . S
C2352 C2349 1.526 . S
C2352 C2353 1.396 . S
C2352 C2357 1.390 . S
C2353 C2347 1.465 . S
C2353 C2352 1.396 . S
C2353 C2354 1.399 . S
C2354 H2340 0.929 . S
C2354 C2353 1.399 . S
C2354 C2355 1.385 . S
C2355 H2341 0.931 . S
C2355 C2354 1.385 . S
C2355 C2356 1.389 . S
C2356 C2355 1.389 . S
C2356 C2357 1.387 . S
C2357 H2342 0.930 . S
C2357 C2352 1.390 . S
C2357 C2356 1.387 . S
H2358 C2370 0.930 . S
H2359 C2372 0.930 . S
H2360 C2373 0.930 . S
H2361 C2377 0.959 . S
H2362 C2377 0.959 . S
H2363 C2377 0.961 . S
H2364 C2378 0.960 . S
H2365 C2378 0.961 . S
H2366 C2378 0.959 . S
H2367 C2381 0.929 . S
H2368 C2382 0.931 . S
H2369 C2384 0.930 . S
C2370 H2358 0.930 . S
C2370 C2371 1.399 . S
C2370 C2375 1.399 . S
C2371 C2370 1.399 . S
C2371 C2372 1.376 . S
C2372 H2359 0.930 . S
C2372 C2371 1.376 . S
C2372 C2373 1.388 . S
C2373 H2360 0.930 . S
C2373 C2372 1.388 . S
C2373 C2374 1.390 . S
C2374 C2373 1.390 . S
C2374 C2375 1.394 . S
C2374 C2380 1.465 . S
C2375 C2370 1.399 . S
C2375 C2374 1.394 . S
C2375 C2376 1.516 1_554 S
C2376 C2375 1.516 1_556 S
C2376 C2377 1.502 . S
C2376 C2378 1.561 . S
C2376 C2379 1.526 . S
C2377 H2361 0.959 . S
C2377 H2362 0.959 . S
C2377 H2363 0.961 . S
C2377 C2376 1.502 . S
C2378 H2364 0.960 . S
C2378 H2365 0.961 . S
C2378 H2366 0.959 . S
C2378 C2376 1.561 . S
C2379 C2376 1.526 . S
C2379 C2380 1.396 1_556 S
C2379 C2384 1.390 . S
C2380 C2374 1.465 . S
C2380 C2379 1.396 1_554 S
C2380 C2381 1.399 . S
C2381 H2367 0.929 . S
C2381 C2380 1.399 . S
C2381 C2382 1.385 1_554 S
C2382 H2368 0.931 . S
C2382 C2381 1.385 1_556 S
C2382 C2383 1.389 . S
C2383 C2382 1.389 . S
C2383 C2384 1.387 . S
C2384 H2369 0.930 . S
C2384 C2379 1.390 . S
C2384 C2383 1.387 . S
H2385 C2397 0.930 . S
H2386 C2399 0.930 . S
H2387 C2400 0.930 . S
H2388 C2404 0.959 . S
H2389 C2404 0.959 . S
H2390 C2404 0.961 . S
H2391 C2405 0.960 1_554 S
H2392 C2405 0.961 . S
H2393 C2405 0.959 . S
H2394 C2408 0.929 . S
H2395 C2409 0.931 . S
H2396 C2411 0.930 . S
C2397 H2385 0.930 . S
C2397 C2398 1.399 . S
C2397 C2402 1.399 . S
C2398 C2397 1.399 . S
C2398 C2399 1.376 . S
C2399 H2386 0.930 . S
C2399 C2398 1.376 . S
C2399 C2400 1.388 . S
C2400 H2387 0.930 . S
C2400 C2399 1.388 . S
C2400 C2401 1.390 . S
C2401 C2400 1.390 . S
C2401 C2402 1.394 . S
C2401 C2407 1.465 . S
C2402 C2397 1.399 . S
C2402 C2401 1.394 . S
C2402 C2403 1.516 . S
C2403 C2402 1.516 . S
C2403 C2404 1.502 . S
C2403 C2405 1.561 1_554 S
C2403 C2406 1.526 1_554 S
C2404 H2388 0.959 . S
C2404 H2389 0.959 . S
C2404 H2390 0.961 . S
C2404 C2403 1.502 . S
C2405 H2391 0.960 1_556 S
C2405 H2392 0.961 . S
C2405 H2393 0.959 . S
C2405 C2403 1.561 1_556 S
C2406 C2403 1.526 1_556 S
C2406 C2407 1.396 1_556 S
C2406 C2411 1.390 . S
C2407 C2401 1.465 . S
C2407 C2406 1.396 1_554 S
C2407 C2408 1.399 1_554 S
C2408 H2394 0.929 . S
C2408 C2407 1.399 1_556 S
C2408 C2409 1.385 . S
C2409 H2395 0.931 . S
C2409 C2408 1.385 . S
C2409 C2410 1.389 . S
C2410 C2409 1.389 . S
C2410 C2411 1.387 . S
C2411 H2396 0.930 . S
C2411 C2406 1.390 . S
C2411 C2410 1.387 . S
H2412 C2424 0.930 . S
H2413 C2426 0.930 . S
H2414 C2427 0.930 . S
H2415 C2431 0.959 . S
H2416 C2431 0.959 . S
H2417 C2431 0.961 . S
H2418 C2432 0.960 . S
H2419 C2432 0.961 . S
H2420 C2432 0.959 . S
H2421 C2435 0.929 . S
H2422 C2436 0.931 . S
H2423 C2438 0.930 . S
C2424 H2412 0.930 . S
C2424 C2425 1.399 . S
C2424 C2429 1.399 . S
C2425 C2424 1.399 . S
C2425 C2426 1.376 . S
C2426 H2413 0.930 . S
C2426 C2425 1.376 . S
C2426 C2427 1.388 . S
C2427 H2414 0.930 . S
C2427 C2426 1.388 . S
C2427 C2428 1.390 . S
C2428 C2427 1.390 . S
C2428 C2429 1.394 . S
C2428 C2434 1.465 1_556 S
C2429 C2424 1.399 . S
C2429 C2428 1.394 . S
C2429 C2430 1.516 1_556 S
C2430 C2429 1.516 1_554 S
C2430 C2431 1.502 . S
C2430 C2432 1.561 . S
C2430 C2433 1.526 . S
C2431 H2415 0.959 . S
C2431 H2416 0.959 . S
C2431 H2417 0.961 . S
C2431 C2430 1.502 . S
C2432 H2418 0.960 . S
C2432 H2419 0.961 . S
C2432 H2420 0.959 . S
C2432 C2430 1.561 . S
C2433 C2430 1.526 . S
C2433 C2434 1.396 . S
C2433 C2438 1.390 . S
C2434 C2428 1.465 1_554 S
C2434 C2433 1.396 . S
C2434 C2435 1.399 . S
C2435 H2421 0.929 . S
C2435 C2434 1.399 . S
C2435 C2436 1.385 . S
C2436 H2422 0.931 . S
C2436 C2435 1.385 . S
C2436 C2437 1.389 . S
C2437 C2436 1.389 . S
C2437 C2438 1.387 . S
C2438 H2423 0.930 . S
C2438 C2433 1.390 . S
C2438 C2437 1.387 . S
H2439 C2451 0.930 . S
H2440 C2453 0.930 . S
H2441 C2454 0.930 . S
H2442 C2458 0.959 . S
H2443 C2458 0.959 . S
H2444 C2458 0.961 . S
H2445 C2459 0.960 . S
H2446 C2459 0.961 . S
H2447 C2459 0.959 . S
H2448 C2462 0.929 . S
H2449 C2463 0.931 . S
H2450 C2465 0.930 . S
C2451 H2439 0.930 . S
C2451 C2452 1.399 . S
C2451 C2456 1.399 . S
C2452 C2451 1.399 . S
C2452 C2453 1.376 . S
C2453 H2440 0.930 . S
C2453 C2452 1.376 . S
C2453 C2454 1.388 . S
C2454 H2441 0.930 . S
C2454 C2453 1.388 . S
C2454 C2455 1.390 . S
C2455 C2454 1.390 . S
C2455 C2456 1.394 . S
C2455 C2461 1.465 . S
C2456 C2451 1.399 . S
C2456 C2455 1.394 . S
C2456 C2457 1.516 . S
C2457 C2456 1.516 . S
C2457 C2458 1.502 . S
C2457 C2459 1.561 . S
C2457 C2460 1.526 . S
C2458 H2442 0.959 . S
C2458 H2443 0.959 . S
C2458 H2444 0.961 . S
C2458 C2457 1.502 . S
C2459 H2445 0.960 . S
C2459 H2446 0.961 . S
C2459 H2447 0.959 . S
C2459 C2457 1.561 . S
C2460 C2457 1.526 . S
C2460 C2461 1.396 . S
C2460 C2465 1.390 . S
C2461 C2455 1.465 . S
C2461 C2460 1.396 . S
C2461 C2462 1.399 . S
C2462 H2448 0.929 . S
C2462 C2461 1.399 . S
C2462 C2463 1.385 . S
C2463 H2449 0.931 . S
C2463 C2462 1.385 . S
C2463 C2464 1.389 . S
C2464 C2463 1.389 . S
C2464 C2465 1.387 . S
C2465 H2450 0.930 . S
C2465 C2460 1.390 . S
C2465 C2464 1.387 . S
H2466 C2478 0.930 . S
H2467 C2480 0.930 . S
H2468 C2481 0.930 . S
H2469 C2485 0.959 . S
H2470 C2485 0.959 . S
H2471 C2485 0.961 . S
H2472 C2486 0.960 . S
H2473 C2486 0.961 . S
H2474 C2486 0.959 . S
H2475 C2489 0.929 . S
H2476 C2490 0.931 . S
H2477 C2492 0.930 . S
C2478 H2466 0.930 . S
C2478 C2479 1.399 . S
C2478 C2483 1.399 . S
C2479 C2478 1.399 . S
C2479 C2480 1.376 . S
C2480 H2467 0.930 . S
C2480 C2479 1.376 . S
C2480 C2481 1.388 . S
C2481 H2468 0.930 . S
C2481 C2480 1.388 . S
C2481 C2482 1.390 . S
C2482 C2481 1.390 . S
C2482 C2483 1.394 . S
C2482 C2488 1.465 . S
C2483 C2478 1.399 . S
C2483 C2482 1.394 . S
C2483 C2484 1.516 . S
C2484 C2483 1.516 . S
C2484 C2485 1.502 . S
C2484 C2486 1.561 . S
C2484 C2487 1.526 . S
C2485 H2469 0.959 . S
C2485 H2470 0.959 . S
C2485 H2471 0.961 . S
C2485 C2484 1.502 . S
C2486 H2472 0.960 . S
C2486 H2473 0.961 . S
C2486 H2474 0.959 . S
C2486 C2484 1.561 . S
C2487 C2484 1.526 . S
C2487 C2488 1.396 . S
C2487 C2492 1.390 . S
C2488 C2482 1.465 . S
C2488 C2487 1.396 . S
C2488 C2489 1.399 . S
C2489 H2475 0.929 . S
C2489 C2488 1.399 . S
C2489 C2490 1.385 . S
C2490 H2476 0.931 . S
C2490 C2489 1.385 . S
C2490 C2491 1.389 . S
C2491 C2490 1.389 . S
C2491 C2492 1.387 . S
C2492 H2477 0.930 . S
C2492 C2487 1.390 . S
C2492 C2491 1.387 . S
H2493 C2505 0.930 . S
H2494 C2507 0.930 . S
H2495 C2508 0.930 . S
H2496 C2512 0.959 . S
H2497 C2512 0.959 . S
H2498 C2512 0.961 . S
H2499 C2513 0.960 . S
H2500 C2513 0.961 . S
H2501 C2513 0.959 . S
H2502 C2516 0.929 . S
H2503 C2517 0.931 . S
H2504 C2519 0.930 . S
C2505 H2493 0.930 . S
C2505 C2506 1.399 . S
C2505 C2510 1.399 . S
C2506 C2505 1.399 . S
C2506 C2507 1.376 . S
C2507 H2494 0.930 . S
C2507 C2506 1.376 . S
C2507 C2508 1.388 . S
C2508 H2495 0.930 . S
C2508 C2507 1.388 . S
C2508 C2509 1.390 . S
C2509 C2508 1.390 . S
C2509 C2510 1.394 . S
C2509 C2515 1.465 . S
C2510 C2505 1.399 . S
C2510 C2509 1.394 . S
C2510 C2511 1.516 . S
C2511 C2510 1.516 . S
C2511 C2512 1.502 . S
C2511 C2513 1.561 . S
C2511 C2514 1.526 . S
C2512 H2496 0.959 . S
C2512 H2497 0.959 . S
C2512 H2498 0.961 . S
C2512 C2511 1.502 . S
C2513 H2499 0.960 . S
C2513 H2500 0.961 . S
C2513 H2501 0.959 . S
C2513 C2511 1.561 . S
C2514 C2511 1.526 . S
C2514 C2515 1.396 . S
C2514 C2519 1.390 . S
C2515 C2509 1.465 . S
C2515 C2514 1.396 . S
C2515 C2516 1.399 . S
C2516 H2502 0.929 . S
C2516 C2515 1.399 . S
C2516 C2517 1.385 . S
C2517 H2503 0.931 . S
C2517 C2516 1.385 . S
C2517 C2518 1.389 . S
C2518 C2517 1.389 . S
C2518 C2519 1.387 . S
C2519 H2504 0.930 . S
C2519 C2514 1.390 . S
C2519 C2518 1.387 . S
H2520 C2532 0.930 . S
H2521 C2534 0.930 . S
H2522 C2535 0.930 . S
H2523 C2539 0.959 . S
H2524 C2539 0.959 . S
H2525 C2539 0.961 . S
H2526 C2540 0.960 . S
H2527 C2540 0.961 . S
H2528 C2540 0.959 . S
H2529 C2543 0.929 . S
H2530 C2544 0.931 . S
H2531 C2546 0.930 . S
C2532 H2520 0.930 . S
C2532 C2533 1.399 . S
C2532 C2537 1.399 . S
C2533 C2532 1.399 . S
C2533 C2534 1.376 . S
C2534 H2521 0.930 . S
C2534 C2533 1.376 . S
C2534 C2535 1.388 . S
C2535 H2522 0.930 . S
C2535 C2534 1.388 . S
C2535 C2536 1.390 . S
C2536 C2535 1.390 . S
C2536 C2537 1.394 . S
C2536 C2542 1.465 . S
C2537 C2532 1.399 . S
C2537 C2536 1.394 . S
C2537 C2538 1.516 . S
C2538 C2537 1.516 . S
C2538 C2539 1.502 . S
C2538 C2540 1.561 . S
C2538 C2541 1.526 . S
C2539 H2523 0.959 . S
C2539 H2524 0.959 . S
C2539 H2525 0.961 . S
C2539 C2538 1.502 . S
C2540 H2526 0.960 . S
C2540 H2527 0.961 . S
C2540 H2528 0.959 . S
C2540 C2538 1.561 . S
C2541 C2538 1.526 . S
C2541 C2542 1.396 . S
C2541 C2546 1.390 . S
C2542 C2536 1.465 . S
C2542 C2541 1.396 . S
C2542 C2543 1.399 . S
C2543 H2529 0.929 . S
C2543 C2542 1.399 . S
C2543 C2544 1.385 . S
C2544 H2530 0.931 . S
C2544 C2543 1.385 . S
C2544 C2545 1.389 . S
C2545 C2544 1.389 . S
C2545 C2546 1.387 . S
C2546 H2531 0.930 . S
C2546 C2541 1.390 . S
C2546 C2545 1.387 . S
H2547 C2559 0.930 . S
H2548 C2561 0.930 . S
H2549 C2562 0.930 . S
H2550 C2566 0.959 . S
H2551 C2566 0.959 . S
H2552 C2566 0.961 . S
H2553 C2567 0.960 . S
H2554 C2567 0.961 . S
H2555 C2567 0.959 . S
H2556 C2570 0.929 . S
H2557 C2571 0.931 . S
H2558 C2573 0.930 . S
C2559 H2547 0.930 . S
C2559 C2560 1.399 . S
C2559 C2564 1.399 . S
C2560 C2559 1.399 . S
C2560 C2561 1.376 . S
C2561 H2548 0.930 . S
C2561 C2560 1.376 . S
C2561 C2562 1.388 . S
C2562 H2549 0.930 . S
C2562 C2561 1.388 . S
C2562 C2563 1.390 . S
C2563 C2562 1.390 . S
C2563 C2564 1.394 . S
C2563 C2569 1.465 . S
C2564 C2559 1.399 . S
C2564 C2563 1.394 . S
C2564 C2565 1.516 . S
C2565 C2564 1.516 . S
C2565 C2566 1.502 . S
C2565 C2567 1.561 . S
C2565 C2568 1.526 . S
C2566 H2550 0.959 . S
C2566 H2551 0.959 . S
C2566 H2552 0.961 . S
C2566 C2565 1.502 . S
C2567 H2553 0.960 . S
C2567 H2554 0.961 . S
C2567 H2555 0.959 . S
C2567 C2565 1.561 . S
C2568 C2565 1.526 . S
C2568 C2569 1.396 . S
C2568 C2573 1.390 . S
C2569 C2563 1.465 . S
C2569 C2568 1.396 . S
C2569 C2570 1.399 . S
C2570 H2556 0.929 . S
C2570 C2569 1.399 . S
C2570 C2571 1.385 . S
C2571 H2557 0.931 . S
C2571 C2570 1.385 . S
C2571 C2572 1.389 . S
C2572 C2571 1.389 . S
C2572 C2573 1.387 . S
C2573 H2558 0.930 . S
C2573 C2568 1.390 . S
C2573 C2572 1.387 . S
H2574 C2586 0.930 . S
H2575 C2588 0.930 . S
H2576 C2589 0.930 . S
H2577 C2593 0.959 . S
H2578 C2593 0.959 . S
H2579 C2593 0.961 . S
H2580 C2594 0.960 . S
H2581 C2594 0.961 . S
H2582 C2594 0.959 . S
H2583 C2597 0.929 . S
H2584 C2598 0.931 . S
H2585 C2600 0.930 . S
C2586 H2574 0.930 . S
C2586 C2587 1.399 . S
C2586 C2591 1.399 . S
C2587 C2586 1.399 . S
C2587 C2588 1.376 . S
C2588 H2575 0.930 . S
C2588 C2587 1.376 . S
C2588 C2589 1.388 . S
C2589 H2576 0.930 . S
C2589 C2588 1.388 . S
C2589 C2590 1.390 . S
C2590 C2589 1.390 . S
C2590 C2591 1.394 . S
C2590 C2596 1.465 . S
C2591 C2586 1.399 . S
C2591 C2590 1.394 . S
C2591 C2592 1.516 . S
C2592 C2591 1.516 . S
C2592 C2593 1.502 . S
C2592 C2594 1.561 . S
C2592 C2595 1.526 . S
C2593 H2577 0.959 . S
C2593 H2578 0.959 . S
C2593 H2579 0.961 . S
C2593 C2592 1.502 . S
C2594 H2580 0.960 . S
C2594 H2581 0.961 . S
C2594 H2582 0.959 . S
C2594 C2592 1.561 . S
C2595 C2592 1.526 . S
C2595 C2596 1.396 . S
C2595 C2600 1.390 . S
C2596 C2590 1.465 . S
C2596 C2595 1.396 . S
C2596 C2597 1.399 . S
C2597 H2583 0.929 . S
C2597 C2596 1.399 . S
C2597 C2598 1.385 . S
C2598 H2584 0.931 . S
C2598 C2597 1.385 . S
C2598 C2599 1.389 . S
C2599 C2598 1.389 . S
C2599 C2600 1.387 . S
C2600 H2585 0.930 . S
C2600 C2595 1.390 . S
C2600 C2599 1.387 . S
H2601 C2613 0.930 . S
H2602 C2615 0.930 . S
H2603 C2616 0.930 . S
H2604 C2620 0.959 . S
H2605 C2620 0.959 . S
H2606 C2620 0.961 . S
H2607 C2621 0.960 . S
H2608 C2621 0.961 . S
H2609 C2621 0.959 . S
H2610 C2624 0.929 . S
H2611 C2625 0.931 . S
H2612 C2627 0.930 . S
C2613 H2601 0.930 . S
C2613 C2614 1.399 . S
C2613 C2618 1.399 . S
C2614 C2613 1.399 . S
C2614 C2615 1.376 . S
C2615 H2602 0.930 . S
C2615 C2614 1.376 . S
C2615 C2616 1.388 . S
C2616 H2603 0.930 . S
C2616 C2615 1.388 . S
C2616 C2617 1.390 . S
C2617 C2616 1.390 . S
C2617 C2618 1.394 . S
C2617 C2623 1.465 . S
C2618 C2613 1.399 . S
C2618 C2617 1.394 . S
C2618 C2619 1.516 . S
C2619 C2618 1.516 . S
C2619 C2620 1.502 . S
C2619 C2621 1.561 . S
C2619 C2622 1.526 . S
C2620 H2604 0.959 . S
C2620 H2605 0.959 . S
C2620 H2606 0.961 . S
C2620 C2619 1.502 . S
C2621 H2607 0.960 . S
C2621 H2608 0.961 . S
C2621 H2609 0.959 . S
C2621 C2619 1.561 . S
C2622 C2619 1.526 . S
C2622 C2623 1.396 . S
C2622 C2627 1.390 . S
C2623 C2617 1.465 . S
C2623 C2622 1.396 . S
C2623 C2624 1.399 . S
C2624 H2610 0.929 . S
C2624 C2623 1.399 . S
C2624 C2625 1.385 . S
C2625 H2611 0.931 . S
C2625 C2624 1.385 . S
C2625 C2626 1.389 . S
C2626 C2625 1.389 . S
C2626 C2627 1.387 . S
C2627 H2612 0.930 . S
C2627 C2622 1.390 . S
C2627 C2626 1.387 . S
H2628 C2640 0.930 . S
H2629 C2642 0.930 . S
H2630 C2643 0.930 . S
H2631 C2647 0.959 . S
H2632 C2647 0.959 . S
H2633 C2647 0.961 . S
H2634 C2648 0.960 . S
H2635 C2648 0.961 . S
H2636 C2648 0.959 . S
H2637 C2651 0.929 . S
H2638 C2652 0.931 1_554 S
H2639 C2654 0.930 . S
C2640 H2628 0.930 . S
C2640 C2641 1.399 . S
C2640 C2645 1.399 . S
C2641 C2640 1.399 . S
C2641 C2642 1.376 . S
C2642 H2629 0.930 . S
C2642 C2641 1.376 . S
C2642 C2643 1.388 . S
C2643 H2630 0.930 . S
C2643 C2642 1.388 . S
C2643 C2644 1.390 . S
C2644 C2643 1.390 . S
C2644 C2645 1.394 . S
C2644 C2650 1.465 . S
C2645 C2640 1.399 . S
C2645 C2644 1.394 . S
C2645 C2646 1.516 . S
C2646 C2645 1.516 . S
C2646 C2647 1.502 . S
C2646 C2648 1.561 . S
C2646 C2649 1.526 . S
C2647 H2631 0.959 . S
C2647 H2632 0.959 . S
C2647 H2633 0.961 . S
C2647 C2646 1.502 . S
C2648 H2634 0.960 . S
C2648 H2635 0.961 . S
C2648 H2636 0.959 . S
C2648 C2646 1.561 . S
C2649 C2646 1.526 . S
C2649 C2650 1.396 . S
C2649 C2654 1.390 . S
C2650 C2644 1.465 . S
C2650 C2649 1.396 . S
C2650 C2651 1.399 . S
C2651 H2637 0.929 . S
C2651 C2650 1.399 . S
C2651 C2652 1.385 . S
C2652 H2638 0.931 1_556 S
C2652 C2651 1.385 . S
C2652 C2653 1.389 . S
C2653 C2652 1.389 . S
C2653 C2654 1.387 . S
C2654 H2639 0.930 . S
C2654 C2649 1.390 . S
C2654 C2653 1.387 . S
H2655 C2667 0.930 . S
H2656 C2669 0.930 . S
H2657 C2670 0.930 . S
H2658 C2674 0.959 . S
H2659 C2674 0.959 . S
H2660 C2674 0.961 . S
H2661 C2675 0.960 . S
H2662 C2675 0.961 . S
H2663 C2675 0.959 . S
H2664 C2678 0.929 . S
H2665 C2679 0.931 1_554 S
H2666 C2681 0.930 . S
C2667 H2655 0.930 . S
C2667 C2668 1.399 . S
C2667 C2672 1.399 . S
C2668 C2667 1.399 . S
C2668 C2669 1.376 . S
C2669 H2656 0.930 . S
C2669 C2668 1.376 . S
C2669 C2670 1.388 . S
C2670 H2657 0.930 . S
C2670 C2669 1.388 . S
C2670 C2671 1.390 . S
C2671 C2670 1.390 . S
C2671 C2672 1.394 . S
C2671 C2677 1.465 . S
C2672 C2667 1.399 . S
C2672 C2671 1.394 . S
C2672 C2673 1.516 . S
C2673 C2672 1.516 . S
C2673 C2674 1.502 . S
C2673 C2675 1.561 . S
C2673 C2676 1.526 . S
C2674 H2658 0.959 . S
C2674 H2659 0.959 . S
C2674 H2660 0.961 . S
C2674 C2673 1.502 . S
C2675 H2661 0.960 . S
C2675 H2662 0.961 . S
C2675 H2663 0.959 . S
C2675 C2673 1.561 . S
C2676 C2673 1.526 . S
C2676 C2677 1.396 . S
C2676 C2681 1.390 . S
C2677 C2671 1.465 . S
C2677 C2676 1.396 . S
C2677 C2678 1.399 . S
C2678 H2664 0.929 . S
C2678 C2677 1.399 . S
C2678 C2679 1.385 . S
C2679 H2665 0.931 1_556 S
C2679 C2678 1.385 . S
C2679 C2680 1.389 . S
C2680 C2679 1.389 . S
C2680 C2681 1.387 . S
C2681 H2666 0.930 . S
C2681 C2676 1.390 . S
C2681 C2680 1.387 . S
H2682 C2694 0.930 . S
H2683 C2696 0.930 . S
H2684 C2697 0.930 . S
H2685 C2701 0.959 . S
H2686 C2701 0.959 . S
H2687 C2701 0.961 . S
H2688 C2702 0.960 . S
H2689 C2702 0.961 . S
H2690 C2702 0.959 . S
H2691 C2705 0.929 . S
H2692 C2706 0.931 . S
H2693 C2708 0.930 . S
C2694 H2682 0.930 . S
C2694 C2695 1.399 . S
C2694 C2699 1.399 . S
C2695 C2694 1.399 . S
C2695 C2696 1.376 . S
C2696 H2683 0.930 . S
C2696 C2695 1.376 . S
C2696 C2697 1.388 . S
C2697 H2684 0.930 . S
C2697 C2696 1.388 . S
C2697 C2698 1.390 . S
C2698 C2697 1.390 . S
C2698 C2699 1.394 . S
C2698 C2704 1.465 . S
C2699 C2694 1.399 . S
C2699 C2698 1.394 . S
C2699 C2700 1.516 . S
C2700 C2699 1.516 . S
C2700 C2701 1.502 . S
C2700 C2702 1.561 . S
C2700 C2703 1.526 . S
C2701 H2685 0.959 . S
C2701 H2686 0.959 . S
C2701 H2687 0.961 . S
C2701 C2700 1.502 . S
C2702 H2688 0.960 . S
C2702 H2689 0.961 . S
C2702 H2690 0.959 . S
C2702 C2700 1.561 . S
C2703 C2700 1.526 . S
C2703 C2704 1.396 . S
C2703 C2708 1.390 . S
C2704 C2698 1.465 . S
C2704 C2703 1.396 . S
C2704 C2705 1.399 . S
C2705 H2691 0.929 . S
C2705 C2704 1.399 . S
C2705 C2706 1.385 . S
C2706 H2692 0.931 . S
C2706 C2705 1.385 . S
C2706 C2707 1.389 . S
C2707 C2706 1.389 . S
C2707 C2708 1.387 . S
C2708 H2693 0.930 . S
C2708 C2703 1.390 . S
C2708 C2707 1.387 . S
H2709 C2721 0.930 . S
H2710 C2723 0.930 . S
H2711 C2724 0.930 . S
H2712 C2728 0.959 . S
H2713 C2728 0.959 . S
H2714 C2728 0.961 . S
H2715 C2729 0.960 . S
H2716 C2729 0.961 . S
H2717 C2729 0.959 . S
H2718 C2732 0.929 . S
H2719 C2733 0.931 . S
H2720 C2735 0.930 . S
C2721 H2709 0.930 . S
C2721 C2722 1.399 . S
C2721 C2726 1.399 . S
C2722 C2721 1.399 . S
C2722 C2723 1.376 . S
C2723 H2710 0.930 . S
C2723 C2722 1.376 . S
C2723 C2724 1.388 . S
C2724 H2711 0.930 . S
C2724 C2723 1.388 . S
C2724 C2725 1.390 . S
C2725 C2724 1.390 . S
C2725 C2726 1.394 . S
C2725 C2731 1.465 . S
C2726 C2721 1.399 . S
C2726 C2725 1.394 . S
C2726 C2727 1.516 . S
C2727 C2726 1.516 . S
C2727 C2728 1.502 . S
C2727 C2729 1.561 . S
C2727 C2730 1.526 . S
C2728 H2712 0.959 . S
C2728 H2713 0.959 . S
C2728 H2714 0.961 . S
C2728 C2727 1.502 . S
C2729 H2715 0.960 . S
C2729 H2716 0.961 . S
C2729 H2717 0.959 . S
C2729 C2727 1.561 . S
C2730 C2727 1.526 . S
C2730 C2731 1.396 . S
C2730 C2735 1.390 . S
C2731 C2725 1.465 . S
C2731 C2730 1.396 . S
C2731 C2732 1.399 . S
C2732 H2718 0.929 . S
C2732 C2731 1.399 . S
C2732 C2733 1.385 . S
C2733 H2719 0.931 . S
C2733 C2732 1.385 . S
C2733 C2734 1.389 . S
C2734 C2733 1.389 . S
C2734 C2735 1.387 . S
C2735 H2720 0.930 . S
C2735 C2730 1.390 . S
C2735 C2734 1.387 . S
H2736 C2748 0.930 . S
H2737 C2750 0.930 . S
H2738 C2751 0.930 . S
H2739 C2755 0.959 . S
H2740 C2755 0.959 . S
H2741 C2755 0.961 . S
H2742 C2756 0.960 . S
H2743 C2756 0.961 . S
H2744 C2756 0.959 . S
H2745 C2759 0.929 . S
H2746 C2760 0.931 . S
H2747 C2762 0.930 . S
C2748 H2736 0.930 . S
C2748 C2749 1.399 . S
C2748 C2753 1.399 . S
C2749 C2748 1.399 . S
C2749 C2750 1.376 . S
C2750 H2737 0.930 . S
C2750 C2749 1.376 . S
C2750 C2751 1.388 . S
C2751 H2738 0.930 . S
C2751 C2750 1.388 . S
C2751 C2752 1.390 . S
C2752 C2751 1.390 . S
C2752 C2753 1.394 . S
C2752 C2758 1.465 . S
C2753 C2748 1.399 . S
C2753 C2752 1.394 . S
C2753 C2754 1.516 . S
C2754 C2753 1.516 . S
C2754 C2755 1.502 . S
C2754 C2756 1.561 . S
C2754 C2757 1.526 . S
C2755 H2739 0.959 . S
C2755 H2740 0.959 . S
C2755 H2741 0.961 . S
C2755 C2754 1.502 . S
C2756 H2742 0.960 . S
C2756 H2743 0.961 . S
C2756 H2744 0.959 . S
C2756 C2754 1.561 . S
C2757 C2754 1.526 . S
C2757 C2758 1.396 . S
C2757 C2762 1.390 . S
C2758 C2752 1.465 . S
C2758 C2757 1.396 . S
C2758 C2759 1.399 . S
C2759 H2745 0.929 . S
C2759 C2758 1.399 . S
C2759 C2760 1.385 . S
C2760 H2746 0.931 . S
C2760 C2759 1.385 . S
C2760 C2761 1.389 . S
C2761 C2760 1.389 . S
C2761 C2762 1.387 . S
C2762 H2747 0.930 . S
C2762 C2757 1.390 . S
C2762 C2761 1.387 . S
H2763 C2775 0.930 . S
H2764 C2777 0.930 . S
H2765 C2778 0.930 . S
H2766 C2782 0.959 . S
H2767 C2782 0.959 . S
H2768 C2782 0.961 . S
H2769 C2783 0.960 . S
H2770 C2783 0.961 . S
H2771 C2783 0.959 . S
H2772 C2786 0.929 . S
H2773 C2787 0.931 . S
H2774 C2789 0.930 . S
C2775 H2763 0.930 . S
C2775 C2776 1.399 . S
C2775 C2780 1.399 . S
C2776 C2775 1.399 . S
C2776 C2777 1.376 . S
C2777 H2764 0.930 . S
C2777 C2776 1.376 . S
C2777 C2778 1.388 . S
C2778 H2765 0.930 . S
C2778 C2777 1.388 . S
C2778 C2779 1.390 . S
C2779 C2778 1.390 . S
C2779 C2780 1.394 . S
C2779 C2785 1.465 . S
C2780 C2775 1.399 . S
C2780 C2779 1.394 . S
C2780 C2781 1.516 . S
C2781 C2780 1.516 . S
C2781 C2782 1.502 . S
C2781 C2783 1.561 . S
C2781 C2784 1.526 . S
C2782 H2766 0.959 . S
C2782 H2767 0.959 . S
C2782 H2768 0.961 . S
C2782 C2781 1.502 . S
C2783 H2769 0.960 . S
C2783 H2770 0.961 . S
C2783 H2771 0.959 . S
C2783 C2781 1.561 . S
C2784 C2781 1.526 . S
C2784 C2785 1.396 . S
C2784 C2789 1.390 . S
C2785 C2779 1.465 . S
C2785 C2784 1.396 . S
C2785 C2786 1.399 . S
C2786 H2772 0.929 . S
C2786 C2785 1.399 . S
C2786 C2787 1.385 . S
C2787 H2773 0.931 . S
C2787 C2786 1.385 . S
C2787 C2788 1.389 . S
C2788 C2787 1.389 . S
C2788 C2789 1.387 . S
C2789 H2774 0.930 . S
C2789 C2784 1.390 . S
C2789 C2788 1.387 . S
H2790 C2802 0.930 . S
H2791 C2804 0.930 . S
H2792 C2805 0.930 . S
H2793 C2809 0.959 . S
H2794 C2809 0.959 . S
H2795 C2809 0.961 . S
H2796 C2810 0.960 . S
H2797 C2810 0.961 . S
H2798 C2810 0.959 . S
H2799 C2813 0.929 . S
H2800 C2814 0.931 . S
H2801 C2816 0.930 . S
C2802 H2790 0.930 . S
C2802 C2803 1.399 . S
C2802 C2807 1.399 . S
C2803 C2802 1.399 . S
C2803 C2804 1.376 . S
C2804 H2791 0.930 . S
C2804 C2803 1.376 . S
C2804 C2805 1.388 . S
C2805 H2792 0.930 . S
C2805 C2804 1.388 . S
C2805 C2806 1.390 . S
C2806 C2805 1.390 . S
C2806 C2807 1.394 . S
C2806 C2812 1.465 . S
C2807 C2802 1.399 . S
C2807 C2806 1.394 . S
C2807 C2808 1.516 . S
C2808 C2807 1.516 . S
C2808 C2809 1.502 . S
C2808 C2810 1.561 . S
C2808 C2811 1.526 . S
C2809 H2793 0.959 . S
C2809 H2794 0.959 . S
C2809 H2795 0.961 . S
C2809 C2808 1.502 . S
C2810 H2796 0.960 . S
C2810 H2797 0.961 . S
C2810 H2798 0.959 . S
C2810 C2808 1.561 . S
C2811 C2808 1.526 . S
C2811 C2812 1.396 . S
C2811 C2816 1.390 . S
C2812 C2806 1.465 . S
C2812 C2811 1.396 . S
C2812 C2813 1.399 . S
C2813 H2799 0.929 . S
C2813 C2812 1.399 . S
C2813 C2814 1.385 . S
C2814 H2800 0.931 . S
C2814 C2813 1.385 . S
C2814 C2815 1.389 . S
C2815 C2814 1.389 . S
C2815 C2816 1.387 . S
C2816 H2801 0.930 . S
C2816 C2811 1.390 . S
C2816 C2815 1.387 . S
H2817 C2829 0.930 . S
H2818 C2831 0.930 . S
H2819 C2832 0.930 . S
H2820 C2836 0.959 . S
H2821 C2836 0.959 . S
H2822 C2836 0.961 . S
H2823 C2837 0.960 . S
H2824 C2837 0.961 . S
H2825 C2837 0.959 . S
H2826 C2840 0.929 . S
H2827 C2841 0.931 . S
H2828 C2843 0.930 . S
C2829 H2817 0.930 . S
C2829 C2830 1.399 . S
C2829 C2834 1.399 . S
C2830 C2829 1.399 . S
C2830 C2831 1.376 . S
C2831 H2818 0.930 . S
C2831 C2830 1.376 . S
C2831 C2832 1.388 . S
C2832 H2819 0.930 . S
C2832 C2831 1.388 . S
C2832 C2833 1.390 . S
C2833 C2832 1.390 . S
C2833 C2834 1.394 . S
C2833 C2839 1.465 . S
C2834 C2829 1.399 . S
C2834 C2833 1.394 . S
C2834 C2835 1.516 . S
C2835 C2834 1.516 . S
C2835 C2836 1.502 . S
C2835 C2837 1.561 . S
C2835 C2838 1.526 . S
C2836 H2820 0.959 . S
C2836 H2821 0.959 . S
C2836 H2822 0.961 . S
C2836 C2835 1.502 . S
C2837 H2823 0.960 . S
C2837 H2824 0.961 . S
C2837 H2825 0.959 . S
C2837 C2835 1.561 . S
C2838 C2835 1.526 . S
C2838 C2839 1.396 . S
C2838 C2843 1.390 . S
C2839 C2833 1.465 . S
C2839 C2838 1.396 . S
C2839 C2840 1.399 . S
C2840 H2826 0.929 . S
C2840 C2839 1.399 . S
C2840 C2841 1.385 . S
C2841 H2827 0.931 . S
C2841 C2840 1.385 . S
C2841 C2842 1.389 . S
C2842 C2841 1.389 . S
C2842 C2843 1.387 . S
C2843 H2828 0.930 . S
C2843 C2838 1.390 . S
C2843 C2842 1.387 . S
H2844 C2856 0.930 . S
H2845 C2858 0.930 . S
H2846 C2859 0.930 . S
H2847 C2863 0.959 . S
H2848 C2863 0.959 . S
H2849 C2863 0.961 . S
H2850 C2864 0.960 . S
H2851 C2864 0.961 . S
H2852 C2864 0.959 . S
H2853 C2867 0.929 . S
H2854 C2868 0.931 . S
H2855 C2870 0.930 . S
C2856 H2844 0.930 . S
C2856 C2857 1.399 . S
C2856 C2861 1.399 . S
C2857 C2856 1.399 . S
C2857 C2858 1.376 . S
C2858 H2845 0.930 . S
C2858 C2857 1.376 . S
C2858 C2859 1.388 . S
C2859 H2846 0.930 . S
C2859 C2858 1.388 . S
C2859 C2860 1.390 . S
C2860 C2859 1.390 . S
C2860 C2861 1.394 . S
C2860 C2866 1.465 . S
C2861 C2856 1.399 . S
C2861 C2860 1.394 . S
C2861 C2862 1.516 . S
C2862 C2861 1.516 . S
C2862 C2863 1.502 . S
C2862 C2864 1.561 . S
C2862 C2865 1.526 . S
C2863 H2847 0.959 . S
C2863 H2848 0.959 . S
C2863 H2849 0.961 . S
C2863 C2862 1.502 . S
C2864 H2850 0.960 . S
C2864 H2851 0.961 . S
C2864 H2852 0.959 . S
C2864 C2862 1.561 . S
C2865 C2862 1.526 . S
C2865 C2866 1.396 . S
C2865 C2870 1.390 . S
C2866 C2860 1.465 . S
C2866 C2865 1.396 . S
C2866 C2867 1.399 . S
C2867 H2853 0.929 . S
C2867 C2866 1.399 . S
C2867 C2868 1.385 . S
C2868 H2854 0.931 . S
C2868 C2867 1.385 . S
C2868 C2869 1.389 . S
C2869 C2868 1.389 . S
C2869 C2870 1.387 . S
C2870 H2855 0.930 . S
C2870 C2865 1.390 . S
C2870 C2869 1.387 . S
H2871 C2883 0.930 . S
H2872 C2885 0.930 . S
H2873 C2886 0.930 . S
H2874 C2890 0.959 . S
H2875 C2890 0.959 . S
H2876 C2890 0.961 . S
H2877 C2891 0.960 . S
H2878 C2891 0.961 . S
H2879 C2891 0.959 . S
H2880 C2894 0.929 . S
H2881 C2895 0.931 . S
H2882 C2897 0.930 . S
C2883 H2871 0.930 . S
C2883 C2884 1.399 . S
C2883 C2888 1.399 . S
C2884 C2883 1.399 . S
C2884 C2885 1.376 . S
C2885 H2872 0.930 . S
C2885 C2884 1.376 . S
C2885 C2886 1.388 . S
C2886 H2873 0.930 . S
C2886 C2885 1.388 . S
C2886 C2887 1.390 . S
C2887 C2886 1.390 . S
C2887 C2888 1.394 . S
C2887 C2893 1.465 . S
C2888 C2883 1.399 . S
C2888 C2887 1.394 . S
C2888 C2889 1.516 . S
C2889 C2888 1.516 . S
C2889 C2890 1.502 . S
C2889 C2891 1.561 . S
C2889 C2892 1.526 . S
C2890 H2874 0.959 . S
C2890 H2875 0.959 . S
C2890 H2876 0.961 . S
C2890 C2889 1.502 . S
C2891 H2877 0.960 . S
C2891 H2878 0.961 . S
C2891 H2879 0.959 . S
C2891 C2889 1.561 . S
C2892 C2889 1.526 . S
C2892 C2893 1.396 . S
C2892 C2897 1.390 . S
C2893 C2887 1.465 . S
C2893 C2892 1.396 . S
C2893 C2894 1.399 . S
C2894 H2880 0.929 . S
C2894 C2893 1.399 . S
C2894 C2895 1.385 . S
C2895 H2881 0.931 . S
C2895 C2894 1.385 . S
C2895 C2896 1.389 . S
C2896 C2895 1.389 . S
C2896 C2897 1.387 . S
C2897 H2882 0.930 . S
C2897 C2892 1.390 . S
C2897 C2896 1.387 . S
H2898 C2910 0.930 . S
H2899 C2912 0.930 . S
H2900 C2913 0.930 . S
H2901 C2917 0.959 . S
H2902 C2917 0.959 . S
H2903 C2917 0.961 . S
H2904 C2918 0.960 . S
H2905 C2918 0.961 . S
H2906 C2918 0.959 . S
H2907 C2921 0.929 . S
H2908 C2922 0.931 . S
H2909 C2924 0.930 . S
C2910 H2898 0.930 . S
C2910 C2911 1.399 . S
C2910 C2915 1.399 . S
C2911 C2910 1.399 . S
C2911 C2912 1.376 . S
C2912 H2899 0.930 . S
C2912 C2911 1.376 . S
C2912 C2913 1.388 . S
C2913 H2900 0.930 . S
C2913 C2912 1.388 . S
C2913 C2914 1.390 . S
C2914 C2913 1.390 . S
C2914 C2915 1.394 . S
C2914 C2920 1.465 . S
C2915 C2910 1.399 . S
C2915 C2914 1.394 . S
C2915 C2916 1.516 . S
C2916 C2915 1.516 . S
C2916 C2917 1.502 . S
C2916 C2918 1.561 . S
C2916 C2919 1.526 . S
C2917 H2901 0.959 . S
C2917 H2902 0.959 . S
C2917 H2903 0.961 . S
C2917 C2916 1.502 . S
C2918 H2904 0.960 . S
C2918 H2905 0.961 . S
C2918 H2906 0.959 . S
C2918 C2916 1.561 . S
C2919 C2916 1.526 . S
C2919 C2920 1.396 . S
C2919 C2924 1.390 . S
C2920 C2914 1.465 . S
C2920 C2919 1.396 . S
C2920 C2921 1.399 . S
C2921 H2907 0.929 . S
C2921 C2920 1.399 . S
C2921 C2922 1.385 . S
C2922 H2908 0.931 . S
C2922 C2921 1.385 . S
C2922 C2923 1.389 . S
C2923 C2922 1.389 . S
C2923 C2924 1.387 . S
C2924 H2909 0.930 . S
C2924 C2919 1.390 . S
C2924 C2923 1.387 . S
H2925 C2937 0.930 . S
H2926 C2939 0.930 . S
H2927 C2940 0.930 . S
H2928 C2944 0.959 . S
H2929 C2944 0.959 . S
H2930 C2944 0.961 . S
H2931 C2945 0.960 . S
H2932 C2945 0.961 . S
H2933 C2945 0.959 . S
H2934 C2948 0.929 . S
H2935 C2949 0.931 . S
H2936 C2951 0.930 . S
C2937 H2925 0.930 . S
C2937 C2938 1.399 . S
C2937 C2942 1.399 . S
C2938 C2937 1.399 . S
C2938 C2939 1.376 . S
C2939 H2926 0.930 . S
C2939 C2938 1.376 . S
C2939 C2940 1.388 . S
C2940 H2927 0.930 . S
C2940 C2939 1.388 . S
C2940 C2941 1.390 . S
C2941 C2940 1.390 . S
C2941 C2942 1.394 . S
C2941 C2947 1.465 . S
C2942 C2937 1.399 . S
C2942 C2941 1.394 . S
C2942 C2943 1.516 . S
C2943 C2942 1.516 . S
C2943 C2944 1.502 . S
C2943 C2945 1.561 . S
C2943 C2946 1.526 . S
C2944 H2928 0.959 . S
C2944 H2929 0.959 . S
C2944 H2930 0.961 . S
C2944 C2943 1.502 . S
C2945 H2931 0.960 . S
C2945 H2932 0.961 . S
C2945 H2933 0.959 . S
C2945 C2943 1.561 . S
C2946 C2943 1.526 . S
C2946 C2947 1.396 . S
C2946 C2951 1.390 . S
C2947 C2941 1.465 . S
C2947 C2946 1.396 . S
C2947 C2948 1.399 . S
C2948 H2934 0.929 . S
C2948 C2947 1.399 . S
C2948 C2949 1.385 . S
C2949 H2935 0.931 . S
C2949 C2948 1.385 . S
C2949 C2950 1.389 . S
C2950 C2949 1.389 . S
C2950 C2951 1.387 . S
C2951 H2936 0.930 . S
C2951 C2946 1.390 . S
C2951 C2950 1.387 . S
H2952 C2964 0.930 . S
H2953 C2966 0.930 . S
H2954 C2967 0.930 . S
H2955 C2971 0.959 . S
H2956 C2971 0.959 . S
H2957 C2971 0.961 . S
H2958 C2972 0.960 . S
H2959 C2972 0.961 . S
H2960 C2972 0.959 . S
H2961 C2975 0.929 . S
H2962 C2976 0.931 . S
H2963 C2978 0.930 . S
C2964 H2952 0.930 . S
C2964 C2965 1.399 . S
C2964 C2969 1.399 . S
C2965 C2964 1.399 . S
C2965 C2966 1.376 . S
C2966 H2953 0.930 . S
C2966 C2965 1.376 . S
C2966 C2967 1.388 . S
C2967 H2954 0.930 . S
C2967 C2966 1.388 . S
C2967 C2968 1.390 . S
C2968 C2967 1.390 . S
C2968 C2969 1.394 . S
C2968 C2974 1.465 . S
C2969 C2964 1.399 . S
C2969 C2968 1.394 . S
C2969 C2970 1.516 . S
C2970 C2969 1.516 . S
C2970 C2971 1.502 . S
C2970 C2972 1.561 . S
C2970 C2973 1.526 . S
C2971 H2955 0.959 . S
C2971 H2956 0.959 . S
C2971 H2957 0.961 . S
C2971 C2970 1.502 . S
C2972 H2958 0.960 . S
C2972 H2959 0.961 . S
C2972 H2960 0.959 . S
C2972 C2970 1.561 . S
C2973 C2970 1.526 . S
C2973 C2974 1.396 . S
C2973 C2978 1.390 . S
C2974 C2968 1.465 . S
C2974 C2973 1.396 . S
C2974 C2975 1.399 . S
C2975 H2961 0.929 . S
C2975 C2974 1.399 . S
C2975 C2976 1.385 . S
C2976 H2962 0.931 . S
C2976 C2975 1.385 . S
C2976 C2977 1.389 . S
C2977 C2976 1.389 . S
C2977 C2978 1.387 . S
C2978 H2963 0.930 . S
C2978 C2973 1.390 . S
C2978 C2977 1.387 . S
H2979 C2991 0.930 . S
H2980 C2993 0.930 . S
H2981 C2994 0.930 . S
H2982 C2998 0.959 . S
H2983 C2998 0.959 . S
H2984 C2998 0.961 . S
H2985 C2999 0.960 . S
H2986 C2999 0.961 . S
H2987 C2999 0.959 . S
H2988 C3002 0.929 . S
H2989 C3003 0.931 . S
H2990 C3005 0.930 . S
C2991 H2979 0.930 . S
C2991 C2992 1.399 . S
C2991 C2996 1.399 . S
C2992 C2991 1.399 . S
C2992 C2993 1.376 . S
C2993 H2980 0.930 . S
C2993 C2992 1.376 . S
C2993 C2994 1.388 . S
C2994 H2981 0.930 . S
C2994 C2993 1.388 . S
C2994 C2995 1.390 . S
C2995 C2994 1.390 . S
C2995 C2996 1.394 . S
C2995 C3001 1.465 . S
C2996 C2991 1.399 . S
C2996 C2995 1.394 . S
C2996 C2997 1.516 . S
C2997 C2996 1.516 . S
C2997 C2998 1.502 . S
C2997 C2999 1.561 . S
C2997 C3000 1.526 . S
C2998 H2982 0.959 . S
C2998 H2983 0.959 . S
C2998 H2984 0.961 . S
C2998 C2997 1.502 . S
C2999 H2985 0.960 . S
C2999 H2986 0.961 . S
C2999 H2987 0.959 . S
C2999 C2997 1.561 . S
C3000 C2997 1.526 . S
C3000 C3001 1.396 . S
C3000 C3005 1.390 . S
C3001 C2995 1.465 . S
C3001 C3000 1.396 . S
C3001 C3002 1.399 . S
C3002 H2988 0.929 . S
C3002 C3001 1.399 . S
C3002 C3003 1.385 . S
C3003 H2989 0.931 . S
C3003 C3002 1.385 . S
C3003 C3004 1.389 . S
C3004 C3003 1.389 . S
C3004 C3005 1.387 . S
C3005 H2990 0.930 . S
C3005 C3000 1.390 . S
C3005 C3004 1.387 . S
H3006 C3018 0.930 . S
H3007 C3020 0.930 . S
H3008 C3021 0.930 . S
H3009 C3025 0.959 . S
H3010 C3025 0.959 . S
H3011 C3025 0.961 . S
H3012 C3026 0.960 . S
H3013 C3026 0.961 . S
H3014 C3026 0.959 . S
H3015 C3029 0.929 . S
H3016 C3030 0.931 . S
H3017 C3032 0.930 . S
C3018 H3006 0.930 . S
C3018 C3019 1.399 . S
C3018 C3023 1.399 . S
C3019 C3018 1.399 . S
C3019 C3020 1.376 . S
C3020 H3007 0.930 . S
C3020 C3019 1.376 . S
C3020 C3021 1.388 . S
C3021 H3008 0.930 . S
C3021 C3020 1.388 . S
C3021 C3022 1.390 . S
C3022 C3021 1.390 . S
C3022 C3023 1.394 . S
C3022 C3028 1.465 . S
C3023 C3018 1.399 . S
C3023 C3022 1.394 . S
C3023 C3024 1.516 . S
C3024 C3023 1.516 . S
C3024 C3025 1.502 . S
C3024 C3026 1.561 . S
C3024 C3027 1.526 . S
C3025 H3009 0.959 . S
C3025 H3010 0.959 . S
C3025 H3011 0.961 . S
C3025 C3024 1.502 . S
C3026 H3012 0.960 . S
C3026 H3013 0.961 . S
C3026 H3014 0.959 . S
C3026 C3024 1.561 . S
C3027 C3024 1.526 . S
C3027 C3028 1.396 . S
C3027 C3032 1.390 . S
C3028 C3022 1.465 . S
C3028 C3027 1.396 . S
C3028 C3029 1.399 . S
C3029 H3015 0.929 . S
C3029 C3028 1.399 . S
C3029 C3030 1.385 . S
C3030 H3016 0.931 . S
C3030 C3029 1.385 . S
C3030 C3031 1.389 . S
C3031 C3030 1.389 . S
C3031 C3032 1.387 . S
C3032 H3017 0.930 . S
C3032 C3027 1.390 . S
C3032 C3031 1.387 . S
H3033 C3045 0.930 . S
H3034 C3047 0.930 . S
H3035 C3048 0.930 . S
H3036 C3052 0.959 . S
H3037 C3052 0.959 . S
H3038 C3052 0.961 . S
H3039 C3053 0.960 . S
H3040 C3053 0.961 . S
H3041 C3053 0.959 . S
H3042 C3056 0.929 . S
H3043 C3057 0.931 . S
H3044 C3059 0.930 . S
C3045 H3033 0.930 . S
C3045 C3046 1.399 . S
C3045 C3050 1.399 . S
C3046 C3045 1.399 . S
C3046 C3047 1.376 . S
C3047 H3034 0.930 . S
C3047 C3046 1.376 . S
C3047 C3048 1.388 . S
C3048 H3035 0.930 . S
C3048 C3047 1.388 . S
C3048 C3049 1.390 . S
C3049 C3048 1.390 . S
C3049 C3050 1.394 . S
C3049 C3055 1.465 . S
C3050 C3045 1.399 . S
C3050 C3049 1.394 . S
C3050 C3051 1.516 . S
C3051 C3050 1.516 . S
C3051 C3052 1.502 . S
C3051 C3053 1.561 . S
C3051 C3054 1.526 . S
C3052 H3036 0.959 . S
C3052 H3037 0.959 . S
C3052 H3038 0.961 . S
C3052 C3051 1.502 . S
C3053 H3039 0.960 . S
C3053 H3040 0.961 . S
C3053 H3041 0.959 . S
C3053 C3051 1.561 . S
C3054 C3051 1.526 . S
C3054 C3055 1.396 . S
C3054 C3059 1.390 . S
C3055 C3049 1.465 . S
C3055 C3054 1.396 . S
C3055 C3056 1.399 . S
C3056 H3042 0.929 . S
C3056 C3055 1.399 . S
C3056 C3057 1.385 . S
C3057 H3043 0.931 . S
C3057 C3056 1.385 . S
C3057 C3058 1.389 . S
C3058 C3057 1.389 . S
C3058 C3059 1.387 . S
C3059 H3044 0.930 . S
C3059 C3054 1.390 . S
C3059 C3058 1.387 . S
H3060 C3072 0.930 . S
H3061 C3074 0.930 . S
H3062 C3075 0.930 . S
H3063 C3079 0.959 . S
H3064 C3079 0.959 . S
H3065 C3079 0.961 . S
H3066 C3080 0.960 . S
H3067 C3080 0.961 . S
H3068 C3080 0.959 . S
H3069 C3083 0.929 . S
H3070 C3084 0.931 . S
H3071 C3086 0.930 . S
C3072 H3060 0.930 . S
C3072 C3073 1.399 . S
C3072 C3077 1.399 . S
C3073 C3072 1.399 . S
C3073 C3074 1.376 . S
C3074 H3061 0.930 . S
C3074 C3073 1.376 . S
C3074 C3075 1.388 . S
C3075 H3062 0.930 . S
C3075 C3074 1.388 . S
C3075 C3076 1.390 . S
C3076 C3075 1.390 . S
C3076 C3077 1.394 . S
C3076 C3082 1.465 . S
C3077 C3072 1.399 . S
C3077 C3076 1.394 . S
C3077 C3078 1.516 . S
C3078 C3077 1.516 . S
C3078 C3079 1.502 . S
C3078 C3080 1.561 . S
C3078 C3081 1.526 . S
C3079 H3063 0.959 . S
C3079 H3064 0.959 . S
C3079 H3065 0.961 . S
C3079 C3078 1.502 . S
C3080 H3066 0.960 . S
C3080 H3067 0.961 . S
C3080 H3068 0.959 . S
C3080 C3078 1.561 . S
C3081 C3078 1.526 . S
C3081 C3082 1.396 . S
C3081 C3086 1.390 . S
C3082 C3076 1.465 . S
C3082 C3081 1.396 . S
C3082 C3083 1.399 . S
C3083 H3069 0.929 . S
C3083 C3082 1.399 . S
C3083 C3084 1.385 . S
C3084 H3070 0.931 . S
C3084 C3083 1.385 . S
C3084 C3085 1.389 . S
C3085 C3084 1.389 . S
C3085 C3086 1.387 . S
C3086 H3071 0.930 . S
C3086 C3081 1.390 . S
C3086 C3085 1.387 . S
H3087 C3099 0.930 . S
H3088 C3101 0.930 . S
H3089 C3102 0.930 . S
H3090 C3106 0.959 . S
H3091 C3106 0.959 . S
H3092 C3106 0.961 . S
H3093 C3107 0.960 . S
H3094 C3107 0.961 . S
H3095 C3107 0.959 . S
H3096 C3110 0.929 . S
H3097 C3111 0.931 . S
H3098 C3113 0.930 . S
C3099 H3087 0.930 . S
C3099 C3100 1.399 . S
C3099 C3104 1.399 . S
C3100 C3099 1.399 . S
C3100 C3101 1.376 . S
C3101 H3088 0.930 . S
C3101 C3100 1.376 . S
C3101 C3102 1.388 . S
C3102 H3089 0.930 . S
C3102 C3101 1.388 . S
C3102 C3103 1.390 . S
C3103 C3102 1.390 . S
C3103 C3104 1.394 . S
C3103 C3109 1.465 . S
C3104 C3099 1.399 . S
C3104 C3103 1.394 . S
C3104 C3105 1.516 . S
C3105 C3104 1.516 . S
C3105 C3106 1.502 . S
C3105 C3107 1.561 . S
C3105 C3108 1.526 . S
C3106 H3090 0.959 . S
C3106 H3091 0.959 . S
C3106 H3092 0.961 . S
C3106 C3105 1.502 . S
C3107 H3093 0.960 . S
C3107 H3094 0.961 . S
C3107 H3095 0.959 . S
C3107 C3105 1.561 . S
C3108 C3105 1.526 . S
C3108 C3109 1.396 . S
C3108 C3113 1.390 . S
C3109 C3103 1.465 . S
C3109 C3108 1.396 . S
C3109 C3110 1.399 . S
C3110 H3096 0.929 . S
C3110 C3109 1.399 . S
C3110 C3111 1.385 . S
C3111 H3097 0.931 . S
C3111 C3110 1.385 . S
C3111 C3112 1.389 . S
C3112 C3111 1.389 . S
C3112 C3113 1.387 . S
C3113 H3098 0.930 . S
C3113 C3108 1.390 . S
C3113 C3112 1.387 . S
H3114 C3126 0.930 . S
H3115 C3128 0.930 . S
H3116 C3129 0.930 . S
H3117 C3133 0.959 . S
H3118 C3133 0.959 . S
H3119 C3133 0.961 . S
H3120 C3134 0.960 . S
H3121 C3134 0.961 . S
H3122 C3134 0.959 . S
H3123 C3137 0.929 . S
H3124 C3138 0.931 . S
H3125 C3140 0.930 . S
C3126 H3114 0.930 . S
C3126 C3127 1.399 . S
C3126 C3131 1.399 . S
C3127 C3126 1.399 . S
C3127 C3128 1.376 . S
C3128 H3115 0.930 . S
C3128 C3127 1.376 . S
C3128 C3129 1.388 . S
C3129 H3116 0.930 . S
C3129 C3128 1.388 . S
C3129 C3130 1.390 . S
C3130 C3129 1.390 . S
C3130 C3131 1.394 . S
C3130 C3136 1.465 . S
C3131 C3126 1.399 . S
C3131 C3130 1.394 . S
C3131 C3132 1.516 . S
C3132 C3131 1.516 . S
C3132 C3133 1.502 . S
C3132 C3134 1.561 . S
C3132 C3135 1.526 . S
C3133 H3117 0.959 . S
C3133 H3118 0.959 . S
C3133 H3119 0.961 . S
C3133 C3132 1.502 . S
C3134 H3120 0.960 . S
C3134 H3121 0.961 . S
C3134 H3122 0.959 . S
C3134 C3132 1.561 . S
C3135 C3132 1.526 . S
C3135 C3136 1.396 . S
C3135 C3140 1.390 . S
C3136 C3130 1.465 . S
C3136 C3135 1.396 . S
C3136 C3137 1.399 . S
C3137 H3123 0.929 . S
C3137 C3136 1.399 . S
C3137 C3138 1.385 . S
C3138 H3124 0.931 . S
C3138 C3137 1.385 . S
C3138 C3139 1.389 . S
C3139 C3138 1.389 . S
C3139 C3140 1.387 . S
C3140 H3125 0.930 . S
C3140 C3135 1.390 . S
C3140 C3139 1.387 . S
H3141 C3153 0.930 . S
H3142 C3155 0.930 . S
H3143 C3156 0.930 . S
H3144 C3160 0.959 . S
H3145 C3160 0.959 . S
H3146 C3160 0.961 . S
H3147 C3161 0.960 . S
H3148 C3161 0.961 . S
H3149 C3161 0.959 . S
H3150 C3164 0.929 . S
H3151 C3165 0.931 . S
H3152 C3167 0.930 . S
C3153 H3141 0.930 . S
C3153 C3154 1.399 . S
C3153 C3158 1.399 . S
C3154 C3153 1.399 . S
C3154 C3155 1.376 . S
C3155 H3142 0.930 . S
C3155 C3154 1.376 . S
C3155 C3156 1.388 . S
C3156 H3143 0.930 . S
C3156 C3155 1.388 . S
C3156 C3157 1.390 . S
C3157 C3156 1.390 . S
C3157 C3158 1.394 . S
C3157 C3163 1.465 . S
C3158 C3153 1.399 . S
C3158 C3157 1.394 . S
C3158 C3159 1.516 . S
C3159 C3158 1.516 . S
C3159 C3160 1.502 . S
C3159 C3161 1.561 . S
C3159 C3162 1.526 . S
C3160 H3144 0.959 . S
C3160 H3145 0.959 . S
C3160 H3146 0.961 . S
C3160 C3159 1.502 . S
C3161 H3147 0.960 . S
C3161 H3148 0.961 . S
C3161 H3149 0.959 . S
C3161 C3159 1.561 . S
C3162 C3159 1.526 . S
C3162 C3163 1.396 . S
C3162 C3167 1.390 . S
C3163 C3157 1.465 . S
C3163 C3162 1.396 . S
C3163 C3164 1.399 . S
C3164 H3150 0.929 . S
C3164 C3163 1.399 . S
C3164 C3165 1.385 . S
C3165 H3151 0.931 . S
C3165 C3164 1.385 . S
C3165 C3166 1.389 . S
C3166 C3165 1.389 . S
C3166 C3167 1.387 . S
C3167 H3152 0.930 . S
C3167 C3162 1.390 . S
C3167 C3166 1.387 . S
H3168 C3180 0.930 . S
H3169 C3182 0.930 . S
H3170 C3183 0.930 . S
H3171 C3187 0.959 . S
H3172 C3187 0.959 . S
H3173 C3187 0.961 . S
H3174 C3188 0.960 . S
H3175 C3188 0.961 . S
H3176 C3188 0.959 . S
H3177 C3191 0.929 . S
H3178 C3192 0.931 . S
H3179 C3194 0.930 . S
C3180 H3168 0.930 . S
C3180 C3181 1.399 . S
C3180 C3185 1.399 . S
C3181 C3180 1.399 . S
C3181 C3182 1.376 . S
C3182 H3169 0.930 . S
C3182 C3181 1.376 . S
C3182 C3183 1.388 . S
C3183 H3170 0.930 . S
C3183 C3182 1.388 . S
C3183 C3184 1.390 . S
C3184 C3183 1.390 . S
C3184 C3185 1.394 . S
C3184 C3190 1.465 1_565 S
C3185 C3180 1.399 . S
C3185 C3184 1.394 . S
C3185 C3186 1.516 1_565 S
C3186 C3185 1.516 1_545 S
C3186 C3187 1.502 . S
C3186 C3188 1.561 . S
C3186 C3189 1.526 . S
C3187 H3171 0.959 . S
C3187 H3172 0.959 . S
C3187 H3173 0.961 . S
C3187 C3186 1.502 . S
C3188 H3174 0.960 . S
C3188 H3175 0.961 . S
C3188 H3176 0.959 . S
C3188 C3186 1.561 . S
C3189 C3186 1.526 . S
C3189 C3190 1.396 . S
C3189 C3194 1.390 . S
C3190 C3184 1.465 1_545 S
C3190 C3189 1.396 . S
C3190 C3191 1.399 . S
C3191 H3177 0.929 . S
C3191 C3190 1.399 . S
C3191 C3192 1.385 . S
C3192 H3178 0.931 . S
C3192 C3191 1.385 . S
C3192 C3193 1.389 . S
C3193 C3192 1.389 . S
C3193 C3194 1.387 . S
C3194 H3179 0.930 . S
C3194 C3189 1.390 . S
C3194 C3193 1.387 . S
H3195 C3207 0.930 . S
H3196 C3209 0.930 . S
H3197 C3210 0.930 . S
H3198 C3214 0.959 . S
H3199 C3214 0.959 . S
H3200 C3214 0.961 . S
H3201 C3215 0.960 . S
H3202 C3215 0.961 . S
H3203 C3215 0.959 . S
H3204 C3218 0.929 . S
H3205 C3219 0.931 . S
H3206 C3221 0.930 . S
C3207 H3195 0.930 . S
C3207 C3208 1.399 . S
C3207 C3212 1.399 . S
C3208 C3207 1.399 . S
C3208 C3209 1.376 . S
C3209 H3196 0.930 . S
C3209 C3208 1.376 . S
C3209 C3210 1.388 . S
C3210 H3197 0.930 . S
C3210 C3209 1.388 . S
C3210 C3211 1.390 . S
C3211 C3210 1.390 . S
C3211 C3212 1.394 . S
C3211 C3217 1.465 1_655 S
C3212 C3207 1.399 . S
C3212 C3211 1.394 . S
C3212 C3213 1.516 1_655 S
C3213 C3212 1.516 1_455 S
C3213 C3214 1.502 . S
C3213 C3215 1.561 . S
C3213 C3216 1.526 . S
C3214 H3198 0.959 . S
C3214 H3199 0.959 . S
C3214 H3200 0.961 . S
C3214 C3213 1.502 . S
C3215 H3201 0.960 . S
C3215 H3202 0.961 . S
C3215 H3203 0.959 . S
C3215 C3213 1.561 . S
C3216 C3213 1.526 . S
C3216 C3217 1.396 . S
C3216 C3221 1.390 . S
C3217 C3211 1.465 1_455 S
C3217 C3216 1.396 . S
C3217 C3218 1.399 . S
C3218 H3204 0.929 . S
C3218 C3217 1.399 . S
C3218 C3219 1.385 . S
C3219 H3205 0.931 . S
C3219 C3218 1.385 . S
C3219 C3220 1.389 . S
C3220 C3219 1.389 . S
C3220 C3221 1.387 . S
C3221 H3206 0.930 . S
C3221 C3216 1.390 . S
C3221 C3220 1.387 . S
H3222 C3234 0.930 . S
H3223 C3236 0.930 . S
H3224 C3237 0.930 . S
H3225 C3241 0.959 . S
H3226 C3241 0.959 . S
H3227 C3241 0.961 . S
H3228 C3242 0.960 . S
H3229 C3242 0.961 . S
H3230 C3242 0.959 . S
H3231 C3245 0.929 . S
H3232 C3246 0.931 . S
H3233 C3248 0.930 . S
C3234 H3222 0.930 . S
C3234 C3235 1.399 . S
C3234 C3239 1.399 . S
C3235 C3234 1.399 . S
C3235 C3236 1.376 . S
C3236 H3223 0.930 . S
C3236 C3235 1.376 . S
C3236 C3237 1.388 . S
C3237 H3224 0.930 . S
C3237 C3236 1.388 . S
C3237 C3238 1.390 . S
C3238 C3237 1.390 . S
C3238 C3239 1.394 . S
C3238 C3244 1.465 . S
C3239 C3234 1.399 . S
C3239 C3238 1.394 . S
C3239 C3240 1.516 . S
C3240 C3239 1.516 . S
C3240 C3241 1.502 . S
C3240 C3242 1.561 . S
C3240 C3243 1.526 . S
C3241 H3225 0.959 . S
C3241 H3226 0.959 . S
C3241 H3227 0.961 . S
C3241 C3240 1.502 . S
C3242 H3228 0.960 . S
C3242 H3229 0.961 . S
C3242 H3230 0.959 . S
C3242 C3240 1.561 . S
C3243 C3240 1.526 . S
C3243 C3244 1.396 . S
C3243 C3248 1.390 . S
C3244 C3238 1.465 . S
C3244 C3243 1.396 . S
C3244 C3245 1.399 . S
C3245 H3231 0.929 . S
C3245 C3244 1.399 . S
C3245 C3246 1.385 . S
C3246 H3232 0.931 . S
C3246 C3245 1.385 . S
C3246 C3247 1.389 . S
C3247 C3246 1.389 . S
C3247 C3248 1.387 . S
C3248 H3233 0.930 . S
C3248 C3243 1.390 . S
C3248 C3247 1.387 . S
H3249 C3261 0.930 . S
H3250 C3263 0.930 . S
H3251 C3264 0.930 . S
H3252 C3268 0.959 1_565 S
H3253 C3268 0.959 1_565 S
H3254 C3268 0.961 . S
H3255 C3269 0.960 . S
H3256 C3269 0.961 . S
H3257 C3269 0.959 . S
H3258 C3272 0.929 . S
H3259 C3273 0.931 . S
H3260 C3275 0.930 . S
C3261 H3249 0.930 . S
C3261 C3262 1.399 . S
C3261 C3266 1.399 . S
C3262 C3261 1.399 . S
C3262 C3263 1.376 . S
C3263 H3250 0.930 . S
C3263 C3262 1.376 . S
C3263 C3264 1.388 . S
C3264 H3251 0.930 . S
C3264 C3263 1.388 . S
C3264 C3265 1.390 . S
C3265 C3264 1.390 . S
C3265 C3266 1.394 . S
C3265 C3271 1.465 1_545 S
C3266 C3261 1.399 . S
C3266 C3265 1.394 . S
C3266 C3267 1.516 . S
C3267 C3266 1.516 . S
C3267 C3268 1.502 . S
C3267 C3269 1.561 . S
C3267 C3270 1.526 1_545 S
C3268 H3252 0.959 1_545 S
C3268 H3253 0.959 1_545 S
C3268 H3254 0.961 . S
C3268 C3267 1.502 . S
C3269 H3255 0.960 . S
C3269 H3256 0.961 . S
C3269 H3257 0.959 . S
C3269 C3267 1.561 . S
C3270 C3267 1.526 1_565 S
C3270 C3271 1.396 . S
C3270 C3275 1.390 . S
C3271 C3265 1.465 1_565 S
C3271 C3270 1.396 . S
C3271 C3272 1.399 . S
C3272 H3258 0.929 . S
C3272 C3271 1.399 . S
C3272 C3273 1.385 . S
C3273 H3259 0.931 . S
C3273 C3272 1.385 . S
C3273 C3274 1.389 . S
C3274 C3273 1.389 . S
C3274 C3275 1.387 . S
C3275 H3260 0.930 . S
C3275 C3270 1.390 . S
C3275 C3274 1.387 . S
H3276 C3288 0.930 . S
H3277 C3290 0.930 . S
H3278 C3291 0.930 . S
H3279 C3295 0.959 . S
H3280 C3295 0.959 . S
H3281 C3295 0.961 . S
H3282 C3296 0.960 . S
H3283 C3296 0.961 . S
H3284 C3296 0.959 . S
H3285 C3299 0.929 . S
H3286 C3300 0.931 . S
H3287 C3302 0.930 . S
C3288 H3276 0.930 . S
C3288 C3289 1.399 . S
C3288 C3293 1.399 . S
C3289 C3288 1.399 . S
C3289 C3290 1.376 . S
C3290 H3277 0.930 . S
C3290 C3289 1.376 . S
C3290 C3291 1.388 . S
C3291 H3278 0.930 . S
C3291 C3290 1.388 . S
C3291 C3292 1.390 . S
C3292 C3291 1.390 . S
C3292 C3293 1.394 . S
C3292 C3298 1.465 1_655 S
C3293 C3288 1.399 . S
C3293 C3292 1.394 . S
C3293 C3294 1.516 . S
C3294 C3293 1.516 . S
C3294 C3295 1.502 . S
C3294 C3296 1.561 . S
C3294 C3297 1.526 1_655 S
C3295 H3279 0.959 . S
C3295 H3280 0.959 . S
C3295 H3281 0.961 . S
C3295 C3294 1.502 . S
C3296 H3282 0.960 . S
C3296 H3283 0.961 . S
C3296 H3284 0.959 . S
C3296 C3294 1.561 . S
C3297 C3294 1.526 1_455 S
C3297 C3298 1.396 . S
C3297 C3302 1.390 . S
C3298 C3292 1.465 1_455 S
C3298 C3297 1.396 . S
C3298 C3299 1.399 . S
C3299 H3285 0.929 . S
C3299 C3298 1.399 . S
C3299 C3300 1.385 . S
C3300 H3286 0.931 . S
C3300 C3299 1.385 . S
C3300 C3301 1.389 . S
C3301 C3300 1.389 . S
C3301 C3302 1.387 . S
C3302 H3287 0.930 . S
C3302 C3297 1.390 . S
C3302 C3301 1.387 . S
H3303 C3315 0.930 . S
H3304 C3317 0.930 . S
H3305 C3318 0.930 . S
H3306 C3322 0.959 . S
H3307 C3322 0.959 . S
H3308 C3322 0.961 . S
H3309 C3323 0.960 . S
H3310 C3323 0.961 . S
H3311 C3323 0.959 . S
H3312 C3326 0.929 . S
H3313 C3327 0.931 . S
H3314 C3329 0.930 . S
C3315 H3303 0.930 . S
C3315 C3316 1.399 . S
C3315 C3320 1.399 . S
C3316 C3315 1.399 . S
C3316 C3317 1.376 . S
C3317 H3304 0.930 . S
C3317 C3316 1.376 . S
C3317 C3318 1.388 . S
C3318 H3305 0.930 . S
C3318 C3317 1.388 . S
C3318 C3319 1.390 . S
C3319 C3318 1.390 . S
C3319 C3320 1.394 . S
C3319 C3325 1.465 . S
C3320 C3315 1.399 . S
C3320 C3319 1.394 . S
C3320 C3321 1.516 . S
C3321 C3320 1.516 . S
C3321 C3322 1.502 . S
C3321 C3323 1.561 . S
C3321 C3324 1.526 . S
C3322 H3306 0.959 . S
C3322 H3307 0.959 . S
C3322 H3308 0.961 . S
C3322 C3321 1.502 . S
C3323 H3309 0.960 . S
C3323 H3310 0.961 . S
C3323 H3311 0.959 . S
C3323 C3321 1.561 . S
C3324 C3321 1.526 . S
C3324 C3325 1.396 . S
C3324 C3329 1.390 . S
C3325 C3319 1.465 . S
C3325 C3324 1.396 . S
C3325 C3326 1.399 . S
C3326 H3312 0.929 . S
C3326 C3325 1.399 . S
C3326 C3327 1.385 . S
C3327 H3313 0.931 . S
C3327 C3326 1.385 . S
C3327 C3328 1.389 . S
C3328 C3327 1.389 . S
C3328 C3329 1.387 . S
C3329 H3314 0.930 . S
C3329 C3324 1.390 . S
C3329 C3328 1.387 . S
H3330 C3342 0.930 . S
H3331 C3344 0.930 . S
H3332 C3345 0.930 . S
H3333 C3349 0.959 . S
H3334 C3349 0.959 . S
H3335 C3349 0.961 . S
H3336 C3350 0.960 . S
H3337 C3350 0.961 . S
H3338 C3350 0.959 . S
H3339 C3353 0.929 . S
H3340 C3354 0.931 . S
H3341 C3356 0.930 . S
C3342 H3330 0.930 . S
C3342 C3343 1.399 . S
C3342 C3347 1.399 . S
C3343 C3342 1.399 . S
C3343 C3344 1.376 . S
C3344 H3331 0.930 . S
C3344 C3343 1.376 . S
C3344 C3345 1.388 . S
C3345 H3332 0.930 . S
C3345 C3344 1.388 . S
C3345 C3346 1.390 . S
C3346 C3345 1.390 . S
C3346 C3347 1.394 . S
C3346 C3352 1.465 . S
C3347 C3342 1.399 . S
C3347 C3346 1.394 . S
C3347 C3348 1.516 . S
C3348 C3347 1.516 . S
C3348 C3349 1.502 . S
C3348 C3350 1.561 . S
C3348 C3351 1.526 . S
C3349 H3333 0.959 . S
C3349 H3334 0.959 . S
C3349 H3335 0.961 . S
C3349 C3348 1.502 . S
C3350 H3336 0.960 . S
C3350 H3337 0.961 . S
C3350 H3338 0.959 . S
C3350 C3348 1.561 . S
C3351 C3348 1.526 . S
C3351 C3352 1.396 . S
C3351 C3356 1.390 . S
C3352 C3346 1.465 . S
C3352 C3351 1.396 . S
C3352 C3353 1.399 . S
C3353 H3339 0.929 . S
C3353 C3352 1.399 . S
C3353 C3354 1.385 . S
C3354 H3340 0.931 . S
C3354 C3353 1.385 . S
C3354 C3355 1.389 . S
C3355 C3354 1.389 . S
C3355 C3356 1.387 . S
C3356 H3341 0.930 . S
C3356 C3351 1.390 . S
C3356 C3355 1.387 . S
H3357 C3369 0.930 . S
H3358 C3371 0.930 . S
H3359 C3372 0.930 . S
H3360 C3376 0.959 . S
H3361 C3376 0.959 . S
H3362 C3376 0.961 . S
H3363 C3377 0.960 . S
H3364 C3377 0.961 . S
H3365 C3377 0.959 . S
H3366 C3380 0.929 . S
H3367 C3381 0.931 . S
H3368 C3383 0.930 . S
C3369 H3357 0.930 . S
C3369 C3370 1.399 . S
C3369 C3374 1.399 . S
C3370 C3369 1.399 . S
C3370 C3371 1.376 . S
C3371 H3358 0.930 . S
C3371 C3370 1.376 . S
C3371 C3372 1.388 . S
C3372 H3359 0.930 . S
C3372 C3371 1.388 . S
C3372 C3373 1.390 . S
C3373 C3372 1.390 . S
C3373 C3374 1.394 . S
C3373 C3379 1.465 . S
C3374 C3369 1.399 . S
C3374 C3373 1.394 . S
C3374 C3375 1.516 . S
C3375 C3374 1.516 . S
C3375 C3376 1.502 . S
C3375 C3377 1.561 . S
C3375 C3378 1.526 . S
C3376 H3360 0.959 . S
C3376 H3361 0.959 . S
C3376 H3362 0.961 . S
C3376 C3375 1.502 . S
C3377 H3363 0.960 . S
C3377 H3364 0.961 . S
C3377 H3365 0.959 . S
C3377 C3375 1.561 . S
C3378 C3375 1.526 . S
C3378 C3379 1.396 . S
C3378 C3383 1.390 . S
C3379 C3373 1.465 . S
C3379 C3378 1.396 . S
C3379 C3380 1.399 . S
C3380 H3366 0.929 . S
C3380 C3379 1.399 . S
C3380 C3381 1.385 . S
C3381 H3367 0.931 . S
C3381 C3380 1.385 . S
C3381 C3382 1.389 . S
C3382 C3381 1.389 . S
C3382 C3383 1.387 . S
C3383 H3368 0.930 . S
C3383 C3378 1.390 . S
C3383 C3382 1.387 . S
H3384 C3396 0.930 . S
H3385 C3398 0.930 . S
H3386 C3399 0.930 . S
H3387 C3403 0.959 . S
H3388 C3403 0.959 . S
H3389 C3403 0.961 . S
H3390 C3404 0.960 . S
H3391 C3404 0.961 . S
H3392 C3404 0.959 . S
H3393 C3407 0.929 . S
H3394 C3408 0.931 . S
H3395 C3410 0.930 . S
C3396 H3384 0.930 . S
C3396 C3397 1.399 . S
C3396 C3401 1.399 . S
C3397 C3396 1.399 . S
C3397 C3398 1.376 . S
C3398 H3385 0.930 . S
C3398 C3397 1.376 . S
C3398 C3399 1.388 . S
C3399 H3386 0.930 . S
C3399 C3398 1.388 . S
C3399 C3400 1.390 . S
C3400 C3399 1.390 . S
C3400 C3401 1.394 . S
C3400 C3406 1.465 . S
C3401 C3396 1.399 . S
C3401 C3400 1.394 . S
C3401 C3402 1.516 . S
C3402 C3401 1.516 . S
C3402 C3403 1.502 . S
C3402 C3404 1.561 . S
C3402 C3405 1.526 . S
C3403 H3387 0.959 . S
C3403 H3388 0.959 . S
C3403 H3389 0.961 . S
C3403 C3402 1.502 . S
C3404 H3390 0.960 . S
C3404 H3391 0.961 . S
C3404 H3392 0.959 . S
C3404 C3402 1.561 . S
C3405 C3402 1.526 . S
C3405 C3406 1.396 . S
C3405 C3410 1.390 . S
C3406 C3400 1.465 . S
C3406 C3405 1.396 . S
C3406 C3407 1.399 . S
C3407 H3393 0.929 . S
C3407 C3406 1.399 . S
C3407 C3408 1.385 . S
C3408 H3394 0.931 . S
C3408 C3407 1.385 . S
C3408 C3409 1.389 . S
C3409 C3408 1.389 . S
C3409 C3410 1.387 . S
C3410 H3395 0.930 . S
C3410 C3405 1.390 . S
C3410 C3409 1.387 . S
H3411 C3423 0.930 . S
H3412 C3425 0.930 . S
H3413 C3426 0.930 . S
H3414 C3430 0.959 . S
H3415 C3430 0.959 . S
H3416 C3430 0.961 . S
H3417 C3431 0.960 . S
H3418 C3431 0.961 . S
H3419 C3431 0.959 . S
H3420 C3434 0.929 . S
H3421 C3435 0.931 . S
H3422 C3437 0.930 . S
C3423 H3411 0.930 . S
C3423 C3424 1.399 . S
C3423 C3428 1.399 . S
C3424 C3423 1.399 . S
C3424 C3425 1.376 . S
C3425 H3412 0.930 . S
C3425 C3424 1.376 . S
C3425 C3426 1.388 . S
C3426 H3413 0.930 . S
C3426 C3425 1.388 . S
C3426 C3427 1.390 . S
C3427 C3426 1.390 . S
C3427 C3428 1.394 . S
C3427 C3433 1.465 . S
C3428 C3423 1.399 . S
C3428 C3427 1.394 . S
C3428 C3429 1.516 . S
C3429 C3428 1.516 . S
C3429 C3430 1.502 . S
C3429 C3431 1.561 . S
C3429 C3432 1.526 . S
C3430 H3414 0.959 . S
C3430 H3415 0.959 . S
C3430 H3416 0.961 . S
C3430 C3429 1.502 . S
C3431 H3417 0.960 . S
C3431 H3418 0.961 . S
C3431 H3419 0.959 . S
C3431 C3429 1.561 . S
C3432 C3429 1.526 . S
C3432 C3433 1.396 . S
C3432 C3437 1.390 . S
C3433 C3427 1.465 . S
C3433 C3432 1.396 . S
C3433 C3434 1.399 1_554 S
C3434 H3420 0.929 . S
C3434 C3433 1.399 1_556 S
C3434 C3435 1.385 . S
C3435 H3421 0.931 . S
C3435 C3434 1.385 . S
C3435 C3436 1.389 1_556 S
C3436 C3435 1.389 1_554 S
C3436 C3437 1.387 . S
C3437 H3422 0.930 . S
C3437 C3432 1.390 . S
C3437 C3436 1.387 . S
H3438 C3450 0.930 1_556 S
H3439 C3452 0.930 . S
H3440 C3453 0.930 . S
H3441 C3457 0.959 . S
H3442 C3457 0.959 . S
H3443 C3457 0.961 . S
H3444 C3458 0.948 1_556 S
H3445 C3458 0.961 . S
H3446 C3458 0.959 . S
H3447 C3461 0.929 . S
H3448 C3462 0.931 . S
H3449 C3464 0.930 . S
C3450 H3438 0.930 1_554 S
C3450 C3451 1.399 . S
C3450 C3455 1.399 . S
C3451 C3450 1.399 . S
C3451 C3452 1.376 . S
C3452 H3439 0.930 . S
C3452 C3451 1.376 . S
C3452 C3453 1.388 . S
C3453 H3440 0.930 . S
C3453 C3452 1.388 . S
C3453 C3454 1.390 . S
C3454 C3453 1.390 . S
C3454 C3455 1.394 . S
C3454 C3460 1.465 . S
C3455 C3450 1.399 . S
C3455 C3454 1.394 . S
C3455 C3456 1.516 . S
C3456 C3455 1.516 . S
C3456 C3457 1.502 1_554 S
C3456 C3458 1.561 . S
C3456 C3459 1.526 . S
C3457 H3441 0.959 . S
C3457 H3442 0.959 . S
C3457 H3443 0.961 . S
C3457 C3456 1.502 1_556 S
C3458 H3444 0.948 1_554 S
C3458 H3445 0.961 . S
C3458 H3446 0.959 . S
C3458 C3456 1.561 . S
C3459 C3456 1.526 . S
C3459 C3460 1.396 . S
C3459 C3464 1.390 . S
C3460 C3454 1.465 . S
C3460 C3459 1.396 . S
C3460 C3461 1.399 . S
C3461 H3447 0.929 . S
C3461 C3460 1.399 . S
C3461 C3462 1.385 . S
C3462 H3448 0.931 . S
C3462 C3461 1.385 . S
C3462 C3463 1.389 . S
C3463 C3462 1.389 . S
C3463 C3464 1.387 . S
C3464 H3449 0.930 . S
C3464 C3459 1.390 . S
C3464 C3463 1.387 . S
H3465 C3477 0.930 . S
H3466 C3479 0.930 . S
H3467 C3480 0.930 . S
H3468 C3484 0.959 . S
H3469 C3484 0.959 . S
H3470 C3484 0.961 . S
H3471 C3485 0.960 . S
H3472 C3485 0.961 . S
H3473 C3485 0.959 . S
H3474 C3488 0.929 . S
H3475 C3489 0.931 . S
H3476 C3491 0.930 . S
C3477 H3465 0.930 . S
C3477 C3478 1.399 . S
C3477 C3482 1.399 . S
C3478 C3477 1.399 . S
C3478 C3479 1.376 . S
C3479 H3466 0.930 . S
C3479 C3478 1.376 . S
C3479 C3480 1.388 . S
C3480 H3467 0.930 . S
C3480 C3479 1.388 . S
C3480 C3481 1.390 . S
C3481 C3480 1.390 . S
C3481 C3482 1.394 . S
C3481 C3487 1.465 . S
C3482 C3477 1.399 . S
C3482 C3481 1.394 . S
C3482 C3483 1.516 . S
C3483 C3482 1.516 . S
C3483 C3484 1.502 . S
C3483 C3485 1.561 1_554 S
C3483 C3486 1.526 . S
C3484 H3468 0.959 . S
C3484 H3469 0.959 . S
C3484 H3470 0.961 . S
C3484 C3483 1.502 . S
C3485 H3471 0.960 . S
C3485 H3472 0.961 . S
C3485 H3473 0.959 . S
C3485 C3483 1.561 1_556 S
C3486 C3483 1.526 . S
C3486 C3487 1.396 . S
C3486 C3491 1.390 . S
C3487 C3481 1.465 . S
C3487 C3486 1.396 . S
C3487 C3488 1.399 . S
C3488 H3474 0.929 . S
C3488 C3487 1.399 . S
C3488 C3489 1.385 . S
C3489 H3475 0.931 . S
C3489 C3488 1.385 . S
C3489 C3490 1.389 . S
C3490 C3489 1.389 . S
C3490 C3491 1.387 . S
C3491 H3476 0.930 . S
C3491 C3486 1.390 . S
C3491 C3490 1.387 . S
H3492 C3504 0.930 . S
H3493 C3506 0.930 . S
H3494 C3507 0.930 . S
H3495 C3511 0.959 . S
H3496 C3511 0.959 . S
H3497 C3511 0.961 . S
H3498 C3512 0.960 . S
H3499 C3512 0.961 . S
H3500 C3512 0.959 . S
H3501 C3515 0.929 . S
H3502 C3516 0.931 . S
H3503 C3518 0.930 . S
C3504 H3492 0.930 . S
C3504 C3505 1.399 . S
C3504 C3509 1.399 . S
C3505 C3504 1.399 . S
C3505 C3506 1.376 . S
C3506 H3493 0.930 . S
C3506 C3505 1.376 . S
C3506 C3507 1.388 . S
C3507 H3494 0.930 . S
C3507 C3506 1.388 . S
C3507 C3508 1.390 . S
C3508 C3507 1.390 . S
C3508 C3509 1.394 . S
C3508 C3514 1.465 . S
C3509 C3504 1.399 . S
C3509 C3508 1.394 . S
C3509 C3510 1.516 . S
C3510 C3509 1.516 . S
C3510 C3511 1.502 . S
C3510 C3512 1.561 1_556 S
C3510 C3513 1.526 . S
C3511 H3495 0.959 . S
C3511 H3496 0.959 . S
C3511 H3497 0.961 . S
C3511 C3510 1.502 . S
C3512 H3498 0.960 . S
C3512 H3499 0.961 . S
C3512 H3500 0.959 . S
C3512 C3510 1.561 1_554 S
C3513 C3510 1.526 . S
C3513 C3514 1.396 . S
C3513 C3518 1.390 . S
C3514 C3508 1.465 . S
C3514 C3513 1.396 . S
C3514 C3515 1.399 . S
C3515 H3501 0.929 . S
C3515 C3514 1.399 . S
C3515 C3516 1.385 . S
C3516 H3502 0.931 . S
C3516 C3515 1.385 . S
C3516 C3517 1.389 . S
C3517 C3516 1.389 . S
C3517 C3518 1.387 . S
C3518 H3503 0.930 . S
C3518 C3513 1.390 . S
C3518 C3517 1.387 . S
H3519 C3531 0.930 . S
H3520 C3533 0.930 1_554 S
H3521 C3534 0.930 . S
H3522 C3538 0.959 . S
H3523 C3538 0.959 . S
H3524 C3538 0.961 . S
H3525 C3539 0.960 . S
H3526 C3539 0.961 . S
H3527 C3539 0.959 . S
H3528 C3542 0.929 . S
H3529 C3543 0.931 . S
H3530 C3545 0.930 . S
C3531 H3519 0.930 . S
C3531 C3532 1.399 . S
C3531 C3536 1.399 . S
C3532 C3531 1.399 . S
C3532 C3533 1.376 . S
C3533 H3520 0.930 1_556 S
C3533 C3532 1.376 . S
C3533 C3534 1.388 . S
C3534 H3521 0.930 . S
C3534 C3533 1.388 . S
C3534 C3535 1.390 . S
C3535 C3534 1.390 . S
C3535 C3536 1.394 . S
C3535 C3541 1.465 . S
C3536 C3531 1.399 . S
C3536 C3535 1.394 . S
C3536 C3537 1.516 . S
C3537 C3536 1.516 . S
C3537 C3538 1.502 . S
C3537 C3539 1.561 . S
C3537 C3540 1.526 . S
C3538 H3522 0.959 . S
C3538 H3523 0.959 . S
C3538 H3524 0.961 . S
C3538 C3537 1.502 . S
C3539 H3525 0.960 . S
C3539 H3526 0.961 . S
C3539 H3527 0.959 . S
C3539 C3537 1.561 . S
C3540 C3537 1.526 . S
C3540 C3541 1.396 . S
C3540 C3545 1.390 . S
C3541 C3535 1.465 . S
C3541 C3540 1.396 . S
C3541 C3542 1.399 . S
C3542 H3528 0.929 . S
C3542 C3541 1.399 . S
C3542 C3543 1.385 . S
C3543 H3529 0.931 . S
C3543 C3542 1.385 . S
C3543 C3544 1.389 . S
C3544 C3543 1.389 . S
C3544 C3545 1.387 . S
C3545 H3530 0.930 . S
C3545 C3540 1.390 . S
C3545 C3544 1.387 . S
H3546 C3558 0.930 . S
H3547 C3560 0.930 . S
H3548 C3561 0.930 . S
H3549 C3565 0.959 . S
H3550 C3565 0.959 . S
H3551 C3565 0.961 . S
H3552 C3566 0.960 . S
H3553 C3566 0.961 . S
H3554 C3566 0.959 . S
H3555 C3569 0.929 . S
H3556 C3570 0.931 . S
H3557 C3572 0.930 . S
C3558 H3546 0.930 . S
C3558 C3559 1.399 . S
C3558 C3563 1.399 . S
C3559 C3558 1.399 . S
C3559 C3560 1.376 . S
C3560 H3547 0.930 . S
C3560 C3559 1.376 . S
C3560 C3561 1.388 . S
C3561 H3548 0.930 . S
C3561 C3560 1.388 . S
C3561 C3562 1.390 . S
C3562 C3561 1.390 . S
C3562 C3563 1.394 . S
C3562 C3568 1.465 . S
C3563 C3558 1.399 . S
C3563 C3562 1.394 . S
C3563 C3564 1.516 . S
C3564 C3563 1.516 . S
C3564 C3565 1.502 . S
C3564 C3566 1.561 . S
C3564 C3567 1.526 . S
C3565 H3549 0.959 . S
C3565 H3550 0.959 . S
C3565 H3551 0.961 . S
C3565 C3564 1.502 . S
C3566 H3552 0.960 . S
C3566 H3553 0.961 . S
C3566 H3554 0.959 . S
C3566 C3564 1.561 . S
C3567 C3564 1.526 . S
C3567 C3568 1.396 . S
C3567 C3572 1.390 . S
C3568 C3562 1.465 . S
C3568 C3567 1.396 . S
C3568 C3569 1.399 1_556 S
C3569 H3555 0.929 . S
C3569 C3568 1.399 1_554 S
C3569 C3570 1.385 . S
C3570 H3556 0.931 . S
C3570 C3569 1.385 . S
C3570 C3571 1.389 1_554 S
C3571 C3570 1.389 1_556 S
C3571 C3572 1.387 . S
C3572 H3557 0.930 . S
C3572 C3567 1.390 . S
C3572 C3571 1.387 . S
H3573 C3585 0.930 . S
H3574 C3587 0.930 . S
H3575 C3588 0.930 . S
H3576 C3592 0.959 . S
H3577 C3592 0.959 . S
H3578 C3592 0.961 . S
H3579 C3593 0.960 . S
H3580 C3593 0.961 . S
H3581 C3593 0.959 . S
H3582 C3596 0.929 . S
H3583 C3597 0.931 . S
H3584 C3599 0.930 . S
C3585 H3573 0.930 . S
C3585 C3586 1.399 . S
C3585 C3590 1.399 . S
C3586 C3585 1.399 . S
C3586 C3587 1.376 . S
C3587 H3574 0.930 . S
C3587 C3586 1.376 . S
C3587 C3588 1.388 . S
C3588 H3575 0.930 . S
C3588 C3587 1.388 . S
C3588 C3589 1.390 . S
C3589 C3588 1.390 . S
C3589 C3590 1.394 . S
C3589 C3595 1.465 . S
C3590 C3585 1.399 . S
C3590 C3589 1.394 . S
C3590 C3591 1.516 . S
C3591 C3590 1.516 . S
C3591 C3592 1.502 . S
C3591 C3593 1.561 . S
C3591 C3594 1.526 . S
C3592 H3576 0.959 . S
C3592 H3577 0.959 . S
C3592 H3578 0.961 . S
C3592 C3591 1.502 . S
C3593 H3579 0.960 . S
C3593 H3580 0.961 . S
C3593 H3581 0.959 . S
C3593 C3591 1.561 . S
C3594 C3591 1.526 . S
C3594 C3595 1.396 . S
C3594 C3599 1.390 . S
C3595 C3589 1.465 . S
C3595 C3594 1.396 . S
C3595 C3596 1.399 . S
C3596 H3582 0.929 . S
C3596 C3595 1.399 . S
C3596 C3597 1.385 . S
C3597 H3583 0.931 . S
C3597 C3596 1.385 . S
C3597 C3598 1.389 . S
C3598 C3597 1.389 . S
C3598 C3599 1.387 . S
C3599 H3584 0.930 . S
C3599 C3594 1.390 . S
C3599 C3598 1.387 . S
H3600 C3612 0.930 . S
H3601 C3614 0.930 . S
H3602 C3615 0.930 . S
H3603 C3619 0.959 . S
H3604 C3619 0.959 . S
H3605 C3619 0.961 . S
H3606 C3620 0.960 . S
H3607 C3620 0.961 . S
H3608 C3620 0.959 . S
H3609 C3623 0.929 . S
H3610 C3624 0.931 . S
H3611 C3626 0.930 . S
C3612 H3600 0.930 . S
C3612 C3613 1.399 . S
C3612 C3617 1.399 . S
C3613 C3612 1.399 . S
C3613 C3614 1.376 . S
C3614 H3601 0.930 . S
C3614 C3613 1.376 . S
C3614 C3615 1.388 . S
C3615 H3602 0.930 . S
C3615 C3614 1.388 . S
C3615 C3616 1.390 . S
C3616 C3615 1.390 . S
C3616 C3617 1.394 . S
C3616 C3622 1.465 . S
C3617 C3612 1.399 . S
C3617 C3616 1.394 . S
C3617 C3618 1.516 . S
C3618 C3617 1.516 . S
C3618 C3619 1.502 . S
C3618 C3620 1.561 . S
C3618 C3621 1.526 . S
C3619 H3603 0.959 . S
C3619 H3604 0.959 . S
C3619 H3605 0.961 . S
C3619 C3618 1.502 . S
C3620 H3606 0.960 . S
C3620 H3607 0.961 . S
C3620 H3608 0.959 . S
C3620 C3618 1.561 . S
C3621 C3618 1.526 . S
C3621 C3622 1.396 . S
C3621 C3626 1.390 . S
C3622 C3616 1.465 . S
C3622 C3621 1.396 . S
C3622 C3623 1.399 . S
C3623 H3609 0.929 . S
C3623 C3622 1.399 . S
C3623 C3624 1.385 . S
C3624 H3610 0.931 . S
C3624 C3623 1.385 . S
C3624 C3625 1.389 . S
C3625 C3624 1.389 . S
C3625 C3626 1.387 . S
C3626 H3611 0.930 . S
C3626 C3621 1.390 . S
C3626 C3625 1.387 . S
H3627 C3639 0.930 . S
H3628 C3641 0.930 . S
H3629 C3642 0.930 . S
H3630 C3646 0.959 . S
H3631 C3646 0.959 . S
H3632 C3646 0.961 . S
H3633 C3647 0.960 . S
H3634 C3647 0.961 . S
H3635 C3647 0.959 . S
H3636 C3650 0.929 . S
H3637 C3651 0.931 . S
H3638 C3653 0.930 . S
C3639 H3627 0.930 . S
C3639 C3640 1.399 . S
C3639 C3644 1.399 . S
C3640 C3639 1.399 . S
C3640 C3641 1.376 . S
C3641 H3628 0.930 . S
C3641 C3640 1.376 . S
C3641 C3642 1.388 . S
C3642 H3629 0.930 . S
C3642 C3641 1.388 . S
C3642 C3643 1.390 . S
C3643 C3642 1.390 . S
C3643 C3644 1.394 . S
C3643 C3649 1.465 . S
C3644 C3639 1.399 . S
C3644 C3643 1.394 . S
C3644 C3645 1.516 . S
C3645 C3644 1.516 . S
C3645 C3646 1.502 . S
C3645 C3647 1.561 . S
C3645 C3648 1.526 . S
C3646 H3630 0.959 . S
C3646 H3631 0.959 . S
C3646 H3632 0.961 . S
C3646 C3645 1.502 . S
C3647 H3633 0.960 . S
C3647 H3634 0.961 . S
C3647 H3635 0.959 . S
C3647 C3645 1.561 . S
C3648 C3645 1.526 . S
C3648 C3649 1.396 . S
C3648 C3653 1.390 . S
C3649 C3643 1.465 . S
C3649 C3648 1.396 . S
C3649 C3650 1.399 . S
C3650 H3636 0.929 . S
C3650 C3649 1.399 . S
C3650 C3651 1.385 . S
C3651 H3637 0.931 . S
C3651 C3650 1.385 . S
C3651 C3652 1.389 . S
C3652 C3651 1.389 . S
C3652 C3653 1.387 . S
C3653 H3638 0.930 . S
C3653 C3648 1.390 . S
C3653 C3652 1.387 . S
C1237 C549 1.363 . S
C1249 C5 1.339 . S
C1264 C583 1.353 . S
C1276 C39 1.338 . S
C1291 C73 1.400 . S
C1303 C515 1.372 . S
C1318 C889 1.338 . S
C1330 C107 1.369 . S
C1345 C821 1.354 . S
C1357 C141 1.340 . S
C1372 C855 1.357 . S
C1384 C175 1.393 . S
C1399 C1161 1.336 . S
C1411 C209 1.338 . S
C1426 C243 1.346 . S
C1438 C1195 1.336 . S
C1453 C277 1.389 . S
C1465 C1127 1.398 . S
C1480 C311 1.373 . S
C1492 C685 1.387 . S
C1507 C617 1.391 . S
C1519 C345 1.378 . S
C1534 C379 1.391 . S
C1546 C651 1.375 . S
C1561 C957 1.301 . S
C1573 C413 1.273 . S
C1588 C447 1.300 . S
C1600 C991 1.339 . S
C1615 C481 1.274 . S
C1627 C923 1.300 . S
C1642 C1093 1.326 . S
C1654 C719 1.341 . S
C1669 C753 1.346 . S
C1681 C1025 1.340 . S
C1696 C787 1.333 . S
C1708 C1059 1.307 . S
C1723 C2 0.514 . S
C1735 C614 0.441 . S
C1750 C648 0.431 . S
C1762 C36 0.523 . S
C1777 C682 0.382 . S
C1789 C70 0.577 . S
C1804 C104 0.532 . S
C1816 C1124 0.428 . S
C1831 C138 0.551 . S
C1843 C1158 0.462 . S
C1858 C172 0.498 . S
C1870 C1192 0.521 . S
C1885 C206 0.573 . S
C1897 C818 0.417 . S
C1912 C240 0.486 . S
C1924 C852 0.467 . S
C1939 C274 0.421 . S
C1951 C886 0.573 . S
C1966 C512 0.466 . S
C1978 C308 0.548 . S
C1993 C342 0.429 . S
C2005 C546 0.530 . S
C2020 C580 0.492 . S
C2032 C376 0.467 . S
C2047 C410 0.561 . S
C2059 C1022 0.497 . S
C2074 C444 0.476 . S
C2086 C1056 0.581 . S
C2101 C1090 0.565 . S
C2113 C478 0.539 . S
C2128 C920 0.593 . S
C2140 C716 0.531 . S
C2155 C954 0.563 . S
C2167 C750 0.561 . S
C2182 C988 0.519 . S
C2194 C784 0.629 . S
C2209 C33 1.170 . S
C2221 C349 1.113 . S
C2236 C67 1.181 . S
C2248 C383 1.149 . S
C2263 C315 1.165 . S
C2275 C101 1.177 . S
C2290 C135 1.117 . S
C2302 C281 1.153 . S
C2317 C213 1.096 . S
C2329 C169 1.133 . S
C2344 C247 1.132 . S
C2356 C203 1.180 . S
C2371 C145 1.111 . S
C2383 C237 1.127 . S
C2398 C179 1.160 . S
C2410 C271 1.109 . S
C2425 C305 1.171 . S
C2437 C111 1.152 . S
C2452 C339 1.176 . S
C2464 C77 1.151 . S
C2479 C9 1.163 . S
C2491 C373 1.113 . S
C2506 C407 1.115 . S
C2518 C43 1.170 . S
C2533 C441 1.217 . S
C2545 C757 1.223 . S
C2560 C475 1.162 . S
C2572 C791 1.178 . S
C2587 C723 1.144 . S
C2599 C509 1.181 . S
C2614 C543 1.169 . S
C2626 C689 1.111 . S
C2641 C577 1.128 . S
C2653 C621 1.097 . S
C2668 C611 1.132 . S
C2680 C655 1.096 . S
C2695 C645 1.191 . S
C2707 C553 1.147 . S
C2722 C679 1.123 . S
C2734 C587 1.151 . S
C2749 C519 1.188 . S
C2761 C713 1.136 . S
C2776 C485 1.111 . S
C2788 C747 1.050 . S
C2803 C417 1.072 . S
C2815 C781 1.114 . S
C2830 C451 1.027 . S
C2842 C815 1.091 . S
C2857 C1165 1.156 . S
C2869 C849 1.126 . S
C2884 C1199 1.106 . S
C2896 C883 1.139 . S
C2911 C1131 1.174 . S
C2923 C917 1.189 . S
C2938 C1097 1.040 . S
C2950 C951 1.046 . S
C2965 C985 1.118 . S
C2977 C1029 1.087 . S
C2992 C1063 1.087 . S
C3004 C1019 1.048 . S
C3019 C961 1.156 . S
C3031 C1053 1.182 . S
C3046 C995 1.169 . S
C3058 C1087 1.172 . S
C3073 C927 1.155 . S
C3085 C1121 1.225 . S
C3100 C1155 1.179 . S
C3112 C893 1.143 . S
C3127 C825 1.142 . S
C3139 C1189 1.178 . S
C3154 C859 1.167 . S
C3166 C1223 1.163 . S
C3181 C190 1.003 . S
C3193 C20 1.020 . S
C3208 C54 1.000 . S
C3220 C122 1.024 . S
C3235 C156 1.027 . S
C3247 C88 0.999 . S
C3262 C394 1.011 . S
C3274 C224 1.003 . S
C3289 C326 1.022 . S
C3301 C258 0.999 . S
C3316 C360 1.013 . S
C3328 C292 1.003 . S
C3343 C598 1.015 . S
C3355 C428 1.025 . S
C3370 C530 1.033 . S
C3382 C462 1.010 . S
C3397 C564 1.026 . S
C3409 C496 1.019 . S
C3424 C632 1.018 . S
C3436 C802 1.047 . S
C3451 C734 1.017 . S
C3463 C666 1.048 . S
C3478 C700 1.036 . S
C3490 C768 1.019 . S
C3505 C1006 1.022 . S
C3517 C836 1.038 . S
C3532 C938 1.043 . S
C3544 C870 1.027 . S
C3559 C904 1.020 . S
C3571 C972 1.047 . S
C3586 C1210 1.011 . S
C3598 C1040 1.021 . S
C3613 C1142 1.008 . S
C3625 C1074 1.031 . S
C3640 C1176 1.028 . S
C3652 C1108 1.007 . S
