# Generated by pormake.
# Topology vbj, (5)-cn, num edge types: 1
# Building blocks:
#     Node 0, Type 0, BuildingBlock: BEQFEK_clean_sbu_0, # of connection points: 5
#     Node 1, Type 0, BuildingBlock: BEQFEK_clean_sbu_0, # of connection points: 5
#     Node 2, Type 0, BuildingBlock: BEQFEK_clean_sbu_0, # of connection points: 5
#     Node 3, Type 0, BuildingBlock: BEQFEK_clean_sbu_0, # of connection points: 5
#     Node 4, Type 0, BuildingBlock: BEQFEK_clean_sbu_0, # of connection points: 5
#     Node 5, Type 0, BuildingBlock: BEQFEK_clean_sbu_0, # of connection points: 5
#     Node 6, Type 0, BuildingBlock: BEQFEK_clean_sbu_0, # of connection points: 5
#     Node 7, Type 0, BuildingBlock: BEQFEK_clean_sbu_0, # of connection points: 5
#     Node 8, Type 0, BuildingBlock: BEQFEK_clean_sbu_0, # of connection points: 5
#     Node 9, Type 0, BuildingBlock: BEQFEK_clean_sbu_0, # of connection points: 5
#     Node 10, Type 0, BuildingBlock: BEQFEK_clean_sbu_0, # of connection points: 5
#     Node 11, Type 0, BuildingBlock: BEQFEK_clean_sbu_0, # of connection points: 5
#     Node 12, Type 0, BuildingBlock: BEQFEK_clean_sbu_0, # of connection points: 5
#     Node 13, Type 0, BuildingBlock: BEQFEK_clean_sbu_0, # of connection points: 5
#     Node 14, Type 0, BuildingBlock: BEQFEK_clean_sbu_0, # of connection points: 5
#     Node 15, Type 0, BuildingBlock: BEQFEK_clean_sbu_0, # of connection points: 5
#     Edge 16, Type (0, 0), BuildingBlock: CIFDUS_clean_linker_0, # of connection points: 2
#     Edge 17, Type (0, 0), BuildingBlock: CIFDUS_clean_linker_0, # of connection points: 2
#     Edge 18, Type (0, 0), BuildingBlock: CIFDUS_clean_linker_0, # of connection points: 2
#     Edge 19, Type (0, 0), BuildingBlock: CIFDUS_clean_linker_0, # of connection points: 2
#     Edge 20, Type (0, 0), BuildingBlock: CIFDUS_clean_linker_0, # of connection points: 2
#     Edge 21, Type (0, 0), BuildingBlock: CIFDUS_clean_linker_0, # of connection points: 2
#     Edge 22, Type (0, 0), BuildingBlock: CIFDUS_clean_linker_0, # of connection points: 2
#     Edge 23, Type (0, 0), BuildingBlock: CIFDUS_clean_linker_0, # of connection points: 2
#     Edge 24, Type (0, 0), BuildingBlock: CIFDUS_clean_linker_0, # of connection points: 2
#     Edge 25, Type (0, 0), BuildingBlock: CIFDUS_clean_linker_0, # of connection points: 2
#     Edge 26, Type (0, 0), BuildingBlock: CIFDUS_clean_linker_0, # of connection points: 2
#     Edge 27, Type (0, 0), BuildingBlock: CIFDUS_clean_linker_0, # of connection points: 2
#     Edge 28, Type (0, 0), BuildingBlock: CIFDUS_clean_linker_0, # of connection points: 2
#     Edge 29, Type (0, 0), BuildingBlock: CIFDUS_clean_linker_0, # of connection points: 2
#     Edge 30, Type (0, 0), BuildingBlock: CIFDUS_clean_linker_0, # of connection points: 2
#     Edge 31, Type (0, 0), BuildingBlock: CIFDUS_clean_linker_0, # of connection points: 2
#     Edge 32, Type (0, 0), BuildingBlock: CIFDUS_clean_linker_0, # of connection points: 2
#     Edge 33, Type (0, 0), BuildingBlock: CIFDUS_clean_linker_0, # of connection points: 2
#     Edge 34, Type (0, 0), BuildingBlock: CIFDUS_clean_linker_0, # of connection points: 2
#     Edge 35, Type (0, 0), BuildingBlock: CIFDUS_clean_linker_0, # of connection points: 2
#     Edge 36, Type (0, 0), BuildingBlock: CIFDUS_clean_linker_0, # of connection points: 2
#     Edge 37, Type (0, 0), BuildingBlock: CIFDUS_clean_linker_0, # of connection points: 2
#     Edge 38, Type (0, 0), BuildingBlock: CIFDUS_clean_linker_0, # of connection points: 2
#     Edge 39, Type (0, 0), BuildingBlock: CIFDUS_clean_linker_0, # of connection points: 2
#     Edge 40, Type (0, 0), BuildingBlock: CIFDUS_clean_linker_0, # of connection points: 2
#     Edge 41, Type (0, 0), BuildingBlock: CIFDUS_clean_linker_0, # of connection points: 2
#     Edge 42, Type (0, 0), BuildingBlock: CIFDUS_clean_linker_0, # of connection points: 2
#     Edge 43, Type (0, 0), BuildingBlock: CIFDUS_clean_linker_0, # of connection points: 2
#     Edge 44, Type (0, 0), BuildingBlock: CIFDUS_clean_linker_0, # of connection points: 2
#     Edge 45, Type (0, 0), BuildingBlock: CIFDUS_clean_linker_0, # of connection points: 2
#     Edge 46, Type (0, 0), BuildingBlock: CIFDUS_clean_linker_0, # of connection points: 2
#     Edge 47, Type (0, 0), BuildingBlock: CIFDUS_clean_linker_0, # of connection points: 2
#     Edge 48, Type (0, 0), BuildingBlock: CIFDUS_clean_linker_0, # of connection points: 2
#     Edge 49, Type (0, 0), BuildingBlock: CIFDUS_clean_linker_0, # of connection points: 2
#     Edge 50, Type (0, 0), BuildingBlock: CIFDUS_clean_linker_0, # of connection points: 2
#     Edge 51, Type (0, 0), BuildingBlock: CIFDUS_clean_linker_0, # of connection points: 2
#     Edge 52, Type (0, 0), BuildingBlock: CIFDUS_clean_linker_0, # of connection points: 2
#     Edge 53, Type (0, 0), BuildingBlock: CIFDUS_clean_linker_0, # of connection points: 2
#     Edge 54, Type (0, 0), BuildingBlock: CIFDUS_clean_linker_0, # of connection points: 2
#     Edge 55, Type (0, 0), BuildingBlock: CIFDUS_clean_linker_0, # of connection points: 2
# Relax obj value: 0.110
# Max RMSD: 0.134
# Mean RMSD: 0.134
data_MOF--net-vbj--node1-BEQFEK_clean_sbu_0--edge1-CIFDUS_clean_linker_0
_symmetry_space_group_name_H-M    P1
_symmetry_Int_Tables_number       1
_symmetry_cell_setting            triclinic
loop_
_symmetry_equiv_pos_as_xyz
'x, y, z'
_cell_length_a     22.959233
_cell_length_b     65.631041
_cell_length_c     40.450095
_cell_angle_alpha  89.850056
_cell_angle_beta   89.953081
_cell_angle_gamma 90.35236
loop_
_atom_site_label
_atom_site_type_symbol
_atom_site_fract_x
_atom_site_fract_y
_atom_site_fract_z
_atom_type_partial_charge
Co0 Co 0.06766 0.1556 0.09244 0.0
Co1 Co 0.06286 0.1073 0.0959 0.0
C2 C 0.05782 0.13288 0.15657 0.0
O3 O 0.06237 0.14915 0.13964 0.0
O4 O 0.05724 0.11541 0.14292 0.0
C5 C 0.03423 0.19513 0.10414 0.0
O6 O -0.00194 0.18433 0.1224 0.0
C7 C 0.10811 0.06609 0.11018 0.0
C8 C 0.06098 0.04749 0.07336 0.0
C9 C 0.10338 0.04642 0.09764 0.0
N10 N 0.07109 0.07821 0.09355 0.0
N11 N 0.04237 0.06689 0.07198 0.0
C12 C 0.14539 0.07333 0.13821 0.0
H13 H 0.16223 0.08889 0.13298 0.0
H14 H 0.18177 0.06278 0.14337 0.0
H15 H 0.11797 0.0743 0.16075 0.0
C16 C 0.17214 0.14684 0.05305 0.0
N17 N 0.12789 0.14076 0.07252 0.0
N18 N 0.12665 0.12068 0.07404 0.0
C19 C 0.17083 0.11337 0.05565 0.0
C20 C 0.20083 0.12969 0.04169 0.0
C21 C 0.18242 0.16854 0.04305 0.0
H22 H 0.14017 0.17602 0.03795 0.0
H23 H 0.20357 0.17677 0.0638 0.0
H24 H 0.21047 0.16972 0.02078 0.0
O25 O -0.00469 0.14838 0.07032 0.0
O26 O 0.98895 0.11459 0.07287 0.0
H27 H 0.1461 0.08305 0.04166 0.0
H28 H 0.22273 0.08851 0.03586 0.0
C29 C 0.18447 0.0912 0.05188 0.0
H30 H 0.19476 0.08473 0.07641 0.0
H31 H 0.01144 0.07255 0.05551 0.0
O32 O 0.07354 0.18584 0.08793 0.0
C33 C 0.96873 0.13182 0.06406 0.0
Co34 Co 0.42879 0.85513 0.0923 0.0
Co35 Co 0.40932 0.90271 0.08238 0.0
C36 C 0.46419 0.88529 0.14343 0.0
O37 O 0.45941 0.86711 0.13295 0.0
O38 O 0.44623 0.90038 0.12654 0.0
C39 C 0.4825 0.81769 0.10649 0.0
O40 O 0.52244 0.8306 0.1168 0.0
C41 C 0.34744 0.94172 0.09403 0.0
C42 C 0.38582 0.96117 0.05495 0.0
C43 C 0.34589 0.96128 0.08066 0.0
N44 N 0.38612 0.93062 0.07674 0.0
N45 N 0.40889 0.9424 0.0535 0.0
C46 C 0.31576 0.93403 0.12392 0.0
H47 H 0.33723 0.9202 0.13387 0.0
H48 H 0.27038 0.92998 0.11716 0.0
H49 H 0.3141 0.94605 0.14314 0.0
C50 C 0.30311 0.85471 0.07698 0.0
N51 N 0.35261 0.8648 0.08423 0.0
N52 N 0.34554 0.88436 0.07806 0.0
C53 C 0.29234 0.88718 0.06504 0.0
C54 C 0.26305 0.86857 0.06457 0.0
C55 C 0.2964 0.83209 0.07987 0.0
H56 H 0.31799 0.82475 0.05847 0.0
H57 H 0.31818 0.82666 0.1027 0.0
H58 H 0.24975 0.82756 0.08039 0.0
O59 O 0.4792 0.86305 0.05507 0.0
O60 O 0.4662 0.89628 0.04747 0.0
H61 H 0.31457 0.91415 0.03714 0.0
H62 H 0.24744 0.90244 0.02496 0.0
C63 C 0.27543 0.90609 0.04651 0.0
H64 H 0.25091 0.91634 0.06312 0.0
H65 H 0.44032 0.93763 0.03659 0.0
O66 O 0.43476 0.82469 0.09524 0.0
C67 C 0.48991 0.87951 0.03948 0.0
Co68 Co 0.53734 0.85411 0.39323 0.0
Co69 Co 0.5528 0.90204 0.39307 0.0
C70 C 0.55504 0.87806 0.33085 0.0
O71 O 0.54971 0.86132 0.34654 0.0
O72 O 0.55554 0.89514 0.34569 0.0
C73 C 0.56506 0.81016 0.38841 0.0
O74 O 0.61821 0.81515 0.37933 0.0
C75 C 0.60631 0.94292 0.38256 0.0
C76 C 0.56131 0.9608 0.42099 0.0
C77 C 0.60273 0.96228 0.39621 0.0
N78 N 0.56898 0.93053 0.39881 0.0
N79 N 0.54201 0.9414 0.42157 0.0
C80 C 0.64203 0.93648 0.35347 0.0
H81 H 0.64846 0.91974 0.35372 0.0
H82 H 0.6848 0.94438 0.35308 0.0
H83 H 0.61853 0.94062 0.33047 0.0
C84 C 0.63423 0.85797 0.44212 0.0
N85 N 0.59646 0.86583 0.42011 0.0
N86 N 0.60534 0.88566 0.4179 0.0
C87 C 0.65042 0.8909 0.4374 0.0
C88 C 0.66982 0.87359 0.45379 0.0
C89 C 0.63331 0.83627 0.45353 0.0
H90 H 0.58861 0.82989 0.45171 0.0
H91 H 0.66265 0.82719 0.43762 0.0
H92 H 0.64879 0.83505 0.47944 0.0
O93 O 0.46148 0.86406 0.40741 0.0
O94 O 0.47277 0.89762 0.41032 0.0
H95 H 0.64817 0.92227 0.45165 0.0
H96 H 0.72097 0.91191 0.44941 0.0
C97 C 0.67716 0.91177 0.43798 0.0
H98 H 0.68206 0.91741 0.41237 0.0
H99 H 0.51071 0.93551 0.43776 0.0
O100 O 0.52887 0.82396 0.39589 0.0
C101 C 0.4418 0.88161 0.41392 0.0
Co102 Co 0.89306 0.16059 0.38996 0.0
Co103 Co 0.88305 0.11264 0.40132 0.0
C104 C 0.93174 0.13082 0.33902 0.0
O105 O 0.92406 0.14907 0.34868 0.0
O106 O 0.91752 0.11562 0.35692 0.0
C107 C 0.89058 0.20131 0.36056 0.0
O108 O 0.87647 0.19162 0.33331 0.0
C109 C 0.8315 0.07162 0.39072 0.0
C110 C 0.87091 0.05435 0.43189 0.0
C111 C 0.8331 0.05245 0.40539 0.0
N112 N 0.8663 0.08427 0.40806 0.0
N113 N 0.88988 0.07377 0.43249 0.0
C114 C 0.80052 0.07757 0.35966 0.0
H115 H 0.81925 0.09186 0.34936 0.0
H116 H 0.7538 0.08013 0.365 0.0
H117 H 0.80345 0.06513 0.34118 0.0
C118 C 0.76759 0.15736 0.40794 0.0
N119 N 0.81903 0.14886 0.40015 0.0
N120 N 0.81588 0.12908 0.40589 0.0
C121 C 0.76309 0.1245 0.41838 0.0
C122 C 0.73028 0.14215 0.41944 0.0
C123 C 0.75641 0.17976 0.40682 0.0
H124 H 0.7739 0.18623 0.38344 0.0
H125 H 0.70916 0.18305 0.40874 0.0
H126 H 0.77968 0.18721 0.42761 0.0
O127 O 0.94749 0.15413 0.42575 0.0
O128 O 0.94027 0.12083 0.43499 0.0
H129 H 0.78834 0.09813 0.44656 0.0
H130 H 0.71634 0.10693 0.4555 0.0
C131 C 0.74871 0.10478 0.43546 0.0
H132 H 0.73005 0.09393 0.41737 0.0
H133 H 0.91888 0.07992 0.44977 0.0
O134 O 0.89567 0.19124 0.38732 0.0
C135 C 0.962 0.13821 0.44161 0.0
Co136 Co 0.92967 0.85918 0.89456 0.0
Co137 Co 0.91137 0.90586 0.90741 0.0
C138 C 0.96558 0.89 0.84505 0.0
O139 O 0.96074 0.87161 0.85452 0.0
O140 O 0.94804 0.90464 0.86296 0.0
C141 C 0.92868 0.82013 0.86241 0.0
O142 O 0.91145 0.83042 0.83633 0.0
C143 C 0.84356 0.94275 0.89622 0.0
C144 C 0.8799 0.96401 0.93318 0.0
C145 C 0.83798 0.96227 0.90871 0.0
N146 N 0.88626 0.93327 0.91284 0.0
N147 N 0.90818 0.94612 0.93472 0.0
C148 C 0.81105 0.93354 0.86783 0.0
H149 H 0.8346 0.92011 0.85807 0.0
H150 H 0.76722 0.92851 0.87608 0.0
H151 H 0.80515 0.94505 0.84796 0.0
C152 C 0.80401 0.85812 0.90992 0.0
N153 N 0.85352 0.86836 0.90308 0.0
N154 N 0.84717 0.88763 0.9112 0.0
C155 C 0.79457 0.89005 0.92525 0.0
C156 C 0.76485 0.87155 0.9242 0.0
C157 C 0.7964 0.83569 0.90489 0.0
H158 H 0.82166 0.82737 0.92396 0.0
H159 H 0.81369 0.83141 0.88031 0.0
H160 H 0.74986 0.83111 0.90644 0.0
O161 O 0.97977 0.86608 0.93234 0.0
O162 O 0.96787 0.89908 0.94238 0.0
H163 H 0.81866 0.9161 0.95481 0.0
H164 H 0.7539 0.90317 0.96844 0.0
C165 C 0.77897 0.90803 0.94629 0.0
H166 H 0.75151 0.91868 0.93192 0.0
H167 H 0.94193 0.94258 0.95098 0.0
O168 O 0.93549 0.8293 0.88977 0.0
C169 C 0.99092 0.88198 0.94918 0.0
Co170 Co 0.56229 0.1658 0.89067 0.0
Co171 Co 0.57782 0.11809 0.8939 0.0
C172 C 0.54084 0.13742 0.8325 0.0
O173 O 0.54214 0.15473 0.84666 0.0
O174 O 0.55507 0.12129 0.84772 0.0
C175 C 0.59207 0.20887 0.8743 0.0
O176 O 0.64371 0.20295 0.86435 0.0
C177 C 0.62996 0.0779 0.88257 0.0
C178 C 0.60595 0.06153 0.9284 0.0
C179 C 0.63726 0.05962 0.89932 0.0
N180 N 0.59679 0.09017 0.90122 0.0
N181 N 0.5816 0.08013 0.92828 0.0
C182 C 0.6532 0.08366 0.84919 0.0
H183 H 0.66022 0.10038 0.8476 0.0
H184 H 0.69409 0.07551 0.84343 0.0
H185 H 0.6204 0.0794 0.83026 0.0
C186 C 0.67712 0.16403 0.92437 0.0
N187 N 0.63387 0.15548 0.90652 0.0
N188 N 0.64175 0.1356 0.90535 0.0
C189 C 0.69196 0.13109 0.9208 0.0
C190 C 0.71524 0.14881 0.93408 0.0
C191 C 0.67619 0.18547 0.93687 0.0
H192 H 0.63129 0.19157 0.93631 0.0
H193 H 0.70458 0.1951 0.92097 0.0
H194 H 0.69324 0.18624 0.96251 0.0
O195 O 0.50311 0.15791 0.92257 0.0
O196 O 0.51002 0.12409 0.92308 0.0
H197 H 0.69025 0.10063 0.94001 0.0
H198 H 0.76276 0.1104 0.93206 0.0
C199 C 0.71713 0.11014 0.92313 0.0
H200 H 0.71744 0.10315 0.89834 0.0
H201 H 0.55642 0.08626 0.94726 0.0
O202 O 0.55629 0.196 0.88634 0.0
C203 C 0.48654 0.14055 0.93287 0.0
Co204 Co 0.39388 0.1756 0.59194 0.0
Co205 Co 0.38672 0.12761 0.58789 0.0
C206 C 0.41423 0.1505 0.65094 0.0
O207 O 0.40864 0.16773 0.63709 0.0
O208 O 0.40826 0.13392 0.63486 0.0
C209 C 0.38148 0.21711 0.61307 0.0
O210 O 0.35885 0.20904 0.63996 0.0
C211 C 0.32141 0.08975 0.60138 0.0
C212 C 0.3628 0.0679 0.56743 0.0
C213 C 0.31756 0.06977 0.58997 0.0
N214 N 0.3658 0.09922 0.58574 0.0
N215 N 0.39078 0.08597 0.56578 0.0
C216 C 0.28492 0.09972 0.62735 0.0
H217 H 0.30992 0.11207 0.63963 0.0
H218 H 0.24608 0.10667 0.61574 0.0
H219 H 0.27014 0.08838 0.646 0.0
C220 C 0.27537 0.17176 0.565 0.0
N221 N 0.32439 0.16359 0.57722 0.0
N222 N 0.32292 0.14369 0.57324 0.0
C223 C 0.27421 0.13867 0.55659 0.0
C224 C 0.24187 0.15622 0.55149 0.0
C225 C 0.26194 0.19403 0.566 0.0
H226 H 0.28783 0.20203 0.54671 0.0
H227 H 0.27457 0.20033 0.59036 0.0
H228 H 0.21493 0.19686 0.56183 0.0
O229 O 0.45905 0.16695 0.56405 0.0
O230 O 0.45392 0.13328 0.5583 0.0
H231 H 0.30657 0.11102 0.53492 0.0
H232 H 0.24052 0.12025 0.51661 0.0
C233 C 0.26445 0.11845 0.54025 0.0
H234 H 0.23813 0.10845 0.55666 0.0
H235 H 0.42593 0.08943 0.55034 0.0
O236 O 0.39525 0.20564 0.58912 0.0
C237 C 0.47801 0.15041 0.55201 0.0
Co238 Co 0.04508 0.86506 0.59212 0.0
Co239 Co 0.04423 0.91345 0.59533 0.0
C240 C 0.05027 0.88657 0.65601 0.0
O241 O 0.05097 0.87012 0.6395 0.0
O242 O 0.04675 0.90389 0.64191 0.0
C243 C 0.06933 0.82135 0.60068 0.0
O244 O 0.10928 0.82678 0.62218 0.0
C245 C 0.11043 0.95129 0.60666 0.0
C246 C 0.05643 0.97441 0.58178 0.0
C247 C 0.10925 0.97182 0.59786 0.0
N248 N 0.06156 0.9422 0.59547 0.0
N249 N 0.02904 0.95619 0.58109 0.0
C250 C 0.15663 0.94037 0.62577 0.0
H251 H 0.13712 0.92774 0.64035 0.0
H252 H 0.18857 0.93363 0.60845 0.0
H253 H 0.17988 0.95099 0.64257 0.0
C254 C 0.14848 0.87384 0.54989 0.0
N255 N 0.10383 0.87964 0.56922 0.0
N256 N 0.10011 0.89969 0.56862 0.0
C257 C 0.14046 0.90715 0.54761 0.0
C258 C 0.17331 0.89114 0.53571 0.0
C259 C 0.16722 0.85221 0.54577 0.0
H260 H 0.16089 0.84376 0.56923 0.0
H261 H 0.21362 0.85131 0.53827 0.0
H262 H 0.13988 0.84487 0.52651 0.0
O263 O 0.96939 0.8745 0.57564 0.0
O264 O 0.96533 0.90834 0.57723 0.0
H265 H 0.15875 0.92924 0.50929 0.0
H266 H 0.17158 0.93798 0.55056 0.0
C267 C 0.14204 0.92866 0.53504 0.0
H268 H 0.09784 0.93531 0.53547 0.0
H269 H 0.98908 0.95318 0.56977 0.0
O270 O 0.04158 0.8349 0.58475 0.0
C271 C 0.9424 0.89109 0.57059 0.0
Co272 Co 0.59256 0.66215 0.09166 0.0
Co273 Co 0.60368 0.61451 0.08024 0.0
C274 C 0.58763 0.63252 0.14737 0.0
O275 O 0.58641 0.65073 0.13646 0.0
O276 O 0.59411 0.6174 0.1282 0.0
C277 C 0.60345 0.70363 0.11732 0.0
O278 O 0.63066 0.69515 0.14233 0.0
C279 C 0.67125 0.57676 0.08309 0.0
C280 C 0.618 0.55578 0.05282 0.0
C281 C 0.66911 0.557 0.07093 0.0
N282 N 0.62401 0.58678 0.07227 0.0
N283 N 0.59216 0.57411 0.05437 0.0
C284 C 0.71555 0.58572 0.10607 0.0
H285 H 0.75395 0.59105 0.09178 0.0
H286 H 0.73044 0.57406 0.12404 0.0
H287 H 0.69723 0.59899 0.11934 0.0
C288 C 0.70478 0.66167 0.05559 0.0
N289 N 0.65963 0.65216 0.07034 0.0
N290 N 0.66121 0.63259 0.06323 0.0
C291 C 0.70549 0.62921 0.04226 0.0
C292 C 0.73546 0.64739 0.03732 0.0
C293 C 0.7172 0.68397 0.05879 0.0
H294 H 0.6895 0.69247 0.04108 0.0
H295 H 0.70628 0.68913 0.08411 0.0
H296 H 0.76366 0.68745 0.05357 0.0
O297 O 0.52423 0.6538 0.0655 0.0
O298 O 0.52921 0.62019 0.05883 0.0
H299 H 0.6692 0.60241 0.01932 0.0
H300 H 0.73009 0.61342 -0.00243 0.0
C301 C 0.71198 0.61006 0.02245 0.0
H302 H 0.74213 0.59954 0.0352 0.0
H303 H 0.55297 0.57802 0.04303 0.0
O304 O 0.58719 0.6926 0.09319 0.0
C305 C 0.50366 0.63711 0.05448 0.0
Co306 Co 0.94138 0.35116 0.07588 0.0
Co307 Co 0.9245 0.39842 0.06476 0.0
C308 C 0.98009 0.38149 0.12577 0.0
O309 O 0.9744 0.36327 0.11568 0.0
O310 O 0.96252 0.39651 0.1086 0.0
C311 C 0.93919 0.31205 0.10824 0.0
O312 O 0.92437 0.32279 0.13426 0.0
C313 C 0.86252 0.43683 0.07629 0.0
C314 C 0.89767 0.45647 0.03648 0.0
C315 C 0.85824 0.45615 0.06243 0.0
N316 N 0.90197 0.42619 0.05898 0.0
N317 N 0.92319 0.43808 0.0354 0.0
C318 C 0.83207 0.42885 0.10644 0.0
H319 H 0.85735 0.41626 0.1177 0.0
H320 H 0.78862 0.42277 0.09956 0.0
H321 H 0.82577 0.44125 0.12469 0.0
C322 C 0.81466 0.35138 0.06282 0.0
N323 N 0.86527 0.36112 0.06883 0.0
N324 N 0.8594 0.38061 0.06177 0.0
C325 C 0.80601 0.38368 0.04919 0.0
C326 C 0.77527 0.36538 0.0502 0.0
C327 C 0.80605 0.32892 0.06703 0.0
H328 H 0.83003 0.3208 0.04725 0.0
H329 H 0.82422 0.32405 0.09114 0.0
H330 H 0.75923 0.32467 0.06602 0.0
O331 O 0.99053 0.35815 0.0375 0.0
O332 O 0.97896 0.3914 0.02921 0.0
H333 H 0.82974 0.40985 0.01961 0.0
H334 H 0.76267 0.39799 0.00771 0.0
C335 C 0.79018 0.40216 0.02921 0.0
H336 H 0.76529 0.41292 0.04477 0.0
H337 H 0.95451 0.43354 0.01827 0.0
O338 O 0.94555 0.32097 0.08053 0.0
C339 C 0.00116 0.37439 0.02126 0.0
Co340 Co 0.06304 0.35457 0.37923 0.0
Co341 Co 0.0831 0.40275 0.37461 0.0
C342 C 0.0677 0.37661 0.31465 0.0
O343 O 0.06248 0.36045 0.33183 0.0
O344 O 0.07518 0.39399 0.32799 0.0
C345 C 0.01184 0.31616 0.36913 0.0
O346 O 0.98051 0.32798 0.34992 0.0
C347 C 0.14947 0.44158 0.36261 0.0
C348 C 0.09239 0.46342 0.38827 0.0
C349 C 0.14383 0.46216 0.3705 0.0
N350 N 0.10363 0.4313 0.37547 0.0
N351 N 0.06975 0.44454 0.39061 0.0
C352 C 0.19543 0.43197 0.34168 0.0
H353 H 0.17965 0.41721 0.33167 0.0
H354 H 0.23465 0.42903 0.35688 0.0
H355 H 0.20812 0.44236 0.32117 0.0
C356 C 0.1736 0.35819 0.41698 0.0
N357 N 0.13125 0.36624 0.39814 0.0
N358 N 0.13699 0.38626 0.39786 0.0
C359 C 0.18073 0.39163 0.41811 0.0
C360 C 0.20653 0.37404 0.43031 0.0
C361 C 0.18119 0.3358 0.42222 0.0
H362 H 0.1534 0.33078 0.44321 0.0
H363 H 0.16717 0.32734 0.39985 0.0
H364 H 0.22727 0.33215 0.42787 0.0
O365 O -0.00566 0.36674 0.40107 0.0
O366 O 0.00887 0.40022 0.39793 0.0
H367 H 0.1477 0.42113 0.43119 0.0
H368 H 0.20768 0.41291 0.45609 0.0
C369 C 0.18964 0.41291 0.43066 0.0
H370 H 0.22037 0.42119 0.41424 0.0
H371 H 0.03107 0.44068 0.40275 0.0
O372 O 0.05392 0.32416 0.38523 0.0
C373 C 0.97882 0.38493 0.40721 0.0
Co374 Co 0.43086 0.65819 0.3892 0.0
Co375 Co 0.43099 0.60982 0.38852 0.0
C376 C 0.47997 0.63544 0.33305 0.0
O377 O 0.46701 0.65184 0.34775 0.0
O378 O 0.46802 0.61801 0.34549 0.0
C379 C 0.41708 0.70067 0.36972 0.0
O380 O 0.39845 0.69367 0.34122 0.0
C381 C 0.38238 0.56918 0.37006 0.0
C382 C 0.42597 0.54943 0.40661 0.0
C383 C 0.38559 0.54907 0.38117 0.0
N384 N 0.41847 0.58076 0.38853 0.0
N385 N 0.44474 0.56876 0.41007 0.0
C386 C 0.34828 0.57718 0.34136 0.0
H387 H 0.36879 0.59134 0.33165 0.0
H388 H 0.30344 0.58087 0.34937 0.0
H389 H 0.34546 0.56554 0.32155 0.0
C390 C 0.30654 0.65114 0.40104 0.0
N391 N 0.35958 0.64417 0.39325 0.0
N392 N 0.35998 0.62414 0.39586 0.0
C393 C 0.30774 0.61785 0.40731 0.0
C394 C 0.27191 0.63472 0.41047 0.0
C395 C 0.29123 0.67326 0.40164 0.0
H396 H 0.31356 0.68071 0.42276 0.0
H397 H 0.30686 0.68066 0.37861 0.0
H398 H 0.24351 0.6755 0.40377 0.0
O399 O 0.48327 0.64993 0.42448 0.0
O400 O 0.48519 0.61611 0.42532 0.0
H401 H 0.33811 0.58998 0.42963 0.0
H402 H 0.26837 0.59827 0.44426 0.0
C403 C 0.29673 0.5972 0.42212 0.0
H404 H 0.27419 0.58739 0.40386 0.0
H405 H 0.4747 0.57384 0.42762 0.0
O406 O 0.42835 0.68835 0.39309 0.0
C407 C 0.50153 0.6333 0.43661 0.0
Co408 Co 0.4453 0.35913 0.87933 0.0
Co409 Co 0.42272 0.40569 0.89517 0.0
C410 C 0.4767 0.39227 0.83162 0.0
O411 O 0.47386 0.37363 0.84031 0.0
O412 O 0.4583 0.40647 0.85028 0.0
C413 C 0.44398 0.31747 0.84997 0.0
O414 O 0.41593 0.32449 0.8241 0.0
C415 C 0.37046 0.44731 0.89079 0.0
C416 C 0.39414 0.45908 0.94012 0.0
C417 C 0.36642 0.46447 0.91099 0.0
N418 N 0.39912 0.43265 0.90749 0.0
N419 N 0.413 0.43988 0.93691 0.0
C420 C 0.35008 0.44505 0.85588 0.0
H421 H 0.37313 0.4324 0.84347 0.0
H422 H 0.30282 0.44142 0.85589 0.0
H423 H 0.35702 0.45945 0.84196 0.0
C424 C 0.31996 0.35656 0.89549 0.0
N425 N 0.36863 0.36739 0.88923 0.0
N426 N 0.35974 0.38665 0.89685 0.0
C427 C 0.30561 0.38857 0.90911 0.0
C428 C 0.27832 0.36957 0.90841 0.0
C429 C 0.31504 0.334 0.8909 0.0
H430 H 0.34483 0.32622 0.90837 0.0
H431 H 0.32869 0.33007 0.86547 0.0
H432 H 0.2698 0.32845 0.89475 0.0
O433 O 0.49503 0.36516 0.91709 0.0
O434 O 0.48079 0.3977 0.92874 0.0
H435 H 0.32063 0.41338 0.94239 0.0
H436 H 0.24699 0.40439 0.94274 0.0
C437 C 0.28514 0.40733 0.92664 0.0
H438 H 0.27368 0.41911 0.9081 0.0
H439 H 0.43566 0.43169 0.95488 0.0
O440 O 0.45627 0.32924 0.87388 0.0
C441 C 0.50508 0.38074 0.93471 0.0
Co442 Co 0.09363 0.66861 0.88535 0.0
Co443 Co 0.11056 0.62081 0.88397 0.0
C444 C 0.08313 0.64341 0.82326 0.0
O445 O 0.08347 0.6599 0.83964 0.0
O446 O 0.09205 0.62621 0.83698 0.0
C447 C 0.04782 0.70636 0.87022 0.0
O448 O 0.01311 0.69408 0.85371 0.0
C449 C 0.15702 0.57876 0.87343 0.0
C450 C 0.1401 0.56571 0.92295 0.0
C451 C 0.16448 0.56139 0.89254 0.0
N452 N 0.12933 0.59279 0.89186 0.0
N453 N 0.11856 0.58468 0.9212 0.0
C454 C 0.18002 0.58247 0.83935 0.0
H455 H 0.18065 0.599 0.83357 0.0
H456 H 0.2245 0.57609 0.83694 0.0
H457 H 0.15152 0.57452 0.82131 0.0
C458 C 0.20736 0.66634 0.91865 0.0
N459 N 0.16306 0.65781 0.90185 0.0
N460 N 0.17218 0.63811 0.89874 0.0
C461 C 0.22389 0.63363 0.91239 0.0
C462 C 0.24732 0.65124 0.92606 0.0
C463 C 0.20748 0.68793 0.93052 0.0
H464 H 0.16225 0.69316 0.93468 0.0
H465 H 0.22772 0.69779 0.91132 0.0
H466 H 0.23263 0.68956 0.95378 0.0
O467 O 0.02878 0.65914 0.91215 0.0
O468 O 0.04093 0.62563 0.912 0.0
H469 H 0.22881 0.60299 0.93038 0.0
H470 H 0.29803 0.61361 0.91753 0.0
C471 C 0.25078 0.6129 0.9119 0.0
H472 H 0.24518 0.60609 0.88711 0.0
H473 H 0.09846 0.59243 0.94058 0.0
O474 O 0.09018 0.69878 0.88625 0.0
C475 C 0.01333 0.6414 0.92116 0.0
Co476 Co 0.93651 0.66794 0.586 0.0
Co477 Co 0.92732 0.62008 0.575 0.0
C478 C 0.96334 0.63868 0.63964 0.0
O479 O 0.95777 0.65685 0.62907 0.0
O480 O 0.95286 0.62333 0.62137 0.0
C481 C 0.92358 0.71075 0.60875 0.0
O482 O 0.89402 0.70389 0.6343 0.0
C483 C 0.87137 0.57971 0.58384 0.0
C484 C 0.9172 0.56154 0.54611 0.0
C485 C 0.87435 0.5603 0.57018 0.0
N486 N 0.91022 0.5918 0.56822 0.0
N487 N 0.93764 0.58079 0.54584 0.0
C488 C 0.83491 0.58648 0.61242 0.0
H489 H 0.8549 0.59997 0.62448 0.0
H490 H 0.79111 0.59086 0.60348 0.0
H491 H 0.8296 0.57391 0.63061 0.0
C492 C 0.81417 0.66508 0.56221 0.0
N493 N 0.86463 0.65655 0.57173 0.0
N494 N 0.86267 0.63687 0.56527 0.0
C495 C 0.81239 0.63247 0.54982 0.0
C496 C 0.77926 0.65007 0.54804 0.0
C497 C 0.8007 0.6872 0.56617 0.0
H498 H 0.8253 0.69612 0.5474 0.0
H499 H 0.8149 0.69236 0.59094 0.0
H500 H 0.75343 0.69016 0.56344 0.0
O501 O -0.00185 0.66074 0.55455 0.0
O502 O 0.99133 0.62747 0.54525 0.0
H503 H 0.84338 0.60622 0.52343 0.0
H504 H 0.77485 0.61566 0.50897 0.0
C505 C 0.80164 0.613 0.53137 0.0
H506 H 0.77815 0.60204 0.54753 0.0
H507 H 0.97015 0.58644 0.53025 0.0
O508 O 0.94107 0.69843 0.58672 0.0
C509 C 0.01525 0.6447 0.54009 0.0
Co510 Co 0.56542 0.36555 0.58164 0.0
Co511 Co 0.57759 0.41332 0.57909 0.0
C512 C 0.56599 0.39014 0.6429 0.0
O513 O 0.56421 0.37332 0.62759 0.0
O514 O 0.56976 0.40708 0.62753 0.0
C515 C 0.51443 0.32904 0.59451 0.0
O516 O 0.48073 0.34233 0.60927 0.0
C517 C 0.63999 0.45267 0.58675 0.0
C518 C 0.5821 0.47333 0.55899 0.0
C519 C 0.63326 0.47289 0.5771 0.0
N520 N 0.59506 0.44175 0.57462 0.0
N521 N 0.56062 0.45423 0.55814 0.0
C522 C 0.68602 0.44399 0.60874 0.0
H523 H 0.6705 0.4296 0.62032 0.0
H524 H 0.72531 0.44053 0.59388 0.0
H525 H 0.69847 0.45515 0.6281 0.0
C526 C 0.67337 0.36805 0.54323 0.0
N527 N 0.63144 0.37685 0.56123 0.0
N528 N 0.63515 0.39681 0.55819 0.0
C529 C 0.67797 0.40131 0.53655 0.0
C530 C 0.70409 0.38322 0.5266 0.0
C531 C 0.68261 0.34551 0.54202 0.0
H532 H 0.65281 0.33874 0.52339 0.0
H533 H 0.67219 0.33861 0.5664 0.0
H534 H 0.72825 0.34187 0.53533 0.0
O535 O 0.49585 0.3749 0.55824 0.0
O536 O 0.50391 0.40857 0.55524 0.0
H537 H 0.6446 0.43021 0.52034 0.0
H538 H 0.70391 0.4208 0.4958 0.0
C539 C 0.68649 0.42196 0.52132 0.0
H540 H 0.71777 0.43088 0.5364 0.0
H541 H 0.52232 0.44971 0.54628 0.0
O542 O 0.55993 0.33547 0.57972 0.0
C543 C 0.47696 0.39208 0.54875 0.0
H544 H 0.39049 0.11675 0.93118 0.0
H545 H 0.47764 0.16317 -0.01182 0.0
H546 H 0.39728 0.16339 0.02795 0.0
H547 H 0.30145 0.15076 0.04574 0.0
H548 H 0.20892 0.10745 0.98516 0.0
H549 H 0.2921 0.10542 0.94751 0.0
C550 C 0.39178 0.12672 0.95253 0.0
C551 C 0.43952 0.13976 0.95722 0.0
C552 C 0.34457 0.12732 0.97446 0.0
C553 C 0.44091 0.15299 0.9844 0.0
C554 C 0.39514 0.15313 0.00702 0.0
C555 C 0.29962 0.14099 0.02417 0.0
C556 C 0.25009 0.12896 0.01843 0.0
C557 C 0.34657 0.14048 0.00213 0.0
C558 C 0.24757 0.11643 -0.0096 0.0
C559 C 0.29483 0.11536 0.96881 0.0
H560 H 0.07134 0.85268 0.95844 0.0
H561 H 0.00332 0.90768 0.00179 0.0
H562 H 0.07594 0.90574 0.04587 0.0
H563 H 0.16425 0.89027 0.06866 0.0
H564 H 0.23984 0.83837 0.01992 0.0
H565 H 0.15692 0.83648 0.98249 0.0
C566 C 0.07195 0.86413 0.97773 0.0
C567 C 0.03246 0.88039 0.97676 0.0
C568 C 0.11467 0.86325 0.0023 0.0
C569 C 0.03385 0.89516 0.00182 0.0
C570 C 0.07509 0.894 0.02708 0.0
C571 C 0.16195 0.87838 0.0501 0.0
C572 C 0.20788 0.86449 0.04705 0.0
C573 C 0.11648 0.87837 0.02709 0.0
C574 C 0.20454 0.84901 0.02322 0.0
C575 C 0.15762 0.84817 0.00139 0.0
H576 H 0.69529 0.89924 0.50432 0.0
H577 H 0.75484 0.84487 0.45539 0.0
H578 H 0.84161 0.84447 0.49016 0.0
H579 H 0.90465 0.86135 0.53025 0.0
H580 H 0.85259 0.91835 0.57387 0.0
H581 H 0.75933 0.91642 0.54447 0.0
C582 C 0.72753 0.88739 0.50119 0.0
C583 C 0.71904 0.87221 0.47718 0.0
C584 C 0.77889 0.88797 0.51985 0.0
C585 C 0.76011 0.8566 0.47394 0.0
C586 C 0.81005 0.85651 0.49352 0.0
C587 C 0.87267 0.87327 0.53363 0.0
C588 C 0.88519 0.88994 0.55424 0.0
C589 C 0.82044 0.87237 0.51595 0.0
C590 C 0.84382 0.90541 0.558 0.0
C591 C 0.7906 0.90428 0.5413 0.0
H592 H 0.70648 0.16723 0.47041 0.0
H593 H 0.63115 0.12067 0.40863 0.0
H594 H 0.54603 0.11848 0.44502 0.0
H595 H 0.49649 0.12833 0.49656 0.0
H596 H 0.57064 0.17587 0.55701 0.0
H597 H 0.65315 0.17915 0.51915 0.0
C598 C 0.67053 0.1571 0.46443 0.0
C599 C 0.67443 0.14423 0.43696 0.0
C600 C 0.62236 0.15577 0.48562 0.0
C601 C 0.62842 0.13079 0.4297 0.0
C602 C 0.58021 0.1294 0.45061 0.0
C603 C 0.53099 0.13928 0.50142 0.0
C604 C 0.52831 0.15161 0.52963 0.0
C605 C 0.57743 0.14146 0.4791 0.0
C606 C 0.57231 0.16612 0.53545 0.0
C607 C 0.61926 0.16807 0.5138 0.0
H608 H 0.66634 0.89344 0.92264 0.0
H609 H 0.7425 0.83991 0.96653 0.0
H610 H 0.65901 0.83628 0.00341 0.0
H611 H 0.57181 0.85098 0.02817 0.0
H612 H 0.50242 0.90718 -0.01059 0.0
H613 H 0.57665 0.90747 0.94606 0.0
C614 C 0.66406 0.88084 0.94003 0.0
C615 C 0.71009 0.86691 0.9418 0.0
C616 C 0.61798 0.87966 0.9626 0.0
C617 C 0.70694 0.85057 0.96419 0.0
C618 C 0.65969 0.84869 0.98568 0.0
C619 C 0.57248 0.86317 0.01 0.0
C620 C 0.5321 0.87912 0.01208 0.0
C621 C 0.61609 0.86355 0.98584 0.0
C622 C 0.53357 0.89486 -0.0115 0.0
C623 C 0.57578 0.89499 0.96366 0.0
H624 H 0.73191 0.12432 0.987 0.0
H625 H 0.80385 0.17664 0.93642 0.0
H626 H 0.88689 0.1769 0.97448 0.0
H627 H 0.94213 0.16049 0.01892 0.0
H628 H 0.87596 0.10555 0.06467 0.0
H629 H 0.78787 0.10752 0.03067 0.0
C630 C 0.76623 0.1356 0.98401 0.0
C631 C 0.76278 0.15015 0.95854 0.0
C632 C 0.81487 0.13496 0.00474 0.0
C633 C 0.80598 0.16524 0.95579 0.0
C634 C 0.8535 0.16528 0.97733 0.0
C635 C 0.9082 0.14903 0.02162 0.0
C636 C 0.91514 0.13292 0.04427 0.0
C637 C 0.85888 0.14994 0.0014 0.0
C638 C 0.87143 0.11801 0.04726 0.0
C639 C 0.82117 0.11919 0.02796 0.0
H640 H 0.0437 0.16766 0.44677 0.0
H641 H 0.98098 0.1126 0.49373 0.0
H642 H 0.05899 0.11493 0.53474 0.0
H643 H 0.14799 0.13156 0.55497 0.0
H644 H 0.21669 0.18409 0.50346 0.0
H645 H 0.13191 0.18433 0.46714 0.0
C646 C 0.04672 0.15628 0.46619 0.0
C647 C 0.0069 0.13998 0.4673 0.0
C648 C 0.09235 0.15741 0.48895 0.0
C649 C 0.01155 0.12521 0.49233 0.0
C650 C 0.05592 0.12657 0.51578 0.0
C651 C 0.14414 0.14306 0.53581 0.0
C652 C 0.18805 0.15784 0.53194 0.0
C653 C 0.09704 0.14242 0.51395 0.0
C654 C 0.18269 0.17283 0.50735 0.0
C655 C 0.13468 0.1728 0.48631 0.0
H656 H 0.19825 0.86832 0.48163 0.0
H657 H 0.26308 0.9178 0.5414 0.0
H658 H 0.34842 0.92118 0.50582 0.0
H659 H 0.40778 0.90855 0.4601 0.0
H660 H 0.34813 0.85692 0.40346 0.0
H661 H 0.25752 0.85585 0.43529 0.0
C662 C 0.23139 0.8797 0.48692 0.0
C663 C 0.22468 0.89277 0.51398 0.0
C664 C 0.28104 0.8812 0.46686 0.0
C665 C 0.26719 0.90772 0.52039 0.0
C666 C 0.31604 0.90961 0.50017 0.0
C667 C 0.37438 0.89734 0.45434 0.0
C668 C 0.38415 0.88292 0.42949 0.0
C669 C 0.32368 0.89631 0.47354 0.0
C670 C 0.34123 0.86819 0.42256 0.0
C671 C 0.28966 0.86751 0.44081 0.0
H672 H 0.82846 0.62298 0.03191 0.0
H673 H 0.75477 0.67839 -0.00691 0.0
H674 H 0.83582 0.68168 0.95417 0.0
H675 H 0.92495 0.66786 0.92966 0.0
H676 H 0.99246 0.61047 0.96466 0.0
H677 H 0.91466 0.60836 0.00581 0.0
C678 C 0.82996 0.63569 0.01473 0.0
C679 C 0.78607 0.65047 0.0154 0.0
C680 C 0.87477 0.63687 -0.00859 0.0
C681 C 0.78884 0.66707 -0.00649 0.0
C682 C 0.83465 0.66879 0.97096 0.0
C683 C 0.9225 0.65487 0.94626 0.0
C684 C 0.96421 0.63935 0.94425 0.0
C685 C 0.87742 0.65364 0.96947 0.0
C686 C 0.96045 0.62251 0.96564 0.0
C687 C 0.91634 0.62137 -0.01072 0.0
H688 H 0.67816 0.38788 0.05443 0.0
H689 H 0.7494 0.33491 0.00663 0.0
H690 H 0.6664 0.33362 0.96919 0.0
H691 H 0.58285 0.35065 0.94462 0.0
H692 H 0.51916 0.40658 0.98707 0.0
H693 H 0.59112 0.40407 0.0314 0.0
C694 C 0.67475 0.37587 0.03614 0.0
C695 C 0.7195 0.3615 0.03328 0.0
C696 C 0.62939 0.37619 0.01309 0.0
C697 C 0.7149 0.3459 0.00976 0.0
C698 C 0.66801 0.34539 -0.01208 0.0
C699 C 0.58424 0.36221 0.96375 0.0
C700 C 0.54627 0.3789 0.96241 0.0
C701 C 0.62647 0.36096 -0.01149 0.0
C702 C 0.54858 0.39374 -0.01266 0.0
C703 C 0.58941 0.39225 0.01276 0.0
H704 H 0.30218 0.39789 0.43053 0.0
H705 H 0.21927 0.3487 0.48403 0.0
H706 H 0.29655 0.34981 0.52552 0.0
H707 H 0.38556 0.3659 0.54767 0.0
H708 H 0.4591 0.41836 0.49802 0.0
H709 H 0.38519 0.41571 0.45483 0.0
C710 C 0.30053 0.38758 0.4515 0.0
C711 C 0.25517 0.37323 0.45416 0.0
C712 C 0.34244 0.3893 0.47635 0.0
C713 C 0.25441 0.3596 0.48097 0.0
C714 C 0.29801 0.36047 0.50501 0.0
C715 C 0.38478 0.37688 0.52757 0.0
C716 C 0.42731 0.39233 0.52594 0.0
C717 C 0.34174 0.37546 0.50316 0.0
C718 C 0.42616 0.40652 0.49994 0.0
C719 C 0.38444 0.40487 0.47508 0.0
H720 H 0.24629 0.65957 0.46121 0.0
H721 H 0.17621 0.61062 0.40224 0.0
H722 H 0.08949 0.60916 0.43761 0.0
H723 H 0.03607 0.62119 0.48658 0.0
H724 H 0.10475 0.6717 0.54283 0.0
H725 H 0.18952 0.67357 0.50653 0.0
C726 C 0.21121 0.64904 0.45541 0.0
C727 C 0.21686 0.63541 0.42902 0.0
C728 C 0.16172 0.64851 0.47543 0.0
C729 C 0.17225 0.62129 0.4225 0.0
C730 C 0.12295 0.62044 0.44268 0.0
C731 C 0.06965 0.6326 0.49075 0.0
C732 C 0.0648 0.64616 0.51736 0.0
C733 C 0.11765 0.63382 0.46947 0.0
C734 C 0.10783 0.66111 0.52241 0.0
C735 C 0.15624 0.66217 0.50176 0.0
H736 H 0.17429 0.38805 0.90306 0.0
H737 H 0.26248 0.33928 0.95367 0.0
H738 H 0.17876 0.33437 -0.01003 0.0
H739 H 0.08781 0.34741 0.01268 0.0
H740 H 0.00642 0.39971 0.96781 0.0
H741 H 0.0805 0.40015 0.92431 0.0
C742 C 0.17447 0.37615 0.92174 0.0
C743 C 0.22403 0.36402 0.92571 0.0
C744 C 0.12808 0.37443 0.94404 0.0
C745 C 0.22429 0.34858 0.9498 0.0
C746 C 0.17682 0.34598 0.9709 0.0
C747 C 0.08582 0.35871 -0.00692 0.0
C748 C 0.04225 0.37359 -0.00654 0.0
C749 C 0.12958 0.35934 0.96904 0.0
C750 C 0.04017 0.38825 0.96813 0.0
C751 C 0.0823 0.38846 0.94326 0.0
H752 H 0.27064 0.62566 0.97623 0.0
H753 H 0.33374 0.67999 0.92752 0.0
H754 H 0.41691 0.68139 0.96545 0.0
H755 H 0.47373 0.66592 0.01041 0.0
H756 H 0.4161 0.6092 0.05394 0.0
H757 H 0.32875 0.60955 0.01931 0.0
C758 C 0.30318 0.63759 0.97352 0.0
C759 C 0.29694 0.65253 0.94894 0.0
C760 C 0.35159 0.63775 -0.00569 0.0
C761 C 0.33799 0.66836 0.94639 0.0
C762 C 0.38548 0.66908 0.96789 0.0
C763 C 0.44165 0.65376 0.01241 0.0
C764 C 0.45053 0.63763 0.03464 0.0
C765 C 0.39295 0.65372 -0.00831 0.0
C766 C 0.40969 0.62172 0.03684 0.0
C767 C 0.35996 0.62195 0.01716 0.0
H768 H 0.57793 0.66378 0.44647 0.0
H769 H 0.52411 0.60526 0.48508 0.0
H770 H 0.60089 0.60714 0.52709 0.0
H771 H 0.68698 0.62447 0.54997 0.0
H772 H 0.74867 0.68021 0.50482 0.0
H773 H 0.66314 0.68099 0.46922 0.0
C774 C 0.58254 0.65153 0.46433 0.0
C775 C 0.54562 0.63441 0.46285 0.0
C776 C 0.62762 0.65241 0.48742 0.0
C777 C 0.55244 0.61851 0.48575 0.0
C778 C 0.59605 0.61963 0.50975 0.0
C779 C 0.68142 0.63682 0.53239 0.0
C780 C 0.72377 0.6523 0.5301 0.0
C781 C 0.63446 0.63636 0.51039 0.0
C782 C 0.71601 0.66837 0.50762 0.0
C783 C 0.66762 0.66863 0.48686 0.0
H784 H 0.88165 0.36154 0.41313 0.0
H785 H 0.96518 0.4158 0.45076 0.0
H786 H 0.88838 0.41958 0.49196 0.0
H787 H 0.80041 0.4065 0.51894 0.0
H788 H 0.71008 0.3548 0.47726 0.0
H789 H 0.78765 0.35052 0.43666 0.0
C790 C 0.88256 0.37427 0.43019 0.0
C791 C 0.9288 0.38832 0.42909 0.0
C792 C 0.83782 0.37656 0.45344 0.0
C793 C 0.92959 0.40488 0.45104 0.0
C794 C 0.88603 0.40697 0.47475 0.0
C795 C 0.79726 0.39449 0.50065 0.0
C796 C 0.75023 0.38077 0.50149 0.0
C797 C 0.84035 0.39277 0.47638 0.0
C798 C 0.74691 0.36515 0.47787 0.0
C799 C 0.79081 0.36286 0.45434 0.0
H800 H 0.2214 0.04599 0.09559 0.0
H801 H 0.0713 1.00701 0.1078 0.0
H802 H 0.13385 0.97688 0.10705 0.0
H803 H 0.23033 0.96164 0.09744 0.0
H804 H 0.37936 1.00088 0.08242 0.0
H805 H 0.31847 0.03088 0.09009 0.0
C806 C 0.20268 0.03094 0.09928 0.0
C807 C 0.14204 0.02871 0.10263 0.0
C808 C 0.23877 0.01372 0.09792 0.0
C809 C 0.11802 1.00906 0.10572 0.0
C810 C 0.15374 0.99186 0.10513 0.0
C811 C 0.24976 0.97672 0.09685 0.0
C812 C 0.30948 0.97901 0.08979 0.0
C813 C 0.2141 0.99397 0.10056 0.0
C814 C 0.33353 0.99872 0.0879 0.0
C815 C 0.29873 0.01589 0.09225 0.0
H816 H 0.72047 0.96499 0.39721 0.0
H817 H 0.56532 1.00059 0.38363 0.0
H818 H 0.62388 0.0319 0.38144 0.0
H819 H 0.71817 0.04925 0.38916 0.0
H820 H 0.87254 0.01364 0.4059 0.0
H821 H 0.81569 0.9822 0.40073 0.0
C822 C 0.69984 0.97955 0.3926 0.0
C823 C 0.63895 0.98053 0.38977 0.0
C824 C 0.73366 0.99748 0.3923 0.0
C825 C 0.61229 0.99954 0.38542 0.0
C826 C 0.64572 0.01741 0.3843 0.0
C827 C 0.73965 0.03462 0.39058 0.0
C828 C 0.79963 0.03375 0.39738 0.0
C829 C 0.70635 0.01661 0.38843 0.0
C830 C 0.82643 0.01466 0.40051 0.0
C831 C 0.79395 0.99669 0.39762 0.0
H832 H 0.61875 0.01894 0.89734 0.0
H833 H 0.75345 0.06476 0.89062 0.0
H834 H 0.82811 0.03839 0.89049 0.0
H835 H 0.85522 1.00242 0.89772 0.0
H836 H 0.72073 0.95649 0.90415 0.0
H837 H 0.64584 0.9826 0.89862 0.0
C838 C 0.66445 0.02302 0.89508 0.0
C839 C 0.68076 0.04364 0.89339 0.0
C840 C 0.7071 1.00776 0.89523 0.0
C841 C 0.73996 0.04892 0.891 0.0
C842 C 0.78265 0.03386 0.89133 0.0
C843 C 0.80947 0.99818 0.89736 0.0
C844 C 0.79335 0.97764 0.90105 0.0
C845 C 0.76677 0.01327 0.89418 0.0
C846 C 0.73412 0.97219 0.90064 0.0
C847 C 0.69129 0.98713 0.89781 0.0
H848 H 0.09638 0.01254 0.60629 0.0
H849 H 0.22746 0.9666 0.59188 0.0
H850 H 0.30319 0.99269 0.5911 0.0
H851 H 0.3321 0.02884 0.59087 0.0
H852 H 0.2004 0.07495 0.60145 0.0
H853 H 0.1257 0.04872 0.60756 0.0
C854 C 0.14163 1.00824 0.60339 0.0
C855 C 0.15609 0.98752 0.60011 0.0
C856 C 0.18511 0.02344 0.60218 0.0
C857 C 0.21491 0.98225 0.59587 0.0
C858 C 0.25839 0.99725 0.5949 0.0
C859 C 0.28711 0.03314 0.5949 0.0
C860 C 0.27239 0.05391 0.59653 0.0
C861 C 0.24396 0.01791 0.59765 0.0
C862 C 0.21372 0.05919 0.60137 0.0
C863 C 0.17063 0.04413 0.60438 0.0
H864 H 0.8809 0.49658 0.06303 0.0
H865 H 0.74249 0.45276 0.07751 0.0
H866 H 0.67232 0.48027 0.08377 0.0
H867 H 0.64904 0.51682 0.08071 0.0
H868 H 0.78731 0.5606 0.06549 0.0
H869 H 0.85873 0.53322 0.06417 0.0
C870 C 0.83547 0.49311 0.06803 0.0
C871 C 0.81705 0.4727 0.07025 0.0
C872 C 0.79529 0.50903 0.07131 0.0
C873 C 0.75811 0.46834 0.07658 0.0
C874 C 0.71779 0.48408 0.07976 0.0
C875 C 0.69495 0.52032 0.07753 0.0
C876 C 0.71298 0.54069 0.07364 0.0
C877 C 0.73573 0.50447 0.0766 0.0
C878 C 0.77247 0.5451 0.06942 0.0
C879 C 0.81329 0.52942 0.06829 0.0
H880 H 0.27019 0.54738 0.3643 0.0
H881 H 0.42082 0.50968 0.37995 0.0
H882 H 0.36058 0.47906 0.37447 0.0
H883 H 0.26335 0.46314 0.3714 0.0
H884 H 0.11266 0.50105 0.35716 0.0
H885 H 0.17467 0.53137 0.35547 0.0
C886 C 0.29031 0.53252 0.36532 0.0
C887 C 0.35018 0.53089 0.37211 0.0
C888 C 0.25514 0.51494 0.36278 0.0
C889 C 0.37485 0.51138 0.37465 0.0
C890 C 0.34039 0.49384 0.3716 0.0
C891 C 0.24424 0.47792 0.36681 0.0
C892 C 0.18339 0.47975 0.3641 0.0
C893 C 0.28018 0.49542 0.36648 0.0
C894 C 0.15936 0.4992 0.35933 0.0
C895 C 0.19479 0.51658 0.35841 0.0
H896 H 0.27116 0.47448 0.87235 0.0
H897 H 0.40088 0.50028 0.93751 0.0
H898 H 0.35255 0.53308 0.93513 0.0
H899 H 0.26894 0.55374 0.91871 0.0
H900 H 0.13987 0.52893 0.85284 0.0
H901 H 0.1933 0.49659 0.8504 0.0
C902 C 0.29008 0.48736 0.88515 0.0
C903 C 0.33992 0.48478 0.90502 0.0
C904 C 0.26199 0.50639 0.88363 0.0
C905 C 0.36239 0.5017 0.92223 0.0
C906 C 0.33486 0.52053 0.92087 0.0
C907 C 0.25336 0.54133 0.90331 0.0
C908 C 0.20097 0.5435 0.88595 0.0
C909 C 0.28399 0.52293 0.90229 0.0
C910 C 0.18055 0.52748 0.86617 0.0
C911 C 0.21086 0.50901 0.865 0.0
H912 H 0.75786 0.55842 0.58349 0.0
H913 H 0.90954 0.52093 0.56999 0.0
H914 H 0.84917 0.49022 0.574 0.0
H915 H 0.75223 0.47425 0.57627 0.0
H916 H 0.60037 0.51185 0.5883 0.0
H917 H 0.6619 0.54232 0.5903 0.0
C918 C 0.77802 0.54356 0.58252 0.0
C919 C 0.83826 0.54197 0.57697 0.0
C920 C 0.74287 0.52598 0.58427 0.0
C921 C 0.86324 0.52254 0.57437 0.0
C922 C 0.82875 0.50498 0.57663 0.0
C923 C 0.73272 0.48901 0.5804 0.0
C924 C 0.67185 0.49074 0.5826 0.0
C925 C 0.76834 0.50651 0.58094 0.0
C926 C 0.64718 0.51012 0.58661 0.0
C927 C 0.68231 0.52755 0.58773 0.0
H928 H 0.00646 0.28847 0.06833 0.0
H929 H 0.89984 0.28627 0.15619 0.0
H930 H 0.92113 0.25008 0.16295 0.0
H931 H 0.96929 0.2191 0.14385 0.0
H932 H 0.07937 0.2212 0.05739 0.0
H933 H 0.05811 0.25749 0.05036 0.0
C934 C 0.98763 0.28002 0.08883 0.0
C935 C 0.95115 0.29 0.11157 0.0
C936 C 0.00107 0.25927 0.09296 0.0
C937 C 0.92789 0.27894 0.13832 0.0
C938 C 0.94011 0.25826 0.14222 0.0
C939 C 0.98885 0.22748 0.12349 0.0
C940 C 0.02566 0.21742 0.10107 0.0
C941 C 0.97663 0.24829 0.11972 0.0
C942 C 0.05104 0.22858 0.07504 0.0
C943 C 0.03863 0.24931 0.07092 0.0
H944 H 0.56948 0.79816 0.13883 0.0
H945 H 0.42487 0.78741 0.07295 0.0
H946 H 0.45087 0.75135 0.06945 0.0
H947 H 0.51571 0.72292 0.08461 0.0
H948 H 0.65717 0.73362 0.15266 0.0
H949 H 0.63167 0.76967 0.15558 0.0
C950 C 0.54347 0.78794 0.12375 0.0
C951 C 0.49539 0.79553 0.10606 0.0
C952 C 0.55842 0.76722 0.12206 0.0
C953 C 0.46196 0.78199 0.0869 0.0
C954 C 0.477 0.76137 0.08477 0.0
C955 C 0.54117 0.73318 0.09991 0.0
C956 C 0.58868 0.72561 0.11817 0.0
C957 C 0.52539 0.75384 0.10207 0.0
C958 C 0.62055 0.73904 0.13832 0.0
C959 C 0.60594 0.75966 0.14002 0.0
H960 H 0.46014 0.79572 0.36901 0.0
H961 H 0.62681 0.77661 0.40655 0.0
H962 H 0.59371 0.74101 0.40641 0.0
H963 H 0.51776 0.71534 0.39454 0.0
H964 H 0.35556 0.73408 0.3508 0.0
H965 H 0.38608 0.76991 0.35449 0.0
C966 C 0.48903 0.78373 0.37729 0.0
C967 C 0.54559 0.78869 0.38809 0.0
C968 C 0.47035 0.76332 0.37603 0.0
C969 C 0.58312 0.77307 0.39815 0.0
C970 C 0.56414 0.75277 0.39814 0.0
C971 C 0.48899 0.72734 0.38614 0.0
C972 C 0.43416 0.72226 0.37293 0.0
C973 C 0.50791 0.74773 0.38706 0.0
C974 C 0.39775 0.73776 0.36127 0.0
C975 C 0.41524 0.75818 0.36334 0.0
H976 H 0.9376 0.2945 0.33042 0.0
H977 H 0.05031 0.28832 0.41509 0.0
H978 H 0.02034 0.25258 0.42113 0.0
H979 H 0.96206 0.22292 0.402 0.0
H980 H 0.85354 0.22924 0.31559 0.0
H981 H 0.88143 0.26509 0.31084 0.0
C982 C 0.95574 0.28538 0.35025 0.0
C983 C -0.00388 0.29418 0.37233 0.0
C984 C 0.93868 0.26484 0.35338 0.0
C985 C 0.01934 0.28199 0.39767 0.0
C986 C 0.002 0.26155 0.40121 0.0
C987 C 0.94409 0.23222 0.38234 0.0
C988 C 0.90528 0.2234 0.35932 0.0
C989 C 0.96154 0.2528 0.37925 0.0
C990 C 0.88329 0.23559 0.33366 0.0
C991 C 0.89933 0.25611 0.33089 0.0
H992 H 0.00329 0.79909 0.90127 0.0
H993 H 0.89066 0.79274 0.81653 0.0
H994 H 0.91867 0.75699 0.81113 0.0
H995 H 0.97454 0.72759 0.83078 0.0
H996 H 0.09066 0.73438 0.91395 0.0
H997 H 0.06241 0.77008 0.91943 0.0
C998 C 0.9846 0.78984 0.88174 0.0
C999 C 0.94447 0.79844 0.85953 0.0
C1000 C 0.00188 0.76948 0.87836 0.0
C1001 C 0.92146 0.78641 0.83398 0.0
C1002 C 0.9375 0.766 0.83087 0.0
C1003 C -0.00617 0.73689 0.85005 0.0
C1004 C 0.0344 0.72832 0.87204 0.0
C1005 C 0.97766 0.75739 0.85292 0.0
C1006 C 0.05944 0.74062 0.89666 0.0
C1007 C 0.04309 0.761 0.89992 0.0
H1008 H 0.48835 0.22261 0.85238 0.0
H1009 H 0.6559 0.24295 0.88764 0.0
H1010 H 0.62414 0.27851 0.88397 0.0
H1011 H 0.54778 0.30369 0.87162 0.0
H1012 H 0.38397 0.28355 0.83084 0.0
H1013 H 0.41497 0.24795 0.83558 0.0
C1014 C 0.5178 0.23488 0.85921 0.0
C1015 C 0.57409 0.2303 0.87062 0.0
C1016 C 0.49982 0.25523 0.85601 0.0
C1017 C 0.61239 0.24622 0.87883 0.0
C1018 C 0.59417 0.26649 0.87681 0.0
C1019 C 0.519 0.29145 0.86375 0.0
C1020 C 0.46348 0.29609 0.85124 0.0
C1021 C 0.53789 0.27116 0.8656 0.0
C1022 C 0.42686 0.28025 0.84054 0.0
C1023 C 0.44453 0.25995 0.84335 0.0
H1024 H 0.46371 0.23524 0.57467 0.0
H1025 H 0.33561 0.24779 0.64995 0.0
H1026 H 0.36575 0.28358 0.65066 0.0
H1027 H 0.42945 0.311 0.63071 0.0
H1028 H 0.56073 0.2983 0.55725 0.0
H1029 H 0.52871 0.26269 0.55527 0.0
C1030 C 0.44199 0.24586 0.591 0.0
C1031 C 0.39716 0.23895 0.61206 0.0
C1032 C 0.46051 0.26627 0.59184 0.0
C1033 C 0.37011 0.25278 0.63348 0.0
C1034 C 0.38741 0.27321 0.63394 0.0
C1035 C 0.45116 0.30046 0.61424 0.0
C1036 C 0.49735 0.30729 0.5941 0.0
C1037 C 0.43281 0.28006 0.6134 0.0
C1038 C 0.52521 0.2934 0.57309 0.0
C1039 C 0.50676 0.27307 0.57185 0.0
H1040 H 0.02939 0.72614 0.59237 0.0
H1041 H 0.85652 0.74388 0.62162 0.0
H1042 H 0.88539 0.7799 0.61909 0.0
H1043 H 0.9609 0.80631 0.60997 0.0
H1044 H 0.13672 0.78833 0.58782 0.0
H1045 H 0.10607 0.75244 0.586 0.0
C1046 C -0.00194 0.73795 0.59796 0.0
C1047 C 0.94074 0.73248 0.60679 0.0
C1048 C 0.0157 0.75852 0.59774 0.0
C1049 C 0.90078 0.7478 0.61469 0.0
C1050 C 0.9173 0.76836 0.61321 0.0
C1051 C 0.99224 0.79448 0.60447 0.0
C1052 C 0.05074 0.79982 0.59851 0.0
C1053 C 0.97471 0.77389 0.60492 0.0
C1054 C 0.09143 0.78446 0.59223 0.0
C1055 C 0.07388 0.764 0.59123 0.0
H1056 H 0.01984 0.10329 0.19873 0.0
H1057 H 0.06992 0.16682 0.19458 0.0
H1058 H 0.03725 0.17149 0.25129 0.0
H1059 H 0.98755 0.15836 0.30026 0.0
H1060 H 0.93568 0.09505 0.30463 0.0
H1061 H 0.97604 0.08952 0.24953 0.0
C1062 C 0.02447 0.11807 0.2104 0.0
C1063 C 0.04672 0.1347 0.19234 0.0
C1064 C 0.0046 0.12079 0.24286 0.0
C1065 C 0.05247 0.15377 0.20784 0.0
C1066 C 0.03363 0.15651 0.24024 0.0
C1067 C 0.98512 0.14333 0.28921 0.0
C1068 C 0.95806 0.12722 0.30632 0.0
C1069 C 0.00828 0.14026 0.25764 0.0
C1070 C 0.95607 0.10776 0.29187 0.0
C1071 C 0.97913 0.10457 0.26039 0.0
H1072 H 0.51916 0.85759 0.18159 0.0
H1073 H 0.46548 0.92054 0.17962 0.0
H1074 H 0.49711 0.92463 0.23692 0.0
H1075 H 0.52939 0.90917 0.28908 0.0
H1076 H 0.57784 0.84569 0.2911 0.0
H1077 H 0.55955 0.84307 0.23192 0.0
C1078 C 0.5147 0.87227 0.19355 0.0
C1079 C 0.48908 0.88863 0.17658 0.0
C1080 C 0.53192 0.87441 0.22648 0.0
C1081 C 0.48464 0.90765 0.19226 0.0
C1082 C 0.5026 0.90999 0.22502 0.0
C1083 C 0.53701 0.89487 0.27645 0.0
C1084 C 0.55415 0.87758 0.29447 0.0
C1085 C 0.52481 0.89331 0.24261 0.0
C1086 C 0.56394 0.85916 0.2778 0.0
C1087 C 0.55338 0.85763 0.24401 0.0
H1088 H 0.01961 0.86324 0.80501 0.0
H1089 H 0.96437 0.92593 0.81032 0.0
H1090 H 0.99259 0.93109 0.75259 0.0
H1091 H 0.02293 0.91666 0.69933 0.0
H1092 H 0.07384 0.85347 0.69431 0.0
H1093 H 0.05769 0.84973 0.75351 0.0
C1094 C 0.01412 0.87811 0.79369 0.0
C1095 C 0.9891 0.89409 0.81175 0.0
C1096 C 0.02937 0.88085 0.76054 0.0
C1097 C 0.98322 0.91334 0.79686 0.0
C1098 C -0.00085 0.91628 0.76384 0.0
C1099 C 0.03135 0.90216 0.71127 0.0
C1100 C 0.04872 0.8853 0.69238 0.0
C1101 C 0.0208 0.89998 0.74523 0.0
C1102 C 0.05971 0.86663 0.70822 0.0
C1103 C 0.05046 0.86446 0.74206 0.0
H1104 H 0.4877 0.167 0.7976 0.0
H1105 H 0.54533 0.10465 0.79067 0.0
H1106 H 0.50792 0.10265 0.73415 0.0
H1107 H 0.46087 0.11909 0.68624 0.0
H1108 H 0.40417 0.18154 0.69457 0.0
H1109 H 0.43874 0.18286 0.75123 0.0
C1110 C 0.49238 0.15297 0.78376 0.0
C1111 C 0.51961 0.13608 0.7982 0.0
C1112 C 0.47061 0.15188 0.75159 0.0
C1113 C 0.52464 0.11793 0.78002 0.0
C1114 C 0.5032 0.11675 0.74775 0.0
C1115 C 0.45558 0.13289 0.70062 0.0
C1116 C 0.43037 0.1502 0.68615 0.0
C1117 C 0.47619 0.13367 0.73325 0.0
C1118 C 0.42391 0.16802 0.70501 0.0
C1119 C 0.4437 0.16884 0.73743 0.0
H1120 H 0.50286 0.60523 0.28858 0.0
H1121 H 0.52291 0.66998 0.30497 0.0
H1122 H 0.56326 0.6743 0.25004 0.0
H1123 H 0.58542 0.6605 0.19602 0.0
H1124 H 0.56468 0.59606 0.17796 0.0
H1125 H 0.53317 0.59083 0.23507 0.0
C1126 C 0.51659 0.62022 0.28021 0.0
C1127 C 0.50895 0.63724 0.30067 0.0
C1128 C 0.53959 0.62273 0.2483 0.0
C1129 C 0.52739 0.65659 0.28958 0.0
C1130 C 0.55068 0.65914 0.25816 0.0
C1131 C 0.57451 0.64527 0.2046 0.0
C1132 C 0.5765 0.62878 0.18272 0.0
C1133 C 0.55573 0.64242 0.23711 0.0
C1134 C 0.56314 0.60907 0.19434 0.0
C1135 C 0.54487 0.60607 0.22693 0.0
H1136 H 0.04646 0.40714 0.27071 0.0
H1137 H 0.07676 0.34235 0.27754 0.0
H1138 H 0.05782 0.33868 0.21869 0.0
H1139 H 0.02474 0.35315 0.16685 0.0
H1140 H 0.98936 0.41757 0.15957 0.0
H1141 H 0.01914 0.42213 0.21711 0.0
C1142 C 0.04964 0.39228 0.25921 0.0
C1143 C 0.06233 0.37502 0.27849 0.0
C1144 C 0.03755 0.39018 0.22541 0.0
C1145 C 0.06635 0.35585 0.2633 0.0
C1146 C 0.0556 0.35372 0.22965 0.0
C1147 C 0.02392 0.36826 0.17766 0.0
C1148 C 0.0042 0.38494 0.15907 0.0
C1149 C 0.03982 0.37068 0.21072 0.0
C1150 C 0.00409 0.40443 0.17342 0.0
C1151 C 0.02092 0.40704 0.20633 0.0
H1152 H 0.5348 0.36691 0.79156 0.0
H1153 H 0.46959 0.42835 0.79694 0.0
H1154 H 0.49738 0.43411 0.7391 0.0
H1155 H 0.53133 0.42019 0.68544 0.0
H1156 H 0.59221 0.35805 0.68182 0.0
H1157 H 0.57483 0.35413 0.7406 0.0
C1158 C 0.52689 0.38165 0.78026 0.0
C1159 C 0.49939 0.39706 0.79833 0.0
C1160 C 0.54183 0.38468 0.74719 0.0
C1161 C 0.49047 0.41617 0.78344 0.0
C1162 C 0.50613 0.41944 0.75036 0.0
C1163 C 0.54161 0.40595 0.69772 0.0
C1164 C 0.56227 0.38937 0.67923 0.0
C1165 C 0.53055 0.4036 0.73174 0.0
C1166 C 0.57545 0.37097 0.69538 0.0
C1167 C 0.56562 0.36868 0.72903 0.0
H1168 H 0.04368 0.61312 0.78288 0.0
H1169 H 0.09123 0.67692 0.78444 0.0
H1170 H 0.05865 0.68083 0.72772 0.0
H1171 H 0.01283 0.66685 0.67894 0.0
H1172 H 0.96375 0.60327 0.67586 0.0
H1173 H 0.00074 0.59858 0.73211 0.0
C1174 C 0.04753 0.62777 0.77059 0.0
C1175 C 0.06936 0.64471 0.78786 0.0
C1176 C 0.02792 0.63004 0.73796 0.0
C1177 C 0.07402 0.66367 0.77176 0.0
C1178 C 0.05536 0.66596 0.73935 0.0
C1179 C 0.00995 0.65195 0.69052 0.0
C1180 C 0.9851 0.6355 0.67345 0.0
C1181 C 0.03133 0.64936 0.72249 0.0
C1182 C 0.98254 0.61622 0.68864 0.0
C1183 C 0.00372 0.61351 0.72073 0.0
loop_
_geom_bond_atom_site_label_1
_geom_bond_atom_site_label_2
_geom_bond_distance
_geom_bond_site_symmetry_2
_ccdc_geom_bond_type
Co0 O3 1.970 . S
Co0 N17 1.989 . S
Co0 O25 1.967 . S
Co0 O32 1.920 . S
Co1 O4 1.966 . S
Co1 N10 2.022 . S
Co1 N18 1.993 . S
Co1 O26 1.941 . S
C2 O3 1.258 . S
C2 O4 1.263 . S
O3 Co0 1.970 . S
O3 C2 1.258 . S
O4 Co1 1.966 . S
O4 C2 1.263 . S
C5 O6 1.235 . S
C5 O32 1.289 . S
O6 C5 1.235 . S
C7 C9 1.400 . S
C7 N10 1.351 . S
C7 C12 1.501 . S
C8 C9 1.387 . S
C8 N11 1.341 . S
C9 C7 1.400 . S
C9 C8 1.387 . S
N10 Co1 2.022 . S
N10 C7 1.351 . S
N10 N11 1.365 . S
N11 C8 1.341 . S
N11 N10 1.365 . S
N11 H31 0.862 . S
C12 C7 1.501 . S
C12 H13 0.961 . S
C12 H14 0.961 . S
C12 H15 0.960 . S
H13 C12 0.961 . S
H14 C12 0.961 . S
H15 C12 0.960 . S
C16 N17 1.342 . S
C16 C20 1.401 . S
C16 C21 1.499 . S
N17 Co0 1.989 . S
N17 C16 1.342 . S
N17 N18 1.388 . S
N18 Co1 1.993 . S
N18 N17 1.388 . S
N18 C19 1.346 . S
C19 N18 1.346 . S
C19 C20 1.396 . S
C19 C29 1.510 . S
C20 C16 1.401 . S
C20 C19 1.396 . S
C21 C16 1.499 . S
C21 H22 0.959 . S
C21 H23 0.960 . S
C21 H24 0.961 . S
H22 C21 0.959 . S
H23 C21 0.960 . S
H24 C21 0.961 . S
O25 Co0 1.967 . S
O25 C33 1.258 1_455 S
O26 Co1 1.941 . S
O26 C33 1.266 1_455 S
H27 C29 0.959 . S
H28 C29 0.961 . S
C29 C19 1.510 . S
C29 H27 0.959 . S
C29 H28 0.961 . S
C29 H30 0.960 . S
H30 C29 0.960 . S
H31 N11 0.862 . S
O32 Co0 1.920 . S
O32 C5 1.289 . S
C33 O25 1.258 1_655 S
C33 O26 1.266 1_655 S
Co34 O37 1.970 . S
Co34 N51 1.989 . S
Co34 O59 1.967 . S
Co34 O66 1.920 . S
Co35 O38 1.966 . S
Co35 N44 2.022 . S
Co35 N52 1.993 . S
Co35 O60 1.941 . S
C36 O37 1.258 . S
C36 O38 1.263 . S
O37 Co34 1.970 . S
O37 C36 1.258 . S
O38 Co35 1.966 . S
O38 C36 1.263 . S
C39 O40 1.235 . S
C39 O66 1.289 . S
O40 C39 1.235 . S
C41 C43 1.400 . S
C41 N44 1.351 . S
C41 C46 1.501 . S
C42 C43 1.387 . S
C42 N45 1.341 . S
C43 C41 1.400 . S
C43 C42 1.387 . S
N44 Co35 2.022 . S
N44 C41 1.351 . S
N44 N45 1.365 . S
N45 C42 1.341 . S
N45 N44 1.365 . S
N45 H65 0.862 . S
C46 C41 1.501 . S
C46 H47 0.961 . S
C46 H48 0.961 . S
C46 H49 0.960 . S
H47 C46 0.961 . S
H48 C46 0.961 . S
H49 C46 0.960 . S
C50 N51 1.342 . S
C50 C54 1.401 . S
C50 C55 1.499 . S
N51 Co34 1.989 . S
N51 C50 1.342 . S
N51 N52 1.388 . S
N52 Co35 1.993 . S
N52 N51 1.388 . S
N52 C53 1.346 . S
C53 N52 1.346 . S
C53 C54 1.396 . S
C53 C63 1.510 . S
C54 C50 1.401 . S
C54 C53 1.396 . S
C55 C50 1.499 . S
C55 H56 0.959 . S
C55 H57 0.960 . S
C55 H58 0.961 . S
H56 C55 0.959 . S
H57 C55 0.960 . S
H58 C55 0.961 . S
O59 Co34 1.967 . S
O59 C67 1.258 . S
O60 Co35 1.941 . S
O60 C67 1.266 . S
H61 C63 0.959 . S
H62 C63 0.961 . S
C63 C53 1.510 . S
C63 H61 0.959 . S
C63 H62 0.961 . S
C63 H64 0.960 . S
H64 C63 0.960 . S
H65 N45 0.862 . S
O66 Co34 1.920 . S
O66 C39 1.289 . S
C67 O59 1.258 . S
C67 O60 1.266 . S
Co68 O71 1.970 . S
Co68 N85 1.989 . S
Co68 O93 1.967 . S
Co68 O100 1.920 . S
Co69 O72 1.966 . S
Co69 N78 2.022 . S
Co69 N86 1.993 . S
Co69 O94 1.941 . S
C70 O71 1.258 . S
C70 O72 1.263 . S
O71 Co68 1.970 . S
O71 C70 1.258 . S
O72 Co69 1.966 . S
O72 C70 1.263 . S
C73 O74 1.235 . S
C73 O100 1.289 . S
O74 C73 1.235 . S
C75 C77 1.400 . S
C75 N78 1.351 . S
C75 C80 1.501 . S
C76 C77 1.387 . S
C76 N79 1.341 . S
C77 C75 1.400 . S
C77 C76 1.387 . S
N78 Co69 2.022 . S
N78 C75 1.351 . S
N78 N79 1.365 . S
N79 C76 1.341 . S
N79 N78 1.365 . S
N79 H99 0.862 . S
C80 C75 1.501 . S
C80 H81 0.961 . S
C80 H82 0.961 . S
C80 H83 0.960 . S
H81 C80 0.961 . S
H82 C80 0.961 . S
H83 C80 0.960 . S
C84 N85 1.342 . S
C84 C88 1.401 . S
C84 C89 1.499 . S
N85 Co68 1.989 . S
N85 C84 1.342 . S
N85 N86 1.388 . S
N86 Co69 1.993 . S
N86 N85 1.388 . S
N86 C87 1.346 . S
C87 N86 1.346 . S
C87 C88 1.396 . S
C87 C97 1.510 . S
C88 C84 1.401 . S
C88 C87 1.396 . S
C89 C84 1.499 . S
C89 H90 0.959 . S
C89 H91 0.960 . S
C89 H92 0.961 . S
H90 C89 0.959 . S
H91 C89 0.960 . S
H92 C89 0.961 . S
O93 Co68 1.967 . S
O93 C101 1.258 . S
O94 Co69 1.941 . S
O94 C101 1.266 . S
H95 C97 0.959 . S
H96 C97 0.961 . S
C97 C87 1.510 . S
C97 H95 0.959 . S
C97 H96 0.961 . S
C97 H98 0.960 . S
H98 C97 0.960 . S
H99 N79 0.862 . S
O100 Co68 1.920 . S
O100 C73 1.289 . S
C101 O93 1.258 . S
C101 O94 1.266 . S
Co102 O105 1.970 . S
Co102 N119 1.989 . S
Co102 O127 1.967 . S
Co102 O134 1.920 . S
Co103 O106 1.966 . S
Co103 N112 2.022 . S
Co103 N120 1.993 . S
Co103 O128 1.941 . S
C104 O105 1.258 . S
C104 O106 1.263 . S
O105 Co102 1.970 . S
O105 C104 1.258 . S
O106 Co103 1.966 . S
O106 C104 1.263 . S
C107 O108 1.235 . S
C107 O134 1.289 . S
O108 C107 1.235 . S
C109 C111 1.400 . S
C109 N112 1.351 . S
C109 C114 1.501 . S
C110 C111 1.387 . S
C110 N113 1.341 . S
C111 C109 1.400 . S
C111 C110 1.387 . S
N112 Co103 2.022 . S
N112 C109 1.351 . S
N112 N113 1.365 . S
N113 C110 1.341 . S
N113 N112 1.365 . S
N113 H133 0.862 . S
C114 C109 1.501 . S
C114 H115 0.961 . S
C114 H116 0.961 . S
C114 H117 0.960 . S
H115 C114 0.961 . S
H116 C114 0.961 . S
H117 C114 0.960 . S
C118 N119 1.342 . S
C118 C122 1.401 . S
C118 C123 1.499 . S
N119 Co102 1.989 . S
N119 C118 1.342 . S
N119 N120 1.388 . S
N120 Co103 1.993 . S
N120 N119 1.388 . S
N120 C121 1.346 . S
C121 N120 1.346 . S
C121 C122 1.396 . S
C121 C131 1.510 . S
C122 C118 1.401 . S
C122 C121 1.396 . S
C123 C118 1.499 . S
C123 H124 0.959 . S
C123 H125 0.960 . S
C123 H126 0.961 . S
H124 C123 0.959 . S
H125 C123 0.960 . S
H126 C123 0.961 . S
O127 Co102 1.967 . S
O127 C135 1.258 1_655 S
O128 Co103 1.941 . S
O128 C135 1.266 1_655 S
H129 C131 0.959 . S
H130 C131 0.961 . S
C131 C121 1.510 . S
C131 H129 0.959 . S
C131 H130 0.961 . S
C131 H132 0.960 . S
H132 C131 0.960 . S
H133 N113 0.862 . S
O134 Co102 1.920 . S
O134 C107 1.289 . S
C135 O127 1.258 1_455 S
C135 O128 1.266 1_455 S
Co136 O139 1.970 . S
Co136 N153 1.989 . S
Co136 O161 1.967 . S
Co136 O168 1.920 . S
Co137 O140 1.966 . S
Co137 N146 2.022 . S
Co137 N154 1.993 . S
Co137 O162 1.941 . S
C138 O139 1.258 . S
C138 O140 1.263 . S
O139 Co136 1.970 . S
O139 C138 1.258 . S
O140 Co137 1.966 . S
O140 C138 1.263 . S
C141 O142 1.235 . S
C141 O168 1.289 . S
O142 C141 1.235 . S
C143 C145 1.400 . S
C143 N146 1.351 . S
C143 C148 1.501 . S
C144 C145 1.387 . S
C144 N147 1.341 . S
C145 C143 1.400 . S
C145 C144 1.387 . S
N146 Co137 2.022 . S
N146 C143 1.351 . S
N146 N147 1.365 . S
N147 C144 1.341 . S
N147 N146 1.365 . S
N147 H167 0.862 . S
C148 C143 1.501 . S
C148 H149 0.961 . S
C148 H150 0.961 . S
C148 H151 0.960 . S
H149 C148 0.961 . S
H150 C148 0.961 . S
H151 C148 0.960 . S
C152 N153 1.342 . S
C152 C156 1.401 . S
C152 C157 1.499 . S
N153 Co136 1.989 . S
N153 C152 1.342 . S
N153 N154 1.388 . S
N154 Co137 1.993 . S
N154 N153 1.388 . S
N154 C155 1.346 . S
C155 N154 1.346 . S
C155 C156 1.396 . S
C155 C165 1.510 . S
C156 C152 1.401 . S
C156 C155 1.396 . S
C157 C152 1.499 . S
C157 H158 0.959 . S
C157 H159 0.960 . S
C157 H160 0.961 . S
H158 C157 0.959 . S
H159 C157 0.960 . S
H160 C157 0.961 . S
O161 Co136 1.967 . S
O161 C169 1.258 1_655 S
O162 Co137 1.941 . S
O162 C169 1.266 1_655 S
H163 C165 0.959 . S
H164 C165 0.961 . S
C165 C155 1.510 . S
C165 H163 0.959 . S
C165 H164 0.961 . S
C165 H166 0.960 . S
H166 C165 0.960 . S
H167 N147 0.862 . S
O168 Co136 1.920 . S
O168 C141 1.289 . S
C169 O161 1.258 1_455 S
C169 O162 1.266 1_455 S
Co170 O173 1.970 . S
Co170 N187 1.989 . S
Co170 O195 1.967 . S
Co170 O202 1.920 . S
Co171 O174 1.966 . S
Co171 N180 2.022 . S
Co171 N188 1.993 . S
Co171 O196 1.941 . S
C172 O173 1.258 . S
C172 O174 1.263 . S
O173 Co170 1.970 . S
O173 C172 1.258 . S
O174 Co171 1.966 . S
O174 C172 1.263 . S
C175 O176 1.235 . S
C175 O202 1.289 . S
O176 C175 1.235 . S
C177 C179 1.400 . S
C177 N180 1.351 . S
C177 C182 1.501 . S
C178 C179 1.387 . S
C178 N181 1.341 . S
C179 C177 1.400 . S
C179 C178 1.387 . S
N180 Co171 2.022 . S
N180 C177 1.351 . S
N180 N181 1.365 . S
N181 C178 1.341 . S
N181 N180 1.365 . S
N181 H201 0.862 . S
C182 C177 1.501 . S
C182 H183 0.961 . S
C182 H184 0.961 . S
C182 H185 0.960 . S
H183 C182 0.961 . S
H184 C182 0.961 . S
H185 C182 0.960 . S
C186 N187 1.342 . S
C186 C190 1.401 . S
C186 C191 1.499 . S
N187 Co170 1.989 . S
N187 C186 1.342 . S
N187 N188 1.388 . S
N188 Co171 1.993 . S
N188 N187 1.388 . S
N188 C189 1.346 . S
C189 N188 1.346 . S
C189 C190 1.396 . S
C189 C199 1.510 . S
C190 C186 1.401 . S
C190 C189 1.396 . S
C191 C186 1.499 . S
C191 H192 0.959 . S
C191 H193 0.960 . S
C191 H194 0.961 . S
H192 C191 0.959 . S
H193 C191 0.960 . S
H194 C191 0.961 . S
O195 Co170 1.967 . S
O195 C203 1.258 . S
O196 Co171 1.941 . S
O196 C203 1.266 . S
H197 C199 0.959 . S
H198 C199 0.961 . S
C199 C189 1.510 . S
C199 H197 0.959 . S
C199 H198 0.961 . S
C199 H200 0.960 . S
H200 C199 0.960 . S
H201 N181 0.862 . S
O202 Co170 1.920 . S
O202 C175 1.289 . S
C203 O195 1.258 . S
C203 O196 1.266 . S
Co204 O207 1.970 . S
Co204 N221 1.989 . S
Co204 O229 1.967 . S
Co204 O236 1.920 . S
Co205 O208 1.966 . S
Co205 N214 2.022 . S
Co205 N222 1.993 . S
Co205 O230 1.941 . S
C206 O207 1.258 . S
C206 O208 1.263 . S
O207 Co204 1.970 . S
O207 C206 1.258 . S
O208 Co205 1.966 . S
O208 C206 1.263 . S
C209 O210 1.235 . S
C209 O236 1.289 . S
O210 C209 1.235 . S
C211 C213 1.400 . S
C211 N214 1.351 . S
C211 C216 1.501 . S
C212 C213 1.387 . S
C212 N215 1.341 . S
C213 C211 1.400 . S
C213 C212 1.387 . S
N214 Co205 2.022 . S
N214 C211 1.351 . S
N214 N215 1.365 . S
N215 C212 1.341 . S
N215 N214 1.365 . S
N215 H235 0.862 . S
C216 C211 1.501 . S
C216 H217 0.961 . S
C216 H218 0.961 . S
C216 H219 0.960 . S
H217 C216 0.961 . S
H218 C216 0.961 . S
H219 C216 0.960 . S
C220 N221 1.342 . S
C220 C224 1.401 . S
C220 C225 1.499 . S
N221 Co204 1.989 . S
N221 C220 1.342 . S
N221 N222 1.388 . S
N222 Co205 1.993 . S
N222 N221 1.388 . S
N222 C223 1.346 . S
C223 N222 1.346 . S
C223 C224 1.396 . S
C223 C233 1.510 . S
C224 C220 1.401 . S
C224 C223 1.396 . S
C225 C220 1.499 . S
C225 H226 0.959 . S
C225 H227 0.960 . S
C225 H228 0.961 . S
H226 C225 0.959 . S
H227 C225 0.960 . S
H228 C225 0.961 . S
O229 Co204 1.967 . S
O229 C237 1.258 . S
O230 Co205 1.941 . S
O230 C237 1.266 . S
H231 C233 0.959 . S
H232 C233 0.961 . S
C233 C223 1.510 . S
C233 H231 0.959 . S
C233 H232 0.961 . S
C233 H234 0.960 . S
H234 C233 0.960 . S
H235 N215 0.862 . S
O236 Co204 1.920 . S
O236 C209 1.289 . S
C237 O229 1.258 . S
C237 O230 1.266 . S
Co238 O241 1.970 . S
Co238 N255 1.989 . S
Co238 O263 1.967 . S
Co238 O270 1.920 . S
Co239 O242 1.966 . S
Co239 N248 2.022 . S
Co239 N256 1.993 . S
Co239 O264 1.941 . S
C240 O241 1.258 . S
C240 O242 1.263 . S
O241 Co238 1.970 . S
O241 C240 1.258 . S
O242 Co239 1.966 . S
O242 C240 1.263 . S
C243 O244 1.235 . S
C243 O270 1.289 . S
O244 C243 1.235 . S
C245 C247 1.400 . S
C245 N248 1.351 . S
C245 C250 1.501 . S
C246 C247 1.387 . S
C246 N249 1.341 . S
C247 C245 1.400 . S
C247 C246 1.387 . S
N248 Co239 2.022 . S
N248 C245 1.351 . S
N248 N249 1.365 . S
N249 C246 1.341 . S
N249 N248 1.365 . S
N249 H269 0.862 . S
C250 C245 1.501 . S
C250 H251 0.961 . S
C250 H252 0.961 . S
C250 H253 0.960 . S
H251 C250 0.961 . S
H252 C250 0.961 . S
H253 C250 0.960 . S
C254 N255 1.342 . S
C254 C258 1.401 . S
C254 C259 1.499 . S
N255 Co238 1.989 . S
N255 C254 1.342 . S
N255 N256 1.388 . S
N256 Co239 1.993 . S
N256 N255 1.388 . S
N256 C257 1.346 . S
C257 N256 1.346 . S
C257 C258 1.396 . S
C257 C267 1.510 . S
C258 C254 1.401 . S
C258 C257 1.396 . S
C259 C254 1.499 . S
C259 H260 0.959 . S
C259 H261 0.960 . S
C259 H262 0.961 . S
H260 C259 0.959 . S
H261 C259 0.960 . S
H262 C259 0.961 . S
O263 Co238 1.967 . S
O263 C271 1.258 1_455 S
O264 Co239 1.941 . S
O264 C271 1.266 1_455 S
H265 C267 0.959 . S
H266 C267 0.961 . S
C267 C257 1.510 . S
C267 H265 0.959 . S
C267 H266 0.961 . S
C267 H268 0.960 . S
H268 C267 0.960 . S
H269 N249 0.862 . S
O270 Co238 1.920 . S
O270 C243 1.289 . S
C271 O263 1.258 1_655 S
C271 O264 1.266 1_655 S
Co272 O275 1.970 . S
Co272 N289 1.989 . S
Co272 O297 1.967 . S
Co272 O304 1.920 . S
Co273 O276 1.966 . S
Co273 N282 2.022 . S
Co273 N290 1.993 . S
Co273 O298 1.941 . S
C274 O275 1.258 . S
C274 O276 1.263 . S
O275 Co272 1.970 . S
O275 C274 1.258 . S
O276 Co273 1.966 . S
O276 C274 1.263 . S
C277 O278 1.235 . S
C277 O304 1.289 . S
O278 C277 1.235 . S
C279 C281 1.400 . S
C279 N282 1.351 . S
C279 C284 1.501 . S
C280 C281 1.387 . S
C280 N283 1.341 . S
C281 C279 1.400 . S
C281 C280 1.387 . S
N282 Co273 2.022 . S
N282 C279 1.351 . S
N282 N283 1.365 . S
N283 C280 1.341 . S
N283 N282 1.365 . S
N283 H303 0.862 . S
C284 C279 1.501 . S
C284 H285 0.961 . S
C284 H286 0.961 . S
C284 H287 0.960 . S
H285 C284 0.961 . S
H286 C284 0.961 . S
H287 C284 0.960 . S
C288 N289 1.342 . S
C288 C292 1.401 . S
C288 C293 1.499 . S
N289 Co272 1.989 . S
N289 C288 1.342 . S
N289 N290 1.388 . S
N290 Co273 1.993 . S
N290 N289 1.388 . S
N290 C291 1.346 . S
C291 N290 1.346 . S
C291 C292 1.396 . S
C291 C301 1.510 . S
C292 C288 1.401 . S
C292 C291 1.396 . S
C293 C288 1.499 . S
C293 H294 0.959 . S
C293 H295 0.960 . S
C293 H296 0.961 . S
H294 C293 0.959 . S
H295 C293 0.960 . S
H296 C293 0.961 . S
O297 Co272 1.967 . S
O297 C305 1.258 . S
O298 Co273 1.941 . S
O298 C305 1.266 . S
H299 C301 0.959 . S
H300 C301 0.961 . S
C301 C291 1.510 . S
C301 H299 0.959 . S
C301 H300 0.961 . S
C301 H302 0.960 . S
H302 C301 0.960 . S
H303 N283 0.862 . S
O304 Co272 1.920 . S
O304 C277 1.289 . S
C305 O297 1.258 . S
C305 O298 1.266 . S
Co306 O309 1.970 . S
Co306 N323 1.989 . S
Co306 O331 1.967 . S
Co306 O338 1.920 . S
Co307 O310 1.966 . S
Co307 N316 2.022 . S
Co307 N324 1.993 . S
Co307 O332 1.941 . S
C308 O309 1.258 . S
C308 O310 1.263 . S
O309 Co306 1.970 . S
O309 C308 1.258 . S
O310 Co307 1.966 . S
O310 C308 1.263 . S
C311 O312 1.235 . S
C311 O338 1.289 . S
O312 C311 1.235 . S
C313 C315 1.400 . S
C313 N316 1.351 . S
C313 C318 1.501 . S
C314 C315 1.387 . S
C314 N317 1.341 . S
C315 C313 1.400 . S
C315 C314 1.387 . S
N316 Co307 2.022 . S
N316 C313 1.351 . S
N316 N317 1.365 . S
N317 C314 1.341 . S
N317 N316 1.365 . S
N317 H337 0.862 . S
C318 C313 1.501 . S
C318 H319 0.961 . S
C318 H320 0.961 . S
C318 H321 0.960 . S
H319 C318 0.961 . S
H320 C318 0.961 . S
H321 C318 0.960 . S
C322 N323 1.342 . S
C322 C326 1.401 . S
C322 C327 1.499 . S
N323 Co306 1.989 . S
N323 C322 1.342 . S
N323 N324 1.388 . S
N324 Co307 1.993 . S
N324 N323 1.388 . S
N324 C325 1.346 . S
C325 N324 1.346 . S
C325 C326 1.396 . S
C325 C335 1.510 . S
C326 C322 1.401 . S
C326 C325 1.396 . S
C327 C322 1.499 . S
C327 H328 0.959 . S
C327 H329 0.960 . S
C327 H330 0.961 . S
H328 C327 0.959 . S
H329 C327 0.960 . S
H330 C327 0.961 . S
O331 Co306 1.967 . S
O331 C339 1.258 1_655 S
O332 Co307 1.941 . S
O332 C339 1.266 1_655 S
H333 C335 0.959 . S
H334 C335 0.961 . S
C335 C325 1.510 . S
C335 H333 0.959 . S
C335 H334 0.961 . S
C335 H336 0.960 . S
H336 C335 0.960 . S
H337 N317 0.862 . S
O338 Co306 1.920 . S
O338 C311 1.289 . S
C339 O331 1.258 1_455 S
C339 O332 1.266 1_455 S
Co340 O343 1.970 . S
Co340 N357 1.989 . S
Co340 O365 1.967 . S
Co340 O372 1.920 . S
Co341 O344 1.966 . S
Co341 N350 2.022 . S
Co341 N358 1.993 . S
Co341 O366 1.941 . S
C342 O343 1.258 . S
C342 O344 1.263 . S
O343 Co340 1.970 . S
O343 C342 1.258 . S
O344 Co341 1.966 . S
O344 C342 1.263 . S
C345 O346 1.235 . S
C345 O372 1.289 . S
O346 C345 1.235 . S
C347 C349 1.400 . S
C347 N350 1.351 . S
C347 C352 1.501 . S
C348 C349 1.387 . S
C348 N351 1.341 . S
C349 C347 1.400 . S
C349 C348 1.387 . S
N350 Co341 2.022 . S
N350 C347 1.351 . S
N350 N351 1.365 . S
N351 C348 1.341 . S
N351 N350 1.365 . S
N351 H371 0.862 . S
C352 C347 1.501 . S
C352 H353 0.961 . S
C352 H354 0.961 . S
C352 H355 0.960 . S
H353 C352 0.961 . S
H354 C352 0.961 . S
H355 C352 0.960 . S
C356 N357 1.342 . S
C356 C360 1.401 . S
C356 C361 1.499 . S
N357 Co340 1.989 . S
N357 C356 1.342 . S
N357 N358 1.388 . S
N358 Co341 1.993 . S
N358 N357 1.388 . S
N358 C359 1.346 . S
C359 N358 1.346 . S
C359 C360 1.396 . S
C359 C369 1.510 . S
C360 C356 1.401 . S
C360 C359 1.396 . S
C361 C356 1.499 . S
C361 H362 0.959 . S
C361 H363 0.960 . S
C361 H364 0.961 . S
H362 C361 0.959 . S
H363 C361 0.960 . S
H364 C361 0.961 . S
O365 Co340 1.967 . S
O365 C373 1.258 1_455 S
O366 Co341 1.941 . S
O366 C373 1.266 1_455 S
H367 C369 0.959 . S
H368 C369 0.961 . S
C369 C359 1.510 . S
C369 H367 0.959 . S
C369 H368 0.961 . S
C369 H370 0.960 . S
H370 C369 0.960 . S
H371 N351 0.862 . S
O372 Co340 1.920 . S
O372 C345 1.289 . S
C373 O365 1.258 1_655 S
C373 O366 1.266 1_655 S
Co374 O377 1.970 . S
Co374 N391 1.989 . S
Co374 O399 1.967 . S
Co374 O406 1.920 . S
Co375 O378 1.966 . S
Co375 N384 2.022 . S
Co375 N392 1.993 . S
Co375 O400 1.941 . S
C376 O377 1.258 . S
C376 O378 1.263 . S
O377 Co374 1.970 . S
O377 C376 1.258 . S
O378 Co375 1.966 . S
O378 C376 1.263 . S
C379 O380 1.235 . S
C379 O406 1.289 . S
O380 C379 1.235 . S
C381 C383 1.400 . S
C381 N384 1.351 . S
C381 C386 1.501 . S
C382 C383 1.387 . S
C382 N385 1.341 . S
C383 C381 1.400 . S
C383 C382 1.387 . S
N384 Co375 2.022 . S
N384 C381 1.351 . S
N384 N385 1.365 . S
N385 C382 1.341 . S
N385 N384 1.365 . S
N385 H405 0.862 . S
C386 C381 1.501 . S
C386 H387 0.961 . S
C386 H388 0.961 . S
C386 H389 0.960 . S
H387 C386 0.961 . S
H388 C386 0.961 . S
H389 C386 0.960 . S
C390 N391 1.342 . S
C390 C394 1.401 . S
C390 C395 1.499 . S
N391 Co374 1.989 . S
N391 C390 1.342 . S
N391 N392 1.388 . S
N392 Co375 1.993 . S
N392 N391 1.388 . S
N392 C393 1.346 . S
C393 N392 1.346 . S
C393 C394 1.396 . S
C393 C403 1.510 . S
C394 C390 1.401 . S
C394 C393 1.396 . S
C395 C390 1.499 . S
C395 H396 0.959 . S
C395 H397 0.960 . S
C395 H398 0.961 . S
H396 C395 0.959 . S
H397 C395 0.960 . S
H398 C395 0.961 . S
O399 Co374 1.967 . S
O399 C407 1.258 . S
O400 Co375 1.941 . S
O400 C407 1.266 . S
H401 C403 0.959 . S
H402 C403 0.961 . S
C403 C393 1.510 . S
C403 H401 0.959 . S
C403 H402 0.961 . S
C403 H404 0.960 . S
H404 C403 0.960 . S
H405 N385 0.862 . S
O406 Co374 1.920 . S
O406 C379 1.289 . S
C407 O399 1.258 . S
C407 O400 1.266 . S
Co408 O411 1.970 . S
Co408 N425 1.989 . S
Co408 O433 1.967 . S
Co408 O440 1.920 . S
Co409 O412 1.966 . S
Co409 N418 2.022 . S
Co409 N426 1.993 . S
Co409 O434 1.941 . S
C410 O411 1.258 . S
C410 O412 1.263 . S
O411 Co408 1.970 . S
O411 C410 1.258 . S
O412 Co409 1.966 . S
O412 C410 1.263 . S
C413 O414 1.235 . S
C413 O440 1.289 . S
O414 C413 1.235 . S
C415 C417 1.400 . S
C415 N418 1.351 . S
C415 C420 1.501 . S
C416 C417 1.387 . S
C416 N419 1.341 . S
C417 C415 1.400 . S
C417 C416 1.387 . S
N418 Co409 2.022 . S
N418 C415 1.351 . S
N418 N419 1.365 . S
N419 C416 1.341 . S
N419 N418 1.365 . S
N419 H439 0.862 . S
C420 C415 1.501 . S
C420 H421 0.961 . S
C420 H422 0.961 . S
C420 H423 0.960 . S
H421 C420 0.961 . S
H422 C420 0.961 . S
H423 C420 0.960 . S
C424 N425 1.342 . S
C424 C428 1.401 . S
C424 C429 1.499 . S
N425 Co408 1.989 . S
N425 C424 1.342 . S
N425 N426 1.388 . S
N426 Co409 1.993 . S
N426 N425 1.388 . S
N426 C427 1.346 . S
C427 N426 1.346 . S
C427 C428 1.396 . S
C427 C437 1.510 . S
C428 C424 1.401 . S
C428 C427 1.396 . S
C429 C424 1.499 . S
C429 H430 0.959 . S
C429 H431 0.960 . S
C429 H432 0.961 . S
H430 C429 0.959 . S
H431 C429 0.960 . S
H432 C429 0.961 . S
O433 Co408 1.967 . S
O433 C441 1.258 . S
O434 Co409 1.941 . S
O434 C441 1.266 . S
H435 C437 0.959 . S
H436 C437 0.961 . S
C437 C427 1.510 . S
C437 H435 0.959 . S
C437 H436 0.961 . S
C437 H438 0.960 . S
H438 C437 0.960 . S
H439 N419 0.862 . S
O440 Co408 1.920 . S
O440 C413 1.289 . S
C441 O433 1.258 . S
C441 O434 1.266 . S
Co442 O445 1.970 . S
Co442 N459 1.989 . S
Co442 O467 1.967 . S
Co442 O474 1.920 . S
Co443 O446 1.966 . S
Co443 N452 2.022 . S
Co443 N460 1.993 . S
Co443 O468 1.941 . S
C444 O445 1.258 . S
C444 O446 1.263 . S
O445 Co442 1.970 . S
O445 C444 1.258 . S
O446 Co443 1.966 . S
O446 C444 1.263 . S
C447 O448 1.235 . S
C447 O474 1.289 . S
O448 C447 1.235 . S
C449 C451 1.400 . S
C449 N452 1.351 . S
C449 C454 1.501 . S
C450 C451 1.387 . S
C450 N453 1.341 . S
C451 C449 1.400 . S
C451 C450 1.387 . S
N452 Co443 2.022 . S
N452 C449 1.351 . S
N452 N453 1.365 . S
N453 C450 1.341 . S
N453 N452 1.365 . S
N453 H473 0.862 . S
C454 C449 1.501 . S
C454 H455 0.961 . S
C454 H456 0.961 . S
C454 H457 0.960 . S
H455 C454 0.961 . S
H456 C454 0.961 . S
H457 C454 0.960 . S
C458 N459 1.342 . S
C458 C462 1.401 . S
C458 C463 1.499 . S
N459 Co442 1.989 . S
N459 C458 1.342 . S
N459 N460 1.388 . S
N460 Co443 1.993 . S
N460 N459 1.388 . S
N460 C461 1.346 . S
C461 N460 1.346 . S
C461 C462 1.396 . S
C461 C471 1.510 . S
C462 C458 1.401 . S
C462 C461 1.396 . S
C463 C458 1.499 . S
C463 H464 0.959 . S
C463 H465 0.960 . S
C463 H466 0.961 . S
H464 C463 0.959 . S
H465 C463 0.960 . S
H466 C463 0.961 . S
O467 Co442 1.967 . S
O467 C475 1.258 1_455 S
O468 Co443 1.941 . S
O468 C475 1.266 1_455 S
H469 C471 0.959 . S
H470 C471 0.961 . S
C471 C461 1.510 . S
C471 H469 0.959 . S
C471 H470 0.961 . S
C471 H472 0.960 . S
H472 C471 0.960 . S
H473 N453 0.862 . S
O474 Co442 1.920 . S
O474 C447 1.289 . S
C475 O467 1.258 1_655 S
C475 O468 1.266 1_655 S
Co476 O479 1.970 . S
Co476 N493 1.989 . S
Co476 O501 1.967 . S
Co476 O508 1.920 . S
Co477 O480 1.966 . S
Co477 N486 2.022 . S
Co477 N494 1.993 . S
Co477 O502 1.941 . S
C478 O479 1.258 . S
C478 O480 1.263 . S
O479 Co476 1.970 . S
O479 C478 1.258 . S
O480 Co477 1.966 . S
O480 C478 1.263 . S
C481 O482 1.235 . S
C481 O508 1.289 . S
O482 C481 1.235 . S
C483 C485 1.400 . S
C483 N486 1.351 . S
C483 C488 1.501 . S
C484 C485 1.387 . S
C484 N487 1.341 . S
C485 C483 1.400 . S
C485 C484 1.387 . S
N486 Co477 2.022 . S
N486 C483 1.351 . S
N486 N487 1.365 . S
N487 C484 1.341 . S
N487 N486 1.365 . S
N487 H507 0.862 . S
C488 C483 1.501 . S
C488 H489 0.961 . S
C488 H490 0.961 . S
C488 H491 0.960 . S
H489 C488 0.961 . S
H490 C488 0.961 . S
H491 C488 0.960 . S
C492 N493 1.342 . S
C492 C496 1.401 . S
C492 C497 1.499 . S
N493 Co476 1.989 . S
N493 C492 1.342 . S
N493 N494 1.388 . S
N494 Co477 1.993 . S
N494 N493 1.388 . S
N494 C495 1.346 . S
C495 N494 1.346 . S
C495 C496 1.396 . S
C495 C505 1.510 . S
C496 C492 1.401 . S
C496 C495 1.396 . S
C497 C492 1.499 . S
C497 H498 0.959 . S
C497 H499 0.960 . S
C497 H500 0.961 . S
H498 C497 0.959 . S
H499 C497 0.960 . S
H500 C497 0.961 . S
O501 Co476 1.967 . S
O501 C509 1.258 1_655 S
O502 Co477 1.941 . S
O502 C509 1.266 1_655 S
H503 C505 0.959 . S
H504 C505 0.961 . S
C505 C495 1.510 . S
C505 H503 0.959 . S
C505 H504 0.961 . S
C505 H506 0.960 . S
H506 C505 0.960 . S
H507 N487 0.862 . S
O508 Co476 1.920 . S
O508 C481 1.289 . S
C509 O501 1.258 1_455 S
C509 O502 1.266 1_455 S
Co510 O513 1.970 . S
Co510 N527 1.989 . S
Co510 O535 1.967 . S
Co510 O542 1.920 . S
Co511 O514 1.966 . S
Co511 N520 2.022 . S
Co511 N528 1.993 . S
Co511 O536 1.941 . S
C512 O513 1.258 . S
C512 O514 1.263 . S
O513 Co510 1.970 . S
O513 C512 1.258 . S
O514 Co511 1.966 . S
O514 C512 1.263 . S
C515 O516 1.235 . S
C515 O542 1.289 . S
O516 C515 1.235 . S
C517 C519 1.400 . S
C517 N520 1.351 . S
C517 C522 1.501 . S
C518 C519 1.387 . S
C518 N521 1.341 . S
C519 C517 1.400 . S
C519 C518 1.387 . S
N520 Co511 2.022 . S
N520 C517 1.351 . S
N520 N521 1.365 . S
N521 C518 1.341 . S
N521 N520 1.365 . S
N521 H541 0.862 . S
C522 C517 1.501 . S
C522 H523 0.961 . S
C522 H524 0.961 . S
C522 H525 0.960 . S
H523 C522 0.961 . S
H524 C522 0.961 . S
H525 C522 0.960 . S
C526 N527 1.342 . S
C526 C530 1.401 . S
C526 C531 1.499 . S
N527 Co510 1.989 . S
N527 C526 1.342 . S
N527 N528 1.388 . S
N528 Co511 1.993 . S
N528 N527 1.388 . S
N528 C529 1.346 . S
C529 N528 1.346 . S
C529 C530 1.396 . S
C529 C539 1.510 . S
C530 C526 1.401 . S
C530 C529 1.396 . S
C531 C526 1.499 . S
C531 H532 0.959 . S
C531 H533 0.960 . S
C531 H534 0.961 . S
H532 C531 0.959 . S
H533 C531 0.960 . S
H534 C531 0.961 . S
O535 Co510 1.967 . S
O535 C543 1.258 . S
O536 Co511 1.941 . S
O536 C543 1.266 . S
H537 C539 0.959 . S
H538 C539 0.961 . S
C539 C529 1.510 . S
C539 H537 0.959 . S
C539 H538 0.961 . S
C539 H540 0.960 . S
H540 C539 0.960 . S
H541 N521 0.862 . S
O542 Co510 1.920 . S
O542 C515 1.289 . S
C543 O535 1.258 . S
C543 O536 1.266 . S
H544 C550 0.930 . S
H545 C553 0.930 . S
H546 C554 0.930 . S
H547 C555 0.930 . S
H548 C558 0.930 . S
H549 C559 0.930 . S
C550 H544 0.930 . S
C550 C551 1.355 . S
C550 C552 1.415 . S
C551 C550 1.355 . S
C551 C553 1.419 . S
C552 C550 1.415 . S
C552 C557 1.425 . S
C552 C559 1.409 1_556 S
C553 H545 0.930 . S
C553 C551 1.419 . S
C553 C554 1.362 . S
C554 H546 0.930 . S
C554 C553 1.362 . S
C554 C557 1.409 . S
C555 H547 0.930 . S
C555 C556 1.355 . S
C555 C557 1.415 1_554 S
C556 C555 1.355 . S
C556 C558 1.419 . S
C557 C552 1.425 . S
C557 C554 1.409 . S
C557 C555 1.415 1_556 S
C558 H548 0.930 . S
C558 C556 1.419 . S
C558 C559 1.362 . S
C559 H549 0.930 . S
C559 C552 1.409 1_554 S
C559 C558 1.362 . S
H560 C566 0.930 . S
H561 C569 0.930 1_655 S
H562 C570 0.930 . S
H563 C571 0.930 . S
H564 C574 0.930 . S
H565 C575 0.930 . S
C566 H560 0.930 . S
C566 C567 1.355 . S
C566 C568 1.415 . S
C567 C566 1.355 . S
C567 C569 1.419 . S
C568 C566 1.415 . S
C568 C573 1.425 1_556 S
C568 C575 1.409 . S
C569 H561 0.930 1_455 S
C569 C567 1.419 . S
C569 C570 1.362 1_556 S
C570 H562 0.930 . S
C570 C569 1.362 1_554 S
C570 C573 1.409 . S
C571 H563 0.930 . S
C571 C572 1.355 . S
C571 C573 1.415 . S
C572 C571 1.355 . S
C572 C574 1.419 . S
C573 C568 1.425 1_554 S
C573 C570 1.409 . S
C573 C571 1.415 . S
C574 H564 0.930 . S
C574 C572 1.419 . S
C574 C575 1.362 1_554 S
C575 H565 0.930 . S
C575 C568 1.409 . S
C575 C574 1.362 1_556 S
H576 C582 0.930 . S
H577 C585 0.930 . S
H578 C586 0.930 . S
H579 C587 0.930 . S
H580 C590 0.930 . S
H581 C591 0.930 . S
C582 H576 0.930 . S
C582 C583 1.355 . S
C582 C584 1.415 . S
C583 C582 1.355 . S
C583 C585 1.419 . S
C584 C582 1.415 . S
C584 C589 1.425 . S
C584 C591 1.409 . S
C585 H577 0.930 . S
C585 C583 1.419 . S
C585 C586 1.362 . S
C586 H578 0.930 . S
C586 C585 1.362 . S
C586 C589 1.409 . S
C587 H579 0.930 . S
C587 C588 1.355 . S
C587 C589 1.415 . S
C588 C587 1.355 . S
C588 C590 1.419 . S
C589 C584 1.425 . S
C589 C586 1.409 . S
C589 C587 1.415 . S
C590 H580 0.930 . S
C590 C588 1.419 . S
C590 C591 1.362 . S
C591 H581 0.930 . S
C591 C584 1.409 . S
C591 C590 1.362 . S
H592 C598 0.930 . S
H593 C601 0.930 . S
H594 C602 0.930 . S
H595 C603 0.930 . S
H596 C606 0.930 . S
H597 C607 0.930 . S
C598 H592 0.930 . S
C598 C599 1.355 . S
C598 C600 1.415 . S
C599 C598 1.355 . S
C599 C601 1.419 . S
C600 C598 1.415 . S
C600 C605 1.425 . S
C600 C607 1.409 . S
C601 H593 0.930 . S
C601 C599 1.419 . S
C601 C602 1.362 . S
C602 H594 0.930 . S
C602 C601 1.362 . S
C602 C605 1.409 . S
C603 H595 0.930 . S
C603 C604 1.355 . S
C603 C605 1.415 . S
C604 C603 1.355 . S
C604 C606 1.419 . S
C605 C600 1.425 . S
C605 C602 1.409 . S
C605 C603 1.415 . S
C606 H596 0.930 . S
C606 C604 1.419 . S
C606 C607 1.362 . S
C607 H597 0.930 . S
C607 C600 1.409 . S
C607 C606 1.362 . S
H608 C614 0.930 . S
H609 C617 0.930 . S
H610 C618 0.930 . S
H611 C619 0.930 . S
H612 C622 0.930 . S
H613 C623 0.930 1_556 S
C614 H608 0.930 . S
C614 C615 1.355 . S
C614 C616 1.415 . S
C615 C614 1.355 . S
C615 C617 1.419 . S
C616 C614 1.415 . S
C616 C621 1.425 1_556 S
C616 C623 1.409 1_556 S
C617 H609 0.930 . S
C617 C615 1.419 . S
C617 C618 1.362 1_556 S
C618 H610 0.930 . S
C618 C617 1.362 1_554 S
C618 C621 1.409 . S
C619 H611 0.930 . S
C619 C620 1.355 . S
C619 C621 1.415 . S
C620 C619 1.355 . S
C620 C622 1.419 . S
C621 C616 1.425 1_554 S
C621 C618 1.409 . S
C621 C619 1.415 . S
C622 H612 0.930 . S
C622 C620 1.419 . S
C622 C623 1.362 . S
C623 H613 0.930 1_554 S
C623 C616 1.409 1_554 S
C623 C622 1.362 . S
H624 C630 0.932 . S
H625 C633 0.930 . S
H626 C634 0.930 . S
H627 C635 0.930 . S
H628 C638 0.930 . S
H629 C639 0.930 . S
C630 H624 0.932 . S
C630 C631 1.349 1_554 S
C630 C632 1.417 . S
C631 C630 1.349 1_556 S
C631 C633 1.419 . S
C632 C630 1.417 . S
C632 C637 1.425 1_554 S
C632 C639 1.409 . S
C633 H625 0.930 . S
C633 C631 1.419 . S
C633 C634 1.362 . S
C634 H626 0.930 . S
C634 C633 1.362 . S
C634 C637 1.409 . S
C635 H627 0.930 . S
C635 C636 1.355 . S
C635 C637 1.415 1_554 S
C636 C635 1.355 . S
C636 C638 1.419 . S
C637 C632 1.425 1_556 S
C637 C634 1.409 . S
C637 C635 1.415 1_556 S
C638 H628 0.930 . S
C638 C636 1.419 . S
C638 C639 1.362 . S
C639 H629 0.930 . S
C639 C632 1.409 . S
C639 C638 1.362 . S
H640 C646 0.930 . S
H641 C649 0.930 1_655 S
H642 C650 0.930 . S
H643 C651 0.930 . S
H644 C654 0.930 . S
H645 C655 0.930 . S
C646 H640 0.930 . S
C646 C647 1.355 . S
C646 C648 1.415 . S
C647 C646 1.355 . S
C647 C649 1.419 . S
C648 C646 1.415 . S
C648 C653 1.425 . S
C648 C655 1.409 . S
C649 H641 0.930 1_455 S
C649 C647 1.419 . S
C649 C650 1.362 . S
C650 H642 0.930 . S
C650 C649 1.362 . S
C650 C653 1.409 . S
C651 H643 0.930 . S
C651 C652 1.355 . S
C651 C653 1.415 . S
C652 C651 1.355 . S
C652 C654 1.419 . S
C653 C648 1.425 . S
C653 C650 1.409 . S
C653 C651 1.415 . S
C654 H644 0.930 . S
C654 C652 1.419 . S
C654 C655 1.362 . S
C655 H645 0.930 . S
C655 C648 1.409 . S
C655 C654 1.362 . S
H656 C662 0.930 . S
H657 C665 0.930 . S
H658 C666 0.930 . S
H659 C667 0.930 . S
H660 C670 0.930 . S
H661 C671 0.930 . S
C662 H656 0.930 . S
C662 C663 1.355 . S
C662 C664 1.415 . S
C663 C662 1.355 . S
C663 C665 1.419 . S
C664 C662 1.415 . S
C664 C669 1.425 . S
C664 C671 1.409 . S
C665 H657 0.930 . S
C665 C663 1.419 . S
C665 C666 1.362 . S
C666 H658 0.930 . S
C666 C665 1.362 . S
C666 C669 1.409 . S
C667 H659 0.930 . S
C667 C668 1.355 . S
C667 C669 1.415 . S
C668 C667 1.355 . S
C668 C670 1.419 . S
C669 C664 1.425 . S
C669 C666 1.409 . S
C669 C667 1.415 . S
C670 H660 0.930 . S
C670 C668 1.419 . S
C670 C671 1.362 . S
C671 H661 0.930 . S
C671 C664 1.409 . S
C671 C670 1.362 . S
H672 C678 0.930 . S
H673 C681 0.930 . S
H674 C682 0.930 . S
H675 C683 0.930 . S
H676 C686 0.930 1_455 S
H677 C687 0.930 . S
C678 H672 0.930 . S
C678 C679 1.355 . S
C678 C680 1.415 . S
C679 C678 1.355 . S
C679 C681 1.419 1_554 S
C680 C678 1.415 . S
C680 C685 1.425 1_554 S
C680 C687 1.409 . S
C681 H673 0.930 . S
C681 C679 1.419 1_556 S
C681 C682 1.362 . S
C682 H674 0.930 . S
C682 C681 1.362 . S
C682 C685 1.409 . S
C683 H675 0.930 . S
C683 C684 1.355 . S
C683 C685 1.415 . S
C684 C683 1.355 . S
C684 C686 1.419 . S
C685 C680 1.425 1_556 S
C685 C682 1.409 . S
C685 C683 1.415 . S
C686 H676 0.930 1_655 S
C686 C684 1.419 . S
C686 C687 1.362 1_556 S
C687 H677 0.930 . S
C687 C680 1.409 . S
C687 C686 1.362 1_554 S
H688 C694 0.930 . S
H689 C697 0.930 . S
H690 C698 0.930 . S
H691 C699 0.930 . S
H692 C702 0.930 . S
H693 C703 0.930 . S
C694 H688 0.930 . S
C694 C695 1.355 . S
C694 C696 1.415 . S
C695 C694 1.355 . S
C695 C697 1.419 1_554 S
C696 C694 1.415 . S
C696 C701 1.425 1_554 S
C696 C703 1.409 . S
C697 H689 0.930 . S
C697 C695 1.419 1_556 S
C697 C698 1.362 . S
C698 H690 0.930 . S
C698 C697 1.362 . S
C698 C701 1.409 . S
C699 H691 0.930 . S
C699 C700 1.355 . S
C699 C701 1.415 . S
C700 C699 1.355 . S
C700 C702 1.419 . S
C701 C696 1.425 1_556 S
C701 C698 1.409 . S
C701 C699 1.415 . S
C702 H692 0.930 . S
C702 C700 1.419 . S
C702 C703 1.362 1_556 S
C703 H693 0.930 . S
C703 C696 1.409 . S
C703 C702 1.362 1_554 S
H704 C710 0.930 . S
H705 C713 0.930 . S
H706 C714 0.930 . S
H707 C715 0.930 . S
H708 C718 0.930 . S
H709 C719 0.930 . S
C710 H704 0.930 . S
C710 C711 1.355 . S
C710 C712 1.415 . S
C711 C710 1.355 . S
C711 C713 1.419 . S
C712 C710 1.415 . S
C712 C717 1.425 . S
C712 C719 1.409 . S
C713 H705 0.930 . S
C713 C711 1.419 . S
C713 C714 1.362 . S
C714 H706 0.930 . S
C714 C713 1.362 . S
C714 C717 1.409 . S
C715 H707 0.930 . S
C715 C716 1.355 . S
C715 C717 1.415 . S
C716 C715 1.355 . S
C716 C718 1.419 . S
C717 C712 1.425 . S
C717 C714 1.409 . S
C717 C715 1.415 . S
C718 H708 0.930 . S
C718 C716 1.419 . S
C718 C719 1.362 . S
C719 H709 0.930 . S
C719 C712 1.409 . S
C719 C718 1.362 . S
H720 C726 0.930 . S
H721 C729 0.930 . S
H722 C730 0.930 . S
H723 C731 0.930 . S
H724 C734 0.930 . S
H725 C735 0.930 . S
C726 H720 0.930 . S
C726 C727 1.355 . S
C726 C728 1.415 . S
C727 C726 1.355 . S
C727 C729 1.419 . S
C728 C726 1.415 . S
C728 C733 1.425 . S
C728 C735 1.409 . S
C729 H721 0.930 . S
C729 C727 1.419 . S
C729 C730 1.362 . S
C730 H722 0.930 . S
C730 C729 1.362 . S
C730 C733 1.409 . S
C731 H723 0.930 . S
C731 C732 1.355 . S
C731 C733 1.415 . S
C732 C731 1.355 . S
C732 C734 1.419 . S
C733 C728 1.425 . S
C733 C730 1.409 . S
C733 C731 1.415 . S
C734 H724 0.930 . S
C734 C732 1.419 . S
C734 C735 1.362 . S
C735 H725 0.930 . S
C735 C728 1.409 . S
C735 C734 1.362 . S
H736 C742 0.930 . S
H737 C745 0.930 . S
H738 C746 0.930 . S
H739 C747 0.930 . S
H740 C750 0.930 1_655 S
H741 C751 0.930 . S
C742 H736 0.930 . S
C742 C743 1.355 . S
C742 C744 1.415 . S
C743 C742 1.355 . S
C743 C745 1.419 1_556 S
C744 C742 1.415 . S
C744 C749 1.425 1_556 S
C744 C751 1.409 . S
C745 H737 0.930 . S
C745 C743 1.419 1_554 S
C745 C746 1.362 . S
C746 H738 0.930 . S
C746 C745 1.362 . S
C746 C749 1.409 . S
C747 H739 0.930 . S
C747 C748 1.355 . S
C747 C749 1.415 . S
C748 C747 1.355 . S
C748 C750 1.419 . S
C749 C744 1.425 1_554 S
C749 C746 1.409 . S
C749 C747 1.415 . S
C750 H740 0.930 1_455 S
C750 C748 1.419 . S
C750 C751 1.362 1_554 S
C751 H741 0.930 . S
C751 C744 1.409 . S
C751 C750 1.362 1_556 S
H752 C758 0.928 1_554 S
H753 C761 0.930 . S
H754 C762 0.930 . S
H755 C763 0.930 . S
H756 C766 0.930 . S
H757 C767 0.930 . S
C758 H752 0.928 1_556 S
C758 C759 1.358 . S
C758 C760 1.413 1_556 S
C759 C758 1.358 . S
C759 C761 1.419 . S
C760 C758 1.413 1_554 S
C760 C765 1.425 1_554 S
C760 C767 1.409 . S
C761 H753 0.930 . S
C761 C759 1.419 . S
C761 C762 1.362 . S
C762 H754 0.930 . S
C762 C761 1.362 . S
C762 C765 1.409 . S
C763 H755 0.930 . S
C763 C764 1.355 . S
C763 C765 1.415 1_554 S
C764 C763 1.355 . S
C764 C766 1.419 . S
C765 C760 1.425 1_556 S
C765 C762 1.409 . S
C765 C763 1.415 1_556 S
C766 H756 0.930 . S
C766 C764 1.419 . S
C766 C767 1.362 . S
C767 H757 0.930 . S
C767 C760 1.409 . S
C767 C766 1.362 . S
H768 C774 0.930 . S
H769 C777 0.930 . S
H770 C778 0.930 . S
H771 C779 0.930 . S
H772 C782 0.930 . S
H773 C783 0.930 . S
C774 H768 0.930 . S
C774 C775 1.355 . S
C774 C776 1.415 . S
C775 C774 1.355 . S
C775 C777 1.419 . S
C776 C774 1.415 . S
C776 C781 1.425 . S
C776 C783 1.409 . S
C777 H769 0.930 . S
C777 C775 1.419 . S
C777 C778 1.362 . S
C778 H770 0.930 . S
C778 C777 1.362 . S
C778 C781 1.409 . S
C779 H771 0.930 . S
C779 C780 1.355 . S
C779 C781 1.415 . S
C780 C779 1.355 . S
C780 C782 1.419 . S
C781 C776 1.425 . S
C781 C778 1.409 . S
C781 C779 1.415 . S
C782 H772 0.930 . S
C782 C780 1.419 . S
C782 C783 1.362 . S
C783 H773 0.930 . S
C783 C776 1.409 . S
C783 C782 1.362 . S
H784 C790 0.930 . S
H785 C793 0.930 1_455 S
H786 C794 0.930 . S
H787 C795 0.930 . S
H788 C798 0.930 . S
H789 C799 0.930 . S
C790 H784 0.930 . S
C790 C791 1.355 . S
C790 C792 1.415 . S
C791 C790 1.355 . S
C791 C793 1.419 . S
C792 C790 1.415 . S
C792 C797 1.425 . S
C792 C799 1.409 . S
C793 H785 0.930 1_655 S
C793 C791 1.419 . S
C793 C794 1.362 . S
C794 H786 0.930 . S
C794 C793 1.362 . S
C794 C797 1.409 . S
C795 H787 0.930 . S
C795 C796 1.355 . S
C795 C797 1.415 . S
C796 C795 1.355 . S
C796 C798 1.419 . S
C797 C792 1.425 . S
C797 C794 1.409 . S
C797 C795 1.415 . S
C798 H788 0.930 . S
C798 C796 1.419 . S
C798 C799 1.362 . S
C799 H789 0.930 . S
C799 C792 1.409 . S
C799 C798 1.362 . S
H800 C806 0.930 . S
H801 C809 0.930 . S
H802 C810 0.930 1_565 S
H803 C811 0.930 . S
H804 C814 0.930 . S
H805 C815 0.930 1_545 S
C806 H800 0.930 . S
C806 C807 1.355 . S
C806 C808 1.415 . S
C807 C806 1.355 . S
C807 C809 1.419 . S
C808 C806 1.415 . S
C808 C813 1.425 1_545 S
C808 C815 1.409 1_545 S
C809 H801 0.930 . S
C809 C807 1.419 . S
C809 C810 1.362 . S
C810 H802 0.930 1_545 S
C810 C809 1.362 . S
C810 C813 1.409 1_545 S
C811 H803 0.930 . S
C811 C812 1.355 . S
C811 C813 1.415 . S
C812 C811 1.355 . S
C812 C814 1.419 . S
C813 C808 1.425 1_565 S
C813 C810 1.409 1_565 S
C813 C811 1.415 . S
C814 H804 0.930 . S
C814 C812 1.419 . S
C814 C815 1.362 . S
C815 H805 0.930 1_565 S
C815 C808 1.409 1_565 S
C815 C814 1.362 . S
H816 C822 0.930 . S
H817 C825 0.930 . S
H818 C826 0.930 1_545 S
H819 C827 0.930 . S
H820 C830 0.930 . S
H821 C831 0.930 1_565 S
C822 H816 0.930 . S
C822 C823 1.355 . S
C822 C824 1.415 . S
C823 C822 1.355 . S
C823 C825 1.419 . S
C824 C822 1.415 . S
C824 C829 1.425 1_565 S
C824 C831 1.409 1_565 S
C825 H817 0.930 . S
C825 C823 1.419 . S
C825 C826 1.362 . S
C826 H818 0.930 1_565 S
C826 C825 1.362 . S
C826 C829 1.409 1_565 S
C827 H819 0.930 . S
C827 C828 1.355 . S
C827 C829 1.415 . S
C828 C827 1.355 . S
C828 C830 1.419 . S
C829 C824 1.425 1_545 S
C829 C826 1.409 1_545 S
C829 C827 1.415 . S
C830 H820 0.930 . S
C830 C828 1.419 . S
C830 C831 1.362 . S
C831 H821 0.930 1_545 S
C831 C824 1.409 1_545 S
C831 C830 1.362 . S
H832 C838 0.930 . S
H833 C841 0.930 . S
H834 C842 0.930 . S
H835 C843 0.930 . S
H836 C846 0.930 . S
H837 C847 0.930 . S
C838 H832 0.930 . S
C838 C839 1.355 . S
C838 C840 1.417 1_545 S
C839 C838 1.355 . S
C839 C841 1.419 . S
C840 C838 1.417 1_565 S
C840 C845 1.425 1_565 S
C840 C847 1.406 . S
C841 H833 0.930 . S
C841 C839 1.419 . S
C841 C842 1.362 . S
C842 H834 0.930 . S
C842 C841 1.362 . S
C842 C845 1.407 . S
C843 H835 0.930 . S
C843 C844 1.355 . S
C843 C845 1.417 1_565 S
C844 C843 1.355 . S
C844 C846 1.419 . S
C845 C840 1.425 1_545 S
C845 C842 1.407 . S
C845 C843 1.417 1_545 S
C846 H836 0.930 . S
C846 C844 1.419 . S
C846 C847 1.362 . S
C847 H837 0.930 . S
C847 C840 1.406 . S
C847 C846 1.362 . S
H848 C854 0.930 . S
H849 C857 0.930 . S
H850 C858 0.930 . S
H851 C859 0.930 . S
H852 C862 0.930 . S
H853 C863 0.930 . S
C854 H848 0.930 . S
C854 C855 1.355 . S
C854 C856 1.415 1_565 S
C855 C854 1.355 . S
C855 C857 1.419 . S
C856 C854 1.415 1_545 S
C856 C861 1.425 1_545 S
C856 C863 1.409 . S
C857 H849 0.930 . S
C857 C855 1.419 . S
C857 C858 1.362 . S
C858 H850 0.930 . S
C858 C857 1.362 . S
C858 C861 1.409 . S
C859 H851 0.930 . S
C859 C860 1.355 . S
C859 C861 1.415 1_545 S
C860 C859 1.355 . S
C860 C862 1.419 . S
C861 C856 1.425 1_565 S
C861 C858 1.409 . S
C861 C859 1.415 1_565 S
C862 H852 0.930 . S
C862 C860 1.419 . S
C862 C863 1.362 . S
C863 H853 0.930 . S
C863 C856 1.409 . S
C863 C862 1.362 . S
H864 C870 0.930 . S
H865 C873 0.930 . S
H866 C874 0.930 . S
H867 C875 0.930 . S
H868 C878 0.930 . S
H869 C879 0.930 . S
C870 H864 0.930 . S
C870 C871 1.355 . S
C870 C872 1.415 . S
C871 C870 1.355 . S
C871 C873 1.419 . S
C872 C870 1.415 . S
C872 C877 1.425 . S
C872 C879 1.409 . S
C873 H865 0.930 . S
C873 C871 1.419 . S
C873 C874 1.362 . S
C874 H866 0.930 . S
C874 C873 1.362 . S
C874 C877 1.409 . S
C875 H867 0.930 . S
C875 C876 1.355 . S
C875 C877 1.415 . S
C876 C875 1.355 . S
C876 C878 1.419 . S
C877 C872 1.425 . S
C877 C874 1.409 . S
C877 C875 1.415 . S
C878 H868 0.930 . S
C878 C876 1.419 . S
C878 C879 1.362 . S
C879 H869 0.930 . S
C879 C872 1.409 . S
C879 C878 1.362 . S
H880 C886 0.930 . S
H881 C889 0.930 . S
H882 C890 0.930 . S
H883 C891 0.930 . S
H884 C894 0.930 . S
H885 C895 0.930 . S
C886 H880 0.930 . S
C886 C887 1.355 . S
C886 C888 1.415 . S
C887 C886 1.355 . S
C887 C889 1.419 . S
C888 C886 1.415 . S
C888 C893 1.425 . S
C888 C895 1.409 . S
C889 H881 0.930 . S
C889 C887 1.419 . S
C889 C890 1.362 . S
C890 H882 0.930 . S
C890 C889 1.362 . S
C890 C893 1.409 . S
C891 H883 0.930 . S
C891 C892 1.355 . S
C891 C893 1.415 . S
C892 C891 1.355 . S
C892 C894 1.419 . S
C893 C888 1.425 . S
C893 C890 1.409 . S
C893 C891 1.415 . S
C894 H884 0.930 . S
C894 C892 1.419 . S
C894 C895 1.362 . S
C895 H885 0.930 . S
C895 C888 1.409 . S
C895 C894 1.362 . S
H896 C902 0.930 . S
H897 C905 0.930 . S
H898 C906 0.930 . S
H899 C907 0.930 . S
H900 C910 0.930 . S
H901 C911 0.930 . S
C902 H896 0.930 . S
C902 C903 1.355 . S
C902 C904 1.415 . S
C903 C902 1.355 . S
C903 C905 1.419 . S
C904 C902 1.415 . S
C904 C909 1.425 . S
C904 C911 1.409 . S
C905 H897 0.930 . S
C905 C903 1.419 . S
C905 C906 1.362 . S
C906 H898 0.930 . S
C906 C905 1.362 . S
C906 C909 1.409 . S
C907 H899 0.930 . S
C907 C908 1.355 . S
C907 C909 1.415 . S
C908 C907 1.355 . S
C908 C910 1.419 . S
C909 C904 1.425 . S
C909 C906 1.409 . S
C909 C907 1.415 . S
C910 H900 0.930 . S
C910 C908 1.419 . S
C910 C911 1.362 . S
C911 H901 0.930 . S
C911 C904 1.409 . S
C911 C910 1.362 . S
H912 C918 0.930 . S
H913 C921 0.930 . S
H914 C922 0.930 . S
H915 C923 0.930 . S
H916 C926 0.930 . S
H917 C927 0.930 . S
C918 H912 0.930 . S
C918 C919 1.355 . S
C918 C920 1.415 . S
C919 C918 1.355 . S
C919 C921 1.419 . S
C920 C918 1.415 . S
C920 C925 1.425 . S
C920 C927 1.409 . S
C921 H913 0.930 . S
C921 C919 1.419 . S
C921 C922 1.362 . S
C922 H914 0.930 . S
C922 C921 1.362 . S
C922 C925 1.409 . S
C923 H915 0.930 . S
C923 C924 1.355 . S
C923 C925 1.415 . S
C924 C923 1.355 . S
C924 C926 1.419 . S
C925 C920 1.425 . S
C925 C922 1.409 . S
C925 C923 1.415 . S
C926 H916 0.930 . S
C926 C924 1.419 . S
C926 C927 1.362 . S
C927 H917 0.930 . S
C927 C920 1.409 . S
C927 C926 1.362 . S
H928 C934 0.924 1_455 S
H929 C937 0.930 . S
H930 C938 0.930 . S
H931 C939 0.924 1_655 S
H932 C942 0.930 . S
H933 C943 0.930 . S
C934 H928 0.924 1_655 S
C934 C935 1.355 . S
C934 C936 1.415 1_655 S
C935 C934 1.355 . S
C935 C937 1.419 . S
C936 C934 1.415 1_455 S
C936 C941 1.425 1_455 S
C936 C943 1.409 . S
C937 H929 0.930 . S
C937 C935 1.419 . S
C937 C938 1.362 . S
C938 H930 0.930 . S
C938 C937 1.362 . S
C938 C941 1.409 . S
C939 H931 0.924 1_455 S
C939 C940 1.355 . S
C939 C941 1.415 1_455 S
C940 C939 1.355 . S
C940 C942 1.419 . S
C941 C936 1.425 1_655 S
C941 C938 1.409 . S
C941 C939 1.415 1_655 S
C942 H932 0.930 . S
C942 C940 1.419 . S
C942 C943 1.362 . S
C943 H933 0.930 . S
C943 C936 1.409 . S
C943 C942 1.362 . S
H944 C950 0.930 . S
H945 C953 0.930 . S
H946 C954 0.930 . S
H947 C955 0.930 . S
H948 C958 0.930 . S
H949 C959 0.930 . S
C950 H944 0.930 . S
C950 C951 1.355 . S
C950 C952 1.415 . S
C951 C950 1.355 . S
C951 C953 1.419 . S
C952 C950 1.415 . S
C952 C957 1.425 . S
C952 C959 1.409 . S
C953 H945 0.930 . S
C953 C951 1.419 . S
C953 C954 1.362 . S
C954 H946 0.930 . S
C954 C953 1.362 . S
C954 C957 1.409 . S
C955 H947 0.930 . S
C955 C956 1.355 . S
C955 C957 1.415 . S
C956 C955 1.355 . S
C956 C958 1.419 . S
C957 C952 1.425 . S
C957 C954 1.409 . S
C957 C955 1.415 . S
C958 H948 0.930 . S
C958 C956 1.419 . S
C958 C959 1.362 . S
C959 H949 0.930 . S
C959 C952 1.409 . S
C959 C958 1.362 . S
H960 C966 0.930 . S
H961 C969 0.930 . S
H962 C970 0.930 . S
H963 C971 0.930 . S
H964 C974 0.930 . S
H965 C975 0.930 . S
C966 H960 0.930 . S
C966 C967 1.355 . S
C966 C968 1.415 . S
C967 C966 1.355 . S
C967 C969 1.419 . S
C968 C966 1.415 . S
C968 C973 1.425 . S
C968 C975 1.409 . S
C969 H961 0.930 . S
C969 C967 1.419 . S
C969 C970 1.362 . S
C970 H962 0.930 . S
C970 C969 1.362 . S
C970 C973 1.409 . S
C971 H963 0.930 . S
C971 C972 1.355 . S
C971 C973 1.415 . S
C972 C971 1.355 . S
C972 C974 1.419 . S
C973 C968 1.425 . S
C973 C970 1.409 . S
C973 C971 1.415 . S
C974 H964 0.930 . S
C974 C972 1.419 . S
C974 C975 1.362 . S
C975 H965 0.930 . S
C975 C968 1.409 . S
C975 C974 1.362 . S
H976 C982 0.930 . S
H977 C985 0.930 . S
H978 C986 0.930 . S
H979 C987 0.930 . S
H980 C990 0.930 . S
H981 C991 0.930 . S
C982 H976 0.930 . S
C982 C983 1.355 . S
C982 C984 1.416 1_455 S
C983 C982 1.355 . S
C983 C985 1.419 . S
C984 C982 1.416 1_655 S
C984 C989 1.425 1_655 S
C984 C991 1.408 . S
C985 H977 0.930 . S
C985 C983 1.419 . S
C985 C986 1.362 . S
C986 H978 0.930 . S
C986 C985 1.362 . S
C986 C989 1.408 . S
C987 H979 0.930 . S
C987 C988 1.355 . S
C987 C989 1.416 1_655 S
C988 C987 1.355 . S
C988 C990 1.419 . S
C989 C984 1.425 1_455 S
C989 C986 1.408 . S
C989 C987 1.416 1_455 S
C990 H980 0.930 . S
C990 C988 1.419 . S
C990 C991 1.362 . S
C991 H981 0.930 . S
C991 C984 1.408 . S
C991 C990 1.362 . S
H992 C998 0.930 . S
H993 C1001 0.930 . S
H994 C1002 0.930 . S
H995 C1003 0.930 . S
H996 C1006 0.930 . S
H997 C1007 0.930 . S
C998 H992 0.930 . S
C998 C999 1.355 . S
C998 C1000 1.415 . S
C999 C998 1.355 . S
C999 C1001 1.419 . S
C1000 C998 1.415 . S
C1000 C1005 1.425 1_655 S
C1000 C1007 1.409 1_655 S
C1001 H993 0.930 . S
C1001 C999 1.419 . S
C1001 C1002 1.362 . S
C1002 H994 0.930 . S
C1002 C1001 1.362 . S
C1002 C1005 1.409 1_655 S
C1003 H995 0.930 . S
C1003 C1004 1.355 . S
C1003 C1005 1.415 . S
C1004 C1003 1.355 . S
C1004 C1006 1.419 . S
C1005 C1000 1.425 1_455 S
C1005 C1002 1.409 1_455 S
C1005 C1003 1.415 . S
C1006 H996 0.930 . S
C1006 C1004 1.419 . S
C1006 C1007 1.362 . S
C1007 H997 0.930 . S
C1007 C1000 1.409 1_455 S
C1007 C1006 1.362 . S
H1008 C1014 0.930 . S
H1009 C1017 0.930 . S
H1010 C1018 0.930 . S
H1011 C1019 0.930 . S
H1012 C1022 0.930 . S
H1013 C1023 0.930 . S
C1014 H1008 0.930 . S
C1014 C1015 1.355 . S
C1014 C1016 1.415 . S
C1015 C1014 1.355 . S
C1015 C1017 1.419 . S
C1016 C1014 1.415 . S
C1016 C1021 1.425 . S
C1016 C1023 1.409 . S
C1017 H1009 0.930 . S
C1017 C1015 1.419 . S
C1017 C1018 1.362 . S
C1018 H1010 0.930 . S
C1018 C1017 1.362 . S
C1018 C1021 1.409 . S
C1019 H1011 0.930 . S
C1019 C1020 1.355 . S
C1019 C1021 1.415 . S
C1020 C1019 1.355 . S
C1020 C1022 1.419 . S
C1021 C1016 1.425 . S
C1021 C1018 1.409 . S
C1021 C1019 1.415 . S
C1022 H1012 0.930 . S
C1022 C1020 1.419 . S
C1022 C1023 1.362 . S
C1023 H1013 0.930 . S
C1023 C1016 1.409 . S
C1023 C1022 1.362 . S
H1024 C1030 0.930 . S
H1025 C1033 0.930 . S
H1026 C1034 0.930 . S
H1027 C1035 0.930 . S
H1028 C1038 0.930 . S
H1029 C1039 0.930 . S
C1030 H1024 0.930 . S
C1030 C1031 1.355 . S
C1030 C1032 1.415 . S
C1031 C1030 1.355 . S
C1031 C1033 1.419 . S
C1032 C1030 1.415 . S
C1032 C1037 1.425 . S
C1032 C1039 1.409 . S
C1033 H1025 0.930 . S
C1033 C1031 1.419 . S
C1033 C1034 1.362 . S
C1034 H1026 0.930 . S
C1034 C1033 1.362 . S
C1034 C1037 1.409 . S
C1035 H1027 0.930 . S
C1035 C1036 1.355 . S
C1035 C1037 1.415 . S
C1036 C1035 1.355 . S
C1036 C1038 1.419 . S
C1037 C1032 1.425 . S
C1037 C1034 1.409 . S
C1037 C1035 1.415 . S
C1038 H1028 0.930 . S
C1038 C1036 1.419 . S
C1038 C1039 1.362 . S
C1039 H1029 0.930 . S
C1039 C1032 1.409 . S
C1039 C1038 1.362 . S
H1040 C1046 0.930 1_455 S
H1041 C1049 0.930 . S
H1042 C1050 0.930 . S
H1043 C1051 0.930 1_655 S
H1044 C1054 0.930 . S
H1045 C1055 0.930 . S
C1046 H1040 0.930 1_655 S
C1046 C1047 1.355 . S
C1046 C1048 1.415 1_655 S
C1047 C1046 1.355 . S
C1047 C1049 1.419 . S
C1048 C1046 1.415 1_455 S
C1048 C1053 1.425 1_455 S
C1048 C1055 1.409 . S
C1049 H1041 0.930 . S
C1049 C1047 1.419 . S
C1049 C1050 1.362 . S
C1050 H1042 0.930 . S
C1050 C1049 1.362 . S
C1050 C1053 1.409 . S
C1051 H1043 0.930 1_455 S
C1051 C1052 1.355 . S
C1051 C1053 1.415 1_455 S
C1052 C1051 1.355 . S
C1052 C1054 1.419 . S
C1053 C1048 1.425 1_655 S
C1053 C1050 1.409 . S
C1053 C1051 1.415 1_655 S
C1054 H1044 0.930 . S
C1054 C1052 1.419 . S
C1054 C1055 1.362 . S
C1055 H1045 0.930 . S
C1055 C1048 1.409 . S
C1055 C1054 1.362 . S
H1056 C1062 0.930 . S
H1057 C1065 0.930 . S
H1058 C1066 0.930 . S
H1059 C1067 0.930 . S
H1060 C1070 0.930 . S
H1061 C1071 0.930 . S
C1062 H1056 0.930 . S
C1062 C1063 1.355 . S
C1062 C1064 1.415 . S
C1063 C1062 1.355 . S
C1063 C1065 1.419 1_455 S
C1064 C1062 1.415 . S
C1064 C1069 1.425 1_455 S
C1064 C1071 1.409 . S
C1065 H1057 0.930 . S
C1065 C1063 1.419 1_655 S
C1065 C1066 1.362 . S
C1066 H1058 0.930 . S
C1066 C1065 1.362 . S
C1066 C1069 1.409 . S
C1067 H1059 0.930 . S
C1067 C1068 1.355 . S
C1067 C1069 1.415 . S
C1068 C1067 1.355 . S
C1068 C1070 1.419 1_655 S
C1069 C1064 1.425 1_655 S
C1069 C1066 1.409 . S
C1069 C1067 1.415 . S
C1070 H1060 0.930 . S
C1070 C1068 1.419 1_455 S
C1070 C1071 1.362 . S
C1071 H1061 0.930 . S
C1071 C1064 1.409 . S
C1071 C1070 1.362 . S
H1072 C1078 0.930 . S
H1073 C1081 0.930 . S
H1074 C1082 0.930 . S
H1075 C1083 0.930 . S
H1076 C1086 0.930 . S
H1077 C1087 0.930 . S
C1078 H1072 0.930 . S
C1078 C1079 1.355 . S
C1078 C1080 1.415 . S
C1079 C1078 1.355 . S
C1079 C1081 1.419 . S
C1080 C1078 1.415 . S
C1080 C1085 1.425 . S
C1080 C1087 1.409 . S
C1081 H1073 0.930 . S
C1081 C1079 1.419 . S
C1081 C1082 1.362 . S
C1082 H1074 0.930 . S
C1082 C1081 1.362 . S
C1082 C1085 1.409 . S
C1083 H1075 0.930 . S
C1083 C1084 1.355 . S
C1083 C1085 1.415 . S
C1084 C1083 1.355 . S
C1084 C1086 1.419 . S
C1085 C1080 1.425 . S
C1085 C1082 1.409 . S
C1085 C1083 1.415 . S
C1086 H1076 0.930 . S
C1086 C1084 1.419 . S
C1086 C1087 1.362 . S
C1087 H1077 0.930 . S
C1087 C1080 1.409 . S
C1087 C1086 1.362 . S
H1088 C1094 0.930 . S
H1089 C1097 0.930 . S
H1090 C1098 0.930 . S
H1091 C1099 0.930 . S
H1092 C1102 0.930 . S
H1093 C1103 0.930 . S
C1094 H1088 0.930 . S
C1094 C1095 1.355 1_455 S
C1094 C1096 1.415 . S
C1095 C1094 1.355 1_655 S
C1095 C1097 1.419 . S
C1096 C1094 1.415 . S
C1096 C1101 1.425 1_455 S
C1096 C1103 1.409 . S
C1097 H1089 0.930 . S
C1097 C1095 1.419 . S
C1097 C1098 1.362 . S
C1098 H1090 0.930 . S
C1098 C1097 1.362 . S
C1098 C1101 1.409 . S
C1099 H1091 0.930 . S
C1099 C1100 1.355 1_655 S
C1099 C1101 1.415 . S
C1100 C1099 1.355 1_455 S
C1100 C1102 1.419 . S
C1101 C1096 1.425 1_655 S
C1101 C1098 1.409 . S
C1101 C1099 1.415 . S
C1102 H1092 0.930 . S
C1102 C1100 1.419 . S
C1102 C1103 1.362 . S
C1103 H1093 0.930 . S
C1103 C1096 1.409 . S
C1103 C1102 1.362 . S
H1104 C1110 0.930 . S
H1105 C1113 0.930 . S
H1106 C1114 0.930 . S
H1107 C1115 0.930 . S
H1108 C1118 0.930 . S
H1109 C1119 0.930 . S
C1110 H1104 0.930 . S
C1110 C1111 1.355 . S
C1110 C1112 1.415 . S
C1111 C1110 1.355 . S
C1111 C1113 1.419 . S
C1112 C1110 1.415 . S
C1112 C1117 1.425 . S
C1112 C1119 1.409 . S
C1113 H1105 0.930 . S
C1113 C1111 1.419 . S
C1113 C1114 1.362 . S
C1114 H1106 0.930 . S
C1114 C1113 1.362 . S
C1114 C1117 1.409 . S
C1115 H1107 0.930 . S
C1115 C1116 1.355 . S
C1115 C1117 1.415 . S
C1116 C1115 1.355 . S
C1116 C1118 1.419 . S
C1117 C1112 1.425 . S
C1117 C1114 1.409 . S
C1117 C1115 1.415 . S
C1118 H1108 0.930 . S
C1118 C1116 1.419 . S
C1118 C1119 1.362 . S
C1119 H1109 0.930 . S
C1119 C1112 1.409 . S
C1119 C1118 1.362 . S
H1120 C1126 0.930 . S
H1121 C1129 0.930 . S
H1122 C1130 0.930 . S
H1123 C1131 0.930 . S
H1124 C1134 0.930 . S
H1125 C1135 0.930 . S
C1126 H1120 0.930 . S
C1126 C1127 1.355 . S
C1126 C1128 1.415 . S
C1127 C1126 1.355 . S
C1127 C1129 1.419 . S
C1128 C1126 1.415 . S
C1128 C1133 1.425 . S
C1128 C1135 1.409 . S
C1129 H1121 0.930 . S
C1129 C1127 1.419 . S
C1129 C1130 1.362 . S
C1130 H1122 0.930 . S
C1130 C1129 1.362 . S
C1130 C1133 1.409 . S
C1131 H1123 0.930 . S
C1131 C1132 1.355 . S
C1131 C1133 1.415 . S
C1132 C1131 1.355 . S
C1132 C1134 1.419 . S
C1133 C1128 1.425 . S
C1133 C1130 1.409 . S
C1133 C1131 1.415 . S
C1134 H1124 0.930 . S
C1134 C1132 1.419 . S
C1134 C1135 1.362 . S
C1135 H1125 0.930 . S
C1135 C1128 1.409 . S
C1135 C1134 1.362 . S
H1136 C1142 0.930 . S
H1137 C1145 0.930 . S
H1138 C1146 0.930 . S
H1139 C1147 0.930 . S
H1140 C1150 0.930 . S
H1141 C1151 0.930 . S
C1142 H1136 0.930 . S
C1142 C1143 1.355 . S
C1142 C1144 1.415 . S
C1143 C1142 1.355 . S
C1143 C1145 1.419 . S
C1144 C1142 1.415 . S
C1144 C1149 1.425 1_455 S
C1144 C1151 1.409 1_455 S
C1145 H1137 0.930 . S
C1145 C1143 1.419 . S
C1145 C1146 1.362 . S
C1146 H1138 0.930 . S
C1146 C1145 1.362 . S
C1146 C1149 1.409 1_455 S
C1147 H1139 0.930 . S
C1147 C1148 1.355 . S
C1147 C1149 1.415 . S
C1148 C1147 1.355 . S
C1148 C1150 1.419 . S
C1149 C1144 1.425 1_655 S
C1149 C1146 1.409 1_655 S
C1149 C1147 1.415 . S
C1150 H1140 0.930 . S
C1150 C1148 1.419 . S
C1150 C1151 1.362 . S
C1151 H1141 0.930 . S
C1151 C1144 1.409 1_655 S
C1151 C1150 1.362 . S
H1152 C1158 0.930 . S
H1153 C1161 0.930 . S
H1154 C1162 0.930 . S
H1155 C1163 0.930 . S
H1156 C1166 0.930 . S
H1157 C1167 0.930 . S
C1158 H1152 0.930 . S
C1158 C1159 1.355 . S
C1158 C1160 1.415 . S
C1159 C1158 1.355 . S
C1159 C1161 1.419 . S
C1160 C1158 1.415 . S
C1160 C1165 1.425 . S
C1160 C1167 1.409 . S
C1161 H1153 0.930 . S
C1161 C1159 1.419 . S
C1161 C1162 1.362 . S
C1162 H1154 0.930 . S
C1162 C1161 1.362 . S
C1162 C1165 1.409 . S
C1163 H1155 0.930 . S
C1163 C1164 1.355 . S
C1163 C1165 1.415 . S
C1164 C1163 1.355 . S
C1164 C1166 1.419 . S
C1165 C1160 1.425 . S
C1165 C1162 1.409 . S
C1165 C1163 1.415 . S
C1166 H1156 0.930 . S
C1166 C1164 1.419 . S
C1166 C1167 1.362 . S
C1167 H1157 0.930 . S
C1167 C1160 1.409 . S
C1167 C1166 1.362 . S
H1168 C1174 0.930 . S
H1169 C1177 0.930 . S
H1170 C1178 0.930 . S
H1171 C1179 0.930 . S
H1172 C1182 0.930 . S
H1173 C1183 0.930 . S
C1174 H1168 0.930 . S
C1174 C1175 1.355 1_655 S
C1174 C1176 1.415 . S
C1175 C1174 1.355 1_455 S
C1175 C1177 1.419 . S
C1176 C1174 1.415 . S
C1176 C1181 1.425 1_655 S
C1176 C1183 1.409 . S
C1177 H1169 0.930 . S
C1177 C1175 1.419 . S
C1177 C1178 1.362 . S
C1178 H1170 0.930 . S
C1178 C1177 1.362 . S
C1178 C1181 1.409 . S
C1179 H1171 0.930 . S
C1179 C1180 1.355 1_455 S
C1179 C1181 1.415 . S
C1180 C1179 1.355 1_655 S
C1180 C1182 1.419 . S
C1181 C1176 1.425 1_455 S
C1181 C1178 1.409 . S
C1181 C1179 1.415 . S
C1182 H1172 0.930 . S
C1182 C1180 1.419 . S
C1182 C1183 1.362 . S
C1183 H1173 0.930 . S
C1183 C1176 1.409 . S
C1183 C1182 1.362 . S
C551 C203 1.180 . S
C556 C20 1.170 . S
C567 C169 1.171 . S
C572 C54 1.168 . S
C583 C88 1.188 . S
C588 C271 1.198 . S
C599 C122 1.169 . S
C604 C237 1.178 . S
C615 C156 1.166 . S
C620 C67 1.172 . S
C631 C190 1.197 . S
C636 C33 1.205 . S
C647 C135 1.186 . S
C652 C224 1.193 . S
C663 C258 1.172 . S
C668 C101 1.182 . S
C679 C292 1.196 . S
C684 C475 1.190 . S
C695 C326 1.195 . S
C700 C441 1.189 . S
C711 C360 1.184 . S
C716 C543 1.179 . S
C727 C394 1.184 . S
C732 C509 1.194 . S
C743 C428 1.175 . S
C748 C339 1.173 . S
C759 C462 1.201 . S
C764 C305 1.207 . S
C775 C407 1.171 . S
C780 C496 1.170 . S
C791 C373 1.180 . S
C796 C530 1.185 . S
C807 C9 1.410 . S
C812 C43 1.481 . S
C823 C77 1.468 . S
C828 C111 1.414 . S
C839 C179 1.422 . S
C844 C145 1.488 . S
C855 C247 1.458 . S
C860 C213 1.465 . S
C871 C315 1.475 . S
C876 C281 1.446 . S
C887 C383 1.421 . S
C892 C349 1.457 . S
C903 C417 1.425 . S
C908 C451 1.453 . S
C919 C485 1.418 . S
C924 C519 1.462 . S
C935 C311 1.626 . S
C940 C5 1.635 . S
C951 C39 1.609 . S
C956 C277 1.598 . S
C967 C73 1.634 . S
C972 C379 1.620 . S
C983 C345 1.624 . S
C988 C107 1.604 . S
C999 C141 1.603 . S
C1004 C447 1.622 . S
C1015 C175 1.616 . S
C1020 C413 1.633 . S
C1031 C209 1.598 . S
C1036 C515 1.605 . S
C1047 C481 1.635 . S
C1052 C243 1.626 . S
C1063 C2 1.414 . S
C1068 C104 1.411 . S
C1079 C36 1.408 . S
C1084 C70 1.401 . S
C1095 C138 1.409 . S
C1100 C240 1.400 . S
C1111 C172 1.416 . S
C1116 C206 1.400 . S
C1127 C376 1.403 . S
C1132 C274 1.417 . S
C1143 C342 1.402 . S
C1148 C308 1.417 . S
C1159 C410 1.411 . S
C1164 C512 1.414 . S
C1175 C444 1.402 . S
C1180 C478 1.406 . S
