# Generated by pormake.
# Topology wjs, (5)-cn, num edge types: 1
# Building blocks:
#     Node 0, Type 0, BuildingBlock: XOMCOT_clean_sbu_1, # of connection points: 5
#     Node 1, Type 0, BuildingBlock: XOMCOT_clean_sbu_1, # of connection points: 5
#     Node 2, Type 0, BuildingBlock: XOMCOT_clean_sbu_1, # of connection points: 5
#     Node 3, Type 0, BuildingBlock: XOMCOT_clean_sbu_1, # of connection points: 5
#     Node 4, Type 0, BuildingBlock: XOMCOT_clean_sbu_1, # of connection points: 5
#     Node 5, Type 0, BuildingBlock: XOMCOT_clean_sbu_1, # of connection points: 5
#     Node 6, Type 0, BuildingBlock: XOMCOT_clean_sbu_1, # of connection points: 5
#     Node 7, Type 0, BuildingBlock: XOMCOT_clean_sbu_1, # of connection points: 5
#     Node 8, Type 0, BuildingBlock: XOMCOT_clean_sbu_1, # of connection points: 5
#     Node 9, Type 0, BuildingBlock: XOMCOT_clean_sbu_1, # of connection points: 5
#     Node 10, Type 0, BuildingBlock: XOMCOT_clean_sbu_1, # of connection points: 5
#     Node 11, Type 0, BuildingBlock: XOMCOT_clean_sbu_1, # of connection points: 5
#     Edge 12, Type (0, 0), BuildingBlock: TEMPAE_clean_linker_10, # of connection points: 2
#     Edge 13, Type (0, 0), BuildingBlock: TEMPAE_clean_linker_10, # of connection points: 2
#     Edge 14, Type (0, 0), BuildingBlock: TEMPAE_clean_linker_10, # of connection points: 2
#     Edge 15, Type (0, 0), BuildingBlock: TEMPAE_clean_linker_10, # of connection points: 2
#     Edge 16, Type (0, 0), BuildingBlock: TEMPAE_clean_linker_10, # of connection points: 2
#     Edge 17, Type (0, 0), BuildingBlock: TEMPAE_clean_linker_10, # of connection points: 2
#     Edge 18, Type (0, 0), BuildingBlock: TEMPAE_clean_linker_10, # of connection points: 2
#     Edge 19, Type (0, 0), BuildingBlock: TEMPAE_clean_linker_10, # of connection points: 2
#     Edge 20, Type (0, 0), BuildingBlock: TEMPAE_clean_linker_10, # of connection points: 2
#     Edge 21, Type (0, 0), BuildingBlock: TEMPAE_clean_linker_10, # of connection points: 2
#     Edge 22, Type (0, 0), BuildingBlock: TEMPAE_clean_linker_10, # of connection points: 2
#     Edge 23, Type (0, 0), BuildingBlock: TEMPAE_clean_linker_10, # of connection points: 2
#     Edge 24, Type (0, 0), BuildingBlock: TEMPAE_clean_linker_10, # of connection points: 2
#     Edge 25, Type (0, 0), BuildingBlock: TEMPAE_clean_linker_10, # of connection points: 2
#     Edge 26, Type (0, 0), BuildingBlock: TEMPAE_clean_linker_10, # of connection points: 2
#     Edge 27, Type (0, 0), BuildingBlock: TEMPAE_clean_linker_10, # of connection points: 2
#     Edge 28, Type (0, 0), BuildingBlock: TEMPAE_clean_linker_10, # of connection points: 2
#     Edge 29, Type (0, 0), BuildingBlock: TEMPAE_clean_linker_10, # of connection points: 2
#     Edge 30, Type (0, 0), BuildingBlock: TEMPAE_clean_linker_10, # of connection points: 2
#     Edge 31, Type (0, 0), BuildingBlock: TEMPAE_clean_linker_10, # of connection points: 2
#     Edge 32, Type (0, 0), BuildingBlock: TEMPAE_clean_linker_10, # of connection points: 2
#     Edge 33, Type (0, 0), BuildingBlock: TEMPAE_clean_linker_10, # of connection points: 2
#     Edge 34, Type (0, 0), BuildingBlock: TEMPAE_clean_linker_10, # of connection points: 2
#     Edge 35, Type (0, 0), BuildingBlock: TEMPAE_clean_linker_10, # of connection points: 2
#     Edge 36, Type (0, 0), BuildingBlock: TEMPAE_clean_linker_10, # of connection points: 2
#     Edge 37, Type (0, 0), BuildingBlock: TEMPAE_clean_linker_10, # of connection points: 2
#     Edge 38, Type (0, 0), BuildingBlock: TEMPAE_clean_linker_10, # of connection points: 2
#     Edge 39, Type (0, 0), BuildingBlock: TEMPAE_clean_linker_10, # of connection points: 2
#     Edge 40, Type (0, 0), BuildingBlock: TEMPAE_clean_linker_10, # of connection points: 2
#     Edge 41, Type (0, 0), BuildingBlock: TEMPAE_clean_linker_10, # of connection points: 2
# Relax obj value: 0.371
# Max RMSD: 0.267
# Mean RMSD: 0.267
data_MOF--net-wjs--node1-XOMCOT_clean_sbu_1--edge1-TEMPAE_clean_linker_10
_symmetry_space_group_name_H-M    P1
_symmetry_Int_Tables_number       1
_symmetry_cell_setting            triclinic
loop_
_symmetry_equiv_pos_as_xyz
'x, y, z'
_cell_length_a     31.493493
_cell_length_b     31.523
_cell_length_c     68.217126
_cell_angle_alpha  90.04178
_cell_angle_beta   89.977014
_cell_angle_gamma 120.04096
loop_
_atom_site_label
_atom_site_type_symbol
_atom_site_fract_x
_atom_site_fract_y
_atom_site_fract_z
_atom_type_partial_charge
C0 C 0.26157 0.34943 0.05271 0.0
C1 C 0.27264 0.31863 0.06293 0.0
N2 N 0.24454 0.27288 0.05587 0.0
N3 N 0.22695 0.32319 0.03923 0.0
C4 C 0.2171 0.27669 0.04156 0.0
H5 H 0.27724 0.38838 0.05507 0.0
Co6 Co 0.19717 0.34755 0.0231 0.0
C7 C 0.15954 0.25939 0.996 0.0
O8 O 0.11895 0.23012 0.00551 0.0
N9 N 0.16684 0.37249 0.0072 0.0
C10 C 0.14441 0.40166 0.98204 0.0
C11 C 0.17392 0.38328 0.9879 0.0
C12 C 0.13299 0.38441 0.01272 0.0
N13 N 0.11854 0.40194 0.99771 0.0
O14 O 0.13542 0.30193 0.03472 0.0
H15 H 0.19919 0.37847 0.97872 0.0
H16 H 0.11971 0.38133 0.02754 0.0
O17 O 0.18874 0.30218 1.00249 0.0
C18 C 0.12682 0.31557 0.05109 0.0
O19 O 0.15773 0.35972 0.05763 0.0
N20 N 0.25903 0.39263 0.01268 0.0
C21 C 0.35654 0.45911 0.003 0.0
C22 C 0.33659 0.40872 0.99983 0.0
C23 C 0.28811 0.37623 0.00482 0.0
C24 C 0.27709 0.44154 0.01552 0.0
C25 C 0.32584 0.47556 0.01068 0.0
H26 H 0.27516 0.33751 0.00348 0.0
H27 H 0.25415 0.45405 0.0222 0.0
H28 H 0.18908 0.24593 0.03345 0.0
H29 H 0.29928 0.3291 0.07461 0.0
H30 H 0.14182 0.41346 0.96742 0.0
H31 H 0.35898 0.39388 0.99461 0.0
H32 H 0.33964 0.51413 0.01339 0.0
C33 C 0.92619 0.26622 0.21901 0.0
C34 C 0.96773 0.27649 0.22934 0.0
N35 N 0.98261 0.24521 0.22341 0.0
N36 N 0.91531 0.22896 0.20655 0.0
C37 C 0.9501 0.21675 0.2096 0.0
H38 H 0.90487 0.28429 0.2206 0.0
Co39 Co 0.86164 0.20014 0.19006 0.0
C40 C 0.88896 0.15109 0.15936 0.0
O41 O 0.84546 0.11142 0.15963 0.0
N42 N 0.80678 0.17127 0.17369 0.0
C43 C 0.75632 0.1522 0.14826 0.0
C44 C 0.80398 0.18063 0.15456 0.0
C45 C 0.76056 0.1372 0.17868 0.0
N46 N 0.7292 0.12481 0.16347 0.0
O47 O 0.84057 0.1387 0.2031 0.0
H48 H 0.83466 0.20646 0.14575 0.0
H49 H 0.74977 0.12239 0.1933 0.0
O50 O 0.89875 0.18626 0.1711 0.0
C51 C 0.82363 0.13748 0.22019 0.0
O52 O 0.81828 0.17449 0.22573 0.0
N53 N 0.8828 0.26153 0.17843 0.0
C54 C 0.9196 0.35978 0.16852 0.0
C55 C 0.94727 0.3368 0.16516 0.0
C56 C 0.92835 0.28782 0.17024 0.0
C57 C 0.85449 0.28248 0.18123 0.0
C58 C 0.87203 0.33154 0.17622 0.0
H59 H 0.952 0.27235 0.16881 0.0
H60 H 0.81897 0.2616 0.18814 0.0
H61 H 0.95144 0.18749 0.20184 0.0
H62 H 0.98491 0.30401 0.24067 0.0
H63 H 0.74276 0.15139 0.13361 0.0
H64 H 0.9846 0.35715 0.15979 0.0
H65 H 0.84915 0.34754 0.17894 0.0
C66 C 0.64839 0.89876 0.38427 0.0
C67 C 0.6795 0.94004 0.39477 0.0
N68 N 0.72528 0.95763 0.38772 0.0
N69 N 0.67442 0.89069 0.37059 0.0
C70 C 0.72114 0.92696 0.37309 0.0
H71 H 0.60938 0.87559 0.38661 0.0
Co72 Co 0.64941 0.83673 0.35427 0.0
C73 C 0.73687 0.8879 0.32688 0.0
O74 O 0.76651 0.87688 0.33623 0.0
N75 N 0.6238 0.78158 0.33818 0.0
C76 C 0.5937 0.73052 0.31284 0.0
C77 C 0.612 0.77819 0.31899 0.0
C78 C 0.61252 0.73577 0.34333 0.0
N79 N 0.59443 0.70409 0.3282 0.0
O80 O 0.69543 0.82064 0.36535 0.0
H81 H 0.61612 0.80838 0.31008 0.0
H82 H 0.61651 0.72532 0.35799 0.0
O83 O 0.6941 0.87399 0.3335 0.0
C84 C 0.68205 0.79825 0.38169 0.0
O85 O 0.63778 0.78443 0.38827 0.0
N86 N 0.60386 0.85352 0.34448 0.0
C87 C 0.53729 0.88574 0.33711 0.0
C88 C 0.58725 0.91547 0.33277 0.0
C89 C 0.61982 0.89891 0.33663 0.0
C90 C 0.55526 0.82319 0.34826 0.0
C91 C 0.52118 0.83853 0.34461 0.0
H92 H 0.65843 0.92436 0.33457 0.0
H93 H 0.5432 0.78785 0.35495 0.0
H94 H 0.7518 0.9297 0.36491 0.0
H95 H 0.6692 0.95579 0.40667 0.0
H96 H 0.58128 0.71648 0.29821 0.0
H97 H 0.60189 0.95269 0.32759 0.0
H98 H 0.48294 0.81428 0.34818 0.0
C99 C 0.74036 0.66133 0.55461 0.0
C100 C 0.73085 0.6922 0.56557 0.0
N101 N 0.75915 0.73815 0.55878 0.0
N102 N 0.77406 0.68764 0.54085 0.0
C103 C 0.78515 0.73439 0.54381 0.0
H104 H 0.72436 0.62227 0.55671 0.0
Co105 Co 0.80033 0.66198 0.52358 0.0
C106 C 0.84766 0.73765 0.49283 0.0
O107 O 0.88789 0.73489 0.49357 0.0
N108 N 0.8267 0.6347 0.50653 0.0
C109 C 0.84476 0.60473 0.48035 0.0
C110 C 0.81737 0.62456 0.48726 0.0
C111 C 0.85908 0.61998 0.51105 0.0
N112 N 0.87102 0.60189 0.49537 0.0
O113 O 0.86331 0.70394 0.53495 0.0
H114 H 0.79235 0.63131 0.47876 0.0
H115 H 0.87406 0.62287 0.52555 0.0
O116 O 0.81226 0.71203 0.50446 0.0
C117 C 0.87348 0.69088 0.5511 0.0
O118 O 0.84334 0.64698 0.55805 0.0
N119 N 0.73703 0.62085 0.51333 0.0
C120 C 0.63633 0.5616 0.50692 0.0
C121 C 0.66152 0.61019 0.50031 0.0
C122 C 0.71153 0.63935 0.50388 0.0
C123 C 0.71399 0.57276 0.51873 0.0
C124 C 0.66346 0.54232 0.51565 0.0
H125 H 0.72844 0.67758 0.50007 0.0
H126 H 0.73429 0.55881 0.52658 0.0
H127 H 0.81189 0.76501 0.53521 0.0
H128 H 0.70597 0.68181 0.5779 0.0
H129 H 0.84463 0.59257 0.4655 0.0
H130 H 0.64228 0.62639 0.49321 0.0
H131 H 0.64545 0.50505 0.52107 0.0
C132 C 0.09768 0.76017 0.71201 0.0
C133 C 0.05645 0.74535 0.72329 0.0
N134 N 0.03444 0.77055 0.71753 0.0
N135 N 0.10138 0.79418 0.69912 0.0
C136 C 0.06258 0.80003 0.70288 0.0
H137 H 0.12385 0.74764 0.71335 0.0
Co138 Co 0.15262 0.8269 0.68179 0.0
C139 C 0.11849 0.87713 0.65441 0.0
O140 O 0.16107 0.91792 0.65418 0.0
N141 N 0.2058 0.85988 0.66463 0.0
C142 C 0.25377 0.88738 0.6383 0.0
C143 C 0.20692 0.85597 0.64495 0.0
C144 C 0.25244 0.89303 0.66959 0.0
N145 N 0.2824 0.9107 0.65387 0.0
O146 O 0.17203 0.88575 0.69633 0.0
H147 H 0.1756 0.83205 0.63599 0.0
H148 H 0.26431 0.90447 0.68447 0.0
O149 O 0.11217 0.84147 0.66518 0.0
C150 C 0.19625 0.89157 0.71201 0.0
O151 O 0.21113 0.86041 0.71617 0.0
N152 N 0.13206 0.76722 0.66845 0.0
C153 C 0.09183 0.66856 0.65829 0.0
C154 C 0.06969 0.69526 0.65213 0.0
C155 C 0.08999 0.7443 0.6575 0.0
C156 C 0.1561 0.7429 0.67338 0.0
C157 C 0.13647 0.69336 0.66853 0.0
H158 H 0.06941 0.76206 0.65384 0.0
H159 H 0.18883 0.76109 0.68231 0.0
H160 H 0.05527 0.82556 0.69508 0.0
H161 H 0.0444 0.71905 0.73514 0.0
H162 H 0.26594 0.89199 0.62321 0.0
H163 H 0.03492 0.67756 0.64444 0.0
H164 H 0.15499 0.67415 0.67345 0.0
C165 C 0.34878 0.07154 0.88549 0.0
C166 C 0.31945 0.02968 0.896 0.0
N167 N 0.27252 0.01272 0.89053 0.0
N168 N 0.32046 0.08064 0.87342 0.0
C169 C 0.27424 0.04441 0.87682 0.0
H170 H 0.38817 0.09437 0.88673 0.0
Co171 Co 0.34251 0.13417 0.85708 0.0
C172 C 0.26284 0.10685 0.8282 0.0
O173 O 0.26554 0.14967 0.82981 0.0
N174 N 0.36577 0.18888 0.84087 0.0
C175 C 0.3935 0.23957 0.8154 0.0
C176 C 0.37633 0.19216 0.82153 0.0
C177 C 0.37669 0.23451 0.84613 0.0
N178 N 0.39339 0.26593 0.83091 0.0
O179 O 0.30253 0.15394 0.87131 0.0
H180 H 0.37169 0.16195 0.81247 0.0
H181 H 0.37337 0.24488 0.86092 0.0
O182 O 0.28984 0.09676 0.83883 0.0
C183 C 0.31888 0.17072 0.88836 0.0
O184 O 0.36177 0.17668 0.89348 0.0
N185 N 0.3823 0.11423 0.84419 0.0
C186 C 0.44382 0.07963 0.83159 0.0
C187 C 0.39277 0.05107 0.8294 0.0
C188 C 0.36271 0.06889 0.83582 0.0
C189 C 0.43183 0.14334 0.84594 0.0
C190 C 0.46338 0.12691 0.83957 0.0
H191 H 0.32351 0.0446 0.83521 0.0
H192 H 0.44682 0.17871 0.853 0.0
H193 H 0.24254 0.04149 0.86939 0.0
H194 H 0.33164 0.01378 0.90715 0.0
H195 H 0.40472 0.2535 0.80067 0.0
H196 H 0.37568 0.01387 0.8239 0.0
H197 H 0.50255 0.1504 0.84146 0.0
C198 C 0.64757 0.71789 0.77617 0.0
C199 C 0.67941 0.70838 0.76586 0.0
N200 N 0.72542 0.74042 0.77176 0.0
N201 N 0.67343 0.75551 0.78856 0.0
C202 C 0.72073 0.76857 0.78552 0.0
H203 H 0.60815 0.69931 0.77448 0.0
Co204 Co 0.6474 0.78535 0.80392 0.0
C205 C 0.73665 0.82779 0.83089 0.0
O206 O 0.76628 0.86701 0.82073 0.0
N207 N 0.62095 0.81559 0.81908 0.0
C208 C 0.59079 0.83822 0.84385 0.0
C209 C 0.60999 0.80922 0.83838 0.0
C210 C 0.60827 0.8486 0.81316 0.0
N211 N 0.59005 0.8631 0.82795 0.0
O212 O 0.6903 0.84627 0.79118 0.0
H213 H 0.61526 0.78477 0.84785 0.0
H214 H 0.61149 0.86131 0.79823 0.0
O215 O 0.69385 0.79801 0.82456 0.0
C216 C 0.67422 0.84906 0.77438 0.0
O217 O 0.63134 0.81302 0.7687 0.0
N218 N 0.60445 0.72445 0.81537 0.0
C219 C 0.53986 0.62808 0.82684 0.0
C220 C 0.59053 0.6493 0.82984 0.0
C221 C 0.62211 0.69728 0.82397 0.0
C222 C 0.55529 0.70515 0.81269 0.0
C223 C 0.5222 0.65703 0.81847 0.0
H224 H 0.66109 0.71137 0.82528 0.0
H225 H 0.54184 0.72664 0.80545 0.0
H226 H 0.75126 0.79955 0.79255 0.0
H227 H 0.6695 0.68039 0.75478 0.0
H228 H 0.57883 0.84122 0.8584 0.0
H229 H 0.60624 0.62819 0.83562 0.0
H230 H 0.48338 0.64227 0.81591 0.0
C231 C 0.91085 0.6447 0.94704 0.0
C232 C 0.95321 0.67258 0.93655 0.0
N233 N 0.97263 0.71952 0.94239 0.0
N234 N 0.90382 0.67407 0.95936 0.0
C235 C 0.94191 0.71942 0.95618 0.0
H236 H 0.88645 0.60559 0.94572 0.0
Co237 Co 0.85085 0.65441 0.9759 0.0
C238 C 0.88347 0.73525 0.00513 0.0
O239 O 0.84075 0.73315 0.0055 0.0
N240 N 0.79659 0.6335 0.99234 0.0
C241 C 0.74588 0.60663 0.01786 0.0
C242 C 0.7931 0.62263 0.01164 0.0
C243 C 0.75125 0.62394 0.98718 0.0
N244 N 0.7198 0.60776 1.00244 0.0
O245 O 0.83276 0.6953 0.96143 0.0
H246 H 0.82294 0.62596 0.0206 0.0
H247 H 0.74096 0.6275 0.97242 0.0
O248 O 0.89048 0.70738 0.99371 0.0
C249 C 0.815 0.67738 0.94465 0.0
O250 O 0.80656 0.63308 0.94052 0.0
N251 N 0.86923 0.61355 0.98887 0.0
C252 C 0.90319 0.55033 0.99967 0.0
C253 C 0.9321 0.60104 0.00267 0.0
C254 C 0.91461 0.63197 0.99714 0.0
C255 C 0.8395 0.56427 0.98663 0.0
C256 C 0.85563 0.53187 0.99209 0.0
H257 H 0.93944 0.67096 0.99814 0.0
H258 H 0.80413 0.55025 0.97965 0.0
H259 H 0.94633 0.75191 0.96345 0.0
H260 H 0.96864 0.65937 0.92558 0.0
H261 H 0.73181 0.59521 0.03256 0.0
H262 H 0.96947 0.61736 0.00793 0.0
H263 H 0.83182 0.49298 0.98965 0.0
C264 C 0.26533 0.91556 0.10672 0.0
C265 C 0.27545 0.95646 0.09599 0.0
N266 N 0.24689 0.97389 0.10274 0.0
N267 N 0.23102 0.90773 0.12025 0.0
C268 C 0.22019 0.94355 0.11742 0.0
H269 H 0.28152 0.89264 0.10471 0.0
Co270 Co 0.20373 0.85583 0.13745 0.0
C271 C 0.15749 0.88499 0.16833 0.0
O272 O 0.11698 0.84223 0.16749 0.0
N273 N 0.17614 0.80217 0.15445 0.0
C274 C 0.15904 0.75309 0.18024 0.0
C275 C 0.18676 0.80046 0.17352 0.0
C276 C 0.14211 0.75563 0.14993 0.0
N277 N 0.13085 0.72514 0.16535 0.0
O278 O 0.14111 0.83567 0.12574 0.0
H279 H 0.21311 0.83164 0.18197 0.0
H280 H 0.12657 0.7438 0.13549 0.0
O281 O 0.19277 0.89461 0.15665 0.0
C282 C 0.13184 0.81198 0.1097 0.0
O283 O 0.16258 0.79841 0.10328 0.0
N284 N 0.26641 0.87689 0.14799 0.0
C285 C 0.36446 0.91248 0.15823 0.0
C286 C 0.34249 0.94135 0.16075 0.0
C287 C 0.29371 0.92307 0.15549 0.0
C288 C 0.28658 0.84772 0.14568 0.0
C289 C 0.33558 0.8647 0.15083 0.0
H290 H 0.279 0.94744 0.15644 0.0
H291 H 0.26499 0.81168 0.13927 0.0
H292 H 0.19327 0.94726 0.12597 0.0
H293 H 0.30101 0.97154 0.0839 0.0
H294 H 0.15933 0.74027 0.19493 0.0
H295 H 0.36348 0.97893 0.16576 0.0
H296 H 0.35093 0.84105 0.14864 0.0
C297 C 0.34652 0.24102 0.27807 0.0
C298 C 0.31787 0.25329 0.26695 0.0
N299 N 0.27159 0.22826 0.27385 0.0
N300 N 0.31838 0.20863 0.29191 0.0
C301 C 0.27292 0.20134 0.28895 0.0
H302 H 0.38533 0.25455 0.27619 0.0
Co303 Co 0.33959 0.17941 0.30969 0.0
C304 C 0.26155 0.13664 0.3401 0.0
O305 O 0.26352 0.09606 0.34116 0.0
N306 N 0.36225 0.14973 0.32735 0.0
C307 C 0.39151 0.1309 0.3536 0.0
C308 C 0.37512 0.16099 0.34636 0.0
C309 C 0.37107 0.11284 0.32343 0.0
N310 N 0.38853 0.1005 0.33912 0.0
O311 O 0.29682 0.11775 0.2974 0.0
H312 H 0.37289 0.18937 0.35443 0.0
H313 H 0.36614 0.09595 0.30921 0.0
O314 O 0.28837 0.16988 0.32787 0.0
C315 C 0.31336 0.10927 0.28174 0.0
O316 O 0.35903 0.13952 0.27662 0.0
N317 N 0.38175 0.24144 0.32062 0.0
C318 C 0.44534 0.34 0.32968 0.0
C319 C 0.39461 0.31861 0.33252 0.0
C320 C 0.36354 0.26959 0.32784 0.0
C321 C 0.43104 0.26087 0.31827 0.0
C322 C 0.46362 0.31015 0.32281 0.0
H323 H 0.32455 0.2556 0.3288 0.0
H324 H 0.44494 0.23861 0.31206 0.0
H325 H 0.24119 0.17582 0.29737 0.0
H326 H 0.33022 0.27891 0.25484 0.0
H327 H 0.40441 0.1312 0.36833 0.0
H328 H 0.37843 0.34025 0.33717 0.0
H329 H 0.50252 0.32502 0.32041 0.0
C330 C 0.07844 0.33759 0.44023 0.0
C331 C 0.03805 0.30605 0.42937 0.0
N332 N 0.02137 0.26026 0.43617 0.0
N333 N 0.08674 0.31181 0.45391 0.0
C334 C 0.05167 0.26478 0.45102 0.0
H335 H 0.1008 0.37674 0.43814 0.0
Co336 Co 0.13845 0.3377 0.47126 0.0
C337 C 0.11004 0.26081 0.50156 0.0
O338 O 0.15313 0.26375 0.5008 0.0
N339 N 0.19178 0.36501 0.48848 0.0
C340 C 0.23897 0.39384 0.51494 0.0
C341 C 0.19195 0.37434 0.5078 0.0
C342 C 0.23904 0.37988 0.48416 0.0
N343 N 0.26857 0.39726 0.50001 0.0
O344 O 0.16074 0.29701 0.45956 0.0
H345 H 0.15985 0.36707 0.5162 0.0
H346 H 0.25161 0.37743 0.4697 0.0
O347 O 0.10047 0.28687 0.49012 0.0
C348 C 0.18473 0.31186 0.44361 0.0
O349 O 0.19758 0.35595 0.43717 0.0
N350 N 0.11525 0.37774 0.48173 0.0
C351 C 0.07301 0.43603 0.48867 0.0
C352 C 0.04984 0.38718 0.49497 0.0
C353 C 0.07108 0.35851 0.49114 0.0
C354 C 0.14001 0.426 0.47657 0.0
C355 C 0.11953 0.45594 0.47992 0.0
H356 H 0.05001 0.32013 0.49474 0.0
H357 H 0.17438 0.44053 0.46874 0.0
H358 H 0.0485 0.2345 0.45962 0.0
H359 H 0.02287 0.3159 0.41713 0.0
H360 H 0.25051 0.40525 0.5299 0.0
H361 H 0.01433 0.37044 0.50208 0.0
H362 H 0.13864 0.4934 0.47469 0.0
C363 C 0.74408 0.09702 0.61158 0.0
C364 C 0.73231 0.05453 0.60168 0.0
N365 N 0.75993 0.03654 0.60893 0.0
N366 N 0.77853 0.10539 0.62512 0.0
C367 C 0.78754 0.06806 0.62317 0.0
H368 H 0.72961 0.12112 0.60871 0.0
Co369 Co 0.81212 0.16156 0.63996 0.0
C370 C 0.81309 0.12831 0.68011 0.0
O371 O 0.80318 0.16232 0.68577 0.0
N372 N 0.84923 0.22078 0.65396 0.0
C373 C 0.91795 0.27938 0.6677 0.0
C374 C 0.8891 0.23008 0.66473 0.0
C375 C 0.85589 0.26596 0.65007 0.0
N376 N 0.89738 0.30202 0.65834 0.0
O377 O 0.87167 0.17182 0.6281 0.0
H378 H 0.89979 0.2034 0.6684 0.0
H379 H 0.83468 0.27283 0.63941 0.0
O380 O 0.8192 0.12367 0.66178 0.0
C381 C 0.88712 0.20193 0.61386 0.0
O382 O 0.86422 0.22597 0.60962 0.0
N383 N 0.75053 0.1497 0.65025 0.0
C384 C 0.64959 0.1152 0.6535 0.0
C385 C 0.66973 0.08723 0.66021 0.0
C386 C 0.71953 0.10436 0.658 0.0
C387 C 0.73205 0.17894 0.6447 0.0
C388 C 0.68156 0.16251 0.64635 0.0
H389 H 0.7316 0.07836 0.6607 0.0
H390 H 0.75522 0.21304 0.63724 0.0
H391 H 0.81577 0.06561 0.63129 0.0
H392 H 0.70611 0.03865 0.58983 0.0
H393 H 0.95363 0.29756 0.67468 0.0
H394 H 0.64649 0.05049 0.66581 0.0
H395 H 0.6673 0.18501 0.6407 0.0
C396 C 0.2538 0.22441 0.0821 0.0
C397 C 0.24305 0.22887 0.06253 0.0
C398 C 0.25297 0.18195 0.08874 0.0
C399 C 0.24123 0.14311 0.07546 0.0
C400 C 0.22989 0.14715 0.05572 0.0
C401 C 0.2309 0.19001 0.0495 0.0
C402 C 0.26499 0.17879 0.10993 0.0
C403 C 0.21742 0.10652 0.04112 0.0
C404 C 0.28721 0.05589 0.08774 0.0
C405 C 0.24512 0.01592 0.09565 0.0
C406 C 0.28631 0.09738 0.08096 0.0
C407 C 0.2422 0.09884 0.08212 0.0
C408 C 0.19942 0.05844 0.08992 0.0
C409 C 0.20142 0.01742 0.09662 0.0
C410 C 0.33271 0.13986 0.07277 0.0
C411 C 0.15165 0.05863 0.09126 0.0
H412 H 0.2624 0.254 0.09229 0.0
H413 H 0.22312 0.19353 0.03431 0.0
H414 H 0.23413 0.14616 0.11694 0.0
H415 H 0.2977 0.17429 0.1108 0.0
H416 H 0.27243 0.21186 0.11845 0.0
H417 H 0.20797 0.11481 0.02647 0.0
H418 H 0.24903 0.10043 0.03947 0.0
H419 H 0.18601 0.07174 0.04653 0.0
H420 H 0.32116 0.05509 0.08718 0.0
H421 H 0.16861 0.98626 0.10242 0.0
H422 H 0.34364 0.17316 0.08172 0.0
H423 H 0.3262 0.1481 0.05762 0.0
H424 H 0.36366 0.13243 0.0725 0.0
H425 H 0.1564 0.08934 0.10073 0.0
H426 H 0.12148 0.02383 0.09733 0.0
H427 H 0.14064 0.06459 0.07653 0.0
C428 C 0.22636 0.23911 0.2467 0.0
C429 C 0.22947 0.22965 0.26656 0.0
C430 C 0.18575 0.24102 0.23942 0.0
C431 C 0.14742 0.23336 0.25236 0.0
C432 C 0.15018 0.22354 0.27242 0.0
C433 C 0.19121 0.22176 0.27927 0.0
C434 C 0.18388 0.25133 0.21792 0.0
C435 C 0.11006 0.2154 0.28666 0.0
C436 C 0.06541 0.28411 0.23781 0.0
C437 C 0.02391 0.24217 0.23064 0.0
C438 C 0.10587 0.28174 0.24497 0.0
C439 C 0.10472 0.23629 0.24495 0.0
C440 C 0.06296 0.19378 0.23774 0.0
C441 C 0.02302 0.19725 0.23067 0.0
C442 C 0.14991 0.32788 0.25248 0.0
C443 C 0.06043 0.14465 0.23757 0.0
H444 H 0.2555 0.24449 0.23678 0.0
H445 H 0.19377 0.21508 0.29468 0.0
H446 H 0.15055 0.22083 0.21112 0.0
H447 H 0.18151 0.28507 0.21616 0.0
H448 H 0.21657 0.25608 0.20979 0.0
H449 H 0.11752 0.20746 0.30173 0.0
H450 H 0.106 0.24837 0.28717 0.0
H451 H 0.07448 0.18437 0.28166 0.0
H452 H 0.06653 0.319 0.23758 0.0
H453 H 0.99075 0.16459 0.22543 0.0
H454 H 0.18288 0.33574 0.24382 0.0
H455 H 0.15736 0.3228 0.26794 0.0
H456 H 0.14473 0.3602 0.25167 0.0
H457 H 0.09113 0.14691 0.22877 0.0
H458 H 0.02532 0.11516 0.23141 0.0
H459 H 0.06453 0.13431 0.2527 0.0
C460 C 0.9797 0.17127 0.42994 0.0
C461 C 0.98008 0.21589 0.42894 0.0
C462 C 0.93945 0.12778 0.42303 0.0
C463 C 0.89868 0.12906 0.415 0.0
C464 C 0.89901 0.17405 0.41384 0.0
C465 C 0.93975 0.21692 0.42081 0.0
C466 C 0.94046 0.08048 0.42438 0.0
C467 C 0.8561 0.17682 0.40543 0.0
C468 C 0.80881 0.02662 0.38188 0.0
C469 C 0.76952 -0.00043 0.3947 0.0
C470 C 0.85157 0.06836 0.38838 0.0
C471 C 0.85506 0.08329 0.40816 0.0
C472 C 0.81593 0.05562 0.42126 0.0
C473 C 0.77362 0.0141 0.41437 0.0
C474 C 0.89254 0.09707 0.37397 0.0
C475 C 0.81847 0.0703 0.4425 0.0
H476 H 0.01115 0.17048 0.43592 0.0
H477 H 0.93967 0.25121 0.42023 0.0
H478 H 0.90982 0.05396 0.43375 0.0
H479 H 0.93515 0.06368 0.40964 0.0
H480 H 0.97549 0.08598 0.43057 0.0
H481 H 0.86264 0.21487 0.40519 0.0
H482 H 0.84856 0.16222 0.39025 0.0
H483 H 0.82267 0.15374 0.41423 0.0
H484 H 0.80564 0.01582 0.36664 0.0
H485 H 0.74377 0.99282 0.42441 0.0
H486 H 0.92752 0.10141 0.37964 0.0
H487 H 0.89779 0.13438 0.37217 0.0
H488 H 0.88507 0.0792 0.35935 0.0
H489 H 0.85145 0.07296 0.44956 0.0
H490 H 0.78554 0.04391 0.45092 0.0
H491 H 0.82192 0.10704 0.44347 0.0
C492 C 0.71952 0.7797 0.57447 0.0
C493 C 0.76136 0.78191 0.56624 0.0
C494 C 0.7208 0.82182 0.58183 0.0
C495 C 0.76508 0.8673 0.58096 0.0
C496 C 0.80764 0.8698 0.57282 0.0
C497 C 0.80523 0.82701 0.5655 0.0
C498 C 0.67457 0.81774 0.5903 0.0
C499 C 0.85559 0.91764 0.57177 0.0
C500 C 0.75239 0.98063 0.58215 0.0
C501 C 0.76239 0.99477 0.60187 0.0
C502 C 0.75415 0.9398 0.57507 0.0
C503 C 0.76616 0.91238 0.58804 0.0
C504 C 0.77703 0.92682 0.60791 0.0
C505 C 0.77506 0.96792 0.61459 0.0
C506 C 0.74257 0.92566 0.55376 0.0
C507 C 0.78981 0.89834 0.62218 0.0
H508 H 0.68542 0.74503 0.57485 0.0
H509 H 0.83783 0.8287 0.55943 0.0
H510 H 0.68125 0.83186 0.60555 0.0
H511 H 0.66367 0.84056 0.58165 0.0
H512 H 0.64351 0.77939 0.59037 0.0
H513 H 0.88561 0.91308 0.56547 0.0
H514 H 0.85109 0.94423 0.56264 0.0
H515 H 0.86666 0.9338 0.58663 0.0
H516 H 0.74357 0.00179 0.57217 0.0
H517 H 0.78245 0.97849 0.62986 0.0
H518 H 0.70981 0.88854 0.55261 0.0
H519 H 0.77351 0.92414 0.54669 0.0
H520 H 0.73537 0.95174 0.54548 0.0
H521 H 0.75829 0.86055 0.62371 0.0
H522 H 0.79937 0.91564 0.63693 0.0
H523 H 0.82122 0.89526 0.61656 0.0
C524 C 0.95475 0.72341 0.73427 0.0
C525 C 0.99058 0.76716 0.72561 0.0
C526 C 0.91181 0.7194 0.74218 0.0
C527 C 0.90442 0.76009 0.74133 0.0
C528 C 0.94048 0.80445 0.73269 0.0
C529 C 0.98319 0.80748 0.72495 0.0
C530 C 0.87415 0.67148 0.75129 0.0
C531 C 0.93383 0.84862 0.73154 0.0
C532 C 0.7733 0.73393 0.74453 0.0
C533 C 0.77036 0.74554 0.76414 0.0
C534 C 0.8169 0.73899 0.73687 0.0
C535 C 0.85845 0.75581 0.74916 0.0
C536 C 0.8558 0.7677 0.76896 0.0
C537 C 0.81177 0.76255 0.77621 0.0
C538 C 0.81849 0.72635 0.71562 0.0
C539 C 0.89929 0.78536 0.78254 0.0
H540 H 0.9599 0.69194 0.73459 0.0
H541 H 0.01106 0.84164 0.71859 0.0
H542 H 0.86681 0.6776 0.76664 0.0
H543 H 0.83902 0.65631 0.74316 0.0
H544 H 0.88612 0.64378 0.75127 0.0
H545 H 0.96559 0.88054 0.72453 0.0
H546 H 0.90027 0.83941 0.72304 0.0
H547 H 0.92879 0.85942 0.74646 0.0
H548 H 0.74164 0.72155 0.73508 0.0
H549 H 0.80944 0.77107 0.79142 0.0
H550 H 0.82742 0.69655 0.71457 0.0
H551 H 0.84786 0.7586 0.70782 0.0
H552 H 0.78314 0.7144 0.70797 0.0
H553 H 0.91017 0.757 0.78378 0.0
H554 H 0.8914 0.79381 0.79746 0.0
H555 H 0.93115 0.81878 0.77646 0.0
C556 C 0.2328 0.93095 0.90587 0.0
C557 C 0.22953 0.97041 0.89811 0.0
C558 C 0.19133 0.88962 0.91339 0.0
C559 C 0.14547 0.88764 0.91303 0.0
C560 C 0.14182 0.92724 0.90521 0.0
C561 C 0.18395 0.96824 0.8979 0.0
C562 C 0.19653 0.848 0.92165 0.0
C563 C 0.09341 0.92632 0.90459 0.0
C564 C 0.03016 0.76315 0.91547 0.0
C565 C 0.01633 0.76133 0.9351 0.0
C566 C 0.07219 0.8041 0.90807 0.0
C567 C 0.10115 0.84392 0.9207 0.0
C568 C 0.08762 0.84213 0.9406 0.0
C569 C 0.04519 0.80085 0.94755 0.0
C570 C 0.08532 0.80499 0.88672 0.0
C571 C 0.11794 0.88375 0.95453 0.0
H572 H 0.26773 0.93207 0.90584 0.0
H573 H 0.18125 0.99888 0.89225 0.0
H574 H 0.18367 0.84092 0.93707 0.0
H575 H 0.17319 0.81394 0.91325 0.0
H576 H 0.23502 0.85571 0.92118 0.0
H577 H 0.09678 0.95997 0.89788 0.0
H578 H 0.06624 0.8941 0.89607 0.0
H579 H 0.07862 0.92254 0.91965 0.0
H580 H 0.00751 0.73289 0.90578 0.0
H581 H 0.03486 0.79916 0.9628 0.0
H582 H 0.12264 0.80994 0.88539 0.0
H583 H 0.08587 0.83655 0.87928 0.0
H584 H 0.05907 0.77085 0.87891 0.0
H585 H 0.15603 0.89048 0.9551 0.0
H586 H 0.10265 0.87626 0.96963 0.0
H587 H 0.11992 0.91793 0.94919 0.0
C588 C 0.65159 0.61841 0.9908 0.0
C589 C 0.66849 0.59266 1.00206 0.0
C590 C 0.60142 0.60344 0.99007 0.0
C591 C 0.56739 0.56104 1.00047 0.0
C592 C 0.58443 0.53503 0.01189 0.0
C593 C 0.63482 0.55151 0.01271 0.0
C594 C 0.58482 0.63281 0.97814 0.0
C595 C 0.54931 0.48906 0.02289 0.0
C596 C 0.43781 0.52901 0.01399 0.0
C597 C 0.41016 0.49264 1.00009 0.0
C598 C 0.48935 0.5543 0.01347 0.0
C599 C 0.51373 0.54229 0.99894 0.0
C600 C 0.4861 0.50809 0.98412 0.0
C601 C 0.43474 0.48422 0.98473 0.0
C602 C 0.51757 0.59155 0.02923 0.0
C603 C 0.51057 0.49396 0.96841 0.0
H604 H 0.67779 0.65058 0.98274 0.0
H605 H 0.6479 0.53137 0.02124 0.0
H606 H 0.56076 0.61006 0.966 0.0
H607 H 0.56288 0.64367 0.98742 0.0
H608 H 0.61615 0.66636 0.97181 0.0
H609 H 0.56852 0.47311 0.03106 0.0
H610 H 0.52748 0.49712 0.03345 0.0
H611 H 0.52316 0.46114 0.01247 0.0
H612 H 0.41938 0.53579 0.02597 0.0
H613 H 0.41371 0.45712 0.97362 0.0
H614 H 0.5489 0.62483 0.02279 0.0
H615 H 0.5328 0.57587 0.03978 0.0
H616 H 0.49402 0.60242 0.03743 0.0
H617 H 0.54035 0.52706 0.96123 0.0
H618 H 0.48426 0.47009 0.957 0.0
H619 H 0.52753 0.47401 0.9752 0.0
C620 C 0.93481 0.44223 0.17966 0.0
C621 C 0.94258 0.41378 0.16583 0.0
C622 C 0.96165 0.49364 0.17893 0.0
C623 C 0.99774 0.5172 0.16424 0.0
C624 C 0.00418 0.48885 0.14971 0.0
C625 C 0.97618 0.43754 0.15056 0.0
C626 C 0.95303 0.52266 0.19446 0.0
C627 C 0.04244 0.51257 0.13384 0.0
C628 C 0.05337 0.65359 0.15452 0.0
C629 C 0.09675 0.67325 0.16553 0.0
C630 C 0.02024 0.60293 0.15422 0.0
C631 C 0.03128 0.57119 0.16491 0.0
C632 C 0.07504 0.59092 0.17608 0.0
C633 C 0.10701 0.64178 0.17639 0.0
C634 C 0.97351 0.58338 0.14248 0.0
C635 C 0.08853 0.55823 0.18743 0.0
H636 H 0.90943 0.42448 0.19165 0.0
H637 H 0.98172 0.41597 0.13956 0.0
H638 H 0.98519 0.5402 0.20441 0.0
H639 H 0.94892 0.55235 0.18765 0.0
H640 H 0.91986 0.49928 0.20338 0.0
H641 H 0.04083 0.48555 0.12296 0.0
H642 H 0.03772 0.54076 0.12601 0.0
H643 H 0.07952 0.53142 0.14055 0.0
H644 H 0.04516 0.67802 0.14631 0.0
H645 H 0.14079 0.65693 0.18472 0.0
H646 H 0.94132 0.56189 0.15212 0.0
H647 H 0.97255 0.55821 0.1309 0.0
H648 H 0.96975 0.6131 0.13544 0.0
H649 H 0.0595 0.53628 0.19828 0.0
H650 H 0.12399 0.57937 0.1953 0.0
H651 H 0.09119 0.53209 0.1773 0.0
C652 C 0.44541 0.07292 0.34986 0.0
C653 C 0.40308 0.06392 0.33971 0.0
C654 C 0.4622 0.03924 0.34923 0.0
C655 C 0.43534 0.99501 0.33854 0.0
C656 C 0.39143 0.98488 0.32891 0.0
C657 C 0.37614 0.01976 0.32943 0.0
C658 C 0.50966 0.05184 0.35942 0.0
C659 C 0.36114 0.93768 0.31778 0.0
C660 C 0.5106 0.93942 0.32043 0.0
C661 C 0.50416 0.90664 0.33561 0.0
C662 C 0.48698 0.9671 0.32084 0.0
C663 C 0.45504 0.96101 0.33654 0.0
C664 C 0.44527 0.92521 0.35108 0.0
C665 C 0.47027 0.89873 0.35054 0.0
C666 C 0.49859 0.005 0.30507 0.0
C667 C 0.41047 0.91675 0.36778 0.0
H668 H 0.46643 0.10725 0.35765 0.0
H669 H 0.34304 0.01259 0.32178 0.0
H670 H 0.50362 0.02252 0.36994 0.0
H671 H 0.53687 0.05428 0.34847 0.0
H672 H 0.52553 0.08718 0.36747 0.0
H673 H 0.32588 0.93359 0.31254 0.0
H674 H 0.38204 0.93647 0.30491 0.0
H675 H 0.35321 0.90586 0.3272 0.0
H676 H 0.53579 0.94494 0.30858 0.0
H677 H 0.46515 0.87377 0.36241 0.0
H678 H 0.5181 0.04219 0.31166 0.0
H679 H 0.46432 0.00014 0.29841 0.0
H680 H 0.52194 0.00318 0.29326 0.0
H681 H 0.42733 0.94852 0.37793 0.0
H682 H 0.40152 0.88315 0.37622 0.0
H683 H 0.37589 0.91357 0.36222 0.0
C684 C 0.35012 0.43781 0.48416 0.0
C685 C 0.32081 0.41596 0.50074 0.0
C686 C 0.4012 0.4578 0.48486 0.0
C687 C 0.42363 0.4559 0.50257 0.0
C688 C 0.39415 0.43267 0.5192 0.0
C689 C 0.34315 0.41309 0.5181 0.0
C690 C 0.43133 0.48255 0.46683 0.0
C691 C 0.41662 0.42965 0.53832 0.0
C692 C 0.55622 0.48373 0.50072 0.0
C693 C 0.58176 0.53332 0.50614 0.0
C694 C 0.50463 0.45773 0.49965 0.0
C695 C 0.47813 0.48192 0.50414 0.0
C696 C 0.50374 0.5317 0.50992 0.0
C697 C 0.55505 0.55662 0.51093 0.0
C698 C 0.47852 0.40461 0.49349 0.0
C699 C 0.47697 0.55888 0.51493 0.0
H700 H 0.33333 0.44066 0.47076 0.0
H701 H 0.32071 0.3955 0.53086 0.0
H702 H 0.45502 0.52236 0.46967 0.0
H703 H 0.45583 0.46775 0.46334 0.0
H704 H 0.40809 0.47772 0.45383 0.0
H705 H 0.38842 0.40723 0.54943 0.0
H706 H 0.44053 0.41362 0.53588 0.0
H707 H 0.44004 0.46702 0.54435 0.0
H708 H 0.57659 0.46552 0.49698 0.0
H709 H 0.57436 0.59458 0.51563 0.0
H710 H 0.45792 0.40002 0.47971 0.0
H711 H 0.45139 0.38171 0.50481 0.0
H712 H 0.50427 0.39067 0.4911 0.0
H713 H 0.45518 0.55876 0.50213 0.0
H714 H 0.50237 0.5975 0.51927 0.0
H715 H 0.45091 0.54017 0.52714 0.0
C716 C 0.97071 0.37768 0.64789 0.0
C717 C 0.92186 0.35366 0.65428 0.0
C718 C 0.99789 0.42886 0.64639 0.0
C719 C 0.97585 0.45683 0.6517 0.0
C720 C 0.9257 0.43257 0.65729 0.0
C721 C 0.89911 0.38104 0.65837 0.0
C722 C 0.05089 0.45303 0.64005 0.0
C723 C 0.90093 0.46109 0.66312 0.0
C724 C 0.06109 0.58438 0.67183 0.0
C725 C 0.06534 0.61434 0.65589 0.0
C726 C 0.03193 0.53319 0.67063 0.0
C727 C 0.00653 0.51123 0.65302 0.0
C728 C 0.01139 0.54116 0.63674 0.0
C729 C 0.04059 0.59237 0.63839 0.0
C730 C 0.02767 0.50262 0.68836 0.0
C731 C 0.98547 0.51912 0.61764 0.0
H732 H 0.98796 0.3562 0.64451 0.0
H733 H 0.86137 0.36223 0.66336 0.0
H734 H 0.05839 0.48045 0.6284 0.0
H735 H 0.07504 0.47282 0.65265 0.0
H736 H 0.06093 0.42607 0.63449 0.0
H737 H 0.86089 0.43692 0.66547 0.0
H738 H 0.91751 0.48144 0.6769 0.0
H739 H 0.90669 0.48853 0.65172 0.0
H740 H 0.07928 0.60108 0.68552 0.0
H741 H 0.04387 0.61533 0.62599 0.0
H742 H 0.04047 0.47658 0.68467 0.0
H743 H 0.98869 0.48058 0.6929 0.0
H744 H 0.04941 0.52535 0.701 0.0
H745 H 0.99663 0.49314 0.61197 0.0
H746 H 0.99351 0.5474 0.60627 0.0
H747 H 0.94525 0.49793 0.62005 0.0
C748 C 0.59724 0.93943 0.81499 0.0
C749 C 0.57313 0.89778 0.82693 0.0
C750 C 0.58146 0.97392 0.81413 0.0
C751 C 0.54006 0.96592 0.82519 0.0
C752 C 0.51529 0.92357 0.83709 0.0
C753 C 0.53245 0.89027 0.83794 0.0
C754 C 0.60938 0.0191 0.80161 0.0
C755 C 0.47045 0.91322 0.84884 0.0
C756 C 0.51312 0.06556 0.84054 0.0
C757 C 0.47514 0.05753 0.8276 0.0
C758 C 0.5371 0.03829 0.83905 0.0
C759 C 0.52217 0.00151 0.8245 0.0
C760 C 0.48613 0.99536 0.81063 0.0
C761 C 0.46347 0.02384 0.81221 0.0
C762 C 0.57618 0.04669 0.85386 0.0
C763 C 0.46901 0.95639 0.79494 0.0
H764 H 0.62907 0.94547 0.80664 0.0
H765 H 0.51351 0.85778 0.84698 0.0
H766 H 0.58456 0.02122 0.79062 0.0
H767 H 0.62373 0.05238 0.8109 0.0
H768 H 0.64062 0.01966 0.79379 0.0
H769 H 0.45473 0.878 0.85695 0.0
H770 H 0.47994 0.94315 0.85956 0.0
H771 H 0.44182 0.91196 0.83898 0.0
H772 H 0.52232 0.09115 0.85258 0.0
H773 H 0.43505 0.01821 0.80184 0.0
H774 H 0.60838 0.04829 0.8465 0.0
H775 H 0.56147 0.01564 0.86434 0.0
H776 H 0.58863 0.08111 0.86228 0.0
H777 H 0.50076 0.95848 0.78703 0.0
H778 H 0.44439 0.9596 0.78412 0.0
H779 H 0.44881 0.91966 0.80186 0.0
C780 C 0.45002 0.3505 0.82049 0.0
C781 C 0.40893 0.31724 0.83128 0.0
C782 C 0.46651 0.40083 0.82106 0.0
C783 C 0.44054 0.41814 0.83238 0.0
C784 C 0.39839 0.38456 0.84303 0.0
C785 C 0.3834 0.33445 0.84253 0.0
C786 C 0.5122 0.43555 0.8098 0.0
C787 C 0.36913 0.40153 0.85486 0.0
C788 C 0.51665 0.552 0.84628 0.0
C789 C 0.50714 0.57477 0.83055 0.0
C790 C 0.49328 0.50082 0.84766 0.0
C791 C 0.45858 0.47163 0.83323 0.0
C792 C 0.44552 0.49424 0.81835 0.0
C793 C 0.47029 0.54557 0.81706 0.0
C794 C 0.50847 0.47817 0.86371 0.0
C795 C 0.40776 0.46429 0.80299 0.0
H796 H 0.46996 0.33712 0.81198 0.0
H797 H 0.35126 0.30851 0.85068 0.0
H798 H 0.50356 0.45624 0.79891 0.0
H799 H 0.54009 0.46267 0.81997 0.0
H800 H 0.52848 0.41617 0.80196 0.0
H801 H 0.33646 0.37055 0.86185 0.0
H802 H 0.39247 0.42728 0.86648 0.0
H803 H 0.35679 0.42172 0.84528 0.0
H804 H 0.54412 0.57426 0.85707 0.0
H805 H 0.46271 0.56257 0.80479 0.0
H806 H 0.52899 0.46147 0.8572 0.0
H807 H 0.47581 0.4485 0.87118 0.0
H808 H 0.53221 0.50555 0.87485 0.0
H809 H 0.42337 0.44845 0.79268 0.0
H810 H 0.39615 0.48673 0.79443 0.0
H811 H 0.3749 0.43336 0.80985 0.0
C812 C 0.91649 0.48199 0.98841 0.0
C813 C 0.92531 0.51852 1.00225 0.0
C814 C 0.94361 0.4577 0.9886 0.0
C815 C 0.9811 0.4709 0.00272 0.0
C816 C 0.98828 0.50561 0.0174 0.0
C817 C 0.95989 0.52851 0.01713 0.0
C818 C 0.93404 0.41997 0.97298 0.0
C819 C 0.02806 0.52091 0.03266 0.0
C820 C 0.04141 0.3936 0.01031 0.0
C821 C 0.08332 0.41823 0.99852 0.0
C822 C 0.00717 0.40964 0.01155 0.0
C823 C 0.0157 0.45191 1.00106 0.0
C824 C 0.05803 0.47688 0.98912 0.0
C825 C 0.09106 0.45939 0.98784 0.0
C826 C 0.96193 0.38139 0.02405 0.0
C827 C 0.06891 0.52262 0.97797 0.0
H828 H 0.89028 0.47413 0.97672 0.0
H829 H 0.9662 0.5558 0.02817 0.0
H830 H 0.96477 0.43523 0.96232 0.0
H831 H 0.93205 0.38684 0.97956 0.0
H832 H 0.89944 0.40891 0.96488 0.0
H833 H 0.02646 0.54554 0.04393 0.0
H834 H 0.02522 0.48831 0.04009 0.0
H835 H 0.0645 0.54038 0.02542 0.0
H836 H 0.03519 0.36139 0.01839 0.0
H837 H 0.12373 0.47866 0.9789 0.0
H838 H 0.92855 0.36962 0.01503 0.0
H839 H 0.96134 0.40524 0.03588 0.0
H840 H 0.96008 0.34848 0.03084 0.0
H841 H 0.03856 0.5145 0.96765 0.0
H842 H 0.10366 0.53796 0.96952 0.0
H843 H 0.07156 0.55103 0.98832 0.0
C844 C 0.44104 0.9678 0.17709 0.0
C845 C 0.41813 0.93439 0.16168 0.0
C846 C 0.49231 0.99549 0.17851 0.0
C847 C 0.52153 0.98896 0.16441 0.0
C848 C 0.49874 0.95272 0.1497 0.0
C849 C 0.44732 0.92611 0.14841 0.0
C850 C 0.51511 0.03385 0.19439 0.0
C851 C 0.52865 0.944 0.13463 0.0
C852 C 0.64539 0.09939 0.15243 0.0
C853 C 0.67734 0.09029 0.16356 0.0
C854 C 0.59466 0.06665 0.1526 0.0
C855 C 0.57546 0.02325 0.16394 0.0
C856 C 0.60764 0.01347 0.17499 0.0
C857 C 0.65822 0.04739 0.17481 0.0
C858 C 0.56154 0.07889 0.14087 0.0
C859 C 0.58867 0.9672 0.18695 0.0
H860 H 0.41881 0.97364 0.18768 0.0
H861 H 0.43017 0.9007 0.13638 0.0
H862 H 0.54365 0.02997 0.20237 0.0
H863 H 0.53337 0.07087 0.18766 0.0
H864 H 0.48754 0.03162 0.20514 0.0
H865 H 0.50586 0.91032 0.12588 0.0
H866 H 0.54604 0.97566 0.12446 0.0
H867 H 0.55853 0.9408 0.14181 0.0
H868 H 0.66008 0.1328 0.14391 0.0
H869 H 0.68299 0.04006 0.18324 0.0
H870 H 0.53464 0.081 0.15074 0.0
H871 H 0.54043 0.0495 0.13002 0.0
H872 H 0.58229 0.11425 0.13293 0.0
H873 H 0.56271 0.96581 0.19827 0.0
H874 H 0.61866 0.96449 0.19434 0.0
H875 H 0.56812 0.93468 0.17737 0.0
C876 C 0.60326 0.6351 0.34017 0.0
C877 C 0.57844 0.65259 0.32863 0.0
C878 C 0.58735 0.58481 0.3411 0.0
C879 C 0.54504 0.55121 0.33053 0.0
C880 C 0.52003 0.56878 0.31877 0.0
C881 C 0.53734 0.61931 0.31782 0.0
C882 C 0.61561 0.56764 0.35345 0.0
C883 C 0.47427 0.5341 0.30753 0.0
C884 C 0.51389 0.42132 0.31809 0.0
C885 C 0.47738 0.39401 0.33199 0.0
C886 C 0.53843 0.4728 0.31814 0.0
C887 C 0.52559 0.4975 0.33221 0.0
C888 C 0.49086 0.47031 0.34694 0.0
C889 C 0.46764 0.41899 0.34678 0.0
C890 C 0.5761 0.50058 0.30246 0.0
C891 C 0.47595 0.49518 0.36217 0.0
H892 H 0.63544 0.66093 0.34833 0.0
H893 H 0.5179 0.63278 0.30905 0.0
H894 H 0.59197 0.54367 0.36543 0.0
H895 H 0.62663 0.54548 0.3444 0.0
H896 H 0.64902 0.59864 0.36004 0.0
H897 H 0.45929 0.55368 0.29901 0.0
H898 H 0.48223 0.51165 0.29728 0.0
H899 H 0.44561 0.50852 0.31785 0.0
H900 H 0.52155 0.40257 0.30651 0.0
H901 H 0.44033 0.39828 0.35786 0.0
H902 H 0.60949 0.53165 0.30898 0.0
H903 H 0.56096 0.51613 0.29181 0.0
H904 H 0.58678 0.47675 0.29437 0.0
H905 H 0.50876 0.52468 0.36963 0.0
H906 H 0.45102 0.46912 0.37341 0.0
H907 H 0.45694 0.51254 0.35491 0.0
C908 C 0.92919 0.58475 0.47754 0.0
C909 C 0.90422 0.58278 0.49486 0.0
C910 C 0.96015 0.56465 0.47662 0.0
C911 C 0.96618 0.54181 0.49341 0.0
C912 C 0.94208 0.54078 0.51108 0.0
C913 C 0.91147 0.5613 0.5116 0.0
C914 C 0.98541 0.56677 0.45753 0.0
C915 C 0.94724 0.51647 0.52927 0.0
C916 C 0.99631 0.44066 0.48529 0.0
C917 C 0.04653 0.46407 0.48982 0.0
C918 C 0.96997 0.46558 0.48643 0.0
C919 C 0.99438 0.51548 0.49205 0.0
C920 C 0.04521 0.5397 0.49638 0.0
C921 C 0.07073 0.5137 0.4952 0.0
C922 C 0.91586 0.43836 0.48161 0.0
C923 C 0.07249 0.59294 0.50238 0.0
H924 H 0.92452 0.60204 0.46465 0.0
H925 H 0.892 0.55914 0.52498 0.0
H926 H 0.02539 0.58274 0.45993 0.0
H927 H 0.97118 0.52914 0.45175 0.0
H928 H 0.97971 0.58882 0.44624 0.0
H929 H 0.92903 0.52191 0.5422 0.0
H930 H 0.93075 0.47654 0.52665 0.0
H931 H 0.98656 0.5311 0.53276 0.0
H932 H 0.97749 0.40268 0.48063 0.0
H933 H 0.10945 0.53201 0.49877 0.0
H934 H 0.90846 0.45654 0.46923 0.0
H935 H 0.89448 0.43925 0.49438 0.0
H936 H 0.90231 0.3995 0.47759 0.0
H937 H 0.06869 0.61568 0.49088 0.0
H938 H 0.11214 0.60671 0.5049 0.0
H939 H 0.05634 0.59797 0.51603 0.0
C940 C 0.3636 0.9501 0.67002 0.0
C941 C 0.3343 0.94608 0.65384 0.0
C942 C 0.41449 0.98257 0.66986 0.0
C943 C 0.43684 0.01201 0.65313 0.0
C944 C 0.40727 0.00947 0.63702 0.0
C945 C 0.35644 0.97642 0.63754 0.0
C946 C 0.44463 0.9837 0.68728 0.0
C947 C 0.42954 0.04048 0.61897 0.0
C948 C 0.56994 0.11484 0.65873 0.0
C949 C 0.59528 0.09171 0.65192 0.0
C950 C 0.51819 0.08999 0.65872 0.0
C951 C 0.49146 0.04109 0.65169 0.0
C952 C 0.51709 0.01854 0.64407 0.0
C953 C 0.56845 0.04414 0.64419 0.0
C954 C 0.49214 0.11539 0.6668 0.0
C955 C 0.49029 0.96664 0.63633 0.0
H956 H 0.34703 0.92657 0.6826 0.0
H957 H 0.334 0.97422 0.62513 0.0
H958 H 0.46874 0.96899 0.68295 0.0
H959 H 0.46868 0.02195 0.6923 0.0
H960 H 0.42139 0.96169 0.69976 0.0
H961 H 0.40118 0.03805 0.60862 0.0
H962 H 0.45375 0.07942 0.62313 0.0
H963 H 0.45259 0.0283 0.61124 0.0
H964 H 0.59049 0.15163 0.66465 0.0
H965 H 0.58784 0.02648 0.63845 0.0
H966 H 0.47255 0.09691 0.68048 0.0
H967 H 0.4642 0.11283 0.65622 0.0
H968 H 0.51789 0.15464 0.6701 0.0
H969 H 0.46863 0.94104 0.64829 0.0
H970 H 0.51567 0.95509 0.63025 0.0
H971 H 0.46413 0.96301 0.62467 0.0
C972 C 0.30452 0.1885 0.92254 0.0
C973 C 0.2896 0.18037 0.90285 0.0
C974 C 0.27801 0.1977 0.93675 0.0
C975 C 0.2356 0.19939 0.93119 0.0
C976 C 0.21981 0.19058 0.91139 0.0
C977 C 0.2469 0.1809 0.89744 0.0
C978 C 0.29604 0.20658 0.9577 0.0
C979 C 0.17503 0.19249 0.90488 0.0
C980 C 0.1548 0.19307 0.97396 0.0
C981 C 0.17387 0.24295 0.97808 0.0
C982 C 0.17281 0.17805 0.9581 0.0
C983 C 0.2103 0.21379 0.94601 0.0
C984 C 0.22766 0.26408 0.94952 0.0
C985 C 0.20945 0.27798 0.96552 0.0
C986 C 0.15363 0.12407 0.95493 0.0
C987 C 0.26733 0.30346 0.93697 0.0
H988 H 0.33714 0.18763 0.92695 0.0
H989 H 0.23507 0.17448 0.88227 0.0
H990 H 0.30698 0.24461 0.96208 0.0
H991 H 0.2662 0.18152 0.96772 0.0
H992 H 0.32796 0.20113 0.95984 0.0
H993 H 0.16587 0.18194 0.88925 0.0
H994 H 0.14298 0.16774 0.91405 0.0
H995 H 0.18136 0.23016 0.9069 0.0
H996 H 0.12735 0.16581 0.9836 0.0
H997 H 0.22401 0.31663 0.96843 0.0
H998 H 0.18263 0.1153 0.95875 0.0
H999 H 0.14416 0.11431 0.93928 0.0
H1000 H 0.12076 0.10091 0.96403 0.0
H1001 H 0.30243 0.30402 0.93942 0.0
H1002 H 0.27306 0.34046 0.94034 0.0
H1003 H 0.25804 0.2956 0.9212 0.0
C1004 C 0.05843 0.29975 0.07349 0.0
C1005 C 0.08527 0.28203 0.06357 0.0
C1006 C 0.02364 0.2713 0.08774 0.0
C1007 C 0.01681 0.22462 0.09268 0.0
C1008 C 0.0429 0.20594 0.08226 0.0
C1009 C 0.07644 0.23471 0.06757 0.0
C1010 C 0.99569 0.29216 0.09808 0.0
C1011 C 0.0377 0.15702 0.08741 0.0
C1012 C 0.97311 0.19206 0.14519 0.0
C1013 C 0.92256 0.16104 0.14266 0.0
C1014 C 0.0048 0.20991 0.129 0.0
C1015 C 0.98522 0.19767 0.10978 0.0
C1016 C 0.93449 0.16431 0.10719 0.0
C1017 C 0.9038 0.14589 0.12371 0.0
C1018 C 0.05883 0.2443 0.13247 0.0
C1019 C 0.91194 0.1511 0.08701 0.0
H1020 H 0.06541 0.33642 0.07034 0.0
H1021 H 0.09792 0.22144 0.06008 0.0
H1022 H 0.95585 0.26502 0.09818 0.0
H1023 H 0.00788 0.30038 0.11357 0.0
H1024 H 0.00131 0.3264 0.09107 0.0
H1025 H 0.05663 0.14557 0.0767 0.0
H1026 H 0.05368 0.15934 0.10214 0.0
H1027 H 0.99846 0.12826 0.08813 0.0
H1028 H 0.98766 0.20378 0.15984 0.0
H1029 H 0.8646 0.12245 0.1217 0.0
H1030 H 0.06837 0.28214 0.12841 0.0
H1031 H 0.08111 0.23397 0.12314 0.0
H1032 H 0.06916 0.24441 0.14805 0.0
H1033 H 0.91201 0.18336 0.08047 0.0
H1034 H 0.87354 0.12013 0.08739 0.0
H1035 H 0.93377 0.14122 0.07721 0.0
C1036 C 0.71748 0.91872 0.29647 0.0
C1037 C 0.75287 0.91867 0.30896 0.0
C1038 C 0.73096 0.95083 0.2805 0.0
C1039 C 0.78117 0.9843 0.27696 0.0
C1040 C 0.81728 0.98301 0.28896 0.0
C1041 C 0.80269 0.94995 0.30479 0.0
C1042 C 0.69121 0.9506 0.26803 0.0
C1043 C 0.87118 0.0184 0.28577 0.0
C1044 C 0.81364 0.05513 0.22871 0.0
C1045 C 0.81374 0.09796 0.2344 0.0
C1046 C 0.80413 0.01801 0.24245 0.0
C1047 C 0.79506 0.02424 0.26231 0.0
C1048 C 0.7962 0.06788 0.26813 0.0
C1049 C 0.80523 0.10393 0.25414 0.0
C1050 C 0.80278 0.97179 0.23567 0.0
C1051 C 0.78706 0.07626 0.28916 0.0
H1052 H 0.67888 0.89427 0.29943 0.0
H1053 H 0.83022 0.95012 0.31437 0.0
H1054 H 0.68999 0.9847 0.27068 0.0
H1055 H 0.6992 0.94975 0.25224 0.0
H1056 H 0.65442 0.9188 0.27131 0.0
H1057 H 0.89469 0.00892 0.29474 0.0
H1058 H 0.88089 0.01913 0.27009 0.0
H1059 H 0.87957 0.05595 0.28976 0.0
H1060 H 0.82038 0.05035 0.21351 0.0
H1061 H 0.80575 0.13709 0.25876 0.0
H1062 H 0.7653 0.94004 0.23769 0.0
H1063 H 0.82799 0.96483 0.24467 0.0
H1064 H 0.81316 0.97364 0.21999 0.0
H1065 H 0.74913 0.04861 0.29347 0.0
H1066 H 0.79193 0.11333 0.29149 0.0
H1067 H 0.81242 0.07176 0.29909 0.0
C1068 C 0.70002 0.74812 0.4045 0.0
C1069 C 0.71643 0.79219 0.39438 0.0
C1070 C 0.72879 0.7438 0.41917 0.0
C1071 C 0.77436 0.78517 0.42432 0.0
C1072 C 0.79183 0.82943 0.41366 0.0
C1073 C 0.76283 0.8322 0.39858 0.0
C1074 C 0.70929 0.69552 0.42978 0.0
C1075 C 0.8395 0.87468 0.419 0.0
C1076 C 0.80484 0.77754 0.47745 0.0
C1077 C 0.83753 0.75984 0.47569 0.0
C1078 C 0.78702 0.78972 0.4608 0.0
C1079 C 0.80112 0.7826 0.4419 0.0
C1080 C 0.83621 0.76724 0.44008 0.0
C1081 C 0.85446 0.75656 0.45705 0.0
C1082 C 0.75067 0.80723 0.46344 0.0
C1083 C 0.85152 0.7583 0.42025 0.0
H1084 H 0.66402 0.71729 0.40123 0.0
H1085 H 0.77501 0.86657 0.39094 0.0
H1086 H 0.73775 0.68463 0.43046 0.0
H1087 H 0.69972 0.69936 0.44508 0.0
H1088 H 0.67608 0.66566 0.42259 0.0
H1089 H 0.85047 0.90438 0.40802 0.0
H1090 H 0.8355 0.8885 0.43345 0.0
H1091 H 0.86938 0.86595 0.42041 0.0
H1092 H 0.79178 0.78016 0.49187 0.0
H1093 H 0.87926 0.74225 0.45562 0.0
H1094 H 0.71356 0.77766 0.45912 0.0
H1095 H 0.76031 0.83925 0.45387 0.0
H1096 H 0.74905 0.81761 0.47888 0.0
H1097 H 0.82052 0.72506 0.41361 0.0
H1098 H 0.88363 0.75276 0.42124 0.0
H1099 H 0.86066 0.78938 0.41021 0.0
C1100 C 0.92276 0.77424 0.56569 0.0
C1101 C 0.91431 0.72642 0.56342 0.0
C1102 C 0.95643 0.80612 0.57969 0.0
C1103 C 0.98323 0.79013 0.59118 0.0
C1104 C 0.97638 0.74257 0.58819 0.0
C1105 C 0.94131 0.71099 0.5746 0.0
C1106 C 0.96135 0.85577 0.58288 0.0
C1107 C 0.00504 0.72442 0.59978 0.0
C1108 C 0.09945 0.87638 0.619 0.0
C1109 C 0.08293 0.86576 0.63842 0.0
C1110 C 0.06685 0.85411 0.60327 0.0
C1111 C 0.0165 0.82152 0.60713 0.0
C1112 C 0.99915 0.81426 0.6267 0.0
C1113 C 0.03274 0.8358 0.64213 0.0
C1114 C 0.08707 0.86204 0.5827 0.0
C1115 C 0.9456 0.78098 0.63146 0.0
H1116 H 0.90111 0.7858 0.55728 0.0
H1117 H 0.93459 0.67393 0.57284 0.0
H1118 H 0.94754 0.85715 0.5977 0.0
H1119 H 0.00044 0.88496 0.58226 0.0
H1120 H 0.94043 0.86395 0.57187 0.0
H1121 H 0.99868 0.6884 0.59443 0.0
H1122 H 0.04489 0.7513 0.59896 0.0
H1123 H 0.99431 0.72058 0.61545 0.0
H1124 H 0.13842 0.8988 0.61613 0.0
H1125 H 0.02006 0.82737 0.65717 0.0
H1126 H 0.06407 0.86927 0.57246 0.0
H1127 H 0.08642 0.82829 0.57758 0.0
H1128 H 0.12542 0.893 0.58188 0.0
H1129 H 0.92215 0.78828 0.62149 0.0
H1130 H 0.93698 0.7855 0.64685 0.0
H1131 H 0.93586 0.74225 0.62932 0.0
C1132 C 0.16385 0.93611 0.73155 0.0
C1133 C 0.20299 0.92894 0.72659 0.0
C1134 C 0.16743 0.96583 0.74759 0.0
C1135 C 0.21172 0.98998 0.75843 0.0
C1136 C 0.25212 0.98469 0.75274 0.0
C1137 C 0.24692 0.95349 0.73711 0.0
C1138 C 0.12308 0.96927 0.75354 0.0
C1139 C 0.30045 0.01077 0.76355 0.0
C1140 C 0.24353 0.09729 0.79249 0.0
C1141 C 0.2396 0.07571 0.81086 0.0
C1142 C 0.23227 0.06937 0.77521 0.0
C1143 C 0.21551 0.01853 0.77643 0.0
C1144 C 0.20777 0.99602 0.79507 0.0
C1145 C 0.22073 0.02504 0.81205 0.0
C1146 C 0.24214 0.09504 0.75566 0.0
C1147 C 0.18864 0.94172 0.79708 0.0
H1148 H 0.12955 0.91632 0.72359 0.0
H1149 H 0.2771 0.94779 0.73324 0.0
H1150 H 0.11006 0.95196 0.76812 0.0
H1151 H 0.13278 0.00815 0.75494 0.0
H1152 H 0.09245 0.95078 0.74289 0.0
H1153 H 0.32951 0.00653 0.75612 0.0
H1154 H 0.31305 0.05043 0.76484 0.0
H1155 H 0.29576 0.99592 0.77863 0.0
H1156 H 0.2589 0.13663 0.79151 0.0
H1157 H 0.21778 0.00837 0.82626 0.0
H1158 H 0.21071 0.07472 0.74557 0.0
H1159 H 0.27462 0.09614 0.74878 0.0
H1160 H 0.24943 0.13321 0.75714 0.0
H1161 H 0.15654 0.92065 0.78735 0.0
H1162 H 0.17776 0.92886 0.8124 0.0
H1163 H 0.21751 0.93336 0.79256 0.0
C1164 C 0.71663 0.78245 0.86255 0.0
C1165 C 0.75234 0.81591 0.84961 0.0
C1166 C 0.72962 0.76628 0.87942 0.0
C1167 C 0.7797 0.78343 0.88342 0.0
C1168 C 0.81617 0.81895 0.87092 0.0
C1169 C 0.80204 0.83505 0.85418 0.0
C1170 C 0.68945 0.72868 0.89236 0.0
C1171 C 0.86994 0.83781 0.8746 0.0
C1172 C 0.8087 0.75033 0.93355 0.0
C1173 C 0.80776 0.70634 0.92925 0.0
C1174 C 0.80106 0.77688 0.9187 0.0
C1175 C 0.79292 0.75924 0.89914 0.0
C1176 C 0.79342 0.71564 0.89471 0.0
C1177 C 0.80052 0.6897 0.90979 0.0
C1178 C 0.80033 0.82298 0.924 0.0
C1179 C 0.78524 0.69559 0.87407 0.0
H1180 H 0.67813 0.76779 0.85929 0.0
H1181 H 0.82983 0.86089 0.84425 0.0
H1182 H 0.68801 0.69293 0.89082 0.0
H1183 H 0.69714 0.7397 0.90798 0.0
H1184 H 0.65284 0.72342 0.88853 0.0
H1185 H 0.89374 0.86966 0.86513 0.0
H1186 H 0.87922 0.84871 0.89017 0.0
H1187 H 0.87836 0.80819 0.87162 0.0
H1188 H 0.81451 0.76351 0.94853 0.0
H1189 H 0.8004 0.65611 0.90624 0.0
H1190 H 0.76295 0.81723 0.92165 0.0
H1191 H 0.8256 0.85362 0.91435 0.0
H1192 H 0.81094 0.83387 0.93951 0.0
H1193 H 0.74751 0.68476 0.86924 0.0
H1194 H 0.79015 0.66316 0.87285 0.0
H1195 H 0.81106 0.72421 0.86381 0.0
C1196 C 0.90336 0.75755 0.04036 0.0
C1197 C 0.91942 0.75995 0.02101 0.0
C1198 C 0.93623 0.7704 0.05616 0.0
C1199 C 0.98646 0.78719 0.05243 0.0
C1200 C 0.00334 0.79336 0.03281 0.0
C1201 C 0.96948 0.77885 0.01735 0.0
C1202 C 0.91647 0.76218 0.07681 0.0
C1203 C 0.05674 0.81245 0.02812 0.0
C1204 C 0.0816 0.8426 0.09327 0.0
C1205 C 0.09028 0.80398 0.09723 0.0
C1206 C 0.04732 0.83766 0.07891 0.0
C1207 C 0.02018 0.79254 0.06881 0.0
C1208 C 0.02721 0.75271 0.07359 0.0
C1209 C 0.06285 0.75926 0.08747 0.0
C1210 C 0.0421 0.88142 0.07384 0.0
C1211 C 0.99818 0.70356 0.06359 0.0
H1212 H 0.86453 0.74219 0.04324 0.0
H1213 H 0.9819 0.78064 1.00238 0.0
H1214 H 0.91751 0.73039 0.08326 0.0
H1215 H 0.93956 0.79446 0.08616 0.0
H1216 H 0.87806 0.75467 0.07731 0.0
H1217 H 0.06498 0.82209 0.01237 0.0
H1218 H 0.08048 0.84532 0.0371 0.0
H1219 H 0.06649 0.78407 0.03172 0.0
H1220 H 0.10357 0.8775 0.1006 0.0
H1221 H 0.06976 0.7295 0.09056 0.0
H1222 H 0.00304 0.8716 0.07447 0.0
H1223 H 0.05487 0.89315 0.05859 0.0
H1224 H 0.06369 0.91294 0.08381 0.0
H1225 H 0.95837 0.69081 0.06427 0.0
H1226 H 0.00464 0.67519 0.07031 0.0
H1227 H 0.00852 0.70701 0.04788 0.0
C1228 C 0.14975 0.89695 0.20406 0.0
C1229 C 0.16769 0.91724 0.18552 0.0
C1230 C 0.16721 0.92574 0.22111 0.0
C1231 C 0.20249 0.97619 0.21948 0.0
C1232 C 0.21792 0.99746 0.20066 0.0
C1233 C 0.20092 0.96757 0.18393 0.0
C1234 C 0.15062 0.9014 0.24086 0.0
C1235 C 0.25447 0.05133 0.19821 0.0
C1236 C 0.23525 0.06299 0.263 0.0
C1237 C 0.28124 0.06968 0.2682 0.0
C1238 C 0.20835 0.03171 0.24743 0.0
C1239 C 0.22744 0.00563 0.23729 0.0
C1240 C 0.27261 0.01023 0.24336 0.0
C1241 C 0.29935 0.0429 0.2585 0.0
C1242 C 0.16111 0.02891 0.2411 0.0
C1243 C 0.29371 0.98213 0.23334 0.0
H1244 H 0.12456 0.85789 0.20537 0.0
H1245 H 0.2148 0.98331 0.16959 0.0
H1246 H 0.18146 0.89999 0.24809 0.0
H1247 H 0.13999 0.92285 0.25052 0.0
H1248 H 0.11913 0.86343 0.23965 0.0
H1249 H 0.25747 0.06333 0.18271 0.0
H1250 H 0.24395 0.07368 0.20739 0.0
H1251 H 0.29118 0.05894 0.20317 0.0
H1252 H 0.22173 0.08449 0.27031 0.0
H1253 H 0.33501 0.04824 0.26255 0.0
H1254 H 0.13146 0.9902 0.23967 0.0
H1255 H 0.16626 0.04617 0.22646 0.0
H1256 H 0.14907 0.0479 0.25153 0.0
H1257 H 0.26569 0.94266 0.23239 0.0
H1258 H 0.32637 0.98583 0.24114 0.0
H1259 H 0.30466 0.9958 0.21814 0.0
C1260 C 0.15497 0.23103 0.42725 0.0
C1261 C 0.19323 0.27865 0.43114 0.0
C1262 C 0.16033 0.20175 0.413 0.0
C1263 C 0.20557 0.22009 0.40294 0.0
C1264 C 0.24502 0.26735 0.4076 0.0
C1265 C 0.23802 0.2964 0.42136 0.0
C1266 C 0.1169 0.15235 0.40802 0.0
C1267 C 0.2943 0.28785 0.39765 0.0
C1268 C 0.24094 0.13742 0.37536 0.0
C1269 C 0.23807 0.14979 0.35587 0.0
C1270 C 0.22844 0.15839 0.39092 0.0
C1271 C 0.21145 0.19142 0.38682 0.0
C1272 C 0.20505 0.20106 0.36707 0.0
C1273 C 0.21928 0.18081 0.35184 0.0
C1274 C 0.237 0.14808 0.41171 0.0
C1275 C 0.18568 0.23486 0.36199 0.0
H1276 H 0.12 0.21774 0.43458 0.0
H1277 H 0.26749 0.33331 0.42438 0.0
H1278 H 0.10551 0.15263 0.39265 0.0
H1279 H 0.12704 0.12343 0.40908 0.0
H1280 H 0.08504 0.14248 0.41779 0.0
H1281 H 0.32235 0.3231 0.40424 0.0
H1282 H 0.30758 0.26127 0.39858 0.0
H1283 H 0.29074 0.29406 0.38188 0.0
H1284 H 0.2562 0.11404 0.37852 0.0
H1285 H 0.21709 0.19042 0.33676 0.0
H1286 H 0.20446 0.1385 0.42097 0.0
H1287 H 0.26832 0.18158 0.41805 0.0
H1288 H 0.24537 0.11782 0.41252 0.0
H1289 H 0.15266 0.22577 0.37086 0.0
H1290 H 0.17613 0.23281 0.34621 0.0
H1291 H 0.21387 0.27321 0.36545 0.0
C1292 C 0.95644 0.25059 0.59118 0.0
C1293 C 0.92597 0.20598 0.60057 0.0
C1294 C 0.98855 0.25398 0.57623 0.0
C1295 C 0.98926 0.21135 0.57014 0.0
C1296 C 0.95982 0.16646 0.5801 0.0
C1297 C 0.92882 0.16443 0.59539 0.0
C1298 C 0.02007 0.30284 0.56634 0.0
C1299 C 0.95881 0.12004 0.57384 0.0
C1300 C 0.02718 0.22218 0.51688 0.0
C1301 C 0.07718 0.23759 0.51851 0.0
C1302 C 0.99715 0.20964 0.53355 0.0
C1303 C 0.01791 0.21366 0.55236 0.0
C1304 C 0.0677 0.22619 0.55399 0.0
C1305 C 0.0967 0.23761 0.53699 0.0
C1306 C 0.944 0.19538 0.53108 0.0
C1307 C 0.09141 0.23147 0.57374 0.0
H1308 H 0.9543 0.28275 0.59524 0.0
H1309 H 0.90472 0.12973 0.60248 0.0
H1310 H 0.05877 0.31139 0.56566 0.0
H1311 H 0.00736 0.30126 0.55104 0.0
H1312 H 0.01878 0.33322 0.57405 0.0
H1313 H 0.93835 0.08959 0.58437 0.0
H1314 H 0.94092 0.10851 0.55927 0.0
H1315 H 0.99661 0.12639 0.57229 0.0
H1316 H 0.01194 0.2219 0.50259 0.0
H1317 H 0.13547 0.24994 0.53835 0.0
H1318 H 0.93868 0.22588 0.53612 0.0
H1319 H 0.92008 0.16284 0.54017 0.0
H1320 H 0.9319 0.18713 0.51556 0.0
H1321 H 0.09616 0.26503 0.58107 0.0
H1322 H 0.12795 0.23439 0.57247 0.0
H1323 H 0.06776 0.19993 0.58333 0.0
C1324 C 0.79989 0.09721 0.71441 0.0
C1325 C 0.80762 0.09083 0.69461 0.0
C1326 C 0.78515 0.05904 0.72797 0.0
C1327 C 0.77869 0.0134 0.72171 0.0
C1328 C 0.79036 0.00792 0.70213 0.0
C1329 C 0.80445 0.04669 0.68874 0.0
C1330 C 0.77259 0.06644 0.74861 0.0
C1331 C 0.7849 0.96012 0.69499 0.0
C1332 C 0.75317 0.91984 0.76206 0.0
C1333 C 0.70187 0.89159 0.7613 0.0
C1334 C 0.77913 0.95866 0.74879 0.0
C1335 C 0.75295 0.97001 0.73484 0.0
C1336 C 0.70111 0.94164 0.73418 0.0
C1337 C 0.67635 0.90257 0.74726 0.0
C1338 C 0.83441 0.98748 0.74968 0.0
C1339 C 0.67158 0.9531 0.71987 0.0
H1340 H 0.80284 0.13139 0.71919 0.0
H1341 H 0.81061 0.0415 0.6735 0.0
H1342 H 0.73229 0.0444 0.75076 0.0
H1343 H 0.78983 0.05361 0.75948 0.0
H1344 H 0.78456 0.10543 0.75172 0.0
H1345 H 0.80291 0.96419 0.68056 0.0
H1346 H 0.80077 0.94552 0.70575 0.0
H1347 H 0.74539 0.93263 0.69346 0.0
H1348 H 0.77301 0.91098 0.77275 0.0
H1349 H 0.63666 0.88091 0.74666 0.0
H1350 H 0.84696 0.02612 0.75363 0.0
H1351 H 0.84999 0.98779 0.73505 0.0
H1352 H 0.84939 0.97219 0.76055 0.0
H1353 H 0.67848 0.99079 0.72247 0.0
H1354 H 0.63153 0.92717 0.72115 0.0
H1355 H 0.68307 0.9517 0.70463 0.0
loop_
_geom_bond_atom_site_label_1
_geom_bond_atom_site_label_2
_geom_bond_distance
_geom_bond_site_symmetry_2
_ccdc_geom_bond_type
C0 C1 1.351 . S
C0 N3 1.368 . S
C0 H5 0.931 . S
C1 C0 1.351 . S
C1 N2 1.373 . S
C1 H29 0.930 . S
N2 C1 1.373 . S
N2 C4 1.340 . S
N3 C0 1.368 . S
N3 C4 1.321 . S
N3 Co6 2.135 . S
C4 N2 1.340 . S
C4 N3 1.321 . S
C4 H28 0.930 . S
H5 C0 0.931 . S
Co6 N3 2.135 . S
Co6 N9 2.121 1_554 S
Co6 O14 2.055 . S
Co6 O17 2.039 1_554 S
Co6 N20 2.140 . S
C7 O8 1.227 . S
C7 O17 1.265 . S
O8 C7 1.227 . S
N9 Co6 2.121 1_556 S
N9 C11 1.375 . S
N9 C12 1.313 . S
C10 C11 1.338 . S
C10 N13 1.377 . S
C10 H30 0.930 . S
C11 N9 1.375 . S
C11 C10 1.338 . S
C11 H15 0.931 . S
C12 N9 1.313 . S
C12 N13 1.344 . S
C12 H16 0.930 1_556 S
N13 C10 1.377 . S
N13 C12 1.344 . S
O14 Co6 2.055 . S
O14 C18 1.253 . S
H15 C11 0.931 . S
H16 C12 0.930 1_554 S
O17 Co6 2.039 1_556 S
O17 C7 1.265 . S
C18 O14 1.253 . S
C18 O19 1.227 . S
O19 C18 1.227 . S
N20 Co6 2.140 . S
N20 C23 1.346 . S
N20 C24 1.345 . S
C21 C22 1.387 . S
C21 C25 1.391 . S
C22 C21 1.387 . S
C22 C23 1.369 . S
C22 H31 0.929 . S
C23 N20 1.346 . S
C23 C22 1.369 . S
C23 H26 0.928 . S
C24 N20 1.345 . S
C24 C25 1.371 . S
C24 H27 0.931 . S
C25 C21 1.391 . S
C25 C24 1.371 . S
C25 H32 0.930 . S
H26 C23 0.928 . S
H27 C24 0.931 . S
H28 C4 0.930 . S
H29 C1 0.930 . S
H30 C10 0.930 . S
H31 C22 0.929 . S
H32 C25 0.930 . S
C33 C34 1.351 1_655 S
C33 N36 1.368 . S
C33 H38 0.931 . S
C34 C33 1.351 1_455 S
C34 N35 1.373 . S
C34 H62 0.930 . S
N35 C34 1.373 . S
N35 C37 1.340 . S
N36 C33 1.368 . S
N36 C37 1.321 1_655 S
N36 Co39 2.135 . S
C37 N35 1.340 . S
C37 N36 1.321 1_455 S
C37 H61 0.930 . S
H38 C33 0.931 . S
Co39 N36 2.135 . S
Co39 N42 2.121 . S
Co39 O47 2.055 . S
Co39 O50 2.039 . S
Co39 N53 2.140 . S
C40 O41 1.227 . S
C40 O50 1.265 . S
O41 C40 1.227 . S
N42 Co39 2.121 . S
N42 C44 1.375 . S
N42 C45 1.313 . S
C43 C44 1.338 . S
C43 N46 1.377 . S
C43 H63 0.930 . S
C44 N42 1.375 . S
C44 C43 1.338 . S
C44 H48 0.931 . S
C45 N42 1.313 . S
C45 N46 1.344 . S
C45 H49 0.930 . S
N46 C43 1.377 . S
N46 C45 1.344 . S
O47 Co39 2.055 . S
O47 C51 1.253 . S
H48 C44 0.931 . S
H49 C45 0.930 . S
O50 Co39 2.039 . S
O50 C40 1.265 . S
C51 O47 1.253 . S
C51 O52 1.227 . S
O52 C51 1.227 . S
N53 Co39 2.140 . S
N53 C56 1.346 . S
N53 C57 1.345 . S
C54 C55 1.387 . S
C54 C58 1.391 . S
C55 C54 1.387 . S
C55 C56 1.369 . S
C55 H64 0.929 1_655 S
C56 N53 1.346 . S
C56 C55 1.369 . S
C56 H59 0.928 . S
C57 N53 1.345 . S
C57 C58 1.371 . S
C57 H60 0.931 . S
C58 C54 1.391 . S
C58 C57 1.371 . S
C58 H65 0.930 . S
H59 C56 0.928 . S
H60 C57 0.931 . S
H61 C37 0.930 . S
H62 C34 0.930 . S
H63 C43 0.930 . S
H64 C55 0.929 1_455 S
H65 C58 0.930 . S
C66 C67 1.351 1_565 S
C66 N69 1.368 . S
C66 H71 0.931 . S
C67 C66 1.351 1_545 S
C67 N68 1.373 . S
C67 H95 0.930 . S
N68 C67 1.373 . S
N68 C70 1.340 . S
N69 C66 1.368 . S
N69 C70 1.321 1_565 S
N69 Co72 2.135 . S
C70 N68 1.340 . S
C70 N69 1.321 1_545 S
C70 H94 0.930 . S
H71 C66 0.931 . S
Co72 N69 2.135 . S
Co72 N75 2.121 . S
Co72 O80 2.055 . S
Co72 O83 2.039 . S
Co72 N86 2.140 . S
C73 O74 1.227 . S
C73 O83 1.265 . S
O74 C73 1.227 . S
N75 Co72 2.121 . S
N75 C77 1.375 . S
N75 C78 1.313 . S
C76 C77 1.338 . S
C76 N79 1.377 . S
C76 H96 0.930 . S
C77 N75 1.375 . S
C77 C76 1.338 . S
C77 H81 0.931 . S
C78 N75 1.313 . S
C78 N79 1.344 . S
C78 H82 0.930 . S
N79 C76 1.377 . S
N79 C78 1.344 . S
O80 Co72 2.055 . S
O80 C84 1.253 . S
H81 C77 0.931 . S
H82 C78 0.930 . S
O83 Co72 2.039 . S
O83 C73 1.265 . S
C84 O80 1.253 . S
C84 O85 1.227 . S
O85 C84 1.227 . S
N86 Co72 2.140 . S
N86 C89 1.346 . S
N86 C90 1.345 . S
C87 C88 1.387 . S
C87 C91 1.391 . S
C88 C87 1.387 . S
C88 C89 1.369 . S
C88 H97 0.929 1_565 S
C89 N86 1.346 . S
C89 C88 1.369 . S
C89 H92 0.928 . S
C90 N86 1.345 . S
C90 C91 1.371 . S
C90 H93 0.931 . S
C91 C87 1.391 . S
C91 C90 1.371 . S
C91 H98 0.930 . S
H92 C89 0.928 . S
H93 C90 0.931 . S
H94 C70 0.930 . S
H95 C67 0.930 . S
H96 C76 0.930 . S
H97 C88 0.929 1_545 S
H98 C91 0.930 . S
C99 C100 1.351 . S
C99 N102 1.368 . S
C99 H104 0.931 . S
C100 C99 1.351 . S
C100 N101 1.373 . S
C100 H128 0.930 . S
N101 C100 1.373 . S
N101 C103 1.340 . S
N102 C99 1.368 . S
N102 C103 1.321 . S
N102 Co105 2.135 . S
C103 N101 1.340 . S
C103 N102 1.321 . S
C103 H127 0.930 . S
H104 C99 0.931 . S
Co105 N102 2.135 . S
Co105 N108 2.121 . S
Co105 O113 2.055 . S
Co105 O116 2.039 . S
Co105 N119 2.140 . S
C106 O107 1.227 . S
C106 O116 1.265 . S
O107 C106 1.227 . S
N108 Co105 2.121 . S
N108 C110 1.375 . S
N108 C111 1.313 . S
C109 C110 1.338 . S
C109 N112 1.377 . S
C109 H129 0.930 . S
C110 N108 1.375 . S
C110 C109 1.338 . S
C110 H114 0.931 . S
C111 N108 1.313 . S
C111 N112 1.344 . S
C111 H115 0.930 . S
N112 C109 1.377 . S
N112 C111 1.344 . S
O113 Co105 2.055 . S
O113 C117 1.253 . S
H114 C110 0.931 . S
H115 C111 0.930 . S
O116 Co105 2.039 . S
O116 C106 1.265 . S
C117 O113 1.253 . S
C117 O118 1.227 . S
O118 C117 1.227 . S
N119 Co105 2.140 . S
N119 C122 1.346 . S
N119 C123 1.345 . S
C120 C121 1.387 . S
C120 C124 1.391 . S
C121 C120 1.387 . S
C121 C122 1.369 . S
C121 H130 0.929 . S
C122 N119 1.346 . S
C122 C121 1.369 . S
C122 H125 0.928 . S
C123 N119 1.345 . S
C123 C124 1.371 . S
C123 H126 0.931 . S
C124 C120 1.391 . S
C124 C123 1.371 . S
C124 H131 0.930 . S
H125 C122 0.928 . S
H126 C123 0.931 . S
H127 C103 0.930 . S
H128 C100 0.930 . S
H129 C109 0.930 . S
H130 C121 0.929 . S
H131 C124 0.930 . S
C132 C133 1.351 1_455 S
C132 N135 1.368 . S
C132 H137 0.931 . S
C133 C132 1.351 1_655 S
C133 N134 1.373 . S
C133 H161 0.930 . S
N134 C133 1.373 . S
N134 C136 1.340 . S
N135 C132 1.368 . S
N135 C136 1.321 1_455 S
N135 Co138 2.135 . S
C136 N134 1.340 . S
C136 N135 1.321 1_655 S
C136 H160 0.930 . S
H137 C132 0.931 . S
Co138 N135 2.135 . S
Co138 N141 2.121 . S
Co138 O146 2.055 . S
Co138 O149 2.039 . S
Co138 N152 2.140 . S
C139 O140 1.227 . S
C139 O149 1.265 . S
O140 C139 1.227 . S
N141 Co138 2.121 . S
N141 C143 1.375 . S
N141 C144 1.313 . S
C142 C143 1.338 . S
C142 N145 1.377 . S
C142 H162 0.930 . S
C143 N141 1.375 . S
C143 C142 1.338 . S
C143 H147 0.931 . S
C144 N141 1.313 . S
C144 N145 1.344 . S
C144 H148 0.930 . S
N145 C142 1.377 . S
N145 C144 1.344 . S
O146 Co138 2.055 . S
O146 C150 1.253 . S
H147 C143 0.931 . S
H148 C144 0.930 . S
O149 Co138 2.039 . S
O149 C139 1.265 . S
C150 O146 1.253 . S
C150 O151 1.227 . S
O151 C150 1.227 . S
N152 Co138 2.140 . S
N152 C155 1.346 . S
N152 C156 1.345 . S
C153 C154 1.387 . S
C153 C157 1.391 . S
C154 C153 1.387 . S
C154 C155 1.369 . S
C154 H163 0.929 1_455 S
C155 N152 1.346 . S
C155 C154 1.369 . S
C155 H158 0.928 . S
C156 N152 1.345 . S
C156 C157 1.371 . S
C156 H159 0.931 . S
C157 C153 1.391 . S
C157 C156 1.371 . S
C157 H164 0.930 . S
H158 C155 0.928 . S
H159 C156 0.931 . S
H160 C136 0.930 . S
H161 C133 0.930 . S
H162 C142 0.930 . S
H163 C154 0.929 1_655 S
H164 C157 0.930 . S
C165 C166 1.351 1_545 S
C165 N168 1.368 . S
C165 H170 0.931 . S
C166 C165 1.351 1_565 S
C166 N167 1.373 . S
C166 H194 0.930 . S
N167 C166 1.373 . S
N167 C169 1.340 . S
N168 C165 1.368 . S
N168 C169 1.321 1_545 S
N168 Co171 2.135 . S
C169 N167 1.340 . S
C169 N168 1.321 1_565 S
C169 H193 0.930 . S
H170 C165 0.931 . S
Co171 N168 2.135 . S
Co171 N174 2.121 . S
Co171 O179 2.055 . S
Co171 O182 2.039 . S
Co171 N185 2.140 . S
C172 O173 1.227 . S
C172 O182 1.265 . S
O173 C172 1.227 . S
N174 Co171 2.121 . S
N174 C176 1.375 . S
N174 C177 1.313 . S
C175 C176 1.338 . S
C175 N178 1.377 . S
C175 H195 0.930 . S
C176 N174 1.375 . S
C176 C175 1.338 . S
C176 H180 0.931 . S
C177 N174 1.313 . S
C177 N178 1.344 . S
C177 H181 0.930 . S
N178 C175 1.377 . S
N178 C177 1.344 . S
O179 Co171 2.055 . S
O179 C183 1.253 . S
H180 C176 0.931 . S
H181 C177 0.930 . S
O182 Co171 2.039 . S
O182 C172 1.265 . S
C183 O179 1.253 . S
C183 O184 1.227 . S
O184 C183 1.227 . S
N185 Co171 2.140 . S
N185 C188 1.346 . S
N185 C189 1.345 . S
C186 C187 1.387 . S
C186 C190 1.391 . S
C187 C186 1.387 . S
C187 C188 1.369 . S
C187 H196 0.929 1_545 S
C188 N185 1.346 . S
C188 C187 1.369 . S
C188 H191 0.928 . S
C189 N185 1.345 . S
C189 C190 1.371 . S
C189 H192 0.931 . S
C190 C186 1.391 . S
C190 C189 1.371 . S
C190 H197 0.930 . S
H191 C188 0.928 . S
H192 C189 0.931 . S
H193 C169 0.930 . S
H194 C166 0.930 . S
H195 C175 0.930 . S
H196 C187 0.929 1_565 S
H197 C190 0.930 . S
C198 C199 1.351 . S
C198 N201 1.368 . S
C198 H203 0.931 . S
C199 C198 1.351 . S
C199 N200 1.373 . S
C199 H227 0.930 . S
N200 C199 1.373 . S
N200 C202 1.340 . S
N201 C198 1.368 . S
N201 C202 1.321 . S
N201 Co204 2.135 . S
C202 N200 1.340 . S
C202 N201 1.321 . S
C202 H226 0.930 . S
H203 C198 0.931 . S
Co204 N201 2.135 . S
Co204 N207 2.121 . S
Co204 O212 2.055 . S
Co204 O215 2.039 . S
Co204 N218 2.140 . S
C205 O206 1.227 . S
C205 O215 1.265 . S
O206 C205 1.227 . S
N207 Co204 2.121 . S
N207 C209 1.375 . S
N207 C210 1.313 . S
C208 C209 1.338 . S
C208 N211 1.377 . S
C208 H228 0.930 . S
C209 N207 1.375 . S
C209 C208 1.338 . S
C209 H213 0.931 . S
C210 N207 1.313 . S
C210 N211 1.344 . S
C210 H214 0.930 . S
N211 C208 1.377 . S
N211 C210 1.344 . S
O212 Co204 2.055 . S
O212 C216 1.253 . S
H213 C209 0.931 . S
H214 C210 0.930 . S
O215 Co204 2.039 . S
O215 C205 1.265 . S
C216 O212 1.253 . S
C216 O217 1.227 . S
O217 C216 1.227 . S
N218 Co204 2.140 . S
N218 C221 1.346 . S
N218 C222 1.345 . S
C219 C220 1.387 . S
C219 C223 1.391 . S
C220 C219 1.387 . S
C220 C221 1.369 . S
C220 H229 0.929 . S
C221 N218 1.346 . S
C221 C220 1.369 . S
C221 H224 0.928 . S
C222 N218 1.345 . S
C222 C223 1.371 . S
C222 H225 0.931 . S
C223 C219 1.391 . S
C223 C222 1.371 . S
C223 H230 0.930 . S
H224 C221 0.928 . S
H225 C222 0.931 . S
H226 C202 0.930 . S
H227 C199 0.930 . S
H228 C208 0.930 . S
H229 C220 0.929 . S
H230 C223 0.930 . S
C231 C232 1.351 1_655 S
C231 N234 1.368 . S
C231 H236 0.931 . S
C232 C231 1.351 1_455 S
C232 N233 1.373 . S
C232 H260 0.930 . S
N233 C232 1.373 . S
N233 C235 1.340 . S
N234 C231 1.368 . S
N234 C235 1.321 1_655 S
N234 Co237 2.135 . S
C235 N233 1.340 . S
C235 N234 1.321 1_455 S
C235 H259 0.930 . S
H236 C231 0.931 . S
Co237 N234 2.135 . S
Co237 N240 2.121 . S
Co237 O245 2.055 . S
Co237 O248 2.039 1_556 S
Co237 N251 2.140 . S
C238 O239 1.227 . S
C238 O248 1.265 . S
O239 C238 1.227 . S
N240 Co237 2.121 . S
N240 C242 1.375 1_556 S
N240 C243 1.313 . S
C241 C242 1.338 . S
C241 N244 1.377 . S
C241 H261 0.930 . S
C242 N240 1.375 1_554 S
C242 C241 1.338 . S
C242 H246 0.931 . S
C243 N240 1.313 . S
C243 N244 1.344 1_556 S
C243 H247 0.930 . S
N244 C241 1.377 . S
N244 C243 1.344 1_554 S
O245 Co237 2.055 . S
O245 C249 1.253 . S
H246 C242 0.931 . S
H247 C243 0.930 . S
O248 Co237 2.039 1_554 S
O248 C238 1.265 . S
C249 O245 1.253 . S
C249 O250 1.227 . S
O250 C249 1.227 . S
N251 Co237 2.140 . S
N251 C254 1.346 . S
N251 C255 1.345 . S
C252 C253 1.387 . S
C252 C256 1.391 . S
C253 C252 1.387 . S
C253 C254 1.369 . S
C253 H262 0.929 1_655 S
C254 N251 1.346 . S
C254 C253 1.369 . S
C254 H257 0.928 . S
C255 N251 1.345 . S
C255 C256 1.371 . S
C255 H258 0.931 . S
C256 C252 1.391 . S
C256 C255 1.371 . S
C256 H263 0.930 . S
H257 C254 0.928 . S
H258 C255 0.931 . S
H259 C235 0.930 . S
H260 C232 0.930 . S
H261 C241 0.930 . S
H262 C253 0.929 1_455 S
H263 C256 0.930 . S
C264 C265 1.351 1_565 S
C264 N267 1.368 . S
C264 H269 0.931 . S
C265 C264 1.351 1_545 S
C265 N266 1.373 . S
C265 H293 0.930 . S
N266 C265 1.373 . S
N266 C268 1.340 . S
N267 C264 1.368 . S
N267 C268 1.321 1_565 S
N267 Co270 2.135 . S
C268 N266 1.340 . S
C268 N267 1.321 1_545 S
C268 H292 0.930 . S
H269 C264 0.931 . S
Co270 N267 2.135 . S
Co270 N273 2.121 . S
Co270 O278 2.055 . S
Co270 O281 2.039 . S
Co270 N284 2.140 . S
C271 O272 1.227 . S
C271 O281 1.265 . S
O272 C271 1.227 . S
N273 Co270 2.121 . S
N273 C275 1.375 . S
N273 C276 1.313 . S
C274 C275 1.338 . S
C274 N277 1.377 . S
C274 H294 0.930 . S
C275 N273 1.375 . S
C275 C274 1.338 . S
C275 H279 0.931 . S
C276 N273 1.313 . S
C276 N277 1.344 . S
C276 H280 0.930 . S
N277 C274 1.377 . S
N277 C276 1.344 . S
O278 Co270 2.055 . S
O278 C282 1.253 . S
H279 C275 0.931 . S
H280 C276 0.930 . S
O281 Co270 2.039 . S
O281 C271 1.265 . S
C282 O278 1.253 . S
C282 O283 1.227 . S
O283 C282 1.227 . S
N284 Co270 2.140 . S
N284 C287 1.346 . S
N284 C288 1.345 . S
C285 C286 1.387 . S
C285 C289 1.391 . S
C286 C285 1.387 . S
C286 C287 1.369 . S
C286 H295 0.929 1_565 S
C287 N284 1.346 . S
C287 C286 1.369 . S
C287 H290 0.928 . S
C288 N284 1.345 . S
C288 C289 1.371 . S
C288 H291 0.931 . S
C289 C285 1.391 . S
C289 C288 1.371 . S
C289 H296 0.930 . S
H290 C287 0.928 . S
H291 C288 0.931 . S
H292 C268 0.930 . S
H293 C265 0.930 . S
H294 C274 0.930 . S
H295 C286 0.929 1_545 S
H296 C289 0.930 . S
C297 C298 1.351 . S
C297 N300 1.368 . S
C297 H302 0.931 . S
C298 C297 1.351 . S
C298 N299 1.373 . S
C298 H326 0.930 . S
N299 C298 1.373 . S
N299 C301 1.340 . S
N300 C297 1.368 . S
N300 C301 1.321 . S
N300 Co303 2.135 . S
C301 N299 1.340 . S
C301 N300 1.321 . S
C301 H325 0.930 . S
H302 C297 0.931 . S
Co303 N300 2.135 . S
Co303 N306 2.121 . S
Co303 O311 2.055 . S
Co303 O314 2.039 . S
Co303 N317 2.140 . S
C304 O305 1.227 . S
C304 O314 1.265 . S
O305 C304 1.227 . S
N306 Co303 2.121 . S
N306 C308 1.375 . S
N306 C309 1.313 . S
C307 C308 1.338 . S
C307 N310 1.377 . S
C307 H327 0.930 . S
C308 N306 1.375 . S
C308 C307 1.338 . S
C308 H312 0.931 . S
C309 N306 1.313 . S
C309 N310 1.344 . S
C309 H313 0.930 . S
N310 C307 1.377 . S
N310 C309 1.344 . S
O311 Co303 2.055 . S
O311 C315 1.253 . S
H312 C308 0.931 . S
H313 C309 0.930 . S
O314 Co303 2.039 . S
O314 C304 1.265 . S
C315 O311 1.253 . S
C315 O316 1.227 . S
O316 C315 1.227 . S
N317 Co303 2.140 . S
N317 C320 1.346 . S
N317 C321 1.345 . S
C318 C319 1.387 . S
C318 C322 1.391 . S
C319 C318 1.387 . S
C319 C320 1.369 . S
C319 H328 0.929 . S
C320 N317 1.346 . S
C320 C319 1.369 . S
C320 H323 0.928 . S
C321 N317 1.345 . S
C321 C322 1.371 . S
C321 H324 0.931 . S
C322 C318 1.391 . S
C322 C321 1.371 . S
C322 H329 0.930 . S
H323 C320 0.928 . S
H324 C321 0.931 . S
H325 C301 0.930 . S
H326 C298 0.930 . S
H327 C307 0.930 . S
H328 C319 0.929 . S
H329 C322 0.930 . S
C330 C331 1.351 1_455 S
C330 N333 1.368 . S
C330 H335 0.931 . S
C331 C330 1.351 1_655 S
C331 N332 1.373 . S
C331 H359 0.930 . S
N332 C331 1.373 . S
N332 C334 1.340 . S
N333 C330 1.368 . S
N333 C334 1.321 1_455 S
N333 Co336 2.135 . S
C334 N332 1.340 . S
C334 N333 1.321 1_655 S
C334 H358 0.930 . S
H335 C330 0.931 . S
Co336 N333 2.135 . S
Co336 N339 2.121 . S
Co336 O344 2.055 . S
Co336 O347 2.039 . S
Co336 N350 2.140 . S
C337 O338 1.227 . S
C337 O347 1.265 . S
O338 C337 1.227 . S
N339 Co336 2.121 . S
N339 C341 1.375 . S
N339 C342 1.313 . S
C340 C341 1.338 . S
C340 N343 1.377 . S
C340 H360 0.930 . S
C341 N339 1.375 . S
C341 C340 1.338 . S
C341 H345 0.931 . S
C342 N339 1.313 . S
C342 N343 1.344 . S
C342 H346 0.930 . S
N343 C340 1.377 . S
N343 C342 1.344 . S
O344 Co336 2.055 . S
O344 C348 1.253 . S
H345 C341 0.931 . S
H346 C342 0.930 . S
O347 Co336 2.039 . S
O347 C337 1.265 . S
C348 O344 1.253 . S
C348 O349 1.227 . S
O349 C348 1.227 . S
N350 Co336 2.140 . S
N350 C353 1.346 . S
N350 C354 1.345 . S
C351 C352 1.387 . S
C351 C355 1.391 . S
C352 C351 1.387 . S
C352 C353 1.369 . S
C352 H361 0.929 1_455 S
C353 N350 1.346 . S
C353 C352 1.369 . S
C353 H356 0.928 . S
C354 N350 1.345 . S
C354 C355 1.371 . S
C354 H357 0.931 . S
C355 C351 1.391 . S
C355 C354 1.371 . S
C355 H362 0.930 . S
H356 C353 0.928 . S
H357 C354 0.931 . S
H358 C334 0.930 . S
H359 C331 0.930 . S
H360 C340 0.930 . S
H361 C352 0.929 1_655 S
H362 C355 0.930 . S
C363 C364 1.351 1_545 S
C363 N366 1.368 . S
C363 H368 0.931 . S
C364 C363 1.351 1_565 S
C364 N365 1.373 . S
C364 H392 0.930 . S
N365 C364 1.373 . S
N365 C367 1.340 . S
N366 C363 1.368 . S
N366 C367 1.321 1_545 S
N366 Co369 2.135 . S
C367 N365 1.340 . S
C367 N366 1.321 1_565 S
C367 H391 0.930 . S
H368 C363 0.931 . S
Co369 N366 2.135 . S
Co369 N372 2.121 . S
Co369 O377 2.055 . S
Co369 O380 2.039 . S
Co369 N383 2.140 . S
C370 O371 1.227 . S
C370 O380 1.265 . S
O371 C370 1.227 . S
N372 Co369 2.121 . S
N372 C374 1.375 . S
N372 C375 1.313 . S
C373 C374 1.338 . S
C373 N376 1.377 . S
C373 H393 0.930 . S
C374 N372 1.375 . S
C374 C373 1.338 . S
C374 H378 0.931 . S
C375 N372 1.313 . S
C375 N376 1.344 . S
C375 H379 0.930 . S
N376 C373 1.377 . S
N376 C375 1.344 . S
O377 Co369 2.055 . S
O377 C381 1.253 . S
H378 C374 0.931 . S
H379 C375 0.930 . S
O380 Co369 2.039 . S
O380 C370 1.265 . S
C381 O377 1.253 . S
C381 O382 1.227 . S
O382 C381 1.227 . S
N383 Co369 2.140 . S
N383 C386 1.346 . S
N383 C387 1.345 . S
C384 C385 1.387 . S
C384 C388 1.391 . S
C385 C384 1.387 . S
C385 C386 1.369 . S
C385 H394 0.929 1_545 S
C386 N383 1.346 . S
C386 C385 1.369 . S
C386 H389 0.928 . S
C387 N383 1.345 . S
C387 C388 1.371 . S
C387 H390 0.931 . S
C388 C384 1.391 . S
C388 C387 1.371 . S
C388 H395 0.930 . S
H389 C386 0.928 . S
H390 C387 0.931 . S
H391 C367 0.930 . S
H392 C364 0.930 . S
H393 C373 0.930 . S
H394 C385 0.929 1_565 S
H395 C388 0.930 . S
C396 C397 1.391 . S
C396 C398 1.394 . S
C396 H412 0.931 . S
C397 C396 1.391 . S
C397 C401 1.376 . S
C398 C396 1.394 . S
C398 C399 1.369 . S
C398 C402 1.531 . S
C399 C398 1.369 . S
C399 C400 1.410 . S
C399 C407 1.503 . S
C400 C399 1.410 . S
C400 C401 1.392 . S
C400 C403 1.511 . S
C401 C397 1.376 . S
C401 C400 1.392 . S
C401 H413 0.929 . S
C402 C398 1.531 . S
C402 H414 0.960 . S
C402 H415 0.962 . S
C402 H416 0.960 . S
C403 C400 1.511 . S
C403 H417 0.961 . S
C403 H418 0.961 . S
C403 H419 0.961 . S
C404 C405 1.370 . S
C404 C406 1.363 . S
C404 H420 0.931 . S
C405 C404 1.370 . S
C405 C409 1.408 . S
C406 C404 1.363 . S
C406 C407 1.370 . S
C406 C410 1.524 . S
C407 C399 1.503 . S
C407 C406 1.370 . S
C407 C408 1.403 . S
C408 C407 1.403 . S
C408 C409 1.404 . S
C408 C411 1.539 . S
C409 C405 1.408 . S
C409 C408 1.404 . S
C409 H421 0.930 . S
C410 C406 1.524 . S
C410 H422 0.956 . S
C410 H423 0.961 . S
C410 H424 0.961 . S
C411 C408 1.539 . S
C411 H425 0.958 . S
C411 H426 0.961 1_545 S
C411 H427 0.960 . S
H412 C396 0.931 . S
H413 C401 0.929 . S
H414 C402 0.960 . S
H415 C402 0.962 . S
H416 C402 0.960 . S
H417 C403 0.961 . S
H418 C403 0.961 . S
H419 C403 0.961 . S
H420 C404 0.931 . S
H421 C409 0.930 . S
H422 C410 0.956 . S
H423 C410 0.961 . S
H424 C410 0.961 . S
H425 C411 0.958 . S
H426 C411 0.961 1_565 S
H427 C411 0.960 . S
C428 C429 1.391 . S
C428 C430 1.394 . S
C428 H444 0.931 . S
C429 C428 1.391 . S
C429 C433 1.376 . S
C430 C428 1.394 . S
C430 C431 1.369 . S
C430 C434 1.531 . S
C431 C430 1.369 . S
C431 C432 1.410 . S
C431 C439 1.503 . S
C432 C431 1.410 . S
C432 C433 1.392 . S
C432 C435 1.511 . S
C433 C429 1.376 . S
C433 C432 1.392 . S
C433 H445 0.929 . S
C434 C430 1.531 . S
C434 H446 0.960 . S
C434 H447 0.962 . S
C434 H448 0.960 . S
C435 C432 1.511 . S
C435 H449 0.961 . S
C435 H450 0.961 . S
C435 H451 0.961 . S
C436 C437 1.370 . S
C436 C438 1.363 . S
C436 H452 0.931 . S
C437 C436 1.370 . S
C437 C441 1.408 . S
C438 C436 1.363 . S
C438 C439 1.370 . S
C438 C442 1.524 . S
C439 C431 1.503 . S
C439 C438 1.370 . S
C439 C440 1.403 . S
C440 C439 1.403 . S
C440 C441 1.404 . S
C440 C443 1.539 . S
C441 C437 1.408 . S
C441 C440 1.404 . S
C441 H453 0.930 . S
C442 C438 1.524 . S
C442 H454 0.956 . S
C442 H455 0.961 . S
C442 H456 0.961 . S
C443 C440 1.539 . S
C443 H457 0.958 . S
C443 H458 0.961 . S
C443 H459 0.960 . S
H444 C428 0.931 . S
H445 C433 0.929 . S
H446 C434 0.960 . S
H447 C434 0.962 . S
H448 C434 0.960 . S
H449 C435 0.961 . S
H450 C435 0.961 . S
H451 C435 0.961 . S
H452 C436 0.931 . S
H453 C441 0.930 . S
H454 C442 0.956 . S
H455 C442 0.961 . S
H456 C442 0.961 . S
H457 C443 0.958 . S
H458 C443 0.961 . S
H459 C443 0.960 . S
C460 C461 1.391 . S
C460 C462 1.394 . S
C460 H476 0.931 . S
C461 C460 1.391 . S
C461 C465 1.376 . S
C462 C460 1.394 . S
C462 C463 1.369 . S
C462 C466 1.531 . S
C463 C462 1.369 . S
C463 C464 1.410 . S
C463 C471 1.503 . S
C464 C463 1.410 . S
C464 C465 1.392 . S
C464 C467 1.511 . S
C465 C461 1.376 . S
C465 C464 1.392 . S
C465 H477 0.929 . S
C466 C462 1.531 . S
C466 H478 0.960 . S
C466 H479 0.962 . S
C466 H480 0.960 . S
C467 C464 1.511 . S
C467 H481 0.961 . S
C467 H482 0.961 . S
C467 H483 0.961 . S
C468 C469 1.370 . S
C468 C470 1.363 . S
C468 H484 0.931 . S
C469 C468 1.370 . S
C469 C473 1.408 . S
C470 C468 1.363 . S
C470 C471 1.370 . S
C470 C474 1.524 . S
C471 C463 1.503 . S
C471 C470 1.370 . S
C471 C472 1.403 . S
C472 C471 1.403 . S
C472 C473 1.404 . S
C472 C475 1.539 . S
C473 C469 1.408 . S
C473 C472 1.404 . S
C473 H485 0.930 . S
C474 C470 1.524 . S
C474 H486 0.956 . S
C474 H487 0.961 . S
C474 H488 0.961 . S
C475 C472 1.539 . S
C475 H489 0.958 . S
C475 H490 0.961 . S
C475 H491 0.960 . S
H476 C460 0.931 . S
H477 C465 0.929 . S
H478 C466 0.960 . S
H479 C466 0.962 . S
H480 C466 0.960 . S
H481 C467 0.961 . S
H482 C467 0.961 . S
H483 C467 0.961 . S
H484 C468 0.931 . S
H485 C473 0.930 . S
H486 C474 0.956 . S
H487 C474 0.961 . S
H488 C474 0.961 . S
H489 C475 0.958 . S
H490 C475 0.961 . S
H491 C475 0.960 . S
C492 C493 1.391 . S
C492 C494 1.394 . S
C492 H508 0.931 . S
C493 C492 1.391 . S
C493 C497 1.376 . S
C494 C492 1.394 . S
C494 C495 1.369 . S
C494 C498 1.531 . S
C495 C494 1.369 . S
C495 C496 1.410 . S
C495 C503 1.503 . S
C496 C495 1.410 . S
C496 C497 1.392 . S
C496 C499 1.511 . S
C497 C493 1.376 . S
C497 C496 1.392 . S
C497 H509 0.929 . S
C498 C494 1.531 . S
C498 H510 0.960 . S
C498 H511 0.962 . S
C498 H512 0.960 . S
C499 C496 1.511 . S
C499 H513 0.961 . S
C499 H514 0.961 . S
C499 H515 0.961 . S
C500 C501 1.370 . S
C500 C502 1.363 . S
C500 H516 0.931 . S
C501 C500 1.370 . S
C501 C505 1.408 . S
C502 C500 1.363 . S
C502 C503 1.370 . S
C502 C506 1.524 . S
C503 C495 1.503 . S
C503 C502 1.370 . S
C503 C504 1.403 . S
C504 C503 1.403 . S
C504 C505 1.404 . S
C504 C507 1.539 . S
C505 C501 1.408 . S
C505 C504 1.404 . S
C505 H517 0.930 . S
C506 C502 1.524 . S
C506 H518 0.956 . S
C506 H519 0.961 . S
C506 H520 0.961 . S
C507 C504 1.539 . S
C507 H521 0.958 . S
C507 H522 0.961 . S
C507 H523 0.960 . S
H508 C492 0.931 . S
H509 C497 0.929 . S
H510 C498 0.960 . S
H511 C498 0.962 . S
H512 C498 0.960 . S
H513 C499 0.961 . S
H514 C499 0.961 . S
H515 C499 0.961 . S
H516 C500 0.931 . S
H517 C505 0.930 . S
H518 C506 0.956 . S
H519 C506 0.961 . S
H520 C506 0.961 . S
H521 C507 0.958 . S
H522 C507 0.961 . S
H523 C507 0.960 . S
C524 C525 1.391 . S
C524 C526 1.394 . S
C524 H540 0.931 . S
C525 C524 1.391 . S
C525 C529 1.376 . S
C526 C524 1.394 . S
C526 C527 1.369 . S
C526 C530 1.531 . S
C527 C526 1.369 . S
C527 C528 1.410 . S
C527 C535 1.503 . S
C528 C527 1.410 . S
C528 C529 1.392 . S
C528 C531 1.511 . S
C529 C525 1.376 . S
C529 C528 1.392 . S
C529 H541 0.929 . S
C530 C526 1.531 . S
C530 H542 0.960 . S
C530 H543 0.962 . S
C530 H544 0.960 . S
C531 C528 1.511 . S
C531 H545 0.961 . S
C531 H546 0.961 . S
C531 H547 0.961 . S
C532 C533 1.370 . S
C532 C534 1.363 . S
C532 H548 0.931 . S
C533 C532 1.370 . S
C533 C537 1.408 . S
C534 C532 1.363 . S
C534 C535 1.370 . S
C534 C538 1.524 . S
C535 C527 1.503 . S
C535 C534 1.370 . S
C535 C536 1.403 . S
C536 C535 1.403 . S
C536 C537 1.404 . S
C536 C539 1.539 . S
C537 C533 1.408 . S
C537 C536 1.404 . S
C537 H549 0.930 . S
C538 C534 1.524 . S
C538 H550 0.956 . S
C538 H551 0.961 . S
C538 H552 0.961 . S
C539 C536 1.539 . S
C539 H553 0.958 . S
C539 H554 0.961 . S
C539 H555 0.960 . S
H540 C524 0.931 . S
H541 C529 0.929 . S
H542 C530 0.960 . S
H543 C530 0.962 . S
H544 C530 0.960 . S
H545 C531 0.961 . S
H546 C531 0.961 . S
H547 C531 0.961 . S
H548 C532 0.931 . S
H549 C537 0.930 . S
H550 C538 0.956 . S
H551 C538 0.961 . S
H552 C538 0.961 . S
H553 C539 0.958 . S
H554 C539 0.961 . S
H555 C539 0.960 . S
C556 C557 1.391 . S
C556 C558 1.394 . S
C556 H572 0.931 . S
C557 C556 1.391 . S
C557 C561 1.376 . S
C558 C556 1.394 . S
C558 C559 1.369 . S
C558 C562 1.531 . S
C559 C558 1.369 . S
C559 C560 1.410 . S
C559 C567 1.503 . S
C560 C559 1.410 . S
C560 C561 1.392 . S
C560 C563 1.511 . S
C561 C557 1.376 . S
C561 C560 1.392 . S
C561 H573 0.929 . S
C562 C558 1.531 . S
C562 H574 0.960 . S
C562 H575 0.962 . S
C562 H576 0.960 . S
C563 C560 1.511 . S
C563 H577 0.961 . S
C563 H578 0.961 . S
C563 H579 0.961 . S
C564 C565 1.370 . S
C564 C566 1.363 . S
C564 H580 0.931 . S
C565 C564 1.370 . S
C565 C569 1.408 . S
C566 C564 1.363 . S
C566 C567 1.370 . S
C566 C570 1.524 . S
C567 C559 1.503 . S
C567 C566 1.370 . S
C567 C568 1.403 . S
C568 C567 1.403 . S
C568 C569 1.404 . S
C568 C571 1.539 . S
C569 C565 1.408 . S
C569 C568 1.404 . S
C569 H581 0.930 . S
C570 C566 1.524 . S
C570 H582 0.956 . S
C570 H583 0.961 . S
C570 H584 0.961 . S
C571 C568 1.539 . S
C571 H585 0.958 . S
C571 H586 0.961 . S
C571 H587 0.960 . S
H572 C556 0.931 . S
H573 C561 0.929 . S
H574 C562 0.960 . S
H575 C562 0.962 . S
H576 C562 0.960 . S
H577 C563 0.961 . S
H578 C563 0.961 . S
H579 C563 0.961 . S
H580 C564 0.931 . S
H581 C569 0.930 . S
H582 C570 0.956 . S
H583 C570 0.961 . S
H584 C570 0.961 . S
H585 C571 0.958 . S
H586 C571 0.961 . S
H587 C571 0.960 . S
C588 C589 1.391 1_556 S
C588 C590 1.394 . S
C588 H604 0.931 . S
C589 C588 1.391 1_554 S
C589 C593 1.376 . S
C590 C588 1.394 . S
C590 C591 1.369 1_556 S
C590 C594 1.531 . S
C591 C590 1.369 1_554 S
C591 C592 1.410 . S
C591 C599 1.503 . S
C592 C591 1.410 . S
C592 C593 1.392 . S
C592 C595 1.511 . S
C593 C589 1.376 . S
C593 C592 1.392 . S
C593 H605 0.929 . S
C594 C590 1.531 . S
C594 H606 0.960 . S
C594 H607 0.962 . S
C594 H608 0.960 . S
C595 C592 1.511 . S
C595 H609 0.961 . S
C595 H610 0.961 . S
C595 H611 0.961 . S
C596 C597 1.370 . S
C596 C598 1.363 . S
C596 H612 0.931 . S
C597 C596 1.370 . S
C597 C601 1.408 . S
C598 C596 1.363 . S
C598 C599 1.370 . S
C598 C602 1.524 . S
C599 C591 1.503 . S
C599 C598 1.370 . S
C599 C600 1.408 . S
C600 C599 1.408 . S
C600 C601 1.405 . S
C600 C603 1.534 1_554 S
C601 C597 1.408 . S
C601 C600 1.405 . S
C601 H613 0.930 1_554 S
C602 C598 1.524 . S
C602 H614 0.956 . S
C602 H615 0.961 . S
C602 H616 0.961 . S
C603 C600 1.534 1_556 S
C603 H617 0.958 . S
C603 H618 0.961 . S
C603 H619 0.960 . S
H604 C588 0.931 . S
H605 C593 0.929 . S
H606 C594 0.960 . S
H607 C594 0.962 . S
H608 C594 0.960 . S
H609 C595 0.961 . S
H610 C595 0.961 . S
H611 C595 0.961 . S
H612 C596 0.931 . S
H613 C601 0.930 1_556 S
H614 C602 0.956 . S
H615 C602 0.961 . S
H616 C602 0.961 . S
H617 C603 0.958 . S
H618 C603 0.961 . S
H619 C603 0.960 . S
C620 C621 1.391 1_455 S
C620 C622 1.394 . S
C620 H636 0.931 1_455 S
C621 C620 1.391 1_655 S
C621 C625 1.376 1_655 S
C622 C620 1.394 . S
C622 C623 1.369 . S
C622 C626 1.531 . S
C623 C622 1.369 . S
C623 C624 1.410 . S
C623 C631 1.503 . S
C624 C623 1.410 . S
C624 C625 1.392 . S
C624 C627 1.511 . S
C625 C621 1.376 1_455 S
C625 C624 1.392 . S
C625 H637 0.929 1_455 S
C626 C622 1.531 . S
C626 H638 0.960 . S
C626 H639 0.962 . S
C626 H640 0.960 . S
C627 C624 1.511 . S
C627 H641 0.961 . S
C627 H642 0.961 . S
C627 H643 0.961 . S
C628 C629 1.370 . S
C628 C630 1.363 . S
C628 H644 0.931 . S
C629 C628 1.370 . S
C629 C633 1.408 . S
C630 C628 1.363 . S
C630 C631 1.370 . S
C630 C634 1.524 . S
C631 C623 1.503 . S
C631 C630 1.370 . S
C631 C632 1.403 . S
C632 C631 1.403 . S
C632 C633 1.404 . S
C632 C635 1.539 . S
C633 C629 1.408 . S
C633 C632 1.404 . S
C633 H645 0.930 . S
C634 C630 1.524 . S
C634 H646 0.956 1_455 S
C634 H647 0.961 1_455 S
C634 H648 0.961 1_455 S
C635 C632 1.539 . S
C635 H649 0.958 . S
C635 H650 0.961 . S
C635 H651 0.960 . S
H636 C620 0.931 1_655 S
H637 C625 0.929 1_655 S
H638 C626 0.960 . S
H639 C626 0.962 . S
H640 C626 0.960 . S
H641 C627 0.961 . S
H642 C627 0.961 . S
H643 C627 0.961 . S
H644 C628 0.931 . S
H645 C633 0.930 . S
H646 C634 0.956 1_655 S
H647 C634 0.961 1_655 S
H648 C634 0.961 1_655 S
H649 C635 0.958 . S
H650 C635 0.961 . S
H651 C635 0.960 . S
C652 C653 1.391 . S
C652 C654 1.394 . S
C652 H668 0.931 . S
C653 C652 1.391 . S
C653 C657 1.376 . S
C654 C652 1.394 . S
C654 C655 1.369 . S
C654 C658 1.531 . S
C655 C654 1.369 . S
C655 C656 1.410 . S
C655 C663 1.503 . S
C656 C655 1.410 . S
C656 C657 1.392 . S
C656 C659 1.511 . S
C657 C653 1.376 . S
C657 C656 1.392 . S
C657 H669 0.929 . S
C658 C654 1.531 . S
C658 H670 0.960 . S
C658 H671 0.962 . S
C658 H672 0.960 . S
C659 C656 1.511 . S
C659 H673 0.961 1_545 S
C659 H674 0.961 1_545 S
C659 H675 0.961 1_545 S
C660 C661 1.370 1_545 S
C660 C662 1.363 . S
C660 H676 0.931 . S
C661 C660 1.370 1_565 S
C661 C665 1.408 . S
C662 C660 1.363 . S
C662 C663 1.370 . S
C662 C666 1.524 . S
C663 C655 1.503 . S
C663 C662 1.370 . S
C663 C664 1.403 . S
C664 C663 1.403 . S
C664 C665 1.404 1_545 S
C664 C667 1.539 . S
C665 C661 1.408 . S
C665 C664 1.404 1_565 S
C665 H677 0.930 . S
C666 C662 1.524 . S
C666 H678 0.956 . S
C666 H679 0.961 . S
C666 H680 0.961 . S
C667 C664 1.539 . S
C667 H681 0.958 . S
C667 H682 0.961 1_545 S
C667 H683 0.960 . S
H668 C652 0.931 . S
H669 C657 0.929 . S
H670 C658 0.960 . S
H671 C658 0.962 . S
H672 C658 0.960 . S
H673 C659 0.961 1_565 S
H674 C659 0.961 1_565 S
H675 C659 0.961 1_565 S
H676 C660 0.931 . S
H677 C665 0.930 . S
H678 C666 0.956 . S
H679 C666 0.961 . S
H680 C666 0.961 . S
H681 C667 0.958 . S
H682 C667 0.961 1_565 S
H683 C667 0.960 . S
C684 C685 1.391 . S
C684 C686 1.394 . S
C684 H700 0.931 . S
C685 C684 1.391 . S
C685 C689 1.376 . S
C686 C684 1.394 . S
C686 C687 1.369 . S
C686 C690 1.531 . S
C687 C686 1.369 . S
C687 C688 1.410 . S
C687 C695 1.503 . S
C688 C687 1.410 . S
C688 C689 1.392 . S
C688 C691 1.511 . S
C689 C685 1.376 . S
C689 C688 1.392 . S
C689 H701 0.929 . S
C690 C686 1.531 . S
C690 H702 0.960 . S
C690 H703 0.962 . S
C690 H704 0.960 . S
C691 C688 1.511 . S
C691 H705 0.961 . S
C691 H706 0.961 . S
C691 H707 0.961 . S
C692 C693 1.370 . S
C692 C694 1.363 . S
C692 H708 0.931 . S
C693 C692 1.370 . S
C693 C697 1.408 . S
C694 C692 1.363 . S
C694 C695 1.370 . S
C694 C698 1.524 . S
C695 C687 1.503 . S
C695 C694 1.370 . S
C695 C696 1.403 . S
C696 C695 1.403 . S
C696 C697 1.404 . S
C696 C699 1.539 . S
C697 C693 1.408 . S
C697 C696 1.404 . S
C697 H709 0.930 . S
C698 C694 1.524 . S
C698 H710 0.956 . S
C698 H711 0.961 . S
C698 H712 0.961 . S
C699 C696 1.539 . S
C699 H713 0.958 . S
C699 H714 0.961 . S
C699 H715 0.960 . S
H700 C684 0.931 . S
H701 C689 0.929 . S
H702 C690 0.960 . S
H703 C690 0.962 . S
H704 C690 0.960 . S
H705 C691 0.961 . S
H706 C691 0.961 . S
H707 C691 0.961 . S
H708 C692 0.931 . S
H709 C697 0.930 . S
H710 C698 0.956 . S
H711 C698 0.961 . S
H712 C698 0.961 . S
H713 C699 0.958 . S
H714 C699 0.961 . S
H715 C699 0.960 . S
C716 C717 1.391 . S
C716 C718 1.394 . S
C716 H732 0.931 . S
C717 C716 1.391 . S
C717 C721 1.376 . S
C718 C716 1.394 . S
C718 C719 1.369 . S
C718 C722 1.531 . S
C719 C718 1.369 . S
C719 C720 1.410 . S
C719 C727 1.503 . S
C720 C719 1.410 . S
C720 C721 1.392 . S
C720 C723 1.511 . S
C721 C717 1.376 . S
C721 C720 1.392 . S
C721 H733 0.929 . S
C722 C718 1.531 . S
C722 H734 0.960 . S
C722 H735 0.962 . S
C722 H736 0.960 . S
C723 C720 1.511 . S
C723 H737 0.961 . S
C723 H738 0.961 . S
C723 H739 0.961 . S
C724 C725 1.370 . S
C724 C726 1.363 1_455 S
C724 H740 0.931 . S
C725 C724 1.370 . S
C725 C729 1.408 1_455 S
C726 C724 1.363 1_655 S
C726 C727 1.370 . S
C726 C730 1.524 1_655 S
C727 C719 1.503 . S
C727 C726 1.370 . S
C727 C728 1.403 . S
C728 C727 1.403 . S
C728 C729 1.404 . S
C728 C731 1.539 . S
C729 C725 1.408 1_655 S
C729 C728 1.404 . S
C729 H741 0.930 . S
C730 C726 1.524 1_455 S
C730 H742 0.956 . S
C730 H743 0.961 1_455 S
C730 H744 0.961 . S
C731 C728 1.539 . S
C731 H745 0.958 . S
C731 H746 0.961 . S
C731 H747 0.960 . S
H732 C716 0.931 . S
H733 C721 0.929 . S
H734 C722 0.960 . S
H735 C722 0.962 . S
H736 C722 0.960 . S
H737 C723 0.961 . S
H738 C723 0.961 . S
H739 C723 0.961 . S
H740 C724 0.931 . S
H741 C729 0.930 . S
H742 C730 0.956 . S
H743 C730 0.961 1_655 S
H744 C730 0.961 . S
H745 C731 0.958 . S
H746 C731 0.961 . S
H747 C731 0.960 . S
C748 C749 1.391 . S
C748 C750 1.394 . S
C748 H764 0.931 . S
C749 C748 1.391 . S
C749 C753 1.376 . S
C750 C748 1.394 . S
C750 C751 1.369 . S
C750 C754 1.531 . S
C751 C750 1.369 . S
C751 C752 1.410 . S
C751 C759 1.503 . S
C752 C751 1.410 . S
C752 C753 1.392 . S
C752 C755 1.511 . S
C753 C749 1.376 . S
C753 C752 1.392 . S
C753 H765 0.929 . S
C754 C750 1.531 . S
C754 H766 0.960 1_565 S
C754 H767 0.962 . S
C754 H768 0.960 1_565 S
C755 C752 1.511 . S
C755 H769 0.961 . S
C755 H770 0.961 . S
C755 H771 0.961 . S
C756 C757 1.370 1_565 S
C756 C758 1.363 . S
C756 H772 0.931 . S
C757 C756 1.370 1_545 S
C757 C761 1.408 . S
C758 C756 1.363 . S
C758 C759 1.370 . S
C758 C762 1.524 . S
C759 C751 1.503 . S
C759 C758 1.370 . S
C759 C760 1.403 . S
C760 C759 1.403 . S
C760 C761 1.404 1_565 S
C760 C763 1.539 . S
C761 C757 1.408 . S
C761 C760 1.404 1_545 S
C761 H773 0.930 . S
C762 C758 1.524 . S
C762 H774 0.956 . S
C762 H775 0.961 . S
C762 H776 0.961 . S
C763 C760 1.539 . S
C763 H777 0.958 1_565 S
C763 H778 0.961 . S
C763 H779 0.960 . S
H764 C748 0.931 . S
H765 C753 0.929 . S
H766 C754 0.960 1_545 S
H767 C754 0.962 . S
H768 C754 0.960 1_545 S
H769 C755 0.961 . S
H770 C755 0.961 . S
H771 C755 0.961 . S
H772 C756 0.931 . S
H773 C761 0.930 . S
H774 C762 0.956 . S
H775 C762 0.961 . S
H776 C762 0.961 . S
H777 C763 0.958 1_545 S
H778 C763 0.961 . S
H779 C763 0.960 . S
C780 C781 1.391 . S
C780 C782 1.394 . S
C780 H796 0.931 . S
C781 C780 1.391 . S
C781 C785 1.376 . S
C782 C780 1.394 . S
C782 C783 1.369 . S
C782 C786 1.531 . S
C783 C782 1.369 . S
C783 C784 1.410 . S
C783 C791 1.503 . S
C784 C783 1.410 . S
C784 C785 1.392 . S
C784 C787 1.511 . S
C785 C781 1.376 . S
C785 C784 1.392 . S
C785 H797 0.929 . S
C786 C782 1.531 . S
C786 H798 0.960 . S
C786 H799 0.962 . S
C786 H800 0.960 . S
C787 C784 1.511 . S
C787 H801 0.961 . S
C787 H802 0.961 . S
C787 H803 0.961 . S
C788 C789 1.370 . S
C788 C790 1.363 . S
C788 H804 0.931 . S
C789 C788 1.370 . S
C789 C793 1.408 . S
C790 C788 1.363 . S
C790 C791 1.370 . S
C790 C794 1.524 . S
C791 C783 1.503 . S
C791 C790 1.370 . S
C791 C792 1.403 . S
C792 C791 1.403 . S
C792 C793 1.404 . S
C792 C795 1.539 . S
C793 C789 1.408 . S
C793 C792 1.404 . S
C793 H805 0.930 . S
C794 C790 1.524 . S
C794 H806 0.956 . S
C794 H807 0.961 . S
C794 H808 0.961 . S
C795 C792 1.539 . S
C795 H809 0.958 . S
C795 H810 0.961 . S
C795 H811 0.960 . S
H796 C780 0.931 . S
H797 C785 0.929 . S
H798 C786 0.960 . S
H799 C786 0.962 . S
H800 C786 0.960 . S
H801 C787 0.961 . S
H802 C787 0.961 . S
H803 C787 0.961 . S
H804 C788 0.931 . S
H805 C793 0.930 . S
H806 C794 0.956 . S
H807 C794 0.961 . S
H808 C794 0.961 . S
H809 C795 0.958 . S
H810 C795 0.961 . S
H811 C795 0.960 . S
C812 C813 1.391 . S
C812 C814 1.394 1_655 S
C812 H828 0.931 . S
C813 C812 1.391 . S
C813 C817 1.376 1_655 S
C814 C812 1.394 1_455 S
C814 C815 1.369 . S
C814 C818 1.531 1_455 S
C815 C814 1.369 . S
C815 C816 1.410 . S
C815 C823 1.503 . S
C816 C815 1.410 . S
C816 C817 1.392 . S
C816 C819 1.511 . S
C817 C813 1.376 1_455 S
C817 C816 1.392 . S
C817 H829 0.929 . S
C818 C814 1.531 1_655 S
C818 H830 0.960 1_655 S
C818 H831 0.962 . S
C818 H832 0.960 . S
C819 C816 1.511 . S
C819 H833 0.923 1_556 S
C819 H834 0.961 . S
C819 H835 0.961 . S
C820 C821 1.370 . S
C820 C822 1.363 . S
C820 H836 0.931 1_556 S
C821 C820 1.370 . S
C821 C825 1.408 . S
C822 C820 1.363 . S
C822 C823 1.370 . S
C822 C826 1.524 1_556 S
C823 C815 1.503 . S
C823 C822 1.370 . S
C823 C824 1.403 . S
C824 C823 1.403 . S
C824 C825 1.404 . S
C824 C827 1.539 . S
C825 C821 1.408 . S
C825 C824 1.404 . S
C825 H837 0.930 . S
C826 C822 1.524 1_554 S
C826 H838 0.956 . S
C826 H839 0.961 . S
C826 H840 0.961 . S
C827 C824 1.539 . S
C827 H841 0.958 . S
C827 H842 0.961 . S
C827 H843 0.960 . S
H828 C812 0.931 . S
H829 C817 0.929 . S
H830 C818 0.960 1_455 S
H831 C818 0.962 . S
H832 C818 0.960 . S
H833 C819 0.923 1_554 S
H834 C819 0.961 . S
H835 C819 0.961 . S
H836 C820 0.931 1_554 S
H837 C825 0.930 . S
H838 C826 0.956 . S
H839 C826 0.961 . S
H840 C826 0.961 . S
H841 C827 0.958 . S
H842 C827 0.961 . S
H843 C827 0.960 . S
C844 C845 1.391 1_545 S
C844 C846 1.394 . S
C844 H860 0.931 . S
C845 C844 1.391 1_565 S
C845 C849 1.376 . S
C846 C844 1.394 . S
C846 C847 1.369 . S
C846 C850 1.531 . S
C847 C846 1.369 . S
C847 C848 1.410 . S
C847 C855 1.503 . S
C848 C847 1.410 . S
C848 C849 1.392 1_545 S
C848 C851 1.511 . S
C849 C845 1.376 . S
C849 C848 1.392 1_565 S
C849 H861 0.929 . S
C850 C846 1.531 . S
C850 H862 0.960 . S
C850 H863 0.962 . S
C850 H864 0.960 . S
C851 C848 1.511 . S
C851 H865 0.961 1_545 S
C851 H866 0.961 . S
C851 H867 0.961 1_545 S
C852 C853 1.370 . S
C852 C854 1.363 . S
C852 H868 0.931 . S
C853 C852 1.370 . S
C853 C857 1.408 . S
C854 C852 1.363 . S
C854 C855 1.370 . S
C854 C858 1.524 . S
C855 C847 1.503 . S
C855 C854 1.370 . S
C855 C856 1.403 . S
C856 C855 1.403 . S
C856 C857 1.404 . S
C856 C859 1.539 . S
C857 C853 1.408 . S
C857 C856 1.404 . S
C857 H869 0.930 . S
C858 C854 1.524 . S
C858 H870 0.956 . S
C858 H871 0.961 . S
C858 H872 0.961 . S
C859 C856 1.539 . S
C859 H873 0.958 . S
C859 H874 0.961 1_545 S
C859 H875 0.960 1_545 S
H860 C844 0.931 . S
H861 C849 0.929 . S
H862 C850 0.960 . S
H863 C850 0.962 . S
H864 C850 0.960 . S
H865 C851 0.961 1_565 S
H866 C851 0.961 . S
H867 C851 0.961 1_565 S
H868 C852 0.931 . S
H869 C857 0.930 . S
H870 C858 0.956 . S
H871 C858 0.961 . S
H872 C858 0.961 . S
H873 C859 0.958 . S
H874 C859 0.961 1_565 S
H875 C859 0.960 1_565 S
C876 C877 1.391 . S
C876 C878 1.394 . S
C876 H892 0.931 . S
C877 C876 1.391 . S
C877 C881 1.376 . S
C878 C876 1.394 . S
C878 C879 1.369 . S
C878 C882 1.531 . S
C879 C878 1.369 . S
C879 C880 1.410 . S
C879 C887 1.503 . S
C880 C879 1.410 . S
C880 C881 1.392 . S
C880 C883 1.511 . S
C881 C877 1.376 . S
C881 C880 1.392 . S
C881 H893 0.929 . S
C882 C878 1.531 . S
C882 H894 0.960 . S
C882 H895 0.962 . S
C882 H896 0.960 . S
C883 C880 1.511 . S
C883 H897 0.961 . S
C883 H898 0.961 . S
C883 H899 0.961 . S
C884 C885 1.370 . S
C884 C886 1.363 . S
C884 H900 0.931 . S
C885 C884 1.370 . S
C885 C889 1.408 . S
C886 C884 1.363 . S
C886 C887 1.370 . S
C886 C890 1.524 . S
C887 C879 1.503 . S
C887 C886 1.370 . S
C887 C888 1.403 . S
C888 C887 1.403 . S
C888 C889 1.404 . S
C888 C891 1.539 . S
C889 C885 1.408 . S
C889 C888 1.404 . S
C889 H901 0.930 . S
C890 C886 1.524 . S
C890 H902 0.956 . S
C890 H903 0.961 . S
C890 H904 0.961 . S
C891 C888 1.539 . S
C891 H905 0.958 . S
C891 H906 0.961 . S
C891 H907 0.960 . S
H892 C876 0.931 . S
H893 C881 0.929 . S
H894 C882 0.960 . S
H895 C882 0.962 . S
H896 C882 0.960 . S
H897 C883 0.961 . S
H898 C883 0.961 . S
H899 C883 0.961 . S
H900 C884 0.931 . S
H901 C889 0.930 . S
H902 C890 0.956 . S
H903 C890 0.961 . S
H904 C890 0.961 . S
H905 C891 0.958 . S
H906 C891 0.961 . S
H907 C891 0.960 . S
C908 C909 1.391 . S
C908 C910 1.394 . S
C908 H924 0.931 . S
C909 C908 1.391 . S
C909 C913 1.376 . S
C910 C908 1.394 . S
C910 C911 1.369 . S
C910 C914 1.531 . S
C911 C910 1.369 . S
C911 C912 1.410 . S
C911 C919 1.503 . S
C912 C911 1.410 . S
C912 C913 1.392 . S
C912 C915 1.511 . S
C913 C909 1.376 . S
C913 C912 1.392 . S
C913 H925 0.929 . S
C914 C910 1.531 . S
C914 H926 0.960 . S
C914 H927 0.962 . S
C914 H928 0.960 . S
C915 C912 1.511 . S
C915 H929 0.961 . S
C915 H930 0.961 . S
C915 H931 0.961 . S
C916 C917 1.370 1_655 S
C916 C918 1.363 . S
C916 H932 0.931 . S
C917 C916 1.370 1_455 S
C917 C921 1.408 . S
C918 C916 1.363 . S
C918 C919 1.370 . S
C918 C922 1.524 . S
C919 C911 1.503 . S
C919 C918 1.370 . S
C919 C920 1.403 1_655 S
C920 C919 1.403 1_455 S
C920 C921 1.404 . S
C920 C923 1.539 . S
C921 C917 1.408 . S
C921 C920 1.404 . S
C921 H933 0.930 . S
C922 C918 1.524 . S
C922 H934 0.956 . S
C922 H935 0.961 . S
C922 H936 0.961 . S
C923 C920 1.539 . S
C923 H937 0.958 . S
C923 H938 0.961 . S
C923 H939 0.960 . S
H924 C908 0.931 . S
H925 C913 0.929 . S
H926 C914 0.960 . S
H927 C914 0.962 . S
H928 C914 0.960 . S
H929 C915 0.961 . S
H930 C915 0.961 . S
H931 C915 0.961 . S
H932 C916 0.931 . S
H933 C921 0.930 . S
H934 C922 0.956 . S
H935 C922 0.961 . S
H936 C922 0.961 . S
H937 C923 0.958 . S
H938 C923 0.961 . S
H939 C923 0.960 . S
C940 C941 1.391 . S
C940 C942 1.394 . S
C940 H956 0.931 . S
C941 C940 1.391 . S
C941 C945 1.376 . S
C942 C940 1.394 . S
C942 C943 1.369 . S
C942 C946 1.531 . S
C943 C942 1.369 . S
C943 C944 1.410 . S
C943 C951 1.503 . S
C944 C943 1.410 . S
C944 C945 1.392 . S
C944 C947 1.511 . S
C945 C941 1.376 . S
C945 C944 1.392 . S
C945 H957 0.929 . S
C946 C942 1.531 . S
C946 H958 0.960 . S
C946 H959 0.962 . S
C946 H960 0.960 . S
C947 C944 1.511 . S
C947 H961 0.961 . S
C947 H962 0.961 1_565 S
C947 H963 0.961 . S
C948 C949 1.370 . S
C948 C950 1.363 1_545 S
C948 H964 0.931 . S
C949 C948 1.370 . S
C949 C953 1.408 1_545 S
C950 C948 1.363 1_565 S
C950 C951 1.370 . S
C950 C954 1.524 . S
C951 C943 1.503 . S
C951 C950 1.370 . S
C951 C952 1.403 . S
C952 C951 1.403 . S
C952 C953 1.404 . S
C952 C955 1.539 . S
C953 C949 1.408 1_565 S
C953 C952 1.404 . S
C953 H965 0.930 . S
C954 C950 1.524 . S
C954 H966 0.956 . S
C954 H967 0.961 . S
C954 H968 0.961 1_565 S
C955 C952 1.539 . S
C955 H969 0.958 . S
C955 H970 0.961 . S
C955 H971 0.960 . S
H956 C940 0.931 . S
H957 C945 0.929 . S
H958 C946 0.960 . S
H959 C946 0.962 . S
H960 C946 0.960 . S
H961 C947 0.961 . S
H962 C947 0.961 1_545 S
H963 C947 0.961 . S
H964 C948 0.931 . S
H965 C953 0.930 . S
H966 C954 0.956 . S
H967 C954 0.961 . S
H968 C954 0.961 1_545 S
H969 C955 0.958 . S
H970 C955 0.961 . S
H971 C955 0.960 . S
C972 C973 1.391 . S
C972 C974 1.394 . S
C972 H988 0.931 . S
C973 C972 1.391 . S
C973 C977 1.376 . S
C974 C972 1.394 . S
C974 C975 1.369 . S
C974 C978 1.531 . S
C975 C974 1.369 . S
C975 C976 1.410 . S
C975 C983 1.503 . S
C976 C975 1.410 . S
C976 C977 1.392 . S
C976 C979 1.511 . S
C977 C973 1.376 . S
C977 C976 1.392 . S
C977 H989 0.929 . S
C978 C974 1.531 . S
C978 H990 0.960 . S
C978 H991 0.962 . S
C978 H992 0.960 . S
C979 C976 1.511 . S
C979 H993 0.961 . S
C979 H994 0.961 . S
C979 H995 0.961 . S
C980 C981 1.370 . S
C980 C982 1.363 . S
C980 H996 0.931 . S
C981 C980 1.370 . S
C981 C985 1.408 . S
C982 C980 1.363 . S
C982 C983 1.370 . S
C982 C986 1.524 . S
C983 C975 1.503 . S
C983 C982 1.370 . S
C983 C984 1.403 . S
C984 C983 1.403 . S
C984 C985 1.404 . S
C984 C987 1.539 . S
C985 C981 1.408 . S
C985 C984 1.404 . S
C985 H997 0.930 . S
C986 C982 1.524 . S
C986 H998 0.956 . S
C986 H999 0.961 . S
C986 H1000 0.961 . S
C987 C984 1.539 . S
C987 H1001 0.958 . S
C987 H1002 0.961 . S
C987 H1003 0.960 . S
H988 C972 0.931 . S
H989 C977 0.929 . S
H990 C978 0.960 . S
H991 C978 0.962 . S
H992 C978 0.960 . S
H993 C979 0.961 . S
H994 C979 0.961 . S
H995 C979 0.961 . S
H996 C980 0.931 . S
H997 C985 0.930 . S
H998 C986 0.956 . S
H999 C986 0.961 . S
H1000 C986 0.961 . S
H1001 C987 0.958 . S
H1002 C987 0.961 . S
H1003 C987 0.960 . S
C1004 C1005 1.391 . S
C1004 C1006 1.394 . S
C1004 H1020 0.931 . S
C1005 C1004 1.391 . S
C1005 C1009 1.376 . S
C1006 C1004 1.394 . S
C1006 C1007 1.369 . S
C1006 C1010 1.531 . S
C1007 C1006 1.369 . S
C1007 C1008 1.410 . S
C1007 C1015 1.503 . S
C1008 C1007 1.410 . S
C1008 C1009 1.392 . S
C1008 C1011 1.511 . S
C1009 C1005 1.376 . S
C1009 C1008 1.392 . S
C1009 H1021 0.929 . S
C1010 C1006 1.531 . S
C1010 H1022 0.960 . S
C1010 H1023 0.962 . S
C1010 H1024 0.960 . S
C1011 C1008 1.511 . S
C1011 H1025 0.961 . S
C1011 H1026 0.961 . S
C1011 H1027 0.961 1_455 S
C1012 C1013 1.370 1_455 S
C1012 C1014 1.363 . S
C1012 H1028 0.931 . S
C1013 C1012 1.370 1_655 S
C1013 C1017 1.408 . S
C1014 C1012 1.363 . S
C1014 C1015 1.370 . S
C1014 C1018 1.524 . S
C1015 C1007 1.503 . S
C1015 C1014 1.370 . S
C1015 C1016 1.403 1_455 S
C1016 C1015 1.403 1_655 S
C1016 C1017 1.404 . S
C1016 C1019 1.539 . S
C1017 C1013 1.408 . S
C1017 C1016 1.404 . S
C1017 H1029 0.930 . S
C1018 C1014 1.524 . S
C1018 H1030 0.956 . S
C1018 H1031 0.961 . S
C1018 H1032 0.961 . S
C1019 C1016 1.539 . S
C1019 H1033 0.958 . S
C1019 H1034 0.961 . S
C1019 H1035 0.960 . S
H1020 C1004 0.931 . S
H1021 C1009 0.929 . S
H1022 C1010 0.960 . S
H1023 C1010 0.962 . S
H1024 C1010 0.960 . S
H1025 C1011 0.961 . S
H1026 C1011 0.961 . S
H1027 C1011 0.961 1_655 S
H1028 C1012 0.931 . S
H1029 C1017 0.930 . S
H1030 C1018 0.956 . S
H1031 C1018 0.961 . S
H1032 C1018 0.961 . S
H1033 C1019 0.958 . S
H1034 C1019 0.961 . S
H1035 C1019 0.960 . S
C1036 C1037 1.391 . S
C1036 C1038 1.394 1_565 S
C1036 H1052 0.931 . S
C1037 C1036 1.391 . S
C1037 C1041 1.376 . S
C1038 C1036 1.394 1_545 S
C1038 C1039 1.369 . S
C1038 C1042 1.531 . S
C1039 C1038 1.369 . S
C1039 C1040 1.410 . S
C1039 C1047 1.503 . S
C1040 C1039 1.410 . S
C1040 C1041 1.392 1_545 S
C1040 C1043 1.511 . S
C1041 C1037 1.376 . S
C1041 C1040 1.392 1_565 S
C1041 H1053 0.929 . S
C1042 C1038 1.531 . S
C1042 H1054 0.960 . S
C1042 H1055 0.962 . S
C1042 H1056 0.960 . S
C1043 C1040 1.511 . S
C1043 H1057 0.979 . S
C1043 H1058 0.961 . S
C1043 H1059 0.961 . S
C1044 C1045 1.370 . S
C1044 C1046 1.363 . S
C1044 H1060 0.931 . S
C1045 C1044 1.370 . S
C1045 C1049 1.408 . S
C1046 C1044 1.363 . S
C1046 C1047 1.370 . S
C1046 C1050 1.525 . S
C1047 C1039 1.503 . S
C1047 C1046 1.370 . S
C1047 C1048 1.403 . S
C1048 C1047 1.403 . S
C1048 C1049 1.404 . S
C1048 C1051 1.539 . S
C1049 C1045 1.408 . S
C1049 C1048 1.404 . S
C1049 H1061 0.930 . S
C1050 C1046 1.525 . S
C1050 H1062 0.956 1_545 S
C1050 H1063 0.960 1_545 S
C1050 H1064 0.960 1_545 S
C1051 C1048 1.539 . S
C1051 H1065 0.958 . S
C1051 H1066 0.961 . S
C1051 H1067 0.960 . S
H1052 C1036 0.931 . S
H1053 C1041 0.929 . S
H1054 C1042 0.960 . S
H1055 C1042 0.962 . S
H1056 C1042 0.960 . S
H1057 C1043 0.979 . S
H1058 C1043 0.961 . S
H1059 C1043 0.961 . S
H1060 C1044 0.931 . S
H1061 C1049 0.930 . S
H1062 C1050 0.956 1_565 S
H1063 C1050 0.960 1_565 S
H1064 C1050 0.960 1_565 S
H1065 C1051 0.958 . S
H1066 C1051 0.961 . S
H1067 C1051 0.960 . S
C1068 C1069 1.391 . S
C1068 C1070 1.394 . S
C1068 H1084 0.931 . S
C1069 C1068 1.391 . S
C1069 C1073 1.376 . S
C1070 C1068 1.394 . S
C1070 C1071 1.369 . S
C1070 C1074 1.531 . S
C1071 C1070 1.369 . S
C1071 C1072 1.410 . S
C1071 C1079 1.503 . S
C1072 C1071 1.410 . S
C1072 C1073 1.392 . S
C1072 C1075 1.511 . S
C1073 C1069 1.376 . S
C1073 C1072 1.392 . S
C1073 H1085 0.929 . S
C1074 C1070 1.531 . S
C1074 H1086 0.960 . S
C1074 H1087 0.962 . S
C1074 H1088 0.960 . S
C1075 C1072 1.511 . S
C1075 H1089 0.961 . S
C1075 H1090 0.961 . S
C1075 H1091 0.961 . S
C1076 C1077 1.370 . S
C1076 C1078 1.363 . S
C1076 H1092 0.931 . S
C1077 C1076 1.370 . S
C1077 C1081 1.408 . S
C1078 C1076 1.363 . S
C1078 C1079 1.370 . S
C1078 C1082 1.524 . S
C1079 C1071 1.503 . S
C1079 C1078 1.370 . S
C1079 C1080 1.403 . S
C1080 C1079 1.403 . S
C1080 C1081 1.404 . S
C1080 C1083 1.539 . S
C1081 C1077 1.408 . S
C1081 C1080 1.404 . S
C1081 H1093 0.930 . S
C1082 C1078 1.524 . S
C1082 H1094 0.956 . S
C1082 H1095 0.961 . S
C1082 H1096 0.961 . S
C1083 C1080 1.539 . S
C1083 H1097 0.958 . S
C1083 H1098 0.961 . S
C1083 H1099 0.960 . S
H1084 C1068 0.931 . S
H1085 C1073 0.929 . S
H1086 C1074 0.960 . S
H1087 C1074 0.962 . S
H1088 C1074 0.960 . S
H1089 C1075 0.961 . S
H1090 C1075 0.961 . S
H1091 C1075 0.961 . S
H1092 C1076 0.931 . S
H1093 C1081 0.930 . S
H1094 C1082 0.956 . S
H1095 C1082 0.961 . S
H1096 C1082 0.961 . S
H1097 C1083 0.958 . S
H1098 C1083 0.961 . S
H1099 C1083 0.960 . S
C1100 C1101 1.391 . S
C1100 C1102 1.394 . S
C1100 H1116 0.931 . S
C1101 C1100 1.391 . S
C1101 C1105 1.376 . S
C1102 C1100 1.394 . S
C1102 C1103 1.369 . S
C1102 C1106 1.531 . S
C1103 C1102 1.369 . S
C1103 C1104 1.410 . S
C1103 C1111 1.503 . S
C1104 C1103 1.410 . S
C1104 C1105 1.392 . S
C1104 C1107 1.511 . S
C1105 C1101 1.376 . S
C1105 C1104 1.392 . S
C1105 H1117 0.929 . S
C1106 C1102 1.531 . S
C1106 H1118 0.960 . S
C1106 H1119 0.962 . S
C1106 H1120 0.960 . S
C1107 C1104 1.511 . S
C1107 H1121 0.961 . S
C1107 H1122 0.961 . S
C1107 H1123 0.961 . S
C1108 C1109 1.370 . S
C1108 C1110 1.363 . S
C1108 H1124 0.931 . S
C1109 C1108 1.370 . S
C1109 C1113 1.408 1_455 S
C1110 C1108 1.363 . S
C1110 C1111 1.370 1_455 S
C1110 C1114 1.524 . S
C1111 C1103 1.503 . S
C1111 C1110 1.370 1_655 S
C1111 C1112 1.403 . S
C1112 C1111 1.403 . S
C1112 C1113 1.404 . S
C1112 C1115 1.539 . S
C1113 C1109 1.408 1_655 S
C1113 C1112 1.404 . S
C1113 H1125 0.930 . S
C1114 C1110 1.524 . S
C1114 H1126 0.956 . S
C1114 H1127 0.961 . S
C1114 H1128 0.961 . S
C1115 C1112 1.539 . S
C1115 H1129 0.958 . S
C1115 H1130 0.961 . S
C1115 H1131 0.960 . S
H1116 C1100 0.931 . S
H1117 C1105 0.929 . S
H1118 C1106 0.960 . S
H1119 C1106 0.962 . S
H1120 C1106 0.960 . S
H1121 C1107 0.961 . S
H1122 C1107 0.961 . S
H1123 C1107 0.961 . S
H1124 C1108 0.931 . S
H1125 C1113 0.930 . S
H1126 C1114 0.956 . S
H1127 C1114 0.961 . S
H1128 C1114 0.961 . S
H1129 C1115 0.958 . S
H1130 C1115 0.961 . S
H1131 C1115 0.960 . S
C1132 C1133 1.391 . S
C1132 C1134 1.394 . S
C1132 H1148 0.931 . S
C1133 C1132 1.391 . S
C1133 C1137 1.376 . S
C1134 C1132 1.394 . S
C1134 C1135 1.369 . S
C1134 C1138 1.508 1_565 S
C1135 C1134 1.369 . S
C1135 C1136 1.410 . S
C1135 C1143 1.503 . S
C1136 C1135 1.410 . S
C1136 C1137 1.392 . S
C1136 C1139 1.511 . S
C1137 C1133 1.376 . S
C1137 C1136 1.392 . S
C1137 H1149 0.929 . S
C1138 C1134 1.508 1_545 S
C1138 H1150 0.974 . S
C1138 H1151 0.963 . S
C1138 H1152 0.969 . S
C1139 C1136 1.511 . S
C1139 H1153 0.961 . S
C1139 H1154 0.961 . S
C1139 H1155 0.961 . S
C1140 C1141 1.370 . S
C1140 C1142 1.363 1_545 S
C1140 H1156 0.931 . S
C1141 C1140 1.370 . S
C1141 C1145 1.408 . S
C1142 C1140 1.363 1_565 S
C1142 C1143 1.370 . S
C1142 C1146 1.524 . S
C1143 C1135 1.503 . S
C1143 C1142 1.370 . S
C1143 C1144 1.403 . S
C1144 C1143 1.403 . S
C1144 C1145 1.404 1_565 S
C1144 C1147 1.539 . S
C1145 C1141 1.408 . S
C1145 C1144 1.404 1_545 S
C1145 H1157 0.930 . S
C1146 C1142 1.524 . S
C1146 H1158 0.956 . S
C1146 H1159 0.961 . S
C1146 H1160 0.961 . S
C1147 C1144 1.539 . S
C1147 H1161 0.958 . S
C1147 H1162 0.961 . S
C1147 H1163 0.960 . S
H1148 C1132 0.931 . S
H1149 C1137 0.929 . S
H1150 C1138 0.974 . S
H1151 C1138 0.963 . S
H1152 C1138 0.969 . S
H1153 C1139 0.961 . S
H1154 C1139 0.961 . S
H1155 C1139 0.961 . S
H1156 C1140 0.931 . S
H1157 C1145 0.930 . S
H1158 C1146 0.956 . S
H1159 C1146 0.961 . S
H1160 C1146 0.961 . S
H1161 C1147 0.958 . S
H1162 C1147 0.961 . S
H1163 C1147 0.960 . S
C1164 C1165 1.391 . S
C1164 C1166 1.394 . S
C1164 H1180 0.931 . S
C1165 C1164 1.391 . S
C1165 C1169 1.376 . S
C1166 C1164 1.394 . S
C1166 C1167 1.369 . S
C1166 C1170 1.531 . S
C1167 C1166 1.369 . S
C1167 C1168 1.410 . S
C1167 C1175 1.503 . S
C1168 C1167 1.410 . S
C1168 C1169 1.392 . S
C1168 C1171 1.511 . S
C1169 C1165 1.376 . S
C1169 C1168 1.392 . S
C1169 H1181 0.929 . S
C1170 C1166 1.531 . S
C1170 H1182 0.960 . S
C1170 H1183 0.962 . S
C1170 H1184 0.960 . S
C1171 C1168 1.511 . S
C1171 H1185 0.961 . S
C1171 H1186 0.961 . S
C1171 H1187 0.961 . S
C1172 C1173 1.370 . S
C1172 C1174 1.363 . S
C1172 H1188 0.931 . S
C1173 C1172 1.370 . S
C1173 C1177 1.408 . S
C1174 C1172 1.363 . S
C1174 C1175 1.370 . S
C1174 C1178 1.524 . S
C1175 C1167 1.503 . S
C1175 C1174 1.370 . S
C1175 C1176 1.403 . S
C1176 C1175 1.403 . S
C1176 C1177 1.404 . S
C1176 C1179 1.539 . S
C1177 C1173 1.408 . S
C1177 C1176 1.404 . S
C1177 H1189 0.930 . S
C1178 C1174 1.524 . S
C1178 H1190 0.956 . S
C1178 H1191 0.961 . S
C1178 H1192 0.961 . S
C1179 C1176 1.539 . S
C1179 H1193 0.958 . S
C1179 H1194 0.961 . S
C1179 H1195 0.960 . S
H1180 C1164 0.931 . S
H1181 C1169 0.929 . S
H1182 C1170 0.960 . S
H1183 C1170 0.962 . S
H1184 C1170 0.960 . S
H1185 C1171 0.961 . S
H1186 C1171 0.961 . S
H1187 C1171 0.961 . S
H1188 C1172 0.931 . S
H1189 C1177 0.930 . S
H1190 C1178 0.956 . S
H1191 C1178 0.961 . S
H1192 C1178 0.961 . S
H1193 C1179 0.958 . S
H1194 C1179 0.961 . S
H1195 C1179 0.960 . S
C1196 C1197 1.391 . S
C1196 C1198 1.394 . S
C1196 H1212 0.931 . S
C1197 C1196 1.391 . S
C1197 C1201 1.376 1_655 S
C1198 C1196 1.394 . S
C1198 C1199 1.369 1_655 S
C1198 C1202 1.531 . S
C1199 C1198 1.369 1_455 S
C1199 C1200 1.410 . S
C1199 C1207 1.503 . S
C1200 C1199 1.410 . S
C1200 C1201 1.392 . S
C1200 C1203 1.511 . S
C1201 C1197 1.376 1_455 S
C1201 C1200 1.392 . S
C1201 H1213 0.929 . S
C1202 C1198 1.531 . S
C1202 H1214 0.960 . S
C1202 H1215 0.962 . S
C1202 H1216 0.960 . S
C1203 C1200 1.511 . S
C1203 H1217 0.961 . S
C1203 H1218 0.961 . S
C1203 H1219 0.961 . S
C1204 C1205 1.370 . S
C1204 C1206 1.363 . S
C1204 H1220 0.931 . S
C1205 C1204 1.370 . S
C1205 C1209 1.408 . S
C1206 C1204 1.363 . S
C1206 C1207 1.370 . S
C1206 C1210 1.524 . S
C1207 C1199 1.503 . S
C1207 C1206 1.370 . S
C1207 C1208 1.403 . S
C1208 C1207 1.403 . S
C1208 C1209 1.404 . S
C1208 C1211 1.539 . S
C1209 C1205 1.408 . S
C1209 C1208 1.404 . S
C1209 H1221 0.930 . S
C1210 C1206 1.524 . S
C1210 H1222 0.956 . S
C1210 H1223 0.961 . S
C1210 H1224 0.961 . S
C1211 C1208 1.539 . S
C1211 H1225 0.958 1_455 S
C1211 H1226 0.961 . S
C1211 H1227 0.960 . S
H1212 C1196 0.931 . S
H1213 C1201 0.929 . S
H1214 C1202 0.960 . S
H1215 C1202 0.962 . S
H1216 C1202 0.960 . S
H1217 C1203 0.961 . S
H1218 C1203 0.961 . S
H1219 C1203 0.961 . S
H1220 C1204 0.931 . S
H1221 C1209 0.930 . S
H1222 C1210 0.956 . S
H1223 C1210 0.961 . S
H1224 C1210 0.961 . S
H1225 C1211 0.958 1_655 S
H1226 C1211 0.961 . S
H1227 C1211 0.960 . S
C1228 C1229 1.391 . S
C1228 C1230 1.394 . S
C1228 H1244 0.931 . S
C1229 C1228 1.391 . S
C1229 C1233 1.376 1_565 S
C1230 C1228 1.394 . S
C1230 C1231 1.369 1_565 S
C1230 C1234 1.531 . S
C1231 C1230 1.369 1_545 S
C1231 C1232 1.410 . S
C1231 C1239 1.503 . S
C1232 C1231 1.410 . S
C1232 C1233 1.392 . S
C1232 C1235 1.511 . S
C1233 C1229 1.376 1_545 S
C1233 C1232 1.392 . S
C1233 H1245 0.929 . S
C1234 C1230 1.531 . S
C1234 H1246 0.960 . S
C1234 H1247 0.962 . S
C1234 H1248 0.960 . S
C1235 C1232 1.511 . S
C1235 H1249 0.961 . S
C1235 H1250 0.961 . S
C1235 H1251 0.961 . S
C1236 C1237 1.370 . S
C1236 C1238 1.363 . S
C1236 H1252 0.931 . S
C1237 C1236 1.370 . S
C1237 C1241 1.408 . S
C1238 C1236 1.363 . S
C1238 C1239 1.370 . S
C1238 C1242 1.524 . S
C1239 C1231 1.503 . S
C1239 C1238 1.370 . S
C1239 C1240 1.403 . S
C1240 C1239 1.403 . S
C1240 C1241 1.404 . S
C1240 C1243 1.539 . S
C1241 C1237 1.408 . S
C1241 C1240 1.404 . S
C1241 H1253 0.930 . S
C1242 C1238 1.524 . S
C1242 H1254 0.956 . S
C1242 H1255 0.961 . S
C1242 H1256 0.961 . S
C1243 C1240 1.539 . S
C1243 H1257 0.958 1_545 S
C1243 H1258 0.961 . S
C1243 H1259 0.960 . S
H1244 C1228 0.931 . S
H1245 C1233 0.929 . S
H1246 C1234 0.960 . S
H1247 C1234 0.962 . S
H1248 C1234 0.960 . S
H1249 C1235 0.961 . S
H1250 C1235 0.961 . S
H1251 C1235 0.961 . S
H1252 C1236 0.931 . S
H1253 C1241 0.930 . S
H1254 C1242 0.956 . S
H1255 C1242 0.961 . S
H1256 C1242 0.961 . S
H1257 C1243 0.958 1_565 S
H1258 C1243 0.961 . S
H1259 C1243 0.960 . S
C1260 C1261 1.391 . S
C1260 C1262 1.394 . S
C1260 H1276 0.931 . S
C1261 C1260 1.391 . S
C1261 C1265 1.376 . S
C1262 C1260 1.394 . S
C1262 C1263 1.369 . S
C1262 C1266 1.531 . S
C1263 C1262 1.369 . S
C1263 C1264 1.410 . S
C1263 C1271 1.503 . S
C1264 C1263 1.410 . S
C1264 C1265 1.392 . S
C1264 C1267 1.511 . S
C1265 C1261 1.376 . S
C1265 C1264 1.392 . S
C1265 H1277 0.929 . S
C1266 C1262 1.531 . S
C1266 H1278 0.960 . S
C1266 H1279 0.962 . S
C1266 H1280 0.960 . S
C1267 C1264 1.511 . S
C1267 H1281 0.961 . S
C1267 H1282 0.961 . S
C1267 H1283 0.961 . S
C1268 C1269 1.370 . S
C1268 C1270 1.363 . S
C1268 H1284 0.931 . S
C1269 C1268 1.370 . S
C1269 C1273 1.408 . S
C1270 C1268 1.363 . S
C1270 C1271 1.370 . S
C1270 C1274 1.524 . S
C1271 C1263 1.503 . S
C1271 C1270 1.370 . S
C1271 C1272 1.403 . S
C1272 C1271 1.403 . S
C1272 C1273 1.404 . S
C1272 C1275 1.539 . S
C1273 C1269 1.408 . S
C1273 C1272 1.404 . S
C1273 H1285 0.930 . S
C1274 C1270 1.524 . S
C1274 H1286 0.956 . S
C1274 H1287 0.961 . S
C1274 H1288 0.961 . S
C1275 C1272 1.539 . S
C1275 H1289 0.958 . S
C1275 H1290 0.961 . S
C1275 H1291 0.960 . S
H1276 C1260 0.931 . S
H1277 C1265 0.929 . S
H1278 C1266 0.960 . S
H1279 C1266 0.962 . S
H1280 C1266 0.960 . S
H1281 C1267 0.961 . S
H1282 C1267 0.961 . S
H1283 C1267 0.961 . S
H1284 C1268 0.931 . S
H1285 C1273 0.930 . S
H1286 C1274 0.956 . S
H1287 C1274 0.961 . S
H1288 C1274 0.961 . S
H1289 C1275 0.958 . S
H1290 C1275 0.961 . S
H1291 C1275 0.960 . S
C1292 C1293 1.391 . S
C1292 C1294 1.394 . S
C1292 H1308 0.931 . S
C1293 C1292 1.391 . S
C1293 C1297 1.376 . S
C1294 C1292 1.394 . S
C1294 C1295 1.369 . S
C1294 C1298 1.531 . S
C1295 C1294 1.369 . S
C1295 C1296 1.410 . S
C1295 C1303 1.503 . S
C1296 C1295 1.410 . S
C1296 C1297 1.392 . S
C1296 C1299 1.511 . S
C1297 C1293 1.376 . S
C1297 C1296 1.392 . S
C1297 H1309 0.929 . S
C1298 C1294 1.531 . S
C1298 H1310 0.960 . S
C1298 H1311 0.962 . S
C1298 H1312 0.960 . S
C1299 C1296 1.511 . S
C1299 H1313 0.961 . S
C1299 H1314 0.961 . S
C1299 H1315 0.961 . S
C1300 C1301 1.370 1_655 S
C1300 C1302 1.363 . S
C1300 H1316 0.931 . S
C1301 C1300 1.370 1_455 S
C1301 C1305 1.408 . S
C1302 C1300 1.363 . S
C1302 C1303 1.370 . S
C1302 C1306 1.524 . S
C1303 C1295 1.503 . S
C1303 C1302 1.370 . S
C1303 C1304 1.403 1_655 S
C1304 C1303 1.403 1_455 S
C1304 C1305 1.404 . S
C1304 C1307 1.539 . S
C1305 C1301 1.408 . S
C1305 C1304 1.404 . S
C1305 H1317 0.930 . S
C1306 C1302 1.524 . S
C1306 H1318 0.956 . S
C1306 H1319 0.961 . S
C1306 H1320 0.961 . S
C1307 C1304 1.539 . S
C1307 H1321 0.958 . S
C1307 H1322 0.961 . S
C1307 H1323 0.960 . S
H1308 C1292 0.931 . S
H1309 C1297 0.929 . S
H1310 C1298 0.960 . S
H1311 C1298 0.962 . S
H1312 C1298 0.960 . S
H1313 C1299 0.961 . S
H1314 C1299 0.961 . S
H1315 C1299 0.961 . S
H1316 C1300 0.931 . S
H1317 C1305 0.930 . S
H1318 C1306 0.956 . S
H1319 C1306 0.961 . S
H1320 C1306 0.961 . S
H1321 C1307 0.958 . S
H1322 C1307 0.961 . S
H1323 C1307 0.960 . S
C1324 C1325 1.391 . S
C1324 C1326 1.394 1_545 S
C1324 H1340 0.931 . S
C1325 C1324 1.391 . S
C1325 C1329 1.376 . S
C1326 C1324 1.394 1_565 S
C1326 C1327 1.369 . S
C1326 C1330 1.531 . S
C1327 C1326 1.369 . S
C1327 C1328 1.410 . S
C1327 C1335 1.503 . S
C1328 C1327 1.410 . S
C1328 C1329 1.392 1_565 S
C1328 C1331 1.511 . S
C1329 C1325 1.376 . S
C1329 C1328 1.392 1_545 S
C1329 H1341 0.929 . S
C1330 C1326 1.531 . S
C1330 H1342 0.960 . S
C1330 H1343 0.962 . S
C1330 H1344 0.960 . S
C1331 C1328 1.511 . S
C1331 H1345 0.961 . S
C1331 H1346 0.961 . S
C1331 H1347 0.961 . S
C1332 C1333 1.370 . S
C1332 C1334 1.363 . S
C1332 H1348 0.931 . S
C1333 C1332 1.370 . S
C1333 C1337 1.408 . S
C1334 C1332 1.363 . S
C1334 C1335 1.370 . S
C1334 C1338 1.524 1_565 S
C1335 C1327 1.503 . S
C1335 C1334 1.370 . S
C1335 C1336 1.403 . S
C1336 C1335 1.403 . S
C1336 C1337 1.404 . S
C1336 C1339 1.539 . S
C1337 C1333 1.408 . S
C1337 C1336 1.404 . S
C1337 H1349 0.930 . S
C1338 C1334 1.524 1_545 S
C1338 H1350 0.956 . S
C1338 H1351 0.961 . S
C1338 H1352 0.961 . S
C1339 C1336 1.539 . S
C1339 H1353 0.958 . S
C1339 H1354 0.961 . S
C1339 H1355 0.960 . S
H1340 C1324 0.931 . S
H1341 C1329 0.929 . S
H1342 C1330 0.960 . S
H1343 C1330 0.962 . S
H1344 C1330 0.960 . S
H1345 C1331 0.961 . S
H1346 C1331 0.961 . S
H1347 C1331 0.961 . S
H1348 C1332 0.931 . S
H1349 C1337 0.930 . S
H1350 C1338 0.956 . S
H1351 C1338 0.961 . S
H1352 C1338 0.961 . S
H1353 C1339 0.958 . S
H1354 C1339 0.961 . S
H1355 C1339 0.960 . S
C397 N2 0.738 . S
C405 N266 0.636 . S
C429 N299 0.632 . S
C437 N35 0.663 . S
C461 N332 0.797 . S
C469 N68 0.649 . S
C493 N101 0.579 . S
C501 N365 0.726 . S
C525 N134 0.630 . S
C533 N200 0.733 . S
C557 N167 0.576 . S
C565 N233 0.695 . S
C589 N244 1.869 . S
C597 C21 1.835 . S
C621 C54 1.821 . S
C629 N277 1.866 . S
C653 N310 1.847 . S
C661 C87 1.849 . S
C685 N343 1.868 . S
C693 C120 1.836 . S
C717 N376 1.869 . S
C725 C153 1.835 . S
C749 N211 1.857 . S
C757 C186 1.841 . S
C781 N178 1.845 . S
C789 C219 1.850 . S
C813 C252 1.836 . S
C821 N13 1.862 . S
C845 C285 1.851 . S
C853 N46 1.856 . S
C877 N79 1.859 . S
C885 C318 1.840 . S
C909 N112 1.845 . S
C917 C351 1.849 . S
C941 N145 1.858 . S
C949 C384 1.843 . S
C973 C183 1.049 . S
C981 C7 0.965 . S
C1005 C18 1.046 . S
C1013 C40 0.975 . S
C1037 C73 0.956 . S
C1045 C51 1.017 . S
C1069 C84 1.040 . S
C1077 C106 0.983 . S
C1101 C117 1.015 . S
C1109 C139 0.959 . S
C1133 C150 0.994 . S
C1141 C172 0.991 . S
C1165 C205 0.958 . S
C1173 C249 1.017 . S
C1197 C238 0.955 . S
C1205 C282 1.035 . S
C1229 C271 0.962 . S
C1237 C315 1.035 . S
C1261 C348 1.036 . S
C1269 C304 0.950 . S
C1293 C381 1.033 . S
C1301 C337 0.990 . S
C1325 C370 0.940 . S
C1333 C216 1.020 . S
