# Generated by pormake.
# Topology crr, (4)-cn, num edge types: 1
# Building blocks:
#     Node 0, Type 0, BuildingBlock: ESEHIV_clean_sbu_0, # of connection points: 4
#     Node 1, Type 0, BuildingBlock: ESEHIV_clean_sbu_0, # of connection points: 4
#     Node 2, Type 0, BuildingBlock: ESEHIV_clean_sbu_0, # of connection points: 4
#     Node 3, Type 0, BuildingBlock: ESEHIV_clean_sbu_0, # of connection points: 4
#     Node 4, Type 0, BuildingBlock: ESEHIV_clean_sbu_0, # of connection points: 4
#     Node 5, Type 0, BuildingBlock: ESEHIV_clean_sbu_0, # of connection points: 4
#     Node 6, Type 0, BuildingBlock: ESEHIV_clean_sbu_0, # of connection points: 4
#     Node 7, Type 0, BuildingBlock: ESEHIV_clean_sbu_0, # of connection points: 4
#     Node 8, Type 0, BuildingBlock: ESEHIV_clean_sbu_0, # of connection points: 4
#     Node 9, Type 0, BuildingBlock: ESEHIV_clean_sbu_0, # of connection points: 4
#     Node 10, Type 0, BuildingBlock: ESEHIV_clean_sbu_0, # of connection points: 4
#     Node 11, Type 0, BuildingBlock: ESEHIV_clean_sbu_0, # of connection points: 4
#     Edge 12, Type (0, 0), BuildingBlock: EZIPEK_clean_linker_0, # of connection points: 2
#     Edge 13, Type (0, 0), BuildingBlock: EZIPEK_clean_linker_0, # of connection points: 2
#     Edge 14, Type (0, 0), BuildingBlock: EZIPEK_clean_linker_0, # of connection points: 2
#     Edge 15, Type (0, 0), BuildingBlock: EZIPEK_clean_linker_0, # of connection points: 2
#     Edge 16, Type (0, 0), BuildingBlock: EZIPEK_clean_linker_0, # of connection points: 2
#     Edge 17, Type (0, 0), BuildingBlock: EZIPEK_clean_linker_0, # of connection points: 2
#     Edge 18, Type (0, 0), BuildingBlock: EZIPEK_clean_linker_0, # of connection points: 2
#     Edge 19, Type (0, 0), BuildingBlock: EZIPEK_clean_linker_0, # of connection points: 2
#     Edge 20, Type (0, 0), BuildingBlock: EZIPEK_clean_linker_0, # of connection points: 2
#     Edge 21, Type (0, 0), BuildingBlock: EZIPEK_clean_linker_0, # of connection points: 2
#     Edge 22, Type (0, 0), BuildingBlock: EZIPEK_clean_linker_0, # of connection points: 2
#     Edge 23, Type (0, 0), BuildingBlock: EZIPEK_clean_linker_0, # of connection points: 2
#     Edge 24, Type (0, 0), BuildingBlock: EZIPEK_clean_linker_0, # of connection points: 2
#     Edge 25, Type (0, 0), BuildingBlock: EZIPEK_clean_linker_0, # of connection points: 2
#     Edge 26, Type (0, 0), BuildingBlock: EZIPEK_clean_linker_0, # of connection points: 2
#     Edge 27, Type (0, 0), BuildingBlock: EZIPEK_clean_linker_0, # of connection points: 2
#     Edge 28, Type (0, 0), BuildingBlock: EZIPEK_clean_linker_0, # of connection points: 2
#     Edge 29, Type (0, 0), BuildingBlock: EZIPEK_clean_linker_0, # of connection points: 2
#     Edge 30, Type (0, 0), BuildingBlock: EZIPEK_clean_linker_0, # of connection points: 2
#     Edge 31, Type (0, 0), BuildingBlock: EZIPEK_clean_linker_0, # of connection points: 2
#     Edge 32, Type (0, 0), BuildingBlock: EZIPEK_clean_linker_0, # of connection points: 2
#     Edge 33, Type (0, 0), BuildingBlock: EZIPEK_clean_linker_0, # of connection points: 2
#     Edge 34, Type (0, 0), BuildingBlock: EZIPEK_clean_linker_0, # of connection points: 2
#     Edge 35, Type (0, 0), BuildingBlock: EZIPEK_clean_linker_0, # of connection points: 2
# Relax obj value: 0.035
# Max RMSD: 0.146
# Mean RMSD: 0.115
data_MOF--net-crr--node1-ESEHIV_clean_sbu_0--edge1-EZIPEK_clean_linker_0
_symmetry_space_group_name_H-M    P1
_symmetry_Int_Tables_number       1
_symmetry_cell_setting            triclinic
loop_
_symmetry_equiv_pos_as_xyz
'x, y, z'
_cell_length_a     31.669432
_cell_length_b     35.597646
_cell_length_c     31.2295
_cell_angle_alpha  91.433166
_cell_angle_beta   84.772284
_cell_angle_gamma 87.74805
loop_
_atom_site_label
_atom_site_type_symbol
_atom_site_fract_x
_atom_site_fract_y
_atom_site_fract_z
_atom_type_partial_charge
Cu0 Cu 0.14255 0.37449 0.42357 0.0
N1 N 0.09317 0.39217 0.40041 0.0
N2 N 0.0398 0.43375 0.39194 0.0
C3 C 0.06576 0.4188 0.41962 0.0
C4 C 0.05061 0.41519 0.35408 0.0
C5 C 0.08359 0.38959 0.35938 0.0
O6 O 0.1304 0.38586 0.48528 0.0
C7 C 0.22826 0.39739 0.39612 0.0
O8 O 0.24147 0.38264 0.43088 0.0
H9 H 0.06754 0.42962 0.45209 0.0
H10 H 0.10157 0.37261 0.33432 0.0
N11 N 0.153 0.32223 0.41456 0.0
N12 N 0.18828 0.26648 0.41515 0.0
C13 C 0.19111 0.30414 0.41572 0.0
C14 C 0.12514 0.29472 0.4123 0.0
C15 C 0.14672 0.26032 0.41336 0.0
C16 C 0.12677 0.35986 0.51263 0.0
O17 O 0.14623 0.32711 0.50344 0.0
H18 H 0.22042 0.31806 0.41827 0.0
H19 H 0.09133 0.29917 0.41104 0.0
O20 O 0.18869 0.39995 0.39154 0.0
H21 H 0.03771 0.42167 0.32406 0.0
H22 H 0.13308 0.23292 0.41275 0.0
Cu23 Cu 0.3735 0.86237 0.63291 0.0
N24 N 0.38286 0.81332 0.60956 0.0
N25 N 0.36541 0.75538 0.59039 0.0
C26 C 0.35461 0.78616 0.61565 0.0
C27 C 0.40184 0.76325 0.56724 0.0
C28 C 0.41245 0.79918 0.57899 0.0
O29 O 0.34603 0.85676 0.69155 0.0
C30 C 0.32411 0.92205 0.59575 0.0
O31 O 0.31237 0.93536 0.63481 0.0
H32 H 0.3253 0.78975 0.63632 0.0
H33 H 0.43828 0.81464 0.56411 0.0
N34 N 0.4228 0.88937 0.63551 0.0
N35 N 0.4597 0.94146 0.63667 0.0
C36 C 0.4217 0.92643 0.64558 0.0
C37 C 0.4633 0.88056 0.6204 0.0
C38 C 0.48619 0.91284 0.62099 0.0
C39 C 0.37083 0.84929 0.72062 0.0
O40 O 0.41197 0.85007 0.71065 0.0
H41 H 0.39309 0.94247 0.65714 0.0
H42 H 0.475 0.85321 0.60785 0.0
O43 O 0.34394 0.89023 0.59071 0.0
H44 H 0.41799 0.7453 0.5419 0.0
H45 H 0.51909 0.91549 0.60905 0.0
Cu46 Cu 0.90131 0.63759 0.37279 0.0
N47 N 0.88473 0.62728 0.31722 0.0
N48 N 0.83973 0.62241 0.26601 0.0
C49 C 0.84944 0.64173 0.30128 0.0
C50 C 0.86957 0.59433 0.25955 0.0
C51 C 0.89721 0.5974 0.29104 0.0
O52 O 0.86028 0.67511 0.40092 0.0
C53 C 0.94643 0.57195 0.38465 0.0
O54 O 0.97087 0.58827 0.35504 0.0
H55 H 0.82941 0.66439 0.31664 0.0
H56 H 0.92288 0.57757 0.29589 0.0
N57 N 0.95226 0.66175 0.37739 0.0
N58 N 1.00192 0.6857 0.41533 0.0
C59 C 0.96826 0.66382 0.41578 0.0
C60 C 0.97671 0.68331 0.3513 0.0
C61 C 1.00747 0.69833 0.37485 0.0
C62 C 0.86083 0.70626 0.38127 0.0
O63 O 0.88475 0.70811 0.34479 0.0
H64 H 0.9545 0.65033 0.44414 0.0
H65 H 0.97163 0.68883 0.31822 0.0
O66 O 0.91138 0.58876 0.3994 0.0
H67 H 0.87051 0.57257 0.23459 0.0
H68 H 0.03161 0.71731 0.3634 0.0
Cu69 Cu 0.61372 0.14974 0.65251 0.0
N70 N 0.63402 0.18806 0.61645 0.0
N71 N 0.67642 0.23488 0.59731 0.0
C72 C 0.67383 0.20061 0.61456 0.0
C73 C 0.63711 0.24391 0.58655 0.0
C74 C 0.61105 0.21493 0.59825 0.0
O75 O 0.60821 0.17128 0.71126 0.0
C76 C 0.65771 0.09357 0.60067 0.0
O77 O 0.6608 0.12048 0.57271 0.0
H78 H 0.69959 0.18654 0.62911 0.0
H79 H 0.57702 0.21526 0.59738 0.0
N80 N 0.55942 0.13467 0.64273 0.0
N81 N 0.50884 0.09311 0.63843 0.0
C82 C 0.5496 0.09828 0.64469 0.0
C83 C 0.52294 0.15351 0.63604 0.0
C84 C 0.49147 0.12772 0.63329 0.0
C85 C 0.6354 0.19268 0.72554 0.0
O86 O 0.67421 0.19177 0.70687 0.0
H87 H 0.57193 0.07571 0.6509 0.0
H88 H 0.51917 0.18372 0.6342 0.0
O89 O 0.6465 0.10231 0.64011 0.0
H90 H 0.62717 0.27091 0.57483 0.0
H91 H 0.45855 0.13382 0.62831 0.0
Cu92 Cu 0.1613 0.62296 0.63086 0.0
N93 N 0.17268 0.61825 0.68859 0.0
N94 N 0.20379 0.62084 0.75005 0.0
C95 C 0.18963 0.64085 0.71747 0.0
C96 C 0.19526 0.58487 0.74175 0.0
C97 C 0.1765 0.58338 0.70402 0.0
O98 O 0.21685 0.6281 0.59845 0.0
C99 C 0.09098 0.58214 0.64304 0.0
O100 O 0.08145 0.61292 0.66662 0.0
H101 H 0.19419 0.67055 0.71356 0.0
H102 H 0.16907 0.55796 0.68712 0.0
N103 N 0.1267 0.66308 0.6142 0.0
N104 N 0.08843 0.69192 0.56686 0.0
C105 C 0.10716 0.65945 0.5779 0.0
C106 C 0.11987 0.69943 0.62702 0.0
C107 C 0.09639 0.71743 0.59752 0.0
C108 C 0.23333 0.65916 0.60773 0.0
O109 O 0.21194 0.68289 0.63509 0.0
H110 H 0.10834 0.63365 0.55866 0.0
H111 H 0.13251 0.71232 0.65459 0.0
O112 O 0.1273 0.57903 0.62119 0.0
H113 H 0.20416 0.56117 0.76055 0.0
H114 H 0.08695 0.747 0.59786 0.0
Cu115 Cu 0.67201 0.9167 0.42513 0.0
N116 N 0.72845 0.89755 0.42501 0.0
N117 N 0.77745 0.85023 0.42401 0.0
C118 C 0.74309 0.86432 0.40632 0.0
C119 C 0.78556 0.87569 0.4544 0.0
C120 C 0.75543 0.9047 0.45501 0.0
O121 O 0.64107 0.87792 0.39637 0.0
C122 C 0.67004 0.96339 0.49617 0.0
O123 O 0.69881 0.97819 0.46953 0.0
H124 H 0.72697 0.84903 0.3829 0.0
H125 H 0.75158 0.92736 0.47871 0.0
N126 N 0.66231 0.96028 0.39452 0.0
N127 N 0.62166 1.00803 0.37423 0.0
C128 C 0.62264 0.97522 0.39449 0.0
C129 C 0.68761 0.98453 0.37318 0.0
C130 C 0.66234 1.01419 0.36035 0.0
C131 C 0.65089 0.87542 0.35568 0.0
O132 O 0.67871 0.89819 0.33815 0.0
H133 H 0.59487 0.96237 0.40958 0.0
H134 H 0.72181 0.98125 0.36803 0.0
O135 O 0.65259 0.93344 0.48437 0.0
H136 H 0.80995 0.87236 0.47632 0.0
H137 H 0.67286 0.03826 0.34241 0.0
Cu138 Cu 0.90126 0.38384 0.67806 0.0
N139 N 0.86002 0.36951 0.64177 0.0
N140 N 0.80842 0.33757 0.61508 0.0
C141 C 0.83513 0.33967 0.64631 0.0
C142 C 0.81678 0.36693 0.58976 0.0
C143 C 0.84874 0.38651 0.60618 0.0
O144 O 0.88257 0.37006 0.73677 0.0
C145 C 0.97058 0.37212 0.62034 0.0
O146 O 0.94712 0.39578 0.6001 0.0
H147 H 0.83608 0.32015 0.67219 0.0
H148 H 0.86257 0.41153 0.59312 0.0
N149 N 0.91059 0.43554 0.6754 0.0
N150 N 0.95036 0.48535 0.66344 0.0
C151 C 0.9491 0.44995 0.67749 0.0
C152 C 0.88631 0.46337 0.66051 0.0
C153 C 0.91088 0.49427 0.65309 0.0
C154 C 0.84629 0.38286 0.75287 0.0
O155 O 0.82431 0.40606 0.73056 0.0
H156 H 0.97647 0.43405 0.68648 0.0
H157 H 0.85392 0.46063 0.65292 0.0
O158 O 0.95566 0.35984 0.65636 0.0
H159 H 0.80056 0.37387 0.56176 0.0
H160 H 0.90117 0.52051 0.6394 0.0
Cu161 Cu 0.37181 0.09483 0.37645 0.0
N162 N 0.36541 0.10706 0.31867 0.0
N163 N 0.36259 0.14277 0.26082 0.0
C164 C 0.3772 0.13923 0.29975 0.0
C165 C 0.34129 0.11142 0.25422 0.0
C166 C 0.34319 0.08937 0.28994 0.0
O167 O 0.33763 0.13244 0.41237 0.0
C168 C 0.46132 0.08464 0.35557 0.0
O169 O 0.45227 0.09183 0.31636 0.0
H170 H 0.3955 0.16016 0.31435 0.0
H171 H 0.32778 0.06312 0.2953 0.0
N172 N 0.34553 0.05037 0.39265 0.0
N173 N 0.3243 1.00733 0.44039 0.0
C174 C 0.3562 0.02911 0.42555 0.0
C175 C 0.30554 0.0415 0.38642 0.0
C176 C 0.29244 1.01492 0.41568 0.0
C177 C 0.33676 0.16767 0.40667 0.0
O178 O 0.36907 0.18293 0.38553 0.0
H179 H 0.38493 0.0325 0.44134 0.0
H180 H 0.28569 0.05613 0.36528 0.0
O181 O 0.43198 0.08757 0.38652 0.0
H182 H 0.32406 0.10578 0.22654 0.0
H183 H 0.26089 1.00422 0.42071 0.0
Cu184 Cu 0.38761 0.39099 0.16649 0.0
N185 N 0.37792 0.34001 0.15601 0.0
N186 N 0.37186 0.2787 0.16768 0.0
C187 C 0.38155 0.31228 0.18428 0.0
C188 C 0.36155 0.28531 0.12756 0.0
C189 C 0.36524 0.32325 0.12045 0.0
O190 O 0.3712 0.39905 0.22829 0.0
C191 C 0.46197 0.38773 0.11084 0.0
O192 O 0.43642 0.37199 0.08558 0.0
H193 H 0.39033 0.3167 0.21667 0.0
H194 H 0.35861 0.33769 0.09159 0.0
N195 N 0.35267 0.4218 0.13503 0.0
N196 N 0.32494 0.47221 0.10443 0.0
C197 C 0.35935 0.45699 0.12129 0.0
C198 C 0.31283 0.41469 0.12631 0.0
C199 C 0.29567 0.44569 0.10747 0.0
C200 C 0.34205 0.42272 0.24362 0.0
O201 O 0.32738 0.44835 0.21879 0.0
H202 H 0.38811 0.47168 0.12501 0.0
H203 H 0.29686 0.38919 0.13454 0.0
O204 O 0.44749 0.39906 0.14865 0.0
H205 H 0.35118 0.26437 0.10553 0.0
H206 H 0.26391 0.44888 0.09747 0.0
Cu207 Cu 0.34675 0.69046 0.94892 0.0
N208 N 0.33243 0.74094 0.93592 0.0
N209 N 0.3334 0.7877 0.88857 0.0
C210 C 0.32662 0.75107 0.89535 0.0
C211 C 0.34277 0.80186 0.92686 0.0
C212 C 0.34202 0.77306 0.956 0.0
O213 O 0.33482 0.66117 0.8981 0.0
C214 C 0.40873 0.69945 1.00431 0.0
O215 O 0.37498 0.71323 0.02793 0.0
H216 H 0.32322 0.73123 0.86942 0.0
H217 H 0.35222 0.77478 0.98803 0.0
N218 N 0.3156 0.66706 0.99395 0.0
N219 N 0.30124 0.6189 0.03686 0.0
C220 C 0.32764 0.63223 1.00515 0.0
C221 C 0.27994 0.67629 1.01953 0.0
C222 C 0.27092 0.64638 0.04615 0.0
C223 C 0.29559 0.66453 0.89168 0.0
O224 O 0.27 0.68491 0.91942 0.0
H225 H 0.35499 0.61652 0.98959 0.0
H226 H 0.26159 0.70247 1.01851 0.0
O227 O 0.40499 0.68791 0.96575 0.0
H228 H 0.35335 0.82999 0.93227 0.0
H229 H 0.24413 0.64476 0.07005 0.0
Cu230 Cu 0.63565 0.69499 0.12964 0.0
N231 N 0.66467 0.68553 0.07514 0.0
N232 N 0.68173 0.64817 1.017 0.0
C233 C 0.65351 0.65647 0.05099 0.0
C234 C 0.71254 0.67305 1.01956 0.0
C235 C 0.70175 0.69638 0.05557 0.0
O236 O 0.57643 0.68567 0.12059 0.0
C237 C 0.70256 0.67328 0.17293 0.0
O238 O 0.71543 0.70391 0.15412 0.0
H239 H 0.62709 0.63928 0.06042 0.0
H240 H 0.7211 0.71766 0.06816 0.0
N241 N 0.63744 0.74369 0.15344 0.0
N242 N 0.63659 0.78756 0.2061 0.0
C243 C 0.62642 0.75233 0.1954 0.0
C244 C 0.65461 0.77475 0.13683 0.0
C245 C 0.65404 0.80195 0.16935 0.0
C246 C 0.56344 0.70406 0.0893 0.0
O247 O 0.58883 0.72811 0.07021 0.0
H248 H 0.61329 0.73248 0.21817 0.0
H249 H 0.66827 0.77686 0.10399 0.0
O250 O 0.66535 0.66236 0.16765 0.0
H251 H 0.74184 0.67269 0.99879 0.0
H252 H 0.66676 0.82967 0.16663 0.0
Cu253 Cu 0.64482 0.40037 0.91574 0.0
N254 N 0.6351 0.45267 0.91481 0.0
N255 N 0.64303 0.51354 0.93084 0.0
C256 C 0.66092 0.47838 0.92947 0.0
C257 C 0.60476 0.50991 0.91576 0.0
C258 C 0.60002 0.47234 0.9057 0.0
O259 O 0.62036 0.38302 0.97133 0.0
C260 C 0.72821 0.36184 0.89693 0.0
O261 O 0.71491 0.33278 0.91862 0.0
H262 H 0.6911 0.47118 0.94154 0.0
H263 H 0.57206 0.46001 0.89484 0.0
N264 N 0.61527 0.37455 0.87587 0.0
N265 N 0.60159 0.32561 0.83376 0.0
C266 C 0.63186 0.34712 0.848 0.0
C267 C 0.57303 0.3704 0.87886 0.0
C268 C 0.56448 0.34025 0.85282 0.0
C269 C 0.62058 0.40078 1.00717 0.0
O270 O 0.64751 0.42744 1.01096 0.0
H271 H 0.6655 0.34111 0.84089 0.0
H272 H 0.55043 0.38611 0.90121 0.0
O273 O 0.70482 0.39173 0.89729 0.0
H274 H 0.58116 0.53255 0.91415 0.0
H275 H 0.53376 0.32859 0.84999 0.0
C276 C 0.23 0.21046 0.38356 0.0
C277 C 0.22308 0.23902 0.41609 0.0
C278 C 0.29011 0.21945 0.44463 0.0
C279 C 0.29564 0.18956 0.41356 0.0
N280 N 0.26436 0.15058 0.36113 0.0
N281 N 0.24033 0.26378 0.48449 0.0
C282 C 0.26332 0.1829 0.38578 0.0
C283 C 0.2514 0.24153 0.4487 0.0
N284 N 0.20677 0.21114 0.34878 0.0
N285 N 0.32178 0.22684 0.47014 0.0
H286 H 0.21103 0.27833 0.4895 0.0
H287 H 0.2579 0.26446 0.51109 0.0
H288 H 0.34955 0.20998 0.46958 0.0
H289 H 0.3215 0.25085 0.48995 0.0
H290 H 0.21247 0.19252 0.32246 0.0
H291 H 0.18478 0.23276 0.34387 0.0
H292 H 0.23902 0.14262 0.34437 0.0
H293 H 0.28874 0.13009 0.36001 0.0
C294 C 0.30626 0.72753 0.5561 0.0
C295 C 0.3388 0.72409 0.58422 0.0
C296 C 0.31111 0.66425 0.60915 0.0
C297 C 0.27449 0.67155 0.58756 0.0
N298 N 0.23931 0.70505 0.53473 0.0
N299 N 0.37475 0.68902 0.63556 0.0
C300 C 0.27331 0.70131 0.55842 0.0
C301 C 0.34251 0.69186 0.6095 0.0
N302 N 0.3066 0.75656 0.52829 0.0
N303 N 0.31511 0.63111 0.62969 0.0
H304 H 0.39829 0.70875 0.63557 0.0
H305 H 0.37731 0.6683 0.65822 0.0
H306 H 0.2921 0.61091 0.62919 0.0
H307 H 0.34211 0.62242 0.64401 0.0
H308 H 0.28503 0.76045 0.50547 0.0
H309 H 0.33018 0.77626 0.52679 0.0
H310 H 0.23346 0.72756 0.51524 0.0
H311 H 0.21671 0.6845 0.53478 0.0
C312 C 0.77499 0.7804 0.42299 0.0
C313 C 0.79812 0.81347 0.41625 0.0
C314 C 0.86322 0.77467 0.39971 0.0
C315 C 0.83917 0.74176 0.39947 0.0
N316 N 0.77059 0.71401 0.40551 0.0
N317 N 0.86302 0.84206 0.39142 0.0
C318 C 0.79457 0.74468 0.40997 0.0
C319 C 0.84199 0.81057 0.40296 0.0
N320 N 0.7349 0.78302 0.44325 0.0
N321 N 0.90652 0.77161 0.39761 0.0
H322 H 0.84798 0.86869 0.39194 0.0
H323 H 0.89414 0.84123 0.37726 0.0
H324 H 0.92326 0.74575 0.39631 0.0
H325 H 0.92541 0.79448 0.4018 0.0
H326 H 0.71785 0.75963 0.4524 0.0
H327 H 0.72043 0.80854 0.45485 0.0
H328 H 0.73753 0.71565 0.40797 0.0
H329 H 0.78362 0.68744 0.39599 0.0
C330 C 0.73855 0.31362 0.64023 0.0
C331 C 0.77559 0.31106 0.6111 0.0
C332 C 0.74597 0.25931 0.5714 0.0
C333 C 0.71003 0.26056 0.60191 0.0
N334 N 0.67475 0.2842 0.66919 0.0
N335 N 0.81786 0.27906 0.55258 0.0
C336 C 0.70711 0.28643 0.63748 0.0
C337 C 0.78018 0.2832 0.57756 0.0
N338 N 0.73283 0.34301 0.66944 0.0
N339 N 0.74675 0.23564 0.53623 0.0
H340 H 0.84332 0.29606 0.55689 0.0
H341 H 0.82506 0.25735 0.52984 0.0
H342 H 0.72224 0.2176 0.53171 0.0
H343 H 0.77004 0.23544 0.51046 0.0
H344 H 0.70472 0.34881 0.68886 0.0
H345 H 0.75516 0.36353 0.67187 0.0
H346 H 0.67307 0.29933 0.6983 0.0
H347 H 0.65114 0.26482 0.66771 0.0
C348 C 0.33044 0.23473 0.21272 0.0
C349 C 0.36917 0.24367 0.18979 0.0
C350 C 0.40214 0.18383 0.21 0.0
C351 C 0.36418 0.17601 0.2352 0.0
N352 N 0.29389 0.1953 0.26509 0.0
N353 N 0.44269 0.22925 0.16807 0.0
C354 C 0.32866 0.20176 0.23758 0.0
C355 C 0.40531 0.21881 0.18878 0.0
N356 N 0.29525 0.25771 0.21005 0.0
N357 N 0.43467 0.15727 0.20598 0.0
H358 H 0.44522 0.25433 0.15162 0.0
H359 H 0.47151 0.21431 0.16884 0.0
H360 H 0.43277 0.13165 0.22142 0.0
H361 H 0.4623 0.15939 0.1856 0.0
H362 H 0.26481 0.25122 0.22227 0.0
H363 H 0.29608 0.28247 0.19293 0.0
H364 H 0.26884 0.21488 0.27236 0.0
H365 H 0.29142 0.17107 0.28292 0.0
C366 C 0.2935 0.65509 0.81084 0.0
C367 C 0.27715 0.6479 0.85373 0.0
C368 C 0.21079 0.62776 0.82738 0.0
C369 C 0.22771 0.63291 0.78463 0.0
N370 N 0.28836 0.64304 0.73474 0.0
N371 N 0.22537 0.61735 0.90088 0.0
C372 C 0.27001 0.64425 0.77604 0.0
C373 C 0.23732 0.63108 0.86131 0.0
N374 N 0.3304 0.67342 0.80309 0.0
N375 N 0.16881 0.62063 0.8355 0.0
H376 H 0.24487 0.61803 0.92605 0.0
H377 H 0.19847 0.60177 0.90728 0.0
H378 H 0.14844 0.61892 0.81113 0.0
H379 H 0.15344 0.62013 0.86642 0.0
H380 H 0.34036 0.684 0.77321 0.0
H381 H 0.35021 0.67987 0.82676 0.0
H382 H 0.32047 0.64708 0.72669 0.0
H383 H 0.2722 0.63468 0.70877 0.0
C384 C 0.60501 0.83749 0.25703 0.0
C385 C 0.6327 0.80542 0.2485 0.0
C386 C 0.65471 0.81108 0.32177 0.0
C387 C 0.63391 0.84704 0.32672 0.0
N388 N 0.58649 0.89395 0.30131 0.0
N389 N 0.68601 0.76229 0.27177 0.0
C390 C 0.60765 0.8598 0.29518 0.0
C391 C 0.65758 0.79188 0.28093 0.0
N392 N 0.57608 0.8462 0.2286 0.0
N393 N 0.672 0.79566 0.35607 0.0
H394 H 0.6901 0.74847 0.24178 0.0
H395 H 0.70801 0.75341 0.29259 0.0
H396 H 0.66869 0.80897 0.38641 0.0
H397 H 0.68522 0.76839 0.35572 0.0
H398 H 0.55254 0.86745 0.23411 0.0
H399 H 0.57351 0.82988 0.20079 0.0
H400 H 0.57064 0.90725 0.27776 0.0
H401 H 0.58593 0.90947 0.3302 0.0
C402 C 0.79513 0.39078 0.86779 0.0
C403 C 0.7681 0.35989 0.86724 0.0
C404 C 0.80754 0.33668 0.79956 0.0
C405 C 0.82737 0.37157 0.79577 0.0
N406 N 0.84227 0.43159 0.82672 0.0
N407 N 0.74807 0.30307 0.83101 0.0
C408 C 0.82224 0.39836 0.83035 0.0
C409 C 0.77478 0.33216 0.83326 0.0
N410 N 0.79479 0.41268 0.9044 0.0
N411 N 0.81967 0.30803 0.77062 0.0
H412 H 0.72431 0.2975 0.85491 0.0
H413 H 0.74769 0.28551 0.80388 0.0
H414 H 0.84382 0.31052 0.746 0.0
H415 H 0.80922 0.28078 0.77378 0.0
H416 H 0.81599 0.43386 0.90834 0.0
H417 H 0.77588 0.40707 0.93248 0.0
H418 H 0.8359 0.45431 0.84831 0.0
H419 H 0.8642 0.43695 0.80079 0.0
C420 C 0.37536 0.79768 0.77289 0.0
C421 C 0.35572 0.83233 0.76234 0.0
C422 C 0.3173 0.83578 0.83474 0.0
C423 C 0.34175 0.80408 0.84668 0.0
N424 N 0.40206 0.7612 0.82944 0.0
N425 N 0.31058 0.88666 0.78483 0.0
C426 C 0.373 0.78677 0.81634 0.0
C427 C 0.3271 0.85201 0.79364 0.0
N428 N 0.39541 0.77454 0.74114 0.0
N429 N 0.28416 0.84973 0.86227 0.0
H430 H 0.31674 0.89903 0.75511 0.0
H431 H 0.29314 0.90411 0.80783 0.0
H432 H 0.27651 0.83831 0.89229 0.0
H433 H 0.2625 0.87049 0.85405 0.0
H434 H 0.40686 0.74742 0.74678 0.0
H435 H 0.39609 0.78069 0.70858 0.0
H436 H 0.42775 0.7501 0.8092 0.0
H437 H 0.40353 0.75465 0.86164 0.0
C438 C 0.7743 0.64259 0.17346 0.0
C439 C 0.73391 0.65118 0.19578 0.0
C440 C 0.76182 0.63095 0.2626 0.0
C441 C 0.80363 0.62949 0.24166 0.0
N442 N 0.85014 0.6395 0.17785 0.0
N443 N 0.68956 0.65633 0.26284 0.0
C444 C 0.81001 0.63632 0.19709 0.0
C445 C 0.72749 0.64569 0.24069 0.0
N446 N 0.77846 0.64053 0.12952 0.0
N447 N 0.7549 0.61741 0.30301 0.0
H448 H 0.66362 0.66677 0.24785 0.0
H449 H 0.68483 0.65715 0.29631 0.0
H450 H 0.77921 0.60508 0.31898 0.0
H451 H 0.72471 0.61482 0.31864 0.0
H452 H 0.80637 0.63113 0.11154 0.0
H453 H 0.75261 0.64436 0.11138 0.0
H454 H 0.8564 0.64819 0.14638 0.0
H455 H 0.87709 0.63732 0.19457 0.0
C456 C 0.63992 0.22733 0.79623 0.0
C457 C 0.62169 0.22437 0.75643 0.0
C458 C 0.59165 0.28903 0.76745 0.0
C459 C 0.6078 0.29114 0.80812 0.0
N460 N 0.63897 0.25984 0.86563 0.0
N461 N 0.57322 0.25023 0.7079 0.0
C462 C 0.62966 0.25955 0.82378 0.0
C463 C 0.59498 0.25437 0.74346 0.0
N464 N 0.66726 0.19944 0.80759 0.0
N465 N 0.5754 0.32096 0.7506 0.0
H466 H 0.57618 0.22651 0.6876 0.0
H467 H 0.5497 0.26947 0.70008 0.0
H468 H 0.57349 0.34694 0.767 0.0
H469 H 0.56763 0.32255 0.71898 0.0
H470 H 0.68562 0.20201 0.83345 0.0
H471 H 0.67329 0.17435 0.78971 0.0
H472 H 0.65141 0.23648 0.88034 0.0
H473 H 0.63045 0.28246 0.88692 0.0
C474 C 0.31642 0.43861 0.32114 0.0
C475 C 0.31601 0.4146 0.28418 0.0
C476 C 0.25811 0.37976 0.32038 0.0
C477 C 0.25923 0.40307 0.35802 0.0
N478 N 0.29234 0.45167 0.39649 0.0
N479 N 0.28969 0.36011 0.24931 0.0
C480 C 0.28946 0.4315 0.35911 0.0
C481 C 0.28791 0.38447 0.28414 0.0
N482 N 0.3419 0.46877 0.31942 0.0
N483 N 0.22783 0.3535 0.31874 0.0
H484 H 0.3077 0.36428 0.22036 0.0
H485 H 0.27506 0.33446 0.24954 0.0
H486 H 0.20766 0.34647 0.34516 0.0
H487 H 0.22086 0.33973 0.29063 0.0
H488 H 0.34061 0.48996 0.3431 0.0
H489 H 0.36321 0.47373 0.29286 0.0
H490 H 0.31644 0.46996 0.40119 0.0
H491 H 0.27173 0.44863 0.42407 0.0
C492 C 0.05072 0.37083 0.61502 0.0
C493 C 0.01253 0.3596 0.59878 0.0
C494 C 0.04934 0.34868 0.52727 0.0
C495 C 0.08775 0.36026 0.54288 0.0
N496 N 0.12739 0.3754 0.60272 0.0
N497 N 0.97847 0.32677 0.54436 0.0
C498 C 0.08923 0.36904 0.58725 0.0
C499 C 0.01301 0.34483 0.55644 0.0
N500 N 0.04983 0.3844 0.65636 0.0
N501 N 0.04696 0.34279 0.48423 0.0
H502 H 0.95165 0.32309 0.56567 0.0
H503 H 0.97811 0.31209 0.51514 0.0
H504 H 0.07275 0.34532 0.46171 0.0
H505 H 0.01868 0.33875 0.47048 0.0
H506 H 0.07491 0.39787 0.66861 0.0
H507 H 0.02328 0.38272 0.67839 0.0
H508 H 0.13147 0.3784 0.63531 0.0
H509 H 0.15574 0.37535 0.58285 0.0
C510 C 0.31331 0.94779 0.47907 0.0
C511 C 0.32133 0.98665 0.47987 0.0
C512 C 0.33118 0.98388 0.55673 0.0
C513 C 0.31954 0.94554 0.55705 0.0
N514 N 0.28918 0.89436 0.51974 0.0
N515 N 0.32473 0.04368 0.52221 0.0
C516 C 0.30748 0.92848 0.51851 0.0
C517 C 0.32621 1.0053 0.51957 0.0
N518 N 0.31282 0.92899 0.44051 0.0
N519 N 0.34958 0.99956 0.59042 0.0
H520 H 0.31894 0.06027 0.49616 0.0
H521 H 0.32424 0.05879 0.5513 0.0
H522 H 0.35624 0.98507 0.61762 0.0
H523 H 0.36267 0.02597 0.58919 0.0
H524 H 0.31138 0.89986 0.43765 0.0
H525 H 0.31785 0.94222 0.41117 0.0
H526 H 0.27642 0.88215 0.4934 0.0
H527 H 0.28251 0.8802 0.54826 0.0
C528 C 0.02417 0.70734 0.52942 0.0
C529 C 0.06806 0.69747 0.52773 0.0
C530 C 0.06908 0.682 0.4506 0.0
C531 C 0.02567 0.69352 0.45173 0.0
N532 N 0.96482 0.7259 0.48964 0.0
N533 N 0.13437 0.68611 0.48489 0.0
C534 C 1.00419 0.7091 0.49043 0.0
C535 C 0.09115 0.68831 0.48756 0.0
N536 N 1.00105 0.71282 0.56829 0.0
N537 N 0.08856 0.66281 0.41538 0.0
H538 H 0.15091 0.69226 0.51137 0.0
H539 H 0.15335 0.68249 0.45591 0.0
H540 H 0.07297 0.65623 0.38837 0.0
H541 H 0.11895 0.65034 0.41465 0.0
H542 H 0.96808 0.71612 0.57169 0.0
H543 H 0.01452 0.71097 0.59743 0.0
H544 H 0.94896 0.74072 0.51589 0.0
H545 H 0.94997 0.72816 0.46134 0.0
C546 C 0.62114 0.04694 0.55601 0.0
C547 C 0.65339 0.05433 0.5839 0.0
C548 C 0.68565 0.99129 0.5667 0.0
C549 C 0.65591 0.98568 0.53608 0.0
N550 N 0.58794 1.00122 0.512 0.0
N551 N 0.70949 0.03049 0.62411 0.0
C552 C 0.62087 1.01114 0.5347 0.0
C553 C 0.68312 0.02523 0.59242 0.0
N554 N 0.59195 0.07467 0.54826 0.0
N555 N 0.71753 0.9647 0.56929 0.0
H556 H 0.70905 0.05543 0.64243 0.0
H557 H 0.72982 1.00956 0.63427 0.0
H558 H 0.71798 0.93887 0.55261 0.0
H559 H 0.74345 0.9682 0.58697 0.0
H560 H 0.57113 0.07264 0.5245 0.0
H561 H 0.58958 0.10081 0.56416 0.0
H562 H 0.55961 1.01703 0.51197 0.0
H563 H 0.58743 0.97499 0.49645 0.0
C564 C 0.51516 0.0319 0.33705 0.0
C565 C 0.50299 0.06549 0.36147 0.0
C566 C 0.57047 0.06135 0.3947 0.0
C567 C 0.58371 0.02989 0.36739 0.0
N568 N 0.57278 0.98952 0.30722 0.0
N569 N 0.52091 0.11501 0.40983 0.0
C570 C 0.55724 1.01662 0.33683 0.0
C571 C 0.53117 0.08105 0.3894 0.0
N572 N 0.4858 1.01326 0.31607 0.0
N573 N 0.59505 0.07158 0.4264 0.0
H574 H 0.4924 0.12994 0.40675 0.0
H575 H 0.54175 0.12965 0.42732 0.0
H576 H 0.62397 0.05769 0.43054 0.0
H577 H 0.58578 0.09215 0.45 0.0
H578 H 0.49189 0.98678 0.30136 0.0
H579 H 0.45395 1.02221 0.31728 0.0
H580 H 0.55666 0.9812 0.28118 0.0
H581 H 0.60366 0.97797 0.30648 0.0
C582 C 0.04167 0.53745 0.60976 0.0
C583 C 0.0602 0.55144 0.64644 0.0
C584 C 1.00519 0.52225 0.69378 0.0
C585 C 0.98762 0.50735 0.65742 0.0
N586 N 0.99399 0.4931 0.58145 0.0
N587 N 0.06595 0.54876 0.72291 0.0
C588 C 1.00742 0.51259 0.61552 0.0
C589 C 0.04388 0.54114 0.68832 0.0
N590 N 0.05508 0.54937 0.56974 0.0
N591 N 0.98383 0.51956 0.73354 0.0
H592 H 0.09483 0.56188 0.72014 0.0
H593 H 0.05795 0.53873 0.75351 0.0
H594 H 0.95523 0.50602 0.7384 0.0
H595 H 0.99241 0.53343 0.76099 0.0
H596 H 0.03952 0.54362 0.54249 0.0
H597 H 0.08024 0.56713 0.56412 0.0
H598 H 1.00967 0.49265 0.55063 0.0
H599 H 0.96913 0.47471 0.58495 0.0
C600 C 0.48535 0.03747 0.67777 0.0
C601 C 0.48931 0.05718 0.63885 0.0
C602 C 0.46704 1.00179 0.59978 0.0
C603 C 0.4683 0.98088 0.6377 0.0
N604 N 0.47978 0.97717 0.71232 0.0
N605 N 0.48619 0.05853 0.5623 0.0
C606 C 0.47744 0.9984 0.67673 0.0
C607 C 0.48023 0.03959 0.59971 0.0
N608 N 0.4887 0.05664 0.71565 0.0
N609 N 0.45268 0.98542 0.56415 0.0
H610 H 0.49544 0.0863 0.56144 0.0
H611 H 0.48438 0.04629 0.53195 0.0
H612 H 0.44332 0.95765 0.56342 0.0
H613 H 0.44689 0.99994 0.53663 0.0
H614 H 0.48303 0.04506 0.74579 0.0
H615 H 0.49379 0.08543 0.7169 0.0
H616 H 0.49024 0.98705 0.74099 0.0
H617 H 0.47351 0.9486 0.71224 0.0
C618 C 1.00365 0.53523 0.41557 0.0
C619 C 0.96278 0.53559 0.40058 0.0
C620 C 0.96922 0.46673 0.39184 0.0
C621 C 0.01294 0.4677 0.39838 0.0
N622 N 0.07344 0.50475 0.40978 0.0
N623 N 0.90603 0.50161 0.37369 0.0
C624 C 0.03055 0.50236 0.40921 0.0
C625 C 0.94497 0.50119 0.38921 0.0
N626 N 0.01698 0.5668 0.43511 0.0
N627 N 0.95107 0.43279 0.38836 0.0
H628 H 0.88714 0.52618 0.3727 0.0
H629 H 0.89342 0.47803 0.36006 0.0
H630 H 0.96827 0.40741 0.3906 0.0
H631 H 0.91861 0.42989 0.38714 0.0
H632 H 0.04512 0.56746 0.44995 0.0
H633 H 0.99737 0.591 0.44055 0.0
H634 H 0.08817 0.53014 0.41344 0.0
H635 H 0.09482 0.48218 0.40173 0.0
C636 C 0.31829 0.54173 0.11545 0.0
C637 C 0.31936 0.50946 0.08769 0.0
C638 C 0.30169 0.54956 0.02849 0.0
C639 C 0.30486 0.58204 0.05502 0.0
N640 N 0.3232 0.60952 0.12157 0.0
N641 N 0.31923 0.48296 1.0162 0.0
C642 C 0.31501 0.57826 0.09802 0.0
C643 C 0.31296 0.5135 0.0437 0.0
N644 N 0.31876 0.53737 0.15869 0.0
N645 N 0.28665 0.55327 0.98915 0.0
H646 H 0.32858 0.45645 0.02632 0.0
H647 H 0.31907 0.48459 0.98296 0.0
H648 H 0.27718 0.57928 0.97783 0.0
H649 H 0.27981 0.53052 0.96971 0.0
H650 H 0.31389 0.55961 0.18114 0.0
H651 H 0.32021 0.51102 0.1724 0.0
H652 H 0.33503 0.6084 0.15158 0.0
H653 H 0.32157 0.63651 0.10945 0.0
C654 C 0.47012 0.66476 0.03457 0.0
C655 C 0.45007 0.69913 1.02351 0.0
C656 C 0.49701 0.73405 0.06682 0.0
C657 C 0.52065 0.70037 0.07348 0.0
N658 N 0.53134 0.63324 0.06124 0.0
N659 N 0.44941 0.76678 1.02265 0.0
C660 C 0.50752 0.6655 0.05694 0.0
C661 C 0.46496 0.73385 0.03789 0.0
N662 N 0.45257 0.63143 0.02518 0.0
N663 N 0.50447 0.76619 0.08931 0.0
H664 H 0.42699 0.76759 1.00018 0.0
H665 H 0.46195 0.7928 0.02864 0.0
H666 H 0.52661 0.76694 0.1121 0.0
H667 H 0.48563 0.79082 0.08896 0.0
H668 H 0.46245 0.60576 0.03699 0.0
H669 H 0.42614 0.62972 1.00776 0.0
H670 H 0.52694 0.60814 0.04469 0.0
H671 H 0.55674 0.63183 0.08007 0.0
C672 C 0.66647 0.54727 0.99459 0.0
C673 C 0.65838 0.54699 0.95064 0.0
C674 C 0.67239 0.61441 0.94819 0.0
C675 C 0.6822 0.61377 0.99151 0.0
N676 N 0.70093 0.57776 0.05134 0.0
N677 N 0.66267 0.57814 0.88305 0.0
C678 C 0.68375 0.57934 1.01289 0.0
C679 C 0.66426 0.57998 0.92655 0.0
N680 N 0.65412 0.51837 1.01996 0.0
N681 N 0.66897 0.64804 0.92855 0.0
H682 H 0.65758 0.55308 0.8666 0.0
H683 H 0.67012 0.6004 0.86309 0.0
H684 H 0.67545 0.67337 0.94366 0.0
H685 H 0.6575 0.65098 0.89856 0.0
H686 H 0.65579 0.51863 0.05313 0.0
H687 H 0.63719 0.49643 1.00868 0.0
H688 H 0.70606 0.55269 0.067 0.0
H689 H 0.7141 0.6011 0.06505 0.0
C690 C 0.51713 0.42809 0.07581 0.0
C691 C 0.50657 0.39312 0.09347 0.0
C692 C 0.57532 0.36532 0.06207 0.0
C693 C 0.5829 0.39878 0.03936 0.0
N694 N 0.55666 0.45975 1.01866 0.0
N695 N 0.52436 0.3277 0.10314 0.0
C696 C 0.55295 0.42981 0.04508 0.0
C697 C 0.53552 0.36154 0.08677 0.0
N698 N 0.49242 0.4596 0.08776 0.0
N699 N 0.60639 0.33744 0.06042 0.0
H700 H 0.49663 0.3246 0.12328 0.0
H701 H 0.54146 0.30251 0.09536 0.0
H702 H 0.63561 0.33945 0.04244 0.0
H703 H 0.60465 0.31377 0.07931 0.0
H704 H 0.50082 0.48661 0.07925 0.0
H705 H 0.46564 0.45914 0.10974 0.0
H706 H 0.53345 0.48125 1.01815 0.0
H707 H 0.58074 0.4612 0.9939 0.0
loop_
_geom_bond_atom_site_label_1
_geom_bond_atom_site_label_2
_geom_bond_distance
_geom_bond_site_symmetry_2
_ccdc_geom_bond_type
Cu0 N1 1.999 . S
Cu0 O6 1.974 . S
Cu0 N11 1.985 . S
Cu0 O20 1.959 . S
N1 Cu0 1.999 . S
N1 C3 1.263 . S
N1 C5 1.389 . S
N2 C3 1.358 . S
N2 C4 1.400 . S
C3 N1 1.263 . S
C3 N2 1.358 . S
C3 H9 0.930 . S
C4 N2 1.400 . S
C4 C5 1.351 . S
C4 H21 0.930 . S
C5 N1 1.389 . S
C5 C4 1.351 . S
C5 H10 0.930 . S
O6 Cu0 1.974 . S
O6 C16 1.282 . S
C7 O8 1.261 . S
C7 O20 1.251 . S
O8 C7 1.261 . S
H9 C3 0.930 . S
H10 C5 0.930 . S
N11 Cu0 1.985 . S
N11 C13 1.335 . S
N11 C14 1.390 . S
N12 C13 1.345 . S
N12 C15 1.336 . S
C13 N11 1.335 . S
C13 N12 1.345 . S
C13 H18 0.930 . S
C14 N11 1.390 . S
C14 C15 1.346 . S
C14 H19 0.930 . S
C15 N12 1.336 . S
C15 C14 1.346 . S
C15 H22 0.929 . S
C16 O6 1.282 . S
C16 O17 1.216 . S
O17 C16 1.216 . S
H18 C13 0.930 . S
H19 C14 0.930 . S
O20 Cu0 1.959 . S
O20 C7 1.251 . S
H21 C4 0.930 . S
H22 C15 0.929 . S
Cu23 N24 1.999 . S
Cu23 O29 1.974 . S
Cu23 N34 1.985 . S
Cu23 O43 1.959 . S
N24 Cu23 1.999 . S
N24 C26 1.263 . S
N24 C28 1.389 . S
N25 C26 1.358 . S
N25 C27 1.400 . S
C26 N24 1.263 . S
C26 N25 1.358 . S
C26 H32 0.930 . S
C27 N25 1.400 . S
C27 C28 1.351 . S
C27 H44 0.930 . S
C28 N24 1.389 . S
C28 C27 1.351 . S
C28 H33 0.930 . S
O29 Cu23 1.974 . S
O29 C39 1.282 . S
C30 O31 1.261 . S
C30 O43 1.251 . S
O31 C30 1.261 . S
H32 C26 0.930 . S
H33 C28 0.930 . S
N34 Cu23 1.985 . S
N34 C36 1.335 . S
N34 C37 1.390 . S
N35 C36 1.345 . S
N35 C38 1.336 . S
C36 N34 1.335 . S
C36 N35 1.345 . S
C36 H41 0.930 . S
C37 N34 1.390 . S
C37 C38 1.346 . S
C37 H42 0.930 . S
C38 N35 1.336 . S
C38 C37 1.346 . S
C38 H45 0.929 . S
C39 O29 1.282 . S
C39 O40 1.216 . S
O40 C39 1.216 . S
H41 C36 0.930 . S
H42 C37 0.930 . S
O43 Cu23 1.959 . S
O43 C30 1.251 . S
H44 C27 0.930 . S
H45 C38 0.929 . S
Cu46 N47 1.999 . S
Cu46 O52 1.974 . S
Cu46 N57 1.985 . S
Cu46 O66 1.959 . S
N47 Cu46 1.999 . S
N47 C49 1.263 . S
N47 C51 1.389 . S
N48 C49 1.358 . S
N48 C50 1.400 . S
C49 N47 1.263 . S
C49 N48 1.358 . S
C49 H55 0.930 . S
C50 N48 1.400 . S
C50 C51 1.351 . S
C50 H67 0.930 . S
C51 N47 1.389 . S
C51 C50 1.351 . S
C51 H56 0.930 . S
O52 Cu46 1.974 . S
O52 C62 1.282 . S
C53 O54 1.261 . S
C53 O66 1.251 . S
O54 C53 1.261 . S
H55 C49 0.930 . S
H56 C51 0.930 . S
N57 Cu46 1.985 . S
N57 C59 1.335 . S
N57 C60 1.390 . S
N58 C59 1.345 . S
N58 C61 1.336 . S
C59 N57 1.335 . S
C59 N58 1.345 . S
C59 H64 0.930 . S
C60 N57 1.390 . S
C60 C61 1.346 . S
C60 H65 0.930 . S
C61 N58 1.336 . S
C61 C60 1.346 . S
C61 H68 0.929 . S
C62 O52 1.282 . S
C62 O63 1.216 . S
O63 C62 1.216 . S
H64 C59 0.930 . S
H65 C60 0.930 . S
O66 Cu46 1.959 . S
O66 C53 1.251 . S
H67 C50 0.930 . S
H68 C61 0.929 . S
Cu69 N70 1.999 . S
Cu69 O75 1.974 . S
Cu69 N80 1.985 . S
Cu69 O89 1.959 . S
N70 Cu69 1.999 . S
N70 C72 1.263 . S
N70 C74 1.389 . S
N71 C72 1.358 . S
N71 C73 1.400 . S
C72 N70 1.263 . S
C72 N71 1.358 . S
C72 H78 0.930 . S
C73 N71 1.400 . S
C73 C74 1.351 . S
C73 H90 0.930 . S
C74 N70 1.389 . S
C74 C73 1.351 . S
C74 H79 0.930 . S
O75 Cu69 1.974 . S
O75 C85 1.282 . S
C76 O77 1.261 . S
C76 O89 1.251 . S
O77 C76 1.261 . S
H78 C72 0.930 . S
H79 C74 0.930 . S
N80 Cu69 1.985 . S
N80 C82 1.335 . S
N80 C83 1.390 . S
N81 C82 1.345 . S
N81 C84 1.336 . S
C82 N80 1.335 . S
C82 N81 1.345 . S
C82 H87 0.930 . S
C83 N80 1.390 . S
C83 C84 1.346 . S
C83 H88 0.930 . S
C84 N81 1.336 . S
C84 C83 1.346 . S
C84 H91 0.929 . S
C85 O75 1.282 . S
C85 O86 1.216 . S
O86 C85 1.216 . S
H87 C82 0.930 . S
H88 C83 0.930 . S
O89 Cu69 1.959 . S
O89 C76 1.251 . S
H90 C73 0.930 . S
H91 C84 0.929 . S
Cu92 N93 1.999 . S
Cu92 O98 1.974 . S
Cu92 N103 1.985 . S
Cu92 O112 1.959 . S
N93 Cu92 1.999 . S
N93 C95 1.263 . S
N93 C97 1.389 . S
N94 C95 1.358 . S
N94 C96 1.400 . S
C95 N93 1.263 . S
C95 N94 1.358 . S
C95 H101 0.930 . S
C96 N94 1.400 . S
C96 C97 1.351 . S
C96 H113 0.930 . S
C97 N93 1.389 . S
C97 C96 1.351 . S
C97 H102 0.930 . S
O98 Cu92 1.974 . S
O98 C108 1.282 . S
C99 O100 1.261 . S
C99 O112 1.251 . S
O100 C99 1.261 . S
H101 C95 0.930 . S
H102 C97 0.930 . S
N103 Cu92 1.985 . S
N103 C105 1.335 . S
N103 C106 1.390 . S
N104 C105 1.345 . S
N104 C107 1.336 . S
C105 N103 1.335 . S
C105 N104 1.345 . S
C105 H110 0.930 . S
C106 N103 1.390 . S
C106 C107 1.346 . S
C106 H111 0.930 . S
C107 N104 1.336 . S
C107 C106 1.346 . S
C107 H114 0.929 . S
C108 O98 1.282 . S
C108 O109 1.216 . S
O109 C108 1.216 . S
H110 C105 0.930 . S
H111 C106 0.930 . S
O112 Cu92 1.959 . S
O112 C99 1.251 . S
H113 C96 0.930 . S
H114 C107 0.929 . S
Cu115 N116 1.999 . S
Cu115 O121 1.974 . S
Cu115 N126 1.985 . S
Cu115 O135 1.959 . S
N116 Cu115 1.999 . S
N116 C118 1.263 . S
N116 C120 1.389 . S
N117 C118 1.358 . S
N117 C119 1.400 . S
C118 N116 1.263 . S
C118 N117 1.358 . S
C118 H124 0.930 . S
C119 N117 1.400 . S
C119 C120 1.351 . S
C119 H136 0.930 . S
C120 N116 1.389 . S
C120 C119 1.351 . S
C120 H125 0.930 . S
O121 Cu115 1.974 . S
O121 C131 1.282 . S
C122 O123 1.261 . S
C122 O135 1.251 . S
O123 C122 1.261 . S
H124 C118 0.930 . S
H125 C120 0.930 . S
N126 Cu115 1.985 . S
N126 C128 1.335 . S
N126 C129 1.390 . S
N127 C128 1.345 . S
N127 C130 1.336 . S
C128 N126 1.335 . S
C128 N127 1.345 . S
C128 H133 0.930 . S
C129 N126 1.390 . S
C129 C130 1.346 . S
C129 H134 0.930 . S
C130 N127 1.336 . S
C130 C129 1.346 . S
C130 H137 0.929 . S
C131 O121 1.282 . S
C131 O132 1.216 . S
O132 C131 1.216 . S
H133 C128 0.930 . S
H134 C129 0.930 . S
O135 Cu115 1.959 . S
O135 C122 1.251 . S
H136 C119 0.930 . S
H137 C130 0.929 . S
Cu138 N139 1.999 . S
Cu138 O144 1.974 . S
Cu138 N149 1.985 . S
Cu138 O158 1.959 . S
N139 Cu138 1.999 . S
N139 C141 1.263 . S
N139 C143 1.389 . S
N140 C141 1.358 . S
N140 C142 1.400 . S
C141 N139 1.263 . S
C141 N140 1.358 . S
C141 H147 0.930 . S
C142 N140 1.400 . S
C142 C143 1.351 . S
C142 H159 0.930 . S
C143 N139 1.389 . S
C143 C142 1.351 . S
C143 H148 0.930 . S
O144 Cu138 1.974 . S
O144 C154 1.282 . S
C145 O146 1.261 . S
C145 O158 1.251 . S
O146 C145 1.261 . S
H147 C141 0.930 . S
H148 C143 0.930 . S
N149 Cu138 1.985 . S
N149 C151 1.335 . S
N149 C152 1.390 . S
N150 C151 1.345 . S
N150 C153 1.336 . S
C151 N149 1.335 . S
C151 N150 1.345 . S
C151 H156 0.930 1_655 S
C152 N149 1.390 . S
C152 C153 1.346 . S
C152 H157 0.930 . S
C153 N150 1.336 . S
C153 C152 1.346 . S
C153 H160 0.929 . S
C154 O144 1.282 . S
C154 O155 1.216 . S
O155 C154 1.216 . S
H156 C151 0.930 1_455 S
H157 C152 0.930 . S
O158 Cu138 1.959 . S
O158 C145 1.251 . S
H159 C142 0.930 . S
H160 C153 0.929 . S
Cu161 N162 1.999 . S
Cu161 O167 1.974 . S
Cu161 N172 1.985 . S
Cu161 O181 1.959 . S
N162 Cu161 1.999 . S
N162 C164 1.263 . S
N162 C166 1.389 . S
N163 C164 1.358 . S
N163 C165 1.400 . S
C164 N162 1.263 . S
C164 N163 1.358 . S
C164 H170 0.930 . S
C165 N163 1.400 . S
C165 C166 1.351 . S
C165 H182 0.930 . S
C166 N162 1.389 . S
C166 C165 1.351 . S
C166 H171 0.930 . S
O167 Cu161 1.974 . S
O167 C177 1.282 . S
C168 O169 1.261 . S
C168 O181 1.251 . S
O169 C168 1.261 . S
H170 C164 0.930 . S
H171 C166 0.930 . S
N172 Cu161 1.985 . S
N172 C174 1.335 . S
N172 C175 1.390 . S
N173 C174 1.345 . S
N173 C176 1.336 . S
C174 N172 1.335 . S
C174 N173 1.345 . S
C174 H179 0.930 1_545 S
C175 N172 1.390 . S
C175 C176 1.346 . S
C175 H180 0.930 . S
C176 N173 1.336 . S
C176 C175 1.346 . S
C176 H183 0.929 . S
C177 O167 1.282 . S
C177 O178 1.216 . S
O178 C177 1.216 . S
H179 C174 0.930 1_565 S
H180 C175 0.930 . S
O181 Cu161 1.959 . S
O181 C168 1.251 . S
H182 C165 0.930 . S
H183 C176 0.929 . S
Cu184 N185 1.999 . S
Cu184 O190 1.974 . S
Cu184 N195 1.985 . S
Cu184 O204 1.959 . S
N185 Cu184 1.999 . S
N185 C187 1.263 . S
N185 C189 1.389 . S
N186 C187 1.358 . S
N186 C188 1.400 . S
C187 N185 1.263 . S
C187 N186 1.358 . S
C187 H193 0.930 . S
C188 N186 1.400 . S
C188 C189 1.351 . S
C188 H205 0.930 . S
C189 N185 1.389 . S
C189 C188 1.351 . S
C189 H194 0.930 . S
O190 Cu184 1.974 . S
O190 C200 1.282 . S
C191 O192 1.261 . S
C191 O204 1.251 . S
O192 C191 1.261 . S
H193 C187 0.930 . S
H194 C189 0.930 . S
N195 Cu184 1.985 . S
N195 C197 1.335 . S
N195 C198 1.390 . S
N196 C197 1.345 . S
N196 C199 1.336 . S
C197 N195 1.335 . S
C197 N196 1.345 . S
C197 H202 0.930 . S
C198 N195 1.390 . S
C198 C199 1.346 . S
C198 H203 0.930 . S
C199 N196 1.336 . S
C199 C198 1.346 . S
C199 H206 0.929 . S
C200 O190 1.282 . S
C200 O201 1.216 . S
O201 C200 1.216 . S
H202 C197 0.930 . S
H203 C198 0.930 . S
O204 Cu184 1.959 . S
O204 C191 1.251 . S
H205 C188 0.930 . S
H206 C199 0.929 . S
Cu207 N208 1.999 . S
Cu207 O213 1.974 . S
Cu207 N218 1.985 . S
Cu207 O227 1.959 . S
N208 Cu207 1.999 . S
N208 C210 1.263 . S
N208 C212 1.389 . S
N209 C210 1.358 . S
N209 C211 1.400 . S
C210 N208 1.263 . S
C210 N209 1.358 . S
C210 H216 0.930 . S
C211 N209 1.400 . S
C211 C212 1.351 . S
C211 H228 0.930 . S
C212 N208 1.389 . S
C212 C211 1.351 . S
C212 H217 0.930 . S
O213 Cu207 1.974 . S
O213 C223 1.282 . S
C214 O215 1.261 . S
C214 O227 1.251 . S
O215 C214 1.261 . S
H216 C210 0.930 . S
H217 C212 0.930 . S
N218 Cu207 1.985 . S
N218 C220 1.335 . S
N218 C221 1.390 . S
N219 C220 1.345 . S
N219 C222 1.336 . S
C220 N218 1.335 . S
C220 N219 1.345 . S
C220 H225 0.930 . S
C221 N218 1.390 . S
C221 C222 1.346 . S
C221 H226 0.930 . S
C222 N219 1.336 . S
C222 C221 1.346 . S
C222 H229 0.929 . S
C223 O213 1.282 . S
C223 O224 1.216 . S
O224 C223 1.216 . S
H225 C220 0.930 . S
H226 C221 0.930 . S
O227 Cu207 1.959 . S
O227 C214 1.251 . S
H228 C211 0.930 . S
H229 C222 0.929 . S
Cu230 N231 1.999 . S
Cu230 O236 1.974 . S
Cu230 N241 1.985 . S
Cu230 O250 1.959 . S
N231 Cu230 1.999 . S
N231 C233 1.263 . S
N231 C235 1.389 . S
N232 C233 1.358 . S
N232 C234 1.400 . S
C233 N231 1.263 . S
C233 N232 1.358 . S
C233 H239 0.930 . S
C234 N232 1.400 . S
C234 C235 1.351 . S
C234 H251 0.930 . S
C235 N231 1.389 . S
C235 C234 1.351 . S
C235 H240 0.930 . S
O236 Cu230 1.974 . S
O236 C246 1.282 . S
C237 O238 1.261 . S
C237 O250 1.251 . S
O238 C237 1.261 . S
H239 C233 0.930 . S
H240 C235 0.930 . S
N241 Cu230 1.985 . S
N241 C243 1.335 . S
N241 C244 1.390 . S
N242 C243 1.345 . S
N242 C245 1.336 . S
C243 N241 1.335 . S
C243 N242 1.345 . S
C243 H248 0.930 . S
C244 N241 1.390 . S
C244 C245 1.346 . S
C244 H249 0.930 . S
C245 N242 1.336 . S
C245 C244 1.346 . S
C245 H252 0.929 . S
C246 O236 1.282 . S
C246 O247 1.216 . S
O247 C246 1.216 . S
H248 C243 0.930 . S
H249 C244 0.930 . S
O250 Cu230 1.959 . S
O250 C237 1.251 . S
H251 C234 0.930 . S
H252 C245 0.929 . S
Cu253 N254 1.999 . S
Cu253 O259 1.974 . S
Cu253 N264 1.985 . S
Cu253 O273 1.959 . S
N254 Cu253 1.999 . S
N254 C256 1.263 . S
N254 C258 1.389 . S
N255 C256 1.358 . S
N255 C257 1.400 . S
C256 N254 1.263 . S
C256 N255 1.358 . S
C256 H262 0.930 . S
C257 N255 1.400 . S
C257 C258 1.351 . S
C257 H274 0.930 . S
C258 N254 1.389 . S
C258 C257 1.351 . S
C258 H263 0.930 . S
O259 Cu253 1.974 . S
O259 C269 1.282 . S
C260 O261 1.261 . S
C260 O273 1.251 . S
O261 C260 1.261 . S
H262 C256 0.930 . S
H263 C258 0.930 . S
N264 Cu253 1.985 . S
N264 C266 1.335 . S
N264 C267 1.390 . S
N265 C266 1.345 . S
N265 C268 1.336 . S
C266 N264 1.335 . S
C266 N265 1.345 . S
C266 H271 0.930 . S
C267 N264 1.390 . S
C267 C268 1.346 . S
C267 H272 0.930 . S
C268 N265 1.336 . S
C268 C267 1.346 . S
C268 H275 0.929 . S
C269 O259 1.282 . S
C269 O270 1.216 . S
O270 C269 1.216 . S
H271 C266 0.930 . S
H272 C267 0.930 . S
O273 Cu253 1.959 . S
O273 C260 1.251 . S
H274 C257 0.930 . S
H275 C268 0.929 . S
C276 C277 1.363 . S
C276 C282 1.379 . S
C276 N284 1.356 . S
C277 C276 1.363 . S
C277 C283 1.363 . S
C278 C279 1.363 . S
C278 C283 1.379 . S
C278 N285 1.356 . S
C279 C278 1.363 . S
C279 C282 1.363 . S
N280 C282 1.356 . S
N280 H292 0.984 . S
N280 H293 0.985 . S
N281 C283 1.356 . S
N281 H286 0.984 . S
N281 H287 0.985 . S
C282 C276 1.379 . S
C282 C279 1.363 . S
C282 N280 1.356 . S
C283 C277 1.363 . S
C283 C278 1.379 . S
C283 N281 1.356 . S
N284 C276 1.356 . S
N284 H290 0.984 . S
N284 H291 0.984 . S
N285 C278 1.356 . S
N285 H288 0.984 . S
N285 H289 0.985 . S
H286 N281 0.984 . S
H287 N281 0.985 . S
H288 N285 0.984 . S
H289 N285 0.985 . S
H290 N284 0.984 . S
H291 N284 0.984 . S
H292 N280 0.984 . S
H293 N280 0.985 . S
C294 C295 1.363 . S
C294 C300 1.379 . S
C294 N302 1.356 . S
C295 C294 1.363 . S
C295 C301 1.363 . S
C296 C297 1.363 . S
C296 C301 1.379 . S
C296 N303 1.356 . S
C297 C296 1.363 . S
C297 C300 1.363 . S
N298 C300 1.356 . S
N298 H310 0.984 . S
N298 H311 0.985 . S
N299 C301 1.356 . S
N299 H304 0.984 . S
N299 H305 0.985 . S
C300 C294 1.379 . S
C300 C297 1.363 . S
C300 N298 1.356 . S
C301 C295 1.363 . S
C301 C296 1.379 . S
C301 N299 1.356 . S
N302 C294 1.356 . S
N302 H308 0.984 . S
N302 H309 0.984 . S
N303 C296 1.356 . S
N303 H306 0.984 . S
N303 H307 0.985 . S
H304 N299 0.984 . S
H305 N299 0.985 . S
H306 N303 0.984 . S
H307 N303 0.985 . S
H308 N302 0.984 . S
H309 N302 0.984 . S
H310 N298 0.984 . S
H311 N298 0.985 . S
C312 C313 1.363 . S
C312 C318 1.379 . S
C312 N320 1.356 . S
C313 C312 1.363 . S
C313 C319 1.363 . S
C314 C315 1.363 . S
C314 C319 1.379 . S
C314 N321 1.356 . S
C315 C314 1.363 . S
C315 C318 1.363 . S
N316 C318 1.356 . S
N316 H328 0.984 . S
N316 H329 0.985 . S
N317 C319 1.356 . S
N317 H322 0.984 . S
N317 H323 0.985 . S
C318 C312 1.379 . S
C318 C315 1.363 . S
C318 N316 1.356 . S
C319 C313 1.363 . S
C319 C314 1.379 . S
C319 N317 1.356 . S
N320 C312 1.356 . S
N320 H326 0.984 . S
N320 H327 0.984 . S
N321 C314 1.356 . S
N321 H324 0.984 . S
N321 H325 0.985 . S
H322 N317 0.984 . S
H323 N317 0.985 . S
H324 N321 0.984 . S
H325 N321 0.985 . S
H326 N320 0.984 . S
H327 N320 0.984 . S
H328 N316 0.984 . S
H329 N316 0.985 . S
C330 C331 1.363 . S
C330 C336 1.379 . S
C330 N338 1.356 . S
C331 C330 1.363 . S
C331 C337 1.363 . S
C332 C333 1.363 . S
C332 C337 1.379 . S
C332 N339 1.356 . S
C333 C332 1.363 . S
C333 C336 1.363 . S
N334 C336 1.356 . S
N334 H346 0.984 . S
N334 H347 0.985 . S
N335 C337 1.356 . S
N335 H340 0.984 . S
N335 H341 0.985 . S
C336 C330 1.379 . S
C336 C333 1.363 . S
C336 N334 1.356 . S
C337 C331 1.363 . S
C337 C332 1.379 . S
C337 N335 1.356 . S
N338 C330 1.356 . S
N338 H344 0.984 . S
N338 H345 0.984 . S
N339 C332 1.356 . S
N339 H342 0.984 . S
N339 H343 0.985 . S
H340 N335 0.984 . S
H341 N335 0.985 . S
H342 N339 0.984 . S
H343 N339 0.985 . S
H344 N338 0.984 . S
H345 N338 0.984 . S
H346 N334 0.984 . S
H347 N334 0.985 . S
C348 C349 1.363 . S
C348 C354 1.379 . S
C348 N356 1.356 . S
C349 C348 1.363 . S
C349 C355 1.363 . S
C350 C351 1.363 . S
C350 C355 1.379 . S
C350 N357 1.356 . S
C351 C350 1.363 . S
C351 C354 1.363 . S
N352 C354 1.356 . S
N352 H364 0.984 . S
N352 H365 0.985 . S
N353 C355 1.356 . S
N353 H358 0.984 . S
N353 H359 0.985 . S
C354 C348 1.379 . S
C354 C351 1.363 . S
C354 N352 1.356 . S
C355 C349 1.363 . S
C355 C350 1.379 . S
C355 N353 1.356 . S
N356 C348 1.356 . S
N356 H362 0.984 . S
N356 H363 0.984 . S
N357 C350 1.356 . S
N357 H360 0.984 . S
N357 H361 0.985 . S
H358 N353 0.984 . S
H359 N353 0.985 . S
H360 N357 0.984 . S
H361 N357 0.985 . S
H362 N356 0.984 . S
H363 N356 0.984 . S
H364 N352 0.984 . S
H365 N352 0.985 . S
C366 C367 1.363 . S
C366 C372 1.379 . S
C366 N374 1.356 . S
C367 C366 1.363 . S
C367 C373 1.363 . S
C368 C369 1.363 . S
C368 C373 1.379 . S
C368 N375 1.356 . S
C369 C368 1.363 . S
C369 C372 1.363 . S
N370 C372 1.356 . S
N370 H382 0.984 . S
N370 H383 0.985 . S
N371 C373 1.356 . S
N371 H376 0.984 . S
N371 H377 0.985 . S
C372 C366 1.379 . S
C372 C369 1.363 . S
C372 N370 1.356 . S
C373 C367 1.363 . S
C373 C368 1.379 . S
C373 N371 1.356 . S
N374 C366 1.356 . S
N374 H380 0.984 . S
N374 H381 0.984 . S
N375 C368 1.356 . S
N375 H378 0.984 . S
N375 H379 0.985 . S
H376 N371 0.984 . S
H377 N371 0.985 . S
H378 N375 0.984 . S
H379 N375 0.985 . S
H380 N374 0.984 . S
H381 N374 0.984 . S
H382 N370 0.984 . S
H383 N370 0.985 . S
C384 C385 1.363 . S
C384 C390 1.379 . S
C384 N392 1.356 . S
C385 C384 1.363 . S
C385 C391 1.363 . S
C386 C387 1.363 . S
C386 C391 1.379 . S
C386 N393 1.356 . S
C387 C386 1.363 . S
C387 C390 1.363 . S
N388 C390 1.356 . S
N388 H400 0.984 . S
N388 H401 0.985 . S
N389 C391 1.356 . S
N389 H394 0.984 . S
N389 H395 0.985 . S
C390 C384 1.379 . S
C390 C387 1.363 . S
C390 N388 1.356 . S
C391 C385 1.363 . S
C391 C386 1.379 . S
C391 N389 1.356 . S
N392 C384 1.356 . S
N392 H398 0.984 . S
N392 H399 0.984 . S
N393 C386 1.356 . S
N393 H396 0.984 . S
N393 H397 0.985 . S
H394 N389 0.984 . S
H395 N389 0.985 . S
H396 N393 0.984 . S
H397 N393 0.985 . S
H398 N392 0.984 . S
H399 N392 0.984 . S
H400 N388 0.984 . S
H401 N388 0.985 . S
C402 C403 1.363 . S
C402 C408 1.379 . S
C402 N410 1.356 . S
C403 C402 1.363 . S
C403 C409 1.363 . S
C404 C405 1.363 . S
C404 C409 1.379 . S
C404 N411 1.356 . S
C405 C404 1.363 . S
C405 C408 1.363 . S
N406 C408 1.356 . S
N406 H418 0.984 . S
N406 H419 0.985 . S
N407 C409 1.356 . S
N407 H412 0.984 . S
N407 H413 0.985 . S
C408 C402 1.379 . S
C408 C405 1.363 . S
C408 N406 1.356 . S
C409 C403 1.363 . S
C409 C404 1.379 . S
C409 N407 1.356 . S
N410 C402 1.356 . S
N410 H416 0.984 . S
N410 H417 0.984 . S
N411 C404 1.356 . S
N411 H414 0.984 . S
N411 H415 0.985 . S
H412 N407 0.984 . S
H413 N407 0.985 . S
H414 N411 0.984 . S
H415 N411 0.985 . S
H416 N410 0.984 . S
H417 N410 0.984 . S
H418 N406 0.984 . S
H419 N406 0.985 . S
C420 C421 1.363 . S
C420 C426 1.379 . S
C420 N428 1.356 . S
C421 C420 1.363 . S
C421 C427 1.363 . S
C422 C423 1.363 . S
C422 C427 1.379 . S
C422 N429 1.356 . S
C423 C422 1.363 . S
C423 C426 1.363 . S
N424 C426 1.356 . S
N424 H436 0.984 . S
N424 H437 0.985 . S
N425 C427 1.356 . S
N425 H430 0.984 . S
N425 H431 0.985 . S
C426 C420 1.379 . S
C426 C423 1.363 . S
C426 N424 1.356 . S
C427 C421 1.363 . S
C427 C422 1.379 . S
C427 N425 1.356 . S
N428 C420 1.356 . S
N428 H434 0.984 . S
N428 H435 0.984 . S
N429 C422 1.356 . S
N429 H432 0.984 . S
N429 H433 0.985 . S
H430 N425 0.984 . S
H431 N425 0.985 . S
H432 N429 0.984 . S
H433 N429 0.985 . S
H434 N428 0.984 . S
H435 N428 0.984 . S
H436 N424 0.984 . S
H437 N424 0.985 . S
C438 C439 1.363 . S
C438 C444 1.379 . S
C438 N446 1.356 . S
C439 C438 1.363 . S
C439 C445 1.363 . S
C440 C441 1.363 . S
C440 C445 1.379 . S
C440 N447 1.356 . S
C441 C440 1.363 . S
C441 C444 1.363 . S
N442 C444 1.356 . S
N442 H454 0.984 . S
N442 H455 0.985 . S
N443 C445 1.356 . S
N443 H448 0.984 . S
N443 H449 0.985 . S
C444 C438 1.379 . S
C444 C441 1.363 . S
C444 N442 1.356 . S
C445 C439 1.363 . S
C445 C440 1.379 . S
C445 N443 1.356 . S
N446 C438 1.356 . S
N446 H452 0.984 . S
N446 H453 0.984 . S
N447 C440 1.356 . S
N447 H450 0.984 . S
N447 H451 0.985 . S
H448 N443 0.984 . S
H449 N443 0.985 . S
H450 N447 0.984 . S
H451 N447 0.985 . S
H452 N446 0.984 . S
H453 N446 0.984 . S
H454 N442 0.984 . S
H455 N442 0.985 . S
C456 C457 1.363 . S
C456 C462 1.379 . S
C456 N464 1.356 . S
C457 C456 1.363 . S
C457 C463 1.363 . S
C458 C459 1.363 . S
C458 C463 1.379 . S
C458 N465 1.356 . S
C459 C458 1.363 . S
C459 C462 1.363 . S
N460 C462 1.356 . S
N460 H472 0.984 . S
N460 H473 0.985 . S
N461 C463 1.356 . S
N461 H466 0.984 . S
N461 H467 0.985 . S
C462 C456 1.379 . S
C462 C459 1.363 . S
C462 N460 1.356 . S
C463 C457 1.363 . S
C463 C458 1.379 . S
C463 N461 1.356 . S
N464 C456 1.356 . S
N464 H470 0.984 . S
N464 H471 0.984 . S
N465 C458 1.356 . S
N465 H468 0.984 . S
N465 H469 0.985 . S
H466 N461 0.984 . S
H467 N461 0.985 . S
H468 N465 0.984 . S
H469 N465 0.985 . S
H470 N464 0.984 . S
H471 N464 0.984 . S
H472 N460 0.984 . S
H473 N460 0.985 . S
C474 C475 1.363 . S
C474 C480 1.379 . S
C474 N482 1.356 . S
C475 C474 1.363 . S
C475 C481 1.363 . S
C476 C477 1.363 . S
C476 C481 1.379 . S
C476 N483 1.356 . S
C477 C476 1.363 . S
C477 C480 1.363 . S
N478 C480 1.356 . S
N478 H490 0.984 . S
N478 H491 0.985 . S
N479 C481 1.356 . S
N479 H484 0.984 . S
N479 H485 0.985 . S
C480 C474 1.379 . S
C480 C477 1.363 . S
C480 N478 1.356 . S
C481 C475 1.363 . S
C481 C476 1.379 . S
C481 N479 1.356 . S
N482 C474 1.356 . S
N482 H488 0.984 . S
N482 H489 0.984 . S
N483 C476 1.356 . S
N483 H486 0.984 . S
N483 H487 0.985 . S
H484 N479 0.984 . S
H485 N479 0.985 . S
H486 N483 0.984 . S
H487 N483 0.985 . S
H488 N482 0.984 . S
H489 N482 0.984 . S
H490 N478 0.984 . S
H491 N478 0.985 . S
C492 C493 1.363 . S
C492 C498 1.379 . S
C492 N500 1.356 . S
C493 C492 1.363 . S
C493 C499 1.363 1_655 S
C494 C495 1.363 . S
C494 C499 1.379 . S
C494 N501 1.356 . S
C495 C494 1.363 . S
C495 C498 1.363 1_455 S
N496 C498 1.356 . S
N496 H508 0.984 . S
N496 H509 0.984 1_655 S
N497 C499 1.356 . S
N497 H502 0.984 . S
N497 H503 0.985 . S
C498 C492 1.379 . S
C498 C495 1.363 1_655 S
C498 N496 1.356 . S
C499 C493 1.363 1_455 S
C499 C494 1.379 . S
C499 N497 1.356 . S
N500 C492 1.356 . S
N500 H506 0.984 . S
N500 H507 0.984 . S
N501 C494 1.356 . S
N501 H504 0.984 . S
N501 H505 0.985 . S
H502 N497 0.984 . S
H503 N497 0.985 . S
H504 N501 0.984 . S
H505 N501 0.985 . S
H506 N500 0.984 . S
H507 N500 0.984 . S
H508 N496 0.984 . S
H509 N496 0.984 1_455 S
C510 C511 1.363 . S
C510 C516 1.379 . S
C510 N518 1.356 . S
C511 C510 1.363 . S
C511 C517 1.363 1_565 S
C512 C513 1.363 . S
C512 C517 1.379 1_565 S
C512 N519 1.356 1_565 S
C513 C512 1.363 . S
C513 C516 1.363 . S
N514 C516 1.356 . S
N514 H526 0.984 . S
N514 H527 0.985 . S
N515 C517 1.356 . S
N515 H520 0.984 . S
N515 H521 0.985 . S
C516 C510 1.379 . S
C516 C513 1.363 . S
C516 N514 1.356 . S
C517 C511 1.363 1_545 S
C517 C512 1.379 1_545 S
C517 N515 1.356 . S
N518 C510 1.356 . S
N518 H524 0.984 . S
N518 H525 0.984 . S
N519 C512 1.356 1_545 S
N519 H522 0.984 . S
N519 H523 0.985 . S
H520 N515 0.984 . S
H521 N515 0.985 . S
H522 N519 0.984 . S
H523 N519 0.985 . S
H524 N518 0.984 . S
H525 N518 0.984 . S
H526 N514 0.984 . S
H527 N514 0.985 . S
C528 C529 1.363 1_655 S
C528 C534 1.379 . S
C528 N536 1.356 . S
C529 C528 1.363 1_455 S
C529 C535 1.363 . S
C530 C531 1.363 1_455 S
C530 C535 1.379 . S
C530 N537 1.356 . S
C531 C530 1.363 1_655 S
C531 C534 1.363 . S
N532 C534 1.356 . S
N532 H544 0.984 . S
N532 H545 0.985 . S
N533 C535 1.356 . S
N533 H538 0.984 . S
N533 H539 0.985 . S
C534 C528 1.379 . S
C534 C531 1.363 . S
C534 N532 1.356 . S
C535 C529 1.363 . S
C535 C530 1.379 . S
C535 N533 1.356 . S
N536 C528 1.356 . S
N536 H542 0.984 . S
N536 H543 0.984 . S
N537 C530 1.356 . S
N537 H540 0.984 . S
N537 H541 0.985 . S
H538 N533 0.984 . S
H539 N533 0.985 . S
H540 N537 0.984 . S
H541 N537 0.985 . S
H542 N536 0.984 . S
H543 N536 0.984 . S
H544 N532 0.984 . S
H545 N532 0.985 . S
C546 C547 1.363 . S
C546 C552 1.379 . S
C546 N554 1.356 . S
C547 C546 1.363 . S
C547 C553 1.363 1_545 S
C548 C549 1.363 . S
C548 C553 1.379 . S
C548 N555 1.356 . S
C549 C548 1.363 . S
C549 C552 1.363 1_565 S
N550 C552 1.356 . S
N550 H562 0.984 . S
N550 H563 0.985 . S
N551 C553 1.356 . S
N551 H556 0.984 . S
N551 H557 0.985 . S
C552 C546 1.379 . S
C552 C549 1.363 1_545 S
C552 N550 1.356 . S
C553 C547 1.363 1_565 S
C553 C548 1.379 . S
C553 N551 1.356 . S
N554 C546 1.356 . S
N554 H560 0.984 . S
N554 H561 0.984 . S
N555 C548 1.356 . S
N555 H558 0.984 . S
N555 H559 0.985 . S
H556 N551 0.984 . S
H557 N551 0.985 . S
H558 N555 0.984 . S
H559 N555 0.985 . S
H560 N554 0.984 . S
H561 N554 0.984 . S
H562 N550 0.984 . S
H563 N550 0.985 . S
C564 C565 1.363 1_565 S
C564 C570 1.379 . S
C564 N572 1.356 . S
C565 C564 1.363 1_545 S
C565 C571 1.363 . S
C566 C567 1.363 . S
C566 C571 1.379 . S
C566 N573 1.356 . S
C567 C566 1.363 . S
C567 C570 1.363 1_545 S
N568 C570 1.356 . S
N568 H580 0.984 . S
N568 H581 0.985 . S
N569 C571 1.356 . S
N569 H574 0.984 . S
N569 H575 0.985 . S
C570 C564 1.379 . S
C570 C567 1.363 1_565 S
C570 N568 1.356 . S
C571 C565 1.363 . S
C571 C566 1.379 . S
C571 N569 1.356 . S
N572 C564 1.356 . S
N572 H578 0.984 . S
N572 H579 0.987 . S
N573 C566 1.356 . S
N573 H576 0.984 . S
N573 H577 0.985 . S
H574 N569 0.984 . S
H575 N569 0.985 . S
H576 N573 0.984 . S
H577 N573 0.985 . S
H578 N572 0.984 . S
H579 N572 0.987 . S
H580 N568 0.984 . S
H581 N568 0.985 . S
C582 C583 1.363 1_655 S
C582 C588 1.379 . S
C582 N590 1.356 . S
C583 C582 1.363 1_455 S
C583 C589 1.363 . S
C584 C585 1.363 . S
C584 C589 1.379 . S
C584 N591 1.356 . S
C585 C584 1.363 . S
C585 C588 1.363 1_455 S
N586 C588 1.356 . S
N586 H598 0.984 . S
N586 H599 0.985 . S
N587 C589 1.356 . S
N587 H592 0.984 . S
N587 H593 0.985 . S
C588 C582 1.379 . S
C588 C585 1.363 1_655 S
C588 N586 1.356 . S
C589 C583 1.363 . S
C589 C584 1.379 . S
C589 N587 1.356 . S
N590 C582 1.356 . S
N590 H596 0.984 . S
N590 H597 0.984 . S
N591 C584 1.356 . S
N591 H594 0.984 . S
N591 H595 0.985 . S
H592 N587 0.984 . S
H593 N587 0.985 . S
H594 N591 0.984 . S
H595 N591 0.985 . S
H596 N590 0.984 . S
H597 N590 0.984 . S
H598 N586 0.984 . S
H599 N586 0.985 . S
C600 C601 1.372 . S
C600 C606 1.379 . S
C600 N608 1.356 . S
C601 C600 1.372 . S
C601 C607 1.362 1_565 S
C602 C603 1.363 . S
C602 C607 1.379 1_565 S
C602 N609 1.356 . S
C603 C602 1.363 . S
C603 C606 1.363 . S
N604 C606 1.356 . S
N604 H616 0.984 . S
N604 H617 0.985 . S
N605 C607 1.356 . S
N605 H610 0.984 . S
N605 H611 0.985 . S
C606 C600 1.379 . S
C606 C603 1.363 . S
C606 N604 1.356 . S
C607 C601 1.362 1_545 S
C607 C602 1.379 1_545 S
C607 N605 1.356 . S
N608 C600 1.356 . S
N608 H614 0.984 . S
N608 H615 0.984 . S
N609 C602 1.356 . S
N609 H612 0.984 . S
N609 H613 0.987 . S
H610 N605 0.984 . S
H611 N605 0.985 . S
H612 N609 0.984 . S
H613 N609 0.987 . S
H614 N608 0.984 . S
H615 N608 0.984 . S
H616 N604 0.984 . S
H617 N604 0.985 . S
C618 C619 1.363 1_455 S
C618 C624 1.379 . S
C618 N626 1.356 . S
C619 C618 1.363 1_655 S
C619 C625 1.363 . S
C620 C621 1.363 . S
C620 C625 1.379 . S
C620 N627 1.356 . S
C621 C620 1.363 . S
C621 C624 1.363 1_655 S
N622 C624 1.356 . S
N622 H634 0.984 . S
N622 H635 0.985 . S
N623 C625 1.356 . S
N623 H628 0.984 . S
N623 H629 0.985 . S
C624 C618 1.379 . S
C624 C621 1.363 1_455 S
C624 N622 1.356 . S
C625 C619 1.363 . S
C625 C620 1.379 . S
C625 N623 1.356 . S
N626 C618 1.356 . S
N626 H632 0.984 . S
N626 H633 0.984 . S
N627 C620 1.356 . S
N627 H630 0.984 . S
N627 H631 0.985 . S
H628 N623 0.984 . S
H629 N623 0.985 . S
H630 N627 0.984 . S
H631 N627 0.985 . S
H632 N626 0.984 . S
H633 N626 0.984 . S
H634 N622 0.984 . S
H635 N622 0.985 . S
C636 C637 1.363 . S
C636 C642 1.379 . S
C636 N644 1.356 . S
C637 C636 1.363 . S
C637 C643 1.363 1_554 S
C638 C639 1.363 1_556 S
C638 C643 1.379 . S
C638 N645 1.356 . S
C639 C638 1.363 1_554 S
C639 C642 1.363 . S
N640 C642 1.356 . S
N640 H652 0.984 . S
N640 H653 0.985 . S
N641 C643 1.356 . S
N641 H646 0.984 . S
N641 H647 0.985 . S
C642 C636 1.379 . S
C642 C639 1.363 . S
C642 N640 1.356 . S
C643 C637 1.363 1_556 S
C643 C638 1.379 . S
C643 N641 1.356 . S
N644 C636 1.356 . S
N644 H650 0.984 . S
N644 H651 0.984 . S
N645 C638 1.356 . S
N645 H648 0.984 . S
N645 H649 0.985 . S
H646 N641 0.984 . S
H647 N641 0.985 . S
H648 N645 0.984 . S
H649 N645 0.985 . S
H650 N644 0.984 . S
H651 N644 0.984 . S
H652 N640 0.984 . S
H653 N640 0.985 . S
C654 C655 1.363 1_554 S
C654 C660 1.379 . S
C654 N662 1.356 . S
C655 C654 1.363 1_556 S
C655 C661 1.363 . S
C656 C657 1.363 1_556 S
C656 C661 1.379 . S
C656 N663 1.356 . S
C657 C656 1.363 1_554 S
C657 C660 1.363 . S
N658 C660 1.356 . S
N658 H670 0.984 . S
N658 H671 0.985 . S
N659 C661 1.356 . S
N659 H664 0.984 . S
N659 H665 0.985 . S
C660 C654 1.379 . S
C660 C657 1.363 . S
C660 N658 1.356 . S
C661 C655 1.363 . S
C661 C656 1.379 . S
C661 N659 1.356 . S
N662 C654 1.356 . S
N662 H668 0.984 . S
N662 H669 0.984 . S
N663 C656 1.356 . S
N663 H666 0.984 . S
N663 H667 0.985 . S
H664 N659 0.984 . S
H665 N659 0.985 . S
H666 N663 0.984 . S
H667 N663 0.985 . S
H668 N662 0.984 . S
H669 N662 0.984 . S
H670 N658 0.984 . S
H671 N658 0.985 . S
C672 C673 1.363 1_554 S
C672 C678 1.379 . S
C672 N680 1.356 . S
C673 C672 1.363 1_556 S
C673 C679 1.363 . S
C674 C675 1.359 1_556 S
C674 C679 1.379 . S
C674 N681 1.356 . S
C675 C674 1.359 1_554 S
C675 C678 1.366 . S
N676 C678 1.356 . S
N676 H688 0.984 . S
N676 H689 0.985 . S
N677 C679 1.356 . S
N677 H682 0.984 . S
N677 H683 0.985 . S
C678 C672 1.379 . S
C678 C675 1.366 . S
C678 N676 1.356 . S
C679 C673 1.363 . S
C679 C674 1.379 . S
C679 N677 1.356 . S
N680 C672 1.356 . S
N680 H686 0.984 . S
N680 H687 0.984 . S
N681 C674 1.356 . S
N681 H684 0.984 . S
N681 H685 0.985 . S
H682 N677 0.984 . S
H683 N677 0.985 . S
H684 N681 0.984 . S
H685 N681 0.985 . S
H686 N680 0.984 . S
H687 N680 0.984 . S
H688 N676 0.984 . S
H689 N676 0.985 . S
C690 C691 1.363 1_556 S
C690 C696 1.379 . S
C690 N698 1.356 . S
C691 C690 1.363 1_554 S
C691 C697 1.363 . S
C692 C693 1.363 1_554 S
C692 C697 1.379 . S
C692 N699 1.356 . S
C693 C692 1.363 1_556 S
C693 C696 1.363 . S
N694 C696 1.356 . S
N694 H706 0.984 . S
N694 H707 0.985 . S
N695 C697 1.356 . S
N695 H700 0.984 . S
N695 H701 0.985 . S
C696 C690 1.379 . S
C696 C693 1.363 . S
C696 N694 1.356 . S
C697 C691 1.363 . S
C697 C692 1.379 . S
C697 N695 1.356 . S
N698 C690 1.356 . S
N698 H704 0.984 . S
N698 H705 0.984 . S
N699 C692 1.356 . S
N699 H702 0.986 . S
N699 H703 0.985 . S
H700 N695 0.984 . S
H701 N695 0.985 . S
H702 N699 0.986 . S
H703 N699 0.985 . S
H704 N698 0.984 . S
H705 N698 0.984 . S
H706 N694 0.984 . S
H707 N694 0.985 . S
C277 N12 1.455 . S
C279 C177 1.506 . S
C295 N25 1.420 . S
C297 C108 1.457 . S
C313 N117 1.439 . S
C315 C62 1.476 . S
C331 N140 1.357 . S
C333 N71 1.357 . S
C349 N186 1.359 . S
C351 N163 1.356 . S
C367 C223 1.476 . S
C369 N94 1.455 . S
C385 N242 1.526 . S
C387 C131 1.531 . S
C403 C260 1.683 . S
C405 C154 1.693 . S
C421 C39 1.532 . S
C423 N209 1.531 . S
C439 C237 1.473 . S
C441 N48 1.466 . S
C457 C85 1.467 . S
C459 N265 1.448 . S
C475 C200 1.657 . S
C477 C7 1.657 . S
C493 C145 1.573 . S
C495 C16 1.538 . S
C511 N173 1.749 1_565 S
C513 C30 1.839 . S
C529 N104 1.336 . S
C531 N58 1.330 . S
C547 C76 1.953 . S
C549 C122 1.949 . S
C565 C168 1.604 . S
C567 N127 1.554 1_545 S
C583 C99 1.796 . S
C585 N150 1.700 1_455 S
C601 N81 1.426 1_565 S
C603 N35 1.468 . S
C619 C53 1.795 . S
C621 N2 1.757 1_655 S
C637 N196 1.408 . S
C639 N219 1.410 1_554 S
C655 C214 1.837 . S
C657 C246 1.858 . S
C673 N255 1.397 . S
C675 N232 1.401 . S
C691 C191 1.765 . S
C693 C269 1.779 . S
