# Generated by pormake.
# Topology vby, (6)-cn, num edge types: 1
# Building blocks:
#     Node 0, Type 0, BuildingBlock: JUFBIX_clean_sbu_0, # of connection points: 6
#     Node 1, Type 0, BuildingBlock: JUFBIX_clean_sbu_0, # of connection points: 6
#     Node 2, Type 0, BuildingBlock: JUFBIX_clean_sbu_0, # of connection points: 6
#     Node 3, Type 0, BuildingBlock: JUFBIX_clean_sbu_0, # of connection points: 6
#     Node 4, Type 0, BuildingBlock: JUFBIX_clean_sbu_0, # of connection points: 6
#     Node 5, Type 0, BuildingBlock: JUFBIX_clean_sbu_0, # of connection points: 6
#     Node 6, Type 0, BuildingBlock: JUFBIX_clean_sbu_0, # of connection points: 6
#     Node 7, Type 0, BuildingBlock: JUFBIX_clean_sbu_0, # of connection points: 6
#     Edge 8, Type (0, 0), BuildingBlock: EYOCIG_clean_linker_4, # of connection points: 2
#     Edge 9, Type (0, 0), BuildingBlock: EYOCIG_clean_linker_4, # of connection points: 2
#     Edge 10, Type (0, 0), BuildingBlock: EYOCIG_clean_linker_4, # of connection points: 2
#     Edge 11, Type (0, 0), BuildingBlock: EYOCIG_clean_linker_4, # of connection points: 2
#     Edge 12, Type (0, 0), BuildingBlock: EYOCIG_clean_linker_4, # of connection points: 2
#     Edge 13, Type (0, 0), BuildingBlock: EYOCIG_clean_linker_4, # of connection points: 2
#     Edge 14, Type (0, 0), BuildingBlock: EYOCIG_clean_linker_4, # of connection points: 2
#     Edge 15, Type (0, 0), BuildingBlock: EYOCIG_clean_linker_4, # of connection points: 2
#     Edge 16, Type (0, 0), BuildingBlock: EYOCIG_clean_linker_4, # of connection points: 2
#     Edge 17, Type (0, 0), BuildingBlock: EYOCIG_clean_linker_4, # of connection points: 2
#     Edge 18, Type (0, 0), BuildingBlock: EYOCIG_clean_linker_4, # of connection points: 2
#     Edge 19, Type (0, 0), BuildingBlock: EYOCIG_clean_linker_4, # of connection points: 2
#     Edge 20, Type (0, 0), BuildingBlock: EYOCIG_clean_linker_4, # of connection points: 2
#     Edge 21, Type (0, 0), BuildingBlock: EYOCIG_clean_linker_4, # of connection points: 2
#     Edge 22, Type (0, 0), BuildingBlock: EYOCIG_clean_linker_4, # of connection points: 2
#     Edge 23, Type (0, 0), BuildingBlock: EYOCIG_clean_linker_4, # of connection points: 2
#     Edge 24, Type (0, 0), BuildingBlock: EYOCIG_clean_linker_4, # of connection points: 2
#     Edge 25, Type (0, 0), BuildingBlock: EYOCIG_clean_linker_4, # of connection points: 2
#     Edge 26, Type (0, 0), BuildingBlock: EYOCIG_clean_linker_4, # of connection points: 2
#     Edge 27, Type (0, 0), BuildingBlock: EYOCIG_clean_linker_4, # of connection points: 2
#     Edge 28, Type (0, 0), BuildingBlock: EYOCIG_clean_linker_4, # of connection points: 2
#     Edge 29, Type (0, 0), BuildingBlock: EYOCIG_clean_linker_4, # of connection points: 2
#     Edge 30, Type (0, 0), BuildingBlock: EYOCIG_clean_linker_4, # of connection points: 2
#     Edge 31, Type (0, 0), BuildingBlock: EYOCIG_clean_linker_4, # of connection points: 2
# Relax obj value: 0.182
# Max RMSD: 0.172
# Mean RMSD: 0.172
data_MOF--net-vby--node1-JUFBIX_clean_sbu_0--edge1-EYOCIG_clean_linker_4
_symmetry_space_group_name_H-M    P1
_symmetry_Int_Tables_number       1
_symmetry_cell_setting            triclinic
loop_
_symmetry_equiv_pos_as_xyz
'x, y, z'
_cell_length_a     16.300818
_cell_length_b     42.9488
_cell_length_c     22.76013
_cell_angle_alpha  89.999038
_cell_angle_beta   93.829453
_cell_angle_gamma 89.997835
loop_
_atom_site_label
_atom_site_type_symbol
_atom_site_fract_x
_atom_site_fract_y
_atom_site_fract_z
_atom_type_partial_charge
Co0 Co 0.02892 0.37054 0.02448 0.0
C1 C 0.09122 0.38184 0.917 0.0
Co2 Co 0.1563 0.38853 0.03249 0.0
C3 C 0.8533 0.37149 0.0328 0.0
C4 C 0.8923 0.33167 0.98529 0.0
N5 N 0.92107 0.35688 1.01562 0.0
N6 N 0.78413 0.3565 1.0139 0.0
C7 C 0.8077 0.33142 0.98419 0.0
H8 H 0.85436 0.39319 0.05705 0.0
H9 H 0.93018 0.31519 0.9635 0.0
C10 C 0.08373 0.37837 0.1396 0.0
N11 N 0.26424 0.40207 0.04136 0.0
C12 C 0.33133 0.38856 1.02059 0.0
C13 C 0.29404 0.42549 0.0762 0.0
N14 N 0.40107 0.40245 0.04168 0.0
C15 C 0.37855 0.42575 0.07643 0.0
C16 C 0.0451 0.43592 0.0278 0.0
O17 O 1.02401 0.36927 0.10576 0.0
O18 O 0.15012 0.38735 0.11801 0.0
O19 O 0.1207 0.42952 0.03187 0.0
O20 O 0.99219 0.41399 0.02418 0.0
O21 O 0.15715 0.38997 0.94664 0.0
H22 H 0.25693 0.44055 0.10176 0.0
H23 H 0.32939 0.36811 0.9927 0.0
O24 O 0.03063 0.37205 0.94329 0.0
O25 O 0.07079 0.32751 0.02468 0.0
O26 O 0.1945 0.34764 0.03304 0.0
C27 C 0.14884 0.32399 0.02873 0.0
H28 H 0.76666 0.31475 0.96189 0.0
H29 H 0.42027 0.44097 0.10184 0.0
Co30 Co 0.89245 0.63725 0.02121 0.0
C31 C 0.96506 0.64741 0.91411 0.0
Co32 Co 1.01983 0.65523 0.02923 0.0
C33 C 0.71742 0.63723 0.0331 0.0
C34 C 0.75471 0.60031 0.97746 0.0
N35 N 0.7845 0.62372 1.01231 0.0
N36 N 0.64768 0.62333 1.012 0.0
C37 C 0.6702 0.60005 0.97723 0.0
H38 H 0.71935 0.65767 0.061 0.0
H39 H 0.79182 0.58525 0.95189 0.0
C40 C 0.95747 0.64395 0.13671 0.0
N41 N 0.12768 0.66889 0.03812 0.0
C42 C 0.19545 0.65428 0.02092 0.0
C43 C 0.15645 0.69407 0.0685 0.0
N44 N 0.26462 0.66926 0.03986 0.0
C45 C 0.24106 0.69433 0.0696 0.0
C46 C 0.89995 0.70179 0.02495 0.0
O47 O 0.89156 0.63582 0.10705 0.0
O48 O 1.01808 0.65373 0.11043 0.0
O49 O 0.97799 0.69827 0.02902 0.0
O50 O 0.85426 0.67815 1.02064 0.0
O51 O 0.02478 0.6565 0.94796 0.0
H52 H 0.11858 0.71055 0.09031 0.0
H53 H 0.19439 0.63259 0.99664 0.0
O54 O 0.89866 0.63843 0.93569 0.0
O55 O 0.92802 0.59626 0.02184 0.0
O56 O 0.05654 0.61178 0.02956 0.0
C57 C 1.00362 0.58985 0.02592 0.0
H58 H 0.62848 0.58482 0.95182 0.0
H59 H 0.2821 0.71099 0.09194 0.0
Co60 Co 0.1562 0.63728 0.53265 0.0
C61 C 0.08359 0.64744 0.63974 0.0
Co62 Co 0.02882 0.65526 0.52462 0.0
C63 C 0.33124 0.63725 0.52077 0.0
C64 C 0.29394 0.60034 0.57641 0.0
N65 N 0.26415 0.62374 0.54155 0.0
N66 N 0.40098 0.62336 0.54189 0.0
C67 C 0.37845 0.60008 0.57666 0.0
H68 H 0.3293 0.6577 0.49286 0.0
H69 H 0.25683 0.58528 0.60198 0.0
C70 C 0.09117 0.64397 0.41715 0.0
N71 N 0.92097 0.66892 0.51574 0.0
C72 C 0.8532 0.65432 0.53295 0.0
C73 C 0.89218 0.69411 0.48537 0.0
N74 N 0.78402 0.6693 0.51403 0.0
C75 C 0.80757 0.69437 0.48428 0.0
C76 C 0.14871 0.70182 0.52887 0.0
O77 O 0.15708 0.63584 0.44681 0.0
O78 O 0.03056 0.65375 0.44343 0.0
O79 O 0.07067 0.6983 0.5248 0.0
O80 O 0.19439 0.67818 0.5332 0.0
O81 O 1.02388 0.65654 0.60589 0.0
H82 H 0.93005 0.71059 0.46355 0.0
H83 H 0.85427 0.63263 0.55723 0.0
O84 O 0.15 0.63846 0.61816 0.0
O85 O 0.12063 0.59629 0.53203 0.0
O86 O 0.99211 0.61182 0.52431 0.0
C87 C 0.04503 0.58988 0.52794 0.0
H88 H 0.42018 0.58486 0.60208 0.0
H89 H 0.76653 0.71103 0.46195 0.0
Co90 Co 1.01994 0.37058 0.5291 0.0
C91 C 0.95754 0.38185 0.63656 0.0
Co92 Co 0.89254 0.38855 0.52104 0.0
C93 C 0.19555 0.37152 0.52078 0.0
C94 C 0.15657 0.33174 0.56839 0.0
N95 N 0.12779 0.35692 0.538 0.0
N96 N 0.26473 0.35655 0.53972 0.0
C97 C 0.24118 0.33148 0.56948 0.0
H98 H 0.19448 0.39321 0.49649 0.0
H99 H 0.1187 0.31527 0.59021 0.0
C100 C 0.9652 0.37839 0.41396 0.0
N101 N 0.7846 0.40208 0.51213 0.0
C102 C 0.71751 0.38857 0.53292 0.0
C103 C 0.7548 0.42548 0.47726 0.0
N104 N 0.64777 0.40246 0.5118 0.0
C105 C 0.67029 0.42574 0.47701 0.0
C106 C 1.00369 0.43595 0.52579 0.0
O107 O 0.02491 0.36931 0.44783 0.0
O108 O 0.89878 0.38737 0.43553 0.0
O109 O 0.9281 0.42954 0.52168 0.0
O110 O 0.05663 0.41402 0.52943 0.0
O111 O 0.89163 0.38998 0.60689 0.0
H112 H 0.79192 0.44053 0.45168 0.0
H113 H 0.71945 0.36813 0.56084 0.0
O114 O 1.01816 0.37208 0.61029 0.0
O115 O 0.97812 0.32754 0.52888 0.0
O116 O 0.85438 0.34765 0.52048 0.0
C117 C 0.90008 0.32401 0.52481 0.0
H118 H 0.28222 0.31483 0.59182 0.0
H119 H 0.62857 0.44096 0.45158 0.0
Co120 Co 0.52894 0.87059 0.02437 0.0
C121 C 0.59133 0.88186 0.9169 0.0
Co122 Co 0.65633 0.88856 0.03241 0.0
C123 C 0.35332 0.87154 0.03266 0.0
C124 C 0.39232 0.83175 0.98508 0.0
N125 N 0.42109 0.85694 1.01546 0.0
N126 N 0.28415 0.85656 1.01372 0.0
C127 C 0.30771 0.8315 0.98397 0.0
H128 H 0.35438 0.89323 0.05695 0.0
H129 H 0.43019 0.81528 0.96327 0.0
C130 C 0.58367 0.87841 0.1395 0.0
N131 N 0.76427 0.90209 0.04132 0.0
C132 C 0.83135 0.88859 1.02052 0.0
C133 C 0.79406 0.92549 0.07619 0.0
N134 N 0.90109 0.90248 0.04163 0.0
C135 C 0.87857 0.92575 0.07642 0.0
C136 C 0.54518 0.93597 0.02767 0.0
O137 O 0.52396 0.86933 0.10563 0.0
O138 O 0.65009 0.88738 0.11793 0.0
O139 O 0.62077 0.92955 0.03177 0.0
O140 O 0.49224 0.91404 0.02403 0.0
O141 O 0.65724 0.88999 0.94657 0.0
H142 H 0.75695 0.94054 0.10177 0.0
H143 H 0.82942 0.86815 0.9926 0.0
O144 O 0.53071 0.87209 0.94318 0.0
O145 O 0.57076 0.82755 0.02459 0.0
O146 O 0.6945 0.84766 0.03299 0.0
C147 C 0.64881 0.82402 0.02868 0.0
H148 H 0.26667 0.81484 0.96164 0.0
H149 H 0.9203 0.94097 0.10185 0.0
Co150 Co 0.39273 0.13729 0.02105 0.0
C151 C 0.4653 0.14745 0.91394 0.0
Co152 Co 0.5201 0.15528 0.02906 0.0
C153 C 0.21769 0.13727 0.03294 0.0
C154 C 0.25499 0.10033 0.97735 0.0
N155 N 0.28478 0.12375 1.01218 0.0
N156 N 0.14795 0.12337 1.01185 0.0
C157 C 0.17048 0.10007 0.97711 0.0
H158 H 0.21962 0.15773 0.06082 0.0
H159 H 0.29211 0.08527 0.9518 0.0
C160 C 0.45779 0.14399 0.13655 0.0
N161 N 0.62795 0.16894 0.03792 0.0
C162 C 0.69572 0.15434 1.02073 0.0
C163 C 0.65672 0.19414 0.06827 0.0
N164 N 0.7649 0.16932 0.03964 0.0
C165 C 0.74133 0.1944 0.06936 0.0
C166 C 0.40019 0.20184 0.0248 0.0
O167 O 0.39187 0.13586 0.1069 0.0
O168 O 0.51838 0.15377 0.11026 0.0
O169 O 0.47824 0.19831 0.02886 0.0
O170 O 0.35452 0.17819 1.02049 0.0
O171 O 0.52502 0.15655 0.94779 0.0
H172 H 0.61885 0.21063 0.09006 0.0
H173 H 0.69466 0.13264 0.99648 0.0
O174 O 0.39891 0.13847 0.93554 0.0
O175 O 0.42831 0.09631 0.02168 0.0
O176 O 0.55683 0.11183 0.02937 0.0
C177 C 0.50391 0.0899 0.02575 0.0
H178 H 0.12876 0.08484 0.95171 0.0
H179 H 0.78237 0.21107 0.09167 0.0
Co180 Co 0.65648 0.13724 0.5325 0.0
C181 C 0.58385 0.14739 0.63959 0.0
Co182 Co 0.52909 0.15522 0.52446 0.0
C183 C 0.83152 0.13722 0.52063 0.0
C184 C 0.79422 0.10029 0.57625 0.0
N185 N 0.76443 0.12371 0.5414 0.0
N186 N 0.90125 0.12332 0.54173 0.0
C187 C 0.87873 0.10003 0.57649 0.0
H188 H 0.82959 0.15767 0.49272 0.0
H189 H 0.7571 0.08524 0.60181 0.0
C190 C 0.59147 0.14394 0.41699 0.0
N191 N 0.42124 0.16888 0.51557 0.0
C192 C 0.35348 0.15427 0.53278 0.0
C193 C 0.39246 0.19406 0.48519 0.0
N194 N 0.2843 0.16925 0.51386 0.0
C195 C 0.30785 0.19432 0.4841 0.0
C196 C 0.64897 0.20178 0.52875 0.0
O197 O 0.65738 0.13581 0.44665 0.0
O198 O 0.53085 0.15372 0.44327 0.0
O199 O 0.57093 0.19826 0.52467 0.0
O200 O 0.69466 0.17814 0.53307 0.0
O201 O 0.52414 0.15649 0.60573 0.0
H202 H 0.43032 0.21054 0.46337 0.0
H203 H 0.35456 0.13258 0.55707 0.0
O204 O 0.65026 0.13842 0.61801 0.0
O205 O 0.62091 0.09625 0.53186 0.0
O206 O 0.49239 0.11178 0.52413 0.0
C207 C 0.54531 0.08984 0.52776 0.0
H208 H 0.92045 0.08481 0.60191 0.0
H209 H 0.2668 0.21097 0.46177 0.0
Co210 Co 0.51991 0.87053 0.52897 0.0
C211 C 0.45762 0.88183 0.63646 0.0
Co212 Co 0.39254 0.88853 0.52097 0.0
C213 C 0.69553 0.87148 0.52063 0.0
C214 C 0.65655 0.83167 0.56815 0.0
N215 N 0.62777 0.85687 0.53782 0.0
N216 N 0.76471 0.85649 0.53953 0.0
C217 C 0.74116 0.83141 0.56923 0.0
H218 H 0.69446 0.89318 0.49639 0.0
H219 H 0.61869 0.81518 0.58994 0.0
C220 C 0.4651 0.87837 0.41385 0.0
N221 N 0.28459 0.90207 0.5121 0.0
C222 C 0.2175 0.88856 0.53285 0.0
C223 C 0.2548 0.9255 0.47728 0.0
N224 N 0.14776 0.90246 0.51176 0.0
C225 C 0.17029 0.92576 0.47704 0.0
C226 C 0.50374 0.93592 0.52567 0.0
O227 O 0.52481 0.86927 0.44769 0.0
O228 O 0.39871 0.88735 0.43545 0.0
O229 O 0.42814 0.92952 0.52159 0.0
O230 O 0.55664 0.91398 0.52928 0.0
O231 O 0.3917 0.88996 0.60682 0.0
H232 H 0.29191 0.94057 0.45174 0.0
H233 H 0.21943 0.86809 0.56072 0.0
O234 O 0.51821 0.87204 0.61016 0.0
O235 O 0.47805 0.8275 0.52878 0.0
O236 O 0.35434 0.84764 0.52041 0.0
C237 C 0.4 0.82399 0.52473 0.0
H238 H 0.7822 0.81474 0.59153 0.0
H239 H 0.12857 0.94099 0.45164 0.0
C240 C 0.55133 0.3843 0.02901 0.0
C241 C 0.48158 0.39247 0.03454 0.0
C242 C 0.6333 0.37471 0.02408 0.0
C243 C 0.7032 0.36644 1.01956 0.0
C244 C 0.41545 0.65106 0.02964 0.0
C245 C 0.34554 0.65932 0.03418 0.0
C246 C 0.49742 0.64148 0.0247 0.0
C247 C 0.56716 0.63331 1.01916 0.0
C248 C 0.6332 0.65109 0.52426 0.0
C249 C 0.70311 0.65936 0.51971 0.0
C250 C 0.55124 0.64151 0.52921 0.0
C251 C 0.48149 0.63334 0.53473 0.0
C252 C 0.49751 0.38432 0.52451 0.0
C253 C 0.56726 0.39249 0.51897 0.0
C254 C 0.41555 0.37474 0.52947 0.0
C255 C 0.34564 0.36648 0.53402 0.0
C256 C 0.05135 0.88434 0.02891 0.0
C257 C 0.98161 0.89251 0.03446 0.0
C258 C 0.13332 0.87477 0.02395 0.0
C259 C 0.20323 0.86651 1.01941 0.0
C260 C 0.99769 0.14153 0.02451 0.0
C261 C 0.06744 0.13335 1.01899 0.0
C262 C 0.91572 0.15111 0.02944 0.0
C263 C 0.84582 0.15938 0.03397 0.0
C264 C 0.13348 0.15104 0.5241 0.0
C265 C 0.20338 0.15931 0.51955 0.0
C266 C 0.05152 0.14146 0.52905 0.0
C267 C 0.98177 0.1333 0.53458 0.0
C268 C 0.91553 0.87471 0.52933 0.0
C269 C 0.84563 0.86644 0.53386 0.0
C270 C 0.9975 0.8843 0.5244 0.0
C271 C 0.06724 0.89247 0.51889 0.0
C272 C 0.02716 0.52935 0.02697 0.0
C273 C 0.02583 0.55747 0.027 0.0
C274 C 1.02152 0.49643 0.02678 0.0
C275 C 1.02286 0.4683 0.02674 0.0
C276 C 0.02718 0.49646 0.52694 0.0
C277 C 0.02588 0.46833 0.52693 0.0
C278 C 1.02151 0.52938 0.52681 0.0
C279 C 1.02282 0.55751 0.52682 0.0
C280 C 0.52171 0.99648 0.02661 0.0
C281 C 0.52299 0.96835 0.02658 0.0
C282 C 0.52742 0.02939 0.02679 0.0
C283 C 0.52613 0.05752 0.02682 0.0
C284 C 0.52174 0.02934 0.52663 0.0
C285 C 0.52309 0.05747 0.52664 0.0
C286 C 0.52735 0.99642 0.52677 0.0
C287 C 0.52598 0.96829 0.52677 0.0
C288 C 0.24133 0.27375 0.0269 0.0
C289 C 0.18973 0.29414 0.02714 0.0
C290 C 0.30771 0.25208 0.02663 0.0
C291 C 0.35931 0.23168 0.0264 0.0
C292 C 0.7412 0.77375 0.02692 0.0
C293 C 0.68965 0.79417 0.02712 0.0
C294 C 0.80754 0.75206 0.02671 0.0
C295 C 0.8591 0.73165 0.0265 0.0
C296 C 0.24116 0.75207 0.52695 0.0
C297 C 0.18958 0.73167 0.52722 0.0
C298 C 0.30753 0.77374 0.52664 0.0
C299 C 0.35912 0.79414 0.52636 0.0
C300 C 0.80769 0.27374 0.52664 0.0
C301 C 0.85924 0.29415 0.52641 0.0
C302 C 0.74137 0.25205 0.52691 0.0
C303 C 0.68981 0.23163 0.52715 0.0
C304 C 0.04356 0.3807 0.24965 0.0
C305 C 0.07037 0.38072 0.20134 0.0
C306 C 1.00541 0.38071 0.30392 0.0
C307 C 0.97858 0.38073 0.35223 0.0
C308 C 1.00185 0.63912 0.24909 0.0
C309 C 0.9705 0.63989 0.19939 0.0
C310 C 0.04678 0.63913 0.30476 0.0
C311 C 0.07814 0.6399 0.35447 0.0
C312 C 1.00525 0.6451 0.80406 0.0
C313 C 0.97843 0.64507 0.85237 0.0
C314 C 0.04339 0.64511 0.74979 0.0
C315 C 0.07021 0.64509 0.70148 0.0
C316 C 1.00188 0.38668 0.74895 0.0
C317 C 0.97054 0.38591 0.69924 0.0
C318 C 0.04681 0.38667 0.80462 0.0
C319 C 0.07817 0.3859 0.85432 0.0
C320 C 0.54345 0.88072 0.24954 0.0
C321 C 0.57028 0.88075 0.20124 0.0
C322 C 0.50529 0.88071 0.30381 0.0
C323 C 0.47847 0.88073 0.35211 0.0
C324 C 0.50219 0.13914 0.24893 0.0
C325 C 0.47084 0.13992 0.19922 0.0
C326 C 0.54712 0.13913 0.3046 0.0
C327 C 0.57846 0.13989 0.35431 0.0
C328 C 0.5055 0.1451 0.8039 0.0
C329 C 0.47867 0.14509 0.85221 0.0
C330 C 0.54365 0.14509 0.74963 0.0
C331 C 0.57048 0.14506 0.70133 0.0
C332 C 0.50205 0.88667 0.74884 0.0
C333 C 0.47068 0.8859 0.69914 0.0
C334 C 0.54698 0.88668 0.80451 0.0
C335 C 0.57833 0.88592 0.85422 0.0
loop_
_geom_bond_atom_site_label_1
_geom_bond_atom_site_label_2
_geom_bond_distance
_geom_bond_site_symmetry_2
_ccdc_geom_bond_type
Co0 N5 2.057 1_554 S
Co0 O17 2.021 . S
Co0 O20 2.062 . S
Co0 O24 2.117 1_654 S
Co0 O25 2.020 1_655 S
C1 O21 1.259 . S
C1 O24 1.258 . S
Co2 N11 2.057 . S
Co2 O18 2.117 . S
Co2 O19 2.020 . S
Co2 O21 2.021 1_554 S
Co2 O26 2.062 . S
C3 N5 1.316 1_554 S
C3 N6 1.347 1_554 S
C3 H8 0.931 . S
C4 N5 1.375 . S
C4 C7 1.350 . S
C4 H9 0.930 . S
N5 Co0 2.057 1_556 S
N5 C3 1.316 1_556 S
N5 C4 1.375 . S
N6 C3 1.347 1_556 S
N6 C7 1.373 . S
C7 C4 1.350 . S
C7 N6 1.373 . S
C7 H28 0.931 . S
H8 C3 0.931 . S
H9 C4 0.930 . S
C10 O17 1.259 1_455 S
C10 O18 1.258 . S
N11 Co2 2.057 . S
N11 C12 1.316 1_554 S
N11 C13 1.375 . S
C12 N11 1.316 1_556 S
C12 N14 1.347 1_556 S
C12 H23 0.931 . S
C13 N11 1.375 . S
C13 C15 1.350 . S
C13 H22 0.930 . S
N14 C12 1.347 1_554 S
N14 C15 1.373 . S
C15 C13 1.350 . S
C15 N14 1.373 . S
C15 H29 0.931 . S
C16 O19 1.256 . S
C16 O20 1.255 1_455 S
O17 Co0 2.021 . S
O17 C10 1.259 1_655 S
O18 Co2 2.117 . S
O18 C10 1.258 . S
O19 Co2 2.020 . S
O19 C16 1.256 . S
O20 Co0 2.062 . S
O20 C16 1.255 1_655 S
O21 C1 1.259 . S
O21 Co2 2.021 1_556 S
H22 C13 0.930 . S
H23 C12 0.931 . S
O24 Co0 2.117 1_456 S
O24 C1 1.258 . S
O25 Co0 2.020 1_455 S
O25 C27 1.256 . S
O26 Co2 2.062 . S
O26 C27 1.256 . S
C27 O25 1.256 . S
C27 O26 1.256 . S
H28 C7 0.931 . S
H29 C15 0.931 . S
Co30 N35 2.057 1_554 S
Co30 O47 2.021 . S
Co30 O50 2.062 . S
Co30 O54 2.117 1_554 S
Co30 O55 2.020 . S
C31 O51 1.259 1_655 S
C31 O54 1.258 . S
Co32 N41 2.057 . S
Co32 O48 2.117 1_455 S
Co32 O49 2.020 1_455 S
Co32 O51 2.021 1_554 S
Co32 O56 2.061 1_554 S
C33 N35 1.316 1_554 S
C33 N36 1.347 1_554 S
C33 H38 0.931 . S
C34 N35 1.375 . S
C34 C37 1.350 . S
C34 H39 0.930 . S
N35 Co30 2.057 1_556 S
N35 C33 1.316 1_556 S
N35 C34 1.375 . S
N36 C33 1.347 1_556 S
N36 C37 1.373 . S
C37 C34 1.350 . S
C37 N36 1.373 . S
C37 H58 0.931 . S
H38 C33 0.931 . S
H39 C34 0.930 . S
C40 O47 1.259 . S
C40 O48 1.258 . S
N41 Co32 2.057 . S
N41 C42 1.316 1_554 S
N41 C43 1.375 . S
C42 N41 1.316 1_556 S
C42 N44 1.347 1_556 S
C42 H53 0.931 . S
C43 N41 1.375 . S
C43 C45 1.350 . S
C43 H52 0.930 . S
N44 C42 1.347 1_554 S
N44 C45 1.373 . S
C45 C43 1.350 . S
C45 N44 1.373 . S
C45 H59 0.931 . S
C46 O49 1.256 . S
C46 O50 1.255 . S
O47 Co30 2.021 . S
O47 C40 1.259 . S
O48 Co32 2.117 1_655 S
O48 C40 1.258 . S
O49 Co32 2.020 1_655 S
O49 C46 1.256 . S
O50 Co30 2.062 . S
O50 C46 1.255 . S
O51 C31 1.259 1_455 S
O51 Co32 2.021 1_556 S
H52 C43 0.930 . S
H53 C42 0.931 . S
O54 Co30 2.117 1_556 S
O54 C31 1.258 . S
O55 Co30 2.020 . S
O55 C57 1.256 . S
O56 Co32 2.061 1_556 S
O56 C57 1.253 1_456 S
C57 O55 1.256 . S
C57 O56 1.253 1_654 S
H58 C37 0.931 . S
H59 C45 0.931 . S
Co60 N65 2.057 . S
Co60 O77 2.021 . S
Co60 O80 2.062 . S
Co60 O84 2.117 . S
Co60 O85 2.020 . S
C61 O81 1.259 1_455 S
C61 O84 1.258 . S
Co62 N71 2.057 . S
Co62 O78 2.117 1_655 S
Co62 O79 2.020 1_655 S
Co62 O81 2.021 . S
Co62 O86 2.062 . S
C63 N65 1.316 . S
C63 N66 1.347 . S
C63 H68 0.931 . S
C64 N65 1.375 . S
C64 C67 1.350 . S
C64 H69 0.930 . S
N65 Co60 2.057 . S
N65 C63 1.316 . S
N65 C64 1.375 . S
N66 C63 1.347 . S
N66 C67 1.373 . S
C67 C64 1.350 . S
C67 N66 1.373 . S
C67 H88 0.931 . S
H68 C63 0.931 . S
H69 C64 0.930 . S
C70 O77 1.259 . S
C70 O78 1.258 . S
N71 Co62 2.057 . S
N71 C72 1.316 . S
N71 C73 1.375 . S
C72 N71 1.316 . S
C72 N74 1.347 . S
C72 H83 0.931 . S
C73 N71 1.375 . S
C73 C75 1.350 . S
C73 H82 0.930 . S
N74 C72 1.347 . S
N74 C75 1.373 . S
C75 C73 1.350 . S
C75 N74 1.373 . S
C75 H89 0.931 . S
C76 O79 1.256 . S
C76 O80 1.255 . S
O77 Co60 2.021 . S
O77 C70 1.259 . S
O78 Co62 2.117 1_455 S
O78 C70 1.258 . S
O79 Co62 2.020 1_455 S
O79 C76 1.256 . S
O80 Co60 2.062 . S
O80 C76 1.255 . S
O81 C61 1.259 1_655 S
O81 Co62 2.021 . S
H82 C73 0.930 . S
H83 C72 0.931 . S
O84 Co60 2.117 . S
O84 C61 1.258 . S
O85 Co60 2.020 . S
O85 C87 1.256 . S
O86 Co62 2.062 . S
O86 C87 1.255 1_655 S
C87 O85 1.256 . S
C87 O86 1.255 1_455 S
H88 C67 0.931 . S
H89 C75 0.931 . S
Co90 N95 2.057 . S
Co90 O107 2.021 . S
Co90 O110 2.062 . S
Co90 O114 2.117 1_455 S
Co90 O115 2.020 1_455 S
C91 O111 1.259 . S
C91 O114 1.258 . S
Co92 N101 2.057 . S
Co92 O108 2.117 . S
Co92 O109 2.020 . S
Co92 O111 2.021 . S
Co92 O116 2.062 . S
C93 N95 1.316 . S
C93 N96 1.347 . S
C93 H98 0.931 . S
C94 N95 1.375 . S
C94 C97 1.350 . S
C94 H99 0.930 . S
N95 Co90 2.057 . S
N95 C93 1.316 . S
N95 C94 1.375 . S
N96 C93 1.347 . S
N96 C97 1.373 . S
C97 C94 1.350 . S
C97 N96 1.373 . S
C97 H118 0.931 . S
H98 C93 0.931 . S
H99 C94 0.930 . S
C100 O107 1.259 1_655 S
C100 O108 1.258 . S
N101 Co92 2.057 . S
N101 C102 1.316 . S
N101 C103 1.375 . S
C102 N101 1.316 . S
C102 N104 1.347 . S
C102 H113 0.931 . S
C103 N101 1.375 . S
C103 C105 1.350 . S
C103 H112 0.930 . S
N104 C102 1.347 . S
N104 C105 1.373 . S
C105 C103 1.350 . S
C105 N104 1.373 . S
C105 H119 0.931 . S
C106 O109 1.256 . S
C106 O110 1.255 1_655 S
O107 Co90 2.021 . S
O107 C100 1.259 1_455 S
O108 Co92 2.117 . S
O108 C100 1.258 . S
O109 Co92 2.020 . S
O109 C106 1.256 . S
O110 Co90 2.062 . S
O110 C106 1.255 1_455 S
O111 C91 1.259 . S
O111 Co92 2.021 . S
H112 C103 0.930 . S
H113 C102 0.931 . S
O114 Co90 2.117 1_655 S
O114 C91 1.258 . S
O115 Co90 2.020 1_655 S
O115 C117 1.256 . S
O116 Co92 2.062 . S
O116 C117 1.255 . S
C117 O115 1.256 . S
C117 O116 1.255 . S
H118 C97 0.931 . S
H119 C105 0.931 . S
Co120 N125 2.057 1_554 S
Co120 O137 2.021 . S
Co120 O140 2.062 . S
Co120 O144 2.117 1_554 S
Co120 O145 2.020 . S
C121 O141 1.259 . S
C121 O144 1.258 . S
Co122 N131 2.057 . S
Co122 O138 2.117 . S
Co122 O139 2.020 . S
Co122 O141 2.021 1_554 S
Co122 O146 2.062 . S
C123 N125 1.316 1_554 S
C123 N126 1.347 1_554 S
C123 H128 0.931 . S
C124 N125 1.375 . S
C124 C127 1.350 . S
C124 H129 0.930 . S
N125 Co120 2.057 1_556 S
N125 C123 1.316 1_556 S
N125 C124 1.375 . S
N126 C123 1.347 1_556 S
N126 C127 1.373 . S
C127 C124 1.350 . S
C127 N126 1.373 . S
C127 H148 0.931 . S
H128 C123 0.931 . S
H129 C124 0.930 . S
C130 O137 1.259 . S
C130 O138 1.258 . S
N131 Co122 2.057 . S
N131 C132 1.316 1_554 S
N131 C133 1.375 . S
C132 N131 1.316 1_556 S
C132 N134 1.347 1_556 S
C132 H143 0.931 . S
C133 N131 1.375 . S
C133 C135 1.350 . S
C133 H142 0.930 . S
N134 C132 1.347 1_554 S
N134 C135 1.373 . S
C135 C133 1.350 . S
C135 N134 1.373 . S
C135 H149 0.931 . S
C136 O139 1.256 . S
C136 O140 1.255 . S
O137 Co120 2.021 . S
O137 C130 1.259 . S
O138 Co122 2.117 . S
O138 C130 1.258 . S
O139 Co122 2.020 . S
O139 C136 1.256 . S
O140 Co120 2.062 . S
O140 C136 1.255 . S
O141 C121 1.259 . S
O141 Co122 2.021 1_556 S
H142 C133 0.930 . S
H143 C132 0.931 . S
O144 Co120 2.117 1_556 S
O144 C121 1.258 . S
O145 Co120 2.020 . S
O145 C147 1.256 . S
O146 Co122 2.062 . S
O146 C147 1.256 . S
C147 O145 1.256 . S
C147 O146 1.256 . S
H148 C127 0.931 . S
H149 C135 0.931 . S
Co150 N155 2.057 1_554 S
Co150 O167 2.021 . S
Co150 O170 2.062 . S
Co150 O174 2.117 1_554 S
Co150 O175 2.020 . S
C151 O171 1.259 . S
C151 O174 1.258 . S
Co152 N161 2.057 . S
Co152 O168 2.117 . S
Co152 O169 2.020 . S
Co152 O171 2.021 1_554 S
Co152 O176 2.061 1_554 S
C153 N155 1.316 1_554 S
C153 N156 1.347 1_554 S
C153 H158 0.931 . S
C154 N155 1.375 . S
C154 C157 1.350 . S
C154 H159 0.930 . S
N155 Co150 2.057 1_556 S
N155 C153 1.316 1_556 S
N155 C154 1.375 . S
N156 C153 1.347 1_556 S
N156 C157 1.373 . S
C157 C154 1.350 . S
C157 N156 1.373 . S
C157 H178 0.931 . S
H158 C153 0.931 . S
H159 C154 0.930 . S
C160 O167 1.259 . S
C160 O168 1.258 . S
N161 Co152 2.057 . S
N161 C162 1.316 1_554 S
N161 C163 1.375 . S
C162 N161 1.316 1_556 S
C162 N164 1.347 1_556 S
C162 H173 0.931 . S
C163 N161 1.375 . S
C163 C165 1.350 . S
C163 H172 0.930 . S
N164 C162 1.347 1_554 S
N164 C165 1.373 . S
C165 C163 1.350 . S
C165 N164 1.373 . S
C165 H179 0.931 . S
C166 O169 1.256 . S
C166 O170 1.255 . S
O167 Co150 2.021 . S
O167 C160 1.259 . S
O168 Co152 2.117 . S
O168 C160 1.258 . S
O169 Co152 2.020 . S
O169 C166 1.256 . S
O170 Co150 2.062 . S
O170 C166 1.255 . S
O171 C151 1.259 . S
O171 Co152 2.021 1_556 S
H172 C163 0.930 . S
H173 C162 0.931 . S
O174 Co150 2.117 1_556 S
O174 C151 1.258 . S
O175 Co150 2.020 . S
O175 C177 1.256 . S
O176 Co152 2.061 1_556 S
O176 C177 1.253 1_556 S
C177 O175 1.256 . S
C177 O176 1.253 1_554 S
H178 C157 0.931 . S
H179 C165 0.931 . S
Co180 N185 2.057 . S
Co180 O197 2.021 . S
Co180 O200 2.062 . S
Co180 O204 2.117 . S
Co180 O205 2.020 . S
C181 O201 1.259 . S
C181 O204 1.258 . S
Co182 N191 2.057 . S
Co182 O198 2.117 . S
Co182 O199 2.020 . S
Co182 O201 2.021 . S
Co182 O206 2.062 . S
C183 N185 1.316 . S
C183 N186 1.347 . S
C183 H188 0.931 . S
C184 N185 1.375 . S
C184 C187 1.350 . S
C184 H189 0.930 . S
N185 Co180 2.057 . S
N185 C183 1.316 . S
N185 C184 1.375 . S
N186 C183 1.347 . S
N186 C187 1.373 . S
C187 C184 1.350 . S
C187 N186 1.373 . S
C187 H208 0.931 . S
H188 C183 0.931 . S
H189 C184 0.930 . S
C190 O197 1.259 . S
C190 O198 1.258 . S
N191 Co182 2.057 . S
N191 C192 1.316 . S
N191 C193 1.375 . S
C192 N191 1.316 . S
C192 N194 1.347 . S
C192 H203 0.931 . S
C193 N191 1.375 . S
C193 C195 1.350 . S
C193 H202 0.930 . S
N194 C192 1.347 . S
N194 C195 1.373 . S
C195 C193 1.350 . S
C195 N194 1.373 . S
C195 H209 0.931 . S
C196 O199 1.256 . S
C196 O200 1.255 . S
O197 Co180 2.021 . S
O197 C190 1.259 . S
O198 Co182 2.117 . S
O198 C190 1.258 . S
O199 Co182 2.020 . S
O199 C196 1.256 . S
O200 Co180 2.062 . S
O200 C196 1.255 . S
O201 C181 1.259 . S
O201 Co182 2.021 . S
H202 C193 0.930 . S
H203 C192 0.931 . S
O204 Co180 2.117 . S
O204 C181 1.258 . S
O205 Co180 2.020 . S
O205 C207 1.256 . S
O206 Co182 2.062 . S
O206 C207 1.255 . S
C207 O205 1.256 . S
C207 O206 1.255 . S
H208 C187 0.931 . S
H209 C195 0.931 . S
Co210 N215 2.057 . S
Co210 O227 2.021 . S
Co210 O230 2.062 . S
Co210 O234 2.117 . S
Co210 O235 2.020 . S
C211 O231 1.259 . S
C211 O234 1.258 . S
Co212 N221 2.057 . S
Co212 O228 2.117 . S
Co212 O229 2.020 . S
Co212 O231 2.021 . S
Co212 O236 2.062 . S
C213 N215 1.316 . S
C213 N216 1.347 . S
C213 H218 0.931 . S
C214 N215 1.375 . S
C214 C217 1.350 . S
C214 H219 0.930 . S
N215 Co210 2.057 . S
N215 C213 1.316 . S
N215 C214 1.375 . S
N216 C213 1.347 . S
N216 C217 1.373 . S
C217 C214 1.350 . S
C217 N216 1.373 . S
C217 H238 0.931 . S
H218 C213 0.931 . S
H219 C214 0.930 . S
C220 O227 1.259 . S
C220 O228 1.258 . S
N221 Co212 2.057 . S
N221 C222 1.316 . S
N221 C223 1.375 . S
C222 N221 1.316 . S
C222 N224 1.347 . S
C222 H233 0.931 . S
C223 N221 1.375 . S
C223 C225 1.350 . S
C223 H232 0.930 . S
N224 C222 1.347 . S
N224 C225 1.373 . S
C225 C223 1.350 . S
C225 N224 1.373 . S
C225 H239 0.931 . S
C226 O229 1.256 . S
C226 O230 1.255 . S
O227 Co210 2.021 . S
O227 C220 1.259 . S
O228 Co212 2.117 . S
O228 C220 1.258 . S
O229 Co212 2.020 . S
O229 C226 1.256 . S
O230 Co210 2.062 . S
O230 C226 1.255 . S
O231 C211 1.259 . S
O231 Co212 2.021 . S
H232 C223 0.930 . S
H233 C222 0.931 . S
O234 Co210 2.117 . S
O234 C211 1.258 . S
O235 Co210 2.020 . S
O235 C237 1.256 . S
O236 Co212 2.062 . S
O236 C237 1.255 . S
C237 O235 1.256 . S
C237 O236 1.255 . S
H238 C217 0.931 . S
H239 C225 0.931 . S
C240 C241 1.170 . S
C240 C242 1.380 . S
C241 C240 1.170 . S
C242 C240 1.380 . S
C242 C243 1.170 . S
C243 C242 1.170 . S
C244 C245 1.170 . S
C244 C246 1.380 . S
C245 C244 1.170 . S
C246 C244 1.380 . S
C246 C247 1.170 . S
C247 C246 1.170 . S
C248 C249 1.170 . S
C248 C250 1.380 . S
C249 C248 1.170 . S
C250 C248 1.380 . S
C250 C251 1.170 . S
C251 C250 1.170 . S
C252 C253 1.170 . S
C252 C254 1.380 . S
C253 C252 1.170 . S
C254 C252 1.380 . S
C254 C255 1.170 . S
C255 C254 1.170 . S
C256 C257 1.170 1_455 S
C256 C258 1.380 . S
C257 C256 1.170 1_655 S
C258 C256 1.380 . S
C258 C259 1.170 . S
C259 C258 1.170 . S
C260 C261 1.170 1_655 S
C260 C262 1.381 . S
C261 C260 1.170 1_455 S
C262 C260 1.381 . S
C262 C263 1.170 . S
C263 C262 1.170 . S
C264 C265 1.170 . S
C264 C266 1.380 . S
C265 C264 1.170 . S
C266 C264 1.380 . S
C266 C267 1.170 1_455 S
C267 C266 1.170 1_655 S
C268 C269 1.170 . S
C268 C270 1.380 . S
C269 C268 1.170 . S
C270 C268 1.380 . S
C270 C271 1.170 1_655 S
C271 C270 1.170 1_455 S
C272 C273 1.170 1_455 S
C272 C274 1.380 . S
C273 C272 1.170 1_655 S
C274 C272 1.380 . S
C274 C275 1.170 . S
C275 C274 1.170 . S
C276 C277 1.170 1_455 S
C276 C278 1.380 . S
C277 C276 1.170 1_655 S
C278 C276 1.380 . S
C278 C279 1.170 . S
C279 C278 1.170 . S
C280 C281 1.170 . S
C280 C282 1.380 1_565 S
C281 C280 1.170 . S
C282 C280 1.380 1_545 S
C282 C283 1.170 . S
C283 C282 1.170 . S
C284 C285 1.170 . S
C284 C286 1.380 1_545 S
C285 C284 1.170 . S
C286 C284 1.380 1_565 S
C286 C287 1.170 . S
C287 C286 1.170 . S
C288 C289 1.172 . S
C288 C290 1.380 . S
C289 C288 1.172 . S
C290 C288 1.380 . S
C290 C291 1.170 . S
C291 C290 1.170 . S
C292 C293 1.170 . S
C292 C294 1.380 . S
C293 C292 1.170 . S
C294 C292 1.380 . S
C294 C295 1.170 . S
C295 C294 1.170 . S
C296 C297 1.170 . S
C296 C298 1.380 . S
C297 C296 1.170 . S
C298 C296 1.380 . S
C298 C299 1.170 . S
C299 C298 1.170 . S
C300 C301 1.170 . S
C300 C302 1.380 . S
C301 C300 1.170 . S
C302 C300 1.380 . S
C302 C303 1.170 . S
C303 C302 1.170 . S
C304 C305 1.170 . S
C304 C306 1.380 1_455 S
C305 C304 1.170 . S
C306 C304 1.380 1_655 S
C306 C307 1.170 . S
C307 C306 1.170 . S
C308 C309 1.170 . S
C308 C310 1.380 1_655 S
C309 C308 1.170 . S
C310 C308 1.380 1_455 S
C310 C311 1.170 . S
C311 C310 1.170 . S
C312 C313 1.170 . S
C312 C314 1.380 1_655 S
C313 C312 1.170 . S
C314 C312 1.380 1_455 S
C314 C315 1.170 . S
C315 C314 1.170 . S
C316 C317 1.170 . S
C316 C318 1.380 1_655 S
C317 C316 1.170 . S
C318 C316 1.380 1_455 S
C318 C319 1.170 . S
C319 C318 1.170 . S
C320 C321 1.170 . S
C320 C322 1.380 . S
C321 C320 1.170 . S
C322 C320 1.380 . S
C322 C323 1.170 . S
C323 C322 1.170 . S
C324 C325 1.170 . S
C324 C326 1.380 . S
C325 C324 1.170 . S
C326 C324 1.380 . S
C326 C327 1.170 . S
C327 C326 1.170 . S
C328 C329 1.170 . S
C328 C330 1.380 . S
C329 C328 1.170 . S
C330 C328 1.380 . S
C330 C331 1.170 . S
C331 C330 1.170 . S
C332 C333 1.170 . S
C332 C334 1.380 . S
C333 C332 1.170 . S
C334 C332 1.380 . S
C334 C335 1.170 . S
C335 C334 1.170 . S
C241 N14 1.242 . S
C243 N6 1.229 1_554 S
C245 N44 1.227 . S
C247 N36 1.224 1_554 S
C249 N74 1.227 . S
C251 N66 1.225 . S
C253 N104 1.220 . S
C255 N96 1.233 . S
C257 N134 1.241 . S
C259 N126 1.215 1_554 S
C261 N156 1.214 1_554 S
C263 N164 1.247 . S
C265 N194 1.241 . S
C267 N186 1.230 . S
C269 N216 1.241 . S
C271 N224 1.214 . S
C273 C57 1.586 . S
C275 C16 1.578 . S
C277 C106 1.589 . S
C279 C87 1.577 . S
C281 C136 1.578 . S
C283 C177 1.591 . S
C285 C207 1.580 . S
C287 C226 1.590 . S
C289 C27 1.809 . S
C291 C166 1.823 . S
C293 C147 1.831 . S
C295 C46 1.821 . S
C297 C76 1.839 . S
C299 C237 1.806 . S
C301 C117 1.821 . S
C303 C196 1.811 . S
C305 C10 1.665 . S
C307 C100 1.633 . S
C309 C40 1.611 . S
C311 C70 1.612 . S
C313 C31 1.642 . S
C315 C61 1.666 . S
C317 C91 1.626 . S
C319 C1 1.610 . S
C321 C130 1.639 . S
C323 C220 1.663 . S
C325 C160 1.612 . S
C327 C190 1.627 . S
C329 C151 1.641 . S
C331 C181 1.643 . S
C333 C211 1.610 . S
C335 C121 1.624 . S
