# Generated by pormake.
# Topology wns, (7)-cn, num edge types: 1
# Building blocks:
#     Node 0, Type 0, BuildingBlock: HICVOG_clean_sbu_0, # of connection points: 7
#     Node 1, Type 0, BuildingBlock: HICVOG_clean_sbu_0, # of connection points: 7
#     Node 2, Type 0, BuildingBlock: HICVOG_clean_sbu_0, # of connection points: 7
#     Node 3, Type 0, BuildingBlock: HICVOG_clean_sbu_0, # of connection points: 7
#     Node 4, Type 0, BuildingBlock: HICVOG_clean_sbu_0, # of connection points: 7
#     Node 5, Type 0, BuildingBlock: HICVOG_clean_sbu_0, # of connection points: 7
#     Node 6, Type 0, BuildingBlock: HICVOG_clean_sbu_0, # of connection points: 7
#     Node 7, Type 0, BuildingBlock: HICVOG_clean_sbu_0, # of connection points: 7
#     Node 8, Type 0, BuildingBlock: HICVOG_clean_sbu_0, # of connection points: 7
#     Node 9, Type 0, BuildingBlock: HICVOG_clean_sbu_0, # of connection points: 7
#     Node 10, Type 0, BuildingBlock: HICVOG_clean_sbu_0, # of connection points: 7
#     Node 11, Type 0, BuildingBlock: HICVOG_clean_sbu_0, # of connection points: 7
#     Edge 12, Type (0, 0), BuildingBlock: EZIPEK_clean_linker_0, # of connection points: 2
#     Edge 13, Type (0, 0), BuildingBlock: EZIPEK_clean_linker_0, # of connection points: 2
#     Edge 14, Type (0, 0), BuildingBlock: EZIPEK_clean_linker_0, # of connection points: 2
#     Edge 15, Type (0, 0), BuildingBlock: EZIPEK_clean_linker_0, # of connection points: 2
#     Edge 16, Type (0, 0), BuildingBlock: EZIPEK_clean_linker_0, # of connection points: 2
#     Edge 17, Type (0, 0), BuildingBlock: EZIPEK_clean_linker_0, # of connection points: 2
#     Edge 18, Type (0, 0), BuildingBlock: EZIPEK_clean_linker_0, # of connection points: 2
#     Edge 19, Type (0, 0), BuildingBlock: EZIPEK_clean_linker_0, # of connection points: 2
#     Edge 20, Type (0, 0), BuildingBlock: EZIPEK_clean_linker_0, # of connection points: 2
#     Edge 21, Type (0, 0), BuildingBlock: EZIPEK_clean_linker_0, # of connection points: 2
#     Edge 22, Type (0, 0), BuildingBlock: EZIPEK_clean_linker_0, # of connection points: 2
#     Edge 23, Type (0, 0), BuildingBlock: EZIPEK_clean_linker_0, # of connection points: 2
#     Edge 24, Type (0, 0), BuildingBlock: EZIPEK_clean_linker_0, # of connection points: 2
#     Edge 25, Type (0, 0), BuildingBlock: EZIPEK_clean_linker_0, # of connection points: 2
#     Edge 26, Type (0, 0), BuildingBlock: EZIPEK_clean_linker_0, # of connection points: 2
#     Edge 27, Type (0, 0), BuildingBlock: EZIPEK_clean_linker_0, # of connection points: 2
#     Edge 28, Type (0, 0), BuildingBlock: EZIPEK_clean_linker_0, # of connection points: 2
#     Edge 29, Type (0, 0), BuildingBlock: EZIPEK_clean_linker_0, # of connection points: 2
#     Edge 30, Type (0, 0), BuildingBlock: EZIPEK_clean_linker_0, # of connection points: 2
#     Edge 31, Type (0, 0), BuildingBlock: EZIPEK_clean_linker_0, # of connection points: 2
#     Edge 32, Type (0, 0), BuildingBlock: EZIPEK_clean_linker_0, # of connection points: 2
#     Edge 33, Type (0, 0), BuildingBlock: EZIPEK_clean_linker_0, # of connection points: 2
#     Edge 34, Type (0, 0), BuildingBlock: EZIPEK_clean_linker_0, # of connection points: 2
#     Edge 35, Type (0, 0), BuildingBlock: EZIPEK_clean_linker_0, # of connection points: 2
#     Edge 36, Type (0, 0), BuildingBlock: EZIPEK_clean_linker_0, # of connection points: 2
#     Edge 37, Type (0, 0), BuildingBlock: EZIPEK_clean_linker_0, # of connection points: 2
#     Edge 38, Type (0, 0), BuildingBlock: EZIPEK_clean_linker_0, # of connection points: 2
#     Edge 39, Type (0, 0), BuildingBlock: EZIPEK_clean_linker_0, # of connection points: 2
#     Edge 40, Type (0, 0), BuildingBlock: EZIPEK_clean_linker_0, # of connection points: 2
#     Edge 41, Type (0, 0), BuildingBlock: EZIPEK_clean_linker_0, # of connection points: 2
#     Edge 42, Type (0, 0), BuildingBlock: EZIPEK_clean_linker_0, # of connection points: 2
#     Edge 43, Type (0, 0), BuildingBlock: EZIPEK_clean_linker_0, # of connection points: 2
#     Edge 44, Type (0, 0), BuildingBlock: EZIPEK_clean_linker_0, # of connection points: 2
#     Edge 45, Type (0, 0), BuildingBlock: EZIPEK_clean_linker_0, # of connection points: 2
#     Edge 46, Type (0, 0), BuildingBlock: EZIPEK_clean_linker_0, # of connection points: 2
#     Edge 47, Type (0, 0), BuildingBlock: EZIPEK_clean_linker_0, # of connection points: 2
#     Edge 48, Type (0, 0), BuildingBlock: EZIPEK_clean_linker_0, # of connection points: 2
#     Edge 49, Type (0, 0), BuildingBlock: EZIPEK_clean_linker_0, # of connection points: 2
#     Edge 50, Type (0, 0), BuildingBlock: EZIPEK_clean_linker_0, # of connection points: 2
#     Edge 51, Type (0, 0), BuildingBlock: EZIPEK_clean_linker_0, # of connection points: 2
#     Edge 52, Type (0, 0), BuildingBlock: EZIPEK_clean_linker_0, # of connection points: 2
#     Edge 53, Type (0, 0), BuildingBlock: EZIPEK_clean_linker_0, # of connection points: 2
# Relax obj value: 0.159
# Max RMSD: 0.215
# Mean RMSD: 0.215
data_MOF--net-wns--node1-HICVOG_clean_sbu_0--edge1-EZIPEK_clean_linker_0
_symmetry_space_group_name_H-M    P1
_symmetry_Int_Tables_number       1
_symmetry_cell_setting            triclinic
loop_
_symmetry_equiv_pos_as_xyz
'x, y, z'
_cell_length_a     31.783873
_cell_length_b     31.760528
_cell_length_c     27.190584
_cell_angle_alpha  90.01093
_cell_angle_beta   89.981667
_cell_angle_gamma 120.02982
loop_
_atom_site_label
_atom_site_type_symbol
_atom_site_fract_x
_atom_site_fract_y
_atom_site_fract_z
_atom_type_partial_charge
Zn0 Zn 0.44858 0.29865 0.1842 0.0
C1 C 0.33461 0.26065 0.09481 0.0
N2 N 0.32287 0.28482 0.12735 0.0
C3 C 0.35423 0.29382 0.16433 0.0
N4 N 0.38401 0.27555 0.15481 0.0
N5 N 0.37046 0.25335 0.11145 0.0
C6 C 0.41972 0.22399 0.98301 0.0
O7 O 0.45796 0.26261 1.00091 0.0
O8 O 0.44682 0.30136 0.25871 0.0
Zn9 Zn 0.38339 0.20303 0.08598 0.0
N10 N 0.49405 0.36155 0.15405 0.0
C11 C 0.50793 0.41626 0.0878 0.0
C12 C 0.47704 0.37473 0.1145 0.0
C13 C 0.54195 0.38805 0.167 0.0
N14 N 0.55541 0.44247 0.1005 0.0
C15 C 0.5736 0.42947 0.13911 0.0
O16 O 0.44438 0.20546 0.11 0.0
C17 C 0.47708 0.22522 0.14266 0.0
O18 O 0.47961 0.2579 0.17134 0.0
H19 H 0.43967 0.35309 0.10341 0.0
H20 H 0.55553 0.37622 0.19735 0.0
C21 C 0.31596 0.10277 0.07417 0.0
C22 C 0.27883 0.05623 0.08728 0.0
C23 C 0.27276 0.08655 0.16491 0.0
C24 C 0.31037 0.13288 0.1519 0.0
N25 N 0.3308 0.14016 0.10653 0.0
N26 N 0.25786 0.04916 0.13241 0.0
H27 H 0.33341 0.10896 0.03864 0.0
C28 C 0.42736 0.26036 0.28057 0.0
O29 O 0.40659 0.22035 0.25419 0.0
O30 O 0.38442 0.19788 0.01149 0.0
H31 H 0.32342 0.16265 0.17772 0.0
H32 H 0.49444 0.42712 0.05661 0.0
H33 H 0.25595 0.08027 0.20079 0.0
Zn34 Zn 0.74051 0.15815 0.18437 0.0
C35 C 0.77835 0.08384 0.09356 0.0
N36 N 0.75604 0.048 0.12673 0.0
C37 C 0.74786 0.0703 0.16453 0.0
N38 N 0.76437 0.11798 0.15453 0.0
N39 N 0.7851 0.12673 0.11046 0.0
C40 C 0.83671 0.23393 0.98879 0.0
O41 O 0.83983 0.26935 0.01629 0.0
O42 O 0.73613 0.14913 0.2583 0.0
Zn43 Zn 0.83334 0.19019 0.0839 0.0
N44 N 0.67934 0.14279 0.15134 0.0
C45 C 0.62657 0.10364 0.08324 0.0
C46 C 0.66709 0.11332 0.11116 0.0
C47 C 0.65286 0.1643 0.16372 0.0
N48 N 0.60025 0.12488 0.09556 0.0
C49 C 0.61221 0.15508 0.13494 0.0
O50 O 0.83384 0.24875 0.11402 0.0
C51 C 0.81541 0.26128 0.14849 0.0
O52 O 0.7826 0.23042 0.17657 0.0
H53 H 0.68819 0.0967 0.10105 0.0
H54 H 0.66395 0.18913 0.19457 0.0
C55 C 0.93365 0.22192 0.06633 0.0
C56 C 0.98047 0.23143 0.07852 0.0
C57 C 0.95119 0.19368 0.15586 0.0
C58 C 0.90474 0.18497 0.14391 0.0
N59 N 0.89685 0.19913 0.09932 0.0
N60 N 0.98812 0.21704 0.12312 0.0
H61 H 0.92679 0.23342 0.03131 0.0
C62 C 0.77775 0.16718 0.27863 0.0
O63 O 0.81678 0.18577 0.25082 0.0
O64 O 0.8308 0.19509 0.00898 0.0
H65 H 0.87525 0.16736 0.17001 0.0
H66 H 0.61643 0.07985 0.05162 0.0
H67 H 0.95796 0.18256 0.19118 0.0
Zn68 Zn 0.88136 0.59334 0.18335 0.0
C69 C 0.95932 0.70371 0.09169 0.0
N70 N 0.99519 0.71553 0.12427 0.0
C71 C 0.97223 0.68628 0.16263 0.0
N72 N 0.92392 0.65723 0.15348 0.0
N73 N 0.91568 0.66964 0.10938 0.0
C74 C 0.83367 0.62148 0.9824 0.0
O75 O 0.82756 0.58066 1.00117 0.0
O76 O 0.88644 0.59815 0.2576 0.0
Zn77 Zn 0.85271 0.65791 0.08446 0.0
N78 N 0.89766 0.5466 0.15428 0.0
C79 C 0.93442 0.52946 0.08648 0.0
C80 C 0.9248 0.56143 0.11243 0.0
C81 C 0.87849 0.49984 0.1705 0.0
N82 N 0.91509 0.483 0.10228 0.0
C83 C 0.88697 0.46693 0.14331 0.0
O84 O 0.79254 0.59724 0.10814 0.0
C85 C 0.77938 0.5647 0.1411 0.0
O86 O 0.80954 0.56244 0.16996 0.0
H87 H 0.93955 0.59815 0.09947 0.0
H88 H 0.85556 0.48796 0.20284 0.0
C89 C 0.81958 0.7246 0.07323 0.0
C90 C 0.81155 0.76283 0.08532 0.0
C91 C 0.85263 0.77293 0.16088 0.0
C92 C 0.86053 0.73463 0.14863 0.0
N93 N 0.84406 0.71146 0.10485 0.0
N94 N 0.82825 0.78619 0.12904 0.0
H95 H 0.80605 0.70519 0.03891 0.0
C96 C 0.86002 0.61281 0.27819 0.0
O97 O 0.8348 0.62631 0.25087 0.0
O98 O 0.84782 0.65828 0.01018 0.0
H99 H 0.87954 0.72346 0.17369 0.0
H100 H 0.95649 0.54127 0.05356 0.0
H101 H 0.86561 0.79183 0.19552 0.0
Zn102 Zn 0.30472 0.44337 0.32773 0.0
C103 C 0.26982 0.33121 0.41823 0.0
N104 N 0.2937 0.31929 0.38552 0.0
C105 C 0.3012 0.34951 0.34771 0.0
N106 N 0.28259 0.37905 0.3572 0.0
N107 N 0.26128 0.36612 0.401 0.0
C108 C 0.22887 0.41419 0.52726 0.0
O109 O 0.26567 0.45348 0.50841 0.0
O110 O 0.30551 0.43943 0.25324 0.0
Zn111 Zn 0.20968 0.37751 0.42541 0.0
N112 N 0.36768 0.48967 0.35761 0.0
C113 C 0.42091 0.50492 0.42562 0.0
C114 C 0.37959 0.47372 0.39891 0.0
C115 C 0.39537 0.53695 0.34284 0.0
N116 N 0.44826 0.55178 0.41114 0.0
C117 C 0.43662 0.569 0.37073 0.0
O118 O 0.21091 0.43835 0.40195 0.0
C119 C 0.23096 0.47146 0.36967 0.0
O120 O 0.26388 0.47426 0.34123 0.0
H121 H 0.35757 0.43664 0.41077 0.0
H122 H 0.38462 0.54982 0.31105 0.0
C123 C 0.10983 0.30868 0.43607 0.0
C124 C 0.06415 0.26979 0.4233 0.0
C125 C 0.09623 0.26302 0.34699 0.0
C126 C 0.14178 0.30208 0.35982 0.0
N127 N 0.14772 0.32382 0.40434 0.0
N128 N 0.0584 0.24762 0.379 0.0
H129 H 0.1151 0.32683 0.47109 0.0
C130 C 0.26477 0.4258 0.23228 0.0
O131 O 0.2259 0.41257 0.25931 0.0
O132 O 0.204 0.37782 0.49957 0.0
H133 H 0.17214 0.31482 0.33471 0.0
H134 H 0.43084 0.49215 0.45806 0.0
H135 H 0.09101 0.24511 0.31184 0.0
Zn136 Zn 0.60437 0.87654 0.32808 0.0
C137 C 0.71678 0.951 0.41936 0.0
N138 N 0.72815 0.98784 0.38796 0.0
C139 C 0.69733 0.9658 0.35046 0.0
N140 N 0.66819 0.91744 0.35878 0.0
N141 N 0.68184 0.90788 0.40151 0.0
C142 C 0.63296 0.82525 0.52715 0.0
O143 O 0.59341 0.82291 0.50934 0.0
O144 O 0.60926 0.88078 0.25411 0.0
Zn145 Zn 0.66989 0.84407 0.42465 0.0
N146 N 0.55856 0.89492 0.35499 0.0
C147 C 0.54171 0.9342 0.42052 0.0
C148 C 0.57357 0.92353 0.3958 0.0
C149 C 0.51181 0.87532 0.33864 0.0
N150 N 0.49518 0.91426 0.40477 0.0
C151 C 0.47891 0.88457 0.36483 0.0
O152 O 0.6092 0.78528 0.39939 0.0
C153 C 0.57562 0.77345 0.36788 0.0
O154 O 0.5727 0.80466 0.34119 0.0
H155 H 0.60997 0.93767 0.40956 0.0
H156 H 0.49983 0.85118 0.3072 0.0
C157 C 0.73908 0.81338 0.43645 0.0
C158 C 0.7772 0.80542 0.42353 0.0
C159 C 0.78255 0.84163 0.34596 0.0
C160 C 0.74406 0.84897 0.35883 0.0
N161 N 0.72349 0.83524 0.40407 0.0
N162 N 0.79833 0.82004 0.37855 0.0
H163 H 0.7217 0.80176 0.47196 0.0
C164 C 0.63812 0.86785 0.2364 0.0
O165 O 0.66386 0.85758 0.26676 0.0
O166 O 0.66885 0.83688 0.49875 0.0
H167 H 0.73056 0.86519 0.33303 0.0
H168 H 0.55357 0.95729 0.45274 0.0
H169 H 0.79949 0.85271 0.31019 0.0
Zn170 Zn 0.16962 0.73796 0.32533 0.0
C171 C 0.09726 0.78086 0.41347 0.0
N172 N 0.06067 0.75593 0.38177 0.0
C173 C 0.08214 0.74544 0.34505 0.0
N174 N 0.13024 0.76356 0.35385 0.0
N175 N 0.14001 0.78731 0.39632 0.0
C176 C 0.25462 0.85095 0.51188 0.0
O177 O 0.29152 0.86666 0.48144 0.0
O178 O 0.16341 0.73375 0.25156 0.0
Zn179 Zn 0.20422 0.83706 0.42036 0.0
N180 N 0.15123 0.67584 0.35718 0.0
C181 C 0.1083 0.62128 0.42288 0.0
C182 C 0.12058 0.66332 0.39632 0.0
C183 C 0.17217 0.64876 0.3451 0.0
N184 N 0.12879 0.59419 0.41072 0.0
C185 C 0.16065 0.60679 0.37273 0.0
O186 O 0.26188 0.83631 0.38949 0.0
C187 C 0.27351 0.81395 0.35855 0.0
O188 O 0.24187 0.77799 0.33419 0.0
H189 H 0.10581 0.68591 0.40726 0.0
H190 H 0.19836 0.66042 0.31545 0.0
C191 C 0.2332 0.93707 0.43814 0.0
C192 C 0.24187 0.98362 0.42577 0.0
C193 C 0.20708 0.95431 0.34736 0.0
C194 C 0.19961 0.90827 0.3594 0.0
N195 N 0.21245 0.90042 0.40469 0.0
N196 N 0.2283 0.99107 0.38065 0.0
H197 H 0.24364 0.93033 0.47378 0.0
C198 C 0.18135 0.77517 0.23085 0.0
O199 O 0.19612 0.81412 0.25832 0.0
O200 O 0.21191 0.83481 0.49466 0.0
H201 H 0.18421 0.87911 0.33279 0.0
H202 H 0.08349 0.61083 0.45367 0.0
H203 H 0.1968 0.96095 0.31152 0.0
Zn204 Zn 0.65991 0.82528 0.92585 0.0
C205 C 0.69961 0.74365 0.84614 0.0
N206 N 0.73089 0.75357 0.88345 0.0
C207 C 0.71602 0.77458 0.91673 0.0
N208 N 0.67763 0.7781 0.90064 0.0
N209 N 0.66654 0.75758 0.85644 0.0
C210 C 0.63141 0.77206 0.7316 0.0
O211 O 0.64986 0.81011 0.7608 0.0
O212 O 0.64306 0.81871 0.99928 0.0
Zn213 Zn 0.60338 0.73317 0.82435 0.0
N214 N 0.71427 0.88976 0.91031 0.0
C215 C 0.77559 0.94162 0.85336 0.0
C216 C 0.73658 0.89604 0.86602 0.0
C217 C 0.72845 0.92794 0.94153 0.0
N218 N 0.79036 0.97948 0.88517 0.0
C219 C 0.76748 0.9737 0.929 0.0
O220 O 0.57087 0.77366 0.83092 0.0
C221 C 0.57169 0.806 0.85892 0.0
O222 O 0.60199 0.82455 0.89393 0.0
H223 H 0.72433 0.86575 0.84088 0.0
H224 H 0.70969 0.92311 0.97579 0.0
C225 C 0.51072 0.6436 0.83965 0.0
C226 C 0.47796 0.60312 0.86787 0.0
C227 C 0.54088 0.61887 0.92428 0.0
C228 C 0.57272 0.65985 0.89742 0.0
N229 N 0.55762 0.67118 0.85516 0.0
N230 N 0.4942 0.59172 0.90918 0.0
H231 H 0.49857 0.65422 0.80721 0.0
C232 C 0.67213 0.83794 0.03523 0.0
O233 O 0.71922 0.86127 0.0276 0.0
O234 O 0.61039 0.72977 0.75072 0.0
H235 H 0.60935 0.68247 0.91033 0.0
H236 H 0.79394 0.94685 0.81848 0.0
H237 H 0.55285 0.60934 0.95755 0.0
Zn238 Zn 0.22392 0.84829 0.92711 0.0
C239 C 0.30786 0.97004 0.84925 0.0
N240 N 0.29775 0.99118 0.88667 0.0
C241 C 0.27571 0.95438 0.91905 0.0
N242 N 0.27097 0.91239 0.90179 0.0
N243 N 0.29296 0.92264 0.85847 0.0
C244 C 0.30139 0.85784 0.71867 0.0
O245 O 0.30672 0.8219 0.73509 0.0
O246 O 0.22546 0.84415 1.00155 0.0
Zn247 Zn 0.3135 0.88297 0.82089 0.0
N248 N 0.15937 0.83552 0.90979 0.0
C249 C 0.1033 0.83009 0.84851 0.0
C250 C 0.15041 0.8425 0.86253 0.0
C251 C 0.12285 0.8157 0.94348 0.0
N252 N 0.06665 0.8095 0.88193 0.0
C253 C 0.07523 0.80182 0.92916 0.0
O254 O 0.27656 0.81082 0.8336 0.0
C255 C 0.24616 0.77991 0.86347 0.0
O256 O 0.22734 0.79178 0.89803 0.0
H257 H 0.17941 0.85643 0.83578 0.0
H258 H 0.1304 0.80912 0.98058 0.0
C259 C 0.40114 0.87472 0.83084 0.0
C260 C 0.44959 0.89158 0.84554 0.0
C261 C 0.45663 0.96653 0.86952 0.0
C262 C 0.40848 0.94936 0.85616 0.0
N263 N 0.38167 0.9043 0.83635 0.0
N264 N 0.476 0.9373 0.86406 0.0
H265 H 0.37909 0.83838 0.81623 0.0
C266 C 0.22028 0.80572 0.02188 0.0
O267 O 0.21846 0.7707 0.9947 0.0
O268 O 0.30478 0.8903 0.7484 0.0
H269 H 0.3923 0.97141 0.86262 0.0
H270 H 0.09571 0.83551 0.811 0.0
H271 H 0.47821 1.00254 0.885 0.0
Zn272 Zn 0.19935 0.38215 0.9255 0.0
C273 C 0.08164 0.35221 0.84483 0.0
N274 N 0.05851 0.32105 0.88193 0.0
C275 C 0.09369 0.33377 0.91563 0.0
N276 N 0.13698 0.36978 0.89947 0.0
N277 N 0.12913 0.38279 0.8556 0.0
C278 C 0.1841 0.42137 0.73273 0.0
O279 O 0.20487 0.40389 0.76157 0.0
O280 O 0.2042 0.3908 0.99995 0.0
Zn281 Zn 0.17029 0.44658 0.82602 0.0
N282 N 0.20526 0.32572 0.90998 0.0
C283 C 0.19782 0.26515 0.85325 0.0
C284 C 0.19159 0.30457 0.86494 0.0
C285 C 0.22543 0.30939 0.94352 0.0
N286 N 0.21883 0.2494 0.88654 0.0
C287 C 0.23309 0.27085 0.93143 0.0
O288 O 0.24214 0.47608 0.83588 0.0
C289 C 0.27222 0.4717 0.86287 0.0
O290 O 0.25882 0.43928 0.89593 0.0
H291 H 0.17627 0.31841 0.83832 0.0
H292 H 0.23627 0.32684 0.97892 0.0
C293 C 0.17742 0.54084 0.84275 0.0
C294 C 0.16896 0.57378 0.86971 0.0
C295 C 0.11705 0.51021 0.92353 0.0
C296 C 0.12633 0.47795 0.89761 0.0
N297 N 0.15537 0.49331 0.85705 0.0
N298 N 0.13872 0.55734 0.9092 0.0
H299 H 0.20216 0.55308 0.81179 0.0
C300 C 0.24553 0.41711 0.02007 0.0
O301 O 0.28453 0.44006 0.99256 0.0
O302 O 0.16214 0.44153 0.75213 0.0
H303 H 0.10996 0.44067 0.90961 0.0
H304 H 0.18687 0.24782 0.81764 0.0
H305 H 0.09344 0.49808 0.95534 0.0
Zn306 Zn 0.74482 0.59599 0.68364 0.0
C307 C 0.78355 0.70765 0.59105 0.0
N308 N 0.75961 0.72054 0.62288 0.0
C309 C 0.75028 0.68971 0.66061 0.0
N310 N 0.76788 0.65925 0.65207 0.0
N311 N 0.79038 0.67192 0.60896 0.0
C312 C 0.85125 0.62266 0.49025 0.0
O313 O 0.86755 0.59997 0.51781 0.0
O314 O 0.74235 0.60283 0.75741 0.0
Zn315 Zn 0.83993 0.658 0.58438 0.0
N316 N 0.68232 0.54897 0.65388 0.0
C317 C 0.62711 0.53235 0.58748 0.0
C318 C 0.6687 0.56443 0.61341 0.0
C319 C 0.6566 0.50134 0.66811 0.0
N320 N 0.60154 0.48517 0.6016 0.0
C321 C 0.61509 0.46848 0.64106 0.0
O322 O 0.84018 0.59993 0.61457 0.0
C323 C 0.82042 0.56796 0.648 0.0
O324 O 0.78654 0.56523 0.67494 0.0
H325 H 0.69004 0.60151 0.601 0.0
H326 H 0.66918 0.48887 0.69879 0.0
C327 C 0.93947 0.73031 0.56581 0.0
C328 C 0.98595 0.76851 0.57794 0.0
C329 C 0.95691 0.7734 0.65676 0.0
C330 C 0.91104 0.7344 0.645 0.0
N331 N 0.90312 0.71378 0.59966 0.0
N332 N 0.99344 0.78941 0.62316 0.0
H333 H 0.93249 0.71346 0.53006 0.0
C334 C 0.78426 0.62078 0.77699 0.0
O335 O 0.82245 0.63621 0.7483 0.0
O336 O 0.83621 0.64897 0.51025 0.0
H337 H 0.88202 0.72044 0.67181 0.0
H338 H 0.61583 0.54459 0.55562 0.0
H339 H 0.9636 0.79031 0.69262 0.0
Zn340 Zn 0.45213 0.15825 0.68535 0.0
C341 C 0.33889 0.08817 0.59245 0.0
N342 N 0.32529 0.04967 0.62138 0.0
C343 C 0.35588 0.06669 0.65969 0.0
N344 N 0.38803 0.11563 0.65395 0.0
N345 N 0.37577 0.1287 0.61212 0.0
C346 C 0.43136 0.23694 0.49193 0.0
O347 O 0.46265 0.27329 0.51917 0.0
O348 O 0.44775 0.15426 0.7599 0.0
Zn349 Zn 0.39162 0.19295 0.58719 0.0
N350 N 0.49968 0.14439 0.6541 0.0
C351 C 0.51639 0.10763 0.58598 0.0
C352 C 0.4842 0.11609 0.61298 0.0
C353 C 0.54712 0.16585 0.66844 0.0
N354 N 0.56349 0.129 0.60011 0.0
C355 C 0.57997 0.15815 0.6404 0.0
O356 O 0.45025 0.2511 0.6157 0.0
C357 C 0.48199 0.26262 0.64905 0.0
O358 O 0.48389 0.23084 0.67559 0.0
H359 H 0.44685 0.09962 0.60138 0.0
H360 H 0.55937 0.18963 0.70016 0.0
C361 C 0.32224 0.22371 0.56985 0.0
C362 C 0.28406 0.23197 0.58181 0.0
C363 C 0.27694 0.19554 0.65964 0.0
C364 C 0.31555 0.18809 0.64792 0.0
N365 N 0.33723 0.20205 0.60314 0.0
N366 N 0.26214 0.21748 0.62646 0.0
H367 H 0.34017 0.23488 0.53458 0.0
C368 C 0.42525 0.17432 0.77828 0.0
O369 O 0.4045 0.19107 0.74849 0.0
O370 O 0.39897 0.19793 0.51234 0.0
H371 H 0.32803 0.17113 0.67414 0.0
H372 H 0.50419 0.08474 0.55363 0.0
H373 H 0.25915 0.18434 0.69502 0.0
Zn374 Zn 0.8553 0.20801 0.584 0.0
C375 C 0.9769 0.29951 0.65961 0.0
N376 N 0.99826 0.29031 0.62168 0.0
C377 C 0.96111 0.2654 0.59051 0.0
N378 N 0.91852 0.25787 0.60901 0.0
N379 N 0.92849 0.28066 0.65202 0.0
C380 C 0.87151 0.26277 0.77838 0.0
O381 O 0.85418 0.22364 0.75075 0.0
O382 O 0.8507 0.21097 0.50951 0.0
Zn383 Zn 0.88779 0.30363 0.68328 0.0
N384 N 0.84715 0.14489 0.6014 0.0
C385 C 0.85347 0.09272 0.66032 0.0
C386 C 0.86098 0.13846 0.64679 0.0
C387 C 0.82545 0.10708 0.56936 0.0
N388 N 0.83124 0.05483 0.62839 0.0
C389 C 0.81701 0.06099 0.58309 0.0
O390 O 0.81593 0.26328 0.67122 0.0
C391 C 0.78488 0.22938 0.64427 0.0
O392 O 0.79687 0.20864 0.6118 0.0
H393 H 0.87712 0.16848 0.67239 0.0
H394 H 0.81343 0.11217 0.53394 0.0
C395 C 0.88556 0.39425 0.67051 0.0
C396 C 0.89514 0.43635 0.64402 0.0
C397 C 0.94502 0.42286 0.58907 0.0
C398 C 0.93405 0.38036 0.61407 0.0
N399 N 0.90546 0.36714 0.6549 0.0
N400 N 0.92513 0.44964 0.60436 0.0
H401 H 0.86116 0.38224 0.70174 0.0
C402 C 0.809 0.18713 0.48943 0.0
O403 O 0.77037 0.16289 0.51724 0.0
O404 O 0.89214 0.30442 0.75776 0.0
H405 H 0.94821 0.358 0.60063 0.0
H406 H 0.86441 0.08719 0.6963 0.0
H407 H 0.96829 0.43391 0.557 0.0
C408 C 0.29289 0.96662 0.00922 0.0
C409 C 0.26249 0.96223 0.969 0.0
C410 C 0.23132 1.00762 0.01412 0.0
C411 C 0.26452 1.01529 0.05256 0.0
N412 N 0.31537 0.9907 0.09433 0.0
N413 N 0.19333 0.96513 0.93807 0.0
C414 C 0.29108 0.99043 0.05277 0.0
C415 C 0.22821 0.97805 0.9734 0.0
N416 N 0.32623 0.9517 1.00432 0.0
N417 N 0.20483 0.03073 0.01554 0.0
H418 H 0.19081 0.94335 0.90816 0.0
H419 H 0.16475 0.97218 0.94046 0.0
H420 H 0.20511 0.05098 0.04591 0.0
H421 H 0.18408 0.03137 0.98626 0.0
H422 H 0.35392 0.95994 0.02954 0.0
H423 H 0.32755 0.93258 0.97377 0.0
H424 H 0.33222 0.97001 0.09846 0.0
H425 H 0.31489 1.00841 0.12647 0.0
C426 C 0.04495 0.31076 0.04353 0.0
C427 C 1.02157 0.25924 0.04421 0.0
C428 C 0.06312 0.25984 0.9681 0.0
C429 C 0.08289 0.31089 0.96502 0.0
N430 N 0.10496 0.38653 0.00547 0.0
N431 N 1.01708 0.18545 0.01552 0.0
C432 C 0.07823 0.33691 0.005 0.0
C433 C 0.03392 0.23403 0.00933 0.0
N434 N 0.03346 0.33433 0.07851 0.0
N435 N 0.07068 0.23613 0.93022 0.0
H436 H 0.99504 0.16574 0.04506 0.0
H437 H 1.02745 0.16529 0.9937 0.0
H438 H 0.09423 0.25483 0.90127 0.0
H439 H 0.05325 0.1985 0.92667 0.0
H440 H 0.04437 0.37113 0.07713 0.0
H441 H 1.01096 0.3164 0.10842 0.0
H442 H 0.10616 0.40794 0.03499 0.0
H443 H 0.12989 0.40633 0.97797 0.0
C444 C 0.80948 0.81525 0.0173 0.0
C445 C 0.78399 0.77628 0.05083 0.0
C446 C 0.70932 0.74694 1.00273 0.0
C447 C 0.73544 0.78344 0.9675 0.0
N448 N 0.80651 0.85771 0.94392 0.0
N449 N 0.70872 0.71155 0.08263 0.0
C450 C 0.78432 0.81971 0.97604 0.0
C451 C 0.73319 0.74448 0.04609 0.0
N452 N 0.85828 0.84589 0.02338 0.0
N453 N 0.66256 0.71326 0.99148 0.0
H454 H 0.72577 0.71003 0.11484 0.0
H455 H 0.67138 0.68803 0.08326 0.0
H456 H 0.64008 0.68273 0.01253 0.0
H457 H 0.64008 0.68273 0.01253 0.0
H458 H 0.88048 0.87204 0.9979 0.0
H459 H 0.87727 0.84417 0.05388 0.0
H460 H 0.84084 0.88781 0.94924 0.0
H461 H 0.78871 0.86047 0.91297 0.0
C462 C 1.01992 0.22405 0.49898 0.0
C463 C 1.0231 0.25345 0.45835 0.0
C464 C 0.96821 0.27571 0.4989 0.0
C465 C 0.96878 0.25005 0.54142 0.0
N466 N 0.98138 0.1882 0.57715 0.0
N467 N 0.98938 0.29432 0.41259 0.0
C468 C 0.98984 0.21997 0.53954 0.0
C469 C 0.99309 0.27456 0.45585 0.0
N470 N 0.04764 0.20223 0.49964 0.0
N471 N 0.94721 0.30412 0.50092 0.0
H472 H 1.00792 0.29443 0.38087 0.0
H473 H 0.96488 0.30653 0.40685 0.0
H474 H 0.92676 0.30401 0.5309 0.0
H475 H 0.95118 0.32888 0.47369 0.0
H476 H 0.05161 0.18499 0.53036 0.0
H477 H 0.06826 0.20293 0.46943 0.0
H478 H 0.99249 0.16245 0.5769 0.0
H479 H 0.9592 0.18494 0.60691 0.0
C480 C 0.82801 0.78158 0.53953 0.0
C481 C 0.79817 0.73039 0.54174 0.0
C482 C 0.77245 0.72965 0.45655 0.0
C483 C 0.79345 0.78084 0.45884 0.0
N484 N 0.84478 0.8569 0.49973 0.0
N485 N 0.7436 0.65443 0.50187 0.0
C486 C 0.8232 0.80734 0.49917 0.0
C487 C 0.77196 0.70388 0.49956 0.0
N488 N 0.8604 0.80518 0.57658 0.0
N489 N 0.7522 0.70582 0.41355 0.0
H490 H 0.7442 0.63418 0.53168 0.0
H491 H 0.7184 0.6335 0.47503 0.0
H492 H 0.75135 0.7239 0.38187 0.0
H493 H 0.74029 0.66911 0.40792 0.0
H494 H 0.88605 0.8421 0.57598 0.0
H495 H 0.86433 0.78644 0.6061 0.0
H496 H 0.86222 0.87825 0.53033 0.0
H497 H 0.8436 0.8767 0.46964 0.0
C498 C 0.24128 0.03131 0.49916 0.0
C499 C 0.26752 0.02448 0.46085 0.0
C500 C 0.34449 0.07886 0.50201 0.0
C501 C 0.31811 0.08222 0.54247 0.0
N502 N 0.24412 0.07392 0.5746 0.0
N503 N 0.34316 0.05236 0.41797 0.0
C504 C 0.26727 0.06288 0.53891 0.0
C505 C 0.31892 0.0522 0.45956 0.0
N506 N 0.19162 1.00566 0.49857 0.0
N507 N 0.39348 0.09759 0.50587 0.0
H508 H 0.32529 0.03241 0.38667 0.0
H509 H 0.38033 0.07534 0.4129 0.0
H510 H 0.4138 0.12041 0.53458 0.0
H511 H 0.41377 0.08966 0.48139 0.0
H512 H 0.16996 1.00459 0.52779 0.0
H513 H 0.17185 0.98377 0.46895 0.0
H514 H 0.2077 0.06436 0.57302 0.0
H515 H 0.26295 0.09633 0.60424 0.0
C516 C 0.81496 0.02045 1.00294 0.0
C517 C 0.78338 1.01499 0.96359 0.0
C518 C 0.76313 0.07197 1.00284 0.0
C519 C 0.79149 0.07423 0.04414 0.0
N520 N 0.85556 0.06398 0.0776 0.0
N521 N 0.73896 0.04534 0.91859 0.0
C522 C 0.82143 0.05305 0.04189 0.0
C523 C 0.76157 0.04438 0.96096 0.0
N524 N 0.83672 0.99267 1.0041 0.0
N525 N 0.73492 0.09311 0.00512 0.0
H526 H 0.73682 0.0249 0.88766 0.0
H527 H 0.72611 0.0693 0.91255 0.0
H528 H 0.73842 0.11706 0.03305 0.0
H529 H 0.70751 0.08625 0.97998 0.0
H530 H 0.85558 0.99051 0.03437 0.0
H531 H 0.83416 0.96998 0.9751 0.0
H532 H 0.88132 0.0529 0.07675 0.0
H533 H 0.86074 0.08822 0.10598 0.0
C534 C 1.01179 0.72338 0.9665 0.0
C535 C 0.03414 0.77477 0.96364 0.0
C536 C 0.98936 0.77566 0.03664 0.0
C537 C 0.97011 0.72487 0.04165 0.0
N538 N 0.95 0.64856 0.00448 0.0
N539 N 0.03613 0.8487 0.98747 0.0
C540 C 0.97698 0.69812 1.00404 0.0
C541 C 1.01991 0.80053 0.99582 0.0
N542 N 1.02553 0.69909 0.93469 0.0
N543 N 0.97999 0.80005 0.07242 0.0
H544 H 0.05903 0.86768 0.95814 0.0
H545 H 1.0245 0.86907 0.00719 0.0
H546 H 0.9555 0.78181 0.10089 0.0
H547 H 0.99683 0.83774 0.07471 0.0
H548 H 1.01519 0.66256 0.93841 0.0
H549 H 0.04952 0.71617 0.90557 0.0
H550 H 0.95019 0.62645 0.97634 0.0
H551 H 0.92314 0.62983 0.03075 0.0
C552 C 0.26073 0.21704 0.04332 0.0
C553 C 0.31172 0.24806 0.04554 0.0
C554 C 0.31078 0.27982 0.96359 0.0
C555 C 0.2594 0.25613 0.9661 0.0
N556 N 0.1843 0.1997 0.00573 0.0
N557 N 0.38652 0.30735 0.00736 0.0
C558 C 0.23393 0.2232 0.00481 0.0
C559 C 0.33725 0.27817 0.00498 0.0
N560 N 0.23832 0.18229 0.07872 0.0
N561 N 0.33411 0.30405 0.92168 0.0
H562 H 0.40719 0.30425 0.03527 0.0
H563 H 0.4068 0.3352 0.98252 0.0
H564 H 0.31564 0.3065 0.8911 0.0
H565 H 0.37107 0.31808 0.91549 0.0
H566 H 0.2017 0.15581 0.07793 0.0
H567 H 0.25785 0.17762 0.10697 0.0
H568 H 0.1634 0.17932 0.03545 0.0
H569 H 0.16385 0.20221 0.97704 0.0
C570 C 0.05757 0.76404 0.54577 0.0
C571 C 1.02678 0.78433 0.54255 0.0
C572 C 0.06492 0.82289 0.46429 0.0
C573 C 0.08774 0.79442 0.46272 0.0
N574 N 0.1083 0.73931 0.50239 0.0
N575 N 1.00283 0.83609 0.5013 0.0
C576 C 0.08601 0.76652 0.50424 0.0
C577 C 0.03161 0.81545 0.5029 0.0
N578 N 0.05898 0.74178 0.58825 0.0
N579 N 0.07488 0.85642 0.42809 0.0
H580 H 0.97965 0.83289 0.53007 0.0
H581 H 1.00042 0.85474 0.47097 0.0
H582 H 0.0994 0.86204 0.39982 0.0
H583 H 0.06254 0.8812 0.42828 0.0
H584 H 0.08417 0.73058 0.59482 0.0
H585 H 0.03753 0.73812 0.61877 0.0
H586 H 0.10243 0.7125 0.52795 0.0
H587 H 0.13193 0.74264 0.47419 0.0
C588 C 0.29198 0.30919 0.54895 0.0
C589 C 0.26905 0.2578 0.54678 0.0
C590 C 0.22792 0.25769 0.47052 0.0
C591 C 0.25801 0.3088 0.4678 0.0
N592 N 0.3158 0.3845 0.50544 0.0
N593 N 0.21277 0.18193 0.50816 0.0
C594 C 0.28847 0.33503 0.50788 0.0
C595 C 0.23552 0.23159 0.50875 0.0
N596 N 0.31705 0.33309 0.59028 0.0
N597 N 0.19255 0.23451 0.4359 0.0
H598 H 0.21633 0.16188 0.53662 0.0
H599 H 0.192 0.16061 0.47885 0.0
H600 H 0.18673 0.2536 0.40802 0.0
H601 H 0.16662 0.1977 0.4371 0.0
H602 H 0.33078 0.37005 0.59634 0.0
H603 H 0.3208 0.3151 0.62058 0.0
H604 H 0.34387 0.40573 0.52967 0.0
H605 H 0.31044 0.40439 0.47827 0.0
C606 C 0.71195 0.9658 0.50821 0.0
C607 C 0.73826 0.96016 0.46917 0.0
C608 C 0.81415 1.0058 0.51562 0.0
C609 C 0.78911 1.01897 0.54987 0.0
N610 N 0.71439 1.00877 0.58311 0.0
N611 N 0.81228 0.96879 0.43655 0.0
C612 C 0.73781 0.99729 0.54798 0.0
C613 C 0.78872 0.97754 0.47372 0.0
N614 N 0.66234 0.94134 0.50668 0.0
N615 N 0.86227 0.02129 0.52291 0.0
H616 H 0.7936 0.94629 0.40688 0.0
H617 H 0.84978 0.98404 0.43435 0.0
H618 H 0.88147 0.0424 0.55316 0.0
H619 H 0.88246 1.01085 0.50126 0.0
H620 H 0.64029 0.94077 0.53524 0.0
H621 H 0.64286 0.91763 0.4782 0.0
H622 H 0.67795 0.99909 0.58132 0.0
H623 H 0.73212 0.02966 0.614 0.0
C624 C 0.3034 0.27522 0.23981 0.0
C625 C 0.3453 0.30906 0.21329 0.0
C626 C 0.35977 0.3712 0.2752 0.0
C627 C 0.31489 0.3391 0.29839 0.0
N628 N 0.23852 0.26358 0.29468 0.0
N629 N 0.40476 0.39324 0.19887 0.0
C630 C 0.28516 0.29191 0.27831 0.0
C631 C 0.37106 0.35831 0.22888 0.0
N632 N 0.28084 0.22689 0.22827 0.0
N633 N 0.39308 0.41238 0.29854 0.0
H634 H 0.4115 0.3854 0.16363 0.0
H635 H 0.42154 0.43026 0.20693 0.0
H636 H 0.38756 0.41991 0.33426 0.0
H637 H 0.428 0.43507 0.28495 0.0
H638 H 0.25337 0.19999 0.24971 0.0
H639 H 0.29255 0.21325 0.19984 0.0
H640 H 0.21362 0.2309 0.2781 0.0
H641 H 0.22301 0.27527 0.32128 0.0
C642 C 0.6917 0.03682 0.23927 0.0
C643 C 0.73492 0.04685 0.21419 0.0
C644 C 0.74693 0.99571 0.27383 0.0
C645 C 0.70667 0.99014 0.30167 0.0
N646 N 0.6498 1.01778 0.31744 0.0
N647 N 0.8103 0.04574 0.21612 0.0
C648 C 0.68175 1.01448 0.28648 0.0
C649 C 0.76433 0.02887 0.23381 0.0
N650 N 0.65844 0.04534 0.21688 0.0
N651 N 0.76903 0.96965 0.28577 0.0
H652 H 0.82578 0.07266 0.18923 0.0
H653 H 0.8351 0.03756 0.23219 0.0
H654 H 0.75873 0.94637 0.31593 0.0
H655 H 0.79485 0.96811 0.2634 0.0
H656 H 0.62446 0.03502 0.23192 0.0
H657 H 0.66275 0.0569 0.18067 0.0
H658 H 0.63378 0.03873 0.30953 0.0
H659 H 0.64375 1.00408 0.35309 0.0
C660 C 1.01572 0.7458 0.23003 0.0
C661 C 0.99641 0.69763 0.21191 0.0
C662 C 0.03169 0.67902 0.28322 0.0
C663 C 0.0573 0.72893 0.29658 0.0
N664 N 0.07873 0.81149 0.27748 0.0
N665 N 0.99749 0.6224 0.21577 0.0
C666 C 0.05104 0.76283 0.26812 0.0
C667 C 1.00734 0.66511 0.23706 0.0
N668 N 0.99876 0.7748 0.2123 0.0
N669 N 0.02853 0.64456 0.31521 0.0
H670 H 0.98426 0.61389 0.18017 0.0
H671 H 1.00828 0.59913 0.2309 0.0
H672 H 0.04283 0.65329 0.35052 0.0
H673 H 1.00686 0.60738 0.30863 0.0
H674 H 0.97099 0.7628 0.18632 0.0
H675 H 1.00814 0.80853 0.2274 0.0
H676 H 0.07925 0.83806 0.25461 0.0
H677 H 0.10451 0.82543 0.30551 0.0
C678 C 0.77018 0.74372 0.73389 0.0
C679 C 0.73655 0.70009 0.70964 0.0
C680 C 0.67836 0.68275 0.7765 0.0
C681 C 0.70926 0.72933 0.79704 0.0
N682 N 0.7812 0.80834 0.78885 0.0
N683 N 0.65367 0.63499 0.70193 0.0
C684 C 0.75422 0.76105 0.77379 0.0
C685 C 0.6891 0.67148 0.72916 0.0
N686 N 0.81776 0.76831 0.71946 0.0
N687 N 0.6403 0.64834 0.80298 0.0
H688 H 0.65968 0.62843 0.6659 0.0
H689 H 0.61744 0.61556 0.71305 0.0
H690 H 0.63442 0.65438 0.8392 0.0
H691 H 0.61885 0.61252 0.79112 0.0
H692 H 0.8448 0.79752 0.73906 0.0
H693 H 0.83117 0.75645 0.69092 0.0
H694 H 0.81175 0.83431 0.76994 0.0
H695 H 0.7702 0.82299 0.817 0.0
C696 C 0.30061 0.99314 0.71355 0.0
C697 C 0.34732 0.03479 0.70459 0.0
C698 C 0.37005 0.03062 0.78989 0.0
C699 C 0.32201 0.99299 0.79994 0.0
N700 N 0.23849 0.94713 0.77376 0.0
N701 N 0.43022 0.06545 0.726 0.0
C702 C 0.28647 0.97664 0.76243 0.0
C703 C 0.38345 0.04669 0.74065 0.0
N704 N 0.27167 0.96549 0.67572 0.0
N705 N 0.40256 0.05238 0.82721 0.0
H706 H 0.43775 0.066 0.68882 0.0
H707 H 0.45838 0.07129 0.74978 0.0
H708 H 0.39324 0.04353 0.86407 0.0
H709 H 0.43714 0.08224 0.82161 0.0
H710 H 0.23916 0.93302 0.68108 0.0
H711 H 0.28385 0.96865 0.63975 0.0
H712 H 0.21052 0.93856 0.7487 0.0
H713 H 0.22626 0.93609 0.80956 0.0
C714 C 1.01011 0.28035 0.73395 0.0
C715 C 1.00192 0.31437 0.70803 0.0
C716 C 0.04683 0.37513 0.77177 0.0
C717 C 0.0593 0.34279 0.79485 0.0
N718 N 0.06261 0.26866 0.78968 0.0
N719 N 1.0255 0.39846 0.69523 0.0
C720 C 0.04383 0.29657 0.77341 0.0
C721 C 1.0242 0.36316 0.72472 0.0
N722 N 0.98534 0.23227 0.72125 0.0
N723 N 0.05354 0.4156 0.79581 0.0
H724 H 1.01221 0.39128 0.65945 0.0
H725 H 0.04475 0.43529 0.70429 0.0
H726 H 0.06585 0.42262 0.83183 0.0
H727 H 0.04133 0.4383 0.78225 0.0
H728 H 0.98609 0.2052 0.74222 0.0
H729 H 0.96052 0.21881 0.69237 0.0
H730 H 0.05625 0.23678 0.77224 0.0
H731 H 0.08905 0.28022 0.81705 0.0
C732 C 0.55537 0.23355 0.113 0.0
C733 C 0.51511 0.21142 0.14553 0.0
C734 C 0.54301 0.1571 0.17708 0.0
C735 C 0.58301 0.17888 0.14418 0.0
N736 N 0.63205 0.24181 0.08614 0.0
N737 N 0.47324 0.15758 0.21316 0.0
C738 C 0.59072 0.21856 0.11393 0.0
C739 C 0.50996 0.17504 0.17927 0.0
N740 N 0.5587 0.26768 0.08005 0.0
N741 N 0.53544 0.11771 0.20435 0.0
H742 H 0.44709 0.16825 0.2141 0.0
H743 H 0.4701 0.13489 0.24223 0.0
H744 H 0.55981 0.10475 0.20482 0.0
H745 H 0.5042 0.09633 0.22482 0.0
H746 H 0.58375 0.28141 0.05144 0.0
H747 H 0.53462 0.28099 0.07973 0.0
H748 H 0.64294 0.27414 0.06725 0.0
H749 H 0.65753 0.23034 0.08441 0.0
C750 C 0.79977 0.33126 0.14183 0.0
C751 C 0.83143 0.31358 0.15484 0.0
C752 C 0.89653 0.39717 0.17194 0.0
C753 C 0.86538 0.41471 0.15634 0.0
N754 N 0.78603 0.39833 0.12955 0.0
N755 N 0.90642 0.32767 0.19117 0.0
C756 C 0.8165 0.38168 0.14323 0.0
C757 C 0.87889 0.34604 0.17261 0.0
N758 N 0.75353 0.30096 0.12602 0.0
N759 N 0.94347 0.42981 0.18459 0.0
H760 H 0.89434 0.29049 0.19224 0.0
H761 H 0.93978 0.34847 0.20847 0.0
H762 H 0.95628 0.46705 0.18757 0.0
H763 H 0.97018 0.42067 0.19085 0.0
H764 H 0.73793 0.26336 0.12256 0.0
H765 H 0.73793 0.26336 0.12256 0.0
H766 H 0.75002 0.3751 0.11906 0.0
H767 H 0.79642 0.43506 0.12925 0.0
C768 C 0.69586 0.53796 0.17385 0.0
C769 C 0.72715 0.52759 0.14562 0.0
C770 C 0.65872 0.44655 0.12594 0.0
C771 C 0.62657 0.45926 0.14903 0.0
N772 N 0.61304 0.51663 0.19415 0.0
N773 N 0.73917 0.47394 0.09228 0.0
C774 C 0.64484 0.50471 0.17325 0.0
C775 C 0.70889 0.48214 0.12141 0.0
N776 N 0.71511 0.57945 0.20154 0.0
N777 N 0.64111 0.4004 0.10831 0.0
H778 H 0.77624 0.49878 0.08883 0.0
H779 H 0.72734 0.44403 0.06913 0.0
H780 H 0.60446 0.37388 0.11029 0.0
H781 H 0.66302 0.38704 0.09543 0.0
H782 H 0.6953 0.5869 0.22706 0.0
H783 H 0.75204 0.60533 0.20141 0.0
H784 H 0.62293 0.55123 0.20702 0.0
H785 H 0.57581 0.49209 0.19675 0.0
C786 C 0.16405 0.53793 0.33165 0.0
C787 C 0.18486 0.57774 0.36477 0.0
C788 C 0.24114 0.55179 0.39519 0.0
C789 C 0.21655 0.50908 0.36614 0.0
N790 N 0.15349 0.45927 0.30851 0.0
N791 N 0.24232 0.62334 0.42865 0.0
C792 C 0.17798 0.50175 0.33442 0.0
C793 C 0.22357 0.58516 0.39637 0.0
N794 N 0.13099 0.53492 0.29762 0.0
N795 N 0.2814 0.56037 0.42142 0.0
H796 H 0.23213 0.64988 0.42863 0.0
H797 H 0.26641 0.62797 0.4568 0.0
H798 H 0.29444 0.53605 0.42237 0.0
H799 H 0.30391 0.59274 0.43977 0.0
H800 H 0.1176 0.50952 0.26927 0.0
H801 H 0.11963 0.5605 0.29533 0.0
H802 H 0.12184 0.44907 0.28867 0.0
H803 H 0.16315 0.43236 0.30926 0.0
C804 C 0.54848 0.68906 0.33735 0.0
C805 C 0.5378 0.72155 0.36295 0.0
C806 C 0.45501 0.65495 0.37935 0.0
C807 C 0.46758 0.62152 0.3592 0.0
N808 N 0.5257 0.60526 0.31963 0.0
N809 N 0.48319 0.73564 0.41252 0.0
C810 C 0.51406 0.63828 0.33785 0.0
C811 C 0.49144 0.70468 0.38456 0.0
N812 N 0.59137 0.70695 0.31227 0.0
N813 N 0.4082 0.63896 0.39372 0.0
H814 H 0.50884 0.77238 0.41696 0.0
H815 H 0.45241 0.72441 0.43422 0.0
H816 H 0.38096 0.60263 0.39112 0.0
H817 H 0.39532 0.66203 0.40407 0.0
H818 H 0.59951 0.68623 0.28864 0.0
H819 H 0.6179 0.74371 0.31244 0.0
H820 H 0.56061 0.61397 0.30904 0.0
H821 H 0.50038 0.56822 0.31689 0.0
C822 C 0.40898 0.89212 0.33266 0.0
C823 C 0.42649 0.86219 0.35195 0.0
C824 C 0.34294 0.79847 0.37123 0.0
C825 C 0.32557 0.82878 0.35266 0.0
N826 N 0.33967 0.89914 0.30615 0.0
N827 N 0.41035 0.78352 0.3801 0.0
C828 C 0.35795 0.87404 0.33036 0.0
C829 C 0.39341 0.81408 0.36778 0.0
N830 N 0.44142 0.93843 0.3179 0.0
N831 N 0.31164 0.7561 0.39486 0.0
H832 H 0.44712 0.79425 0.37976 0.0
H833 H 0.388 0.74652 0.38677 0.0
H834 H 0.27446 0.74322 0.39802 0.0
H835 H 0.32268 0.73513 0.41438 0.0
H836 H 0.43178 0.96442 0.30932 0.0
H837 H 0.47876 0.9516 0.31608 0.0
H838 H 0.36065 0.92997 0.28494 0.0
H839 H 0.30251 0.88684 0.30396 0.0
C840 C 0.509 0.87206 0.80642 0.0
C841 C 0.47308 0.86123 0.84287 0.0
C842 C 0.4954 0.80591 0.8832 0.0
C843 C 0.5358 0.82235 0.85103 0.0
N844 N 0.58336 0.87312 0.78357 0.0
N845 N 0.43322 0.82014 0.91787 0.0
C846 C 0.54291 0.85555 0.81261 0.0
C847 C 0.46611 0.82822 0.88147 0.0
N848 N 0.51036 0.89802 0.76576 0.0
N849 N 0.48476 0.76853 0.91498 0.0
H850 H 0.41043 0.83495 0.91731 0.0
H851 H 0.43041 0.80116 0.95006 0.0
H852 H 0.50584 0.75185 0.91756 0.0
H853 H 0.45298 0.75129 0.93571 0.0
H854 H 0.53256 0.90347 0.73547 0.0
H855 H 0.48588 0.91044 0.76039 0.0
H856 H 0.59363 0.90139 0.75853 0.0
H857 H 0.60882 0.86176 0.78697 0.0
C858 C 0.18603 0.69637 0.83345 0.0
C859 C 0.23077 0.72787 0.85717 0.0
C860 C 0.23905 0.65823 0.88199 0.0
C861 C 0.19409 0.62659 0.85869 0.0
N862 N 0.12963 0.61479 0.80402 0.0
N863 N 0.30522 0.74091 0.89408 0.0
C864 C 0.16921 0.64555 0.83158 0.0
C865 C 0.25916 0.70943 0.87799 0.0
N866 N 0.15904 0.71499 0.81407 0.0
N867 N 0.26114 0.63924 0.91019 0.0
H868 H 0.32046 0.7786 0.89281 0.0
H869 H 0.32972 0.73001 0.90497 0.0
H870 H 0.24781 0.60196 0.91331 0.0
H871 H 0.29083 0.66002 0.93288 0.0
H872 H 0.12363 0.69373 0.80132 0.0
H873 H 0.17132 0.75221 0.81284 0.0
H874 H 0.1121 0.6264 0.77988 0.0
H875 H 0.11657 0.57743 0.80227 0.0
C876 C 0.34313 0.55454 0.87899 0.0
C877 C 0.32455 0.50768 0.85789 0.0
C878 C 0.40698 0.52679 0.83534 0.0
C879 C 0.42548 0.57375 0.85623 0.0
N880 N 0.41146 0.63628 0.88875 0.0
N881 N 0.33636 0.45168 0.80821 0.0
C882 C 0.39352 0.58896 0.87481 0.0
C883 C 0.3558 0.4946 0.83353 0.0
N884 N 0.31303 0.56514 0.90552 0.0
N885 N 0.43859 0.51259 0.81875 0.0
H886 H 0.29908 0.42712 0.80686 0.0
H887 H 0.35653 0.44187 0.78568 0.0
H888 H 0.47606 0.53625 0.81707 0.0
H889 H 0.42816 0.47709 0.80861 0.0
H890 H 0.32538 0.59613 0.92717 0.0
H891 H 0.27579 0.54111 0.90903 0.0
H892 H 0.38963 0.65101 0.89766 0.0
H893 H 0.44834 0.66216 0.88743 0.0
C894 C 0.88443 0.54758 0.6727 0.0
C895 C 0.83679 0.53199 0.65489 0.0
C896 C 0.82397 0.45004 0.64038 0.0
C897 C 0.87221 0.46601 0.65591 0.0
N898 N 0.94539 0.52598 0.69564 0.0
N899 N 0.75981 0.46625 0.62445 0.0
C900 C 0.90155 0.51371 0.67484 0.0
C901 C 0.80605 0.48278 0.64058 0.0
N902 N 0.9135 0.59504 0.68648 0.0
N903 N 0.79515 0.40368 0.62352 0.0
H904 H 0.74335 0.48752 0.62201 0.0
H905 H 0.74335 0.48752 0.62201 0.0
H906 H 0.80659 0.37819 0.62186 0.0
H907 H 0.7596 0.39078 0.61135 0.0
H908 H 0.95024 0.61063 0.69475 0.0
H909 H 0.90113 0.61987 0.68812 0.0
H910 H 0.96762 0.55869 0.71354 0.0
H911 H 0.95816 0.5015 0.69821 0.0
C912 C 0.55968 0.33327 0.61863 0.0
C913 C 0.52102 0.31425 0.6532 0.0
C914 C 0.54976 0.39612 0.68654 0.0
C915 C 0.58763 0.41533 0.65107 0.0
N916 N 0.63482 0.40262 0.58978 0.0
N917 N 0.48453 0.32459 0.72639 0.0
C918 C 0.59458 0.38385 0.61927 0.0
C919 C 0.51794 0.34479 0.6894 0.0
N920 N 0.56202 0.30306 0.58421 0.0
N921 N 0.54279 0.42719 0.71569 0.0
H922 H 0.46005 0.28735 0.72865 0.0
H923 H 0.48326 0.34392 0.75671 0.0
H924 H 0.5663 0.46473 0.71555 0.0
H925 H 0.51262 0.41633 0.73821 0.0
H926 H 0.58551 0.31503 0.55424 0.0
H927 H 0.53872 0.26546 0.58431 0.0
H928 H 0.6452 0.3816 0.5694 0.0
H929 H 0.66014 0.43968 0.58831 0.0
C930 C 0.70176 0.17315 0.67785 0.0
C931 C 0.733 0.21476 0.64953 0.0
C932 C 0.66464 0.2269 0.62908 0.0
C933 C 0.63253 0.18183 0.65178 0.0
N934 N 0.61888 0.11115 0.69741 0.0
N935 N 0.74496 0.27992 0.59538 0.0
C936 C 0.65072 0.15497 0.67664 0.0
C937 C 0.71478 0.2417 0.62487 0.0
N938 N 0.72106 0.15132 0.70603 0.0
N939 N 0.64699 0.25537 0.61145 0.0
H940 H 0.78203 0.29225 0.59195 0.0
H941 H 0.73294 0.29752 0.57181 0.0
H942 H 0.61032 0.24511 0.61345 0.0
H943 H 0.66895 0.29076 0.5988 0.0
H944 H 0.70115 0.12393 0.73141 0.0
H945 H 0.75815 0.16306 0.70664 0.0
H946 H 0.62887 0.08675 0.7109 0.0
H947 H 0.58157 0.09816 0.69934 0.0
C948 C 0.37826 0.16904 0.85425 0.0
C949 C 0.42336 0.18105 0.83225 0.0
C950 C 0.463 0.21022 0.91222 0.0
C951 C 0.42005 0.2075 0.93147 0.0
N952 N 0.33742 0.18943 0.91664 0.0
N953 N 0.51094 0.22134 0.83935 0.0
C954 C 0.37765 0.18799 0.90148 0.0
C955 C 0.46643 0.20372 0.86094 0.0
N956 N 0.33581 0.13841 0.83059 0.0
N957 N 0.49972 0.21648 0.94295 0.0
H958 H 0.51574 0.21911 0.80174 0.0
H959 H 0.54338 0.24258 0.85828 0.0
H960 H 0.4973 0.21724 0.98114 0.0
H961 H 0.52981 0.21449 0.93086 0.0
H962 H 0.3018 0.12474 0.84701 0.0
H963 H 0.33488 0.12232 0.79683 0.0
H964 H 0.30782 0.18049 0.89374 0.0
H965 H 0.3353 0.204 0.95012 0.0
C966 C 0.81459 0.22751 0.85038 0.0
C967 C 0.86269 0.25755 0.83252 0.0
C968 C 0.89275 0.27622 0.91764 0.0
C969 C 0.84557 0.24185 0.93502 0.0
N970 N 0.76204 0.18229 0.91852 0.0
N971 N 0.9483 0.30743 0.84842 0.0
C972 C 0.80672 0.2165 0.90148 0.0
C973 C 0.90194 0.28148 0.86601 0.0
N974 N 0.77606 0.21222 0.81892 0.0
N975 N 0.92888 0.30353 0.95053 0.0
H976 H 0.95653 0.30998 0.81114 0.0
H977 H 0.97901 0.32388 0.87049 0.0
H978 H 0.92469 0.29877 0.98848 0.0
H979 H 0.96231 0.33309 0.94081 0.0
H980 H 0.73993 0.19414 0.83026 0.0
H981 H 0.78005 0.22213 0.78193 0.0
H982 H 0.73397 0.15807 0.89575 0.0
H983 H 0.7538 0.17626 0.95587 0.0
C984 C 0.84671 0.66403 0.9 0.0
C985 C 0.81847 0.62309 0.93074 0.0
C986 C 0.76501 0.58056 0.86081 0.0
C987 C 0.7913 0.62267 0.83119 0.0
N988 N 0.84761 0.70893 0.82768 0.0
N989 N 0.74057 0.55028 0.94344 0.0
C990 C 0.82912 0.66585 0.85247 0.0
C991 C 0.77451 0.58367 0.91213 0.0
N992 N 0.89142 0.70017 0.91474 0.0
N993 N 0.73283 0.53687 0.84014 0.0
H994 H 0.74403 0.55311 0.9816 0.0
H995 H 0.70627 0.52343 0.93172 0.0
H996 H 0.72564 0.53196 0.80258 0.0
H997 H 0.71685 0.5044 0.85993 0.0
H998 H 0.91536 0.72794 0.89144 0.0
H999 H 0.90677 0.70001 0.9484 0.0
H1000 H 0.87202 0.74232 0.84341 0.0
H1001 H 0.83435 0.71184 0.79351 0.0
C1002 C 0.19677 0.37296 0.60991 0.0
C1003 C 0.2127 0.41432 0.57887 0.0
C1004 C 0.20704 0.46047 0.64855 0.0
C1005 C 0.18842 0.41834 0.67858 0.0
N1006 N 0.15175 0.33117 0.68306 0.0
N1007 N 0.21493 0.49082 0.56567 0.0
C1008 C 0.17889 0.37351 0.65768 0.0
C1009 C 0.21244 0.45616 0.59724 0.0
N1010 N 0.20071 0.33396 0.59521 0.0
N1011 N 0.22204 0.50513 0.66886 0.0
H1012 H 0.21492 0.48742 0.52753 0.0
H1013 H 0.21063 0.51975 0.57718 0.0
H1014 H 0.22034 0.5107 0.70638 0.0
H1015 H 0.2406 0.53733 0.64883 0.0
H1016 H 0.19477 0.30561 0.61876 0.0
H1017 H 0.21426 0.33179 0.56115 0.0
H1018 H 0.13961 0.29695 0.66766 0.0
H1019 H 0.13684 0.33012 0.71753 0.0
C1020 C 0.67601 0.83437 0.60855 0.0
C1021 C 0.63391 0.80896 0.57853 0.0
C1022 C 0.5898 0.75683 0.64877 0.0
C1023 C 0.63284 0.77989 0.67754 0.0
N1024 N 0.72003 0.8307 0.67953 0.0
N1025 N 0.55706 0.7347 0.56669 0.0
C1026 C 0.67695 0.81551 0.65568 0.0
C1027 C 0.59264 0.76676 0.59756 0.0
N1028 N 0.71429 0.87772 0.59357 0.0
N1029 N 0.54567 0.72749 0.67022 0.0
H1030 H 0.5593 0.73823 0.52853 0.0
H1031 H 0.5285 0.70141 0.57863 0.0
H1032 H 0.54102 0.72038 0.70781 0.0
H1033 H 0.51299 0.71418 0.65116 0.0
H1034 H 0.7433 0.89997 0.6165 0.0
H1035 H 0.71508 0.89397 0.56019 0.0
H1036 H 0.75372 0.85305 0.66322 0.0
H1037 H 0.72215 0.81659 0.71346 0.0
C1038 C 0.31662 0.89803 0.63568 0.0
C1039 C 0.28745 0.85791 0.66665 0.0
C1040 C 0.23719 0.81241 0.59609 0.0
C1041 C 0.26382 0.85387 0.56575 0.0
N1042 N 0.32146 0.94006 0.55979 0.0
N1043 N 0.21254 0.7822 0.67892 0.0
C1044 C 0.30143 0.89789 0.58645 0.0
C1045 C 0.24542 0.8167 0.64765 0.0
N1046 N 0.35957 0.93561 0.65264 0.0
N1047 N 0.20624 0.76817 0.57564 0.0
H1048 H 0.21654 0.78462 0.71708 0.0
H1049 H 0.17891 0.754 0.66733 0.0
H1050 H 0.20122 0.76265 0.53783 0.0
H1051 H 0.18955 0.73596 0.59581 0.0
H1052 H 0.38472 0.96336 0.63012 0.0
H1053 H 0.37209 0.93715 0.6884 0.0
H1054 H 0.34566 0.97399 0.57458 0.0
H1055 H 0.31011 0.94215 0.5244 0.0
C1056 C 0.64938 0.88207 0.09655 0.0
C1057 C 0.65322 0.84071 0.08436 0.0
C1058 C 0.63119 0.81117 0.16887 0.0
C1059 C 0.63799 0.85722 0.18312 0.0
N1060 N 0.65386 0.93732 0.16036 0.0
N1061 N 0.64471 0.76384 0.10757 0.0
C1062 C 0.64657 0.89277 0.14683 0.0
C1063 C 0.64298 0.8045 0.12015 0.0
N1064 N 0.64681 0.9101 0.05992 0.0
N1065 N 0.61113 0.77317 0.20129 0.0
H1066 H 0.64867 0.75607 0.07126 0.0
H1067 H 0.64386 0.73901 0.13311 0.0
H1068 H 0.59902 0.77603 0.23612 0.0
H1069 H 0.60145 0.73764 0.19202 0.0
H1070 H 0.64041 0.93877 0.06606 0.0
H1071 H 0.64479 0.90061 0.02297 0.0
H1072 H 0.66492 0.96629 0.13606 0.0
H1073 H 0.65179 0.94642 0.19665 0.0
C1074 C 0.2481 0.82396 0.10954 0.0
C1075 C 0.21028 0.7976 0.07527 0.0
C1076 C 0.1529 0.75583 0.14286 0.0
C1077 C 0.19125 0.78078 0.1771 0.0
N1078 N 0.27736 0.82932 0.19288 0.0
N1079 N 0.1279 0.73476 0.05776 0.0
C1080 C 0.23943 0.81254 0.16043 0.0
C1081 C 0.16308 0.76212 0.0915 0.0
N1082 N 0.29249 0.85974 0.09342 0.0
N1083 N 0.10641 0.72777 0.15951 0.0
H1084 H 0.13263 0.74052 0.01994 0.0
H1085 H 0.09464 0.70451 0.06662 0.0
H1086 H 0.09765 0.72323 0.19669 0.0
H1087 H 0.07601 0.71117 0.13696 0.0
H1088 H 0.31966 0.88432 0.11677 0.0
H1089 H 0.30129 0.86683 0.05626 0.0
H1090 H 0.31373 0.8487 0.18243 0.0
H1091 H 0.27293 0.81964 0.22996 0.0
C1092 C 0.23461 0.44714 0.10204 0.0
C1093 C 0.25049 0.41977 0.07434 0.0
C1094 C 0.27069 0.39275 0.15049 0.0
C1095 C 0.26036 0.42433 0.1779 0.0
N1096 N 0.23825 0.48674 0.17962 0.0
N1097 N 0.29286 0.37425 0.07193 0.0
C1098 C 0.24365 0.45286 0.15367 0.0
C1099 C 0.27148 0.39507 0.09843 0.0
N1100 N 0.21108 0.46773 0.07905 0.0
N1101 N 0.27645 0.35807 0.17402 0.0
H1102 H 0.29455 0.37498 0.0337 0.0
H1103 H 0.3131 0.36042 0.08822 0.0
H1104 H 0.27426 0.35407 0.21208 0.0
H1105 H 0.27711 0.32978 0.15542 0.0
H1106 H 0.19366 0.48326 0.09786 0.0
H1107 H 0.20613 0.46649 0.04105 0.0
H1108 H 0.23092 0.51204 0.16332 0.0
H1109 H 0.24517 0.49243 0.21725 0.0
C1110 C 0.8095 0.59249 0.40875 0.0
C1111 C 0.85306 0.61966 0.43602 0.0
C1112 C 0.89951 0.6467 0.35945 0.0
C1113 C 0.85735 0.61498 0.33248 0.0
N1114 N 0.77268 0.55286 0.33146 0.0
N1115 N 0.94098 0.66525 0.43753 0.0
C1116 C 0.81229 0.58665 0.35709 0.0
C1117 C 0.89853 0.64437 0.41148 0.0
N1118 N 0.76558 0.57221 0.43215 0.0
N1119 N 0.93961 0.68151 0.33555 0.0
H1120 H 0.94232 0.66452 0.47574 0.0
H1121 H 0.9749 0.67917 0.42084 0.0
H1122 H 0.94081 0.68569 0.2975 0.0
H1123 H 0.96887 0.70971 0.3539 0.0
H1124 H 0.7325 0.55696 0.41363 0.0
H1125 H 0.76221 0.57346 0.47021 0.0
H1126 H 0.74018 0.52767 0.34808 0.0
H1127 H 0.77348 0.5472 0.29376 0.0
C1128 C 0.41628 0.2758 0.41879 0.0
C1129 C 0.43116 0.24365 0.43795 0.0
C1130 C 0.45109 0.22951 0.35461 0.0
C1131 C 0.43087 0.25696 0.33496 0.0
N1132 N 0.38989 0.30243 0.34769 0.0
N1133 N 0.46024 0.18758 0.42477 0.0
C1134 C 0.41273 0.2795 0.36692 0.0
C1135 C 0.44751 0.21955 0.40597 0.0
N1136 N 0.40539 0.3027 0.45018 0.0
N1137 N 0.47657 0.21568 0.32458 0.0
H1138 H 0.4621 0.18255 0.46242 0.0
H1139 H 0.46637 0.16412 0.40313 0.0
H1140 H 0.48271 0.22511 0.28748 0.0
H1141 H 0.49602 0.19947 0.33718 0.0
H1142 H 0.40006 0.331 0.43893 0.0
H1143 H 0.40485 0.29918 0.48831 0.0
H1144 H 0.37261 0.31651 0.36878 0.0
H1145 H 0.38506 0.30432 0.31013 0.0
C1146 C 0.82185 0.15981 0.40671 0.0
C1147 C 0.80327 0.18445 0.43511 0.0
C1148 C 0.76881 0.19908 0.36043 0.0
C1149 C 0.78353 0.17062 0.33295 0.0
N1150 N 0.81731 0.11759 0.3309 0.0
N1151 N 0.75549 0.2241 0.44046 0.0
C1152 C 0.80834 0.14938 0.35638 0.0
C1153 C 0.77542 0.20278 0.41239 0.0
N1154 N 0.85275 0.14665 0.42751 0.0
N1155 N 0.75117 0.22497 0.33659 0.0
H1156 H 0.76293 0.23154 0.47783 0.0
H1157 H 0.7296 0.23222 0.42733 0.0
H1158 H 0.74629 0.22389 0.29861 0.0
H1159 H 0.74514 0.25078 0.35377 0.0
H1160 H 0.87182 0.13376 0.40734 0.0
H1161 H 0.86268 0.15214 0.46443 0.0
H1162 H 0.82955 0.09603 0.34722 0.0
H1163 H 0.8084 0.10949 0.29393 0.0
loop_
_geom_bond_atom_site_label_1
_geom_bond_atom_site_label_2
_geom_bond_distance
_geom_bond_site_symmetry_2
_ccdc_geom_bond_type
Zn0 N4 2.020 . S
Zn0 O8 2.019 . S
Zn0 N10 2.119 . S
Zn0 O18 1.975 . S
C1 N2 1.334 . S
C1 N5 1.336 . S
N2 C1 1.334 . S
N2 C3 1.334 . S
C3 N2 1.334 . S
C3 N4 1.336 . S
N4 Zn0 2.020 . S
N4 C3 1.336 . S
N4 N5 1.354 . S
N5 C1 1.336 . S
N5 N4 1.354 . S
N5 Zn9 2.020 . S
C6 O7 1.244 1_556 S
C6 O30 1.257 1_556 S
O7 C6 1.244 1_554 S
O8 Zn0 2.019 . S
O8 C28 1.257 . S
Zn9 N5 2.020 . S
Zn9 O16 1.975 . S
Zn9 N25 2.119 . S
Zn9 O30 2.019 . S
N10 Zn0 2.119 . S
N10 C12 1.334 . S
N10 C13 1.328 . S
C11 C12 1.391 . S
C11 N14 1.329 . S
C11 H32 0.930 . S
C12 N10 1.334 . S
C12 C11 1.391 . S
C12 H19 0.930 . S
C13 N10 1.328 . S
C13 C15 1.392 . S
C13 H20 0.930 . S
N14 C11 1.329 . S
N14 C15 1.331 . S
C15 C13 1.392 . S
C15 N14 1.331 . S
O16 Zn9 1.975 . S
O16 C17 1.252 . S
C17 O16 1.252 . S
C17 O18 1.252 . S
O18 Zn0 1.975 . S
O18 C17 1.252 . S
H19 C12 0.930 . S
H20 C13 0.930 . S
C21 C22 1.392 . S
C21 N25 1.328 . S
C21 H27 0.930 . S
C22 C21 1.392 . S
C22 N26 1.331 . S
C23 C24 1.391 . S
C23 N26 1.329 . S
C23 H33 0.930 . S
C24 C23 1.391 . S
C24 N25 1.334 . S
C24 H31 0.930 . S
N25 Zn9 2.119 . S
N25 C21 1.328 . S
N25 C24 1.334 . S
N26 C22 1.331 . S
N26 C23 1.329 . S
H27 C21 0.930 . S
C28 O8 1.257 . S
C28 O29 1.244 . S
O29 C28 1.244 . S
O30 C6 1.257 1_554 S
O30 Zn9 2.019 . S
H31 C24 0.930 . S
H32 C11 0.930 . S
H33 C23 0.930 . S
Zn34 N38 2.020 . S
Zn34 O42 2.019 . S
Zn34 N44 2.119 . S
Zn34 O52 1.975 . S
C35 N36 1.334 . S
C35 N39 1.336 . S
N36 C35 1.334 . S
N36 C37 1.334 . S
C37 N36 1.334 . S
C37 N38 1.336 . S
N38 Zn34 2.020 . S
N38 C37 1.336 . S
N38 N39 1.354 . S
N39 C35 1.336 . S
N39 N38 1.354 . S
N39 Zn43 2.020 . S
C40 O41 1.244 1_556 S
C40 O64 1.257 1_556 S
O41 C40 1.244 1_554 S
O42 Zn34 2.019 . S
O42 C62 1.257 . S
Zn43 N39 2.020 . S
Zn43 O50 1.975 . S
Zn43 N59 2.119 . S
Zn43 O64 2.019 . S
N44 Zn34 2.119 . S
N44 C46 1.334 . S
N44 C47 1.328 . S
C45 C46 1.391 . S
C45 N48 1.329 . S
C45 H66 0.930 . S
C46 N44 1.334 . S
C46 C45 1.391 . S
C46 H53 0.930 . S
C47 N44 1.328 . S
C47 C49 1.392 . S
C47 H54 0.930 . S
N48 C45 1.329 . S
N48 C49 1.331 . S
C49 C47 1.392 . S
C49 N48 1.331 . S
O50 Zn43 1.975 . S
O50 C51 1.252 . S
C51 O50 1.252 . S
C51 O52 1.252 . S
O52 Zn34 1.975 . S
O52 C51 1.252 . S
H53 C46 0.930 . S
H54 C47 0.930 . S
C55 C56 1.392 . S
C55 N59 1.328 . S
C55 H61 0.930 . S
C56 C55 1.392 . S
C56 N60 1.331 . S
C57 C58 1.391 . S
C57 N60 1.329 . S
C57 H67 0.930 . S
C58 C57 1.391 . S
C58 N59 1.334 . S
C58 H65 0.930 . S
N59 Zn43 2.119 . S
N59 C55 1.328 . S
N59 C58 1.334 . S
N60 C56 1.331 . S
N60 C57 1.329 . S
H61 C55 0.930 . S
C62 O42 1.257 . S
C62 O63 1.244 . S
O63 C62 1.244 . S
O64 C40 1.257 1_554 S
O64 Zn43 2.019 . S
H65 C58 0.930 . S
H66 C45 0.930 . S
H67 C57 0.930 . S
Zn68 N72 2.020 . S
Zn68 O76 2.019 . S
Zn68 N78 2.119 . S
Zn68 O86 1.975 . S
C69 N70 1.334 . S
C69 N73 1.336 . S
N70 C69 1.334 . S
N70 C71 1.334 . S
C71 N70 1.334 . S
C71 N72 1.336 . S
N72 Zn68 2.020 . S
N72 C71 1.336 . S
N72 N73 1.354 . S
N73 C69 1.336 . S
N73 N72 1.354 . S
N73 Zn77 2.020 . S
C74 O75 1.244 1_556 S
C74 O98 1.257 1_556 S
O75 C74 1.244 1_554 S
O76 Zn68 2.019 . S
O76 C96 1.257 . S
Zn77 N73 2.020 . S
Zn77 O84 1.975 . S
Zn77 N93 2.119 . S
Zn77 O98 2.019 . S
N78 Zn68 2.119 . S
N78 C80 1.334 . S
N78 C81 1.328 . S
C79 C80 1.391 . S
C79 N82 1.329 . S
C79 H100 0.930 . S
C80 N78 1.334 . S
C80 C79 1.391 . S
C80 H87 0.930 . S
C81 N78 1.328 . S
C81 C83 1.392 . S
C81 H88 0.930 . S
N82 C79 1.329 . S
N82 C83 1.331 . S
C83 C81 1.392 . S
C83 N82 1.331 . S
O84 Zn77 1.975 . S
O84 C85 1.252 . S
C85 O84 1.252 . S
C85 O86 1.252 . S
O86 Zn68 1.975 . S
O86 C85 1.252 . S
H87 C80 0.930 . S
H88 C81 0.930 . S
C89 C90 1.392 . S
C89 N93 1.328 . S
C89 H95 0.930 . S
C90 C89 1.392 . S
C90 N94 1.331 . S
C91 C92 1.391 . S
C91 N94 1.329 . S
C91 H101 0.930 . S
C92 C91 1.391 . S
C92 N93 1.334 . S
C92 H99 0.930 . S
N93 Zn77 2.119 . S
N93 C89 1.328 . S
N93 C92 1.334 . S
N94 C90 1.331 . S
N94 C91 1.329 . S
H95 C89 0.930 . S
C96 O76 1.257 . S
C96 O97 1.244 . S
O97 C96 1.244 . S
O98 C74 1.257 1_554 S
O98 Zn77 2.019 . S
H99 C92 0.930 . S
H100 C79 0.930 . S
H101 C91 0.930 . S
Zn102 N106 2.020 . S
Zn102 O110 2.019 . S
Zn102 N112 2.119 . S
Zn102 O120 1.975 . S
C103 N104 1.334 . S
C103 N107 1.336 . S
N104 C103 1.334 . S
N104 C105 1.334 . S
C105 N104 1.334 . S
C105 N106 1.336 . S
N106 Zn102 2.020 . S
N106 C105 1.336 . S
N106 N107 1.354 . S
N107 C103 1.336 . S
N107 N106 1.354 . S
N107 Zn111 2.020 . S
C108 O109 1.244 . S
C108 O132 1.257 . S
O109 C108 1.244 . S
O110 Zn102 2.019 . S
O110 C130 1.257 . S
Zn111 N107 2.020 . S
Zn111 O118 1.975 . S
Zn111 N127 2.119 . S
Zn111 O132 2.019 . S
N112 Zn102 2.119 . S
N112 C114 1.334 . S
N112 C115 1.328 . S
C113 C114 1.391 . S
C113 N116 1.329 . S
C113 H134 0.930 . S
C114 N112 1.334 . S
C114 C113 1.391 . S
C114 H121 0.930 . S
C115 N112 1.328 . S
C115 C117 1.392 . S
C115 H122 0.930 . S
N116 C113 1.329 . S
N116 C117 1.331 . S
C117 C115 1.392 . S
C117 N116 1.331 . S
O118 Zn111 1.975 . S
O118 C119 1.252 . S
C119 O118 1.252 . S
C119 O120 1.252 . S
O120 Zn102 1.975 . S
O120 C119 1.252 . S
H121 C114 0.930 . S
H122 C115 0.930 . S
C123 C124 1.392 . S
C123 N127 1.328 . S
C123 H129 0.930 . S
C124 C123 1.392 . S
C124 N128 1.331 . S
C125 C126 1.391 . S
C125 N128 1.329 . S
C125 H135 0.930 . S
C126 C125 1.391 . S
C126 N127 1.334 . S
C126 H133 0.930 . S
N127 Zn111 2.119 . S
N127 C123 1.328 . S
N127 C126 1.334 . S
N128 C124 1.331 . S
N128 C125 1.329 . S
H129 C123 0.930 . S
C130 O110 1.257 . S
C130 O131 1.244 . S
O131 C130 1.244 . S
O132 C108 1.257 . S
O132 Zn111 2.019 . S
H133 C126 0.930 . S
H134 C113 0.930 . S
H135 C125 0.930 . S
Zn136 N140 2.020 . S
Zn136 O144 2.019 . S
Zn136 N146 2.119 . S
Zn136 O154 1.975 . S
C137 N138 1.334 . S
C137 N141 1.336 . S
N138 C137 1.334 . S
N138 C139 1.334 . S
C139 N138 1.334 . S
C139 N140 1.336 . S
N140 Zn136 2.020 . S
N140 C139 1.336 . S
N140 N141 1.354 . S
N141 C137 1.336 . S
N141 N140 1.354 . S
N141 Zn145 2.020 . S
C142 O143 1.244 . S
C142 O166 1.257 . S
O143 C142 1.244 . S
O144 Zn136 2.019 . S
O144 C164 1.257 . S
Zn145 N141 2.020 . S
Zn145 O152 1.975 . S
Zn145 N161 2.119 . S
Zn145 O166 2.019 . S
N146 Zn136 2.119 . S
N146 C148 1.334 . S
N146 C149 1.328 . S
C147 C148 1.391 . S
C147 N150 1.329 . S
C147 H168 0.930 . S
C148 N146 1.334 . S
C148 C147 1.391 . S
C148 H155 0.930 . S
C149 N146 1.328 . S
C149 C151 1.392 . S
C149 H156 0.930 . S
N150 C147 1.329 . S
N150 C151 1.331 . S
C151 C149 1.392 . S
C151 N150 1.331 . S
O152 Zn145 1.975 . S
O152 C153 1.252 . S
C153 O152 1.252 . S
C153 O154 1.252 . S
O154 Zn136 1.975 . S
O154 C153 1.252 . S
H155 C148 0.930 . S
H156 C149 0.930 . S
C157 C158 1.392 . S
C157 N161 1.328 . S
C157 H163 0.930 . S
C158 C157 1.392 . S
C158 N162 1.331 . S
C159 C160 1.391 . S
C159 N162 1.329 . S
C159 H169 0.930 . S
C160 C159 1.391 . S
C160 N161 1.334 . S
C160 H167 0.930 . S
N161 Zn145 2.119 . S
N161 C157 1.328 . S
N161 C160 1.334 . S
N162 C158 1.331 . S
N162 C159 1.329 . S
H163 C157 0.930 . S
C164 O144 1.257 . S
C164 O165 1.244 . S
O165 C164 1.244 . S
O166 C142 1.257 . S
O166 Zn145 2.019 . S
H167 C160 0.930 . S
H168 C147 0.930 . S
H169 C159 0.930 . S
Zn170 N174 2.020 . S
Zn170 O178 2.019 . S
Zn170 N180 2.119 . S
Zn170 O188 1.975 . S
C171 N172 1.334 . S
C171 N175 1.336 . S
N172 C171 1.334 . S
N172 C173 1.334 . S
C173 N172 1.334 . S
C173 N174 1.336 . S
N174 Zn170 2.020 . S
N174 C173 1.336 . S
N174 N175 1.354 . S
N175 C171 1.336 . S
N175 N174 1.354 . S
N175 Zn179 2.020 . S
C176 O177 1.244 . S
C176 O200 1.257 . S
O177 C176 1.244 . S
O178 Zn170 2.019 . S
O178 C198 1.257 . S
Zn179 N175 2.020 . S
Zn179 O186 1.975 . S
Zn179 N195 2.119 . S
Zn179 O200 2.019 . S
N180 Zn170 2.119 . S
N180 C182 1.334 . S
N180 C183 1.328 . S
C181 C182 1.391 . S
C181 N184 1.329 . S
C181 H202 0.930 . S
C182 N180 1.334 . S
C182 C181 1.391 . S
C182 H189 0.930 . S
C183 N180 1.328 . S
C183 C185 1.392 . S
C183 H190 0.930 . S
N184 C181 1.329 . S
N184 C185 1.331 . S
C185 C183 1.392 . S
C185 N184 1.331 . S
O186 Zn179 1.975 . S
O186 C187 1.252 . S
C187 O186 1.252 . S
C187 O188 1.252 . S
O188 Zn170 1.975 . S
O188 C187 1.252 . S
H189 C182 0.930 . S
H190 C183 0.930 . S
C191 C192 1.392 . S
C191 N195 1.328 . S
C191 H197 0.930 . S
C192 C191 1.392 . S
C192 N196 1.331 . S
C193 C194 1.391 . S
C193 N196 1.329 . S
C193 H203 0.930 . S
C194 C193 1.391 . S
C194 N195 1.334 . S
C194 H201 0.930 . S
N195 Zn179 2.119 . S
N195 C191 1.328 . S
N195 C194 1.334 . S
N196 C192 1.331 . S
N196 C193 1.329 . S
H197 C191 0.930 . S
C198 O178 1.257 . S
C198 O199 1.244 . S
O199 C198 1.244 . S
O200 C176 1.257 . S
O200 Zn179 2.019 . S
H201 C194 0.930 . S
H202 C181 0.930 . S
H203 C193 0.930 . S
Zn204 N208 2.020 . S
Zn204 O212 2.019 . S
Zn204 N214 2.119 . S
Zn204 O222 1.975 . S
C205 N206 1.334 . S
C205 N209 1.336 . S
N206 C205 1.334 . S
N206 C207 1.334 . S
C207 N206 1.334 . S
C207 N208 1.336 . S
N208 Zn204 2.020 . S
N208 C207 1.336 . S
N208 N209 1.354 . S
N209 C205 1.336 . S
N209 N208 1.354 . S
N209 Zn213 2.020 . S
C210 O211 1.244 . S
C210 O234 1.257 . S
O211 C210 1.244 . S
O212 Zn204 2.019 . S
O212 C232 1.257 1_556 S
Zn213 N209 2.020 . S
Zn213 O220 1.975 . S
Zn213 N229 2.119 . S
Zn213 O234 2.019 . S
N214 Zn204 2.119 . S
N214 C216 1.334 . S
N214 C217 1.328 . S
C215 C216 1.391 . S
C215 N218 1.329 . S
C215 H236 0.930 . S
C216 N214 1.334 . S
C216 C215 1.391 . S
C216 H223 0.930 . S
C217 N214 1.328 . S
C217 C219 1.392 . S
C217 H224 0.930 . S
N218 C215 1.329 . S
N218 C219 1.331 . S
C219 C217 1.392 . S
C219 N218 1.331 . S
O220 Zn213 1.975 . S
O220 C221 1.252 . S
C221 O220 1.252 . S
C221 O222 1.252 . S
O222 Zn204 1.975 . S
O222 C221 1.252 . S
H223 C216 0.930 . S
H224 C217 0.930 . S
C225 C226 1.392 . S
C225 N229 1.328 . S
C225 H231 0.930 . S
C226 C225 1.392 . S
C226 N230 1.331 . S
C227 C228 1.391 . S
C227 N230 1.329 . S
C227 H237 0.930 . S
C228 C227 1.391 . S
C228 N229 1.334 . S
C228 H235 0.930 . S
N229 Zn213 2.119 . S
N229 C225 1.328 . S
N229 C228 1.334 . S
N230 C226 1.331 . S
N230 C227 1.329 . S
H231 C225 0.930 . S
C232 O212 1.257 1_554 S
C232 O233 1.244 1_554 S
O233 C232 1.244 1_556 S
O234 C210 1.257 . S
O234 Zn213 2.019 . S
H235 C228 0.930 . S
H236 C215 0.930 . S
H237 C227 0.930 . S
Zn238 N242 2.020 . S
Zn238 O246 2.019 . S
Zn238 N248 2.119 . S
Zn238 O256 1.975 . S
C239 N240 1.334 . S
C239 N243 1.336 . S
N240 C239 1.334 . S
N240 C241 1.334 . S
C241 N240 1.334 . S
C241 N242 1.336 . S
N242 Zn238 2.020 . S
N242 C241 1.336 . S
N242 N243 1.354 . S
N243 C239 1.336 . S
N243 N242 1.354 . S
N243 Zn247 2.020 . S
C244 O245 1.244 . S
C244 O268 1.257 . S
O245 C244 1.244 . S
O246 Zn238 2.019 . S
O246 C266 1.257 1_556 S
Zn247 N243 2.020 . S
Zn247 O254 1.975 . S
Zn247 N263 2.119 . S
Zn247 O268 2.019 . S
N248 Zn238 2.119 . S
N248 C250 1.334 . S
N248 C251 1.328 . S
C249 C250 1.391 . S
C249 N252 1.329 . S
C249 H270 0.930 . S
C250 N248 1.334 . S
C250 C249 1.391 . S
C250 H257 0.930 . S
C251 N248 1.328 . S
C251 C253 1.392 . S
C251 H258 0.930 . S
N252 C249 1.329 . S
N252 C253 1.331 . S
C253 C251 1.392 . S
C253 N252 1.331 . S
O254 Zn247 1.975 . S
O254 C255 1.252 . S
C255 O254 1.252 . S
C255 O256 1.252 . S
O256 Zn238 1.975 . S
O256 C255 1.252 . S
H257 C250 0.930 . S
H258 C251 0.930 . S
C259 C260 1.392 . S
C259 N263 1.328 . S
C259 H265 0.930 . S
C260 C259 1.392 . S
C260 N264 1.331 . S
C261 C262 1.391 . S
C261 N264 1.329 . S
C261 H271 0.930 . S
C262 C261 1.391 . S
C262 N263 1.334 . S
C262 H269 0.930 . S
N263 Zn247 2.119 . S
N263 C259 1.328 . S
N263 C262 1.334 . S
N264 C260 1.331 . S
N264 C261 1.329 . S
H265 C259 0.930 . S
C266 O246 1.257 1_554 S
C266 O267 1.244 1_554 S
O267 C266 1.244 1_556 S
O268 C244 1.257 . S
O268 Zn247 2.019 . S
H269 C262 0.930 . S
H270 C249 0.930 . S
H271 C261 0.930 . S
Zn272 N276 2.020 . S
Zn272 O280 2.019 . S
Zn272 N282 2.119 . S
Zn272 O290 1.975 . S
C273 N274 1.334 . S
C273 N277 1.336 . S
N274 C273 1.334 . S
N274 C275 1.334 . S
C275 N274 1.334 . S
C275 N276 1.336 . S
N276 Zn272 2.020 . S
N276 C275 1.336 . S
N276 N277 1.354 . S
N277 C273 1.336 . S
N277 N276 1.354 . S
N277 Zn281 2.020 . S
C278 O279 1.244 . S
C278 O302 1.257 . S
O279 C278 1.244 . S
O280 Zn272 2.019 . S
O280 C300 1.257 1_556 S
Zn281 N277 2.020 . S
Zn281 O288 1.975 . S
Zn281 N297 2.119 . S
Zn281 O302 2.019 . S
N282 Zn272 2.119 . S
N282 C284 1.334 . S
N282 C285 1.328 . S
C283 C284 1.391 . S
C283 N286 1.329 . S
C283 H304 0.930 . S
C284 N282 1.334 . S
C284 C283 1.391 . S
C284 H291 0.930 . S
C285 N282 1.328 . S
C285 C287 1.392 . S
C285 H292 0.930 . S
N286 C283 1.329 . S
N286 C287 1.331 . S
C287 C285 1.392 . S
C287 N286 1.331 . S
O288 Zn281 1.975 . S
O288 C289 1.252 . S
C289 O288 1.252 . S
C289 O290 1.252 . S
O290 Zn272 1.975 . S
O290 C289 1.252 . S
H291 C284 0.930 . S
H292 C285 0.930 . S
C293 C294 1.392 . S
C293 N297 1.328 . S
C293 H299 0.930 . S
C294 C293 1.392 . S
C294 N298 1.331 . S
C295 C296 1.391 . S
C295 N298 1.329 . S
C295 H305 0.930 . S
C296 C295 1.391 . S
C296 N297 1.334 . S
C296 H303 0.930 . S
N297 Zn281 2.119 . S
N297 C293 1.328 . S
N297 C296 1.334 . S
N298 C294 1.331 . S
N298 C295 1.329 . S
H299 C293 0.930 . S
C300 O280 1.257 1_554 S
C300 O301 1.244 1_554 S
O301 C300 1.244 1_556 S
O302 C278 1.257 . S
O302 Zn281 2.019 . S
H303 C296 0.930 . S
H304 C283 0.930 . S
H305 C295 0.930 . S
Zn306 N310 2.020 . S
Zn306 O314 2.019 . S
Zn306 N316 2.119 . S
Zn306 O324 1.975 . S
C307 N308 1.334 . S
C307 N311 1.336 . S
N308 C307 1.334 . S
N308 C309 1.334 . S
C309 N308 1.334 . S
C309 N310 1.336 . S
N310 Zn306 2.020 . S
N310 C309 1.336 . S
N310 N311 1.354 . S
N311 C307 1.336 . S
N311 N310 1.354 . S
N311 Zn315 2.020 . S
C312 O313 1.244 . S
C312 O336 1.257 . S
O313 C312 1.244 . S
O314 Zn306 2.019 . S
O314 C334 1.257 . S
Zn315 N311 2.020 . S
Zn315 O322 1.975 . S
Zn315 N331 2.119 . S
Zn315 O336 2.019 . S
N316 Zn306 2.119 . S
N316 C318 1.334 . S
N316 C319 1.328 . S
C317 C318 1.391 . S
C317 N320 1.329 . S
C317 H338 0.930 . S
C318 N316 1.334 . S
C318 C317 1.391 . S
C318 H325 0.930 . S
C319 N316 1.328 . S
C319 C321 1.392 . S
C319 H326 0.930 . S
N320 C317 1.329 . S
N320 C321 1.331 . S
C321 C319 1.392 . S
C321 N320 1.331 . S
O322 Zn315 1.975 . S
O322 C323 1.252 . S
C323 O322 1.252 . S
C323 O324 1.252 . S
O324 Zn306 1.975 . S
O324 C323 1.252 . S
H325 C318 0.930 . S
H326 C319 0.930 . S
C327 C328 1.392 . S
C327 N331 1.328 . S
C327 H333 0.930 . S
C328 C327 1.392 . S
C328 N332 1.331 . S
C329 C330 1.391 . S
C329 N332 1.329 . S
C329 H339 0.930 . S
C330 C329 1.391 . S
C330 N331 1.334 . S
C330 H337 0.930 . S
N331 Zn315 2.119 . S
N331 C327 1.328 . S
N331 C330 1.334 . S
N332 C328 1.331 . S
N332 C329 1.329 . S
H333 C327 0.930 . S
C334 O314 1.257 . S
C334 O335 1.244 . S
O335 C334 1.244 . S
O336 C312 1.257 . S
O336 Zn315 2.019 . S
H337 C330 0.930 . S
H338 C317 0.930 . S
H339 C329 0.930 . S
Zn340 N344 2.020 . S
Zn340 O348 2.019 . S
Zn340 N350 2.119 . S
Zn340 O358 1.975 . S
C341 N342 1.334 . S
C341 N345 1.336 . S
N342 C341 1.334 . S
N342 C343 1.334 . S
C343 N342 1.334 . S
C343 N344 1.336 . S
N344 Zn340 2.020 . S
N344 C343 1.336 . S
N344 N345 1.354 . S
N345 C341 1.336 . S
N345 N344 1.354 . S
N345 Zn349 2.020 . S
C346 O347 1.244 . S
C346 O370 1.257 . S
O347 C346 1.244 . S
O348 Zn340 2.019 . S
O348 C368 1.257 . S
Zn349 N345 2.020 . S
Zn349 O356 1.975 . S
Zn349 N365 2.119 . S
Zn349 O370 2.019 . S
N350 Zn340 2.119 . S
N350 C352 1.334 . S
N350 C353 1.328 . S
C351 C352 1.391 . S
C351 N354 1.329 . S
C351 H372 0.930 . S
C352 N350 1.334 . S
C352 C351 1.391 . S
C352 H359 0.930 . S
C353 N350 1.328 . S
C353 C355 1.392 . S
C353 H360 0.930 . S
N354 C351 1.329 . S
N354 C355 1.331 . S
C355 C353 1.392 . S
C355 N354 1.331 . S
O356 Zn349 1.975 . S
O356 C357 1.252 . S
C357 O356 1.252 . S
C357 O358 1.252 . S
O358 Zn340 1.975 . S
O358 C357 1.252 . S
H359 C352 0.930 . S
H360 C353 0.930 . S
C361 C362 1.392 . S
C361 N365 1.328 . S
C361 H367 0.930 . S
C362 C361 1.392 . S
C362 N366 1.331 . S
C363 C364 1.391 . S
C363 N366 1.329 . S
C363 H373 0.930 . S
C364 C363 1.391 . S
C364 N365 1.334 . S
C364 H371 0.930 . S
N365 Zn349 2.119 . S
N365 C361 1.328 . S
N365 C364 1.334 . S
N366 C362 1.331 . S
N366 C363 1.329 . S
H367 C361 0.930 . S
C368 O348 1.257 . S
C368 O369 1.244 . S
O369 C368 1.244 . S
O370 C346 1.257 . S
O370 Zn349 2.019 . S
H371 C364 0.930 . S
H372 C351 0.930 . S
H373 C363 0.930 . S
Zn374 N378 2.020 . S
Zn374 O382 2.019 . S
Zn374 N384 2.119 . S
Zn374 O392 1.975 . S
C375 N376 1.334 . S
C375 N379 1.336 . S
N376 C375 1.334 . S
N376 C377 1.334 . S
C377 N376 1.334 . S
C377 N378 1.336 . S
N378 Zn374 2.020 . S
N378 C377 1.336 . S
N378 N379 1.354 . S
N379 C375 1.336 . S
N379 N378 1.354 . S
N379 Zn383 2.020 . S
C380 O381 1.244 . S
C380 O404 1.257 . S
O381 C380 1.244 . S
O382 Zn374 2.019 . S
O382 C402 1.257 . S
Zn383 N379 2.020 . S
Zn383 O390 1.975 . S
Zn383 N399 2.119 . S
Zn383 O404 2.019 . S
N384 Zn374 2.119 . S
N384 C386 1.334 . S
N384 C387 1.328 . S
C385 C386 1.391 . S
C385 N388 1.329 . S
C385 H406 0.930 . S
C386 N384 1.334 . S
C386 C385 1.391 . S
C386 H393 0.930 . S
C387 N384 1.328 . S
C387 C389 1.392 . S
C387 H394 0.930 . S
N388 C385 1.329 . S
N388 C389 1.331 . S
C389 C387 1.392 . S
C389 N388 1.331 . S
O390 Zn383 1.975 . S
O390 C391 1.252 . S
C391 O390 1.252 . S
C391 O392 1.252 . S
O392 Zn374 1.975 . S
O392 C391 1.252 . S
H393 C386 0.930 . S
H394 C387 0.930 . S
C395 C396 1.392 . S
C395 N399 1.328 . S
C395 H401 0.930 . S
C396 C395 1.392 . S
C396 N400 1.331 . S
C397 C398 1.391 . S
C397 N400 1.329 . S
C397 H407 0.930 . S
C398 C397 1.391 . S
C398 N399 1.334 . S
C398 H405 0.930 . S
N399 Zn383 2.119 . S
N399 C395 1.328 . S
N399 C398 1.334 . S
N400 C396 1.331 . S
N400 C397 1.329 . S
H401 C395 0.930 . S
C402 O382 1.257 . S
C402 O403 1.244 . S
O403 C402 1.244 . S
O404 C380 1.257 . S
O404 Zn383 2.019 . S
H405 C398 0.930 . S
H406 C385 0.930 . S
H407 C397 0.930 . S
C408 C409 1.363 . S
C408 C414 1.379 1_565 S
C408 N416 1.356 . S
C409 C408 1.363 . S
C409 C415 1.363 . S
C410 C411 1.363 1_565 S
C410 C415 1.379 1_554 S
C410 N417 1.356 . S
C411 C410 1.363 1_545 S
C411 C414 1.363 1_554 S
N412 C414 1.356 1_554 S
N412 H424 0.984 . S
N412 H425 0.985 . S
N413 C415 1.356 . S
N413 H418 0.984 . S
N413 H419 0.985 . S
C414 C408 1.379 1_545 S
C414 C411 1.363 1_556 S
C414 N412 1.356 1_556 S
C415 C409 1.363 . S
C415 C410 1.379 1_556 S
C415 N413 1.356 . S
N416 C408 1.356 . S
N416 H422 0.984 . S
N416 H423 0.984 . S
N417 C410 1.356 . S
N417 H420 0.984 1_565 S
N417 H421 0.985 . S
H418 N413 0.984 . S
H419 N413 0.985 . S
H420 N417 0.984 1_545 S
H421 N417 0.985 . S
H422 N416 0.984 . S
H423 N416 0.984 . S
H424 N412 0.984 . S
H425 N412 0.985 . S
C426 C427 1.363 1_455 S
C426 C432 1.379 1_554 S
C426 N434 1.356 1_455 S
C427 C426 1.363 1_655 S
C427 C433 1.359 1_654 S
C428 C429 1.363 . S
C428 C433 1.385 . S
C428 N435 1.356 . S
C429 C428 1.363 . S
C429 C432 1.363 . S
N430 C432 1.356 . S
N430 H442 0.984 . S
N430 H443 0.985 . S
N431 C433 1.352 1_654 S
N431 H436 0.984 . S
N431 H437 0.985 1_655 S
C432 C426 1.379 1_556 S
C432 C429 1.363 . S
C432 N430 1.356 . S
C433 C427 1.359 1_456 S
C433 C428 1.385 . S
C433 N431 1.352 1_456 S
N434 C426 1.356 1_655 S
N434 H440 0.984 . S
N434 H441 0.984 . S
N435 C428 1.356 . S
N435 H438 0.984 . S
N435 H439 0.985 . S
H436 N431 0.984 . S
H437 N431 0.985 1_455 S
H438 N435 0.984 . S
H439 N435 0.985 . S
H440 N434 0.984 . S
H441 N434 0.984 . S
H442 N430 0.984 . S
H443 N430 0.985 . S
C444 C445 1.363 . S
C444 C450 1.379 1_554 S
C444 N452 1.356 . S
C445 C444 1.363 . S
C445 C451 1.363 1_554 S
C446 C447 1.363 . S
C446 C451 1.379 . S
C446 N453 1.356 . S
C447 C446 1.363 . S
C447 C450 1.363 . S
N448 C450 1.356 . S
N448 H460 0.984 1_556 S
N448 H461 0.985 . S
N449 C451 1.356 . S
N449 H454 0.984 1_556 S
N449 H455 0.985 . S
C450 C444 1.379 1_556 S
C450 C447 1.363 . S
C450 N448 1.356 . S
C451 C445 1.363 1_556 S
C451 C446 1.379 . S
C451 N449 1.356 . S
N452 C444 1.356 . S
N452 H458 0.984 . S
N452 H459 0.984 . S
N453 C446 1.356 . S
N453 H456 0.984 . S
N453 H457 0.985 . S
H454 N449 0.984 1_554 S
H455 N449 0.985 . S
H456 N453 0.984 . S
H457 N453 0.985 . S
H458 N452 0.984 . S
H459 N452 0.984 . S
H460 N448 0.984 1_554 S
H461 N448 0.985 . S
C462 C463 1.363 . S
C462 C468 1.379 1_455 S
C462 N470 1.356 . S
C463 C462 1.363 . S
C463 C469 1.363 1_455 S
C464 C465 1.363 . S
C464 C469 1.379 . S
C464 N471 1.356 . S
C465 C464 1.363 . S
C465 C468 1.363 . S
N466 C468 1.356 . S
N466 H478 0.984 1_655 S
N466 H479 0.985 . S
N467 C469 1.356 . S
N467 H472 0.984 . S
N467 H473 0.985 . S
C468 C462 1.379 1_655 S
C468 C465 1.363 . S
C468 N466 1.356 . S
C469 C463 1.363 1_655 S
C469 C464 1.379 . S
C469 N467 1.356 . S
N470 C462 1.356 . S
N470 H476 0.984 . S
N470 H477 0.984 . S
N471 C464 1.356 . S
N471 H474 0.984 . S
N471 H475 0.985 . S
H472 N467 0.984 . S
H473 N467 0.985 . S
H474 N471 0.984 . S
H475 N471 0.985 . S
H476 N470 0.984 . S
H477 N470 0.984 . S
H478 N466 0.984 1_455 S
H479 N466 0.985 . S
C480 C481 1.363 . S
C480 C486 1.379 . S
C480 N488 1.356 . S
C481 C480 1.363 . S
C481 C487 1.363 . S
C482 C483 1.363 . S
C482 C487 1.379 . S
C482 N489 1.356 . S
C483 C482 1.363 . S
C483 C486 1.363 . S
N484 C486 1.356 . S
N484 H496 0.984 . S
N484 H497 0.985 . S
N485 C487 1.356 . S
N485 H490 0.984 . S
N485 H491 0.985 . S
C486 C480 1.379 . S
C486 C483 1.363 . S
C486 N484 1.356 . S
C487 C481 1.363 . S
C487 C482 1.379 . S
C487 N485 1.356 . S
N488 C480 1.356 . S
N488 H494 0.984 . S
N488 H495 0.984 . S
N489 C482 1.356 . S
N489 H492 0.984 . S
N489 H493 0.985 . S
H490 N485 0.984 . S
H491 N485 0.985 . S
H492 N489 0.984 . S
H493 N489 0.985 . S
H494 N488 0.984 . S
H495 N488 0.984 . S
H496 N484 0.984 . S
H497 N484 0.985 . S
C498 C499 1.363 . S
C498 C504 1.379 1_565 S
C498 N506 1.356 . S
C499 C498 1.363 . S
C499 C505 1.363 1_565 S
C500 C501 1.363 . S
C500 C505 1.379 . S
C500 N507 1.356 . S
C501 C500 1.363 . S
C501 C504 1.363 . S
N502 C504 1.356 . S
N502 H514 0.984 1_545 S
N502 H515 0.985 . S
N503 C505 1.356 . S
N503 H508 0.984 . S
N503 H509 0.985 . S
C504 C498 1.379 1_545 S
C504 C501 1.363 . S
C504 N502 1.356 . S
C505 C499 1.363 1_545 S
C505 C500 1.379 . S
C505 N503 1.356 . S
N506 C498 1.356 . S
N506 H512 0.984 . S
N506 H513 0.984 . S
N507 C500 1.356 . S
N507 H510 0.984 . S
N507 H511 0.985 . S
H508 N503 0.984 . S
H509 N503 0.985 . S
H510 N507 0.984 . S
H511 N507 0.985 . S
H512 N506 0.984 . S
H513 N506 0.984 . S
H514 N502 0.984 1_565 S
H515 N502 0.985 . S
C516 C517 1.363 1_545 S
C516 C522 1.379 1_556 S
C516 N524 1.356 . S
C517 C516 1.363 1_565 S
C517 C523 1.363 1_556 S
C518 C519 1.363 . S
C518 C523 1.379 1_545 S
C518 N525 1.356 . S
C519 C518 1.363 . S
C519 C522 1.363 . S
N520 C522 1.356 . S
N520 H532 0.984 . S
N520 H533 0.985 . S
N521 C523 1.356 1_556 S
N521 H526 0.984 . S
N521 H527 0.985 1_556 S
C522 C516 1.379 1_554 S
C522 C519 1.363 . S
C522 N520 1.356 . S
C523 C517 1.363 1_554 S
C523 C518 1.379 1_565 S
C523 N521 1.356 1_554 S
N524 C516 1.356 . S
N524 H530 0.984 . S
N524 H531 0.997 . S
N525 C518 1.356 . S
N525 H528 0.984 . S
N525 H529 0.985 . S
H526 N521 0.984 . S
H527 N521 0.985 1_554 S
H528 N525 0.984 . S
H529 N525 0.985 . S
H530 N524 0.984 . S
H531 N524 0.997 . S
H532 N520 0.984 . S
H533 N520 0.985 . S
C534 C535 1.363 1_554 S
C534 C540 1.379 1_455 S
C534 N542 1.356 . S
C535 C534 1.363 1_556 S
C535 C541 1.363 1_455 S
C536 C537 1.363 . S
C536 C541 1.379 1_554 S
C536 N543 1.356 . S
C537 C536 1.363 . S
C537 C540 1.363 . S
N538 C540 1.356 . S
N538 H550 0.984 1_655 S
N538 H551 0.985 . S
N539 C541 1.356 . S
N539 H544 0.984 . S
N539 H545 0.985 . S
C540 C534 1.379 1_655 S
C540 C537 1.363 . S
C540 N538 1.356 . S
C541 C535 1.363 1_655 S
C541 C536 1.379 1_556 S
C541 N539 1.356 . S
N542 C534 1.356 . S
N542 H548 0.984 . S
N542 H549 0.984 1_554 S
N543 C536 1.356 . S
N543 H546 0.984 . S
N543 H547 0.985 1_554 S
H544 N539 0.984 . S
H545 N539 0.985 . S
H546 N543 0.984 . S
H547 N543 0.985 1_556 S
H548 N542 0.984 . S
H549 N542 0.984 1_556 S
H550 N538 0.984 1_455 S
H551 N538 0.985 . S
C552 C553 1.363 . S
C552 C558 1.379 1_554 S
C552 N560 1.356 . S
C553 C552 1.363 . S
C553 C559 1.363 . S
C554 C555 1.363 1_554 S
C554 C559 1.379 . S
C554 N561 1.356 . S
C555 C554 1.363 1_556 S
C555 C558 1.363 . S
N556 C558 1.356 . S
N556 H568 0.984 . S
N556 H569 0.985 . S
N557 C559 1.356 . S
N557 H562 0.984 . S
N557 H563 0.985 . S
C558 C552 1.379 1_556 S
C558 C555 1.363 . S
C558 N556 1.356 . S
C559 C553 1.363 . S
C559 C554 1.379 . S
C559 N557 1.356 . S
N560 C552 1.356 . S
N560 H566 0.991 . S
N560 H567 0.984 . S
N561 C554 1.356 . S
N561 H564 0.984 1_554 S
N561 H565 0.985 . S
H562 N557 0.984 . S
H563 N557 0.985 . S
H564 N561 0.984 1_556 S
H565 N561 0.985 . S
H566 N560 0.991 . S
H567 N560 0.984 . S
H568 N556 0.984 . S
H569 N556 0.985 . S
C570 C571 1.363 1_455 S
C570 C576 1.379 . S
C570 N578 1.356 1_455 S
C571 C570 1.363 1_655 S
C571 C577 1.363 1_655 S
C572 C573 1.363 . S
C572 C577 1.379 . S
C572 N579 1.356 . S
C573 C572 1.363 . S
C573 C576 1.363 . S
N574 C576 1.356 . S
N574 H586 0.984 . S
N574 H587 0.985 . S
N575 C577 1.356 1_655 S
N575 H580 0.984 . S
N575 H581 0.985 . S
C576 C570 1.379 . S
C576 C573 1.363 . S
C576 N574 1.356 . S
C577 C571 1.363 1_455 S
C577 C572 1.379 . S
C577 N575 1.356 1_455 S
N578 C570 1.356 1_655 S
N578 H584 0.984 1_655 S
N578 H585 0.984 . S
N579 C572 1.356 . S
N579 H582 0.984 . S
N579 H583 0.985 . S
H580 N575 0.984 . S
H581 N575 0.985 . S
H582 N579 0.984 . S
H583 N579 0.985 . S
H584 N578 0.984 1_455 S
H585 N578 0.984 . S
H586 N574 0.984 . S
H587 N574 0.985 . S
C588 C589 1.363 . S
C588 C594 1.379 . S
C588 N596 1.356 . S
C589 C588 1.363 . S
C589 C595 1.363 . S
C590 C591 1.363 . S
C590 C595 1.379 . S
C590 N597 1.356 . S
C591 C590 1.363 . S
C591 C594 1.363 . S
N592 C594 1.356 . S
N592 H604 0.984 . S
N592 H605 0.985 . S
N593 C595 1.356 . S
N593 H598 0.984 . S
N593 H599 0.985 . S
C594 C588 1.379 . S
C594 C591 1.363 . S
C594 N592 1.356 . S
C595 C589 1.363 . S
C595 C590 1.379 . S
C595 N593 1.356 . S
N596 C588 1.356 . S
N596 H602 0.984 . S
N596 H603 0.984 . S
N597 C590 1.356 . S
N597 H600 0.984 . S
N597 H601 0.985 . S
H598 N593 0.984 . S
H599 N593 0.985 . S
H600 N597 0.984 . S
H601 N597 0.985 . S
H602 N596 0.984 . S
H603 N596 0.984 . S
H604 N592 0.984 . S
H605 N592 0.985 . S
C606 C607 1.363 . S
C606 C612 1.379 1_565 S
C606 N614 1.356 . S
C607 C606 1.363 . S
C607 C613 1.363 . S
C608 C609 1.363 1_565 S
C608 C613 1.379 . S
C608 N615 1.356 . S
C609 C608 1.363 1_545 S
C609 C612 1.363 . S
N610 C612 1.356 . S
N610 H622 0.984 . S
N610 H623 0.985 . S
N611 C613 1.356 . S
N611 H616 0.984 . S
N611 H617 0.985 . S
C612 C606 1.379 1_545 S
C612 C609 1.363 . S
C612 N610 1.356 . S
C613 C607 1.363 . S
C613 C608 1.379 . S
C613 N611 1.356 . S
N614 C606 1.356 . S
N614 H620 0.984 1_565 S
N614 H621 0.984 . S
N615 C608 1.356 . S
N615 H618 0.984 . S
N615 H619 0.985 . S
H616 N611 0.984 . S
H617 N611 0.985 . S
H618 N615 0.984 . S
H619 N615 0.985 . S
H620 N614 0.984 1_545 S
H621 N614 0.984 . S
H622 N610 0.984 . S
H623 N610 0.985 . S
C624 C625 1.363 . S
C624 C630 1.379 . S
C624 N632 1.356 . S
C625 C624 1.363 . S
C625 C631 1.363 . S
C626 C627 1.363 . S
C626 C631 1.379 . S
C626 N633 1.356 . S
C627 C626 1.363 . S
C627 C630 1.363 . S
N628 C630 1.356 . S
N628 H640 0.984 . S
N628 H641 0.985 . S
N629 C631 1.356 . S
N629 H634 0.984 . S
N629 H635 0.985 . S
C630 C624 1.379 . S
C630 C627 1.363 . S
C630 N628 1.356 . S
C631 C625 1.363 . S
C631 C626 1.379 . S
C631 N629 1.356 . S
N632 C624 1.356 . S
N632 H638 0.984 . S
N632 H639 0.984 . S
N633 C626 1.356 . S
N633 H636 0.984 . S
N633 H637 0.985 . S
H634 N629 0.984 . S
H635 N629 0.985 . S
H636 N633 0.984 . S
H637 N633 0.985 . S
H638 N632 0.984 . S
H639 N632 0.984 . S
H640 N628 0.984 . S
H641 N628 0.985 . S
C642 C643 1.363 . S
C642 C648 1.379 1_545 S
C642 N650 1.356 . S
C643 C642 1.363 . S
C643 C649 1.363 . S
C644 C645 1.363 . S
C644 C649 1.379 1_565 S
C644 N651 1.356 . S
C645 C644 1.363 . S
C645 C648 1.363 . S
N646 C648 1.356 . S
N646 H658 0.984 . S
N646 H659 0.985 . S
N647 C649 1.356 . S
N647 H652 0.984 . S
N647 H653 0.985 . S
C648 C642 1.379 1_565 S
C648 C645 1.363 . S
C648 N646 1.356 . S
C649 C643 1.363 . S
C649 C644 1.379 1_545 S
C649 N647 1.356 . S
N650 C642 1.356 . S
N650 H656 0.984 . S
N650 H657 0.984 . S
N651 C644 1.356 . S
N651 H654 0.984 . S
N651 H655 0.985 . S
H652 N647 0.984 . S
H653 N647 0.985 . S
H654 N651 0.984 . S
H655 N651 0.985 . S
H656 N650 0.984 . S
H657 N650 0.984 . S
H658 N646 0.984 . S
H659 N646 0.985 . S
C660 C661 1.373 . S
C660 C666 1.366 1_655 S
C660 N668 1.363 . S
C661 C660 1.373 . S
C661 C667 1.363 . S
C662 C663 1.373 . S
C662 C667 1.367 1_455 S
C662 N669 1.363 . S
C663 C662 1.373 . S
C663 C666 1.363 . S
N664 C666 1.356 . S
N664 H676 0.984 . S
N664 H677 0.985 . S
N665 C667 1.356 . S
N665 H670 0.984 . S
N665 H671 0.985 . S
C666 C660 1.366 1_455 S
C666 C663 1.363 . S
C666 N664 1.356 . S
C667 C661 1.363 . S
C667 C662 1.367 1_655 S
C667 N665 1.356 . S
N668 C660 1.363 . S
N668 H674 0.984 1_655 S
N668 H675 0.984 . S
N669 C662 1.363 . S
N669 H672 0.984 . S
N669 H673 0.985 1_455 S
H670 N665 0.984 . S
H671 N665 0.985 . S
H672 N669 0.984 . S
H673 N669 0.985 1_655 S
H674 N668 0.984 1_455 S
H675 N668 0.984 . S
H676 N664 0.984 . S
H677 N664 0.985 . S
C678 C679 1.363 . S
C678 C684 1.379 . S
C678 N686 1.356 . S
C679 C678 1.363 . S
C679 C685 1.363 . S
C680 C681 1.363 . S
C680 C685 1.379 . S
C680 N687 1.356 . S
C681 C680 1.363 . S
C681 C684 1.363 . S
N682 C684 1.356 . S
N682 H694 0.984 . S
N682 H695 0.985 . S
N683 C685 1.356 . S
N683 H688 0.984 . S
N683 H689 0.985 . S
C684 C678 1.379 . S
C684 C681 1.363 . S
C684 N682 1.356 . S
C685 C679 1.363 . S
C685 C680 1.379 . S
C685 N683 1.356 . S
N686 C678 1.356 . S
N686 H692 0.984 . S
N686 H693 0.984 . S
N687 C680 1.356 . S
N687 H690 0.984 . S
N687 H691 0.985 . S
H688 N683 0.984 . S
H689 N683 0.985 . S
H690 N687 0.984 . S
H691 N687 0.985 . S
H692 N686 0.984 . S
H693 N686 0.984 . S
H694 N682 0.984 . S
H695 N682 0.985 . S
C696 C697 1.361 1_565 S
C696 C702 1.381 . S
C696 N704 1.355 1_565 S
C697 C696 1.361 1_545 S
C697 C703 1.363 . S
C698 C699 1.361 1_545 S
C698 C703 1.381 . S
C698 N705 1.355 1_545 S
C699 C698 1.361 1_565 S
C699 C702 1.363 . S
N700 C702 1.356 . S
N700 H712 0.984 . S
N700 H713 0.985 . S
N701 C703 1.356 . S
N701 H706 0.984 . S
N701 H707 0.985 . S
C702 C696 1.381 . S
C702 C699 1.363 . S
C702 N700 1.356 . S
C703 C697 1.363 . S
C703 C698 1.381 . S
C703 N701 1.356 . S
N704 C696 1.355 1_545 S
N704 H710 0.984 1_545 S
N704 H711 0.984 . S
N705 C698 1.355 1_565 S
N705 H708 0.984 . S
N705 H709 0.985 1_565 S
H706 N701 0.984 . S
H707 N701 0.985 . S
H708 N705 0.984 . S
H709 N705 0.985 1_545 S
H710 N704 0.984 1_565 S
H711 N704 0.984 . S
H712 N700 0.984 . S
H713 N700 0.985 . S
C714 C715 1.363 . S
C714 C720 1.379 1_655 S
C714 N722 1.356 . S
C715 C714 1.363 . S
C715 C721 1.363 . S
C716 C717 1.363 . S
C716 C721 1.379 1_455 S
C716 N723 1.356 . S
C717 C716 1.363 . S
C717 C720 1.363 . S
N718 C720 1.356 . S
N718 H730 0.984 . S
N718 H731 0.985 . S
N719 C721 1.356 . S
N719 H724 0.984 . S
N719 H725 0.985 . S
C720 C714 1.379 1_455 S
C720 C717 1.363 . S
C720 N718 1.356 . S
C721 C715 1.363 . S
C721 C716 1.379 1_655 S
C721 N719 1.356 . S
N722 C714 1.356 . S
N722 H728 0.984 . S
N722 H729 0.984 . S
N723 C716 1.356 . S
N723 H726 0.984 . S
N723 H727 0.985 . S
H724 N719 0.984 . S
H725 N719 0.985 . S
H726 N723 0.984 . S
H727 N723 0.985 . S
H728 N722 0.984 . S
H729 N722 0.984 . S
H730 N718 0.984 . S
H731 N718 0.985 . S
C732 C733 1.363 . S
C732 C738 1.379 . S
C732 N740 1.356 . S
C733 C732 1.363 . S
C733 C739 1.363 . S
C734 C735 1.363 . S
C734 C739 1.379 . S
C734 N741 1.356 . S
C735 C734 1.363 . S
C735 C738 1.363 . S
N736 C738 1.356 . S
N736 H748 0.984 . S
N736 H749 0.985 . S
N737 C739 1.356 . S
N737 H742 0.984 . S
N737 H743 0.985 . S
C738 C732 1.379 . S
C738 C735 1.363 . S
C738 N736 1.356 . S
C739 C733 1.363 . S
C739 C734 1.379 . S
C739 N737 1.356 . S
N740 C732 1.356 . S
N740 H746 0.984 . S
N740 H747 0.984 . S
N741 C734 1.356 . S
N741 H744 0.984 . S
N741 H745 0.985 . S
H742 N737 0.984 . S
H743 N737 0.985 . S
H744 N741 0.984 . S
H745 N741 0.985 . S
H746 N740 0.984 . S
H747 N740 0.984 . S
H748 N736 0.984 . S
H749 N736 0.985 . S
C750 C751 1.363 . S
C750 C756 1.379 . S
C750 N758 1.356 . S
C751 C750 1.363 . S
C751 C757 1.363 . S
C752 C753 1.363 . S
C752 C757 1.379 . S
C752 N759 1.356 . S
C753 C752 1.363 . S
C753 C756 1.363 . S
N754 C756 1.356 . S
N754 H766 0.984 . S
N754 H767 0.985 . S
N755 C757 1.356 . S
N755 H760 0.984 . S
N755 H761 0.985 . S
C756 C750 1.379 . S
C756 C753 1.363 . S
C756 N754 1.356 . S
C757 C751 1.363 . S
C757 C752 1.379 . S
C757 N755 1.356 . S
N758 C750 1.356 . S
N758 H764 0.984 . S
N758 H765 0.984 . S
N759 C752 1.356 . S
N759 H762 0.984 . S
N759 H763 0.985 . S
H760 N755 0.984 . S
H761 N755 0.985 . S
H762 N759 0.984 . S
H763 N759 0.985 . S
H764 N758 0.984 . S
H765 N758 0.984 . S
H766 N754 0.984 . S
H767 N754 0.985 . S
C768 C769 1.363 . S
C768 C774 1.379 . S
C768 N776 1.356 . S
C769 C768 1.363 . S
C769 C775 1.363 . S
C770 C771 1.363 . S
C770 C775 1.379 . S
C770 N777 1.356 . S
C771 C770 1.363 . S
C771 C774 1.363 . S
N772 C774 1.356 . S
N772 H784 0.984 . S
N772 H785 0.985 . S
N773 C775 1.356 . S
N773 H778 0.984 . S
N773 H779 0.985 . S
C774 C768 1.379 . S
C774 C771 1.363 . S
C774 N772 1.356 . S
C775 C769 1.363 . S
C775 C770 1.379 . S
C775 N773 1.356 . S
N776 C768 1.356 . S
N776 H782 0.984 . S
N776 H783 0.984 . S
N777 C770 1.356 . S
N777 H780 0.984 . S
N777 H781 0.985 . S
H778 N773 0.984 . S
H779 N773 0.985 . S
H780 N777 0.984 . S
H781 N777 0.985 . S
H782 N776 0.984 . S
H783 N776 0.984 . S
H784 N772 0.984 . S
H785 N772 0.985 . S
C786 C787 1.363 . S
C786 C792 1.379 . S
C786 N794 1.356 . S
C787 C786 1.363 . S
C787 C793 1.363 . S
C788 C789 1.363 . S
C788 C793 1.379 . S
C788 N795 1.356 . S
C789 C788 1.363 . S
C789 C792 1.363 . S
N790 C792 1.356 . S
N790 H802 0.984 . S
N790 H803 0.985 . S
N791 C793 1.356 . S
N791 H796 0.984 . S
N791 H797 0.985 . S
C792 C786 1.379 . S
C792 C789 1.363 . S
C792 N790 1.356 . S
C793 C787 1.363 . S
C793 C788 1.379 . S
C793 N791 1.356 . S
N794 C786 1.356 . S
N794 H800 0.984 . S
N794 H801 0.984 . S
N795 C788 1.356 . S
N795 H798 0.984 . S
N795 H799 0.985 . S
H796 N791 0.984 . S
H797 N791 0.985 . S
H798 N795 0.984 . S
H799 N795 0.985 . S
H800 N794 0.984 . S
H801 N794 0.984 . S
H802 N790 0.984 . S
H803 N790 0.985 . S
C804 C805 1.363 . S
C804 C810 1.379 . S
C804 N812 1.356 . S
C805 C804 1.363 . S
C805 C811 1.363 . S
C806 C807 1.363 . S
C806 C811 1.379 . S
C806 N813 1.356 . S
C807 C806 1.363 . S
C807 C810 1.363 . S
N808 C810 1.356 . S
N808 H820 0.984 . S
N808 H821 0.985 . S
N809 C811 1.356 . S
N809 H814 0.984 . S
N809 H815 0.985 . S
C810 C804 1.379 . S
C810 C807 1.363 . S
C810 N808 1.356 . S
C811 C805 1.363 . S
C811 C806 1.379 . S
C811 N809 1.356 . S
N812 C804 1.356 . S
N812 H818 0.984 . S
N812 H819 0.984 . S
N813 C806 1.356 . S
N813 H816 0.984 . S
N813 H817 0.985 . S
H814 N809 0.984 . S
H815 N809 0.985 . S
H816 N813 0.984 . S
H817 N813 0.985 . S
H818 N812 0.984 . S
H819 N812 0.984 . S
H820 N808 0.984 . S
H821 N808 0.985 . S
C822 C823 1.363 . S
C822 C828 1.379 . S
C822 N830 1.356 . S
C823 C822 1.363 . S
C823 C829 1.363 . S
C824 C825 1.363 . S
C824 C829 1.379 . S
C824 N831 1.356 . S
C825 C824 1.363 . S
C825 C828 1.363 . S
N826 C828 1.356 . S
N826 H838 0.984 . S
N826 H839 0.985 . S
N827 C829 1.356 . S
N827 H832 0.984 . S
N827 H833 0.985 . S
C828 C822 1.379 . S
C828 C825 1.363 . S
C828 N826 1.356 . S
C829 C823 1.363 . S
C829 C824 1.379 . S
C829 N827 1.356 . S
N830 C822 1.356 . S
N830 H836 0.984 . S
N830 H837 0.984 . S
N831 C824 1.356 . S
N831 H834 0.984 . S
N831 H835 0.985 . S
H832 N827 0.984 . S
H833 N827 0.985 . S
H834 N831 0.984 . S
H835 N831 0.985 . S
H836 N830 0.984 . S
H837 N830 0.984 . S
H838 N826 0.984 . S
H839 N826 0.985 . S
C840 C841 1.363 . S
C840 C846 1.379 . S
C840 N848 1.356 . S
C841 C840 1.363 . S
C841 C847 1.363 . S
C842 C843 1.363 . S
C842 C847 1.379 . S
C842 N849 1.356 . S
C843 C842 1.363 . S
C843 C846 1.363 . S
N844 C846 1.356 . S
N844 H856 0.984 . S
N844 H857 0.985 . S
N845 C847 1.356 . S
N845 H850 0.984 . S
N845 H851 0.985 . S
C846 C840 1.379 . S
C846 C843 1.363 . S
C846 N844 1.356 . S
C847 C841 1.363 . S
C847 C842 1.379 . S
C847 N845 1.356 . S
N848 C840 1.356 . S
N848 H854 0.984 . S
N848 H855 0.984 . S
N849 C842 1.356 . S
N849 H852 0.984 . S
N849 H853 0.985 . S
H850 N845 0.984 . S
H851 N845 0.985 . S
H852 N849 0.984 . S
H853 N849 0.985 . S
H854 N848 0.984 . S
H855 N848 0.984 . S
H856 N844 0.984 . S
H857 N844 0.985 . S
C858 C859 1.363 . S
C858 C864 1.379 . S
C858 N866 1.356 . S
C859 C858 1.363 . S
C859 C865 1.363 . S
C860 C861 1.363 . S
C860 C865 1.379 . S
C860 N867 1.356 . S
C861 C860 1.363 . S
C861 C864 1.363 . S
N862 C864 1.356 . S
N862 H874 0.984 . S
N862 H875 0.985 . S
N863 C865 1.356 . S
N863 H868 0.984 . S
N863 H869 0.985 . S
C864 C858 1.379 . S
C864 C861 1.363 . S
C864 N862 1.356 . S
C865 C859 1.363 . S
C865 C860 1.379 . S
C865 N863 1.356 . S
N866 C858 1.356 . S
N866 H872 0.984 . S
N866 H873 0.984 . S
N867 C860 1.356 . S
N867 H870 0.984 . S
N867 H871 0.985 . S
H868 N863 0.984 . S
H869 N863 0.985 . S
H870 N867 0.984 . S
H871 N867 0.985 . S
H872 N866 0.984 . S
H873 N866 0.984 . S
H874 N862 0.984 . S
H875 N862 0.985 . S
C876 C877 1.363 . S
C876 C882 1.379 . S
C876 N884 1.356 . S
C877 C876 1.363 . S
C877 C883 1.363 . S
C878 C879 1.363 . S
C878 C883 1.379 . S
C878 N885 1.356 . S
C879 C878 1.363 . S
C879 C882 1.363 . S
N880 C882 1.356 . S
N880 H892 0.984 . S
N880 H893 0.985 . S
N881 C883 1.356 . S
N881 H886 0.984 . S
N881 H887 0.985 . S
C882 C876 1.379 . S
C882 C879 1.363 . S
C882 N880 1.356 . S
C883 C877 1.363 . S
C883 C878 1.379 . S
C883 N881 1.356 . S
N884 C876 1.356 . S
N884 H890 0.984 . S
N884 H891 0.984 . S
N885 C878 1.356 . S
N885 H888 0.984 . S
N885 H889 0.985 . S
H886 N881 0.984 . S
H887 N881 0.985 . S
H888 N885 0.984 . S
H889 N885 0.985 . S
H890 N884 0.984 . S
H891 N884 0.984 . S
H892 N880 0.984 . S
H893 N880 0.985 . S
C894 C895 1.363 . S
C894 C900 1.379 . S
C894 N902 1.356 . S
C895 C894 1.363 . S
C895 C901 1.363 . S
C896 C897 1.363 . S
C896 C901 1.379 . S
C896 N903 1.356 . S
C897 C896 1.363 . S
C897 C900 1.363 . S
N898 C900 1.356 . S
N898 H910 0.984 . S
N898 H911 0.985 . S
N899 C901 1.356 . S
N899 H904 0.984 . S
N899 H905 0.985 . S
C900 C894 1.379 . S
C900 C897 1.363 . S
C900 N898 1.356 . S
C901 C895 1.363 . S
C901 C896 1.379 . S
C901 N899 1.356 . S
N902 C894 1.356 . S
N902 H908 0.984 . S
N902 H909 0.984 . S
N903 C896 1.356 . S
N903 H906 0.984 . S
N903 H907 0.985 . S
H904 N899 0.984 . S
H905 N899 0.985 . S
H906 N903 0.984 . S
H907 N903 0.985 . S
H908 N902 0.984 . S
H909 N902 0.984 . S
H910 N898 0.984 . S
H911 N898 0.985 . S
C912 C913 1.363 . S
C912 C918 1.379 . S
C912 N920 1.356 . S
C913 C912 1.363 . S
C913 C919 1.363 . S
C914 C915 1.363 . S
C914 C919 1.379 . S
C914 N921 1.356 . S
C915 C914 1.363 . S
C915 C918 1.363 . S
N916 C918 1.356 . S
N916 H928 0.984 . S
N916 H929 0.985 . S
N917 C919 1.356 . S
N917 H922 0.984 . S
N917 H923 0.985 . S
C918 C912 1.379 . S
C918 C915 1.363 . S
C918 N916 1.356 . S
C919 C913 1.363 . S
C919 C914 1.379 . S
C919 N917 1.356 . S
N920 C912 1.356 . S
N920 H926 0.984 . S
N920 H927 0.984 . S
N921 C914 1.356 . S
N921 H924 0.984 . S
N921 H925 0.985 . S
H922 N917 0.984 . S
H923 N917 0.985 . S
H924 N921 0.984 . S
H925 N921 0.985 . S
H926 N920 0.984 . S
H927 N920 0.984 . S
H928 N916 0.984 . S
H929 N916 0.985 . S
C930 C931 1.363 . S
C930 C936 1.379 . S
C930 N938 1.356 . S
C931 C930 1.363 . S
C931 C937 1.363 . S
C932 C933 1.363 . S
C932 C937 1.379 . S
C932 N939 1.356 . S
C933 C932 1.363 . S
C933 C936 1.363 . S
N934 C936 1.356 . S
N934 H946 0.984 . S
N934 H947 0.985 . S
N935 C937 1.356 . S
N935 H940 0.984 . S
N935 H941 0.985 . S
C936 C930 1.379 . S
C936 C933 1.363 . S
C936 N934 1.356 . S
C937 C931 1.363 . S
C937 C932 1.379 . S
C937 N935 1.356 . S
N938 C930 1.356 . S
N938 H944 0.984 . S
N938 H945 0.984 . S
N939 C932 1.356 . S
N939 H942 0.984 . S
N939 H943 0.985 . S
H940 N935 0.984 . S
H941 N935 0.985 . S
H942 N939 0.984 . S
H943 N939 0.985 . S
H944 N938 0.984 . S
H945 N938 0.984 . S
H946 N934 0.984 . S
H947 N934 0.985 . S
C948 C949 1.363 . S
C948 C954 1.379 . S
C948 N956 1.356 . S
C949 C948 1.363 . S
C949 C955 1.363 . S
C950 C951 1.363 . S
C950 C955 1.379 . S
C950 N957 1.356 . S
C951 C950 1.363 . S
C951 C954 1.363 . S
N952 C954 1.356 . S
N952 H964 0.984 . S
N952 H965 0.985 . S
N953 C955 1.356 . S
N953 H958 0.984 . S
N953 H959 0.985 . S
C954 C948 1.379 . S
C954 C951 1.363 . S
C954 N952 1.356 . S
C955 C949 1.363 . S
C955 C950 1.379 . S
C955 N953 1.356 . S
N956 C948 1.356 . S
N956 H962 0.984 . S
N956 H963 0.984 . S
N957 C950 1.356 . S
N957 H960 0.984 . S
N957 H961 0.985 . S
H958 N953 0.984 . S
H959 N953 0.985 . S
H960 N957 0.984 . S
H961 N957 0.985 . S
H962 N956 0.984 . S
H963 N956 0.984 . S
H964 N952 0.984 . S
H965 N952 0.985 . S
C966 C967 1.363 . S
C966 C972 1.379 . S
C966 N974 1.356 . S
C967 C966 1.363 . S
C967 C973 1.363 . S
C968 C969 1.363 . S
C968 C973 1.379 . S
C968 N975 1.356 . S
C969 C968 1.363 . S
C969 C972 1.363 . S
N970 C972 1.356 . S
N970 H982 0.984 . S
N970 H983 0.985 . S
N971 C973 1.356 . S
N971 H976 0.984 . S
N971 H977 0.985 . S
C972 C966 1.379 . S
C972 C969 1.363 . S
C972 N970 1.356 . S
C973 C967 1.363 . S
C973 C968 1.379 . S
C973 N971 1.356 . S
N974 C966 1.356 . S
N974 H980 0.984 . S
N974 H981 0.984 . S
N975 C968 1.356 . S
N975 H978 0.984 1_556 S
N975 H979 0.985 . S
H976 N971 0.984 . S
H977 N971 0.985 . S
H978 N975 0.984 1_554 S
H979 N975 0.985 . S
H980 N974 0.984 . S
H981 N974 0.984 . S
H982 N970 0.984 . S
H983 N970 0.985 . S
C984 C985 1.363 . S
C984 C990 1.379 . S
C984 N992 1.356 . S
C985 C984 1.363 . S
C985 C991 1.363 . S
C986 C987 1.363 . S
C986 C991 1.379 . S
C986 N993 1.356 . S
C987 C986 1.363 . S
C987 C990 1.363 . S
N988 C990 1.356 . S
N988 H1000 0.984 . S
N988 H1001 0.985 . S
N989 C991 1.356 . S
N989 H994 0.984 . S
N989 H995 0.985 . S
C990 C984 1.379 . S
C990 C987 1.363 . S
C990 N988 1.356 . S
C991 C985 1.363 . S
C991 C986 1.379 . S
C991 N989 1.356 . S
N992 C984 1.356 . S
N992 H998 0.984 . S
N992 H999 0.984 . S
N993 C986 1.356 . S
N993 H996 0.984 . S
N993 H997 0.985 . S
H994 N989 0.984 . S
H995 N989 0.985 . S
H996 N993 0.984 . S
H997 N993 0.985 . S
H998 N992 0.984 . S
H999 N992 0.984 . S
H1000 N988 0.984 . S
H1001 N988 0.985 . S
C1002 C1003 1.363 . S
C1002 C1008 1.379 . S
C1002 N1010 1.356 . S
C1003 C1002 1.363 . S
C1003 C1009 1.363 . S
C1004 C1005 1.363 . S
C1004 C1009 1.379 . S
C1004 N1011 1.356 . S
C1005 C1004 1.363 . S
C1005 C1008 1.363 . S
N1006 C1008 1.356 . S
N1006 H1018 0.984 . S
N1006 H1019 0.985 . S
N1007 C1009 1.356 . S
N1007 H1012 0.984 . S
N1007 H1013 0.985 . S
C1008 C1002 1.379 . S
C1008 C1005 1.363 . S
C1008 N1006 1.356 . S
C1009 C1003 1.363 . S
C1009 C1004 1.379 . S
C1009 N1007 1.356 . S
N1010 C1002 1.356 . S
N1010 H1016 0.984 . S
N1010 H1017 0.984 . S
N1011 C1004 1.356 . S
N1011 H1014 0.984 . S
N1011 H1015 0.985 . S
H1012 N1007 0.984 . S
H1013 N1007 0.985 . S
H1014 N1011 0.984 . S
H1015 N1011 0.985 . S
H1016 N1010 0.984 . S
H1017 N1010 0.984 . S
H1018 N1006 0.984 . S
H1019 N1006 0.985 . S
C1020 C1021 1.363 . S
C1020 C1026 1.379 . S
C1020 N1028 1.356 . S
C1021 C1020 1.363 . S
C1021 C1027 1.363 . S
C1022 C1023 1.363 . S
C1022 C1027 1.379 . S
C1022 N1029 1.356 . S
C1023 C1022 1.363 . S
C1023 C1026 1.363 . S
N1024 C1026 1.356 . S
N1024 H1036 0.984 . S
N1024 H1037 0.985 . S
N1025 C1027 1.356 . S
N1025 H1030 0.984 . S
N1025 H1031 0.985 . S
C1026 C1020 1.379 . S
C1026 C1023 1.363 . S
C1026 N1024 1.356 . S
C1027 C1021 1.363 . S
C1027 C1022 1.379 . S
C1027 N1025 1.356 . S
N1028 C1020 1.356 . S
N1028 H1034 0.984 . S
N1028 H1035 0.984 . S
N1029 C1022 1.356 . S
N1029 H1032 0.984 . S
N1029 H1033 0.985 . S
H1030 N1025 0.984 . S
H1031 N1025 0.985 . S
H1032 N1029 0.984 . S
H1033 N1029 0.985 . S
H1034 N1028 0.984 . S
H1035 N1028 0.984 . S
H1036 N1024 0.984 . S
H1037 N1024 0.985 . S
C1038 C1039 1.363 . S
C1038 C1044 1.379 . S
C1038 N1046 1.356 . S
C1039 C1038 1.363 . S
C1039 C1045 1.363 . S
C1040 C1041 1.363 . S
C1040 C1045 1.379 . S
C1040 N1047 1.356 . S
C1041 C1040 1.363 . S
C1041 C1044 1.363 . S
N1042 C1044 1.356 . S
N1042 H1054 0.984 . S
N1042 H1055 0.985 . S
N1043 C1045 1.356 . S
N1043 H1048 0.984 . S
N1043 H1049 0.985 . S
C1044 C1038 1.379 . S
C1044 C1041 1.363 . S
C1044 N1042 1.356 . S
C1045 C1039 1.363 . S
C1045 C1040 1.379 . S
C1045 N1043 1.356 . S
N1046 C1038 1.356 . S
N1046 H1052 0.984 . S
N1046 H1053 0.984 . S
N1047 C1040 1.356 . S
N1047 H1050 0.984 . S
N1047 H1051 0.985 . S
H1048 N1043 0.984 . S
H1049 N1043 0.985 . S
H1050 N1047 0.984 . S
H1051 N1047 0.985 . S
H1052 N1046 0.984 . S
H1053 N1046 0.984 . S
H1054 N1042 0.984 . S
H1055 N1042 0.985 . S
C1056 C1057 1.363 . S
C1056 C1062 1.379 . S
C1056 N1064 1.356 . S
C1057 C1056 1.363 . S
C1057 C1063 1.363 . S
C1058 C1059 1.363 . S
C1058 C1063 1.379 . S
C1058 N1065 1.356 . S
C1059 C1058 1.363 . S
C1059 C1062 1.363 . S
N1060 C1062 1.356 . S
N1060 H1072 0.984 . S
N1060 H1073 0.985 . S
N1061 C1063 1.356 . S
N1061 H1066 0.984 . S
N1061 H1067 0.985 . S
C1062 C1056 1.379 . S
C1062 C1059 1.363 . S
C1062 N1060 1.356 . S
C1063 C1057 1.363 . S
C1063 C1058 1.379 . S
C1063 N1061 1.356 . S
N1064 C1056 1.356 . S
N1064 H1070 0.984 . S
N1064 H1071 0.984 . S
N1065 C1058 1.356 . S
N1065 H1068 0.984 . S
N1065 H1069 0.985 . S
H1066 N1061 0.984 . S
H1067 N1061 0.985 . S
H1068 N1065 0.984 . S
H1069 N1065 0.985 . S
H1070 N1064 0.984 . S
H1071 N1064 0.984 . S
H1072 N1060 0.984 . S
H1073 N1060 0.985 . S
C1074 C1075 1.363 . S
C1074 C1080 1.379 . S
C1074 N1082 1.356 . S
C1075 C1074 1.363 . S
C1075 C1081 1.363 . S
C1076 C1077 1.363 . S
C1076 C1081 1.379 . S
C1076 N1083 1.356 . S
C1077 C1076 1.363 . S
C1077 C1080 1.363 . S
N1078 C1080 1.356 . S
N1078 H1090 0.984 . S
N1078 H1091 0.985 . S
N1079 C1081 1.356 . S
N1079 H1084 0.984 1_554 S
N1079 H1085 0.985 . S
C1080 C1074 1.379 . S
C1080 C1077 1.363 . S
C1080 N1078 1.356 . S
C1081 C1075 1.363 . S
C1081 C1076 1.379 . S
C1081 N1079 1.356 . S
N1082 C1074 1.356 . S
N1082 H1088 0.984 . S
N1082 H1089 0.984 . S
N1083 C1076 1.356 . S
N1083 H1086 0.984 . S
N1083 H1087 0.985 . S
H1084 N1079 0.984 1_556 S
H1085 N1079 0.985 . S
H1086 N1083 0.984 . S
H1087 N1083 0.985 . S
H1088 N1082 0.984 . S
H1089 N1082 0.984 . S
H1090 N1078 0.984 . S
H1091 N1078 0.985 . S
C1092 C1093 1.363 . S
C1092 C1098 1.379 . S
C1092 N1100 1.356 . S
C1093 C1092 1.363 . S
C1093 C1099 1.363 . S
C1094 C1095 1.363 . S
C1094 C1099 1.379 . S
C1094 N1101 1.356 . S
C1095 C1094 1.363 . S
C1095 C1098 1.363 . S
N1096 C1098 1.356 . S
N1096 H1108 0.984 . S
N1096 H1109 0.985 . S
N1097 C1099 1.356 . S
N1097 H1102 0.984 . S
N1097 H1103 0.985 . S
C1098 C1092 1.379 . S
C1098 C1095 1.363 . S
C1098 N1096 1.356 . S
C1099 C1093 1.363 . S
C1099 C1094 1.379 . S
C1099 N1097 1.356 . S
N1100 C1092 1.356 . S
N1100 H1106 0.984 . S
N1100 H1107 0.984 . S
N1101 C1094 1.356 . S
N1101 H1104 0.984 . S
N1101 H1105 0.985 . S
H1102 N1097 0.984 . S
H1103 N1097 0.985 . S
H1104 N1101 0.984 . S
H1105 N1101 0.985 . S
H1106 N1100 0.984 . S
H1107 N1100 0.984 . S
H1108 N1096 0.984 . S
H1109 N1096 0.985 . S
C1110 C1111 1.363 . S
C1110 C1116 1.379 . S
C1110 N1118 1.356 . S
C1111 C1110 1.363 . S
C1111 C1117 1.363 . S
C1112 C1113 1.363 . S
C1112 C1117 1.379 . S
C1112 N1119 1.356 . S
C1113 C1112 1.363 . S
C1113 C1116 1.363 . S
N1114 C1116 1.356 . S
N1114 H1126 0.984 . S
N1114 H1127 0.985 . S
N1115 C1117 1.356 . S
N1115 H1120 0.984 . S
N1115 H1121 0.985 . S
C1116 C1110 1.379 . S
C1116 C1113 1.363 . S
C1116 N1114 1.356 . S
C1117 C1111 1.363 . S
C1117 C1112 1.379 . S
C1117 N1115 1.356 . S
N1118 C1110 1.356 . S
N1118 H1124 0.984 . S
N1118 H1125 0.984 . S
N1119 C1112 1.356 . S
N1119 H1122 0.984 . S
N1119 H1123 0.985 . S
H1120 N1115 0.984 . S
H1121 N1115 0.985 . S
H1122 N1119 0.984 . S
H1123 N1119 0.985 . S
H1124 N1118 0.984 . S
H1125 N1118 0.984 . S
H1126 N1114 0.984 . S
H1127 N1114 0.985 . S
C1128 C1129 1.363 . S
C1128 C1134 1.379 . S
C1128 N1136 1.356 . S
C1129 C1128 1.363 . S
C1129 C1135 1.363 . S
C1130 C1131 1.363 . S
C1130 C1135 1.379 . S
C1130 N1137 1.356 . S
C1131 C1130 1.363 . S
C1131 C1134 1.363 . S
N1132 C1134 1.356 . S
N1132 H1144 0.984 . S
N1132 H1145 0.985 . S
N1133 C1135 1.356 . S
N1133 H1138 0.984 . S
N1133 H1139 0.985 . S
C1134 C1128 1.379 . S
C1134 C1131 1.363 . S
C1134 N1132 1.356 . S
C1135 C1129 1.363 . S
C1135 C1130 1.379 . S
C1135 N1133 1.356 . S
N1136 C1128 1.356 . S
N1136 H1142 0.984 . S
N1136 H1143 0.984 . S
N1137 C1130 1.356 . S
N1137 H1140 0.984 . S
N1137 H1141 0.985 . S
H1138 N1133 0.984 . S
H1139 N1133 0.985 . S
H1140 N1137 0.984 . S
H1141 N1137 0.985 . S
H1142 N1136 0.984 . S
H1143 N1136 0.984 . S
H1144 N1132 0.984 . S
H1145 N1132 0.985 . S
C1146 C1147 1.363 . S
C1146 C1152 1.379 . S
C1146 N1154 1.356 . S
C1147 C1146 1.363 . S
C1147 C1153 1.363 . S
C1148 C1149 1.363 . S
C1148 C1153 1.379 . S
C1148 N1155 1.356 . S
C1149 C1148 1.363 . S
C1149 C1152 1.363 . S
N1150 C1152 1.356 . S
N1150 H1162 0.984 . S
N1150 H1163 0.985 . S
N1151 C1153 1.356 . S
N1151 H1156 0.984 . S
N1151 H1157 0.985 . S
C1152 C1146 1.379 . S
C1152 C1149 1.363 . S
C1152 N1150 1.356 . S
C1153 C1147 1.363 . S
C1153 C1148 1.379 . S
C1153 N1151 1.356 . S
N1154 C1146 1.356 . S
N1154 H1160 0.984 . S
N1154 H1161 0.984 . S
N1155 C1148 1.356 . S
N1155 H1158 0.984 . S
N1155 H1159 0.985 . S
H1156 N1151 0.984 . S
H1157 N1151 0.985 . S
H1158 N1155 0.984 . S
H1159 N1155 0.985 . S
H1160 N1154 0.984 . S
H1161 N1154 0.984 . S
H1162 N1150 0.984 . S
H1163 N1150 0.985 . S
C409 C241 1.758 . S
C411 C22 1.796 . S
C427 C56 1.796 . S
C429 C275 1.758 . S
C445 C90 1.796 . S
C447 C207 1.757 . S
C463 C124 1.796 . S
C465 C377 1.758 . S
C481 C307 1.757 . S
C483 C158 1.796 . S
C499 C192 1.796 . S
C501 C341 1.758 . S
C517 C219 1.796 . S
C519 C35 1.758 . S
C535 C253 1.796 . S
C537 C69 1.758 . S
C553 C1 1.757 . S
C555 C287 1.796 . S
C571 C328 1.796 . S
C573 C171 1.758 . S
C589 C362 1.796 . S
C591 C103 1.757 . S
C607 C137 1.758 . S
C609 C389 1.796 . S
C625 C3 1.593 . S
C627 C105 1.593 . S
C643 C37 1.593 . S
C645 C139 1.593 . S
C661 C71 1.593 . S
C663 C173 1.593 . S
C679 C309 1.593 . S
C681 C205 1.593 . S
C697 C343 1.593 . S
C699 C239 1.593 . S
C715 C375 1.593 . S
C717 C273 1.593 . S
C733 C17 2.062 . S
C735 C49 1.710 . S
C751 C51 2.063 . S
C753 C83 1.710 . S
C769 C85 2.062 . S
C771 C15 1.710 . S
C787 C185 1.710 . S
C789 C119 2.062 . S
C805 C153 2.062 . S
C807 C117 1.710 . S
C823 C151 1.710 . S
C825 C187 2.063 . S
C841 C260 1.710 . S
C843 C221 2.062 . S
C859 C255 2.063 . S
C861 C294 1.710 . S
C877 C289 2.062 . S
C879 C226 1.710 . S
C895 C323 2.062 . S
C897 C396 1.710 . S
C913 C357 2.062 . S
C915 C321 1.710 . S
C931 C391 2.063 . S
C933 C355 1.710 . S
C949 C368 1.261 . S
C951 C6 1.254 . S
C967 C380 1.261 . S
C969 C40 1.254 . S
C985 C74 1.254 . S
C987 C334 1.261 . S
C1003 C108 1.254 . S
C1005 C278 1.261 . S
C1021 C142 1.254 . S
C1023 C210 1.261 . S
C1039 C244 1.261 . S
C1041 C176 1.254 . S
C1057 C232 1.254 . S
C1059 C164 1.261 . S
C1075 C266 1.254 . S
C1077 C198 1.261 . S
C1093 C300 1.254 . S
C1095 C130 1.261 . S
C1111 C312 1.254 . S
C1113 C96 1.261 . S
C1129 C346 1.254 . S
C1131 C28 1.261 . S
C1147 C402 1.254 . S
C1149 C62 1.261 . S
