# Generated by pormake.
# Topology lcy-e, (6)-cn, num edge types: 1
# Building blocks:
#     Node 0, Type 0, BuildingBlock: BETFEN_clean_sbu_0, # of connection points: 6
#     Node 1, Type 0, BuildingBlock: BETFEN_clean_sbu_0, # of connection points: 6
#     Node 2, Type 0, BuildingBlock: BETFEN_clean_sbu_0, # of connection points: 6
#     Node 3, Type 0, BuildingBlock: BETFEN_clean_sbu_0, # of connection points: 6
#     Node 4, Type 0, BuildingBlock: BETFEN_clean_sbu_0, # of connection points: 6
#     Node 5, Type 0, BuildingBlock: BETFEN_clean_sbu_0, # of connection points: 6
#     Node 6, Type 0, BuildingBlock: BETFEN_clean_sbu_0, # of connection points: 6
#     Node 7, Type 0, BuildingBlock: BETFEN_clean_sbu_0, # of connection points: 6
#     Node 8, Type 0, BuildingBlock: BETFEN_clean_sbu_0, # of connection points: 6
#     Node 9, Type 0, BuildingBlock: BETFEN_clean_sbu_0, # of connection points: 6
#     Node 10, Type 0, BuildingBlock: BETFEN_clean_sbu_0, # of connection points: 6
#     Node 11, Type 0, BuildingBlock: BETFEN_clean_sbu_0, # of connection points: 6
#     Edge 12, Type (0, 0), BuildingBlock: MIFKUJ_clean_linker_0, # of connection points: 2
#     Edge 13, Type (0, 0), BuildingBlock: MIFKUJ_clean_linker_0, # of connection points: 2
#     Edge 14, Type (0, 0), BuildingBlock: MIFKUJ_clean_linker_0, # of connection points: 2
#     Edge 15, Type (0, 0), BuildingBlock: MIFKUJ_clean_linker_0, # of connection points: 2
#     Edge 16, Type (0, 0), BuildingBlock: MIFKUJ_clean_linker_0, # of connection points: 2
#     Edge 17, Type (0, 0), BuildingBlock: MIFKUJ_clean_linker_0, # of connection points: 2
#     Edge 18, Type (0, 0), BuildingBlock: MIFKUJ_clean_linker_0, # of connection points: 2
#     Edge 19, Type (0, 0), BuildingBlock: MIFKUJ_clean_linker_0, # of connection points: 2
#     Edge 20, Type (0, 0), BuildingBlock: MIFKUJ_clean_linker_0, # of connection points: 2
#     Edge 21, Type (0, 0), BuildingBlock: MIFKUJ_clean_linker_0, # of connection points: 2
#     Edge 22, Type (0, 0), BuildingBlock: MIFKUJ_clean_linker_0, # of connection points: 2
#     Edge 23, Type (0, 0), BuildingBlock: MIFKUJ_clean_linker_0, # of connection points: 2
#     Edge 24, Type (0, 0), BuildingBlock: MIFKUJ_clean_linker_0, # of connection points: 2
#     Edge 25, Type (0, 0), BuildingBlock: MIFKUJ_clean_linker_0, # of connection points: 2
#     Edge 26, Type (0, 0), BuildingBlock: MIFKUJ_clean_linker_0, # of connection points: 2
#     Edge 27, Type (0, 0), BuildingBlock: MIFKUJ_clean_linker_0, # of connection points: 2
#     Edge 28, Type (0, 0), BuildingBlock: MIFKUJ_clean_linker_0, # of connection points: 2
#     Edge 29, Type (0, 0), BuildingBlock: MIFKUJ_clean_linker_0, # of connection points: 2
#     Edge 30, Type (0, 0), BuildingBlock: MIFKUJ_clean_linker_0, # of connection points: 2
#     Edge 31, Type (0, 0), BuildingBlock: MIFKUJ_clean_linker_0, # of connection points: 2
#     Edge 32, Type (0, 0), BuildingBlock: MIFKUJ_clean_linker_0, # of connection points: 2
#     Edge 33, Type (0, 0), BuildingBlock: MIFKUJ_clean_linker_0, # of connection points: 2
#     Edge 34, Type (0, 0), BuildingBlock: MIFKUJ_clean_linker_0, # of connection points: 2
#     Edge 35, Type (0, 0), BuildingBlock: MIFKUJ_clean_linker_0, # of connection points: 2
#     Edge 36, Type (0, 0), BuildingBlock: MIFKUJ_clean_linker_0, # of connection points: 2
#     Edge 37, Type (0, 0), BuildingBlock: MIFKUJ_clean_linker_0, # of connection points: 2
#     Edge 38, Type (0, 0), BuildingBlock: MIFKUJ_clean_linker_0, # of connection points: 2
#     Edge 39, Type (0, 0), BuildingBlock: MIFKUJ_clean_linker_0, # of connection points: 2
#     Edge 40, Type (0, 0), BuildingBlock: MIFKUJ_clean_linker_0, # of connection points: 2
#     Edge 41, Type (0, 0), BuildingBlock: MIFKUJ_clean_linker_0, # of connection points: 2
#     Edge 42, Type (0, 0), BuildingBlock: MIFKUJ_clean_linker_0, # of connection points: 2
#     Edge 43, Type (0, 0), BuildingBlock: MIFKUJ_clean_linker_0, # of connection points: 2
#     Edge 44, Type (0, 0), BuildingBlock: MIFKUJ_clean_linker_0, # of connection points: 2
#     Edge 45, Type (0, 0), BuildingBlock: MIFKUJ_clean_linker_0, # of connection points: 2
#     Edge 46, Type (0, 0), BuildingBlock: MIFKUJ_clean_linker_0, # of connection points: 2
#     Edge 47, Type (0, 0), BuildingBlock: MIFKUJ_clean_linker_0, # of connection points: 2
# Relax obj value: 0.213
# Max RMSD: 0.298
# Mean RMSD: 0.286
data_MOF--net-lcy-e--node1-BETFEN_clean_sbu_0--edge1-MIFKUJ_clean_linker_0
_symmetry_space_group_name_H-M    P1
_symmetry_Int_Tables_number       1
_symmetry_cell_setting            triclinic
loop_
_symmetry_equiv_pos_as_xyz
'x, y, z'
_cell_length_a     55.313643
_cell_length_b     53.880365
_cell_length_c     56.573917
_cell_angle_alpha  90.087952
_cell_angle_beta   88.779939
_cell_angle_gamma 88.667267
loop_
_atom_site_label
_atom_site_type_symbol
_atom_site_fract_x
_atom_site_fract_y
_atom_site_fract_z
_atom_type_partial_charge
Pr0 Pr 0.12506 0.24594 0.49495 0.0
Pr1 Pr 0.1111 0.28297 0.45122 0.0
C2 C 0.12246 0.22272 0.53689 0.0
C3 C 0.11438 0.19854 0.54613 0.0
C4 C 0.12964 0.1843 0.56053 0.0
C5 C 0.12177 0.16196 0.57032 0.0
C6 C 0.09833 0.15347 0.56611 0.0
C7 C 0.08324 0.16767 0.55136 0.0
C8 C 0.09122 0.18982 0.54136 0.0
C9 C 0.15113 0.23203 0.45363 0.0
C10 C 0.08006 0.23196 0.45837 0.0
C11 C 0.10719 0.31167 0.41254 0.0
C12 C 0.11949 0.32493 0.39326 0.0
C13 C 0.10542 0.33979 0.37838 0.0
C14 C 0.11598 0.35168 0.35903 0.0
C15 C 0.14097 0.34913 0.35416 0.0
C16 C 0.15515 0.33429 0.3693 0.0
C17 C 0.14446 0.32225 0.38874 0.0
C18 C 0.08645 0.29032 0.4946 0.0
C19 C 0.15893 0.29455 0.48384 0.0
O20 O 0.10553 0.23796 0.52928 0.0
O21 O 0.14236 0.22271 0.52382 0.0
O22 O 0.13529 0.24904 0.456 0.0
O23 O 0.15319 0.2203 0.47362 0.0
O24 O 0.08659 0.24964 0.44358 0.0
O25 O 0.09031 0.22836 0.47908 0.0
O26 O 0.108 0.28735 0.41175 0.0
O27 O 0.10818 0.32083 0.43396 0.0
O28 O 0.10846 0.28492 0.49147 0.0
O29 O 0.07596 0.29348 0.47443 0.0
O30 O 0.15105 0.27916 0.50046 0.0
O31 O 0.14926 0.29597 0.46263 0.0
H32 H 0.1476 0.19057 0.5644 0.0
H33 H 0.13414 0.15135 0.58117 0.0
H34 H 0.06498 0.16204 0.54793 0.0
H35 H 0.07901 0.20034 0.53026 0.0
H36 H 0.08607 0.34184 0.38148 0.0
H37 H 0.10436 0.36241 0.34752 0.0
H38 H 0.17445 0.33201 0.36617 0.0
H39 H 0.15558 0.31074 0.40007 0.0
Pr40 Pr 0.98608 0.88977 0.70948 0.0
Pr41 Pr 0.02535 0.90598 0.74335 0.0
C42 C 0.94877 0.88647 0.67974 0.0
C43 C 0.94094 0.89612 0.65654 0.0
C44 C 0.93492 0.87932 0.63875 0.0
C45 C 0.92694 0.88785 0.61684 0.0
C46 C 0.92462 0.91344 0.61227 0.0
C47 C 0.93077 0.9303 0.63008 0.0
C48 C 0.93894 0.92174 0.65196 0.0
C49 C 0.02701 0.85909 0.70794 0.0
C50 C 0.02136 0.93792 0.69487 0.0
C51 C 0.06327 0.90901 0.77257 0.0
C52 C 0.08227 0.89401 0.78461 0.0
C53 C 0.07906 0.88657 0.80828 0.0
C54 C 0.09796 0.87473 0.82035 0.0
C55 C 0.12062 0.87021 0.80911 0.0
C56 C 0.12355 0.87715 0.78527 0.0
C57 C 0.10468 0.88889 0.77321 0.0
C58 C 0.98042 0.93137 0.74889 0.0
C59 C 0.99046 0.86033 0.75928 0.0
O60 O 0.94893 0.90207 0.69751 0.0
O61 O 0.96709 0.87067 0.67956 0.0
O62 O 0.02774 0.88262 0.70893 0.0
O63 O 1.00508 0.85122 0.70651 0.0
O64 O 0.03496 0.93286 0.71308 0.0
O65 O 1.00164 0.92537 0.69062 0.0
O66 O 0.06512 0.9112 0.74959 0.0
O67 O 0.04085 0.90761 0.78022 0.0
O68 O 0.98398 0.90864 0.74534 0.0
O69 O 1.00095 0.94237 0.75111 0.0
O70 O 0.97447 0.86855 0.74391 0.0
O71 O 0.01294 0.86797 0.75869 0.0
H72 H 0.9362 0.8595 0.64187 0.0
H73 H 0.92205 0.87437 0.60365 0.0
H74 H 0.9294 0.95012 0.62704 0.0
H75 H 0.94358 0.93519 0.66527 0.0
H76 H 0.06215 0.89047 0.8177 0.0
H77 H 0.09506 0.86996 0.83876 0.0
H78 H 0.14056 0.87371 0.7759 0.0
H79 H 0.1079 0.89445 0.75504 0.0
Pr80 Pr 0.37367 0.76302 0.96639 0.0
Pr81 Pr 0.35349 0.80457 0.99664 0.0
C82 C 0.3825 0.72374 0.93761 0.0
C83 C 0.37261 0.71247 0.9161 0.0
C84 C 0.38672 0.7117 0.89519 0.0
C85 C 0.37797 0.70085 0.87472 0.0
C86 C 0.35495 0.69026 0.87471 0.0
C87 C 0.34077 0.69116 0.89566 0.0
C88 C 0.34947 0.70217 0.91613 0.0
C89 C 0.40189 0.80514 0.96475 0.0
C90 C 0.32588 0.79678 0.94754 0.0
C91 C 0.34524 0.84456 0.02471 0.0
C92 C 0.35809 0.86189 0.03987 0.0
C93 C 0.34585 0.87265 0.05937 0.0
C94 C 0.35697 0.89054 0.07304 0.0
C95 C 0.38057 0.8982 0.06738 0.0
C96 C 0.39312 0.8866 0.04829 0.0
C97 C 0.38198 0.86862 0.03464 0.0
C98 C 0.32889 0.75976 1.00144 0.0
C99 C 0.39778 0.76946 0.01769 0.0
O100 O 0.36966 0.72245 0.95724 0.0
O101 O 0.39314 0.745 0.93495 0.0
O102 O 0.37899 0.80564 0.96372 0.0
O103 O 0.41061 0.78267 0.96644 0.0
O104 O 0.33028 0.81319 0.964 0.0
O105 O 0.33816 0.77544 0.94628 0.0
O106 O 0.34957 0.846 1.00196 0.0
O107 O 0.34319 0.82178 0.03224 0.0
O108 O 0.35136 0.76228 1.00049 0.0
O109 O 0.3177 0.78122 1.00071 0.0
O110 O 0.39216 0.75255 1.00192 0.0
O111 O 0.3889 0.79237 0.01626 0.0
H112 H 0.4046 0.7195 0.89467 0.0
H113 H 0.38925 0.70088 0.85884 0.0
H114 H 0.3231 0.68292 0.89642 0.0
H115 H 0.33813 0.70242 0.93198 0.0
H116 H 0.32748 0.86751 0.06381 0.0
H117 H 0.34696 0.8985 0.08798 0.0
H118 H 0.41128 0.8919 0.04344 0.0
H119 H 0.39184 0.86038 0.01973 0.0
Pr120 Pr 0.50711 0.15198 0.20723 0.0
Pr121 Pr 0.46022 0.14423 0.24338 0.0
C122 C 0.54951 0.14457 0.18391 0.0
C123 C 0.55821 0.13614 0.1601 0.0
C124 C 0.56265 0.15324 0.14184 0.0
C125 C 0.57153 0.14512 0.11969 0.0
C126 C 0.57653 0.11978 0.11544 0.0
C127 C 0.57195 0.10269 0.13363 0.0
C128 C 0.56277 0.11075 0.15561 0.0
C129 C 0.46589 0.17798 0.19135 0.0
C130 C 0.46759 0.10641 0.19806 0.0
C131 C 0.41975 0.14788 0.27078 0.0
C132 C 0.40124 0.16421 0.28278 0.0
C133 C 0.40211 0.16805 0.30732 0.0
C134 C 0.3827 0.17963 0.31959 0.0
C135 C 0.36178 0.18748 0.30769 0.0
C136 C 0.36148 0.18488 0.28293 0.0
C137 C 0.38095 0.17334 0.27063 0.0
C138 C 0.50302 0.11722 0.25237 0.0
C139 C 0.49774 0.1906 0.25216 0.0
O140 O 0.53959 0.12778 0.19755 0.0
O141 O 0.53878 0.16655 0.18568 0.0
O142 O 0.46767 0.16398 0.20894 0.0
O143 O 0.48678 0.17864 0.18039 0.0
O144 O 0.45176 0.11648 0.21329 0.0
O145 O 0.48981 0.11468 0.19497 0.0
O146 O 0.41947 0.14587 0.24769 0.0
O147 O 0.44154 0.14642 0.27943 0.0
O148 O 0.5012 0.13921 0.2453 0.0
O149 O 0.48169 0.10824 0.25665 0.0
O150 O 0.51438 0.17978 0.23807 0.0
O151 O 0.47497 0.1834 0.25308 0.0
H152 H 0.55947 0.17294 0.1447 0.0
H153 H 0.57511 0.15874 0.10607 0.0
H154 H 0.57546 0.08303 0.13084 0.0
H155 H 0.55947 0.09703 0.16918 0.0
H156 H 0.4174 0.1612 0.31725 0.0
H157 H 0.38385 0.1818 0.33856 0.0
H158 H 0.34569 0.19058 0.27314 0.0
H159 H 0.37959 0.17063 0.25173 0.0
Pr160 Pr 0.62217 0.26095 0.51658 0.0
Pr161 Pr 0.63499 0.30483 0.4844 0.0
C162 C 0.62144 0.21918 0.5428 0.0
C163 C 0.62926 0.20978 0.56606 0.0
C164 C 0.61207 0.19976 0.58168 0.0
C165 C 0.61892 0.19047 0.60366 0.0
C166 C 0.64324 0.19076 0.61051 0.0
C167 C 0.66047 0.20084 0.59479 0.0
C168 C 0.65356 0.21032 0.57284 0.0
C169 C 0.5935 0.30315 0.52499 0.0
C170 C 0.67036 0.29574 0.52905 0.0
C171 C 0.63609 0.3461 0.45748 0.0
C172 C 0.6209 0.36493 0.44531 0.0
C173 C 0.62138 0.36591 0.42052 0.0
C174 C 0.60977 0.38542 0.40867 0.0
C175 C 0.59762 0.4046 0.42137 0.0
C176 C 0.59624 0.40302 0.44619 0.0
C177 C 0.60776 0.38342 0.45804 0.0
C178 C 0.65934 0.25976 0.4738 0.0
C179 C 0.58948 0.27027 0.47027 0.0
O180 O 0.63823 0.2236 0.52679 0.0
O181 O 0.60363 0.23561 0.54291 0.0
O182 O 0.61615 0.30348 0.52107 0.0
O183 O 0.58561 0.28068 0.52634 0.0
O184 O 0.66423 0.31131 0.51219 0.0
O185 O 0.65802 0.27546 0.53353 0.0
O186 O 0.63619 0.34648 0.48061 0.0
O187 O 0.63751 0.32366 0.44859 0.0
O188 O 0.63738 0.26275 0.4791 0.0
O189 O 0.67006 0.28097 0.4728 0.0
O190 O 0.59973 0.25243 0.48291 0.0
O191 O 0.59646 0.29343 0.47227 0.0
H192 H 0.59323 0.19914 0.57687 0.0
H193 H 0.60504 0.18329 0.61539 0.0
H194 H 0.6794 0.2011 0.59928 0.0
H195 H 0.66727 0.21792 0.56116 0.0
H196 H 0.63143 0.35199 0.41026 0.0
H197 H 0.61082 0.38576 0.38954 0.0
H198 H 0.58722 0.41754 0.45656 0.0
H199 H 0.60706 0.38327 0.47719 0.0
Pr200 Pr 0.96323 0.40007 0.72444 0.0
Pr201 Pr 0.99543 0.38544 0.77089 0.0
C202 C 0.94279 0.40227 0.68167 0.0
C203 C 0.92697 0.38767 0.6667 0.0
C204 C 0.91544 0.39947 0.64786 0.0
C205 C 0.89712 0.38765 0.63586 0.0
C206 C 0.88994 0.36364 0.64238 0.0
C207 C 0.90241 0.35143 0.66067 0.0
C208 C 0.92067 0.3634 0.67281 0.0
C209 C 0.95569 0.435 0.76127 0.0
C210 C 0.94338 0.35599 0.76115 0.0
C211 C 0.01182 0.37822 0.81494 0.0
C212 C 0.02598 0.38952 0.83368 0.0
C213 C 0.03528 0.37428 0.8515 0.0
C214 C 0.04835 0.38441 0.86988 0.0
C215 C 0.05245 0.41007 0.87081 0.0
C216 C 0.04307 0.42536 0.85285 0.0
C217 C 0.02997 0.41515 0.83439 0.0
C218 C 0.00684 0.36022 0.72893 0.0
C219 C 0.01673 0.426 0.73354 0.0
O220 O 0.96506 0.39412 0.68463 0.0
O221 O 0.93246 0.41111 0.70103 0.0
O222 O 0.96913 0.41595 0.76106 0.0
O223 O 0.94489 0.43658 0.74119 0.0
O224 O 0.96182 0.35996 0.77513 0.0
O225 O 0.94023 0.3681 0.74102 0.0
O226 O 0.99072 0.38855 0.81054 0.0
O227 O 0.02365 0.37045 0.79595 0.0
O228 O 0.9858 0.36624 0.73628 0.0
O229 O 0.02298 0.3655 0.7445 0.0
O230 O 1.00127 0.41805 0.71767 0.0
O231 O 0.01496 0.42014 0.75624 0.0
H232 H 0.91986 0.41833 0.6431 0.0
H233 H 0.88782 0.39793 0.62222 0.0
H234 H 0.89771 0.33282 0.66598 0.0
H235 H 0.92922 0.35409 0.6875 0.0
H236 H 0.03225 0.35448 0.8513 0.0
H237 H 0.05493 0.37213 0.88358 0.0
H238 H 0.04608 0.44514 0.8529 0.0
H239 H 0.02295 0.42722 0.82072 0.0
Pr240 Pr 0.86868 0.76965 0.02854 0.0
Pr241 Pr 0.86139 0.72182 0.99943 0.0
C242 C 0.87252 0.81459 0.04916 0.0
C243 C 0.8644 0.82692 0.07146 0.0
C244 C 0.88126 0.83931 0.08508 0.0
C245 C 0.87414 0.85091 0.10634 0.0
C246 C 0.8499 0.85054 0.11447 0.0
C247 C 0.83304 0.83798 0.10079 0.0
C248 C 0.84022 0.82624 0.07957 0.0
C249 C 0.89712 0.72869 0.04172 0.0
C250 C 0.82837 0.7315 0.04898 0.0
C251 C 0.85972 0.67507 0.98245 0.0
C252 C 0.87237 0.65765 0.96589 0.0
C253 C 0.87799 0.66435 0.94245 0.0
C254 C 0.88861 0.64695 0.92675 0.0
C255 C 0.89395 0.62255 0.9342 0.0
C256 C 0.88886 0.61613 0.95784 0.0
C257 C 0.87813 0.63348 0.97348 0.0
C258 C 0.83406 0.7631 0.98509 0.0
C259 C 0.89801 0.76116 0.97663 0.0
O260 O 0.85604 0.80961 0.03371 0.0
O261 O 0.88895 0.7969 0.05094 0.0
O262 O 0.89324 0.73529 0.02076 0.0
O263 O 0.88623 0.74352 0.05684 0.0
O264 O 0.8378 0.71513 0.03378 0.0
O265 O 0.8351 0.75482 0.04911 0.0
O266 O 0.87085 0.6807 1.00186 0.0
O267 O 0.84762 0.69384 0.97345 0.0
O268 O 0.83747 0.75671 1.00622 0.0
O269 O 0.84361 0.74693 0.97033 0.0
O270 O 0.8882 0.7776 0.99168 0.0
O271 O 0.89417 0.73723 0.97878 0.0
H272 H 0.90004 0.83993 0.0793 0.0
H273 H 0.88777 0.85994 0.11653 0.0
H274 H 0.81419 0.8375 0.10628 0.0
H275 H 0.82681 0.81669 0.06951 0.0
H276 H 0.87394 0.68293 0.93615 0.0
H277 H 0.89259 0.65259 0.90874 0.0
H278 H 0.89251 0.59745 0.9641 0.0
H279 H 0.87392 0.62787 0.99146 0.0
Pr280 Pr 0.51734 0.63463 0.23451 0.0
Pr281 Pr 0.48352 0.6478 0.28167 0.0
C282 C 0.53786 0.63764 0.19124 0.0
C283 C 0.56179 0.64434 0.18175 0.0
C284 C 0.57099 0.63317 0.16096 0.0
C285 C 0.59358 0.63982 0.15169 0.0
C286 C 0.60724 0.65786 0.16305 0.0
C287 C 0.59797 0.66889 0.18397 0.0
C288 C 0.57551 0.66212 0.19328 0.0
C289 C 0.53398 0.60873 0.27427 0.0
C290 C 0.53251 0.68039 0.27152 0.0
C291 C 0.45867 0.64953 0.32303 0.0
C292 C 0.44704 0.63567 0.34251 0.0
C293 C 0.42316 0.64207 0.34918 0.0
C294 C 0.41272 0.63227 0.3697 0.0
C295 C 0.42601 0.61592 0.38411 0.0
C296 C 0.44951 0.60842 0.37675 0.0
C297 C 0.45999 0.61828 0.35614 0.0
C298 C 0.47425 0.67436 0.2403 0.0
C299 C 0.46973 0.60034 0.24674 0.0
O300 O 0.52509 0.65583 0.2011 0.0
O301 O 0.53671 0.61664 0.20292 0.0
O302 O 0.51666 0.62409 0.2732 0.0
O303 O 0.54441 0.60662 0.25349 0.0
O304 O 0.51634 0.6732 0.28748 0.0
O305 O 0.5346 0.67043 0.25013 0.0
O306 O 0.48236 0.64899 0.32146 0.0
O307 O 0.44803 0.65041 0.30254 0.0
O308 O 0.47979 0.65172 0.24186 0.0
O309 O 0.47169 0.68439 0.26119 0.0
O310 O 0.48466 0.60846 0.22996 0.0
O311 O 0.46901 0.60963 0.2685 0.0
H312 H 0.56062 0.61946 0.1518 0.0
H313 H 0.60015 0.6312 0.13541 0.0
H314 H 0.60819 0.6826 0.19328 0.0
H315 H 0.56883 0.67086 0.20946 0.0
H316 H 0.41282 0.65543 0.33897 0.0
H317 H 0.3944 0.63801 0.37462 0.0
H318 H 0.46021 0.59587 0.38747 0.0
H319 H 0.47847 0.61299 0.3514 0.0
Pr320 Pr 0.20606 0.52084 0.11504 0.0
Pr321 Pr 0.23908 0.47665 0.1022 0.0
C322 C 0.18285 0.56438 0.12449 0.0
C323 C 0.16057 0.57722 0.11664 0.0
C324 C 0.14307 0.58502 0.13354 0.0
C325 C 0.12126 0.59602 0.12652 0.0
C326 C 0.1166 0.59963 0.10243 0.0
C327 C 0.13428 0.59214 0.0855 0.0
C328 C 0.15602 0.58091 0.09252 0.0
C329 C 0.19536 0.47723 0.13945 0.0
C330 C 0.1882 0.48607 0.0718 0.0
C331 C 0.25999 0.43144 0.09557 0.0
C332 C 0.2735 0.4122 0.10888 0.0
C333 C 0.29557 0.41722 0.11961 0.0
C334 C 0.30868 0.39827 0.13085 0.0
C335 C 0.29993 0.37396 0.13173 0.0
C336 C 0.27751 0.36918 0.1216 0.0
C337 C 0.2645 0.38808 0.11023 0.0
C338 C 0.25058 0.52058 0.07869 0.0
C339 C 0.25728 0.51205 0.14357 0.0
O340 O 0.20084 0.56215 0.1092 0.0
O341 O 0.17979 0.54443 0.13718 0.0
O342 O 0.21629 0.48517 0.1355 0.0
O343 O 0.17898 0.49216 0.13092 0.0
O344 O 0.20542 0.4702 0.07826 0.0
O345 O 0.1857 0.50823 0.08161 0.0
O346 O 0.23703 0.4347 0.10112 0.0
O347 O 0.27094 0.45217 0.09071 0.0
O348 O 0.22954 0.51266 0.08213 0.0
O349 O 0.26683 0.50484 0.08618 0.0
O350 O 0.24248 0.52893 0.13445 0.0
O351 O 0.25618 0.48854 0.13744 0.0
H352 H 0.14618 0.58234 0.15222 0.0
H353 H 0.10808 0.60186 0.13996 0.0
H354 H 0.13109 0.59449 0.0668 0.0
H355 H 0.16909 0.57487 0.07906 0.0
H356 H 0.30291 0.43568 0.11906 0.0
H357 H 0.32578 0.40259 0.1387 0.0
H358 H 0.27041 0.35062 0.12172 0.0
H359 H 0.24757 0.38372 0.10207 0.0
Pr360 Pr 0.7445 0.04844 0.86796 0.0
Pr361 Pr 0.69942 0.01739 0.8587 0.0
C362 C 0.7833 0.07763 0.86833 0.0
C363 C 0.79486 0.09702 0.85394 0.0
C364 C 0.78099 0.11545 0.84259 0.0
C365 C 0.79227 0.13523 0.83115 0.0
C366 C 0.81763 0.1369 0.83079 0.0
C367 C 0.83143 0.11776 0.84129 0.0
C368 C 0.82013 0.09806 0.85279 0.0
C369 C 0.7106 0.04834 0.90517 0.0
C370 C 0.70543 0.06905 0.82758 0.0
C371 C 0.65382 1.00058 0.85694 0.0
C372 C 0.63571 0.98311 0.86617 0.0
C373 C 0.619 0.97331 0.85059 0.0
C374 C 0.59952 0.95958 0.85915 0.0
C375 C 0.59626 0.95537 0.88356 0.0
C376 C 0.61364 0.96437 0.89906 0.0
C377 C 0.63311 0.97819 0.89048 0.0
C378 C 0.74064 0.00408 0.8315 0.0
C379 C 0.74164 0.99268 0.89114 0.0
O380 O 0.78439 0.05483 0.8602 0.0
O381 O 0.76248 0.08367 0.87846 0.0
O382 O 0.70551 0.05052 0.88358 0.0
O383 O 0.73375 0.04638 0.90799 0.0
O384 O 0.69262 0.04906 0.83143 0.0
O385 O 0.72527 0.07338 0.83941 0.0
O386 O 0.66049 0.0182 0.87115 0.0
O387 O 0.67126 0.99228 0.84282 0.0
O388 O 0.73329 0.02588 0.83618 0.0
O389 O 0.72574 0.98781 0.84004 0.0
O390 O 0.75656 0.00889 0.88149 0.0
O391 O 0.71794 0.99477 0.88875 0.0
H392 H 0.76143 0.115 0.84316 0.0
H393 H 0.78105 0.14967 0.82342 0.0
H394 H 0.851 0.11817 0.84092 0.0
H395 H 0.83115 0.08395 0.86131 0.0
H396 H 0.62058 0.97693 0.8318 0.0
H397 H 0.58682 0.95252 0.84663 0.0
H398 H 0.61171 0.96154 0.91793 0.0
H399 H 0.64568 0.98565 0.90292 0.0
Pr400 Pr 0.78296 0.02692 0.36129 0.0
Pr401 Pr 0.75253 0.97576 0.36942 0.0
C402 C 0.802 0.07236 0.36528 0.0
C403 C 0.82487 0.0824 0.37349 0.0
C404 C 0.84605 0.06754 0.37385 0.0
C405 C 0.86775 0.07742 0.38145 0.0
C406 C 0.86862 0.10233 0.38885 0.0
C407 C 0.84719 0.11695 0.38886 0.0
C408 C 0.82554 0.10703 0.38129 0.0
C409 C 0.79537 0.99127 0.3263 0.0
C410 C 0.80454 0.98438 0.39858 0.0
C411 C 0.73698 0.92878 0.37127 0.0
C412 C 0.7189 0.91225 0.36131 0.0
C413 C 0.70675 0.89589 0.3764 0.0
C414 C 0.69047 0.87905 0.36737 0.0
C415 C 0.68605 0.87817 0.34298 0.0
C416 C 0.69804 0.89485 0.3279 0.0
C417 C 0.71427 0.9118 0.33698 0.0
C418 C 0.73773 0.01706 0.39606 0.0
C419 C 0.72968 0.01872 0.33523 0.0
O420 O 0.78795 0.06274 0.38148 0.0
O421 O 0.80319 0.05928 0.34578 0.0
O422 O 0.78056 0.98929 0.34329 0.0
O423 O 0.80556 0.01267 0.32762 0.0
O424 O 0.78616 0.96995 0.39375 0.0
O425 O 0.80757 0.00638 0.38862 0.0
O426 O 0.75454 0.93591 0.35713 0.0
O427 O 0.72909 0.94613 0.38592 0.0
O428 O 0.75931 0.01061 0.39096 0.0
O429 O 0.72256 1.0009 0.38836 0.0
O430 O 0.74475 0.03484 0.34444 0.0
O431 O 0.73197 0.99444 0.33848 0.0
H432 H 0.84584 0.04835 0.36811 0.0
H433 H 0.88392 0.0657 0.38109 0.0
H434 H 0.8471 0.13604 0.39488 0.0
H435 H 0.80931 0.11862 0.38154 0.0
H436 H 0.71015 0.89586 0.39519 0.0
H437 H 0.68181 0.86626 0.37943 0.0
H438 H 0.69484 0.8948 0.30908 0.0
H439 H 0.72336 0.92434 0.32497 0.0
Pr440 Pr 0.24772 0.5545 0.61735 0.0
Pr441 Pr 0.2934 0.51583 0.62804 0.0
C442 C 0.20499 0.57907 0.62084 0.0
C443 C 0.19587 0.6038 0.6291 0.0
C444 C 0.18765 0.62154 0.61277 0.0
C445 C 0.17853 0.6447 0.62047 0.0
C446 C 0.17717 0.65052 0.64472 0.0
C447 C 0.18553 0.63283 0.66104 0.0
C448 C 0.19482 0.60978 0.65334 0.0
C449 C 0.29082 0.56987 0.59514 0.0
C450 C 0.28357 0.56365 0.66369 0.0
C451 C 0.33441 0.48794 0.62766 0.0
C452 C 0.3546 0.47827 0.61252 0.0
C453 C 0.36109 0.453 0.61374 0.0
C454 C 0.38158 0.44371 0.6015 0.0
C455 C 0.39611 0.45954 0.58783 0.0
C456 C 0.38923 0.48475 0.58615 0.0
C457 C 0.36866 0.49405 0.59833 0.0
C458 C 0.24875 0.50666 0.6502 0.0
C459 C 0.25975 0.50757 0.58075 0.0
O460 O 0.21286 0.56368 0.63707 0.0
O461 O 0.21799 0.57824 0.60114 0.0
O462 O 0.28772 0.55189 0.6088 0.0
O463 O 0.2704 0.58214 0.59335 0.0
O464 O 0.29974 0.54729 0.65528 0.0
O465 O 0.26218 0.56746 0.65407 0.0
O466 O 0.33368 0.51182 0.63218 0.0
O467 O 0.31303 0.4784 0.62512 0.0
O468 O 0.25231 0.51433 0.62955 0.0
O469 O 0.26921 0.50164 0.66035 0.0
O470 O 0.24252 0.52254 0.58984 0.0
O471 O 0.28177 0.50595 0.58954 0.0
H472 H 0.18807 0.61742 0.59401 0.0
H473 H 0.17193 0.65782 0.60749 0.0
H474 H 0.18491 0.63683 0.67982 0.0
H475 H 0.20105 0.59664 0.66647 0.0
H476 H 0.35065 0.44052 0.62471 0.0
H477 H 0.38649 0.42425 0.60341 0.0
H478 H 0.39984 0.49731 0.57553 0.0
H479 H 0.36409 0.51365 0.59702 0.0
H480 H 0.18444 0.32407 0.4535 0.0
H481 H 0.20887 0.35956 0.46369 0.0
H482 H 0.19801 0.34355 0.53781 0.0
H483 H 0.17399 0.30778 0.52777 0.0
H484 H 0.19397 0.39966 0.48546 0.0
H485 H 0.24324 0.36506 0.57007 0.0
H486 H 0.26255 0.32647 0.58465 0.0
H487 H 0.2748 0.30126 0.51327 0.0
H488 H 0.25599 0.33986 0.49824 0.0
H489 H 0.21453 0.4952 0.56683 0.0
H490 H 0.20378 0.45918 0.54357 0.0
H491 H 0.27939 0.44136 0.5308 0.0
H492 H 0.29034 0.47711 0.5546 0.0
H493 H 0.25805 0.40197 0.54535 0.0
H494 H 0.24175 0.46073 0.48541 0.0
H495 H 0.22519 0.49902 0.46751 0.0
H496 H 0.15294 0.47558 0.48316 0.0
H497 H 0.16906 0.4373 0.50146 0.0
C498 C 0.18765 0.3278 0.47198 0.0
C499 C 0.17712 0.31316 0.48984 0.0
C500 C 0.20156 0.34816 0.47776 0.0
C501 C 0.20528 0.3543 0.5015 0.0
C502 C 0.19572 0.33903 0.51934 0.0
C503 C 0.18193 0.31854 0.51357 0.0
C504 C 0.21728 0.37777 0.50773 0.0
C505 C 0.20813 0.40015 0.49841 0.0
C506 C 0.23622 0.37842 0.52412 0.0
C507 C 0.24802 0.35533 0.53304 0.0
C508 C 0.2502 0.35137 0.55748 0.0
C509 C 0.26104 0.32947 0.56582 0.0
C510 C 0.26985 0.31141 0.5499 0.0
C511 C 0.26792 0.31524 0.52559 0.0
C512 C 0.25715 0.33712 0.51715 0.0
C513 C 0.22891 0.48402 0.55861 0.0
C514 C 0.25331 0.48902 0.5627 0.0
C515 C 0.22272 0.46337 0.54524 0.0
C516 C 0.24077 0.44751 0.53534 0.0
C517 C 0.26514 0.45323 0.53834 0.0
C518 C 0.27136 0.47377 0.55187 0.0
C519 C 0.2341 0.42391 0.52372 0.0
C520 C 0.24419 0.40149 0.5321 0.0
C521 C 0.21648 0.4232 0.50597 0.0
C522 C 0.20664 0.44619 0.49495 0.0
C523 C 0.22233 0.46381 0.48519 0.0
C524 C 0.21302 0.48551 0.47494 0.0
C525 C 0.18803 0.48974 0.47423 0.0
C526 C 0.1723 0.47227 0.48372 0.0
C527 C 0.18151 0.45055 0.49401 0.0
H528 H 0.18086 0.50655 0.46629 0.0
H529 H 0.27819 0.29445 0.5564 0.0
H530 H 0.75938 0.95834 0.81911 0.0
H531 H 0.79985 0.94837 0.80299 0.0
H532 H 0.81693 0.02614 0.80398 0.0
H533 H 0.77582 0.03622 0.81821 0.0
H534 H 0.8378 0.00719 0.76752 0.0
H535 H 0.83478 0.98191 0.84892 0.0
H536 H 0.81722 0.95997 0.8832 0.0
H537 H 0.82976 0.89006 0.84802 0.0
H538 H 0.84711 0.91159 0.81336 0.0
H539 H 0.9674 0.97929 0.76239 0.0
H540 H 0.92686 0.9945 0.77544 0.0
H541 H 0.89854 0.92173 0.76366 0.0
H542 H 0.93841 0.90666 0.7506 0.0
H543 H 0.88514 0.94075 0.80741 0.0
H544 H 0.88716 0.96704 0.72564 0.0
H545 H 0.90437 0.98947 0.69148 0.0
H546 H 0.89489 0.05855 0.72887 0.0
H547 H 0.87796 0.03646 0.76341 0.0
C548 C 0.77171 0.9733 0.81566 0.0
C549 C 0.7646 0.99801 0.82041 0.0
C550 C 0.79497 0.9676 0.80664 0.0
C551 C 0.81193 0.98639 0.80296 0.0
C552 C 0.80444 0.0112 0.80686 0.0
C553 C 0.78096 0.01694 0.81525 0.0
C554 C 0.83754 0.98018 0.79564 0.0
C555 C 0.84821 0.99291 0.77652 0.0
C556 C 0.85134 0.96145 0.80717 0.0
C557 C 0.84202 0.94839 0.82845 0.0
C558 C 0.83376 0.96186 0.84849 0.0
C559 C 0.8238 0.9495 0.86796 0.0
C560 C 0.8222 0.92366 0.86769 0.0
C561 C 0.83092 0.91008 0.84813 0.0
C562 C 0.84085 0.92235 0.82858 0.0
C563 C 0.95244 0.96667 0.76245 0.0
C564 C 0.95615 0.94177 0.75555 0.0
C565 C 0.92932 0.97535 0.76989 0.0
C566 C 0.90965 0.9592 0.77061 0.0
C567 C 0.9134 0.93449 0.76342 0.0
C568 C 0.93627 0.92593 0.75587 0.0
C569 C 0.88513 0.96751 0.77919 0.0
C570 C 0.87472 0.95519 0.79861 0.0
C571 C 0.87175 0.98674 0.7681 0.0
C572 C 0.88155 1.00006 0.74721 0.0
C573 C 0.88892 0.98699 0.72665 0.0
C574 C 0.89859 0.99964 0.70721 0.0
C575 C 0.9008 0.02541 0.70803 0.0
C576 C 0.89322 0.03858 0.72827 0.0
C577 C 0.88357 0.02601 0.74778 0.0
H578 H 0.90832 0.03517 0.69298 0.0
H579 H 0.81414 0.91415 0.88257 0.0
H580 H 0.28075 0.74988 0.00947 0.0
H581 H 0.26342 0.70964 0.02007 0.0
H582 H 0.33474 0.67546 0.01658 0.0
H583 H 0.35191 0.71516 1.00581 0.0
H584 H 0.30377 0.64628 0.99636 0.0
H585 H 0.30696 0.69153 0.06953 0.0
H586 H 0.29825 0.72664 0.09664 0.0
H587 H 0.22205 0.71479 0.09134 0.0
H588 H 0.23031 0.67978 0.06392 0.0
H589 H 0.29497 0.53963 0.06938 0.0
H590 H 0.3042 0.58067 0.05348 0.0
H591 H 0.22796 0.59825 0.04929 0.0
H592 H 0.21859 0.55687 0.06459 0.0
H593 H 0.25645 0.63621 0.07107 0.0
H594 H 0.25551 0.58694 1.0004 0.0
H595 H 0.26651 0.55109 0.97492 0.0
H596 H 0.3414 0.56999 0.97743 0.0
H597 H 0.33088 0.60576 1.00322 0.0
C598 C 0.29263 0.73371 0.01087 0.0
C599 C 0.31767 0.73569 1.00689 0.0
C600 C 0.28276 0.71076 0.017 0.0
C601 C 0.2978 0.68949 0.01932 0.0
C602 C 0.32272 0.69149 0.01486 0.0
C603 C 0.33253 0.71428 1.00876 0.0
C604 C 0.288 0.66512 0.02678 0.0
C605 C 0.29352 0.64411 0.01276 0.0
C606 C 0.27425 0.66223 0.04798 0.0
C607 C 0.26924 0.68325 0.06444 0.0
C608 C 0.28834 0.69655 0.07398 0.0
C609 C 0.28349 0.71641 0.08943 0.0
C610 C 0.25961 0.723 0.09564 0.0
C611 C 0.24053 0.7097 0.08646 0.0
C612 C 0.24529 0.68984 0.07098 0.0
C613 C 0.28017 0.55216 0.06492 0.0
C614 C 0.25606 0.54508 0.06832 0.0
C615 C 0.28546 0.5756 0.05585 0.0
C616 C 0.26677 0.5925 0.05019 0.0
C617 C 0.24265 0.58552 0.05361 0.0
C618 C 0.23734 0.5619 0.06235 0.0
C619 C 0.2726 0.61747 0.04082 0.0
C620 C 0.26638 0.63851 0.05451 0.0
C621 C 0.28603 0.62037 0.01949 0.0
C622 C 0.29242 0.59891 1.00391 0.0
C623 C 0.27435 0.58333 0.99568 0.0
C624 C 0.28049 0.56305 0.98115 0.0
C625 C 0.30465 0.55823 0.9746 0.0
C626 C 0.3227 0.57373 0.98253 0.0
C627 C 0.31665 0.59403 0.99709 0.0
H628 H 0.30937 0.54252 0.96335 0.0
H629 H 0.25588 0.73837 0.10761 0.0
H630 H 0.54748 0.13717 0.24809 0.0
H631 H 0.58626 0.11898 0.25933 0.0
H632 H 0.55093 0.05185 0.28079 0.0
H633 H 0.51167 0.07034 0.26987 0.0
H634 H 0.58163 0.06531 0.31333 0.0
H635 H 0.58799 0.05363 0.22947 0.0
H636 H 0.58692 0.06494 0.18729 0.0
H637 H 0.64107 0.11942 0.19803 0.0
H638 H 0.64254 0.10833 0.24029 0.0
H639 H 0.68921 0.99318 0.32471 0.0
H640 H 0.65166 0.00942 0.30825 0.0
H641 H 0.68269 0.08176 0.30134 0.0
H642 H 0.72054 0.06568 0.31809 0.0
H643 H 0.65467 0.0648 0.26079 0.0
H644 H 0.64798 0.07578 0.34501 0.0
H645 H 0.65053 0.06203 0.38642 0.0
H646 H 0.59686 0.00739 0.3743 0.0
H647 H 0.59423 0.0206 0.33265 0.0
C648 C 0.54793 0.11842 0.25499 0.0
C649 C 0.52651 0.10513 0.25804 0.0
C650 C 0.57021 0.10798 0.2613 0.0
C651 C 0.57169 0.08387 0.27062 0.0
C652 C 0.5503 0.07045 0.27356 0.0
C653 C 0.52789 0.08097 0.26727 0.0
C654 C 0.59542 0.07333 0.27831 0.0
C655 C 0.59746 0.06483 0.30166 0.0
C656 C 0.61635 0.07325 0.26337 0.0
C657 C 0.61523 0.08029 0.23807 0.0
C658 C 0.59953 0.06816 0.22287 0.0
C659 C 0.59891 0.07448 0.19894 0.0
C660 C 0.61384 0.09297 0.19 0.0
C661 C 0.62949 0.10512 0.20498 0.0
C662 C 0.6303 0.09876 0.2289 0.0
C663 C 0.68828 0.01249 0.31944 0.0
C664 C 0.70792 0.02818 0.32285 0.0
C665 C 0.66671 0.02174 0.3101 0.0
C666 C 0.66433 0.04681 0.30375 0.0
C667 C 0.68417 0.06234 0.30616 0.0
C668 C 0.70573 0.05316 0.31582 0.0
C669 C 0.6407 0.05685 0.29565 0.0
C670 C 0.63874 0.06526 0.27233 0.0
C671 C 0.61982 0.05676 0.31055 0.0
C672 C 0.62108 0.04901 0.33565 0.0
C673 C 0.63686 0.0607 0.35112 0.0
C674 C 0.6383 0.05302 0.37464 0.0
C675 C 0.62393 0.03379 0.38297 0.0
C676 C 0.60801 0.02226 0.36781 0.0
C677 C 0.60651 0.02985 0.34424 0.0
H678 H 0.62508 0.02786 0.40119 0.0
H679 H 0.61338 0.09781 0.17145 0.0
H680 H 0.63555 0.21682 0.46938 0.0
H681 H 0.65185 0.17607 0.45848 0.0
H682 H 0.7235 0.20575 0.45254 0.0
H683 H 0.70694 0.2473 0.46299 0.0
H684 H 0.71513 0.17451 0.41649 0.0
H685 H 0.70732 0.17053 0.50018 0.0
H686 H 0.68666 0.17655 0.53887 0.0
H687 H 0.6323 0.12525 0.51925 0.0
H688 H 0.65244 0.11917 0.48027 0.0
H689 H 0.7665 0.04911 0.41917 0.0
H690 H 0.75552 0.09082 0.43389 0.0
H691 H 0.68129 0.07944 0.41583 0.0
H692 H 0.6925 0.0384 0.39946 0.0
H693 H 0.69515 0.10157 0.46614 0.0
H694 H 0.70231 0.10932 0.38074 0.0
H695 H 0.72347 0.10457 0.34221 0.0
H696 H 0.78051 0.15043 0.36611 0.0
H697 H 0.76017 0.1546 0.40522 0.0
C698 C 0.65481 0.21478 0.46581 0.0
C699 C 0.67001 0.23526 0.46716 0.0
C700 C 0.66413 0.19137 0.45968 0.0
C701 C 0.68898 0.18767 0.45514 0.0
C702 C 0.70427 0.20815 0.45612 0.0
C703 C 0.69485 0.23181 0.46213 0.0
C704 C 0.69853 0.16235 0.44913 0.0
C705 C 0.71117 0.15865 0.42759 0.0
C706 C 0.69313 0.14154 0.46348 0.0
C707 C 0.68134 0.1445 0.48721 0.0
C708 C 0.69091 0.16059 0.50406 0.0
C709 C 0.67928 0.16403 0.52605 0.0
C710 C 0.65814 0.15135 0.5315 0.0
C711 C 0.64867 0.13508 0.515 0.0
C712 C 0.66022 0.13159 0.49297 0.0
C713 C 0.74795 0.05572 0.4179 0.0
C714 C 0.73054 0.04093 0.4074 0.0
C715 C 0.74165 0.07937 0.4266 0.0
C716 C 0.71767 0.08823 0.42568 0.0
C717 C 0.69993 0.0729 0.41654 0.0
C718 C 0.70635 0.04951 0.40723 0.0
C719 C 0.71129 0.11387 0.4334 0.0
C720 C 0.69933 0.11754 0.45526 0.0
C721 C 0.71752 0.13465 0.41949 0.0
C722 C 0.72996 0.13182 0.39611 0.0
C723 C 0.71963 0.11792 0.378 0.0
C724 C 0.73147 0.11535 0.35603 0.0
C725 C 0.75348 0.12693 0.3518 0.0
C726 C 0.76361 0.14123 0.36951 0.0
C727 C 0.75197 0.14363 0.39161 0.0
H728 H 0.76258 0.12499 0.33476 0.0
H729 H 0.64913 0.15409 0.54851 0.0
H730 H 0.02794 0.44193 0.68861 0.0
H731 H 0.06595 0.45959 0.67463 0.0
H732 H 0.09276 0.45784 0.74567 0.0
H733 H 0.05467 0.44097 0.75992 0.0
H734 H 0.10778 0.49831 0.72382 0.0
H735 H 0.10662 0.41085 0.70521 0.0
H736 H 0.08931 0.3734 0.68778 0.0
H737 H 0.09359 0.40634 0.61881 0.0
H738 H 0.11072 0.44411 0.63588 0.0
H739 H 0.23545 0.49371 0.69552 0.0
H740 H 0.19467 0.48321 0.71004 0.0
H741 H 0.16679 0.49553 0.64032 0.0
H742 H 0.20708 0.50633 0.6259 0.0
H743 H 0.15218 0.45058 0.66088 0.0
H744 H 0.15454 0.53737 0.67923 0.0
H745 H 0.17154 0.57498 0.69659 0.0
H746 H 0.16512 0.54318 0.76593 0.0
H747 H 0.14836 0.5052 0.74893 0.0
C748 C 0.04175 0.44568 0.70134 0.0
C749 C 0.03828 0.43976 0.72537 0.0
C750 C 0.06356 0.45565 0.69329 0.0
C751 C 0.08246 0.45953 0.70902 0.0
C752 C 0.07853 0.45491 0.73317 0.0
C753 C 0.05668 0.44517 0.74128 0.0
C754 C 0.1068 0.46691 0.70023 0.0
C755 C 0.11757 0.48771 0.71023 0.0
C756 C 0.1195 0.45332 0.68223 0.0
C757 C 0.10977 0.43038 0.67185 0.0
C758 C 0.10378 0.41014 0.68634 0.0
C759 C 0.094 0.38886 0.67653 0.0
C760 C 0.0903 0.38751 0.65221 0.0
C761 C 0.09646 0.40741 0.63764 0.0
C762 C 0.10624 0.42875 0.64737 0.0
C763 C 0.22056 0.49425 0.68339 0.0
C764 C 0.22442 0.50082 0.65963 0.0
C765 C 0.19733 0.48831 0.69167 0.0
C766 C 0.17774 0.4886 0.67621 0.0
C767 C 0.18164 0.49512 0.6525 0.0
C768 C 0.20469 0.50137 0.64434 0.0
C769 C 0.15313 0.48186 0.68456 0.0
C770 C 0.14235 0.46116 0.67446 0.0
C771 C 0.14049 0.49548 0.70248 0.0
C772 C 0.15044 0.51833 0.71278 0.0
C773 C 0.15696 0.5383 0.69816 0.0
C774 C 0.16651 0.5597 0.70793 0.0
C775 C 0.1695 0.56143 0.73233 0.0
C776 C 0.16284 0.54179 0.74702 0.0
C777 C 0.15329 0.52033 0.73733 0.0
H778 H 0.1769 0.57802 0.73987 0.0
H779 H 0.08271 0.37104 0.64463 0.0
H780 H 0.72128 0.94758 0.89659 0.0
H781 H 0.73785 0.91109 0.91641 0.0
H782 H 0.80059 0.9523 0.93545 0.0
H783 H 0.78457 0.98856 0.91429 0.0
H784 H 0.81559 0.91044 0.92387 0.0
H785 H 0.75305 0.93568 0.97679 0.0
H786 H 0.71219 0.94945 0.9902 0.0
H787 H 0.68348 0.88025 0.96739 0.0
H788 H 0.72411 0.86619 0.95352 0.0
H789 H 0.81327 0.79917 0.01342 0.0
H790 H 0.79913 0.84073 1.00166 0.0
H791 H 0.81666 0.82316 0.92881 0.0
H792 H 0.83162 0.78198 0.94057 0.0
H793 H 0.76442 0.85727 0.9748 0.0
H794 H 0.83663 0.87535 0.89993 0.0
H795 H 0.87987 0.86697 0.89112 0.0
H796 H 0.89248 0.85422 0.96477 0.0
H797 H 0.84945 0.8633 0.97417 0.0
C798 C 0.73854 0.94893 0.90515 0.0
C799 C 0.75156 0.97099 0.90404 0.0
C800 C 0.74795 0.92806 0.91667 0.0
C801 C 0.77026 0.92895 0.92806 0.0
C802 C 0.7833 0.95106 0.92696 0.0
C803 C 0.77412 0.97181 0.91491 0.0
C804 C 0.78032 0.90642 0.94006 0.0
C805 C 0.80428 0.89878 0.93482 0.0
C806 C 0.76611 0.89169 0.9555 0.0
C807 C 0.74163 0.89995 0.96397 0.0
C808 C 0.738 0.92345 0.97451 0.0
C809 C 0.71488 0.9313 0.9822 0.0
C810 C 0.69525 0.91575 0.97961 0.0
C811 C 0.69871 0.89228 0.96937 0.0
C812 C 0.72179 0.88435 0.96163 0.0
C813 C 0.81424 0.80426 0.99492 0.0
C814 C 0.82383 0.78749 0.97794 0.0
C815 C 0.80605 0.82796 0.9882 0.0
C816 C 0.80728 0.83527 0.96438 0.0
C817 C 0.81614 0.81818 0.94735 0.0
C818 C 0.82446 0.79458 0.95406 0.0
C819 C 0.79907 0.8606 0.95717 0.0
C820 C 0.77557 0.86885 0.96356 0.0
C821 C 0.81391 0.8762 0.94326 0.0
C822 C 0.83971 0.86987 0.93773 0.0
C823 C 0.84862 0.87088 0.91428 0.0
C824 C 0.87312 0.86611 0.90919 0.0
C825 C 0.88891 0.86019 0.92739 0.0
C826 C 0.88022 0.85886 0.9507 0.0
C827 C 0.85576 0.86383 0.95592 0.0
H828 H 0.90788 0.8566 0.92339 0.0
H829 H 0.67736 0.92187 0.98556 0.0
H830 H 0.46209 0.58021 0.20313 0.0
H831 H 0.42585 0.55953 0.19036 0.0
H832 H 0.39775 0.56028 0.26205 0.0
H833 H 0.43385 0.58123 0.27505 0.0
H834 H 0.39989 0.51799 0.19994 0.0
H835 H 0.33872 0.58018 0.25988 0.0
H836 H 0.34033 0.62012 0.28117 0.0
H837 H 0.39218 0.64649 0.23009 0.0
H838 H 0.39058 0.60687 0.20834 0.0
H839 H 0.28037 0.48344 0.17622 0.0
H840 H 0.3155 0.49438 0.19927 0.0
H841 H 0.31336 0.56802 0.16932 0.0
H842 H 0.27765 0.55746 0.14699 0.0
H843 H 0.3261 0.57084 0.21324 0.0
H844 H 0.3507 0.51976 0.14616 0.0
H845 H 0.3493 0.48205 0.12147 0.0
H846 H 0.37216 0.43749 0.18013 0.0
H847 H 0.37338 0.47493 0.20526 0.0
C848 C 0.4485 0.5755 0.21634 0.0
C849 C 0.4507 0.58287 0.24006 0.0
C850 C 0.4278 0.56357 0.20898 0.0
C851 C 0.40892 0.55882 0.22517 0.0
C852 C 0.41198 0.56414 0.24921 0.0
C853 C 0.43267 0.5761 0.2566 0.0
C854 C 0.38511 0.55122 0.21642 0.0
C855 C 0.38369 0.52937 0.20305 0.0
C856 C 0.36408 0.56636 0.22006 0.0
C857 C 0.36473 0.59047 0.23268 0.0
C858 C 0.35038 0.59455 0.25317 0.0
C859 C 0.3513 0.61712 0.26531 0.0
C860 C 0.36641 0.63579 0.25704 0.0
C861 C 0.38054 0.63198 0.23653 0.0
C862 C 0.37964 0.60948 0.2243 0.0
C863 C 0.28722 0.50207 0.17482 0.0
C864 C 0.27647 0.51955 0.15964 0.0
C865 C 0.30734 0.50827 0.18793 0.0
C866 C 0.31744 0.53183 0.1856 0.0
C867 C 0.30595 0.54969 0.17136 0.0
C868 C 0.28555 0.54365 0.15858 0.0
C869 C 0.34076 0.53754 0.19674 0.0
C870 C 0.34214 0.55913 0.2105 0.0
C871 C 0.36187 0.52248 0.19292 0.0
C872 C 0.36193 0.50009 0.17763 0.0
C873 C 0.35537 0.5019 0.1538 0.0
C874 C 0.35459 0.48058 0.13973 0.0
C875 C 0.36057 0.45738 0.14924 0.0
C876 C 0.36749 0.45547 0.1728 0.0
C877 C 0.36825 0.47673 0.18695 0.0
H878 H 0.35989 0.44088 0.13835 0.0
H879 H 0.36714 0.65323 0.2665 0.0
H880 H 0.54396 0.20111 0.26475 0.0
H881 H 0.55604 0.22061 0.30151 0.0
H882 H 0.48136 0.23852 0.31882 0.0
H883 H 0.46903 0.21886 0.28222 0.0
H884 H 0.55105 0.26509 0.32553 0.0
H885 H 0.47136 0.22198 0.37583 0.0
H886 H 0.44223 0.18848 0.37047 0.0
H887 H 0.49474 0.14748 0.32814 0.0
H888 H 0.52424 0.18056 0.33352 0.0
H889 H 0.56168 0.30214 0.44422 0.0
H890 H 0.54157 0.29302 0.40728 0.0
H891 H 0.5616 0.21557 0.41426 0.0
H892 H 0.58136 0.22445 0.45148 0.0
H893 H 0.51767 0.22059 0.39532 0.0
H894 H 0.59672 0.25518 0.38183 0.0
H895 H 0.6277 0.28698 0.3862 0.0
H896 H 0.58085 0.34124 0.35405 0.0
H897 H 0.54945 0.30982 0.34976 0.0
C898 C 0.53012 0.20983 0.27599 0.0
C899 C 0.50548 0.20799 0.27072 0.0
C900 C 0.53708 0.22099 0.29704 0.0
C901 C 0.51955 0.2305 0.31313 0.0
C902 C 0.49515 0.23089 0.30682 0.0
C903 C 0.48815 0.21966 0.28584 0.0
C904 C 0.52652 0.23711 0.33751 0.0
C905 C 0.54359 0.25556 0.34081 0.0
C906 C 0.51711 0.22433 0.35742 0.0
C907 C 0.49989 0.20384 0.35493 0.0
C908 C 0.47672 0.20573 0.36553 0.0
C909 C 0.46014 0.18684 0.36245 0.0
C910 C 0.46662 0.1659 0.34893 0.0
C911 C 0.48973 0.16373 0.33857 0.0
C912 C 0.50638 0.18254 0.34162 0.0
C913 C 0.56139 0.28307 0.43816 0.0
C914 C 0.57336 0.26404 0.45067 0.0
C915 C 0.54996 0.27791 0.41697 0.0
C916 C 0.55056 0.25371 0.40772 0.0
C917 C 0.56101 0.23441 0.421 0.0
C918 C 0.57229 0.23952 0.44231 0.0
C919 C 0.54209 0.24878 0.38343 0.0
C920 C 0.52483 0.23049 0.38012 0.0
C921 C 0.55164 0.26144 0.36348 0.0
C922 C 0.57067 0.28021 0.36566 0.0
C923 C 0.59299 0.27392 0.37579 0.0
C924 C 0.61062 0.29187 0.37826 0.0
C925 C 0.60623 0.31612 0.37043 0.0
C926 C 0.58422 0.32245 0.3601 0.0
C927 C 0.56651 0.30458 0.35764 0.0
H928 H 0.61991 0.32997 0.37229 0.0
H929 H 0.45374 0.15133 0.34651 0.0
H930 H 0.10942 0.29251 0.53638 0.0
H931 H 0.09213 0.30168 0.57543 0.0
H932 H 0.02104 0.3085 0.54579 0.0
H933 H 0.03858 0.29989 0.50619 0.0
H934 H 0.02625 0.3442 0.57682 0.0
H935 H 0.03748 0.25701 0.57961 0.0
H936 H 0.05772 0.21599 0.57532 0.0
H937 H 0.11161 0.23732 0.62446 0.0
H938 H 0.09169 0.27856 0.62902 0.0
H939 H 0.97543 0.34612 0.69499 0.0
H940 H 0.98546 0.33168 0.65472 0.0
H941 H 0.06146 0.33613 0.66929 0.0
H942 H 0.05153 0.35114 0.70929 0.0
H943 H 0.04856 0.29186 0.64548 0.0
H944 H 0.036 0.38164 0.63882 0.0
H945 H 0.01095 0.41953 0.64572 0.0
H946 H 0.95426 0.38915 0.60466 0.0
H947 H 0.97895 0.35096 0.59769 0.0
C948 C 0.09006 0.29582 0.53813 0.0
C949 C 0.07532 0.29531 0.51823 0.0
C950 C 0.08015 0.30096 0.56055 0.0
C951 C 0.05516 0.30535 0.56376 0.0
C952 C 0.04035 0.30506 0.54384 0.0
C953 C 0.05035 0.30008 0.52125 0.0
C954 C 0.04494 0.31073 0.5879 0.0
C955 C 0.03081 0.33247 0.59171 0.0
C956 C 0.05078 0.29554 0.60752 0.0
C957 C 0.06316 0.27095 0.60454 0.0
C958 C 0.05376 0.25304 0.58935 0.0
C959 C 0.06516 0.22973 0.58691 0.0
C960 C 0.08597 0.22407 0.59957 0.0
C961 C 0.09547 0.24173 0.61467 0.0
C962 C 0.08409 0.26506 0.61725 0.0
C963 C 0.99426 0.34414 0.68952 0.0
C964 C 0.0127 0.35011 0.70512 0.0
C965 C 0.99996 0.33581 0.66658 0.0
C966 C 0.02422 0.33304 0.65895 0.0
C967 C 0.04264 0.33819 0.67479 0.0
C968 C 0.03694 0.34679 0.69762 0.0
C969 C 0.03054 0.32548 0.63428 0.0
C970 C 0.04391 0.30337 0.63045 0.0
C971 C 0.02356 0.34 0.61466 0.0
C972 C 0.00927 0.36344 0.6178 0.0
C973 C 0.01821 0.38306 0.63124 0.0
C974 C 1.00407 0.40458 0.63518 0.0
C975 C 0.98103 0.40675 0.62562 0.0
C976 C 0.97213 0.38746 0.612 0.0
C977 C 0.98621 0.3659 0.60801 0.0
H978 H 0.97005 0.42336 0.62879 0.0
H979 H 0.09468 0.20595 0.59778 0.0
H980 H 0.99806 0.87458 0.80373 0.0
H981 H 0.98413 0.85531 0.84021 0.0
H982 H 0.95154 0.79714 0.79996 0.0
H983 H 0.96396 0.81792 0.76304 0.0
H984 H 0.92321 0.80784 0.83365 0.0
H985 H 0.00767 0.78982 0.8323 0.0
H986 H 0.05107 0.79872 0.8279 0.0
H987 H 0.04599 0.84753 0.88793 0.0
H988 H 1.00248 0.83922 0.89251 0.0
H989 H 0.90912 0.73429 0.93695 0.0
H990 H 0.92739 0.74882 0.9001 0.0
H991 H 0.93618 0.82119 0.93086 0.0
H992 H 0.91706 0.80705 0.9679 0.0
H993 H 0.97793 0.79932 0.90172 0.0
H994 H 0.89165 0.81627 0.90026 0.0
H995 H 0.84871 0.80547 0.90313 0.0
H996 H 0.8594 0.75267 0.84674 0.0
H997 H 0.90253 0.76327 0.8436 0.0
C998 C 0.98801 0.85758 0.8027 0.0
C999 C 0.98231 0.84744 0.78073 0.0
C1000 C 0.98023 0.84643 0.82358 0.0
C1001 C 0.96749 0.82421 0.82302 0.0
C1002 C 0.96156 0.81413 0.80093 0.0
C1003 C 0.96868 0.82588 0.77988 0.0
C1004 C 0.95965 0.81231 0.84555 0.0
C1005 C 0.9354 0.80551 0.84829 0.0
C1006 C 0.97539 0.80944 0.86494 0.0
C1007 C 1.00174 0.81399 0.86266 0.0
C1008 C 0.01578 0.80252 0.84452 0.0
C1009 C 0.0404 0.80747 0.84199 0.0
C1010 C 0.05127 0.82372 0.85759 0.0
C1011 C 0.03755 0.83496 0.87585 0.0
C1012 C 0.01291 0.83009 0.87845 0.0
C1013 C 0.91516 0.75326 0.9361 0.0
C1014 C 0.91156 0.76957 0.95539 0.0
C1015 C 0.92557 0.76149 0.91496 0.0
C1016 C 0.93291 0.78608 0.91277 0.0
C1017 C 0.93047 0.80216 0.93227 0.0
C1018 C 0.91956 0.79407 0.95337 0.0
C1019 C 0.94167 0.7953 0.8896 0.0
C1020 C 0.96602 0.80145 0.88684 0.0
C1021 C 0.92625 0.79692 0.87001 0.0
C1022 C 0.90035 0.79046 0.87187 0.0
C1023 C 0.88486 0.80229 0.88859 0.0
C1024 C 0.86048 0.79621 0.89025 0.0
C1025 C 0.85131 0.7783 0.87521 0.0
C1026 C 0.86653 0.76652 0.85841 0.0
C1027 C 0.89094 0.77262 0.85665 0.0
H1028 H 0.83242 0.77359 0.87654 0.0
H1029 H 0.07032 0.82759 0.85555 0.0
H1030 H 0.4751 0.65323 0.19674 0.0
H1031 H 0.4665 0.67287 0.15895 0.0
H1032 H 0.4528 0.74289 0.19438 0.0
H1033 H 0.46169 0.72322 0.23255 0.0
H1034 H 0.41746 0.73153 0.1624 0.0
H1035 H 0.50342 0.73506 0.16271 0.0
H1036 H 0.5451 0.71882 0.16724 0.0
H1037 H 0.5356 0.66786 0.10998 0.0
H1038 H 0.49368 0.68348 0.10533 0.0
H1039 H 0.40786 0.79824 0.05592 0.0
H1040 H 0.42521 0.78476 0.0932 0.0
H1041 H 0.43646 0.71089 0.06509 0.0
H1042 H 0.41894 0.72415 0.02761 0.0
H1043 H 0.47507 0.72734 0.09392 0.0
H1044 H 0.38844 0.72042 0.09665 0.0
H1045 H 0.34642 0.73569 0.09216 0.0
H1046 H 0.35737 0.79231 0.1441 0.0
H1047 H 0.39961 0.77757 0.14865 0.0
C1048 C 0.47052 0.67289 0.19651 0.0
C1049 C 0.4693 0.68678 0.21757 0.0
C1050 C 0.46563 0.68409 0.17487 0.0
C1051 C 0.4593 0.70941 0.17379 0.0
C1052 C 0.45778 0.72334 0.19482 0.0
C1053 C 0.46288 0.71213 0.21657 0.0
C1054 C 0.45352 0.7209 0.15067 0.0
C1055 C 0.43024 0.73109 0.14758 0.0
C1056 C 0.47002 0.71974 0.13116 0.0
C1057 C 0.49531 0.71037 0.13375 0.0
C1058 C 0.51013 0.72026 0.15118 0.0
C1059 C 0.53382 0.71119 0.15376 0.0
C1060 C 0.54299 0.69236 0.13888 0.0
C1061 C 0.52847 0.68249 0.12145 0.0
C1062 C 0.50475 0.69146 0.11882 0.0
C1063 C 0.41438 0.77921 0.05743 0.0
C1064 C 0.41178 0.76221 0.03879 0.0
C1065 C 0.42428 0.77154 0.07882 0.0
C1066 C 0.43187 0.74677 0.082 0.0
C1067 C 0.43069 0.7301 0.06299 0.0
C1068 C 0.42061 0.7377 0.0416 0.0
C1069 C 0.43902 0.73786 0.10574 0.0
C1070 C 0.46247 0.72806 0.10887 0.0
C1071 C 0.42269 0.73929 0.12533 0.0
C1072 C 0.39725 0.74807 0.1228 0.0
C1073 C 0.38194 0.73626 0.10697 0.0
C1074 C 0.35808 0.74479 0.10444 0.0
C1075 C 0.34925 0.765 0.11779 0.0
C1076 C 0.36425 0.77668 0.13375 0.0
C1077 C 0.38815 0.76823 0.13632 0.0
H1078 H 0.33076 0.77158 0.11581 0.0
H1079 H 0.56137 0.68549 0.1408 0.0
H1080 H 0.12998 0.39531 0.33677 0.0
H1081 H 0.14282 0.41292 0.29897 0.0
H1082 H 0.18958 0.34913 0.28563 0.0
H1083 H 0.17611 0.33074 0.32318 0.0
H1084 H 0.20853 0.40139 0.27341 0.0
H1085 H 0.14318 0.345 0.25965 0.0
H1086 H 0.10294 0.32806 0.26844 0.0
H1087 H 0.06985 0.39957 0.25586 0.0
H1088 H 0.10995 0.41703 0.24736 0.0
H1089 H 0.22419 0.43879 0.15399 0.0
H1090 H 0.21766 0.41207 0.18844 0.0
H1091 H 0.14945 0.45023 0.20322 0.0
H1092 H 0.15521 0.47561 0.16797 0.0
H1093 H 0.14406 0.40549 0.21373 0.0
H1094 H 0.20655 0.4637 0.23105 0.0
H1095 H 0.24562 0.48379 0.22358 0.0
H1096 H 0.28299 0.41363 0.23139 0.0
H1097 H 0.2441 0.39307 0.23855 0.0
C1098 C 0.14301 0.38494 0.32587 0.0
C1099 C 0.15166 0.36136 0.33288 0.0
C1100 C 0.15048 0.39517 0.30436 0.0
C1101 C 0.16697 0.38222 0.28948 0.0
C1102 C 0.17685 0.3594 0.29695 0.0
C1103 C 0.16917 0.34898 0.31844 0.0
C1104 C 0.17208 0.39176 0.26539 0.0
C1105 C 0.19466 0.40194 0.26014 0.0
C1106 C 0.15374 0.39293 0.24839 0.0
C1107 C 0.12958 0.38235 0.25305 0.0
C1108 C 0.12733 0.35715 0.25893 0.0
C1109 C 0.10455 0.34745 0.26383 0.0
C1110 C 0.08385 0.36274 0.26275 0.0
C1111 C 0.08589 0.38775 0.2567 0.0
C1112 C 0.10864 0.39755 0.25181 0.0
C1113 C 0.20762 0.44108 0.16442 0.0
C1114 C 0.19024 0.45928 0.15844 0.0
C1115 C 0.204 0.426 0.18424 0.0
C1116 C 0.18336 0.42954 0.19893 0.0
C1117 C 0.16557 0.4471 0.1923 0.0
C1118 C 0.16887 0.46165 0.17214 0.0
C1119 C 0.18046 0.41578 0.22163 0.0
C1120 C 0.15819 0.40476 0.22673 0.0
C1121 C 0.19897 0.41434 0.23864 0.0
C1122 C 0.22241 0.42682 0.23512 0.0
C1123 C 0.2231 0.45256 0.23112 0.0
C1124 C 0.24521 0.46402 0.22691 0.0
C1125 C 0.26676 0.44999 0.22695 0.0
C1126 C 0.26627 0.42448 0.23133 0.0
C1127 C 0.24421 0.41291 0.23547 0.0
H1128 H 0.28385 0.45888 0.22363 0.0
H1129 H 0.06623 0.3552 0.26657 0.0
H1130 H 0.89121 0.95074 0.60454 0.0
H1131 H 0.87389 0.96356 0.56687 0.0
H1132 H 0.91901 0.90898 0.53024 0.0
H1133 H 0.93664 0.89627 0.56782 0.0
H1134 H 0.91624 0.95362 0.50583 0.0
H1135 H 0.8623 0.89565 0.54246 0.0
H1136 H 0.83656 0.87936 0.57473 0.0
H1137 H 0.79228 0.94585 0.57361 0.0
H1138 H 0.81798 0.9627 0.54154 0.0
H1139 H 0.80747 0.93895 0.42006 0.0
H1140 H 0.83103 0.92721 0.4544 0.0
H1141 H 0.86184 0.99999 0.45562 0.0
H1142 H 0.83865 0.01179 0.42091 0.0
H1143 H 0.82771 0.94529 0.49729 0.0
H1144 H 0.91698 0.99684 0.48184 0.0
H1145 H 0.94302 0.01062 0.44865 0.0
H1146 H 0.91728 0.95181 0.40523 0.0
H1147 H 0.89131 0.93751 0.43823 0.0
C1148 C 0.89772 0.94171 0.58844 0.0
C1149 C 0.91521 0.92237 0.58921 0.0
C1150 C 0.8877 0.94896 0.56693 0.0
C1151 C 0.895 0.93709 0.54575 0.0
C1152 C 0.91308 0.91839 0.54635 0.0
C1153 C 0.92298 0.911 0.56787 0.0
C1154 C 0.88294 0.94328 0.52317 0.0
C1155 C 0.89687 0.95188 0.50395 0.0
C1156 C 0.85774 0.94066 0.52057 0.0
C1157 C 0.8422 0.93053 0.53977 0.0
C1158 C 0.84718 0.90688 0.54923 0.0
C1159 C 0.83259 0.89753 0.56746 0.0
C1160 C 0.81283 0.91159 0.57626 0.0
C1161 C 0.8076 0.935 0.5668 0.0
C1162 C 0.82217 0.94445 0.54859 0.0
C1163 C 0.81949 0.95241 0.42738 0.0
C1164 C 0.82107 0.97636 0.41767 0.0
C1165 C 0.83291 0.94567 0.44712 0.0
C1166 C 0.84826 0.96266 0.45768 0.0
C1167 C 0.8504 0.9864 0.44766 0.0
C1168 C 0.83706 0.99313 0.42778 0.0
C1169 C 0.86092 0.95586 0.47985 0.0
C1170 C 0.84707 0.94716 0.49909 0.0
C1171 C 0.88622 0.9581 0.4823 0.0
C1172 C 0.90204 0.96627 0.46244 0.0
C1173 C 0.91696 0.9868 0.46523 0.0
C1174 C 0.93168 0.99471 0.44645 0.0
C1175 C 0.93174 0.98214 0.42482 0.0
C1176 C 0.91714 0.96158 0.42196 0.0
C1177 C 0.90239 0.95359 0.44069 0.0
H1178 H 0.94314 0.98831 0.4103 0.0
H1179 H 0.80155 0.90432 0.59037 0.0
H1180 H 0.25308 0.5925 0.69174 0.0
H1181 H 0.26292 0.61457 0.72796 0.0
H1182 H 0.33733 0.5895 0.72022 0.0
H1183 H 0.32756 0.56693 0.68441 0.0
H1184 H 0.3221 0.5836 0.76416 0.0
H1185 H 0.31778 0.65034 0.70711 0.0
H1186 H 0.29792 0.67591 0.67669 0.0
H1187 H 0.24094 0.69613 0.72626 0.0
H1188 H 0.26033 0.67043 0.7569 0.0
H1189 H 0.38091 0.66126 0.84298 0.0
H1190 H 0.36657 0.64106 0.80755 0.0
H1191 H 0.2944 0.66982 0.82233 0.0
H1192 H 0.30888 0.69121 0.85732 0.0
H1193 H 0.30509 0.67357 0.77635 0.0
H1194 H 0.30992 0.60893 0.83389 0.0
H1195 H 0.32901 0.5831 0.86456 0.0
H1196 H 0.38386 0.55839 0.81448 0.0
H1197 H 0.36528 0.58435 0.78358 0.0
C1198 C 0.27157 0.59178 0.69767 0.0
C1199 C 0.28954 0.57792 0.68514 0.0
C1200 C 0.27719 0.60449 0.71836 0.0
C1201 C 0.30093 0.6039 0.72673 0.0
C1202 C 0.31887 0.5902 0.71416 0.0
C1203 C 0.31325 0.57733 0.69362 0.0
C1204 C 0.30717 0.61701 0.74885 0.0
C1205 C 0.31863 0.60334 0.76669 0.0
C1206 C 0.30188 0.64259 0.75255 0.0
C1207 C 0.29039 0.65827 0.73422 0.0
C1208 C 0.30094 0.66012 0.71147 0.0
C1209 C 0.28978 0.67465 0.6942 0.0
C1210 C 0.26815 0.68758 0.69952 0.0
C1211 C 0.25768 0.68608 0.72216 0.0
C1212 C 0.26876 0.67156 0.73949 0.0
C1213 C 0.36204 0.66362 0.83859 0.0
C1214 C 0.34607 0.67789 0.85309 0.0
C1215 C 0.3538 0.65177 0.81843 0.0
C1216 C 0.32931 0.65356 0.81246 0.0
C1217 C 0.31334 0.66805 0.82666 0.0
C1218 C 0.32162 0.68007 0.84679 0.0
C1219 C 0.32052 0.64024 0.79139 0.0
C1220 C 0.30848 0.65382 0.77384 0.0
C1221 C 0.32517 0.61452 0.78795 0.0
C1222 C 0.33631 0.59874 0.80646 0.0
C1223 C 0.32615 0.59812 0.82945 0.0
C1224 C 0.33686 0.58344 0.84688 0.0
C1225 C 0.35767 0.56915 0.84148 0.0
C1226 C 0.36776 0.56948 0.81864 0.0
C1227 C 0.35712 0.58415 0.80115 0.0
H1228 H 0.36594 0.5578 0.855 0.0
H1229 H 0.25952 0.6988 0.68612 0.0
H1230 H 0.61531 0.0883 0.10843 0.0
H1231 H 0.63447 0.07546 0.07083 0.0
H1232 H 0.58162 0.11891 0.03295 0.0
H1233 H 0.56239 0.13204 0.07067 0.0
H1234 H 0.59337 0.06813 0.01371 0.0
H1235 H 0.63102 0.14397 0.03691 0.0
H1236 H 0.65114 0.1716 0.06475 0.0
H1237 H 0.70922 0.118 0.07168 0.0
H1238 H 0.68923 0.08987 0.04415 0.0
H1239 H 0.66335 0.06545 0.90423 0.0
H1240 H 0.63717 0.07666 0.93843 0.0
H1241 H 0.69317 0.05184 0.98544 0.0
H1242 H 0.71935 0.0412 0.95155 0.0
H1243 H 0.67723 0.09574 0.99851 0.0
H1244 H 0.64069 0.01916 0.97776 0.0
H1245 H 0.62146 0.98951 0.9513 0.0
H1246 H 0.56258 0.04142 0.94082 0.0
H1247 H 0.58165 0.07155 0.96708 0.0
C1248 C 0.60759 0.09491 0.09209 0.0
C1249 C 0.58739 0.11123 0.09249 0.0
C1250 C 0.61858 0.08759 0.07064 0.0
C1251 C 0.60946 0.09625 0.04912 0.0
C1252 C 0.58887 0.11197 0.04937 0.0
C1253 C 0.57805 0.1196 0.07089 0.0
C1254 C 0.62246 0.08993 0.0266 0.0
C1255 C 0.61156 0.07445 0.01012 0.0
C1256 C 0.64636 0.09776 0.02223 0.0
C1257 C 0.65851 0.11473 0.03864 0.0
C1258 C 0.64798 0.13799 0.04453 0.0
C1259 C 0.65937 0.15375 0.06022 0.0
C1260 C 0.68142 0.14654 0.07002 0.0
C1261 C 0.69213 0.12356 0.0641 0.0
C1262 C 0.68079 0.10771 0.04843 0.0
C1263 C 0.66989 0.06216 0.92189 0.0
C1264 C 0.69345 0.05266 0.92525 0.0
C1265 C 0.65492 0.06851 0.94142 0.0
C1266 C 0.66319 0.06516 0.96459 0.0
C1267 C 0.68642 0.05483 0.96781 0.0
C1268 C 0.70136 0.04868 0.9484 0.0
C1269 C 0.64841 0.07347 0.9856 0.0
C1270 C 0.65898 0.08946 1.00186 0.0
C1271 C 0.62436 0.06582 0.98982 0.0
C1272 C 0.61273 0.04772 0.97417 0.0
C1273 C 0.62373 0.02434 0.96967 0.0
C1274 C 0.61284 0.00743 0.95472 0.0
C1275 C 0.59084 0.0136 0.94428 0.0
C1276 C 0.57965 0.03668 0.94887 0.0
C1277 C 0.59047 0.05367 0.96381 0.0
H1278 H 0.58243 1.00048 0.93271 0.0
H1279 H 0.69022 0.15877 0.08217 0.0
H1280 H 0.67705 0.20841 0.64097 0.0
H1281 H 0.68847 0.19145 0.67936 0.0
H1282 H 0.63694 0.13331 0.67178 0.0
H1283 H 0.62587 0.14964 0.63319 0.0
H1284 H 0.63406 0.15553 0.71588 0.0
H1285 H 0.69593 0.12111 0.66278 0.0
H1286 H 0.72885 0.12346 0.63284 0.0
H1287 H 0.77 0.16751 0.68006 0.0
H1288 H 0.73715 0.1657 0.71018 0.0
H1289 H 0.66727 0.06441 0.79816 0.0
H1290 H 0.65758 0.08923 0.76366 0.0
H1291 H 0.71752 0.1366 0.77743 0.0
H1292 H 0.72784 0.11127 0.81189 0.0
H1293 H 0.71736 0.12505 0.7322 0.0
H1294 H 0.65785 0.15683 0.78672 0.0
H1295 H 0.62518 0.15547 0.81698 0.0
H1296 H 0.57976 0.11854 0.76808 0.0
H1297 H 0.61229 0.11936 0.7376 0.0
C1298 C 0.66834 0.19183 0.64729 0.0
C1299 C 0.65048 0.18046 0.63389 0.0
C1300 C 0.67482 0.18223 0.66933 0.0
C1301 C 0.66358 0.16108 0.67844 0.0
C1302 C 0.64574 0.14975 0.66518 0.0
C1303 C 0.63936 0.15921 0.64312 0.0
C1304 C 0.67029 0.15062 0.70177 0.0
C1305 C 0.65222 0.14868 0.71941 0.0
C1306 C 0.69419 0.14251 0.70667 0.0
C1307 C 0.71397 0.14351 0.68862 0.0
C1308 C 0.71191 0.13148 0.6667 0.0
C1309 C 0.73057 0.13268 0.64971 0.0
C1310 C 0.75147 0.1457 0.65451 0.0
C1311 C 0.75378 0.15748 0.67635 0.0
C1312 C 0.73515 0.15636 0.69338 0.0
C1313 C 0.67832 0.08024 0.7941 0.0
C1314 C 0.69835 0.08582 0.80793 0.0
C1315 C 0.67264 0.09455 0.77434 0.0
C1316 C 0.68659 0.11505 0.76803 0.0
C1317 C 0.70643 0.12092 0.78196 0.0
C1318 C 0.71223 0.10648 0.80174 0.0
C1319 C 0.68098 0.12944 0.74626 0.0
C1320 C 0.69924 0.13216 0.72887 0.0
C1321 C 0.65728 0.13848 0.74166 0.0
C1322 C 0.6376 0.13801 0.75992 0.0
C1323 C 0.64096 0.14826 0.78246 0.0
C1324 C 0.62245 0.14761 0.79965 0.0
C1325 C 0.60043 0.13688 0.79447 0.0
C1326 C 0.59684 0.12683 0.77207 0.0
C1327 C 0.6153 0.12742 0.75482 0.0
H1328 H 0.58612 0.13639 0.8078 0.0
H1329 H 0.7659 0.1466 0.64134 0.0
H1330 H 0.14997 0.5129 0.05383 0.0
H1331 H 0.12583 0.50265 0.01953 0.0
H1332 H 0.16676 0.4341 0.01036 0.0
H1333 H 0.191 0.44414 0.04446 0.0
H1334 H 0.16249 0.45969 0.9689 0.0
H1335 H 0.10974 0.43415 0.03328 0.0
H1336 H 0.08602 0.44048 0.07029 0.0
H1337 H 0.0439 0.49826 0.03744 0.0
H1338 H 0.06759 0.49248 1.00031 0.0
H1339 H 0.09324 0.3906 0.89091 0.0
H1340 H 0.11495 0.40651 0.92456 0.0
H1341 H 0.06565 0.46966 0.92889 0.0
H1342 H 0.04319 0.4533 0.89561 0.0
H1343 H 0.07335 0.45126 0.97189 0.0
H1344 H 0.12332 0.47584 0.90714 0.0
H1345 H 0.14693 0.47112 0.86988 0.0
H1346 H 0.19432 0.41787 0.90275 0.0
H1347 H 0.17079 0.42199 0.94013 0.0
C1348 C 0.15374 0.49555 0.04463 0.0
C1349 C 0.17246 0.47935 0.05195 0.0
C1350 C 0.13987 0.48971 0.02504 0.0
C1351 C 0.14445 0.46757 0.0124 0.0
C1352 C 0.16295 0.45131 0.0198 0.0
C1353 C 0.17673 0.45705 0.0394 0.0
C1354 C 0.13042 0.46148 0.99112 0.0
C1355 C 0.14302 0.45758 0.96959 0.0
C1356 C 0.10492 0.45967 0.99183 0.0
C1357 C 0.0906 0.46306 0.0141 0.0
C1358 C 0.09554 0.44834 0.03401 0.0
C1359 C 0.08208 0.4518 0.055 0.0
C1360 C 0.06351 0.46982 0.05624 0.0
C1361 C 0.05832 0.48435 0.03647 0.0
C1362 C 0.07174 0.48097 0.01544 0.0
C1363 C 0.08689 0.40782 0.89906 0.0
C1364 C 0.0664 0.42062 0.89056 0.0
C1365 C 0.0995 0.41704 0.91818 0.0
C1366 C 0.09213 0.43946 0.92913 0.0
C1367 C 0.07173 0.45238 0.92068 0.0
C1368 C 0.05905 0.44311 0.90151 0.0
C1369 C 0.1055 0.44892 0.94972 0.0
C1370 C 0.09279 0.45353 0.97111 0.0
C1371 C 0.13091 0.45164 0.94885 0.0
C1372 C 0.14515 0.44908 0.92639 0.0
C1373 C 0.13866 0.46297 0.90638 0.0
C1374 C 0.15205 0.46043 0.88524 0.0
C1375 C 0.17208 0.44416 0.88393 0.0
C1376 C 0.17879 0.43044 0.90378 0.0
C1377 C 0.16545 0.4329 0.92496 0.0
H1378 H 0.18243 0.44223 0.86756 0.0
H1379 H 0.0531 0.47247 0.0725 0.0
H1380 H 0.83057 0.99334 0.29255 0.0
H1381 H 0.83666 0.96677 0.2579 0.0
H1382 H 0.77649 0.92246 0.2804 0.0
H1383 H 0.77017 0.94937 0.31531 0.0
H1384 H 0.81703 0.89392 0.26239 0.0
H1385 H 0.7669 0.96247 0.23868 0.0
H1386 H 0.75482 0.00662 0.23514 0.0
H1387 H 0.8201 0.0207 0.19546 0.0
H1388 H 0.83275 0.97669 0.19908 0.0
H1389 H 0.81657 0.83578 0.14826 0.0
H1390 H 0.80415 0.85728 0.18479 0.0
H1391 H 0.85427 0.91538 0.16881 0.0
H1392 H 0.8658 0.89476 0.13177 0.0
H1393 H 0.81353 0.93518 0.18413 0.0
H1394 H 0.86542 0.86791 0.21075 0.0
H1395 H 0.87838 0.82404 0.21484 0.0
H1396 H 0.81059 0.80767 0.24909 0.0
H1397 H 0.79712 0.85141 0.24495 0.0
C1398 C 0.81873 0.97781 0.29029 0.0
C1399 C 0.79992 0.97339 0.30671 0.0
C1400 C 0.82222 0.96266 0.27042 0.0
C1401 C 0.80688 0.94278 0.26639 0.0
C1402 C 0.78855 0.9377 0.28317 0.0
C1403 C 0.785 0.953 0.30314 0.0
C1404 C 0.8097 0.92818 0.2441 0.0
C1405 C 0.81584 0.9028 0.24524 0.0
C1406 C 0.80851 0.93984 0.22173 0.0
C1407 C 0.80085 0.9663 0.2193 0.0
C1408 C 0.77876 0.97501 0.22934 0.0
C1409 C 0.7718 1.00001 0.2273 0.0
C1410 C 0.7867 0.01646 0.21512 0.0
C1411 C 0.80858 0.00793 0.2049 0.0
C1412 C 0.81564 0.98295 0.20692 0.0
C1413 C 0.82477 0.85327 0.15236 0.0
C1414 C 0.84231 0.86341 0.13698 0.0
C1415 C 0.81785 0.86542 0.17345 0.0
C1416 C 0.8285 0.88784 0.17982 0.0
C1417 C 0.84582 0.89808 0.16441 0.0
C1418 C 0.85261 0.88607 0.14329 0.0
C1419 C 0.82155 0.90096 0.20231 0.0
C1420 C 0.81453 0.92615 0.20122 0.0
C1421 C 0.82202 0.88909 0.22467 0.0
C1422 C 0.83017 0.86286 0.2273 0.0
C1423 C 0.85322 0.85491 0.219 0.0
C1424 C 0.86067 0.83008 0.22136 0.0
C1425 C 0.84529 0.81306 0.23215 0.0
C1426 C 0.82247 0.82087 0.24069 0.0
C1427 C 0.81492 0.84567 0.23837 0.0
H1428 H 0.85109 0.79385 0.23395 0.0
H1429 H 0.78129 0.03581 0.21356 0.0
H1430 H 0.3247 0.53494 0.58022 0.0
H1431 H 0.3528 0.53874 0.54623 0.0
H1432 H 0.33116 0.61581 0.53902 0.0
H1433 H 0.30273 0.6118 0.57225 0.0
H1434 H 0.32526 0.59183 0.49931 0.0
H1435 H 0.388 0.59448 0.55763 0.0
H1436 H 0.41278 0.5785 0.59021 0.0
H1437 H 0.43611 0.51614 0.54749 0.0
H1438 H 0.41088 0.53133 0.5149 0.0
H1439 H 0.4019 0.64505 0.41653 0.0
H1440 H 0.38335 0.63275 0.454 0.0
H1441 H 0.40877 0.55732 0.44261 0.0
H1442 H 0.42751 0.56959 0.4047 0.0
H1443 H 0.41315 0.57319 0.48984 0.0
H1444 H 0.35202 0.5701 0.43182 0.0
H1445 H 0.3279 0.5854 0.39847 0.0
H1446 H 0.30194 0.64734 0.4404 0.0
H1447 H 0.32619 0.63263 0.4739 0.0
C1448 C 0.3265 0.55281 0.57171 0.0
C1449 C 0.3115 0.57307 0.57867 0.0
C1450 C 0.34253 0.55497 0.55229 0.0
C1451 C 0.34397 0.57753 0.53991 0.0
C1452 C 0.33021 0.59816 0.54811 0.0
C1453 C 0.31404 0.5959 0.56716 0.0
C1454 C 0.35748 0.57941 0.51699 0.0
C1455 C 0.34454 0.58798 0.4974 0.0
C1456 C 0.38241 0.57319 0.51409 0.0
C1457 C 0.39724 0.56388 0.53391 0.0
C1458 C 0.39812 0.57717 0.55529 0.0
C1459 C 0.41229 0.56827 0.57376 0.0
C1460 C 0.42595 0.54628 0.57095 0.0
C1461 C 0.4255 0.53316 0.54966 0.0
C1462 C 0.41118 0.54185 0.53122 0.0
C1463 C 0.40345 0.62579 0.42186 0.0
C1464 C 0.41577 0.60819 0.4074 0.0
C1465 C 0.39296 0.61882 0.44337 0.0
C1466 C 0.39436 0.59405 0.45092 0.0
C1467 C 0.40744 0.57653 0.43706 0.0
C1468 C 0.41808 0.58354 0.41542 0.0
C1469 C 0.38104 0.58668 0.47276 0.0
C1470 C 0.39385 0.57685 0.4919 0.0
C1471 C 0.3559 0.59154 0.47537 0.0
C1472 C 0.34106 0.60033 0.45533 0.0
C1473 C 0.34129 0.58707 0.43389 0.0
C1474 C 0.32758 0.59563 0.41496 0.0
C1475 C 0.31343 0.61735 0.4173 0.0
C1476 C 0.31291 0.63053 0.43861 0.0
C1477 C 0.32662 0.62207 0.45758 0.0
H1478 H 0.30283 0.62395 0.40262 0.0
H1479 H 0.43692 0.53942 0.58526 0.0
H1480 H 0.18541 0.19586 0.44852 0.0
H1481 H 0.21939 0.19408 0.42039 0.0
H1482 H 0.19235 0.2604 0.38642 0.0
H1483 H 0.15799 0.2624 0.41494 0.0
H1484 H 0.21221 0.2209 0.3544 0.0
H1485 H 0.23465 0.26972 0.42019 0.0
H1486 H 0.23796 0.28021 0.46241 0.0
H1487 H 0.28222 0.2148 0.47304 0.0
H1488 H 0.27882 0.20369 0.43094 0.0
H1489 H 0.32925 0.22505 0.29626 0.0
H1490 H 0.2923 0.23798 0.31798 0.0
H1491 H 0.30714 0.1828 0.37121 0.0
H1492 H 0.34391 0.16984 0.34972 0.0
H1493 H 0.29254 0.22528 0.39147 0.0
H1494 H 0.26537 0.17439 0.32653 0.0
H1495 H 0.2612 0.16371 0.28442 0.0
H1496 H 0.22567 0.23407 0.2721 0.0
H1497 H 0.22991 0.24529 0.3141 0.0
C1498 C 0.18642 0.20989 0.43486 0.0
C1499 C 0.16911 0.22934 0.434 0.0
C1500 C 0.2059 0.20887 0.41882 0.0
C1501 C 0.20858 0.22727 0.40152 0.0
C1502 C 0.19062 0.24604 0.39968 0.0
C1503 C 0.17102 0.24714 0.41592 0.0
C1504 C 0.23106 0.22729 0.38664 0.0
C1505 C 0.2298 0.22241 0.36235 0.0
C1506 C 0.25399 0.22905 0.39709 0.0
C1507 C 0.25635 0.23579 0.4224 0.0
C1508 C 0.24495 0.25747 0.43155 0.0
C1509 C 0.24686 0.26354 0.45547 0.0
C1510 C 0.26028 0.24817 0.4704 0.0
C1511 C 0.27184 0.2267 0.46144 0.0
C1512 C 0.26995 0.22052 0.43755 0.0
C1513 C 0.32468 0.21567 0.31259 0.0
C1514 C 0.33976 0.19647 0.32124 0.0
C1515 C 0.30349 0.22309 0.325 0.0
C1516 C 0.29676 0.21126 0.34619 0.0
C1517 C 0.31195 0.19235 0.355 0.0
C1518 C 0.33311 0.18502 0.34269 0.0
C1519 C 0.27383 0.21807 0.35926 0.0
C1520 C 0.27501 0.22424 0.38333 0.0
C1521 C 0.25088 0.21762 0.34854 0.0
C1522 C 0.2482 0.21078 0.32337 0.0
C1523 C 0.25683 0.18765 0.31479 0.0
C1524 C 0.25443 0.18149 0.29096 0.0
C1525 C 0.24325 0.19823 0.27557 0.0
C1526 C 0.23437 0.22114 0.28402 0.0
C1527 C 0.23675 0.2274 0.30784 0.0
H1528 H 0.24141 0.19343 0.25713 0.0
H1529 H 0.26175 0.25291 0.48891 0.0
H1530 H 0.10802 0.13554 0.61044 0.0
H1531 H 0.09396 0.09735 0.6287 0.0
H1532 H 0.05357 0.08089 0.56652 0.0
H1533 H 0.06834 0.11857 0.54758 0.0
H1534 H 0.02721 0.07465 0.61058 0.0
H1535 H 0.1024 0.04938 0.57306 0.0
H1536 H 0.14588 0.05227 0.56323 0.0
H1537 H 0.1628 0.04432 0.63659 0.0
H1538 H 0.11937 0.04175 0.64691 0.0
H1539 H 1.00165 0.9521 0.6525 0.0
H1540 H 0.01352 0.987 0.62737 0.0
H1541 H 0.06802 0.00619 0.67726 0.0
H1542 H 0.05686 0.97122 0.70191 0.0
H1543 H 0.08619 0.00925 0.63482 0.0
H1544 H 0.01203 0.03812 0.67333 0.0
H1545 H 0.96876 0.03604 0.68447 0.0
H1546 H 0.94999 0.03824 0.61124 0.0
H1547 H 0.99319 0.04001 0.59964 0.0
C1548 C 0.09647 0.12368 0.6004 0.0
C1549 C 0.08952 0.1302 0.57738 0.0
C1550 C 0.08827 0.10193 0.61099 0.0
C1551 C 0.07279 0.08626 0.59893 0.0
C1552 C 0.06543 0.0928 0.57616 0.0
C1553 C 0.07385 0.11443 0.56541 0.0
C1554 C 0.06468 0.06288 0.61011 0.0
C1555 C 0.04001 0.06012 0.61556 0.0
C1556 C 0.08146 0.04417 0.61693 0.0
C1557 C 0.10761 0.04558 0.61078 0.0
C1558 C 0.11538 0.04845 0.58712 0.0
C1559 C 0.14002 0.05 0.58146 0.0
C1560 C 0.15709 0.04854 0.59928 0.0
C1561 C 0.14955 0.04547 0.62281 0.0
C1562 C 0.12493 0.04394 0.62857 0.0
C1563 C 0.0162 0.96373 0.65806 0.0
C1564 C 0.0283 0.95879 0.67924 0.0
C1565 C 0.0229 0.98376 0.64373 0.0
C1566 C 0.04154 0.99943 0.6505 0.0
C1567 C 0.05365 0.99438 0.67156 0.0
C1568 C 0.04717 0.97433 0.68571 0.0
C1569 C 0.04871 0.02114 0.6359 0.0
C1570 C 0.07327 0.02361 0.62972 0.0
C1571 C 0.03183 0.03967 0.62866 0.0
C1572 C 0.00585 0.03892 0.63561 0.0
C1573 C 0.99868 0.038 0.6596 0.0
C1574 C 0.97417 0.0369 0.666 0.0
C1575 C 0.95665 0.03693 0.64857 0.0
C1576 C 0.96359 0.03817 0.62471 0.0
C1577 C 0.98808 0.03924 0.61822 0.0
H1578 H 0.93768 0.03605 0.65356 0.0
H1579 H 0.17616 0.04973 0.59486 0.0
H1580 H 0.16837 0.88271 0.80583 0.0
H1581 H 0.2023 0.86569 0.82786 0.0
H1582 H 0.15431 0.81664 0.86517 0.0
H1583 H 0.12014 0.83335 0.84286 0.0
H1584 H 0.18411 0.83835 0.89517 0.0
H1585 H 0.19273 0.79423 0.82276 0.0
H1586 H 0.19502 0.78942 0.77942 0.0
H1587 H 0.25975 0.83187 0.77663 0.0
H1588 H 0.25758 0.83739 0.81992 0.0
H1589 H 0.30636 0.76562 0.91466 0.0
H1590 H 0.27098 0.7739 0.89015 0.0
H1591 H 0.26461 0.84809 0.91864 0.0
H1592 H 0.29946 0.83995 0.94327 0.0
H1593 H 0.25982 0.80681 0.85582 0.0
H1594 H 0.20628 0.86475 0.92698 0.0
H1595 H 0.20228 0.86719 0.97044 0.0
H1596 H 0.22472 0.79063 0.97597 0.0
H1597 H 0.2285 0.78762 0.93254 0.0
C1598 C 0.16499 0.868 0.8184 0.0
C1599 C 0.14141 0.85934 0.82238 0.0
C1600 C 0.18447 0.85832 0.83108 0.0
C1601 C 0.18097 0.83967 0.84803 0.0
C1602 C 0.15749 0.83103 0.85219 0.0
C1603 C 0.13794 0.84068 0.83945 0.0
C1604 C 0.20179 0.82978 0.86178 0.0
C1605 C 0.20062 0.83138 0.88654 0.0
C1606 C 0.22318 0.8201 0.85061 0.0
C1607 C 0.22489 0.81638 0.82461 0.0
C1608 C 0.20738 0.80268 0.8129 0.0
C1609 C 0.20865 0.79982 0.78834 0.0
C1610 C 0.2275 0.81037 0.77528 0.0
C1611 C 0.24515 0.82373 0.78677 0.0
C1612 C 0.24392 0.82672 0.81133 0.0
C1613 C 0.29751 0.78375 0.9156 0.0
C1614 C 0.30569 0.80202 0.93115 0.0
C1615 C 0.27729 0.78846 0.90154 0.0
C1616 C 0.26482 0.81149 0.90282 0.0
C1617 C 0.27355 0.83001 0.91766 0.0
C1618 C 0.29362 0.82532 0.93172 0.0
C1619 C 0.2424 0.81623 0.88915 0.0
C1620 C 0.24326 0.81364 0.86442 0.0
C1621 C 0.22051 0.82454 0.90036 0.0
C1622 C 0.21785 0.82604 0.9265 0.0
C1623 C 0.21022 0.8484 0.93746 0.0
C1624 C 0.20802 0.84989 0.96209 0.0
C1625 C 0.2133 0.8291 0.97595 0.0
C1626 C 0.22071 0.80674 0.96521 0.0
C1627 C 0.2229 0.80514 0.94059 0.0
H1628 H 0.21162 0.8303 0.99502 0.0
H1629 H 0.22844 0.80816 0.75626 0.0
H1630 H 0.49687 0.07177 0.17553 0.0
H1631 H 0.48463 0.03517 0.15362 0.0
H1632 H 0.4096 0.05562 0.16658 0.0
H1633 H 0.42174 0.09162 0.18931 0.0
H1634 H 0.41506 0.00874 0.17326 0.0
H1635 H 0.4409 0.06417 0.11132 0.0
H1636 H 0.46956 0.09142 0.09054 0.0
H1637 H 0.51996 0.03015 0.0815 0.0
H1638 H 0.49171 1.00259 0.10249 0.0
H1639 H 0.358 0.94028 0.08497 0.0
H1640 H 0.37551 0.97377 0.10742 0.0
H1641 H 0.44569 0.93753 0.10173 0.0
H1642 H 0.42815 0.90325 0.07989 0.0
H1643 H 0.44573 0.98966 0.09204 0.0
H1644 H 0.41772 0.93391 0.15205 0.0
H1645 H 0.38812 0.90727 0.17222 0.0
H1646 H 0.34054 0.97038 0.18401 0.0
H1647 H 0.36971 0.99736 0.16359 0.0
C1648 C 0.47776 0.06852 0.17363 0.0
C1649 C 0.46027 0.08463 0.18414 0.0
C1650 C 0.47077 0.04761 0.16099 0.0
C1651 C 0.44615 0.04274 0.15811 0.0
C1652 C 0.4287 0.0589 0.16856 0.0
C1653 C 0.43567 0.07954 0.18152 0.0
C1654 C 0.43842 0.02061 0.14466 0.0
C1655 C 0.4216 0.00481 0.1554 0.0
C1656 C 0.44743 0.01491 0.12157 0.0
C1657 C 0.46429 0.03138 0.10869 0.0
C1658 C 0.45816 0.05654 0.10502 0.0
C1659 C 0.47432 0.07204 0.09319 0.0
C1660 C 0.4966 0.06254 0.08478 0.0
C1661 C 0.50272 0.03749 0.08807 0.0
C1662 C 0.48662 0.02192 0.09991 0.0
C1663 C 0.37709 0.9391 0.08877 0.0
C1664 C 0.39156 0.9188 0.0808 0.0
C1665 C 0.3871 0.95842 0.10147 0.0
C1666 C 0.41184 0.95802 0.1064 0.0
C1667 C 0.42654 0.93817 0.09807 0.0
C1668 C 0.41648 0.91864 0.08552 0.0
C1669 C 0.42207 0.97833 0.12052 0.0
C1670 C 0.43935 0.99366 0.10994 0.0
C1671 C 0.41335 0.98377 0.14367 0.0
C1672 C 0.39583 0.96762 0.15611 0.0
C1673 C 0.40086 0.94208 0.15878 0.0
C1674 C 0.38417 0.92692 0.17028 0.0
C1675 C 0.36244 0.93712 0.17934 0.0
C1676 C 0.35737 0.96251 0.17696 0.0
C1677 C 0.37399 0.97775 0.16545 0.0
H1678 H 0.34954 0.92535 0.18825 0.0
H1679 H 0.50911 0.07457 0.07565 0.0
H1680 H 0.85518 0.33445 0.66313 0.0
H1681 H 0.81815 0.31957 0.64562 0.0
H1682 H 0.83808 0.35342 0.5793 0.0
H1683 H 0.87569 0.36738 0.59617 0.0
H1684 H 0.79043 0.36697 0.59809 0.0
H1685 H 0.84131 0.29417 0.58194 0.0
H1686 H 0.86828 0.25923 0.5931 0.0
H1687 H 0.8125 0.23067 0.63872 0.0
H1688 H 0.78531 0.26567 0.62809 0.0
H1689 H 0.70587 0.32796 0.51748 0.0
H1690 H 0.74238 0.33653 0.53885 0.0
H1691 H 0.72154 0.28449 0.59305 0.0
H1692 H 0.68508 0.27499 0.57104 0.0
H1693 H 0.76792 0.27951 0.58488 0.0
H1694 H 0.71626 0.34903 0.60149 0.0
H1695 H 0.68815 0.38399 0.59331 0.0
H1696 H 0.74324 0.41931 0.55167 0.0
H1697 H 0.7716 0.38438 0.55931 0.0
C1698 C 0.8521 0.33821 0.64464 0.0
C1699 C 0.86852 0.35234 0.63117 0.0
C1700 C 0.83077 0.32981 0.63472 0.0
C1701 C 0.82531 0.33552 0.61121 0.0
C1702 C 0.84188 0.34899 0.59754 0.0
C1703 C 0.86333 0.35708 0.6073 0.0
C1704 C 0.80179 0.32869 0.60114 0.0
C1705 C 0.78558 0.34787 0.59494 0.0
C1706 C 0.79505 0.30374 0.59809 0.0
C1707 C 0.81138 0.2827 0.60443 0.0
C1708 C 0.83488 0.28058 0.59454 0.0
C1709 C 0.85019 0.26074 0.60072 0.0
C1710 C 0.84214 0.24279 0.61667 0.0
C1711 C 0.81873 0.24461 0.62641 0.0
C1712 C 0.80336 0.26444 0.62029 0.0
C1713 C 0.70888 0.31838 0.53401 0.0
C1714 C 0.69233 0.30099 0.54267 0.0
C1715 C 0.72982 0.3234 0.54631 0.0
C1716 C 0.73455 0.31165 0.56792 0.0
C1717 C 0.71826 0.29395 0.5765 0.0
C1718 C 0.69737 0.2886 0.56395 0.0
C1719 C 0.75667 0.31787 0.58118 0.0
C1720 C 0.77259 0.29864 0.58812 0.0
C1721 C 0.76297 0.34283 0.58543 0.0
C1722 C 0.74601 0.36397 0.58084 0.0
C1723 C 0.72234 0.36416 0.59045 0.0
C1724 C 0.70637 0.38399 0.58593 0.0
C1725 C 0.71389 0.40383 0.57194 0.0
C1726 C 0.73743 0.40391 0.56249 0.0
C1727 C 0.75348 0.38412 0.56693 0.0
H1728 H 0.70149 0.41917 0.56846 0.0
H1729 H 0.85401 0.22743 0.62143 0.0
H1730 H 0.92387 0.47379 0.76308 0.0
H1731 H 0.91826 0.50494 0.79408 0.0
H1732 H 0.97451 0.4692 0.83436 0.0
H1733 H 0.98004 0.43754 0.80314 0.0
H1734 H 0.9353 0.48316 0.86238 0.0
H1735 H 0.98621 0.5223 0.80542 0.0
H1736 H 0.99947 0.53573 0.76567 0.0
H1737 H 0.93438 0.57998 0.75925 0.0
H1738 H 0.92055 0.56653 0.79883 0.0
H1739 H 0.93005 0.5876 0.94117 0.0
H1740 H 0.94511 0.5555 0.91353 0.0
H1741 H 0.89513 0.58224 0.86134 0.0
H1742 H 0.88022 0.61443 0.88875 0.0
H1743 H 0.93767 0.57241 0.84116 0.0
H1744 H 0.88498 0.52933 0.89608 0.0
H1745 H 0.87131 0.51535 0.93555 0.0
H1746 H 0.93993 0.47842 0.94568 0.0
H1747 H 0.95411 0.49245 0.90637 0.0
C1748 C 0.93507 0.4725 0.77853 0.0
C1749 C 0.95242 0.45325 0.78069 0.0
C1750 C 0.9319 0.49041 0.79622 0.0
C1751 C 0.94621 0.4897 0.81641 0.0
C1752 C 0.96332 0.47019 0.81889 0.0
C1753 C 0.96647 0.45213 0.80109 0.0
C1754 C 0.94294 0.50942 0.83473 0.0
C1755 C 0.9363 0.50268 0.85788 0.0
C1756 C 0.94392 0.53492 0.82881 0.0
C1757 C 0.95228 0.54328 0.80506 0.0
C1758 C 0.97465 0.53477 0.79548 0.0
C1759 C 0.98228 0.54241 0.77298 0.0
C1760 C 0.96776 0.55867 0.75993 0.0
C1761 C 0.94561 0.56738 0.76938 0.0
C1762 C 0.93788 0.55978 0.79186 0.0
C1763 C 0.92225 0.58659 0.92381 0.0
C1764 C 0.9039 0.60357 0.91719 0.0
C1765 C 0.93086 0.56821 0.90803 0.0
C1766 C 0.92107 0.5662 0.8854 0.0
C1767 C 0.90304 0.5834 0.87865 0.0
C1768 C 0.89456 0.60187 0.89433 0.0
C1769 C 0.92932 0.54619 0.86867 0.0
C1770 C 0.93697 0.5529 0.84578 0.0
C1771 C 0.92927 0.52069 0.87486 0.0
C1772 C 0.9207 0.51217 0.89842 0.0
C1773 C 0.89721 0.51838 0.9068 0.0
C1774 C 0.88936 0.51042 0.92913 0.0
C1775 C 0.90476 0.49607 0.94315 0.0
C1776 C 0.92803 0.48958 0.93483 0.0
C1777 C 0.93598 0.49751 0.91253 0.0
H1778 H 0.89865 0.48993 0.96042 0.0
H1779 H 0.97369 0.56455 0.74251 0.0
H1780 H 0.79666 0.76117 0.07468 0.0
H1781 H 0.76069 0.74836 0.09686 0.0
H1782 H 0.77872 0.67161 0.0814 0.0
H1783 H 0.81433 0.68429 0.05869 0.0
H1784 H 0.73343 0.68117 0.07174 0.0
H1785 H 0.78388 0.69741 0.13788 0.0
H1786 H 0.8107 0.72235 0.16225 0.0
H1787 H 0.7541 0.77747 0.17235 0.0
H1788 H 0.72702 0.75301 0.14778 0.0
H1789 H 0.64371 0.62777 0.14518 0.0
H1790 H 0.68272 0.64016 0.12841 0.0
H1791 H 0.66353 0.71708 0.14163 0.0
H1792 H 0.62454 0.70479 0.15855 0.0
H1793 H 0.70964 0.70739 0.1532 0.0
H1794 H 0.65985 0.69222 0.0864 0.0
H1795 H 0.63283 0.66794 0.06163 0.0
H1796 H 0.68832 0.61148 0.05239 0.0
H1797 H 0.71556 0.63528 0.07739 0.0
C1798 C 0.79317 0.74154 0.0763 0.0
C1799 C 0.8083 0.72375 0.06482 0.0
C1800 C 0.77262 0.73423 0.08906 0.0
C1801 C 0.76704 0.70899 0.09092 0.0
C1802 C 0.7826 0.69119 0.08014 0.0
C1803 C 0.80299 0.69848 0.0672 0.0
C1804 C 0.74419 0.70118 0.10267 0.0
C1805 C 0.72846 0.68656 0.08971 0.0
C1806 C 0.7373 0.70884 0.12585 0.0
C1807 C 0.75349 0.72347 0.14081 0.0
C1808 C 0.7772 0.71493 0.14516 0.0
C1809 C 0.79244 0.72897 0.15904 0.0
C1810 C 0.78413 0.75151 0.1688 0.0
C1811 C 0.76052 0.76002 0.16476 0.0
C1812 C 0.74521 0.74606 0.15089 0.0
C1813 C 0.64776 0.64733 0.14438 0.0
C1814 C 0.63102 0.66531 0.15307 0.0
C1815 C 0.67007 0.65438 0.13486 0.0
C1816 C 0.67593 0.67958 0.13353 0.0
C1817 C 0.65941 0.69754 0.14253 0.0
C1818 C 0.63715 0.69049 0.15219 0.0
C1819 C 0.69909 0.68722 0.12232 0.0
C1820 C 0.71476 0.70189 0.1353 0.0
C1821 C 0.70595 0.67967 0.09912 0.0
C1822 C 0.68965 0.66542 0.08395 0.0
C1823 C 0.66622 0.67454 0.07922 0.0
C1824 C 0.65088 0.66088 0.06512 0.0
C1825 C 0.65883 0.63815 0.05549 0.0
C1826 C 0.68217 0.62907 0.05989 0.0
C1827 C 0.69758 0.64265 0.074 0.0
H1828 H 0.64693 0.62761 0.04458 0.0
H1829 H 0.79596 0.76236 0.17952 0.0
H1830 H 0.61865 0.42899 0.38428 0.0
H1831 H 0.60447 0.46671 0.36485 0.0
H1832 H 0.54155 0.46983 0.41119 0.0
H1833 H 0.55529 0.43133 0.43037 0.0
H1834 H 0.52985 0.48146 0.36591 0.0
H1835 H 0.58702 0.50827 0.42105 0.0
H1836 H 0.62547 0.50822 0.44231 0.0
H1837 H 0.66407 0.52348 0.3775 0.0
H1838 H 0.62589 0.52325 0.35577 0.0
H1839 H 0.50709 0.60183 0.31494 0.0
H1840 H 0.51501 0.57113 0.34614 0.0
H1841 H 0.58118 0.54817 0.30976 0.0
H1842 H 0.57343 0.57872 0.27887 0.0
H1843 H 0.58688 0.55085 0.35762 0.0
H1844 H 0.52919 0.51668 0.30253 0.0
H1845 H 0.49028 0.51811 0.28199 0.0
H1846 H 0.45192 0.51861 0.3488 0.0
H1847 H 0.49065 0.51749 0.36973 0.0
C1848 C 0.60157 0.43738 0.39015 0.0
C1849 C 0.58811 0.42703 0.40891 0.0
C1850 C 0.59363 0.45917 0.37919 0.0
C1851 C 0.57215 0.47137 0.38682 0.0
C1852 C 0.55827 0.46084 0.40513 0.0
C1853 C 0.56623 0.43893 0.41616 0.0
C1854 C 0.56458 0.49517 0.37558 0.0
C1855 C 0.54211 0.49684 0.36453 0.0
C1856 C 0.58053 0.51531 0.37377 0.0
C1857 C 0.60358 0.51559 0.38675 0.0
C1858 C 0.60373 0.51144 0.41129 0.0
C1859 C 0.62547 0.51149 0.42343 0.0
C1860 C 0.6472 0.5158 0.41125 0.0
C1861 C 0.64722 0.52013 0.38691 0.0
C1862 C 0.62552 0.52008 0.37467 0.0
C1863 C 0.52351 0.5905 0.31391 0.0
C1864 C 0.53964 0.59256 0.29452 0.0
C1865 C 0.52795 0.5729 0.33163 0.0
C1866 C 0.5486 0.5572 0.33015 0.0
C1867 C 0.56517 0.56008 0.31129 0.0
C1868 C 0.56068 0.57749 0.29361 0.0
C1869 C 0.55262 0.53669 0.34724 0.0
C1870 C 0.57444 0.53566 0.35943 0.0
C1871 C 0.536 0.51729 0.35025 0.0
C1872 C 0.51278 0.51723 0.33767 0.0
C1873 C 0.51245 0.51719 0.31283 0.0
C1874 C 0.49043 0.51794 0.30112 0.0
C1875 C 0.46864 0.51851 0.31408 0.0
C1876 C 0.46882 0.5182 0.33878 0.0
C1877 C 0.49079 0.51748 0.35057 0.0
H1878 H 0.45162 0.51915 0.30499 0.0
H1879 H 0.66402 0.51583 0.42069 0.0
H1880 H 0.34824 0.36469 0.12478 0.0
H1881 H 0.37206 0.32874 0.13794 0.0
H1882 H 0.3092 0.30011 0.17399 0.0
H1883 H 0.28515 0.33628 0.16095 0.0
H1884 H 0.35426 0.29486 0.19987 0.0
H1885 H 0.32124 0.27568 0.12463 0.0
H1886 H 0.31138 0.28352 0.08296 0.0
H1887 H 0.38699 0.28768 0.06498 0.0
H1888 H 0.39729 0.28026 0.10664 0.0
H1889 H 0.42032 0.17916 0.21176 0.0
H1890 H 0.38718 0.20887 0.20357 0.0
H1891 H 0.43261 0.24479 0.15155 0.0
H1892 H 0.46502 0.2147 0.15894 0.0
H1893 H 0.38965 0.24218 0.13532 0.0
H1894 H 0.42242 0.26663 0.21113 0.0
H1895 H 0.43294 0.25789 0.25252 0.0
H1896 H 0.35856 0.24343 0.26936 0.0
H1897 H 0.34765 0.25171 0.22799 0.0
C1898 C 0.33956 0.35102 0.13588 0.0
C1899 C 0.31478 0.35329 0.14173 0.0
C1900 C 0.35316 0.33042 0.14329 0.0
C1901 C 0.34233 0.31169 0.15678 0.0
C1902 C 0.31787 0.31436 0.16358 0.0
C1903 C 0.30415 0.33492 0.15597 0.0
C1904 C 0.35637 0.28868 0.16225 0.0
C1905 C 0.36172 0.28308 0.18583 0.0
C1906 C 0.36612 0.27337 0.14392 0.0
C1907 C 0.36002 0.2776 0.1188 0.0
C1908 C 0.33576 0.27845 0.11183 0.0
C1909 C 0.33009 0.28279 0.08821 0.0
C1910 C 0.34855 0.28614 0.07135 0.0
C1911 C 0.37271 0.2851 0.07807 0.0
C1912 C 0.37847 0.2808 0.10168 0.0
C1913 C 0.42303 0.19328 0.19846 0.0
C1914 C 0.44521 0.1947 0.18604 0.0
C1915 C 0.40417 0.21035 0.19387 0.0
C1916 C 0.40747 0.22937 0.17716 0.0
C1917 C 0.42952 0.23033 0.16448 0.0
C1918 C 0.44811 0.21314 0.16879 0.0
C1919 C 0.38849 0.24882 0.17291 0.0
C1920 C 0.38204 0.25373 0.14947 0.0
C1921 C 0.37789 0.26349 0.19139 0.0
C1922 C 0.38426 0.25959 0.21645 0.0
C1923 C 0.40832 0.26155 0.22367 0.0
C1924 C 0.41435 0.25663 0.24711 0.0
C1925 C 0.39643 0.25001 0.26355 0.0
C1926 C 0.37242 0.24848 0.2566 0.0
C1927 C 0.36629 0.25331 0.23317 0.0
H1928 H 0.40113 0.2461 0.28166 0.0
H1929 H 0.34413 0.2895 0.05306 0.0
H1930 H 0.90463 0.33898 0.73649 0.0
H1931 H 0.88082 0.30215 0.74525 0.0
H1932 H 0.92184 0.28919 0.80818 0.0
H1933 H 0.94555 0.32574 0.79977 0.0
H1934 H 0.91947 0.24756 0.7801 0.0
H1935 H 0.86508 0.31111 0.81258 0.0
H1936 H 0.83974 0.34931 0.81093 0.0
H1937 H 0.79735 0.31713 0.75658 0.0
H1938 H 0.82266 0.27883 0.7577 0.0
H1939 H 0.85598 0.16148 0.84845 0.0
H1940 H 0.8752 0.19838 0.83276 0.0
H1941 H 0.82529 0.20052 0.77523 0.0
H1942 H 0.80604 0.16317 0.79068 0.0
H1943 H 0.83075 0.24654 0.79478 0.0
H1944 H 0.88235 0.18178 0.76443 0.0
H1945 H 0.90743 0.1434 0.76549 0.0
H1946 H 0.95515 0.17747 0.81416 0.0
H1947 H 0.93014 0.21597 0.81367 0.0
C1948 C 0.90838 0.32848 0.75237 0.0
C1949 C 0.9271 0.33535 0.76737 0.0
C1950 C 0.89475 0.30743 0.75733 0.0
C1951 C 0.89963 0.29289 0.77733 0.0
C1952 C 0.91787 0.30006 0.79258 0.0
C1953 C 0.93136 0.32108 0.78775 0.0
C1954 C 0.88654 0.26964 0.78214 0.0
C1955 C 0.9001 0.24736 0.78349 0.0
C1956 C 0.86116 0.26925 0.78568 0.0
C1957 C 0.84594 0.29224 0.78502 0.0
C1958 C 0.85049 0.31227 0.80012 0.0
C1959 C 0.83611 0.33392 0.79932 0.0
C1960 C 0.817 0.33568 0.78361 0.0
C1961 C 0.81219 0.31576 0.76871 0.0
C1962 C 0.82654 0.29407 0.76943 0.0
C1963 C 0.84929 0.16948 0.83223 0.0
C1964 C 0.82959 0.15914 0.82071 0.0
C1965 C 0.86025 0.19069 0.82334 0.0
C1966 C 0.85187 0.20206 0.80267 0.0
C1967 C 0.83206 0.19203 0.7912 0.0
C1968 C 0.82106 0.17071 0.80009 0.0
C1969 C 0.86381 0.22458 0.7934 0.0
C1970 C 0.85008 0.24667 0.79112 0.0
C1971 C 0.88906 0.22481 0.78883 0.0
C1972 C 0.90424 0.20172 0.78914 0.0
C1973 C 0.89808 0.18104 0.7755 0.0
C1974 C 0.91231 0.15927 0.77598 0.0
C1975 C 0.93284 0.15798 0.78992 0.0
C1976 C 0.93922 0.17849 0.80338 0.0
C1977 C 0.92504 0.2003 0.80299 0.0
H1978 H 0.94384 0.14111 0.79026 0.0
H1979 H 0.80588 0.35245 0.78302 0.0
H1980 H 0.07107 0.589 0.11854 0.0
H1981 H 0.03273 0.60854 0.10687 0.0
H1982 H 0.07115 0.65548 0.05792 0.0
H1983 H 0.10958 0.63614 0.06964 0.0
H1984 H 0.0379 0.68154 0.08558 0.0
H1985 H 0.0408 0.60833 0.03719 0.0
H1986 H 0.04462 0.56341 0.02905 0.0
H1987 H 0.98163 0.55054 0.07258 0.0
H1988 H 0.97765 0.59535 0.08128 0.0
H1989 H 0.92367 0.69809 0.01221 0.0
H1990 H 0.95976 0.67323 0.02193 0.0
H1991 H 0.95131 0.69512 0.09507 0.0
H1992 H 0.91525 0.72002 0.08548 0.0
H1993 H 0.97001 0.63443 0.05311 0.0
H1994 H 0.00776 0.70919 0.11424 0.0
H1995 H 1.00449 0.75451 0.12039 0.0
H1996 H 0.98794 0.76482 0.04719 0.0
H1997 H 0.99146 0.71962 0.04055 0.0
C1998 C 0.07133 0.60353 0.10533 0.0
C1999 C 0.09331 0.61108 0.09501 0.0
C2000 C 0.04942 0.61453 0.09857 0.0
C2001 C 0.0491 0.63334 0.08144 0.0
C2002 C 0.07101 0.64095 0.07113 0.0
C2003 C 0.09291 0.6298 0.07774 0.0
C2004 C 0.02597 0.64558 0.07473 0.0
C2005 C 0.02307 0.67122 0.07851 0.0
C2006 C 0.00671 0.63214 0.06529 0.0
C2007 C 0.00907 0.60518 0.06007 0.0
C2008 C 0.02789 0.5959 0.0452 0.0
C2009 C 0.03006 0.57046 0.04045 0.0
C2010 C 0.01341 0.55413 0.05033 0.0
C2011 C 0.99453 0.56321 0.06496 0.0
C2012 C 0.9923 0.58863 0.06979 0.0
C2013 C 0.92933 0.69731 0.03042 0.0
C2014 C 0.91685 0.71119 0.04806 0.0
C2015 C 0.94987 0.68305 0.03595 0.0
C2016 C 0.95836 0.68262 0.05915 0.0
C2017 C 0.94519 0.69545 0.077 0.0
C2018 C 0.92459 0.70961 0.07151 0.0
C2019 C 0.98187 0.67026 0.06436 0.0
C2020 C 0.98484 0.64467 0.06029 0.0
C2021 C 1.00133 0.68376 0.07331 0.0
C2022 C 0.99963 0.71101 0.07698 0.0
C2023 C 1.00353 0.72115 0.09945 0.0
C2024 C 1.00161 0.74681 0.10302 0.0
C2025 C 0.99593 0.76253 0.08421 0.0
C2026 C 0.99225 0.75263 0.06176 0.0
C2027 C 0.99418 0.72699 0.0581 0.0
H2028 H 0.99443 0.78239 0.08702 0.0
H2029 H 0.01508 0.53446 0.04661 0.0
H2030 H 0.64215 0.86438 0.36113 0.0
H2031 H 0.61652 0.83129 0.3472 0.0
H2032 H 0.66685 0.81627 0.28938 0.0
H2033 H 0.69263 0.84943 0.30324 0.0
H2034 H 0.62038 0.81399 0.27509 0.0
H2035 H 0.66736 0.77998 0.33803 0.0
H2036 H 0.684 0.7785 0.37811 0.0
H2037 H 0.6122 0.7754 0.40815 0.0
H2038 H 0.59509 0.77723 0.36825 0.0
H2039 H 0.57334 0.69543 0.24772 0.0
H2040 H 0.59992 0.7291 0.25834 0.0
H2041 H 0.5548 0.74551 0.31979 0.0
H2042 H 0.52855 0.71151 0.30969 0.0
H2043 H 0.60038 0.7464 0.33116 0.0
H2044 H 0.55334 0.78144 0.26802 0.0
H2045 H 0.53689 0.78233 0.22784 0.0
H2046 H 0.60892 0.78296 0.19803 0.0
H2047 H 0.6258 0.78175 0.23805 0.0
C2048 C 0.64778 0.85404 0.34545 0.0
C2049 C 0.66955 0.85939 0.33343 0.0
C2050 C 0.6331 0.83515 0.33749 0.0
C2051 C 0.63997 0.82102 0.31747 0.0
C2052 C 0.66122 0.8269 0.30489 0.0
C2053 C 0.6759 0.84589 0.31281 0.0
C2054 C 0.62536 0.79962 0.3102 0.0
C2055 C 0.61624 0.79904 0.28724 0.0
C2056 C 0.61969 0.78027 0.32615 0.0
C2057 C 0.62994 0.77896 0.35016 0.0
C2058 C 0.65511 0.77916 0.35319 0.0
C2059 C 0.66463 0.77824 0.37588 0.0
C2060 C 0.64917 0.77692 0.39567 0.0
C2061 C 0.62415 0.77645 0.39281 0.0
C2062 C 0.61453 0.77741 0.37016 0.0
C2063 C 0.56903 0.70622 0.26348 0.0
C2064 C 0.54875 0.70077 0.27782 0.0
C2065 C 0.58422 0.72556 0.26948 0.0
C2066 C 0.5792 0.74011 0.28971 0.0
C2067 C 0.55906 0.73458 0.3041 0.0
C2068 C 0.54403 0.71511 0.29826 0.0
C2069 C 0.59501 0.76092 0.29616 0.0
C2070 C 0.60447 0.76133 0.31898 0.0
C2071 C 0.60097 0.78007 0.28007 0.0
C2072 C 0.59083 0.78128 0.25602 0.0
C2073 C 0.56567 0.78164 0.25289 0.0
C2074 C 0.55627 0.78221 0.23015 0.0
C2075 C 0.57185 0.78263 0.21039 0.0
C2076 C 0.59687 0.7826 0.21335 0.0
C2077 C 0.60636 0.782 0.23605 0.0
H2078 H 0.56454 0.78304 0.1928 0.0
H2079 H 0.65657 0.77621 0.41321 0.0
H2080 H 0.60485 0.35233 0.53162 0.0
H2081 H 0.57599 0.38761 0.53716 0.0
H2082 H 0.5166 0.33827 0.52794 0.0
H2083 H 0.54493 0.30342 0.52275 0.0
H2084 H 0.51054 0.3829 0.5037 0.0
H2085 H 0.5333 0.35283 0.58206 0.0
H2086 H 0.56279 0.3441 0.61325 0.0
H2087 H 0.58283 0.42063 0.61332 0.0
H2088 H 0.55363 0.42972 0.5819 0.0
H2089 H 0.40303 0.41594 0.56359 0.0
H2090 H 0.441 0.39807 0.54785 0.0
H2091 H 0.47867 0.4631 0.56989 0.0
H2092 H 0.44064 0.48096 0.58614 0.0
H2093 H 0.50204 0.42095 0.58344 0.0
H2094 H 0.47194 0.45265 0.51183 0.0
H2095 H 0.44212 0.46152 0.48102 0.0
H2096 H 0.43627 0.38351 0.46734 0.0
H2097 H 0.46577 0.37411 0.49833 0.0
C2098 C 0.58563 0.34918 0.53067 0.0
C2099 C 0.5771 0.32512 0.52705 0.0
C2100 C 0.5692 0.36927 0.53381 0.0
C2101 C 0.54413 0.36552 0.53301 0.0
C2102 C 0.53581 0.34163 0.52855 0.0
C2103 C 0.55207 0.32168 0.52575 0.0
C2104 C 0.52604 0.38572 0.53814 0.0
C2105 C 0.5087 0.39135 0.52108 0.0
C2106 C 0.52411 0.39735 0.56055 0.0
C2107 C 0.54156 0.39188 0.57944 0.0
C2108 C 0.54415 0.36774 0.5886 0.0
C2109 C 0.56078 0.36274 0.60634 0.0
C2110 C 0.57474 0.38178 0.6152 0.0
C2111 C 0.57205 0.40588 0.60639 0.0
C2112 C 0.55547 0.41097 0.58863 0.0
C2113 C 0.41936 0.42651 0.565 0.0
C2114 C 0.41881 0.44982 0.57622 0.0
C2115 C 0.44104 0.41638 0.55579 0.0
C2116 C 0.4627 0.42933 0.55749 0.0
C2117 C 0.46218 0.45282 0.56829 0.0
C2118 C 0.44041 0.46306 0.57742 0.0
C2119 C 0.4859 0.41735 0.54929 0.0
C2120 C 0.50418 0.41321 0.56578 0.0
C2121 C 0.48875 0.40718 0.52628 0.0
C2122 C 0.47102 0.41267 0.50752 0.0
C2123 C 0.46418 0.43736 0.50237 0.0
C2124 C 0.44735 0.44249 0.48485 0.0
C2125 C 0.43729 0.42309 0.47225 0.0
C2126 C 0.44409 0.39852 0.47712 0.0
C2127 C 0.4609 0.39328 0.49464 0.0
H2128 H 0.42426 0.4271 0.45869 0.0
H2129 H 0.5876 0.37787 0.62894 0.0
H2130 H 0.14433 0.65779 0.68086 0.0
H2131 H 0.124 0.69663 0.69311 0.0
H2132 H 0.16416 0.73628 0.63971 0.0
H2133 H 0.18471 0.69732 0.62728 0.0
H2134 H 0.15807 0.76088 0.68795 0.0
H2135 H 0.11266 0.72406 0.62486 0.0
H2136 H 0.09243 0.68937 0.60555 0.0
H2137 H 0.04493 0.68203 0.66603 0.0
H2138 H 0.06513 0.71645 0.68585 0.0
H2139 H 0.07267 0.86649 0.68883 0.0
H2140 H 0.10364 0.83387 0.68018 0.0
H2141 H 0.05903 0.78012 0.7156 0.0
H2142 H 0.0282 0.81217 0.72355 0.0
H2143 H 0.06998 0.76467 0.67323 0.0
H2144 H 0.11389 0.79704 0.73796 0.0
H2145 H 0.13464 0.82803 0.76179 0.0
H2146 H 0.18389 0.84162 0.70379 0.0
H2147 H 0.16338 0.81064 0.67958 0.0
C2148 C 0.14916 0.67481 0.67196 0.0
C2149 C 0.16607 0.67447 0.65304 0.0
C2150 C 0.1375 0.69698 0.67896 0.0
C2151 C 0.14259 0.71929 0.66731 0.0
C2152 C 0.16008 0.71925 0.64898 0.0
C2153 C 0.1716 0.69698 0.64177 0.0
C2154 C 0.12804 0.74204 0.67307 0.0
C2155 C 0.13888 0.76201 0.68441 0.0
C2156 C 0.10293 0.74314 0.66897 0.0
C2157 C 0.09053 0.7227 0.6569 0.0
C2158 C 0.09802 0.71493 0.63411 0.0
C2159 C 0.08654 0.69533 0.62306 0.0
C2160 C 0.06744 0.68347 0.63458 0.0
C2161 C 0.05973 0.69122 0.65714 0.0
C2162 C 0.07117 0.71079 0.66827 0.0
C2163 C 0.06987 0.8478 0.69517 0.0
C2164 C 0.04798 0.84169 0.70653 0.0
C2165 C 0.08752 0.82918 0.69026 0.0
C2166 C 0.08355 0.80442 0.69701 0.0
C2167 C 0.06241 0.79894 0.7099 0.0
C2168 C 0.0448 0.8173 0.71448 0.0
C2169 C 0.09976 0.78358 0.68872 0.0
C2170 C 0.08921 0.76388 0.67668 0.0
C2171 C 0.12496 0.78263 0.69266 0.0
C2172 C 0.1369 0.80178 0.70686 0.0
C2173 C 0.12896 0.80685 0.73019 0.0
C2174 C 0.14074 0.82435 0.7438 0.0
C2175 C 0.16049 0.83691 0.73427 0.0
C2176 C 0.16854 0.83193 0.71113 0.0
C2177 C 0.15689 0.81436 0.69747 0.0
H2178 H 0.16963 0.85041 0.74486 0.0
H2179 H 0.05858 0.66829 0.626 0.0
H2180 H 0.44735 0.81053 0.97985 0.0
H2181 H 0.47638 0.84184 0.96785 0.0
H2182 H 0.42206 0.87815 0.92566 0.0
H2183 H 0.39256 0.84691 0.93819 0.0
H2184 H 0.46645 0.86622 0.90086 0.0
H2185 H 0.44028 0.91045 0.96974 0.0
H2186 H 0.42884 0.9171 0.01162 0.0
H2187 H 0.49979 0.89281 0.0323 0.0
H2188 H 0.51171 0.88614 0.99043 0.0
H2189 H 0.54961 0.96014 0.86841 0.0
H2190 H 0.51383 0.93895 0.88325 0.0
H2191 H 0.55713 0.90067 0.93482 0.0
H2192 H 0.59314 0.92162 0.91991 0.0
H2193 H 0.51462 0.91777 0.95432 0.0
H2194 H 0.53961 0.87146 0.88468 0.0
H2195 H 0.55063 0.86595 0.8425 0.0
H2196 H 0.48066 0.89427 0.82301 0.0
H2197 H 0.46933 0.90027 0.8651 0.0
C2198 C 0.44144 0.82548 0.96838 0.0
C2199 C 0.41775 0.82632 0.95991 0.0
C2200 C 0.45803 0.84339 0.96159 0.0
C2201 C 0.45141 0.86235 0.94587 0.0
C2202 C 0.42752 0.86369 0.93785 0.0
C2203 C 0.41067 0.84597 0.94509 0.0
C2204 C 0.47023 0.87925 0.93654 0.0
C2205 C 0.47663 0.87796 0.91243 0.0
C2206 C 0.4839 0.89406 0.95173 0.0
C2207 C 0.47681 0.8976 0.97697 0.0
C2208 C 0.45338 0.90632 0.98323 0.0
C2209 C 0.44684 0.91016 1.00697 0.0
C2210 C 0.46353 0.90524 0.02464 0.0
C2211 C 0.48686 0.89658 0.01859 0.0
C2212 C 0.49356 0.89287 0.99484 0.0
C2213 C 0.55164 0.94699 0.88273 0.0
C2214 C 0.5744 0.94244 0.89278 0.0
C2215 C 0.53109 0.93496 0.89127 0.0
C2216 C 0.53277 0.91799 0.91001 0.0
C2217 C 0.55535 0.91371 0.92037 0.0
C2218 C 0.57594 0.92574 0.91183 0.0
C2219 C 0.51108 0.90452 0.91864 0.0
C2220 C 0.50424 0.90633 0.94265 0.0
C2221 C 0.49697 0.89022 0.90332 0.0
C2222 C 0.50373 0.88658 0.87802 0.0
C2223 C 0.52665 0.87671 0.87139 0.0
C2224 C 0.53294 0.87346 0.8475 0.0
C2225 C 0.51638 0.87983 0.83008 0.0
C2226 C 0.49348 0.8894 0.83652 0.0
C2227 C 0.48711 0.89271 0.86039 0.0
H2228 H 0.52128 0.8773 0.8116 0.0
H2229 H 0.45842 0.90822 0.04302 0.0
H2230 H 0.90399 0.08112 0.41617 0.0
H2231 H 0.94202 0.0994 0.42807 0.0
H2232 H 0.92345 0.16648 0.39039 0.0
H2233 H 0.88583 0.14814 0.37792 0.0
H2234 H 0.97019 0.15191 0.38197 0.0
H2235 H 0.91653 0.16261 0.45059 0.0
H2236 H 0.88957 0.14753 0.48248 0.0
H2237 H 0.94742 0.10167 0.509 0.0
H2238 H 0.97463 0.11626 0.47707 0.0
H2239 H 0.04534 0.24242 0.42628 0.0
H2240 H 0.0116 0.21703 0.4152 0.0
H2241 H 0.03525 0.15983 0.46337 0.0
H2242 H 0.06865 0.18586 0.47542 0.0
H2243 H 0.98882 0.16409 0.46654 0.0
H2244 H 0.04372 0.15504 0.40101 0.0
H2245 H 0.07145 0.16858 0.36911 0.0
H2246 H 0.01306 0.20842 0.33627 0.0
H2247 H 0.98503 0.1954 0.36815 0.0
C2248 C 0.90811 0.09969 0.41026 0.0
C2249 C 0.89179 0.11322 0.39619 0.0
C2250 C 0.92976 0.11018 0.41724 0.0
C2251 C 0.93548 0.1344 0.41031 0.0
C2252 C 0.91939 0.14778 0.396 0.0
C2253 C 0.89777 0.13735 0.38907 0.0
C2254 C 0.95814 0.14604 0.4179 0.0
C2255 C 0.97421 0.15476 0.40045 0.0
C2256 C 0.96383 0.14889 0.44201 0.0
C2257 C 0.94752 0.14033 0.46131 0.0
C2258 C 0.92344 0.14918 0.46313 0.0
C2259 C 0.90813 0.14075 0.48122 0.0
C2260 C 0.91676 0.1236 0.49772 0.0
C2261 C 0.94074 0.11492 0.4962 0.0
C2262 C 0.95612 0.12328 0.47812 0.0
C2263 C 0.0435 0.22438 0.43445 0.0
C2264 C 0.05984 0.21606 0.45156 0.0
C2265 C 0.02421 0.20978 0.42799 0.0
C2266 C 0.02114 0.18616 0.43795 0.0
C2267 C 0.03729 0.17789 0.45528 0.0
C2268 C 0.05641 0.19275 0.46212 0.0
C2269 C 1.0007 0.17058 0.43057 0.0
C2270 C 0.98506 0.16104 0.44803 0.0
C2271 C 0.99554 0.16667 0.40643 0.0
C2272 C 0.0123 0.17436 0.38707 0.0
C2273 C 0.03682 0.1668 0.38706 0.0
C2274 C 0.05259 0.17438 0.36897 0.0
C2275 C 0.04403 0.18938 0.3507 0.0
C2276 C 0.01966 0.19679 0.35044 0.0
C2277 C 1.00382 0.18929 0.3685 0.0
H2278 H 0.05627 0.19524 0.33672 0.0
H2279 H 0.90487 0.11708 0.51171 0.0
loop_
_geom_bond_atom_site_label_1
_geom_bond_atom_site_label_2
_geom_bond_distance
_geom_bond_site_symmetry_2
_ccdc_geom_bond_type
Pr0 C2 2.880 . S
Pr0 O20 2.562 . S
Pr0 O21 2.490 . S
Pr0 O22 2.695 . S
Pr0 O23 2.512 . S
Pr0 O25 2.437 . S
Pr0 O28 2.436 . S
Pr0 O30 2.438 . S
Pr1 C11 2.880 . S
Pr1 O22 2.436 . S
Pr1 O24 2.438 . S
Pr1 O26 2.562 . S
Pr1 O27 2.490 . S
Pr1 O28 2.695 . S
Pr1 O29 2.512 . S
Pr1 O31 2.437 . S
C2 Pr0 2.880 . S
C2 C3 1.491 . S
C2 O20 1.254 . S
C2 O21 1.225 . S
C3 C2 1.491 . S
C3 C4 1.392 . S
C3 C8 1.356 . S
C4 C3 1.392 . S
C4 C5 1.368 . S
C4 H32 0.929 . S
C5 C4 1.368 . S
C5 C6 1.386 . S
C5 H33 0.929 . S
C6 C5 1.386 . S
C6 C7 1.373 . S
C7 C6 1.373 . S
C7 C8 1.409 . S
C7 H34 0.931 . S
C8 C3 1.356 . S
C8 C7 1.409 . S
C8 H35 0.930 . S
C9 O22 1.270 . S
C9 O23 1.248 . S
C10 O24 1.267 . S
C10 O25 1.278 . S
C11 Pr1 2.880 . S
C11 C12 1.491 . S
C11 O26 1.254 . S
C11 O27 1.225 . S
C12 C11 1.491 . S
C12 C13 1.392 . S
C12 C17 1.356 . S
C13 C12 1.392 . S
C13 C14 1.368 . S
C13 H36 0.929 . S
C14 C13 1.368 . S
C14 C15 1.386 . S
C14 H37 0.929 . S
C15 C14 1.386 . S
C15 C16 1.373 . S
C16 C15 1.373 . S
C16 C17 1.409 . S
C16 H38 0.931 . S
C17 C12 1.356 . S
C17 C16 1.409 . S
C17 H39 0.930 . S
C18 O28 1.270 . S
C18 O29 1.248 . S
C19 O30 1.267 . S
C19 O31 1.278 . S
O20 Pr0 2.562 . S
O20 C2 1.254 . S
O21 Pr0 2.490 . S
O21 C2 1.225 . S
O22 Pr0 2.695 . S
O22 Pr1 2.436 . S
O22 C9 1.270 . S
O23 Pr0 2.512 . S
O23 C9 1.248 . S
O24 Pr1 2.438 . S
O24 C10 1.267 . S
O25 Pr0 2.437 . S
O25 C10 1.278 . S
O26 Pr1 2.562 . S
O26 C11 1.254 . S
O27 Pr1 2.490 . S
O27 C11 1.225 . S
O28 Pr0 2.436 . S
O28 Pr1 2.695 . S
O28 C18 1.270 . S
O29 Pr1 2.512 . S
O29 C18 1.248 . S
O30 Pr0 2.438 . S
O30 C19 1.267 . S
O31 Pr1 2.437 . S
O31 C19 1.278 . S
H32 C4 0.929 . S
H33 C5 0.929 . S
H34 C7 0.931 . S
H35 C8 0.930 . S
H36 C13 0.929 . S
H37 C14 0.929 . S
H38 C16 0.931 . S
H39 C17 0.930 . S
Pr40 C42 2.880 . S
Pr40 O60 2.562 . S
Pr40 O61 2.490 . S
Pr40 O62 2.695 1_655 S
Pr40 O63 2.512 1_655 S
Pr40 O65 2.437 1_655 S
Pr40 O68 2.436 . S
Pr40 O70 2.438 . S
Pr41 C51 2.880 . S
Pr41 O62 2.436 . S
Pr41 O64 2.438 . S
Pr41 O66 2.562 . S
Pr41 O67 2.490 . S
Pr41 O68 2.695 1_455 S
Pr41 O69 2.516 . S
Pr41 O71 2.437 . S
C42 Pr40 2.880 . S
C42 C43 1.491 . S
C42 O60 1.254 . S
C42 O61 1.225 . S
C43 C42 1.491 . S
C43 C44 1.392 . S
C43 C48 1.356 . S
C44 C43 1.392 . S
C44 C45 1.368 . S
C44 H72 0.929 . S
C45 C44 1.368 . S
C45 C46 1.386 . S
C45 H73 0.929 . S
C46 C45 1.386 . S
C46 C47 1.373 . S
C47 C46 1.373 . S
C47 C48 1.409 . S
C47 H74 0.931 . S
C48 C43 1.356 . S
C48 C47 1.409 . S
C48 H75 0.930 . S
C49 O62 1.270 . S
C49 O63 1.248 . S
C50 O64 1.267 . S
C50 O65 1.278 . S
C51 Pr41 2.880 . S
C51 C52 1.491 . S
C51 O66 1.254 . S
C51 O67 1.225 . S
C52 C51 1.491 . S
C52 C53 1.392 . S
C52 C57 1.356 . S
C53 C52 1.392 . S
C53 C54 1.368 . S
C53 H76 0.929 . S
C54 C53 1.368 . S
C54 C55 1.386 . S
C54 H77 0.929 . S
C55 C54 1.386 . S
C55 C56 1.373 . S
C56 C55 1.373 . S
C56 C57 1.409 . S
C56 H78 0.931 . S
C57 C52 1.356 . S
C57 C56 1.409 . S
C57 H79 0.930 . S
C58 O68 1.270 . S
C58 O69 1.245 1_655 S
C59 O70 1.267 . S
C59 O71 1.278 1_655 S
O60 Pr40 2.562 . S
O60 C42 1.254 . S
O61 Pr40 2.490 . S
O61 C42 1.225 . S
O62 Pr40 2.695 1_455 S
O62 Pr41 2.436 . S
O62 C49 1.270 . S
O63 Pr40 2.512 1_455 S
O63 C49 1.248 . S
O64 Pr41 2.438 . S
O64 C50 1.267 . S
O65 Pr40 2.437 1_455 S
O65 C50 1.278 . S
O66 Pr41 2.562 . S
O66 C51 1.254 . S
O67 Pr41 2.490 . S
O67 C51 1.225 . S
O68 Pr40 2.436 . S
O68 Pr41 2.695 1_655 S
O68 C58 1.270 . S
O69 Pr41 2.516 . S
O69 C58 1.245 1_455 S
O70 Pr40 2.438 . S
O70 C59 1.267 . S
O71 Pr41 2.437 . S
O71 C59 1.278 1_455 S
H72 C44 0.929 . S
H73 C45 0.929 . S
H74 C47 0.931 . S
H75 C48 0.930 . S
H76 C53 0.929 . S
H77 C54 0.929 . S
H78 C56 0.931 . S
H79 C57 0.930 . S
Pr80 C82 2.880 . S
Pr80 O100 2.562 . S
Pr80 O101 2.490 . S
Pr80 O102 2.695 . S
Pr80 O103 2.512 . S
Pr80 O105 2.437 . S
Pr80 O108 2.436 . S
Pr80 O110 2.438 . S
Pr81 C91 2.880 1_556 S
Pr81 O102 2.436 . S
Pr81 O104 2.438 . S
Pr81 O106 2.562 1_556 S
Pr81 O107 2.490 1_556 S
Pr81 O108 2.695 . S
Pr81 O109 2.512 1_556 S
Pr81 O111 2.437 1_556 S
C82 Pr80 2.880 . S
C82 C83 1.491 . S
C82 O100 1.254 . S
C82 O101 1.225 . S
C83 C82 1.491 . S
C83 C84 1.392 . S
C83 C88 1.356 . S
C84 C83 1.392 . S
C84 C85 1.368 . S
C84 H112 0.929 . S
C85 C84 1.368 . S
C85 C86 1.386 . S
C85 H113 0.929 . S
C86 C85 1.386 . S
C86 C87 1.373 . S
C87 C86 1.373 . S
C87 C88 1.409 . S
C87 H114 0.931 . S
C88 C83 1.356 . S
C88 C87 1.409 . S
C88 H115 0.930 . S
C89 O102 1.270 . S
C89 O103 1.248 . S
C90 O104 1.267 . S
C90 O105 1.278 . S
C91 Pr81 2.880 1_554 S
C91 C92 1.491 . S
C91 O106 1.254 . S
C91 O107 1.225 . S
C92 C91 1.491 . S
C92 C93 1.392 . S
C92 C97 1.356 . S
C93 C92 1.392 . S
C93 C94 1.368 . S
C93 H116 0.929 . S
C94 C93 1.368 . S
C94 C95 1.386 . S
C94 H117 0.929 . S
C95 C94 1.386 . S
C95 C96 1.373 . S
C96 C95 1.373 . S
C96 C97 1.409 . S
C96 H118 0.931 . S
C97 C92 1.356 . S
C97 C96 1.409 . S
C97 H119 0.930 . S
C98 O108 1.270 1_554 S
C98 O109 1.248 . S
C99 O110 1.267 1_554 S
C99 O111 1.278 . S
O100 Pr80 2.562 . S
O100 C82 1.254 . S
O101 Pr80 2.490 . S
O101 C82 1.225 . S
O102 Pr80 2.695 . S
O102 Pr81 2.436 . S
O102 C89 1.270 . S
O103 Pr80 2.512 . S
O103 C89 1.248 . S
O104 Pr81 2.438 . S
O104 C90 1.267 . S
O105 Pr80 2.437 . S
O105 C90 1.278 . S
O106 Pr81 2.562 1_554 S
O106 C91 1.254 . S
O107 Pr81 2.490 1_554 S
O107 C91 1.225 . S
O108 Pr80 2.436 . S
O108 Pr81 2.695 . S
O108 C98 1.270 1_556 S
O109 Pr81 2.512 1_554 S
O109 C98 1.248 . S
O110 Pr80 2.438 . S
O110 C99 1.267 1_556 S
O111 Pr81 2.437 1_554 S
O111 C99 1.278 . S
H112 C84 0.929 . S
H113 C85 0.929 . S
H114 C87 0.931 . S
H115 C88 0.930 . S
H116 C93 0.929 . S
H117 C94 0.929 . S
H118 C96 0.931 . S
H119 C97 0.930 . S
Pr120 C122 2.880 . S
Pr120 O140 2.562 . S
Pr120 O141 2.490 . S
Pr120 O142 2.695 . S
Pr120 O143 2.512 . S
Pr120 O145 2.437 . S
Pr120 O148 2.436 . S
Pr120 O150 2.438 . S
Pr121 C131 2.880 . S
Pr121 O142 2.436 . S
Pr121 O144 2.438 . S
Pr121 O146 2.562 . S
Pr121 O147 2.490 . S
Pr121 O148 2.695 . S
Pr121 O149 2.512 . S
Pr121 O151 2.437 . S
C122 Pr120 2.880 . S
C122 C123 1.491 . S
C122 O140 1.254 . S
C122 O141 1.225 . S
C123 C122 1.491 . S
C123 C124 1.392 . S
C123 C128 1.356 . S
C124 C123 1.392 . S
C124 C125 1.368 . S
C124 H152 0.929 . S
C125 C124 1.368 . S
C125 C126 1.386 . S
C125 H153 0.929 . S
C126 C125 1.386 . S
C126 C127 1.373 . S
C127 C126 1.373 . S
C127 C128 1.409 . S
C127 H154 0.931 . S
C128 C123 1.356 . S
C128 C127 1.409 . S
C128 H155 0.930 . S
C129 O142 1.270 . S
C129 O143 1.248 . S
C130 O144 1.267 . S
C130 O145 1.278 . S
C131 Pr121 2.880 . S
C131 C132 1.491 . S
C131 O146 1.254 . S
C131 O147 1.225 . S
C132 C131 1.491 . S
C132 C133 1.392 . S
C132 C137 1.356 . S
C133 C132 1.392 . S
C133 C134 1.368 . S
C133 H156 0.929 . S
C134 C133 1.368 . S
C134 C135 1.386 . S
C134 H157 0.929 . S
C135 C134 1.386 . S
C135 C136 1.373 . S
C136 C135 1.373 . S
C136 C137 1.409 . S
C136 H158 0.931 . S
C137 C132 1.356 . S
C137 C136 1.409 . S
C137 H159 0.930 . S
C138 O148 1.270 . S
C138 O149 1.248 . S
C139 O150 1.267 . S
C139 O151 1.278 . S
O140 Pr120 2.562 . S
O140 C122 1.254 . S
O141 Pr120 2.490 . S
O141 C122 1.225 . S
O142 Pr120 2.695 . S
O142 Pr121 2.436 . S
O142 C129 1.270 . S
O143 Pr120 2.512 . S
O143 C129 1.248 . S
O144 Pr121 2.438 . S
O144 C130 1.267 . S
O145 Pr120 2.437 . S
O145 C130 1.278 . S
O146 Pr121 2.562 . S
O146 C131 1.254 . S
O147 Pr121 2.490 . S
O147 C131 1.225 . S
O148 Pr120 2.436 . S
O148 Pr121 2.695 . S
O148 C138 1.270 . S
O149 Pr121 2.512 . S
O149 C138 1.248 . S
O150 Pr120 2.438 . S
O150 C139 1.267 . S
O151 Pr121 2.437 . S
O151 C139 1.278 . S
H152 C124 0.929 . S
H153 C125 0.929 . S
H154 C127 0.931 . S
H155 C128 0.930 . S
H156 C133 0.929 . S
H157 C134 0.929 . S
H158 C136 0.931 . S
H159 C137 0.930 . S
Pr160 C162 2.880 . S
Pr160 O180 2.562 . S
Pr160 O181 2.490 . S
Pr160 O182 2.695 . S
Pr160 O183 2.512 . S
Pr160 O185 2.437 . S
Pr160 O188 2.436 . S
Pr160 O190 2.438 . S
Pr161 C171 2.880 . S
Pr161 O182 2.436 . S
Pr161 O184 2.438 . S
Pr161 O186 2.562 . S
Pr161 O187 2.490 . S
Pr161 O188 2.695 . S
Pr161 O189 2.512 . S
Pr161 O191 2.437 . S
C162 Pr160 2.880 . S
C162 C163 1.491 . S
C162 O180 1.254 . S
C162 O181 1.225 . S
C163 C162 1.491 . S
C163 C164 1.392 . S
C163 C168 1.356 . S
C164 C163 1.392 . S
C164 C165 1.368 . S
C164 H192 0.929 . S
C165 C164 1.368 . S
C165 C166 1.386 . S
C165 H193 0.929 . S
C166 C165 1.386 . S
C166 C167 1.373 . S
C167 C166 1.373 . S
C167 C168 1.409 . S
C167 H194 0.931 . S
C168 C163 1.356 . S
C168 C167 1.409 . S
C168 H195 0.930 . S
C169 O182 1.270 . S
C169 O183 1.248 . S
C170 O184 1.267 . S
C170 O185 1.278 . S
C171 Pr161 2.880 . S
C171 C172 1.491 . S
C171 O186 1.254 . S
C171 O187 1.225 . S
C172 C171 1.491 . S
C172 C173 1.392 . S
C172 C177 1.356 . S
C173 C172 1.392 . S
C173 C174 1.368 . S
C173 H196 0.929 . S
C174 C173 1.368 . S
C174 C175 1.386 . S
C174 H197 0.929 . S
C175 C174 1.386 . S
C175 C176 1.373 . S
C176 C175 1.373 . S
C176 C177 1.409 . S
C176 H198 0.931 . S
C177 C172 1.356 . S
C177 C176 1.409 . S
C177 H199 0.930 . S
C178 O188 1.270 . S
C178 O189 1.248 . S
C179 O190 1.267 . S
C179 O191 1.278 . S
O180 Pr160 2.562 . S
O180 C162 1.254 . S
O181 Pr160 2.490 . S
O181 C162 1.225 . S
O182 Pr160 2.695 . S
O182 Pr161 2.436 . S
O182 C169 1.270 . S
O183 Pr160 2.512 . S
O183 C169 1.248 . S
O184 Pr161 2.438 . S
O184 C170 1.267 . S
O185 Pr160 2.437 . S
O185 C170 1.278 . S
O186 Pr161 2.562 . S
O186 C171 1.254 . S
O187 Pr161 2.490 . S
O187 C171 1.225 . S
O188 Pr160 2.436 . S
O188 Pr161 2.695 . S
O188 C178 1.270 . S
O189 Pr161 2.512 . S
O189 C178 1.248 . S
O190 Pr160 2.438 . S
O190 C179 1.267 . S
O191 Pr161 2.437 . S
O191 C179 1.278 . S
H192 C164 0.929 . S
H193 C165 0.929 . S
H194 C167 0.931 . S
H195 C168 0.930 . S
H196 C173 0.929 . S
H197 C174 0.929 . S
H198 C176 0.931 . S
H199 C177 0.930 . S
Pr200 C202 2.880 . S
Pr200 O220 2.562 . S
Pr200 O221 2.490 . S
Pr200 O222 2.695 . S
Pr200 O223 2.512 . S
Pr200 O225 2.437 . S
Pr200 O228 2.436 . S
Pr200 O230 2.438 . S
Pr201 C211 2.880 1_655 S
Pr201 O222 2.436 . S
Pr201 O224 2.438 . S
Pr201 O226 2.562 1_655 S
Pr201 O227 2.490 1_655 S
Pr201 O228 2.695 . S
Pr201 O229 2.512 1_655 S
Pr201 O231 2.437 1_655 S
C202 Pr200 2.880 . S
C202 C203 1.491 . S
C202 O220 1.254 . S
C202 O221 1.225 . S
C203 C202 1.491 . S
C203 C204 1.392 . S
C203 C208 1.356 . S
C204 C203 1.392 . S
C204 C205 1.368 . S
C204 H232 0.929 . S
C205 C204 1.368 . S
C205 C206 1.386 . S
C205 H233 0.929 . S
C206 C205 1.386 . S
C206 C207 1.373 . S
C207 C206 1.373 . S
C207 C208 1.409 . S
C207 H234 0.931 . S
C208 C203 1.356 . S
C208 C207 1.409 . S
C208 H235 0.930 . S
C209 O222 1.270 . S
C209 O223 1.248 . S
C210 O224 1.267 . S
C210 O225 1.278 . S
C211 Pr201 2.880 1_455 S
C211 C212 1.491 . S
C211 O226 1.254 . S
C211 O227 1.225 . S
C212 C211 1.491 . S
C212 C213 1.392 . S
C212 C217 1.356 . S
C213 C212 1.392 . S
C213 C214 1.368 . S
C213 H236 0.929 . S
C214 C213 1.368 . S
C214 C215 1.386 . S
C214 H237 0.929 . S
C215 C214 1.386 . S
C215 C216 1.373 . S
C216 C215 1.373 . S
C216 C217 1.409 . S
C216 H238 0.931 . S
C217 C212 1.356 . S
C217 C216 1.409 . S
C217 H239 0.930 . S
C218 O228 1.270 . S
C218 O229 1.248 1_655 S
C219 O230 1.267 1_455 S
C219 O231 1.278 . S
O220 Pr200 2.562 . S
O220 C202 1.254 . S
O221 Pr200 2.490 . S
O221 C202 1.225 . S
O222 Pr200 2.695 . S
O222 Pr201 2.436 . S
O222 C209 1.270 . S
O223 Pr200 2.512 . S
O223 C209 1.248 . S
O224 Pr201 2.438 . S
O224 C210 1.267 . S
O225 Pr200 2.437 . S
O225 C210 1.278 . S
O226 Pr201 2.562 1_455 S
O226 C211 1.254 . S
O227 Pr201 2.490 1_455 S
O227 C211 1.225 . S
O228 Pr200 2.436 . S
O228 Pr201 2.695 . S
O228 C218 1.270 . S
O229 Pr201 2.512 1_455 S
O229 C218 1.248 1_455 S
O230 Pr200 2.438 . S
O230 C219 1.267 1_655 S
O231 Pr201 2.437 1_455 S
O231 C219 1.278 . S
H232 C204 0.929 . S
H233 C205 0.929 . S
H234 C207 0.931 . S
H235 C208 0.930 . S
H236 C213 0.929 . S
H237 C214 0.929 . S
H238 C216 0.931 . S
H239 C217 0.930 . S
Pr240 C242 2.880 . S
Pr240 O260 2.562 . S
Pr240 O261 2.490 . S
Pr240 O262 2.695 . S
Pr240 O263 2.512 . S
Pr240 O265 2.437 . S
Pr240 O268 2.436 1_554 S
Pr240 O270 2.438 1_554 S
Pr241 C251 2.880 . S
Pr241 O262 2.436 1_556 S
Pr241 O264 2.438 1_556 S
Pr241 O266 2.562 . S
Pr241 O267 2.490 . S
Pr241 O268 2.695 . S
Pr241 O269 2.512 . S
Pr241 O271 2.437 . S
C242 Pr240 2.880 . S
C242 C243 1.491 . S
C242 O260 1.254 . S
C242 O261 1.225 . S
C243 C242 1.491 . S
C243 C244 1.392 . S
C243 C248 1.356 . S
C244 C243 1.392 . S
C244 C245 1.368 . S
C244 H272 0.929 . S
C245 C244 1.368 . S
C245 C246 1.386 . S
C245 H273 0.929 . S
C246 C245 1.386 . S
C246 C247 1.373 . S
C247 C246 1.373 . S
C247 C248 1.409 . S
C247 H274 0.931 . S
C248 C243 1.356 . S
C248 C247 1.409 . S
C248 H275 0.930 . S
C249 O262 1.270 . S
C249 O263 1.248 . S
C250 O264 1.267 . S
C250 O265 1.278 . S
C251 Pr241 2.880 . S
C251 C252 1.491 . S
C251 O266 1.254 . S
C251 O267 1.225 . S
C252 C251 1.491 . S
C252 C253 1.392 . S
C252 C257 1.356 . S
C253 C252 1.392 . S
C253 C254 1.368 . S
C253 H276 0.929 . S
C254 C253 1.368 . S
C254 C255 1.386 . S
C254 H277 0.929 . S
C255 C254 1.386 . S
C255 C256 1.373 . S
C256 C255 1.373 . S
C256 C257 1.409 . S
C256 H278 0.931 . S
C257 C252 1.356 . S
C257 C256 1.409 . S
C257 H279 0.930 . S
C258 O268 1.270 . S
C258 O269 1.248 . S
C259 O270 1.267 . S
C259 O271 1.278 . S
O260 Pr240 2.562 . S
O260 C242 1.254 . S
O261 Pr240 2.490 . S
O261 C242 1.225 . S
O262 Pr240 2.695 . S
O262 Pr241 2.436 1_554 S
O262 C249 1.270 . S
O263 Pr240 2.512 . S
O263 C249 1.248 . S
O264 Pr241 2.438 1_554 S
O264 C250 1.267 . S
O265 Pr240 2.437 . S
O265 C250 1.278 . S
O266 Pr241 2.562 . S
O266 C251 1.254 . S
O267 Pr241 2.490 . S
O267 C251 1.225 . S
O268 Pr240 2.436 1_556 S
O268 Pr241 2.695 . S
O268 C258 1.270 . S
O269 Pr241 2.512 . S
O269 C258 1.248 . S
O270 Pr240 2.438 1_556 S
O270 C259 1.267 . S
O271 Pr241 2.437 . S
O271 C259 1.278 . S
H272 C244 0.929 . S
H273 C245 0.929 . S
H274 C247 0.931 . S
H275 C248 0.930 . S
H276 C253 0.929 . S
H277 C254 0.929 . S
H278 C256 0.931 . S
H279 C257 0.930 . S
Pr280 C282 2.880 . S
Pr280 O300 2.562 . S
Pr280 O301 2.490 . S
Pr280 O302 2.695 . S
Pr280 O303 2.512 . S
Pr280 O305 2.437 . S
Pr280 O308 2.436 . S
Pr280 O310 2.438 . S
Pr281 C291 2.880 . S
Pr281 O302 2.436 . S
Pr281 O304 2.438 . S
Pr281 O306 2.562 . S
Pr281 O307 2.490 . S
Pr281 O308 2.695 . S
Pr281 O309 2.512 . S
Pr281 O311 2.437 . S
C282 Pr280 2.880 . S
C282 C283 1.491 . S
C282 O300 1.254 . S
C282 O301 1.225 . S
C283 C282 1.491 . S
C283 C284 1.392 . S
C283 C288 1.356 . S
C284 C283 1.392 . S
C284 C285 1.368 . S
C284 H312 0.929 . S
C285 C284 1.368 . S
C285 C286 1.386 . S
C285 H313 0.929 . S
C286 C285 1.386 . S
C286 C287 1.373 . S
C287 C286 1.373 . S
C287 C288 1.409 . S
C287 H314 0.931 . S
C288 C283 1.356 . S
C288 C287 1.409 . S
C288 H315 0.930 . S
C289 O302 1.270 . S
C289 O303 1.248 . S
C290 O304 1.267 . S
C290 O305 1.278 . S
C291 Pr281 2.880 . S
C291 C292 1.491 . S
C291 O306 1.254 . S
C291 O307 1.225 . S
C292 C291 1.491 . S
C292 C293 1.392 . S
C292 C297 1.356 . S
C293 C292 1.392 . S
C293 C294 1.368 . S
C293 H316 0.929 . S
C294 C293 1.368 . S
C294 C295 1.386 . S
C294 H317 0.929 . S
C295 C294 1.386 . S
C295 C296 1.373 . S
C296 C295 1.373 . S
C296 C297 1.409 . S
C296 H318 0.931 . S
C297 C292 1.356 . S
C297 C296 1.409 . S
C297 H319 0.930 . S
C298 O308 1.270 . S
C298 O309 1.248 . S
C299 O310 1.267 . S
C299 O311 1.278 . S
O300 Pr280 2.562 . S
O300 C282 1.254 . S
O301 Pr280 2.490 . S
O301 C282 1.225 . S
O302 Pr280 2.695 . S
O302 Pr281 2.436 . S
O302 C289 1.270 . S
O303 Pr280 2.512 . S
O303 C289 1.248 . S
O304 Pr281 2.438 . S
O304 C290 1.267 . S
O305 Pr280 2.437 . S
O305 C290 1.278 . S
O306 Pr281 2.562 . S
O306 C291 1.254 . S
O307 Pr281 2.490 . S
O307 C291 1.225 . S
O308 Pr280 2.436 . S
O308 Pr281 2.695 . S
O308 C298 1.270 . S
O309 Pr281 2.512 . S
O309 C298 1.248 . S
O310 Pr280 2.438 . S
O310 C299 1.267 . S
O311 Pr281 2.437 . S
O311 C299 1.278 . S
H312 C284 0.929 . S
H313 C285 0.929 . S
H314 C287 0.931 . S
H315 C288 0.930 . S
H316 C293 0.929 . S
H317 C294 0.929 . S
H318 C296 0.931 . S
H319 C297 0.930 . S
Pr320 C322 2.880 . S
Pr320 O340 2.562 . S
Pr320 O341 2.490 . S
Pr320 O342 2.695 . S
Pr320 O343 2.512 . S
Pr320 O345 2.437 . S
Pr320 O348 2.436 . S
Pr320 O350 2.438 . S
Pr321 C331 2.880 . S
Pr321 O342 2.436 . S
Pr321 O344 2.438 . S
Pr321 O346 2.562 . S
Pr321 O347 2.490 . S
Pr321 O348 2.695 . S
Pr321 O349 2.512 . S
Pr321 O351 2.437 . S
C322 Pr320 2.880 . S
C322 C323 1.491 . S
C322 O340 1.254 . S
C322 O341 1.225 . S
C323 C322 1.491 . S
C323 C324 1.392 . S
C323 C328 1.356 . S
C324 C323 1.392 . S
C324 C325 1.368 . S
C324 H352 0.929 . S
C325 C324 1.368 . S
C325 C326 1.386 . S
C325 H353 0.929 . S
C326 C325 1.386 . S
C326 C327 1.373 . S
C327 C326 1.373 . S
C327 C328 1.409 . S
C327 H354 0.931 . S
C328 C323 1.356 . S
C328 C327 1.409 . S
C328 H355 0.930 . S
C329 O342 1.270 . S
C329 O343 1.248 . S
C330 O344 1.267 . S
C330 O345 1.278 . S
C331 Pr321 2.880 . S
C331 C332 1.491 . S
C331 O346 1.254 . S
C331 O347 1.225 . S
C332 C331 1.491 . S
C332 C333 1.392 . S
C332 C337 1.356 . S
C333 C332 1.392 . S
C333 C334 1.368 . S
C333 H356 0.929 . S
C334 C333 1.368 . S
C334 C335 1.386 . S
C334 H357 0.929 . S
C335 C334 1.386 . S
C335 C336 1.373 . S
C336 C335 1.373 . S
C336 C337 1.409 . S
C336 H358 0.931 . S
C337 C332 1.356 . S
C337 C336 1.409 . S
C337 H359 0.930 . S
C338 O348 1.270 . S
C338 O349 1.248 . S
C339 O350 1.267 . S
C339 O351 1.278 . S
O340 Pr320 2.562 . S
O340 C322 1.254 . S
O341 Pr320 2.490 . S
O341 C322 1.225 . S
O342 Pr320 2.695 . S
O342 Pr321 2.436 . S
O342 C329 1.270 . S
O343 Pr320 2.512 . S
O343 C329 1.248 . S
O344 Pr321 2.438 . S
O344 C330 1.267 . S
O345 Pr320 2.437 . S
O345 C330 1.278 . S
O346 Pr321 2.562 . S
O346 C331 1.254 . S
O347 Pr321 2.490 . S
O347 C331 1.225 . S
O348 Pr320 2.436 . S
O348 Pr321 2.695 . S
O348 C338 1.270 . S
O349 Pr321 2.512 . S
O349 C338 1.248 . S
O350 Pr320 2.438 . S
O350 C339 1.267 . S
O351 Pr321 2.437 . S
O351 C339 1.278 . S
H352 C324 0.929 . S
H353 C325 0.929 . S
H354 C327 0.931 . S
H355 C328 0.930 . S
H356 C333 0.929 . S
H357 C334 0.929 . S
H358 C336 0.931 . S
H359 C337 0.930 . S
Pr360 C362 2.880 . S
Pr360 O380 2.562 . S
Pr360 O381 2.490 . S
Pr360 O382 2.695 . S
Pr360 O383 2.512 . S
Pr360 O385 2.437 . S
Pr360 O388 2.436 . S
Pr360 O390 2.438 1_545 S
Pr361 C371 2.880 . S
Pr361 O382 2.436 1_565 S
Pr361 O384 2.438 1_565 S
Pr361 O386 2.562 . S
Pr361 O387 2.490 . S
Pr361 O388 2.695 1_565 S
Pr361 O389 2.512 . S
Pr361 O391 2.437 . S
C362 Pr360 2.880 . S
C362 C363 1.491 . S
C362 O380 1.254 . S
C362 O381 1.225 . S
C363 C362 1.491 . S
C363 C364 1.392 . S
C363 C368 1.356 . S
C364 C363 1.392 . S
C364 C365 1.368 . S
C364 H392 0.929 . S
C365 C364 1.368 . S
C365 C366 1.386 . S
C365 H393 0.929 . S
C366 C365 1.386 . S
C366 C367 1.373 . S
C367 C366 1.373 . S
C367 C368 1.409 . S
C367 H394 0.931 . S
C368 C363 1.356 . S
C368 C367 1.409 . S
C368 H395 0.930 . S
C369 O382 1.270 . S
C369 O383 1.248 . S
C370 O384 1.267 . S
C370 O385 1.278 . S
C371 Pr361 2.880 . S
C371 C372 1.491 . S
C371 O386 1.254 . S
C371 O387 1.225 . S
C372 C371 1.491 . S
C372 C373 1.392 . S
C372 C377 1.356 . S
C373 C372 1.392 . S
C373 C374 1.368 . S
C373 H396 0.929 . S
C374 C373 1.368 . S
C374 C375 1.386 . S
C374 H397 0.929 . S
C375 C374 1.386 . S
C375 C376 1.373 . S
C376 C375 1.373 . S
C376 C377 1.409 . S
C376 H398 0.931 . S
C377 C372 1.356 . S
C377 C376 1.409 . S
C377 H399 0.930 . S
C378 O388 1.270 1_565 S
C378 O389 1.248 . S
C379 O390 1.267 . S
C379 O391 1.278 . S
O380 Pr360 2.562 . S
O380 C362 1.254 . S
O381 Pr360 2.490 . S
O381 C362 1.225 . S
O382 Pr360 2.695 . S
O382 Pr361 2.436 1_545 S
O382 C369 1.270 . S
O383 Pr360 2.512 . S
O383 C369 1.248 . S
O384 Pr361 2.438 1_545 S
O384 C370 1.267 . S
O385 Pr360 2.437 . S
O385 C370 1.278 . S
O386 Pr361 2.562 . S
O386 C371 1.254 . S
O387 Pr361 2.490 . S
O387 C371 1.225 . S
O388 Pr360 2.436 . S
O388 Pr361 2.695 1_545 S
O388 C378 1.270 1_545 S
O389 Pr361 2.512 . S
O389 C378 1.248 . S
O390 Pr360 2.438 1_565 S
O390 C379 1.267 . S
O391 Pr361 2.437 . S
O391 C379 1.278 . S
H392 C364 0.929 . S
H393 C365 0.929 . S
H394 C367 0.931 . S
H395 C368 0.930 . S
H396 C373 0.929 . S
H397 C374 0.929 . S
H398 C376 0.931 . S
H399 C377 0.930 . S
Pr400 C402 2.880 . S
Pr400 O420 2.562 . S
Pr400 O421 2.490 . S
Pr400 O422 2.695 1_545 S
Pr400 O423 2.512 1_545 S
Pr400 O425 2.437 1_545 S
Pr400 O428 2.436 . S
Pr400 O430 2.438 . S
Pr401 C411 2.880 . S
Pr401 O422 2.436 . S
Pr401 O424 2.438 . S
Pr401 O426 2.562 . S
Pr401 O427 2.490 . S
Pr401 O428 2.695 1_565 S
Pr401 O429 2.512 1_565 S
Pr401 O431 2.437 1_565 S
C402 Pr400 2.880 . S
C402 C403 1.491 . S
C402 O420 1.254 . S
C402 O421 1.225 . S
C403 C402 1.491 . S
C403 C404 1.392 . S
C403 C408 1.356 . S
C404 C403 1.392 . S
C404 C405 1.368 . S
C404 H432 0.929 . S
C405 C404 1.368 . S
C405 C406 1.386 . S
C405 H433 0.929 . S
C406 C405 1.386 . S
C406 C407 1.373 . S
C407 C406 1.373 . S
C407 C408 1.409 . S
C407 H434 0.931 . S
C408 C403 1.356 . S
C408 C407 1.409 . S
C408 H435 0.930 . S
C409 O422 1.270 . S
C409 O423 1.248 . S
C410 O424 1.267 . S
C410 O425 1.278 . S
C411 Pr401 2.880 . S
C411 C412 1.491 . S
C411 O426 1.254 . S
C411 O427 1.225 . S
C412 C411 1.491 . S
C412 C413 1.392 . S
C412 C417 1.356 . S
C413 C412 1.392 . S
C413 C414 1.368 . S
C413 H436 0.929 . S
C414 C413 1.368 . S
C414 C415 1.386 . S
C414 H437 0.929 . S
C415 C414 1.386 . S
C415 C416 1.373 . S
C416 C415 1.373 . S
C416 C417 1.409 . S
C416 H438 0.931 . S
C417 C412 1.356 . S
C417 C416 1.409 . S
C417 H439 0.930 . S
C418 O428 1.270 . S
C418 O429 1.248 . S
C419 O430 1.267 . S
C419 O431 1.278 . S
O420 Pr400 2.562 . S
O420 C402 1.254 . S
O421 Pr400 2.490 . S
O421 C402 1.225 . S
O422 Pr400 2.695 1_565 S
O422 Pr401 2.436 . S
O422 C409 1.270 . S
O423 Pr400 2.512 1_565 S
O423 C409 1.248 . S
O424 Pr401 2.438 . S
O424 C410 1.267 . S
O425 Pr400 2.437 1_565 S
O425 C410 1.278 . S
O426 Pr401 2.562 . S
O426 C411 1.254 . S
O427 Pr401 2.490 . S
O427 C411 1.225 . S
O428 Pr400 2.436 . S
O428 Pr401 2.695 1_545 S
O428 C418 1.270 . S
O429 Pr401 2.512 1_545 S
O429 C418 1.248 . S
O430 Pr400 2.438 . S
O430 C419 1.267 . S
O431 Pr401 2.437 1_545 S
O431 C419 1.278 . S
H432 C404 0.929 . S
H433 C405 0.929 . S
H434 C407 0.931 . S
H435 C408 0.930 . S
H436 C413 0.929 . S
H437 C414 0.929 . S
H438 C416 0.931 . S
H439 C417 0.930 . S
Pr440 C442 2.880 . S
Pr440 O460 2.562 . S
Pr440 O461 2.490 . S
Pr440 O462 2.695 . S
Pr440 O463 2.512 . S
Pr440 O465 2.437 . S
Pr440 O468 2.436 . S
Pr440 O470 2.438 . S
Pr441 C451 2.880 . S
Pr441 O462 2.436 . S
Pr441 O464 2.438 . S
Pr441 O466 2.562 . S
Pr441 O467 2.490 . S
Pr441 O468 2.695 . S
Pr441 O469 2.512 . S
Pr441 O471 2.437 . S
C442 Pr440 2.880 . S
C442 C443 1.491 . S
C442 O460 1.254 . S
C442 O461 1.225 . S
C443 C442 1.491 . S
C443 C444 1.392 . S
C443 C448 1.356 . S
C444 C443 1.392 . S
C444 C445 1.368 . S
C444 H472 0.929 . S
C445 C444 1.368 . S
C445 C446 1.386 . S
C445 H473 0.929 . S
C446 C445 1.386 . S
C446 C447 1.373 . S
C447 C446 1.373 . S
C447 C448 1.409 . S
C447 H474 0.931 . S
C448 C443 1.356 . S
C448 C447 1.409 . S
C448 H475 0.930 . S
C449 O462 1.270 . S
C449 O463 1.248 . S
C450 O464 1.267 . S
C450 O465 1.278 . S
C451 Pr441 2.880 . S
C451 C452 1.491 . S
C451 O466 1.254 . S
C451 O467 1.225 . S
C452 C451 1.491 . S
C452 C453 1.392 . S
C452 C457 1.356 . S
C453 C452 1.392 . S
C453 C454 1.368 . S
C453 H476 0.929 . S
C454 C453 1.368 . S
C454 C455 1.386 . S
C454 H477 0.929 . S
C455 C454 1.386 . S
C455 C456 1.373 . S
C456 C455 1.373 . S
C456 C457 1.409 . S
C456 H478 0.931 . S
C457 C452 1.356 . S
C457 C456 1.409 . S
C457 H479 0.930 . S
C458 O468 1.270 . S
C458 O469 1.248 . S
C459 O470 1.267 . S
C459 O471 1.278 . S
O460 Pr440 2.562 . S
O460 C442 1.254 . S
O461 Pr440 2.490 . S
O461 C442 1.225 . S
O462 Pr440 2.695 . S
O462 Pr441 2.436 . S
O462 C449 1.270 . S
O463 Pr440 2.512 . S
O463 C449 1.248 . S
O464 Pr441 2.438 . S
O464 C450 1.267 . S
O465 Pr440 2.437 . S
O465 C450 1.278 . S
O466 Pr441 2.562 . S
O466 C451 1.254 . S
O467 Pr441 2.490 . S
O467 C451 1.225 . S
O468 Pr440 2.436 . S
O468 Pr441 2.695 . S
O468 C458 1.270 . S
O469 Pr441 2.512 . S
O469 C458 1.248 . S
O470 Pr440 2.438 . S
O470 C459 1.267 . S
O471 Pr441 2.437 . S
O471 C459 1.278 . S
H472 C444 0.929 . S
H473 C445 0.929 . S
H474 C447 0.931 . S
H475 C448 0.930 . S
H476 C453 0.929 . S
H477 C454 0.929 . S
H478 C456 0.931 . S
H479 C457 0.930 . S
H480 C498 0.951 . S
H481 C500 0.951 . S
H482 C502 0.950 . S
H483 C503 0.950 . S
H484 C505 0.950 . S
H485 C508 0.950 . S
H486 C509 0.950 . S
H487 C511 0.950 . S
H488 C512 0.950 . S
H489 C513 0.951 . S
H490 C515 0.951 . S
H491 C517 0.950 . S
H492 C518 0.950 . S
H493 C520 0.950 . S
H494 C523 0.950 . S
H495 C524 0.950 . S
H496 C526 0.950 . S
H497 C527 0.950 . S
C498 H480 0.951 . S
C498 C499 1.366 . S
C498 C500 1.388 . S
C499 C498 1.366 . S
C499 C503 1.385 . S
C500 H481 0.951 . S
C500 C498 1.388 . S
C500 C501 1.366 . S
C501 C500 1.366 . S
C501 C502 1.414 . S
C501 C504 1.499 . S
C502 H482 0.950 . S
C502 C501 1.414 . S
C502 C503 1.374 . S
C503 H483 0.950 . S
C503 C499 1.385 . S
C503 C502 1.374 . S
C504 C501 1.499 . S
C504 C505 1.373 . S
C504 C506 1.389 . S
C505 H484 0.950 . S
C505 C504 1.373 . S
C505 C521 1.377 . S
C506 C504 1.389 . S
C506 C507 1.524 . S
C506 C520 1.377 . S
C507 C506 1.524 . S
C507 C508 1.397 . S
C507 C512 1.363 . S
C508 H485 0.950 . S
C508 C507 1.397 . S
C508 C509 1.334 . S
C509 H486 0.950 . S
C509 C508 1.334 . S
C509 C510 1.287 . S
C510 C509 1.287 . S
C510 C511 1.524 . S
C510 H529 0.913 . S
C511 H487 0.950 . S
C511 C510 1.524 . S
C511 C512 1.415 . S
C512 H488 0.950 . S
C512 C507 1.363 . S
C512 C511 1.415 . S
C513 H489 0.951 . S
C513 C514 1.366 . S
C513 C515 1.388 . S
C514 C513 1.366 . S
C514 C518 1.385 . S
C515 H490 0.951 . S
C515 C513 1.388 . S
C515 C516 1.366 . S
C516 C515 1.366 . S
C516 C517 1.414 . S
C516 C519 1.499 . S
C517 H491 0.950 . S
C517 C516 1.414 . S
C517 C518 1.374 . S
C518 H492 0.950 . S
C518 C514 1.385 . S
C518 C517 1.374 . S
C519 C516 1.499 . S
C519 C520 1.373 . S
C519 C521 1.389 . S
C520 H493 0.950 . S
C520 C506 1.377 . S
C520 C519 1.373 . S
C521 C505 1.377 . S
C521 C519 1.389 . S
C521 C522 1.524 . S
C522 C521 1.524 . S
C522 C523 1.397 . S
C522 C527 1.363 . S
C523 H494 0.950 . S
C523 C522 1.397 . S
C523 C524 1.334 . S
C524 H495 0.950 . S
C524 C523 1.334 . S
C524 C525 1.287 . S
C525 C524 1.287 . S
C525 C526 1.524 . S
C525 H528 0.999 . S
C526 H496 0.950 . S
C526 C525 1.524 . S
C526 C527 1.415 . S
C527 H497 0.950 . S
C527 C522 1.363 . S
C527 C526 1.415 . S
H528 C525 0.999 . S
H529 C510 0.913 . S
H530 C548 0.951 . S
H531 C550 0.951 . S
H532 C552 0.940 1_545 S
H533 C553 0.950 1_545 S
H534 C555 0.950 . S
H535 C558 0.950 . S
H536 C559 0.950 . S
H537 C561 0.950 . S
H538 C562 0.950 . S
H539 C563 0.951 . S
H540 C565 0.951 . S
H541 C567 0.950 . S
H542 C568 0.950 . S
H543 C570 0.950 . S
H544 C573 0.950 . S
H545 C574 0.950 . S
H546 C576 0.950 . S
H547 C577 0.950 . S
C548 H530 0.951 . S
C548 C549 1.366 . S
C548 C550 1.388 . S
C549 C548 1.366 . S
C549 C553 1.385 . S
C550 H531 0.951 . S
C550 C548 1.388 . S
C550 C551 1.366 . S
C551 C550 1.366 . S
C551 C552 1.414 . S
C551 C554 1.499 . S
C552 H532 0.940 1_565 S
C552 C551 1.414 . S
C552 C553 1.374 . S
C553 H533 0.950 1_565 S
C553 C549 1.385 . S
C553 C552 1.374 . S
C554 C551 1.499 . S
C554 C555 1.373 . S
C554 C556 1.389 . S
C555 H534 0.950 . S
C555 C554 1.373 . S
C555 C571 1.377 . S
C556 C554 1.389 . S
C556 C557 1.524 . S
C556 C570 1.377 . S
C557 C556 1.524 . S
C557 C558 1.397 . S
C557 C562 1.363 . S
C558 H535 0.950 . S
C558 C557 1.397 . S
C558 C559 1.334 . S
C559 H536 0.950 . S
C559 C558 1.334 . S
C559 C560 1.287 . S
C560 C559 1.287 . S
C560 C561 1.524 . S
C560 H579 0.913 . S
C561 H537 0.950 . S
C561 C560 1.524 . S
C561 C562 1.415 . S
C562 H538 0.950 . S
C562 C557 1.363 . S
C562 C561 1.415 . S
C563 H539 0.951 . S
C563 C564 1.366 . S
C563 C565 1.388 . S
C564 C563 1.366 . S
C564 C568 1.385 . S
C565 H540 0.951 . S
C565 C563 1.388 . S
C565 C566 1.366 . S
C566 C565 1.366 . S
C566 C567 1.414 . S
C566 C569 1.499 . S
C567 H541 0.950 . S
C567 C566 1.414 . S
C567 C568 1.374 . S
C568 H542 0.950 . S
C568 C564 1.385 . S
C568 C567 1.374 . S
C569 C566 1.499 . S
C569 C570 1.373 . S
C569 C571 1.389 . S
C570 H543 0.950 . S
C570 C556 1.377 . S
C570 C569 1.373 . S
C571 C555 1.377 . S
C571 C569 1.389 . S
C571 C572 1.524 . S
C572 C571 1.524 . S
C572 C573 1.397 . S
C572 C577 1.363 1_565 S
C573 H544 0.950 . S
C573 C572 1.397 . S
C573 C574 1.334 . S
C574 H545 0.950 . S
C574 C573 1.334 . S
C574 C575 1.287 1_565 S
C575 C574 1.287 1_545 S
C575 C576 1.524 . S
C575 H578 0.999 . S
C576 H546 0.950 . S
C576 C575 1.524 . S
C576 C577 1.415 . S
C577 H547 0.950 . S
C577 C572 1.363 1_545 S
C577 C576 1.415 . S
H578 C575 0.999 . S
H579 C560 0.913 . S
H580 C598 0.951 . S
H581 C600 0.951 . S
H582 C602 0.950 . S
H583 C603 0.950 1_556 S
H584 C605 0.950 . S
H585 C608 0.950 . S
H586 C609 0.950 . S
H587 C611 0.950 . S
H588 C612 0.950 . S
H589 C613 0.951 . S
H590 C615 0.951 . S
H591 C617 0.950 . S
H592 C618 0.950 . S
H593 C620 0.950 . S
H594 C623 0.950 . S
H595 C624 0.950 . S
H596 C626 0.950 . S
H597 C627 0.950 . S
C598 H580 0.951 . S
C598 C599 1.366 . S
C598 C600 1.388 . S
C599 C598 1.366 . S
C599 C603 1.385 . S
C600 H581 0.951 . S
C600 C598 1.388 . S
C600 C601 1.366 . S
C601 C600 1.366 . S
C601 C602 1.414 . S
C601 C604 1.499 . S
C602 H582 0.950 . S
C602 C601 1.414 . S
C602 C603 1.374 . S
C603 H583 0.950 1_554 S
C603 C599 1.385 . S
C603 C602 1.374 . S
C604 C601 1.499 . S
C604 C605 1.373 . S
C604 C606 1.389 . S
C605 H584 0.950 . S
C605 C604 1.373 . S
C605 C621 1.377 . S
C606 C604 1.389 . S
C606 C607 1.524 . S
C606 C620 1.377 . S
C607 C606 1.524 . S
C607 C608 1.397 . S
C607 C612 1.363 . S
C608 H585 0.950 . S
C608 C607 1.397 . S
C608 C609 1.334 . S
C609 H586 0.950 . S
C609 C608 1.334 . S
C609 C610 1.287 . S
C610 C609 1.287 . S
C610 C611 1.524 . S
C610 H629 0.913 . S
C611 H587 0.950 . S
C611 C610 1.524 . S
C611 C612 1.415 . S
C612 H588 0.950 . S
C612 C607 1.363 . S
C612 C611 1.415 . S
C613 H589 0.951 . S
C613 C614 1.366 . S
C613 C615 1.388 . S
C614 C613 1.366 . S
C614 C618 1.385 . S
C615 H590 0.951 . S
C615 C613 1.388 . S
C615 C616 1.366 . S
C616 C615 1.366 . S
C616 C617 1.414 . S
C616 C619 1.499 . S
C617 H591 0.950 . S
C617 C616 1.414 . S
C617 C618 1.374 . S
C618 H592 0.950 . S
C618 C614 1.385 . S
C618 C617 1.374 . S
C619 C616 1.499 . S
C619 C620 1.373 . S
C619 C621 1.389 . S
C620 H593 0.950 . S
C620 C606 1.377 . S
C620 C619 1.373 . S
C621 C605 1.377 . S
C621 C619 1.389 . S
C621 C622 1.524 . S
C622 C621 1.524 . S
C622 C623 1.397 . S
C622 C627 1.363 1_554 S
C623 H594 0.950 . S
C623 C622 1.397 . S
C623 C624 1.334 1_554 S
C624 H595 0.950 . S
C624 C623 1.334 1_556 S
C624 C625 1.287 . S
C625 C624 1.287 . S
C625 C626 1.524 . S
C625 H628 0.999 . S
C626 H596 0.950 . S
C626 C625 1.524 . S
C626 C627 1.415 . S
C627 H597 0.950 . S
C627 C622 1.363 1_556 S
C627 C626 1.415 . S
H628 C625 0.999 . S
H629 C610 0.913 . S
H630 C648 0.951 . S
H631 C650 0.951 . S
H632 C652 0.950 . S
H633 C653 0.950 . S
H634 C655 0.950 . S
H635 C658 0.950 . S
H636 C659 0.950 . S
H637 C661 0.950 . S
H638 C662 0.950 . S
H639 C663 0.951 1_565 S
H640 C665 0.951 . S
H641 C667 0.950 . S
H642 C668 0.950 . S
H643 C670 0.950 . S
H644 C673 0.950 . S
H645 C674 0.950 . S
H646 C676 0.950 . S
H647 C677 0.950 . S
C648 H630 0.951 . S
C648 C649 1.366 . S
C648 C650 1.388 . S
C649 C648 1.366 . S
C649 C653 1.385 . S
C650 H631 0.951 . S
C650 C648 1.388 . S
C650 C651 1.366 . S
C651 C650 1.366 . S
C651 C652 1.414 . S
C651 C654 1.499 . S
C652 H632 0.950 . S
C652 C651 1.414 . S
C652 C653 1.374 . S
C653 H633 0.950 . S
C653 C649 1.385 . S
C653 C652 1.374 . S
C654 C651 1.499 . S
C654 C655 1.373 . S
C654 C656 1.389 . S
C655 H634 0.950 . S
C655 C654 1.373 . S
C655 C671 1.377 . S
C656 C654 1.389 . S
C656 C657 1.524 . S
C656 C670 1.377 . S
C657 C656 1.524 . S
C657 C658 1.397 . S
C657 C662 1.363 . S
C658 H635 0.950 . S
C658 C657 1.397 . S
C658 C659 1.334 . S
C659 H636 0.950 . S
C659 C658 1.334 . S
C659 C660 1.287 . S
C660 C659 1.287 . S
C660 C661 1.524 . S
C660 H679 0.913 . S
C661 H637 0.950 . S
C661 C660 1.524 . S
C661 C662 1.415 . S
C662 H638 0.950 . S
C662 C657 1.363 . S
C662 C661 1.415 . S
C663 H639 0.951 1_545 S
C663 C664 1.366 . S
C663 C665 1.388 . S
C664 C663 1.366 . S
C664 C668 1.385 . S
C665 H640 0.951 . S
C665 C663 1.388 . S
C665 C666 1.366 . S
C666 C665 1.366 . S
C666 C667 1.414 . S
C666 C669 1.499 . S
C667 H641 0.950 . S
C667 C666 1.414 . S
C667 C668 1.374 . S
C668 H642 0.950 . S
C668 C664 1.385 . S
C668 C667 1.374 . S
C669 C666 1.499 . S
C669 C670 1.373 . S
C669 C671 1.389 . S
C670 H643 0.950 . S
C670 C656 1.377 . S
C670 C669 1.373 . S
C671 C655 1.377 . S
C671 C669 1.389 . S
C671 C672 1.524 . S
C672 C671 1.524 . S
C672 C673 1.397 . S
C672 C677 1.363 . S
C673 H644 0.950 . S
C673 C672 1.397 . S
C673 C674 1.334 . S
C674 H645 0.950 . S
C674 C673 1.334 . S
C674 C675 1.287 . S
C675 C674 1.287 . S
C675 C676 1.524 . S
C675 H678 0.999 . S
C676 H646 0.950 . S
C676 C675 1.524 . S
C676 C677 1.415 . S
C677 H647 0.950 . S
C677 C672 1.363 . S
C677 C676 1.415 . S
H678 C675 0.999 . S
H679 C660 0.913 . S
H680 C698 0.951 . S
H681 C700 0.951 . S
H682 C702 0.950 . S
H683 C703 0.950 . S
H684 C705 0.950 . S
H685 C708 0.950 . S
H686 C709 0.950 . S
H687 C711 0.950 . S
H688 C712 0.950 . S
H689 C713 0.951 . S
H690 C715 0.951 . S
H691 C717 0.950 . S
H692 C718 0.950 . S
H693 C720 0.950 . S
H694 C723 0.950 . S
H695 C724 0.950 . S
H696 C726 0.950 . S
H697 C727 0.950 . S
C698 H680 0.951 . S
C698 C699 1.366 . S
C698 C700 1.388 . S
C699 C698 1.366 . S
C699 C703 1.385 . S
C700 H681 0.951 . S
C700 C698 1.388 . S
C700 C701 1.366 . S
C701 C700 1.366 . S
C701 C702 1.414 . S
C701 C704 1.499 . S
C702 H682 0.950 . S
C702 C701 1.414 . S
C702 C703 1.374 . S
C703 H683 0.950 . S
C703 C699 1.385 . S
C703 C702 1.374 . S
C704 C701 1.499 . S
C704 C705 1.373 . S
C704 C706 1.389 . S
C705 H684 0.950 . S
C705 C704 1.373 . S
C705 C721 1.377 . S
C706 C704 1.389 . S
C706 C707 1.524 . S
C706 C720 1.377 . S
C707 C706 1.524 . S
C707 C708 1.397 . S
C707 C712 1.363 . S
C708 H685 0.950 . S
C708 C707 1.397 . S
C708 C709 1.334 . S
C709 H686 0.950 . S
C709 C708 1.334 . S
C709 C710 1.287 . S
C710 C709 1.287 . S
C710 C711 1.524 . S
C710 H729 0.913 . S
C711 H687 0.950 . S
C711 C710 1.524 . S
C711 C712 1.415 . S
C712 H688 0.950 . S
C712 C707 1.363 . S
C712 C711 1.415 . S
C713 H689 0.951 . S
C713 C714 1.366 . S
C713 C715 1.388 . S
C714 C713 1.366 . S
C714 C718 1.385 . S
C715 H690 0.951 . S
C715 C713 1.388 . S
C715 C716 1.366 . S
C716 C715 1.366 . S
C716 C717 1.414 . S
C716 C719 1.499 . S
C717 H691 0.950 . S
C717 C716 1.414 . S
C717 C718 1.374 . S
C718 H692 0.950 . S
C718 C714 1.385 . S
C718 C717 1.374 . S
C719 C716 1.499 . S
C719 C720 1.373 . S
C719 C721 1.389 . S
C720 H693 0.950 . S
C720 C706 1.377 . S
C720 C719 1.373 . S
C721 C705 1.377 . S
C721 C719 1.389 . S
C721 C722 1.524 . S
C722 C721 1.524 . S
C722 C723 1.397 . S
C722 C727 1.363 . S
C723 H694 0.950 . S
C723 C722 1.397 . S
C723 C724 1.334 . S
C724 H695 0.950 . S
C724 C723 1.334 . S
C724 C725 1.287 . S
C725 C724 1.287 . S
C725 C726 1.524 . S
C725 H728 0.999 . S
C726 H696 0.950 . S
C726 C725 1.524 . S
C726 C727 1.415 . S
C727 H697 0.950 . S
C727 C722 1.363 . S
C727 C726 1.415 . S
H728 C725 0.999 . S
H729 C710 0.913 . S
H730 C748 0.951 . S
H731 C750 0.951 . S
H732 C752 0.950 . S
H733 C753 0.950 . S
H734 C755 0.950 . S
H735 C758 0.950 . S
H736 C759 0.950 . S
H737 C761 0.950 . S
H738 C762 0.950 . S
H739 C763 0.951 . S
H740 C765 0.951 . S
H741 C767 0.950 . S
H742 C768 0.950 . S
H743 C770 0.950 . S
H744 C773 0.950 . S
H745 C774 0.950 . S
H746 C776 0.950 . S
H747 C777 0.950 . S
C748 H730 0.951 . S
C748 C749 1.366 . S
C748 C750 1.388 . S
C749 C748 1.366 . S
C749 C753 1.385 . S
C750 H731 0.951 . S
C750 C748 1.388 . S
C750 C751 1.366 . S
C751 C750 1.366 . S
C751 C752 1.414 . S
C751 C754 1.499 . S
C752 H732 0.950 . S
C752 C751 1.414 . S
C752 C753 1.374 . S
C753 H733 0.950 . S
C753 C749 1.385 . S
C753 C752 1.374 . S
C754 C751 1.499 . S
C754 C755 1.373 . S
C754 C756 1.389 . S
C755 H734 0.950 . S
C755 C754 1.373 . S
C755 C771 1.377 . S
C756 C754 1.389 . S
C756 C757 1.524 . S
C756 C770 1.377 . S
C757 C756 1.524 . S
C757 C758 1.397 . S
C757 C762 1.363 . S
C758 H735 0.950 . S
C758 C757 1.397 . S
C758 C759 1.334 . S
C759 H736 0.950 . S
C759 C758 1.334 . S
C759 C760 1.287 . S
C760 C759 1.287 . S
C760 C761 1.524 . S
C760 H779 0.913 . S
C761 H737 0.950 . S
C761 C760 1.524 . S
C761 C762 1.415 . S
C762 H738 0.950 . S
C762 C757 1.363 . S
C762 C761 1.415 . S
C763 H739 0.951 . S
C763 C764 1.366 . S
C763 C765 1.388 . S
C764 C763 1.366 . S
C764 C768 1.385 . S
C765 H740 0.951 . S
C765 C763 1.388 . S
C765 C766 1.366 . S
C766 C765 1.366 . S
C766 C767 1.414 . S
C766 C769 1.499 . S
C767 H741 0.950 . S
C767 C766 1.414 . S
C767 C768 1.374 . S
C768 H742 0.950 . S
C768 C764 1.385 . S
C768 C767 1.374 . S
C769 C766 1.499 . S
C769 C770 1.373 . S
C769 C771 1.389 . S
C770 H743 0.950 . S
C770 C756 1.377 . S
C770 C769 1.373 . S
C771 C755 1.377 . S
C771 C769 1.389 . S
C771 C772 1.524 . S
C772 C771 1.524 . S
C772 C773 1.397 . S
C772 C777 1.363 . S
C773 H744 0.950 . S
C773 C772 1.397 . S
C773 C774 1.334 . S
C774 H745 0.950 . S
C774 C773 1.334 . S
C774 C775 1.287 . S
C775 C774 1.287 . S
C775 C776 1.524 . S
C775 H778 0.999 . S
C776 H746 0.950 . S
C776 C775 1.524 . S
C776 C777 1.415 . S
C777 H747 0.950 . S
C777 C772 1.363 . S
C777 C776 1.415 . S
H778 C775 0.999 . S
H779 C760 0.913 . S
H780 C798 0.951 . S
H781 C800 0.951 . S
H782 C802 0.950 . S
H783 C803 0.950 . S
H784 C805 0.950 . S
H785 C808 0.950 . S
H786 C809 0.950 . S
H787 C811 0.950 . S
H788 C812 0.950 . S
H789 C813 0.951 . S
H790 C815 0.951 . S
H791 C817 0.950 . S
H792 C818 0.950 . S
H793 C820 0.950 . S
H794 C823 0.950 . S
H795 C824 0.950 . S
H796 C826 0.950 . S
H797 C827 0.950 . S
C798 H780 0.951 . S
C798 C799 1.366 . S
C798 C800 1.388 . S
C799 C798 1.366 . S
C799 C803 1.385 . S
C800 H781 0.951 . S
C800 C798 1.388 . S
C800 C801 1.366 . S
C801 C800 1.366 . S
C801 C802 1.414 . S
C801 C804 1.499 . S
C802 H782 0.950 . S
C802 C801 1.414 . S
C802 C803 1.374 . S
C803 H783 0.950 . S
C803 C799 1.385 . S
C803 C802 1.374 . S
C804 C801 1.499 . S
C804 C805 1.373 . S
C804 C806 1.389 . S
C805 H784 0.950 . S
C805 C804 1.373 . S
C805 C821 1.377 . S
C806 C804 1.389 . S
C806 C807 1.524 . S
C806 C820 1.377 . S
C807 C806 1.524 . S
C807 C808 1.397 . S
C807 C812 1.363 . S
C808 H785 0.950 . S
C808 C807 1.397 . S
C808 C809 1.334 . S
C809 H786 0.950 . S
C809 C808 1.334 . S
C809 C810 1.287 . S
C810 C809 1.287 . S
C810 C811 1.524 . S
C810 H829 0.913 . S
C811 H787 0.950 . S
C811 C810 1.524 . S
C811 C812 1.415 . S
C812 H788 0.950 . S
C812 C807 1.363 . S
C812 C811 1.415 . S
C813 H789 0.951 . S
C813 C814 1.366 . S
C813 C815 1.388 . S
C814 C813 1.366 . S
C814 C818 1.385 . S
C815 H790 0.951 . S
C815 C813 1.388 . S
C815 C816 1.366 . S
C816 C815 1.366 . S
C816 C817 1.414 . S
C816 C819 1.499 . S
C817 H791 0.950 . S
C817 C816 1.414 . S
C817 C818 1.374 . S
C818 H792 0.950 . S
C818 C814 1.385 . S
C818 C817 1.374 . S
C819 C816 1.499 . S
C819 C820 1.373 . S
C819 C821 1.389 . S
C820 H793 0.950 . S
C820 C806 1.377 . S
C820 C819 1.373 . S
C821 C805 1.377 . S
C821 C819 1.389 . S
C821 C822 1.524 . S
C822 C821 1.524 . S
C822 C823 1.397 . S
C822 C827 1.363 . S
C823 H794 0.950 . S
C823 C822 1.397 . S
C823 C824 1.334 . S
C824 H795 0.950 . S
C824 C823 1.334 . S
C824 C825 1.287 . S
C825 C824 1.287 . S
C825 C826 1.524 . S
C825 H828 0.999 . S
C826 H796 0.950 . S
C826 C825 1.524 . S
C826 C827 1.415 . S
C827 H797 0.950 . S
C827 C822 1.363 . S
C827 C826 1.415 . S
H828 C825 0.999 . S
H829 C810 0.913 . S
H830 C848 0.951 . S
H831 C850 0.951 . S
H832 C852 0.950 . S
H833 C853 0.950 . S
H834 C855 0.950 . S
H835 C858 0.950 . S
H836 C859 0.950 . S
H837 C861 0.950 . S
H838 C862 0.950 . S
H839 C863 0.951 . S
H840 C865 0.951 . S
H841 C867 0.950 . S
H842 C868 0.950 . S
H843 C870 0.950 . S
H844 C873 0.950 . S
H845 C874 0.950 . S
H846 C876 0.950 . S
H847 C877 0.950 . S
C848 H830 0.951 . S
C848 C849 1.366 . S
C848 C850 1.388 . S
C849 C848 1.366 . S
C849 C853 1.385 . S
C850 H831 0.951 . S
C850 C848 1.388 . S
C850 C851 1.366 . S
C851 C850 1.366 . S
C851 C852 1.414 . S
C851 C854 1.499 . S
C852 H832 0.950 . S
C852 C851 1.414 . S
C852 C853 1.374 . S
C853 H833 0.950 . S
C853 C849 1.385 . S
C853 C852 1.374 . S
C854 C851 1.499 . S
C854 C855 1.373 . S
C854 C856 1.389 . S
C855 H834 0.950 . S
C855 C854 1.373 . S
C855 C871 1.377 . S
C856 C854 1.389 . S
C856 C857 1.524 . S
C856 C870 1.377 . S
C857 C856 1.524 . S
C857 C858 1.397 . S
C857 C862 1.363 . S
C858 H835 0.950 . S
C858 C857 1.397 . S
C858 C859 1.334 . S
C859 H836 0.950 . S
C859 C858 1.334 . S
C859 C860 1.287 . S
C860 C859 1.287 . S
C860 C861 1.524 . S
C860 H879 0.913 . S
C861 H837 0.950 . S
C861 C860 1.524 . S
C861 C862 1.415 . S
C862 H838 0.950 . S
C862 C857 1.363 . S
C862 C861 1.415 . S
C863 H839 0.951 . S
C863 C864 1.366 . S
C863 C865 1.388 . S
C864 C863 1.366 . S
C864 C868 1.385 . S
C865 H840 0.951 . S
C865 C863 1.388 . S
C865 C866 1.366 . S
C866 C865 1.366 . S
C866 C867 1.414 . S
C866 C869 1.499 . S
C867 H841 0.950 . S
C867 C866 1.414 . S
C867 C868 1.374 . S
C868 H842 0.950 . S
C868 C864 1.385 . S
C868 C867 1.374 . S
C869 C866 1.499 . S
C869 C870 1.373 . S
C869 C871 1.389 . S
C870 H843 0.950 . S
C870 C856 1.377 . S
C870 C869 1.373 . S
C871 C855 1.377 . S
C871 C869 1.389 . S
C871 C872 1.524 . S
C872 C871 1.524 . S
C872 C873 1.397 . S
C872 C877 1.363 . S
C873 H844 0.950 . S
C873 C872 1.397 . S
C873 C874 1.334 . S
C874 H845 0.950 . S
C874 C873 1.334 . S
C874 C875 1.287 . S
C875 C874 1.287 . S
C875 C876 1.524 . S
C875 H878 0.999 . S
C876 H846 0.950 . S
C876 C875 1.524 . S
C876 C877 1.415 . S
C877 H847 0.950 . S
C877 C872 1.363 . S
C877 C876 1.415 . S
H878 C875 0.999 . S
H879 C860 0.913 . S
H880 C898 0.951 . S
H881 C900 0.951 . S
H882 C902 0.950 . S
H883 C903 0.950 . S
H884 C905 0.950 . S
H885 C908 0.950 . S
H886 C909 0.950 . S
H887 C911 0.950 . S
H888 C912 0.950 . S
H889 C913 0.951 . S
H890 C915 0.951 . S
H891 C917 0.950 . S
H892 C918 0.950 . S
H893 C920 0.950 . S
H894 C923 0.950 . S
H895 C924 0.950 . S
H896 C926 0.950 . S
H897 C927 0.950 . S
C898 H880 0.951 . S
C898 C899 1.366 . S
C898 C900 1.388 . S
C899 C898 1.366 . S
C899 C903 1.385 . S
C900 H881 0.951 . S
C900 C898 1.388 . S
C900 C901 1.366 . S
C901 C900 1.366 . S
C901 C902 1.414 . S
C901 C904 1.499 . S
C902 H882 0.950 . S
C902 C901 1.414 . S
C902 C903 1.374 . S
C903 H883 0.950 . S
C903 C899 1.385 . S
C903 C902 1.374 . S
C904 C901 1.499 . S
C904 C905 1.373 . S
C904 C906 1.389 . S
C905 H884 0.950 . S
C905 C904 1.373 . S
C905 C921 1.377 . S
C906 C904 1.389 . S
C906 C907 1.524 . S
C906 C920 1.377 . S
C907 C906 1.524 . S
C907 C908 1.397 . S
C907 C912 1.363 . S
C908 H885 0.950 . S
C908 C907 1.397 . S
C908 C909 1.334 . S
C909 H886 0.950 . S
C909 C908 1.334 . S
C909 C910 1.287 . S
C910 C909 1.287 . S
C910 C911 1.524 . S
C910 H929 0.913 . S
C911 H887 0.950 . S
C911 C910 1.524 . S
C911 C912 1.415 . S
C912 H888 0.950 . S
C912 C907 1.363 . S
C912 C911 1.415 . S
C913 H889 0.951 . S
C913 C914 1.366 . S
C913 C915 1.388 . S
C914 C913 1.366 . S
C914 C918 1.385 . S
C915 H890 0.951 . S
C915 C913 1.388 . S
C915 C916 1.366 . S
C916 C915 1.366 . S
C916 C917 1.414 . S
C916 C919 1.499 . S
C917 H891 0.950 . S
C917 C916 1.414 . S
C917 C918 1.374 . S
C918 H892 0.950 . S
C918 C914 1.385 . S
C918 C917 1.374 . S
C919 C916 1.499 . S
C919 C920 1.373 . S
C919 C921 1.389 . S
C920 H893 0.950 . S
C920 C906 1.377 . S
C920 C919 1.373 . S
C921 C905 1.377 . S
C921 C919 1.389 . S
C921 C922 1.524 . S
C922 C921 1.524 . S
C922 C923 1.397 . S
C922 C927 1.363 . S
C923 H894 0.950 . S
C923 C922 1.397 . S
C923 C924 1.334 . S
C924 H895 0.950 . S
C924 C923 1.334 . S
C924 C925 1.287 . S
C925 C924 1.287 . S
C925 C926 1.524 . S
C925 H928 0.999 . S
C926 H896 0.950 . S
C926 C925 1.524 . S
C926 C927 1.415 . S
C927 H897 0.950 . S
C927 C922 1.363 . S
C927 C926 1.415 . S
H928 C925 0.999 . S
H929 C910 0.913 . S
H930 C948 0.951 . S
H931 C950 0.951 . S
H932 C952 0.950 . S
H933 C953 0.950 . S
H934 C955 0.950 . S
H935 C958 0.950 . S
H936 C959 0.950 . S
H937 C961 0.950 . S
H938 C962 0.950 . S
H939 C963 0.951 . S
H940 C965 0.951 1_655 S
H941 C967 0.950 . S
H942 C968 0.950 . S
H943 C970 0.950 . S
H944 C973 0.950 . S
H945 C974 0.950 . S
H946 C976 0.950 . S
H947 C977 0.950 . S
C948 H930 0.951 . S
C948 C949 1.366 . S
C948 C950 1.388 . S
C949 C948 1.366 . S
C949 C953 1.385 . S
C950 H931 0.951 . S
C950 C948 1.388 . S
C950 C951 1.366 . S
C951 C950 1.366 . S
C951 C952 1.414 . S
C951 C954 1.499 . S
C952 H932 0.950 . S
C952 C951 1.414 . S
C952 C953 1.374 . S
C953 H933 0.950 . S
C953 C949 1.385 . S
C953 C952 1.374 . S
C954 C951 1.499 . S
C954 C955 1.373 . S
C954 C956 1.389 . S
C955 H934 0.950 . S
C955 C954 1.373 . S
C955 C971 1.377 . S
C956 C954 1.389 . S
C956 C957 1.524 . S
C956 C970 1.377 . S
C957 C956 1.524 . S
C957 C958 1.397 . S
C957 C962 1.363 . S
C958 H935 0.950 . S
C958 C957 1.397 . S
C958 C959 1.334 . S
C959 H936 0.950 . S
C959 C958 1.334 . S
C959 C960 1.287 . S
C960 C959 1.287 . S
C960 C961 1.524 . S
C960 H979 0.913 . S
C961 H937 0.950 . S
C961 C960 1.524 . S
C961 C962 1.415 . S
C962 H938 0.950 . S
C962 C957 1.363 . S
C962 C961 1.415 . S
C963 H939 0.951 . S
C963 C964 1.366 1_655 S
C963 C965 1.388 1_655 S
C964 C963 1.366 1_455 S
C964 C968 1.385 . S
C965 H940 0.951 1_455 S
C965 C963 1.388 1_455 S
C965 C966 1.366 . S
C966 C965 1.366 . S
C966 C967 1.414 . S
C966 C969 1.499 . S
C967 H941 0.950 . S
C967 C966 1.414 . S
C967 C968 1.374 . S
C968 H942 0.950 . S
C968 C964 1.385 . S
C968 C967 1.374 . S
C969 C966 1.499 . S
C969 C970 1.373 . S
C969 C971 1.389 . S
C970 H943 0.950 . S
C970 C956 1.377 . S
C970 C969 1.373 . S
C971 C955 1.377 . S
C971 C969 1.389 . S
C971 C972 1.524 . S
C972 C971 1.524 . S
C972 C973 1.397 . S
C972 C977 1.363 1_455 S
C973 H944 0.950 . S
C973 C972 1.397 . S
C973 C974 1.334 1_455 S
C974 H945 0.950 . S
C974 C973 1.334 1_655 S
C974 C975 1.287 . S
C975 C974 1.287 . S
C975 C976 1.524 . S
C975 H978 0.999 . S
C976 H946 0.950 . S
C976 C975 1.524 . S
C976 C977 1.415 . S
C977 H947 0.950 . S
C977 C972 1.363 1_655 S
C977 C976 1.415 . S
H978 C975 0.999 . S
H979 C960 0.913 . S
H980 C998 0.951 . S
H981 C1000 0.951 . S
H982 C1002 0.950 . S
H983 C1003 0.950 . S
H984 C1005 0.950 . S
H985 C1008 0.950 . S
H986 C1009 0.950 . S
H987 C1011 0.950 . S
H988 C1012 0.950 . S
H989 C1013 0.951 . S
H990 C1015 0.951 . S
H991 C1017 0.950 . S
H992 C1018 0.950 . S
H993 C1020 0.950 . S
H994 C1023 0.950 . S
H995 C1024 0.950 . S
H996 C1026 0.950 . S
H997 C1027 0.950 . S
C998 H980 0.951 . S
C998 C999 1.366 . S
C998 C1000 1.388 . S
C999 C998 1.366 . S
C999 C1003 1.385 . S
C1000 H981 0.951 . S
C1000 C998 1.388 . S
C1000 C1001 1.366 . S
C1001 C1000 1.366 . S
C1001 C1002 1.414 . S
C1001 C1004 1.499 . S
C1002 H982 0.950 . S
C1002 C1001 1.414 . S
C1002 C1003 1.374 . S
C1003 H983 0.950 . S
C1003 C999 1.385 . S
C1003 C1002 1.374 . S
C1004 C1001 1.499 . S
C1004 C1005 1.373 . S
C1004 C1006 1.389 . S
C1005 H984 0.950 . S
C1005 C1004 1.373 . S
C1005 C1021 1.377 . S
C1006 C1004 1.389 . S
C1006 C1007 1.524 . S
C1006 C1020 1.377 . S
C1007 C1006 1.524 . S
C1007 C1008 1.397 1_655 S
C1007 C1012 1.363 . S
C1008 H985 0.950 . S
C1008 C1007 1.397 1_455 S
C1008 C1009 1.334 . S
C1009 H986 0.950 . S
C1009 C1008 1.334 . S
C1009 C1010 1.287 . S
C1010 C1009 1.287 . S
C1010 C1011 1.524 . S
C1010 H1029 0.913 . S
C1011 H987 0.950 . S
C1011 C1010 1.524 . S
C1011 C1012 1.415 1_455 S
C1012 H988 0.950 . S
C1012 C1007 1.363 . S
C1012 C1011 1.415 1_655 S
C1013 H989 0.951 . S
C1013 C1014 1.366 . S
C1013 C1015 1.388 . S
C1014 C1013 1.366 . S
C1014 C1018 1.385 . S
C1015 H990 0.951 . S
C1015 C1013 1.388 . S
C1015 C1016 1.366 . S
C1016 C1015 1.366 . S
C1016 C1017 1.414 . S
C1016 C1019 1.499 . S
C1017 H991 0.950 . S
C1017 C1016 1.414 . S
C1017 C1018 1.374 . S
C1018 H992 0.950 . S
C1018 C1014 1.385 . S
C1018 C1017 1.374 . S
C1019 C1016 1.499 . S
C1019 C1020 1.373 . S
C1019 C1021 1.389 . S
C1020 H993 0.950 . S
C1020 C1006 1.377 . S
C1020 C1019 1.373 . S
C1021 C1005 1.377 . S
C1021 C1019 1.389 . S
C1021 C1022 1.524 . S
C1022 C1021 1.524 . S
C1022 C1023 1.397 . S
C1022 C1027 1.363 . S
C1023 H994 0.950 . S
C1023 C1022 1.397 . S
C1023 C1024 1.334 . S
C1024 H995 0.950 . S
C1024 C1023 1.334 . S
C1024 C1025 1.287 . S
C1025 C1024 1.287 . S
C1025 C1026 1.524 . S
C1025 H1028 0.999 . S
C1026 H996 0.950 . S
C1026 C1025 1.524 . S
C1026 C1027 1.415 . S
C1027 H997 0.950 . S
C1027 C1022 1.363 . S
C1027 C1026 1.415 . S
H1028 C1025 0.999 . S
H1029 C1010 0.913 . S
H1030 C1048 0.951 . S
H1031 C1050 0.951 . S
H1032 C1052 0.950 . S
H1033 C1053 0.950 . S
H1034 C1055 0.950 . S
H1035 C1058 0.950 . S
H1036 C1059 0.950 . S
H1037 C1061 0.950 . S
H1038 C1062 0.950 . S
H1039 C1063 0.951 . S
H1040 C1065 0.951 . S
H1041 C1067 0.950 . S
H1042 C1068 0.950 . S
H1043 C1070 0.950 . S
H1044 C1073 0.950 . S
H1045 C1074 0.950 . S
H1046 C1076 0.950 . S
H1047 C1077 0.950 . S
C1048 H1030 0.951 . S
C1048 C1049 1.366 . S
C1048 C1050 1.388 . S
C1049 C1048 1.366 . S
C1049 C1053 1.385 . S
C1050 H1031 0.951 . S
C1050 C1048 1.388 . S
C1050 C1051 1.366 . S
C1051 C1050 1.366 . S
C1051 C1052 1.414 . S
C1051 C1054 1.499 . S
C1052 H1032 0.950 . S
C1052 C1051 1.414 . S
C1052 C1053 1.374 . S
C1053 H1033 0.950 . S
C1053 C1049 1.385 . S
C1053 C1052 1.374 . S
C1054 C1051 1.499 . S
C1054 C1055 1.373 . S
C1054 C1056 1.389 . S
C1055 H1034 0.950 . S
C1055 C1054 1.373 . S
C1055 C1071 1.377 . S
C1056 C1054 1.389 . S
C1056 C1057 1.524 . S
C1056 C1070 1.377 . S
C1057 C1056 1.524 . S
C1057 C1058 1.397 . S
C1057 C1062 1.363 . S
C1058 H1035 0.950 . S
C1058 C1057 1.397 . S
C1058 C1059 1.334 . S
C1059 H1036 0.950 . S
C1059 C1058 1.334 . S
C1059 C1060 1.287 . S
C1060 C1059 1.287 . S
C1060 C1061 1.524 . S
C1060 H1079 0.913 . S
C1061 H1037 0.950 . S
C1061 C1060 1.524 . S
C1061 C1062 1.415 . S
C1062 H1038 0.950 . S
C1062 C1057 1.363 . S
C1062 C1061 1.415 . S
C1063 H1039 0.951 . S
C1063 C1064 1.366 . S
C1063 C1065 1.388 . S
C1064 C1063 1.366 . S
C1064 C1068 1.385 . S
C1065 H1040 0.951 . S
C1065 C1063 1.388 . S
C1065 C1066 1.366 . S
C1066 C1065 1.366 . S
C1066 C1067 1.414 . S
C1066 C1069 1.499 . S
C1067 H1041 0.950 . S
C1067 C1066 1.414 . S
C1067 C1068 1.374 . S
C1068 H1042 0.950 . S
C1068 C1064 1.385 . S
C1068 C1067 1.374 . S
C1069 C1066 1.499 . S
C1069 C1070 1.373 . S
C1069 C1071 1.389 . S
C1070 H1043 0.950 . S
C1070 C1056 1.377 . S
C1070 C1069 1.373 . S
C1071 C1055 1.377 . S
C1071 C1069 1.389 . S
C1071 C1072 1.524 . S
C1072 C1071 1.524 . S
C1072 C1073 1.397 . S
C1072 C1077 1.363 . S
C1073 H1044 0.950 . S
C1073 C1072 1.397 . S
C1073 C1074 1.334 . S
C1074 H1045 0.950 . S
C1074 C1073 1.334 . S
C1074 C1075 1.287 . S
C1075 C1074 1.287 . S
C1075 C1076 1.524 . S
C1075 H1078 0.999 . S
C1076 H1046 0.950 . S
C1076 C1075 1.524 . S
C1076 C1077 1.415 . S
C1077 H1047 0.950 . S
C1077 C1072 1.363 . S
C1077 C1076 1.415 . S
H1078 C1075 0.999 . S
H1079 C1060 0.913 . S
H1080 C1098 0.951 . S
H1081 C1100 0.951 . S
H1082 C1102 0.950 . S
H1083 C1103 0.950 . S
H1084 C1105 0.950 . S
H1085 C1108 0.950 . S
H1086 C1109 0.950 . S
H1087 C1111 0.950 . S
H1088 C1112 0.950 . S
H1089 C1113 0.951 . S
H1090 C1115 0.951 . S
H1091 C1117 0.950 . S
H1092 C1118 0.950 . S
H1093 C1120 0.950 . S
H1094 C1123 0.950 . S
H1095 C1124 0.950 . S
H1096 C1126 0.950 . S
H1097 C1127 0.950 . S
C1098 H1080 0.951 . S
C1098 C1099 1.366 . S
C1098 C1100 1.388 . S
C1099 C1098 1.366 . S
C1099 C1103 1.385 . S
C1100 H1081 0.951 . S
C1100 C1098 1.388 . S
C1100 C1101 1.366 . S
C1101 C1100 1.366 . S
C1101 C1102 1.414 . S
C1101 C1104 1.499 . S
C1102 H1082 0.950 . S
C1102 C1101 1.414 . S
C1102 C1103 1.374 . S
C1103 H1083 0.950 . S
C1103 C1099 1.385 . S
C1103 C1102 1.374 . S
C1104 C1101 1.499 . S
C1104 C1105 1.373 . S
C1104 C1106 1.389 . S
C1105 H1084 0.950 . S
C1105 C1104 1.373 . S
C1105 C1121 1.377 . S
C1106 C1104 1.389 . S
C1106 C1107 1.524 . S
C1106 C1120 1.377 . S
C1107 C1106 1.524 . S
C1107 C1108 1.397 . S
C1107 C1112 1.363 . S
C1108 H1085 0.950 . S
C1108 C1107 1.397 . S
C1108 C1109 1.334 . S
C1109 H1086 0.950 . S
C1109 C1108 1.334 . S
C1109 C1110 1.287 . S
C1110 C1109 1.287 . S
C1110 C1111 1.524 . S
C1110 H1129 0.913 . S
C1111 H1087 0.950 . S
C1111 C1110 1.524 . S
C1111 C1112 1.415 . S
C1112 H1088 0.950 . S
C1112 C1107 1.363 . S
C1112 C1111 1.415 . S
C1113 H1089 0.951 . S
C1113 C1114 1.366 . S
C1113 C1115 1.388 . S
C1114 C1113 1.366 . S
C1114 C1118 1.385 . S
C1115 H1090 0.951 . S
C1115 C1113 1.388 . S
C1115 C1116 1.366 . S
C1116 C1115 1.366 . S
C1116 C1117 1.414 . S
C1116 C1119 1.499 . S
C1117 H1091 0.950 . S
C1117 C1116 1.414 . S
C1117 C1118 1.374 . S
C1118 H1092 0.950 . S
C1118 C1114 1.385 . S
C1118 C1117 1.374 . S
C1119 C1116 1.499 . S
C1119 C1120 1.373 . S
C1119 C1121 1.389 . S
C1120 H1093 0.950 . S
C1120 C1106 1.377 . S
C1120 C1119 1.373 . S
C1121 C1105 1.377 . S
C1121 C1119 1.389 . S
C1121 C1122 1.524 . S
C1122 C1121 1.524 . S
C1122 C1123 1.397 . S
C1122 C1127 1.363 . S
C1123 H1094 0.950 . S
C1123 C1122 1.397 . S
C1123 C1124 1.334 . S
C1124 H1095 0.950 . S
C1124 C1123 1.334 . S
C1124 C1125 1.287 . S
C1125 C1124 1.287 . S
C1125 C1126 1.524 . S
C1125 H1128 0.999 . S
C1126 H1096 0.950 . S
C1126 C1125 1.524 . S
C1126 C1127 1.415 . S
C1127 H1097 0.950 . S
C1127 C1122 1.363 . S
C1127 C1126 1.415 . S
H1128 C1125 0.999 . S
H1129 C1110 0.913 . S
H1130 C1148 0.951 . S
H1131 C1150 0.951 . S
H1132 C1152 0.950 . S
H1133 C1153 0.950 . S
H1134 C1155 0.950 . S
H1135 C1158 0.950 . S
H1136 C1159 0.950 . S
H1137 C1161 0.950 . S
H1138 C1162 0.950 . S
H1139 C1163 0.951 . S
H1140 C1165 0.951 . S
H1141 C1167 0.950 . S
H1142 C1168 0.950 1_545 S
H1143 C1170 0.950 . S
H1144 C1173 0.950 . S
H1145 C1174 0.950 1_545 S
H1146 C1176 0.950 . S
H1147 C1177 0.950 . S
C1148 H1130 0.951 . S
C1148 C1149 1.366 . S
C1148 C1150 1.388 . S
C1149 C1148 1.366 . S
C1149 C1153 1.385 . S
C1150 H1131 0.951 . S
C1150 C1148 1.388 . S
C1150 C1151 1.366 . S
C1151 C1150 1.366 . S
C1151 C1152 1.414 . S
C1151 C1154 1.499 . S
C1152 H1132 0.950 . S
C1152 C1151 1.414 . S
C1152 C1153 1.374 . S
C1153 H1133 0.950 . S
C1153 C1149 1.385 . S
C1153 C1152 1.374 . S
C1154 C1151 1.499 . S
C1154 C1155 1.373 . S
C1154 C1156 1.389 . S
C1155 H1134 0.950 . S
C1155 C1154 1.373 . S
C1155 C1171 1.377 . S
C1156 C1154 1.389 . S
C1156 C1157 1.524 . S
C1156 C1170 1.377 . S
C1157 C1156 1.524 . S
C1157 C1158 1.397 . S
C1157 C1162 1.363 . S
C1158 H1135 0.950 . S
C1158 C1157 1.397 . S
C1158 C1159 1.334 . S
C1159 H1136 0.950 . S
C1159 C1158 1.334 . S
C1159 C1160 1.287 . S
C1160 C1159 1.287 . S
C1160 C1161 1.524 . S
C1160 H1179 0.913 . S
C1161 H1137 0.950 . S
C1161 C1160 1.524 . S
C1161 C1162 1.415 . S
C1162 H1138 0.950 . S
C1162 C1157 1.363 . S
C1162 C1161 1.415 . S
C1163 H1139 0.951 . S
C1163 C1164 1.366 . S
C1163 C1165 1.388 . S
C1164 C1163 1.366 . S
C1164 C1168 1.385 . S
C1165 H1140 0.951 . S
C1165 C1163 1.388 . S
C1165 C1166 1.366 . S
C1166 C1165 1.366 . S
C1166 C1167 1.414 . S
C1166 C1169 1.499 . S
C1167 H1141 0.950 . S
C1167 C1166 1.414 . S
C1167 C1168 1.374 . S
C1168 H1142 0.950 1_565 S
C1168 C1164 1.385 . S
C1168 C1167 1.374 . S
C1169 C1166 1.499 . S
C1169 C1170 1.373 . S
C1169 C1171 1.389 . S
C1170 H1143 0.950 . S
C1170 C1156 1.377 . S
C1170 C1169 1.373 . S
C1171 C1155 1.377 . S
C1171 C1169 1.389 . S
C1171 C1172 1.524 . S
C1172 C1171 1.524 . S
C1172 C1173 1.397 . S
C1172 C1177 1.363 . S
C1173 H1144 0.950 . S
C1173 C1172 1.397 . S
C1173 C1174 1.334 . S
C1174 H1145 0.950 1_565 S
C1174 C1173 1.334 . S
C1174 C1175 1.287 . S
C1175 C1174 1.287 . S
C1175 C1176 1.524 . S
C1175 H1178 0.999 . S
C1176 H1146 0.950 . S
C1176 C1175 1.524 . S
C1176 C1177 1.415 . S
C1177 H1147 0.950 . S
C1177 C1172 1.363 . S
C1177 C1176 1.415 . S
H1178 C1175 0.999 . S
H1179 C1160 0.913 . S
H1180 C1198 0.951 . S
H1181 C1200 0.951 . S
H1182 C1202 0.950 . S
H1183 C1203 0.950 . S
H1184 C1205 0.950 . S
H1185 C1208 0.950 . S
H1186 C1209 0.950 . S
H1187 C1211 0.950 . S
H1188 C1212 0.950 . S
H1189 C1213 0.951 . S
H1190 C1215 0.951 . S
H1191 C1217 0.950 . S
H1192 C1218 0.950 . S
H1193 C1220 0.950 . S
H1194 C1223 0.950 . S
H1195 C1224 0.950 . S
H1196 C1226 0.950 . S
H1197 C1227 0.950 . S
C1198 H1180 0.951 . S
C1198 C1199 1.366 . S
C1198 C1200 1.388 . S
C1199 C1198 1.366 . S
C1199 C1203 1.385 . S
C1200 H1181 0.951 . S
C1200 C1198 1.388 . S
C1200 C1201 1.366 . S
C1201 C1200 1.366 . S
C1201 C1202 1.414 . S
C1201 C1204 1.499 . S
C1202 H1182 0.950 . S
C1202 C1201 1.414 . S
C1202 C1203 1.374 . S
C1203 H1183 0.950 . S
C1203 C1199 1.385 . S
C1203 C1202 1.374 . S
C1204 C1201 1.499 . S
C1204 C1205 1.373 . S
C1204 C1206 1.389 . S
C1205 H1184 0.950 . S
C1205 C1204 1.373 . S
C1205 C1221 1.377 . S
C1206 C1204 1.389 . S
C1206 C1207 1.524 . S
C1206 C1220 1.377 . S
C1207 C1206 1.524 . S
C1207 C1208 1.397 . S
C1207 C1212 1.363 . S
C1208 H1185 0.950 . S
C1208 C1207 1.397 . S
C1208 C1209 1.334 . S
C1209 H1186 0.950 . S
C1209 C1208 1.334 . S
C1209 C1210 1.287 . S
C1210 C1209 1.287 . S
C1210 C1211 1.524 . S
C1210 H1229 0.913 . S
C1211 H1187 0.950 . S
C1211 C1210 1.524 . S
C1211 C1212 1.415 . S
C1212 H1188 0.950 . S
C1212 C1207 1.363 . S
C1212 C1211 1.415 . S
C1213 H1189 0.951 . S
C1213 C1214 1.366 . S
C1213 C1215 1.388 . S
C1214 C1213 1.366 . S
C1214 C1218 1.385 . S
C1215 H1190 0.951 . S
C1215 C1213 1.388 . S
C1215 C1216 1.366 . S
C1216 C1215 1.366 . S
C1216 C1217 1.414 . S
C1216 C1219 1.499 . S
C1217 H1191 0.950 . S
C1217 C1216 1.414 . S
C1217 C1218 1.374 . S
C1218 H1192 0.950 . S
C1218 C1214 1.385 . S
C1218 C1217 1.374 . S
C1219 C1216 1.499 . S
C1219 C1220 1.373 . S
C1219 C1221 1.389 . S
C1220 H1193 0.950 . S
C1220 C1206 1.377 . S
C1220 C1219 1.373 . S
C1221 C1205 1.377 . S
C1221 C1219 1.389 . S
C1221 C1222 1.524 . S
C1222 C1221 1.524 . S
C1222 C1223 1.397 . S
C1222 C1227 1.363 . S
C1223 H1194 0.950 . S
C1223 C1222 1.397 . S
C1223 C1224 1.334 . S
C1224 H1195 0.950 . S
C1224 C1223 1.334 . S
C1224 C1225 1.287 . S
C1225 C1224 1.287 . S
C1225 C1226 1.524 . S
C1225 H1228 0.999 . S
C1226 H1196 0.950 . S
C1226 C1225 1.524 . S
C1226 C1227 1.415 . S
C1227 H1197 0.950 . S
C1227 C1222 1.363 . S
C1227 C1226 1.415 . S
H1228 C1225 0.999 . S
H1229 C1210 0.913 . S
H1230 C1248 0.951 . S
H1231 C1250 0.951 . S
H1232 C1252 0.950 . S
H1233 C1253 0.950 . S
H1234 C1255 0.950 . S
H1235 C1258 0.950 . S
H1236 C1259 0.950 . S
H1237 C1261 0.950 . S
H1238 C1262 0.950 . S
H1239 C1263 0.951 . S
H1240 C1265 0.951 . S
H1241 C1267 0.950 . S
H1242 C1268 0.950 . S
H1243 C1270 0.950 . S
H1244 C1273 0.950 . S
H1245 C1274 0.912 1_565 S
H1246 C1276 0.950 . S
H1247 C1277 0.950 . S
C1248 H1230 0.951 . S
C1248 C1249 1.366 . S
C1248 C1250 1.388 . S
C1249 C1248 1.366 . S
C1249 C1253 1.385 . S
C1250 H1231 0.951 . S
C1250 C1248 1.388 . S
C1250 C1251 1.366 . S
C1251 C1250 1.366 . S
C1251 C1252 1.414 . S
C1251 C1254 1.466 1_554 S
C1252 H1232 0.950 . S
C1252 C1251 1.414 . S
C1252 C1253 1.374 . S
C1253 H1233 0.950 . S
C1253 C1249 1.385 . S
C1253 C1252 1.374 . S
C1254 C1251 1.466 1_556 S
C1254 C1255 1.395 . S
C1254 C1256 1.400 . S
C1255 H1234 0.950 . S
C1255 C1254 1.395 . S
C1255 C1271 1.377 . S
C1256 C1254 1.400 . S
C1256 C1257 1.524 1_556 S
C1256 C1270 1.377 . S
C1257 C1256 1.524 1_554 S
C1257 C1258 1.397 . S
C1257 C1262 1.363 . S
C1258 H1235 0.950 . S
C1258 C1257 1.397 . S
C1258 C1259 1.334 . S
C1259 H1236 0.950 . S
C1259 C1258 1.334 . S
C1259 C1260 1.287 . S
C1260 C1259 1.287 . S
C1260 C1261 1.524 . S
C1260 H1279 0.913 . S
C1261 H1237 0.950 . S
C1261 C1260 1.524 . S
C1261 C1262 1.415 . S
C1262 H1238 0.950 . S
C1262 C1257 1.363 . S
C1262 C1261 1.415 . S
C1263 H1239 0.951 . S
C1263 C1264 1.366 . S
C1263 C1265 1.388 . S
C1264 C1263 1.366 . S
C1264 C1268 1.385 . S
C1265 H1240 0.951 . S
C1265 C1263 1.388 . S
C1265 C1266 1.366 . S
C1266 C1265 1.366 . S
C1266 C1267 1.414 . S
C1266 C1269 1.499 . S
C1267 H1241 0.950 . S
C1267 C1266 1.414 . S
C1267 C1268 1.374 . S
C1268 H1242 0.950 . S
C1268 C1264 1.385 . S
C1268 C1267 1.374 . S
C1269 C1266 1.499 . S
C1269 C1270 1.373 . S
C1269 C1271 1.389 . S
C1270 H1243 0.950 . S
C1270 C1256 1.377 . S
C1270 C1269 1.373 . S
C1271 C1255 1.377 . S
C1271 C1269 1.389 . S
C1271 C1272 1.524 . S
C1272 C1271 1.524 . S
C1272 C1273 1.397 . S
C1272 C1277 1.363 . S
C1273 H1244 0.950 . S
C1273 C1272 1.397 . S
C1273 C1274 1.369 . S
C1274 H1245 0.912 1_545 S
C1274 C1273 1.369 . S
C1274 C1275 1.292 . S
C1275 C1274 1.292 . S
C1275 C1276 1.524 . S
C1275 H1278 0.999 1_545 S
C1276 H1246 0.950 . S
C1276 C1275 1.524 . S
C1276 C1277 1.415 . S
C1277 H1247 0.950 . S
C1277 C1272 1.363 . S
C1277 C1276 1.415 . S
H1278 C1275 0.999 1_565 S
H1279 C1260 0.913 . S
H1280 C1298 0.951 . S
H1281 C1300 0.951 . S
H1282 C1302 0.950 . S
H1283 C1303 0.950 . S
H1284 C1305 0.950 . S
H1285 C1308 0.950 . S
H1286 C1309 0.950 . S
H1287 C1311 0.950 . S
H1288 C1312 0.950 . S
H1289 C1313 0.951 . S
H1290 C1315 0.951 . S
H1291 C1317 0.950 . S
H1292 C1318 0.950 . S
H1293 C1320 0.950 . S
H1294 C1323 0.950 . S
H1295 C1324 0.950 . S
H1296 C1326 0.950 . S
H1297 C1327 0.950 . S
C1298 H1280 0.951 . S
C1298 C1299 1.366 . S
C1298 C1300 1.388 . S
C1299 C1298 1.366 . S
C1299 C1303 1.385 . S
C1300 H1281 0.951 . S
C1300 C1298 1.388 . S
C1300 C1301 1.366 . S
C1301 C1300 1.366 . S
C1301 C1302 1.414 . S
C1301 C1304 1.499 . S
C1302 H1282 0.950 . S
C1302 C1301 1.414 . S
C1302 C1303 1.374 . S
C1303 H1283 0.950 . S
C1303 C1299 1.385 . S
C1303 C1302 1.374 . S
C1304 C1301 1.499 . S
C1304 C1305 1.373 . S
C1304 C1306 1.389 . S
C1305 H1284 0.950 . S
C1305 C1304 1.373 . S
C1305 C1321 1.377 . S
C1306 C1304 1.389 . S
C1306 C1307 1.524 . S
C1306 C1320 1.377 . S
C1307 C1306 1.524 . S
C1307 C1308 1.397 . S
C1307 C1312 1.363 . S
C1308 H1285 0.950 . S
C1308 C1307 1.397 . S
C1308 C1309 1.334 . S
C1309 H1286 0.950 . S
C1309 C1308 1.334 . S
C1309 C1310 1.287 . S
C1310 C1309 1.287 . S
C1310 C1311 1.524 . S
C1310 H1329 0.913 . S
C1311 H1287 0.950 . S
C1311 C1310 1.524 . S
C1311 C1312 1.415 . S
C1312 H1288 0.950 . S
C1312 C1307 1.363 . S
C1312 C1311 1.415 . S
C1313 H1289 0.951 . S
C1313 C1314 1.366 . S
C1313 C1315 1.388 . S
C1314 C1313 1.366 . S
C1314 C1318 1.385 . S
C1315 H1290 0.951 . S
C1315 C1313 1.388 . S
C1315 C1316 1.366 . S
C1316 C1315 1.366 . S
C1316 C1317 1.414 . S
C1316 C1319 1.499 . S
C1317 H1291 0.950 . S
C1317 C1316 1.414 . S
C1317 C1318 1.374 . S
C1318 H1292 0.950 . S
C1318 C1314 1.385 . S
C1318 C1317 1.374 . S
C1319 C1316 1.499 . S
C1319 C1320 1.373 . S
C1319 C1321 1.389 . S
C1320 H1293 0.950 . S
C1320 C1306 1.377 . S
C1320 C1319 1.373 . S
C1321 C1305 1.377 . S
C1321 C1319 1.389 . S
C1321 C1322 1.524 . S
C1322 C1321 1.524 . S
C1322 C1323 1.397 . S
C1322 C1327 1.363 . S
C1323 H1294 0.950 . S
C1323 C1322 1.397 . S
C1323 C1324 1.334 . S
C1324 H1295 0.950 . S
C1324 C1323 1.334 . S
C1324 C1325 1.287 . S
C1325 C1324 1.287 . S
C1325 C1326 1.524 . S
C1325 H1328 0.999 . S
C1326 H1296 0.950 . S
C1326 C1325 1.524 . S
C1326 C1327 1.415 . S
C1327 H1297 0.950 . S
C1327 C1322 1.363 . S
C1327 C1326 1.415 . S
H1328 C1325 0.999 . S
H1329 C1310 0.913 . S
H1330 C1348 0.951 . S
H1331 C1350 0.951 . S
H1332 C1352 0.950 1_556 S
H1333 C1353 0.950 . S
H1334 C1355 0.950 . S
H1335 C1358 0.950 . S
H1336 C1359 0.950 . S
H1337 C1361 0.950 . S
H1338 C1362 0.950 . S
H1339 C1363 0.951 . S
H1340 C1365 0.951 . S
H1341 C1367 0.950 . S
H1342 C1368 0.950 . S
H1343 C1370 0.950 . S
H1344 C1373 0.950 . S
H1345 C1374 0.950 . S
H1346 C1376 0.950 . S
H1347 C1377 0.950 . S
C1348 H1330 0.951 . S
C1348 C1349 1.366 . S
C1348 C1350 1.388 . S
C1349 C1348 1.366 . S
C1349 C1353 1.385 . S
C1350 H1331 0.951 . S
C1350 C1348 1.388 . S
C1350 C1351 1.366 1_554 S
C1351 C1350 1.366 1_556 S
C1351 C1352 1.414 1_556 S
C1351 C1354 1.499 . S
C1352 H1332 0.950 1_554 S
C1352 C1351 1.414 1_554 S
C1352 C1353 1.374 . S
C1353 H1333 0.950 . S
C1353 C1349 1.385 . S
C1353 C1352 1.374 . S
C1354 C1351 1.499 . S
C1354 C1355 1.373 . S
C1354 C1356 1.389 . S
C1355 H1334 0.950 . S
C1355 C1354 1.373 . S
C1355 C1371 1.377 . S
C1356 C1354 1.389 . S
C1356 C1357 1.524 . S
C1356 C1370 1.377 . S
C1357 C1356 1.524 . S
C1357 C1358 1.397 . S
C1357 C1362 1.363 . S
C1358 H1335 0.950 . S
C1358 C1357 1.397 . S
C1358 C1359 1.334 1_556 S
C1359 H1336 0.950 . S
C1359 C1358 1.334 1_554 S
C1359 C1360 1.287 . S
C1360 C1359 1.287 . S
C1360 C1361 1.524 . S
C1360 H1379 0.913 . S
C1361 H1337 0.950 . S
C1361 C1360 1.524 . S
C1361 C1362 1.415 1_554 S
C1362 H1338 0.950 . S
C1362 C1357 1.363 . S
C1362 C1361 1.415 1_556 S
C1363 H1339 0.951 . S
C1363 C1364 1.366 . S
C1363 C1365 1.388 . S
C1364 C1363 1.366 . S
C1364 C1368 1.385 . S
C1365 H1340 0.951 . S
C1365 C1363 1.388 . S
C1365 C1366 1.366 . S
C1366 C1365 1.366 . S
C1366 C1367 1.414 . S
C1366 C1369 1.499 . S
C1367 H1341 0.950 . S
C1367 C1366 1.414 . S
C1367 C1368 1.374 . S
C1368 H1342 0.950 . S
C1368 C1364 1.385 . S
C1368 C1367 1.374 . S
C1369 C1366 1.499 . S
C1369 C1370 1.373 . S
C1369 C1371 1.389 . S
C1370 H1343 0.950 . S
C1370 C1356 1.377 . S
C1370 C1369 1.373 . S
C1371 C1355 1.377 . S
C1371 C1369 1.389 . S
C1371 C1372 1.524 . S
C1372 C1371 1.524 . S
C1372 C1373 1.397 . S
C1372 C1377 1.363 . S
C1373 H1344 0.950 . S
C1373 C1372 1.397 . S
C1373 C1374 1.334 . S
C1374 H1345 0.950 . S
C1374 C1373 1.334 . S
C1374 C1375 1.287 . S
C1375 C1374 1.287 . S
C1375 C1376 1.524 . S
C1375 H1378 0.999 . S
C1376 H1346 0.950 . S
C1376 C1375 1.524 . S
C1376 C1377 1.415 . S
C1377 H1347 0.950 . S
C1377 C1372 1.363 . S
C1377 C1376 1.415 . S
H1378 C1375 0.999 . S
H1379 C1360 0.913 . S
H1380 C1398 0.951 . S
H1381 C1400 0.951 . S
H1382 C1402 0.950 . S
H1383 C1403 0.950 . S
H1384 C1405 0.950 . S
H1385 C1408 0.950 . S
H1386 C1409 0.950 . S
H1387 C1411 0.950 . S
H1388 C1412 0.950 . S
H1389 C1413 0.951 . S
H1390 C1415 0.951 . S
H1391 C1417 0.950 . S
H1392 C1418 0.950 . S
H1393 C1420 0.950 . S
H1394 C1423 0.950 . S
H1395 C1424 0.950 . S
H1396 C1426 0.950 . S
H1397 C1427 0.950 . S
C1398 H1380 0.951 . S
C1398 C1399 1.366 . S
C1398 C1400 1.388 . S
C1399 C1398 1.366 . S
C1399 C1403 1.385 . S
C1400 H1381 0.951 . S
C1400 C1398 1.388 . S
C1400 C1401 1.366 . S
C1401 C1400 1.366 . S
C1401 C1402 1.414 . S
C1401 C1404 1.499 . S
C1402 H1382 0.950 . S
C1402 C1401 1.414 . S
C1402 C1403 1.374 . S
C1403 H1383 0.950 . S
C1403 C1399 1.385 . S
C1403 C1402 1.374 . S
C1404 C1401 1.499 . S
C1404 C1405 1.373 . S
C1404 C1406 1.389 . S
C1405 H1384 0.950 . S
C1405 C1404 1.373 . S
C1405 C1421 1.377 . S
C1406 C1404 1.389 . S
C1406 C1407 1.524 . S
C1406 C1420 1.377 . S
C1407 C1406 1.524 . S
C1407 C1408 1.397 . S
C1407 C1412 1.363 . S
C1408 H1385 0.950 . S
C1408 C1407 1.397 . S
C1408 C1409 1.334 . S
C1409 H1386 0.950 . S
C1409 C1408 1.334 . S
C1409 C1410 1.304 . S
C1410 C1409 1.304 . S
C1410 C1411 1.537 . S
C1410 H1429 0.879 1_565 S
C1411 H1387 0.950 . S
C1411 C1410 1.537 . S
C1411 C1412 1.415 . S
C1412 H1388 0.950 . S
C1412 C1407 1.363 . S
C1412 C1411 1.415 . S
C1413 H1389 0.951 . S
C1413 C1414 1.366 . S
C1413 C1415 1.388 . S
C1414 C1413 1.366 . S
C1414 C1418 1.385 . S
C1415 H1390 0.951 . S
C1415 C1413 1.388 . S
C1415 C1416 1.366 . S
C1416 C1415 1.366 . S
C1416 C1417 1.414 . S
C1416 C1419 1.499 . S
C1417 H1391 0.950 . S
C1417 C1416 1.414 . S
C1417 C1418 1.374 . S
C1418 H1392 0.950 . S
C1418 C1414 1.385 . S
C1418 C1417 1.374 . S
C1419 C1416 1.499 . S
C1419 C1420 1.373 . S
C1419 C1421 1.389 . S
C1420 H1393 0.950 . S
C1420 C1406 1.377 . S
C1420 C1419 1.373 . S
C1421 C1405 1.377 . S
C1421 C1419 1.389 . S
C1421 C1422 1.524 . S
C1422 C1421 1.524 . S
C1422 C1423 1.397 . S
C1422 C1427 1.363 . S
C1423 H1394 0.950 . S
C1423 C1422 1.397 . S
C1423 C1424 1.334 . S
C1424 H1395 0.950 . S
C1424 C1423 1.334 . S
C1424 C1425 1.287 . S
C1425 C1424 1.287 . S
C1425 C1426 1.524 . S
C1425 H1428 0.999 . S
C1426 H1396 0.950 . S
C1426 C1425 1.524 . S
C1426 C1427 1.415 . S
C1427 H1397 0.950 . S
C1427 C1422 1.363 . S
C1427 C1426 1.415 . S
H1428 C1425 0.999 . S
H1429 C1410 0.879 1_545 S
H1430 C1448 0.951 . S
H1431 C1450 0.951 . S
H1432 C1452 0.950 . S
H1433 C1453 0.950 . S
H1434 C1455 0.950 . S
H1435 C1458 0.950 . S
H1436 C1459 0.950 . S
H1437 C1461 0.950 . S
H1438 C1462 0.950 . S
H1439 C1463 0.951 . S
H1440 C1465 0.951 . S
H1441 C1467 0.950 . S
H1442 C1468 0.950 . S
H1443 C1470 0.950 . S
H1444 C1473 0.950 . S
H1445 C1474 0.950 . S
H1446 C1476 0.950 . S
H1447 C1477 0.950 . S
C1448 H1430 0.951 . S
C1448 C1449 1.366 . S
C1448 C1450 1.388 . S
C1449 C1448 1.366 . S
C1449 C1453 1.385 . S
C1450 H1431 0.951 . S
C1450 C1448 1.388 . S
C1450 C1451 1.366 . S
C1451 C1450 1.366 . S
C1451 C1452 1.414 . S
C1451 C1454 1.499 . S
C1452 H1432 0.950 . S
C1452 C1451 1.414 . S
C1452 C1453 1.374 . S
C1453 H1433 0.950 . S
C1453 C1449 1.385 . S
C1453 C1452 1.374 . S
C1454 C1451 1.499 . S
C1454 C1455 1.373 . S
C1454 C1456 1.389 . S
C1455 H1434 0.950 . S
C1455 C1454 1.373 . S
C1455 C1471 1.377 . S
C1456 C1454 1.389 . S
C1456 C1457 1.524 . S
C1456 C1470 1.377 . S
C1457 C1456 1.524 . S
C1457 C1458 1.397 . S
C1457 C1462 1.363 . S
C1458 H1435 0.950 . S
C1458 C1457 1.397 . S
C1458 C1459 1.334 . S
C1459 H1436 0.950 . S
C1459 C1458 1.334 . S
C1459 C1460 1.287 . S
C1460 C1459 1.287 . S
C1460 C1461 1.524 . S
C1460 H1479 0.913 . S
C1461 H1437 0.950 . S
C1461 C1460 1.524 . S
C1461 C1462 1.415 . S
C1462 H1438 0.950 . S
C1462 C1457 1.363 . S
C1462 C1461 1.415 . S
C1463 H1439 0.951 . S
C1463 C1464 1.366 . S
C1463 C1465 1.388 . S
C1464 C1463 1.366 . S
C1464 C1468 1.385 . S
C1465 H1440 0.951 . S
C1465 C1463 1.388 . S
C1465 C1466 1.366 . S
C1466 C1465 1.366 . S
C1466 C1467 1.414 . S
C1466 C1469 1.499 . S
C1467 H1441 0.950 . S
C1467 C1466 1.414 . S
C1467 C1468 1.374 . S
C1468 H1442 0.950 . S
C1468 C1464 1.385 . S
C1468 C1467 1.374 . S
C1469 C1466 1.499 . S
C1469 C1470 1.373 . S
C1469 C1471 1.389 . S
C1470 H1443 0.950 . S
C1470 C1456 1.377 . S
C1470 C1469 1.373 . S
C1471 C1455 1.377 . S
C1471 C1469 1.389 . S
C1471 C1472 1.524 . S
C1472 C1471 1.524 . S
C1472 C1473 1.397 . S
C1472 C1477 1.363 . S
C1473 H1444 0.950 . S
C1473 C1472 1.397 . S
C1473 C1474 1.334 . S
C1474 H1445 0.950 . S
C1474 C1473 1.334 . S
C1474 C1475 1.287 . S
C1475 C1474 1.287 . S
C1475 C1476 1.524 . S
C1475 H1478 0.999 . S
C1476 H1446 0.950 . S
C1476 C1475 1.524 . S
C1476 C1477 1.415 . S
C1477 H1447 0.950 . S
C1477 C1472 1.363 . S
C1477 C1476 1.415 . S
H1478 C1475 0.999 . S
H1479 C1460 0.913 . S
H1480 C1498 0.951 . S
H1481 C1500 0.951 . S
H1482 C1502 0.950 . S
H1483 C1503 0.950 . S
H1484 C1505 0.950 . S
H1485 C1508 0.950 . S
H1486 C1509 0.950 . S
H1487 C1511 0.950 . S
H1488 C1512 0.950 . S
H1489 C1513 0.951 . S
H1490 C1515 0.951 . S
H1491 C1517 0.950 . S
H1492 C1518 0.950 . S
H1493 C1520 0.950 . S
H1494 C1523 0.950 . S
H1495 C1524 0.950 . S
H1496 C1526 0.950 . S
H1497 C1527 0.950 . S
C1498 H1480 0.951 . S
C1498 C1499 1.366 . S
C1498 C1500 1.388 . S
C1499 C1498 1.366 . S
C1499 C1503 1.385 . S
C1500 H1481 0.951 . S
C1500 C1498 1.388 . S
C1500 C1501 1.366 . S
C1501 C1500 1.366 . S
C1501 C1502 1.414 . S
C1501 C1504 1.499 . S
C1502 H1482 0.950 . S
C1502 C1501 1.414 . S
C1502 C1503 1.374 . S
C1503 H1483 0.950 . S
C1503 C1499 1.385 . S
C1503 C1502 1.374 . S
C1504 C1501 1.499 . S
C1504 C1505 1.373 . S
C1504 C1506 1.389 . S
C1505 H1484 0.950 . S
C1505 C1504 1.373 . S
C1505 C1521 1.377 . S
C1506 C1504 1.389 . S
C1506 C1507 1.524 . S
C1506 C1520 1.377 . S
C1507 C1506 1.524 . S
C1507 C1508 1.397 . S
C1507 C1512 1.363 . S
C1508 H1485 0.950 . S
C1508 C1507 1.397 . S
C1508 C1509 1.334 . S
C1509 H1486 0.950 . S
C1509 C1508 1.334 . S
C1509 C1510 1.287 . S
C1510 C1509 1.287 . S
C1510 C1511 1.524 . S
C1510 H1529 0.913 . S
C1511 H1487 0.950 . S
C1511 C1510 1.524 . S
C1511 C1512 1.415 . S
C1512 H1488 0.950 . S
C1512 C1507 1.363 . S
C1512 C1511 1.415 . S
C1513 H1489 0.951 . S
C1513 C1514 1.366 . S
C1513 C1515 1.388 . S
C1514 C1513 1.366 . S
C1514 C1518 1.385 . S
C1515 H1490 0.951 . S
C1515 C1513 1.388 . S
C1515 C1516 1.366 . S
C1516 C1515 1.366 . S
C1516 C1517 1.414 . S
C1516 C1519 1.499 . S
C1517 H1491 0.950 . S
C1517 C1516 1.414 . S
C1517 C1518 1.374 . S
C1518 H1492 0.950 . S
C1518 C1514 1.385 . S
C1518 C1517 1.374 . S
C1519 C1516 1.499 . S
C1519 C1520 1.373 . S
C1519 C1521 1.389 . S
C1520 H1493 0.950 . S
C1520 C1506 1.377 . S
C1520 C1519 1.373 . S
C1521 C1505 1.377 . S
C1521 C1519 1.389 . S
C1521 C1522 1.524 . S
C1522 C1521 1.524 . S
C1522 C1523 1.397 . S
C1522 C1527 1.363 . S
C1523 H1494 0.950 . S
C1523 C1522 1.397 . S
C1523 C1524 1.334 . S
C1524 H1495 0.950 . S
C1524 C1523 1.334 . S
C1524 C1525 1.287 . S
C1525 C1524 1.287 . S
C1525 C1526 1.524 . S
C1525 H1528 0.999 . S
C1526 H1496 0.950 . S
C1526 C1525 1.524 . S
C1526 C1527 1.415 . S
C1527 H1497 0.950 . S
C1527 C1522 1.363 . S
C1527 C1526 1.415 . S
H1528 C1525 0.999 . S
H1529 C1510 0.913 . S
H1530 C1548 0.951 . S
H1531 C1550 0.951 . S
H1532 C1552 0.950 . S
H1533 C1553 0.950 . S
H1534 C1555 0.950 . S
H1535 C1558 0.950 . S
H1536 C1559 0.950 . S
H1537 C1561 0.950 . S
H1538 C1562 0.950 . S
H1539 C1563 0.951 1_655 S
H1540 C1565 0.951 . S
H1541 C1567 0.950 . S
H1542 C1568 0.950 . S
H1543 C1570 0.950 . S
H1544 C1573 0.950 . S
H1545 C1574 0.950 . S
H1546 C1576 0.950 1_655 S
H1547 C1577 0.950 . S
C1548 H1530 0.951 . S
C1548 C1549 1.366 . S
C1548 C1550 1.388 . S
C1549 C1548 1.366 . S
C1549 C1553 1.385 . S
C1550 H1531 0.951 . S
C1550 C1548 1.388 . S
C1550 C1551 1.366 . S
C1551 C1550 1.366 . S
C1551 C1552 1.414 . S
C1551 C1554 1.499 . S
C1552 H1532 0.950 . S
C1552 C1551 1.414 . S
C1552 C1553 1.374 . S
C1553 H1533 0.950 . S
C1553 C1549 1.385 . S
C1553 C1552 1.374 . S
C1554 C1551 1.499 . S
C1554 C1555 1.373 . S
C1554 C1556 1.389 . S
C1555 H1534 0.950 . S
C1555 C1554 1.373 . S
C1555 C1571 1.377 . S
C1556 C1554 1.389 . S
C1556 C1557 1.524 . S
C1556 C1570 1.377 1_545 S
C1557 C1556 1.524 . S
C1557 C1558 1.397 . S
C1557 C1562 1.363 1_545 S
C1558 H1535 0.950 . S
C1558 C1557 1.397 . S
C1558 C1559 1.334 . S
C1559 H1536 0.950 . S
C1559 C1558 1.334 . S
C1559 C1560 1.287 1_545 S
C1560 C1559 1.287 1_565 S
C1560 C1561 1.524 . S
C1560 H1579 0.913 . S
C1561 H1537 0.950 . S
C1561 C1560 1.524 . S
C1561 C1562 1.415 . S
C1562 H1538 0.950 . S
C1562 C1557 1.363 1_565 S
C1562 C1561 1.415 . S
C1563 H1539 0.951 1_455 S
C1563 C1564 1.366 . S
C1563 C1565 1.388 . S
C1564 C1563 1.366 . S
C1564 C1568 1.385 . S
C1565 H1540 0.951 . S
C1565 C1563 1.388 . S
C1565 C1566 1.366 . S
C1566 C1565 1.366 . S
C1566 C1567 1.414 . S
C1566 C1569 1.499 . S
C1567 H1541 0.950 . S
C1567 C1566 1.414 . S
C1567 C1568 1.374 . S
C1568 H1542 0.950 . S
C1568 C1564 1.385 . S
C1568 C1567 1.374 . S
C1569 C1566 1.499 . S
C1569 C1570 1.373 . S
C1569 C1571 1.389 1_565 S
C1570 H1543 0.950 . S
C1570 C1556 1.377 1_565 S
C1570 C1569 1.373 . S
C1571 C1555 1.377 . S
C1571 C1569 1.389 1_545 S
C1571 C1572 1.524 . S
C1572 C1571 1.524 . S
C1572 C1573 1.397 . S
C1572 C1577 1.363 . S
C1573 H1544 0.950 . S
C1573 C1572 1.397 . S
C1573 C1574 1.334 . S
C1574 H1545 0.950 . S
C1574 C1573 1.334 . S
C1574 C1575 1.287 . S
C1575 C1574 1.287 . S
C1575 C1576 1.524 . S
C1575 H1578 0.999 . S
C1576 H1546 0.950 1_455 S
C1576 C1575 1.524 . S
C1576 C1577 1.415 . S
C1577 H1547 0.950 . S
C1577 C1572 1.363 . S
C1577 C1576 1.415 . S
H1578 C1575 0.999 . S
H1579 C1560 0.913 . S
H1580 C1598 0.951 . S
H1581 C1600 0.951 . S
H1582 C1602 0.950 . S
H1583 C1603 0.950 . S
H1584 C1605 0.950 . S
H1585 C1608 0.950 . S
H1586 C1609 0.950 . S
H1587 C1611 0.950 . S
H1588 C1612 0.950 . S
H1589 C1613 0.951 . S
H1590 C1615 0.951 . S
H1591 C1617 0.950 . S
H1592 C1618 0.950 . S
H1593 C1620 0.950 . S
H1594 C1623 0.950 . S
H1595 C1624 0.950 . S
H1596 C1626 0.950 . S
H1597 C1627 0.950 . S
C1598 H1580 0.951 . S
C1598 C1599 1.366 . S
C1598 C1600 1.388 . S
C1599 C1598 1.366 . S
C1599 C1603 1.385 . S
C1600 H1581 0.951 . S
C1600 C1598 1.388 . S
C1600 C1601 1.366 . S
C1601 C1600 1.366 . S
C1601 C1602 1.414 . S
C1601 C1604 1.499 . S
C1602 H1582 0.950 . S
C1602 C1601 1.414 . S
C1602 C1603 1.374 . S
C1603 H1583 0.950 . S
C1603 C1599 1.385 . S
C1603 C1602 1.374 . S
C1604 C1601 1.499 . S
C1604 C1605 1.373 . S
C1604 C1606 1.389 . S
C1605 H1584 0.950 . S
C1605 C1604 1.373 . S
C1605 C1621 1.377 . S
C1606 C1604 1.389 . S
C1606 C1607 1.524 . S
C1606 C1620 1.377 . S
C1607 C1606 1.524 . S
C1607 C1608 1.397 . S
C1607 C1612 1.363 . S
C1608 H1585 0.950 . S
C1608 C1607 1.397 . S
C1608 C1609 1.334 . S
C1609 H1586 0.950 . S
C1609 C1608 1.334 . S
C1609 C1610 1.287 . S
C1610 C1609 1.287 . S
C1610 C1611 1.524 . S
C1610 H1629 0.913 . S
C1611 H1587 0.950 . S
C1611 C1610 1.524 . S
C1611 C1612 1.415 . S
C1612 H1588 0.950 . S
C1612 C1607 1.363 . S
C1612 C1611 1.415 . S
C1613 H1589 0.951 . S
C1613 C1614 1.366 . S
C1613 C1615 1.388 . S
C1614 C1613 1.366 . S
C1614 C1618 1.385 . S
C1615 H1590 0.951 . S
C1615 C1613 1.388 . S
C1615 C1616 1.366 . S
C1616 C1615 1.366 . S
C1616 C1617 1.414 . S
C1616 C1619 1.499 . S
C1617 H1591 0.950 . S
C1617 C1616 1.414 . S
C1617 C1618 1.374 . S
C1618 H1592 0.950 . S
C1618 C1614 1.385 . S
C1618 C1617 1.374 . S
C1619 C1616 1.499 . S
C1619 C1620 1.373 . S
C1619 C1621 1.389 . S
C1620 H1593 0.950 . S
C1620 C1606 1.377 . S
C1620 C1619 1.373 . S
C1621 C1605 1.377 . S
C1621 C1619 1.389 . S
C1621 C1622 1.524 . S
C1622 C1621 1.524 . S
C1622 C1623 1.397 . S
C1622 C1627 1.363 . S
C1623 H1594 0.950 . S
C1623 C1622 1.397 . S
C1623 C1624 1.334 . S
C1624 H1595 0.950 . S
C1624 C1623 1.334 . S
C1624 C1625 1.287 . S
C1625 C1624 1.287 . S
C1625 C1626 1.524 . S
C1625 H1628 0.999 . S
C1626 H1596 0.950 . S
C1626 C1625 1.524 . S
C1626 C1627 1.415 . S
C1627 H1597 0.950 . S
C1627 C1622 1.363 . S
C1627 C1626 1.415 . S
H1628 C1625 0.999 . S
H1629 C1610 0.913 . S
H1630 C1648 0.951 . S
H1631 C1650 0.951 . S
H1632 C1652 0.950 . S
H1633 C1653 0.950 . S
H1634 C1655 0.950 . S
H1635 C1658 0.950 . S
H1636 C1659 0.950 . S
H1637 C1661 0.950 . S
H1638 C1662 0.950 . S
H1639 C1663 0.951 . S
H1640 C1665 0.951 . S
H1641 C1667 0.950 . S
H1642 C1668 0.950 . S
H1643 C1670 0.950 . S
H1644 C1673 0.950 . S
H1645 C1674 0.950 . S
H1646 C1676 0.950 1_545 S
H1647 C1677 0.950 1_545 S
C1648 H1630 0.951 . S
C1648 C1649 1.366 . S
C1648 C1650 1.388 . S
C1649 C1648 1.366 . S
C1649 C1653 1.385 . S
C1650 H1631 0.951 . S
C1650 C1648 1.388 . S
C1650 C1651 1.366 . S
C1651 C1650 1.366 . S
C1651 C1652 1.414 . S
C1651 C1654 1.499 . S
C1652 H1632 0.950 . S
C1652 C1651 1.414 . S
C1652 C1653 1.374 . S
C1653 H1633 0.950 . S
C1653 C1649 1.385 . S
C1653 C1652 1.374 . S
C1654 C1651 1.499 . S
C1654 C1655 1.373 . S
C1654 C1656 1.389 1_545 S
C1655 H1634 0.950 . S
C1655 C1654 1.373 . S
C1655 C1671 1.377 1_545 S
C1656 C1654 1.389 1_565 S
C1656 C1657 1.524 . S
C1656 C1670 1.377 . S
C1657 C1656 1.524 . S
C1657 C1658 1.397 1_565 S
C1657 C1662 1.363 . S
C1658 H1635 0.950 . S
C1658 C1657 1.397 1_545 S
C1658 C1659 1.334 . S
C1659 H1636 0.950 . S
C1659 C1658 1.334 . S
C1659 C1660 1.287 . S
C1660 C1659 1.287 . S
C1660 C1661 1.524 1_545 S
C1660 H1679 0.913 . S
C1661 H1637 0.950 . S
C1661 C1660 1.524 1_565 S
C1661 C1662 1.415 . S
C1662 H1638 0.950 . S
C1662 C1657 1.363 . S
C1662 C1661 1.415 . S
C1663 H1639 0.951 . S
C1663 C1664 1.366 . S
C1663 C1665 1.388 . S
C1664 C1663 1.366 . S
C1664 C1668 1.385 . S
C1665 H1640 0.951 . S
C1665 C1663 1.388 . S
C1665 C1666 1.366 . S
C1666 C1665 1.366 . S
C1666 C1667 1.414 . S
C1666 C1669 1.499 . S
C1667 H1641 0.950 . S
C1667 C1666 1.414 . S
C1667 C1668 1.374 . S
C1668 H1642 0.950 . S
C1668 C1664 1.385 . S
C1668 C1667 1.374 . S
C1669 C1666 1.499 . S
C1669 C1670 1.373 . S
C1669 C1671 1.389 . S
C1670 H1643 0.950 . S
C1670 C1656 1.377 . S
C1670 C1669 1.373 . S
C1671 C1655 1.377 1_565 S
C1671 C1669 1.389 . S
C1671 C1672 1.524 . S
C1672 C1671 1.524 . S
C1672 C1673 1.397 . S
C1672 C1677 1.363 . S
C1673 H1644 0.950 . S
C1673 C1672 1.397 . S
C1673 C1674 1.334 . S
C1674 H1645 0.950 . S
C1674 C1673 1.334 . S
C1674 C1675 1.287 . S
C1675 C1674 1.287 . S
C1675 C1676 1.524 . S
C1675 H1678 0.999 . S
C1676 H1646 0.950 1_565 S
C1676 C1675 1.524 . S
C1676 C1677 1.415 . S
C1677 H1647 0.950 1_565 S
C1677 C1672 1.363 . S
C1677 C1676 1.415 . S
H1678 C1675 0.999 . S
H1679 C1660 0.913 . S
H1680 C1698 0.951 . S
H1681 C1700 0.951 . S
H1682 C1702 0.950 . S
H1683 C1703 0.950 . S
H1684 C1705 0.950 . S
H1685 C1708 0.950 . S
H1686 C1709 0.950 . S
H1687 C1711 0.950 . S
H1688 C1712 0.950 . S
H1689 C1713 0.951 . S
H1690 C1715 0.951 . S
H1691 C1717 0.950 . S
H1692 C1718 0.950 . S
H1693 C1720 0.950 . S
H1694 C1723 0.950 . S
H1695 C1724 0.950 . S
H1696 C1726 0.950 . S
H1697 C1727 0.950 . S
C1698 H1680 0.951 . S
C1698 C1699 1.366 . S
C1698 C1700 1.388 . S
C1699 C1698 1.366 . S
C1699 C1703 1.385 . S
C1700 H1681 0.951 . S
C1700 C1698 1.388 . S
C1700 C1701 1.366 . S
C1701 C1700 1.366 . S
C1701 C1702 1.414 . S
C1701 C1704 1.499 . S
C1702 H1682 0.950 . S
C1702 C1701 1.414 . S
C1702 C1703 1.374 . S
C1703 H1683 0.950 . S
C1703 C1699 1.385 . S
C1703 C1702 1.374 . S
C1704 C1701 1.499 . S
C1704 C1705 1.373 . S
C1704 C1706 1.389 . S
C1705 H1684 0.950 . S
C1705 C1704 1.373 . S
C1705 C1721 1.377 . S
C1706 C1704 1.389 . S
C1706 C1707 1.524 . S
C1706 C1720 1.377 . S
C1707 C1706 1.524 . S
C1707 C1708 1.397 . S
C1707 C1712 1.363 . S
C1708 H1685 0.950 . S
C1708 C1707 1.397 . S
C1708 C1709 1.334 . S
C1709 H1686 0.950 . S
C1709 C1708 1.334 . S
C1709 C1710 1.287 . S
C1710 C1709 1.287 . S
C1710 C1711 1.524 . S
C1710 H1729 0.913 . S
C1711 H1687 0.950 . S
C1711 C1710 1.524 . S
C1711 C1712 1.415 . S
C1712 H1688 0.950 . S
C1712 C1707 1.363 . S
C1712 C1711 1.415 . S
C1713 H1689 0.951 . S
C1713 C1714 1.366 . S
C1713 C1715 1.388 . S
C1714 C1713 1.366 . S
C1714 C1718 1.385 . S
C1715 H1690 0.951 . S
C1715 C1713 1.388 . S
C1715 C1716 1.366 . S
C1716 C1715 1.366 . S
C1716 C1717 1.414 . S
C1716 C1719 1.499 . S
C1717 H1691 0.950 . S
C1717 C1716 1.414 . S
C1717 C1718 1.374 . S
C1718 H1692 0.950 . S
C1718 C1714 1.385 . S
C1718 C1717 1.374 . S
C1719 C1716 1.499 . S
C1719 C1720 1.373 . S
C1719 C1721 1.389 . S
C1720 H1693 0.950 . S
C1720 C1706 1.377 . S
C1720 C1719 1.373 . S
C1721 C1705 1.377 . S
C1721 C1719 1.389 . S
C1721 C1722 1.524 . S
C1722 C1721 1.524 . S
C1722 C1723 1.397 . S
C1722 C1727 1.363 . S
C1723 H1694 0.950 . S
C1723 C1722 1.397 . S
C1723 C1724 1.334 . S
C1724 H1695 0.950 . S
C1724 C1723 1.334 . S
C1724 C1725 1.287 . S
C1725 C1724 1.287 . S
C1725 C1726 1.524 . S
C1725 H1728 0.999 . S
C1726 H1696 0.950 . S
C1726 C1725 1.524 . S
C1726 C1727 1.415 . S
C1727 H1697 0.950 . S
C1727 C1722 1.363 . S
C1727 C1726 1.415 . S
H1728 C1725 0.999 . S
H1729 C1710 0.913 . S
H1730 C1748 0.951 . S
H1731 C1750 0.951 . S
H1732 C1752 0.950 . S
H1733 C1753 0.950 . S
H1734 C1755 0.950 . S
H1735 C1758 0.950 . S
H1736 C1759 0.950 . S
H1737 C1761 0.950 . S
H1738 C1762 0.950 . S
H1739 C1763 0.951 . S
H1740 C1765 0.951 . S
H1741 C1767 0.950 . S
H1742 C1768 0.950 . S
H1743 C1770 0.950 . S
H1744 C1773 0.950 . S
H1745 C1774 0.950 . S
H1746 C1776 0.950 . S
H1747 C1777 0.950 . S
C1748 H1730 0.951 . S
C1748 C1749 1.366 . S
C1748 C1750 1.388 . S
C1749 C1748 1.366 . S
C1749 C1753 1.385 . S
C1750 H1731 0.951 . S
C1750 C1748 1.388 . S
C1750 C1751 1.366 . S
C1751 C1750 1.366 . S
C1751 C1752 1.414 . S
C1751 C1754 1.499 . S
C1752 H1732 0.950 . S
C1752 C1751 1.414 . S
C1752 C1753 1.374 . S
C1753 H1733 0.950 . S
C1753 C1749 1.385 . S
C1753 C1752 1.374 . S
C1754 C1751 1.499 . S
C1754 C1755 1.373 . S
C1754 C1756 1.389 . S
C1755 H1734 0.950 . S
C1755 C1754 1.373 . S
C1755 C1771 1.377 . S
C1756 C1754 1.389 . S
C1756 C1757 1.524 . S
C1756 C1770 1.377 . S
C1757 C1756 1.524 . S
C1757 C1758 1.397 . S
C1757 C1762 1.363 . S
C1758 H1735 0.950 . S
C1758 C1757 1.397 . S
C1758 C1759 1.334 . S
C1759 H1736 0.950 . S
C1759 C1758 1.334 . S
C1759 C1760 1.287 . S
C1760 C1759 1.287 . S
C1760 C1761 1.524 . S
C1760 H1779 0.913 . S
C1761 H1737 0.950 . S
C1761 C1760 1.524 . S
C1761 C1762 1.415 . S
C1762 H1738 0.950 . S
C1762 C1757 1.363 . S
C1762 C1761 1.415 . S
C1763 H1739 0.951 . S
C1763 C1764 1.366 . S
C1763 C1765 1.388 . S
C1764 C1763 1.366 . S
C1764 C1768 1.385 . S
C1765 H1740 0.951 . S
C1765 C1763 1.388 . S
C1765 C1766 1.366 . S
C1766 C1765 1.366 . S
C1766 C1767 1.414 . S
C1766 C1769 1.499 . S
C1767 H1741 0.950 . S
C1767 C1766 1.414 . S
C1767 C1768 1.374 . S
C1768 H1742 0.950 . S
C1768 C1764 1.385 . S
C1768 C1767 1.374 . S
C1769 C1766 1.499 . S
C1769 C1770 1.373 . S
C1769 C1771 1.389 . S
C1770 H1743 0.950 . S
C1770 C1756 1.377 . S
C1770 C1769 1.373 . S
C1771 C1755 1.377 . S
C1771 C1769 1.389 . S
C1771 C1772 1.524 . S
C1772 C1771 1.524 . S
C1772 C1773 1.397 . S
C1772 C1777 1.363 . S
C1773 H1744 0.950 . S
C1773 C1772 1.397 . S
C1773 C1774 1.334 . S
C1774 H1745 0.950 . S
C1774 C1773 1.334 . S
C1774 C1775 1.287 . S
C1775 C1774 1.287 . S
C1775 C1776 1.524 . S
C1775 H1778 0.999 . S
C1776 H1746 0.950 . S
C1776 C1775 1.524 . S
C1776 C1777 1.415 . S
C1777 H1747 0.950 . S
C1777 C1772 1.363 . S
C1777 C1776 1.415 . S
H1778 C1775 0.999 . S
H1779 C1760 0.913 . S
H1780 C1798 0.951 . S
H1781 C1800 0.951 . S
H1782 C1802 0.950 . S
H1783 C1803 0.950 . S
H1784 C1805 0.950 . S
H1785 C1808 0.950 . S
H1786 C1809 0.950 . S
H1787 C1811 0.950 . S
H1788 C1812 0.950 . S
H1789 C1813 0.951 . S
H1790 C1815 0.951 . S
H1791 C1817 0.950 . S
H1792 C1818 0.950 . S
H1793 C1820 0.950 . S
H1794 C1823 0.950 . S
H1795 C1824 0.950 . S
H1796 C1826 0.950 . S
H1797 C1827 0.950 . S
C1798 H1780 0.951 . S
C1798 C1799 1.366 . S
C1798 C1800 1.388 . S
C1799 C1798 1.366 . S
C1799 C1803 1.385 . S
C1800 H1781 0.951 . S
C1800 C1798 1.388 . S
C1800 C1801 1.366 . S
C1801 C1800 1.366 . S
C1801 C1802 1.414 . S
C1801 C1804 1.499 . S
C1802 H1782 0.950 . S
C1802 C1801 1.414 . S
C1802 C1803 1.374 . S
C1803 H1783 0.950 . S
C1803 C1799 1.385 . S
C1803 C1802 1.374 . S
C1804 C1801 1.499 . S
C1804 C1805 1.373 . S
C1804 C1806 1.389 . S
C1805 H1784 0.950 . S
C1805 C1804 1.373 . S
C1805 C1821 1.377 . S
C1806 C1804 1.389 . S
C1806 C1807 1.524 . S
C1806 C1820 1.377 . S
C1807 C1806 1.524 . S
C1807 C1808 1.397 . S
C1807 C1812 1.363 . S
C1808 H1785 0.950 . S
C1808 C1807 1.397 . S
C1808 C1809 1.334 . S
C1809 H1786 0.950 . S
C1809 C1808 1.334 . S
C1809 C1810 1.287 . S
C1810 C1809 1.287 . S
C1810 C1811 1.524 . S
C1810 H1829 0.913 . S
C1811 H1787 0.950 . S
C1811 C1810 1.524 . S
C1811 C1812 1.415 . S
C1812 H1788 0.950 . S
C1812 C1807 1.363 . S
C1812 C1811 1.415 . S
C1813 H1789 0.951 . S
C1813 C1814 1.366 . S
C1813 C1815 1.388 . S
C1814 C1813 1.366 . S
C1814 C1818 1.385 . S
C1815 H1790 0.951 . S
C1815 C1813 1.388 . S
C1815 C1816 1.366 . S
C1816 C1815 1.366 . S
C1816 C1817 1.414 . S
C1816 C1819 1.499 . S
C1817 H1791 0.950 . S
C1817 C1816 1.414 . S
C1817 C1818 1.374 . S
C1818 H1792 0.950 . S
C1818 C1814 1.385 . S
C1818 C1817 1.374 . S
C1819 C1816 1.499 . S
C1819 C1820 1.373 . S
C1819 C1821 1.389 . S
C1820 H1793 0.950 . S
C1820 C1806 1.377 . S
C1820 C1819 1.373 . S
C1821 C1805 1.377 . S
C1821 C1819 1.389 . S
C1821 C1822 1.524 . S
C1822 C1821 1.524 . S
C1822 C1823 1.397 . S
C1822 C1827 1.363 . S
C1823 H1794 0.950 . S
C1823 C1822 1.397 . S
C1823 C1824 1.334 . S
C1824 H1795 0.950 . S
C1824 C1823 1.334 . S
C1824 C1825 1.287 . S
C1825 C1824 1.287 . S
C1825 C1826 1.524 . S
C1825 H1828 0.999 . S
C1826 H1796 0.950 . S
C1826 C1825 1.524 . S
C1826 C1827 1.415 . S
C1827 H1797 0.950 . S
C1827 C1822 1.363 . S
C1827 C1826 1.415 . S
H1828 C1825 0.999 . S
H1829 C1810 0.913 . S
H1830 C1848 0.951 . S
H1831 C1850 0.951 . S
H1832 C1852 0.950 . S
H1833 C1853 0.950 . S
H1834 C1855 0.950 . S
H1835 C1858 0.950 . S
H1836 C1859 0.950 . S
H1837 C1861 0.950 . S
H1838 C1862 0.950 . S
H1839 C1863 0.951 . S
H1840 C1865 0.951 . S
H1841 C1867 0.950 . S
H1842 C1868 0.950 . S
H1843 C1870 0.950 . S
H1844 C1873 0.950 . S
H1845 C1874 0.950 . S
H1846 C1876 0.950 . S
H1847 C1877 0.950 . S
C1848 H1830 0.951 . S
C1848 C1849 1.366 . S
C1848 C1850 1.388 . S
C1849 C1848 1.366 . S
C1849 C1853 1.385 . S
C1850 H1831 0.951 . S
C1850 C1848 1.388 . S
C1850 C1851 1.366 . S
C1851 C1850 1.366 . S
C1851 C1852 1.414 . S
C1851 C1854 1.499 . S
C1852 H1832 0.950 . S
C1852 C1851 1.414 . S
C1852 C1853 1.374 . S
C1853 H1833 0.950 . S
C1853 C1849 1.385 . S
C1853 C1852 1.374 . S
C1854 C1851 1.499 . S
C1854 C1855 1.373 . S
C1854 C1856 1.389 . S
C1855 H1834 0.950 . S
C1855 C1854 1.373 . S
C1855 C1871 1.377 . S
C1856 C1854 1.389 . S
C1856 C1857 1.524 . S
C1856 C1870 1.377 . S
C1857 C1856 1.524 . S
C1857 C1858 1.397 . S
C1857 C1862 1.363 . S
C1858 H1835 0.950 . S
C1858 C1857 1.397 . S
C1858 C1859 1.334 . S
C1859 H1836 0.950 . S
C1859 C1858 1.334 . S
C1859 C1860 1.287 . S
C1860 C1859 1.287 . S
C1860 C1861 1.524 . S
C1860 H1879 0.913 . S
C1861 H1837 0.950 . S
C1861 C1860 1.524 . S
C1861 C1862 1.415 . S
C1862 H1838 0.950 . S
C1862 C1857 1.363 . S
C1862 C1861 1.415 . S
C1863 H1839 0.951 . S
C1863 C1864 1.366 . S
C1863 C1865 1.388 . S
C1864 C1863 1.366 . S
C1864 C1868 1.385 . S
C1865 H1840 0.951 . S
C1865 C1863 1.388 . S
C1865 C1866 1.366 . S
C1866 C1865 1.366 . S
C1866 C1867 1.414 . S
C1866 C1869 1.499 . S
C1867 H1841 0.950 . S
C1867 C1866 1.414 . S
C1867 C1868 1.374 . S
C1868 H1842 0.950 . S
C1868 C1864 1.385 . S
C1868 C1867 1.374 . S
C1869 C1866 1.499 . S
C1869 C1870 1.373 . S
C1869 C1871 1.389 . S
C1870 H1843 0.950 . S
C1870 C1856 1.377 . S
C1870 C1869 1.373 . S
C1871 C1855 1.377 . S
C1871 C1869 1.389 . S
C1871 C1872 1.524 . S
C1872 C1871 1.524 . S
C1872 C1873 1.397 . S
C1872 C1877 1.363 . S
C1873 H1844 0.950 . S
C1873 C1872 1.397 . S
C1873 C1874 1.334 . S
C1874 H1845 0.950 . S
C1874 C1873 1.334 . S
C1874 C1875 1.287 . S
C1875 C1874 1.287 . S
C1875 C1876 1.524 . S
C1875 H1878 0.999 . S
C1876 H1846 0.950 . S
C1876 C1875 1.524 . S
C1876 C1877 1.415 . S
C1877 H1847 0.950 . S
C1877 C1872 1.363 . S
C1877 C1876 1.415 . S
H1878 C1875 0.999 . S
H1879 C1860 0.913 . S
H1880 C1898 0.951 . S
H1881 C1900 0.951 . S
H1882 C1902 0.950 . S
H1883 C1903 0.950 . S
H1884 C1905 0.950 . S
H1885 C1908 0.950 . S
H1886 C1909 0.950 . S
H1887 C1911 0.950 . S
H1888 C1912 0.950 . S
H1889 C1913 0.951 . S
H1890 C1915 0.951 . S
H1891 C1917 0.950 . S
H1892 C1918 0.950 . S
H1893 C1920 0.950 . S
H1894 C1923 0.950 . S
H1895 C1924 0.950 . S
H1896 C1926 0.950 . S
H1897 C1927 0.950 . S
C1898 H1880 0.951 . S
C1898 C1899 1.366 . S
C1898 C1900 1.388 . S
C1899 C1898 1.366 . S
C1899 C1903 1.385 . S
C1900 H1881 0.951 . S
C1900 C1898 1.388 . S
C1900 C1901 1.366 . S
C1901 C1900 1.366 . S
C1901 C1902 1.414 . S
C1901 C1904 1.499 . S
C1902 H1882 0.950 . S
C1902 C1901 1.414 . S
C1902 C1903 1.374 . S
C1903 H1883 0.950 . S
C1903 C1899 1.385 . S
C1903 C1902 1.374 . S
C1904 C1901 1.499 . S
C1904 C1905 1.373 . S
C1904 C1906 1.389 . S
C1905 H1884 0.950 . S
C1905 C1904 1.373 . S
C1905 C1921 1.377 . S
C1906 C1904 1.389 . S
C1906 C1907 1.524 . S
C1906 C1920 1.377 . S
C1907 C1906 1.524 . S
C1907 C1908 1.397 . S
C1907 C1912 1.363 . S
C1908 H1885 0.950 . S
C1908 C1907 1.397 . S
C1908 C1909 1.334 . S
C1909 H1886 0.950 . S
C1909 C1908 1.334 . S
C1909 C1910 1.287 . S
C1910 C1909 1.287 . S
C1910 C1911 1.524 . S
C1910 H1929 0.913 . S
C1911 H1887 0.950 . S
C1911 C1910 1.524 . S
C1911 C1912 1.415 . S
C1912 H1888 0.950 . S
C1912 C1907 1.363 . S
C1912 C1911 1.415 . S
C1913 H1889 0.951 . S
C1913 C1914 1.366 . S
C1913 C1915 1.388 . S
C1914 C1913 1.366 . S
C1914 C1918 1.385 . S
C1915 H1890 0.951 . S
C1915 C1913 1.388 . S
C1915 C1916 1.366 . S
C1916 C1915 1.366 . S
C1916 C1917 1.414 . S
C1916 C1919 1.499 . S
C1917 H1891 0.950 . S
C1917 C1916 1.414 . S
C1917 C1918 1.374 . S
C1918 H1892 0.950 . S
C1918 C1914 1.385 . S
C1918 C1917 1.374 . S
C1919 C1916 1.499 . S
C1919 C1920 1.373 . S
C1919 C1921 1.389 . S
C1920 H1893 0.950 . S
C1920 C1906 1.377 . S
C1920 C1919 1.373 . S
C1921 C1905 1.377 . S
C1921 C1919 1.389 . S
C1921 C1922 1.524 . S
C1922 C1921 1.524 . S
C1922 C1923 1.397 . S
C1922 C1927 1.363 . S
C1923 H1894 0.950 . S
C1923 C1922 1.397 . S
C1923 C1924 1.334 . S
C1924 H1895 0.950 . S
C1924 C1923 1.334 . S
C1924 C1925 1.287 . S
C1925 C1924 1.287 . S
C1925 C1926 1.524 . S
C1925 H1928 0.999 . S
C1926 H1896 0.950 . S
C1926 C1925 1.524 . S
C1926 C1927 1.415 . S
C1927 H1897 0.950 . S
C1927 C1922 1.363 . S
C1927 C1926 1.415 . S
H1928 C1925 0.999 . S
H1929 C1910 0.913 . S
H1930 C1948 0.951 . S
H1931 C1950 0.951 . S
H1932 C1952 0.950 . S
H1933 C1953 0.950 . S
H1934 C1955 0.950 . S
H1935 C1958 0.950 . S
H1936 C1959 0.950 . S
H1937 C1961 0.950 . S
H1938 C1962 0.950 . S
H1939 C1963 0.951 . S
H1940 C1965 0.951 . S
H1941 C1967 0.950 . S
H1942 C1968 0.950 . S
H1943 C1970 0.950 . S
H1944 C1973 0.950 . S
H1945 C1974 0.950 . S
H1946 C1976 0.950 . S
H1947 C1977 0.950 . S
C1948 H1930 0.951 . S
C1948 C1949 1.366 . S
C1948 C1950 1.388 . S
C1949 C1948 1.366 . S
C1949 C1953 1.385 . S
C1950 H1931 0.951 . S
C1950 C1948 1.388 . S
C1950 C1951 1.366 . S
C1951 C1950 1.366 . S
C1951 C1952 1.414 . S
C1951 C1954 1.499 . S
C1952 H1932 0.950 . S
C1952 C1951 1.414 . S
C1952 C1953 1.374 . S
C1953 H1933 0.950 . S
C1953 C1949 1.385 . S
C1953 C1952 1.374 . S
C1954 C1951 1.499 . S
C1954 C1955 1.373 . S
C1954 C1956 1.389 . S
C1955 H1934 0.950 . S
C1955 C1954 1.373 . S
C1955 C1971 1.377 . S
C1956 C1954 1.389 . S
C1956 C1957 1.524 . S
C1956 C1970 1.377 . S
C1957 C1956 1.524 . S
C1957 C1958 1.397 . S
C1957 C1962 1.363 . S
C1958 H1935 0.950 . S
C1958 C1957 1.397 . S
C1958 C1959 1.334 . S
C1959 H1936 0.950 . S
C1959 C1958 1.334 . S
C1959 C1960 1.287 . S
C1960 C1959 1.287 . S
C1960 C1961 1.524 . S
C1960 H1979 0.913 . S
C1961 H1937 0.950 . S
C1961 C1960 1.524 . S
C1961 C1962 1.415 . S
C1962 H1938 0.950 . S
C1962 C1957 1.363 . S
C1962 C1961 1.415 . S
C1963 H1939 0.951 . S
C1963 C1964 1.366 . S
C1963 C1965 1.388 . S
C1964 C1963 1.366 . S
C1964 C1968 1.385 . S
C1965 H1940 0.951 . S
C1965 C1963 1.388 . S
C1965 C1966 1.366 . S
C1966 C1965 1.366 . S
C1966 C1967 1.414 . S
C1966 C1969 1.499 . S
C1967 H1941 0.950 . S
C1967 C1966 1.414 . S
C1967 C1968 1.374 . S
C1968 H1942 0.950 . S
C1968 C1964 1.385 . S
C1968 C1967 1.374 . S
C1969 C1966 1.499 . S
C1969 C1970 1.373 . S
C1969 C1971 1.389 . S
C1970 H1943 0.950 . S
C1970 C1956 1.377 . S
C1970 C1969 1.373 . S
C1971 C1955 1.377 . S
C1971 C1969 1.389 . S
C1971 C1972 1.524 . S
C1972 C1971 1.524 . S
C1972 C1973 1.397 . S
C1972 C1977 1.363 . S
C1973 H1944 0.950 . S
C1973 C1972 1.397 . S
C1973 C1974 1.334 . S
C1974 H1945 0.950 . S
C1974 C1973 1.334 . S
C1974 C1975 1.287 . S
C1975 C1974 1.287 . S
C1975 C1976 1.524 . S
C1975 H1978 0.999 . S
C1976 H1946 0.950 . S
C1976 C1975 1.524 . S
C1976 C1977 1.415 . S
C1977 H1947 0.950 . S
C1977 C1972 1.363 . S
C1977 C1976 1.415 . S
H1978 C1975 0.999 . S
H1979 C1960 0.913 . S
H1980 C1998 0.951 . S
H1981 C2000 0.951 . S
H1982 C2002 0.950 . S
H1983 C2003 0.950 . S
H1984 C2005 0.950 . S
H1985 C2008 0.950 . S
H1986 C2009 0.950 . S
H1987 C2011 0.950 . S
H1988 C2012 0.950 . S
H1989 C2013 0.951 . S
H1990 C2015 0.951 . S
H1991 C2017 0.950 . S
H1992 C2018 0.950 . S
H1993 C2020 0.950 . S
H1994 C2023 0.950 . S
H1995 C2024 0.950 . S
H1996 C2026 0.950 1_455 S
H1997 C2027 0.950 . S
C1998 H1980 0.951 . S
C1998 C1999 1.366 . S
C1998 C2000 1.388 . S
C1999 C1998 1.366 . S
C1999 C2003 1.385 . S
C2000 H1981 0.951 . S
C2000 C1998 1.388 . S
C2000 C2001 1.366 . S
C2001 C2000 1.366 . S
C2001 C2002 1.414 . S
C2001 C2004 1.499 . S
C2002 H1982 0.950 . S
C2002 C2001 1.414 . S
C2002 C2003 1.374 . S
C2003 H1983 0.950 . S
C2003 C1999 1.385 . S
C2003 C2002 1.374 . S
C2004 C2001 1.499 . S
C2004 C2005 1.373 . S
C2004 C2006 1.389 1_455 S
C2005 H1984 0.950 . S
C2005 C2004 1.373 . S
C2005 C2021 1.377 1_455 S
C2006 C2004 1.389 1_655 S
C2006 C2007 1.524 1_655 S
C2006 C2020 1.377 . S
C2007 C2006 1.524 1_455 S
C2007 C2008 1.397 . S
C2007 C2012 1.363 1_455 S
C2008 H1985 0.950 . S
C2008 C2007 1.397 . S
C2008 C2009 1.334 . S
C2009 H1986 0.950 . S
C2009 C2008 1.334 . S
C2009 C2010 1.287 . S
C2010 C2009 1.287 . S
C2010 C2011 1.524 1_455 S
C2010 H2029 0.913 . S
C2011 H1987 0.950 . S
C2011 C2010 1.524 1_655 S
C2011 C2012 1.415 . S
C2012 H1988 0.950 . S
C2012 C2007 1.363 1_655 S
C2012 C2011 1.415 . S
C2013 H1989 0.951 . S
C2013 C2014 1.366 . S
C2013 C2015 1.388 . S
C2014 C2013 1.366 . S
C2014 C2018 1.385 . S
C2015 H1990 0.951 . S
C2015 C2013 1.388 . S
C2015 C2016 1.366 . S
C2016 C2015 1.366 . S
C2016 C2017 1.414 . S
C2016 C2019 1.499 . S
C2017 H1991 0.950 . S
C2017 C2016 1.414 . S
C2017 C2018 1.374 . S
C2018 H1992 0.950 . S
C2018 C2014 1.385 . S
C2018 C2017 1.374 . S
C2019 C2016 1.499 . S
C2019 C2020 1.373 . S
C2019 C2021 1.389 . S
C2020 H1993 0.950 . S
C2020 C2006 1.377 . S
C2020 C2019 1.373 . S
C2021 C2005 1.377 1_655 S
C2021 C2019 1.389 . S
C2021 C2022 1.524 . S
C2022 C2021 1.524 . S
C2022 C2023 1.397 . S
C2022 C2027 1.363 1_655 S
C2023 H1994 0.950 . S
C2023 C2022 1.397 . S
C2023 C2024 1.334 . S
C2024 H1995 0.950 . S
C2024 C2023 1.334 . S
C2024 C2025 1.287 . S
C2025 C2024 1.287 . S
C2025 C2026 1.524 . S
C2025 H2028 0.999 . S
C2026 H1996 0.950 1_655 S
C2026 C2025 1.524 . S
C2026 C2027 1.415 1_655 S
C2027 H1997 0.950 . S
C2027 C2022 1.363 1_455 S
C2027 C2026 1.415 1_455 S
H2028 C2025 0.999 . S
H2029 C2010 0.913 . S
H2030 C2048 0.951 . S
H2031 C2050 0.951 . S
H2032 C2052 0.950 . S
H2033 C2053 0.950 . S
H2034 C2055 0.950 . S
H2035 C2058 0.950 . S
H2036 C2059 0.950 . S
H2037 C2061 0.950 . S
H2038 C2062 0.950 . S
H2039 C2063 0.951 . S
H2040 C2065 0.951 . S
H2041 C2067 0.950 . S
H2042 C2068 0.950 . S
H2043 C2070 0.950 . S
H2044 C2073 0.950 . S
H2045 C2074 0.950 . S
H2046 C2076 0.950 . S
H2047 C2077 0.950 . S
C2048 H2030 0.951 . S
C2048 C2049 1.366 . S
C2048 C2050 1.388 . S
C2049 C2048 1.366 . S
C2049 C2053 1.385 . S
C2050 H2031 0.951 . S
C2050 C2048 1.388 . S
C2050 C2051 1.366 . S
C2051 C2050 1.366 . S
C2051 C2052 1.414 . S
C2051 C2054 1.499 . S
C2052 H2032 0.950 . S
C2052 C2051 1.414 . S
C2052 C2053 1.374 . S
C2053 H2033 0.950 . S
C2053 C2049 1.385 . S
C2053 C2052 1.374 . S
C2054 C2051 1.499 . S
C2054 C2055 1.373 . S
C2054 C2056 1.389 . S
C2055 H2034 0.950 . S
C2055 C2054 1.373 . S
C2055 C2071 1.377 . S
C2056 C2054 1.389 . S
C2056 C2057 1.524 . S
C2056 C2070 1.377 . S
C2057 C2056 1.524 . S
C2057 C2058 1.397 . S
C2057 C2062 1.363 . S
C2058 H2035 0.950 . S
C2058 C2057 1.397 . S
C2058 C2059 1.334 . S
C2059 H2036 0.950 . S
C2059 C2058 1.334 . S
C2059 C2060 1.287 . S
C2060 C2059 1.287 . S
C2060 C2061 1.524 . S
C2060 H2079 0.913 . S
C2061 H2037 0.950 . S
C2061 C2060 1.524 . S
C2061 C2062 1.415 . S
C2062 H2038 0.950 . S
C2062 C2057 1.363 . S
C2062 C2061 1.415 . S
C2063 H2039 0.951 . S
C2063 C2064 1.366 . S
C2063 C2065 1.388 . S
C2064 C2063 1.366 . S
C2064 C2068 1.385 . S
C2065 H2040 0.951 . S
C2065 C2063 1.388 . S
C2065 C2066 1.366 . S
C2066 C2065 1.366 . S
C2066 C2067 1.414 . S
C2066 C2069 1.499 . S
C2067 H2041 0.950 . S
C2067 C2066 1.414 . S
C2067 C2068 1.374 . S
C2068 H2042 0.950 . S
C2068 C2064 1.385 . S
C2068 C2067 1.374 . S
C2069 C2066 1.499 . S
C2069 C2070 1.373 . S
C2069 C2071 1.389 . S
C2070 H2043 0.950 . S
C2070 C2056 1.377 . S
C2070 C2069 1.373 . S
C2071 C2055 1.377 . S
C2071 C2069 1.389 . S
C2071 C2072 1.524 . S
C2072 C2071 1.524 . S
C2072 C2073 1.397 . S
C2072 C2077 1.363 . S
C2073 H2044 0.950 . S
C2073 C2072 1.397 . S
C2073 C2074 1.334 . S
C2074 H2045 0.950 . S
C2074 C2073 1.334 . S
C2074 C2075 1.287 . S
C2075 C2074 1.287 . S
C2075 C2076 1.524 . S
C2075 H2078 0.999 . S
C2076 H2046 0.950 . S
C2076 C2075 1.524 . S
C2076 C2077 1.415 . S
C2077 H2047 0.950 . S
C2077 C2072 1.363 . S
C2077 C2076 1.415 . S
H2078 C2075 0.999 . S
H2079 C2060 0.913 . S
H2080 C2098 0.951 . S
H2081 C2100 0.951 . S
H2082 C2102 0.950 . S
H2083 C2103 0.950 . S
H2084 C2105 0.950 . S
H2085 C2108 0.950 . S
H2086 C2109 0.950 . S
H2087 C2111 0.950 . S
H2088 C2112 0.950 . S
H2089 C2113 0.951 . S
H2090 C2115 0.951 . S
H2091 C2117 0.950 . S
H2092 C2118 0.950 . S
H2093 C2120 0.950 . S
H2094 C2123 0.950 . S
H2095 C2124 0.950 . S
H2096 C2126 0.950 . S
H2097 C2127 0.950 . S
C2098 H2080 0.951 . S
C2098 C2099 1.366 . S
C2098 C2100 1.388 . S
C2099 C2098 1.366 . S
C2099 C2103 1.385 . S
C2100 H2081 0.951 . S
C2100 C2098 1.388 . S
C2100 C2101 1.366 . S
C2101 C2100 1.366 . S
C2101 C2102 1.414 . S
C2101 C2104 1.499 . S
C2102 H2082 0.950 . S
C2102 C2101 1.414 . S
C2102 C2103 1.374 . S
C2103 H2083 0.950 . S
C2103 C2099 1.385 . S
C2103 C2102 1.374 . S
C2104 C2101 1.499 . S
C2104 C2105 1.373 . S
C2104 C2106 1.389 . S
C2105 H2084 0.950 . S
C2105 C2104 1.373 . S
C2105 C2121 1.377 . S
C2106 C2104 1.389 . S
C2106 C2107 1.524 . S
C2106 C2120 1.377 . S
C2107 C2106 1.524 . S
C2107 C2108 1.397 . S
C2107 C2112 1.363 . S
C2108 H2085 0.950 . S
C2108 C2107 1.397 . S
C2108 C2109 1.334 . S
C2109 H2086 0.950 . S
C2109 C2108 1.334 . S
C2109 C2110 1.287 . S
C2110 C2109 1.287 . S
C2110 C2111 1.524 . S
C2110 H2129 0.913 . S
C2111 H2087 0.950 . S
C2111 C2110 1.524 . S
C2111 C2112 1.415 . S
C2112 H2088 0.950 . S
C2112 C2107 1.363 . S
C2112 C2111 1.415 . S
C2113 H2089 0.951 . S
C2113 C2114 1.366 . S
C2113 C2115 1.388 . S
C2114 C2113 1.366 . S
C2114 C2118 1.385 . S
C2115 H2090 0.951 . S
C2115 C2113 1.388 . S
C2115 C2116 1.366 . S
C2116 C2115 1.366 . S
C2116 C2117 1.414 . S
C2116 C2119 1.499 . S
C2117 H2091 0.950 . S
C2117 C2116 1.414 . S
C2117 C2118 1.374 . S
C2118 H2092 0.950 . S
C2118 C2114 1.385 . S
C2118 C2117 1.374 . S
C2119 C2116 1.499 . S
C2119 C2120 1.373 . S
C2119 C2121 1.389 . S
C2120 H2093 0.950 . S
C2120 C2106 1.377 . S
C2120 C2119 1.373 . S
C2121 C2105 1.377 . S
C2121 C2119 1.389 . S
C2121 C2122 1.524 . S
C2122 C2121 1.524 . S
C2122 C2123 1.397 . S
C2122 C2127 1.363 . S
C2123 H2094 0.950 . S
C2123 C2122 1.397 . S
C2123 C2124 1.334 . S
C2124 H2095 0.950 . S
C2124 C2123 1.334 . S
C2124 C2125 1.287 . S
C2125 C2124 1.287 . S
C2125 C2126 1.524 . S
C2125 H2128 0.999 . S
C2126 H2096 0.950 . S
C2126 C2125 1.524 . S
C2126 C2127 1.415 . S
C2127 H2097 0.950 . S
C2127 C2122 1.363 . S
C2127 C2126 1.415 . S
H2128 C2125 0.999 . S
H2129 C2110 0.913 . S
H2130 C2148 0.951 . S
H2131 C2150 0.951 . S
H2132 C2152 0.950 . S
H2133 C2153 0.950 . S
H2134 C2155 0.950 . S
H2135 C2158 0.950 . S
H2136 C2159 0.950 . S
H2137 C2161 0.950 . S
H2138 C2162 0.950 . S
H2139 C2163 0.951 . S
H2140 C2165 0.951 . S
H2141 C2167 0.950 . S
H2142 C2168 0.950 . S
H2143 C2170 0.950 . S
H2144 C2173 0.950 . S
H2145 C2174 0.950 . S
H2146 C2176 0.950 . S
H2147 C2177 0.950 . S
C2148 H2130 0.951 . S
C2148 C2149 1.366 . S
C2148 C2150 1.388 . S
C2149 C2148 1.366 . S
C2149 C2153 1.385 . S
C2150 H2131 0.951 . S
C2150 C2148 1.388 . S
C2150 C2151 1.366 . S
C2151 C2150 1.366 . S
C2151 C2152 1.414 . S
C2151 C2154 1.499 . S
C2152 H2132 0.950 . S
C2152 C2151 1.414 . S
C2152 C2153 1.374 . S
C2153 H2133 0.950 . S
C2153 C2149 1.385 . S
C2153 C2152 1.374 . S
C2154 C2151 1.499 . S
C2154 C2155 1.373 . S
C2154 C2156 1.389 . S
C2155 H2134 0.950 . S
C2155 C2154 1.373 . S
C2155 C2171 1.377 . S
C2156 C2154 1.389 . S
C2156 C2157 1.524 . S
C2156 C2170 1.377 . S
C2157 C2156 1.524 . S
C2157 C2158 1.397 . S
C2157 C2162 1.363 . S
C2158 H2135 0.950 . S
C2158 C2157 1.397 . S
C2158 C2159 1.334 . S
C2159 H2136 0.950 . S
C2159 C2158 1.334 . S
C2159 C2160 1.287 . S
C2160 C2159 1.287 . S
C2160 C2161 1.524 . S
C2160 H2179 0.913 . S
C2161 H2137 0.950 . S
C2161 C2160 1.524 . S
C2161 C2162 1.415 . S
C2162 H2138 0.950 . S
C2162 C2157 1.363 . S
C2162 C2161 1.415 . S
C2163 H2139 0.951 . S
C2163 C2164 1.366 . S
C2163 C2165 1.388 . S
C2164 C2163 1.366 . S
C2164 C2168 1.385 . S
C2165 H2140 0.951 . S
C2165 C2163 1.388 . S
C2165 C2166 1.366 . S
C2166 C2165 1.366 . S
C2166 C2167 1.414 . S
C2166 C2169 1.499 . S
C2167 H2141 0.950 . S
C2167 C2166 1.414 . S
C2167 C2168 1.374 . S
C2168 H2142 0.950 . S
C2168 C2164 1.385 . S
C2168 C2167 1.374 . S
C2169 C2166 1.499 . S
C2169 C2170 1.373 . S
C2169 C2171 1.389 . S
C2170 H2143 0.950 . S
C2170 C2156 1.377 . S
C2170 C2169 1.373 . S
C2171 C2155 1.377 . S
C2171 C2169 1.389 . S
C2171 C2172 1.524 . S
C2172 C2171 1.524 . S
C2172 C2173 1.397 . S
C2172 C2177 1.363 . S
C2173 H2144 0.950 . S
C2173 C2172 1.397 . S
C2173 C2174 1.334 . S
C2174 H2145 0.950 . S
C2174 C2173 1.334 . S
C2174 C2175 1.287 . S
C2175 C2174 1.287 . S
C2175 C2176 1.524 . S
C2175 H2178 0.999 . S
C2176 H2146 0.950 . S
C2176 C2175 1.524 . S
C2176 C2177 1.415 . S
C2177 H2147 0.950 . S
C2177 C2172 1.363 . S
C2177 C2176 1.415 . S
H2178 C2175 0.999 . S
H2179 C2160 0.913 . S
H2180 C2198 0.951 . S
H2181 C2200 0.951 . S
H2182 C2202 0.950 . S
H2183 C2203 0.950 . S
H2184 C2205 0.950 . S
H2185 C2208 0.950 . S
H2186 C2209 0.949 . S
H2187 C2211 0.962 . S
H2188 C2212 0.950 . S
H2189 C2213 0.951 . S
H2190 C2215 0.951 . S
H2191 C2217 0.950 . S
H2192 C2218 0.950 . S
H2193 C2220 0.950 . S
H2194 C2223 0.950 . S
H2195 C2224 0.950 . S
H2196 C2226 0.950 . S
H2197 C2227 0.950 . S
C2198 H2180 0.951 . S
C2198 C2199 1.366 . S
C2198 C2200 1.388 . S
C2199 C2198 1.366 . S
C2199 C2203 1.385 . S
C2200 H2181 0.951 . S
C2200 C2198 1.388 . S
C2200 C2201 1.366 . S
C2201 C2200 1.366 . S
C2201 C2202 1.414 . S
C2201 C2204 1.499 . S
C2202 H2182 0.950 . S
C2202 C2201 1.414 . S
C2202 C2203 1.374 . S
C2203 H2183 0.950 . S
C2203 C2199 1.385 . S
C2203 C2202 1.374 . S
C2204 C2201 1.499 . S
C2204 C2205 1.373 . S
C2204 C2206 1.389 . S
C2205 H2184 0.950 . S
C2205 C2204 1.373 . S
C2205 C2221 1.377 . S
C2206 C2204 1.389 . S
C2206 C2207 1.524 . S
C2206 C2220 1.377 . S
C2207 C2206 1.524 . S
C2207 C2208 1.397 . S
C2207 C2212 1.363 . S
C2208 H2185 0.950 . S
C2208 C2207 1.397 . S
C2208 C2209 1.334 . S
C2209 H2186 0.949 . S
C2209 C2208 1.334 . S
C2209 C2210 1.287 1_556 S
C2210 C2209 1.287 1_554 S
C2210 C2211 1.529 . S
C2210 H2229 0.913 . S
C2211 H2187 0.962 . S
C2211 C2210 1.529 . S
C2211 C2212 1.396 1_554 S
C2212 H2188 0.950 . S
C2212 C2207 1.363 . S
C2212 C2211 1.396 1_556 S
C2213 H2189 0.951 . S
C2213 C2214 1.366 . S
C2213 C2215 1.388 . S
C2214 C2213 1.366 . S
C2214 C2218 1.385 . S
C2215 H2190 0.951 . S
C2215 C2213 1.388 . S
C2215 C2216 1.366 . S
C2216 C2215 1.366 . S
C2216 C2217 1.414 . S
C2216 C2219 1.499 . S
C2217 H2191 0.950 . S
C2217 C2216 1.414 . S
C2217 C2218 1.374 . S
C2218 H2192 0.950 . S
C2218 C2214 1.385 . S
C2218 C2217 1.374 . S
C2219 C2216 1.499 . S
C2219 C2220 1.373 . S
C2219 C2221 1.389 . S
C2220 H2193 0.950 . S
C2220 C2206 1.377 . S
C2220 C2219 1.373 . S
C2221 C2205 1.377 . S
C2221 C2219 1.389 . S
C2221 C2222 1.524 . S
C2222 C2221 1.524 . S
C2222 C2223 1.397 . S
C2222 C2227 1.363 . S
C2223 H2194 0.950 . S
C2223 C2222 1.397 . S
C2223 C2224 1.334 . S
C2224 H2195 0.950 . S
C2224 C2223 1.334 . S
C2224 C2225 1.287 . S
C2225 C2224 1.287 . S
C2225 C2226 1.524 . S
C2225 H2228 0.999 . S
C2226 H2196 0.950 . S
C2226 C2225 1.524 . S
C2226 C2227 1.415 . S
C2227 H2197 0.950 . S
C2227 C2222 1.363 . S
C2227 C2226 1.415 . S
H2228 C2225 0.999 . S
H2229 C2210 0.913 . S
H2230 C2248 0.951 . S
H2231 C2250 0.951 . S
H2232 C2252 0.950 . S
H2233 C2253 0.950 . S
H2234 C2255 0.950 . S
H2235 C2258 0.950 . S
H2236 C2259 0.950 . S
H2237 C2261 0.950 . S
H2238 C2262 0.950 . S
H2239 C2263 0.951 . S
H2240 C2265 0.951 . S
H2241 C2267 0.950 . S
H2242 C2268 0.950 . S
H2243 C2270 0.950 . S
H2244 C2273 0.950 . S
H2245 C2274 0.950 . S
H2246 C2276 0.950 . S
H2247 C2277 0.950 . S
C2248 H2230 0.951 . S
C2248 C2249 1.366 . S
C2248 C2250 1.388 . S
C2249 C2248 1.366 . S
C2249 C2253 1.385 . S
C2250 H2231 0.951 . S
C2250 C2248 1.388 . S
C2250 C2251 1.366 . S
C2251 C2250 1.366 . S
C2251 C2252 1.414 . S
C2251 C2254 1.499 . S
C2252 H2232 0.950 . S
C2252 C2251 1.414 . S
C2252 C2253 1.374 . S
C2253 H2233 0.950 . S
C2253 C2249 1.385 . S
C2253 C2252 1.374 . S
C2254 C2251 1.499 . S
C2254 C2255 1.373 . S
C2254 C2256 1.389 . S
C2255 H2234 0.950 . S
C2255 C2254 1.373 . S
C2255 C2271 1.377 . S
C2256 C2254 1.389 . S
C2256 C2257 1.524 . S
C2256 C2270 1.377 1_655 S
C2257 C2256 1.524 . S
C2257 C2258 1.397 . S
C2257 C2262 1.363 1_655 S
C2258 H2235 0.950 . S
C2258 C2257 1.397 . S
C2258 C2259 1.334 . S
C2259 H2236 0.950 . S
C2259 C2258 1.334 . S
C2259 C2260 1.287 . S
C2260 C2259 1.287 . S
C2260 C2261 1.524 1_655 S
C2260 H2279 0.913 . S
C2261 H2237 0.950 . S
C2261 C2260 1.524 1_455 S
C2261 C2262 1.415 . S
C2262 H2238 0.950 . S
C2262 C2257 1.363 1_455 S
C2262 C2261 1.415 . S
C2263 H2239 0.951 . S
C2263 C2264 1.366 . S
C2263 C2265 1.388 . S
C2264 C2263 1.366 . S
C2264 C2268 1.385 . S
C2265 H2240 0.951 . S
C2265 C2263 1.388 . S
C2265 C2266 1.366 . S
C2266 C2265 1.366 . S
C2266 C2267 1.414 . S
C2266 C2269 1.499 . S
C2267 H2241 0.950 . S
C2267 C2266 1.414 . S
C2267 C2268 1.374 . S
C2268 H2242 0.950 . S
C2268 C2264 1.385 . S
C2268 C2267 1.374 . S
C2269 C2266 1.499 . S
C2269 C2270 1.373 . S
C2269 C2271 1.389 1_455 S
C2270 H2243 0.950 . S
C2270 C2256 1.377 1_455 S
C2270 C2269 1.373 . S
C2271 C2255 1.377 . S
C2271 C2269 1.389 1_655 S
C2271 C2272 1.524 . S
C2272 C2271 1.524 . S
C2272 C2273 1.397 1_655 S
C2272 C2277 1.363 . S
C2273 H2244 0.950 . S
C2273 C2272 1.397 1_455 S
C2273 C2274 1.334 . S
C2274 H2245 0.950 . S
C2274 C2273 1.334 . S
C2274 C2275 1.287 . S
C2275 C2274 1.287 . S
C2275 C2276 1.524 1_455 S
C2275 H2278 0.999 . S
C2276 H2246 0.950 . S
C2276 C2275 1.524 1_655 S
C2276 C2277 1.415 . S
C2277 H2247 0.950 . S
C2277 C2272 1.363 . S
C2277 C2276 1.415 . S
H2278 C2275 0.999 . S
H2279 C2260 0.913 . S
C499 C19 1.247 . S
C514 C459 1.248 . S
C549 C378 1.951 . S
C564 C58 1.948 . S
C599 C98 1.073 . S
C614 C338 1.073 . S
C649 C138 1.552 . S
C664 C419 1.491 . S
C699 C178 1.722 . S
C714 C418 1.713 . S
C749 C219 1.501 . S
C764 C458 1.588 . S
C799 C379 1.636 . S
C814 C258 1.684 . S
C849 C299 1.238 . S
C864 C339 1.243 . S
C899 C139 1.339 . S
C914 C179 1.330 . S
C949 C18 1.813 . S
C964 C218 1.811 1_455 S
C999 C59 1.877 . S
C1014 C259 1.890 . S
C1049 C298 1.517 . S
C1064 C99 1.456 . S
C1099 C15 1.789 . S
C1114 C329 1.758 . S
C1149 C46 1.491 . S
C1164 C410 1.472 . S
C1199 C450 1.800 . S
C1214 C86 1.828 . S
C1249 C126 1.708 . S
C1264 C369 1.620 . S
C1299 C166 1.289 . S
C1314 C370 1.277 . S
C1349 C330 2.751 . S
C1364 C215 2.677 . S
C1399 C409 1.285 . S
C1414 C246 1.329 . S
C1449 C449 1.395 . S
C1464 C295 1.433 . S
C1499 C9 1.575 . S
C1514 C135 1.600 . S
C1549 C6 1.455 . S
C1564 C50 1.431 . S
C1599 C55 1.941 . S
C1614 C90 1.995 . S
C1649 C130 1.950 . S
C1664 C95 1.911 . S
C1699 C206 1.710 . S
C1714 C170 1.686 . S
C1749 C209 1.122 . S
C1764 C255 1.150 . S
C1799 C250 1.468 . S
C1814 C286 1.477 . S
C1849 C175 1.921 . S
C1864 C289 1.868 . S
C1899 C335 1.726 . S
C1914 C129 1.697 . S
C1949 C210 1.780 . S
C1964 C366 1.795 . S
C1999 C326 1.107 . S
C2014 C249 1.060 . S
C2049 C415 1.357 . S
C2064 C290 1.390 . S
C2099 C169 1.386 . S
C2114 C455 1.415 . S
C2149 C446 0.402 . S
C2164 C49 0.481 . S
C2199 C89 1.667 . S
C2214 C375 1.709 . S
C2249 C406 1.583 . S
C2264 C10 1.561 . S
