# Generated by pormake.
# Topology wkb, (5)-cn, num edge types: 1
# Building blocks:
#     Node 0, Type 0, BuildingBlock: XOMCOT_clean_sbu_1, # of connection points: 5
#     Node 1, Type 0, BuildingBlock: XOMCOT_clean_sbu_1, # of connection points: 5
#     Node 2, Type 0, BuildingBlock: XOMCOT_clean_sbu_1, # of connection points: 5
#     Node 3, Type 0, BuildingBlock: XOMCOT_clean_sbu_1, # of connection points: 5
#     Node 4, Type 0, BuildingBlock: XOMCOT_clean_sbu_1, # of connection points: 5
#     Node 5, Type 0, BuildingBlock: XOMCOT_clean_sbu_1, # of connection points: 5
#     Node 6, Type 0, BuildingBlock: XOMCOT_clean_sbu_1, # of connection points: 5
#     Node 7, Type 0, BuildingBlock: XOMCOT_clean_sbu_1, # of connection points: 5
#     Node 8, Type 0, BuildingBlock: XOMCOT_clean_sbu_1, # of connection points: 5
#     Node 9, Type 0, BuildingBlock: XOMCOT_clean_sbu_1, # of connection points: 5
#     Node 10, Type 0, BuildingBlock: XOMCOT_clean_sbu_1, # of connection points: 5
#     Node 11, Type 0, BuildingBlock: XOMCOT_clean_sbu_1, # of connection points: 5
#     Edge 12, Type (0, 0), BuildingBlock: MIFKUJ_clean_linker_0, # of connection points: 2
#     Edge 13, Type (0, 0), BuildingBlock: MIFKUJ_clean_linker_0, # of connection points: 2
#     Edge 14, Type (0, 0), BuildingBlock: MIFKUJ_clean_linker_0, # of connection points: 2
#     Edge 15, Type (0, 0), BuildingBlock: MIFKUJ_clean_linker_0, # of connection points: 2
#     Edge 16, Type (0, 0), BuildingBlock: MIFKUJ_clean_linker_0, # of connection points: 2
#     Edge 17, Type (0, 0), BuildingBlock: MIFKUJ_clean_linker_0, # of connection points: 2
#     Edge 18, Type (0, 0), BuildingBlock: MIFKUJ_clean_linker_0, # of connection points: 2
#     Edge 19, Type (0, 0), BuildingBlock: MIFKUJ_clean_linker_0, # of connection points: 2
#     Edge 20, Type (0, 0), BuildingBlock: MIFKUJ_clean_linker_0, # of connection points: 2
#     Edge 21, Type (0, 0), BuildingBlock: MIFKUJ_clean_linker_0, # of connection points: 2
#     Edge 22, Type (0, 0), BuildingBlock: MIFKUJ_clean_linker_0, # of connection points: 2
#     Edge 23, Type (0, 0), BuildingBlock: MIFKUJ_clean_linker_0, # of connection points: 2
#     Edge 24, Type (0, 0), BuildingBlock: MIFKUJ_clean_linker_0, # of connection points: 2
#     Edge 25, Type (0, 0), BuildingBlock: MIFKUJ_clean_linker_0, # of connection points: 2
#     Edge 26, Type (0, 0), BuildingBlock: MIFKUJ_clean_linker_0, # of connection points: 2
#     Edge 27, Type (0, 0), BuildingBlock: MIFKUJ_clean_linker_0, # of connection points: 2
#     Edge 28, Type (0, 0), BuildingBlock: MIFKUJ_clean_linker_0, # of connection points: 2
#     Edge 29, Type (0, 0), BuildingBlock: MIFKUJ_clean_linker_0, # of connection points: 2
#     Edge 30, Type (0, 0), BuildingBlock: MIFKUJ_clean_linker_0, # of connection points: 2
#     Edge 31, Type (0, 0), BuildingBlock: MIFKUJ_clean_linker_0, # of connection points: 2
#     Edge 32, Type (0, 0), BuildingBlock: MIFKUJ_clean_linker_0, # of connection points: 2
#     Edge 33, Type (0, 0), BuildingBlock: MIFKUJ_clean_linker_0, # of connection points: 2
#     Edge 34, Type (0, 0), BuildingBlock: MIFKUJ_clean_linker_0, # of connection points: 2
#     Edge 35, Type (0, 0), BuildingBlock: MIFKUJ_clean_linker_0, # of connection points: 2
#     Edge 36, Type (0, 0), BuildingBlock: MIFKUJ_clean_linker_0, # of connection points: 2
#     Edge 37, Type (0, 0), BuildingBlock: MIFKUJ_clean_linker_0, # of connection points: 2
#     Edge 38, Type (0, 0), BuildingBlock: MIFKUJ_clean_linker_0, # of connection points: 2
#     Edge 39, Type (0, 0), BuildingBlock: MIFKUJ_clean_linker_0, # of connection points: 2
#     Edge 40, Type (0, 0), BuildingBlock: MIFKUJ_clean_linker_0, # of connection points: 2
#     Edge 41, Type (0, 0), BuildingBlock: MIFKUJ_clean_linker_0, # of connection points: 2
# Relax obj value: 0.058
# Max RMSD: 0.101
# Mean RMSD: 0.101
data_MOF--net-wkb--node1-XOMCOT_clean_sbu_1--edge1-MIFKUJ_clean_linker_0
_symmetry_space_group_name_H-M    P1
_symmetry_Int_Tables_number       1
_symmetry_cell_setting            triclinic
loop_
_symmetry_equiv_pos_as_xyz
'x, y, z'
_cell_length_a     59.081033
_cell_length_b     59.056545
_cell_length_c     46.671215
_cell_angle_alpha  90.03052
_cell_angle_beta   89.93971
_cell_angle_gamma 120.00594
loop_
_atom_site_label
_atom_site_type_symbol
_atom_site_fract_x
_atom_site_fract_y
_atom_site_fract_z
_atom_type_partial_charge
C0 C 0.08968 0.37229 0.00879 0.0
C1 C 0.08506 0.37141 0.97996 0.0
N2 N 0.06728 0.34664 0.97292 0.0
N3 N 0.07465 0.34829 0.02005 0.0
C4 C 0.06141 0.33286 0.99762 0.0
H5 H 0.10318 0.38936 0.02094 0.0
Co6 Co 0.07637 0.34173 0.05857 0.0
C7 C 1.01792 0.30436 0.06719 0.0
O8 O 1.01394 0.32306 0.07637 0.0
N9 N 0.07914 0.33531 0.09751 0.0
C10 C 0.07219 0.32766 0.14429 0.0
C11 C 0.06182 0.33011 0.11896 0.0
C12 C 0.09989 0.33593 0.11046 0.0
N13 N 0.09615 0.33132 0.13888 0.0
O14 O 0.09157 0.32037 0.04749 0.0
H15 H 0.04316 0.32903 0.11684 0.0
H16 H 0.11778 0.34045 0.09949 0.0
O17 O 0.04077 0.30975 0.05866 0.0
C18 C 0.11568 0.335 0.04098 0.0
O19 O 0.12618 0.36028 0.04535 0.0
N20 N 0.06442 0.36575 0.06813 0.0
C21 C 0.05808 0.40967 0.07488 0.0
C22 C 0.04327 0.39016 0.05475 0.0
C23 C 0.04699 0.36868 0.05142 0.0
C24 C 0.0791 0.38472 0.0877 0.0
C25 C 0.07591 0.40646 0.09178 0.0
H26 H 0.03625 0.35468 0.03471 0.0
H27 H 0.09452 0.38394 0.09928 0.0
H28 H 0.04776 0.3121 -0.00064 0.0
H29 H 0.09447 0.38764 0.96516 0.0
H30 H 0.06284 0.32359 0.16509 0.0
H31 H 0.0293 0.39174 0.04112 0.0
H32 H 0.08842 0.42137 0.10696 0.0
C33 C 0.73811 0.08787 0.17999 0.0
C34 C 0.7362 0.08557 0.15079 0.0
N35 N 0.74267 0.06763 0.14266 0.0
N36 N 0.74549 0.0713 0.19043 0.0
C37 C 0.74846 0.05937 0.16718 0.0
H38 H 0.73477 0.10112 0.19293 0.0
Co39 Co 0.75253 0.07098 0.22903 0.0
C40 C 0.72948 1.012 0.23501 0.0
O41 O 0.70694 1.00848 0.24408 0.0
N42 N 0.76064 0.07187 0.26814 0.0
C43 C 0.76016 0.06345 0.31472 0.0
C44 C 0.74785 0.05396 0.2889 0.0
C45 C 0.78065 0.09204 0.28198 0.0
N46 N 0.78082 0.0874 0.31025 0.0
O47 O 0.78911 0.08522 0.21889 0.0
H48 H 0.73012 0.03555 0.286 0.0
H49 H 0.7944 0.11022 0.27179 0.0
O50 O 0.74755 0.0349 0.22737 0.0
C51 C 0.80031 0.10976 0.21379 0.0
O52 O 0.78699 0.12174 0.21865 0.0
N53 N 0.71656 0.05976 0.23778 0.0
C54 C 0.6664 0.05359 0.24482 0.0
C55 C 0.6713 0.03983 0.22349 0.0
C56 C 0.69645 0.04344 0.22008 0.0
C57 C 0.71214 0.07361 0.25835 0.0
C58 C 0.68723 0.07044 0.26258 0.0
H59 H 0.69985 0.03336 0.20273 0.0
H60 H 0.7282 0.08825 0.27083 0.0
H61 H 0.75496 0.04521 0.16822 0.0
H62 H 0.73122 0.09688 0.13656 0.0
H63 H 0.75426 0.05358 0.3352 0.0
H64 H 0.65591 0.02665 0.20916 0.0
H65 H 0.68467 0.08215 0.27873 0.0
C66 C 0.67259 0.73488 0.34215 0.0
C67 C 0.67506 0.73359 0.31313 0.0
N68 N 0.69977 0.73953 0.30728 0.0
N69 N 0.69553 0.74142 0.3548 0.0
C70 C 0.71194 0.74446 0.33301 0.0
H71 H 0.65525 0.73168 0.35348 0.0
Co72 Co 0.69977 0.74753 0.39395 0.0
C73 C 0.73535 0.7243 0.40329 0.0
O74 O 0.71569 0.70129 0.41009 0.0
N75 N 0.7037 0.75467 0.43346 0.0
C76 C 0.70821 0.75284 0.48056 0.0
C77 C 0.70949 0.74272 0.45453 0.0
C78 C 0.69885 0.77189 0.44737 0.0
N79 N 0.70144 0.77118 0.47605 0.0
O80 O 0.72256 0.78429 0.38553 0.0
H81 H 0.71308 0.72671 0.4517 0.0
H82 H 0.69298 0.78435 0.43673 0.0
O83 O 0.7311 0.74276 0.3957 0.0
C84 C 0.70917 0.79523 0.37953 0.0
O85 O 0.68364 0.7813 0.38241 0.0
N86 N 0.6744 0.71138 0.40097 0.0
C87 C 0.62986 0.66132 0.40582 0.0
C88 C 0.64977 0.66614 0.38619 0.0
C89 C 0.6715 0.69135 0.38363 0.0
C90 C 0.65486 0.70696 0.41981 0.0
C91 C 0.6328 0.68216 0.42289 0.0
H92 H 0.68587 0.69485 0.36727 0.0
H93 H 0.65552 0.72292 0.43178 0.0
H94 H 0.73231 0.7503 0.33594 0.0
H95 H 0.65993 0.72928 0.29747 0.0
H96 H 0.7109 0.74629 0.50126 0.0
H97 H 0.64806 0.65085 0.37198 0.0
H98 H 0.61784 0.67952 0.43814 0.0
C99 C 0.95969 0.66566 0.50886 0.0
C100 C 0.96303 0.66856 0.47974 0.0
N101 N 0.98181 0.69332 0.4743 0.0
N102 N 0.97626 0.6885 0.52172 0.0
C103 C 0.98964 0.70507 0.50009 0.0
H104 H 0.94559 0.64821 0.52006 0.0
Co105 Co 0.97486 0.69391 0.56071 0.0
C106 C 0.03364 0.73005 0.56842 0.0
O107 O 0.03728 0.71082 0.57632 0.0
N108 N 0.97262 0.69946 0.60013 0.0
C109 C 0.98108 0.70731 0.64669 0.0
C110 C 0.99056 0.70464 0.62082 0.0
C111 C 0.95227 0.69882 0.61417 0.0
N112 N 0.95694 0.70362 0.6425 0.0
O113 O 0.95999 0.71592 0.55122 0.0
H114 H 1.00908 0.70559 0.6178 0.0
H115 H 0.93434 0.69497 0.60383 0.0
O116 O 1.01077 0.72544 0.56103 0.0
C117 C 0.93588 0.70112 0.54488 0.0
O118 O 0.92548 0.67591 0.54963 0.0
N119 N 0.98617 0.66913 0.56856 0.0
C120 C 0.99192 0.62478 0.57406 0.0
C121 C 1.00663 0.64434 0.55392 0.0
C122 C 1.00304 0.66595 0.55107 0.0
C123 C 0.97147 0.65 0.58798 0.0
C124 C 0.97431 0.62801 0.59136 0.0
H125 H 1.01358 0.67997 0.5343 0.0
H126 H 0.95642 0.65096 0.60016 0.0
H127 H 1.00395 0.72552 0.50308 0.0
H128 H 0.95236 0.6537 0.46373 0.0
H129 H 0.99093 0.7109 0.66713 0.0
H130 H 1.01994 0.64238 0.53952 0.0
H131 H 0.96228 0.61331 0.60699 0.0
C132 C 0.3231 0.95279 0.67349 0.0
C133 C 0.32292 0.9566 0.6446 0.0
N134 N 0.31267 0.97213 0.64 0.0
N135 N 0.31324 0.96603 0.68724 0.0
C136 C 0.30704 0.97777 0.66625 0.0
H137 H 0.329 0.94018 0.68383 0.0
Co138 Co 0.3057 0.96101 0.7261 0.0
C139 C 0.32369 1.01515 0.7481 0.0
O140 O 0.34057 1.01314 0.76451 0.0
N141 N 0.29744 0.95461 0.76599 0.0
C142 C 0.30006 0.953 0.81361 0.0
C143 C 0.31392 0.96244 0.78872 0.0
C144 C 0.27351 0.93993 0.77808 0.0
N145 N 0.27463 0.93878 0.80692 0.0
O146 O 0.26899 0.94645 0.71647 0.0
H147 H 0.33496 0.97378 0.78775 0.0
H148 H 0.25546 0.92999 0.76615 0.0
O149 O 0.30943 0.99654 0.73069 0.0
C150 C 0.25938 0.92274 0.70823 0.0
O151 O 0.27406 0.91193 0.71076 0.0
N152 N 0.34157 0.97251 0.73304 0.0
C153 C 0.39259 0.98036 0.7357 0.0
C154 C 0.38784 0.99985 0.72484 0.0
C155 C 0.36216 0.99529 0.72303 0.0
C156 C 0.34572 0.95306 0.74263 0.0
C157 C 0.37091 0.95666 0.74449 0.0
H158 H 0.35875 1.00975 0.71286 0.0
H159 H 0.32917 0.93426 0.74821 0.0
H160 H 0.2972 0.98881 0.66996 0.0
H161 H 0.32927 0.94808 0.62813 0.0
H162 H 0.3082 0.95549 0.83492 0.0
H163 H 0.40372 0.01837 0.71737 0.0
H164 H 0.37313 0.94049 0.75178 0.0
C165 C 0.38018 0.30559 0.83869 0.0
C166 C 0.37826 0.30935 0.81004 0.0
N167 N 0.35343 0.30305 0.80438 0.0
N168 N 0.35677 0.29727 0.85124 0.0
C169 C 0.34065 0.2955 0.82972 0.0
H170 H 0.39755 0.30875 0.84986 0.0
Co171 Co 0.35157 0.2893 0.89002 0.0
C172 C 0.31509 0.3112 0.90046 0.0
O173 O 0.33451 0.33389 0.90852 0.0
N174 N 0.34636 0.28036 0.92922 0.0
C175 C 0.33918 0.27989 0.9761 0.0
C176 C 0.34127 0.29251 0.95072 0.0
C177 C 0.34752 0.26051 0.94229 0.0
N178 N 0.3431 0.25973 0.97078 0.0
O179 O 0.32995 0.25267 0.87939 0.0
H180 H 0.34011 0.31004 0.94862 0.0
H181 H 0.35151 0.24683 0.93121 0.0
O182 O 0.31962 0.29318 0.89174 0.0
C183 C 0.34483 0.24338 0.87327 0.0
O184 O 0.37005 0.25844 0.87776 0.0
N185 N 0.37611 0.32537 0.89899 0.0
C186 C 0.41997 0.37569 0.90571 0.0
C187 C 0.40058 0.37094 0.88544 0.0
C188 C 0.37912 0.34572 0.88214 0.0
C189 C 0.39516 0.32969 0.91846 0.0
C190 C 0.41683 0.35465 0.92257 0.0
H191 H 0.36504 0.34251 0.86558 0.0
H192 H 0.39447 0.31353 0.93006 0.0
H193 H 0.32011 0.28901 0.83259 0.0
H194 H 0.39385 0.3158 0.79444 0.0
H195 H 0.33586 0.28567 0.99699 0.0
H196 H 0.40217 0.3865 0.8718 0.0
H197 H 0.4317 0.35712 0.93782 0.0
C198 C 0.67625 0.97517 0.82017 0.0
C199 C 0.68031 0.98668 0.84663 0.0
N200 N 0.7061 0.99892 0.8523 0.0
N201 N 0.69944 0.98047 0.80891 0.0
C202 C 0.71727 0.99487 0.82907 0.0
H203 H 0.65743 0.96268 0.81045 0.0
Co204 Co 0.70457 0.96632 0.7756 0.0
C205 C 0.7403 1.01114 0.73988 0.0
O206 O 0.72396 0.99886 0.71879 0.0
N207 N 0.71037 0.95143 0.74262 0.0
C208 C 0.73348 0.94042 0.71395 0.0
C209 C 0.73456 0.95553 0.73668 0.0
C210 C 0.6948 0.93341 0.72298 0.0
N211 N 0.70849 0.92646 0.70542 0.0
O212 O 0.72625 0.95609 0.79688 0.0
H213 H 0.752 0.96833 0.7487 0.0
H214 H 0.67382 0.92446 0.72217 0.0
O215 O 0.73531 1.00085 0.76501 0.0
C216 C 0.71153 0.93483 0.81027 0.0
O217 O 0.6861 0.92485 0.80821 0.0
N218 N 0.68047 0.97372 0.75654 0.0
C219 C 0.63652 0.97858 0.74435 0.0
C220 C 0.66127 1.00082 0.74795 0.0
C221 C 0.68288 0.99798 0.75468 0.0
C222 C 0.65656 0.95199 0.75272 0.0
C223 C 0.63452 0.95395 0.74623 0.0
H224 H 0.70089 1.01524 0.76068 0.0
H225 H 0.65397 0.93294 0.75747 0.0
H226 H 0.73789 1.00136 0.8272 0.0
H227 H 0.66527 0.98481 0.86131 0.0
H228 H 0.74976 0.93939 0.70469 0.0
H229 H 0.66358 0.0202 0.7477 0.0
H230 H 0.61576 0.93622 0.74413 0.0
C231 C 0.73415 0.66017 0.99238 0.0
C232 C 0.73175 0.66391 0.021 0.0
N233 N 0.74107 0.68961 0.02536 0.0
N234 N 0.74442 0.68334 0.97868 0.0
C235 C 0.74885 0.70105 -0.00059 0.0
H236 H 0.72871 0.64173 0.98207 0.0
Co237 Co 0.75191 0.6875 0.93971 0.0
C238 C 0.73082 0.7244 0.92816 0.0
O239 O 0.7086 0.70553 0.91825 0.0
N240 N 0.76026 0.69177 0.90031 0.0
C241 C 0.75848 0.69507 0.85293 0.0
C242 C 0.74613 0.69335 0.87841 0.0
C243 C 0.78128 0.69279 0.88742 0.0
N244 N 0.7806 0.69475 0.85865 0.0
O245 O 0.78856 0.70923 0.94956 0.0
H246 H 0.72742 0.69216 0.8804 0.0
H247 H 0.79647 0.69133 0.89871 0.0
O248 O 0.74827 0.7194 0.93763 0.0
C249 C 0.79753 0.69455 0.95765 0.0
O250 O 0.78241 0.66915 0.95457 0.0
N251 N 0.71579 0.66308 0.93163 0.0
C252 C 0.66515 0.61974 0.92582 0.0
C253 C 0.67011 0.6402 0.94472 0.0
C254 C 0.69553 0.66147 0.94757 0.0
C255 C 0.71131 0.64286 0.91384 0.0
C256 C 0.68618 0.62143 0.91011 0.0
H257 H 0.69905 0.67645 0.96314 0.0
H258 H 0.72747 0.64266 0.9032 0.0
H259 H 0.75741 0.72182 0.99558 0.0
H260 H 0.72407 0.64899 0.03745 0.0
H261 H 0.75163 0.69627 0.83179 0.0
H262 H 0.65455 0.6396 0.95758 0.0
H263 H 0.68351 0.60568 0.89605 0.0
C264 C 0.09563 0.7306 0.15482 0.0
C265 C 0.09202 0.73003 0.18392 0.0
N266 N 0.07342 0.73632 0.18924 0.0
N267 N 0.07932 0.7371 0.14183 0.0
C268 C 0.06597 0.74049 0.16332 0.0
H269 H 0.10958 0.72696 0.14373 0.0
Co270 Co 0.08049 0.74345 0.10281 0.0
C271 C 1.02168 0.72144 0.09554 0.0
O272 O 1.0174 0.6982 0.08823 0.0
N273 N 0.08254 0.75081 0.06334 0.0
C274 C 0.0739 0.7494 0.01677 0.0
C275 C 0.06454 0.73764 0.04283 0.0
C276 C 0.10273 0.77046 0.04905 0.0
N277 N 0.09796 0.77009 0.02068 0.0
O278 O 0.09554 0.78037 0.11191 0.0
H279 H 0.04601 0.72015 0.0462 0.0
H280 H 0.12085 0.78448 0.05912 0.0
O281 O 0.04478 0.73948 0.10253 0.0
C282 C 0.1198 0.79027 0.11785 0.0
O283 O 0.13059 0.7758 0.11314 0.0
N284 N 0.0687 0.70715 0.09536 0.0
C285 C 0.06178 0.65652 0.09032 0.0
C286 C 0.04787 0.6621 0.11082 0.0
C287 C 0.05188 0.68749 0.11327 0.0
C288 C 0.08276 0.70205 0.07569 0.0
C289 C 0.07922 0.67691 0.07243 0.0
H290 H 0.04166 0.69142 0.13004 0.0
H291 H 0.09785 0.71775 0.06321 0.0
H292 H 0.05181 0.74678 0.16013 0.0
H293 H 0.10227 0.72533 0.19993 0.0
H294 H 0.06365 0.74319 0.99655 0.0
H295 H 0.03427 0.64708 0.12525 0.0
H296 H 0.09109 0.67383 0.05695 0.0
C297 C 0.37618 0.08742 0.32433 0.0
C298 C 0.37156 0.08288 0.35315 0.0
N299 N 0.34736 0.06227 0.35666 0.0
N300 N 0.35499 0.06979 0.3097 0.0
C301 C 0.33767 0.05459 0.32997 0.0
H302 H 0.39371 0.10289 0.31453 0.0
Co303 Co 0.35239 0.07173 0.27032 0.0
C304 C 0.31766 1.01324 0.25927 0.0
O305 O 0.33764 1.01057 0.25208 0.0
N306 N 0.34972 0.07457 0.23022 0.0
C307 C 0.34867 0.06834 0.183 0.0
C308 C 0.34942 0.05848 0.20938 0.0
C309 C 0.34898 0.09404 0.21572 0.0
N310 N 0.34835 0.0907 0.18707 0.0
O311 O 0.32919 0.08562 0.27714 0.0
H312 H 0.3509 0.04125 0.21276 0.0
H313 H 0.34975 0.11088 0.22576 0.0
O314 O 0.32138 0.03553 0.26784 0.0
C315 C 0.34247 0.11014 0.28235 0.0
O316 O 0.36798 0.12191 0.27917 0.0
N317 N 0.37814 0.06125 0.2654 0.0
C318 C 0.42233 0.05502 0.26264 0.0
C319 C 0.40165 0.03994 0.28152 0.0
C320 C 0.38 0.04364 0.28291 0.0
C321 C 0.39868 0.07685 0.2479 0.0
C322 C 0.42054 0.07366 0.2457 0.0
H323 H 0.36472 0.03236 0.29826 0.0
H324 H 0.3987 0.09261 0.23612 0.0
H325 H 0.31814 0.03881 0.32534 0.0
H326 H 0.385 0.09382 0.37025 0.0
H327 H 0.34859 0.05984 0.16242 0.0
H328 H 0.40224 0.0255 0.29531 0.0
H329 H 0.43642 0.08652 0.23167 0.0
C330 C 0.3135 0.37418 0.4837 0.0
C331 C 0.31537 0.37209 0.51276 0.0
N332 N 0.30874 0.34724 0.51878 0.0
N333 N 0.30619 0.35089 0.47137 0.0
C334 C 0.30303 0.33464 0.49333 0.0
H335 H 0.31718 0.39158 0.47214 0.0
Co336 Co 0.3 0.34537 0.43238 0.0
C337 C 0.32378 0.31037 0.4236 0.0
O338 O 0.34637 0.32991 0.41543 0.0
N339 N 0.29283 0.33981 0.39277 0.0
C340 C 0.29504 0.33396 0.34593 0.0
C341 C 0.30724 0.33725 0.37186 0.0
C342 C 0.27202 0.33816 0.37879 0.0
N343 N 0.27282 0.33455 0.35029 0.0
O344 O 0.26354 0.32209 0.4414 0.0
H345 H 0.326 0.33873 0.37478 0.0
H346 H 0.25653 0.33962 0.38928 0.0
O347 O 0.30559 0.31468 0.43209 0.0
C348 C 0.25158 0.33467 0.44643 0.0
O349 O 0.26417 0.36007 0.44203 0.0
N350 N 0.33582 0.37101 0.42497 0.0
C351 C 0.3855 0.41591 0.41971 0.0
C352 C 0.3811 0.39607 0.43925 0.0
C353 C 0.35607 0.37414 0.44201 0.0
C354 C 0.33976 0.39044 0.40624 0.0
C355 C 0.36439 0.41273 0.40297 0.0
H356 H 0.35284 0.35984 0.45835 0.0
H357 H 0.32349 0.38932 0.39447 0.0
H358 H 0.29686 0.31415 0.49072 0.0
H359 H 0.32088 0.38756 0.52835 0.0
H360 H 0.30251 0.3322 0.32537 0.0
H361 H 0.39656 0.39798 0.45326 0.0
H362 H 0.36671 0.42763 0.38781 0.0
C363 C 0.96497 0.31319 0.64953 0.0
C364 C 0.97002 0.31645 0.67838 0.0
N365 N 0.98735 0.30868 0.68455 0.0
N366 N 0.97938 0.30382 0.63751 0.0
C367 C 0.9926 0.30089 0.65943 0.0
H368 H 0.95162 0.31734 0.63791 0.0
Co369 Co 0.97761 0.29555 0.59903 0.0
C370 C 0.03621 0.31615 0.59154 0.0
O371 O 0.04112 0.33915 0.5824 0.0
N372 N 0.97503 0.28635 0.56006 0.0
C373 C 0.98263 0.28542 0.5135 0.0
C374 C 0.99259 0.29847 0.53885 0.0
C375 C 0.95455 0.26606 0.54694 0.0
N376 N 0.95862 0.26495 0.5186 0.0
O377 O 0.96241 0.25917 0.61013 0.0
H378 H 1.01113 0.31618 0.54121 0.0
H379 H 0.93691 0.25231 0.55798 0.0
O380 O 1.01297 0.29897 0.59918 0.0
C381 C 0.93806 0.24926 0.61556 0.0
O382 O 0.92718 0.2636 0.61058 0.0
N383 N 0.98964 0.33142 0.58943 0.0
C384 C 0.9953 0.38138 0.58268 0.0
C385 C 1.01082 0.37715 0.60225 0.0
C386 C 1.00733 0.35202 0.60571 0.0
C387 C 0.97443 0.33533 0.57027 0.0
C388 C 0.9772 0.36007 0.56627 0.0
H389 H 1.01819 0.34894 0.62239 0.0
H390 H 0.95892 0.31894 0.55898 0.0
H391 H 1.00585 0.29335 0.65701 0.0
H392 H 0.9613 0.32358 0.69373 0.0
H393 H 0.99211 0.29114 0.49281 0.0
H394 H 1.02454 0.39278 0.61599 0.0
H395 H 0.96462 0.36227 0.55104 0.0
H396 H 0.2653 0.31277 0.29732 0.0
H397 H 0.23531 0.31124 0.26043 0.0
H398 H 0.20796 0.34993 0.31743 0.0
H399 H 0.23831 0.35221 0.35421 0.0
H400 H 0.16767 0.30712 0.28954 0.0
H401 H 0.24963 0.384 0.26611 0.0
H402 H 0.2967 0.40843 0.25477 0.0
H403 H 0.2834 0.36022 0.18068 0.0
H404 H 0.23627 0.33523 0.19183 0.0
H405 H 0.10127 0.346 0.19441 0.0
H406 H 0.13138 0.34508 0.22952 0.0
H407 H 0.16206 0.31515 0.16512 0.0
H408 H 0.13217 0.31651 0.12972 0.0
H409 H 0.20054 0.35125 0.19582 0.0
H410 H 0.1189 0.27514 0.21742 0.0
H411 H 0.07172 0.25002 0.2281 0.0
H412 H 0.08399 0.29489 0.3048 0.0
H413 H 0.13121 0.32057 0.29436 0.0
C414 C 0.25313 0.32121 0.302 0.0
C415 C 0.25442 0.33276 0.32881 0.0
C416 C 0.23591 0.3202 0.28089 0.0
C417 C 0.21958 0.33065 0.28616 0.0
C418 C 0.22038 0.3417 0.313 0.0
C419 C 0.23771 0.34288 0.33406 0.0
C420 C 0.20177 0.33028 0.26363 0.0
C421 C 0.17483 0.31698 0.26915 0.0
C422 C 0.21114 0.3425 0.23675 0.0
C423 C 0.23947 0.35754 0.23 0.0
C424 C 0.25677 0.37844 0.24755 0.0
C425 C 0.28346 0.39243 0.24113 0.0
C426 C 0.29305 0.38583 0.21707 0.0
C427 C 0.27595 0.36528 0.19934 0.0
C428 C 0.24925 0.3512 0.2057 0.0
C429 C 0.1143 0.33905 0.18779 0.0
C430 C 0.11422 0.33112 0.15939 0.0
C431 C 0.13149 0.33851 0.20787 0.0
C432 C 0.14864 0.32956 0.20011 0.0
C433 C 0.14894 0.32205 0.17162 0.0
C434 C 0.1319 0.32286 0.15141 0.0
C435 C 0.16634 0.32826 0.22176 0.0
C436 C 0.19329 0.34122 0.21611 0.0
C437 C 0.15694 0.31552 0.24845 0.0
C438 C 0.12858 0.29993 0.25497 0.0
C439 C 0.11152 0.27977 0.23647 0.0
C440 C 0.08477 0.26542 0.24249 0.0
C441 C 0.07486 0.2709 0.26708 0.0
C442 C 0.0917 0.29069 0.28575 0.0
C443 C 0.11846 0.30513 0.2798 0.0
H444 H 0.05414 0.25977 0.2717 0.0
H445 H 0.31371 0.39669 0.21213 0.0
H446 H 0.83213 0.1223 0.30286 0.0
H447 H 0.86255 0.15217 0.33893 0.0
H448 H 0.80044 0.12202 0.40147 0.0
H449 H 0.76996 0.09215 0.36548 0.0
H450 H 0.83081 0.17751 0.3995 0.0
H451 H 0.84227 0.10256 0.40553 0.0
H452 H 0.85077 0.06879 0.3858 0.0
H453 H 0.92653 0.12829 0.35707 0.0
H454 H 0.91827 0.16247 0.37617 0.0
H455 H 0.90585 0.2338 0.52372 0.0
H456 H 0.87597 0.20279 0.48869 0.0
H457 H 0.94032 0.22329 0.43078 0.0
H458 H 0.97065 0.25337 0.46634 0.0
H459 H 0.90861 0.17245 0.42997 0.0
H460 H 0.8979 0.24742 0.42235 0.0
H461 H 0.8897 0.28212 0.43973 0.0
H462 H 0.8135 0.22416 0.46905 0.0
H463 H 0.82138 0.18909 0.45219 0.0
C464 C 0.82498 0.12215 0.32426 0.0
C465 C 0.79872 0.10488 0.33142 0.0
C466 C 0.84236 0.13909 0.34485 0.0
C467 C 0.83372 0.13916 0.37284 0.0
C468 C 0.80746 0.12218 0.37996 0.0
C469 C 0.79015 0.10502 0.35949 0.0
C470 C 0.8521 0.15696 0.39474 0.0
C471 C 0.84765 0.17624 0.40649 0.0
C472 C 0.87438 0.15563 0.40317 0.0
C473 C 0.87954 0.13509 0.39204 0.0
C474 C 0.86066 0.10846 0.3948 0.0
C475 C 0.86544 0.08924 0.38376 0.0
C476 C 0.88916 0.09639 0.37014 0.0
C477 C 0.90816 0.12278 0.3676 0.0
C478 C 0.90344 0.14209 0.37854 0.0
C479 C 0.91384 0.23157 0.50376 0.0
C480 C 0.94081 0.24635 0.49795 0.0
C481 C 0.89659 0.21398 0.48355 0.0
C482 C 0.90581 0.21104 0.45687 0.0
C483 C 0.93272 0.22534 0.45115 0.0
C484 C 0.95003 0.24278 0.47146 0.0
C485 C 0.88738 0.19313 0.43489 0.0
C486 C 0.8918 0.1738 0.42306 0.0
C487 C 0.86517 0.19458 0.42617 0.0
C488 C 0.86034 0.21563 0.43626 0.0
C489 C 0.87947 0.24207 0.4327 0.0
C490 C 0.87487 0.26181 0.44243 0.0
C491 C 0.85112 0.25535 0.45556 0.0
C492 C 0.8319 0.22913 0.45892 0.0
C493 C 0.83641 0.20932 0.44925 0.0
H494 H 0.8476 0.27066 0.46307 0.0
H495 H 0.89283 0.08148 0.3616 0.0
H496 H 0.72181 0.78297 0.52947 0.0
H497 H 0.71215 0.80564 0.56686 0.0
H498 H 0.6606 0.81556 0.50947 0.0
H499 H 0.66986 0.79239 0.47183 0.0
H500 H 0.69324 0.86061 0.53935 0.0
H501 H 0.63371 0.77192 0.56135 0.0
H502 H 0.61898 0.7253 0.56923 0.0
H503 H 0.67151 0.7453 0.64047 0.0
H504 H 0.68688 0.79209 0.63277 0.0
H505 H 0.67122 0.91709 0.66595 0.0
H506 H 0.65876 0.88667 0.6251 0.0
H507 H 0.71179 0.86153 0.65497 0.0
H508 H 0.72403 0.89158 0.69539 0.0
H509 H 0.66529 0.82047 0.63566 0.0
H510 H 0.73108 0.9087 0.6053 0.0
H511 H 0.74692 0.95552 0.59691 0.0
H512 H 0.68189 0.9357 0.54108 0.0
H513 H 0.6655 0.88873 0.54946 0.0
C514 C 0.70819 0.78968 0.52479 0.0
C515 C 0.69646 0.78562 0.49767 0.0
C516 C 0.7027 0.80267 0.54621 0.0
C517 C 0.68529 0.81185 0.54108 0.0
C518 C 0.67398 0.80847 0.51388 0.0
C519 C 0.67943 0.79536 0.49236 0.0
C520 C 0.67962 0.82544 0.56427 0.0
C521 C 0.68644 0.85164 0.56022 0.0
C522 C 0.67081 0.81373 0.59149 0.0
C523 C 0.66152 0.78556 0.59639 0.0
C524 C 0.64225 0.76641 0.57859 0.0
C525 C 0.63377 0.73994 0.58304 0.0
C526 C 0.64432 0.73235 0.60532 0.0
C527 C 0.66334 0.75121 0.62323 0.0
C528 C 0.67192 0.77771 0.61886 0.0
C529 C 0.67976 0.90467 0.66389 0.0
C530 C 0.69877 0.9068 0.68347 0.0
C531 C 0.67276 0.88745 0.64061 0.0
C532 C 0.68453 0.87202 0.63695 0.0
C533 C 0.70248 0.87324 0.65739 0.0
C534 C 0.70962 0.89054 0.68032 0.0
C535 C 0.68 0.85586 0.61101 0.0
C536 C 0.67124 0.82916 0.61455 0.0
C537 C 0.687 0.86709 0.58335 0.0
C538 C 0.69689 0.89527 0.57831 0.0
C539 C 0.72005 0.91435 0.59143 0.0
C540 C 0.72915 0.9409 0.58665 0.0
C541 C 0.71537 0.94858 0.56856 0.0
C542 C 0.6925 0.92972 0.55515 0.0
C543 C 0.6833 0.90314 0.55991 0.0
H544 H 0.72245 0.96915 0.56486 0.0
H545 H 0.63773 0.71184 0.60872 0.0
H546 H 0.9039 0.67719 0.64182 0.0
H547 H 0.87476 0.67691 0.67919 0.0
H548 H 0.94146 0.7303 0.72969 0.0
H549 H 0.9707 0.73072 0.69238 0.0
H550 H 0.906 0.69123 0.76219 0.0
H551 H 0.90519 0.75137 0.69378 0.0
H552 H 0.90012 0.7662 0.64607 0.0
H553 H 0.82019 0.70419 0.64296 0.0
H554 H 0.82488 0.68876 0.69051 0.0
H555 H 0.83318 0.71944 0.86385 0.0
H556 H 0.86451 0.72241 0.82744 0.0
H557 H 0.80062 0.6739 0.77077 0.0
H558 H 0.76953 0.67182 0.80668 0.0
H559 H 0.83623 0.71234 0.74183 0.0
H560 H 0.83764 0.65106 0.80953 0.0
H561 H 0.84265 0.63675 0.85759 0.0
H562 H 0.92135 0.70113 0.8622 0.0
H563 H 0.91671 0.71595 0.81425 0.0
C564 C 0.91237 0.68912 0.66069 0.0
C565 C 0.93964 0.70398 0.66408 0.0
C566 C 0.89569 0.6889 0.68209 0.0
C567 C 0.90593 0.70374 0.70716 0.0
C568 C 0.93313 0.71862 0.71058 0.0
C569 C 0.94981 0.71879 0.68925 0.0
C570 C 0.88829 0.7035 0.72998 0.0
C571 C 0.89094 0.69616 0.75784 0.0
C572 C 0.86837 0.7095 0.72419 0.0
C573 C 0.86546 0.71879 0.69562 0.0
C574 C 0.88658 0.74078 0.68284 0.0
C575 C 0.88377 0.74932 0.65584 0.0
C576 C 0.85985 0.73615 0.6415 0.0
C577 C 0.8387 0.7144 0.65412 0.0
C578 C 0.84142 0.70576 0.6811 0.0
C579 C 0.82595 0.70929 0.84368 0.0
C580 C 0.79901 0.69544 0.838 0.0
C581 C 0.8438 0.71092 0.82291 0.0
C582 C 0.83495 0.69812 0.79641 0.0
C583 C 0.80798 0.68405 0.79095 0.0
C584 C 0.79021 0.68284 0.81146 0.0
C585 C 0.85363 0.69969 0.77404 0.0
C586 C 0.85125 0.70737 0.74623 0.0
C587 C 0.87376 0.69395 0.77987 0.0
C588 C 0.87675 0.68472 0.80841 0.0
C589 C 0.85598 0.66221 0.82084 0.0
C590 C 0.85876 0.654 0.84805 0.0
C591 C 0.88229 0.66805 0.86295 0.0
C592 C 0.90314 0.69026 0.85062 0.0
C593 C 0.90046 0.69855 0.82341 0.0
H594 H 0.88438 0.66171 0.88404 0.0
H595 H 0.85771 0.7428 0.6206 0.0
H596 H 0.27074 0.95167 0.86138 0.0
H597 H 0.23845 0.92391 0.89707 0.0
H598 H 0.19909 0.86377 0.83332 0.0
H599 H 0.23132 0.89174 0.79737 0.0
H600 H 0.1644 0.86714 0.86854 0.0
H601 H 0.24178 0.86083 0.8795 0.0
H602 H 0.28899 0.87768 0.88572 0.0
H603 H 0.28744 0.91275 0.96578 0.0
H604 H 0.24026 0.89642 0.95983 0.0
H605 H 0.09822 0.75999 0.96402 0.0
H606 H 0.12646 0.79012 0.92711 0.0
H607 H 0.16492 0.85049 0.99076 0.0
H608 H 0.13652 0.82047 0.02788 0.0
H609 H 0.19959 0.84724 0.95549 0.0
H610 H 0.12129 0.85201 0.94471 0.0
H611 H 0.07398 0.83432 0.93815 0.0
H612 H 0.07703 0.80093 0.85749 0.0
H613 H 0.12432 0.81812 0.86377 0.0
C614 C 0.25508 0.9326 0.85495 0.0
C615 C 0.25371 0.92371 0.82672 0.0
C616 C 0.23667 0.91676 0.87533 0.0
C617 C 0.21671 0.89155 0.868 0.0
C618 C 0.21442 0.88313 0.83945 0.0
C619 C 0.23278 0.89912 0.81893 0.0
C620 C 0.19917 0.87359 0.8905 0.0
C621 C 0.17205 0.86253 0.8874 0.0
C622 C 0.2092 0.86793 0.91534 0.0
C623 C 0.23754 0.87762 0.91908 0.0
C624 C 0.25154 0.8723 0.89833 0.0
C625 C 0.27829 0.88173 0.90182 0.0
C626 C 0.29122 0.89633 0.9261 0.0
C627 C 0.2774 0.90147 0.94697 0.0
C628 C 0.25066 0.89211 0.94356 0.0
C629 C 0.11245 0.77974 0.97019 0.0
C630 C 0.11498 0.78782 -0.00104 0.0
C631 C 0.12862 0.79695 0.94903 0.0
C632 C 0.14755 0.82265 0.95612 0.0
C633 C 0.15039 0.83073 0.98483 0.0
C634 C 0.13421 0.81351 0.00604 0.0
C635 C 0.16481 0.84089 0.93365 0.0
C636 C 0.19191 0.85192 0.93671 0.0
C637 C 0.15472 0.84638 0.90875 0.0
C638 C 0.12631 0.83615 0.90484 0.0
C639 C 0.11184 0.84073 0.92568 0.0
C640 C 0.08503 0.83082 0.92199 0.0
C641 C 0.0725 0.81645 0.89745 0.0
C642 C 0.08676 0.81203 0.87651 0.0
C643 C 0.11358 0.82188 0.8801 0.0
H644 H 0.05174 0.8088 0.89464 0.0
H645 H 0.31193 0.90362 0.92876 0.0
H646 H 0.3702 0.2338 0.96805 0.0
H647 H 0.37139 0.2045 0.00429 0.0
H648 H 0.31766 0.21566 0.05687 0.0
H649 H 0.31636 0.24487 0.02078 0.0
H650 H 0.35819 0.22046 0.0878 0.0
H651 H 0.29793 0.15923 0.01813 0.0
H652 H 0.28449 0.13991 0.96993 0.0
H653 H 0.3473 0.12312 0.96845 0.0
H654 H 0.36133 0.14266 0.01647 0.0
H655 H 0.32454 0.11959 0.18935 0.0
H656 H 0.32392 0.14822 0.15184 0.0
H657 H 0.37212 0.12976 0.09825 0.0
H658 H 0.37207 0.10057 0.1354 0.0
H659 H 0.3357 0.12914 0.06723 0.0
H660 H 0.39665 0.18945 0.13515 0.0
H661 H 0.41221 0.20933 0.18276 0.0
H662 H 0.35155 0.22913 0.18681 0.0
H663 H 0.3354 0.20905 0.13937 0.0
C664 C 0.35839 0.22976 0.98715 0.0
C665 C 0.34321 0.24171 0.99153 0.0
C666 C 0.35913 0.21305 0.00788 0.0
C667 C 0.34448 0.20777 0.03321 0.0
C668 C 0.3292 0.21955 0.03754 0.0
C669 C 0.32853 0.2363 0.01691 0.0
C670 C 0.34539 0.19041 0.05558 0.0
C671 C 0.35296 0.20038 0.08341 0.0
C672 C 0.33938 0.1645 0.0496 0.0
C673 C 0.33082 0.15263 0.02079 0.0
C674 C 0.30898 0.15159 0.00744 0.0
C675 C 0.30125 0.14057 0.98016 0.0
C676 C 0.31508 0.13035 0.96612 0.0
C677 C 0.33663 0.13107 0.97934 0.0
C678 C 0.34446 0.14209 0.00659 0.0
C679 C 0.33511 0.12181 0.16962 0.0
C680 C 0.34837 0.10791 0.16527 0.0
C681 C 0.33481 0.1382 0.14821 0.0
C682 C 0.3483 0.14147 0.12232 0.0
C683 C 0.36153 0.12754 0.11798 0.0
C684 C 0.36148 0.11086 0.1392 0.0
C685 C 0.34834 0.1591 0.09959 0.0
C686 C 0.34097 0.14922 0.07167 0.0
C687 C 0.35487 0.18522 0.10539 0.0
C688 C 0.36468 0.19753 0.13382 0.0
C689 C 0.38652 0.19789 0.14628 0.0
C690 C 0.39546 0.20921 0.17322 0.0
C691 C 0.38283 0.22042 0.18783 0.0
C692 C 0.36129 0.22041 0.17548 0.0
C693 C 0.35226 0.20908 0.14855 0.0
H694 H 0.38977 0.22917 0.2087 0.0
H695 H 0.30908 0.1218 0.94503 0.0
H696 H 0.05376 0.43814 0.03095 0.0
H697 H 0.05272 0.4789 0.03391 0.0
H698 H 0.05831 0.47792 0.12595 0.0
H699 H 0.05878 0.4367 0.12322 0.0
H700 H 1.02267 0.49196 0.10914 0.0
H701 H 0.11149 0.51734 0.08623 0.0
H702 H 0.14671 0.51668 0.05852 0.0
H703 H 0.12347 0.54171 0.9833 0.0
H704 H 0.08786 0.54216 0.01049 0.0
H705 H 0.05876 0.62464 0.13469 0.0
H706 H 0.0565 0.58225 0.13209 0.0
H707 H 0.0573 0.58608 0.03978 0.0
H708 H 0.05982 0.62869 0.04226 0.0
H709 H 0.08929 0.57018 0.05677 0.0
H710 H 1.00065 0.5451 0.07917 0.0
H711 H 0.96505 0.54547 0.10639 0.0
H712 H 0.9872 0.51958 0.18176 0.0
H713 H 1.02318 0.5194 0.15507 0.0
C714 C 0.05439 0.44633 0.05189 0.0
C715 C 0.05634 0.43403 0.07686 0.0
C716 C 0.05406 0.46984 0.05352 0.0
C717 C 0.05575 0.48172 0.08014 0.0
C718 C 0.05708 0.46922 0.10516 0.0
C719 C 0.05752 0.44573 0.10354 0.0
C720 C 0.0565 0.50734 0.08178 0.0
C721 C 0.03744 0.50916 0.09799 0.0
C722 C 0.07538 0.52968 0.06669 0.0
C723 C 0.09685 0.52953 0.05033 0.0
C724 C 0.11376 0.5225 0.06373 0.0
C725 C 0.13382 0.5222 0.04812 0.0
C726 C 0.13729 0.52908 0.01915 0.0
C727 C 0.12074 0.53635 0.00574 0.0
C728 C 0.10063 0.53665 0.02124 0.0
C729 C 0.05807 0.61632 0.1138 0.0
C730 C 0.05932 0.63009 0.08867 0.0
C731 C 0.0568 0.59202 0.11234 0.0
C732 C 0.05639 0.58065 0.08572 0.0
C733 C 0.05761 0.59435 0.0606 0.0
C734 C 0.05906 0.61876 0.06204 0.0
C735 C 0.05537 0.55487 0.08408 0.0
C736 C 0.07445 0.55301 0.06789 0.0
C737 C 0.03644 0.53247 0.0991 0.0
C738 C 1.01477 0.53248 0.11518 0.0
C739 C 0.99806 0.53968 0.1016 0.0
C740 C 0.97779 0.53982 0.11693 0.0
C741 C 0.97391 0.53262 0.14581 0.0
C742 C 0.99025 0.52519 0.1594 0.0
C743 C 1.01057 0.52504 0.14418 0.0
H744 H 0.9582 0.53274 0.15764 0.0
H745 H 0.15283 0.52884 0.00711 0.0
H746 H 0.45012 0.05567 0.21519 0.0
H747 H 0.49037 0.05351 0.21338 0.0
H748 H 0.48895 0.04606 0.30535 0.0
H749 H 0.44891 0.04872 0.30738 0.0
H750 H 0.53746 0.0817 0.28608 0.0
H751 H 0.47273 0.99353 0.26272 0.0
H752 H 0.43535 0.95896 0.23611 0.0
H753 H 0.47946 0.984 0.15789 0.0
H754 H 0.517 0.01897 0.18397 0.0
H755 H 0.6394 0.05102 0.29386 0.0
H756 H 0.59728 0.04933 0.29789 0.0
H757 H 0.59221 0.0505 0.20577 0.0
H758 H 0.63413 0.05191 0.20162 0.0
H759 H 0.54624 1.01692 0.2265 0.0
H760 H 0.60998 0.1058 0.24826 0.0
H761 H 0.64753 0.14138 0.27364 0.0
H762 H 0.60569 0.11638 0.35328 0.0
H763 H 0.568 0.08041 0.32841 0.0
C764 C 0.45836 0.0536 0.23506 0.0
C765 C 0.44617 0.05233 0.26144 0.0
C766 C 0.48131 0.05216 0.23397 0.0
C767 C 0.49266 0.0494 0.25921 0.0
C768 C 0.48056 0.04811 0.28557 0.0
C769 C 0.45751 0.0494 0.28667 0.0
C770 C 0.51745 0.04847 0.2581 0.0
C771 C 0.53926 0.06726 0.27341 0.0
C772 C 0.52009 0.0301 0.24098 0.0
C773 C 0.49759 1.00902 0.22527 0.0
C774 C 0.47439 0.9918 0.23981 0.0
C775 C 0.45319 0.97211 0.22483 0.0
C776 C 0.45501 0.96933 0.19532 0.0
C777 C 0.47807 0.98619 0.18074 0.0
C778 C 0.49932 1.00594 0.19562 0.0
C779 C 0.62935 0.05099 0.27445 0.0
C780 C 0.64024 0.05163 0.24742 0.0
C781 C 0.60524 0.05006 0.27678 0.0
C782 C 0.59159 0.05016 0.25214 0.0
C783 C 0.60223 0.05036 0.22513 0.0
C784 C 0.62623 0.05109 0.22279 0.0
C785 C 0.56636 0.05023 0.25441 0.0
C786 C 0.54446 0.0313 0.23928 0.0
C787 C 0.56368 0.06861 0.27152 0.0
C788 C 0.58629 0.09025 0.28652 0.0
C789 C 0.60887 0.10777 0.27122 0.0
C790 C 0.63016 0.12803 0.28551 0.0
C791 C 0.62903 0.1311 0.31507 0.0
C792 C 0.60656 0.11395 0.33039 0.0
C793 C 0.58522 0.09364 0.3162 0.0
H794 H 0.64553 0.14679 0.32609 0.0
H795 H 0.43857 0.95407 0.18376 0.0
H796 H 0.57937 0.65108 0.40955 0.0
H797 H 0.53939 0.6087 0.41246 0.0
H798 H 0.58475 0.5699 0.40843 0.0
H799 H 0.62499 0.61248 0.40509 0.0
H800 H 0.54295 0.5447 0.37604 0.0
H801 H 0.55733 0.57575 0.4724 0.0
H802 H 0.56605 0.60706 0.51161 0.0
H803 H 0.49477 0.60668 0.49258 0.0
H804 H 0.48579 0.57563 0.45298 0.0
H805 H 0.43448 0.42122 0.42008 0.0
H806 H 0.47688 0.46177 0.4182 0.0
H807 H 0.43761 0.50662 0.41375 0.0
H808 H 0.39529 0.46632 0.41604 0.0
H809 H 0.47767 0.52728 0.45232 0.0
H810 H 0.46474 0.49697 0.35451 0.0
H811 H 0.45643 0.46511 0.31603 0.0
H812 H 0.52571 0.46318 0.33949 0.0
H813 H 0.53424 0.49479 0.37838 0.0
C814 C 0.58092 0.63357 0.40957 0.0
C815 C 0.60548 0.63525 0.40743 0.0
C816 C 0.55797 0.60927 0.41124 0.0
C817 C 0.55894 0.58597 0.41124 0.0
C818 C 0.58341 0.58754 0.40858 0.0
C819 C 0.60642 0.6119 0.40666 0.0
C820 C 0.53438 0.5601 0.41378 0.0
C821 C 0.5289 0.54077 0.39302 0.0
C822 C 0.51574 0.55492 0.43567 0.0
C823 C 0.521 0.57352 0.45956 0.0
C824 C 0.5436 0.58248 0.47644 0.0
C825 C 0.54858 0.60017 0.49876 0.0
C826 C 0.53101 0.6089 0.50454 0.0
C827 C 0.50838 0.59992 0.48806 0.0
C828 C 0.50332 0.58225 0.46569 0.0
C829 C 0.43488 0.43973 0.41877 0.0
C830 C 0.41143 0.44045 0.41803 0.0
C831 C 0.45914 0.4629 0.41752 0.0
C832 C 0.46049 0.4873 0.41561 0.0
C833 C 0.43712 0.48807 0.41513 0.0
C834 C 0.4129 0.46495 0.41618 0.0
C835 C 0.48615 0.51211 0.41441 0.0
C836 C 0.49183 0.5312 0.43546 0.0
C837 C 0.50503 0.51696 0.39296 0.0
C838 C 0.49997 0.49802 0.36955 0.0
C839 C 0.47808 0.48959 0.35161 0.0
C840 C 0.47335 0.4716 0.3297 0.0
C841 C 0.49049 0.46206 0.32537 0.0
C842 C 0.51243 0.47055 0.3429 0.0
C843 C 0.51723 0.48851 0.36487 0.0
H844 H 0.48679 0.44815 0.30839 0.0
H845 H 0.53489 0.62259 0.52183 0.0
H846 H 0.03593 0.6201 0.57251 0.0
H847 H 0.03844 0.57997 0.57446 0.0
H848 H 0.95441 0.53425 0.58064 0.0
H849 H 0.95185 0.57424 0.57915 0.0
H850 H 0.9746 0.51556 0.61633 0.0
H851 H 0.98922 0.53999 0.51702 0.0
H852 H 1.01089 0.56919 0.47593 0.0
H853 H 0.08363 0.57421 0.49887 0.0
H854 H 0.06246 0.5453 0.54035 0.0
H855 H 0.95445 0.39076 0.57894 0.0
H856 H 0.95602 0.43286 0.57773 0.0
H857 H 0.04014 0.47285 0.58226 0.0
H858 H 0.03875 0.43061 0.58302 0.0
H859 H 1.0223 0.49529 0.54246 0.0
H860 H 1.00595 0.46854 0.6409 0.0
H861 H 0.98302 0.43831 0.68086 0.0
H862 H 0.91184 0.4367 0.65804 0.0
H863 H 0.93426 0.46663 0.61766 0.0
C864 C 1.01799 0.60148 0.5742 0.0
C865 C 0.99369 0.60045 0.57573 0.0
C866 C 1.01943 0.5785 0.57524 0.0
C867 C 0.99659 0.5539 0.57734 0.0
C868 C 0.97235 0.5529 0.57911 0.0
C869 C 0.97092 0.57584 0.57833 0.0
C870 C 0.99777 0.52919 0.57785 0.0
C871 C 0.9848 0.51107 0.59995 0.0
C872 C 1.01156 0.52339 0.55692 0.0
C873 C 1.02432 0.54071 0.53196 0.0
C874 C 1.00988 0.54748 0.51343 0.0
C875 C 1.02207 0.56396 0.49005 0.0
C876 C 0.04864 0.57361 0.48484 0.0
C877 C 0.06306 0.56675 0.50296 0.0
C878 C 0.05098 0.55031 0.5264 0.0
C879 C 0.97334 0.40846 0.5793 0.0
C880 C 0.99649 0.40723 0.581 0.0
C881 C 0.97419 0.43257 0.57888 0.0
C882 C 0.99818 0.45608 0.5802 0.0
C883 C 1.02139 0.45499 0.58132 0.0
C884 C 1.02056 0.43082 0.58192 0.0
C885 C 0.99888 0.48168 0.58071 0.0
C886 C 1.01222 0.49992 0.55886 0.0
C887 C 0.98524 0.48752 0.60172 0.0
C888 C 0.97174 0.46965 0.6261 0.0
C889 C 0.98536 0.46159 0.64427 0.0
C890 C 0.97246 0.44453 0.66702 0.0
C891 C 0.94597 0.43555 0.67195 0.0
C892 C 0.93235 0.44365 0.65418 0.0
C893 C 0.94515 0.46068 0.63137 0.0
H894 H 0.93602 0.42234 0.68957 0.0
H895 H 0.05803 0.58636 0.46673 0.0
H896 H 0.43387 1.00785 0.69833 0.0
H897 H 0.47699 1.0118 0.6992 0.0
H898 H 0.45537 0.96349 0.77488 0.0
H899 H 0.41305 0.96109 0.77545 0.0
H900 H 0.50269 0.99917 0.78077 0.0
H901 H 0.4558 0.94068 0.70322 0.0
H902 H 0.43078 0.92712 0.65809 0.0
H903 H 0.49508 0.99008 0.61355 0.0
H904 H 0.52036 1.00421 0.65852 0.0
H905 H 0.59035 0.95055 0.77313 0.0
H906 H 0.55125 0.95461 0.77029 0.0
H907 H 0.589 1.01602 0.70765 0.0
H908 H 0.62844 1.01201 0.71035 0.0
H909 H 0.53631 0.97777 0.69352 0.0
H910 H 0.58418 0.03296 0.77264 0.0
H911 H 0.60831 0.04349 0.8183 0.0
H912 H 0.54042 0.98281 0.86057 0.0
H913 H 0.51598 0.97164 0.81505 0.0
C914 C 0.43837 0.99846 0.71554 0.0
C915 C 0.41959 0.98393 0.73669 0.0
C916 C 0.46303 1.0004 0.71573 0.0
C917 C 0.46944 0.98744 0.73672 0.0
C918 C 0.45102 0.97355 0.75827 0.0
C919 C 0.42656 0.97193 0.75835 0.0
C920 C 0.4951 0.98803 0.7363 0.0
C921 C 0.50981 0.99423 0.7617 0.0
C922 C 0.50497 0.98218 0.71134 0.0
C923 C 0.48985 0.97367 0.68428 0.0
C924 C 0.46453 0.95174 0.68383 0.0
C925 C 0.45031 0.94394 0.65828 0.0
C926 C 0.4613 0.95778 0.63298 0.0
C927 C 0.48657 0.97941 0.63317 0.0
C928 C 0.50086 0.98731 0.65868 0.0
C929 C 0.59031 0.96475 0.75849 0.0
C930 C 0.61252 0.98085 0.74181 0.0
C931 C 0.56797 0.96719 0.75707 0.0
C932 C 0.5672 0.98572 0.73889 0.0
C933 C 0.58916 1.0016 0.72186 0.0
C934 C 0.61171 0.99938 0.72351 0.0
C935 C 0.54343 0.98846 0.73803 0.0
C936 C 0.52916 0.9829 0.71244 0.0
C937 C 0.53374 0.99449 0.7629 0.0
C938 C 0.54832 1.00133 0.79037 0.0
C939 C 0.57445 0.02173 0.79162 0.0
C940 C 0.58818 0.02784 0.81749 0.0
C941 C 0.57592 1.0138 0.84231 0.0
C942 C 0.54989 0.99366 0.84133 0.0
C943 C 0.53609 0.98745 0.8155 0.0
H944 H 0.58659 0.01855 0.86232 0.0
H945 H 0.45026 0.95171 0.61322 0.0
H946 H 0.44575 0.40213 0.95444 0.0
H947 H 0.48635 0.44429 0.95787 0.0
H948 H 0.48954 0.45072 0.86576 0.0
H949 H 0.44921 0.40847 0.86215 0.0
H950 H 0.53673 0.46229 0.88848 0.0
H951 H 0.47174 0.48707 0.9056 0.0
H952 H 0.43361 0.48498 0.92978 0.0
H953 H 0.47477 0.50471 0.00992 0.0
H954 H 0.51303 0.50656 0.98627 0.0
H955 H 0.63898 0.59353 0.87736 0.0
H956 H 0.59663 0.55331 0.87403 0.0
H957 H 0.58933 0.55153 0.9661 0.0
H958 H 0.63142 0.5921 0.96945 0.0
H959 H 0.54387 0.53741 0.94364 0.0
H960 H 0.60815 0.51193 0.92827 0.0
H961 H 0.64649 0.51319 0.9056 0.0
H962 H 0.60714 0.49351 0.82438 0.0
H963 H 0.56869 0.49248 0.84649 0.0
C964 C 0.45509 0.41252 0.93491 0.0
C965 C 0.4441 0.40191 0.90802 0.0
C966 C 0.47823 0.43672 0.93691 0.0
C967 C 0.49096 0.45084 0.91207 0.0
C968 C 0.48007 0.44028 0.88523 0.0
C969 C 0.45685 0.41619 0.88322 0.0
C970 C 0.51592 0.47632 0.91399 0.0
C971 C 0.5382 0.47884 0.90021 0.0
C972 C 0.5181 0.49771 0.92999 0.0
C973 C 0.49515 0.4967 0.94421 0.0
C974 C 0.47258 0.49075 0.92842 0.0
C975 C 0.45096 0.48965 0.94202 0.0
C976 C 0.45174 0.49464 0.97138 0.0
C977 C 0.47418 0.50081 0.98718 0.0
C978 C 0.49585 0.50191 0.97369 0.0
C979 C 0.62833 0.58458 0.89689 0.0
C980 C 0.63867 0.59601 0.92367 0.0
C981 C 0.60412 0.56149 0.89498 0.0
C982 C 0.58987 0.54895 0.91985 0.0
C983 C 0.59986 0.56071 0.94657 0.0
C984 C 0.62395 0.58397 0.94847 0.0
C985 C 0.56477 0.52347 0.91803 0.0
C986 C 0.54245 0.52091 0.93187 0.0
C987 C 0.5626 0.5019 0.90233 0.0
C988 C 0.58564 0.50238 0.88899 0.0
C989 C 0.60775 0.50805 0.90553 0.0
C990 C 0.62949 0.5087 0.89279 0.0
C991 C 0.62928 0.5035 0.86355 0.0
C992 C 0.60729 0.49757 0.84701 0.0
C993 C 0.58551 0.49693 0.85964 0.0
H994 H 0.64613 0.50401 0.85373 0.0
H995 H 0.43498 0.49378 0.98187 0.0
H996 H 0.99946 0.34489 0.72557 0.0
H997 H 1.01555 0.34489 0.77372 0.0
H998 H 1.01505 0.27309 0.75508 0.0
H999 H 0.99886 0.27308 0.70643 0.0
H1000 H 0.99091 0.27443 0.80958 0.0
H1001 H 0.0711 0.3224 0.75873 0.0
H1002 H 0.102 0.35539 0.7248 0.0
H1003 H 0.10285 0.4166 0.77531 0.0
H1004 H 0.07162 0.38395 0.80932 0.0
H1005 H 0.05428 0.29954 0.94953 0.0
H1006 H 0.04216 0.28648 0.89927 0.0
H1007 H 0.04624 0.36028 0.88241 0.0
H1008 H 0.05835 0.37325 0.9321 0.0
H1009 H 0.07355 0.35051 0.84358 0.0
H1010 H 0.98786 0.30271 0.88855 0.0
H1011 H 0.95547 0.27038 0.92198 0.0
H1012 H 0.96428 0.20953 0.8825 0.0
H1013 H 0.99699 0.2416 0.84906 0.0
C1014 C 1.00276 0.3291 0.73173 0.0
C1015 C 0.99791 0.30898 0.71237 0.0
C1016 C 1.01205 0.32917 0.75914 0.0
C1017 C 1.01656 0.30905 0.76784 0.0
C1018 C 1.01171 0.28881 0.74866 0.0
C1019 C 1.00269 0.28892 0.72093 0.0
C1020 C 1.02609 0.30953 0.79724 0.0
C1021 C 1.00929 0.29067 0.81699 0.0
C1022 C 0.04991 0.33089 0.8068 0.0
C1023 C 0.06891 0.35068 0.78653 0.0
C1024 C 0.07773 0.34288 0.76251 0.0
C1025 C 0.09533 0.36153 0.74327 0.0
C1026 C 0.10436 0.38807 0.74788 0.0
C1027 C 0.09585 0.39603 0.77177 0.0
C1028 C 0.07823 0.37746 0.79107 0.0
C1029 C 0.05216 0.3127 0.9351 0.0
C1030 C 0.05749 0.3375 0.94455 0.0
C1031 C 0.04535 0.3053 0.90644 0.0
C1032 C 0.04351 0.32252 0.88705 0.0
C1033 C 0.0479 0.34683 0.89687 0.0
C1034 C 0.05481 0.35423 0.92526 0.0
C1035 C 0.03784 0.31608 0.85624 0.0
C1036 C 0.05548 0.33386 0.83616 0.0
C1037 C 1.01475 0.29382 0.8465 0.0
C1038 C 0.99511 0.27459 0.86658 0.0
C1039 C 0.98306 0.28248 0.88718 0.0
C1040 C 0.96461 0.2642 0.90609 0.0
C1041 C 0.95789 0.23794 0.90444 0.0
C1042 C 0.96955 0.22989 0.8838 0.0
C1043 C 0.98804 0.2481 0.86487 0.0
H1044 H 0.94359 0.22381 0.91909 0.0
H1045 H 0.11799 0.40248 0.73295 0.0
H1046 H 0.74747 0.99868 0.87733 0.0
H1047 H 0.76412 1.01376 0.92588 0.0
H1048 H 0.70784 0.03931 0.93705 0.0
H1049 H 0.69161 0.02482 0.88856 0.0
H1050 H 0.75504 0.07406 0.95957 0.0
H1051 H 0.69571 0.97933 0.96041 0.0
H1052 H 0.68243 0.93431 0.94539 0.0
H1053 H 0.7546 0.94341 0.97755 0.0
H1054 H 0.76843 0.98863 0.99244 0.0
H1055 H 0.71347 0.06755 0.09832 0.0
H1056 H 0.71757 0.0588 0.04829 0.0
H1057 H 0.77771 0.04081 0.07028 0.0
H1058 H 0.77417 0.05032 0.1209 0.0
H1059 H 0.74183 1.00598 0.03063 0.0
H1060 H 0.79722 0.09808 0.03795 0.0
H1061 H 0.81022 0.14303 0.05303 0.0
H1062 H 0.74627 0.13927 0.00545 0.0
H1063 H 0.73278 0.09424 0.99032 0.0
C1064 C 0.73909 1.00805 0.88994 0.0
C1065 C 0.71811 1.01044 0.87928 0.0
C1066 C 0.74846 1.01645 0.91773 0.0
C1067 C 0.737 0.02737 0.93517 0.0
C1068 C 0.71694 0.0309 0.92399 0.0
C1069 C 0.70755 0.02246 0.89637 0.0
C1070 C 0.74446 0.03383 0.96565 0.0
C1071 C 0.75225 0.05922 0.9751 0.0
C1072 C 0.74172 1.01467 0.98579 0.0
C1073 C 0.73323 0.98742 0.9772 0.0
C1074 C 0.7088 0.97177 0.9641 0.0
C1075 C 0.70117 0.94622 0.95564 0.0
C1076 C 0.7177 0.93604 0.96042 0.0
C1077 C 0.74184 0.95135 0.9738 0.0
C1078 C 0.74958 0.97692 0.98226 0.0
C1079 C 0.72779 0.06201 0.0926 0.0
C1080 C 0.74381 0.06009 0.11356 0.0
C1081 C 0.73008 0.05696 0.06396 0.0
C1082 C 0.74847 0.04989 0.05547 0.0
C1083 C 0.7637 0.04667 0.07639 0.0
C1084 C 0.76151 0.05191 0.10527 0.0
C1085 C 0.75126 0.04593 0.0246 0.0
C1086 C 0.74542 0.02106 0.01506 0.0
C1087 C 0.75586 0.06558 0.0043 0.0
C1088 C 0.76394 0.09274 0.01315 0.0
C1089 C 0.78585 0.10679 0.03089 0.0
C1090 C 0.79332 0.13229 0.03941 0.0
C1091 C 0.77904 0.14396 0.03027 0.0
C1092 C 0.75732 0.1302 0.01251 0.0
C1093 C 0.7498 0.10472 0.0039 0.0
H1094 H 0.78483 0.16369 0.03691 0.0
H1095 H 0.71177 0.91626 0.95383 0.0
H1096 H 0.78087 0.73472 0.04647 0.0
H1097 H 0.78283 0.75347 0.09432 0.0
H1098 H 0.70492 0.69044 0.11224 0.0
H1099 H 0.70321 0.67154 0.06507 0.0
H1100 H 0.71676 0.74523 0.12449 0.0
H1101 H 0.7495 0.68377 0.13817 0.0
H1102 H 0.78131 0.66923 0.12851 0.0
H1103 H 0.84386 0.74342 0.15707 0.0
H1104 H 0.8124 0.75852 0.1665 0.0
H1105 H 0.67304 0.71092 0.26147 0.0
H1106 H 0.68914 0.71379 0.213 0.0
H1107 H 0.76646 0.77232 0.23983 0.0
H1108 H 0.75014 0.76977 0.28904 0.0
H1109 H 0.76653 0.7343 0.20369 0.0
H1110 H 0.7367 0.79522 0.19595 0.0
H1111 H 0.70809 0.81408 0.20282 0.0
H1112 H 0.64456 0.74682 0.16288 0.0
H1113 H 0.67307 0.72793 0.15495 0.0
C1114 C 0.76418 0.72513 0.06066 0.0
C1115 C 0.7419 0.70173 0.05231 0.0
C1116 C 0.76535 0.73572 0.08789 0.0
C1117 C 0.74403 0.72325 0.1067 0.0
C1118 C 0.72156 0.70031 0.09798 0.0
C1119 C 0.72062 0.6895 0.07117 0.0
C1120 C 0.74469 0.73348 0.13577 0.0
C1121 C 0.72777 0.74304 0.1418 0.0
C1122 C 0.75991 0.73164 0.15805 0.0
C1123 C 0.77867 0.72239 0.15266 0.0
C1124 C 0.77007 0.69707 0.14212 0.0
C1125 C 0.78802 0.6887 0.13675 0.0
C1126 C 0.81461 0.70543 0.14207 0.0
C1127 C 0.82327 0.73051 0.15289 0.0
C1128 C 0.80539 0.73898 0.15826 0.0
C1129 C 0.69342 0.72466 0.25716 0.0
C1130 C 0.71021 0.74039 0.27909 0.0
C1131 C 0.70262 0.72627 0.22937 0.0
C1132 C 0.72886 0.7437 0.22264 0.0
C1133 C 0.74606 0.75892 0.24455 0.0
C1134 C 0.73676 0.75733 0.27263 0.0
C1135 C 0.73768 0.74498 0.1926 0.0
C1136 C 0.75623 0.73745 0.18632 0.0
C1137 C 0.72443 0.74925 0.16987 0.0
C1138 C 0.70697 0.76013 0.175 0.0
C1139 C 0.71659 0.78441 0.18875 0.0
C1140 C 0.70043 0.79515 0.19272 0.0
C1141 C 0.67445 0.78154 0.18356 0.0
C1142 C 0.66468 0.75731 0.17003 0.0
C1143 C 0.68089 0.74669 0.16555 0.0
H1144 H 0.66193 0.78983 0.18686 0.0
H1145 H 0.82849 0.69893 0.13789 0.0
H1146 H 0.95177 0.68672 0.42835 0.0
H1147 H 0.96665 0.70076 0.37926 0.0
H1148 H 0.04681 0.73824 0.40786 0.0
H1149 H 0.03171 0.72498 0.45737 0.0
H1150 H 0.04224 0.76586 0.36567 0.0
H1151 H 1.01584 0.67564 0.38014 0.0
H1152 H 0.98615 0.62991 0.39449 0.0
H1153 H 0.93013 0.62359 0.3318 0.0
H1154 H 0.95935 0.66944 0.31735 0.0
H1155 H 0.10123 0.75252 0.23826 0.0
H1156 H 0.08436 0.75149 0.28636 0.0
H1157 H 1.00726 0.72338 0.25144 0.0
H1158 H 1.02413 0.72421 0.20311 0.0
H1159 H 1.00868 0.69286 0.29568 0.0
H1160 H 0.03985 0.78375 0.27823 0.0
H1161 H 0.07241 0.82863 0.26383 0.0
H1162 H 0.12303 0.83273 0.33204 0.0
H1163 H 0.09093 0.78771 0.34662 0.0
C1164 C 0.97254 0.69827 0.42412 0.0
C1165 C 0.99066 0.70451 0.44639 0.0
C1166 C 0.98104 0.70624 0.39613 0.0
C1167 C 1.00786 0.71995 0.38972 0.0
C1168 C 1.02602 0.72756 0.41225 0.0
C1169 C 1.01745 0.72 0.44046 0.0
C1170 C 1.0168 0.72448 0.35942 0.0
C1171 C 0.03506 0.74988 0.35041 0.0
C1172 C 1.0072 0.70368 0.33937 0.0
C1173 C 0.98966 0.67605 0.34788 0.0
C1174 C 0.99711 0.66455 0.36955 0.0
C1175 C 0.98038 0.63861 0.37769 0.0
C1176 C 0.95624 0.62387 0.36412 0.0
C1177 C 0.94881 0.63504 0.34233 0.0
C1178 C 0.96545 0.661 0.33414 0.0
C1179 C 0.08072 0.7463 0.24083 0.0
C1180 C 0.06392 0.73822 0.21701 0.0
C1181 C 0.07116 0.74596 0.26826 0.0
C1182 C 0.0446 0.7375 0.27243 0.0
C1183 C 0.02787 0.73009 0.24862 0.0
C1184 C 0.03751 0.73067 0.22106 0.0
C1185 C 0.03402 0.73421 0.30189 0.0
C1186 C 1.01557 0.70892 0.31081 0.0
C1187 C 0.04383 0.75503 0.32186 0.0
C1188 C 0.06303 0.78225 0.31339 0.0
C1189 C 0.05799 0.79414 0.29005 0.0
C1190 C 0.07636 0.81963 0.28187 0.0
C1191 C 0.0998 0.83351 0.29697 0.0
C1192 C 0.10487 0.82195 0.32035 0.0
C1193 C 0.08658 0.79646 0.32861 0.0
H1194 H 0.114 0.85323 0.29059 0.0
H1195 H 0.94331 0.60379 0.37045 0.0
H1196 H 0.29497 0.94112 0.59365 0.0
H1197 H 0.29244 0.9543 0.54476 0.0
H1198 H 0.31645 0.0323 0.57437 0.0
H1199 H 0.31851 0.01884 0.62381 0.0
H1200 H 0.28054 1.01716 0.53033 0.0
H1201 H 0.36128 0.01832 0.54833 0.0
H1202 H 0.38835 0.99977 0.56448 0.0
H1203 H 0.35257 0.93888 0.50149 0.0
H1204 H 0.325 0.95686 0.48525 0.0
H1205 H 0.35078 0.08839 0.4052 0.0
H1206 H 0.33479 0.06965 0.4527 0.0
H1207 H 0.30131 0.99208 0.41709 0.0
H1208 H 0.31678 1.01095 0.36918 0.0
H1209 H 0.33848 1.00463 0.46304 0.0
H1210 H 0.26061 1.00593 0.44205 0.0
H1211 H 0.23241 0.02344 0.42695 0.0
H1212 H 0.2629 0.07998 0.49488 0.0
H1213 H 0.29166 0.06309 0.51014 0.0
C1214 C 0.2994 0.96099 0.58977 0.0
C1215 C 0.30739 0.97912 0.61233 0.0
C1216 C 0.29789 0.96848 0.56188 0.0
C1217 C 0.30484 0.99441 0.55583 0.0
C1218 C 0.31113 1.0122 0.57857 0.0
C1219 C 0.31232 1.00456 0.60673 0.0
C1220 C 0.30774 1.00322 0.52559 0.0
C1221 C 0.29343 1.01474 0.51567 0.0
C1222 C 0.32409 0.99943 0.50629 0.0
C1223 C 0.34092 0.9888 0.51575 0.0
C1224 C 0.35908 1.00088 0.53805 0.0
C1225 C 0.37452 0.99048 0.54721 0.0
C1226 C 0.37214 0.96813 0.53406 0.0
C1227 C 0.35437 0.95618 0.51167 0.0
C1228 C 0.33885 0.96647 0.50247 0.0
C1229 C 0.33951 0.06737 0.40744 0.0
C1230 C 0.33504 0.05109 0.38363 0.0
C1231 C 0.33029 0.05668 0.43451 0.0
C1232 C 0.31681 0.02951 0.43834 0.0
C1233 C 0.31153 1.01313 0.41446 0.0
C1234 C 0.32029 0.02386 0.38718 0.0
C1235 C 0.31132 0.01862 0.46772 0.0
C1236 C 0.3254 1.00688 0.47758 0.0
C1237 C 0.29492 0.0224 0.48686 0.0
C1238 C 0.27846 0.03336 0.47711 0.0
C1239 C 0.26159 0.02233 0.45355 0.0
C1240 C 0.2454 0.03206 0.44504 0.0
C1241 C 0.24577 0.05271 0.46003 0.0
C1242 C 0.26254 0.06388 0.48338 0.0
C1243 C 0.2788 0.05424 0.49196 0.0
H1244 H 0.23312 0.06012 0.4535 0.0
H1245 H 0.38411 0.96009 0.54119 0.0
H1246 H 0.34416 0.37194 0.56017 0.0
H1247 H 0.34443 0.35582 0.60827 0.0
H1248 H 0.27367 0.28369 0.58927 0.0
H1249 H 0.27351 0.29987 0.54054 0.0
H1250 H 0.27619 0.31018 0.64577 0.0
H1251 H 0.32124 0.27647 0.59122 0.0
H1252 H 0.3528 0.27827 0.5554 0.0
H1253 H 0.41606 0.3385 0.60379 0.0
H1254 H 0.38485 0.33738 0.63968 0.0
H1255 H 0.30508 0.2702 0.78287 0.0
H1256 H 0.29027 0.27003 0.73353 0.0
H1257 H 0.36451 0.3384 0.71434 0.0
H1258 H 0.37921 0.33846 0.76308 0.0
H1259 H 0.35237 0.30168 0.67485 0.0
H1260 H 0.30779 0.34075 0.72427 0.0
H1261 H 0.27711 0.34143 0.75967 0.0
H1262 H 0.21384 0.27298 0.72114 0.0
H1263 H 0.24425 0.2717 0.68573 0.0
C1264 C 0.32864 0.35267 0.56626 0.0
C1265 C 0.30888 0.33709 0.54672 0.0
C1266 C 0.32883 0.34347 0.59366 0.0
C1267 C 0.30913 0.31857 0.60222 0.0
C1268 C 0.28907 0.30295 0.58295 0.0
C1269 C 0.28911 0.31207 0.55519 0.0
C1270 C 0.31034 0.30926 0.6313 0.0
C1271 C 0.29243 0.30761 0.65213 0.0
C1272 C 0.33173 0.30631 0.63948 0.0
C1273 C 0.35065 0.30692 0.61808 0.0
C1274 C 0.34186 0.29024 0.59412 0.0
C1275 C 0.35969 0.29111 0.57382 0.0
C1276 C 0.38641 0.30851 0.5773 0.0
C1277 C 0.39536 0.32503 0.60112 0.0
C1278 C 0.3776 0.32425 0.62148 0.0
C1279 C 0.31798 0.28536 0.76814 0.0
C1280 C 0.34339 0.30419 0.77665 0.0
C1281 C 0.30957 0.28522 0.74 0.0
C1282 C 0.32637 0.30411 0.72017 0.0
C1283 C 0.35133 0.32342 0.72911 0.0
C1284 C 0.35973 0.32345 0.75697 0.0
C1285 C 0.31887 0.3037 0.68972 0.0
C1286 C 0.33568 0.30351 0.66855 0.0
C1287 C 0.29657 0.30511 0.68137 0.0
C1288 C 0.27834 0.30591 0.70262 0.0
C1289 C 0.28738 0.3257 0.72352 0.0
C1290 C 0.27003 0.32623 0.74355 0.0
C1291 C 0.24356 0.3072 0.74273 0.0
C1292 C 0.23436 0.28766 0.72181 0.0
C1293 C 0.25164 0.28703 0.70175 0.0
H1294 H 0.23016 0.30764 0.75825 0.0
H1295 H 0.40019 0.30916 0.56155 0.0
H1296 H 0.27038 0.26376 0.91191 0.0
H1297 H 0.22997 0.25779 0.93462 0.0
H1298 H 0.25982 0.34083 0.92987 0.0
H1299 H 0.29945 0.34686 0.90687 0.0
H1300 H 0.24541 0.31395 0.98843 0.0
H1301 H 0.21487 0.31037 0.88994 0.0
H1302 H 0.20237 0.29031 0.84199 0.0
H1303 H 0.14428 0.21801 0.87967 0.0
H1304 H 0.15674 0.23757 0.9279 0.0
H1305 H 0.16655 0.3637 0.02541 0.0
H1306 H 0.1938 0.34979 0.00136 0.0
H1307 H 0.13006 0.27014 0.00083 0.0
H1308 H 0.10187 0.28428 0.02477 0.0
H1309 H 0.15656 0.28289 0.94944 0.0
H1310 H 0.18071 0.28751 0.04664 0.0
H1311 H 0.19252 0.30584 0.09538 0.0
H1312 H 0.26196 0.37224 0.06273 0.0
H1313 H 0.25038 0.35455 0.01372 0.0
C1314 C 0.26789 0.28058 0.91484 0.0
C1315 C 0.28826 0.30582 0.90768 0.0
C1316 C 0.24489 0.27718 0.92801 0.0
C1317 C 0.24203 0.29894 0.93421 0.0
C1318 C 0.26165 0.32379 0.92547 0.0
C1319 C 0.28432 0.32717 0.91223 0.0
C1320 C 0.22013 0.29684 0.95209 0.0
C1321 C 0.22594 0.30709 0.97996 0.0
C1322 C 0.19446 0.28694 0.94149 0.0
C1323 C 0.187 0.2753 0.91252 0.0
C1324 C 0.19965 0.29011 0.88802 0.0
C1325 C 0.19252 0.27886 0.86079 0.0
C1326 C 0.17261 0.25287 0.85779 0.0
C1327 C 0.15974 0.23811 0.88202 0.0
C1328 C 0.16682 0.24928 0.9093 0.0
C1329 C 0.15811 0.34313 0.02044 0.0
C1330 C 0.13193 0.3251 0.02736 0.0
C1331 C 0.1739 0.33516 0.00666 0.0
C1332 C 0.16429 0.30881 -0.00035 0.0
C1333 C 0.13804 0.29058 0.00617 0.0
C1334 C 0.12199 0.29865 0.02 0.0
C1335 C 0.1822 0.30112 0.98544 0.0
C1336 C 0.17575 0.28911 0.95832 0.0
C1337 C 0.2073 0.30904 0.9969 0.0
C1338 C 0.2146 0.3197 0.02644 0.0
C1339 C 0.19844 0.30608 0.04982 0.0
C1340 C 0.20509 0.31637 0.07751 0.0
C1341 C 0.22797 0.34019 0.08215 0.0
C1342 C 0.24426 0.35377 0.05911 0.0
C1343 C 0.23767 0.3436 0.03136 0.0
H1344 H 0.23308 0.34813 0.1036 0.0
H1345 H 0.16711 0.24419 0.83669 0.0
H1346 H 0.96602 0.28661 0.07247 0.0
H1347 H 0.9332 0.24583 0.09445 0.0
H1348 H 0.98902 0.21927 0.09876 0.0
H1349 H 1.0225 0.26064 0.07705 0.0
H1350 H 0.91989 0.18194 0.08227 0.0
H1351 H 0.99129 0.22747 0.15333 0.0
H1352 H 1.02586 0.26883 0.17415 0.0
H1353 H 0.96915 0.29201 0.19288 0.0
H1354 H 0.93435 0.25094 0.17169 0.0
H1355 H 0.83043 0.09156 0.18774 0.0
H1356 H 0.87173 0.11773 0.16143 0.0
H1357 H 0.87028 0.18805 0.18293 0.0
H1358 H 0.82999 0.16245 0.20946 0.0
H1359 H 0.9182 0.19774 0.18649 0.0
H1360 H 0.847 0.15293 0.11803 0.0
H1361 H 0.81146 0.11351 0.09506 0.0
H1362 H 0.86632 0.08994 0.06892 0.0
H1363 H 0.90204 0.12879 0.0925 0.0
C1364 C 0.97125 0.27187 0.07735 0.0
C1365 C 0.997 0.27703 0.07317 0.0
C1366 C 0.95237 0.24849 0.08987 0.0
C1367 C 0.95868 0.22958 0.09842 0.0
C1368 C 0.98374 0.23362 0.09226 0.0
C1369 C 1.00282 0.25722 0.07972 0.0
C1370 C 0.94006 0.20792 0.11733 0.0
C1371 C 0.91985 0.18492 0.1052 0.0
C1372 C 0.93969 0.21209 0.1471 0.0
C1373 C 0.96032 0.23629 0.16078 0.0
C1374 C 0.98626 0.24147 0.16177 0.0
C1375 C 1.00588 0.26484 0.17362 0.0
C1376 C 0.99972 0.28306 0.18478 0.0
C1377 C 0.9739 0.27789 0.18421 0.0
C1378 C 0.95423 0.25457 0.1723 0.0
C1379 C 0.83924 0.11264 0.18724 0.0
C1380 C 0.82676 0.12484 0.20061 0.0
C1381 C 0.86275 0.12759 0.17201 0.0
C1382 C 0.8741 0.15496 0.16979 0.0
C1383 C 0.86212 0.16706 0.1842 0.0
C1384 C 0.83886 0.15227 0.19934 0.0
C1385 C 0.89765 0.17139 0.15161 0.0
C1386 C 0.91861 0.19391 0.16381 0.0
C1387 C 0.89861 0.16663 0.12192 0.0
C1388 C 0.87713 0.14358 0.10736 0.0
C1389 C 0.85144 0.13923 0.10759 0.0
C1390 C 0.83127 0.11699 0.09448 0.0
C1391 C 0.83665 0.09925 0.08057 0.0
C1392 C 0.86219 0.10368 0.07976 0.0
C1393 C 0.88239 0.12576 0.09306 0.0
H1394 H 0.82109 0.08211 0.07033 0.0
H1395 H 1.01493 0.30116 0.19391 0.0
H1396 H 0.68517 0.82366 0.37197 0.0
H1397 H 0.70007 0.86336 0.34401 0.0
H1398 H 0.77392 0.86725 0.3292 0.0
H1399 H 0.75884 0.82667 0.35709 0.0
H1400 H 0.76645 0.91992 0.34461 0.0
H1401 H 0.74958 0.84923 0.27791 0.0
H1402 H 0.72284 0.80256 0.26522 0.0
H1403 H 0.65486 0.81081 0.25832 0.0
H1404 H 0.68108 0.85738 0.27171 0.0
H1405 H 0.77716 1.01463 0.24262 0.0
H1406 H 0.78424 0.97989 0.26178 0.0
H1407 H 0.70107 0.92629 0.26008 0.0
H1408 H 0.69408 0.96035 0.24028 0.0
H1409 H 0.72403 0.8999 0.24901 0.0
H1410 H 0.73475 0.96399 0.32071 0.0
H1411 H 0.75526 1.00848 0.34102 0.0
H1412 H 0.82953 1.01182 0.34322 0.0
H1413 H 0.80948 0.96744 0.32249 0.0
C1414 C 0.70478 0.83303 0.36322 0.0
C1415 C 0.72071 0.82175 0.36659 0.0
C1416 C 0.71329 0.85587 0.34731 0.0
C1417 C 0.73803 0.86821 0.33446 0.0
C1418 C 0.75477 0.85805 0.33909 0.0
C1419 C 0.74613 0.83488 0.355 0.0
C1420 C 0.74443 0.88975 0.31376 0.0
C1421 C 0.75803 0.91575 0.32329 0.0
C1422 C 0.73262 0.88414 0.28637 0.0
C1423 C 0.71727 0.85675 0.27601 0.0
C1424 C 0.72891 0.84106 0.27378 0.0
C1425 C 0.71383 0.8146 0.26661 0.0
C1426 C 0.68712 0.80368 0.26125 0.0
C1427 C 0.67552 0.81928 0.26265 0.0
C1428 C 0.6905 0.84572 0.27 0.0
C1429 C 0.76051 0.9952 0.24548 0.0
C1430 C 0.73503 0.99037 0.24013 0.0
C1431 C 0.76453 0.97539 0.25675 0.0
C1432 C 0.74314 0.95047 0.26306 0.0
C1433 C 0.71795 0.94523 0.25561 0.0
C1434 C 0.71396 0.96486 0.24432 0.0
C1435 C 0.74616 0.93045 0.2797 0.0
C1436 C 0.73372 0.90449 0.26966 0.0
C1437 C 0.75874 0.93611 0.30682 0.0
C1438 C 0.77071 0.96256 0.31973 0.0
C1439 C 0.75548 0.97428 0.32538 0.0
C1440 C 0.76702 0.99947 0.33696 0.0
C1441 C 0.7937 1.01301 0.34331 0.0
C1442 C 0.80888 1.00133 0.33821 0.0
C1443 C 0.79745 0.97617 0.32654 0.0
H1444 H 0.80261 0.03253 0.35224 0.0
H1445 H 0.67546 0.78317 0.25575 0.0
H1446 H 0.77862 0.77078 0.42019 0.0
H1447 H 0.8181 0.77552 0.44376 0.0
H1448 H 0.79073 0.69377 0.42914 0.0
H1449 H 0.75177 0.68899 0.4057 0.0
H1450 H 0.80102 0.70797 0.48638 0.0
H1451 H 0.84265 0.73997 0.39349 0.0
H1452 H 0.85747 0.77067 0.35276 0.0
H1453 H 0.90395 0.83451 0.4096 0.0
H1454 H 0.88911 0.80419 0.45074 0.0
H1455 H 0.89178 0.67147 0.51467 0.0
H1456 H 0.86356 0.68422 0.49076 0.0
H1457 H 0.91427 0.76437 0.51604 0.0
H1458 H 0.9436 0.7516 0.53989 0.0
H1459 H 0.89482 0.76047 0.46031 0.0
H1460 H 0.85872 0.72826 0.5521 0.0
H1461 H 0.84464 0.69804 0.59321 0.0
H1462 H 0.78706 0.6365 0.54077 0.0
H1463 H 0.80128 0.66606 0.49906 0.0
C1464 C 0.78149 0.75406 0.4212 0.0
C1465 C 0.76196 0.72947 0.41112 0.0
C1466 C 0.80398 0.75675 0.43486 0.0
C1467 C 0.80728 0.7349 0.43857 0.0
C1468 C 0.78857 0.71085 0.42685 0.0
C1469 C 0.7663 0.70818 0.41329 0.0
C1470 C 0.82869 0.73592 0.4566 0.0
C1471 C 0.82152 0.71942 0.4806 0.0
C1472 C 0.85558 0.75175 0.44997 0.0
C1473 C 0.86451 0.76988 0.42522 0.0
C1474 C 0.85583 0.76059 0.39734 0.0
C1475 C 0.86428 0.77791 0.37417 0.0
C1476 C 0.88157 0.80454 0.3786 0.0
C1477 C 0.89051 0.81388 0.4062 0.0
C1478 C 0.8821 0.79664 0.42945 0.0
C1479 C 0.89713 0.69189 0.51535 0.0
C1480 C 0.91982 0.71043 0.52976 0.0
C1481 C 0.88085 0.69916 0.50154 0.0
C1482 C 0.88631 0.72516 0.50207 0.0
C1483 C 0.90948 0.74412 0.5155 0.0
C1484 C 0.92617 0.73681 0.52922 0.0
C1485 C 0.86693 0.73152 0.48925 0.0
C1486 C 0.87439 0.74942 0.46643 0.0
C1487 C 0.84017 0.71719 0.49714 0.0
C1488 C 0.83115 0.69942 0.52237 0.0
C1489 C 0.84314 0.70825 0.54926 0.0
C1490 C 0.83513 0.69123 0.57269 0.0
C1491 C 0.81492 0.66541 0.56964 0.0
C1492 C 0.80269 0.65653 0.54312 0.0
C1493 C 0.81073 0.67341 0.51956 0.0
H1494 H 0.80876 0.65228 0.58782 0.0
H1495 H 0.88809 0.81792 0.36063 0.0
H1496 H 0.23908 0.87499 0.68333 0.0
H1497 H 0.19873 0.85076 0.6565 0.0
H1498 H 0.17993 0.91134 0.67249 0.0
H1499 H 0.22116 0.93641 0.69947 0.0
H1500 H 0.13627 0.85374 0.68023 0.0
H1501 H 0.19763 0.91253 0.61067 0.0
H1502 H 0.23983 0.93532 0.5852 0.0
H1503 H 0.23083 0.86158 0.55885 0.0
H1504 H 0.18873 0.83833 0.58444 0.0
H1505 H 0.03102 0.7737 0.58459 0.0
H1506 H 0.06702 0.81453 0.60437 0.0
H1507 H 0.12086 0.787 0.58668 0.0
H1508 H 0.08541 0.74685 0.56664 0.0
H1509 H 0.14443 0.83735 0.57748 0.0
H1510 H 0.08996 0.77884 0.65288 0.0
H1511 H 0.0481 0.75296 0.6784 0.0
H1512 H 0.04484 0.82279 0.6951 0.0
H1513 H 0.08649 0.84903 0.6692 0.0
C1514 C 0.22645 0.88331 0.68145 0.0
C1515 C 0.23354 0.90781 0.69363 0.0
C1516 C 0.2033 0.86933 0.66597 0.0
C1517 C 0.18634 0.87923 0.6623 0.0
C1518 C 0.19276 0.90332 0.67505 0.0
C1519 C 0.21632 0.91763 0.69041 0.0
C1520 C 0.16251 0.86423 0.64431 0.0
C1521 C 0.13788 0.85071 0.65756 0.0
C1522 C 0.16465 0.85974 0.61489 0.0
C1523 C 0.19005 0.87369 0.59958 0.0
C1524 C 0.20475 0.90117 0.59964 0.0
C1525 C 0.22864 0.91417 0.58513 0.0
C1526 C 0.238 0.89989 0.57042 0.0
C1527 C 0.22353 0.87261 0.57022 0.0
C1528 C 0.19963 0.85951 0.58468 0.0
C1529 C 0.05071 0.7768 0.5841 0.0
C1530 C 0.05536 0.75701 0.57409 0.0
C1531 C 0.07123 0.80001 0.59574 0.0
C1532 C 0.0967 0.80376 0.59757 0.0
C1533 C 0.10151 0.78471 0.58568 0.0
C1534 C 0.08114 0.76167 0.5742 0.0
C1535 C 0.11821 0.82623 0.61348 0.0
C1536 C 0.14253 0.841 0.59989 0.0
C1537 C 0.11581 0.83149 0.64267 0.0
C1538 C 0.09114 0.81584 0.65881 0.0
C1539 C 0.08023 0.78865 0.66186 0.0
C1540 C 0.05655 0.77391 0.67638 0.0
C1541 C 0.04377 0.78621 0.68828 0.0
C1542 C 0.05473 0.81328 0.6858 0.0
C1543 C 0.07836 0.82809 0.67119 0.0
H1544 H 1.02542 0.77476 0.69948 0.0
H1545 H 0.25643 0.90992 0.55911 0.0
H1546 H 0.29625 0.20906 0.84947 0.0
H1547 H 0.28441 0.1687 0.8223 0.0
H1548 H 0.36098 0.17939 0.83848 0.0
H1549 H 0.37268 0.21884 0.86543 0.0
H1550 H 0.34749 0.17171 0.7808 0.0
H1551 H 0.30856 0.13462 0.87377 0.0
H1552 H 0.27742 0.12593 0.91319 0.0
H1553 H 0.21314 0.08733 0.85472 0.0
H1554 H 0.24391 0.09637 0.81476 0.0
H1555 H 0.36113 0.06275 0.76617 0.0
H1556 H 0.35654 0.09969 0.78078 0.0
H1557 H 0.27566 0.05854 0.75484 0.0
H1558 H 0.28016 0.02074 0.7403 0.0
H1559 H 0.28164 0.08104 0.80814 0.0
H1560 H 0.31927 0.11155 0.71678 0.0
H1561 H 0.34947 0.12046 0.67634 0.0
H1562 H 0.41448 0.17167 0.72943 0.0
H1563 H 0.38475 0.16278 0.77033 0.0
C1564 C 0.31035 0.20252 0.84755 0.0
C1565 C 0.33548 0.21737 0.85954 0.0
C1566 C 0.30361 0.17951 0.83194 0.0
C1567 C 0.32193 0.17111 0.82806 0.0
C1568 C 0.34659 0.18554 0.84083 0.0
C1569 C 0.35322 0.20818 0.85638 0.0
C1570 C 0.31648 0.14793 0.81015 0.0
C1571 C 0.33304 0.15188 0.78675 0.0
C1572 C 0.29694 0.12207 0.81708 0.0
C1573 C 0.27855 0.11649 0.8412 0.0
C1574 C 0.2878 0.12452 0.86925 0.0
C1575 C 0.27022 0.11948 0.89171 0.0
C1576 C 0.24334 0.10611 0.88647 0.0
C1577 C 0.23397 0.09772 0.85874 0.0
C1578 C 0.25147 0.10283 0.83618 0.0
C1579 C 0.3424 0.06158 0.76306 0.0
C1580 C 0.32104 0.03876 0.75191 0.0
C1581 C 0.33981 0.08286 0.77141 0.0
C1582 C 0.31581 0.08217 0.76877 0.0
C1583 C 0.29443 0.05963 0.75703 0.0
C1584 C 0.29707 0.03816 0.74842 0.0
C1585 C 0.31353 0.10483 0.7796 0.0
C1586 C 0.29561 0.10085 0.80163 0.0
C1587 C 0.3317 0.1308 0.77128 0.0
C1588 C 0.34974 0.13641 0.74668 0.0
C1589 C 0.34002 0.1246 0.71989 0.0
C1590 C 0.35706 0.12966 0.69687 0.0
C1591 C 0.38388 0.14661 0.70032 0.0
C1592 C 0.3937 0.15856 0.72678 0.0
C1593 C 0.37675 0.15356 0.74988 0.0
H1594 H 0.39704 0.1505 0.68247 0.0
H1595 H 0.22977 0.10221 0.90389 0.0
H1596 H 0.77736 0.76875 0.9144 0.0
H1597 H 0.78246 0.81034 0.89666 0.0
H1598 H 0.70094 0.78226 0.91401 0.0
H1599 H 0.69577 0.74097 0.93108 0.0
H1600 H 0.71223 0.79786 0.86012 0.0
H1601 H 0.75147 0.83255 0.95278 0.0
H1602 H 0.78396 0.84331 0.99116 0.0
H1603 H 0.84587 0.8909 0.93265 0.0
H1604 H 0.81375 0.88014 0.89381 0.0
H1605 H 0.68568 0.89817 0.85092 0.0
H1606 H 0.698 0.86857 0.87285 0.0
H1607 H 0.77216 0.90761 0.82906 0.0
H1608 H 0.75981 0.93778 0.80666 0.0
H1609 H 0.77222 0.8894 0.89035 0.0
H1610 H 0.73255 0.85741 0.79872 0.0
H1611 H 0.69978 0.84739 0.76088 0.0
H1612 H 0.63892 0.79439 0.81749 0.0
H1613 H 0.67129 0.80444 0.85585 0.0
C1614 C 0.76079 0.77185 0.91521 0.0
C1615 C 0.73614 0.75157 0.92407 0.0
C1616 C 0.76367 0.79558 0.90494 0.0
C1617 C 0.742 0.79943 0.90369 0.0
C1618 C 0.7179 0.77976 0.91439 0.0
C1619 C 0.71499 0.75616 0.92433 0.0
C1620 C 0.74325 0.82258 0.88909 0.0
C1621 C 0.72534 0.81783 0.86691 0.0
C1622 C 0.76099 0.84882 0.89698 0.0
C1623 C 0.78025 0.85528 0.92031 0.0
C1624 C 0.77203 0.84511 0.94803 0.0
C1625 C 0.79037 0.85126 0.96988 0.0
C1626 C 0.81697 0.8677 0.96432 0.0
C1627 C 0.82527 0.87811 0.93691 0.0
C1628 C 0.80701 0.87202 0.91498 0.0
C1629 C 0.70482 0.90084 0.84616 0.0
C1630 C 0.72163 0.92017 0.82671 0.0
C1631 C 0.71186 0.88389 0.85885 0.0
C1632 C 0.73586 0.88564 0.85239 0.0
C1633 C 0.75354 0.90594 0.83438 0.0
C1634 C 0.74646 0.92312 0.82158 0.0
C1635 C 0.74059 0.86436 0.86229 0.0
C1636 C 0.75952 0.86942 0.88336 0.0
C1637 C 0.72386 0.83826 0.85339 0.0
C1638 C 0.70435 0.83182 0.83023 0.0
C1639 C 0.71216 0.84376 0.80317 0.0
C1640 C 0.69365 0.83806 0.78162 0.0
C1641 C 0.66728 0.82029 0.78679 0.0
C1642 C 0.65936 0.80815 0.81351 0.0
C1643 C 0.67778 0.81382 0.83516 0.0
H1644 H 0.65298 0.8159 0.77008 0.0
H1645 H 0.83114 0.87244 0.98127 0.0
H1646 H 0.83952 0.74533 0.9614 0.0
H1647 H 0.88066 0.75998 0.98811 0.0
H1648 H 0.85291 0.68079 0.01592 0.0
H1649 H 0.81268 0.66614 0.98936 0.0
H1650 H 0.87346 0.71802 0.06069 0.0
H1651 H 0.89461 0.70326 0.96422 0.0
H1652 H 0.90012 0.71146 0.91219 0.0
H1653 H 0.95662 0.79208 0.92768 0.0
H1654 H 0.9511 0.78442 0.97988 0.0
H1655 H 0.96959 0.68772 0.09875 0.0
H1656 H 0.93444 0.69344 0.07965 0.0
H1657 H 0.98998 0.77349 0.05819 0.0
H1658 H 1.02559 0.7677 0.07735 0.0
H1659 H 0.95884 0.74816 0.01288 0.0
H1660 H 0.94395 0.75941 0.11026 0.0
H1661 H 0.93774 0.75038 0.1621 0.0
H1662 H 0.86892 0.67647 0.14557 0.0
H1663 H 0.87496 0.68477 0.09361 0.0
C1664 C 0.84232 0.73113 0.97317 0.0
C1665 C 0.82281 0.70455 0.97307 0.0
C1666 C 0.86579 0.73949 0.9884 0.0
C1667 C 0.86983 0.72146 0.00412 0.0
C1668 C 0.85025 0.69509 0.00412 0.0
C1669 C 0.82723 0.68673 0.98869 0.0
C1670 C 0.89424 0.7293 0.02065 0.0
C1671 C 0.89218 0.72469 0.0503 0.0
C1672 C 0.91884 0.73877 0.00725 0.0
C1673 C 0.92216 0.74336 0.97592 0.0
C1674 C 0.908 0.7228 0.95653 0.0
C1675 C 0.91117 0.72733 0.92701 0.0
C1676 C 0.92865 0.75229 0.91662 0.0
C1677 C 0.94304 0.77277 0.93575 0.0
C1678 C 0.93989 0.76834 0.9653 0.0
C1679 C 0.9743 0.70678 0.09066 0.0
C1680 C 1.00039 0.72729 0.08977 0.0
C1681 C 0.95411 0.71006 0.07974 0.0
C1682 C 0.95939 0.73396 0.06755 0.0
C1683 C 0.98535 0.75488 0.06755 0.0
C1684 C 1.00566 0.75165 0.0788 0.0
C1685 C 0.93789 0.73592 0.05294 0.0
C1686 C 0.94041 0.74226 0.02359 0.0
C1687 C 0.91362 0.72795 0.06665 0.0
C1688 C 0.91002 0.72269 0.09795 0.0
C1689 C 0.92762 0.74111 0.11764 0.0
C1690 C 0.92411 0.73614 0.14707 0.0
C1691 C 0.90297 0.71285 0.15712 0.0
C1692 C 0.8853 0.6945 0.13775 0.0
C1693 C 0.88875 0.69934 0.1083 0.0
H1694 H 0.90028 0.70906 0.17991 0.0
H1695 H 0.93109 0.75575 0.89376 0.0
H1696 H 0.10541 0.82667 0.13433 0.0
H1697 H 0.1317 0.86682 0.16273 0.0
H1698 H 0.19525 0.85076 0.16458 0.0
H1699 H 0.16987 0.81162 0.13622 0.0
H1700 H 0.18014 0.86097 0.21976 0.0
H1701 H 0.20008 0.89562 0.12188 0.0
H1702 H 0.18774 0.90504 0.07478 0.0
H1703 H 0.15706 0.94924 0.11557 0.0
H1704 H 0.16891 0.93974 0.16297 0.0
H1705 H 0.30387 0.96241 0.25187 0.0
H1706 H 0.26331 0.92705 0.233 0.0
H1707 H 0.23005 0.97753 0.23192 0.0
H1708 H 0.27151 1.01375 0.25035 0.0
H1709 H 0.21969 0.9516 0.18263 0.0
H1710 H 0.20712 0.92476 0.27937 0.0
H1711 H 0.2181 0.91538 0.32722 0.0
H1712 H 0.23163 0.85626 0.29122 0.0
H1713 H 0.22111 0.86551 0.24308 0.0
C1714 C 0.12509 0.83193 0.14053 0.0
C1715 C 0.13542 0.8158 0.13293 0.0
C1716 C 0.14007 0.85482 0.15681 0.0
C1717 C 0.16542 0.8617 0.16598 0.0
C1718 C 0.17572 0.84581 0.15798 0.0
C1719 C 0.16108 0.82337 0.14157 0.0
C1720 C 0.18161 0.88498 0.18439 0.0
C1721 C 0.18874 0.88082 0.21172 0.0
C1722 C 0.19203 0.91094 0.17442 0.0
C1723 C 0.18504 0.91667 0.14596 0.0
C1724 C 0.19047 0.90712 0.12082 0.0
C1725 C 0.18362 0.91253 0.09407 0.0
C1726 C 0.17154 0.92765 0.09219 0.0
C1727 C 0.16636 0.93747 0.11706 0.0
C1728 C 0.17314 0.93209 0.14386 0.0
C1729 C 0.28786 0.96604 0.24813 0.0
C1730 C 0.29105 0.99102 0.25274 0.0
C1731 C 0.26447 0.94562 0.23741 0.0
C1732 C 0.24327 0.94931 0.23126 0.0
C1733 C 0.24602 0.97406 0.23657 0.0
C1734 C 0.26965 0.9947 0.24738 0.0
C1735 C 0.21923 0.92754 0.21765 0.0
C1736 C 0.2106 0.9319 0.1912 0.0
C1737 C 0.2071 0.90168 0.2286 0.0
C1738 C 0.21339 0.89592 0.25756 0.0
C1739 C 0.21259 0.90986 0.28161 0.0
C1740 C 0.21871 0.90455 0.3088 0.0
C1741 C 0.22557 0.88525 0.31225 0.0
C1742 C 0.22629 0.87119 0.28852 0.0
C1743 C 0.22019 0.87643 0.26128 0.0
H1744 H 0.23032 0.88117 0.33332 0.0
H1745 H 0.16626 0.93182 0.07147 0.0
H1746 H 0.35912 0.29536 0.4102 0.0
H1747 H 0.35077 0.25453 0.38817 0.0
H1748 H 0.26787 0.22313 0.39798 0.0
H1749 H 0.276 0.26462 0.4196 0.0
H1750 H 0.30339 0.19061 0.41023 0.0
H1751 H 0.26939 0.23014 0.34266 0.0
H1752 H 0.27277 0.2692 0.3193 0.0
H1753 H 0.34834 0.28925 0.28608 0.0
H1754 H 0.34563 0.25062 0.30982 0.0
H1755 H 0.29616 0.09301 0.31219 0.0
H1756 H 0.28197 0.12053 0.33727 0.0
H1757 H 0.34932 0.18965 0.30428 0.0
H1758 H 0.3631 0.16255 0.27913 0.0
H1759 H 0.3099 0.19769 0.30426 0.0
H1760 H 0.34718 0.16332 0.3723 0.0
H1761 H 0.35002 0.12912 0.39957 0.0
H1762 H 0.27335 0.10234 0.4341 0.0
H1763 H 0.26991 0.13608 0.40667 0.0
C1764 C 0.33905 0.27971 0.40823 0.0
C1765 C 0.31822 0.28347 0.41647 0.0
C1766 C 0.33435 0.25631 0.39562 0.0
C1767 C 0.30874 0.23592 0.39117 0.0
C1768 C 0.28781 0.23871 0.40118 0.0
C1769 C 0.2925 0.26238 0.41365 0.0
C1770 C 0.30455 0.21315 0.37356 0.0
C1771 C 0.30391 0.19162 0.38701 0.0
C1772 C 0.3061 0.21494 0.34334 0.0
C1773 C 0.30739 0.23764 0.32821 0.0
C1774 C 0.28681 0.243 0.33056 0.0
C1775 C 0.28859 0.26504 0.31724 0.0
C1776 C 0.31078 0.28172 0.30126 0.0
C1777 C 0.33118 0.27633 0.29848 0.0
C1778 C 0.32952 0.25436 0.31186 0.0
C1779 C 0.30752 0.11405 0.3098 0.0
C1780 C 0.33082 0.12557 0.29376 0.0
C1781 C 0.29955 0.1298 0.32436 0.0
C1782 C 0.31475 0.15731 0.32308 0.0
C1783 C 0.33718 0.16859 0.30575 0.0
C1784 C 0.34512 0.15298 0.2914 0.0
C1785 C 0.30872 0.17479 0.34083 0.0
C1786 C 0.30808 0.19579 0.32739 0.0
C1787 C 0.30622 0.17256 0.37111 0.0
C1788 C 0.30812 0.15193 0.38709 0.0
C1789 C 0.3308 0.14989 0.38543 0.0
C1790 C 0.33251 0.13057 0.40095 0.0
C1791 C 0.31176 0.11333 0.41842 0.0
C1792 C 0.28931 0.11547 0.42043 0.0
C1793 C 0.28746 0.1347 0.40489 0.0
H1794 H 0.31312 0.09843 0.43054 0.0
H1795 H 0.31214 0.29879 0.29099 0.0
H1796 H 0.08874 0.34812 0.59466 0.0
H1797 H 0.1224 0.34023 0.5747 0.0
H1798 H 0.06387 0.2607 0.55539 0.0
H1799 H 0.02994 0.26853 0.57557 0.0
H1800 H 0.14203 0.30614 0.58042 0.0
H1801 H 0.07718 0.25031 0.4855 0.0
H1802 H 0.03621 0.24242 0.46255 0.0
H1803 H 0.05114 0.3182 0.4895 0.0
H1804 H 0.09241 0.32671 0.51209 0.0
H1805 H 0.22738 0.29154 0.48178 0.0
H1806 H 0.18687 0.2772 0.50938 0.0
H1807 H 0.17623 0.33657 0.46815 0.0
H1808 H 0.21624 0.35075 0.44078 0.0
H1809 H 0.12964 0.29212 0.47541 0.0
H1810 H 0.20753 0.34777 0.53208 0.0
H1811 H 0.24942 0.35773 0.55426 0.0
H1812 H 0.21028 0.28686 0.60335 0.0
H1813 H 0.16821 0.27625 0.58105 0.0
C1814 C 0.08312 0.32869 0.58701 0.0
C1815 C 0.05667 0.30899 0.58661 0.0
C1816 C 0.10243 0.32417 0.57566 0.0
C1817 C 0.09571 0.29997 0.56321 0.0
C1818 C 0.06954 0.27958 0.56477 0.0
C1819 C 0.05017 0.28402 0.57647 0.0
C1820 C 0.1154 0.29771 0.54522 0.0
C1821 C 0.13913 0.30258 0.55755 0.0
C1822 C 0.11187 0.29339 0.51528 0.0
C1823 C 0.08768 0.28898 0.50076 0.0
C1824 C 0.07177 0.26533 0.48636 0.0
C1825 C 0.04851 0.26075 0.47343 0.0
C1826 C 0.04103 0.27976 0.47466 0.0
C1827 C 0.05691 0.30347 0.48862 0.0
C1828 C 0.08025 0.30819 0.50146 0.0
C1829 C 0.21596 0.301 0.47811 0.0
C1830 C 0.22503 0.32233 0.45919 0.0
C1831 C 0.19293 0.29293 0.49402 0.0
C1832 C 0.17858 0.30598 0.49109 0.0
C1833 C 0.18685 0.32615 0.47084 0.0
C1834 C 0.20984 0.33432 0.45525 0.0
C1835 C 0.15636 0.30066 0.51054 0.0
C1836 C 0.13223 0.29468 0.49843 0.0
C1837 C 0.15967 0.30425 0.54061 0.0
C1838 C 0.18479 0.31108 0.5547 0.0
C1839 C 0.20788 0.33426 0.54752 0.0
C1840 C 0.23165 0.34002 0.56009 0.0
C1841 C 0.23252 0.32291 0.58015 0.0
C1842 C 0.20959 0.30006 0.58777 0.0
C1843 C 0.18578 0.29417 0.57517 0.0
H1844 H 0.25094 0.32738 0.58984 0.0
H1845 H 1.02298 0.27613 0.46472 0.0
H1846 H 0.95355 0.22096 0.64941 0.0
H1847 H 0.92481 0.18075 0.6764 0.0
H1848 H 0.85731 0.17862 0.63818 0.0
H1849 H 0.88561 0.21855 0.61194 0.0
H1850 H 0.85072 0.17299 0.69359 0.0
H1851 H 0.87949 0.13541 0.61967 0.0
H1852 H 0.91216 0.13021 0.59191 0.0
H1853 H 0.93849 0.11079 0.66888 0.0
H1854 H 0.90617 0.11621 0.69715 0.0
H1855 H 0.74435 0.04572 0.69949 0.0
H1856 H 0.78285 0.08652 0.68534 0.0
H1857 H 0.82812 0.07592 0.75083 0.0
H1858 H 0.78901 0.03471 0.76561 0.0
H1859 H 0.85174 0.08954 0.69174 0.0
H1860 H 0.81698 0.12093 0.76394 0.0
H1861 H 0.78243 0.12457 0.78957 0.0
H1862 H 0.76605 0.15485 0.71364 0.0
H1863 H 0.80023 0.15101 0.68741 0.0
C1864 C 0.9326 0.21156 0.64643 0.0
C1865 C 0.92186 0.22299 0.62861 0.0
C1866 C 0.91616 0.18862 0.66193 0.0
C1867 C 0.88876 0.17662 0.65956 0.0
C1868 C 0.87828 0.18755 0.64077 0.0
C1869 C 0.89455 0.21039 0.62561 0.0
C1870 C 0.87054 0.1534 0.6772 0.0
C1871 C 0.851 0.15477 0.69307 0.0
C1872 C 0.87125 0.12976 0.67751 0.0
C1873 C 0.89067 0.12656 0.66056 0.0
C1874 C 0.89241 0.13027 0.6307 0.0
C1875 C 0.91083 0.12723 0.61487 0.0
C1876 C 0.92745 0.12027 0.62864 0.0
C1877 C 0.92565 0.11625 0.65826 0.0
C1878 C 0.90728 0.11929 0.67419 0.0
C1879 C 0.76241 0.05208 0.71111 0.0
C1880 C 0.76361 0.03698 0.73372 0.0
C1881 C 0.78443 0.07546 0.70296 0.0
C1882 C 0.8084 0.0843 0.71695 0.0
C1883 C 0.8098 0.06942 0.73971 0.0
C1884 C 0.78746 0.04605 0.74828 0.0
C1885 C 0.83159 0.10906 0.70712 0.0
C1886 C 0.85194 0.10799 0.69274 0.0
C1887 C 0.83157 0.13299 0.70792 0.0
C1888 C 0.8111 0.13554 0.72366 0.0
C1889 C 0.80589 0.12819 0.75264 0.0
C1890 C 0.78638 0.13031 0.76729 0.0
C1891 C 0.77203 0.1399 0.75323 0.0
C1892 C 0.77719 0.14743 0.72451 0.0
C1893 C 0.79666 0.14532 0.70975 0.0
H1894 H 0.75693 0.14153 0.76461 0.0
H1895 H 0.94169 0.11792 0.61635 0.0
loop_
_geom_bond_atom_site_label_1
_geom_bond_atom_site_label_2
_geom_bond_distance
_geom_bond_site_symmetry_2
_ccdc_geom_bond_type
C0 C1 1.351 . S
C0 N3 1.368 1_556 S
C0 H5 0.931 . S
C1 C0 1.351 . S
C1 N2 1.373 . S
C1 H29 0.930 . S
N2 C1 1.373 . S
N2 C4 1.340 . S
N3 C0 1.368 1_554 S
N3 C4 1.321 1_554 S
N3 Co6 2.135 . S
C4 N2 1.340 . S
C4 N3 1.321 1_556 S
C4 H28 0.930 1_556 S
H5 C0 0.931 . S
Co6 N3 2.135 . S
Co6 N9 2.121 . S
Co6 O14 2.055 . S
Co6 O17 2.039 . S
Co6 N20 2.140 . S
C7 O8 1.227 . S
C7 O17 1.265 . S
O8 C7 1.227 . S
N9 Co6 2.121 . S
N9 C11 1.375 . S
N9 C12 1.313 . S
C10 C11 1.338 . S
C10 N13 1.377 . S
C10 H30 0.930 . S
C11 N9 1.375 . S
C11 C10 1.338 . S
C11 H15 0.931 . S
C12 N9 1.313 . S
C12 N13 1.344 . S
C12 H16 0.930 . S
N13 C10 1.377 . S
N13 C12 1.344 . S
O14 Co6 2.055 . S
O14 C18 1.253 . S
H15 C11 0.931 . S
H16 C12 0.930 . S
O17 Co6 2.039 . S
O17 C7 1.265 . S
C18 O14 1.253 . S
C18 O19 1.227 . S
O19 C18 1.227 . S
N20 Co6 2.140 . S
N20 C23 1.346 . S
N20 C24 1.345 . S
C21 C22 1.387 . S
C21 C25 1.391 . S
C22 C21 1.387 . S
C22 C23 1.369 . S
C22 H31 0.929 . S
C23 N20 1.346 . S
C23 C22 1.369 . S
C23 H26 0.928 . S
C24 N20 1.345 . S
C24 C25 1.371 . S
C24 H27 0.931 . S
C25 C21 1.391 . S
C25 C24 1.371 . S
C25 H32 0.930 . S
H26 C23 0.928 . S
H27 C24 0.931 . S
H28 C4 0.930 1_554 S
H29 C1 0.930 . S
H30 C10 0.930 . S
H31 C22 0.929 . S
H32 C25 0.930 . S
C33 C34 1.351 . S
C33 N36 1.368 . S
C33 H38 0.931 . S
C34 C33 1.351 . S
C34 N35 1.373 . S
C34 H62 0.930 . S
N35 C34 1.373 . S
N35 C37 1.340 . S
N36 C33 1.368 . S
N36 C37 1.321 . S
N36 Co39 2.135 . S
C37 N35 1.340 . S
C37 N36 1.321 . S
C37 H61 0.930 . S
H38 C33 0.931 . S
Co39 N36 2.135 . S
Co39 N42 2.121 . S
Co39 O47 2.055 . S
Co39 O50 2.039 . S
Co39 N53 2.140 . S
C40 O41 1.227 . S
C40 O50 1.265 . S
O41 C40 1.227 . S
N42 Co39 2.121 . S
N42 C44 1.375 . S
N42 C45 1.313 . S
C43 C44 1.338 . S
C43 N46 1.377 . S
C43 H63 0.930 . S
C44 N42 1.375 . S
C44 C43 1.338 . S
C44 H48 0.931 . S
C45 N42 1.313 . S
C45 N46 1.344 . S
C45 H49 0.930 . S
N46 C43 1.377 . S
N46 C45 1.344 . S
O47 Co39 2.055 . S
O47 C51 1.253 . S
H48 C44 0.931 . S
H49 C45 0.930 . S
O50 Co39 2.039 . S
O50 C40 1.265 . S
C51 O47 1.253 . S
C51 O52 1.227 . S
O52 C51 1.227 . S
N53 Co39 2.140 . S
N53 C56 1.346 . S
N53 C57 1.345 . S
C54 C55 1.387 . S
C54 C58 1.391 . S
C55 C54 1.387 . S
C55 C56 1.369 . S
C55 H64 0.929 . S
C56 N53 1.346 . S
C56 C55 1.369 . S
C56 H59 0.928 . S
C57 N53 1.345 . S
C57 C58 1.371 . S
C57 H60 0.931 . S
C58 C54 1.391 . S
C58 C57 1.371 . S
C58 H65 0.930 . S
H59 C56 0.928 . S
H60 C57 0.931 . S
H61 C37 0.930 . S
H62 C34 0.930 . S
H63 C43 0.930 . S
H64 C55 0.929 . S
H65 C58 0.930 . S
C66 C67 1.351 . S
C66 N69 1.368 . S
C66 H71 0.931 . S
C67 C66 1.351 . S
C67 N68 1.373 . S
C67 H95 0.930 . S
N68 C67 1.373 . S
N68 C70 1.340 . S
N69 C66 1.368 . S
N69 C70 1.321 . S
N69 Co72 2.135 . S
C70 N68 1.340 . S
C70 N69 1.321 . S
C70 H94 0.930 . S
H71 C66 0.931 . S
Co72 N69 2.135 . S
Co72 N75 2.121 . S
Co72 O80 2.055 . S
Co72 O83 2.039 . S
Co72 N86 2.140 . S
C73 O74 1.227 . S
C73 O83 1.265 . S
O74 C73 1.227 . S
N75 Co72 2.121 . S
N75 C77 1.375 . S
N75 C78 1.313 . S
C76 C77 1.338 . S
C76 N79 1.377 . S
C76 H96 0.930 . S
C77 N75 1.375 . S
C77 C76 1.338 . S
C77 H81 0.931 . S
C78 N75 1.313 . S
C78 N79 1.344 . S
C78 H82 0.930 . S
N79 C76 1.377 . S
N79 C78 1.344 . S
O80 Co72 2.055 . S
O80 C84 1.253 . S
H81 C77 0.931 . S
H82 C78 0.930 . S
O83 Co72 2.039 . S
O83 C73 1.265 . S
C84 O80 1.253 . S
C84 O85 1.227 . S
O85 C84 1.227 . S
N86 Co72 2.140 . S
N86 C89 1.346 . S
N86 C90 1.345 . S
C87 C88 1.387 . S
C87 C91 1.391 . S
C88 C87 1.387 . S
C88 C89 1.369 . S
C88 H97 0.929 . S
C89 N86 1.346 . S
C89 C88 1.369 . S
C89 H92 0.928 . S
C90 N86 1.345 . S
C90 C91 1.371 . S
C90 H93 0.931 . S
C91 C87 1.391 . S
C91 C90 1.371 . S
C91 H98 0.930 . S
H92 C89 0.928 . S
H93 C90 0.931 . S
H94 C70 0.930 . S
H95 C67 0.930 . S
H96 C76 0.930 . S
H97 C88 0.929 . S
H98 C91 0.930 . S
C99 C100 1.351 . S
C99 N102 1.368 . S
C99 H104 0.931 . S
C100 C99 1.351 . S
C100 N101 1.373 . S
C100 H128 0.930 . S
N101 C100 1.373 . S
N101 C103 1.340 . S
N102 C99 1.368 . S
N102 C103 1.321 . S
N102 Co105 2.135 . S
C103 N101 1.340 . S
C103 N102 1.321 . S
C103 H127 0.930 . S
H104 C99 0.931 . S
Co105 N102 2.135 . S
Co105 N108 2.121 . S
Co105 O113 2.055 . S
Co105 O116 2.039 . S
Co105 N119 2.140 . S
C106 O107 1.227 . S
C106 O116 1.265 . S
O107 C106 1.227 . S
N108 Co105 2.121 . S
N108 C110 1.375 . S
N108 C111 1.313 . S
C109 C110 1.338 . S
C109 N112 1.377 . S
C109 H129 0.930 . S
C110 N108 1.375 . S
C110 C109 1.338 . S
C110 H114 0.931 . S
C111 N108 1.313 . S
C111 N112 1.344 . S
C111 H115 0.930 . S
N112 C109 1.377 . S
N112 C111 1.344 . S
O113 Co105 2.055 . S
O113 C117 1.253 . S
H114 C110 0.931 . S
H115 C111 0.930 . S
O116 Co105 2.039 . S
O116 C106 1.265 . S
C117 O113 1.253 . S
C117 O118 1.227 . S
O118 C117 1.227 . S
N119 Co105 2.140 . S
N119 C122 1.346 . S
N119 C123 1.345 . S
C120 C121 1.387 . S
C120 C124 1.391 . S
C121 C120 1.387 . S
C121 C122 1.369 . S
C121 H130 0.929 . S
C122 N119 1.346 . S
C122 C121 1.369 . S
C122 H125 0.928 . S
C123 N119 1.345 . S
C123 C124 1.371 . S
C123 H126 0.931 . S
C124 C120 1.391 . S
C124 C123 1.371 . S
C124 H131 0.930 . S
H125 C122 0.928 . S
H126 C123 0.931 . S
H127 C103 0.930 . S
H128 C100 0.930 . S
H129 C109 0.930 . S
H130 C121 0.929 . S
H131 C124 0.930 . S
C132 C133 1.351 . S
C132 N135 1.368 . S
C132 H137 0.931 . S
C133 C132 1.351 . S
C133 N134 1.373 . S
C133 H161 0.930 . S
N134 C133 1.373 . S
N134 C136 1.340 . S
N135 C132 1.368 . S
N135 C136 1.321 . S
N135 Co138 2.135 . S
C136 N134 1.340 . S
C136 N135 1.321 . S
C136 H160 0.930 . S
H137 C132 0.931 . S
Co138 N135 2.135 . S
Co138 N141 2.121 . S
Co138 O146 2.055 . S
Co138 O149 2.039 . S
Co138 N152 2.140 . S
C139 O140 1.227 . S
C139 O149 1.265 . S
O140 C139 1.227 . S
N141 Co138 2.121 . S
N141 C143 1.375 . S
N141 C144 1.313 . S
C142 C143 1.338 . S
C142 N145 1.377 . S
C142 H162 0.930 . S
C143 N141 1.375 . S
C143 C142 1.338 . S
C143 H147 0.931 . S
C144 N141 1.313 . S
C144 N145 1.344 . S
C144 H148 0.930 . S
N145 C142 1.377 . S
N145 C144 1.344 . S
O146 Co138 2.055 . S
O146 C150 1.253 . S
H147 C143 0.931 . S
H148 C144 0.930 . S
O149 Co138 2.039 . S
O149 C139 1.265 . S
C150 O146 1.253 . S
C150 O151 1.227 . S
O151 C150 1.227 . S
N152 Co138 2.140 . S
N152 C155 1.346 . S
N152 C156 1.345 . S
C153 C154 1.387 . S
C153 C157 1.391 . S
C154 C153 1.387 . S
C154 C155 1.369 . S
C154 H163 0.929 . S
C155 N152 1.346 . S
C155 C154 1.369 . S
C155 H158 0.928 . S
C156 N152 1.345 . S
C156 C157 1.371 . S
C156 H159 0.931 . S
C157 C153 1.391 . S
C157 C156 1.371 . S
C157 H164 0.930 . S
H158 C155 0.928 . S
H159 C156 0.931 . S
H160 C136 0.930 . S
H161 C133 0.930 . S
H162 C142 0.930 . S
H163 C154 0.929 . S
H164 C157 0.930 . S
C165 C166 1.351 . S
C165 N168 1.368 . S
C165 H170 0.931 . S
C166 C165 1.351 . S
C166 N167 1.373 . S
C166 H194 0.930 . S
N167 C166 1.373 . S
N167 C169 1.340 . S
N168 C165 1.368 . S
N168 C169 1.321 . S
N168 Co171 2.135 . S
C169 N167 1.340 . S
C169 N168 1.321 . S
C169 H193 0.930 . S
H170 C165 0.931 . S
Co171 N168 2.135 . S
Co171 N174 2.121 . S
Co171 O179 2.055 . S
Co171 O182 2.039 . S
Co171 N185 2.140 . S
C172 O173 1.227 . S
C172 O182 1.265 . S
O173 C172 1.227 . S
N174 Co171 2.121 . S
N174 C176 1.375 . S
N174 C177 1.313 . S
C175 C176 1.338 . S
C175 N178 1.377 . S
C175 H195 0.930 . S
C176 N174 1.375 . S
C176 C175 1.338 . S
C176 H180 0.931 . S
C177 N174 1.313 . S
C177 N178 1.344 . S
C177 H181 0.930 . S
N178 C175 1.377 . S
N178 C177 1.344 . S
O179 Co171 2.055 . S
O179 C183 1.253 . S
H180 C176 0.931 . S
H181 C177 0.930 . S
O182 Co171 2.039 . S
O182 C172 1.265 . S
C183 O179 1.253 . S
C183 O184 1.227 . S
O184 C183 1.227 . S
N185 Co171 2.140 . S
N185 C188 1.346 . S
N185 C189 1.345 . S
C186 C187 1.387 . S
C186 C190 1.391 . S
C187 C186 1.387 . S
C187 C188 1.369 . S
C187 H196 0.929 . S
C188 N185 1.346 . S
C188 C187 1.369 . S
C188 H191 0.928 . S
C189 N185 1.345 . S
C189 C190 1.371 . S
C189 H192 0.931 . S
C190 C186 1.391 . S
C190 C189 1.371 . S
C190 H197 0.930 . S
H191 C188 0.928 . S
H192 C189 0.931 . S
H193 C169 0.930 . S
H194 C166 0.930 . S
H195 C175 0.930 . S
H196 C187 0.929 . S
H197 C190 0.930 . S
C198 C199 1.351 . S
C198 N201 1.368 . S
C198 H203 0.931 . S
C199 C198 1.351 . S
C199 N200 1.373 . S
C199 H227 0.930 . S
N200 C199 1.373 . S
N200 C202 1.340 . S
N201 C198 1.368 . S
N201 C202 1.321 . S
N201 Co204 2.135 . S
C202 N200 1.340 . S
C202 N201 1.321 . S
C202 H226 0.930 . S
H203 C198 0.931 . S
Co204 N201 2.135 . S
Co204 N207 2.121 . S
Co204 O212 2.055 . S
Co204 O215 2.039 . S
Co204 N218 2.140 . S
C205 O206 1.227 . S
C205 O215 1.265 . S
O206 C205 1.227 . S
N207 Co204 2.121 . S
N207 C209 1.375 . S
N207 C210 1.313 . S
C208 C209 1.338 . S
C208 N211 1.377 . S
C208 H228 0.930 . S
C209 N207 1.375 . S
C209 C208 1.338 . S
C209 H213 0.931 . S
C210 N207 1.313 . S
C210 N211 1.344 . S
C210 H214 0.930 . S
N211 C208 1.377 . S
N211 C210 1.344 . S
O212 Co204 2.055 . S
O212 C216 1.253 . S
H213 C209 0.931 . S
H214 C210 0.930 . S
O215 Co204 2.039 . S
O215 C205 1.265 . S
C216 O212 1.253 . S
C216 O217 1.227 . S
O217 C216 1.227 . S
N218 Co204 2.140 . S
N218 C221 1.346 . S
N218 C222 1.345 . S
C219 C220 1.387 . S
C219 C223 1.391 . S
C220 C219 1.387 . S
C220 C221 1.369 . S
C220 H229 0.929 . S
C221 N218 1.346 . S
C221 C220 1.369 . S
C221 H224 0.928 . S
C222 N218 1.345 . S
C222 C223 1.371 . S
C222 H225 0.931 . S
C223 C219 1.391 . S
C223 C222 1.371 . S
C223 H230 0.930 . S
H224 C221 0.928 . S
H225 C222 0.931 . S
H226 C202 0.930 . S
H227 C199 0.930 . S
H228 C208 0.930 . S
H229 C220 0.929 . S
H230 C223 0.930 . S
C231 C232 1.351 . S
C231 N234 1.368 1_554 S
C231 H236 0.931 . S
C232 C231 1.351 . S
C232 N233 1.373 . S
C232 H260 0.930 . S
N233 C232 1.373 . S
N233 C235 1.340 . S
N234 C231 1.368 1_556 S
N234 C235 1.321 1_556 S
N234 Co237 2.135 . S
C235 N233 1.340 . S
C235 N234 1.321 1_554 S
C235 H259 0.930 1_554 S
H236 C231 0.931 . S
Co237 N234 2.135 . S
Co237 N240 2.121 . S
Co237 O245 2.055 . S
Co237 O248 2.039 . S
Co237 N251 2.140 . S
C238 O239 1.227 . S
C238 O248 1.265 . S
O239 C238 1.227 . S
N240 Co237 2.121 . S
N240 C242 1.375 . S
N240 C243 1.313 . S
C241 C242 1.338 . S
C241 N244 1.377 . S
C241 H261 0.930 . S
C242 N240 1.375 . S
C242 C241 1.338 . S
C242 H246 0.931 . S
C243 N240 1.313 . S
C243 N244 1.344 . S
C243 H247 0.930 . S
N244 C241 1.377 . S
N244 C243 1.344 . S
O245 Co237 2.055 . S
O245 C249 1.253 . S
H246 C242 0.931 . S
H247 C243 0.930 . S
O248 Co237 2.039 . S
O248 C238 1.265 . S
C249 O245 1.253 . S
C249 O250 1.227 . S
O250 C249 1.227 . S
N251 Co237 2.140 . S
N251 C254 1.346 . S
N251 C255 1.345 . S
C252 C253 1.387 . S
C252 C256 1.391 . S
C253 C252 1.387 . S
C253 C254 1.369 . S
C253 H262 0.929 . S
C254 N251 1.346 . S
C254 C253 1.369 . S
C254 H257 0.928 . S
C255 N251 1.345 . S
C255 C256 1.371 . S
C255 H258 0.931 . S
C256 C252 1.391 . S
C256 C255 1.371 . S
C256 H263 0.930 . S
H257 C254 0.928 . S
H258 C255 0.931 . S
H259 C235 0.930 1_556 S
H260 C232 0.930 . S
H261 C241 0.930 . S
H262 C253 0.929 . S
H263 C256 0.930 . S
C264 C265 1.351 . S
C264 N267 1.368 . S
C264 H269 0.931 . S
C265 C264 1.351 . S
C265 N266 1.373 . S
C265 H293 0.930 . S
N266 C265 1.373 . S
N266 C268 1.340 . S
N267 C264 1.368 . S
N267 C268 1.321 . S
N267 Co270 2.135 . S
C268 N266 1.340 . S
C268 N267 1.321 . S
C268 H292 0.930 . S
H269 C264 0.931 . S
Co270 N267 2.135 . S
Co270 N273 2.121 . S
Co270 O278 2.055 . S
Co270 O281 2.039 . S
Co270 N284 2.140 . S
C271 O272 1.227 . S
C271 O281 1.265 . S
O272 C271 1.227 . S
N273 Co270 2.121 . S
N273 C275 1.375 . S
N273 C276 1.313 . S
C274 C275 1.338 . S
C274 N277 1.377 . S
C274 H294 0.930 . S
C275 N273 1.375 . S
C275 C274 1.338 . S
C275 H279 0.931 . S
C276 N273 1.313 . S
C276 N277 1.344 . S
C276 H280 0.930 . S
N277 C274 1.377 . S
N277 C276 1.344 . S
O278 Co270 2.055 . S
O278 C282 1.253 . S
H279 C275 0.931 . S
H280 C276 0.930 . S
O281 Co270 2.039 . S
O281 C271 1.265 . S
C282 O278 1.253 . S
C282 O283 1.227 . S
O283 C282 1.227 . S
N284 Co270 2.140 . S
N284 C287 1.346 . S
N284 C288 1.345 . S
C285 C286 1.387 . S
C285 C289 1.391 . S
C286 C285 1.387 . S
C286 C287 1.369 . S
C286 H295 0.929 . S
C287 N284 1.346 . S
C287 C286 1.369 . S
C287 H290 0.928 . S
C288 N284 1.345 . S
C288 C289 1.371 . S
C288 H291 0.931 . S
C289 C285 1.391 . S
C289 C288 1.371 . S
C289 H296 0.930 . S
H290 C287 0.928 . S
H291 C288 0.931 . S
H292 C268 0.930 . S
H293 C265 0.930 . S
H294 C274 0.930 . S
H295 C286 0.929 . S
H296 C289 0.930 . S
C297 C298 1.351 . S
C297 N300 1.368 . S
C297 H302 0.931 . S
C298 C297 1.351 . S
C298 N299 1.373 . S
C298 H326 0.930 . S
N299 C298 1.373 . S
N299 C301 1.340 . S
N300 C297 1.368 . S
N300 C301 1.321 . S
N300 Co303 2.135 . S
C301 N299 1.340 . S
C301 N300 1.321 . S
C301 H325 0.930 . S
H302 C297 0.931 . S
Co303 N300 2.135 . S
Co303 N306 2.121 . S
Co303 O311 2.055 . S
Co303 O314 2.039 . S
Co303 N317 2.140 . S
C304 O305 1.227 . S
C304 O314 1.265 . S
O305 C304 1.227 . S
N306 Co303 2.121 . S
N306 C308 1.375 . S
N306 C309 1.313 . S
C307 C308 1.338 . S
C307 N310 1.377 . S
C307 H327 0.930 . S
C308 N306 1.375 . S
C308 C307 1.338 . S
C308 H312 0.931 . S
C309 N306 1.313 . S
C309 N310 1.344 . S
C309 H313 0.930 . S
N310 C307 1.377 . S
N310 C309 1.344 . S
O311 Co303 2.055 . S
O311 C315 1.253 . S
H312 C308 0.931 . S
H313 C309 0.930 . S
O314 Co303 2.039 . S
O314 C304 1.265 . S
C315 O311 1.253 . S
C315 O316 1.227 . S
O316 C315 1.227 . S
N317 Co303 2.140 . S
N317 C320 1.346 . S
N317 C321 1.345 . S
C318 C319 1.387 . S
C318 C322 1.391 . S
C319 C318 1.387 . S
C319 C320 1.369 . S
C319 H328 0.929 . S
C320 N317 1.346 . S
C320 C319 1.369 . S
C320 H323 0.928 . S
C321 N317 1.345 . S
C321 C322 1.371 . S
C321 H324 0.931 . S
C322 C318 1.391 . S
C322 C321 1.371 . S
C322 H329 0.930 . S
H323 C320 0.928 . S
H324 C321 0.931 . S
H325 C301 0.930 . S
H326 C298 0.930 . S
H327 C307 0.930 . S
H328 C319 0.929 . S
H329 C322 0.930 . S
C330 C331 1.351 . S
C330 N333 1.368 . S
C330 H335 0.931 . S
C331 C330 1.351 . S
C331 N332 1.373 . S
C331 H359 0.930 . S
N332 C331 1.373 . S
N332 C334 1.340 . S
N333 C330 1.368 . S
N333 C334 1.321 . S
N333 Co336 2.135 . S
C334 N332 1.340 . S
C334 N333 1.321 . S
C334 H358 0.930 . S
H335 C330 0.931 . S
Co336 N333 2.135 . S
Co336 N339 2.121 . S
Co336 O344 2.055 . S
Co336 O347 2.039 . S
Co336 N350 2.140 . S
C337 O338 1.227 . S
C337 O347 1.265 . S
O338 C337 1.227 . S
N339 Co336 2.121 . S
N339 C341 1.375 . S
N339 C342 1.313 . S
C340 C341 1.338 . S
C340 N343 1.377 . S
C340 H360 0.930 . S
C341 N339 1.375 . S
C341 C340 1.338 . S
C341 H345 0.931 . S
C342 N339 1.313 . S
C342 N343 1.344 . S
C342 H346 0.930 . S
N343 C340 1.377 . S
N343 C342 1.344 . S
O344 Co336 2.055 . S
O344 C348 1.253 . S
H345 C341 0.931 . S
H346 C342 0.930 . S
O347 Co336 2.039 . S
O347 C337 1.265 . S
C348 O344 1.253 . S
C348 O349 1.227 . S
O349 C348 1.227 . S
N350 Co336 2.140 . S
N350 C353 1.346 . S
N350 C354 1.345 . S
C351 C352 1.387 . S
C351 C355 1.391 . S
C352 C351 1.387 . S
C352 C353 1.369 . S
C352 H361 0.929 . S
C353 N350 1.346 . S
C353 C352 1.369 . S
C353 H356 0.928 . S
C354 N350 1.345 . S
C354 C355 1.371 . S
C354 H357 0.931 . S
C355 C351 1.391 . S
C355 C354 1.371 . S
C355 H362 0.930 . S
H356 C353 0.928 . S
H357 C354 0.931 . S
H358 C334 0.930 . S
H359 C331 0.930 . S
H360 C340 0.930 . S
H361 C352 0.929 . S
H362 C355 0.930 . S
C363 C364 1.351 . S
C363 N366 1.368 . S
C363 H368 0.931 . S
C364 C363 1.351 . S
C364 N365 1.373 . S
C364 H392 0.930 . S
N365 C364 1.373 . S
N365 C367 1.340 . S
N366 C363 1.368 . S
N366 C367 1.321 . S
N366 Co369 2.135 . S
C367 N365 1.340 . S
C367 N366 1.321 . S
C367 H391 0.930 . S
H368 C363 0.931 . S
Co369 N366 2.135 . S
Co369 N372 2.121 . S
Co369 O377 2.055 . S
Co369 O380 2.039 . S
Co369 N383 2.140 . S
C370 O371 1.227 . S
C370 O380 1.265 . S
O371 C370 1.227 . S
N372 Co369 2.121 . S
N372 C374 1.375 . S
N372 C375 1.313 . S
C373 C374 1.338 . S
C373 N376 1.377 . S
C373 H393 0.930 . S
C374 N372 1.375 . S
C374 C373 1.338 . S
C374 H378 0.931 . S
C375 N372 1.313 . S
C375 N376 1.344 . S
C375 H379 0.930 . S
N376 C373 1.377 . S
N376 C375 1.344 . S
O377 Co369 2.055 . S
O377 C381 1.253 . S
H378 C374 0.931 . S
H379 C375 0.930 . S
O380 Co369 2.039 . S
O380 C370 1.265 . S
C381 O377 1.253 . S
C381 O382 1.227 . S
O382 C381 1.227 . S
N383 Co369 2.140 . S
N383 C386 1.346 . S
N383 C387 1.345 . S
C384 C385 1.387 . S
C384 C388 1.391 . S
C385 C384 1.387 . S
C385 C386 1.369 . S
C385 H394 0.929 . S
C386 N383 1.346 . S
C386 C385 1.369 . S
C386 H389 0.928 . S
C387 N383 1.345 . S
C387 C388 1.371 . S
C387 H390 0.931 . S
C388 C384 1.391 . S
C388 C387 1.371 . S
C388 H395 0.930 . S
H389 C386 0.928 . S
H390 C387 0.931 . S
H391 C367 0.930 . S
H392 C364 0.930 . S
H393 C373 0.930 . S
H394 C385 0.929 . S
H395 C388 0.930 . S
H396 C414 0.951 . S
H397 C416 0.951 . S
H398 C418 0.950 . S
H399 C419 0.950 . S
H400 C421 0.950 . S
H401 C424 0.950 . S
H402 C425 0.950 . S
H403 C427 0.950 . S
H404 C428 0.950 . S
H405 C429 0.951 . S
H406 C431 0.951 . S
H407 C433 0.950 . S
H408 C434 0.950 . S
H409 C436 0.950 . S
H410 C439 0.950 . S
H411 C440 0.950 . S
H412 C442 0.950 . S
H413 C443 0.950 . S
C414 H396 0.951 . S
C414 C415 1.366 . S
C414 C416 1.388 . S
C415 C414 1.366 . S
C415 C419 1.385 . S
C416 H397 0.951 . S
C416 C414 1.388 . S
C416 C417 1.366 . S
C417 C416 1.366 . S
C417 C418 1.414 . S
C417 C420 1.499 . S
C418 H398 0.950 . S
C418 C417 1.414 . S
C418 C419 1.374 . S
C419 H399 0.950 . S
C419 C415 1.385 . S
C419 C418 1.374 . S
C420 C417 1.499 . S
C420 C421 1.373 . S
C420 C422 1.389 . S
C421 H400 0.950 . S
C421 C420 1.373 . S
C421 C437 1.377 . S
C422 C420 1.389 . S
C422 C423 1.524 . S
C422 C436 1.377 . S
C423 C422 1.524 . S
C423 C424 1.397 . S
C423 C428 1.363 . S
C424 H401 0.950 . S
C424 C423 1.397 . S
C424 C425 1.334 . S
C425 H402 0.950 . S
C425 C424 1.334 . S
C425 C426 1.287 . S
C426 C425 1.287 . S
C426 C427 1.524 . S
C426 H445 0.913 . S
C427 H403 0.950 . S
C427 C426 1.524 . S
C427 C428 1.415 . S
C428 H404 0.950 . S
C428 C423 1.363 . S
C428 C427 1.415 . S
C429 H405 0.951 . S
C429 C430 1.366 . S
C429 C431 1.388 . S
C430 C429 1.366 . S
C430 C434 1.385 . S
C431 H406 0.951 . S
C431 C429 1.388 . S
C431 C432 1.366 . S
C432 C431 1.366 . S
C432 C433 1.414 . S
C432 C435 1.499 . S
C433 H407 0.950 . S
C433 C432 1.414 . S
C433 C434 1.374 . S
C434 H408 0.950 . S
C434 C430 1.385 . S
C434 C433 1.374 . S
C435 C432 1.499 . S
C435 C436 1.373 . S
C435 C437 1.389 . S
C436 H409 0.950 . S
C436 C422 1.377 . S
C436 C435 1.373 . S
C437 C421 1.377 . S
C437 C435 1.389 . S
C437 C438 1.524 . S
C438 C437 1.524 . S
C438 C439 1.397 . S
C438 C443 1.363 . S
C439 H410 0.950 . S
C439 C438 1.397 . S
C439 C440 1.334 . S
C440 H411 0.950 . S
C440 C439 1.334 . S
C440 C441 1.287 . S
C441 C440 1.287 . S
C441 C442 1.524 . S
C441 H444 0.999 . S
C442 H412 0.950 . S
C442 C441 1.524 . S
C442 C443 1.415 . S
C443 H413 0.950 . S
C443 C438 1.363 . S
C443 C442 1.415 . S
H444 C441 0.999 . S
H445 C426 0.913 . S
H446 C464 0.951 . S
H447 C466 0.951 . S
H448 C468 0.950 . S
H449 C469 0.950 . S
H450 C471 0.950 . S
H451 C474 0.950 . S
H452 C475 0.950 . S
H453 C477 0.950 . S
H454 C478 0.950 . S
H455 C479 0.951 . S
H456 C481 0.951 . S
H457 C483 0.950 . S
H458 C484 0.950 . S
H459 C486 0.950 . S
H460 C489 0.950 . S
H461 C490 0.950 . S
H462 C492 0.950 . S
H463 C493 0.950 . S
C464 H446 0.951 . S
C464 C465 1.366 . S
C464 C466 1.388 . S
C465 C464 1.366 . S
C465 C469 1.385 . S
C466 H447 0.951 . S
C466 C464 1.388 . S
C466 C467 1.366 . S
C467 C466 1.366 . S
C467 C468 1.414 . S
C467 C470 1.499 . S
C468 H448 0.950 . S
C468 C467 1.414 . S
C468 C469 1.374 . S
C469 H449 0.950 . S
C469 C465 1.385 . S
C469 C468 1.374 . S
C470 C467 1.499 . S
C470 C471 1.373 . S
C470 C472 1.389 . S
C471 H450 0.950 . S
C471 C470 1.373 . S
C471 C487 1.377 . S
C472 C470 1.389 . S
C472 C473 1.524 . S
C472 C486 1.377 . S
C473 C472 1.524 . S
C473 C474 1.397 . S
C473 C478 1.363 . S
C474 H451 0.950 . S
C474 C473 1.397 . S
C474 C475 1.334 . S
C475 H452 0.950 . S
C475 C474 1.334 . S
C475 C476 1.287 . S
C476 C475 1.287 . S
C476 C477 1.524 . S
C476 H495 0.913 . S
C477 H453 0.950 . S
C477 C476 1.524 . S
C477 C478 1.415 . S
C478 H454 0.950 . S
C478 C473 1.363 . S
C478 C477 1.415 . S
C479 H455 0.951 . S
C479 C480 1.366 . S
C479 C481 1.388 . S
C480 C479 1.366 . S
C480 C484 1.385 . S
C481 H456 0.951 . S
C481 C479 1.388 . S
C481 C482 1.366 . S
C482 C481 1.366 . S
C482 C483 1.414 . S
C482 C485 1.499 . S
C483 H457 0.950 . S
C483 C482 1.414 . S
C483 C484 1.374 . S
C484 H458 0.950 . S
C484 C480 1.385 . S
C484 C483 1.374 . S
C485 C482 1.499 . S
C485 C486 1.373 . S
C485 C487 1.389 . S
C486 H459 0.950 . S
C486 C472 1.377 . S
C486 C485 1.373 . S
C487 C471 1.377 . S
C487 C485 1.389 . S
C487 C488 1.524 . S
C488 C487 1.524 . S
C488 C489 1.397 . S
C488 C493 1.363 . S
C489 H460 0.950 . S
C489 C488 1.397 . S
C489 C490 1.334 . S
C490 H461 0.950 . S
C490 C489 1.334 . S
C490 C491 1.287 . S
C491 C490 1.287 . S
C491 C492 1.524 . S
C491 H494 0.999 . S
C492 H462 0.950 . S
C492 C491 1.524 . S
C492 C493 1.415 . S
C493 H463 0.950 . S
C493 C488 1.363 . S
C493 C492 1.415 . S
H494 C491 0.999 . S
H495 C476 0.913 . S
H496 C514 0.951 . S
H497 C516 0.951 . S
H498 C518 0.950 . S
H499 C519 0.950 . S
H500 C521 0.950 . S
H501 C524 0.950 . S
H502 C525 0.950 . S
H503 C527 0.950 . S
H504 C528 0.950 . S
H505 C529 0.951 . S
H506 C531 0.951 . S
H507 C533 0.950 . S
H508 C534 0.950 . S
H509 C536 0.950 . S
H510 C539 0.950 . S
H511 C540 0.950 . S
H512 C542 0.950 . S
H513 C543 0.950 . S
C514 H496 0.951 . S
C514 C515 1.366 . S
C514 C516 1.388 . S
C515 C514 1.366 . S
C515 C519 1.385 . S
C516 H497 0.951 . S
C516 C514 1.388 . S
C516 C517 1.366 . S
C517 C516 1.366 . S
C517 C518 1.414 . S
C517 C520 1.499 . S
C518 H498 0.950 . S
C518 C517 1.414 . S
C518 C519 1.374 . S
C519 H499 0.950 . S
C519 C515 1.385 . S
C519 C518 1.374 . S
C520 C517 1.499 . S
C520 C521 1.373 . S
C520 C522 1.389 . S
C521 H500 0.950 . S
C521 C520 1.373 . S
C521 C537 1.377 . S
C522 C520 1.389 . S
C522 C523 1.524 . S
C522 C536 1.377 . S
C523 C522 1.524 . S
C523 C524 1.397 . S
C523 C528 1.363 . S
C524 H501 0.950 . S
C524 C523 1.397 . S
C524 C525 1.334 . S
C525 H502 0.950 . S
C525 C524 1.334 . S
C525 C526 1.287 . S
C526 C525 1.287 . S
C526 C527 1.524 . S
C526 H545 0.913 . S
C527 H503 0.950 . S
C527 C526 1.524 . S
C527 C528 1.415 . S
C528 H504 0.950 . S
C528 C523 1.363 . S
C528 C527 1.415 . S
C529 H505 0.951 . S
C529 C530 1.366 . S
C529 C531 1.388 . S
C530 C529 1.366 . S
C530 C534 1.385 . S
C531 H506 0.951 . S
C531 C529 1.388 . S
C531 C532 1.366 . S
C532 C531 1.366 . S
C532 C533 1.414 . S
C532 C535 1.499 . S
C533 H507 0.950 . S
C533 C532 1.414 . S
C533 C534 1.374 . S
C534 H508 0.950 . S
C534 C530 1.385 . S
C534 C533 1.374 . S
C535 C532 1.499 . S
C535 C536 1.373 . S
C535 C537 1.389 . S
C536 H509 0.950 . S
C536 C522 1.377 . S
C536 C535 1.373 . S
C537 C521 1.377 . S
C537 C535 1.389 . S
C537 C538 1.524 . S
C538 C537 1.524 . S
C538 C539 1.397 . S
C538 C543 1.363 . S
C539 H510 0.950 . S
C539 C538 1.397 . S
C539 C540 1.334 . S
C540 H511 0.950 . S
C540 C539 1.334 . S
C540 C541 1.287 . S
C541 C540 1.287 . S
C541 C542 1.524 . S
C541 H544 0.999 . S
C542 H512 0.950 . S
C542 C541 1.524 . S
C542 C543 1.415 . S
C543 H513 0.950 . S
C543 C538 1.363 . S
C543 C542 1.415 . S
H544 C541 0.999 . S
H545 C526 0.913 . S
H546 C564 0.951 . S
H547 C566 0.951 . S
H548 C568 0.950 . S
H549 C569 0.950 . S
H550 C571 0.950 . S
H551 C574 0.950 . S
H552 C575 0.950 . S
H553 C577 0.950 . S
H554 C578 0.950 . S
H555 C579 0.951 . S
H556 C581 0.951 . S
H557 C583 0.950 . S
H558 C584 0.950 . S
H559 C586 0.950 . S
H560 C589 0.950 . S
H561 C590 0.950 . S
H562 C592 0.950 . S
H563 C593 0.950 . S
C564 H546 0.951 . S
C564 C565 1.366 . S
C564 C566 1.388 . S
C565 C564 1.366 . S
C565 C569 1.385 . S
C566 H547 0.951 . S
C566 C564 1.388 . S
C566 C567 1.366 . S
C567 C566 1.366 . S
C567 C568 1.414 . S
C567 C570 1.499 . S
C568 H548 0.950 . S
C568 C567 1.414 . S
C568 C569 1.374 . S
C569 H549 0.950 . S
C569 C565 1.385 . S
C569 C568 1.374 . S
C570 C567 1.499 . S
C570 C571 1.373 . S
C570 C572 1.389 . S
C571 H550 0.950 . S
C571 C570 1.373 . S
C571 C587 1.377 . S
C572 C570 1.389 . S
C572 C573 1.524 . S
C572 C586 1.377 . S
C573 C572 1.524 . S
C573 C574 1.397 . S
C573 C578 1.363 . S
C574 H551 0.950 . S
C574 C573 1.397 . S
C574 C575 1.334 . S
C575 H552 0.950 . S
C575 C574 1.334 . S
C575 C576 1.287 . S
C576 C575 1.287 . S
C576 C577 1.524 . S
C576 H595 0.913 . S
C577 H553 0.950 . S
C577 C576 1.524 . S
C577 C578 1.415 . S
C578 H554 0.950 . S
C578 C573 1.363 . S
C578 C577 1.415 . S
C579 H555 0.951 . S
C579 C580 1.366 . S
C579 C581 1.388 . S
C580 C579 1.366 . S
C580 C584 1.385 . S
C581 H556 0.951 . S
C581 C579 1.388 . S
C581 C582 1.366 . S
C582 C581 1.366 . S
C582 C583 1.414 . S
C582 C585 1.499 . S
C583 H557 0.950 . S
C583 C582 1.414 . S
C583 C584 1.374 . S
C584 H558 0.950 . S
C584 C580 1.385 . S
C584 C583 1.374 . S
C585 C582 1.499 . S
C585 C586 1.373 . S
C585 C587 1.389 . S
C586 H559 0.950 . S
C586 C572 1.377 . S
C586 C585 1.373 . S
C587 C571 1.377 . S
C587 C585 1.389 . S
C587 C588 1.524 . S
C588 C587 1.524 . S
C588 C589 1.397 . S
C588 C593 1.363 . S
C589 H560 0.950 . S
C589 C588 1.397 . S
C589 C590 1.334 . S
C590 H561 0.950 . S
C590 C589 1.334 . S
C590 C591 1.287 . S
C591 C590 1.287 . S
C591 C592 1.524 . S
C591 H594 0.999 . S
C592 H562 0.950 . S
C592 C591 1.524 . S
C592 C593 1.415 . S
C593 H563 0.950 . S
C593 C588 1.363 . S
C593 C592 1.415 . S
H594 C591 0.999 . S
H595 C576 0.913 . S
H596 C614 0.951 . S
H597 C616 0.951 . S
H598 C618 0.950 . S
H599 C619 0.950 . S
H600 C621 0.950 . S
H601 C624 0.950 . S
H602 C625 0.950 . S
H603 C627 0.950 . S
H604 C628 0.950 . S
H605 C629 0.944 1_554 S
H606 C631 0.951 . S
H607 C633 0.950 . S
H608 C634 0.950 . S
H609 C636 0.950 . S
H610 C639 0.950 . S
H611 C640 0.950 . S
H612 C642 0.950 . S
H613 C643 0.950 . S
C614 H596 0.951 . S
C614 C615 1.366 . S
C614 C616 1.388 . S
C615 C614 1.366 . S
C615 C619 1.385 . S
C616 H597 0.951 . S
C616 C614 1.388 . S
C616 C617 1.366 . S
C617 C616 1.366 . S
C617 C618 1.414 . S
C617 C620 1.499 . S
C618 H598 0.950 . S
C618 C617 1.414 . S
C618 C619 1.374 . S
C619 H599 0.950 . S
C619 C615 1.385 . S
C619 C618 1.374 . S
C620 C617 1.499 . S
C620 C621 1.373 . S
C620 C622 1.389 . S
C621 H600 0.950 . S
C621 C620 1.373 . S
C621 C637 1.377 . S
C622 C620 1.389 . S
C622 C623 1.524 . S
C622 C636 1.377 . S
C623 C622 1.524 . S
C623 C624 1.397 . S
C623 C628 1.363 . S
C624 H601 0.950 . S
C624 C623 1.397 . S
C624 C625 1.334 . S
C625 H602 0.950 . S
C625 C624 1.334 . S
C625 C626 1.287 . S
C626 C625 1.287 . S
C626 C627 1.524 . S
C626 H645 0.913 . S
C627 H603 0.950 . S
C627 C626 1.524 . S
C627 C628 1.415 . S
C628 H604 0.950 . S
C628 C623 1.363 . S
C628 C627 1.415 . S
C629 H605 0.944 1_556 S
C629 C630 1.344 1_556 S
C629 C631 1.418 . S
C630 C629 1.344 1_554 S
C630 C634 1.385 . S
C631 H606 0.951 . S
C631 C629 1.418 . S
C631 C632 1.366 . S
C632 C631 1.366 . S
C632 C633 1.414 . S
C632 C635 1.499 . S
C633 H607 0.950 . S
C633 C632 1.414 . S
C633 C634 1.374 1_556 S
C634 H608 0.950 . S
C634 C630 1.385 . S
C634 C633 1.374 1_554 S
C635 C632 1.499 . S
C635 C636 1.373 . S
C635 C637 1.389 . S
C636 H609 0.950 . S
C636 C622 1.377 . S
C636 C635 1.373 . S
C637 C621 1.377 . S
C637 C635 1.389 . S
C637 C638 1.524 . S
C638 C637 1.524 . S
C638 C639 1.397 . S
C638 C643 1.363 . S
C639 H610 0.950 . S
C639 C638 1.397 . S
C639 C640 1.334 . S
C640 H611 0.950 . S
C640 C639 1.334 . S
C640 C641 1.287 . S
C641 C640 1.287 . S
C641 C642 1.524 . S
C641 H644 0.999 . S
C642 H612 0.950 . S
C642 C641 1.524 . S
C642 C643 1.415 . S
C643 H613 0.950 . S
C643 C638 1.363 . S
C643 C642 1.415 . S
H644 C641 0.999 . S
H645 C626 0.913 . S
H646 C664 0.951 . S
H647 C666 0.951 . S
H648 C668 0.950 . S
H649 C669 0.950 . S
H650 C671 0.950 . S
H651 C674 0.950 . S
H652 C675 0.965 . S
H653 C677 0.945 1_556 S
H654 C678 0.950 . S
H655 C679 0.951 . S
H656 C681 0.951 . S
H657 C683 0.950 . S
H658 C684 0.950 . S
H659 C686 0.950 . S
H660 C689 0.950 . S
H661 C690 0.950 . S
H662 C692 0.950 . S
H663 C693 0.950 . S
C664 H646 0.951 . S
C664 C665 1.366 . S
C664 C666 1.388 1_556 S
C665 C664 1.366 . S
C665 C669 1.385 1_556 S
C666 H647 0.951 . S
C666 C664 1.388 1_554 S
C666 C667 1.366 . S
C667 C666 1.366 . S
C667 C668 1.414 . S
C667 C670 1.499 . S
C668 H648 0.950 . S
C668 C667 1.414 . S
C668 C669 1.374 . S
C669 H649 0.950 . S
C669 C665 1.385 1_554 S
C669 C668 1.374 . S
C670 C667 1.499 . S
C670 C671 1.373 . S
C670 C672 1.389 . S
C671 H650 0.950 . S
C671 C670 1.373 . S
C671 C687 1.377 . S
C672 C670 1.389 . S
C672 C673 1.524 . S
C672 C686 1.377 . S
C673 C672 1.524 . S
C673 C674 1.397 . S
C673 C678 1.363 . S
C674 H651 0.950 . S
C674 C673 1.397 . S
C674 C675 1.309 1_554 S
C675 H652 0.965 . S
C675 C674 1.309 1_556 S
C675 C676 1.298 . S
C676 C675 1.298 . S
C676 C677 1.520 1_556 S
C676 H695 0.913 . S
C677 H653 0.945 1_554 S
C677 C676 1.520 1_554 S
C677 C678 1.424 . S
C678 H654 0.950 . S
C678 C673 1.363 . S
C678 C677 1.424 . S
C679 H655 0.951 . S
C679 C680 1.366 . S
C679 C681 1.388 . S
C680 C679 1.366 . S
C680 C684 1.385 . S
C681 H656 0.951 . S
C681 C679 1.388 . S
C681 C682 1.366 . S
C682 C681 1.366 . S
C682 C683 1.414 . S
C682 C685 1.499 . S
C683 H657 0.950 . S
C683 C682 1.414 . S
C683 C684 1.374 . S
C684 H658 0.950 . S
C684 C680 1.385 . S
C684 C683 1.374 . S
C685 C682 1.499 . S
C685 C686 1.373 . S
C685 C687 1.389 . S
C686 H659 0.950 . S
C686 C672 1.377 . S
C686 C685 1.373 . S
C687 C671 1.377 . S
C687 C685 1.389 . S
C687 C688 1.524 . S
C688 C687 1.524 . S
C688 C689 1.397 . S
C688 C693 1.363 . S
C689 H660 0.950 . S
C689 C688 1.397 . S
C689 C690 1.334 . S
C690 H661 0.950 . S
C690 C689 1.334 . S
C690 C691 1.287 . S
C691 C690 1.287 . S
C691 C692 1.524 . S
C691 H694 0.999 . S
C692 H662 0.950 . S
C692 C691 1.524 . S
C692 C693 1.415 . S
C693 H663 0.950 . S
C693 C688 1.363 . S
C693 C692 1.415 . S
H694 C691 0.999 . S
H695 C676 0.913 . S
H696 C714 0.951 . S
H697 C716 0.951 . S
H698 C718 0.950 . S
H699 C719 0.950 . S
H700 C721 0.950 . S
H701 C724 0.950 . S
H702 C725 0.950 . S
H703 C727 0.950 . S
H704 C728 0.950 . S
H705 C729 0.951 . S
H706 C731 0.951 . S
H707 C733 0.950 . S
H708 C734 0.950 . S
H709 C736 0.950 . S
H710 C739 0.950 . S
H711 C740 0.950 . S
H712 C742 0.950 . S
H713 C743 0.950 . S
C714 H696 0.951 . S
C714 C715 1.366 . S
C714 C716 1.388 . S
C715 C714 1.366 . S
C715 C719 1.385 . S
C716 H697 0.951 . S
C716 C714 1.388 . S
C716 C717 1.366 . S
C717 C716 1.366 . S
C717 C718 1.414 . S
C717 C720 1.499 . S
C718 H698 0.950 . S
C718 C717 1.414 . S
C718 C719 1.374 . S
C719 H699 0.950 . S
C719 C715 1.385 . S
C719 C718 1.374 . S
C720 C717 1.499 . S
C720 C721 1.373 . S
C720 C722 1.389 . S
C721 H700 0.950 . S
C721 C720 1.373 . S
C721 C737 1.377 . S
C722 C720 1.389 . S
C722 C723 1.524 . S
C722 C736 1.377 . S
C723 C722 1.524 . S
C723 C724 1.397 . S
C723 C728 1.363 . S
C724 H701 0.950 . S
C724 C723 1.397 . S
C724 C725 1.334 . S
C725 H702 0.950 . S
C725 C724 1.334 . S
C725 C726 1.287 1_554 S
C726 C725 1.287 1_556 S
C726 C727 1.524 . S
C726 H745 0.913 . S
C727 H703 0.950 . S
C727 C726 1.524 . S
C727 C728 1.415 1_556 S
C728 H704 0.950 . S
C728 C723 1.363 . S
C728 C727 1.415 1_554 S
C729 H705 0.951 . S
C729 C730 1.366 . S
C729 C731 1.388 . S
C730 C729 1.366 . S
C730 C734 1.385 . S
C731 H706 0.951 . S
C731 C729 1.388 . S
C731 C732 1.366 . S
C732 C731 1.366 . S
C732 C733 1.414 . S
C732 C735 1.499 . S
C733 H707 0.950 . S
C733 C732 1.414 . S
C733 C734 1.374 . S
C734 H708 0.950 . S
C734 C730 1.385 . S
C734 C733 1.374 . S
C735 C732 1.499 . S
C735 C736 1.373 . S
C735 C737 1.389 . S
C736 H709 0.950 . S
C736 C722 1.377 . S
C736 C735 1.373 . S
C737 C721 1.377 . S
C737 C735 1.389 . S
C737 C738 1.524 . S
C738 C737 1.524 . S
C738 C739 1.397 . S
C738 C743 1.363 . S
C739 H710 0.950 . S
C739 C738 1.397 . S
C739 C740 1.334 . S
C740 H711 0.950 . S
C740 C739 1.334 . S
C740 C741 1.287 . S
C741 C740 1.287 . S
C741 C742 1.524 . S
C741 H744 0.999 . S
C742 H712 0.950 . S
C742 C741 1.524 . S
C742 C743 1.415 . S
C743 H713 0.950 . S
C743 C738 1.363 . S
C743 C742 1.415 . S
H744 C741 0.999 . S
H745 C726 0.913 . S
H746 C764 0.951 . S
H747 C766 0.951 . S
H748 C768 0.950 . S
H749 C769 0.950 . S
H750 C771 0.950 . S
H751 C774 0.950 . S
H752 C775 0.950 . S
H753 C777 0.950 . S
H754 C778 0.950 . S
H755 C779 0.951 . S
H756 C781 0.951 . S
H757 C783 0.950 . S
H758 C784 0.950 . S
H759 C786 0.950 . S
H760 C789 0.950 . S
H761 C790 0.950 . S
H762 C792 0.950 . S
H763 C793 0.950 . S
C764 H746 0.951 . S
C764 C765 1.366 . S
C764 C766 1.388 . S
C765 C764 1.366 . S
C765 C769 1.385 . S
C766 H747 0.951 . S
C766 C764 1.388 . S
C766 C767 1.366 . S
C767 C766 1.366 . S
C767 C768 1.414 . S
C767 C770 1.499 . S
C768 H748 0.950 . S
C768 C767 1.414 . S
C768 C769 1.374 . S
C769 H749 0.950 . S
C769 C765 1.385 . S
C769 C768 1.374 . S
C770 C767 1.499 . S
C770 C771 1.373 . S
C770 C772 1.389 . S
C771 H750 0.950 . S
C771 C770 1.373 . S
C771 C787 1.377 . S
C772 C770 1.389 . S
C772 C773 1.524 . S
C772 C786 1.377 . S
C773 C772 1.524 . S
C773 C774 1.397 . S
C773 C778 1.363 . S
C774 H751 0.950 . S
C774 C773 1.397 . S
C774 C775 1.334 . S
C775 H752 0.950 . S
C775 C774 1.334 . S
C775 C776 1.287 . S
C776 C775 1.287 . S
C776 C777 1.524 . S
C776 H795 0.913 1_545 S
C777 H753 0.950 . S
C777 C776 1.524 . S
C777 C778 1.415 . S
C778 H754 0.950 . S
C778 C773 1.363 . S
C778 C777 1.415 . S
C779 H755 0.951 . S
C779 C780 1.366 . S
C779 C781 1.388 . S
C780 C779 1.366 . S
C780 C784 1.385 . S
C781 H756 0.951 . S
C781 C779 1.388 . S
C781 C782 1.366 . S
C782 C781 1.366 . S
C782 C783 1.414 . S
C782 C785 1.499 . S
C783 H757 0.950 . S
C783 C782 1.414 . S
C783 C784 1.374 . S
C784 H758 0.950 . S
C784 C780 1.385 . S
C784 C783 1.374 . S
C785 C782 1.499 . S
C785 C786 1.373 . S
C785 C787 1.389 . S
C786 H759 0.950 . S
C786 C772 1.377 . S
C786 C785 1.373 . S
C787 C771 1.377 . S
C787 C785 1.389 . S
C787 C788 1.524 . S
C788 C787 1.524 . S
C788 C789 1.397 . S
C788 C793 1.363 . S
C789 H760 0.950 . S
C789 C788 1.397 . S
C789 C790 1.334 . S
C790 H761 0.950 . S
C790 C789 1.334 . S
C790 C791 1.287 . S
C791 C790 1.287 . S
C791 C792 1.524 . S
C791 H794 0.999 . S
C792 H762 0.950 . S
C792 C791 1.524 . S
C792 C793 1.415 . S
C793 H763 0.950 . S
C793 C788 1.363 . S
C793 C792 1.415 . S
H794 C791 0.999 . S
H795 C776 0.913 1_565 S
H796 C814 0.951 . S
H797 C816 0.951 . S
H798 C818 0.950 . S
H799 C819 0.950 . S
H800 C821 0.950 . S
H801 C824 0.950 . S
H802 C825 0.950 . S
H803 C827 0.950 . S
H804 C828 0.950 . S
H805 C829 0.951 . S
H806 C831 0.951 . S
H807 C833 0.950 . S
H808 C834 0.950 . S
H809 C836 0.950 . S
H810 C839 0.950 . S
H811 C840 0.950 . S
H812 C842 0.950 . S
H813 C843 0.950 . S
C814 H796 0.951 . S
C814 C815 1.366 . S
C814 C816 1.388 . S
C815 C814 1.366 . S
C815 C819 1.385 . S
C816 H797 0.951 . S
C816 C814 1.388 . S
C816 C817 1.366 . S
C817 C816 1.366 . S
C817 C818 1.414 . S
C817 C820 1.499 . S
C818 H798 0.950 . S
C818 C817 1.414 . S
C818 C819 1.374 . S
C819 H799 0.950 . S
C819 C815 1.385 . S
C819 C818 1.374 . S
C820 C817 1.499 . S
C820 C821 1.373 . S
C820 C822 1.389 . S
C821 H800 0.950 . S
C821 C820 1.373 . S
C821 C837 1.377 . S
C822 C820 1.389 . S
C822 C823 1.524 . S
C822 C836 1.377 . S
C823 C822 1.524 . S
C823 C824 1.397 . S
C823 C828 1.363 . S
C824 H801 0.950 . S
C824 C823 1.397 . S
C824 C825 1.334 . S
C825 H802 0.950 . S
C825 C824 1.334 . S
C825 C826 1.287 . S
C826 C825 1.287 . S
C826 C827 1.524 . S
C826 H845 0.913 . S
C827 H803 0.950 . S
C827 C826 1.524 . S
C827 C828 1.415 . S
C828 H804 0.950 . S
C828 C823 1.363 . S
C828 C827 1.415 . S
C829 H805 0.951 . S
C829 C830 1.366 . S
C829 C831 1.388 . S
C830 C829 1.366 . S
C830 C834 1.385 . S
C831 H806 0.951 . S
C831 C829 1.388 . S
C831 C832 1.366 . S
C832 C831 1.366 . S
C832 C833 1.414 . S
C832 C835 1.499 . S
C833 H807 0.950 . S
C833 C832 1.414 . S
C833 C834 1.374 . S
C834 H808 0.950 . S
C834 C830 1.385 . S
C834 C833 1.374 . S
C835 C832 1.499 . S
C835 C836 1.373 . S
C835 C837 1.389 . S
C836 H809 0.950 . S
C836 C822 1.377 . S
C836 C835 1.373 . S
C837 C821 1.377 . S
C837 C835 1.389 . S
C837 C838 1.524 . S
C838 C837 1.524 . S
C838 C839 1.397 . S
C838 C843 1.363 . S
C839 H810 0.950 . S
C839 C838 1.397 . S
C839 C840 1.334 . S
C840 H811 0.950 . S
C840 C839 1.334 . S
C840 C841 1.287 . S
C841 C840 1.287 . S
C841 C842 1.524 . S
C841 H844 0.999 . S
C842 H812 0.950 . S
C842 C841 1.524 . S
C842 C843 1.415 . S
C843 H813 0.950 . S
C843 C838 1.363 . S
C843 C842 1.415 . S
H844 C841 0.999 . S
H845 C826 0.913 . S
H846 C864 0.951 . S
H847 C866 0.951 . S
H848 C868 0.950 . S
H849 C869 0.950 . S
H850 C871 0.950 . S
H851 C874 0.950 . S
H852 C875 0.950 . S
H853 C877 0.950 1_455 S
H854 C878 0.950 . S
H855 C879 0.951 . S
H856 C881 0.951 . S
H857 C883 0.950 . S
H858 C884 0.950 . S
H859 C886 0.950 . S
H860 C889 0.950 . S
H861 C890 0.950 . S
H862 C892 0.950 . S
H863 C893 0.950 . S
C864 H846 0.951 . S
C864 C865 1.366 . S
C864 C866 1.388 . S
C865 C864 1.366 . S
C865 C869 1.385 . S
C866 H847 0.951 . S
C866 C864 1.388 . S
C866 C867 1.366 . S
C867 C866 1.366 . S
C867 C868 1.414 . S
C867 C870 1.499 . S
C868 H848 0.950 . S
C868 C867 1.414 . S
C868 C869 1.374 . S
C869 H849 0.950 . S
C869 C865 1.385 . S
C869 C868 1.374 . S
C870 C867 1.499 . S
C870 C871 1.373 . S
C870 C872 1.389 . S
C871 H850 0.950 . S
C871 C870 1.373 . S
C871 C887 1.377 . S
C872 C870 1.389 . S
C872 C873 1.524 . S
C872 C886 1.377 . S
C873 C872 1.524 . S
C873 C874 1.397 . S
C873 C878 1.363 . S
C874 H851 0.950 . S
C874 C873 1.397 . S
C874 C875 1.334 . S
C875 H852 0.950 . S
C875 C874 1.334 . S
C875 C876 1.287 . S
C876 C875 1.287 . S
C876 C877 1.524 . S
C876 H895 0.913 . S
C877 H853 0.950 1_655 S
C877 C876 1.524 . S
C877 C878 1.415 . S
C878 H854 0.950 . S
C878 C873 1.363 . S
C878 C877 1.415 . S
C879 H855 0.951 . S
C879 C880 1.366 . S
C879 C881 1.388 . S
C880 C879 1.366 . S
C880 C884 1.385 . S
C881 H856 0.951 . S
C881 C879 1.388 . S
C881 C882 1.366 . S
C882 C881 1.366 . S
C882 C883 1.414 . S
C882 C885 1.499 . S
C883 H857 0.950 . S
C883 C882 1.414 . S
C883 C884 1.374 . S
C884 H858 0.950 . S
C884 C880 1.385 . S
C884 C883 1.374 . S
C885 C882 1.499 . S
C885 C886 1.373 . S
C885 C887 1.389 . S
C886 H859 0.950 . S
C886 C872 1.377 . S
C886 C885 1.373 . S
C887 C871 1.377 . S
C887 C885 1.389 . S
C887 C888 1.524 . S
C888 C887 1.524 . S
C888 C889 1.397 . S
C888 C893 1.363 . S
C889 H860 0.950 . S
C889 C888 1.397 . S
C889 C890 1.334 . S
C890 H861 0.950 . S
C890 C889 1.334 . S
C890 C891 1.287 . S
C891 C890 1.287 . S
C891 C892 1.524 . S
C891 H894 0.999 . S
C892 H862 0.950 . S
C892 C891 1.524 . S
C892 C893 1.415 . S
C893 H863 0.950 . S
C893 C888 1.363 . S
C893 C892 1.415 . S
H894 C891 0.999 . S
H895 C876 0.913 . S
H896 C914 0.951 . S
H897 C916 0.951 . S
H898 C918 0.950 . S
H899 C919 0.950 . S
H900 C921 0.950 . S
H901 C924 0.950 . S
H902 C925 0.950 . S
H903 C927 0.950 . S
H904 C928 0.950 . S
H905 C929 0.951 . S
H906 C931 0.951 . S
H907 C933 0.950 . S
H908 C934 0.950 . S
H909 C936 0.950 . S
H910 C939 0.950 . S
H911 C940 0.950 . S
H912 C942 0.950 . S
H913 C943 0.950 . S
C914 H896 0.951 . S
C914 C915 1.366 . S
C914 C916 1.388 . S
C915 C914 1.366 . S
C915 C919 1.385 . S
C916 H897 0.951 . S
C916 C914 1.388 . S
C916 C917 1.366 . S
C917 C916 1.366 . S
C917 C918 1.414 . S
C917 C920 1.499 . S
C918 H898 0.950 . S
C918 C917 1.414 . S
C918 C919 1.374 . S
C919 H899 0.950 . S
C919 C915 1.385 . S
C919 C918 1.374 . S
C920 C917 1.499 . S
C920 C921 1.373 . S
C920 C922 1.389 . S
C921 H900 0.950 . S
C921 C920 1.373 . S
C921 C937 1.377 . S
C922 C920 1.389 . S
C922 C923 1.524 . S
C922 C936 1.377 . S
C923 C922 1.524 . S
C923 C924 1.397 . S
C923 C928 1.363 . S
C924 H901 0.950 . S
C924 C923 1.397 . S
C924 C925 1.334 . S
C925 H902 0.950 . S
C925 C924 1.334 . S
C925 C926 1.287 . S
C926 C925 1.287 . S
C926 C927 1.524 . S
C926 H945 0.913 . S
C927 H903 0.950 . S
C927 C926 1.524 . S
C927 C928 1.415 . S
C928 H904 0.950 . S
C928 C923 1.363 . S
C928 C927 1.415 . S
C929 H905 0.951 . S
C929 C930 1.366 . S
C929 C931 1.388 . S
C930 C929 1.366 . S
C930 C934 1.385 . S
C931 H906 0.951 . S
C931 C929 1.388 . S
C931 C932 1.366 . S
C932 C931 1.366 . S
C932 C933 1.414 . S
C932 C935 1.499 . S
C933 H907 0.950 . S
C933 C932 1.414 . S
C933 C934 1.374 . S
C934 H908 0.950 . S
C934 C930 1.385 . S
C934 C933 1.374 . S
C935 C932 1.499 . S
C935 C936 1.373 . S
C935 C937 1.389 . S
C936 H909 0.950 . S
C936 C922 1.377 . S
C936 C935 1.373 . S
C937 C921 1.377 . S
C937 C935 1.389 . S
C937 C938 1.524 . S
C938 C937 1.524 . S
C938 C939 1.397 . S
C938 C943 1.363 . S
C939 H910 0.950 . S
C939 C938 1.397 . S
C939 C940 1.334 . S
C940 H911 0.950 . S
C940 C939 1.334 . S
C940 C941 1.287 . S
C941 C940 1.287 . S
C941 C942 1.524 . S
C941 H944 0.999 . S
C942 H912 0.950 . S
C942 C941 1.524 . S
C942 C943 1.415 . S
C943 H913 0.950 . S
C943 C938 1.363 . S
C943 C942 1.415 . S
H944 C941 0.999 . S
H945 C926 0.913 . S
H946 C964 0.951 . S
H947 C966 0.951 . S
H948 C968 0.950 . S
H949 C969 0.950 . S
H950 C971 0.950 . S
H951 C974 0.950 . S
H952 C975 0.950 . S
H953 C977 0.950 . S
H954 C978 0.950 . S
H955 C979 0.951 . S
H956 C981 0.951 . S
H957 C983 0.950 . S
H958 C984 0.950 . S
H959 C986 0.950 . S
H960 C989 0.950 . S
H961 C990 0.950 . S
H962 C992 0.950 . S
H963 C993 0.950 . S
C964 H946 0.951 . S
C964 C965 1.366 . S
C964 C966 1.388 . S
C965 C964 1.366 . S
C965 C969 1.385 . S
C966 H947 0.951 . S
C966 C964 1.388 . S
C966 C967 1.366 . S
C967 C966 1.366 . S
C967 C968 1.414 . S
C967 C970 1.499 . S
C968 H948 0.950 . S
C968 C967 1.414 . S
C968 C969 1.374 . S
C969 H949 0.950 . S
C969 C965 1.385 . S
C969 C968 1.374 . S
C970 C967 1.499 . S
C970 C971 1.373 . S
C970 C972 1.389 . S
C971 H950 0.950 . S
C971 C970 1.373 . S
C971 C987 1.377 . S
C972 C970 1.389 . S
C972 C973 1.524 . S
C972 C986 1.377 . S
C973 C972 1.524 . S
C973 C974 1.397 . S
C973 C978 1.363 . S
C974 H951 0.950 . S
C974 C973 1.397 . S
C974 C975 1.334 . S
C975 H952 0.950 . S
C975 C974 1.334 . S
C975 C976 1.287 . S
C976 C975 1.287 . S
C976 C977 1.524 . S
C976 H995 0.913 . S
C977 H953 0.950 . S
C977 C976 1.524 . S
C977 C978 1.415 . S
C978 H954 0.950 . S
C978 C973 1.363 . S
C978 C977 1.415 . S
C979 H955 0.951 . S
C979 C980 1.366 . S
C979 C981 1.388 . S
C980 C979 1.366 . S
C980 C984 1.385 . S
C981 H956 0.951 . S
C981 C979 1.388 . S
C981 C982 1.366 . S
C982 C981 1.366 . S
C982 C983 1.414 . S
C982 C985 1.499 . S
C983 H957 0.950 . S
C983 C982 1.414 . S
C983 C984 1.374 . S
C984 H958 0.950 . S
C984 C980 1.385 . S
C984 C983 1.374 . S
C985 C982 1.499 . S
C985 C986 1.373 . S
C985 C987 1.389 . S
C986 H959 0.950 . S
C986 C972 1.377 . S
C986 C985 1.373 . S
C987 C971 1.377 . S
C987 C985 1.389 . S
C987 C988 1.524 . S
C988 C987 1.524 . S
C988 C989 1.397 . S
C988 C993 1.363 . S
C989 H960 0.950 . S
C989 C988 1.397 . S
C989 C990 1.334 . S
C990 H961 0.950 . S
C990 C989 1.334 . S
C990 C991 1.287 . S
C991 C990 1.287 . S
C991 C992 1.524 . S
C991 H994 0.999 . S
C992 H962 0.950 . S
C992 C991 1.524 . S
C992 C993 1.415 . S
C993 H963 0.950 . S
C993 C988 1.363 . S
C993 C992 1.415 . S
H994 C991 0.999 . S
H995 C976 0.913 . S
H996 C1014 0.951 . S
H997 C1016 0.951 . S
H998 C1018 0.954 . S
H999 C1019 0.950 . S
H1000 C1021 0.950 . S
H1001 C1024 0.950 . S
H1002 C1025 0.950 . S
H1003 C1027 0.950 . S
H1004 C1028 0.950 1_655 S
H1005 C1029 0.951 . S
H1006 C1031 0.951 . S
H1007 C1033 0.954 . S
H1008 C1034 0.950 . S
H1009 C1036 0.950 . S
H1010 C1039 0.950 . S
H1011 C1040 0.950 . S
H1012 C1042 0.950 . S
H1013 C1043 0.950 1_455 S
C1014 H996 0.951 . S
C1014 C1015 1.366 . S
C1014 C1016 1.388 . S
C1015 C1014 1.366 . S
C1015 C1019 1.385 . S
C1016 H997 0.951 . S
C1016 C1014 1.388 . S
C1016 C1017 1.366 . S
C1017 C1016 1.366 . S
C1017 C1018 1.414 . S
C1017 C1020 1.499 . S
C1018 H998 0.954 . S
C1018 C1017 1.414 . S
C1018 C1019 1.374 . S
C1019 H999 0.950 . S
C1019 C1015 1.385 . S
C1019 C1018 1.374 . S
C1020 C1017 1.499 . S
C1020 C1021 1.373 . S
C1020 C1022 1.389 1_655 S
C1021 H1000 0.950 . S
C1021 C1020 1.373 . S
C1021 C1037 1.377 . S
C1022 C1020 1.389 1_455 S
C1022 C1023 1.524 . S
C1022 C1036 1.377 . S
C1023 C1022 1.524 . S
C1023 C1024 1.397 . S
C1023 C1028 1.363 . S
C1024 H1001 0.950 . S
C1024 C1023 1.397 . S
C1024 C1025 1.334 . S
C1025 H1002 0.950 . S
C1025 C1024 1.334 . S
C1025 C1026 1.287 . S
C1026 C1025 1.287 . S
C1026 C1027 1.524 . S
C1026 H1045 0.913 . S
C1027 H1003 0.950 . S
C1027 C1026 1.524 . S
C1027 C1028 1.415 . S
C1028 H1004 0.950 1_455 S
C1028 C1023 1.363 . S
C1028 C1027 1.415 . S
C1029 H1005 0.951 . S
C1029 C1030 1.366 . S
C1029 C1031 1.388 . S
C1030 C1029 1.366 . S
C1030 C1034 1.385 . S
C1031 H1006 0.951 . S
C1031 C1029 1.388 . S
C1031 C1032 1.366 . S
C1032 C1031 1.366 . S
C1032 C1033 1.414 . S
C1032 C1035 1.499 . S
C1033 H1007 0.954 . S
C1033 C1032 1.414 . S
C1033 C1034 1.374 . S
C1034 H1008 0.950 . S
C1034 C1030 1.385 . S
C1034 C1033 1.374 . S
C1035 C1032 1.499 . S
C1035 C1036 1.373 . S
C1035 C1037 1.389 1_455 S
C1036 H1009 0.950 . S
C1036 C1022 1.377 . S
C1036 C1035 1.373 . S
C1037 C1021 1.377 . S
C1037 C1035 1.389 1_655 S
C1037 C1038 1.524 . S
C1038 C1037 1.524 . S
C1038 C1039 1.397 . S
C1038 C1043 1.363 . S
C1039 H1010 0.950 . S
C1039 C1038 1.397 . S
C1039 C1040 1.334 . S
C1040 H1011 0.950 . S
C1040 C1039 1.334 . S
C1040 C1041 1.287 . S
C1041 C1040 1.287 . S
C1041 C1042 1.524 . S
C1041 H1044 0.999 . S
C1042 H1012 0.950 . S
C1042 C1041 1.524 . S
C1042 C1043 1.415 . S
C1043 H1013 0.950 1_655 S
C1043 C1038 1.363 . S
C1043 C1042 1.415 . S
H1044 C1041 0.999 . S
H1045 C1026 0.913 . S
H1046 C1064 0.951 . S
H1047 C1066 0.951 . S
H1048 C1068 0.962 . S
H1049 C1069 0.950 . S
H1050 C1071 0.950 . S
H1051 C1074 0.950 . S
H1052 C1075 0.950 . S
H1053 C1077 0.950 1_554 S
H1054 C1078 0.968 . S
H1055 C1079 0.951 . S
H1056 C1081 0.951 . S
H1057 C1083 0.962 . S
H1058 C1084 0.950 . S
H1059 C1086 0.950 . S
H1060 C1089 0.950 . S
H1061 C1090 0.950 . S
H1062 C1092 0.947 1_556 S
H1063 C1093 0.950 . S
C1064 H1046 0.951 . S
C1064 C1065 1.366 . S
C1064 C1066 1.388 . S
C1065 C1064 1.366 . S
C1065 C1069 1.385 . S
C1066 H1047 0.951 . S
C1066 C1064 1.388 . S
C1066 C1067 1.366 . S
C1067 C1066 1.366 . S
C1067 C1068 1.414 . S
C1067 C1070 1.499 . S
C1068 H1048 0.962 . S
C1068 C1067 1.414 . S
C1068 C1069 1.374 . S
C1069 H1049 0.950 . S
C1069 C1065 1.385 . S
C1069 C1068 1.374 . S
C1070 C1067 1.499 . S
C1070 C1071 1.373 1_565 S
C1070 C1072 1.389 . S
C1071 H1050 0.950 . S
C1071 C1070 1.373 1_545 S
C1071 C1087 1.377 1_556 S
C1072 C1070 1.389 . S
C1072 C1073 1.524 . S
C1072 C1086 1.377 1_556 S
C1073 C1072 1.524 . S
C1073 C1074 1.397 . S
C1073 C1078 1.350 1_556 S
C1074 H1051 0.950 . S
C1074 C1073 1.397 . S
C1074 C1075 1.334 . S
C1075 H1052 0.950 . S
C1075 C1074 1.334 . S
C1075 C1076 1.287 . S
C1076 C1075 1.287 . S
C1076 C1077 1.524 . S
C1076 H1095 0.913 . S
C1077 H1053 0.950 1_556 S
C1077 C1076 1.524 . S
C1077 C1078 1.412 1_556 S
C1078 H1054 0.968 . S
C1078 C1073 1.350 1_554 S
C1078 C1077 1.412 1_554 S
C1079 H1055 0.951 . S
C1079 C1080 1.366 . S
C1079 C1081 1.388 . S
C1080 C1079 1.366 . S
C1080 C1084 1.385 . S
C1081 H1056 0.951 . S
C1081 C1079 1.388 . S
C1081 C1082 1.366 . S
C1082 C1081 1.366 . S
C1082 C1083 1.414 . S
C1082 C1085 1.499 . S
C1083 H1057 0.962 . S
C1083 C1082 1.414 . S
C1083 C1084 1.374 . S
C1084 H1058 0.950 . S
C1084 C1080 1.385 . S
C1084 C1083 1.374 . S
C1085 C1082 1.499 . S
C1085 C1086 1.373 1_545 S
C1085 C1087 1.389 . S
C1086 H1059 0.950 . S
C1086 C1072 1.377 1_554 S
C1086 C1085 1.373 1_565 S
C1087 C1071 1.377 1_554 S
C1087 C1085 1.389 . S
C1087 C1088 1.524 . S
C1088 C1087 1.524 . S
C1088 C1089 1.397 . S
C1088 C1093 1.363 1_554 S
C1089 H1060 0.950 . S
C1089 C1088 1.397 . S
C1089 C1090 1.334 . S
C1090 H1061 0.950 . S
C1090 C1089 1.334 . S
C1090 C1091 1.287 . S
C1091 C1090 1.287 . S
C1091 C1092 1.528 . S
C1091 H1094 0.999 . S
C1092 H1062 0.947 1_554 S
C1092 C1091 1.528 . S
C1092 C1093 1.414 1_554 S
C1093 H1063 0.950 . S
C1093 C1088 1.363 1_556 S
C1093 C1092 1.414 1_556 S
H1094 C1091 0.999 . S
H1095 C1076 0.913 . S
H1096 C1114 0.951 . S
H1097 C1116 0.951 . S
H1098 C1118 0.950 . S
H1099 C1119 0.950 . S
H1100 C1121 0.950 . S
H1101 C1124 0.950 . S
H1102 C1125 0.950 . S
H1103 C1127 0.950 . S
H1104 C1128 0.950 . S
H1105 C1129 0.951 . S
H1106 C1131 0.951 . S
H1107 C1133 0.950 . S
H1108 C1134 0.950 . S
H1109 C1136 0.950 . S
H1110 C1139 0.950 . S
H1111 C1140 0.950 . S
H1112 C1142 0.950 . S
H1113 C1143 0.950 . S
C1114 H1096 0.951 . S
C1114 C1115 1.366 . S
C1114 C1116 1.388 . S
C1115 C1114 1.366 . S
C1115 C1119 1.385 . S
C1116 H1097 0.951 . S
C1116 C1114 1.388 . S
C1116 C1117 1.366 . S
C1117 C1116 1.366 . S
C1117 C1118 1.414 . S
C1117 C1120 1.499 . S
C1118 H1098 0.950 . S
C1118 C1117 1.414 . S
C1118 C1119 1.374 . S
C1119 H1099 0.950 . S
C1119 C1115 1.385 . S
C1119 C1118 1.374 . S
C1120 C1117 1.499 . S
C1120 C1121 1.373 . S
C1120 C1122 1.389 . S
C1121 H1100 0.950 . S
C1121 C1120 1.373 . S
C1121 C1137 1.377 . S
C1122 C1120 1.389 . S
C1122 C1123 1.524 . S
C1122 C1136 1.377 . S
C1123 C1122 1.524 . S
C1123 C1124 1.397 . S
C1123 C1128 1.363 . S
C1124 H1101 0.950 . S
C1124 C1123 1.397 . S
C1124 C1125 1.334 . S
C1125 H1102 0.950 . S
C1125 C1124 1.334 . S
C1125 C1126 1.287 . S
C1126 C1125 1.287 . S
C1126 C1127 1.524 . S
C1126 H1145 0.913 . S
C1127 H1103 0.950 . S
C1127 C1126 1.524 . S
C1127 C1128 1.415 . S
C1128 H1104 0.950 . S
C1128 C1123 1.363 . S
C1128 C1127 1.415 . S
C1129 H1105 0.951 . S
C1129 C1130 1.366 . S
C1129 C1131 1.388 . S
C1130 C1129 1.366 . S
C1130 C1134 1.385 . S
C1131 H1106 0.951 . S
C1131 C1129 1.388 . S
C1131 C1132 1.366 . S
C1132 C1131 1.366 . S
C1132 C1133 1.414 . S
C1132 C1135 1.499 . S
C1133 H1107 0.950 . S
C1133 C1132 1.414 . S
C1133 C1134 1.374 . S
C1134 H1108 0.950 . S
C1134 C1130 1.385 . S
C1134 C1133 1.374 . S
C1135 C1132 1.499 . S
C1135 C1136 1.373 . S
C1135 C1137 1.389 . S
C1136 H1109 0.950 . S
C1136 C1122 1.377 . S
C1136 C1135 1.373 . S
C1137 C1121 1.377 . S
C1137 C1135 1.389 . S
C1137 C1138 1.524 . S
C1138 C1137 1.524 . S
C1138 C1139 1.397 . S
C1138 C1143 1.363 . S
C1139 H1110 0.950 . S
C1139 C1138 1.397 . S
C1139 C1140 1.334 . S
C1140 H1111 0.950 . S
C1140 C1139 1.334 . S
C1140 C1141 1.287 . S
C1141 C1140 1.287 . S
C1141 C1142 1.524 . S
C1141 H1144 0.999 . S
C1142 H1112 0.950 . S
C1142 C1141 1.524 . S
C1142 C1143 1.415 . S
C1143 H1113 0.950 . S
C1143 C1138 1.363 . S
C1143 C1142 1.415 . S
H1144 C1141 0.999 . S
H1145 C1126 0.913 . S
H1146 C1164 0.951 . S
H1147 C1166 0.951 . S
H1148 C1168 0.950 . S
H1149 C1169 0.950 1_455 S
H1150 C1171 0.950 . S
H1151 C1174 0.950 . S
H1152 C1175 0.950 . S
H1153 C1177 0.950 . S
H1154 C1178 0.950 . S
H1155 C1179 0.951 . S
H1156 C1181 0.951 . S
H1157 C1183 0.950 . S
H1158 C1184 0.950 1_655 S
H1159 C1186 0.950 . S
H1160 C1189 0.950 . S
H1161 C1190 0.950 . S
H1162 C1192 0.950 . S
H1163 C1193 0.950 . S
C1164 H1146 0.951 . S
C1164 C1165 1.366 . S
C1164 C1166 1.388 . S
C1165 C1164 1.366 . S
C1165 C1169 1.385 . S
C1166 H1147 0.951 . S
C1166 C1164 1.388 . S
C1166 C1167 1.366 . S
C1167 C1166 1.366 . S
C1167 C1168 1.414 1_655 S
C1167 C1170 1.499 . S
C1168 H1148 0.950 . S
C1168 C1167 1.414 1_455 S
C1168 C1169 1.374 1_455 S
C1169 H1149 0.950 1_655 S
C1169 C1165 1.385 . S
C1169 C1168 1.374 1_655 S
C1170 C1167 1.499 . S
C1170 C1171 1.373 1_655 S
C1170 C1172 1.389 . S
C1171 H1150 0.950 . S
C1171 C1170 1.373 1_455 S
C1171 C1187 1.377 . S
C1172 C1170 1.389 . S
C1172 C1173 1.524 . S
C1172 C1186 1.377 . S
C1173 C1172 1.524 . S
C1173 C1174 1.397 . S
C1173 C1178 1.363 . S
C1174 H1151 0.950 . S
C1174 C1173 1.397 . S
C1174 C1175 1.334 . S
C1175 H1152 0.950 . S
C1175 C1174 1.334 . S
C1175 C1176 1.287 . S
C1176 C1175 1.287 . S
C1176 C1177 1.524 . S
C1176 H1195 0.913 . S
C1177 H1153 0.950 . S
C1177 C1176 1.524 . S
C1177 C1178 1.415 . S
C1178 H1154 0.950 . S
C1178 C1173 1.363 . S
C1178 C1177 1.415 . S
C1179 H1155 0.951 . S
C1179 C1180 1.366 . S
C1179 C1181 1.388 . S
C1180 C1179 1.366 . S
C1180 C1184 1.385 . S
C1181 H1156 0.951 . S
C1181 C1179 1.388 . S
C1181 C1182 1.366 . S
C1182 C1181 1.366 . S
C1182 C1183 1.414 1_455 S
C1182 C1185 1.499 . S
C1183 H1157 0.950 . S
C1183 C1182 1.414 1_655 S
C1183 C1184 1.374 1_655 S
C1184 H1158 0.950 1_455 S
C1184 C1180 1.385 . S
C1184 C1183 1.374 1_455 S
C1185 C1182 1.499 . S
C1185 C1186 1.373 1_455 S
C1185 C1187 1.389 . S
C1186 H1159 0.950 . S
C1186 C1172 1.377 . S
C1186 C1185 1.373 1_655 S
C1187 C1171 1.377 . S
C1187 C1185 1.389 . S
C1187 C1188 1.524 . S
C1188 C1187 1.524 . S
C1188 C1189 1.397 . S
C1188 C1193 1.363 . S
C1189 H1160 0.950 . S
C1189 C1188 1.397 . S
C1189 C1190 1.334 . S
C1190 H1161 0.950 . S
C1190 C1189 1.334 . S
C1190 C1191 1.287 . S
C1191 C1190 1.287 . S
C1191 C1192 1.524 . S
C1191 H1194 0.999 . S
C1192 H1162 0.950 . S
C1192 C1191 1.524 . S
C1192 C1193 1.415 . S
C1193 H1163 0.950 . S
C1193 C1188 1.363 . S
C1193 C1192 1.415 . S
H1194 C1191 0.999 . S
H1195 C1176 0.913 . S
H1196 C1214 0.951 . S
H1197 C1216 0.951 . S
H1198 C1218 0.950 . S
H1199 C1219 0.950 1_545 S
H1200 C1221 0.950 . S
H1201 C1224 0.950 . S
H1202 C1225 0.950 . S
H1203 C1227 0.950 . S
H1204 C1228 0.950 . S
H1205 C1229 0.951 . S
H1206 C1231 0.951 . S
H1207 C1233 0.950 . S
H1208 C1234 0.950 1_565 S
H1209 C1236 0.950 . S
H1210 C1239 0.950 . S
H1211 C1240 0.950 . S
H1212 C1242 0.950 . S
H1213 C1243 0.950 . S
C1214 H1196 0.951 . S
C1214 C1215 1.366 . S
C1214 C1216 1.388 . S
C1215 C1214 1.366 . S
C1215 C1219 1.385 . S
C1216 H1197 0.951 . S
C1216 C1214 1.388 . S
C1216 C1217 1.366 . S
C1217 C1216 1.366 . S
C1217 C1218 1.414 1_565 S
C1217 C1220 1.499 . S
C1218 H1198 0.950 . S
C1218 C1217 1.414 1_545 S
C1218 C1219 1.374 1_545 S
C1219 H1199 0.950 1_565 S
C1219 C1215 1.385 . S
C1219 C1218 1.374 1_565 S
C1220 C1217 1.499 . S
C1220 C1221 1.373 1_565 S
C1220 C1222 1.389 . S
C1221 H1200 0.950 . S
C1221 C1220 1.373 1_545 S
C1221 C1237 1.377 . S
C1222 C1220 1.389 . S
C1222 C1223 1.524 . S
C1222 C1236 1.377 . S
C1223 C1222 1.524 . S
C1223 C1224 1.397 . S
C1223 C1228 1.363 . S
C1224 H1201 0.950 . S
C1224 C1223 1.397 . S
C1224 C1225 1.334 . S
C1225 H1202 0.950 . S
C1225 C1224 1.334 . S
C1225 C1226 1.287 . S
C1226 C1225 1.287 . S
C1226 C1227 1.524 . S
C1226 H1245 0.913 . S
C1227 H1203 0.950 . S
C1227 C1226 1.524 . S
C1227 C1228 1.415 . S
C1228 H1204 0.950 . S
C1228 C1223 1.363 . S
C1228 C1227 1.415 . S
C1229 H1205 0.951 . S
C1229 C1230 1.366 . S
C1229 C1231 1.388 . S
C1230 C1229 1.366 . S
C1230 C1234 1.385 . S
C1231 H1206 0.951 . S
C1231 C1229 1.388 . S
C1231 C1232 1.366 . S
C1232 C1231 1.366 . S
C1232 C1233 1.414 1_545 S
C1232 C1235 1.499 . S
C1233 H1207 0.950 . S
C1233 C1232 1.414 1_565 S
C1233 C1234 1.374 1_565 S
C1234 H1208 0.950 1_545 S
C1234 C1230 1.385 . S
C1234 C1233 1.374 1_545 S
C1235 C1232 1.499 . S
C1235 C1236 1.373 1_545 S
C1235 C1237 1.389 . S
C1236 H1209 0.950 . S
C1236 C1222 1.377 . S
C1236 C1235 1.373 1_565 S
C1237 C1221 1.377 . S
C1237 C1235 1.389 . S
C1237 C1238 1.524 . S
C1238 C1237 1.524 . S
C1238 C1239 1.397 . S
C1238 C1243 1.363 . S
C1239 H1210 0.950 . S
C1239 C1238 1.397 . S
C1239 C1240 1.334 . S
C1240 H1211 0.950 . S
C1240 C1239 1.334 . S
C1240 C1241 1.287 . S
C1241 C1240 1.287 . S
C1241 C1242 1.524 . S
C1241 H1244 0.999 . S
C1242 H1212 0.950 . S
C1242 C1241 1.524 . S
C1242 C1243 1.415 . S
C1243 H1213 0.950 . S
C1243 C1238 1.363 . S
C1243 C1242 1.415 . S
H1244 C1241 0.999 . S
H1245 C1226 0.913 . S
H1246 C1264 0.951 . S
H1247 C1266 0.951 . S
H1248 C1268 0.950 . S
H1249 C1269 0.950 . S
H1250 C1271 0.950 . S
H1251 C1274 0.950 . S
H1252 C1275 0.950 . S
H1253 C1277 0.950 . S
H1254 C1278 0.950 . S
H1255 C1279 0.951 . S
H1256 C1281 0.951 . S
H1257 C1283 0.950 . S
H1258 C1284 0.950 . S
H1259 C1286 0.950 . S
H1260 C1289 0.950 . S
H1261 C1290 0.950 . S
H1262 C1292 0.950 . S
H1263 C1293 0.950 . S
C1264 H1246 0.951 . S
C1264 C1265 1.366 . S
C1264 C1266 1.388 . S
C1265 C1264 1.366 . S
C1265 C1269 1.385 . S
C1266 H1247 0.951 . S
C1266 C1264 1.388 . S
C1266 C1267 1.366 . S
C1267 C1266 1.366 . S
C1267 C1268 1.414 . S
C1267 C1270 1.499 . S
C1268 H1248 0.950 . S
C1268 C1267 1.414 . S
C1268 C1269 1.374 . S
C1269 H1249 0.950 . S
C1269 C1265 1.385 . S
C1269 C1268 1.374 . S
C1270 C1267 1.499 . S
C1270 C1271 1.373 . S
C1270 C1272 1.389 . S
C1271 H1250 0.950 . S
C1271 C1270 1.373 . S
C1271 C1287 1.377 . S
C1272 C1270 1.389 . S
C1272 C1273 1.524 . S
C1272 C1286 1.377 . S
C1273 C1272 1.524 . S
C1273 C1274 1.397 . S
C1273 C1278 1.363 . S
C1274 H1251 0.950 . S
C1274 C1273 1.397 . S
C1274 C1275 1.334 . S
C1275 H1252 0.950 . S
C1275 C1274 1.334 . S
C1275 C1276 1.287 . S
C1276 C1275 1.287 . S
C1276 C1277 1.524 . S
C1276 H1295 0.913 . S
C1277 H1253 0.950 . S
C1277 C1276 1.524 . S
C1277 C1278 1.415 . S
C1278 H1254 0.950 . S
C1278 C1273 1.363 . S
C1278 C1277 1.415 . S
C1279 H1255 0.951 . S
C1279 C1280 1.366 . S
C1279 C1281 1.388 . S
C1280 C1279 1.366 . S
C1280 C1284 1.385 . S
C1281 H1256 0.951 . S
C1281 C1279 1.388 . S
C1281 C1282 1.366 . S
C1282 C1281 1.366 . S
C1282 C1283 1.414 . S
C1282 C1285 1.499 . S
C1283 H1257 0.950 . S
C1283 C1282 1.414 . S
C1283 C1284 1.374 . S
C1284 H1258 0.950 . S
C1284 C1280 1.385 . S
C1284 C1283 1.374 . S
C1285 C1282 1.499 . S
C1285 C1286 1.373 . S
C1285 C1287 1.389 . S
C1286 H1259 0.950 . S
C1286 C1272 1.377 . S
C1286 C1285 1.373 . S
C1287 C1271 1.377 . S
C1287 C1285 1.389 . S
C1287 C1288 1.524 . S
C1288 C1287 1.524 . S
C1288 C1289 1.397 . S
C1288 C1293 1.363 . S
C1289 H1260 0.950 . S
C1289 C1288 1.397 . S
C1289 C1290 1.334 . S
C1290 H1261 0.950 . S
C1290 C1289 1.334 . S
C1290 C1291 1.287 . S
C1291 C1290 1.287 . S
C1291 C1292 1.524 . S
C1291 H1294 0.999 . S
C1292 H1262 0.950 . S
C1292 C1291 1.524 . S
C1292 C1293 1.415 . S
C1293 H1263 0.950 . S
C1293 C1288 1.363 . S
C1293 C1292 1.415 . S
H1294 C1291 0.999 . S
H1295 C1276 0.913 . S
H1296 C1314 0.951 . S
H1297 C1316 0.951 . S
H1298 C1318 0.950 . S
H1299 C1319 0.950 . S
H1300 C1321 0.950 . S
H1301 C1324 0.950 . S
H1302 C1325 0.950 . S
H1303 C1327 0.950 . S
H1304 C1328 0.950 . S
H1305 C1329 0.949 1_556 S
H1306 C1331 0.951 . S
H1307 C1333 0.950 . S
H1308 C1334 0.950 . S
H1309 C1336 0.950 . S
H1310 C1339 0.950 . S
H1311 C1340 0.950 . S
H1312 C1342 0.950 . S
H1313 C1343 0.950 . S
C1314 H1296 0.951 . S
C1314 C1315 1.366 . S
C1314 C1316 1.388 . S
C1315 C1314 1.366 . S
C1315 C1319 1.385 . S
C1316 H1297 0.951 . S
C1316 C1314 1.388 . S
C1316 C1317 1.366 . S
C1317 C1316 1.366 . S
C1317 C1318 1.414 . S
C1317 C1320 1.499 . S
C1318 H1298 0.950 . S
C1318 C1317 1.414 . S
C1318 C1319 1.374 . S
C1319 H1299 0.950 . S
C1319 C1315 1.385 . S
C1319 C1318 1.374 . S
C1320 C1317 1.499 . S
C1320 C1321 1.373 . S
C1320 C1322 1.389 . S
C1321 H1300 0.950 . S
C1321 C1320 1.373 . S
C1321 C1337 1.377 . S
C1322 C1320 1.389 . S
C1322 C1323 1.524 . S
C1322 C1336 1.377 . S
C1323 C1322 1.524 . S
C1323 C1324 1.397 . S
C1323 C1328 1.363 . S
C1324 H1301 0.950 . S
C1324 C1323 1.397 . S
C1324 C1325 1.334 . S
C1325 H1302 0.950 . S
C1325 C1324 1.334 . S
C1325 C1326 1.287 . S
C1326 C1325 1.287 . S
C1326 C1327 1.524 . S
C1326 H1345 0.913 . S
C1327 H1303 0.950 . S
C1327 C1326 1.524 . S
C1327 C1328 1.415 . S
C1328 H1304 0.950 . S
C1328 C1323 1.363 . S
C1328 C1327 1.415 . S
C1329 H1305 0.949 1_554 S
C1329 C1330 1.372 . S
C1329 C1331 1.384 1_554 S
C1330 C1329 1.372 . S
C1330 C1334 1.385 . S
C1331 H1306 0.951 . S
C1331 C1329 1.384 1_556 S
C1331 C1332 1.366 . S
C1332 C1331 1.366 . S
C1332 C1333 1.414 1_556 S
C1332 C1335 1.499 . S
C1333 H1307 0.950 . S
C1333 C1332 1.414 1_554 S
C1333 C1334 1.374 . S
C1334 H1308 0.950 . S
C1334 C1330 1.385 . S
C1334 C1333 1.374 . S
C1335 C1332 1.499 . S
C1335 C1336 1.373 . S
C1335 C1337 1.389 . S
C1336 H1309 0.950 . S
C1336 C1322 1.377 . S
C1336 C1335 1.373 . S
C1337 C1321 1.377 . S
C1337 C1335 1.389 . S
C1337 C1338 1.524 1_556 S
C1338 C1337 1.524 1_554 S
C1338 C1339 1.397 . S
C1338 C1343 1.363 1_554 S
C1339 H1310 0.950 . S
C1339 C1338 1.397 . S
C1339 C1340 1.334 . S
C1340 H1311 0.950 . S
C1340 C1339 1.334 . S
C1340 C1341 1.287 . S
C1341 C1340 1.287 . S
C1341 C1342 1.524 . S
C1341 H1344 0.999 . S
C1342 H1312 0.950 . S
C1342 C1341 1.524 . S
C1342 C1343 1.415 1_554 S
C1343 H1313 0.950 . S
C1343 C1338 1.363 1_556 S
C1343 C1342 1.415 1_556 S
H1344 C1341 0.999 . S
H1345 C1326 0.913 . S
H1346 C1364 0.951 . S
H1347 C1366 0.951 . S
H1348 C1368 0.950 . S
H1349 C1369 0.950 1_455 S
H1350 C1371 0.950 . S
H1351 C1374 0.950 . S
H1352 C1375 0.950 . S
H1353 C1377 0.950 . S
H1354 C1378 0.950 . S
H1355 C1379 0.951 . S
H1356 C1381 0.951 . S
H1357 C1383 0.950 . S
H1358 C1384 0.950 . S
H1359 C1386 0.950 . S
H1360 C1389 0.950 . S
H1361 C1390 0.950 . S
H1362 C1392 0.950 . S
H1363 C1393 0.950 . S
C1364 H1346 0.951 . S
C1364 C1365 1.366 . S
C1364 C1366 1.388 . S
C1365 C1364 1.366 . S
C1365 C1369 1.385 . S
C1366 H1347 0.951 . S
C1366 C1364 1.388 . S
C1366 C1367 1.366 . S
C1367 C1366 1.366 . S
C1367 C1368 1.414 . S
C1367 C1370 1.499 . S
C1368 H1348 0.950 . S
C1368 C1367 1.414 . S
C1368 C1369 1.374 . S
C1369 H1349 0.950 1_655 S
C1369 C1365 1.385 . S
C1369 C1368 1.374 . S
C1370 C1367 1.499 . S
C1370 C1371 1.373 . S
C1370 C1372 1.389 . S
C1371 H1350 0.950 . S
C1371 C1370 1.373 . S
C1371 C1387 1.377 . S
C1372 C1370 1.389 . S
C1372 C1373 1.524 . S
C1372 C1386 1.377 . S
C1373 C1372 1.524 . S
C1373 C1374 1.397 . S
C1373 C1378 1.363 . S
C1374 H1351 0.950 . S
C1374 C1373 1.397 . S
C1374 C1375 1.334 . S
C1375 H1352 0.950 . S
C1375 C1374 1.334 . S
C1375 C1376 1.287 . S
C1376 C1375 1.287 . S
C1376 C1377 1.524 . S
C1376 H1395 0.913 . S
C1377 H1353 0.950 . S
C1377 C1376 1.524 . S
C1377 C1378 1.415 . S
C1378 H1354 0.950 . S
C1378 C1373 1.363 . S
C1378 C1377 1.415 . S
C1379 H1355 0.951 . S
C1379 C1380 1.366 . S
C1379 C1381 1.388 . S
C1380 C1379 1.366 . S
C1380 C1384 1.385 . S
C1381 H1356 0.951 . S
C1381 C1379 1.388 . S
C1381 C1382 1.366 . S
C1382 C1381 1.366 . S
C1382 C1383 1.414 . S
C1382 C1385 1.499 . S
C1383 H1357 0.950 . S
C1383 C1382 1.414 . S
C1383 C1384 1.374 . S
C1384 H1358 0.950 . S
C1384 C1380 1.385 . S
C1384 C1383 1.374 . S
C1385 C1382 1.499 . S
C1385 C1386 1.373 . S
C1385 C1387 1.389 . S
C1386 H1359 0.950 . S
C1386 C1372 1.377 . S
C1386 C1385 1.373 . S
C1387 C1371 1.377 . S
C1387 C1385 1.389 . S
C1387 C1388 1.524 . S
C1388 C1387 1.524 . S
C1388 C1389 1.397 . S
C1388 C1393 1.363 . S
C1389 H1360 0.950 . S
C1389 C1388 1.397 . S
C1389 C1390 1.334 . S
C1390 H1361 0.950 . S
C1390 C1389 1.334 . S
C1390 C1391 1.287 . S
C1391 C1390 1.287 . S
C1391 C1392 1.524 . S
C1391 H1394 0.999 . S
C1392 H1362 0.950 . S
C1392 C1391 1.524 . S
C1392 C1393 1.415 . S
C1393 H1363 0.950 . S
C1393 C1388 1.363 . S
C1393 C1392 1.415 . S
H1394 C1391 0.999 . S
H1395 C1376 0.913 . S
H1396 C1414 0.951 . S
H1397 C1416 0.951 . S
H1398 C1418 0.950 . S
H1399 C1419 0.950 . S
H1400 C1421 0.950 . S
H1401 C1424 0.950 . S
H1402 C1425 0.950 . S
H1403 C1427 0.950 . S
H1404 C1428 0.950 . S
H1405 C1429 0.951 . S
H1406 C1431 0.951 . S
H1407 C1433 0.950 . S
H1408 C1434 0.950 . S
H1409 C1436 0.950 . S
H1410 C1439 0.950 . S
H1411 C1440 0.950 . S
H1412 C1442 0.950 . S
H1413 C1443 0.950 . S
C1414 H1396 0.951 . S
C1414 C1415 1.366 . S
C1414 C1416 1.388 . S
C1415 C1414 1.366 . S
C1415 C1419 1.385 . S
C1416 H1397 0.951 . S
C1416 C1414 1.388 . S
C1416 C1417 1.366 . S
C1417 C1416 1.366 . S
C1417 C1418 1.414 . S
C1417 C1420 1.499 . S
C1418 H1398 0.950 . S
C1418 C1417 1.414 . S
C1418 C1419 1.374 . S
C1419 H1399 0.950 . S
C1419 C1415 1.385 . S
C1419 C1418 1.374 . S
C1420 C1417 1.499 . S
C1420 C1421 1.373 . S
C1420 C1422 1.389 . S
C1421 H1400 0.950 . S
C1421 C1420 1.373 . S
C1421 C1437 1.377 . S
C1422 C1420 1.389 . S
C1422 C1423 1.524 . S
C1422 C1436 1.377 . S
C1423 C1422 1.524 . S
C1423 C1424 1.397 . S
C1423 C1428 1.363 . S
C1424 H1401 0.950 . S
C1424 C1423 1.397 . S
C1424 C1425 1.334 . S
C1425 H1402 0.950 . S
C1425 C1424 1.334 . S
C1425 C1426 1.287 . S
C1426 C1425 1.287 . S
C1426 C1427 1.524 . S
C1426 H1445 0.913 . S
C1427 H1403 0.950 . S
C1427 C1426 1.524 . S
C1427 C1428 1.415 . S
C1428 H1404 0.950 . S
C1428 C1423 1.363 . S
C1428 C1427 1.415 . S
C1429 H1405 0.951 . S
C1429 C1430 1.366 . S
C1429 C1431 1.388 . S
C1430 C1429 1.366 . S
C1430 C1434 1.385 . S
C1431 H1406 0.951 . S
C1431 C1429 1.388 . S
C1431 C1432 1.366 . S
C1432 C1431 1.366 . S
C1432 C1433 1.414 . S
C1432 C1435 1.499 . S
C1433 H1407 0.950 . S
C1433 C1432 1.414 . S
C1433 C1434 1.374 . S
C1434 H1408 0.950 . S
C1434 C1430 1.385 . S
C1434 C1433 1.374 . S
C1435 C1432 1.499 . S
C1435 C1436 1.373 . S
C1435 C1437 1.389 . S
C1436 H1409 0.950 . S
C1436 C1422 1.377 . S
C1436 C1435 1.373 . S
C1437 C1421 1.377 . S
C1437 C1435 1.389 . S
C1437 C1438 1.524 . S
C1438 C1437 1.524 . S
C1438 C1439 1.397 . S
C1438 C1443 1.363 . S
C1439 H1410 0.950 . S
C1439 C1438 1.397 . S
C1439 C1440 1.334 . S
C1440 H1411 0.950 . S
C1440 C1439 1.334 . S
C1440 C1441 1.287 . S
C1441 C1440 1.287 . S
C1441 C1442 1.524 . S
C1441 H1444 0.999 . S
C1442 H1412 0.950 . S
C1442 C1441 1.524 . S
C1442 C1443 1.415 . S
C1443 H1413 0.950 . S
C1443 C1438 1.363 . S
C1443 C1442 1.415 . S
H1444 C1441 0.999 . S
H1445 C1426 0.913 . S
H1446 C1464 0.951 . S
H1447 C1466 0.951 . S
H1448 C1468 0.950 . S
H1449 C1469 0.950 . S
H1450 C1471 0.950 . S
H1451 C1474 0.950 . S
H1452 C1475 0.950 . S
H1453 C1477 0.950 . S
H1454 C1478 0.950 . S
H1455 C1479 0.951 . S
H1456 C1481 0.951 . S
H1457 C1483 0.950 . S
H1458 C1484 0.950 . S
H1459 C1486 0.950 . S
H1460 C1489 0.950 . S
H1461 C1490 0.950 . S
H1462 C1492 0.950 . S
H1463 C1493 0.950 . S
C1464 H1446 0.951 . S
C1464 C1465 1.366 . S
C1464 C1466 1.388 . S
C1465 C1464 1.366 . S
C1465 C1469 1.385 . S
C1466 H1447 0.951 . S
C1466 C1464 1.388 . S
C1466 C1467 1.366 . S
C1467 C1466 1.366 . S
C1467 C1468 1.414 . S
C1467 C1470 1.499 . S
C1468 H1448 0.950 . S
C1468 C1467 1.414 . S
C1468 C1469 1.374 . S
C1469 H1449 0.950 . S
C1469 C1465 1.385 . S
C1469 C1468 1.374 . S
C1470 C1467 1.499 . S
C1470 C1471 1.373 . S
C1470 C1472 1.389 . S
C1471 H1450 0.950 . S
C1471 C1470 1.373 . S
C1471 C1487 1.377 . S
C1472 C1470 1.389 . S
C1472 C1473 1.524 . S
C1472 C1486 1.377 . S
C1473 C1472 1.524 . S
C1473 C1474 1.397 . S
C1473 C1478 1.363 . S
C1474 H1451 0.950 . S
C1474 C1473 1.397 . S
C1474 C1475 1.334 . S
C1475 H1452 0.950 . S
C1475 C1474 1.334 . S
C1475 C1476 1.287 . S
C1476 C1475 1.287 . S
C1476 C1477 1.524 . S
C1476 H1495 0.913 . S
C1477 H1453 0.950 . S
C1477 C1476 1.524 . S
C1477 C1478 1.415 . S
C1478 H1454 0.950 . S
C1478 C1473 1.363 . S
C1478 C1477 1.415 . S
C1479 H1455 0.951 . S
C1479 C1480 1.366 . S
C1479 C1481 1.388 . S
C1480 C1479 1.366 . S
C1480 C1484 1.385 . S
C1481 H1456 0.951 . S
C1481 C1479 1.388 . S
C1481 C1482 1.366 . S
C1482 C1481 1.366 . S
C1482 C1483 1.414 . S
C1482 C1485 1.499 . S
C1483 H1457 0.950 . S
C1483 C1482 1.414 . S
C1483 C1484 1.374 . S
C1484 H1458 0.950 . S
C1484 C1480 1.385 . S
C1484 C1483 1.374 . S
C1485 C1482 1.499 . S
C1485 C1486 1.373 . S
C1485 C1487 1.389 . S
C1486 H1459 0.950 . S
C1486 C1472 1.377 . S
C1486 C1485 1.373 . S
C1487 C1471 1.377 . S
C1487 C1485 1.389 . S
C1487 C1488 1.524 . S
C1488 C1487 1.524 . S
C1488 C1489 1.397 . S
C1488 C1493 1.363 . S
C1489 H1460 0.950 . S
C1489 C1488 1.397 . S
C1489 C1490 1.334 . S
C1490 H1461 0.950 . S
C1490 C1489 1.334 . S
C1490 C1491 1.287 . S
C1491 C1490 1.287 . S
C1491 C1492 1.524 . S
C1491 H1494 0.999 . S
C1492 H1462 0.950 . S
C1492 C1491 1.524 . S
C1492 C1493 1.415 . S
C1493 H1463 0.950 . S
C1493 C1488 1.363 . S
C1493 C1492 1.415 . S
H1494 C1491 0.999 . S
H1495 C1476 0.913 . S
H1496 C1514 0.951 . S
H1497 C1516 0.951 . S
H1498 C1518 0.950 . S
H1499 C1519 0.950 . S
H1500 C1521 0.950 . S
H1501 C1524 0.950 . S
H1502 C1525 0.950 . S
H1503 C1527 0.950 . S
H1504 C1528 0.950 . S
H1505 C1529 0.999 . S
H1506 C1531 0.951 . S
H1507 C1533 0.950 . S
H1508 C1534 0.950 . S
H1509 C1536 0.950 . S
H1510 C1539 0.950 . S
H1511 C1540 0.950 . S
H1512 C1542 0.950 . S
H1513 C1543 0.950 . S
C1514 H1496 0.951 . S
C1514 C1515 1.366 . S
C1514 C1516 1.388 . S
C1515 C1514 1.366 . S
C1515 C1519 1.385 . S
C1516 H1497 0.951 . S
C1516 C1514 1.388 . S
C1516 C1517 1.366 . S
C1517 C1516 1.366 . S
C1517 C1518 1.414 . S
C1517 C1520 1.499 . S
C1518 H1498 0.950 . S
C1518 C1517 1.414 . S
C1518 C1519 1.374 . S
C1519 H1499 0.950 . S
C1519 C1515 1.385 . S
C1519 C1518 1.374 . S
C1520 C1517 1.499 . S
C1520 C1521 1.373 . S
C1520 C1522 1.389 . S
C1521 H1500 0.950 . S
C1521 C1520 1.373 . S
C1521 C1537 1.377 . S
C1522 C1520 1.389 . S
C1522 C1523 1.524 . S
C1522 C1536 1.377 . S
C1523 C1522 1.524 . S
C1523 C1524 1.397 . S
C1523 C1528 1.363 . S
C1524 H1501 0.950 . S
C1524 C1523 1.397 . S
C1524 C1525 1.334 . S
C1525 H1502 0.950 . S
C1525 C1524 1.334 . S
C1525 C1526 1.287 . S
C1526 C1525 1.287 . S
C1526 C1527 1.524 . S
C1526 H1545 0.913 . S
C1527 H1503 0.950 . S
C1527 C1526 1.524 . S
C1527 C1528 1.415 . S
C1528 H1504 0.950 . S
C1528 C1523 1.363 . S
C1528 C1527 1.415 . S
C1529 H1505 0.999 . S
C1529 C1530 1.366 . S
C1529 C1531 1.388 . S
C1530 C1529 1.366 . S
C1530 C1534 1.385 . S
C1531 H1506 0.951 . S
C1531 C1529 1.388 . S
C1531 C1532 1.366 . S
C1532 C1531 1.366 . S
C1532 C1533 1.414 . S
C1532 C1535 1.499 . S
C1533 H1507 0.950 . S
C1533 C1532 1.414 . S
C1533 C1534 1.374 . S
C1534 H1508 0.950 . S
C1534 C1530 1.385 . S
C1534 C1533 1.374 . S
C1535 C1532 1.499 . S
C1535 C1536 1.373 . S
C1535 C1537 1.389 . S
C1536 H1509 0.950 . S
C1536 C1522 1.377 . S
C1536 C1535 1.373 . S
C1537 C1521 1.377 . S
C1537 C1535 1.389 . S
C1537 C1538 1.524 . S
C1538 C1537 1.524 . S
C1538 C1539 1.397 . S
C1538 C1543 1.363 . S
C1539 H1510 0.950 . S
C1539 C1538 1.397 . S
C1539 C1540 1.334 . S
C1540 H1511 0.950 . S
C1540 C1539 1.334 . S
C1540 C1541 1.287 . S
C1541 C1540 1.287 . S
C1541 C1542 1.524 . S
C1541 H1544 0.999 . S
C1542 H1512 0.950 . S
C1542 C1541 1.524 . S
C1542 C1543 1.415 . S
C1543 H1513 0.950 . S
C1543 C1538 1.363 . S
C1543 C1542 1.415 . S
H1544 C1541 0.999 . S
H1545 C1526 0.913 . S
H1546 C1564 0.951 . S
H1547 C1566 0.951 . S
H1548 C1568 0.950 . S
H1549 C1569 0.950 . S
H1550 C1571 0.950 . S
H1551 C1574 0.950 . S
H1552 C1575 0.950 . S
H1553 C1577 0.950 . S
H1554 C1578 0.950 . S
H1555 C1579 0.951 . S
H1556 C1581 0.951 . S
H1557 C1583 0.950 . S
H1558 C1584 0.950 . S
H1559 C1586 0.950 . S
H1560 C1589 0.950 . S
H1561 C1590 0.950 . S
H1562 C1592 0.950 . S
H1563 C1593 0.950 . S
C1564 H1546 0.951 . S
C1564 C1565 1.366 . S
C1564 C1566 1.388 . S
C1565 C1564 1.366 . S
C1565 C1569 1.385 . S
C1566 H1547 0.951 . S
C1566 C1564 1.388 . S
C1566 C1567 1.366 . S
C1567 C1566 1.366 . S
C1567 C1568 1.414 . S
C1567 C1570 1.499 . S
C1568 H1548 0.950 . S
C1568 C1567 1.414 . S
C1568 C1569 1.374 . S
C1569 H1549 0.950 . S
C1569 C1565 1.385 . S
C1569 C1568 1.374 . S
C1570 C1567 1.499 . S
C1570 C1571 1.373 . S
C1570 C1572 1.389 . S
C1571 H1550 0.950 . S
C1571 C1570 1.373 . S
C1571 C1587 1.377 . S
C1572 C1570 1.389 . S
C1572 C1573 1.524 . S
C1572 C1586 1.377 . S
C1573 C1572 1.524 . S
C1573 C1574 1.397 . S
C1573 C1578 1.363 . S
C1574 H1551 0.950 . S
C1574 C1573 1.397 . S
C1574 C1575 1.334 . S
C1575 H1552 0.950 . S
C1575 C1574 1.334 . S
C1575 C1576 1.287 . S
C1576 C1575 1.287 . S
C1576 C1577 1.524 . S
C1576 H1595 0.913 . S
C1577 H1553 0.950 . S
C1577 C1576 1.524 . S
C1577 C1578 1.415 . S
C1578 H1554 0.950 . S
C1578 C1573 1.363 . S
C1578 C1577 1.415 . S
C1579 H1555 0.951 . S
C1579 C1580 1.366 . S
C1579 C1581 1.388 . S
C1580 C1579 1.366 . S
C1580 C1584 1.385 . S
C1581 H1556 0.951 . S
C1581 C1579 1.388 . S
C1581 C1582 1.366 . S
C1582 C1581 1.366 . S
C1582 C1583 1.414 . S
C1582 C1585 1.499 . S
C1583 H1557 0.950 . S
C1583 C1582 1.414 . S
C1583 C1584 1.374 . S
C1584 H1558 0.950 . S
C1584 C1580 1.385 . S
C1584 C1583 1.374 . S
C1585 C1582 1.499 . S
C1585 C1586 1.373 . S
C1585 C1587 1.389 . S
C1586 H1559 0.950 . S
C1586 C1572 1.377 . S
C1586 C1585 1.373 . S
C1587 C1571 1.377 . S
C1587 C1585 1.389 . S
C1587 C1588 1.524 . S
C1588 C1587 1.524 . S
C1588 C1589 1.397 . S
C1588 C1593 1.363 . S
C1589 H1560 0.950 . S
C1589 C1588 1.397 . S
C1589 C1590 1.334 . S
C1590 H1561 0.950 . S
C1590 C1589 1.334 . S
C1590 C1591 1.287 . S
C1591 C1590 1.287 . S
C1591 C1592 1.524 . S
C1591 H1594 0.999 . S
C1592 H1562 0.950 . S
C1592 C1591 1.524 . S
C1592 C1593 1.415 . S
C1593 H1563 0.950 . S
C1593 C1588 1.363 . S
C1593 C1592 1.415 . S
H1594 C1591 0.999 . S
H1595 C1576 0.913 . S
H1596 C1614 0.951 . S
H1597 C1616 0.951 . S
H1598 C1618 0.950 . S
H1599 C1619 0.950 . S
H1600 C1621 0.950 . S
H1601 C1624 0.950 . S
H1602 C1625 0.950 . S
H1603 C1627 0.950 . S
H1604 C1628 0.950 . S
H1605 C1629 0.951 . S
H1606 C1631 0.951 . S
H1607 C1633 0.950 . S
H1608 C1634 0.950 . S
H1609 C1636 0.950 . S
H1610 C1639 0.950 . S
H1611 C1640 0.950 . S
H1612 C1642 0.950 . S
H1613 C1643 0.950 . S
C1614 H1596 0.951 . S
C1614 C1615 1.366 . S
C1614 C1616 1.388 . S
C1615 C1614 1.366 . S
C1615 C1619 1.385 . S
C1616 H1597 0.951 . S
C1616 C1614 1.388 . S
C1616 C1617 1.366 . S
C1617 C1616 1.366 . S
C1617 C1618 1.414 . S
C1617 C1620 1.499 . S
C1618 H1598 0.950 . S
C1618 C1617 1.414 . S
C1618 C1619 1.374 . S
C1619 H1599 0.950 . S
C1619 C1615 1.385 . S
C1619 C1618 1.374 . S
C1620 C1617 1.499 . S
C1620 C1621 1.373 . S
C1620 C1622 1.389 . S
C1621 H1600 0.950 . S
C1621 C1620 1.373 . S
C1621 C1637 1.377 . S
C1622 C1620 1.389 . S
C1622 C1623 1.524 . S
C1622 C1636 1.377 . S
C1623 C1622 1.524 . S
C1623 C1624 1.397 . S
C1623 C1628 1.363 . S
C1624 H1601 0.950 . S
C1624 C1623 1.397 . S
C1624 C1625 1.334 . S
C1625 H1602 0.950 . S
C1625 C1624 1.334 . S
C1625 C1626 1.287 . S
C1626 C1625 1.287 . S
C1626 C1627 1.524 . S
C1626 H1645 0.913 . S
C1627 H1603 0.950 . S
C1627 C1626 1.524 . S
C1627 C1628 1.415 . S
C1628 H1604 0.950 . S
C1628 C1623 1.363 . S
C1628 C1627 1.415 . S
C1629 H1605 0.951 . S
C1629 C1630 1.366 . S
C1629 C1631 1.388 . S
C1630 C1629 1.366 . S
C1630 C1634 1.385 . S
C1631 H1606 0.951 . S
C1631 C1629 1.388 . S
C1631 C1632 1.366 . S
C1632 C1631 1.366 . S
C1632 C1633 1.414 . S
C1632 C1635 1.499 . S
C1633 H1607 0.950 . S
C1633 C1632 1.414 . S
C1633 C1634 1.374 . S
C1634 H1608 0.950 . S
C1634 C1630 1.385 . S
C1634 C1633 1.374 . S
C1635 C1632 1.499 . S
C1635 C1636 1.373 . S
C1635 C1637 1.389 . S
C1636 H1609 0.950 . S
C1636 C1622 1.377 . S
C1636 C1635 1.373 . S
C1637 C1621 1.377 . S
C1637 C1635 1.389 . S
C1637 C1638 1.524 . S
C1638 C1637 1.524 . S
C1638 C1639 1.397 . S
C1638 C1643 1.363 . S
C1639 H1610 0.950 . S
C1639 C1638 1.397 . S
C1639 C1640 1.334 . S
C1640 H1611 0.950 . S
C1640 C1639 1.334 . S
C1640 C1641 1.287 . S
C1641 C1640 1.287 . S
C1641 C1642 1.524 . S
C1641 H1644 0.999 . S
C1642 H1612 0.950 . S
C1642 C1641 1.524 . S
C1642 C1643 1.415 . S
C1643 H1613 0.950 . S
C1643 C1638 1.363 . S
C1643 C1642 1.415 . S
H1644 C1641 0.999 . S
H1645 C1626 0.913 . S
H1646 C1664 0.951 . S
H1647 C1666 0.951 . S
H1648 C1668 0.950 . S
H1649 C1669 0.950 . S
H1650 C1671 0.950 . S
H1651 C1674 0.950 . S
H1652 C1675 0.950 . S
H1653 C1677 0.950 . S
H1654 C1678 0.950 . S
H1655 C1679 0.951 . S
H1656 C1681 0.951 . S
H1657 C1683 0.950 . S
H1658 C1684 0.950 . S
H1659 C1686 0.950 . S
H1660 C1689 0.950 . S
H1661 C1690 0.950 . S
H1662 C1692 0.950 . S
H1663 C1693 0.950 . S
C1664 H1646 0.951 . S
C1664 C1665 1.366 1_554 S
C1664 C1666 1.388 . S
C1665 C1664 1.366 1_556 S
C1665 C1669 1.385 . S
C1666 H1647 0.951 . S
C1666 C1664 1.388 . S
C1666 C1667 1.366 . S
C1667 C1666 1.366 . S
C1667 C1668 1.414 1_554 S
C1667 C1670 1.499 . S
C1668 H1648 0.950 . S
C1668 C1667 1.414 1_556 S
C1668 C1669 1.374 . S
C1669 H1649 0.950 . S
C1669 C1665 1.385 . S
C1669 C1668 1.374 . S
C1670 C1667 1.499 . S
C1670 C1671 1.373 . S
C1670 C1672 1.389 . S
C1671 H1650 0.950 . S
C1671 C1670 1.373 . S
C1671 C1687 1.377 . S
C1672 C1670 1.389 . S
C1672 C1673 1.524 . S
C1672 C1686 1.377 . S
C1673 C1672 1.524 . S
C1673 C1674 1.397 1_554 S
C1673 C1678 1.363 . S
C1674 H1651 0.950 . S
C1674 C1673 1.397 1_556 S
C1674 C1675 1.334 . S
C1675 H1652 0.950 . S
C1675 C1674 1.334 . S
C1675 C1676 1.271 1_556 S
C1676 C1675 1.271 1_554 S
C1676 C1677 1.547 . S
C1676 H1695 0.907 1_554 S
C1677 H1653 0.950 . S
C1677 C1676 1.547 . S
C1677 C1678 1.415 . S
C1678 H1654 0.950 . S
C1678 C1673 1.363 . S
C1678 C1677 1.415 . S
C1679 H1655 0.951 . S
C1679 C1680 1.366 . S
C1679 C1681 1.388 . S
C1680 C1679 1.366 . S
C1680 C1684 1.385 . S
C1681 H1656 0.951 . S
C1681 C1679 1.388 . S
C1681 C1682 1.366 . S
C1682 C1681 1.366 . S
C1682 C1683 1.414 . S
C1682 C1685 1.499 . S
C1683 H1657 0.950 . S
C1683 C1682 1.414 . S
C1683 C1684 1.374 . S
C1684 H1658 0.950 . S
C1684 C1680 1.385 . S
C1684 C1683 1.374 . S
C1685 C1682 1.499 . S
C1685 C1686 1.373 . S
C1685 C1687 1.389 . S
C1686 H1659 0.950 . S
C1686 C1672 1.377 . S
C1686 C1685 1.373 . S
C1687 C1671 1.377 . S
C1687 C1685 1.389 . S
C1687 C1688 1.524 . S
C1688 C1687 1.524 . S
C1688 C1689 1.397 . S
C1688 C1693 1.363 . S
C1689 H1660 0.950 . S
C1689 C1688 1.397 . S
C1689 C1690 1.334 . S
C1690 H1661 0.950 . S
C1690 C1689 1.334 . S
C1690 C1691 1.287 . S
C1691 C1690 1.287 . S
C1691 C1692 1.524 . S
C1691 H1694 0.999 . S
C1692 H1662 0.950 . S
C1692 C1691 1.524 . S
C1692 C1693 1.415 . S
C1693 H1663 0.950 . S
C1693 C1688 1.363 . S
C1693 C1692 1.415 . S
H1694 C1691 0.999 . S
H1695 C1676 0.907 1_556 S
H1696 C1714 0.951 . S
H1697 C1716 0.951 . S
H1698 C1718 0.950 . S
H1699 C1719 0.950 . S
H1700 C1721 0.950 . S
H1701 C1724 0.950 . S
H1702 C1725 0.950 . S
H1703 C1727 0.950 . S
H1704 C1728 0.950 . S
H1705 C1729 0.951 . S
H1706 C1731 0.951 . S
H1707 C1733 0.950 . S
H1708 C1734 0.950 . S
H1709 C1736 0.950 . S
H1710 C1739 0.950 . S
H1711 C1740 0.950 . S
H1712 C1742 0.950 . S
H1713 C1743 0.950 . S
C1714 H1696 0.951 . S
C1714 C1715 1.366 . S
C1714 C1716 1.388 . S
C1715 C1714 1.366 . S
C1715 C1719 1.385 . S
C1716 H1697 0.951 . S
C1716 C1714 1.388 . S
C1716 C1717 1.366 . S
C1717 C1716 1.366 . S
C1717 C1718 1.414 . S
C1717 C1720 1.499 . S
C1718 H1698 0.950 . S
C1718 C1717 1.414 . S
C1718 C1719 1.374 . S
C1719 H1699 0.950 . S
C1719 C1715 1.385 . S
C1719 C1718 1.374 . S
C1720 C1717 1.499 . S
C1720 C1721 1.373 . S
C1720 C1722 1.389 . S
C1721 H1700 0.950 . S
C1721 C1720 1.373 . S
C1721 C1737 1.377 . S
C1722 C1720 1.389 . S
C1722 C1723 1.524 . S
C1722 C1736 1.377 . S
C1723 C1722 1.524 . S
C1723 C1724 1.397 . S
C1723 C1728 1.363 . S
C1724 H1701 0.950 . S
C1724 C1723 1.397 . S
C1724 C1725 1.334 . S
C1725 H1702 0.950 . S
C1725 C1724 1.334 . S
C1725 C1726 1.287 . S
C1726 C1725 1.287 . S
C1726 C1727 1.524 . S
C1726 H1745 0.913 . S
C1727 H1703 0.950 . S
C1727 C1726 1.524 . S
C1727 C1728 1.415 . S
C1728 H1704 0.950 . S
C1728 C1723 1.363 . S
C1728 C1727 1.415 . S
C1729 H1705 0.951 . S
C1729 C1730 1.366 . S
C1729 C1731 1.388 . S
C1730 C1729 1.366 . S
C1730 C1734 1.385 . S
C1731 H1706 0.951 . S
C1731 C1729 1.388 . S
C1731 C1732 1.366 . S
C1732 C1731 1.366 . S
C1732 C1733 1.414 . S
C1732 C1735 1.499 . S
C1733 H1707 0.950 . S
C1733 C1732 1.414 . S
C1733 C1734 1.374 . S
C1734 H1708 0.950 . S
C1734 C1730 1.385 . S
C1734 C1733 1.374 . S
C1735 C1732 1.499 . S
C1735 C1736 1.373 . S
C1735 C1737 1.389 . S
C1736 H1709 0.950 . S
C1736 C1722 1.377 . S
C1736 C1735 1.373 . S
C1737 C1721 1.377 . S
C1737 C1735 1.389 . S
C1737 C1738 1.524 . S
C1738 C1737 1.524 . S
C1738 C1739 1.397 . S
C1738 C1743 1.363 . S
C1739 H1710 0.950 . S
C1739 C1738 1.397 . S
C1739 C1740 1.334 . S
C1740 H1711 0.950 . S
C1740 C1739 1.334 . S
C1740 C1741 1.287 . S
C1741 C1740 1.287 . S
C1741 C1742 1.524 . S
C1741 H1744 0.999 . S
C1742 H1712 0.950 . S
C1742 C1741 1.524 . S
C1742 C1743 1.415 . S
C1743 H1713 0.950 . S
C1743 C1738 1.363 . S
C1743 C1742 1.415 . S
H1744 C1741 0.999 . S
H1745 C1726 0.913 . S
H1746 C1764 0.951 . S
H1747 C1766 0.951 . S
H1748 C1768 0.950 . S
H1749 C1769 0.950 . S
H1750 C1771 0.950 . S
H1751 C1774 0.950 . S
H1752 C1775 0.950 . S
H1753 C1777 0.950 . S
H1754 C1778 0.950 . S
H1755 C1779 0.951 . S
H1756 C1781 0.951 . S
H1757 C1783 0.950 . S
H1758 C1784 0.950 . S
H1759 C1786 0.950 . S
H1760 C1789 0.950 . S
H1761 C1790 0.950 . S
H1762 C1792 0.950 . S
H1763 C1793 0.950 . S
C1764 H1746 0.951 . S
C1764 C1765 1.366 . S
C1764 C1766 1.388 . S
C1765 C1764 1.366 . S
C1765 C1769 1.385 . S
C1766 H1747 0.951 . S
C1766 C1764 1.388 . S
C1766 C1767 1.366 . S
C1767 C1766 1.366 . S
C1767 C1768 1.414 . S
C1767 C1770 1.499 . S
C1768 H1748 0.950 . S
C1768 C1767 1.414 . S
C1768 C1769 1.374 . S
C1769 H1749 0.950 . S
C1769 C1765 1.385 . S
C1769 C1768 1.374 . S
C1770 C1767 1.499 . S
C1770 C1771 1.373 . S
C1770 C1772 1.389 . S
C1771 H1750 0.950 . S
C1771 C1770 1.373 . S
C1771 C1787 1.377 . S
C1772 C1770 1.389 . S
C1772 C1773 1.524 . S
C1772 C1786 1.377 . S
C1773 C1772 1.524 . S
C1773 C1774 1.397 . S
C1773 C1778 1.363 . S
C1774 H1751 0.950 . S
C1774 C1773 1.397 . S
C1774 C1775 1.334 . S
C1775 H1752 0.950 . S
C1775 C1774 1.334 . S
C1775 C1776 1.287 . S
C1776 C1775 1.287 . S
C1776 C1777 1.524 . S
C1776 H1795 0.913 . S
C1777 H1753 0.950 . S
C1777 C1776 1.524 . S
C1777 C1778 1.415 . S
C1778 H1754 0.950 . S
C1778 C1773 1.363 . S
C1778 C1777 1.415 . S
C1779 H1755 0.951 . S
C1779 C1780 1.366 . S
C1779 C1781 1.388 . S
C1780 C1779 1.366 . S
C1780 C1784 1.385 . S
C1781 H1756 0.951 . S
C1781 C1779 1.388 . S
C1781 C1782 1.366 . S
C1782 C1781 1.366 . S
C1782 C1783 1.414 . S
C1782 C1785 1.499 . S
C1783 H1757 0.950 . S
C1783 C1782 1.414 . S
C1783 C1784 1.374 . S
C1784 H1758 0.950 . S
C1784 C1780 1.385 . S
C1784 C1783 1.374 . S
C1785 C1782 1.499 . S
C1785 C1786 1.373 . S
C1785 C1787 1.389 . S
C1786 H1759 0.950 . S
C1786 C1772 1.377 . S
C1786 C1785 1.373 . S
C1787 C1771 1.377 . S
C1787 C1785 1.389 . S
C1787 C1788 1.524 . S
C1788 C1787 1.524 . S
C1788 C1789 1.397 . S
C1788 C1793 1.363 . S
C1789 H1760 0.950 . S
C1789 C1788 1.397 . S
C1789 C1790 1.334 . S
C1790 H1761 0.950 . S
C1790 C1789 1.334 . S
C1790 C1791 1.287 . S
C1791 C1790 1.287 . S
C1791 C1792 1.524 . S
C1791 H1794 0.999 . S
C1792 H1762 0.950 . S
C1792 C1791 1.524 . S
C1792 C1793 1.415 . S
C1793 H1763 0.950 . S
C1793 C1788 1.363 . S
C1793 C1792 1.415 . S
H1794 C1791 0.999 . S
H1795 C1776 0.913 . S
H1796 C1814 0.951 . S
H1797 C1816 0.951 . S
H1798 C1818 0.950 . S
H1799 C1819 0.950 . S
H1800 C1821 0.950 . S
H1801 C1824 0.950 . S
H1802 C1825 0.950 . S
H1803 C1827 0.950 . S
H1804 C1828 0.950 . S
H1805 C1829 0.951 . S
H1806 C1831 0.951 . S
H1807 C1833 0.950 . S
H1808 C1834 0.950 . S
H1809 C1836 0.950 . S
H1810 C1839 0.950 . S
H1811 C1840 0.950 . S
H1812 C1842 0.950 . S
H1813 C1843 0.950 . S
C1814 H1796 0.951 . S
C1814 C1815 1.366 . S
C1814 C1816 1.388 . S
C1815 C1814 1.366 . S
C1815 C1819 1.385 . S
C1816 H1797 0.951 . S
C1816 C1814 1.388 . S
C1816 C1817 1.366 . S
C1817 C1816 1.366 . S
C1817 C1818 1.414 . S
C1817 C1820 1.499 . S
C1818 H1798 0.950 . S
C1818 C1817 1.414 . S
C1818 C1819 1.374 . S
C1819 H1799 0.950 . S
C1819 C1815 1.385 . S
C1819 C1818 1.374 . S
C1820 C1817 1.499 . S
C1820 C1821 1.373 . S
C1820 C1822 1.389 . S
C1821 H1800 0.950 . S
C1821 C1820 1.373 . S
C1821 C1837 1.377 . S
C1822 C1820 1.389 . S
C1822 C1823 1.524 . S
C1822 C1836 1.377 . S
C1823 C1822 1.524 . S
C1823 C1824 1.397 . S
C1823 C1828 1.363 . S
C1824 H1801 0.950 . S
C1824 C1823 1.397 . S
C1824 C1825 1.334 . S
C1825 H1802 0.950 . S
C1825 C1824 1.334 . S
C1825 C1826 1.287 . S
C1826 C1825 1.287 . S
C1826 C1827 1.524 . S
C1826 H1845 0.913 . S
C1827 H1803 0.950 . S
C1827 C1826 1.524 . S
C1827 C1828 1.415 . S
C1828 H1804 0.950 . S
C1828 C1823 1.363 . S
C1828 C1827 1.415 . S
C1829 H1805 0.951 . S
C1829 C1830 1.366 . S
C1829 C1831 1.388 . S
C1830 C1829 1.366 . S
C1830 C1834 1.385 . S
C1831 H1806 0.951 . S
C1831 C1829 1.388 . S
C1831 C1832 1.366 . S
C1832 C1831 1.366 . S
C1832 C1833 1.414 . S
C1832 C1835 1.499 . S
C1833 H1807 0.950 . S
C1833 C1832 1.414 . S
C1833 C1834 1.374 . S
C1834 H1808 0.950 . S
C1834 C1830 1.385 . S
C1834 C1833 1.374 . S
C1835 C1832 1.499 . S
C1835 C1836 1.373 . S
C1835 C1837 1.389 . S
C1836 H1809 0.950 . S
C1836 C1822 1.377 . S
C1836 C1835 1.373 . S
C1837 C1821 1.377 . S
C1837 C1835 1.389 . S
C1837 C1838 1.524 . S
C1838 C1837 1.524 . S
C1838 C1839 1.397 . S
C1838 C1843 1.363 . S
C1839 H1810 0.950 . S
C1839 C1838 1.397 . S
C1839 C1840 1.334 . S
C1840 H1811 0.950 . S
C1840 C1839 1.334 . S
C1840 C1841 1.287 . S
C1841 C1840 1.287 . S
C1841 C1842 1.524 . S
C1841 H1844 0.999 . S
C1842 H1812 0.950 . S
C1842 C1841 1.524 . S
C1842 C1843 1.415 . S
C1843 H1813 0.950 . S
C1843 C1838 1.363 . S
C1843 C1842 1.415 . S
H1844 C1841 0.999 . S
H1845 C1826 0.913 . S
H1846 C1864 0.951 . S
H1847 C1866 0.951 . S
H1848 C1868 0.950 . S
H1849 C1869 0.950 . S
H1850 C1871 0.950 . S
H1851 C1874 0.950 . S
H1852 C1875 0.950 . S
H1853 C1877 0.950 . S
H1854 C1878 0.950 . S
H1855 C1879 0.951 . S
H1856 C1881 0.951 . S
H1857 C1883 0.950 . S
H1858 C1884 0.913 1_565 S
H1859 C1886 0.950 . S
H1860 C1889 0.950 . S
H1861 C1890 0.950 . S
H1862 C1892 0.950 . S
H1863 C1893 0.950 . S
C1864 H1846 0.951 . S
C1864 C1865 1.366 . S
C1864 C1866 1.388 . S
C1865 C1864 1.366 . S
C1865 C1869 1.385 . S
C1866 H1847 0.951 . S
C1866 C1864 1.388 . S
C1866 C1867 1.366 . S
C1867 C1866 1.366 . S
C1867 C1868 1.414 . S
C1867 C1870 1.499 . S
C1868 H1848 0.950 . S
C1868 C1867 1.414 . S
C1868 C1869 1.374 . S
C1869 H1849 0.950 . S
C1869 C1865 1.385 . S
C1869 C1868 1.374 . S
C1870 C1867 1.499 . S
C1870 C1871 1.373 . S
C1870 C1872 1.389 . S
C1871 H1850 0.950 . S
C1871 C1870 1.373 . S
C1871 C1887 1.377 . S
C1872 C1870 1.389 . S
C1872 C1873 1.524 . S
C1872 C1886 1.377 . S
C1873 C1872 1.524 . S
C1873 C1874 1.397 . S
C1873 C1878 1.363 . S
C1874 H1851 0.950 . S
C1874 C1873 1.397 . S
C1874 C1875 1.334 . S
C1875 H1852 0.950 . S
C1875 C1874 1.334 . S
C1875 C1876 1.287 . S
C1876 C1875 1.287 . S
C1876 C1877 1.524 . S
C1876 H1895 0.913 . S
C1877 H1853 0.950 . S
C1877 C1876 1.524 . S
C1877 C1878 1.415 . S
C1878 H1854 0.950 . S
C1878 C1873 1.363 . S
C1878 C1877 1.415 . S
C1879 H1855 0.951 . S
C1879 C1880 1.366 . S
C1879 C1881 1.388 . S
C1880 C1879 1.366 . S
C1880 C1884 1.385 . S
C1881 H1856 0.951 . S
C1881 C1879 1.388 . S
C1881 C1882 1.366 . S
C1882 C1881 1.366 . S
C1882 C1883 1.414 . S
C1882 C1885 1.499 . S
C1883 H1857 0.950 . S
C1883 C1882 1.414 . S
C1883 C1884 1.374 . S
C1884 H1858 0.913 1_545 S
C1884 C1880 1.385 . S
C1884 C1883 1.374 . S
C1885 C1882 1.499 . S
C1885 C1886 1.373 . S
C1885 C1887 1.389 . S
C1886 H1859 0.950 . S
C1886 C1872 1.377 . S
C1886 C1885 1.373 . S
C1887 C1871 1.377 . S
C1887 C1885 1.389 . S
C1887 C1888 1.524 . S
C1888 C1887 1.524 . S
C1888 C1889 1.397 . S
C1888 C1893 1.363 . S
C1889 H1860 0.950 . S
C1889 C1888 1.397 . S
C1889 C1890 1.334 . S
C1890 H1861 0.950 . S
C1890 C1889 1.334 . S
C1890 C1891 1.287 . S
C1891 C1890 1.287 . S
C1891 C1892 1.524 . S
C1891 H1894 0.999 . S
C1892 H1862 0.950 . S
C1892 C1891 1.524 . S
C1892 C1893 1.415 . S
C1893 H1863 0.950 . S
C1893 C1888 1.363 . S
C1893 C1892 1.415 . S
H1894 C1891 0.999 . S
H1895 C1876 0.913 . S
C415 N343 1.004 . S
C430 N13 1.004 . S
C465 N46 1.004 . S
C480 N376 1.004 . S
C515 N79 1.004 . S
C530 N211 1.004 . S
C565 N112 1.003 . S
C580 N244 1.003 . S
C615 N145 1.004 . S
C630 N277 1.004 . S
C665 N178 1.004 . S
C680 N310 1.003 . S
C715 C21 1.422 . S
C730 C285 1.422 . S
C765 C318 1.422 . S
C780 C54 1.422 . S
C815 C87 1.422 . S
C830 C351 1.422 . S
C865 C120 1.422 . S
C880 C384 1.422 . S
C915 C153 1.422 . S
C930 C219 1.422 . S
C965 C186 1.422 . S
C980 C252 1.422 . S
C1015 N365 1.159 . S
C1030 N2 1.160 . S
C1065 N200 1.161 . S
C1080 N35 1.161 . S
C1115 N233 1.161 . S
C1130 N68 1.161 . S
C1165 N101 1.160 . S
C1180 N266 1.161 . S
C1215 N134 1.160 . S
C1230 N299 1.161 . S
C1265 N332 1.159 . S
C1280 N167 1.160 . S
C1315 C172 1.994 . S
C1330 C18 2.004 . S
C1365 C7 1.995 1_655 S
C1380 C51 2.004 . S
C1415 C84 2.004 . S
C1430 C40 1.994 1_565 S
C1465 C73 1.994 . S
C1480 C117 2.003 . S
C1515 C150 2.004 . S
C1530 C106 1.994 1_455 S
C1565 C183 2.004 . S
C1580 C139 1.995 1_545 S
C1615 C238 1.994 . S
C1630 C216 2.004 . S
C1665 C249 2.004 . S
C1680 C271 1.994 1_655 S
C1715 C282 2.004 . S
C1730 C304 1.995 1_565 S
C1765 C337 1.994 . S
C1780 C315 2.004 . S
C1815 C370 1.994 1_455 S
C1830 C348 2.004 . S
C1865 C381 2.004 . S
C1880 C205 1.995 1_545 S
