# Generated by pormake.
# Topology uos, (4)-cn, num edge types: 1
# Building blocks:
#     Node 0, Type 0, BuildingBlock: CEKHIL_clean_sbu_0, # of connection points: 4
#     Node 1, Type 0, BuildingBlock: CEKHIL_clean_sbu_0, # of connection points: 4
#     Node 2, Type 0, BuildingBlock: CEKHIL_clean_sbu_0, # of connection points: 4
#     Node 3, Type 0, BuildingBlock: CEKHIL_clean_sbu_0, # of connection points: 4
#     Node 4, Type 0, BuildingBlock: CEKHIL_clean_sbu_0, # of connection points: 4
#     Node 5, Type 0, BuildingBlock: CEKHIL_clean_sbu_0, # of connection points: 4
#     Node 6, Type 0, BuildingBlock: CEKHIL_clean_sbu_0, # of connection points: 4
#     Node 7, Type 0, BuildingBlock: CEKHIL_clean_sbu_0, # of connection points: 4
#     Node 8, Type 0, BuildingBlock: CEKHIL_clean_sbu_0, # of connection points: 4
#     Node 9, Type 0, BuildingBlock: CEKHIL_clean_sbu_0, # of connection points: 4
#     Node 10, Type 0, BuildingBlock: CEKHIL_clean_sbu_0, # of connection points: 4
#     Node 11, Type 0, BuildingBlock: CEKHIL_clean_sbu_0, # of connection points: 4
#     Node 12, Type 0, BuildingBlock: CEKHIL_clean_sbu_0, # of connection points: 4
#     Node 13, Type 0, BuildingBlock: CEKHIL_clean_sbu_0, # of connection points: 4
#     Node 14, Type 0, BuildingBlock: CEKHIL_clean_sbu_0, # of connection points: 4
#     Node 15, Type 0, BuildingBlock: CEKHIL_clean_sbu_0, # of connection points: 4
#     Node 16, Type 0, BuildingBlock: CEKHIL_clean_sbu_0, # of connection points: 4
#     Node 17, Type 0, BuildingBlock: CEKHIL_clean_sbu_0, # of connection points: 4
#     Node 18, Type 0, BuildingBlock: CEKHIL_clean_sbu_0, # of connection points: 4
#     Node 19, Type 0, BuildingBlock: CEKHIL_clean_sbu_0, # of connection points: 4
#     Node 20, Type 0, BuildingBlock: CEKHIL_clean_sbu_0, # of connection points: 4
#     Node 21, Type 0, BuildingBlock: CEKHIL_clean_sbu_0, # of connection points: 4
#     Node 22, Type 0, BuildingBlock: CEKHIL_clean_sbu_0, # of connection points: 4
#     Node 23, Type 0, BuildingBlock: CEKHIL_clean_sbu_0, # of connection points: 4
#     Node 24, Type 0, BuildingBlock: CEKHIL_clean_sbu_0, # of connection points: 4
#     Node 25, Type 0, BuildingBlock: CEKHIL_clean_sbu_0, # of connection points: 4
#     Node 26, Type 0, BuildingBlock: CEKHIL_clean_sbu_0, # of connection points: 4
#     Node 27, Type 0, BuildingBlock: CEKHIL_clean_sbu_0, # of connection points: 4
#     Node 28, Type 0, BuildingBlock: CEKHIL_clean_sbu_0, # of connection points: 4
#     Node 29, Type 0, BuildingBlock: CEKHIL_clean_sbu_0, # of connection points: 4
#     Node 30, Type 0, BuildingBlock: CEKHIL_clean_sbu_0, # of connection points: 4
#     Node 31, Type 0, BuildingBlock: CEKHIL_clean_sbu_0, # of connection points: 4
#     Edge 32, Type (0, 0), None
#     Edge 33, Type (0, 0), None
#     Edge 34, Type (0, 0), None
#     Edge 35, Type (0, 0), None
#     Edge 36, Type (0, 0), None
#     Edge 37, Type (0, 0), None
#     Edge 38, Type (0, 0), None
#     Edge 39, Type (0, 0), None
#     Edge 40, Type (0, 0), None
#     Edge 41, Type (0, 0), None
#     Edge 42, Type (0, 0), None
#     Edge 43, Type (0, 0), None
#     Edge 44, Type (0, 0), None
#     Edge 45, Type (0, 0), None
#     Edge 46, Type (0, 0), None
#     Edge 47, Type (0, 0), None
#     Edge 48, Type (0, 0), None
#     Edge 49, Type (0, 0), None
#     Edge 50, Type (0, 0), None
#     Edge 51, Type (0, 0), None
#     Edge 52, Type (0, 0), None
#     Edge 53, Type (0, 0), None
#     Edge 54, Type (0, 0), None
#     Edge 55, Type (0, 0), None
#     Edge 56, Type (0, 0), None
#     Edge 57, Type (0, 0), None
#     Edge 58, Type (0, 0), None
#     Edge 59, Type (0, 0), None
#     Edge 60, Type (0, 0), None
#     Edge 61, Type (0, 0), None
#     Edge 62, Type (0, 0), None
#     Edge 63, Type (0, 0), None
#     Edge 64, Type (0, 0), None
#     Edge 65, Type (0, 0), None
#     Edge 66, Type (0, 0), None
#     Edge 67, Type (0, 0), None
#     Edge 68, Type (0, 0), None
#     Edge 69, Type (0, 0), None
#     Edge 70, Type (0, 0), None
#     Edge 71, Type (0, 0), None
#     Edge 72, Type (0, 0), None
#     Edge 73, Type (0, 0), None
#     Edge 74, Type (0, 0), None
#     Edge 75, Type (0, 0), None
#     Edge 76, Type (0, 0), None
#     Edge 77, Type (0, 0), None
#     Edge 78, Type (0, 0), None
#     Edge 79, Type (0, 0), None
#     Edge 80, Type (0, 0), None
#     Edge 81, Type (0, 0), None
#     Edge 82, Type (0, 0), None
#     Edge 83, Type (0, 0), None
#     Edge 84, Type (0, 0), None
#     Edge 85, Type (0, 0), None
#     Edge 86, Type (0, 0), None
#     Edge 87, Type (0, 0), None
#     Edge 88, Type (0, 0), None
#     Edge 89, Type (0, 0), None
#     Edge 90, Type (0, 0), None
#     Edge 91, Type (0, 0), None
#     Edge 92, Type (0, 0), None
#     Edge 93, Type (0, 0), None
#     Edge 94, Type (0, 0), None
#     Edge 95, Type (0, 0), None
# Relax obj value: 0.044
# Max RMSD: 0.077
# Mean RMSD: 0.077
data_MOF--net-uos--node1-CEKHIL_clean_sbu_0--edge1-none
_symmetry_space_group_name_H-M    P1
_symmetry_Int_Tables_number       1
_symmetry_cell_setting            triclinic
loop_
_symmetry_equiv_pos_as_xyz
'x, y, z'
_cell_length_a     37.537217
_cell_length_b     37.537217
_cell_length_c     10.049791
_cell_angle_alpha  90.004186
_cell_angle_beta   90.004169
_cell_angle_gamma 90.000007
loop_
_atom_site_label
_atom_site_type_symbol
_atom_site_fract_x
_atom_site_fract_y
_atom_site_fract_z
_atom_type_partial_charge
Co0 Co 0.17002 0.1794 0.10676 0.0
O1 O 0.12558 0.17361 1.01115 0.0
O2 O 0.17323 0.14016 0.97943 0.0
C3 C 0.17197 0.23927 0.09112 0.0
O4 O 0.22123 0.17898 0.18019 0.0
Co5 Co 0.17407 0.22187 0.37407 0.0
O6 O 0.22571 0.21379 0.36263 0.0
C7 C 0.1418 0.15076 0.36872 0.0
C8 C 0.14032 0.14727 0.94846 0.0
C9 C 0.23934 0.19341 0.27547 0.0
O10 O 0.15224 0.14576 0.24821 0.0
O11 O 0.14579 0.1799 0.43246 0.0
O12 O 0.18288 0.21985 0.99188 0.0
O13 O 0.15823 0.22227 0.18983 0.0
Co14 Co 0.08813 0.92002 0.35676 0.0
O15 O 0.09393 0.87558 0.26116 0.0
O16 O 0.12737 0.92323 0.22944 0.0
C17 C 0.02826 0.92197 0.34111 0.0
O18 O 0.08855 0.97123 0.43019 0.0
Co19 Co 0.04567 0.92407 0.62406 0.0
O20 O 0.05375 0.97572 0.61261 0.0
C21 C 0.11677 0.8918 0.61874 0.0
C22 C 0.12026 0.89032 0.19847 0.0
C23 C 0.07412 0.98934 0.52545 0.0
O24 O 0.12177 0.90224 0.49823 0.0
O25 O 0.08764 0.89579 0.68245 0.0
O26 O 0.04768 0.93288 0.24187 0.0
O27 O 0.04526 0.90823 0.43982 0.0
Co28 Co 0.34749 0.83813 0.60673 0.0
O29 O 0.39194 0.84392 0.51114 0.0
O30 O 0.34429 0.87736 0.47941 0.0
C31 C 0.34555 0.77826 0.59108 0.0
O32 O 0.29629 0.83854 0.68015 0.0
Co33 Co 0.34345 0.79566 0.87403 0.0
O34 O 0.29181 0.80375 0.86261 0.0
C35 C 0.37571 0.86677 0.86872 0.0
C36 C 0.37719 0.87026 0.44845 0.0
C37 C 0.27819 0.82412 0.77544 0.0
O38 O 0.36527 0.87177 0.7482 0.0
O39 O 0.37173 0.83764 0.93244 0.0
O40 O 0.33464 0.79767 0.49184 0.0
O41 O 0.35929 0.79526 0.68979 0.0
Co42 Co 0.4294 0.09749 0.85674 0.0
O43 O 0.4236 0.14194 0.76114 0.0
O44 O 0.39016 0.09429 0.7294 0.0
C45 C 0.48927 0.09554 0.84109 0.0
O46 O 0.42898 0.04629 0.93016 0.0
Co47 Co 0.47186 0.09345 0.12404 0.0
O48 O 0.46377 0.04181 0.11264 0.0
C49 C 0.40075 0.12572 0.11871 0.0
C50 C 0.39726 0.1272 0.69844 0.0
C51 C 0.4434 0.02819 0.02546 0.0
O52 O 0.39576 0.11528 0.99819 0.0
O53 O 0.42989 0.12174 0.18244 0.0
O54 O 0.46985 0.08464 0.74185 0.0
O55 O 0.47227 0.10929 0.9398 0.0
Co56 Co 0.17002 0.83812 0.93789 0.0
O57 O 0.12558 0.84392 0.0335 0.0
O58 O 0.17323 0.87736 0.06519 0.0
C59 C 0.17198 0.77825 0.95359 0.0
O60 O 0.22122 0.83854 0.86444 0.0
Co61 Co 0.17405 0.79562 0.67062 0.0
O62 O 0.22569 0.80374 0.68195 0.0
C63 C 0.14184 0.86676 0.67583 0.0
C64 C 0.14033 0.87026 0.09618 0.0
C65 C 0.23932 0.82413 0.76907 0.0
O66 O 0.15224 0.87175 0.79641 0.0
O67 O 0.14581 0.83761 0.61214 0.0
O68 O 0.18289 0.79768 0.05281 0.0
O69 O 0.15823 0.79524 0.85487 0.0
Co70 Co 0.4294 0.92002 0.18789 0.0
O71 O 0.4236 0.87558 0.28349 0.0
O72 O 0.39015 0.92323 0.31518 0.0
C73 C 0.48927 0.92198 0.2036 0.0
O74 O 0.42898 0.97122 0.11444 0.0
Co75 Co 0.47189 0.92406 0.92063 0.0
O76 O 0.46378 0.97569 0.93197 0.0
C77 C 0.40076 0.89184 0.92582 0.0
C78 C 0.39726 0.89033 0.34616 0.0
C79 C 0.44339 0.98932 1.01909 0.0
O80 O 0.39577 0.90224 0.04639 0.0
O81 O 0.4299 0.89581 0.86214 0.0
O82 O 0.46984 0.93288 0.30282 0.0
O83 O 0.47228 0.90823 0.10488 0.0
Co84 Co 0.3475 0.1794 0.43787 0.0
O85 O 0.39195 0.1736 0.53348 0.0
O86 O 0.3443 0.14016 0.56515 0.0
C87 C 0.34555 0.23927 0.45357 0.0
O88 O 0.2963 0.17899 0.36441 0.0
Co89 Co 0.34347 0.22189 0.1706 0.0
O90 O 0.29183 0.21379 0.18198 0.0
C91 C 0.37569 0.15076 0.17581 0.0
C92 C 0.3772 0.14726 0.59615 0.0
C93 C 0.27821 0.1934 0.26908 0.0
O94 O 0.36529 0.14577 0.29637 0.0
O95 O 0.37172 0.17991 0.11213 0.0
O96 O 0.33465 0.21985 0.55279 0.0
O97 O 0.3593 0.22228 0.35485 0.0
Co98 Co 0.08812 0.09751 0.68786 0.0
O99 O 0.09392 0.14195 0.78348 0.0
O100 O 0.12737 0.09431 0.81515 0.0
C101 C 0.02825 0.09555 0.70356 0.0
O102 O 0.08854 0.04631 0.61441 0.0
Co103 Co 0.04563 0.09347 0.42059 0.0
O104 O 0.05373 0.04183 0.43196 0.0
C105 C 0.11676 0.12569 0.42581 0.0
C106 C 0.12026 0.12721 0.84615 0.0
C107 C 0.07413 0.02821 0.51906 0.0
O108 O 0.12175 0.1153 0.54638 0.0
O109 O 0.08761 0.12172 0.36212 0.0
O110 O 0.04768 0.08465 0.80278 0.0
O111 O 0.04524 0.1093 0.60484 0.0
Co112 Co 0.8475 0.83813 0.93793 0.0
O113 O 0.89195 0.84392 0.03354 0.0
O114 O 0.8443 0.87737 0.06526 0.0
C115 C 0.84555 0.77826 0.95358 0.0
O116 O 0.7963 0.83855 0.8645 0.0
Co117 Co 0.84345 0.79566 0.67063 0.0
O118 O 0.79181 0.80374 0.68207 0.0
C119 C 0.87573 0.86677 0.67597 0.0
C120 C 0.8772 0.87026 0.09623 0.0
C121 C 0.77819 0.82412 0.76923 0.0
O122 O 0.86528 0.87177 0.79648 0.0
O123 O 0.87174 0.83763 0.61224 0.0
O124 O 0.83464 0.79768 0.05282 0.0
O125 O 0.8593 0.79526 0.85487 0.0
Co126 Co 0.9294 0.0975 0.68794 0.0
O127 O 0.9236 0.14194 0.78355 0.0
O128 O 0.89016 0.09429 0.81526 0.0
C129 C 0.98927 0.09556 0.7036 0.0
O130 O 0.92898 0.0463 0.61452 0.0
Co131 Co 0.97186 0.09345 0.42065 0.0
O132 O 0.96379 0.04181 0.4321 0.0
C133 C 0.90075 0.12572 0.42597 0.0
C134 C 0.89726 0.1272 0.84624 0.0
C135 C 0.94341 0.02819 0.51925 0.0
O136 O 0.89575 0.11528 0.54648 0.0
O137 O 0.92989 0.12174 0.36226 0.0
O138 O 0.96985 0.08465 0.80284 0.0
O139 O 0.97227 0.1093 0.60488 0.0
Co140 Co 0.67003 0.17939 0.43796 0.0
O141 O 0.62559 0.1736 0.53355 0.0
O142 O 0.67323 0.14015 0.56528 0.0
C143 C 0.67198 0.23926 0.45361 0.0
O144 O 0.72123 0.17897 0.36454 0.0
Co145 Co 0.67407 0.22186 0.17066 0.0
O146 O 0.72571 0.21377 0.18209 0.0
C147 C 0.64181 0.15075 0.17597 0.0
C148 C 0.64033 0.14726 0.59624 0.0
C149 C 0.73934 0.1934 0.26925 0.0
O150 O 0.65225 0.14575 0.29649 0.0
O151 O 0.64579 0.17988 0.11226 0.0
O152 O 0.68289 0.21985 0.55286 0.0
O153 O 0.65823 0.22226 0.3549 0.0
Co154 Co 0.58812 0.92003 0.18797 0.0
O155 O 0.59392 0.87559 0.28357 0.0
O156 O 0.62736 0.92324 0.3153 0.0
C157 C 0.52825 0.92197 0.20363 0.0
O158 O 0.58854 0.97123 0.11454 0.0
Co159 Co 0.54566 0.92407 0.92067 0.0
O160 O 0.55375 0.97571 0.93207 0.0
C161 C 0.61677 0.89181 0.92599 0.0
C162 C 0.62026 0.89033 0.34627 0.0
C163 C 0.57412 0.98934 1.01924 0.0
O164 O 0.62176 0.90225 0.04651 0.0
O165 O 0.58763 0.89579 0.86227 0.0
O166 O 0.54767 0.93289 0.30286 0.0
O167 O 0.54525 0.90823 0.10491 0.0
Co168 Co 0.8475 0.1794 0.10681 0.0
O169 O 0.89194 0.1736 1.01121 0.0
O170 O 0.8443 0.14015 0.97952 0.0
C171 C 0.84555 0.23927 0.09111 0.0
O172 O 0.7963 0.17898 0.18027 0.0
Co173 Co 0.84347 0.2219 0.37408 0.0
O174 O 0.79183 0.21378 0.36274 0.0
C175 C 0.87569 0.15076 0.36887 0.0
C176 C 0.8772 0.14726 0.94853 0.0
C177 C 0.77821 0.19339 0.27563 0.0
O178 O 0.86529 0.14577 0.2483 0.0
O179 O 0.87172 0.17991 0.43256 0.0
O180 O 0.83464 0.21984 0.99189 0.0
O181 O 0.8593 0.22228 0.18983 0.0
Co182 Co 0.58812 0.0975 0.8568 0.0
O183 O 0.59392 0.14194 0.76119 0.0
O184 O 0.62737 0.09429 0.72951 0.0
C185 C 0.52825 0.09556 0.84108 0.0
O186 O 0.58854 0.0463 0.93025 0.0
Co187 Co 0.54563 0.09347 0.12406 0.0
O188 O 0.55374 0.04183 0.11272 0.0
C189 C 0.61676 0.12568 0.11887 0.0
C190 C 0.62026 0.12719 0.69853 0.0
C191 C 0.57413 0.02821 0.02561 0.0
O192 O 0.62176 0.11528 0.9983 0.0
O193 O 0.58762 0.12172 0.18255 0.0
O194 O 0.54768 0.08464 0.74187 0.0
O195 O 0.54525 0.1093 0.93981 0.0
Co196 Co 0.67002 0.83813 0.60684 0.0
O197 O 0.62558 0.84393 0.51122 0.0
O198 O 0.67322 0.87737 0.47956 0.0
C199 C 0.67197 0.77826 0.59113 0.0
O200 O 0.72122 0.83854 0.68029 0.0
Co201 Co 0.67406 0.79564 0.8741 0.0
O202 O 0.7257 0.80373 0.86272 0.0
C203 C 0.64184 0.86676 0.8689 0.0
C204 C 0.64032 0.87027 0.44856 0.0
C205 C 0.73932 0.82413 0.77562 0.0
O206 O 0.65223 0.87176 0.74834 0.0
O207 O 0.6458 0.83762 0.93257 0.0
O208 O 0.68288 0.79768 0.49191 0.0
O209 O 0.65822 0.79525 0.68985 0.0
Co210 Co 0.92941 0.92002 0.35683 0.0
O211 O 0.92361 0.87558 0.26121 0.0
O212 O 0.89016 0.92322 0.22954 0.0
C213 C 0.98928 0.92196 0.34112 0.0
O214 O 0.92899 0.97122 0.43029 0.0
Co215 Co 0.9719 0.92405 0.6241 0.0
O216 O 0.9638 0.9757 0.61273 0.0
C217 C 0.90077 0.89183 0.61888 0.0
C218 C 0.89727 0.89032 0.19854 0.0
C219 C 0.9434 0.98932 0.52563 0.0
O220 O 0.89578 0.90223 0.49831 0.0
O221 O 0.92992 0.8958 0.68257 0.0
O222 O 0.96985 0.93288 0.24191 0.0
O223 O 0.97229 0.90822 0.43985 0.0
Co224 Co 0.67002 0.6794 0.60676 0.0
O225 O 0.62558 0.67361 0.51114 0.0
O226 O 0.67323 0.64016 0.47943 0.0
C227 C 0.67197 0.73927 0.5911 0.0
O228 O 0.72123 0.67898 0.68019 0.0
Co229 Co 0.67407 0.72187 0.87406 0.0
O230 O 0.72571 0.71379 0.86263 0.0
C231 C 0.6418 0.65076 0.86872 0.0
C232 C 0.64033 0.64727 0.44845 0.0
C233 C 0.73934 0.69341 0.77546 0.0
O234 O 0.65224 0.64576 0.74821 0.0
O235 O 0.64579 0.6799 0.93245 0.0
O236 O 0.68288 0.71985 0.49187 0.0
O237 O 0.65822 0.72227 0.68982 0.0
Co238 Co 0.58813 0.42002 0.85677 0.0
O239 O 0.59393 0.37558 0.76116 0.0
O240 O 0.62737 0.42323 0.72945 0.0
C241 C 0.52826 0.42197 0.84112 0.0
O242 O 0.58855 0.47123 0.93019 0.0
Co243 Co 0.54567 0.42407 0.12406 0.0
O244 O 0.55374 0.47572 0.11261 0.0
C245 C 0.61677 0.3918 0.11874 0.0
C246 C 0.62027 0.39032 0.69848 0.0
C247 C 0.57412 0.48934 0.02545 0.0
O248 O 0.62177 0.40224 0.99823 0.0
O249 O 0.58764 0.39579 0.18246 0.0
O250 O 0.54768 0.43288 0.74187 0.0
O251 O 0.54526 0.40823 0.93983 0.0
Co252 Co 0.84749 0.33813 0.10673 0.0
O253 O 0.89194 0.34393 1.01113 0.0
O254 O 0.84429 0.37736 0.9794 0.0
C255 C 0.84555 0.27826 0.09107 0.0
O256 O 0.79629 0.33854 0.18015 0.0
Co257 Co 0.84345 0.29566 0.37402 0.0
O258 O 0.79181 0.30375 0.36261 0.0
C259 C 0.87571 0.36677 0.36871 0.0
C260 C 0.87719 0.37026 0.94844 0.0
C261 C 0.77819 0.32412 0.27544 0.0
O262 O 0.86527 0.37177 0.2482 0.0
O263 O 0.87173 0.33764 0.43243 0.0
O264 O 0.83464 0.29767 0.99183 0.0
O265 O 0.8593 0.29526 0.18979 0.0
Co266 Co 0.9294 0.59749 0.35674 0.0
O267 O 0.9236 0.64194 0.26114 0.0
O268 O 0.89016 0.59429 0.22941 0.0
C269 C 0.98927 0.59554 0.34109 0.0
O270 O 0.92898 0.54629 0.43016 0.0
Co271 Co 0.97186 0.59345 0.62405 0.0
O272 O 0.96377 0.54181 0.61264 0.0
C273 C 0.90075 0.62572 0.61872 0.0
C274 C 0.89726 0.6272 0.19845 0.0
C275 C 0.9434 0.52819 0.52546 0.0
O276 O 0.89576 0.61528 0.4982 0.0
O277 O 0.92989 0.62174 0.68245 0.0
O278 O 0.96985 0.58464 0.24185 0.0
O279 O 0.97227 0.60929 0.43981 0.0
Co280 Co 0.67002 0.33812 0.4379 0.0
O281 O 0.62558 0.34392 0.53351 0.0
O282 O 0.67323 0.37736 0.56519 0.0
C283 C 0.67197 0.27825 0.45361 0.0
O284 O 0.72122 0.33853 0.36444 0.0
Co285 Co 0.67405 0.29562 0.17063 0.0
O286 O 0.72569 0.30374 0.18196 0.0
C287 C 0.64184 0.36676 0.17584 0.0
C288 C 0.64033 0.37026 0.59618 0.0
C289 C 0.73932 0.32413 0.26907 0.0
O290 O 0.65224 0.37175 0.29641 0.0
O291 O 0.64581 0.33761 0.11215 0.0
O292 O 0.68289 0.29768 0.55282 0.0
O293 O 0.65822 0.29524 0.35488 0.0
Co294 Co 0.9294 0.42002 0.68789 0.0
O295 O 0.9236 0.37558 0.78349 0.0
O296 O 0.89015 0.42323 0.81517 0.0
C297 C 0.98927 0.42198 0.7036 0.0
O298 O 0.92898 0.47122 0.61444 0.0
Co299 Co 0.97189 0.42405 0.42062 0.0
O300 O 0.96378 0.47569 0.43197 0.0
C301 C 0.90076 0.39184 0.42582 0.0
C302 C 0.89726 0.39033 0.84616 0.0
C303 C 0.94339 0.48932 0.51909 0.0
O304 O 0.89577 0.40224 0.54639 0.0
O305 O 0.9299 0.39581 0.36214 0.0
O306 O 0.96984 0.43288 0.80282 0.0
O307 O 0.97228 0.40822 0.60487 0.0
Co308 Co 0.8475 0.6794 0.93787 0.0
O309 O 0.89195 0.6736 0.03349 0.0
O310 O 0.8443 0.64016 0.06515 0.0
C311 C 0.84556 0.73927 0.95358 0.0
O312 O 0.7963 0.67899 0.86442 0.0
Co313 Co 0.84347 0.72189 0.67061 0.0
O314 O 0.79183 0.7138 0.68199 0.0
C315 C 0.87569 0.65076 0.67581 0.0
C316 C 0.8772 0.64726 0.09615 0.0
C317 C 0.77821 0.6934 0.76908 0.0
O318 O 0.86529 0.64577 0.79638 0.0
O319 O 0.87172 0.67991 0.61214 0.0
O320 O 0.83465 0.71985 0.0528 0.0
O321 O 0.85931 0.72228 0.85486 0.0
Co322 Co 0.58812 0.59751 0.18786 0.0
O323 O 0.59392 0.64195 0.28348 0.0
O324 O 0.62737 0.5943 0.31515 0.0
C325 C 0.52825 0.59555 0.20356 0.0
O326 O 0.58854 0.54631 0.1144 0.0
Co327 Co 0.54563 0.59347 0.92059 0.0
O328 O 0.55373 0.54183 0.93196 0.0
C329 C 0.61676 0.62569 0.92581 0.0
C330 C 0.62026 0.62721 0.34615 0.0
C331 C 0.57413 0.52821 1.01906 0.0
O332 O 0.62175 0.6153 0.04637 0.0
O333 O 0.58761 0.62172 0.86212 0.0
O334 O 0.54768 0.58465 0.30278 0.0
O335 O 0.54524 0.6093 0.10484 0.0
Co336 Co 0.3475 0.33813 0.43794 0.0
O337 O 0.39195 0.34392 0.53354 0.0
O338 O 0.3443 0.37737 0.56526 0.0
C339 C 0.34556 0.27826 0.45359 0.0
O340 O 0.2963 0.33855 0.36451 0.0
Co341 Co 0.34345 0.29566 0.17063 0.0
O342 O 0.29181 0.30374 0.18207 0.0
C343 C 0.37573 0.36677 0.17597 0.0
C344 C 0.3772 0.37026 0.59624 0.0
C345 C 0.27819 0.32412 0.26923 0.0
O346 O 0.36528 0.37177 0.29648 0.0
O347 O 0.37174 0.33763 0.11224 0.0
O348 O 0.33465 0.29768 0.55282 0.0
O349 O 0.3593 0.29526 0.35487 0.0
Co350 Co 0.4294 0.5975 0.18794 0.0
O351 O 0.4236 0.64194 0.28355 0.0
O352 O 0.39016 0.59429 0.31526 0.0
C353 C 0.48927 0.59556 0.2036 0.0
O354 O 0.42898 0.5463 0.11451 0.0
Co355 Co 0.47186 0.59345 0.92064 0.0
O356 O 0.46379 0.54181 0.9321 0.0
C357 C 0.40075 0.62572 0.92597 0.0
C358 C 0.39726 0.6272 0.34623 0.0
C359 C 0.44341 0.52819 1.01925 0.0
O360 O 0.39575 0.61528 0.04647 0.0
O361 O 0.42989 0.62174 0.86225 0.0
O362 O 0.46985 0.58465 0.30283 0.0
O363 O 0.47227 0.6093 0.10488 0.0
Co364 Co 0.17003 0.67939 0.93796 0.0
O365 O 0.12559 0.67359 0.03356 0.0
O366 O 0.17323 0.64015 0.06529 0.0
C367 C 0.17197 0.73926 0.95363 0.0
O368 O 0.22123 0.67898 0.86454 0.0
Co369 Co 0.17407 0.72186 0.67067 0.0
O370 O 0.22571 0.71377 0.68209 0.0
C371 C 0.14181 0.65075 0.67598 0.0
C372 C 0.14033 0.64726 0.09625 0.0
C373 C 0.23934 0.6934 0.76925 0.0
O374 O 0.15225 0.64575 0.79649 0.0
O375 O 0.14579 0.67988 0.61227 0.0
O376 O 0.18288 0.71985 0.05286 0.0
O377 O 0.15823 0.72226 0.85491 0.0
Co378 Co 0.08812 0.42003 0.68797 0.0
O379 O 0.09392 0.37559 0.78356 0.0
O380 O 0.12736 0.42324 0.8153 0.0
C381 C 0.02825 0.42197 0.70362 0.0
O382 O 0.08854 0.47123 0.61454 0.0
Co383 Co 0.04566 0.42407 0.42066 0.0
O384 O 0.05374 0.47571 0.43207 0.0
C385 C 0.11677 0.39181 0.42599 0.0
C386 C 0.12026 0.39033 0.84626 0.0
C387 C 0.07412 0.48934 0.51924 0.0
O388 O 0.12176 0.40225 0.54651 0.0
O389 O 0.08763 0.39579 0.36226 0.0
O390 O 0.04767 0.43289 0.80286 0.0
O391 O 0.04525 0.40823 0.6049 0.0
Co392 Co 0.3475 0.6794 0.60681 0.0
O393 O 0.39194 0.6736 0.5112 0.0
O394 O 0.3443 0.64015 0.47951 0.0
C395 C 0.34555 0.73927 0.59109 0.0
O396 O 0.2963 0.67898 0.68026 0.0
Co397 Co 0.34347 0.7219 0.87408 0.0
O398 O 0.29183 0.71378 0.86274 0.0
C399 C 0.37569 0.65077 0.86887 0.0
C400 C 0.3772 0.64726 0.44853 0.0
C401 C 0.27821 0.69339 0.77563 0.0
O402 O 0.36529 0.64577 0.7483 0.0
O403 O 0.37172 0.67991 0.93256 0.0
O404 O 0.33464 0.71984 0.49188 0.0
O405 O 0.3593 0.72228 0.68983 0.0
Co406 Co 0.08812 0.5975 0.35681 0.0
O407 O 0.09392 0.64194 0.2612 0.0
O408 O 0.12737 0.59429 0.22952 0.0
C409 C 0.02825 0.59556 0.34109 0.0
O410 O 0.08854 0.5463 0.43026 0.0
Co411 Co 0.04563 0.59347 0.62407 0.0
O412 O 0.05374 0.54183 0.61272 0.0
C413 C 0.11676 0.62568 0.61887 0.0
C414 C 0.12027 0.62719 0.19853 0.0
C415 C 0.07413 0.52821 0.52561 0.0
O416 O 0.12176 0.61528 0.4983 0.0
O417 O 0.08762 0.62172 0.68255 0.0
O418 O 0.04768 0.58464 0.24187 0.0
O419 O 0.04525 0.6093 0.43982 0.0
Co420 Co 0.17002 0.33813 0.10684 0.0
O421 O 0.12558 0.34393 1.01122 0.0
O422 O 0.17322 0.37737 0.97955 0.0
C423 C 0.17196 0.27826 0.09112 0.0
O424 O 0.22122 0.33854 0.18029 0.0
Co425 Co 0.17406 0.29563 0.37409 0.0
O426 O 0.2257 0.30373 0.36271 0.0
C427 C 0.14184 0.36676 0.36889 0.0
C428 C 0.14032 0.37027 0.94856 0.0
C429 C 0.23932 0.32413 0.27562 0.0
O430 O 0.15223 0.37176 0.24833 0.0
O431 O 0.1458 0.33762 0.43257 0.0
O432 O 0.18288 0.29768 0.99191 0.0
O433 O 0.15822 0.29525 0.18985 0.0
Co434 Co 0.42941 0.42002 0.85683 0.0
O435 O 0.42361 0.37558 0.76121 0.0
O436 O 0.39016 0.42322 0.72954 0.0
C437 C 0.48928 0.42196 0.84112 0.0
O438 O 0.42899 0.47122 0.93029 0.0
Co439 Co 0.4719 0.42405 0.1241 0.0
O440 O 0.4638 0.4757 0.11273 0.0
C441 C 0.40077 0.39183 0.11888 0.0
C442 C 0.39726 0.39032 0.69854 0.0
C443 C 0.44341 0.48932 0.02563 0.0
O444 O 0.39578 0.40223 0.99832 0.0
O445 O 0.42992 0.3958 0.18257 0.0
O446 O 0.46985 0.43288 0.74191 0.0
O447 O 0.47228 0.40822 0.93985 0.0
loop_
_geom_bond_atom_site_label_1
_geom_bond_atom_site_label_2
_geom_bond_distance
_geom_bond_site_symmetry_2
_ccdc_geom_bond_type
Co0 O1 2.216 1_554 S
Co0 O2 2.091 1_554 S
Co0 O4 2.004 . S
Co0 O10 2.021 . S
Co0 O12 2.137 . S
Co0 O13 2.244 . S
O1 Co0 2.216 1_556 S
O1 C8 1.247 . S
O2 Co0 2.091 1_556 S
O2 C8 1.261 . S
C3 O12 1.247 . S
C3 O13 1.272 . S
O4 Co0 2.004 . S
O4 C9 1.259 . S
Co5 O6 2.061 . S
Co5 O11 2.052 . S
Co5 O13 2.135 . S
O6 Co5 2.061 . S
O6 C9 1.235 . S
C7 O10 1.238 . S
C7 O11 1.241 . S
C8 O1 1.247 . S
C8 O2 1.261 . S
C9 O4 1.259 . S
C9 O6 1.235 . S
O10 Co0 2.021 . S
O10 C7 1.238 . S
O11 Co5 2.052 . S
O11 C7 1.241 . S
O12 Co0 2.137 . S
O12 C3 1.247 . S
O13 Co0 2.244 . S
O13 C3 1.272 . S
O13 Co5 2.135 . S
Co14 O15 2.216 . S
Co14 O16 2.091 . S
Co14 O18 2.004 . S
Co14 O24 2.021 . S
Co14 O26 2.137 . S
Co14 O27 2.244 . S
O15 Co14 2.216 . S
O15 C22 1.247 . S
O16 Co14 2.091 . S
O16 C22 1.261 . S
C17 O26 1.247 . S
C17 O27 1.272 . S
O18 Co14 2.004 . S
O18 C23 1.259 . S
Co19 O20 2.061 . S
Co19 O25 2.052 . S
Co19 O27 2.135 . S
O20 Co19 2.061 . S
O20 C23 1.235 . S
C21 O24 1.238 . S
C21 O25 1.241 . S
C22 O15 1.247 . S
C22 O16 1.261 . S
C23 O18 1.259 . S
C23 O20 1.235 . S
O24 Co14 2.021 . S
O24 C21 1.238 . S
O25 Co19 2.052 . S
O25 C21 1.241 . S
O26 Co14 2.137 . S
O26 C17 1.247 . S
O27 Co14 2.244 . S
O27 C17 1.272 . S
O27 Co19 2.135 . S
Co28 O29 2.216 . S
Co28 O30 2.091 . S
Co28 O32 2.004 . S
Co28 O38 2.021 . S
Co28 O40 2.137 . S
Co28 O41 2.244 . S
O29 Co28 2.216 . S
O29 C36 1.247 . S
O30 Co28 2.091 . S
O30 C36 1.261 . S
C31 O40 1.247 . S
C31 O41 1.272 . S
O32 Co28 2.004 . S
O32 C37 1.259 . S
Co33 O34 2.061 . S
Co33 O39 2.052 . S
Co33 O41 2.135 . S
O34 Co33 2.061 . S
O34 C37 1.235 . S
C35 O38 1.238 . S
C35 O39 1.241 . S
C36 O29 1.247 . S
C36 O30 1.261 . S
C37 O32 1.259 . S
C37 O34 1.235 . S
O38 Co28 2.021 . S
O38 C35 1.238 . S
O39 Co33 2.052 . S
O39 C35 1.241 . S
O40 Co28 2.137 . S
O40 C31 1.247 . S
O41 Co28 2.244 . S
O41 C31 1.272 . S
O41 Co33 2.135 . S
Co42 O43 2.216 . S
Co42 O44 2.091 . S
Co42 O46 2.004 . S
Co42 O52 2.021 . S
Co42 O54 2.137 . S
Co42 O55 2.244 . S
O43 Co42 2.216 . S
O43 C50 1.247 . S
O44 Co42 2.091 . S
O44 C50 1.261 . S
C45 O54 1.247 . S
C45 O55 1.272 . S
O46 Co42 2.004 . S
O46 C51 1.259 . S
Co47 O48 2.061 . S
Co47 O53 2.052 . S
Co47 O55 2.135 1_554 S
O48 Co47 2.061 . S
O48 C51 1.235 1_554 S
C49 O52 1.238 1_554 S
C49 O53 1.241 . S
C50 O43 1.247 . S
C50 O44 1.261 . S
C51 O46 1.259 . S
C51 O48 1.235 1_556 S
O52 Co42 2.021 . S
O52 C49 1.238 1_556 S
O53 Co47 2.052 . S
O53 C49 1.241 . S
O54 Co42 2.137 . S
O54 C45 1.247 . S
O55 Co42 2.244 . S
O55 C45 1.272 . S
O55 Co47 2.135 1_556 S
Co56 O57 2.216 1_556 S
Co56 O58 2.091 1_556 S
Co56 O60 2.004 . S
Co56 O66 2.021 . S
Co56 O68 2.137 . S
Co56 O69 2.244 . S
O57 Co56 2.216 1_554 S
O57 C64 1.247 . S
O58 Co56 2.091 1_554 S
O58 C64 1.261 . S
C59 O68 1.247 . S
C59 O69 1.272 . S
O60 Co56 2.004 . S
O60 C65 1.259 . S
Co61 O62 2.061 . S
Co61 O67 2.052 . S
Co61 O69 2.135 . S
O62 Co61 2.061 . S
O62 C65 1.235 . S
C63 O66 1.238 . S
C63 O67 1.241 . S
C64 O57 1.247 . S
C64 O58 1.261 . S
C65 O60 1.259 . S
C65 O62 1.235 . S
O66 Co56 2.021 . S
O66 C63 1.238 . S
O67 Co61 2.052 . S
O67 C63 1.241 . S
O68 Co56 2.137 . S
O68 C59 1.247 . S
O69 Co56 2.244 . S
O69 C59 1.272 . S
O69 Co61 2.135 . S
Co70 O71 2.216 . S
Co70 O72 2.091 . S
Co70 O74 2.004 . S
Co70 O80 2.021 . S
Co70 O82 2.137 . S
Co70 O83 2.244 . S
O71 Co70 2.216 . S
O71 C78 1.247 . S
O72 Co70 2.091 . S
O72 C78 1.261 . S
C73 O82 1.247 . S
C73 O83 1.272 . S
O74 Co70 2.004 . S
O74 C79 1.259 . S
Co75 O76 2.061 . S
Co75 O81 2.052 . S
Co75 O83 2.135 1_556 S
O76 Co75 2.061 . S
O76 C79 1.235 1_556 S
C77 O80 1.238 1_556 S
C77 O81 1.241 . S
C78 O71 1.247 . S
C78 O72 1.261 . S
C79 O74 1.259 . S
C79 O76 1.235 1_554 S
O80 Co70 2.021 . S
O80 C77 1.238 1_554 S
O81 Co75 2.052 . S
O81 C77 1.241 . S
O82 Co70 2.137 . S
O82 C73 1.247 . S
O83 Co70 2.244 . S
O83 C73 1.272 . S
O83 Co75 2.135 1_554 S
Co84 O85 2.216 . S
Co84 O86 2.091 . S
Co84 O88 2.004 . S
Co84 O94 2.021 . S
Co84 O96 2.137 . S
Co84 O97 2.244 . S
O85 Co84 2.216 . S
O85 C92 1.247 . S
O86 Co84 2.091 . S
O86 C92 1.261 . S
C87 O96 1.247 . S
C87 O97 1.272 . S
O88 Co84 2.004 . S
O88 C93 1.259 . S
Co89 O90 2.061 . S
Co89 O95 2.052 . S
Co89 O97 2.135 . S
O90 Co89 2.061 . S
O90 C93 1.235 . S
C91 O94 1.238 . S
C91 O95 1.241 . S
C92 O85 1.247 . S
C92 O86 1.261 . S
C93 O88 1.259 . S
C93 O90 1.235 . S
O94 Co84 2.021 . S
O94 C91 1.238 . S
O95 Co89 2.052 . S
O95 C91 1.241 . S
O96 Co84 2.137 . S
O96 C87 1.247 . S
O97 Co84 2.244 . S
O97 C87 1.272 . S
O97 Co89 2.135 . S
Co98 O99 2.216 . S
Co98 O100 2.091 . S
Co98 O102 2.004 . S
Co98 O108 2.021 . S
Co98 O110 2.137 . S
Co98 O111 2.244 . S
O99 Co98 2.216 . S
O99 C106 1.247 . S
O100 Co98 2.091 . S
O100 C106 1.261 . S
C101 O110 1.247 . S
C101 O111 1.272 . S
O102 Co98 2.004 . S
O102 C107 1.259 . S
Co103 O104 2.061 . S
Co103 O109 2.052 . S
Co103 O111 2.135 . S
O104 Co103 2.061 . S
O104 C107 1.235 . S
C105 O108 1.238 . S
C105 O109 1.241 . S
C106 O99 1.247 . S
C106 O100 1.261 . S
C107 O102 1.259 . S
C107 O104 1.235 . S
O108 Co98 2.021 . S
O108 C105 1.238 . S
O109 Co103 2.052 . S
O109 C105 1.241 . S
O110 Co98 2.137 . S
O110 C101 1.247 . S
O111 Co98 2.244 . S
O111 C101 1.272 . S
O111 Co103 2.135 . S
Co112 O113 2.216 1_556 S
Co112 O114 2.091 1_556 S
Co112 O116 2.004 . S
Co112 O122 2.021 . S
Co112 O124 2.137 . S
Co112 O125 2.244 . S
O113 Co112 2.216 1_554 S
O113 C120 1.247 . S
O114 Co112 2.091 1_554 S
O114 C120 1.261 . S
C115 O124 1.247 . S
C115 O125 1.272 . S
O116 Co112 2.004 . S
O116 C121 1.259 . S
Co117 O118 2.061 . S
Co117 O123 2.052 . S
Co117 O125 2.135 . S
O118 Co117 2.061 . S
O118 C121 1.235 . S
C119 O122 1.238 . S
C119 O123 1.241 . S
C120 O113 1.247 . S
C120 O114 1.261 . S
C121 O116 1.259 . S
C121 O118 1.235 . S
O122 Co112 2.021 . S
O122 C119 1.238 . S
O123 Co117 2.052 . S
O123 C119 1.241 . S
O124 Co112 2.137 . S
O124 C115 1.247 . S
O125 Co112 2.244 . S
O125 C115 1.272 . S
O125 Co117 2.135 . S
Co126 O127 2.216 . S
Co126 O128 2.091 . S
Co126 O130 2.004 . S
Co126 O136 2.021 . S
Co126 O138 2.137 . S
Co126 O139 2.244 . S
O127 Co126 2.216 . S
O127 C134 1.247 . S
O128 Co126 2.091 . S
O128 C134 1.261 . S
C129 O138 1.247 . S
C129 O139 1.272 . S
O130 Co126 2.004 . S
O130 C135 1.259 . S
Co131 O132 2.061 . S
Co131 O137 2.052 . S
Co131 O139 2.135 . S
O132 Co131 2.061 . S
O132 C135 1.235 . S
C133 O136 1.238 . S
C133 O137 1.241 . S
C134 O127 1.247 . S
C134 O128 1.261 . S
C135 O130 1.259 . S
C135 O132 1.235 . S
O136 Co126 2.021 . S
O136 C133 1.238 . S
O137 Co131 2.052 . S
O137 C133 1.241 . S
O138 Co126 2.137 . S
O138 C129 1.247 . S
O139 Co126 2.244 . S
O139 C129 1.272 . S
O139 Co131 2.135 . S
Co140 O141 2.216 . S
Co140 O142 2.091 . S
Co140 O144 2.004 . S
Co140 O150 2.021 . S
Co140 O152 2.137 . S
Co140 O153 2.244 . S
O141 Co140 2.216 . S
O141 C148 1.247 . S
O142 Co140 2.091 . S
O142 C148 1.261 . S
C143 O152 1.247 . S
C143 O153 1.272 . S
O144 Co140 2.004 . S
O144 C149 1.259 . S
Co145 O146 2.061 . S
Co145 O151 2.052 . S
Co145 O153 2.135 . S
O146 Co145 2.061 . S
O146 C149 1.235 . S
C147 O150 1.238 . S
C147 O151 1.241 . S
C148 O141 1.247 . S
C148 O142 1.261 . S
C149 O144 1.259 . S
C149 O146 1.235 . S
O150 Co140 2.021 . S
O150 C147 1.238 . S
O151 Co145 2.052 . S
O151 C147 1.241 . S
O152 Co140 2.137 . S
O152 C143 1.247 . S
O153 Co140 2.244 . S
O153 C143 1.272 . S
O153 Co145 2.135 . S
Co154 O155 2.216 . S
Co154 O156 2.091 . S
Co154 O158 2.004 . S
Co154 O164 2.021 . S
Co154 O166 2.137 . S
Co154 O167 2.244 . S
O155 Co154 2.216 . S
O155 C162 1.247 . S
O156 Co154 2.091 . S
O156 C162 1.261 . S
C157 O166 1.247 . S
C157 O167 1.272 . S
O158 Co154 2.004 . S
O158 C163 1.259 . S
Co159 O160 2.061 . S
Co159 O165 2.052 . S
Co159 O167 2.135 1_556 S
O160 Co159 2.061 . S
O160 C163 1.235 1_556 S
C161 O164 1.238 1_556 S
C161 O165 1.241 . S
C162 O155 1.247 . S
C162 O156 1.261 . S
C163 O158 1.259 . S
C163 O160 1.235 1_554 S
O164 Co154 2.021 . S
O164 C161 1.238 1_554 S
O165 Co159 2.052 . S
O165 C161 1.241 . S
O166 Co154 2.137 . S
O166 C157 1.247 . S
O167 Co154 2.244 . S
O167 C157 1.272 . S
O167 Co159 2.135 1_554 S
Co168 O169 2.216 1_554 S
Co168 O170 2.091 1_554 S
Co168 O172 2.004 . S
Co168 O178 2.021 . S
Co168 O180 2.137 . S
Co168 O181 2.244 . S
O169 Co168 2.216 1_556 S
O169 C176 1.247 . S
O170 Co168 2.091 1_556 S
O170 C176 1.261 . S
C171 O180 1.247 . S
C171 O181 1.272 . S
O172 Co168 2.004 . S
O172 C177 1.259 . S
Co173 O174 2.061 . S
Co173 O179 2.052 . S
Co173 O181 2.135 . S
O174 Co173 2.061 . S
O174 C177 1.235 . S
C175 O178 1.238 . S
C175 O179 1.241 . S
C176 O169 1.247 . S
C176 O170 1.261 . S
C177 O172 1.259 . S
C177 O174 1.235 . S
O178 Co168 2.021 . S
O178 C175 1.238 . S
O179 Co173 2.052 . S
O179 C175 1.241 . S
O180 Co168 2.137 . S
O180 C171 1.247 . S
O181 Co168 2.244 . S
O181 C171 1.272 . S
O181 Co173 2.135 . S
Co182 O183 2.216 . S
Co182 O184 2.091 . S
Co182 O186 2.004 . S
Co182 O192 2.021 . S
Co182 O194 2.137 . S
Co182 O195 2.244 . S
O183 Co182 2.216 . S
O183 C190 1.247 . S
O184 Co182 2.091 . S
O184 C190 1.261 . S
C185 O194 1.247 . S
C185 O195 1.272 . S
O186 Co182 2.004 . S
O186 C191 1.259 . S
Co187 O188 2.061 . S
Co187 O193 2.052 . S
Co187 O195 2.135 1_554 S
O188 Co187 2.061 . S
O188 C191 1.235 1_554 S
C189 O192 1.238 1_554 S
C189 O193 1.241 . S
C190 O183 1.247 . S
C190 O184 1.261 . S
C191 O186 1.259 . S
C191 O188 1.235 1_556 S
O192 Co182 2.021 . S
O192 C189 1.238 1_556 S
O193 Co187 2.052 . S
O193 C189 1.241 . S
O194 Co182 2.137 . S
O194 C185 1.247 . S
O195 Co182 2.244 . S
O195 C185 1.272 . S
O195 Co187 2.135 1_556 S
Co196 O197 2.216 . S
Co196 O198 2.091 . S
Co196 O200 2.004 . S
Co196 O206 2.021 . S
Co196 O208 2.137 . S
Co196 O209 2.244 . S
O197 Co196 2.216 . S
O197 C204 1.247 . S
O198 Co196 2.091 . S
O198 C204 1.261 . S
C199 O208 1.247 . S
C199 O209 1.272 . S
O200 Co196 2.004 . S
O200 C205 1.259 . S
Co201 O202 2.061 . S
Co201 O207 2.052 . S
Co201 O209 2.135 . S
O202 Co201 2.061 . S
O202 C205 1.235 . S
C203 O206 1.238 . S
C203 O207 1.241 . S
C204 O197 1.247 . S
C204 O198 1.261 . S
C205 O200 1.259 . S
C205 O202 1.235 . S
O206 Co196 2.021 . S
O206 C203 1.238 . S
O207 Co201 2.052 . S
O207 C203 1.241 . S
O208 Co196 2.137 . S
O208 C199 1.247 . S
O209 Co196 2.244 . S
O209 C199 1.272 . S
O209 Co201 2.135 . S
Co210 O211 2.216 . S
Co210 O212 2.091 . S
Co210 O214 2.004 . S
Co210 O220 2.021 . S
Co210 O222 2.137 . S
Co210 O223 2.244 . S
O211 Co210 2.216 . S
O211 C218 1.247 . S
O212 Co210 2.091 . S
O212 C218 1.261 . S
C213 O222 1.247 . S
C213 O223 1.272 . S
O214 Co210 2.004 . S
O214 C219 1.259 . S
Co215 O216 2.061 . S
Co215 O221 2.052 . S
Co215 O223 2.135 . S
O216 Co215 2.061 . S
O216 C219 1.235 . S
C217 O220 1.238 . S
C217 O221 1.241 . S
C218 O211 1.247 . S
C218 O212 1.261 . S
C219 O214 1.259 . S
C219 O216 1.235 . S
O220 Co210 2.021 . S
O220 C217 1.238 . S
O221 Co215 2.052 . S
O221 C217 1.241 . S
O222 Co210 2.137 . S
O222 C213 1.247 . S
O223 Co210 2.244 . S
O223 C213 1.272 . S
O223 Co215 2.135 . S
Co224 O225 2.216 . S
Co224 O226 2.091 . S
Co224 O228 2.004 . S
Co224 O234 2.021 . S
Co224 O236 2.137 . S
Co224 O237 2.244 . S
O225 Co224 2.216 . S
O225 C232 1.247 . S
O226 Co224 2.091 . S
O226 C232 1.261 . S
C227 O236 1.247 . S
C227 O237 1.272 . S
O228 Co224 2.004 . S
O228 C233 1.259 . S
Co229 O230 2.061 . S
Co229 O235 2.052 . S
Co229 O237 2.135 . S
O230 Co229 2.061 . S
O230 C233 1.235 . S
C231 O234 1.238 . S
C231 O235 1.241 . S
C232 O225 1.247 . S
C232 O226 1.261 . S
C233 O228 1.259 . S
C233 O230 1.235 . S
O234 Co224 2.021 . S
O234 C231 1.238 . S
O235 Co229 2.052 . S
O235 C231 1.241 . S
O236 Co224 2.137 . S
O236 C227 1.247 . S
O237 Co224 2.244 . S
O237 C227 1.272 . S
O237 Co229 2.135 . S
Co238 O239 2.216 . S
Co238 O240 2.091 . S
Co238 O242 2.004 . S
Co238 O248 2.021 . S
Co238 O250 2.137 . S
Co238 O251 2.244 . S
O239 Co238 2.216 . S
O239 C246 1.247 . S
O240 Co238 2.091 . S
O240 C246 1.261 . S
C241 O250 1.247 . S
C241 O251 1.272 . S
O242 Co238 2.004 . S
O242 C247 1.259 . S
Co243 O244 2.061 . S
Co243 O249 2.052 . S
Co243 O251 2.135 1_554 S
O244 Co243 2.061 . S
O244 C247 1.235 1_554 S
C245 O248 1.238 1_554 S
C245 O249 1.241 . S
C246 O239 1.247 . S
C246 O240 1.261 . S
C247 O242 1.259 . S
C247 O244 1.235 1_556 S
O248 Co238 2.021 . S
O248 C245 1.238 1_556 S
O249 Co243 2.052 . S
O249 C245 1.241 . S
O250 Co238 2.137 . S
O250 C241 1.247 . S
O251 Co238 2.244 . S
O251 C241 1.272 . S
O251 Co243 2.135 1_556 S
Co252 O253 2.216 1_554 S
Co252 O254 2.091 1_554 S
Co252 O256 2.004 . S
Co252 O262 2.021 . S
Co252 O264 2.137 . S
Co252 O265 2.244 . S
O253 Co252 2.216 1_556 S
O253 C260 1.247 . S
O254 Co252 2.091 1_556 S
O254 C260 1.261 . S
C255 O264 1.247 . S
C255 O265 1.272 . S
O256 Co252 2.004 . S
O256 C261 1.259 . S
Co257 O258 2.061 . S
Co257 O263 2.052 . S
Co257 O265 2.135 . S
O258 Co257 2.061 . S
O258 C261 1.235 . S
C259 O262 1.238 . S
C259 O263 1.241 . S
C260 O253 1.247 . S
C260 O254 1.261 . S
C261 O256 1.259 . S
C261 O258 1.235 . S
O262 Co252 2.021 . S
O262 C259 1.238 . S
O263 Co257 2.052 . S
O263 C259 1.241 . S
O264 Co252 2.137 . S
O264 C255 1.247 . S
O265 Co252 2.244 . S
O265 C255 1.272 . S
O265 Co257 2.135 . S
Co266 O267 2.216 . S
Co266 O268 2.091 . S
Co266 O270 2.004 . S
Co266 O276 2.021 . S
Co266 O278 2.137 . S
Co266 O279 2.244 . S
O267 Co266 2.216 . S
O267 C274 1.247 . S
O268 Co266 2.091 . S
O268 C274 1.261 . S
C269 O278 1.247 . S
C269 O279 1.272 . S
O270 Co266 2.004 . S
O270 C275 1.259 . S
Co271 O272 2.061 . S
Co271 O277 2.052 . S
Co271 O279 2.135 . S
O272 Co271 2.061 . S
O272 C275 1.235 . S
C273 O276 1.238 . S
C273 O277 1.241 . S
C274 O267 1.247 . S
C274 O268 1.261 . S
C275 O270 1.259 . S
C275 O272 1.235 . S
O276 Co266 2.021 . S
O276 C273 1.238 . S
O277 Co271 2.052 . S
O277 C273 1.241 . S
O278 Co266 2.137 . S
O278 C269 1.247 . S
O279 Co266 2.244 . S
O279 C269 1.272 . S
O279 Co271 2.135 . S
Co280 O281 2.216 . S
Co280 O282 2.091 . S
Co280 O284 2.004 . S
Co280 O290 2.021 . S
Co280 O292 2.137 . S
Co280 O293 2.244 . S
O281 Co280 2.216 . S
O281 C288 1.247 . S
O282 Co280 2.091 . S
O282 C288 1.261 . S
C283 O292 1.247 . S
C283 O293 1.272 . S
O284 Co280 2.004 . S
O284 C289 1.259 . S
Co285 O286 2.061 . S
Co285 O291 2.052 . S
Co285 O293 2.135 . S
O286 Co285 2.061 . S
O286 C289 1.235 . S
C287 O290 1.238 . S
C287 O291 1.241 . S
C288 O281 1.247 . S
C288 O282 1.261 . S
C289 O284 1.259 . S
C289 O286 1.235 . S
O290 Co280 2.021 . S
O290 C287 1.238 . S
O291 Co285 2.052 . S
O291 C287 1.241 . S
O292 Co280 2.137 . S
O292 C283 1.247 . S
O293 Co280 2.244 . S
O293 C283 1.272 . S
O293 Co285 2.135 . S
Co294 O295 2.216 . S
Co294 O296 2.091 . S
Co294 O298 2.004 . S
Co294 O304 2.021 . S
Co294 O306 2.137 . S
Co294 O307 2.244 . S
O295 Co294 2.216 . S
O295 C302 1.247 . S
O296 Co294 2.091 . S
O296 C302 1.261 . S
C297 O306 1.247 . S
C297 O307 1.272 . S
O298 Co294 2.004 . S
O298 C303 1.259 . S
Co299 O300 2.061 . S
Co299 O305 2.052 . S
Co299 O307 2.135 . S
O300 Co299 2.061 . S
O300 C303 1.235 . S
C301 O304 1.238 . S
C301 O305 1.241 . S
C302 O295 1.247 . S
C302 O296 1.261 . S
C303 O298 1.259 . S
C303 O300 1.235 . S
O304 Co294 2.021 . S
O304 C301 1.238 . S
O305 Co299 2.052 . S
O305 C301 1.241 . S
O306 Co294 2.137 . S
O306 C297 1.247 . S
O307 Co294 2.244 . S
O307 C297 1.272 . S
O307 Co299 2.135 . S
Co308 O309 2.216 1_556 S
Co308 O310 2.091 1_556 S
Co308 O312 2.004 . S
Co308 O318 2.021 . S
Co308 O320 2.137 . S
Co308 O321 2.244 . S
O309 Co308 2.216 1_554 S
O309 C316 1.247 . S
O310 Co308 2.091 1_554 S
O310 C316 1.261 . S
C311 O320 1.247 . S
C311 O321 1.272 . S
O312 Co308 2.004 . S
O312 C317 1.259 . S
Co313 O314 2.061 . S
Co313 O319 2.052 . S
Co313 O321 2.135 . S
O314 Co313 2.061 . S
O314 C317 1.235 . S
C315 O318 1.238 . S
C315 O319 1.241 . S
C316 O309 1.247 . S
C316 O310 1.261 . S
C317 O312 1.259 . S
C317 O314 1.235 . S
O318 Co308 2.021 . S
O318 C315 1.238 . S
O319 Co313 2.052 . S
O319 C315 1.241 . S
O320 Co308 2.137 . S
O320 C311 1.247 . S
O321 Co308 2.244 . S
O321 C311 1.272 . S
O321 Co313 2.135 . S
Co322 O323 2.216 . S
Co322 O324 2.091 . S
Co322 O326 2.004 . S
Co322 O332 2.021 . S
Co322 O334 2.137 . S
Co322 O335 2.244 . S
O323 Co322 2.216 . S
O323 C330 1.247 . S
O324 Co322 2.091 . S
O324 C330 1.261 . S
C325 O334 1.247 . S
C325 O335 1.272 . S
O326 Co322 2.004 . S
O326 C331 1.259 . S
Co327 O328 2.061 . S
Co327 O333 2.052 . S
Co327 O335 2.135 1_556 S
O328 Co327 2.061 . S
O328 C331 1.235 1_556 S
C329 O332 1.238 1_556 S
C329 O333 1.241 . S
C330 O323 1.247 . S
C330 O324 1.261 . S
C331 O326 1.259 . S
C331 O328 1.235 1_554 S
O332 Co322 2.021 . S
O332 C329 1.238 1_554 S
O333 Co327 2.052 . S
O333 C329 1.241 . S
O334 Co322 2.137 . S
O334 C325 1.247 . S
O335 Co322 2.244 . S
O335 C325 1.272 . S
O335 Co327 2.135 1_554 S
Co336 O337 2.216 . S
Co336 O338 2.091 . S
Co336 O340 2.004 . S
Co336 O346 2.021 . S
Co336 O348 2.137 . S
Co336 O349 2.244 . S
O337 Co336 2.216 . S
O337 C344 1.247 . S
O338 Co336 2.091 . S
O338 C344 1.261 . S
C339 O348 1.247 . S
C339 O349 1.272 . S
O340 Co336 2.004 . S
O340 C345 1.259 . S
Co341 O342 2.061 . S
Co341 O347 2.052 . S
Co341 O349 2.135 . S
O342 Co341 2.061 . S
O342 C345 1.235 . S
C343 O346 1.238 . S
C343 O347 1.241 . S
C344 O337 1.247 . S
C344 O338 1.261 . S
C345 O340 1.259 . S
C345 O342 1.235 . S
O346 Co336 2.021 . S
O346 C343 1.238 . S
O347 Co341 2.052 . S
O347 C343 1.241 . S
O348 Co336 2.137 . S
O348 C339 1.247 . S
O349 Co336 2.244 . S
O349 C339 1.272 . S
O349 Co341 2.135 . S
Co350 O351 2.216 . S
Co350 O352 2.091 . S
Co350 O354 2.004 . S
Co350 O360 2.021 . S
Co350 O362 2.137 . S
Co350 O363 2.244 . S
O351 Co350 2.216 . S
O351 C358 1.247 . S
O352 Co350 2.091 . S
O352 C358 1.261 . S
C353 O362 1.247 . S
C353 O363 1.272 . S
O354 Co350 2.004 . S
O354 C359 1.259 . S
Co355 O356 2.061 . S
Co355 O361 2.052 . S
Co355 O363 2.135 1_556 S
O356 Co355 2.061 . S
O356 C359 1.235 1_556 S
C357 O360 1.238 1_556 S
C357 O361 1.241 . S
C358 O351 1.247 . S
C358 O352 1.261 . S
C359 O354 1.259 . S
C359 O356 1.235 1_554 S
O360 Co350 2.021 . S
O360 C357 1.238 1_554 S
O361 Co355 2.052 . S
O361 C357 1.241 . S
O362 Co350 2.137 . S
O362 C353 1.247 . S
O363 Co350 2.244 . S
O363 C353 1.272 . S
O363 Co355 2.135 1_554 S
Co364 O365 2.216 1_556 S
Co364 O366 2.091 1_556 S
Co364 O368 2.004 . S
Co364 O374 2.021 . S
Co364 O376 2.137 . S
Co364 O377 2.244 . S
O365 Co364 2.216 1_554 S
O365 C372 1.247 . S
O366 Co364 2.091 1_554 S
O366 C372 1.261 . S
C367 O376 1.247 . S
C367 O377 1.272 . S
O368 Co364 2.004 . S
O368 C373 1.259 . S
Co369 O370 2.061 . S
Co369 O375 2.052 . S
Co369 O377 2.135 . S
O370 Co369 2.061 . S
O370 C373 1.235 . S
C371 O374 1.238 . S
C371 O375 1.241 . S
C372 O365 1.247 . S
C372 O366 1.261 . S
C373 O368 1.259 . S
C373 O370 1.235 . S
O374 Co364 2.021 . S
O374 C371 1.238 . S
O375 Co369 2.052 . S
O375 C371 1.241 . S
O376 Co364 2.137 . S
O376 C367 1.247 . S
O377 Co364 2.244 . S
O377 C367 1.272 . S
O377 Co369 2.135 . S
Co378 O379 2.216 . S
Co378 O380 2.091 . S
Co378 O382 2.004 . S
Co378 O388 2.021 . S
Co378 O390 2.137 . S
Co378 O391 2.244 . S
O379 Co378 2.216 . S
O379 C386 1.247 . S
O380 Co378 2.091 . S
O380 C386 1.261 . S
C381 O390 1.247 . S
C381 O391 1.272 . S
O382 Co378 2.004 . S
O382 C387 1.259 . S
Co383 O384 2.061 . S
Co383 O389 2.052 . S
Co383 O391 2.135 . S
O384 Co383 2.061 . S
O384 C387 1.235 . S
C385 O388 1.238 . S
C385 O389 1.241 . S
C386 O379 1.247 . S
C386 O380 1.261 . S
C387 O382 1.259 . S
C387 O384 1.235 . S
O388 Co378 2.021 . S
O388 C385 1.238 . S
O389 Co383 2.052 . S
O389 C385 1.241 . S
O390 Co378 2.137 . S
O390 C381 1.247 . S
O391 Co378 2.244 . S
O391 C381 1.272 . S
O391 Co383 2.135 . S
Co392 O393 2.216 . S
Co392 O394 2.091 . S
Co392 O396 2.004 . S
Co392 O402 2.021 . S
Co392 O404 2.137 . S
Co392 O405 2.244 . S
O393 Co392 2.216 . S
O393 C400 1.247 . S
O394 Co392 2.091 . S
O394 C400 1.261 . S
C395 O404 1.247 . S
C395 O405 1.272 . S
O396 Co392 2.004 . S
O396 C401 1.259 . S
Co397 O398 2.061 . S
Co397 O403 2.052 . S
Co397 O405 2.135 . S
O398 Co397 2.061 . S
O398 C401 1.235 . S
C399 O402 1.238 . S
C399 O403 1.241 . S
C400 O393 1.247 . S
C400 O394 1.261 . S
C401 O396 1.259 . S
C401 O398 1.235 . S
O402 Co392 2.021 . S
O402 C399 1.238 . S
O403 Co397 2.052 . S
O403 C399 1.241 . S
O404 Co392 2.137 . S
O404 C395 1.247 . S
O405 Co392 2.244 . S
O405 C395 1.272 . S
O405 Co397 2.135 . S
Co406 O407 2.216 . S
Co406 O408 2.091 . S
Co406 O410 2.004 . S
Co406 O416 2.021 . S
Co406 O418 2.137 . S
Co406 O419 2.244 . S
O407 Co406 2.216 . S
O407 C414 1.247 . S
O408 Co406 2.091 . S
O408 C414 1.261 . S
C409 O418 1.247 . S
C409 O419 1.272 . S
O410 Co406 2.004 . S
O410 C415 1.259 . S
Co411 O412 2.061 . S
Co411 O417 2.052 . S
Co411 O419 2.135 . S
O412 Co411 2.061 . S
O412 C415 1.235 . S
C413 O416 1.238 . S
C413 O417 1.241 . S
C414 O407 1.247 . S
C414 O408 1.261 . S
C415 O410 1.259 . S
C415 O412 1.235 . S
O416 Co406 2.021 . S
O416 C413 1.238 . S
O417 Co411 2.052 . S
O417 C413 1.241 . S
O418 Co406 2.137 . S
O418 C409 1.247 . S
O419 Co406 2.244 . S
O419 C409 1.272 . S
O419 Co411 2.135 . S
Co420 O421 2.216 1_554 S
Co420 O422 2.091 1_554 S
Co420 O424 2.004 . S
Co420 O430 2.021 . S
Co420 O432 2.137 . S
Co420 O433 2.244 . S
O421 Co420 2.216 1_556 S
O421 C428 1.247 . S
O422 Co420 2.091 1_556 S
O422 C428 1.261 . S
C423 O432 1.247 . S
C423 O433 1.272 . S
O424 Co420 2.004 . S
O424 C429 1.259 . S
Co425 O426 2.061 . S
Co425 O431 2.052 . S
Co425 O433 2.135 . S
O426 Co425 2.061 . S
O426 C429 1.235 . S
C427 O430 1.238 . S
C427 O431 1.241 . S
C428 O421 1.247 . S
C428 O422 1.261 . S
C429 O424 1.259 . S
C429 O426 1.235 . S
O430 Co420 2.021 . S
O430 C427 1.238 . S
O431 Co425 2.052 . S
O431 C427 1.241 . S
O432 Co420 2.137 . S
O432 C423 1.247 . S
O433 Co420 2.244 . S
O433 C423 1.272 . S
O433 Co425 2.135 . S
Co434 O435 2.216 . S
Co434 O436 2.091 . S
Co434 O438 2.004 . S
Co434 O444 2.021 . S
Co434 O446 2.137 . S
Co434 O447 2.244 . S
O435 Co434 2.216 . S
O435 C442 1.247 . S
O436 Co434 2.091 . S
O436 C442 1.261 . S
C437 O446 1.247 . S
C437 O447 1.272 . S
O438 Co434 2.004 . S
O438 C443 1.259 . S
Co439 O440 2.061 . S
Co439 O445 2.052 . S
Co439 O447 2.135 1_554 S
O440 Co439 2.061 . S
O440 C443 1.235 1_554 S
C441 O444 1.238 1_554 S
C441 O445 1.241 . S
C442 O435 1.247 . S
C442 O436 1.261 . S
C443 O438 1.259 . S
C443 O440 1.235 1_556 S
O444 Co434 2.021 . S
O444 C441 1.238 1_556 S
O445 Co439 2.052 . S
O445 C441 1.241 . S
O446 Co434 2.137 . S
O446 C437 1.247 . S
O447 Co434 2.244 . S
O447 C437 1.272 . S
O447 Co439 2.135 1_556 S
C93 C9 1.481 . S
C23 C107 1.481 1_565 S
C65 C37 1.481 . S
C51 C79 1.481 1_546 S
C121 C205 1.481 . S
C219 C135 1.481 1_565 S
C149 C177 1.481 . S
C191 C163 1.481 1_546 S
C233 C317 1.481 . S
C247 C331 1.481 1_556 S
C289 C261 1.481 . S
C303 C275 1.481 . S
C345 C429 1.481 . S
C359 C443 1.481 1_554 S
C401 C373 1.481 . S
C387 C415 1.481 . S
C8 C106 1.495 . S
C64 C22 1.495 . S
C78 C36 1.495 . S
C50 C92 1.495 . S
C120 C218 1.495 . S
C176 C134 1.495 . S
C190 C148 1.495 . S
C204 C162 1.495 . S
C232 C330 1.495 . S
C246 C288 1.495 . S
C302 C260 1.495 . S
C274 C316 1.495 . S
C344 C442 1.495 . S
C400 C358 1.495 . S
C372 C414 1.495 . S
C386 C428 1.495 . S
C423 C3 1.518 . S
C213 C17 1.518 1_655 S
C31 C395 1.518 . S
C45 C185 1.518 . S
C59 C367 1.518 . S
C73 C157 1.518 . S
C87 C339 1.518 . S
C129 C101 1.518 1_655 S
C311 C115 1.518 . S
C143 C283 1.518 . S
C255 C171 1.518 . S
C227 C199 1.518 . S
C241 C437 1.518 . S
C269 C409 1.518 1_655 S
C297 C381 1.518 1_655 S
C353 C325 1.518 . S
C7 C105 1.425 . S
C21 C63 1.425 . S
C77 C35 1.425 . S
C49 C91 1.425 . S
C217 C119 1.425 . S
C175 C133 1.425 . S
C147 C189 1.425 . S
C203 C161 1.425 . S
C329 C231 1.425 . S
C287 C245 1.425 . S
C301 C259 1.425 . S
C315 C273 1.425 . S
C343 C441 1.425 . S
C357 C399 1.425 . S
C371 C413 1.425 . S
C427 C385 1.425 . S
