# Generated by pormake.
# Topology wjh, (4)-cn, num edge types: 1
# Building blocks:
#     Node 0, Type 0, BuildingBlock: QUQFOY_clean_sbu_3, # of connection points: 4
#     Node 1, Type 0, BuildingBlock: QUQFOY_clean_sbu_3, # of connection points: 4
#     Node 2, Type 0, BuildingBlock: QUQFOY_clean_sbu_3, # of connection points: 4
#     Node 3, Type 0, BuildingBlock: QUQFOY_clean_sbu_3, # of connection points: 4
#     Node 4, Type 0, BuildingBlock: QUQFOY_clean_sbu_3, # of connection points: 4
#     Node 5, Type 0, BuildingBlock: QUQFOY_clean_sbu_3, # of connection points: 4
#     Node 6, Type 0, BuildingBlock: QUQFOY_clean_sbu_3, # of connection points: 4
#     Node 7, Type 0, BuildingBlock: QUQFOY_clean_sbu_3, # of connection points: 4
#     Node 8, Type 0, BuildingBlock: QUQFOY_clean_sbu_3, # of connection points: 4
#     Node 9, Type 0, BuildingBlock: QUQFOY_clean_sbu_3, # of connection points: 4
#     Node 10, Type 0, BuildingBlock: QUQFOY_clean_sbu_3, # of connection points: 4
#     Node 11, Type 0, BuildingBlock: QUQFOY_clean_sbu_3, # of connection points: 4
#     Edge 12, Type (0, 0), BuildingBlock: KIFKEQ_clean_linker_1, # of connection points: 2
#     Edge 13, Type (0, 0), BuildingBlock: KIFKEQ_clean_linker_1, # of connection points: 2
#     Edge 14, Type (0, 0), BuildingBlock: KIFKEQ_clean_linker_1, # of connection points: 2
#     Edge 15, Type (0, 0), BuildingBlock: KIFKEQ_clean_linker_1, # of connection points: 2
#     Edge 16, Type (0, 0), BuildingBlock: KIFKEQ_clean_linker_1, # of connection points: 2
#     Edge 17, Type (0, 0), BuildingBlock: KIFKEQ_clean_linker_1, # of connection points: 2
#     Edge 18, Type (0, 0), BuildingBlock: KIFKEQ_clean_linker_1, # of connection points: 2
#     Edge 19, Type (0, 0), BuildingBlock: KIFKEQ_clean_linker_1, # of connection points: 2
#     Edge 20, Type (0, 0), BuildingBlock: KIFKEQ_clean_linker_1, # of connection points: 2
#     Edge 21, Type (0, 0), BuildingBlock: KIFKEQ_clean_linker_1, # of connection points: 2
#     Edge 22, Type (0, 0), BuildingBlock: KIFKEQ_clean_linker_1, # of connection points: 2
#     Edge 23, Type (0, 0), BuildingBlock: KIFKEQ_clean_linker_1, # of connection points: 2
#     Edge 24, Type (0, 0), BuildingBlock: KIFKEQ_clean_linker_1, # of connection points: 2
#     Edge 25, Type (0, 0), BuildingBlock: KIFKEQ_clean_linker_1, # of connection points: 2
#     Edge 26, Type (0, 0), BuildingBlock: KIFKEQ_clean_linker_1, # of connection points: 2
#     Edge 27, Type (0, 0), BuildingBlock: KIFKEQ_clean_linker_1, # of connection points: 2
#     Edge 28, Type (0, 0), BuildingBlock: KIFKEQ_clean_linker_1, # of connection points: 2
#     Edge 29, Type (0, 0), BuildingBlock: KIFKEQ_clean_linker_1, # of connection points: 2
#     Edge 30, Type (0, 0), BuildingBlock: KIFKEQ_clean_linker_1, # of connection points: 2
#     Edge 31, Type (0, 0), BuildingBlock: KIFKEQ_clean_linker_1, # of connection points: 2
#     Edge 32, Type (0, 0), BuildingBlock: KIFKEQ_clean_linker_1, # of connection points: 2
#     Edge 33, Type (0, 0), BuildingBlock: KIFKEQ_clean_linker_1, # of connection points: 2
#     Edge 34, Type (0, 0), BuildingBlock: KIFKEQ_clean_linker_1, # of connection points: 2
#     Edge 35, Type (0, 0), BuildingBlock: KIFKEQ_clean_linker_1, # of connection points: 2
# Relax obj value: 0.075
# Max RMSD: 0.098
# Mean RMSD: 0.098
data_MOF--net-wjh--node1-QUQFOY_clean_sbu_3--edge1-KIFKEQ_clean_linker_1
_symmetry_space_group_name_H-M    P1
_symmetry_Int_Tables_number       1
_symmetry_cell_setting            triclinic
loop_
_symmetry_equiv_pos_as_xyz
'x, y, z'
_cell_length_a     67.115069
_cell_length_b     67.240035
_cell_length_c     28.591771
_cell_angle_alpha  89.719996
_cell_angle_beta   90.142657
_cell_angle_gamma 119.7894
loop_
_atom_site_label
_atom_site_type_symbol
_atom_site_fract_x
_atom_site_fract_y
_atom_site_fract_z
_atom_type_partial_charge
C0 C 0.50565 0.11181 0.94759 0.0
O1 O 0.51313 0.10209 -0.02502 0.0
Cd2 Cd 0.50115 0.09007 0.05322 0.0
O3 O 0.4905 0.11678 0.96149 0.0
Cd4 Cd 0.47045 0.11376 0.03954 0.0
C5 C 0.44253 0.05509 0.04009 0.0
O6 O 0.50323 0.12239 0.08968 0.0
O7 O 0.47064 0.10708 0.12469 0.0
O8 O 0.47965 0.15397 0.03272 0.0
C9 C 0.4923 0.11669 0.12783 0.0
O10 O 0.46199 0.05789 0.05249 0.0
C11 C 0.46054 0.15113 0.04717 0.0
O12 O 0.44023 0.07226 0.02842 0.0
O13 O 0.44488 0.13046 0.05387 0.0
C14 C 0.36334 0.51677 0.10686 0.0
O15 O 0.38063 0.52484 0.13385 0.0
Cd16 Cd 0.38148 0.51367 0.21262 0.0
O17 O 0.34343 0.5017 0.12163 0.0
Cd18 Cd 0.32683 0.48298 0.20112 0.0
C19 C 0.35736 0.45473 0.20248 0.0
O20 O 0.35152 0.51594 0.25011 0.0
O21 O 0.33432 0.48344 0.28566 0.0
O22 O 0.29603 0.49269 0.19529 0.0
C23 C 0.34651 0.50504 0.28842 0.0
O24 O 0.37413 0.47427 0.21337 0.0
C25 C 0.27977 0.47366 0.20987 0.0
O26 O 0.33782 0.45242 0.19144 0.0
O27 O 0.2847 0.45785 0.21633 0.0
C28 C 0.81876 0.37573 0.27531 0.0
O29 O 0.82895 0.39262 0.30282 0.0
Cd30 Cd 0.83922 0.39218 0.3822 0.0
O31 O 0.81254 0.35536 0.28961 0.0
Cd32 Cd 0.81488 0.33798 0.36809 0.0
C33 C 0.87374 0.368 0.37068 0.0
O34 O 0.80632 0.36222 0.41783 0.0
O35 O 0.82152 0.34473 0.45301 0.0
O36 O 0.77453 0.30724 0.36206 0.0
C37 C 0.812 0.35689 0.45605 0.0
O38 O 0.87108 0.38463 0.38351 0.0
C39 C 0.77739 0.29093 0.37638 0.0
O40 O 0.85655 0.34894 0.35789 0.0
O41 O 0.7981 0.2958 0.38263 0.0
C42 C 0.40738 0.82444 0.434 0.0
O43 O 0.39643 0.83088 0.4601 0.0
Cd44 Cd 0.40855 0.84679 0.5353 0.0
O45 O 0.42483 0.82351 0.44965 0.0
Cd46 Cd 0.44365 0.82791 0.53038 0.0
C47 C 0.46728 0.88546 0.51903 0.0
O48 O 0.41109 0.81895 0.581 0.0
O49 O 0.44445 0.83988 0.61195 0.0
O50 O 0.4324 0.78762 0.53744 0.0
C51 C 0.42287 0.82808 0.61733 0.0
O52 O 0.44646 0.88036 0.52494 0.0
C53 C 0.45193 0.78988 0.54629 0.0
O54 O 0.47275 0.86972 0.51824 0.0
O55 O 0.46894 0.8102 0.54372 0.0
C56 C 0.54914 0.42359 0.60854 0.0
O57 O 0.53213 0.41779 0.63556 0.0
Cd58 Cd 0.53254 0.4286 0.71467 0.0
O59 O 0.56963 0.43688 0.62316 0.0
Cd60 Cd 0.58691 0.45615 0.70161 0.0
C61 C 0.55903 0.4873 0.70405 0.0
O62 O 0.56143 0.42402 0.75148 0.0
O63 O 0.57986 0.45644 0.78646 0.0
O64 O 0.61519 0.44329 0.70316 0.0
C65 C 0.56707 0.43489 0.78961 0.0
O66 O 0.54172 0.46835 0.71609 0.0
C67 C 0.63281 0.46243 0.71199 0.0
O68 O 0.57787 0.48831 0.6919 0.0
O69 O 0.62994 0.47978 0.7115 0.0
C70 C 0.09869 0.56569 0.77287 0.0
O71 O 0.08987 0.54854 0.8003 0.0
Cd72 Cd 0.0782 0.54793 0.87911 0.0
O73 O 0.10327 0.58556 0.78716 0.0
Cd74 Cd 0.10126 0.60239 0.86624 0.0
C75 C 0.04261 0.57144 0.8682 0.0
O76 O 0.11028 0.57816 0.91594 0.0
O77 O 0.0948 0.5953 0.951 0.0
O78 O 0.14144 0.63333 0.85932 0.0
C79 C 0.10448 0.58328 0.95411 0.0
O80 O 0.04578 0.55487 0.8795 0.0
C81 C 0.1385 0.64953 0.8736 0.0
O82 O 0.05954 0.59099 0.85677 0.0
O83 O 0.11778 0.64449 0.8804 0.0
C84 C 0.82046 0.42326 0.93905 0.0
O85 O 0.83175 0.41748 0.91225 0.0
Cd86 Cd 0.84221 0.42829 0.83299 0.0
O87 O 0.81322 0.43655 0.92411 0.0
Cd88 Cd 0.81532 0.4559 0.84534 0.0
C89 C 0.87424 0.48695 0.84278 0.0
O90 O 0.8088 0.42374 0.79612 0.0
O91 O 0.82267 0.45613 0.76047 0.0
O92 O 0.77426 0.44314 0.8439 0.0
C93 C 0.81398 0.43458 0.75777 0.0
O94 O 0.87268 0.46801 0.83102 0.0
C95 C 0.77574 0.46229 0.83468 0.0
O96 O 0.8564 0.48799 0.85479 0.0
O97 O 0.7959 0.47961 0.83488 0.0
C98 C 0.36317 0.82871 0.09882 0.0
O99 O 0.38023 0.83767 0.07124 0.0
Cd100 Cd 0.38021 0.8503 -0.00654 0.0
O101 O 0.34332 0.82466 0.08504 0.0
Cd102 Cd 0.3265 0.82815 0.00695 0.0
C103 C 0.35765 0.88642 0.00871 0.0
O104 O 0.34965 0.81908 0.95491 0.0
O105 O 0.33513 0.83815 0.92351 0.0
O106 O 0.2958 0.78791 0.01175 0.0
C107 C 0.34545 0.82685 0.91812 0.0
O108 O 0.37395 0.88312 -0.00411 0.0
C109 C 0.27943 0.79076 -0.00222 0.0
O110 O 0.33807 0.86954 0.02019 0.0
O111 O 0.28423 0.81145 -0.00804 0.0
C112 C 0.50294 0.37659 0.27309 0.0
O113 O 0.50947 0.3935 0.24537 0.0
Cd114 Cd 0.49884 0.3931 0.16594 0.0
O115 O 0.48898 0.35621 0.25905 0.0
Cd116 Cd 0.4694 0.33886 0.18087 0.0
C117 C 0.44018 0.36861 0.17742 0.0
O118 O 0.50213 0.36322 0.13094 0.0
O119 O 0.46961 0.34554 0.09581 0.0
O120 O 0.47916 0.30813 0.1875 0.0
C121 C 0.49123 0.35781 0.09273 0.0
O122 O 0.45939 0.38532 0.16444 0.0
C123 C 0.46008 0.29183 0.17339 0.0
O124 O 0.4385 0.34961 0.19059 0.0
O125 O 0.44422 0.29671 0.16699 0.0
C126 C 0.09815 0.51734 0.4387 0.0
O127 O 0.08887 0.52538 0.41155 0.0
Cd128 Cd 0.07705 0.51433 0.33284 0.0
O129 O 0.1031 0.50231 0.42418 0.0
Cd130 Cd 0.10108 0.48358 0.345 0.0
C131 C 0.04238 0.45541 0.34368 0.0
O132 O 0.10946 0.51671 0.29576 0.0
O133 O 0.09452 0.48433 0.26028 0.0
O134 O 0.14146 0.493 0.35114 0.0
C135 C 0.10388 0.50594 0.25746 0.0
O136 O 0.04509 0.47497 0.33249 0.0
C137 C 0.13869 0.47397 0.33668 0.0
O138 O 0.0596 0.45308 0.35482 0.0
O139 O 0.11801 0.45828 0.3302 0.0
C140 C 0.55569 0.11765 0.61339 0.0
O141 O 0.53856 0.1117 0.58665 0.0
Cd142 Cd 0.53514 0.0968 0.51056 0.0
O143 O 0.57409 0.11853 0.59823 0.0
Cd144 Cd 0.5893 0.1148 0.51797 0.0
C145 C 0.55412 0.05715 0.52688 0.0
O146 O 0.56631 0.12522 0.46803 0.0
O147 O 0.58054 0.10658 0.43424 0.0
O148 O 0.62089 0.15456 0.52254 0.0
C149 C 0.56975 0.11752 0.43048 0.0
O150 O 0.53876 0.06273 0.52017 0.0
C151 C 0.63674 0.1512 0.50748 0.0
O152 O 0.57535 0.07255 0.52904 0.0
O153 O 0.63128 0.13035 0.50132 0.0
C154 C 0.41199 0.56467 0.7724 0.0
O155 O 0.40424 0.54739 0.74569 0.0
Cd156 Cd 0.41583 0.54682 0.66736 0.0
O157 O 0.42689 0.5846 0.7575 0.0
Cd158 Cd 0.44563 0.60118 0.67808 0.0
C159 C 0.47488 0.57158 0.67733 0.0
O160 O 0.41308 0.57627 0.62847 0.0
O161 O 0.4457 0.59366 0.59346 0.0
O162 O 0.43354 0.62998 0.67768 0.0
C163 C 0.42407 0.58134 0.59037 0.0
O164 O 0.45537 0.55461 0.66695 0.0
C165 C 0.45276 0.64733 0.66778 0.0
O166 O 0.47695 0.59103 0.68774 0.0
O167 O 0.46989 0.64406 0.66694 0.0
H168 H 0.47331 0.10557 0.21518 0.0
H169 H 0.53761 0.13088 0.14143 0.0
H170 H 0.4925 0.10655 0.28857 0.0
H171 H 0.55676 0.13202 0.21474 0.0
H172 H 0.57488 0.10317 0.34454 0.0
H173 H 0.55627 0.10374 0.27152 0.0
H174 H 0.52197 0.13479 0.34286 0.0
H175 H 0.54042 0.13406 0.41602 0.0
C176 C 0.49154 0.11144 0.21469 0.0
C177 C 0.50393 0.11806 0.17257 0.0
C178 C 0.50254 0.11211 0.2567 0.0
C179 C 0.52611 0.11929 0.25731 0.0
C180 C 0.53853 0.12614 0.21523 0.0
C181 C 0.52757 0.1256 0.17332 0.0
C182 C 0.56342 0.11017 0.3446 0.0
C183 C 0.55908 0.11853 0.38599 0.0
C184 C 0.55286 0.1106 0.30276 0.0
C185 C 0.53765 0.11929 0.30154 0.0
C186 C 0.53341 0.12777 0.34289 0.0
C187 C 0.54409 0.12747 0.38467 0.0
H188 H 0.33997 0.4858 0.37542 0.0
H189 H 0.37732 0.55033 0.30175 0.0
H190 H 0.35872 0.5047 0.44824 0.0
H191 H 0.39583 0.56924 0.37466 0.0
H192 H 0.44333 0.58797 0.50344 0.0
H193 H 0.4242 0.56969 0.43038 0.0
H194 H 0.35954 0.533 0.50364 0.0
H195 H 0.37865 0.55101 0.57666 0.0
C196 C 0.35209 0.50403 0.37483 0.0
C197 C 0.35721 0.51656 0.33286 0.0
C198 C 0.36274 0.51487 0.41656 0.0
C199 C 0.37878 0.53845 0.41714 0.0
C200 C 0.38376 0.551 0.3752 0.0
C201 C 0.37305 0.54019 0.33352 0.0
C202 C 0.42503 0.57604 0.50389 0.0
C203 C 0.41251 0.57087 0.54579 0.0
C204 C 0.41405 0.56566 0.46204 0.0
C205 C 0.39037 0.54986 0.46132 0.0
C206 C 0.37785 0.54487 0.5032 0.0
C207 C 0.38879 0.55529 0.54496 0.0
H208 H 0.82576 0.45364 0.67039 0.0
H209 H 0.79947 0.38931 0.74469 0.0
H210 H 0.82467 0.4344 0.59738 0.0
H211 H 0.79808 0.37009 0.67176 0.0
H212 H 0.79696 0.38737 0.46987 0.0
H213 H 0.7967 0.4059 0.54278 0.0
H214 H 0.82522 0.36925 0.61543 0.0
H215 H 0.82518 0.35045 0.54263 0.0
C216 C 0.81966 0.43539 0.67108 0.0
C217 C 0.81279 0.423 0.71326 0.0
C218 C 0.81892 0.42436 0.62928 0.0
C219 C 0.81134 0.40075 0.62889 0.0
C220 C 0.80429 0.38836 0.67105 0.0
C221 C 0.80498 0.39936 0.71277 0.0
C222 C 0.80309 0.3832 0.50144 0.0
C223 C 0.81113 0.36748 0.50054 0.0
C224 C 0.80307 0.39393 0.54312 0.0
C225 C 0.81101 0.38909 0.58477 0.0
C226 C 0.81878 0.37315 0.58396 0.0
C227 C 0.81886 0.36247 0.54225 0.0
H228 H 0.38052 0.79569 0.64676 0.0
H229 H 0.43995 0.85927 0.68816 0.0
H230 H 0.36137 0.79501 0.72013 0.0
H231 H 0.42039 0.85884 0.76088 0.0
H232 H 0.35722 0.85719 0.84564 0.0
H233 H 0.37655 0.85748 0.77274 0.0
H234 H 0.3761 0.79572 0.816 0.0
H235 H 0.35743 0.79573 0.88961 0.0
C236 C 0.38943 0.80951 0.6715 0.0
C237 C 0.41169 0.82752 0.66195 0.0
C238 C 0.37851 0.80908 0.71331 0.0
C239 C 0.38948 0.82691 0.74563 0.0
C240 C 0.41167 0.84498 0.73614 0.0
C241 C 0.42283 0.84515 0.69482 0.0
C242 C 0.36117 0.84364 0.83947 0.0
C243 C 0.35587 0.82643 0.87313 0.0
C244 C 0.3723 0.8439 0.79804 0.0
C245 C 0.37775 0.82665 0.78925 0.0
C246 C 0.372 0.80916 0.8223 0.0
C247 C 0.36138 0.8092 0.86421 0.0
H248 H 0.47178 0.35118 0.00608 0.0
H249 H 0.53662 0.38827 0.07861 0.0
H250 H 0.49059 0.36981 0.93293 0.0
H251 H 0.55546 0.40662 0.00536 0.0
H252 H 0.57417 0.45408 0.87649 0.0
H253 H 0.55599 0.43499 0.94984 0.0
H254 H 0.51864 0.37055 0.87698 0.0
H255 H 0.5365 0.38964 0.80368 0.0
C256 C 0.49007 0.3632 0.00633 0.0
C257 C 0.50271 0.36831 0.04807 0.0
C258 C 0.50086 0.37378 0.96442 0.0
C259 C 0.5245 0.38972 0.96345 0.0
C260 C 0.53717 0.39465 0.00514 0.0
C261 C 0.5264 0.38403 0.04701 0.0
C262 C 0.56211 0.43584 0.8762 0.0
C263 C 0.55669 0.42338 0.83434 0.0
C264 C 0.55179 0.42489 0.91821 0.0
C265 C 0.53585 0.40128 0.91912 0.0
C266 C 0.53062 0.38881 0.87728 0.0
C267 C 0.54096 0.39973 0.83535 0.0
H268 H 0.092 0.48708 0.17033 0.0
H269 H 0.11876 0.55138 0.2437 0.0
H270 H 0.09299 0.50636 0.09709 0.0
H271 H 0.12002 0.57067 0.17041 0.0
H272 H 0.09196 0.58999 0.04091 0.0
H273 H 0.09261 0.57154 0.11417 0.0
H274 H 0.12069 0.53475 0.04171 0.0
H275 H 0.11978 0.55296 0.96838 0.0
C276 C 0.09821 0.50534 0.17077 0.0
C277 C 0.10522 0.51769 0.21278 0.0
C278 C 0.09889 0.5164 0.1288 0.0
C279 C 0.10654 0.54003 0.12802 0.0
C280 C 0.11376 0.5524 0.17 0.0
C281 C 0.11316 0.54136 0.21191 0.0
C282 C 0.09834 0.57802 0.04067 0.0
C283 C 0.10574 0.57287 -0.00114 0.0
C284 C 0.09882 0.56754 0.08265 0.0
C285 C 0.10666 0.55165 0.08367 0.0
C286 C 0.11429 0.5467 0.04193 0.0
C287 C 0.11389 0.55724 -1e-05 0.0
H288 H 0.49219 0.27828 0.1804 0.0
H289 H 0.42275 0.25449 0.13381 0.0
H290 H 0.49062 0.24402 0.14864 0.0
H291 H 0.42123 0.22004 0.10153 0.0
H292 H 0.4922 0.19662 0.03918 0.0
H293 H 0.49042 0.2292 0.071 0.0
H294 H 0.42153 0.18393 0.12018 0.0
H295 H 0.42325 0.1511 0.08784 0.0
C296 C 0.47645 0.26562 0.16384 0.0
C297 C 0.45762 0.26928 0.15969 0.0
C298 C 0.47562 0.246 0.14512 0.0
C299 C 0.45593 0.22933 0.1217 0.0
C300 C 0.43668 0.23246 0.11931 0.0
C301 C 0.43755 0.25223 0.1379 0.0
C302 C 0.47651 0.19354 0.05622 0.0
C303 C 0.45789 0.17112 0.06092 0.0
C304 C 0.47558 0.21228 0.07496 0.0
C305 C 0.45598 0.20926 0.09898 0.0
C306 C 0.43691 0.18695 0.10193 0.0
C307 C 0.43789 0.16811 0.08331 0.0
H308 H 0.26612 0.50564 0.20258 0.0
H309 H 0.24248 0.43646 0.25033 0.0
H310 H 0.23178 0.50405 0.23451 0.0
H311 H 0.20795 0.43492 0.28279 0.0
H312 H 0.18424 0.50571 0.34398 0.0
H313 H 0.21693 0.50398 0.31215 0.0
H314 H 0.17171 0.43508 0.26413 0.0
H315 H 0.13877 0.43675 0.2965 0.0
C316 C 0.25347 0.48995 0.21945 0.0
C317 C 0.2572 0.4712 0.22386 0.0
C318 C 0.23382 0.48912 0.23826 0.0
C319 C 0.21716 0.4695 0.26203 0.0
C320 C 0.22035 0.45033 0.26473 0.0
C321 C 0.24017 0.4512 0.24604 0.0
C322 C 0.1812 0.49004 0.32719 0.0
C323 C 0.15876 0.47139 0.32283 0.0
C324 C 0.2 0.48913 0.30844 0.0
C325 C 0.19703 0.46953 0.28476 0.0
C326 C 0.1747 0.45046 0.28213 0.0
C327 C 0.15579 0.45141 0.30075 0.0
H328 H 0.6513 0.19684 0.51509 0.0
H329 H 0.67327 0.15035 0.46488 0.0
H330 H 0.68551 0.22903 0.48184 0.0
H331 H 0.70776 0.18287 0.43117 0.0
H332 H 0.77746 0.25341 0.41605 0.0
H333 H 0.74466 0.21901 0.44916 0.0
H334 H 0.69929 0.24339 0.40291 0.0
H335 H 0.73181 0.27756 0.37025 0.0
C336 C 0.66356 0.19346 0.4974 0.0
C337 C 0.65938 0.17087 0.49269 0.0
C338 C 0.68315 0.21198 0.47785 0.0
C339 C 0.6993 0.20861 0.45301 0.0
C340 C 0.69572 0.18615 0.45003 0.0
C341 C 0.67594 0.16749 0.46944 0.0
C342 C 0.76043 0.25124 0.41231 0.0
C343 C 0.75738 0.26839 0.39051 0.0
C344 C 0.7416 0.2315 0.43136 0.0
C345 C 0.7193 0.22852 0.42948 0.0
C346 C 0.71623 0.24527 0.40601 0.0
C347 C 0.73493 0.26483 0.3868 0.0
H348 H 0.48904 0.78226 0.54363 0.0
H349 H 0.41897 0.75251 0.59074 0.0
H350 H 0.49036 0.74857 0.57319 0.0
H351 H 0.42063 0.72022 0.62314 0.0
H352 H 0.41781 0.65308 0.63682 0.0
H353 H 0.41896 0.68703 0.60587 0.0
H354 H 0.49186 0.72611 0.63403 0.0
H355 H 0.49077 0.69103 0.66212 0.0
C356 C 0.47398 0.7686 0.56047 0.0
C357 C 0.45374 0.76989 0.56387 0.0
C358 C 0.47475 0.7493 0.57792 0.0
C359 C 0.45546 0.73109 0.60018 0.0
C360 C 0.43562 0.73309 0.60478 0.0
C361 C 0.43468 0.75189 0.58636 0.0
C362 C 0.43411 0.66892 0.63688 0.0
C363 C 0.45413 0.66928 0.65265 0.0
C364 C 0.4348 0.68868 0.61925 0.0
C365 C 0.45544 0.70987 0.61792 0.0
C366 C 0.47559 0.71027 0.63391 0.0
C367 C 0.47498 0.69017 0.65059 0.0
H368 H 0.67709 0.49961 0.7134 0.0
H369 H 0.63758 0.42782 0.74856 0.0
H370 H 0.71189 0.50047 0.74258 0.0
H371 H 0.6713 0.42887 0.7808 0.0
H372 H 0.73652 0.42773 0.79862 0.0
H373 H 0.70388 0.42885 0.76632 0.0
H374 H 0.73465 0.50045 0.80336 0.0
H375 H 0.76856 0.49952 0.83259 0.0
C376 C 0.67584 0.48403 0.72739 0.0
C377 C 0.65458 0.46355 0.72774 0.0
C378 C 0.69578 0.48453 0.74473 0.0
C379 C 0.69488 0.46467 0.76396 0.0
C380 C 0.67334 0.44442 0.76498 0.0
C381 C 0.65371 0.4438 0.7466 0.0
C382 C 0.73632 0.44373 0.8003 0.0
C383 C 0.75512 0.46346 0.81885 0.0
C384 C 0.71733 0.44438 0.78189 0.0
C385 C 0.71599 0.46466 0.78257 0.0
C386 C 0.73486 0.48449 0.80147 0.0
C387 C 0.75429 0.48395 0.81885 0.0
H388 H 0.13832 0.68674 0.91367 0.0
H389 H 0.18412 0.66349 0.86512 0.0
H390 H 0.17122 0.72141 0.94519 0.0
H391 H 0.21675 0.69795 0.89612 0.0
H392 H 0.26604 0.74533 0.00514 0.0
H393 H 0.23172 0.7127 -0.02628 0.0
H394 H 0.2073 0.75776 0.92576 0.0
H395 H 0.24187 0.79069 0.95772 0.0
C396 C 0.15539 0.68916 0.90899 0.0
C397 C 0.15847 0.67219 0.88689 0.0
C398 C 0.17428 0.70906 0.92713 0.0
C399 C 0.19669 0.71239 0.92397 0.0
C400 C 0.19976 0.69581 0.90022 0.0
C401 C 0.18098 0.67607 0.88195 0.0
C402 C 0.25329 0.74837 -0.01158 0.0
C403 C 0.25686 0.77076 -0.01603 0.0
C404 C 0.23363 0.72959 0.96992 0.0
C405 C 0.21682 0.73253 0.94638 0.0
C406 C 0.21985 0.7548 0.94364 0.0
C407 C 0.23968 0.7737 0.96203 0.0
H408 H 0.53236 0.13786 0.647 0.0
H409 H 0.57203 0.10675 0.6917 0.0
H410 H 0.52241 0.14009 0.72775 0.0
H411 H 0.56102 0.10759 0.77263 0.0
H412 H 0.54815 0.12162 0.91915 0.0
H413 H 0.56307 0.12706 0.84001 0.0
H414 H 0.4985 0.11755 0.78688 0.0
H415 H 0.48422 0.11351 0.86678 0.0
C416 C 0.5391 0.13163 0.67434 0.0
C417 C 0.55302 0.12216 0.66305 0.0
C418 C 0.53313 0.13262 0.72076 0.0
C419 C 0.54046 0.12366 0.75727 0.0
C420 C 0.55517 0.11496 0.74593 0.0
C421 C 0.56155 0.11443 0.69942 0.0
C422 C 0.53724 0.12096 0.89052 0.0
C423 C 0.51495 0.11705 0.89923 0.0
C424 C 0.54574 0.12387 0.8449 0.0
C425 C 0.53203 0.12249 0.80637 0.0
C426 C 0.50985 0.11911 0.81532 0.0
C427 C 0.50151 0.11667 0.86122 0.0
H428 H 0.36873 0.53539 0.80221 0.0
H429 H 0.43591 0.58476 0.85273 0.0
H430 H 0.35481 0.52556 0.88204 0.0
H431 H 0.42267 0.57389 0.93308 0.0
H432 H 0.39205 0.56003 0.07635 0.0
H433 H 0.402 0.57368 -0.00369 0.0
H434 H 0.3548 0.50542 0.94631 0.0
H435 H 0.34378 0.49242 0.02677 0.0
C436 C 0.38054 0.54417 0.83064 0.0
C437 C 0.40341 0.56087 0.82124 0.0
C438 C 0.37264 0.53832 0.87664 0.0
C439 C 0.38755 0.54855 0.9148 0.0
C440 C 0.41039 0.56576 0.90514 0.0
C441 C 0.41812 0.57202 0.85894 0.0
C442 C 0.38354 0.54807 0.04808 0.0
C443 C 0.36711 0.52516 0.05781 0.0
C444 C 0.38946 0.55582 0.00198 0.0
C445 C 0.37959 0.54072 0.96407 0.0
C446 C 0.36264 0.51784 -0.02597 0.0
C447 C 0.35629 0.51024 0.0203 0.0
H448 H 0.80168 0.43472 0.01307 0.0
H449 H 0.82965 0.39125 -0.02388 0.0
H450 H 0.79719 0.421 0.09404 0.0
H451 H 0.82562 0.37806 0.05632 0.0
H452 H 0.80321 0.34634 0.19969 0.0
H453 H 0.79962 0.3559 0.11844 0.0
H454 H 0.82222 0.42572 0.15898 0.0
H455 H 0.82533 0.41619 0.23946 0.0
C456 C 0.80674 0.42219 0.02204 0.0
C457 C 0.81621 0.4143 -0.01202 0.0
C458 C 0.80427 0.41437 0.0685 0.0
C459 C 0.81108 0.3984 0.0819 0.0
C460 C 0.81987 0.39006 0.04741 0.0
C461 C 0.8224 0.39788 0.00128 0.0
C462 C 0.80715 0.36364 0.19128 0.0
C463 C 0.81476 0.38048 0.22622 0.0
C464 C 0.8052 0.36918 0.14465 0.0
C465 C 0.81071 0.39166 0.13196 0.0
C466 C 0.81754 0.40821 0.16729 0.0
C467 C 0.81954 0.40272 0.21361 0.0
H468 H 0.43433 0.83406 0.35587 0.0
H469 H 0.36389 0.80451 0.40034 0.0
H470 H 0.4224 0.83267 0.27469 0.0
H471 H 0.3516 0.80174 0.31941 0.0
H472 H 0.34049 0.82812 0.17919 0.0
H473 H 0.35065 0.82427 0.25941 0.0
H474 H 0.40458 0.81271 0.20778 0.0
H475 H 0.39518 0.81791 0.12821 0.0
C476 C 0.41621 0.82659 0.34808 0.0
C477 C 0.40008 0.81949 0.38442 0.0
C478 C 0.40926 0.82575 0.30143 0.0
C479 C 0.38593 0.81735 0.28996 0.0
C480 C 0.36974 0.80897 0.32649 0.0
C481 C 0.37675 0.81027 0.37302 0.0
C482 C 0.35434 0.82452 0.18513 0.0
C483 C 0.36711 0.8235 0.14739 0.0
C484 C 0.36018 0.8222 0.23123 0.0
C485 C 0.37867 0.81832 0.24067 0.0
C486 C 0.39069 0.81628 0.20246 0.0
C487 C 0.38515 0.81906 0.15661 0.0
H488 H 0.57915 0.43538 0.53393 0.0
H489 H 0.50811 0.39139 0.57234 0.0
H490 H 0.56982 0.42182 0.45313 0.0
H491 H 0.49883 0.37834 0.4923 0.0
H492 H 0.48958 0.34704 0.34892 0.0
H493 H 0.50284 0.35648 0.42995 0.0
H494 H 0.54914 0.42654 0.38873 0.0
H495 H 0.53639 0.41713 0.30846 0.0
C496 C 0.56163 0.42276 0.52532 0.0
C497 C 0.54441 0.41469 0.55973 0.0
C498 C 0.55623 0.41504 0.47895 0.0
C499 C 0.53352 0.39897 0.46601 0.0
C500 C 0.51653 0.39044 0.50085 0.0
C501 C 0.52188 0.39817 0.54689 0.0
C502 C 0.50275 0.36437 0.35714 0.0
C503 C 0.5117 0.38131 0.32207 0.0
C504 C 0.51031 0.36984 0.40363 0.0
C505 C 0.52706 0.39234 0.41606 0.0
C506 C 0.53648 0.409 0.38061 0.0
C507 C 0.52893 0.40358 0.33442 0.0
H508 H 0.112 0.56051 0.46844 0.0
H509 H 0.0941 0.4932 0.51924 0.0
H510 H 0.11586 0.57422 0.54822 0.0
H511 H 0.09628 0.50626 0.59951 0.0
H512 H 0.11302 0.53667 0.74282 0.0
H513 H 0.11662 0.52669 0.66296 0.0
H514 H 0.09569 0.57428 0.61211 0.0
H515 H 0.09378 0.5853 0.69241 0.0
C516 C 0.10888 0.54862 0.49692 0.0
C517 C 0.10276 0.52577 0.4876 0.0
C518 C 0.11082 0.55642 0.54289 0.0
C519 C 0.10607 0.54143 0.5811 0.0
C520 C 0.10047 0.5186 0.57153 0.0
C521 C 0.09911 0.51096 0.52537 0.0
C522 C 0.10956 0.54525 0.71441 0.0
C523 C 0.10314 0.5618 0.72387 0.0
C524 C 0.11134 0.53932 0.6684 0.0
C525 C 0.10615 0.5493 0.6303 0.0
C526 C 0.10024 0.56634 0.63999 0.0
C527 C 0.09903 0.5727 0.68617 0.0
H528 H 0.43141 0.02182 0.10508 0.0
H529 H 0.41057 0.03423 0.97035 0.0
H530 H 0.40474 -0.01919 0.09702 0.0
H531 H 0.38412 -0.00718 0.96158 0.0
H532 H 0.34665 0.90755 0.07809 0.0
H533 H 0.36184 0.94903 0.08695 0.0
H534 H 0.39521 0.96091 0.95272 0.0
H535 H 0.38065 0.91984 0.94459 0.0
C536 C 0.42067 0.01578 0.07418 0.0
C537 C 0.42303 0.03123 0.03839 0.0
C538 C 0.40533 -0.00772 0.06965 0.0
C539 C 0.39233 -0.01648 0.02865 0.0
C540 C 0.39391 -0.00093 -0.00639 0.0
C541 C 0.40892 0.02276 -0.0013 0.0
C542 C 0.35673 0.91902 0.05005 0.0
C543 C 0.3625 0.91049 0.01069 0.0
C544 C 0.36552 0.94274 0.05518 0.0
C545 C 0.37972 0.95826 0.02047 0.0
C546 C 0.38415 0.94946 -0.02018 0.0
C547 C 0.37588 0.92593 -0.02473 0.0
H548 H 0.40929 0.35929 0.24854 0.0
H549 H 0.42735 0.38826 0.10986 0.0
H550 H 0.38295 0.37462 0.25634 0.0
H551 H 0.40081 0.40301 0.11702 0.0
H552 H 0.34446 0.42087 0.13642 0.0
H553 H 0.35866 0.39356 0.12957 0.0
H554 H 0.39446 0.4175 0.26084 0.0
H555 H 0.38084 0.44495 0.26695 0.0
C556 C 0.40698 0.36817 0.21915 0.0
C557 C 0.42032 0.37256 0.17858 0.0
C558 C 0.39205 0.37708 0.22368 0.0
C559 C 0.38981 0.39007 0.18728 0.0
C560 C 0.40191 0.3929 0.14548 0.0
C561 C 0.41717 0.3845 0.14142 0.0
C562 C 0.35485 0.4198 0.1643 0.0
C563 C 0.36159 0.43505 0.20216 0.0
C564 C 0.36307 0.40428 0.16031 0.0
C565 C 0.37768 0.40335 0.19472 0.0
C566 C 0.38305 0.41757 0.23403 0.0
C567 C 0.37533 0.43338 0.23741 0.0
H568 H 0.00895 0.44606 0.28011 0.0
H569 H 0.02175 0.42108 0.40948 0.0
H570 H -0.03193 0.41839 0.2866 0.0
H571 H -0.01958 0.39354 0.41672 0.0
H572 H 0.90607 0.38727 0.43812 0.0
H573 H 0.94737 0.4025 0.43042 0.0
H574 H 0.93721 0.37532 0.29053 0.0
H575 H 0.89555 0.3595 0.29886 0.0
C576 C 0.00304 0.43426 0.30948 0.0
C577 C 0.01855 0.43573 0.34429 0.0
C578 C -0.02039 0.41832 0.31308 0.0
C579 C -0.02905 0.40375 0.35217 0.0
C580 C -0.01341 0.40453 0.38615 0.0
C581 C 0.01023 0.42019 0.38193 0.0
C582 C 0.91259 0.38387 0.40632 0.0
C583 C 0.89759 0.37212 0.36917 0.0
C584 C 0.93626 0.39255 0.40194 0.0
C585 C 0.94561 0.3902 0.35982 0.0
C586 C 0.9305 0.3774 0.32342 0.0
C587 C 0.90666 0.36821 0.32826 0.0
H588 H 0.51315 0.90898 0.54628 0.0
H589 H 0.46026 0.91819 0.48075 0.0
H590 H 0.53806 0.95105 0.55008 0.0
H591 H 0.48479 0.95943 0.48419 0.0
H592 H 0.51359 0.02476 0.56217 0.0
H593 H 0.4964 -0.01653 0.55845 0.0
H594 H 0.55852 -0.00921 0.49793 0.0
H595 H 0.57616 0.03293 0.50198 0.0
C596 C 0.50707 0.9199 0.5317 0.0
C597 C 0.48458 0.91023 0.51386 0.0
C598 C 0.5213 0.94394 0.53396 0.0
C599 C 0.51318 0.95856 0.51836 0.0
C600 C 0.49138 0.94871 0.4975 0.0
C601 C 0.47732 0.92499 0.49542 0.0
C602 C 0.52383 0.01772 0.54856 0.0
C603 C 0.54616 0.03222 0.53171 0.0
C604 C 0.5139 -0.00603 0.54633 0.0
C605 C 0.52588 -0.01619 0.52691 0.0
C606 C 0.54884 -0.00187 0.51289 0.0
C607 C 0.55893 0.02222 0.51529 0.0
H608 H 0.5404 0.50098 0.77153 0.0
H609 H 0.56922 0.51846 0.63283 0.0
H610 H 0.52646 0.52815 0.76395 0.0
H611 H 0.55476 0.54551 0.62463 0.0
H612 H 0.4852 0.549 0.61246 0.0
H613 H 0.51254 0.53523 0.61908 0.0
H614 H 0.53587 0.56985 0.75145 0.0
H615 H 0.5086 0.58414 0.74413 0.0
C616 C 0.54435 0.5112 0.7399 0.0
C617 C 0.55598 0.50768 0.70285 0.0
C618 C 0.53641 0.52683 0.73559 0.0
C619 C 0.5394 0.53896 0.69363 0.0
C620 C 0.55217 0.53639 0.6574 0.0
C621 C 0.5606 0.52106 0.66217 0.0
C622 C 0.49665 0.55426 0.64232 0.0
C623 C 0.49479 0.56766 0.67775 0.0
C624 C 0.51241 0.54644 0.64602 0.0
C625 C 0.52638 0.55138 0.68582 0.0
C626 C 0.52532 0.56574 0.72034 0.0
C627 C 0.50984 0.57404 0.71607 0.0
H628 H 0.02116 0.58442 0.80246 0.0
H629 H 0.00959 0.54735 0.9323 0.0
H630 H -0.02038 0.56995 0.79558 0.0
H631 H -0.0315 0.53343 0.92613 0.0
H632 H 0.89522 0.51739 0.91447 0.0
H633 H 0.93665 0.54419 0.92241 0.0
H634 H 0.94741 0.52817 0.78202 0.0
H635 H 0.90636 0.5012 0.77469 0.0
C636 C 0.00985 0.5738 0.83019 0.0
C637 C 0.01859 0.56696 0.86784 0.0
C638 C -0.01391 0.56542 0.82618 0.0
C639 C -0.02926 0.55054 0.86036 0.0
C640 C -0.02021 0.54504 0.89948 0.0
C641 C 0.00335 0.55293 0.90289 0.0
C642 C 0.90638 0.52024 0.88486 0.0
C643 C 0.8976 0.5073 0.84391 0.0
C644 C 0.9301 0.53542 0.88948 0.0
C645 C 0.94535 0.53828 0.85285 0.0
C646 C 0.93619 0.5266 0.81069 0.0
C647 C 0.91266 0.51111 0.8065 0.0
loop_
_geom_bond_atom_site_label_1
_geom_bond_atom_site_label_2
_geom_bond_distance
_geom_bond_site_symmetry_2
_ccdc_geom_bond_type
C0 O1 1.306 . S
C0 O3 1.160 . S
O1 C0 1.306 . S
O1 Cd2 2.228 1_556 S
Cd2 O1 2.228 1_554 S
Cd2 O6 2.273 . S
Cd2 O10 2.277 . S
O3 C0 1.160 . S
O3 Cd4 2.203 1_556 S
Cd4 O3 2.203 1_554 S
Cd4 O6 2.411 . S
Cd4 O7 2.333 . S
Cd4 O8 2.352 . S
Cd4 O12 2.277 . S
Cd4 O13 2.356 . S
C5 O10 1.209 . S
C5 O12 1.226 . S
O6 Cd2 2.273 . S
O6 Cd4 2.411 . S
O6 C9 1.320 . S
O7 Cd4 2.333 . S
O7 C9 1.214 . S
O8 Cd4 2.352 . S
O8 C11 1.258 . S
C9 O6 1.320 . S
C9 O7 1.214 . S
O10 Cd2 2.277 . S
O10 C5 1.209 . S
C11 O8 1.258 . S
C11 O13 1.282 . S
O12 Cd4 2.277 . S
O12 C5 1.226 . S
O13 Cd4 2.356 . S
O13 C11 1.282 . S
C14 O15 1.306 . S
C14 O17 1.160 . S
O15 C14 1.306 . S
O15 Cd16 2.228 . S
Cd16 O15 2.228 . S
Cd16 O20 2.273 . S
Cd16 O24 2.277 . S
O17 C14 1.160 . S
O17 Cd18 2.203 . S
Cd18 O17 2.203 . S
Cd18 O20 2.411 . S
Cd18 O21 2.333 . S
Cd18 O22 2.352 . S
Cd18 O26 2.277 . S
Cd18 O27 2.356 . S
C19 O24 1.209 . S
C19 O26 1.226 . S
O20 Cd16 2.273 . S
O20 Cd18 2.411 . S
O20 C23 1.320 . S
O21 Cd18 2.333 . S
O21 C23 1.214 . S
O22 Cd18 2.352 . S
O22 C25 1.258 . S
C23 O20 1.320 . S
C23 O21 1.214 . S
O24 Cd16 2.277 . S
O24 C19 1.209 . S
C25 O22 1.258 . S
C25 O27 1.282 . S
O26 Cd18 2.277 . S
O26 C19 1.226 . S
O27 Cd18 2.356 . S
O27 C25 1.282 . S
C28 O29 1.306 . S
C28 O31 1.160 . S
O29 C28 1.306 . S
O29 Cd30 2.228 . S
Cd30 O29 2.228 . S
Cd30 O34 2.273 . S
Cd30 O38 2.277 . S
O31 C28 1.160 . S
O31 Cd32 2.203 . S
Cd32 O31 2.203 . S
Cd32 O34 2.411 . S
Cd32 O35 2.333 . S
Cd32 O36 2.352 . S
Cd32 O40 2.277 . S
Cd32 O41 2.356 . S
C33 O38 1.209 . S
C33 O40 1.226 . S
O34 Cd30 2.273 . S
O34 Cd32 2.411 . S
O34 C37 1.320 . S
O35 Cd32 2.333 . S
O35 C37 1.214 . S
O36 Cd32 2.352 . S
O36 C39 1.258 . S
C37 O34 1.320 . S
C37 O35 1.214 . S
O38 Cd30 2.277 . S
O38 C33 1.209 . S
C39 O36 1.258 . S
C39 O41 1.282 . S
O40 Cd32 2.277 . S
O40 C33 1.226 . S
O41 Cd32 2.356 . S
O41 C39 1.282 . S
C42 O43 1.306 . S
C42 O45 1.160 . S
O43 C42 1.306 . S
O43 Cd44 2.228 . S
Cd44 O43 2.228 . S
Cd44 O48 2.273 . S
Cd44 O52 2.277 . S
O45 C42 1.160 . S
O45 Cd46 2.203 . S
Cd46 O45 2.203 . S
Cd46 O48 2.411 . S
Cd46 O49 2.333 . S
Cd46 O50 2.352 . S
Cd46 O54 2.277 . S
Cd46 O55 2.356 . S
C47 O52 1.209 . S
C47 O54 1.226 . S
O48 Cd44 2.273 . S
O48 Cd46 2.411 . S
O48 C51 1.320 . S
O49 Cd46 2.333 . S
O49 C51 1.214 . S
O50 Cd46 2.352 . S
O50 C53 1.258 . S
C51 O48 1.320 . S
C51 O49 1.214 . S
O52 Cd44 2.277 . S
O52 C47 1.209 . S
C53 O50 1.258 . S
C53 O55 1.282 . S
O54 Cd46 2.277 . S
O54 C47 1.226 . S
O55 Cd46 2.356 . S
O55 C53 1.282 . S
C56 O57 1.306 . S
C56 O59 1.160 . S
O57 C56 1.306 . S
O57 Cd58 2.228 . S
Cd58 O57 2.228 . S
Cd58 O62 2.273 . S
Cd58 O66 2.277 . S
O59 C56 1.160 . S
O59 Cd60 2.203 . S
Cd60 O59 2.203 . S
Cd60 O62 2.411 . S
Cd60 O63 2.333 . S
Cd60 O64 2.352 . S
Cd60 O68 2.277 . S
Cd60 O69 2.356 . S
C61 O66 1.209 . S
C61 O68 1.226 . S
O62 Cd58 2.273 . S
O62 Cd60 2.411 . S
O62 C65 1.320 . S
O63 Cd60 2.333 . S
O63 C65 1.214 . S
O64 Cd60 2.352 . S
O64 C67 1.258 . S
C65 O62 1.320 . S
C65 O63 1.214 . S
O66 Cd58 2.277 . S
O66 C61 1.209 . S
C67 O64 1.258 . S
C67 O69 1.282 . S
O68 Cd60 2.277 . S
O68 C61 1.226 . S
O69 Cd60 2.356 . S
O69 C67 1.282 . S
C70 O71 1.306 . S
C70 O73 1.160 . S
O71 C70 1.306 . S
O71 Cd72 2.228 . S
Cd72 O71 2.228 . S
Cd72 O76 2.273 . S
Cd72 O80 2.277 . S
O73 C70 1.160 . S
O73 Cd74 2.203 . S
Cd74 O73 2.203 . S
Cd74 O76 2.411 . S
Cd74 O77 2.333 . S
Cd74 O78 2.352 . S
Cd74 O82 2.277 . S
Cd74 O83 2.356 . S
C75 O80 1.209 . S
C75 O82 1.226 . S
O76 Cd72 2.273 . S
O76 Cd74 2.411 . S
O76 C79 1.320 . S
O77 Cd74 2.333 . S
O77 C79 1.214 . S
O78 Cd74 2.352 . S
O78 C81 1.258 . S
C79 O76 1.320 . S
C79 O77 1.214 . S
O80 Cd72 2.277 . S
O80 C75 1.209 . S
C81 O78 1.258 . S
C81 O83 1.282 . S
O82 Cd74 2.277 . S
O82 C75 1.226 . S
O83 Cd74 2.356 . S
O83 C81 1.282 . S
C84 O85 1.306 . S
C84 O87 1.160 . S
O85 C84 1.306 . S
O85 Cd86 2.228 . S
Cd86 O85 2.228 . S
Cd86 O90 2.273 . S
Cd86 O94 2.277 . S
O87 C84 1.160 . S
O87 Cd88 2.203 . S
Cd88 O87 2.203 . S
Cd88 O90 2.411 . S
Cd88 O91 2.333 . S
Cd88 O92 2.352 . S
Cd88 O96 2.277 . S
Cd88 O97 2.356 . S
C89 O94 1.209 . S
C89 O96 1.226 . S
O90 Cd86 2.273 . S
O90 Cd88 2.411 . S
O90 C93 1.320 . S
O91 Cd88 2.333 . S
O91 C93 1.214 . S
O92 Cd88 2.352 . S
O92 C95 1.258 . S
C93 O90 1.320 . S
C93 O91 1.214 . S
O94 Cd86 2.277 . S
O94 C89 1.209 . S
C95 O92 1.258 . S
C95 O97 1.282 . S
O96 Cd88 2.277 . S
O96 C89 1.226 . S
O97 Cd88 2.356 . S
O97 C95 1.282 . S
C98 O99 1.306 . S
C98 O101 1.160 . S
O99 C98 1.306 . S
O99 Cd100 2.228 . S
Cd100 O99 2.228 . S
Cd100 O104 2.273 1_554 S
Cd100 O108 2.277 . S
O101 C98 1.160 . S
O101 Cd102 2.203 . S
Cd102 O101 2.203 . S
Cd102 O104 2.411 1_554 S
Cd102 O105 2.333 1_554 S
Cd102 O106 2.352 . S
Cd102 O110 2.277 . S
Cd102 O111 2.356 . S
C103 O108 1.209 . S
C103 O110 1.226 . S
O104 Cd100 2.273 1_556 S
O104 Cd102 2.411 1_556 S
O104 C107 1.320 . S
O105 Cd102 2.333 1_556 S
O105 C107 1.214 . S
O106 Cd102 2.352 . S
O106 C109 1.258 . S
C107 O104 1.320 . S
C107 O105 1.214 . S
O108 Cd100 2.277 . S
O108 C103 1.209 . S
C109 O106 1.258 . S
C109 O111 1.282 . S
O110 Cd102 2.277 . S
O110 C103 1.226 . S
O111 Cd102 2.356 . S
O111 C109 1.282 . S
C112 O113 1.306 . S
C112 O115 1.160 . S
O113 C112 1.306 . S
O113 Cd114 2.228 . S
Cd114 O113 2.228 . S
Cd114 O118 2.273 . S
Cd114 O122 2.277 . S
O115 C112 1.160 . S
O115 Cd116 2.203 . S
Cd116 O115 2.203 . S
Cd116 O118 2.411 . S
Cd116 O119 2.333 . S
Cd116 O120 2.352 . S
Cd116 O124 2.277 . S
Cd116 O125 2.356 . S
C117 O122 1.209 . S
C117 O124 1.226 . S
O118 Cd114 2.273 . S
O118 Cd116 2.411 . S
O118 C121 1.320 . S
O119 Cd116 2.333 . S
O119 C121 1.214 . S
O120 Cd116 2.352 . S
O120 C123 1.258 . S
C121 O118 1.320 . S
C121 O119 1.214 . S
O122 Cd114 2.277 . S
O122 C117 1.209 . S
C123 O120 1.258 . S
C123 O125 1.282 . S
O124 Cd116 2.277 . S
O124 C117 1.226 . S
O125 Cd116 2.356 . S
O125 C123 1.282 . S
C126 O127 1.306 . S
C126 O129 1.160 . S
O127 C126 1.306 . S
O127 Cd128 2.228 . S
Cd128 O127 2.228 . S
Cd128 O132 2.273 . S
Cd128 O136 2.277 . S
O129 C126 1.160 . S
O129 Cd130 2.203 . S
Cd130 O129 2.203 . S
Cd130 O132 2.411 . S
Cd130 O133 2.333 . S
Cd130 O134 2.352 . S
Cd130 O138 2.277 . S
Cd130 O139 2.356 . S
C131 O136 1.209 . S
C131 O138 1.226 . S
O132 Cd128 2.273 . S
O132 Cd130 2.411 . S
O132 C135 1.320 . S
O133 Cd130 2.333 . S
O133 C135 1.214 . S
O134 Cd130 2.352 . S
O134 C137 1.258 . S
C135 O132 1.320 . S
C135 O133 1.214 . S
O136 Cd128 2.277 . S
O136 C131 1.209 . S
C137 O134 1.258 . S
C137 O139 1.282 . S
O138 Cd130 2.277 . S
O138 C131 1.226 . S
O139 Cd130 2.356 . S
O139 C137 1.282 . S
C140 O141 1.306 . S
C140 O143 1.160 . S
O141 C140 1.306 . S
O141 Cd142 2.228 . S
Cd142 O141 2.228 . S
Cd142 O146 2.273 . S
Cd142 O150 2.277 . S
O143 C140 1.160 . S
O143 Cd144 2.203 . S
Cd144 O143 2.203 . S
Cd144 O146 2.411 . S
Cd144 O147 2.333 . S
Cd144 O148 2.352 . S
Cd144 O152 2.277 . S
Cd144 O153 2.356 . S
C145 O150 1.209 . S
C145 O152 1.226 . S
O146 Cd142 2.273 . S
O146 Cd144 2.411 . S
O146 C149 1.320 . S
O147 Cd144 2.333 . S
O147 C149 1.214 . S
O148 Cd144 2.352 . S
O148 C151 1.258 . S
C149 O146 1.320 . S
C149 O147 1.214 . S
O150 Cd142 2.277 . S
O150 C145 1.209 . S
C151 O148 1.258 . S
C151 O153 1.282 . S
O152 Cd144 2.277 . S
O152 C145 1.226 . S
O153 Cd144 2.356 . S
O153 C151 1.282 . S
C154 O155 1.306 . S
C154 O157 1.160 . S
O155 C154 1.306 . S
O155 Cd156 2.228 . S
Cd156 O155 2.228 . S
Cd156 O160 2.273 . S
Cd156 O164 2.277 . S
O157 C154 1.160 . S
O157 Cd158 2.203 . S
Cd158 O157 2.203 . S
Cd158 O160 2.411 . S
Cd158 O161 2.333 . S
Cd158 O162 2.352 . S
Cd158 O166 2.277 . S
Cd158 O167 2.356 . S
C159 O164 1.209 . S
C159 O166 1.226 . S
O160 Cd156 2.273 . S
O160 Cd158 2.411 . S
O160 C163 1.320 . S
O161 Cd158 2.333 . S
O161 C163 1.214 . S
O162 Cd158 2.352 . S
O162 C165 1.258 . S
C163 O160 1.320 . S
C163 O161 1.214 . S
O164 Cd156 2.277 . S
O164 C159 1.209 . S
C165 O162 1.258 . S
C165 O167 1.282 . S
O166 Cd158 2.277 . S
O166 C159 1.226 . S
O167 Cd158 2.356 . S
O167 C165 1.282 . S
H168 C176 0.950 . S
H169 C181 0.950 . S
H170 C178 0.950 . S
H171 C180 0.950 . S
H172 C182 0.950 . S
H173 C184 0.950 . S
H174 C186 0.950 . S
H175 C187 0.950 . S
C176 H168 0.950 . S
C176 C177 1.386 . S
C176 C178 1.391 . S
C177 C176 1.386 . S
C177 C181 1.393 . S
C178 H170 0.950 . S
C178 C176 1.391 . S
C178 C179 1.400 . S
C179 C178 1.400 . S
C179 C180 1.398 . S
C179 C185 1.491 . S
C180 H171 0.950 . S
C180 C179 1.398 . S
C180 C181 1.391 . S
C181 H169 0.950 . S
C181 C177 1.393 . S
C181 C180 1.391 . S
C182 H172 0.950 . S
C182 C183 1.386 . S
C182 C184 1.391 . S
C183 C182 1.386 . S
C183 C187 1.393 . S
C184 H173 0.950 . S
C184 C182 1.391 . S
C184 C185 1.400 . S
C185 C179 1.491 . S
C185 C184 1.400 . S
C185 C186 1.398 . S
C186 H174 0.950 . S
C186 C185 1.398 . S
C186 C187 1.391 . S
C187 H175 0.950 . S
C187 C183 1.393 . S
C187 C186 1.391 . S
H188 C196 0.950 . S
H189 C201 0.950 . S
H190 C198 0.950 . S
H191 C200 0.950 . S
H192 C202 0.950 . S
H193 C204 0.950 . S
H194 C206 0.950 . S
H195 C207 0.950 . S
C196 H188 0.950 . S
C196 C197 1.386 . S
C196 C198 1.391 . S
C197 C196 1.386 . S
C197 C201 1.393 . S
C198 H190 0.950 . S
C198 C196 1.391 . S
C198 C199 1.400 . S
C199 C198 1.400 . S
C199 C200 1.398 . S
C199 C205 1.491 . S
C200 H191 0.950 . S
C200 C199 1.398 . S
C200 C201 1.391 . S
C201 H189 0.950 . S
C201 C197 1.393 . S
C201 C200 1.391 . S
C202 H192 0.950 . S
C202 C203 1.386 . S
C202 C204 1.391 . S
C203 C202 1.386 . S
C203 C207 1.393 . S
C204 H193 0.950 . S
C204 C202 1.391 . S
C204 C205 1.400 . S
C205 C199 1.491 . S
C205 C204 1.400 . S
C205 C206 1.398 . S
C206 H194 0.950 . S
C206 C205 1.398 . S
C206 C207 1.391 . S
C207 H195 0.950 . S
C207 C203 1.393 . S
C207 C206 1.391 . S
H208 C216 0.950 . S
H209 C221 0.950 . S
H210 C218 0.950 . S
H211 C220 0.950 . S
H212 C222 0.950 . S
H213 C224 0.950 . S
H214 C226 0.950 . S
H215 C227 0.950 . S
C216 H208 0.950 . S
C216 C217 1.386 . S
C216 C218 1.391 . S
C217 C216 1.386 . S
C217 C221 1.393 . S
C218 H210 0.950 . S
C218 C216 1.391 . S
C218 C219 1.400 . S
C219 C218 1.400 . S
C219 C220 1.398 . S
C219 C225 1.491 . S
C220 H211 0.950 . S
C220 C219 1.398 . S
C220 C221 1.391 . S
C221 H209 0.950 . S
C221 C217 1.393 . S
C221 C220 1.391 . S
C222 H212 0.950 . S
C222 C223 1.386 . S
C222 C224 1.391 . S
C223 C222 1.386 . S
C223 C227 1.393 . S
C224 H213 0.950 . S
C224 C222 1.391 . S
C224 C225 1.400 . S
C225 C219 1.491 . S
C225 C224 1.400 . S
C225 C226 1.398 . S
C226 H214 0.950 . S
C226 C225 1.398 . S
C226 C227 1.391 . S
C227 H215 0.950 . S
C227 C223 1.393 . S
C227 C226 1.391 . S
H228 C236 0.950 . S
H229 C241 0.950 . S
H230 C238 0.950 . S
H231 C240 0.950 . S
H232 C242 0.950 . S
H233 C244 0.950 . S
H234 C246 0.950 . S
H235 C247 0.950 . S
C236 H228 0.950 . S
C236 C237 1.386 . S
C236 C238 1.391 . S
C237 C236 1.386 . S
C237 C241 1.393 . S
C238 H230 0.950 . S
C238 C236 1.391 . S
C238 C239 1.400 . S
C239 C238 1.400 . S
C239 C240 1.398 . S
C239 C245 1.491 . S
C240 H231 0.950 . S
C240 C239 1.398 . S
C240 C241 1.391 . S
C241 H229 0.950 . S
C241 C237 1.393 . S
C241 C240 1.391 . S
C242 H232 0.950 . S
C242 C243 1.386 . S
C242 C244 1.391 . S
C243 C242 1.386 . S
C243 C247 1.393 . S
C244 H233 0.950 . S
C244 C242 1.391 . S
C244 C245 1.400 . S
C245 C239 1.491 . S
C245 C244 1.400 . S
C245 C246 1.398 . S
C246 H234 0.950 . S
C246 C245 1.398 . S
C246 C247 1.391 . S
C247 H235 0.950 . S
C247 C243 1.393 . S
C247 C246 1.391 . S
H248 C256 0.950 . S
H249 C261 0.950 . S
H250 C258 0.950 . S
H251 C260 0.950 . S
H252 C262 0.950 . S
H253 C264 0.950 . S
H254 C266 0.950 . S
H255 C267 0.950 . S
C256 H248 0.950 . S
C256 C257 1.386 . S
C256 C258 1.391 1_554 S
C257 C256 1.386 . S
C257 C261 1.393 . S
C258 H250 0.950 . S
C258 C256 1.391 1_556 S
C258 C259 1.400 . S
C259 C258 1.400 . S
C259 C260 1.398 1_556 S
C259 C265 1.491 . S
C260 H251 0.950 . S
C260 C259 1.398 1_554 S
C260 C261 1.391 . S
C261 H249 0.950 . S
C261 C257 1.393 . S
C261 C260 1.391 . S
C262 H252 0.950 . S
C262 C263 1.386 . S
C262 C264 1.391 . S
C263 C262 1.386 . S
C263 C267 1.393 . S
C264 H253 0.950 . S
C264 C262 1.391 . S
C264 C265 1.400 . S
C265 C259 1.491 . S
C265 C264 1.400 . S
C265 C266 1.398 . S
C266 H254 0.950 . S
C266 C265 1.398 . S
C266 C267 1.391 . S
C267 H255 0.950 . S
C267 C263 1.393 . S
C267 C266 1.391 . S
H268 C276 0.950 . S
H269 C281 0.950 . S
H270 C278 0.950 . S
H271 C280 0.950 . S
H272 C282 0.950 . S
H273 C284 0.950 . S
H274 C286 0.950 . S
H275 C287 0.949 . S
C276 H268 0.950 . S
C276 C277 1.386 . S
C276 C278 1.391 . S
C277 C276 1.386 . S
C277 C281 1.393 . S
C278 H270 0.950 . S
C278 C276 1.391 . S
C278 C279 1.400 . S
C279 C278 1.400 . S
C279 C280 1.398 . S
C279 C285 1.491 . S
C280 H271 0.950 . S
C280 C279 1.398 . S
C280 C281 1.391 . S
C281 H269 0.950 . S
C281 C277 1.393 . S
C281 C280 1.391 . S
C282 H272 0.950 . S
C282 C283 1.386 . S
C282 C284 1.391 . S
C283 C282 1.386 . S
C283 C287 1.393 . S
C284 H273 0.950 . S
C284 C282 1.391 . S
C284 C285 1.400 . S
C285 C279 1.491 . S
C285 C284 1.400 . S
C285 C286 1.398 . S
C286 H274 0.950 . S
C286 C285 1.398 . S
C286 C287 1.391 . S
C287 H275 0.949 . S
C287 C283 1.393 . S
C287 C286 1.391 . S
H288 C296 0.950 . S
H289 C301 0.950 . S
H290 C298 0.950 . S
H291 C300 0.950 . S
H292 C302 0.950 . S
H293 C304 0.950 . S
H294 C306 0.950 . S
H295 C307 0.950 . S
C296 H288 0.950 . S
C296 C297 1.386 . S
C296 C298 1.391 . S
C297 C296 1.386 . S
C297 C301 1.393 . S
C298 H290 0.950 . S
C298 C296 1.391 . S
C298 C299 1.400 . S
C299 C298 1.400 . S
C299 C300 1.398 . S
C299 C305 1.491 . S
C300 H291 0.950 . S
C300 C299 1.398 . S
C300 C301 1.391 . S
C301 H289 0.950 . S
C301 C297 1.393 . S
C301 C300 1.391 . S
C302 H292 0.950 . S
C302 C303 1.386 . S
C302 C304 1.391 . S
C303 C302 1.386 . S
C303 C307 1.393 . S
C304 H293 0.950 . S
C304 C302 1.391 . S
C304 C305 1.400 . S
C305 C299 1.491 . S
C305 C304 1.400 . S
C305 C306 1.398 . S
C306 H294 0.950 . S
C306 C305 1.398 . S
C306 C307 1.391 . S
C307 H295 0.950 . S
C307 C303 1.393 . S
C307 C306 1.391 . S
H308 C316 0.950 . S
H309 C321 0.950 . S
H310 C318 0.950 . S
H311 C320 0.950 . S
H312 C322 0.950 . S
H313 C324 0.950 . S
H314 C326 0.950 . S
H315 C327 0.950 . S
C316 H308 0.950 . S
C316 C317 1.386 . S
C316 C318 1.391 . S
C317 C316 1.386 . S
C317 C321 1.393 . S
C318 H310 0.950 . S
C318 C316 1.391 . S
C318 C319 1.400 . S
C319 C318 1.400 . S
C319 C320 1.398 . S
C319 C325 1.491 . S
C320 H311 0.950 . S
C320 C319 1.398 . S
C320 C321 1.391 . S
C321 H309 0.950 . S
C321 C317 1.393 . S
C321 C320 1.391 . S
C322 H312 0.950 . S
C322 C323 1.386 . S
C322 C324 1.391 . S
C323 C322 1.386 . S
C323 C327 1.393 . S
C324 H313 0.950 . S
C324 C322 1.391 . S
C324 C325 1.400 . S
C325 C319 1.491 . S
C325 C324 1.400 . S
C325 C326 1.398 . S
C326 H314 0.950 . S
C326 C325 1.398 . S
C326 C327 1.391 . S
C327 H315 0.950 . S
C327 C323 1.393 . S
C327 C326 1.391 . S
H328 C336 0.950 . S
H329 C341 0.950 . S
H330 C338 0.950 . S
H331 C340 0.950 . S
H332 C342 0.950 . S
H333 C344 0.950 . S
H334 C346 0.950 . S
H335 C347 0.950 . S
C336 H328 0.950 . S
C336 C337 1.386 . S
C336 C338 1.391 . S
C337 C336 1.386 . S
C337 C341 1.393 . S
C338 H330 0.950 . S
C338 C336 1.391 . S
C338 C339 1.400 . S
C339 C338 1.400 . S
C339 C340 1.398 . S
C339 C345 1.491 . S
C340 H331 0.950 . S
C340 C339 1.398 . S
C340 C341 1.391 . S
C341 H329 0.950 . S
C341 C337 1.393 . S
C341 C340 1.391 . S
C342 H332 0.950 . S
C342 C343 1.386 . S
C342 C344 1.391 . S
C343 C342 1.386 . S
C343 C347 1.393 . S
C344 H333 0.950 . S
C344 C342 1.391 . S
C344 C345 1.400 . S
C345 C339 1.491 . S
C345 C344 1.400 . S
C345 C346 1.398 . S
C346 H334 0.950 . S
C346 C345 1.398 . S
C346 C347 1.391 . S
C347 H335 0.950 . S
C347 C343 1.393 . S
C347 C346 1.391 . S
H348 C356 0.950 . S
H349 C361 0.950 . S
H350 C358 0.950 . S
H351 C360 0.950 . S
H352 C362 0.950 . S
H353 C364 0.950 . S
H354 C366 0.950 . S
H355 C367 0.950 . S
C356 H348 0.950 . S
C356 C357 1.386 . S
C356 C358 1.391 . S
C357 C356 1.386 . S
C357 C361 1.393 . S
C358 H350 0.950 . S
C358 C356 1.391 . S
C358 C359 1.400 . S
C359 C358 1.400 . S
C359 C360 1.398 . S
C359 C365 1.491 . S
C360 H351 0.950 . S
C360 C359 1.398 . S
C360 C361 1.391 . S
C361 H349 0.950 . S
C361 C357 1.393 . S
C361 C360 1.391 . S
C362 H352 0.950 . S
C362 C363 1.386 . S
C362 C364 1.391 . S
C363 C362 1.386 . S
C363 C367 1.393 . S
C364 H353 0.950 . S
C364 C362 1.391 . S
C364 C365 1.400 . S
C365 C359 1.491 . S
C365 C364 1.400 . S
C365 C366 1.398 . S
C366 H354 0.950 . S
C366 C365 1.398 . S
C366 C367 1.391 . S
C367 H355 0.950 . S
C367 C363 1.393 . S
C367 C366 1.391 . S
H368 C376 0.950 . S
H369 C381 0.950 . S
H370 C378 0.950 . S
H371 C380 0.950 . S
H372 C382 0.950 . S
H373 C384 0.950 . S
H374 C386 0.950 . S
H375 C387 0.950 . S
C376 H368 0.950 . S
C376 C377 1.386 . S
C376 C378 1.391 . S
C377 C376 1.386 . S
C377 C381 1.393 . S
C378 H370 0.950 . S
C378 C376 1.391 . S
C378 C379 1.400 . S
C379 C378 1.400 . S
C379 C380 1.398 . S
C379 C385 1.491 . S
C380 H371 0.950 . S
C380 C379 1.398 . S
C380 C381 1.391 . S
C381 H369 0.950 . S
C381 C377 1.393 . S
C381 C380 1.391 . S
C382 H372 0.950 . S
C382 C383 1.386 . S
C382 C384 1.391 . S
C383 C382 1.386 . S
C383 C387 1.393 . S
C384 H373 0.950 . S
C384 C382 1.391 . S
C384 C385 1.400 . S
C385 C379 1.491 . S
C385 C384 1.400 . S
C385 C386 1.398 . S
C386 H374 0.950 . S
C386 C385 1.398 . S
C386 C387 1.391 . S
C387 H375 0.950 . S
C387 C383 1.393 . S
C387 C386 1.391 . S
H388 C396 0.950 . S
H389 C401 0.950 . S
H390 C398 0.950 . S
H391 C400 0.950 . S
H392 C402 0.950 . S
H393 C404 0.950 . S
H394 C406 0.950 . S
H395 C407 0.950 . S
C396 H388 0.950 . S
C396 C397 1.386 . S
C396 C398 1.391 . S
C397 C396 1.386 . S
C397 C401 1.393 . S
C398 H390 0.950 . S
C398 C396 1.391 . S
C398 C399 1.400 . S
C399 C398 1.400 . S
C399 C400 1.398 . S
C399 C405 1.491 . S
C400 H391 0.950 . S
C400 C399 1.398 . S
C400 C401 1.391 . S
C401 H389 0.950 . S
C401 C397 1.393 . S
C401 C400 1.391 . S
C402 H392 0.950 . S
C402 C403 1.386 1_556 S
C402 C404 1.391 . S
C403 C402 1.386 1_554 S
C403 C407 1.393 . S
C404 H393 0.950 . S
C404 C402 1.391 . S
C404 C405 1.400 . S
C405 C399 1.491 . S
C405 C404 1.400 . S
C405 C406 1.398 1_556 S
C406 H394 0.950 . S
C406 C405 1.398 1_554 S
C406 C407 1.391 . S
C407 H395 0.950 . S
C407 C403 1.393 . S
C407 C406 1.391 . S
H408 C416 0.950 . S
H409 C421 0.950 . S
H410 C418 0.950 . S
H411 C420 0.950 . S
H412 C422 0.950 . S
H413 C424 0.950 . S
H414 C426 0.950 . S
H415 C427 0.950 . S
C416 H408 0.950 . S
C416 C417 1.386 . S
C416 C418 1.391 . S
C417 C416 1.386 . S
C417 C421 1.393 . S
C418 H410 0.950 . S
C418 C416 1.391 . S
C418 C419 1.400 . S
C419 C418 1.400 . S
C419 C420 1.398 . S
C419 C425 1.491 . S
C420 H411 0.950 . S
C420 C419 1.398 . S
C420 C421 1.391 . S
C421 H409 0.950 . S
C421 C417 1.393 . S
C421 C420 1.391 . S
C422 H412 0.950 . S
C422 C423 1.386 . S
C422 C424 1.391 . S
C423 C422 1.386 . S
C423 C427 1.393 . S
C424 H413 0.950 . S
C424 C422 1.391 . S
C424 C425 1.400 . S
C425 C419 1.491 . S
C425 C424 1.400 . S
C425 C426 1.398 . S
C426 H414 0.950 . S
C426 C425 1.398 . S
C426 C427 1.391 . S
C427 H415 0.950 . S
C427 C423 1.393 . S
C427 C426 1.391 . S
H428 C436 0.950 . S
H429 C441 0.950 . S
H430 C438 0.950 . S
H431 C440 0.950 . S
H432 C442 0.950 . S
H433 C444 0.950 . S
H434 C446 0.950 . S
H435 C447 0.950 . S
C436 H428 0.950 . S
C436 C437 1.386 . S
C436 C438 1.391 . S
C437 C436 1.386 . S
C437 C441 1.393 . S
C438 H430 0.950 . S
C438 C436 1.391 . S
C438 C439 1.400 . S
C439 C438 1.400 . S
C439 C440 1.398 . S
C439 C445 1.491 . S
C440 H431 0.950 . S
C440 C439 1.398 . S
C440 C441 1.391 . S
C441 H429 0.950 . S
C441 C437 1.393 . S
C441 C440 1.391 . S
C442 H432 0.950 . S
C442 C443 1.386 . S
C442 C444 1.391 . S
C443 C442 1.386 . S
C443 C447 1.393 . S
C444 H433 0.950 . S
C444 C442 1.391 . S
C444 C445 1.400 1_554 S
C445 C439 1.491 . S
C445 C444 1.400 1_556 S
C445 C446 1.398 . S
C446 H434 0.950 . S
C446 C445 1.398 . S
C446 C447 1.391 1_556 S
C447 H435 0.950 . S
C447 C443 1.393 . S
C447 C446 1.391 1_554 S
H448 C456 0.950 . S
H449 C461 0.950 . S
H450 C458 0.950 . S
H451 C460 0.950 . S
H452 C462 0.950 . S
H453 C464 0.950 . S
H454 C466 0.950 . S
H455 C467 0.950 . S
C456 H448 0.950 . S
C456 C457 1.386 . S
C456 C458 1.391 . S
C457 C456 1.386 . S
C457 C461 1.393 . S
C458 H450 0.950 . S
C458 C456 1.391 . S
C458 C459 1.400 . S
C459 C458 1.400 . S
C459 C460 1.398 . S
C459 C465 1.491 . S
C460 H451 0.950 . S
C460 C459 1.398 . S
C460 C461 1.391 . S
C461 H449 0.950 . S
C461 C457 1.393 . S
C461 C460 1.391 . S
C462 H452 0.950 . S
C462 C463 1.386 . S
C462 C464 1.391 . S
C463 C462 1.386 . S
C463 C467 1.393 . S
C464 H453 0.950 . S
C464 C462 1.391 . S
C464 C465 1.400 . S
C465 C459 1.491 . S
C465 C464 1.400 . S
C465 C466 1.398 . S
C466 H454 0.950 . S
C466 C465 1.398 . S
C466 C467 1.391 . S
C467 H455 0.950 . S
C467 C463 1.393 . S
C467 C466 1.391 . S
H468 C476 0.950 . S
H469 C481 0.950 . S
H470 C478 0.950 . S
H471 C480 0.950 . S
H472 C482 0.950 . S
H473 C484 0.950 . S
H474 C486 0.950 . S
H475 C487 0.950 . S
C476 H468 0.950 . S
C476 C477 1.386 . S
C476 C478 1.391 . S
C477 C476 1.386 . S
C477 C481 1.393 . S
C478 H470 0.950 . S
C478 C476 1.391 . S
C478 C479 1.400 . S
C479 C478 1.400 . S
C479 C480 1.398 . S
C479 C485 1.491 . S
C480 H471 0.950 . S
C480 C479 1.398 . S
C480 C481 1.391 . S
C481 H469 0.950 . S
C481 C477 1.393 . S
C481 C480 1.391 . S
C482 H472 0.950 . S
C482 C483 1.386 . S
C482 C484 1.391 . S
C483 C482 1.386 . S
C483 C487 1.393 . S
C484 H473 0.950 . S
C484 C482 1.391 . S
C484 C485 1.400 . S
C485 C479 1.491 . S
C485 C484 1.400 . S
C485 C486 1.398 . S
C486 H474 0.950 . S
C486 C485 1.398 . S
C486 C487 1.391 . S
C487 H475 0.950 . S
C487 C483 1.393 . S
C487 C486 1.391 . S
H488 C496 0.950 . S
H489 C501 0.950 . S
H490 C498 0.950 . S
H491 C500 0.950 . S
H492 C502 0.950 . S
H493 C504 0.950 . S
H494 C506 0.950 . S
H495 C507 0.950 . S
C496 H488 0.950 . S
C496 C497 1.386 . S
C496 C498 1.391 . S
C497 C496 1.386 . S
C497 C501 1.393 . S
C498 H490 0.950 . S
C498 C496 1.391 . S
C498 C499 1.400 . S
C499 C498 1.400 . S
C499 C500 1.398 . S
C499 C505 1.491 . S
C500 H491 0.950 . S
C500 C499 1.398 . S
C500 C501 1.391 . S
C501 H489 0.950 . S
C501 C497 1.393 . S
C501 C500 1.391 . S
C502 H492 0.950 . S
C502 C503 1.386 . S
C502 C504 1.391 . S
C503 C502 1.386 . S
C503 C507 1.393 . S
C504 H493 0.950 . S
C504 C502 1.391 . S
C504 C505 1.400 . S
C505 C499 1.491 . S
C505 C504 1.400 . S
C505 C506 1.398 . S
C506 H494 0.950 . S
C506 C505 1.398 . S
C506 C507 1.391 . S
C507 H495 0.950 . S
C507 C503 1.393 . S
C507 C506 1.391 . S
H508 C516 0.950 . S
H509 C521 0.950 . S
H510 C518 0.950 . S
H511 C520 0.950 . S
H512 C522 0.950 . S
H513 C524 0.950 . S
H514 C526 0.950 . S
H515 C527 0.950 . S
C516 H508 0.950 . S
C516 C517 1.386 . S
C516 C518 1.391 . S
C517 C516 1.386 . S
C517 C521 1.393 . S
C518 H510 0.950 . S
C518 C516 1.391 . S
C518 C519 1.400 . S
C519 C518 1.400 . S
C519 C520 1.398 . S
C519 C525 1.491 . S
C520 H511 0.950 . S
C520 C519 1.398 . S
C520 C521 1.391 . S
C521 H509 0.950 . S
C521 C517 1.393 . S
C521 C520 1.391 . S
C522 H512 0.950 . S
C522 C523 1.386 . S
C522 C524 1.391 . S
C523 C522 1.386 . S
C523 C527 1.393 . S
C524 H513 0.950 . S
C524 C522 1.391 . S
C524 C525 1.400 . S
C525 C519 1.491 . S
C525 C524 1.400 . S
C525 C526 1.398 . S
C526 H514 0.950 . S
C526 C525 1.398 . S
C526 C527 1.391 . S
C527 H515 0.950 . S
C527 C523 1.393 . S
C527 C526 1.391 . S
H528 C536 0.950 . S
H529 C541 0.950 . S
H530 C538 0.950 . S
H531 C540 0.950 . S
H532 C542 0.950 . S
H533 C544 0.950 . S
H534 C546 0.950 . S
H535 C547 0.950 . S
C536 H528 0.950 . S
C536 C537 1.386 . S
C536 C538 1.391 . S
C537 C536 1.386 . S
C537 C541 1.393 . S
C538 H530 0.950 . S
C538 C536 1.391 . S
C538 C539 1.400 . S
C539 C538 1.400 . S
C539 C540 1.398 . S
C539 C545 1.491 1_545 S
C540 H531 0.950 . S
C540 C539 1.398 . S
C540 C541 1.391 . S
C541 H529 0.950 . S
C541 C537 1.393 . S
C541 C540 1.391 . S
C542 H532 0.950 . S
C542 C543 1.386 . S
C542 C544 1.391 . S
C543 C542 1.386 . S
C543 C547 1.393 . S
C544 H533 0.950 . S
C544 C542 1.391 . S
C544 C545 1.400 . S
C545 C539 1.491 1_565 S
C545 C544 1.400 . S
C545 C546 1.398 . S
C546 H534 0.950 . S
C546 C545 1.398 . S
C546 C547 1.391 . S
C547 H535 0.950 . S
C547 C543 1.393 . S
C547 C546 1.391 . S
H548 C556 0.950 . S
H549 C561 0.950 . S
H550 C558 0.950 . S
H551 C560 0.950 . S
H552 C562 0.950 . S
H553 C564 0.950 . S
H554 C566 0.950 . S
H555 C567 0.950 . S
C556 H548 0.950 . S
C556 C557 1.386 . S
C556 C558 1.391 . S
C557 C556 1.386 . S
C557 C561 1.393 . S
C558 H550 0.950 . S
C558 C556 1.391 . S
C558 C559 1.400 . S
C559 C558 1.400 . S
C559 C560 1.398 . S
C559 C565 1.491 . S
C560 H551 0.950 . S
C560 C559 1.398 . S
C560 C561 1.391 . S
C561 H549 0.950 . S
C561 C557 1.393 . S
C561 C560 1.391 . S
C562 H552 0.950 . S
C562 C563 1.386 . S
C562 C564 1.391 . S
C563 C562 1.386 . S
C563 C567 1.393 . S
C564 H553 0.950 . S
C564 C562 1.391 . S
C564 C565 1.400 . S
C565 C559 1.491 . S
C565 C564 1.400 . S
C565 C566 1.398 . S
C566 H554 0.950 . S
C566 C565 1.398 . S
C566 C567 1.391 . S
C567 H555 0.950 . S
C567 C563 1.393 . S
C567 C566 1.391 . S
H568 C576 0.950 . S
H569 C581 0.950 . S
H570 C578 0.950 . S
H571 C580 0.950 . S
H572 C582 0.950 . S
H573 C584 0.950 . S
H574 C586 0.950 . S
H575 C587 0.950 . S
C576 H568 0.950 . S
C576 C577 1.386 . S
C576 C578 1.391 . S
C577 C576 1.386 . S
C577 C581 1.393 . S
C578 H570 0.950 . S
C578 C576 1.391 . S
C578 C579 1.400 . S
C579 C578 1.400 . S
C579 C580 1.398 . S
C579 C585 1.491 1_455 S
C580 H571 0.950 . S
C580 C579 1.398 . S
C580 C581 1.391 . S
C581 H569 0.950 . S
C581 C577 1.393 . S
C581 C580 1.391 . S
C582 H572 0.950 . S
C582 C583 1.386 . S
C582 C584 1.391 . S
C583 C582 1.386 . S
C583 C587 1.393 . S
C584 H573 0.950 . S
C584 C582 1.391 . S
C584 C585 1.400 . S
C585 C579 1.491 1_655 S
C585 C584 1.400 . S
C585 C586 1.398 . S
C586 H574 0.950 . S
C586 C585 1.398 . S
C586 C587 1.391 . S
C587 H575 0.950 . S
C587 C583 1.393 . S
C587 C586 1.391 . S
H588 C596 0.950 . S
H589 C601 0.950 . S
H590 C598 0.950 . S
H591 C600 0.950 . S
H592 C602 0.950 . S
H593 C604 0.950 . S
H594 C606 0.950 . S
H595 C607 0.950 . S
C596 H588 0.950 . S
C596 C597 1.386 . S
C596 C598 1.391 . S
C597 C596 1.386 . S
C597 C601 1.393 . S
C598 H590 0.950 . S
C598 C596 1.391 . S
C598 C599 1.400 . S
C599 C598 1.400 . S
C599 C600 1.398 . S
C599 C605 1.491 1_565 S
C600 H591 0.950 . S
C600 C599 1.398 . S
C600 C601 1.391 . S
C601 H589 0.950 . S
C601 C597 1.393 . S
C601 C600 1.391 . S
C602 H592 0.950 . S
C602 C603 1.386 . S
C602 C604 1.391 . S
C603 C602 1.386 . S
C603 C607 1.393 . S
C604 H593 0.950 . S
C604 C602 1.391 . S
C604 C605 1.400 . S
C605 C599 1.491 1_545 S
C605 C604 1.400 . S
C605 C606 1.398 . S
C606 H594 0.950 . S
C606 C605 1.398 . S
C606 C607 1.391 . S
C607 H595 0.950 . S
C607 C603 1.393 . S
C607 C606 1.391 . S
H608 C616 0.950 . S
H609 C621 0.950 . S
H610 C618 0.950 . S
H611 C620 0.950 . S
H612 C622 0.950 . S
H613 C624 0.950 . S
H614 C626 0.950 . S
H615 C627 0.950 . S
C616 H608 0.950 . S
C616 C617 1.386 . S
C616 C618 1.391 . S
C617 C616 1.386 . S
C617 C621 1.393 . S
C618 H610 0.950 . S
C618 C616 1.391 . S
C618 C619 1.400 . S
C619 C618 1.400 . S
C619 C620 1.398 . S
C619 C625 1.491 . S
C620 H611 0.950 . S
C620 C619 1.398 . S
C620 C621 1.391 . S
C621 H609 0.950 . S
C621 C617 1.393 . S
C621 C620 1.391 . S
C622 H612 0.950 . S
C622 C623 1.386 . S
C622 C624 1.391 . S
C623 C622 1.386 . S
C623 C627 1.393 . S
C624 H613 0.950 . S
C624 C622 1.391 . S
C624 C625 1.400 . S
C625 C619 1.491 . S
C625 C624 1.400 . S
C625 C626 1.398 . S
C626 H614 0.950 . S
C626 C625 1.398 . S
C626 C627 1.391 . S
C627 H615 0.950 . S
C627 C623 1.393 . S
C627 C626 1.391 . S
H628 C636 0.950 . S
H629 C641 0.950 . S
H630 C638 0.950 . S
H631 C640 0.950 . S
H632 C642 0.950 . S
H633 C644 0.950 . S
H634 C646 0.950 . S
H635 C647 0.950 . S
C636 H628 0.950 . S
C636 C637 1.386 . S
C636 C638 1.391 . S
C637 C636 1.386 . S
C637 C641 1.393 . S
C638 H630 0.950 . S
C638 C636 1.391 . S
C638 C639 1.400 . S
C639 C638 1.400 . S
C639 C640 1.398 . S
C639 C645 1.491 1_455 S
C640 H631 0.950 . S
C640 C639 1.398 . S
C640 C641 1.391 . S
C641 H629 0.950 . S
C641 C637 1.393 . S
C641 C640 1.391 . S
C642 H632 0.950 . S
C642 C643 1.386 . S
C642 C644 1.391 . S
C643 C642 1.386 . S
C643 C647 1.393 . S
C644 H633 0.950 . S
C644 C642 1.391 . S
C644 C645 1.400 . S
C645 C639 1.491 1_655 S
C645 C644 1.400 . S
C645 C646 1.398 . S
C646 H634 0.950 . S
C646 C645 1.398 . S
C646 C647 1.391 . S
C647 H635 0.950 . S
C647 C643 1.393 . S
C647 C646 1.391 . S
C177 C9 1.128 . S
C183 C149 1.126 . S
C197 C23 1.133 . S
C203 C163 1.131 . S
C217 C93 1.134 . S
C223 C37 1.134 . S
C237 C51 1.123 . S
C243 C107 1.123 . S
C257 C121 1.131 . S
C263 C65 1.129 . S
C277 C135 1.127 . S
C283 C79 1.125 1_554 S
C297 C123 1.352 . S
C303 C11 1.350 . S
C317 C25 1.351 . S
C323 C137 1.349 . S
C337 C151 1.359 . S
C343 C39 1.359 . S
C357 C53 1.347 . S
C363 C165 1.349 . S
C377 C67 1.346 . S
C383 C95 1.344 . S
C397 C81 1.343 . S
C403 C109 1.344 . S
C417 C140 1.601 . S
C423 C0 1.613 . S
C437 C154 1.601 . S
C443 C14 1.612 . S
C457 C84 1.603 1_554 S
C463 C28 1.603 . S
C477 C42 1.614 . S
C483 C98 1.603 . S
C497 C56 1.615 . S
C503 C112 1.605 . S
C517 C126 1.601 . S
C523 C70 1.612 . S
C537 C5 1.320 . S
C543 C103 1.318 . S
C557 C117 1.313 . S
C563 C19 1.326 . S
C577 C131 1.325 . S
C583 C33 1.316 . S
C597 C47 1.319 . S
C603 C145 1.323 . S
C617 C61 1.326 . S
C623 C159 1.315 . S
C637 C75 1.317 . S
C643 C89 1.324 . S
