# Generated by pormake.
# Topology ukc, (4)-cn, num edge types: 1
# Building blocks:
#     Node 0, Type 0, BuildingBlock: TATPOV_clean_sbu_0, # of connection points: 4
#     Node 1, Type 0, BuildingBlock: TATPOV_clean_sbu_0, # of connection points: 4
#     Node 2, Type 0, BuildingBlock: TATPOV_clean_sbu_0, # of connection points: 4
#     Node 3, Type 0, BuildingBlock: TATPOV_clean_sbu_0, # of connection points: 4
#     Node 4, Type 0, BuildingBlock: TATPOV_clean_sbu_0, # of connection points: 4
#     Node 5, Type 0, BuildingBlock: TATPOV_clean_sbu_0, # of connection points: 4
#     Node 6, Type 0, BuildingBlock: TATPOV_clean_sbu_0, # of connection points: 4
#     Node 7, Type 0, BuildingBlock: TATPOV_clean_sbu_0, # of connection points: 4
#     Node 8, Type 0, BuildingBlock: TATPOV_clean_sbu_0, # of connection points: 4
#     Node 9, Type 0, BuildingBlock: TATPOV_clean_sbu_0, # of connection points: 4
#     Node 10, Type 0, BuildingBlock: TATPOV_clean_sbu_0, # of connection points: 4
#     Node 11, Type 0, BuildingBlock: TATPOV_clean_sbu_0, # of connection points: 4
#     Node 12, Type 0, BuildingBlock: TATPOV_clean_sbu_0, # of connection points: 4
#     Node 13, Type 0, BuildingBlock: TATPOV_clean_sbu_0, # of connection points: 4
#     Node 14, Type 0, BuildingBlock: TATPOV_clean_sbu_0, # of connection points: 4
#     Node 15, Type 0, BuildingBlock: TATPOV_clean_sbu_0, # of connection points: 4
#     Node 16, Type 0, BuildingBlock: TATPOV_clean_sbu_0, # of connection points: 4
#     Node 17, Type 0, BuildingBlock: TATPOV_clean_sbu_0, # of connection points: 4
#     Node 18, Type 0, BuildingBlock: TATPOV_clean_sbu_0, # of connection points: 4
#     Node 19, Type 0, BuildingBlock: TATPOV_clean_sbu_0, # of connection points: 4
#     Node 20, Type 0, BuildingBlock: TATPOV_clean_sbu_0, # of connection points: 4
#     Node 21, Type 0, BuildingBlock: TATPOV_clean_sbu_0, # of connection points: 4
#     Node 22, Type 0, BuildingBlock: TATPOV_clean_sbu_0, # of connection points: 4
#     Node 23, Type 0, BuildingBlock: TATPOV_clean_sbu_0, # of connection points: 4
#     Node 24, Type 0, BuildingBlock: TATPOV_clean_sbu_0, # of connection points: 4
#     Node 25, Type 0, BuildingBlock: TATPOV_clean_sbu_0, # of connection points: 4
#     Node 26, Type 0, BuildingBlock: TATPOV_clean_sbu_0, # of connection points: 4
#     Node 27, Type 0, BuildingBlock: TATPOV_clean_sbu_0, # of connection points: 4
#     Node 28, Type 0, BuildingBlock: TATPOV_clean_sbu_0, # of connection points: 4
#     Node 29, Type 0, BuildingBlock: TATPOV_clean_sbu_0, # of connection points: 4
#     Node 30, Type 0, BuildingBlock: TATPOV_clean_sbu_0, # of connection points: 4
#     Node 31, Type 0, BuildingBlock: TATPOV_clean_sbu_0, # of connection points: 4
#     Edge 32, Type (0, 0), BuildingBlock: UVAHIK_clean_linker_0, # of connection points: 2
#     Edge 33, Type (0, 0), BuildingBlock: UVAHIK_clean_linker_0, # of connection points: 2
#     Edge 34, Type (0, 0), BuildingBlock: UVAHIK_clean_linker_0, # of connection points: 2
#     Edge 35, Type (0, 0), BuildingBlock: UVAHIK_clean_linker_0, # of connection points: 2
#     Edge 36, Type (0, 0), BuildingBlock: UVAHIK_clean_linker_0, # of connection points: 2
#     Edge 37, Type (0, 0), BuildingBlock: UVAHIK_clean_linker_0, # of connection points: 2
#     Edge 38, Type (0, 0), BuildingBlock: UVAHIK_clean_linker_0, # of connection points: 2
#     Edge 39, Type (0, 0), BuildingBlock: UVAHIK_clean_linker_0, # of connection points: 2
#     Edge 40, Type (0, 0), BuildingBlock: UVAHIK_clean_linker_0, # of connection points: 2
#     Edge 41, Type (0, 0), BuildingBlock: UVAHIK_clean_linker_0, # of connection points: 2
#     Edge 42, Type (0, 0), BuildingBlock: UVAHIK_clean_linker_0, # of connection points: 2
#     Edge 43, Type (0, 0), BuildingBlock: UVAHIK_clean_linker_0, # of connection points: 2
#     Edge 44, Type (0, 0), BuildingBlock: UVAHIK_clean_linker_0, # of connection points: 2
#     Edge 45, Type (0, 0), BuildingBlock: UVAHIK_clean_linker_0, # of connection points: 2
#     Edge 46, Type (0, 0), BuildingBlock: UVAHIK_clean_linker_0, # of connection points: 2
#     Edge 47, Type (0, 0), BuildingBlock: UVAHIK_clean_linker_0, # of connection points: 2
#     Edge 48, Type (0, 0), BuildingBlock: UVAHIK_clean_linker_0, # of connection points: 2
#     Edge 49, Type (0, 0), BuildingBlock: UVAHIK_clean_linker_0, # of connection points: 2
#     Edge 50, Type (0, 0), BuildingBlock: UVAHIK_clean_linker_0, # of connection points: 2
#     Edge 51, Type (0, 0), BuildingBlock: UVAHIK_clean_linker_0, # of connection points: 2
#     Edge 52, Type (0, 0), BuildingBlock: UVAHIK_clean_linker_0, # of connection points: 2
#     Edge 53, Type (0, 0), BuildingBlock: UVAHIK_clean_linker_0, # of connection points: 2
#     Edge 54, Type (0, 0), BuildingBlock: UVAHIK_clean_linker_0, # of connection points: 2
#     Edge 55, Type (0, 0), BuildingBlock: UVAHIK_clean_linker_0, # of connection points: 2
#     Edge 56, Type (0, 0), BuildingBlock: UVAHIK_clean_linker_0, # of connection points: 2
#     Edge 57, Type (0, 0), BuildingBlock: UVAHIK_clean_linker_0, # of connection points: 2
#     Edge 58, Type (0, 0), BuildingBlock: UVAHIK_clean_linker_0, # of connection points: 2
#     Edge 59, Type (0, 0), BuildingBlock: UVAHIK_clean_linker_0, # of connection points: 2
#     Edge 60, Type (0, 0), BuildingBlock: UVAHIK_clean_linker_0, # of connection points: 2
#     Edge 61, Type (0, 0), BuildingBlock: UVAHIK_clean_linker_0, # of connection points: 2
#     Edge 62, Type (0, 0), BuildingBlock: UVAHIK_clean_linker_0, # of connection points: 2
#     Edge 63, Type (0, 0), BuildingBlock: UVAHIK_clean_linker_0, # of connection points: 2
#     Edge 64, Type (0, 0), BuildingBlock: UVAHIK_clean_linker_0, # of connection points: 2
#     Edge 65, Type (0, 0), BuildingBlock: UVAHIK_clean_linker_0, # of connection points: 2
#     Edge 66, Type (0, 0), BuildingBlock: UVAHIK_clean_linker_0, # of connection points: 2
#     Edge 67, Type (0, 0), BuildingBlock: UVAHIK_clean_linker_0, # of connection points: 2
#     Edge 68, Type (0, 0), BuildingBlock: UVAHIK_clean_linker_0, # of connection points: 2
#     Edge 69, Type (0, 0), BuildingBlock: UVAHIK_clean_linker_0, # of connection points: 2
#     Edge 70, Type (0, 0), BuildingBlock: UVAHIK_clean_linker_0, # of connection points: 2
#     Edge 71, Type (0, 0), BuildingBlock: UVAHIK_clean_linker_0, # of connection points: 2
#     Edge 72, Type (0, 0), BuildingBlock: UVAHIK_clean_linker_0, # of connection points: 2
#     Edge 73, Type (0, 0), BuildingBlock: UVAHIK_clean_linker_0, # of connection points: 2
#     Edge 74, Type (0, 0), BuildingBlock: UVAHIK_clean_linker_0, # of connection points: 2
#     Edge 75, Type (0, 0), BuildingBlock: UVAHIK_clean_linker_0, # of connection points: 2
#     Edge 76, Type (0, 0), BuildingBlock: UVAHIK_clean_linker_0, # of connection points: 2
#     Edge 77, Type (0, 0), BuildingBlock: UVAHIK_clean_linker_0, # of connection points: 2
#     Edge 78, Type (0, 0), BuildingBlock: UVAHIK_clean_linker_0, # of connection points: 2
#     Edge 79, Type (0, 0), BuildingBlock: UVAHIK_clean_linker_0, # of connection points: 2
#     Edge 80, Type (0, 0), BuildingBlock: UVAHIK_clean_linker_0, # of connection points: 2
#     Edge 81, Type (0, 0), BuildingBlock: UVAHIK_clean_linker_0, # of connection points: 2
#     Edge 82, Type (0, 0), BuildingBlock: UVAHIK_clean_linker_0, # of connection points: 2
#     Edge 83, Type (0, 0), BuildingBlock: UVAHIK_clean_linker_0, # of connection points: 2
#     Edge 84, Type (0, 0), BuildingBlock: UVAHIK_clean_linker_0, # of connection points: 2
#     Edge 85, Type (0, 0), BuildingBlock: UVAHIK_clean_linker_0, # of connection points: 2
#     Edge 86, Type (0, 0), BuildingBlock: UVAHIK_clean_linker_0, # of connection points: 2
#     Edge 87, Type (0, 0), BuildingBlock: UVAHIK_clean_linker_0, # of connection points: 2
#     Edge 88, Type (0, 0), BuildingBlock: UVAHIK_clean_linker_0, # of connection points: 2
#     Edge 89, Type (0, 0), BuildingBlock: UVAHIK_clean_linker_0, # of connection points: 2
#     Edge 90, Type (0, 0), BuildingBlock: UVAHIK_clean_linker_0, # of connection points: 2
#     Edge 91, Type (0, 0), BuildingBlock: UVAHIK_clean_linker_0, # of connection points: 2
#     Edge 92, Type (0, 0), BuildingBlock: UVAHIK_clean_linker_0, # of connection points: 2
#     Edge 93, Type (0, 0), BuildingBlock: UVAHIK_clean_linker_0, # of connection points: 2
#     Edge 94, Type (0, 0), BuildingBlock: UVAHIK_clean_linker_0, # of connection points: 2
#     Edge 95, Type (0, 0), BuildingBlock: UVAHIK_clean_linker_0, # of connection points: 2
# Relax obj value: 0.025
# Max RMSD: 0.064
# Mean RMSD: 0.064
data_MOF--net-ukc--node1-TATPOV_clean_sbu_0--edge1-UVAHIK_clean_linker_0
_symmetry_space_group_name_H-M    P1
_symmetry_Int_Tables_number       1
_symmetry_cell_setting            triclinic
loop_
_symmetry_equiv_pos_as_xyz
'x, y, z'
_cell_length_a     58.048329
_cell_length_b     58.02303
_cell_length_c     111.02819
_cell_angle_alpha  90.042592
_cell_angle_beta   90.029712
_cell_angle_gamma 89.998295
loop_
_atom_site_label
_atom_site_type_symbol
_atom_site_fract_x
_atom_site_fract_y
_atom_site_fract_z
_atom_type_partial_charge
Zn0 Zn 0.05595 0.39037 0.03747 0.0
Zn1 Zn 0.09462 0.3843 0.02568 0.0
O2 O 0.10468 0.38825 0.04349 0.0
O3 O 0.07185 0.38915 0.05337 0.0
O4 O 0.12529 0.38166 0.01696 0.0
O5 O 0.05052 0.42076 0.02979 0.0
O6 O 0.08033 0.41371 0.01812 0.0
C7 C 0.09363 0.38939 0.0534 0.0
C8 C 0.05551 0.34885 0.02372 0.0
O9 O 0.07659 0.35401 0.0218 0.0
O10 O 0.04278 0.36218 0.02979 0.0
C11 C 0.14091 0.36766 0.0203 0.0
O12 O 0.13667 0.35363 0.02931 0.0
C13 C 0.06334 0.42647 0.02109 0.0
Zn14 Zn 0.82367 0.80793 0.28867 0.0
Zn15 Zn 0.83831 0.84254 0.27529 0.0
O16 O 0.83297 0.85593 0.2925 0.0
O17 O 0.81997 0.82703 0.30339 0.0
O18 O 0.84714 0.87129 0.26585 0.0
O19 O 0.79653 0.80301 0.27821 0.0
O20 O 0.80948 0.83014 0.26611 0.0
C21 C 0.82553 0.848 0.30249 0.0
C22 C 0.8688 0.80003 0.27843 0.0
O23 O 0.86612 0.82019 0.27403 0.0
O24 O 0.85323 0.79129 0.28498 0.0
C25 C 0.8609 0.88609 0.27033 0.0
O26 O 0.87042 0.88181 0.28084 0.0
C27 C 0.79463 0.81464 0.26864 0.0
Zn28 Zn 0.45035 0.63296 0.55167 0.0
Zn29 Zn 0.41337 0.62973 0.53833 0.0
O30 O 0.40111 0.63617 0.55554 0.0
O31 O 0.43251 0.64499 0.56569 0.0
O32 O 0.38383 0.62708 0.5286 0.0
O33 O 0.45659 0.59921 0.55006 0.0
O34 O 0.42891 0.59787 0.53652 0.0
C35 C 0.41085 0.64295 0.56521 0.0
C36 C 0.45269 0.66279 0.53146 0.0
O37 O 0.43189 0.65614 0.53003 0.0
O38 O 0.46475 0.65453 0.5399 0.0
C39 C 0.37256 0.64502 0.52566 0.0
O40 O 0.38066 0.66534 0.52874 0.0
C41 C 0.44538 0.58812 0.54219 0.0
Zn42 Zn 0.65016 0.18645 0.80342 0.0
Zn43 Zn 0.64169 0.15259 0.78779 0.0
O44 O 0.64891 0.13634 0.80401 0.0
O45 O 0.65561 0.16445 0.81686 0.0
O46 O 0.63721 0.12532 0.77651 0.0
O47 O 0.67692 0.19712 0.79382 0.0
O48 O 0.66866 0.17087 0.78012 0.0
C49 C 0.65424 0.14315 0.81458 0.0
C50 C 0.60522 0.18971 0.7924 0.0
O51 O 0.61107 0.17094 0.78723 0.0
O52 O 0.61885 0.19945 0.79972 0.0
C53 C 0.62486 0.10831 0.77977 0.0
O54 O 0.61424 0.1093 0.7902 0.0
C55 C 0.68092 0.18778 0.78374 0.0
Zn56 Zn 0.08266 0.61182 0.43467 0.0
Zn57 Zn 0.11558 0.61519 0.45041 0.0
O58 O 0.13214 0.60987 0.43409 0.0
O59 O 0.1044 0.61476 0.42081 0.0
O60 O 0.14264 0.61694 0.46198 0.0
O61 O 0.07359 0.58074 0.44087 0.0
O62 O 0.0967 0.5871 0.45624 0.0
C63 C 0.12543 0.61152 0.4232 0.0
C64 C 0.0777 0.65194 0.44903 0.0
O65 O 0.09773 0.64616 0.45271 0.0
O66 O 0.06694 0.63932 0.44164 0.0
C67 C 0.15517 0.63491 0.46242 0.0
O68 O 0.1497 0.65268 0.45567 0.0
C69 C 0.08126 0.57491 0.45109 0.0
Zn70 Zn 0.63534 0.8081 0.69675 0.0
Zn71 Zn 0.63499 0.84646 0.70769 0.0
O72 O 0.63289 0.85525 0.68944 0.0
O73 O 0.62565 0.82156 0.68119 0.0
O74 O 0.63502 0.8773 0.71641 0.0
O75 O 0.66873 0.80294 0.69985 0.0
O76 O 0.66647 0.83215 0.71243 0.0
C77 C 0.62799 0.84312 0.68018 0.0
C78 C 0.60137 0.80754 0.71465 0.0
O79 O 0.60693 0.82883 0.71516 0.0
O80 O 0.61221 0.79412 0.7077 0.0
C81 C 0.62137 0.89358 0.71357 0.0
O82 O 0.60665 0.89037 0.70473 0.0
C83 C 0.67781 0.81542 0.70788 0.0
Zn84 Zn 0.4481 0.42128 0.94836 0.0
Zn85 Zn 0.40925 0.41104 0.95937 0.0
O86 O 0.39986 0.41918 0.94185 0.0
O87 O 0.43271 0.42456 0.93241 0.0
O88 O 0.37792 0.40485 0.96698 0.0
O89 O 0.45233 0.44898 0.95856 0.0
O90 O 0.42254 0.43826 0.96949 0.0
C91 C 0.41095 0.42362 0.93221 0.0
C92 C 0.44903 0.37609 0.95847 0.0
O93 O 0.42796 0.38051 0.96084 0.0
O94 O 0.46167 0.39118 0.95359 0.0
C95 C 0.37288 0.38838 0.97407 0.0
O96 O 0.38901 0.37368 0.97722 0.0
C97 C 0.43935 0.45198 0.96756 0.0
Zn98 Zn 0.85035 0.18963 0.19063 0.0
Zn99 Zn 0.85982 0.15068 0.20196 0.0
O100 O 0.85188 0.14155 0.18437 0.0
O101 O 0.84591 0.17418 0.1748 0.0
O102 O 0.86418 0.11918 0.20962 0.0
O103 O 0.82307 0.19513 0.20094 0.0
O104 O 0.83301 0.165 0.21182 0.0
C105 C 0.84693 0.15242 0.17473 0.0
C106 C 0.89554 0.18931 0.20142 0.0
O107 O 0.89068 0.16845 0.20406 0.0
O108 O 0.88103 0.20178 0.19595 0.0
C109 C 0.87413 0.11495 0.21959 0.0
O110 O 0.88317 0.13204 0.22575 0.0
C111 C 0.81984 0.18226 0.20996 0.0
Zn112 Zn 0.93297 0.61356 0.92652 0.0
Zn113 Zn 0.90341 0.62081 0.94433 0.0
O114 O 0.88396 0.60907 0.9299 0.0
O115 O 0.90921 0.59855 0.91615 0.0
O116 O 0.87838 0.62477 0.95693 0.0
O117 O 0.95195 0.59371 0.93734 0.0
O118 O 0.92602 0.59721 0.95171 0.0
C119 C 0.88864 0.59986 0.91978 0.0
C120 C 0.93239 0.66063 0.93436 0.0
O121 O 0.91897 0.6527 0.94246 0.0
O122 O 0.93933 0.64771 0.92591 0.0
C123 C 0.86503 0.64216 0.95677 0.0
O124 O 0.86868 0.65853 0.94883 0.0
C125 C 0.9449 0.58876 0.9478 0.0
Zn126 Zn 0.15939 0.16848 0.6936 0.0
Zn127 Zn 0.14628 0.13384 0.70718 0.0
O128 O 0.15573 0.11983 0.6906 0.0
O129 O 0.16745 0.14906 0.67955 0.0
O130 O 0.13922 0.10458 0.71652 0.0
O131 O 0.18425 0.17701 0.70485 0.0
O132 O 0.17179 0.15024 0.71731 0.0
C133 C 0.16402 0.12771 0.68079 0.0
C134 C 0.11239 0.17268 0.70198 0.0
O135 O 0.1162 0.15309 0.70682 0.0
O136 O 0.12798 0.18249 0.69587 0.0
C137 C 0.12943 0.10303 0.72674 0.0
O138 O 0.12253 0.12191 0.7322 0.0
C139 C 0.18549 0.16683 0.71488 0.0
Zn140 Zn 0.5581 0.40228 0.45 0.0
Zn141 Zn 0.59604 0.39239 0.46143 0.0
O142 O 0.60592 0.40387 0.44444 0.0
O143 O 0.57363 0.41003 0.43462 0.0
O144 O 0.62732 0.38759 0.46926 0.0
O145 O 0.5502 0.427 0.4615 0.0
O146 O 0.57968 0.41619 0.4726 0.0
C147 C 0.59539 0.40986 0.43484 0.0
C148 C 0.55895 0.35559 0.45835 0.0
O149 O 0.57947 0.36053 0.4616 0.0
O150 O 0.54632 0.37063 0.45342 0.0
C151 C 0.63145 0.3763 0.47884 0.0
O152 O 0.61435 0.36621 0.48451 0.0
C153 C 0.56181 0.4287 0.47108 0.0
Zn154 Zn 0.33914 0.80331 0.2027 0.0
Zn155 Zn 0.35164 0.83825 0.21489 0.0
O156 O 0.34829 0.8502 0.19717 0.0
O157 O 0.34181 0.8185 0.18688 0.0
O158 O 0.35859 0.86755 0.22431 0.0
O159 O 0.30841 0.80119 0.21016 0.0
O160 O 0.32142 0.82666 0.22315 0.0
C161 C 0.34492 0.84003 0.18711 0.0
C162 C 0.38078 0.79449 0.21543 0.0
O163 O 0.37948 0.81601 0.2178 0.0
O164 O 0.36493 0.78473 0.2095 0.0
C165 C 0.37206 0.88323 0.22049 0.0
O166 O 0.38305 0.88002 0.21028 0.0
C167 C 0.30578 0.81262 0.21974 0.0
Zn168 Zn 0.94058 0.41295 0.5479 0.0
Zn169 Zn 0.90541 0.39994 0.53448 0.0
O170 O 0.89154 0.41044 0.5509 0.0
O171 O 0.92106 0.42227 0.56172 0.0
O172 O 0.87644 0.3925 0.52492 0.0
O173 O 0.94971 0.43677 0.53617 0.0
O174 O 0.92203 0.42488 0.5241 0.0
C175 C 0.89964 0.41912 0.56058 0.0
C176 C 0.94363 0.36546 0.54033 0.0
O177 O 0.92425 0.36961 0.53533 0.0
O178 O 0.95381 0.38107 0.54627 0.0
C179 C 0.86077 0.37996 0.52955 0.0
O180 O 0.86434 0.37087 0.54023 0.0
C181 C 0.93917 0.43807 0.52624 0.0
Zn182 Zn 0.33611 0.17535 0.30901 0.0
Zn183 Zn 0.3487 0.14014 0.29543 0.0
O184 O 0.33959 0.12666 0.3121 0.0
O185 O 0.33 0.15615 0.32349 0.0
O186 O 0.35474 0.11058 0.28609 0.0
O187 O 0.31027 0.18317 0.29805 0.0
O188 O 0.32311 0.15659 0.28558 0.0
C189 C 0.33266 0.13468 0.32217 0.0
C190 C 0.38262 0.17928 0.29966 0.0
O191 O 0.3789 0.15924 0.29529 0.0
O192 O 0.36715 0.18941 0.30572 0.0
C193 C 0.36887 0.10727 0.27751 0.0
O194 O 0.38169 0.12447 0.27373 0.0
C195 C 0.30921 0.17301 0.288 0.0
Zn196 Zn 0.58508 0.63563 0.05755 0.0
Zn197 Zn 0.61551 0.63363 0.03953 0.0
O198 O 0.63352 0.62452 0.05505 0.0
O199 O 0.60892 0.62916 0.06996 0.0
O200 O 0.64125 0.63269 0.0271 0.0
O201 O 0.56771 0.60963 0.0495 0.0
O202 O 0.5919 0.60933 0.03418 0.0
C203 C 0.62885 0.62409 0.06627 0.0
C204 C 0.58639 0.67749 0.04434 0.0
O205 O 0.60121 0.66647 0.03809 0.0
O206 O 0.57731 0.66823 0.05349 0.0
C207 C 0.65312 0.65058 0.02476 0.0
O208 O 0.64767 0.67017 0.02997 0.0
C209 C 0.5738 0.60172 0.03934 0.0
Zn210 Zn 0.13801 0.80782 0.81186 0.0
Zn211 Zn 0.12975 0.83936 0.79591 0.0
O212 O 0.14801 0.85553 0.80971 0.0
O213 O 0.15889 0.82742 0.82171 0.0
O214 O 0.12456 0.86625 0.78448 0.0
O215 O 0.15147 0.78743 0.79934 0.0
O216 O 0.14818 0.81527 0.78598 0.0
C217 C 0.15932 0.84848 0.81885 0.0
C218 C 0.09011 0.81316 0.80826 0.0
O219 O 0.09714 0.82674 0.79999 0.0
O220 O 0.10444 0.80434 0.81551 0.0
C221 C 0.11546 0.88459 0.78861 0.0
O222 O 0.10851 0.88487 0.79987 0.0
C223 C 0.15457 0.79489 0.78876 0.0
Zn224 Zn 0.57939 0.88788 0.54197 0.0
Zn225 Zn 0.61606 0.88833 0.52977 0.0
O226 O 0.62708 0.88305 0.54739 0.0
O227 O 0.59452 0.87369 0.55625 0.0
O228 O 0.64608 0.88919 0.52032 0.0
O229 O 0.5754 0.92193 0.54117 0.0
O230 O 0.60141 0.92051 0.5268 0.0
C231 C 0.61616 0.87585 0.55661 0.0
C232 C 0.5756 0.8574 0.52251 0.0
O233 O 0.5972 0.86143 0.52199 0.0
O234 O 0.56313 0.86832 0.52988 0.0
C235 C 0.65667 0.87073 0.51754 0.0
O236 O 0.64774 0.85083 0.52071 0.0
C237 C 0.58619 0.9317 0.53271 0.0
Zn238 Zn 0.35077 0.3138 0.80573 0.0
Zn239 Zn 0.35724 0.34916 0.79176 0.0
O240 O 0.35371 0.36309 0.80894 0.0
O241 O 0.35223 0.33258 0.82064 0.0
O242 O 0.36015 0.37786 0.78137 0.0
O243 O 0.32022 0.30667 0.79868 0.0
O244 O 0.32837 0.33248 0.78479 0.0
C245 C 0.35244 0.35424 0.81944 0.0
C246 C 0.39226 0.30988 0.79199 0.0
O247 O 0.38735 0.3305 0.78889 0.0
O248 O 0.37881 0.29869 0.79878 0.0
C249 C 0.37726 0.39143 0.78244 0.0
O250 O 0.3937 0.38616 0.7901 0.0
C251 C 0.31528 0.31663 0.7889 0.0
Zn252 Zn 0.92781 0.09653 0.04456 0.0
Zn253 Zn 0.89235 0.10527 0.0302 0.0
O254 O 0.87836 0.10126 0.04732 0.0
O255 O 0.908 0.09304 0.05897 0.0
O256 O 0.86339 0.10942 0.0201 0.0
O257 O 0.93571 0.06828 0.03548 0.0
O258 O 0.9077 0.07616 0.02273 0.0
C259 C 0.8866 0.09601 0.05761 0.0
C260 C 0.93197 0.14002 0.03214 0.0
O261 O 0.91238 0.13456 0.02772 0.0
O262 O 0.94176 0.12678 0.03962 0.0
C263 C 0.85445 0.12869 0.01725 0.0
O264 O 0.86484 0.14784 0.02046 0.0
C265 C 0.92446 0.06342 0.02607 0.0
Zn266 Zn 0.11425 0.66386 0.30303 0.0
Zn267 Zn 0.11316 0.63453 0.28483 0.0
O268 O 0.12128 0.6151 0.3 0.0
O269 O 0.11846 0.63925 0.31525 0.0
O270 O 0.11354 0.60963 0.27197 0.0
O271 O 0.1417 0.67964 0.2957 0.0
O272 O 0.13877 0.65708 0.27979 0.0
C273 C 0.12208 0.61919 0.31127 0.0
C274 C 0.07186 0.66646 0.28999 0.0
O275 O 0.08084 0.65029 0.28373 0.0
O276 O 0.0828 0.67489 0.29881 0.0
C277 C 0.09702 0.59534 0.27099 0.0
O278 O 0.07879 0.59792 0.27787 0.0
C279 C 0.14838 0.67387 0.28527 0.0
Zn280 Zn 0.55243 0.10898 0.93593 0.0
Zn281 Zn 0.58805 0.11607 0.95061 0.0
O282 O 0.60202 0.10381 0.93461 0.0
O283 O 0.57227 0.0964 0.9229 0.0
O284 O 0.61671 0.11898 0.96102 0.0
O285 O 0.53846 0.08702 0.9475 0.0
O286 O 0.56715 0.09345 0.96008 0.0
C287 C 0.59376 0.09622 0.92472 0.0
C288 C 0.55569 0.15598 0.94434 0.0
O289 O 0.57334 0.14854 0.94999 0.0
O290 O 0.54449 0.14263 0.93746 0.0
C291 C 0.63071 0.13575 0.96 0.0
O292 O 0.6259 0.15244 0.95241 0.0
C293 C 0.54812 0.08354 0.95754 0.0
Zn294 Zn 0.15748 0.30405 0.18325 0.0
Zn295 Zn 0.1479 0.3413 0.19605 0.0
O296 O 0.15421 0.35334 0.1787 0.0
O297 O 0.16097 0.32195 0.16816 0.0
O298 O 0.14247 0.37104 0.20539 0.0
O299 O 0.18523 0.29737 0.19308 0.0
O300 O 0.17546 0.32615 0.20498 0.0
C301 C 0.15906 0.34362 0.1687 0.0
C302 C 0.11295 0.30171 0.19445 0.0
O303 O 0.11803 0.32202 0.19799 0.0
O304 O 0.12707 0.29039 0.18808 0.0
C305 C 0.12266 0.38001 0.20688 0.0
O306 O 0.10449 0.36949 0.20246 0.0
C307 C 0.18865 0.3092 0.20248 0.0
Zn308 Zn 0.94971 0.90276 0.42746 0.0
Zn309 Zn 0.9142 0.89531 0.44232 0.0
O310 O 0.89958 0.89889 0.42538 0.0
O311 O 0.9289 0.9047 0.41319 0.0
O312 O 0.88603 0.89241 0.45308 0.0
O313 O 0.95834 0.93157 0.43613 0.0
O314 O 0.93072 0.92409 0.44915 0.0
C315 C 0.90744 0.90265 0.41483 0.0
C316 C 0.95302 0.85984 0.4407 0.0
O317 O 0.93342 0.86564 0.44494 0.0
O318 O 0.96315 0.87269 0.43315 0.0
C319 C 0.87388 0.87421 0.45376 0.0
O320 O 0.88012 0.85593 0.44758 0.0
C321 C 0.94757 0.93656 0.44567 0.0
Zn322 Zn 0.36096 0.69941 0.70767 0.0
Zn323 Zn 0.36477 0.65832 0.71558 0.0
O324 O 0.36805 0.65424 0.69701 0.0
O325 O 0.37127 0.69037 0.69127 0.0
O326 O 0.3664 0.62555 0.72216 0.0
O327 O 0.32756 0.7014 0.71106 0.0
O328 O 0.33196 0.66877 0.72083 0.0
C329 C 0.37146 0.66913 0.68875 0.0
C330 C 0.39572 0.69775 0.72504 0.0
O331 O 0.39196 0.67616 0.72386 0.0
O332 O 0.38319 0.71212 0.71954 0.0
C333 C 0.38442 0.61627 0.72654 0.0
O334 O 0.40368 0.62814 0.72683 0.0
C335 C 0.31936 0.6858 0.71772 0.0
Zn336 Zn 0.43495 0.09418 0.44304 0.0
Zn337 Zn 0.40223 0.10579 0.45822 0.0
O338 O 0.38599 0.09265 0.44292 0.0
O339 O 0.41372 0.08094 0.43087 0.0
O340 O 0.37465 0.11287 0.46891 0.0
O341 O 0.44905 0.07347 0.45512 0.0
O342 O 0.42242 0.08322 0.46829 0.0
C343 C 0.39252 0.08305 0.43316 0.0
C344 C 0.43652 0.14214 0.44936 0.0
O345 O 0.4193 0.13681 0.45594 0.0
O346 O 0.44561 0.12711 0.44259 0.0
C347 C 0.35771 0.12389 0.46444 0.0
O348 O 0.35927 0.13145 0.45332 0.0
C349 C 0.44063 0.07199 0.46558 0.0
Zn350 Zn 0.61546 0.65479 0.18424 0.0
Zn351 Zn 0.61935 0.62507 0.2023 0.0
O352 O 0.62743 0.60671 0.18669 0.0
O353 O 0.62053 0.63078 0.17178 0.0
O354 O 0.62111 0.59969 0.21491 0.0
O355 O 0.64231 0.67236 0.19131 0.0
O356 O 0.64388 0.64903 0.20697 0.0
C357 C 0.62645 0.61106 0.17545 0.0
C358 C 0.57502 0.65407 0.19846 0.0
O359 O 0.58658 0.63925 0.20444 0.0
O360 O 0.58342 0.66306 0.18907 0.0
C361 C 0.60395 0.58624 0.21618 0.0
O362 O 0.58534 0.58995 0.20973 0.0
C363 C 0.65103 0.66684 0.20137 0.0
Zn364 Zn 0.08183 0.90607 0.92971 0.0
Zn365 Zn 0.11087 0.8952 0.94701 0.0
O366 O 0.13053 0.90671 0.93247 0.0
O367 O 0.10579 0.91875 0.91887 0.0
O368 O 0.13597 0.88881 0.95936 0.0
O369 O 0.06494 0.9273 0.94065 0.0
O370 O 0.08945 0.9191 0.95519 0.0
C371 C 0.12636 0.91605 0.9223 0.0
C372 C 0.07883 0.85841 0.93653 0.0
O373 O 0.09351 0.8643 0.94452 0.0
O374 O 0.07218 0.87283 0.92871 0.0
C375 C 0.15337 0.877 0.9561 0.0
O376 O 0.15357 0.86814 0.9452 0.0
C377 C 0.07175 0.92995 0.95138 0.0
Zn378 Zn 0.85909 0.31007 0.68655 0.0
Zn379 Zn 0.87156 0.34499 0.70057 0.0
O380 O 0.86512 0.3592 0.68372 0.0
O381 O 0.85614 0.32991 0.67204 0.0
O382 O 0.87897 0.37335 0.7107 0.0
O383 O 0.83127 0.30434 0.69647 0.0
O384 O 0.84316 0.33094 0.70919 0.0
C385 C 0.85919 0.35131 0.67345 0.0
C386 C 0.90359 0.30342 0.69749 0.0
O387 O 0.90031 0.32369 0.70165 0.0
O388 O 0.88849 0.29395 0.69091 0.0
C389 C 0.86573 0.39073 0.70961 0.0
O390 O 0.8481 0.38932 0.70222 0.0
C391 C 0.82877 0.31531 0.70622 0.0
Zn392 Zn 0.43547 0.90909 0.05265 0.0
Zn393 Zn 0.39897 0.89722 0.04159 0.0
O394 O 0.38976 0.89795 0.05978 0.0
O395 O 0.42315 0.90221 0.06886 0.0
O396 O 0.36858 0.89037 0.03317 0.0
O397 O 0.43469 0.9413 0.04677 0.0
O398 O 0.40823 0.92882 0.0342 0.0
C399 C 0.40163 0.89919 0.06945 0.0
C400 C 0.44348 0.87021 0.0377 0.0
O401 O 0.42156 0.87073 0.0367 0.0
O402 O 0.45382 0.88577 0.04357 0.0
C403 C 0.36732 0.88243 0.0225 0.0
O404 O 0.38645 0.87762 0.0167 0.0
C405 C 0.42188 0.94467 0.03775 0.0
Zn406 Zn 0.83556 0.66984 0.80359 0.0
Zn407 Zn 0.85396 0.64158 0.78781 0.0
O408 O 0.8418 0.6215 0.80195 0.0
O409 O 0.82275 0.64494 0.81393 0.0
O410 O 0.86389 0.61686 0.77593 0.0
O411 O 0.81563 0.6846 0.79139 0.0
O412 O 0.83084 0.66138 0.77789 0.0
C413 C 0.82925 0.62483 0.81121 0.0
C414 C 0.8846 0.67715 0.79983 0.0
O415 O 0.88268 0.66089 0.79213 0.0
O416 O 0.86736 0.68314 0.80609 0.0
C417 C 0.87631 0.5999 0.77921 0.0
O418 O 0.88438 0.5995 0.79027 0.0
C419 C 0.81725 0.67789 0.7806 0.0
Zn420 Zn 0.0636 0.10127 0.55246 0.0
Zn421 Zn 0.10038 0.11319 0.53992 0.0
O422 O 0.11208 0.10221 0.55664 0.0
O423 O 0.08132 0.09343 0.56723 0.0
O424 O 0.13086 0.11937 0.53155 0.0
O425 O 0.05614 0.07652 0.54076 0.0
O426 O 0.08466 0.08838 0.52925 0.0
C427 C 0.10297 0.09501 0.5664 0.0
C428 C 0.06186 0.14822 0.54389 0.0
O429 O 0.08203 0.14397 0.53986 0.0
O430 O 0.05076 0.13285 0.54952 0.0
C431 C 0.13374 0.12704 0.52093 0.0
O432 O 0.11562 0.13244 0.51441 0.0
C433 C 0.06746 0.07511 0.53107 0.0
Zn434 Zn 0.64213 0.30007 0.31153 0.0
Zn435 Zn 0.63475 0.33565 0.29714 0.0
O436 O 0.64193 0.35017 0.31382 0.0
O437 O 0.64587 0.32033 0.32584 0.0
O438 O 0.63158 0.36405 0.28652 0.0
O439 O 0.66983 0.29043 0.30232 0.0
O440 O 0.66164 0.31767 0.2892 0.0
C441 C 0.64571 0.34191 0.32428 0.0
C442 C 0.59783 0.29826 0.30002 0.0
O443 O 0.60367 0.31793 0.29587 0.0
O444 O 0.61145 0.28715 0.30677 0.0
C445 C 0.61274 0.37479 0.28484 0.0
O446 O 0.59381 0.36696 0.28987 0.0
C447 C 0.67396 0.30057 0.29249 0.0
C448 C 0.9537 0.56966 0.96758 0.0
C449 C 0.95918 0.57353 0.95542 0.0
C450 C 0.96787 0.55574 0.97472 0.0
C451 C 0.01044 0.50917 0.9726 0.0
H452 H 0.02609 0.5272 0.00523 0.0
C453 C 0.06661 0.45111 0.00258 0.0
C454 C 0.05726 0.44719 0.01407 0.0
C455 C 0.05822 0.46909 0.99542 0.0
C456 C 0.02183 0.52193 -0.00387 0.0
H457 H 0.98376 0.56574 0.94123 0.0
H458 H 0.00826 0.54158 0.95366 0.0
H459 H 0.00301 0.55299 0.99272 0.0
H460 H 0.03296 0.45994 0.02737 0.0
H461 H 0.01828 0.49086 0.01491 0.0
H462 H 0.02862 0.47785 0.97608 0.0
C463 C 0.99302 0.54917 0.95766 0.0
C464 C 0.00856 0.53665 0.98901 0.0
C465 C 0.97898 0.5631 0.95056 0.0
C466 C 0.0404 0.46236 0.01851 0.0
C467 C 0.03211 0.48027 0.0114 0.0
C468 C 0.02361 0.49442 0.97974 0.0
C469 C 0.98764 0.54536 0.9698 0.0
C470 C 0.00248 0.53026 0.97723 0.0
C471 C 0.04048 0.4835 -0.00033 0.0
C472 C 0.02915 0.50047 0.99164 0.0
H473 H 0.9386 0.57747 0.97159 0.0
H474 H 0.96319 0.55286 0.98404 0.0
H475 H 0.00583 0.50371 0.96358 0.0
H476 H 0.07968 0.43976 -0.00106 0.0
H477 H 0.06521 0.47137 0.98646 0.0
C478 C 0.67018 0.68347 0.21958 0.0
C479 C 0.66784 0.68262 0.207 0.0
C480 C 0.68332 0.70081 0.22497 0.0
C481 C 0.72995 0.74167 0.22055 0.0
H482 H 0.6992 0.77684 0.24554 0.0
C483 C 0.77894 0.81075 0.24765 0.0
C484 C 0.77617 0.8082 0.26014 0.0
C485 C 0.76367 0.79982 0.2397 0.0
C486 C 0.70808 0.76717 0.2386 0.0
H487 H 0.67846 0.69838 0.19017 0.0
H488 H 0.702 0.72829 0.19965 0.0
H489 H 0.67826 0.74664 0.23487 0.0
H490 H 0.75426 0.79405 0.27412 0.0
H491 H 0.72807 0.77501 0.26044 0.0
H492 H 0.76016 0.76127 0.22468 0.0
C493 C 0.69336 0.71576 0.20529 0.0
C494 C 0.69608 0.74988 0.23253 0.0
C495 C 0.6799 0.69867 0.1999 0.0
C496 C 0.75694 0.79618 0.26452 0.0
C497 C 0.74176 0.78538 0.25664 0.0
C498 C 0.74211 0.75876 0.22677 0.0
C499 C 0.69466 0.71733 0.21787 0.0
C500 C 0.70706 0.73664 0.22365 0.0
C501 C 0.74536 0.78636 0.24414 0.0
C502 C 0.73147 0.7713 0.23609 0.0
H503 H 0.66103 0.67141 0.22528 0.0
H504 H 0.68434 0.70156 0.23471 0.0
H505 H 0.73874 0.7317 0.2137 0.0
H506 H 0.79365 0.81992 0.24404 0.0
H507 H 0.76671 0.80119 0.2301 0.0
C508 C 0.53354 0.45763 0.47836 0.0
C509 C 0.55269 0.44354 0.4808 0.0
C510 C 0.52216 0.46901 0.48761 0.0
C511 C 0.52712 0.4941 0.5169 0.0
H512 H 0.46051 0.48786 0.51675 0.0
C513 C 0.47091 0.55402 0.54541 0.0
C514 C 0.45344 0.5649 0.53872 0.0
C515 C 0.48174 0.53427 0.541 0.0
C516 C 0.47907 0.48973 0.51695 0.0
H517 H 0.57573 0.43146 0.49483 0.0
H518 H 0.55589 0.45222 0.51115 0.0
H519 H 0.48387 0.46324 0.50378 0.0
H520 H 0.43239 0.56259 0.52262 0.0
H521 H 0.45145 0.52836 0.51484 0.0
H522 H 0.52233 0.52157 0.52948 0.0
C523 C 0.54965 0.4539 0.502 0.0
C524 C 0.49242 0.4756 0.50958 0.0
C525 C 0.56102 0.44218 0.49268 0.0
C526 C 0.44582 0.55465 0.52798 0.0
C527 C 0.45671 0.53493 0.52355 0.0
C528 C 0.51374 0.50838 0.52424 0.0
C529 C 0.52973 0.46682 0.49953 0.0
C530 C 0.51645 0.47829 0.50915 0.0
C531 C 0.47533 0.52502 0.52981 0.0
C532 C 0.48952 0.50692 0.52399 0.0
H533 H 0.52678 0.45934 0.4693 0.0
H534 H 0.5072 0.47939 0.48544 0.0
H535 H 0.54562 0.49651 0.51667 0.0
H536 H 0.47697 0.56132 0.55382 0.0
H537 H 0.49572 0.52677 0.54614 0.0
C538 C 0.81197 0.31203 0.72694 0.0
C539 C 0.81035 0.30794 0.7145 0.0
C540 C 0.79682 0.30106 0.73488 0.0
C541 C 0.74254 0.26723 0.73638 0.0
H542 H 0.77276 0.23664 0.76312 0.0
C543 C 0.69769 0.19551 0.76336 0.0
C544 C 0.69852 0.1983 0.77591 0.0
C545 C 0.71196 0.20874 0.75594 0.0
C546 C 0.76407 0.24519 0.75574 0.0
H547 H 0.79052 0.2908 0.70054 0.0
H548 H 0.76436 0.27173 0.71431 0.0
H549 H 0.79461 0.26319 0.75051 0.0
H550 H 0.71592 0.2159 0.79058 0.0
H551 H 0.74078 0.23877 0.77767 0.0
H552 H 0.71208 0.24896 0.74153 0.0
C553 C 0.77721 0.28329 0.718 0.0
C554 C 0.77651 0.26054 0.74858 0.0
C555 C 0.79233 0.29412 0.7101 0.0
C556 C 0.7148 0.21347 0.78093 0.0
C557 C 0.72912 0.22652 0.77354 0.0
C558 C 0.73013 0.25183 0.74352 0.0
C559 C 0.77975 0.28602 0.73049 0.0
C560 C 0.76591 0.27159 0.73877 0.0
C561 C 0.72741 0.22475 0.76097 0.0
C562 C 0.74081 0.24055 0.75321 0.0
H563 H 0.82567 0.32263 0.73058 0.0
H564 H 0.79893 0.30375 0.74448 0.0
H565 H 0.73384 0.27568 0.72897 0.0
H566 H 0.6853 0.18397 0.75925 0.0
H567 H 0.71056 0.20682 0.74626 0.0
C568 C 0.96369 0.47126 0.52055 0.0
C569 C 0.94885 0.45341 0.51694 0.0
C570 C 0.97727 0.48269 0.51216 0.0
C571 C 0.98629 0.49713 0.4808 0.0
H572 H 0.05073 0.49783 0.4902 0.0
C573 C 0.05483 0.54094 0.45128 0.0
C574 C 0.07008 0.55559 0.45748 0.0
C575 C 0.04116 0.52523 0.45756 0.0
C576 C 0.03281 0.4979 0.48747 0.0
H577 H 0.93516 0.43482 0.50158 0.0
H578 H 0.95895 0.45531 0.48672 0.0
H579 H 0.02257 0.47823 0.50284 0.0
H580 H 0.08391 0.56435 0.47504 0.0
H581 H 0.05986 0.5372 0.48602 0.0
H582 H 0.99633 0.51759 0.46567 0.0
C583 C 0.96009 0.46013 0.49613 0.0
C584 C 0.01672 0.48664 0.49468 0.0
C585 C 0.94643 0.44853 0.5046 0.0
C586 C 0.07239 0.55326 0.47 0.0
C587 C 0.0586 0.53763 0.47629 0.0
C588 C 0.00239 0.50861 0.47361 0.0
C589 C 0.97627 0.47662 0.49995 0.0
C590 C 0.99327 0.48661 0.49155 0.0
C591 C 0.04239 0.52389 0.47016 0.0
C592 C 0.02577 0.50951 0.47701 0.0
H593 H 0.96568 0.47567 0.52998 0.0
H594 H 0.98921 0.49575 0.51528 0.0
H595 H 0.96828 0.49734 0.47823 0.0
H596 H 0.05283 0.54216 0.4416 0.0
H597 H 0.02922 0.51454 0.45255 0.0
C598 C 0.70586 0.81305 0.7249 0.0
C599 C 0.70026 0.80834 0.71286 0.0
C600 C 0.72421 0.80157 0.73042 0.0
C601 C 0.75344 0.74591 0.72759 0.0
H602 H 0.78782 0.76835 0.75512 0.0
C603 C 0.80964 0.68776 0.75888 0.0
C604 C 0.80514 0.69124 0.77119 0.0
C605 C 0.80035 0.70275 0.75026 0.0
C606 C 0.77839 0.7619 0.7474 0.0
H607 H 0.71091 0.79009 0.69674 0.0
H608 H 0.7433 0.7706 0.70626 0.0
H609 H 0.76719 0.79566 0.74235 0.0
H610 H 0.78649 0.71251 0.78404 0.0
H611 H 0.77046 0.73833 0.76909 0.0
H612 H 0.7642 0.71207 0.73287 0.0
C613 C 0.7331 0.78248 0.71158 0.0
C614 C 0.76657 0.7775 0.74011 0.0
C615 C 0.71464 0.79375 0.70611 0.0
C616 C 0.79052 0.70939 0.77465 0.0
C617 C 0.78148 0.72437 0.7661 0.0
C618 C 0.7654 0.73032 0.73484 0.0
C619 C 0.73739 0.78539 0.72393 0.0
C620 C 0.75333 0.76961 0.73036 0.0
C621 C 0.78665 0.72151 0.75387 0.0
C622 C 0.7773 0.73812 0.74504 0.0
H623 H 0.69504 0.82419 0.73032 0.0
H624 H 0.72694 0.80416 0.73997 0.0
H625 H 0.74317 0.73916 0.72024 0.0
H626 H 0.82087 0.67396 0.75594 0.0
H627 H 0.80441 0.70012 0.74084 0.0
C628 C 0.45876 0.48913 0.97188 0.0
C629 C 0.44515 0.47076 0.976 0.0
C630 C 0.46798 0.50501 0.97993 0.0
C631 C 0.48715 0.50855 0.01118 0.0
H632 H 0.50034 0.57166 0.00196 0.0
C633 C 0.54148 0.57322 0.03963 0.0
C634 C 0.5586 0.58507 0.03315 0.0
C635 C 0.52541 0.55942 0.03364 0.0
C636 C 0.4968 0.55406 0.00463 0.0
H637 H 0.42928 0.45539 0.99172 0.0
H638 H 0.44541 0.48351 0.00595 0.0
H639 H 0.4731 0.54903 0.99014 0.0
H640 H 0.57268 0.59127 0.01536 0.0
H641 H 0.54442 0.56732 0.00488 0.0
H642 H 0.51105 0.51374 0.02567 0.0
C643 C 0.44911 0.48536 -0.00356 0.0
C644 C 0.48118 0.54111 -0.00211 0.0
C645 C 0.43972 0.46941 0.98831 0.0
C646 C 0.55974 0.58232 0.0206 0.0
C647 C 0.54346 0.5688 0.0146 0.0
C648 C 0.5026 0.52164 0.01802 0.0
C649 C 0.46383 0.50299 0.99234 0.0
C650 C 0.47676 0.51796 0.00084 0.0
C651 C 0.52596 0.55752 0.02105 0.0
C652 C 0.50806 0.54427 0.01457 0.0
H653 H 0.46312 0.49072 0.96243 0.0
H654 H 0.47944 0.51812 0.97643 0.0
H655 H 0.48433 0.49071 0.01363 0.0
H656 H 0.5402 0.57495 0.04932 0.0
H657 H 0.51209 0.55087 0.03881 0.0
C658 C 0.80334 0.1825 0.23083 0.0
C659 C 0.80186 0.1889 0.21866 0.0
C660 C 0.78852 0.19244 0.23931 0.0
C661 C 0.73497 0.22698 0.24241 0.0
H662 H 0.76531 0.25219 0.27063 0.0
C663 C 0.69133 0.29538 0.27203 0.0
C664 C 0.69161 0.29072 0.28443 0.0
C665 C 0.70553 0.28291 0.26422 0.0
C666 C 0.75658 0.24512 0.26283 0.0
H667 H 0.78273 0.20926 0.20567 0.0
H668 H 0.75712 0.22648 0.22035 0.0
H669 H 0.78683 0.22737 0.2569 0.0
H670 H 0.70803 0.27055 0.29849 0.0
H671 H 0.73277 0.24898 0.28489 0.0
H672 H 0.70484 0.24502 0.24825 0.0
C673 C 0.76958 0.2139 0.22343 0.0
C674 C 0.76883 0.23076 0.25503 0.0
C675 C 0.78439 0.20413 0.21501 0.0
C676 C 0.70732 0.27443 0.28895 0.0
C677 C 0.72158 0.26212 0.28117 0.0
C678 C 0.72277 0.24138 0.25019 0.0
C679 C 0.7719 0.2087 0.23571 0.0
C680 C 0.75821 0.22175 0.24467 0.0
C681 C 0.72035 0.26576 0.2687 0.0
C682 C 0.73351 0.25077 0.26041 0.0
H683 H 0.81666 0.17081 0.23388 0.0
H684 H 0.79047 0.1879 0.24872 0.0
H685 H 0.72625 0.22005 0.23458 0.0
H686 H 0.67942 0.30783 0.26829 0.0
H687 H 0.70453 0.2863 0.25464 0.0
C688 C 0.29743 0.30712 0.76904 0.0
C689 C 0.29624 0.3071 0.78166 0.0
C690 C 0.28276 0.29295 0.76233 0.0
C691 C 0.25086 0.23857 0.76615 0.0
H692 H 0.23 0.25156 0.73371 0.0
C693 C 0.19476 0.17739 0.73622 0.0
C694 C 0.20103 0.17674 0.724 0.0
C695 C 0.20619 0.19233 0.74415 0.0
C696 C 0.23586 0.24767 0.74275 0.0
H697 H 0.27735 0.29428 0.79711 0.0
H698 H 0.25125 0.27025 0.78539 0.0
H699 H 0.24747 0.28221 0.74563 0.0
H700 H 0.22552 0.18916 0.71076 0.0
H701 H 0.24554 0.21479 0.72458 0.0
H702 H 0.23914 0.20395 0.7632 0.0
C703 C 0.26401 0.28044 0.78068 0.0
C704 C 0.24584 0.26522 0.74957 0.0
C705 C 0.2788 0.29438 0.78738 0.0
C706 C 0.22016 0.18955 0.72011 0.0
C707 C 0.23149 0.20437 0.72798 0.0
C708 C 0.2407 0.22103 0.75935 0.0
C709 C 0.26651 0.27875 0.76813 0.0
C710 C 0.2538 0.26081 0.76129 0.0
C711 C 0.22395 0.20669 0.73992 0.0
C712 C 0.23353 0.22533 0.7475 0.0
H713 H 0.31081 0.31665 0.76442 0.0
H714 H 0.28522 0.29202 0.75267 0.0
H715 H 0.25714 0.23445 0.77508 0.0
H716 H 0.17999 0.16777 0.73942 0.0
H717 H 0.20016 0.19373 0.75335 0.0
C718 C 0.1796 0.70349 0.28592 0.0
C719 C 0.16617 0.6879 0.27923 0.0
C720 C 0.19485 0.71844 0.28015 0.0
C721 C 0.22437 0.7283 0.25098 0.0
H722 H 0.22903 0.79136 0.26245 0.0
C723 C 0.2666 0.7964 0.22215 0.0
C724 C 0.28594 0.80685 0.22744 0.0
C725 C 0.25056 0.78486 0.22922 0.0
C726 C 0.22792 0.77378 0.25922 0.0
H727 H 0.15845 0.67548 0.26126 0.0
H728 H 0.1846 0.70189 0.25114 0.0
H729 H 0.20478 0.76375 0.27327 0.0
H730 H 0.30247 0.81552 0.24436 0.0
H731 H 0.27401 0.79531 0.25685 0.0
H732 H 0.24698 0.7385 0.23677 0.0
C733 C 0.18377 0.70229 0.26088 0.0
C734 C 0.21419 0.75791 0.26542 0.0
C735 C 0.1687 0.68716 0.26667 0.0
C736 C 0.28769 0.80762 0.24006 0.0
C737 C 0.2715 0.79601 0.24719 0.0
C738 C 0.23778 0.74418 0.24472 0.0
C739 C 0.19685 0.71829 0.26754 0.0
C740 C 0.21212 0.73501 0.26131 0.0
C741 C 0.2535 0.7836 0.24174 0.0
C742 C 0.2395 0.76709 0.24871 0.0
H743 H 0.17814 0.70436 0.29564 0.0
H744 H 0.205 0.73017 0.28558 0.0
H745 H 0.22368 0.71072 0.24771 0.0
H746 H 0.26465 0.79582 0.21244 0.0
H747 H 0.23654 0.77579 0.22485 0.0
C748 C 0.27626 0.19796 0.28212 0.0
C749 C 0.29395 0.18279 0.27868 0.0
C750 C 0.26509 0.21148 0.27356 0.0
C751 C 0.25476 0.21968 0.24115 0.0
H752 H 0.24941 0.28409 0.25025 0.0
C753 C 0.22374 0.28635 0.2071 0.0
C754 C 0.20601 0.30091 0.21113 0.0
C755 C 0.23685 0.27377 0.2153 0.0
C756 C 0.25066 0.26616 0.24761 0.0
H757 H 0.31266 0.16861 0.26349 0.0
H758 H 0.29301 0.19232 0.24845 0.0
H759 H 0.26553 0.25642 0.26447 0.0
H760 H 0.18928 0.3152 0.2269 0.0
H761 H 0.21209 0.293 0.24129 0.0
H762 H 0.23965 0.22932 0.22434 0.0
C763 C 0.28785 0.19373 0.2578 0.0
C764 C 0.25981 0.25029 0.25575 0.0
C765 C 0.29903 0.18009 0.26639 0.0
C766 C 0.2029 0.30415 0.22356 0.0
C767 C 0.21595 0.29139 0.23178 0.0
C768 C 0.24556 0.23553 0.23301 0.0
C769 C 0.27139 0.21016 0.26138 0.0
C770 C 0.26179 0.22687 0.25264 0.0
C771 C 0.23239 0.27537 0.22769 0.0
C772 C 0.24334 0.25894 0.23617 0.0
H773 H 0.27176 0.2002 0.29151 0.0
H774 H 0.25203 0.22353 0.27654 0.0
H775 H 0.2559 0.20173 0.23854 0.0
H776 H 0.2267 0.28376 0.19756 0.0
H777 H 0.24984 0.26206 0.21189 0.0
C778 C 0.17248 0.78744 0.76848 0.0
C779 C 0.16575 0.77952 0.7799 0.0
C780 C 0.18435 0.77281 0.76059 0.0
C781 C 0.22307 0.72344 0.76174 0.0
H782 H 0.21403 0.72096 0.72717 0.0
C783 C 0.28795 0.67559 0.73232 0.0
C784 C 0.29591 0.68889 0.72262 0.0
C785 C 0.26747 0.68154 0.7382 0.0
C786 C 0.21675 0.72145 0.73682 0.0
H787 H 0.16505 0.74964 0.79172 0.0
H788 H 0.18561 0.72443 0.77803 0.0
H789 H 0.18702 0.74273 0.73968 0.0
H790 H 0.28761 0.71745 0.71075 0.0
H791 H 0.25257 0.72808 0.72109 0.0
H792 H 0.25333 0.70331 0.75896 0.0
C793 C 0.18207 0.74196 0.77523 0.0
C794 C 0.20132 0.73394 0.74395 0.0
C795 C 0.17028 0.75648 0.78306 0.0
C796 C 0.28213 0.70702 0.71831 0.0
C797 C 0.26181 0.71299 0.72418 0.0
C798 C 0.23856 0.71115 0.75463 0.0
C799 C 0.18965 0.75008 0.76403 0.0
C800 C 0.20461 0.73538 0.75645 0.0
C801 C 0.25467 0.70089 0.73446 0.0
C802 C 0.23591 0.71043 0.74205 0.0
H803 H 0.16913 0.80506 0.76577 0.0
H804 H 0.19016 0.77954 0.75202 0.0
H805 H 0.2262 0.72447 0.77134 0.0
H806 H 0.29808 0.66137 0.73577 0.0
H807 H 0.26218 0.67159 0.74597 0.0
C808 C 0.58158 0.96162 0.51672 0.0
C809 C 0.57815 0.95455 0.52867 0.0
C810 C 0.56896 0.98006 0.51203 0.0
C811 C 0.5124 0.00627 0.51673 0.0
H812 H 0.53137 0.04436 0.48987 0.0
C813 C 0.45039 0.06251 0.48713 0.0
C814 C 0.45382 0.05903 0.47473 0.0
C815 C 0.4658 0.05301 0.49551 0.0
C816 C 0.52588 0.03391 0.49742 0.0
H817 H 0.56095 0.96283 0.54547 0.0
H818 H 0.53935 0.99528 0.53736 0.0
H819 H 0.56045 0.02414 0.5017 0.0
H820 H 0.47512 0.04161 0.46145 0.0
H821 H 0.50165 0.02525 0.47595 0.0
H822 H 0.47772 0.01559 0.51216 0.0
C823 C 0.55119 0.98618 0.5315 0.0
C824 C 0.5425 0.02232 0.50417 0.0
C825 C 0.56368 0.96768 0.53616 0.0
C826 C 0.47212 0.04492 0.47092 0.0
C827 C 0.48747 0.03568 0.47921 0.0
C828 C 0.49577 0.018 0.51001 0.0
C829 C 0.55285 0.99185 0.51925 0.0
C830 C 0.53589 0.0077 0.51363 0.0
C831 C 0.48486 0.04013 0.49154 0.0
C832 C 0.50234 0.0312 0.50002 0.0
H833 H 0.59259 0.95184 0.51073 0.0
H834 H 0.5706 0.98389 0.50253 0.0
H835 H 0.50667 0.99495 0.52388 0.0
H836 H 0.43646 0.07332 0.49033 0.0
H837 H 0.46334 0.05645 0.50501 0.0
C838 C 0.04096 0.95912 0.95471 0.0
C839 C 0.05767 0.94424 0.95956 0.0
C840 C 0.02538 0.97043 0.96219 0.0
C841 C 0.01483 0.98798 0.99355 0.0
H842 H 0.95121 0.99112 0.98285 0.0
C843 C 0.9462 0.02686 0.02391 0.0
C844 C 0.93283 0.04424 0.01856 0.0
C845 C 0.95884 0.01164 0.01682 0.0
C846 C 0.96891 0.99042 0.98592 0.0
H847 H 0.07171 0.93021 0.97609 0.0
H848 H 0.04428 0.94996 0.98923 0.0
H849 H 0.9798 0.97143 0.97043 0.0
H850 H 0.92059 0.05817 0.00163 0.0
H851 H 0.94295 0.03154 0.98914 0.0
H852 H 0.00402 0.0071 0.00899 0.0
C853 C 0.04337 0.95294 0.97962 0.0
C854 C 0.98531 0.97924 0.97881 0.0
C855 C 0.0591 0.94166 0.97211 0.0
C856 C 0.93074 0.04489 0.00597 0.0
C857 C 0.94356 0.02967 -0.00116 0.0
C858 C 0.99844 0.99907 0.00067 0.0
C859 C 0.02605 0.96708 0.9747 0.0
C860 C 0.0085 0.97811 0.98249 0.0
C861 C 0.95849 0.01358 0.00423 0.0
C862 C 0.97534 0.00053 -0.0031 0.0
H863 H 0.03956 0.96167 0.94507 0.0
H864 H 0.01265 0.98168 0.95814 0.0
H865 H 0.03258 0.98769 -0.00344 0.0
H866 H 0.94784 0.02575 0.03362 0.0
H867 H 0.96973 0.99902 0.02122 0.0
C868 C 0.53948 0.07265 0.9789 0.0
C869 C 0.53584 0.06944 0.96652 0.0
C870 C 0.52513 0.06179 0.98728 0.0
C871 C 0.46731 0.03492 0.98943 0.0
H872 H 0.49128 0.00863 0.01895 0.0
C873 C 0.42199 0.96524 0.01798 0.0
C874 C 0.42594 0.96549 0.03045 0.0
C875 C 0.43191 0.98212 0.01064 0.0
C876 C 0.48423 0.01628 0.01085 0.0
H877 H 0.51538 0.0513 0.95317 0.0
H878 H 0.49098 0.03186 0.96772 0.0
H879 H 0.5173 0.02846 0.00527 0.0
H880 H 0.44075 0.98503 0.04522 0.0
H881 H 0.45773 0.01457 0.03245 0.0
H882 H 0.43435 0.02192 0.99487 0.0
C883 C 0.50427 0.04336 0.97101 0.0
C884 C 0.49917 0.0276 0.003 0.0
C885 C 0.51843 0.05431 0.96267 0.0
C886 C 0.43776 0.98421 0.03559 0.0
C887 C 0.44758 0.00105 0.02829 0.0
C888 C 0.45238 0.02344 -0.00275 0.0
C889 C 0.50705 0.04742 0.98339 0.0
C890 C 0.49095 0.03673 0.99212 0.0
C891 C 0.44578 0.99948 0.01572 0.0
C892 C 0.46076 0.01379 0.00797 0.0
H893 H 0.55268 0.08435 0.98211 0.0
H894 H 0.52768 0.0653 -0.00323 0.0
H895 H 0.46034 0.04221 0.98123 0.0
H896 H 0.41294 0.95101 0.01378 0.0
H897 H 0.43023 0.9805 0.00096 0.0
C898 C 0.04219 0.04289 0.52453 0.0
C899 C 0.05879 0.05957 0.52156 0.0
C900 C 0.0306 0.03086 0.51555 0.0
C901 C 0.03127 0.01361 0.48393 0.0
H902 H 0.96491 0.01143 0.48816 0.0
C903 C 0.97298 0.97074 0.44872 0.0
C904 C 0.95641 0.95541 0.45332 0.0
C905 C 0.98433 0.98612 0.45633 0.0
C906 C 0.9834 0.01177 0.48689 0.0
H907 H 0.07738 0.07564 0.50686 0.0
H908 H 0.05706 0.05426 0.49102 0.0
H909 H 0.98866 0.03176 0.50283 0.0
H910 H 0.93781 0.9451 0.46936 0.0
H911 H 0.95786 0.97177 0.4827 0.0
H912 H 0.02611 0.99312 0.46815 0.0
C913 C 0.05302 0.05072 0.50036 0.0
C914 C 0.99699 0.02339 0.49527 0.0
C915 C 0.06468 0.06287 0.50941 0.0
C916 C 0.95045 0.95673 0.46555 0.0
C917 C 0.96193 0.97205 0.47319 0.0
C918 C 0.01767 0.00186 0.47556 0.0
C919 C 0.03535 0.03518 0.50338 0.0
C920 C 0.02107 0.0241 0.49399 0.0
C921 C 0.97945 0.98645 0.46871 0.0
C922 C 0.99361 0.00055 0.47704 0.0
H923 H 0.03748 0.0397 0.53383 0.0
H924 H 0.01748 0.01853 0.51813 0.0
H925 H 0.0498 0.01381 0.48277 0.0
H926 H 0.97776 0.97033 0.43929 0.0
H927 H 0.99736 0.99736 0.45256 0.0
C928 C 0.96767 0.16388 0.03106 0.0
C929 C 0.94415 0.16123 0.02831 0.0
C930 C 0.9796 0.18365 0.02762 0.0
C931 C 0.97114 0.24446 0.02144 0.0
H932 H 0.03377 0.24147 0.00933 0.0
C933 C 0.02254 0.32737 0.01507 0.0
C934 C 0.0453 0.32716 0.01933 0.0
C935 C 0.01063 0.30682 0.01319 0.0
C936 C 0.01636 0.24263 0.01277 0.0
H937 H 0.9148 0.17727 0.01962 0.0
H938 H 0.93571 0.21229 0.01377 0.0
H939 H 0.01148 0.20605 0.01174 0.0
H940 H 0.07398 0.30543 0.02438 0.0
H941 H 0.05295 0.26926 0.02152 0.0
H942 H 0.97615 0.28073 0.02308 0.0
C943 C 0.94482 0.19884 0.01858 0.0
C944 C 0.00356 0.22235 0.0141 0.0
C945 C 0.93287 0.17882 0.02191 0.0
C946 C 0.05649 0.30598 0.02099 0.0
C947 C 0.04438 0.28529 0.01934 0.0
C948 C 0.98396 0.26469 0.02022 0.0
C949 C 0.96832 0.20143 0.02142 0.0
C950 C 0.98094 0.22303 0.01863 0.0
C951 C 0.02101 0.28552 0.01583 0.0
C952 C 0.00687 0.26405 0.01603 0.0
H953 H 0.97698 0.15064 0.03591 0.0
H954 H 0.99758 0.18526 0.0301 0.0
H955 H 0.95389 0.24552 0.02512 0.0
H956 H 0.01363 0.34355 0.01362 0.0
H957 H 0.99295 0.3077 0.01011 0.0
C958 C 0.03971 0.69353 0.29446 0.0
C959 C 0.04963 0.67728 0.28662 0.0
C960 C 0.02068 0.70646 0.29093 0.0
C961 C 0.97127 0.70888 0.27082 0.0
H962 H 0.97324 0.77384 0.27917 0.0
C963 C 0.90956 0.79618 0.27079 0.0
C964 C 0.88982 0.7863 0.27598 0.0
C965 C 0.9296 0.78301 0.26921 0.0
C966 C 0.9725 0.75587 0.27655 0.0
H967 H 0.04654 0.66111 0.26908 0.0
H968 H 0.01266 0.6837 0.26294 0.0
H969 H 0.0074 0.75005 0.28194 0.0
H970 H 0.8754 0.75456 0.28311 0.0
H971 H 0.91008 0.73193 0.28047 0.0
H972 H 0.93612 0.71461 0.26573 0.0
C973 C 0.01999 0.68644 0.2718 0.0
C974 C 0.992 0.74217 0.27827 0.0
C975 C 0.03928 0.67347 0.27533 0.0
C976 C 0.89032 0.76283 0.27915 0.0
C977 C 0.91017 0.74971 0.27751 0.0
C978 C 0.95168 0.72258 0.26915 0.0
C979 C 0.01092 0.70349 0.27948 0.0
C980 C 0.99137 0.7184 0.27581 0.0
C981 C 0.93017 0.75967 0.27268 0.0
C982 C 0.95188 0.74608 0.27236 0.0
H983 H 0.04699 0.69677 0.30328 0.0
H984 H 0.01369 0.71899 0.29718 0.0
H985 H 0.97031 0.69063 0.26882 0.0
H986 H 0.9097 0.81418 0.2682 0.0
H987 H 0.94474 0.79114 0.26541 0.0
C988 C 0.4497 0.69755 0.518 0.0
C989 C 0.46313 0.68061 0.52368 0.0
C990 C 0.46034 0.71636 0.51235 0.0
C991 C 0.51743 0.73967 0.50247 0.0
H992 H 0.49419 0.79683 0.51577 0.0
C993 C 0.57482 0.81707 0.51459 0.0
C994 C 0.56471 0.83896 0.51538 0.0
C995 C 0.56168 0.79815 0.51078 0.0
C996 C 0.50074 0.78123 0.51165 0.0
H997 H 0.49807 0.66892 0.52698 0.0
H998 H 0.51644 0.70143 0.51724 0.0
H999 H 0.47134 0.76212 0.51746 0.0
H1000 H 0.53407 0.85894 0.51156 0.0
H1001 H 0.51154 0.82631 0.50437 0.0
H1002 H 0.54739 0.75872 0.49717 0.0
C1003 C 0.49781 0.70042 0.51709 0.0
C1004 C 0.48752 0.76124 0.51263 0.0
C1005 C 0.48725 0.68187 0.52281 0.0
C1006 C 0.54214 0.84212 0.51115 0.0
C1007 C 0.52919 0.82339 0.50713 0.0
C1008 C 0.53067 0.75974 0.50145 0.0
C1009 C 0.48454 0.7183 0.51215 0.0
C1010 C 0.49609 0.74005 0.50848 0.0
C1011 C 0.53834 0.80097 0.50755 0.0
C1012 C 0.52283 0.78061 0.50642 0.0
H1013 H 0.43108 0.69694 0.51849 0.0
H1014 H 0.44966 0.72981 0.50853 0.0
H1015 H 0.52435 0.72364 0.49903 0.0
H1016 H 0.59216 0.81422 0.51788 0.0
H1017 H 0.56932 0.78116 0.51128 0.0
C1018 C 0.56447 0.18891 0.78457 0.0
C1019 C 0.58304 0.20111 0.78961 0.0
C1020 C 0.54347 0.20009 0.78235 0.0
C1021 C 0.51726 0.25731 0.77782 0.0
H1022 H 0.46295 0.23068 0.79251 0.0
C1023 C 0.43458 0.31016 0.7874 0.0
C1024 C 0.41349 0.29842 0.78785 0.0
C1025 C 0.45507 0.29797 0.78534 0.0
C1026 C 0.47774 0.23822 0.78808 0.0
H1027 H 0.59442 0.23472 0.79585 0.0
H1028 H 0.55809 0.25407 0.79184 0.0
H1029 H 0.49894 0.20934 0.7927 0.0
H1030 H 0.39685 0.2653 0.78553 0.0
H1031 H 0.43216 0.24434 0.7813 0.0
H1032 H 0.49615 0.28623 0.77319 0.0
C1033 C 0.55966 0.23594 0.78965 0.0
C1034 C 0.49841 0.22593 0.78823 0.0
C1035 C 0.5804 0.22475 0.79206 0.0
C1036 C 0.41299 0.27469 0.78541 0.0
C1037 C 0.43328 0.26265 0.78309 0.0
C1038 C 0.49648 0.2695 0.7775 0.0
C1039 C 0.54091 0.22372 0.78489 0.0
C1040 C 0.51847 0.23553 0.78332 0.0
C1041 C 0.45472 0.27391 0.78348 0.0
C1042 C 0.4765 0.2603 0.78282 0.0
H1043 H 0.56602 0.17071 0.78257 0.0
H1044 H 0.52923 0.19029 0.77866 0.0
H1045 H 0.5325 0.26502 0.77389 0.0
H1046 H 0.43538 0.32845 0.78931 0.0
H1047 H 0.47122 0.30727 0.7858 0.0
C1048 C 0.95283 0.82061 0.45044 0.0
C1049 C 0.96485 0.83864 0.44479 0.0
C1050 C 0.96441 0.80043 0.45385 0.0
C1051 C 0.02228 0.77657 0.46015 0.0
H1052 H 0.99721 0.71939 0.4478 0.0
C1053 C 0.07736 0.69446 0.45302 0.0
C1054 C 0.06622 0.67304 0.45328 0.0
C1055 C 0.06468 0.71478 0.45473 0.0
C1056 C 0.00432 0.73504 0.45161 0.0
H1057 H 0.99857 0.84998 0.43874 0.0
H1058 H 0.01859 0.81508 0.44474 0.0
H1059 H 0.97494 0.75464 0.44604 0.0
H1060 H 0.03383 0.65566 0.45657 0.0
H1061 H 0.01204 0.69076 0.46024 0.0
H1062 H 0.05178 0.75705 0.46563 0.0
C1063 C 0.00029 0.81644 0.44653 0.0
C1064 C 0.99149 0.75529 0.45055 0.0
C1065 C 0.98872 0.83635 0.44297 0.0
C1066 C 0.04272 0.67207 0.45619 0.0
C1067 C 0.03021 0.69222 0.45817 0.0
C1068 C 0.03504 0.75624 0.46135 0.0
C1069 C 0.98826 0.79816 0.45188 0.0
C1070 C 0.00053 0.77634 0.45457 0.0
C1071 C 0.04075 0.7139 0.45694 0.0
C1072 C 0.02643 0.73526 0.45687 0.0
H1073 H 0.93445 0.82191 0.45199 0.0
H1074 H 0.95475 0.78657 0.45798 0.0
H1075 H 0.02957 0.79258 0.46343 0.0
H1076 H 0.09545 0.69558 0.4507 0.0
H1077 H 0.07341 0.73113 0.45364 0.0
C1078 C 0.56509 0.81231 0.7269 0.0
C1079 C 0.58194 0.79804 0.72172 0.0
C1080 C 0.54543 0.80264 0.73223 0.0
C1081 C 0.51952 0.74655 0.74216 0.0
H1082 H 0.4631 0.77347 0.72997 0.0
C1083 C 0.43713 0.69511 0.73123 0.0
C1084 C 0.41592 0.70669 0.73162 0.0
C1085 C 0.45741 0.70662 0.73451 0.0
C1086 C 0.47857 0.76591 0.73373 0.0
H1087 H 0.59219 0.76245 0.71886 0.0
H1088 H 0.55815 0.74581 0.72786 0.0
H1089 H 0.49907 0.79414 0.72765 0.0
H1090 H 0.39881 0.73823 0.73706 0.0
H1091 H 0.43396 0.75798 0.74311 0.0
H1092 H 0.49896 0.71768 0.74764 0.0
C1093 C 0.55995 0.76439 0.72796 0.0
C1094 C 0.49928 0.77786 0.73241 0.0
C1095 C 0.57942 0.77399 0.72263 0.0
C1096 C 0.41502 0.72901 0.73651 0.0
C1097 C 0.43516 0.74038 0.73991 0.0
C1098 C 0.49876 0.73452 0.74344 0.0
C1099 C 0.5424 0.77854 0.73254 0.0
C1100 C 0.52012 0.768 0.73623 0.0
C1101 C 0.4567 0.72979 0.73833 0.0
C1102 C 0.47814 0.74379 0.73892 0.0
H1103 H 0.56662 0.83089 0.72641 0.0
H1104 H 0.53232 0.81402 0.7358 0.0
H1105 H 0.53524 0.73864 0.7454 0.0
H1106 H 0.43829 0.67793 0.72745 0.0
H1107 H 0.47373 0.69796 0.73316 0.0
C1108 C 0.5592 0.19588 0.95318 0.0
C1109 C 0.54654 0.17943 0.94664 0.0
C1110 C 0.54941 0.21731 0.956 0.0
C1111 C 0.49366 0.24532 0.96074 0.0
H1112 H 0.52453 0.30217 0.95221 0.0
C1113 C 0.44625 0.33299 0.95889 0.0
C1114 C 0.45907 0.35315 0.96077 0.0
C1115 C 0.45718 0.31145 0.95897 0.0
C1116 C 0.5158 0.28654 0.95494 0.0
H1117 H 0.51372 0.17272 0.93787 0.0
H1118 H 0.49678 0.20976 0.94293 0.0
H1119 H 0.54392 0.26551 0.94893 0.0
H1120 H 0.49281 0.36667 0.96521 0.0
H1121 H 0.51158 0.32926 0.96604 0.0
H1122 H 0.46561 0.26616 0.96687 0.0
C1123 C 0.5142 0.20611 0.94587 0.0
C1124 C 0.52694 0.26553 0.95298 0.0
C1125 C 0.52405 0.18496 0.94289 0.0
C1126 C 0.48259 0.35136 0.96357 0.0
C1127 C 0.49339 0.3299 0.96391 0.0
C1128 C 0.48262 0.26635 0.96288 0.0
C1129 C 0.52668 0.22242 0.95253 0.0
C1130 C 0.51582 0.24472 0.95566 0.0
C1131 C 0.48106 0.3097 0.96117 0.0
C1132 C 0.49339 0.28727 0.95983 0.0
H1133 H 0.57654 0.19212 0.95621 0.0
H1134 H 0.55939 0.22967 0.96113 0.0
H1135 H 0.4848 0.22947 0.963 0.0
H1136 H 0.42811 0.33395 0.95663 0.0
H1137 H 0.44709 0.29637 0.95672 0.0
C1138 C 0.07248 0.30372 0.20255 0.0
C1139 C 0.09084 0.29077 0.19783 0.0
C1140 C 0.05145 0.29306 0.20525 0.0
C1141 C 0.02443 0.23638 0.21111 0.0
H1142 H 0.96977 0.26447 0.19751 0.0
C1143 C 0.93847 0.18694 0.20412 0.0
C1144 C 0.91795 0.19967 0.2046 0.0
C1145 C 0.95977 0.19811 0.20537 0.0
C1146 C 0.98471 0.25654 0.20162 0.0
H1147 H 0.10174 0.25634 0.19264 0.0
H1148 H 0.06527 0.23794 0.19737 0.0
H1149 H 0.00642 0.28449 0.19622 0.0
H1150 H 0.90335 0.23352 0.20776 0.0
H1151 H 0.94015 0.25271 0.21047 0.0
H1152 H 0.00273 0.20832 0.21644 0.0
C1153 C 0.06708 0.25626 0.199 0.0
C1154 C 0.00576 0.26806 0.20084 0.0
C1155 C 0.08792 0.2669 0.19619 0.0
C1156 C 0.91897 0.22335 0.20714 0.0
C1157 C 0.94009 0.23439 0.20861 0.0
C1158 C 0.00329 0.2249 0.21199 0.0
C1159 C 0.04853 0.26923 0.20343 0.0
C1160 C 0.0259 0.25798 0.20542 0.0
C1161 C 0.96082 0.22213 0.2073 0.0
C1162 C 0.98319 0.23472 0.20712 0.0
H1163 H 0.07422 0.32212 0.20395 0.0
H1164 H 0.03743 0.30346 0.20871 0.0
H1165 H 0.03968 0.22828 0.21481 0.0
H1166 H 0.93811 0.16866 0.20214 0.0
H1167 H 0.97537 0.18811 0.20426 0.0
C1168 C 0.951 0.69503 0.92511 0.0
C1169 C 0.94238 0.68397 0.93541 0.0
C1170 C 0.96406 0.71511 0.92614 0.0
C1171 C 0.00413 0.74319 0.94647 0.0
H1172 H 0.99691 0.79528 0.92497 0.0
C1173 C 0.06294 0.82467 0.94795 0.0
C1174 C 0.06724 0.83575 0.93693 0.0
C1175 C 0.04779 0.80587 0.94848 0.0
C1176 C -0.0006 0.78073 0.93094 0.0
H1177 H 0.93998 0.68571 0.95487 0.0
H1178 H 0.96322 0.72086 0.9567 0.0
H1179 H 0.96842 0.7645 0.92479 0.0
H1180 H 0.06063 0.83477 0.91773 0.0
H1181 H 0.03521 0.80154 0.91854 0.0
H1182 H 0.03554 0.75902 0.95235 0.0
C1183 C 0.95972 0.71392 0.94783 0.0
C1184 C 0.98293 0.76321 0.9309 0.0
C1185 C 0.94625 0.69398 0.94677 0.0
C1186 C 0.05744 0.82672 0.92637 0.0
C1187 C 0.04263 0.80783 0.92687 0.0
C1188 C 0.02079 0.76065 0.94644 0.0
C1189 C 0.9691 0.72441 0.93753 0.0
C1190 C 0.98527 0.74412 0.93854 0.0
C1191 C 0.03689 0.7977 0.93797 0.0
C1192 C 0.01883 0.77946 0.93851 0.0
H1193 H 0.9483 0.68769 0.91624 0.0
H1194 H 0.97117 0.72275 0.91806 0.0
H1195 H 0.00647 0.72851 0.95237 0.0
H1196 H 0.07012 0.8314 0.95625 0.0
H1197 H 0.04378 0.79852 0.95719 0.0
C1198 C 0.92321 0.26592 0.7009 0.0
C1199 C 0.92449 0.29008 0.70052 0.0
C1200 C 0.94284 0.25269 0.70298 0.0
C1201 C 0.00433 0.25582 0.71274 0.0
H1202 H 0.00863 0.19893 0.69447 0.0
C1203 C 0.08948 0.20897 0.7023 0.0
C1204 C 0.09027 0.1849 0.70375 0.0
C1205 C 0.06883 0.22095 0.70362 0.0
C1206 C 0.00753 0.21458 0.69976 0.0
H1207 H 0.94724 0.31943 0.70232 0.0
H1208 H 0.98199 0.29627 0.70543 0.0
H1209 H 0.97378 0.22205 0.69326 0.0
H1210 H 0.07005 0.15455 0.70791 0.0
H1211 H 0.0335 0.17562 0.7099 0.0
H1212 H 0.03876 0.24868 0.71869 0.0
C1213 C 0.96565 0.28751 0.70443 0.0
C1214 C 0.98751 0.22788 0.69912 0.0
C1215 C 0.94578 0.30083 0.70258 0.0
C1216 C 0.06994 0.17307 0.70672 0.0
C1217 C 0.04908 0.18509 0.70784 0.0
C1218 C 0.0245 0.24265 0.71323 0.0
C1219 C 0.96446 0.26321 0.70447 0.0
C1220 C 0.98564 0.24877 0.70554 0.0
C1221 C 0.04838 0.20915 0.70627 0.0
C1222 C 0.02633 0.22199 0.70668 0.0
H1223 H 0.90692 0.25715 0.69956 0.0
H1224 H 0.94101 0.23413 0.70332 0.0
H1225 H 0.00344 0.27153 0.71798 0.0
H1226 H 0.10488 0.21864 0.7001 0.0
H1227 H 0.06875 0.23944 0.70224 0.0
C1228 C 0.56016 0.31245 0.45706 0.0
C1229 C 0.54883 0.33272 0.46054 0.0
C1230 C 0.54831 0.29137 0.45713 0.0
C1231 C 0.488 0.26961 0.4563 0.0
H1232 H 0.51703 0.21026 0.46131 0.0
C1233 C 0.43811 0.18265 0.4575 0.0
C1234 C 0.44775 0.16499 0.45044 0.0
C1235 C 0.45014 0.20331 0.45932 0.0
C1236 C 0.50874 0.22676 0.45987 0.0
H1237 H 0.51717 0.34689 0.4677 0.0
H1238 H 0.49702 0.31024 0.46851 0.0
H1239 H 0.53941 0.24547 0.46426 0.0
H1240 H 0.47742 0.15542 0.43959 0.0
H1241 H 0.49825 0.1912 0.44288 0.0
H1242 H 0.45728 0.25079 0.45207 0.0
C1243 C 0.51455 0.31046 0.46517 0.0
C1244 C 0.52157 0.24693 0.46151 0.0
C1245 C 0.52617 0.33145 0.46485 0.0
C1246 C 0.46942 0.16862 0.44507 0.0
C1247 C 0.4815 0.18905 0.44703 0.0
C1248 C 0.47513 0.24948 0.45484 0.0
C1249 C 0.52511 0.29027 0.46088 0.0
C1250 C 0.51141 0.26865 0.45966 0.0
C1251 C 0.47213 0.20648 0.45427 0.0
C1252 C 0.48543 0.22786 0.45649 0.0
H1253 H 0.57759 0.31311 0.4536 0.0
H1254 H 0.557 0.27623 0.4537 0.0
H1255 H 0.47965 0.28594 0.4545 0.0
H1256 H 0.4215 0.18038 0.46178 0.0
H1257 H 0.44254 0.21654 0.46494 0.0
C1258 C 0.39713 0.75681 0.2215 0.0
C1259 C 0.40071 0.78029 0.21907 0.0
C1260 C 0.41568 0.74172 0.22246 0.0
C1261 C 0.47917 0.73635 0.22446 0.0
H1262 H 0.46873 0.6834 0.20377 0.0
C1263 C 0.5365 0.67114 0.19452 0.0
C1264 C 0.55266 0.66278 0.20285 0.0
C1265 C 0.51702 0.68304 0.19841 0.0
C1266 C 0.47185 0.69798 0.20966 0.0
H1267 H 0.42654 0.80678 0.21664 0.0
H1268 H 0.45933 0.78014 0.21811 0.0
H1269 H 0.43735 0.7101 0.20775 0.0
H1270 H 0.56089 0.65978 0.22182 0.0
H1271 H 0.52669 0.68107 0.22869 0.0
H1272 H 0.51407 0.72436 0.22596 0.0
C1273 C 0.44206 0.7735 0.21939 0.0
C1274 C 0.45385 0.71322 0.21202 0.0
C1275 C 0.42335 0.78876 0.21854 0.0
C1276 C 0.54854 0.66584 0.21522 0.0
C1277 C 0.52917 0.67819 0.21913 0.0
C1278 C 0.49722 0.72089 0.22217 0.0
C1279 C 0.43831 0.74966 0.22086 0.0
C1280 C 0.45733 0.73277 0.2193 0.0
C1281 C 0.51342 0.68718 0.21073 0.0
C1282 C 0.4938 0.70181 0.21455 0.0
H1283 H 0.37983 0.74988 0.22212 0.0
H1284 H 0.41224 0.72357 0.22389 0.0
H1285 H 0.48234 0.7512 0.23013 0.0
H1286 H 0.5393 0.6691 0.18493 0.0
H1287 H 0.50527 0.68989 0.19173 0.0
C1288 C 0.97899 0.3411 0.54088 0.0
C1289 C 0.95509 0.34282 0.53898 0.0
C1290 C 0.99022 0.31995 0.53988 0.0
C1291 C 0.0106 0.2746 0.53067 0.0
H1292 H 0.98616 0.22442 0.54978 0.0
C1293 C 0.02617 0.17121 0.54108 0.0
C1294 C 0.05034 0.17052 0.54163 0.0
C1295 C 0.01459 0.19201 0.53951 0.0
C1296 C 0.99307 0.23803 0.54418 0.0
H1297 H 0.92424 0.32369 0.53439 0.0
H1298 H 0.94393 0.28631 0.53295 0.0
H1299 H 0.96515 0.2606 0.54865 0.0
H1300 H 0.08142 0.19104 0.54067 0.0
H1301 H 0.06112 0.22783 0.53843 0.0
H1302 H 0.0384 0.25202 0.52604 0.0
C1303 C 0.95389 0.30154 0.53513 0.0
C1304 C 0.98099 0.2588 0.54358 0.0
C1305 C 0.94266 0.32288 0.53592 0.0
C1306 C 0.06277 0.19111 0.54029 0.0
C1307 C 0.0511 0.21213 0.53894 0.0
C1308 C 0.02256 0.25367 0.53111 0.0
C1309 C 0.97778 0.29992 0.53712 0.0
C1310 C 0.98972 0.27735 0.53691 0.0
C1311 C 0.0268 0.21286 0.53869 0.0
C1312 C 0.01403 0.23513 0.53795 0.0
H1313 H 0.98912 0.35617 0.54316 0.0
H1314 H 0.00858 0.31916 0.54158 0.0
H1315 H 0.01766 0.28865 0.52541 0.0
H1316 H 0.0161 0.15556 0.54184 0.0
H1317 H 0.99597 0.19167 0.53897 0.0
C1318 C 0.40448 0.21593 0.29765 0.0
C1319 C 0.40439 0.19172 0.29731 0.0
C1320 C 0.4248 0.22824 0.2959 0.0
C1321 C 0.48569 0.22284 0.28554 0.0
H1322 H 0.49365 0.27736 0.30538 0.0
C1323 C 0.57339 0.26347 0.29719 0.0
C1324 C 0.57547 0.28761 0.29693 0.0
C1325 C 0.55219 0.2529 0.29517 0.0
C1326 C 0.49152 0.26241 0.29963 0.0
H1327 H 0.42548 0.16139 0.29459 0.0
H1328 H 0.46145 0.18289 0.29205 0.0
H1329 H 0.45766 0.25604 0.30626 0.0
H1330 H 0.55711 0.31962 0.294 0.0
H1331 H 0.51953 0.301 0.29078 0.0
H1332 H 0.52025 0.22878 0.27945 0.0
C1333 C 0.44562 0.19242 0.29338 0.0
C1334 C 0.47086 0.25013 0.30011 0.0
C1335 C 0.42507 0.18004 0.29492 0.0
C1336 C 0.55596 0.30099 0.29426 0.0
C1337 C 0.53453 0.29037 0.29246 0.0
C1338 C 0.50651 0.23498 0.2852 0.0
C1339 C 0.44577 0.21671 0.294 0.0
C1340 C 0.46767 0.23008 0.29313 0.0
C1341 C 0.53246 0.26621 0.29302 0.0
C1342 C 0.50967 0.25477 0.29232 0.0
H1343 H 0.38872 0.22547 0.29923 0.0
H1344 H 0.424 0.24688 0.29607 0.0
H1345 H 0.48377 0.20777 0.27988 0.0
H1346 H 0.58817 0.25268 0.29912 0.0
H1347 H 0.55107 0.2343 0.29577 0.0
C1348 C 0.48031 0.85596 0.02919 0.0
C1349 C 0.4575 0.85131 0.03264 0.0
C1350 C 0.49564 0.83805 0.02684 0.0
C1351 C 0.50215 0.77486 0.02278 0.0
H1352 H 0.55795 0.78465 0.04137 0.0
C1353 C 0.57057 0.71605 0.04937 0.0
C1354 C 0.57784 0.70029 0.04057 0.0
C1355 C 0.55859 0.73591 0.04612 0.0
C1356 C 0.54259 0.78175 0.03603 0.0
H1357 H 0.43228 0.82436 0.03541 0.0
H1358 H 0.45936 0.79272 0.03151 0.0
H1359 H 0.53039 0.81591 0.03913 0.0
H1360 H 0.57887 0.69314 0.02142 0.0
H1361 H 0.55735 0.72799 0.0157 0.0
H1362 H 0.51422 0.74023 0.02015 0.0
C1363 C 0.46528 0.81032 0.03051 0.0
C1364 C 0.52683 0.79969 0.03467 0.0
C1365 C 0.44977 0.82838 0.03275 0.0
C1366 C 0.57367 0.7052 0.02836 0.0
C1367 C 0.5612 0.72494 0.02511 0.0
C1368 C 0.51811 0.75689 0.02406 0.0
C1369 C 0.48863 0.81501 0.02803 0.0
C1370 C 0.50621 0.79637 0.02823 0.0
C1371 C 0.55325 0.74026 0.034 0.0
C1372 C 0.5382 0.76005 0.03095 0.0
H1373 H 0.48663 0.87352 0.02885 0.0
H1374 H 0.51334 0.84225 0.02466 0.0
H1375 H 0.48648 0.77183 0.01772 0.0
H1376 H 0.57348 0.7126 0.05885 0.0
H1377 H 0.55253 0.74732 0.05317 0.0
C1378 C 0.90623 0.71124 0.80764 0.0
C1379 C 0.90617 0.69072 0.80087 0.0
C1380 C 0.92566 0.72534 0.80797 0.0
C1381 C 0.96373 0.75839 0.80034 0.0
H1382 H 0.02351 0.73264 0.80815 0.0
C1383 C 0.05114 0.80846 0.79861 0.0
C1384 C 0.06611 0.8044 0.80834 0.0
C1385 C 0.03048 0.79609 0.79757 0.0
C1386 C 0.00689 0.74006 0.80597 0.0
H1387 H 0.9268 0.6687 0.78935 0.0
H1388 H 0.96117 0.69326 0.79018 0.0
H1389 H 0.99022 0.7071 0.80615 0.0
H1390 H 0.0702 0.78551 0.8251 0.0
H1391 H 0.0344 0.76409 0.82324 0.0
H1392 H 0.98046 0.79138 0.80021 0.0
C1393 C 0.94594 0.6984 0.79513 0.0
C1394 C 0.98793 0.72543 0.80472 0.0
C1395 C 0.9263 0.68435 0.79466 0.0
C1396 C 0.05923 0.78892 0.81741 0.0
C1397 C 0.03879 0.77649 0.81632 0.0
C1398 C 0.98278 0.77301 0.80143 0.0
C1399 C 0.94565 0.71919 0.80166 0.0
C1400 C 0.9661 0.73447 0.80207 0.0
C1401 C 0.02459 0.77938 0.80621 0.0
C1402 C 0.00447 0.76401 0.80445 0.0
H1403 H 0.89106 0.71676 0.81253 0.0
H1404 H 0.92507 0.74106 0.81323 0.0
H1405 H 0.94709 0.76578 0.7982 0.0
H1406 H 0.05592 0.82023 0.79147 0.0
H1407 H 0.01974 0.7987 0.78971 0.0
C1408 C 0.34321 0.36755 0.98646 0.0
C1409 C 0.34893 0.38565 0.97859 0.0
C1410 C 0.32062 0.36492 0.99067 0.0
C1411 C 0.26013 0.38105 0.98393 0.0
H1412 H 0.24985 0.36532 0.01743 0.0
C1413 C 0.16976 0.38507 0.00606 0.0
C1414 C 0.16415 0.36825 0.01468 0.0
C1415 C 0.19207 0.38642 0.00131 0.0
C1416 C 0.25236 0.3694 0.00801 0.0
H1417 H 0.33524 0.41517 0.96897 0.0
H1418 H 0.29596 0.41067 0.97636 0.0
H1419 H 0.28907 0.36918 0.00992 0.0
H1420 H 0.17753 0.33924 0.02482 0.0
H1421 H 0.21623 0.34134 0.0164 0.0
H1422 H 0.22341 0.38128 0.98202 0.0
C1423 C 0.30888 0.39834 0.97919 0.0
C1424 C 0.27491 0.37164 0.0037 0.0
C1425 C 0.33147 0.40101 0.97501 0.0
C1426 C 0.18126 0.35251 0.01824 0.0
C1427 C 0.20354 0.35381 0.01347 0.0
C1428 C 0.23757 0.37875 0.98824 0.0
C1429 C 0.30315 0.38028 0.98708 0.0
C1430 C 0.2791 0.37757 0.99161 0.0
C1431 C 0.20933 0.37094 0.00503 0.0
C1432 C 0.23337 0.37295 0.00034 0.0
H1433 H 0.35617 0.35534 0.98938 0.0
H1434 H 0.31678 0.35064 -0.00339 0.0
H1435 H 0.2627 0.38528 0.97453 0.0
H1436 H 0.15705 0.39753 0.00313 0.0
H1437 H 0.19592 0.40001 0.99493 0.0
C1438 C 0.86341 0.07306 0.21824 0.0
C1439 C 0.87474 0.09102 0.22436 0.0
C1440 C 0.86332 0.05065 0.2229 0.0
C1441 C 0.87153 0.01836 0.25141 0.0
H1442 H 0.8752 0.9654 0.23017 0.0
C1443 C 0.87851 0.92558 0.26987 0.0
C1444 C 0.86472 0.90867 0.26434 0.0
C1445 C 0.88096 0.94743 0.26471 0.0
C1446 C 0.87396 0.98 0.23622 0.0
H1447 H 0.89523 0.0993 0.24012 0.0
H1448 H 0.89539 0.06018 0.24815 0.0
H1449 H 0.87742 0.00419 0.22177 0.0
H1450 H 0.8431 0.90142 0.24886 0.0
H1451 H 0.84734 0.93958 0.23986 0.0
H1452 H 0.86805 0.99418 0.26585 0.0
C1453 C 0.8862 0.06349 0.23984 0.0
C1454 C 0.87521 0.00227 0.2314 0.0
C1455 C 0.88623 0.08593 0.23519 0.0
C1456 C 0.85387 0.914 0.25336 0.0
C1457 C 0.85639 0.93587 0.24817 0.0
C1458 C 0.87035 0.9961 0.25623 0.0
C1459 C 0.87462 0.04556 0.2338 0.0
C1460 C 0.87392 0.02177 0.23893 0.0
C1461 C 0.86974 0.95296 0.25386 0.0
C1462 C 0.87147 0.97663 0.24869 0.0
H1463 H 0.85431 0.07633 0.2099 0.0
H1464 H 0.85395 0.03742 0.21807 0.0
H1465 H 0.87005 0.0329 0.25748 0.0
H1466 H 0.8872 0.92208 0.27831 0.0
H1467 H 0.89166 0.96003 0.26924 0.0
C1468 C 0.18886 0.65608 0.47125 0.0
C1469 C 0.17641 0.63546 0.46988 0.0
C1470 C 0.20943 0.65652 0.47781 0.0
C1471 C 0.25706 0.61938 0.48788 0.0
H1472 H 0.27025 0.66988 0.5097 0.0
C1473 C 0.33955 0.62166 0.51744 0.0
C1474 C 0.3502 0.64317 0.51921 0.0
C1475 C 0.31809 0.62015 0.51171 0.0
C1476 C 0.26702 0.65579 0.50353 0.0
H1477 H 0.17579 0.59912 0.47445 0.0
H1478 H 0.21181 0.5999 0.48588 0.0
H1479 H 0.23323 0.66835 0.49939 0.0
H1480 H 0.34679 0.67991 0.51612 0.0
H1481 H 0.30979 0.67726 0.50591 0.0
H1482 H 0.29099 0.60703 0.49182 0.0
C1483 C 0.20564 0.61571 0.48182 0.0
C1484 C 0.24572 0.65489 0.49765 0.0
C1485 C 0.18493 0.61531 0.47534 0.0
C1486 C 0.33903 0.66307 0.51498 0.0
C1487 C 0.31767 0.66156 0.5092 0.0
C1488 C 0.27845 0.62036 0.4937 0.0
C1489 C 0.21818 0.63631 0.48309 0.0
C1490 C 0.24052 0.63675 0.4897 0.0
C1491 C 0.3068 0.64011 0.50755 0.0
C1492 C 0.28379 0.63866 0.50156 0.0
H1493 H 0.18282 0.67192 0.46717 0.0
H1494 H 0.21877 0.67262 0.47852 0.0
H1495 H 0.2537 0.60532 0.4817 0.0
H1496 H 0.34763 0.60599 0.52063 0.0
H1497 H 0.31016 0.60336 0.51075 0.0
C1498 C 0.61091 0.06789 0.7764 0.0
C1499 C 0.62361 0.08701 0.77235 0.0
C1500 C 0.6106 0.04735 0.7698 0.0
C1501 C 0.62159 0.02286 0.73953 0.0
H1502 H 0.62601 0.96523 0.75705 0.0
C1503 C 0.60739 0.93413 0.71672 0.0
C1504 C 0.62201 0.91592 0.72013 0.0
C1505 C 0.60789 0.95516 0.7229 0.0
C1506 C 0.62494 0.98115 0.752 0.0
H1507 H 0.64567 0.09956 0.75802 0.0
H1508 H 0.64519 0.06365 0.74652 0.0
H1509 H 0.6264 0.0016 0.76803 0.0
H1510 H 0.64871 0.90569 0.73271 0.0
H1511 H 0.64963 0.94239 0.74344 0.0
H1512 H 0.62044 0.00237 0.72347 0.0
C1513 C 0.63532 0.06463 0.75478 0.0
C1514 C 0.62488 0.00203 0.75831 0.0
C1515 C 0.63567 0.0852 0.7614 0.0
C1516 C 0.63716 0.9193 0.72985 0.0
C1517 C 0.63761 0.94032 0.73606 0.0
C1518 C 0.62156 0.00196 0.73321 0.0
C1519 C 0.62295 0.04536 0.75896 0.0
C1520 C 0.62315 0.02316 0.75217 0.0
C1521 C 0.62296 0.95852 0.73267 0.0
C1522 C 0.62321 0.98083 0.73936 0.0
H1523 H 0.60134 0.06867 0.78476 0.0
H1524 H 0.60058 0.03301 0.7732 0.0
H1525 H 0.62006 0.03879 0.73451 0.0
H1526 H 0.59547 0.93215 0.70928 0.0
H1527 H 0.59616 0.96868 0.72013 0.0
C1528 C 0.68464 0.66937 0.01289 0.0
C1529 C 0.67396 0.64916 0.01705 0.0
C1530 C 0.70517 0.66829 0.00633 0.0
C1531 C 0.74334 0.62791 0.98933 0.0
H1532 H 0.78864 0.67599 0.99469 0.0
C1533 C 0.83652 0.62317 0.97061 0.0
C1534 C 0.84441 0.64305 0.96465 0.0
C1535 C 0.81604 0.62364 0.97726 0.0
C1536 C 0.7761 0.66251 0.99305 0.0
H1537 H 0.67637 0.61189 0.01745 0.0
H1538 H 0.71249 0.60997 0.00629 0.0
H1539 H 0.75219 0.67709 0.00554 0.0
H1540 H 0.83723 0.67916 0.9613 0.0
H1541 H 0.80174 0.68005 0.97308 0.0
H1542 H 0.76767 0.61315 0.97701 0.0
C1543 C 0.70479 0.62671 0.00786 0.0
C1544 C 0.75511 0.66318 -0.00078 0.0
C1545 C 0.68408 0.62779 0.01431 0.0
C1546 C 0.83166 0.66354 0.96577 0.0
C1547 C 0.81136 0.66409 0.97255 0.0
C1548 C 0.76448 0.62711 0.98327 0.0
C1549 C 0.71577 0.64697 0.00387 0.0
C1550 C 0.73832 0.64599 -0.00262 0.0
C1551 C 0.80316 0.64407 0.97825 0.0
C1552 C 0.78103 0.64449 0.985 0.0
H1553 H 0.6772 0.68612 0.01476 0.0
H1554 H 0.7127 0.68425 0.00318 0.0
H1555 H 0.73079 0.61455 0.98752 0.0
H1556 H 0.84589 0.60707 0.9699 0.0
H1557 H 0.81026 0.608 0.98165 0.0
C1558 C 0.1047 0.92618 0.78609 0.0
C1559 C 0.11436 0.90596 0.78125 0.0
C1560 C 0.10497 0.9468 0.77957 0.0
C1561 C 0.13619 0.97616 0.75496 0.0
H1562 H 0.08493 0.01894 0.75634 0.0
C1563 C 0.13452 0.06002 0.7268 0.0
C1564 C 0.12638 0.0801 0.7325 0.0
C1565 C 0.13216 0.03845 0.7323 0.0
C1566 C 0.09949 0.00729 0.75595 0.0
H1567 H 0.13141 0.89152 0.7656 0.0
H1568 H 0.13167 0.92749 0.75416 0.0
H1569 H 0.08206 0.98176 0.76647 0.0
H1570 H 0.10917 0.09311 0.74845 0.0
H1571 H 0.1052 0.05552 0.75808 0.0
H1572 H 0.15369 0.00174 0.74451 0.0
C1573 C 0.12416 0.92745 0.76309 0.0
C1574 C 0.09784 0.98594 0.76176 0.0
C1575 C 0.12386 0.90677 0.76961 0.0
C1576 C 0.11561 0.07802 0.74379 0.0
C1577 C 0.11321 0.05642 0.74928 0.0
C1578 C 0.13784 0.9975 0.74914 0.0
C1579 C 0.11491 0.9478 0.76804 0.0
C1580 C 0.11623 0.97013 0.7614 0.0
C1581 C 0.12157 0.03636 0.74364 0.0
C1582 C 0.11956 0.01341 0.74962 0.0
H1583 H 0.09727 0.92623 0.79503 0.0
H1584 H 0.09793 0.96214 0.78375 0.0
H1585 H 0.15085 0.96462 0.75465 0.0
H1586 H 0.14283 0.06092 0.71808 0.0
H1587 H 0.13851 0.02337 0.72761 0.0
C1588 C 0.82066 0.36386 0.52894 0.0
C1589 C 0.83807 0.37714 0.52352 0.0
C1590 C 0.79874 0.36238 0.52376 0.0
C1591 C 0.76631 0.37192 0.49535 0.0
H1592 H 0.71371 0.37609 0.51675 0.0
C1593 C 0.67347 0.38658 0.47781 0.0
C1594 C 0.65533 0.37501 0.48365 0.0
C1595 C 0.69589 0.3858 0.48245 0.0
C1596 C 0.72817 0.37458 0.51064 0.0
H1597 H 0.84612 0.39888 0.50821 0.0
H1598 H 0.80781 0.39643 0.49921 0.0
H1599 H 0.75251 0.37642 0.52509 0.0
H1600 H 0.64672 0.35327 0.49887 0.0
H1601 H 0.68584 0.3517 0.50688 0.0
H1602 H 0.74192 0.3702 0.48089 0.0
C1603 C 0.81119 0.38698 0.50743 0.0
C1604 C 0.75047 0.37477 0.51543 0.0
C1605 C 0.83315 0.38846 0.51262 0.0
C1606 C 0.66023 0.36247 0.49417 0.0
C1607 C 0.68267 0.36168 0.4988 0.0
C1608 C 0.74399 0.37171 0.49055 0.0
C1609 C 0.7936 0.37414 0.51301 0.0
C1610 C 0.76985 0.3735 0.50785 0.0
C1611 C 0.70079 0.37342 0.49303 0.0
C1612 C 0.7246 0.37311 0.49813 0.0
H1613 H 0.82384 0.3548 0.5373 0.0
H1614 H 0.78577 0.35201 0.5282 0.0
H1615 H 0.78081 0.37059 0.48925 0.0
H1616 H 0.67035 0.39646 0.4697 0.0
H1617 H 0.7093 0.39531 0.47784 0.0
C1618 C 0.38606 0.08005 0.26228 0.0
C1619 C 0.37072 0.0841 0.27185 0.0
C1620 C 0.3876 0.05819 0.25696 0.0
C1621 C 0.37424 0.99645 0.2624 0.0
H1622 H 0.37833 0.99145 0.22765 0.0
C1623 C 0.36059 0.91004 0.23727 0.0
C1624 C 0.37408 0.90553 0.22701 0.0
C1625 C 0.36152 0.93154 0.24298 0.0
C1626 C 0.37753 0.99249 0.23738 0.0
H1627 H 0.34498 0.06818 0.28332 0.0
H1628 H 0.34753 0.03029 0.274 0.0
H1629 H 0.37752 0.0294 0.23706 0.0
H1630 H 0.39957 0.92006 0.21492 0.0
H1631 H 0.40144 0.95737 0.22497 0.0
H1632 H 0.37415 0.95955 0.26273 0.0
C1633 C 0.35861 0.0439 0.27069 0.0
C1634 C 0.37705 0.0143 0.24278 0.0
C1635 C 0.35704 0.06572 0.27599 0.0
C1636 C 0.38885 0.92293 0.22276 0.0
C1637 C 0.38981 0.94442 0.22849 0.0
C1638 C 0.37476 0.97464 0.257 0.0
C1639 C 0.37388 0.03983 0.26109 0.0
C1640 C 0.37523 0.01658 0.25536 0.0
C1641 C 0.376 0.94911 0.23861 0.0
C1642 C 0.37626 0.97235 0.24441 0.0
H1643 H 0.39692 0.09376 0.25888 0.0
H1644 H 0.39974 0.05563 0.24967 0.0
H1645 H 0.37323 0.99753 0.27212 0.0
H1646 H 0.34896 0.89709 0.24077 0.0
H1647 H 0.35042 0.93457 0.25065 0.0
C1648 C 0.83976 0.85344 0.46248 0.0
C1649 C 0.85231 0.87396 0.46097 0.0
C1650 C 0.81903 0.85333 0.46892 0.0
C1651 C 0.7716 0.89134 0.47861 0.0
H1652 H 0.75792 0.842 0.50101 0.0
C1653 C 0.69027 0.89261 0.50892 0.0
C1654 C 0.67901 0.87154 0.51102 0.0
C1655 C 0.71157 0.89319 0.50299 0.0
C1656 C 0.76129 0.85577 0.49467 0.0
H1657 H 0.85291 0.91048 0.46518 0.0
H1658 H 0.81674 0.91028 0.47639 0.0
H1659 H 0.79472 0.84235 0.49045 0.0
H1660 H 0.68123 0.83457 0.50837 0.0
H1661 H 0.71796 0.8356 0.49784 0.0
H1662 H 0.73807 0.9046 0.48266 0.0
C1663 C 0.82288 0.89428 0.47252 0.0
C1664 C 0.78245 0.85599 0.48864 0.0
C1665 C 0.84371 0.89436 0.46615 0.0
C1666 C 0.68946 0.8511 0.50697 0.0
C1667 C 0.71066 0.85168 0.50099 0.0
C1668 C 0.75036 0.89105 0.48459 0.0
C1669 C 0.81025 0.87378 0.47395 0.0
C1670 C 0.78786 0.87375 0.48052 0.0
C1671 C 0.7221 0.87271 0.49896 0.0
C1672 C 0.74487 0.87323 0.49269 0.0
H1673 H 0.84585 0.83742 0.45861 0.0
H1674 H 0.80964 0.83729 0.46976 0.0
H1675 H 0.77509 0.90512 0.47229 0.0
H1676 H 0.68277 0.90868 0.51196 0.0
H1677 H 0.71995 0.90968 0.50175 0.0
C1678 C 0.36347 0.57911 0.73062 0.0
C1679 C 0.38361 0.59249 0.7315 0.0
C1680 C 0.36268 0.55683 0.73546 0.0
C1681 C 0.40034 0.50906 0.74623 0.0
H1682 H 0.34485 0.48864 0.76244 0.0
C1683 C 0.39771 0.42772 0.77634 0.0
C1684 C 0.37817 0.41345 0.77562 0.0
C1685 C 0.39832 0.44892 0.77034 0.0
C1686 C 0.36038 0.49395 0.75782 0.0
H1687 H 0.41872 0.59282 0.73819 0.0
H1688 H 0.41723 0.55427 0.74678 0.0
H1689 H 0.34598 0.52677 0.75326 0.0
H1690 H 0.34401 0.41025 0.76787 0.0
H1691 H 0.34509 0.44725 0.7574 0.0
H1692 H 0.41484 0.47634 0.75098 0.0
C1693 C 0.40214 0.56077 0.74216 0.0
C1694 C 0.36104 0.51585 0.75253 0.0
C1695 C 0.40295 0.583 0.73729 0.0
C1696 C 0.35934 0.4208 0.76864 0.0
C1697 C 0.35989 0.44209 0.76269 0.0
C1698 C 0.39971 0.48722 0.75157 0.0
C1699 C 0.38198 0.54736 0.74134 0.0
C1700 C 0.38107 0.52376 0.74671 0.0
C1701 C 0.37935 0.45646 0.76351 0.0
C1702 C 0.37977 0.47942 0.75748 0.0
H1703 H 0.34828 0.58582 0.72618 0.0
H1704 H 0.34697 0.54694 0.73448 0.0
H1705 H 0.41592 0.51434 0.74164 0.0
H1706 H 0.41253 0.42264 0.78165 0.0
H1707 H 0.41348 0.45964 0.77128 0.0
C1708 C 0.82301 0.15045 0.00661 0.0
C1709 C 0.83184 0.12949 0.01098 0.0
C1710 C 0.80131 0.15132 0.0011 0.0
C1711 C 0.7458 0.12073 -0.0003 0.0
H1712 H 0.73672 0.15504 0.97013 0.0
C1713 C 0.66055 0.11585 0.9727 0.0
C1714 C 0.65296 0.1357 0.96663 0.0
C1715 C 0.68215 0.11538 0.97831 0.0
C1716 C 0.7388 0.14567 0.97849 0.0
H1717 H 0.82474 0.09296 0.01291 0.0
H1718 H 0.78687 0.09455 0.00338 0.0
H1719 H 0.7748 0.15374 0.97937 0.0
H1720 H 0.66192 0.17087 0.962 0.0
H1721 H 0.6992 0.17032 0.97207 0.0
H1722 H 0.7098 0.11293 -0.00101 0.0
C1723 C 0.79672 0.11032 0.00425 0.0
C1724 C 0.7607 0.14487 0.98376 0.0
C1725 C 0.81851 0.1094 0.00964 0.0
C1726 C 0.66728 0.15524 0.96653 0.0
C1727 C 0.68879 0.15484 0.97224 0.0
C1728 C 0.72384 0.1217 0.9945 0.0
C1729 C 0.78782 0.1313 -5e-05 0.0
C1730 C 0.76449 0.13231 0.99439 0.0
C1731 C 0.69667 0.13483 0.9781 0.0
C1732 C 0.72002 0.13412 0.98379 0.0
H1733 H 0.8328 0.16625 0.00749 0.0
H1734 H 0.79488 0.16778 -0.00204 0.0
H1735 H 0.74807 0.11118 0.00799 0.0
H1736 H 0.65003 0.10043 0.97289 0.0
H1737 H 0.68767 0.09953 0.98257 0.0
C1738 C 0.08012 0.56031 0.26111 0.0
C1739 C 0.09918 0.57475 0.26312 0.0
C1740 C 0.08246 0.53992 0.25448 0.0
C1741 C 0.12188 0.50856 0.23352 0.0
H1742 H 0.08747 0.45526 0.24446 0.0
C1743 C 0.13951 0.41575 0.21624 0.0
C1744 C 0.1201 0.40235 0.21329 0.0
C1745 C 0.13696 0.43704 0.22205 0.0
C1746 C 0.09705 0.47003 0.24122 0.0
H1747 H 0.13562 0.57922 0.25953 0.0
H1748 H 0.13986 0.54345 0.24823 0.0
H1749 H 0.083 0.49197 0.25483 0.0
H1750 H 0.08281 0.40082 0.21425 0.0
H1751 H 0.07843 0.4378 0.22448 0.0
H1752 H 0.13627 0.4863 0.22005 0.0
C1753 C 0.12294 0.54804 0.25157 0.0
C1754 C 0.09443 0.49116 0.24714 0.0
C1755 C 0.12054 0.56856 0.2581 0.0
C1756 C 0.09813 0.41067 0.21638 0.0
C1757 C 0.09561 0.43182 0.2223 0.0
C1758 C 0.12466 0.48735 0.22767 0.0
C1759 C 0.10399 0.53327 0.24979 0.0
C1760 C 0.10674 0.51077 0.24336 0.0
C1761 C 0.11498 0.4453 0.22517 0.0
C1762 C 0.11222 0.46785 0.23143 0.0
H1763 H 0.06336 0.56463 0.26476 0.0
H1764 H 0.06734 0.52932 0.25309 0.0
H1765 H 0.13141 0.5233 0.23021 0.0
H1766 H 0.15668 0.40989 0.21397 0.0
H1767 H 0.15224 0.44691 0.22423 0.0
C1768 C 0.16094 0.13787 0.50422 0.0
C1769 C 0.15734 0.1288 0.51581 0.0
C1770 C 0.18313 0.13875 0.49927 0.0
C1771 C 0.2405 0.11156 0.50172 0.0
H1772 H 0.26087 0.16452 0.48332 0.0
C1773 C 0.33337 0.11791 0.48296 0.0
C1774 C 0.33582 0.12667 0.47123 0.0
C1775 C 0.31221 0.1194 0.48899 0.0
C1776 C 0.2554 0.14948 0.48833 0.0
H1777 H 0.1744 0.11382 0.53134 0.0
H1778 H 0.21298 0.1154 0.52273 0.0
H1779 H 0.22275 0.16471 0.49255 0.0
H1780 H 0.31792 0.14421 0.45672 0.0
H1781 H 0.28114 0.14651 0.46711 0.0
H1782 H 0.27293 0.09614 0.49736 0.0
C1783 C 0.19864 0.12164 0.51741 0.0
C1784 C 0.23352 0.14961 0.49363 0.0
C1785 C 0.1765 0.12087 0.52237 0.0
C1786 C 0.31673 0.13733 0.46577 0.0
C1787 C 0.2956 0.13878 0.47177 0.0
C1788 C 0.26234 0.11138 0.49638 0.0
C1789 C 0.20223 0.13047 0.50577 0.0
C1790 C 0.22574 0.13061 0.50035 0.0
C1791 C 0.29296 0.12966 0.48343 0.0
C1792 C 0.27006 0.13029 0.48955 0.0
H1793 H 0.1466 0.14412 0.4989 0.0
H1794 H 0.18524 0.14546 0.49024 0.0
H1795 H 0.23495 0.09649 0.50669 0.0
H1796 H 0.34773 0.10965 0.48746 0.0
H1797 H 0.31095 0.1125 0.49802 0.0
C1798 C 0.59119 0.4067 0.27452 0.0
C1799 C 0.61227 0.39639 0.27767 0.0
C1800 C 0.5907 0.42729 0.26796 0.0
C1801 C 0.62531 0.47864 0.26069 0.0
H1802 H 0.58269 0.4851 0.23402 0.0
C1803 C 0.62643 0.55795 0.22875 0.0
C1804 C 0.60524 0.56573 0.22415 0.0
C1805 C 0.62763 0.53759 0.23551 0.0
C1806 C 0.59447 0.4838 0.24156 0.0
H1807 H 0.64941 0.39976 0.27638 0.0
H1808 H 0.64852 0.43579 0.265 0.0
H1809 H 0.58404 0.4491 0.24524 0.0
H1810 H 0.56858 0.55865 0.22345 0.0
H1811 H 0.57053 0.52374 0.23549 0.0
H1812 H 0.63549 0.51346 0.25716 0.0
C1813 C 0.63237 0.42793 0.26764 0.0
C1814 C 0.59528 0.46306 0.24796 0.0
C1815 C 0.63287 0.4072 0.2741 0.0
C1816 C 0.58523 0.55306 0.22676 0.0
C1817 C 0.58638 0.53288 0.2336 0.0
C1818 C 0.62435 0.49949 0.25435 0.0
C1819 C 0.61128 0.43821 0.26449 0.0
C1820 C 0.61068 0.46023 0.25761 0.0
C1821 C 0.60763 0.52462 0.23793 0.0
C1822 C 0.60887 0.50239 0.2447 0.0
H1823 H 0.575 0.39888 0.27713 0.0
H1824 H 0.57417 0.43487 0.26578 0.0
H1825 H 0.63719 0.47709 0.26817 0.0
H1826 H 0.64219 0.56725 0.22685 0.0
H1827 H 0.64434 0.53172 0.23857 0.0
C1828 C 0.19383 0.86355 0.95967 0.0
C1829 C 0.17408 0.87501 0.96391 0.0
C1830 C 0.21405 0.86312 0.96651 0.0
C1831 C 0.23759 0.87121 -0.00279 0.0
H1832 H 0.29451 0.88343 0.9801 0.0
C1833 C 0.32435 0.88811 0.02181 0.0
C1834 C 0.34464 0.87976 0.01644 0.0
C1835 C 0.30318 0.88663 0.01578 0.0
C1836 C 0.27886 0.87963 0.98503 0.0
H1837 H 0.15997 0.89441 0.9789 0.0
H1838 H 0.19537 0.89362 0.99086 0.0
H1839 H 0.25832 0.8822 0.96908 0.0
H1840 H 0.35839 0.86265 0.00063 0.0
H1841 H 0.32156 0.85962 0.99025 0.0
H1842 H 0.2582 0.86854 0.01316 0.0
C1843 C 0.19513 0.88491 0.98223 0.0
C1844 C 0.25806 0.87898 0.97868 0.0
C1845 C 0.17486 0.88543 0.97535 0.0
C1846 C 0.34316 0.86943 0.005 0.0
C1847 C 0.32201 0.86783 -0.00099 0.0
C1848 C 0.25846 0.87175 0.00356 0.0
C1849 C 0.21509 0.87406 0.9778 0.0
C1850 C 0.23715 0.87472 0.98467 0.0
C1851 C 0.30175 0.87666 0.00424 0.0
C1852 C 0.27941 0.87593 -0.00245 0.0
H1853 H 0.19386 0.85523 0.95094 0.0
H1854 H 0.22897 0.85427 0.96291 0.0
H1855 H 0.22182 0.86768 0.00208 0.0
H1856 H 0.32485 0.89624 0.03059 0.0
H1857 H 0.28805 0.89385 0.02006 0.0
C1858 C 0.8864 0.4135 0.72568 0.0
C1859 C 0.86987 0.41237 0.71644 0.0
C1860 C 0.88972 0.43398 0.73219 0.0
C1861 C 0.88001 0.49702 0.7306 0.0
H1862 H 0.8829 0.4946 0.76545 0.0
C1863 C 0.86732 0.57796 0.76025 0.0
C1864 C 0.87945 0.57964 0.77118 0.0
C1865 C 0.86859 0.55792 0.75325 0.0
C1866 C 0.88254 0.49563 0.75572 0.0
H1867 H 0.84409 0.43203 0.7067 0.0
H1868 H 0.84991 0.46753 0.71795 0.0
H1869 H 0.88093 0.45888 0.75392 0.0
H1870 H 0.90317 0.56183 0.78306 0.0
H1871 H 0.90581 0.52716 0.77074 0.0
H1872 H 0.88157 0.53372 0.73235 0.0
C1873 C 0.86041 0.45268 0.72016 0.0
C1874 C 0.88136 0.4751 0.74911 0.0
C1875 C 0.85696 0.43223 0.71376 0.0
C1876 C 0.89348 0.56109 0.77473 0.0
C1877 C 0.89486 0.5411 0.7677 0.0
C1878 C 0.88133 0.51754 0.7372 0.0
C1879 C 0.87675 0.45382 0.72949 0.0
C1880 C 0.87974 0.47555 0.73648 0.0
C1881 C 0.88214 0.53907 0.75695 0.0
C1882 C 0.88229 0.51716 0.74986 0.0
H1883 H 0.89664 0.39852 0.72798 0.0
H1884 H 0.90255 0.43434 0.73927 0.0
H1885 H 0.87915 0.49796 0.72087 0.0
H1886 H 0.85626 0.59186 0.75726 0.0
H1887 H 0.85831 0.55696 0.74513 0.0
C1888 C 0.09344 0.38939 0.07582 0.0
C1889 C 0.10584 0.39166 0.06503 0.0
C1890 C 0.10436 0.392 0.08689 0.0
C1891 C 0.12757 0.40714 0.10952 0.0
H1892 H 0.1853 0.37486 0.11408 0.0
C1893 C 0.15551 0.38053 0.1569 0.0
C1894 C 0.1615 0.35709 0.15747 0.0
C1895 C 0.15515 0.39202 0.1458 0.0
C1896 C 0.16921 0.38407 0.11296 0.0
H1897 H 0.13948 0.39873 0.0574 0.0
H1898 H 0.15868 0.40355 0.07689 0.0
H1899 H 0.17073 0.38094 0.0938 0.0
H1900 H 0.17353 0.32786 0.14699 0.0
H1901 H 0.1722 0.34735 0.12786 0.0
H1902 H 0.12484 0.40826 0.12866 0.0
C1903 C 0.14047 0.39952 0.07673 0.0
C1904 C 0.16099 0.38781 0.1013 0.0
C1905 C 0.1295 0.39673 0.06557 0.0
C1906 C 0.16855 0.34585 0.14688 0.0
C1907 C 0.16811 0.35721 0.13586 0.0
C1908 C 0.13558 0.40304 0.12117 0.0
C1909 C 0.12798 0.39719 0.08752 0.0
C1910 C 0.13944 0.39829 0.09948 0.0
C1911 C 0.16075 0.38023 0.13509 0.0
C1912 C 0.15588 0.39032 0.12304 0.0
H1913 H 0.07522 0.38534 0.07575 0.0
H1914 H 0.09428 0.38934 0.09498 0.0
H1915 H 0.11128 0.41599 0.10841 0.0
H1916 H 0.15023 0.38974 0.16493 0.0
H1917 H 0.14971 0.40986 0.14556 0.0
C1918 C 0.86902 0.89635 0.40491 0.0
C1919 C 0.89185 0.90432 0.40434 0.0
C1920 C 0.85528 0.89606 0.39454 0.0
C1921 C 0.85151 0.91735 0.36297 0.0
H1922 H 0.82638 0.85675 0.3565 0.0
C1923 C 0.84123 0.87981 0.31532 0.0
C1924 C 0.82479 0.86247 0.3134 0.0
C1925 C 0.8434 0.89004 0.32669 0.0
C1926 C 0.83269 0.87401 0.35819 0.0
H1927 H 0.91767 0.9196 0.39267 0.0
H1928 H 0.89387 0.91897 0.3747 0.0
H1929 H 0.84078 0.86565 0.37644 0.0
H1930 H 0.79612 0.84398 0.32133 0.0
H1931 H 0.79926 0.86242 0.34095 0.0
H1932 H 0.84415 0.9254 0.34454 0.0
C1933 C 0.88648 0.91302 0.3831 0.0
C1934 C 0.84098 0.87909 0.36968 0.0
C1935 C 0.90022 0.91312 0.39339 0.0
C1936 C 0.80923 0.85704 0.32265 0.0
C1937 C 0.81112 0.86752 0.33391 0.0
C1938 C 0.84307 0.91231 0.35147 0.0
C1939 C 0.86406 0.904 0.38348 0.0
C1940 C 0.85119 0.90052 0.37208 0.0
C1941 C 0.82892 0.88331 0.33625 0.0
C1942 C 0.83423 0.89032 0.34884 0.0
H1943 H 0.86206 0.88958 0.41323 0.0
H1944 H 0.83799 0.88912 0.3951 0.0
H1945 H 0.85903 0.93414 0.36463 0.0
H1946 H 0.85344 0.88428 0.30833 0.0
H1947 H 0.85741 0.90203 0.32816 0.0
C1948 C 0.38339 0.67822 0.66784 0.0
C1949 C 0.37376 0.66242 0.67597 0.0
C1950 C 0.38244 0.6742 0.6555 0.0
C1951 C 0.3747 0.63051 0.63208 0.0
H1952 H 0.36175 0.68477 0.61278 0.0
C1953 C 0.38052 0.63104 0.5799 0.0
C1954 C 0.39755 0.64678 0.57629 0.0
C1955 C 0.37146 0.63207 0.59158 0.0
C1956 C 0.36508 0.66942 0.61805 0.0
H1957 H 0.3566 0.62939 0.67761 0.0
H1958 H 0.35494 0.62227 0.65581 0.0
H1959 H 0.35876 0.6869 0.63465 0.0
H1960 H 0.41741 0.67671 0.58158 0.0
H1961 H 0.40099 0.67909 0.60174 0.0
H1962 H 0.3817 0.6133 0.61536 0.0
C1963 C 0.36318 0.63781 0.65908 0.0
C1964 C 0.36356 0.67065 0.63056 0.0
C1965 C 0.36422 0.64182 0.67153 0.0
C1966 C 0.40423 0.66444 0.58417 0.0
C1967 C 0.39481 0.66582 0.59567 0.0
C1968 C 0.37605 0.62924 0.6195 0.0
C1969 C 0.37168 0.65435 0.65095 0.0
C1970 C 0.36935 0.65152 0.63773 0.0
C1971 C 0.37888 0.64925 0.59961 0.0
C1972 C 0.37214 0.64896 0.61244 0.0
H1973 H 0.39116 0.6941 0.67099 0.0
H1974 H 0.38985 0.6869 0.6495 0.0
H1975 H 0.37921 0.6155 0.63736 0.0
H1976 H 0.37533 0.61711 0.57398 0.0
H1977 H 0.3592 0.61912 0.59445 0.0
C1978 C 0.64834 0.10431 0.82404 0.0
C1979 C 0.65786 0.12655 0.82447 0.0
C1980 C 0.64852 0.09035 0.83432 0.0
C1981 C 0.67024 0.08657 0.86601 0.0
H1982 H 0.60651 0.07224 0.87305 0.0
C1983 C 0.62942 0.09949 0.91226 0.0
C1984 C 0.60889 0.08794 0.91502 0.0
C1985 C 0.64093 0.09475 0.90147 0.0
C1986 C 0.62457 0.07538 0.87127 0.0
H1987 H 0.67712 0.15068 0.8355 0.0
H1988 H 0.67727 0.12663 0.85332 0.0
H1989 H 0.61776 0.08029 0.85258 0.0
H1990 H 0.58575 0.06055 0.9096 0.0
H1991 H 0.60636 0.05148 0.89109 0.0
H1992 H 0.67668 0.0829 0.88492 0.0
C1993 C 0.66967 0.11979 0.84515 0.0
C1994 C 0.63104 0.08001 0.85944 0.0
C1995 C 0.66931 0.13375 0.83496 0.0
C1996 C 0.60135 0.06999 0.90751 0.0
C1997 C 0.61311 0.06488 0.8969 0.0
C1998 C 0.66378 0.08181 0.87789 0.0
C1999 C 0.65844 0.09836 0.84512 0.0
C2000 C 0.65366 0.08683 0.85677 0.0
C2001 C 0.63227 0.07808 0.8934 0.0
C2002 C 0.64061 0.0773 0.88073 0.0
H2003 H 0.63956 0.09826 0.81603 0.0
H2004 H 0.6399 0.07381 0.83401 0.0
H2005 H 0.68792 0.09141 0.86418 0.0
H2006 H 0.63555 0.11339 0.91794 0.0
H2007 H 0.65554 0.10539 0.89907 0.0
C2008 C 0.15298 0.59596 0.32066 0.0
C2009 C 0.12952 0.6016 0.31988 0.0
C2010 C 0.16186 0.58642 0.33126 0.0
C2011 C 0.1726 0.59592 0.35772 0.0
H2012 H 0.13975 0.55688 0.38021 0.0
C2013 C 0.14213 0.62296 0.40363 0.0
C2014 C 0.14121 0.60717 0.41315 0.0
C2015 C 0.15165 0.61653 0.39261 0.0
C2016 C 0.14967 0.56737 0.37404 0.0
H2017 H 0.09657 0.59998 0.32888 0.0
H2018 H 0.11176 0.58263 0.34721 0.0
H2019 H 0.13414 0.55155 0.35859 0.0
H2020 H 0.1504 0.57281 0.419 0.0
H2021 H 0.16639 0.56115 0.39943 0.0
H2022 H 0.18626 0.61329 0.37319 0.0
C2023 C 0.12341 0.58544 0.33974 0.0
C2024 C 0.14636 0.56438 0.36167 0.0
C2025 C 0.11466 0.59538 0.32926 0.0
C2026 C 0.15132 0.58535 0.41179 0.0
C2027 C 0.16033 0.57866 0.40062 0.0
C2028 C 0.17569 0.59909 0.37009 0.0
C2029 C 0.14728 0.58215 0.34112 0.0
C2030 C 0.15675 0.57951 0.35343 0.0
C2031 C 0.1598 0.59397 0.39082 0.0
C2032 C 0.16321 0.58571 0.37834 0.0
H2033 H 0.16477 0.60104 0.31358 0.0
H2034 H 0.18031 0.58407 0.33211 0.0
H2035 H 0.18077 0.60794 0.3516 0.0
H2036 H 0.13414 0.63977 0.40449 0.0
H2037 H 0.1507 0.62858 0.38517 0.0
C2038 C 0.61662 0.84065 0.65872 0.0
C2039 C 0.62772 0.85298 0.66793 0.0
C2040 C 0.62054 0.84608 0.64671 0.0
C2041 C 0.63907 0.88819 0.62493 0.0
H2042 H 0.65479 0.83339 0.60659 0.0
C2043 C 0.64363 0.88793 0.57278 0.0
C2044 C 0.62785 0.87183 0.56817 0.0
C2045 C 0.65041 0.88683 0.58489 0.0
C2046 C 0.65072 0.8489 0.6116 0.0
H2047 H 0.65017 0.88191 0.67183 0.0
H2048 H 0.65679 0.89172 0.65053 0.0
H2049 H 0.6516 0.83116 0.62845 0.0
H2050 H 0.60798 0.84121 0.57216 0.0
H2051 H 0.62031 0.83879 0.59306 0.0
H2052 H 0.63692 0.90559 0.60792 0.0
C2053 C 0.64526 0.87767 0.65275 0.0
C2054 C 0.64881 0.84762 0.62408 0.0
C2055 C 0.64135 0.87217 0.6649 0.0
C2056 C 0.62027 0.85374 0.57552 0.0
C2057 C 0.62738 0.85235 0.58747 0.0
C2058 C 0.64093 0.88947 0.61236 0.0
C2059 C 0.63562 0.86398 0.6436 0.0
C2060 C 0.64198 0.86698 0.6308 0.0
C2061 C 0.6419 0.86929 0.59239 0.0
C2062 C 0.6458 0.86956 0.60557 0.0
H2063 H 0.60577 0.82598 0.66078 0.0
H2064 H 0.61242 0.83566 0.6398 0.0
H2065 H 0.63385 0.90334 0.62994 0.0
H2066 H 0.64945 0.90221 0.56728 0.0
H2067 H 0.66164 0.90007 0.58848 0.0
C2068 C 0.35202 0.393 0.82975 0.0
C2069 C 0.3511 0.36881 0.83036 0.0
C2070 C 0.35152 0.40623 0.84033 0.0
C2071 C 0.3403 0.40144 0.87345 0.0
H2072 H 0.38872 0.44706 0.87615 0.0
C2073 C 0.37463 0.42695 0.91994 0.0
C2074 C 0.39881 0.42668 0.9206 0.0
C2075 C 0.36354 0.42786 0.90875 0.0
C2076 C 0.37506 0.4344 0.87556 0.0
H2077 H 0.34828 0.33963 0.84253 0.0
H2078 H 0.34803 0.36233 0.8607 0.0
H2079 H 0.37811 0.43236 0.8564 0.0
H2080 H 0.43026 0.42831 0.91005 0.0
H2081 H 0.4112 0.42893 0.89076 0.0
H2082 H 0.33881 0.40163 0.89262 0.0
C2083 C 0.3486 0.37132 0.85216 0.0
C2084 C 0.36873 0.42622 0.86419 0.0
C2085 C 0.34907 0.35821 0.84168 0.0
C2086 C 0.4116 0.4284 0.9099 0.0
C2087 C 0.40058 0.42907 0.89877 0.0
C2088 C 0.34691 0.40929 0.88481 0.0
C2089 C 0.35 0.39547 0.85166 0.0
C2090 C 0.35218 0.40868 0.86308 0.0
C2091 C 0.37641 0.4283 0.898 0.0
C2092 C 0.36526 0.42492 0.88605 0.0
H2093 H 0.35346 0.40167 0.82115 0.0
H2094 H 0.35257 0.42481 0.83964 0.0
H2095 H 0.32695 0.38845 0.87286 0.0
H2096 H 0.36429 0.42592 0.92804 0.0
H2097 H 0.34489 0.42759 0.90851 0.0
C2098 C 0.84792 0.11644 0.16215 0.0
C2099 C 0.84264 0.13996 0.16333 0.0
C2100 C 0.84565 0.10546 0.15099 0.0
C2101 C 0.82187 0.11216 0.12002 0.0
H2102 H 0.87871 0.08231 0.11052 0.0
C2103 C 0.85608 0.1107 0.07144 0.0
C2104 C 0.87171 0.09339 0.0682 0.0
C2105 C 0.84621 0.11066 0.08295 0.0
C2106 C 0.86238 0.08998 0.11301 0.0
H2107 H 0.82945 0.17003 0.15395 0.0
H2108 H 0.82578 0.15102 0.13457 0.0
H2109 H 0.87272 0.09234 0.13142 0.0
H2110 H 0.88745 0.06122 0.07364 0.0
H2111 H 0.86935 0.06042 0.09342 0.0
H2112 H 0.81198 0.11056 0.10144 0.0
C2113 C 0.83151 0.14097 0.14222 0.0
C2114 C 0.85899 0.09577 0.12505 0.0
C2115 C 0.83391 0.15194 0.15332 0.0
C2116 C 0.87562 0.07492 0.07607 0.0
C2117 C 0.86539 0.07457 0.08741 0.0
C2118 C 0.82521 0.10623 0.10793 0.0
C2119 C 0.83788 0.11778 0.14086 0.0
C2120 C 0.83906 0.10761 0.12862 0.0
C2121 C 0.8516 0.09308 0.09125 0.0
C2122 C 0.84586 0.09573 0.10422 0.0
H2123 H 0.85452 0.10671 0.16973 0.0
H2124 H 0.85054 0.08751 0.1502 0.0
H2125 H 0.80619 0.12104 0.12256 0.0
H2126 H 0.85294 0.12515 0.06549 0.0
H2127 H 0.83577 0.12527 0.0856 0.0
C2128 C 0.80404 0.60488 0.82598 0.0
C2129 C 0.82522 0.60631 0.81997 0.0
C2130 C 0.80214 0.5923 0.83665 0.0
C2131 C 0.83864 0.56002 0.85938 0.0
H2132 H 0.80351 0.59764 0.88158 0.0
C2133 C 0.87066 0.56911 0.90742 0.0
C2134 C 0.87028 0.59179 0.91176 0.0
C2135 C 0.85657 0.56266 0.89779 0.0
C2136 C 0.81363 0.58704 0.87554 0.0
H2137 H 0.86044 0.59425 0.81963 0.0
H2138 H 0.85789 0.57379 0.83853 0.0
H2139 H 0.79559 0.59998 0.86036 0.0
H2140 H 0.85435 0.62525 0.91007 0.0
H2141 H 0.83097 0.61482 0.89282 0.0
H2142 H 0.85868 0.5494 0.8744 0.0
C2143 C 0.84227 0.5814 0.83502 0.0
C2144 C 0.80871 0.58795 0.86325 0.0
C2145 C 0.84388 0.59328 0.82412 0.0
C2146 C 0.85468 0.60759 0.90689 0.0
C2147 C 0.84114 0.60142 0.897 0.0
C2148 C 0.84412 0.55975 0.87163 0.0
C2149 C 0.82171 0.58185 0.84182 0.0
C2150 C 0.8221 0.57551 0.85488 0.0
C2151 C 0.84258 0.57909 0.89197 0.0
C2152 C 0.83259 0.57435 0.8798 0.0
H2153 H 0.78932 0.61463 0.82281 0.0
H2154 H 0.78572 0.59223 0.84125 0.0
H2155 H 0.84861 0.54925 0.85337 0.0
H2156 H 0.88258 0.55664 0.91116 0.0
H2157 H 0.85764 0.54511 0.89454 0.0
C2158 C 0.10727 0.07829 0.58697 0.0
C2159 C 0.11737 0.08901 0.57692 0.0
C2160 C 0.11998 0.0746 0.59744 0.0
C2161 C 0.16639 0.10184 0.61377 0.0
H2162 H 0.15487 0.0526 0.6366 0.0
C2163 C 0.18692 0.11738 0.66274 0.0
C2164 C 0.1683 0.11261 0.67039 0.0
C2165 C 0.18823 0.10716 0.6514 0.0
C2166 C 0.15837 0.06643 0.63032 0.0
H2167 H 0.14918 0.10291 0.56972 0.0
H2168 H 0.17144 0.09663 0.58815 0.0
H2169 H 0.14314 0.04802 0.61558 0.0
H2170 H 0.13755 0.09207 0.67276 0.0
H2171 H 0.13911 0.07493 0.6527 0.0
H2172 H 0.18012 0.12096 0.62846 0.0
C2173 C 0.15359 0.09121 0.58789 0.0
C2174 C 0.1517 0.06378 0.61829 0.0
C2175 C 0.14086 0.09481 0.57735 0.0
C2176 C 0.15208 0.09595 0.66699 0.0
C2177 C 0.15309 0.08608 0.6555 0.0
C2178 C 0.17293 0.10453 0.62576 0.0
C2179 C 0.14309 0.08162 0.59814 0.0
C2180 C 0.15483 0.08185 0.61001 0.0
C2181 C 0.17057 0.09249 0.64735 0.0
C2182 C 0.1682 0.08723 0.63429 0.0
H2183 H 0.08927 0.07337 0.5869 0.0
H2184 H 0.11126 0.06746 0.6052 0.0
H2185 H 0.1688 0.11621 0.60768 0.0
H2186 H 0.19983 0.12997 0.66528 0.0
H2187 H 0.20231 0.11193 0.64551 0.0
C2188 C 0.6324 0.41509 0.42334 0.0
C2189 C 0.6082 0.4152 0.42367 0.0
C2190 C 0.64404 0.41733 0.41235 0.0
C2191 C 0.66096 0.40022 0.38825 0.0
H2192 H 0.62972 0.42403 0.36002 0.0
C2193 C 0.6533 0.34728 0.34616 0.0
C2194 C 0.64978 0.35714 0.33477 0.0
C2195 C 0.65594 0.36108 0.3563 0.0
C2196 C 0.6392 0.41767 0.36773 0.0
H2197 H 0.57733 0.41946 0.41285 0.0
H2198 H 0.59721 0.42225 0.39391 0.0
H2199 H 0.62052 0.43956 0.37973 0.0
H2200 H 0.64733 0.3894 0.325 0.0
H2201 H 0.65216 0.41377 0.34286 0.0
H2202 H 0.67975 0.37846 0.37625 0.0
C2203 C 0.60752 0.42103 0.40201 0.0
C2204 C 0.63364 0.42635 0.37911 0.0
C2205 C 0.59598 0.41908 0.41294 0.0
C2206 C 0.64982 0.38128 0.33368 0.0
C2207 C 0.65258 0.39522 0.34391 0.0
C2208 C 0.66693 0.39198 0.37687 0.0
C2209 C 0.63168 0.41946 0.40148 0.0
C2210 C 0.64313 0.41643 0.38957 0.0
C2211 C 0.65534 0.38524 0.35538 0.0
C2212 C 0.65482 0.3993 0.36658 0.0
H2213 H 0.64232 0.41248 0.43149 0.0
H2214 H 0.66267 0.41651 0.41235 0.0
H2215 H 0.66895 0.39225 0.39601 0.0
H2216 H 0.65343 0.32875 0.34737 0.0
H2217 H 0.65739 0.35264 0.36496 0.0
C2218 C 0.40474 0.89497 0.09167 0.0
C2219 C 0.39075 0.898 0.08147 0.0
C2220 C 0.39523 0.89493 0.10316 0.0
C2221 C 0.3742 0.90577 0.12704 0.0
H2222 H 0.31959 0.86898 0.13262 0.0
C2223 C 0.34946 0.8765 0.17496 0.0
C2224 C 0.34446 0.85283 0.17559 0.0
C2225 C 0.34995 0.88776 0.16379 0.0
C2226 C 0.33482 0.87942 0.13122 0.0
H2227 H 0.35571 0.90336 0.07532 0.0
H2228 H 0.33893 0.90345 0.09559 0.0
H2229 H 0.33122 0.87767 0.11208 0.0
H2230 H 0.33523 0.82267 0.16502 0.0
H2231 H 0.33667 0.84187 0.14582 0.0
H2232 H 0.37895 0.90583 0.14612 0.0
C2233 C 0.35732 0.90095 0.09462 0.0
C2234 C 0.34133 0.88463 0.11942 0.0
C2235 C 0.36689 0.90084 0.08302 0.0
C2236 C 0.33926 0.84089 0.16491 0.0
C2237 C 0.33976 0.85204 0.15384 0.0
C2238 C 0.36786 0.9003 0.13882 0.0
C2239 C 0.37146 0.89812 0.10483 0.0
C2240 C 0.36172 0.89693 0.11719 0.0
C2241 C 0.34538 0.87553 0.15308 0.0
C2242 C 0.34872 0.88611 0.14102 0.0
H2243 H 0.42316 0.89251 0.09081 0.0
H2244 H 0.40658 0.89194 0.11075 0.0
H2245 H 0.38963 0.91591 0.12564 0.0
H2246 H 0.3534 0.8862 0.18304 0.0
H2247 H 0.35422 0.90591 0.16351 0.0
C2248 C 0.84498 0.35839 0.6526 0.0
C2249 C 0.85561 0.36687 0.66308 0.0
C2250 C 0.84279 0.37223 0.64243 0.0
C2251 C 0.83431 0.40675 0.62258 0.0
H2252 H 0.89347 0.4318 0.61321 0.0
C2253 C 0.86699 0.40848 0.57407 0.0
C2254 C 0.88476 0.42375 0.57102 0.0
C2255 C 0.85709 0.40936 0.58555 0.0
C2256 C 0.87655 0.42559 0.61571 0.0
H2257 H 0.8712 0.39696 0.67133 0.0
H2258 H 0.8677 0.4212 0.65336 0.0
H2259 H 0.8877 0.41902 0.63371 0.0
H2260 H 0.90412 0.4537 0.5768 0.0
H2261 H 0.88616 0.45595 0.59659 0.0
H2262 H 0.82357 0.41231 0.60435 0.0
C2263 C 0.86109 0.40375 0.65308 0.0
C2264 C 0.87327 0.41821 0.62753 0.0
C2265 C 0.86312 0.38989 0.66335 0.0
C2266 C 0.89068 0.44148 0.57905 0.0
C2267 C 0.88048 0.44267 0.5904 0.0
C2268 C 0.83755 0.41424 0.61074 0.0
C2269 C 0.85128 0.39489 0.64245 0.0
C2270 C 0.85249 0.40777 0.63095 0.0
C2271 C 0.86461 0.42578 0.59405 0.0
C2272 C 0.85905 0.42284 0.60704 0.0
H2273 H 0.83877 0.34081 0.65213 0.0
H2274 H 0.83549 0.36475 0.63435 0.0
H2275 H 0.81796 0.39909 0.62504 0.0
H2276 H 0.86217 0.39464 0.56802 0.0
H2277 H 0.84498 0.396 0.58804 0.0
C2278 C 0.31837 0.12812 0.34307 0.0
C2279 C 0.32883 0.11935 0.33261 0.0
C2280 C 0.31753 0.11501 0.35357 0.0
C2281 C 0.35279 0.0723 0.36836 0.0
H2282 H 0.30762 0.07967 0.39381 0.0
C2283 C 0.38098 0.05742 0.41629 0.0
C2284 C 0.37583 0.07609 0.42386 0.0
C2285 C 0.36853 0.05393 0.4057 0.0
C2286 C 0.32036 0.07732 0.38679 0.0
H2287 H 0.34492 0.08923 0.32467 0.0
H2288 H 0.34356 0.06625 0.34313 0.0
H2289 H 0.29741 0.08958 0.37309 0.0
H2290 H 0.35244 0.10452 0.42698 0.0
H2291 H 0.33129 0.0992 0.4082 0.0
H2292 H 0.37626 0.06163 0.38197 0.0
C2293 C 0.33621 0.08341 0.34319 0.0
C2294 C 0.31449 0.08294 0.37492 0.0
C2295 C 0.33697 0.09654 0.33263 0.0
C2296 C 0.35671 0.08999 0.42126 0.0
C2297 C 0.34454 0.08682 0.41051 0.0
C2298 C 0.35867 0.06678 0.38018 0.0
C2299 C 0.32718 0.09282 0.35388 0.0
C2300 C 0.331 0.08144 0.36568 0.0
C2301 C 0.35111 0.06946 0.40231 0.0
C2302 C 0.34285 0.07015 0.38963 0.0
H2303 H 0.31167 0.14553 0.34332 0.0
H2304 H 0.31069 0.12292 0.36165 0.0
H2305 H 0.36603 0.07119 0.36151 0.0
H2306 H 0.39546 0.04623 0.41824 0.0
H2307 H 0.3736 0.03997 0.39979 0.0
C2308 C 0.65758 0.58843 0.16568 0.0
C2309 C 0.63417 0.59431 0.1664 0.0
C2310 C 0.66668 0.57987 0.15488 0.0
C2311 C 0.65105 0.56222 0.12352 0.0
H2312 H 0.69377 0.61043 0.11429 0.0
C2313 C 0.65312 0.59303 0.07505 0.0
C2314 C 0.64572 0.61606 0.07517 0.0
C2315 C 0.66274 0.58324 0.08544 0.0
C2316 C 0.68231 0.59645 0.11671 0.0
H2317 H 0.60148 0.59386 0.15709 0.0
H2318 H 0.61699 0.57837 0.13844 0.0
H2319 H 0.68787 0.60186 0.13552 0.0
H2320 H 0.64428 0.6475 0.08559 0.0
H2321 H 0.66166 0.63085 0.10351 0.0
H2322 H 0.64377 0.55845 0.10474 0.0
C2323 C 0.62849 0.58024 0.14606 0.0
C2324 C 0.67902 0.59139 0.12889 0.0
C2325 C 0.61954 0.58917 0.15674 0.0
C2326 C 0.65012 0.62977 0.08529 0.0
C2327 C 0.66015 0.62018 0.09554 0.0
C2328 C 0.6544 0.56722 0.11133 0.0
C2329 C 0.65236 0.57683 0.14477 0.0
C2330 C 0.66214 0.57538 0.13243 0.0
C2331 C 0.66541 0.59653 0.09595 0.0
C2332 C 0.66885 0.58552 0.10788 0.0
H2333 H 0.6692 0.59262 0.173 0.0
H2334 H 0.68511 0.57735 0.15414 0.0
H2335 H 0.63815 0.54958 0.12598 0.0
H2336 H 0.64953 0.5821 0.06736 0.0
H2337 H 0.66662 0.56498 0.08552 0.0
C2338 C 0.1911 0.85713 0.83315 0.0
C2339 C 0.17163 0.86469 0.82678 0.0
C2340 C 0.19982 0.87009 0.8427 0.0
C2341 C 0.19032 0.92379 0.86093 0.0
H2342 H 0.1917 0.87993 0.88722 0.0
C2343 C 0.14024 0.93493 0.90356 0.0
C2344 C 0.14508 0.92142 0.91374 0.0
C2345 C 0.15531 0.93524 0.89381 0.0
C2346 C 0.19217 0.89267 0.8801 0.0
H2347 H 0.14736 0.89266 0.82452 0.0
H2348 H 0.16177 0.91487 0.84158 0.0
H2349 H 0.19685 0.86651 0.86693 0.0
H2350 H 0.17098 0.90027 0.92243 0.0
H2351 H 0.19758 0.90095 0.90537 0.0
H2352 H 0.18394 0.94973 0.87426 0.0
C2353 C 0.17077 0.89924 0.83909 0.0
C2354 C 0.1951 0.88489 0.86833 0.0
C2355 C 0.16235 0.88645 0.82934 0.0
C2356 C 0.16663 0.91055 0.91462 0.0
C2357 C 0.18181 0.91088 0.90482 0.0
C2358 C 0.18744 0.93161 0.87276 0.0
C2359 C 0.18882 0.89057 0.84628 0.0
C2360 C 0.19281 0.90012 0.85855 0.0
C2361 C 0.1756 0.92203 0.89402 0.0
C2362 C 0.18682 0.91587 0.8824 0.0
H2363 H 0.19884 0.84056 0.83117 0.0
H2364 H 0.21415 0.86323 0.84782 0.0
H2365 H 0.18906 0.93606 0.85361 0.0
H2366 H 0.12395 0.94391 0.90273 0.0
H2367 H 0.14981 0.94403 0.88571 0.0
loop_
_geom_bond_atom_site_label_1
_geom_bond_atom_site_label_2
_geom_bond_distance
_geom_bond_site_symmetry_2
_ccdc_geom_bond_type
Zn0 O3 2.031 . S
Zn0 O5 2.049 . S
Zn0 O10 2.067 . S
Zn1 O2 1.962 . S
Zn1 O4 1.986 . S
Zn1 O6 1.996 . S
Zn1 O9 1.943 . S
O2 Zn1 1.962 . S
O2 C7 1.254 . S
O3 Zn0 2.031 . S
O3 C7 1.269 . S
O4 Zn1 1.986 . S
O4 C11 1.262 . S
O5 Zn0 2.049 . S
O5 C13 1.260 . S
O6 Zn1 1.996 . S
O6 C13 1.257 . S
C7 O2 1.254 . S
C7 O3 1.269 . S
C8 O9 1.249 . S
C8 O10 1.270 . S
O9 Zn1 1.943 . S
O9 C8 1.249 . S
O10 Zn0 2.067 . S
O10 C8 1.270 . S
C11 O4 1.262 . S
C11 O12 1.232 . S
O12 C11 1.232 . S
C13 O5 1.260 . S
C13 O6 1.257 . S
Zn14 O17 2.031 . S
Zn14 O19 2.049 . S
Zn14 O24 2.067 . S
Zn15 O16 1.962 . S
Zn15 O18 1.986 . S
Zn15 O20 1.996 . S
Zn15 O23 1.943 . S
O16 Zn15 1.962 . S
O16 C21 1.254 . S
O17 Zn14 2.031 . S
O17 C21 1.269 . S
O18 Zn15 1.986 . S
O18 C25 1.262 . S
O19 Zn14 2.049 . S
O19 C27 1.260 . S
O20 Zn15 1.996 . S
O20 C27 1.257 . S
C21 O16 1.254 . S
C21 O17 1.269 . S
C22 O23 1.249 . S
C22 O24 1.270 . S
O23 Zn15 1.943 . S
O23 C22 1.249 . S
O24 Zn14 2.067 . S
O24 C22 1.270 . S
C25 O18 1.262 . S
C25 O26 1.232 . S
O26 C25 1.232 . S
C27 O19 1.260 . S
C27 O20 1.257 . S
Zn28 O31 2.031 . S
Zn28 O33 2.049 . S
Zn28 O38 2.067 . S
Zn29 O30 1.962 . S
Zn29 O32 1.986 . S
Zn29 O34 1.996 . S
Zn29 O37 1.943 . S
O30 Zn29 1.962 . S
O30 C35 1.254 . S
O31 Zn28 2.031 . S
O31 C35 1.269 . S
O32 Zn29 1.986 . S
O32 C39 1.262 . S
O33 Zn28 2.049 . S
O33 C41 1.260 . S
O34 Zn29 1.996 . S
O34 C41 1.257 . S
C35 O30 1.254 . S
C35 O31 1.269 . S
C36 O37 1.249 . S
C36 O38 1.270 . S
O37 Zn29 1.943 . S
O37 C36 1.249 . S
O38 Zn28 2.067 . S
O38 C36 1.270 . S
C39 O32 1.262 . S
C39 O40 1.232 . S
O40 C39 1.232 . S
C41 O33 1.260 . S
C41 O34 1.257 . S
Zn42 O45 2.031 . S
Zn42 O47 2.049 . S
Zn42 O52 2.067 . S
Zn43 O44 1.962 . S
Zn43 O46 1.986 . S
Zn43 O48 1.996 . S
Zn43 O51 1.943 . S
O44 Zn43 1.962 . S
O44 C49 1.254 . S
O45 Zn42 2.031 . S
O45 C49 1.269 . S
O46 Zn43 1.986 . S
O46 C53 1.262 . S
O47 Zn42 2.049 . S
O47 C55 1.260 . S
O48 Zn43 1.996 . S
O48 C55 1.257 . S
C49 O44 1.254 . S
C49 O45 1.269 . S
C50 O51 1.249 . S
C50 O52 1.270 . S
O51 Zn43 1.943 . S
O51 C50 1.249 . S
O52 Zn42 2.067 . S
O52 C50 1.270 . S
C53 O46 1.262 . S
C53 O54 1.232 . S
O54 C53 1.232 . S
C55 O47 1.260 . S
C55 O48 1.257 . S
Zn56 O59 2.031 . S
Zn56 O61 2.049 . S
Zn56 O66 2.067 . S
Zn57 O58 1.962 . S
Zn57 O60 1.986 . S
Zn57 O62 1.996 . S
Zn57 O65 1.943 . S
O58 Zn57 1.962 . S
O58 C63 1.254 . S
O59 Zn56 2.031 . S
O59 C63 1.269 . S
O60 Zn57 1.986 . S
O60 C67 1.262 . S
O61 Zn56 2.049 . S
O61 C69 1.260 . S
O62 Zn57 1.996 . S
O62 C69 1.257 . S
C63 O58 1.254 . S
C63 O59 1.269 . S
C64 O65 1.249 . S
C64 O66 1.270 . S
O65 Zn57 1.943 . S
O65 C64 1.249 . S
O66 Zn56 2.067 . S
O66 C64 1.270 . S
C67 O60 1.262 . S
C67 O68 1.232 . S
O68 C67 1.232 . S
C69 O61 1.260 . S
C69 O62 1.257 . S
Zn70 O73 2.031 . S
Zn70 O75 2.049 . S
Zn70 O80 2.067 . S
Zn71 O72 1.962 . S
Zn71 O74 1.986 . S
Zn71 O76 1.996 . S
Zn71 O79 1.943 . S
O72 Zn71 1.962 . S
O72 C77 1.254 . S
O73 Zn70 2.031 . S
O73 C77 1.269 . S
O74 Zn71 1.986 . S
O74 C81 1.262 . S
O75 Zn70 2.049 . S
O75 C83 1.260 . S
O76 Zn71 1.996 . S
O76 C83 1.257 . S
C77 O72 1.254 . S
C77 O73 1.269 . S
C78 O79 1.249 . S
C78 O80 1.270 . S
O79 Zn71 1.943 . S
O79 C78 1.249 . S
O80 Zn70 2.067 . S
O80 C78 1.270 . S
C81 O74 1.262 . S
C81 O82 1.232 . S
O82 C81 1.232 . S
C83 O75 1.260 . S
C83 O76 1.257 . S
Zn84 O87 2.031 . S
Zn84 O89 2.049 . S
Zn84 O94 2.067 . S
Zn85 O86 1.962 . S
Zn85 O88 1.986 . S
Zn85 O90 1.996 . S
Zn85 O93 1.943 . S
O86 Zn85 1.962 . S
O86 C91 1.254 . S
O87 Zn84 2.031 . S
O87 C91 1.269 . S
O88 Zn85 1.986 . S
O88 C95 1.262 . S
O89 Zn84 2.049 . S
O89 C97 1.260 . S
O90 Zn85 1.996 . S
O90 C97 1.257 . S
C91 O86 1.254 . S
C91 O87 1.269 . S
C92 O93 1.249 . S
C92 O94 1.270 . S
O93 Zn85 1.943 . S
O93 C92 1.249 . S
O94 Zn84 2.067 . S
O94 C92 1.270 . S
C95 O88 1.262 . S
C95 O96 1.232 . S
O96 C95 1.232 . S
C97 O89 1.260 . S
C97 O90 1.257 . S
Zn98 O101 2.031 . S
Zn98 O103 2.049 . S
Zn98 O108 2.067 . S
Zn99 O100 1.962 . S
Zn99 O102 1.986 . S
Zn99 O104 1.996 . S
Zn99 O107 1.943 . S
O100 Zn99 1.962 . S
O100 C105 1.254 . S
O101 Zn98 2.031 . S
O101 C105 1.269 . S
O102 Zn99 1.986 . S
O102 C109 1.262 . S
O103 Zn98 2.049 . S
O103 C111 1.260 . S
O104 Zn99 1.996 . S
O104 C111 1.257 . S
C105 O100 1.254 . S
C105 O101 1.269 . S
C106 O107 1.249 . S
C106 O108 1.270 . S
O107 Zn99 1.943 . S
O107 C106 1.249 . S
O108 Zn98 2.067 . S
O108 C106 1.270 . S
C109 O102 1.262 . S
C109 O110 1.232 . S
O110 C109 1.232 . S
C111 O103 1.260 . S
C111 O104 1.257 . S
Zn112 O115 2.031 . S
Zn112 O117 2.049 . S
Zn112 O122 2.067 . S
Zn113 O114 1.962 . S
Zn113 O116 1.986 . S
Zn113 O118 1.996 . S
Zn113 O121 1.943 . S
O114 Zn113 1.962 . S
O114 C119 1.254 . S
O115 Zn112 2.031 . S
O115 C119 1.269 . S
O116 Zn113 1.986 . S
O116 C123 1.262 . S
O117 Zn112 2.049 . S
O117 C125 1.260 . S
O118 Zn113 1.996 . S
O118 C125 1.257 . S
C119 O114 1.254 . S
C119 O115 1.269 . S
C120 O121 1.249 . S
C120 O122 1.270 . S
O121 Zn113 1.943 . S
O121 C120 1.249 . S
O122 Zn112 2.067 . S
O122 C120 1.270 . S
C123 O116 1.262 . S
C123 O124 1.232 . S
O124 C123 1.232 . S
C125 O117 1.260 . S
C125 O118 1.257 . S
Zn126 O129 2.031 . S
Zn126 O131 2.049 . S
Zn126 O136 2.067 . S
Zn127 O128 1.962 . S
Zn127 O130 1.986 . S
Zn127 O132 1.996 . S
Zn127 O135 1.943 . S
O128 Zn127 1.962 . S
O128 C133 1.254 . S
O129 Zn126 2.031 . S
O129 C133 1.269 . S
O130 Zn127 1.986 . S
O130 C137 1.262 . S
O131 Zn126 2.049 . S
O131 C139 1.260 . S
O132 Zn127 1.996 . S
O132 C139 1.257 . S
C133 O128 1.254 . S
C133 O129 1.269 . S
C134 O135 1.249 . S
C134 O136 1.270 . S
O135 Zn127 1.943 . S
O135 C134 1.249 . S
O136 Zn126 2.067 . S
O136 C134 1.270 . S
C137 O130 1.262 . S
C137 O138 1.232 . S
O138 C137 1.232 . S
C139 O131 1.260 . S
C139 O132 1.257 . S
Zn140 O143 2.031 . S
Zn140 O145 2.049 . S
Zn140 O150 2.067 . S
Zn141 O142 1.962 . S
Zn141 O144 1.986 . S
Zn141 O146 1.996 . S
Zn141 O149 1.943 . S
O142 Zn141 1.962 . S
O142 C147 1.254 . S
O143 Zn140 2.031 . S
O143 C147 1.269 . S
O144 Zn141 1.986 . S
O144 C151 1.262 . S
O145 Zn140 2.049 . S
O145 C153 1.260 . S
O146 Zn141 1.996 . S
O146 C153 1.257 . S
C147 O142 1.254 . S
C147 O143 1.269 . S
C148 O149 1.249 . S
C148 O150 1.270 . S
O149 Zn141 1.943 . S
O149 C148 1.249 . S
O150 Zn140 2.067 . S
O150 C148 1.270 . S
C151 O144 1.262 . S
C151 O152 1.232 . S
O152 C151 1.232 . S
C153 O145 1.260 . S
C153 O146 1.257 . S
Zn154 O157 2.031 . S
Zn154 O159 2.049 . S
Zn154 O164 2.067 . S
Zn155 O156 1.962 . S
Zn155 O158 1.986 . S
Zn155 O160 1.996 . S
Zn155 O163 1.943 . S
O156 Zn155 1.962 . S
O156 C161 1.254 . S
O157 Zn154 2.031 . S
O157 C161 1.269 . S
O158 Zn155 1.986 . S
O158 C165 1.262 . S
O159 Zn154 2.049 . S
O159 C167 1.260 . S
O160 Zn155 1.996 . S
O160 C167 1.257 . S
C161 O156 1.254 . S
C161 O157 1.269 . S
C162 O163 1.249 . S
C162 O164 1.270 . S
O163 Zn155 1.943 . S
O163 C162 1.249 . S
O164 Zn154 2.067 . S
O164 C162 1.270 . S
C165 O158 1.262 . S
C165 O166 1.232 . S
O166 C165 1.232 . S
C167 O159 1.260 . S
C167 O160 1.257 . S
Zn168 O171 2.031 . S
Zn168 O173 2.049 . S
Zn168 O178 2.067 . S
Zn169 O170 1.962 . S
Zn169 O172 1.986 . S
Zn169 O174 1.996 . S
Zn169 O177 1.943 . S
O170 Zn169 1.962 . S
O170 C175 1.254 . S
O171 Zn168 2.031 . S
O171 C175 1.269 . S
O172 Zn169 1.986 . S
O172 C179 1.262 . S
O173 Zn168 2.049 . S
O173 C181 1.260 . S
O174 Zn169 1.996 . S
O174 C181 1.257 . S
C175 O170 1.254 . S
C175 O171 1.269 . S
C176 O177 1.249 . S
C176 O178 1.270 . S
O177 Zn169 1.943 . S
O177 C176 1.249 . S
O178 Zn168 2.067 . S
O178 C176 1.270 . S
C179 O172 1.262 . S
C179 O180 1.232 . S
O180 C179 1.232 . S
C181 O173 1.260 . S
C181 O174 1.257 . S
Zn182 O185 2.031 . S
Zn182 O187 2.049 . S
Zn182 O192 2.067 . S
Zn183 O184 1.962 . S
Zn183 O186 1.986 . S
Zn183 O188 1.996 . S
Zn183 O191 1.943 . S
O184 Zn183 1.962 . S
O184 C189 1.254 . S
O185 Zn182 2.031 . S
O185 C189 1.269 . S
O186 Zn183 1.986 . S
O186 C193 1.262 . S
O187 Zn182 2.049 . S
O187 C195 1.260 . S
O188 Zn183 1.996 . S
O188 C195 1.257 . S
C189 O184 1.254 . S
C189 O185 1.269 . S
C190 O191 1.249 . S
C190 O192 1.270 . S
O191 Zn183 1.943 . S
O191 C190 1.249 . S
O192 Zn182 2.067 . S
O192 C190 1.270 . S
C193 O186 1.262 . S
C193 O194 1.232 . S
O194 C193 1.232 . S
C195 O187 1.260 . S
C195 O188 1.257 . S
Zn196 O199 2.031 . S
Zn196 O201 2.049 . S
Zn196 O206 2.067 . S
Zn197 O198 1.962 . S
Zn197 O200 1.986 . S
Zn197 O202 1.996 . S
Zn197 O205 1.943 . S
O198 Zn197 1.962 . S
O198 C203 1.254 . S
O199 Zn196 2.031 . S
O199 C203 1.269 . S
O200 Zn197 1.986 . S
O200 C207 1.262 . S
O201 Zn196 2.049 . S
O201 C209 1.260 . S
O202 Zn197 1.996 . S
O202 C209 1.257 . S
C203 O198 1.254 . S
C203 O199 1.269 . S
C204 O205 1.249 . S
C204 O206 1.270 . S
O205 Zn197 1.943 . S
O205 C204 1.249 . S
O206 Zn196 2.067 . S
O206 C204 1.270 . S
C207 O200 1.262 . S
C207 O208 1.232 . S
O208 C207 1.232 . S
C209 O201 1.260 . S
C209 O202 1.257 . S
Zn210 O213 2.031 . S
Zn210 O215 2.049 . S
Zn210 O220 2.067 . S
Zn211 O212 1.962 . S
Zn211 O214 1.986 . S
Zn211 O216 1.996 . S
Zn211 O219 1.943 . S
O212 Zn211 1.962 . S
O212 C217 1.254 . S
O213 Zn210 2.031 . S
O213 C217 1.269 . S
O214 Zn211 1.986 . S
O214 C221 1.262 . S
O215 Zn210 2.049 . S
O215 C223 1.260 . S
O216 Zn211 1.996 . S
O216 C223 1.257 . S
C217 O212 1.254 . S
C217 O213 1.269 . S
C218 O219 1.249 . S
C218 O220 1.270 . S
O219 Zn211 1.943 . S
O219 C218 1.249 . S
O220 Zn210 2.067 . S
O220 C218 1.270 . S
C221 O214 1.262 . S
C221 O222 1.232 . S
O222 C221 1.232 . S
C223 O215 1.260 . S
C223 O216 1.257 . S
Zn224 O227 2.031 . S
Zn224 O229 2.049 . S
Zn224 O234 2.067 . S
Zn225 O226 1.962 . S
Zn225 O228 1.986 . S
Zn225 O230 1.996 . S
Zn225 O233 1.943 . S
O226 Zn225 1.962 . S
O226 C231 1.254 . S
O227 Zn224 2.031 . S
O227 C231 1.269 . S
O228 Zn225 1.986 . S
O228 C235 1.262 . S
O229 Zn224 2.049 . S
O229 C237 1.260 . S
O230 Zn225 1.996 . S
O230 C237 1.257 . S
C231 O226 1.254 . S
C231 O227 1.269 . S
C232 O233 1.249 . S
C232 O234 1.270 . S
O233 Zn225 1.943 . S
O233 C232 1.249 . S
O234 Zn224 2.067 . S
O234 C232 1.270 . S
C235 O228 1.262 . S
C235 O236 1.232 . S
O236 C235 1.232 . S
C237 O229 1.260 . S
C237 O230 1.257 . S
Zn238 O241 2.031 . S
Zn238 O243 2.049 . S
Zn238 O248 2.067 . S
Zn239 O240 1.962 . S
Zn239 O242 1.986 . S
Zn239 O244 1.996 . S
Zn239 O247 1.943 . S
O240 Zn239 1.962 . S
O240 C245 1.254 . S
O241 Zn238 2.031 . S
O241 C245 1.269 . S
O242 Zn239 1.986 . S
O242 C249 1.262 . S
O243 Zn238 2.049 . S
O243 C251 1.260 . S
O244 Zn239 1.996 . S
O244 C251 1.257 . S
C245 O240 1.254 . S
C245 O241 1.269 . S
C246 O247 1.249 . S
C246 O248 1.270 . S
O247 Zn239 1.943 . S
O247 C246 1.249 . S
O248 Zn238 2.067 . S
O248 C246 1.270 . S
C249 O242 1.262 . S
C249 O250 1.232 . S
O250 C249 1.232 . S
C251 O243 1.260 . S
C251 O244 1.257 . S
Zn252 O255 2.031 . S
Zn252 O257 2.049 . S
Zn252 O262 2.067 . S
Zn253 O254 1.962 . S
Zn253 O256 1.986 . S
Zn253 O258 1.996 . S
Zn253 O261 1.943 . S
O254 Zn253 1.962 . S
O254 C259 1.254 . S
O255 Zn252 2.031 . S
O255 C259 1.269 . S
O256 Zn253 1.986 . S
O256 C263 1.262 . S
O257 Zn252 2.049 . S
O257 C265 1.260 . S
O258 Zn253 1.996 . S
O258 C265 1.257 . S
C259 O254 1.254 . S
C259 O255 1.269 . S
C260 O261 1.249 . S
C260 O262 1.270 . S
O261 Zn253 1.943 . S
O261 C260 1.249 . S
O262 Zn252 2.067 . S
O262 C260 1.270 . S
C263 O256 1.262 . S
C263 O264 1.232 . S
O264 C263 1.232 . S
C265 O257 1.260 . S
C265 O258 1.257 . S
Zn266 O269 2.031 . S
Zn266 O271 2.049 . S
Zn266 O276 2.067 . S
Zn267 O268 1.962 . S
Zn267 O270 1.986 . S
Zn267 O272 1.996 . S
Zn267 O275 1.943 . S
O268 Zn267 1.962 . S
O268 C273 1.254 . S
O269 Zn266 2.031 . S
O269 C273 1.269 . S
O270 Zn267 1.986 . S
O270 C277 1.262 . S
O271 Zn266 2.049 . S
O271 C279 1.260 . S
O272 Zn267 1.996 . S
O272 C279 1.257 . S
C273 O268 1.254 . S
C273 O269 1.269 . S
C274 O275 1.249 . S
C274 O276 1.270 . S
O275 Zn267 1.943 . S
O275 C274 1.249 . S
O276 Zn266 2.067 . S
O276 C274 1.270 . S
C277 O270 1.262 . S
C277 O278 1.232 . S
O278 C277 1.232 . S
C279 O271 1.260 . S
C279 O272 1.257 . S
Zn280 O283 2.031 . S
Zn280 O285 2.049 . S
Zn280 O290 2.067 . S
Zn281 O282 1.962 . S
Zn281 O284 1.986 . S
Zn281 O286 1.996 . S
Zn281 O289 1.943 . S
O282 Zn281 1.962 . S
O282 C287 1.254 . S
O283 Zn280 2.031 . S
O283 C287 1.269 . S
O284 Zn281 1.986 . S
O284 C291 1.262 . S
O285 Zn280 2.049 . S
O285 C293 1.260 . S
O286 Zn281 1.996 . S
O286 C293 1.257 . S
C287 O282 1.254 . S
C287 O283 1.269 . S
C288 O289 1.249 . S
C288 O290 1.270 . S
O289 Zn281 1.943 . S
O289 C288 1.249 . S
O290 Zn280 2.067 . S
O290 C288 1.270 . S
C291 O284 1.262 . S
C291 O292 1.232 . S
O292 C291 1.232 . S
C293 O285 1.260 . S
C293 O286 1.257 . S
Zn294 O297 2.031 . S
Zn294 O299 2.049 . S
Zn294 O304 2.067 . S
Zn295 O296 1.962 . S
Zn295 O298 1.986 . S
Zn295 O300 1.996 . S
Zn295 O303 1.943 . S
O296 Zn295 1.962 . S
O296 C301 1.254 . S
O297 Zn294 2.031 . S
O297 C301 1.269 . S
O298 Zn295 1.986 . S
O298 C305 1.262 . S
O299 Zn294 2.049 . S
O299 C307 1.260 . S
O300 Zn295 1.996 . S
O300 C307 1.257 . S
C301 O296 1.254 . S
C301 O297 1.269 . S
C302 O303 1.249 . S
C302 O304 1.270 . S
O303 Zn295 1.943 . S
O303 C302 1.249 . S
O304 Zn294 2.067 . S
O304 C302 1.270 . S
C305 O298 1.262 . S
C305 O306 1.232 . S
O306 C305 1.232 . S
C307 O299 1.260 . S
C307 O300 1.257 . S
Zn308 O311 2.031 . S
Zn308 O313 2.049 . S
Zn308 O318 2.067 . S
Zn309 O310 1.962 . S
Zn309 O312 1.986 . S
Zn309 O314 1.996 . S
Zn309 O317 1.943 . S
O310 Zn309 1.962 . S
O310 C315 1.254 . S
O311 Zn308 2.031 . S
O311 C315 1.269 . S
O312 Zn309 1.986 . S
O312 C319 1.262 . S
O313 Zn308 2.049 . S
O313 C321 1.260 . S
O314 Zn309 1.996 . S
O314 C321 1.257 . S
C315 O310 1.254 . S
C315 O311 1.269 . S
C316 O317 1.249 . S
C316 O318 1.270 . S
O317 Zn309 1.943 . S
O317 C316 1.249 . S
O318 Zn308 2.067 . S
O318 C316 1.270 . S
C319 O312 1.262 . S
C319 O320 1.232 . S
O320 C319 1.232 . S
C321 O313 1.260 . S
C321 O314 1.257 . S
Zn322 O325 2.031 . S
Zn322 O327 2.049 . S
Zn322 O332 2.067 . S
Zn323 O324 1.962 . S
Zn323 O326 1.986 . S
Zn323 O328 1.996 . S
Zn323 O331 1.943 . S
O324 Zn323 1.962 . S
O324 C329 1.254 . S
O325 Zn322 2.031 . S
O325 C329 1.269 . S
O326 Zn323 1.986 . S
O326 C333 1.262 . S
O327 Zn322 2.049 . S
O327 C335 1.260 . S
O328 Zn323 1.996 . S
O328 C335 1.257 . S
C329 O324 1.254 . S
C329 O325 1.269 . S
C330 O331 1.249 . S
C330 O332 1.270 . S
O331 Zn323 1.943 . S
O331 C330 1.249 . S
O332 Zn322 2.067 . S
O332 C330 1.270 . S
C333 O326 1.262 . S
C333 O334 1.232 . S
O334 C333 1.232 . S
C335 O327 1.260 . S
C335 O328 1.257 . S
Zn336 O339 2.031 . S
Zn336 O341 2.049 . S
Zn336 O346 2.067 . S
Zn337 O338 1.962 . S
Zn337 O340 1.986 . S
Zn337 O342 1.996 . S
Zn337 O345 1.943 . S
O338 Zn337 1.962 . S
O338 C343 1.254 . S
O339 Zn336 2.031 . S
O339 C343 1.269 . S
O340 Zn337 1.986 . S
O340 C347 1.262 . S
O341 Zn336 2.049 . S
O341 C349 1.260 . S
O342 Zn337 1.996 . S
O342 C349 1.257 . S
C343 O338 1.254 . S
C343 O339 1.269 . S
C344 O345 1.249 . S
C344 O346 1.270 . S
O345 Zn337 1.943 . S
O345 C344 1.249 . S
O346 Zn336 2.067 . S
O346 C344 1.270 . S
C347 O340 1.262 . S
C347 O348 1.232 . S
O348 C347 1.232 . S
C349 O341 1.260 . S
C349 O342 1.257 . S
Zn350 O353 2.031 . S
Zn350 O355 2.049 . S
Zn350 O360 2.067 . S
Zn351 O352 1.962 . S
Zn351 O354 1.986 . S
Zn351 O356 1.996 . S
Zn351 O359 1.943 . S
O352 Zn351 1.962 . S
O352 C357 1.254 . S
O353 Zn350 2.031 . S
O353 C357 1.269 . S
O354 Zn351 1.986 . S
O354 C361 1.262 . S
O355 Zn350 2.049 . S
O355 C363 1.260 . S
O356 Zn351 1.996 . S
O356 C363 1.257 . S
C357 O352 1.254 . S
C357 O353 1.269 . S
C358 O359 1.249 . S
C358 O360 1.270 . S
O359 Zn351 1.943 . S
O359 C358 1.249 . S
O360 Zn350 2.067 . S
O360 C358 1.270 . S
C361 O354 1.262 . S
C361 O362 1.232 . S
O362 C361 1.232 . S
C363 O355 1.260 . S
C363 O356 1.257 . S
Zn364 O367 2.031 . S
Zn364 O369 2.049 . S
Zn364 O374 2.067 . S
Zn365 O366 1.962 . S
Zn365 O368 1.986 . S
Zn365 O370 1.996 . S
Zn365 O373 1.943 . S
O366 Zn365 1.962 . S
O366 C371 1.254 . S
O367 Zn364 2.031 . S
O367 C371 1.269 . S
O368 Zn365 1.986 . S
O368 C375 1.262 . S
O369 Zn364 2.049 . S
O369 C377 1.260 . S
O370 Zn365 1.996 . S
O370 C377 1.257 . S
C371 O366 1.254 . S
C371 O367 1.269 . S
C372 O373 1.249 . S
C372 O374 1.270 . S
O373 Zn365 1.943 . S
O373 C372 1.249 . S
O374 Zn364 2.067 . S
O374 C372 1.270 . S
C375 O368 1.262 . S
C375 O376 1.232 . S
O376 C375 1.232 . S
C377 O369 1.260 . S
C377 O370 1.257 . S
Zn378 O381 2.031 . S
Zn378 O383 2.049 . S
Zn378 O388 2.067 . S
Zn379 O380 1.962 . S
Zn379 O382 1.986 . S
Zn379 O384 1.996 . S
Zn379 O387 1.943 . S
O380 Zn379 1.962 . S
O380 C385 1.254 . S
O381 Zn378 2.031 . S
O381 C385 1.269 . S
O382 Zn379 1.986 . S
O382 C389 1.262 . S
O383 Zn378 2.049 . S
O383 C391 1.260 . S
O384 Zn379 1.996 . S
O384 C391 1.257 . S
C385 O380 1.254 . S
C385 O381 1.269 . S
C386 O387 1.249 . S
C386 O388 1.270 . S
O387 Zn379 1.943 . S
O387 C386 1.249 . S
O388 Zn378 2.067 . S
O388 C386 1.270 . S
C389 O382 1.262 . S
C389 O390 1.232 . S
O390 C389 1.232 . S
C391 O383 1.260 . S
C391 O384 1.257 . S
Zn392 O395 2.031 . S
Zn392 O397 2.049 . S
Zn392 O402 2.067 . S
Zn393 O394 1.962 . S
Zn393 O396 1.986 . S
Zn393 O398 1.996 . S
Zn393 O401 1.943 . S
O394 Zn393 1.962 . S
O394 C399 1.254 . S
O395 Zn392 2.031 . S
O395 C399 1.269 . S
O396 Zn393 1.986 . S
O396 C403 1.262 . S
O397 Zn392 2.049 . S
O397 C405 1.260 . S
O398 Zn393 1.996 . S
O398 C405 1.257 . S
C399 O394 1.254 . S
C399 O395 1.269 . S
C400 O401 1.249 . S
C400 O402 1.270 . S
O401 Zn393 1.943 . S
O401 C400 1.249 . S
O402 Zn392 2.067 . S
O402 C400 1.270 . S
C403 O396 1.262 . S
C403 O404 1.232 . S
O404 C403 1.232 . S
C405 O397 1.260 . S
C405 O398 1.257 . S
Zn406 O409 2.031 . S
Zn406 O411 2.049 . S
Zn406 O416 2.067 . S
Zn407 O408 1.962 . S
Zn407 O410 1.986 . S
Zn407 O412 1.996 . S
Zn407 O415 1.943 . S
O408 Zn407 1.962 . S
O408 C413 1.254 . S
O409 Zn406 2.031 . S
O409 C413 1.269 . S
O410 Zn407 1.986 . S
O410 C417 1.262 . S
O411 Zn406 2.049 . S
O411 C419 1.260 . S
O412 Zn407 1.996 . S
O412 C419 1.257 . S
C413 O408 1.254 . S
C413 O409 1.269 . S
C414 O415 1.249 . S
C414 O416 1.270 . S
O415 Zn407 1.943 . S
O415 C414 1.249 . S
O416 Zn406 2.067 . S
O416 C414 1.270 . S
C417 O410 1.262 . S
C417 O418 1.232 . S
O418 C417 1.232 . S
C419 O411 1.260 . S
C419 O412 1.257 . S
Zn420 O423 2.031 . S
Zn420 O425 2.049 . S
Zn420 O430 2.067 . S
Zn421 O422 1.962 . S
Zn421 O424 1.986 . S
Zn421 O426 1.996 . S
Zn421 O429 1.943 . S
O422 Zn421 1.962 . S
O422 C427 1.254 . S
O423 Zn420 2.031 . S
O423 C427 1.269 . S
O424 Zn421 1.986 . S
O424 C431 1.262 . S
O425 Zn420 2.049 . S
O425 C433 1.260 . S
O426 Zn421 1.996 . S
O426 C433 1.257 . S
C427 O422 1.254 . S
C427 O423 1.269 . S
C428 O429 1.249 . S
C428 O430 1.270 . S
O429 Zn421 1.943 . S
O429 C428 1.249 . S
O430 Zn420 2.067 . S
O430 C428 1.270 . S
C431 O424 1.262 . S
C431 O432 1.232 . S
O432 C431 1.232 . S
C433 O425 1.260 . S
C433 O426 1.257 . S
Zn434 O437 2.031 . S
Zn434 O439 2.049 . S
Zn434 O444 2.067 . S
Zn435 O436 1.962 . S
Zn435 O438 1.986 . S
Zn435 O440 1.996 . S
Zn435 O443 1.943 . S
O436 Zn435 1.962 . S
O436 C441 1.254 . S
O437 Zn434 2.031 . S
O437 C441 1.269 . S
O438 Zn435 1.986 . S
O438 C445 1.262 . S
O439 Zn434 2.049 . S
O439 C447 1.260 . S
O440 Zn435 1.996 . S
O440 C447 1.257 . S
C441 O436 1.254 . S
C441 O437 1.269 . S
C442 O443 1.249 . S
C442 O444 1.270 . S
O443 Zn435 1.943 . S
O443 C442 1.249 . S
O444 Zn434 2.067 . S
O444 C442 1.270 . S
C445 O438 1.262 . S
C445 O446 1.232 . S
O446 C445 1.232 . S
C447 O439 1.260 . S
C447 O440 1.257 . S
C448 C449 1.349 . S
C448 C450 1.327 . S
C448 H473 0.950 . S
C449 C448 1.349 . S
C449 C465 1.349 . S
C450 C448 1.327 . S
C450 C469 1.429 . S
C450 H474 0.950 . S
C451 C468 1.574 1_556 S
C451 C470 1.368 1_455 S
C451 H475 0.949 . S
H452 C456 0.949 . S
C453 C454 1.349 . S
C453 C455 1.327 . S
C453 H476 0.950 . S
C454 C453 1.349 . S
C454 C466 1.349 . S
C455 C453 1.327 . S
C455 C471 1.429 . S
C455 H477 0.950 . S
C456 H452 0.949 . S
C456 C464 1.574 1_554 S
C456 C472 1.368 1_655 S
H457 C465 0.950 . S
H458 C463 0.950 . S
H459 C464 0.949 . S
H460 C466 0.950 . S
H461 C467 0.950 . S
H462 C468 0.949 . S
C463 H458 0.950 . S
C463 C465 1.327 . S
C463 C469 1.429 . S
C464 C456 1.574 1_556 S
C464 H459 0.949 . S
C464 C470 1.368 . S
C465 C449 1.349 . S
C465 H457 0.950 . S
C465 C463 1.327 . S
C466 C454 1.349 . S
C466 H460 0.950 . S
C466 C467 1.327 . S
C467 H461 0.950 . S
C467 C466 1.327 . S
C467 C471 1.429 . S
C468 C451 1.574 1_554 S
C468 H462 0.949 . S
C468 C472 1.368 . S
C469 C450 1.429 . S
C469 C463 1.429 . S
C469 C470 1.523 . S
C470 C451 1.368 1_655 S
C470 C464 1.368 . S
C470 C469 1.523 . S
C471 C455 1.429 . S
C471 C467 1.429 . S
C471 C472 1.523 . S
C472 C456 1.368 1_455 S
C472 C468 1.368 . S
C472 C471 1.523 . S
H473 C448 0.950 . S
H474 C450 0.950 . S
H475 C451 0.949 . S
H476 C453 0.950 . S
H477 C455 0.950 . S
C478 C479 1.349 . S
C478 C480 1.327 . S
C478 H503 0.950 . S
C479 C478 1.349 . S
C479 C495 1.349 . S
C480 C478 1.327 . S
C480 C499 1.429 . S
C480 H504 0.950 . S
C481 C498 1.574 . S
C481 C500 1.368 . S
C481 H505 0.949 . S
H482 C486 0.949 . S
C483 C484 1.349 . S
C483 C485 1.327 . S
C483 H506 0.950 . S
C484 C483 1.349 . S
C484 C496 1.349 . S
C485 C483 1.327 . S
C485 C501 1.429 . S
C485 H507 0.950 . S
C486 H482 0.949 . S
C486 C494 1.574 . S
C486 C502 1.368 . S
H487 C495 0.950 . S
H488 C493 0.950 . S
H489 C494 0.949 . S
H490 C496 0.950 . S
H491 C497 0.950 . S
H492 C498 0.949 . S
C493 H488 0.950 . S
C493 C495 1.327 . S
C493 C499 1.429 . S
C494 C486 1.574 . S
C494 H489 0.949 . S
C494 C500 1.368 . S
C495 C479 1.349 . S
C495 H487 0.950 . S
C495 C493 1.327 . S
C496 C484 1.349 . S
C496 H490 0.950 . S
C496 C497 1.327 . S
C497 H491 0.950 . S
C497 C496 1.327 . S
C497 C501 1.429 . S
C498 C481 1.574 . S
C498 H492 0.949 . S
C498 C502 1.368 . S
C499 C480 1.429 . S
C499 C493 1.429 . S
C499 C500 1.523 . S
C500 C481 1.368 . S
C500 C494 1.368 . S
C500 C499 1.523 . S
C501 C485 1.429 . S
C501 C497 1.429 . S
C501 C502 1.523 . S
C502 C486 1.368 . S
C502 C498 1.368 . S
C502 C501 1.523 . S
H503 C478 0.950 . S
H504 C480 0.950 . S
H505 C481 0.949 . S
H506 C483 0.950 . S
H507 C485 0.950 . S
C508 C509 1.349 . S
C508 C510 1.327 . S
C508 H533 0.950 . S
C509 C508 1.349 . S
C509 C525 1.349 . S
C510 C508 1.327 . S
C510 C529 1.429 . S
C510 H534 0.950 . S
C511 C528 1.574 . S
C511 C530 1.368 . S
C511 H535 0.949 . S
H512 C516 0.949 . S
C513 C514 1.349 . S
C513 C515 1.327 . S
C513 H536 0.950 . S
C514 C513 1.349 . S
C514 C526 1.349 . S
C515 C513 1.327 . S
C515 C531 1.429 . S
C515 H537 0.950 . S
C516 H512 0.949 . S
C516 C524 1.574 . S
C516 C532 1.368 . S
H517 C525 0.950 . S
H518 C523 0.950 . S
H519 C524 0.949 . S
H520 C526 0.950 . S
H521 C527 0.950 . S
H522 C528 0.949 . S
C523 H518 0.950 . S
C523 C525 1.327 . S
C523 C529 1.429 . S
C524 C516 1.574 . S
C524 H519 0.949 . S
C524 C530 1.368 . S
C525 C509 1.349 . S
C525 H517 0.950 . S
C525 C523 1.327 . S
C526 C514 1.349 . S
C526 H520 0.950 . S
C526 C527 1.327 . S
C527 H521 0.950 . S
C527 C526 1.327 . S
C527 C531 1.429 . S
C528 C511 1.574 . S
C528 H522 0.949 . S
C528 C532 1.368 . S
C529 C510 1.429 . S
C529 C523 1.429 . S
C529 C530 1.523 . S
C530 C511 1.368 . S
C530 C524 1.368 . S
C530 C529 1.523 . S
C531 C515 1.429 . S
C531 C527 1.429 . S
C531 C532 1.523 . S
C532 C516 1.368 . S
C532 C528 1.368 . S
C532 C531 1.523 . S
H533 C508 0.950 . S
H534 C510 0.950 . S
H535 C511 0.949 . S
H536 C513 0.950 . S
H537 C515 0.950 . S
C538 C539 1.349 . S
C538 C540 1.327 . S
C538 H563 0.950 . S
C539 C538 1.349 . S
C539 C555 1.349 . S
C540 C538 1.327 . S
C540 C559 1.429 . S
C540 H564 0.950 . S
C541 C558 1.574 . S
C541 C560 1.368 . S
C541 H565 0.949 . S
H542 C546 0.949 . S
C543 C544 1.349 . S
C543 C545 1.327 . S
C543 H566 0.950 . S
C544 C543 1.349 . S
C544 C556 1.349 . S
C545 C543 1.327 . S
C545 C561 1.429 . S
C545 H567 0.950 . S
C546 H542 0.949 . S
C546 C554 1.574 . S
C546 C562 1.368 . S
H547 C555 0.950 . S
H548 C553 0.950 . S
H549 C554 0.949 . S
H550 C556 0.950 . S
H551 C557 0.950 . S
H552 C558 0.949 . S
C553 H548 0.950 . S
C553 C555 1.327 . S
C553 C559 1.429 . S
C554 C546 1.574 . S
C554 H549 0.949 . S
C554 C560 1.368 . S
C555 C539 1.349 . S
C555 H547 0.950 . S
C555 C553 1.327 . S
C556 C544 1.349 . S
C556 H550 0.950 . S
C556 C557 1.327 . S
C557 H551 0.950 . S
C557 C556 1.327 . S
C557 C561 1.429 . S
C558 C541 1.574 . S
C558 H552 0.949 . S
C558 C562 1.368 . S
C559 C540 1.429 . S
C559 C553 1.429 . S
C559 C560 1.523 . S
C560 C541 1.368 . S
C560 C554 1.368 . S
C560 C559 1.523 . S
C561 C545 1.429 . S
C561 C557 1.429 . S
C561 C562 1.523 . S
C562 C546 1.368 . S
C562 C558 1.368 . S
C562 C561 1.523 . S
H563 C538 0.950 . S
H564 C540 0.950 . S
H565 C541 0.949 . S
H566 C543 0.950 . S
H567 C545 0.950 . S
C568 C569 1.349 . S
C568 C570 1.327 . S
C568 H593 0.950 . S
C569 C568 1.349 . S
C569 C585 1.349 . S
C570 C568 1.327 . S
C570 C589 1.429 . S
C570 H594 0.950 . S
C571 C588 1.574 1_655 S
C571 C590 1.368 . S
C571 H595 0.949 . S
H572 C576 0.949 . S
C573 C574 1.349 . S
C573 C575 1.327 . S
C573 H596 0.950 . S
C574 C573 1.349 . S
C574 C586 1.349 . S
C575 C573 1.327 . S
C575 C591 1.429 . S
C575 H597 0.950 . S
C576 H572 0.949 . S
C576 C584 1.574 1_455 S
C576 C592 1.368 . S
H577 C585 0.950 . S
H578 C583 0.950 . S
H579 C584 0.949 . S
H580 C586 0.950 . S
H581 C587 0.950 . S
H582 C588 0.949 . S
C583 H578 0.950 . S
C583 C585 1.327 . S
C583 C589 1.429 . S
C584 C576 1.574 1_655 S
C584 H579 0.949 . S
C584 C590 1.368 . S
C585 C569 1.349 . S
C585 H577 0.950 . S
C585 C583 1.327 . S
C586 C574 1.349 . S
C586 H580 0.950 . S
C586 C587 1.327 . S
C587 H581 0.950 . S
C587 C586 1.327 . S
C587 C591 1.429 . S
C588 C571 1.574 1_455 S
C588 H582 0.949 . S
C588 C592 1.368 . S
C589 C570 1.429 . S
C589 C583 1.429 . S
C589 C590 1.523 . S
C590 C571 1.368 . S
C590 C584 1.368 . S
C590 C589 1.523 . S
C591 C575 1.429 . S
C591 C587 1.429 . S
C591 C592 1.523 . S
C592 C576 1.368 . S
C592 C588 1.368 . S
C592 C591 1.523 . S
H593 C568 0.950 . S
H594 C570 0.950 . S
H595 C571 0.949 . S
H596 C573 0.950 . S
H597 C575 0.950 . S
C598 C599 1.349 . S
C598 C600 1.327 . S
C598 H623 0.950 . S
C599 C598 1.349 . S
C599 C615 1.349 . S
C600 C598 1.327 . S
C600 C619 1.429 . S
C600 H624 0.950 . S
C601 C618 1.574 . S
C601 C620 1.368 . S
C601 H625 0.949 . S
H602 C606 0.949 . S
C603 C604 1.349 . S
C603 C605 1.327 . S
C603 H626 0.950 . S
C604 C603 1.349 . S
C604 C616 1.349 . S
C605 C603 1.327 . S
C605 C621 1.429 . S
C605 H627 0.950 . S
C606 H602 0.949 . S
C606 C614 1.574 . S
C606 C622 1.368 . S
H607 C615 0.950 . S
H608 C613 0.950 . S
H609 C614 0.949 . S
H610 C616 0.950 . S
H611 C617 0.950 . S
H612 C618 0.949 . S
C613 H608 0.950 . S
C613 C615 1.327 . S
C613 C619 1.429 . S
C614 C606 1.574 . S
C614 H609 0.949 . S
C614 C620 1.368 . S
C615 C599 1.349 . S
C615 H607 0.950 . S
C615 C613 1.327 . S
C616 C604 1.349 . S
C616 H610 0.950 . S
C616 C617 1.327 . S
C617 H611 0.950 . S
C617 C616 1.327 . S
C617 C621 1.429 . S
C618 C601 1.574 . S
C618 H612 0.949 . S
C618 C622 1.368 . S
C619 C600 1.429 . S
C619 C613 1.429 . S
C619 C620 1.523 . S
C620 C601 1.368 . S
C620 C614 1.368 . S
C620 C619 1.523 . S
C621 C605 1.429 . S
C621 C617 1.429 . S
C621 C622 1.523 . S
C622 C606 1.368 . S
C622 C618 1.368 . S
C622 C621 1.523 . S
H623 C598 0.950 . S
H624 C600 0.950 . S
H625 C601 0.949 . S
H626 C603 0.950 . S
H627 C605 0.950 . S
C628 C629 1.349 . S
C628 C630 1.327 . S
C628 H653 0.950 . S
C629 C628 1.349 . S
C629 C645 1.349 . S
C630 C628 1.327 . S
C630 C649 1.429 . S
C630 H654 0.950 . S
C631 C648 1.601 . S
C631 C650 1.341 1_554 S
C631 H655 0.949 . S
H632 C636 0.949 . S
C633 C634 1.349 . S
C633 C635 1.327 . S
C633 H656 0.950 . S
C634 C633 1.349 . S
C634 C646 1.349 . S
C635 C633 1.327 . S
C635 C651 1.429 . S
C635 H657 0.950 . S
C636 H632 0.949 . S
C636 C644 1.601 . S
C636 C652 1.341 1_556 S
H637 C645 0.950 . S
H638 C643 0.950 . S
H639 C644 0.949 . S
H640 C646 0.950 . S
H641 C647 0.950 . S
H642 C648 0.949 . S
C643 H638 0.950 . S
C643 C645 1.327 . S
C643 C649 1.429 . S
C644 C636 1.601 . S
C644 H639 0.949 . S
C644 C650 1.368 . S
C645 C629 1.349 . S
C645 H637 0.950 . S
C645 C643 1.327 . S
C646 C634 1.349 . S
C646 H640 0.950 . S
C646 C647 1.327 . S
C647 H641 0.950 . S
C647 C646 1.327 . S
C647 C651 1.429 . S
C648 C631 1.601 . S
C648 H642 0.949 . S
C648 C652 1.368 . S
C649 C630 1.429 . S
C649 C643 1.429 . S
C649 C650 1.523 . S
C650 C631 1.341 1_556 S
C650 C644 1.368 . S
C650 C649 1.523 . S
C651 C635 1.429 . S
C651 C647 1.429 . S
C651 C652 1.523 . S
C652 C636 1.341 1_554 S
C652 C648 1.368 . S
C652 C651 1.523 . S
H653 C628 0.950 . S
H654 C630 0.950 . S
H655 C631 0.949 . S
H656 C633 0.950 . S
H657 C635 0.950 . S
C658 C659 1.349 . S
C658 C660 1.327 . S
C658 H683 0.950 . S
C659 C658 1.349 . S
C659 C675 1.349 . S
C660 C658 1.327 . S
C660 C679 1.429 . S
C660 H684 0.950 . S
C661 C678 1.574 . S
C661 C680 1.368 . S
C661 H685 0.949 . S
H662 C666 0.949 . S
C663 C664 1.349 . S
C663 C665 1.327 . S
C663 H686 0.950 . S
C664 C663 1.349 . S
C664 C676 1.349 . S
C665 C663 1.327 . S
C665 C681 1.429 . S
C665 H687 0.950 . S
C666 H662 0.949 . S
C666 C674 1.574 . S
C666 C682 1.368 . S
H667 C675 0.950 . S
H668 C673 0.950 . S
H669 C674 0.949 . S
H670 C676 0.950 . S
H671 C677 0.950 . S
H672 C678 0.949 . S
C673 H668 0.950 . S
C673 C675 1.327 . S
C673 C679 1.429 . S
C674 C666 1.574 . S
C674 H669 0.949 . S
C674 C680 1.368 . S
C675 C659 1.349 . S
C675 H667 0.950 . S
C675 C673 1.327 . S
C676 C664 1.349 . S
C676 H670 0.950 . S
C676 C677 1.327 . S
C677 H671 0.950 . S
C677 C676 1.327 . S
C677 C681 1.429 . S
C678 C661 1.574 . S
C678 H672 0.949 . S
C678 C682 1.368 . S
C679 C660 1.429 . S
C679 C673 1.429 . S
C679 C680 1.523 . S
C680 C661 1.368 . S
C680 C674 1.368 . S
C680 C679 1.523 . S
C681 C665 1.429 . S
C681 C677 1.429 . S
C681 C682 1.523 . S
C682 C666 1.368 . S
C682 C678 1.368 . S
C682 C681 1.523 . S
H683 C658 0.950 . S
H684 C660 0.950 . S
H685 C661 0.949 . S
H686 C663 0.950 . S
H687 C665 0.950 . S
C688 C689 1.349 . S
C688 C690 1.327 . S
C688 H713 0.950 . S
C689 C688 1.349 . S
C689 C705 1.349 . S
C690 C688 1.327 . S
C690 C709 1.429 . S
C690 H714 0.950 . S
C691 C708 1.574 . S
C691 C710 1.368 . S
C691 H715 0.949 . S
H692 C696 0.949 . S
C693 C694 1.349 . S
C693 C695 1.327 . S
C693 H716 0.950 . S
C694 C693 1.349 . S
C694 C706 1.349 . S
C695 C693 1.327 . S
C695 C711 1.429 . S
C695 H717 0.950 . S
C696 H692 0.949 . S
C696 C704 1.574 . S
C696 C712 1.368 . S
H697 C705 0.950 . S
H698 C703 0.950 . S
H699 C704 0.949 . S
H700 C706 0.950 . S
H701 C707 0.950 . S
H702 C708 0.949 . S
C703 H698 0.950 . S
C703 C705 1.327 . S
C703 C709 1.429 . S
C704 C696 1.574 . S
C704 H699 0.949 . S
C704 C710 1.368 . S
C705 C689 1.349 . S
C705 H697 0.950 . S
C705 C703 1.327 . S
C706 C694 1.349 . S
C706 H700 0.950 . S
C706 C707 1.327 . S
C707 H701 0.950 . S
C707 C706 1.327 . S
C707 C711 1.429 . S
C708 C691 1.574 . S
C708 H702 0.949 . S
C708 C712 1.368 . S
C709 C690 1.429 . S
C709 C703 1.429 . S
C709 C710 1.523 . S
C710 C691 1.368 . S
C710 C704 1.368 . S
C710 C709 1.523 . S
C711 C695 1.429 . S
C711 C707 1.429 . S
C711 C712 1.523 . S
C712 C696 1.368 . S
C712 C708 1.368 . S
C712 C711 1.523 . S
H713 C688 0.950 . S
H714 C690 0.950 . S
H715 C691 0.949 . S
H716 C693 0.950 . S
H717 C695 0.950 . S
C718 C719 1.349 . S
C718 C720 1.327 . S
C718 H743 0.950 . S
C719 C718 1.349 . S
C719 C735 1.349 . S
C720 C718 1.327 . S
C720 C739 1.429 . S
C720 H744 0.950 . S
C721 C738 1.574 . S
C721 C740 1.368 . S
C721 H745 0.949 . S
H722 C726 0.949 . S
C723 C724 1.349 . S
C723 C725 1.327 . S
C723 H746 0.950 . S
C724 C723 1.349 . S
C724 C736 1.349 . S
C725 C723 1.327 . S
C725 C741 1.429 . S
C725 H747 0.950 . S
C726 H722 0.949 . S
C726 C734 1.574 . S
C726 C742 1.368 . S
H727 C735 0.950 . S
H728 C733 0.950 . S
H729 C734 0.949 . S
H730 C736 0.950 . S
H731 C737 0.950 . S
H732 C738 0.949 . S
C733 H728 0.950 . S
C733 C735 1.327 . S
C733 C739 1.429 . S
C734 C726 1.574 . S
C734 H729 0.949 . S
C734 C740 1.368 . S
C735 C719 1.349 . S
C735 H727 0.950 . S
C735 C733 1.327 . S
C736 C724 1.349 . S
C736 H730 0.950 . S
C736 C737 1.327 . S
C737 H731 0.950 . S
C737 C736 1.327 . S
C737 C741 1.429 . S
C738 C721 1.574 . S
C738 H732 0.949 . S
C738 C742 1.368 . S
C739 C720 1.429 . S
C739 C733 1.429 . S
C739 C740 1.523 . S
C740 C721 1.368 . S
C740 C734 1.368 . S
C740 C739 1.523 . S
C741 C725 1.429 . S
C741 C737 1.429 . S
C741 C742 1.523 . S
C742 C726 1.368 . S
C742 C738 1.368 . S
C742 C741 1.523 . S
H743 C718 0.950 . S
H744 C720 0.950 . S
H745 C721 0.949 . S
H746 C723 0.950 . S
H747 C725 0.950 . S
C748 C749 1.349 . S
C748 C750 1.327 . S
C748 H773 0.950 . S
C749 C748 1.349 . S
C749 C765 1.349 . S
C750 C748 1.327 . S
C750 C769 1.429 . S
C750 H774 0.950 . S
C751 C768 1.574 . S
C751 C770 1.368 . S
C751 H775 0.949 . S
H752 C756 0.949 . S
C753 C754 1.349 . S
C753 C755 1.327 . S
C753 H776 0.950 . S
C754 C753 1.349 . S
C754 C766 1.349 . S
C755 C753 1.327 . S
C755 C771 1.429 . S
C755 H777 0.950 . S
C756 H752 0.949 . S
C756 C764 1.574 . S
C756 C772 1.368 . S
H757 C765 0.950 . S
H758 C763 0.950 . S
H759 C764 0.949 . S
H760 C766 0.950 . S
H761 C767 0.950 . S
H762 C768 0.949 . S
C763 H758 0.950 . S
C763 C765 1.327 . S
C763 C769 1.429 . S
C764 C756 1.574 . S
C764 H759 0.949 . S
C764 C770 1.368 . S
C765 C749 1.349 . S
C765 H757 0.950 . S
C765 C763 1.327 . S
C766 C754 1.349 . S
C766 H760 0.950 . S
C766 C767 1.327 . S
C767 H761 0.950 . S
C767 C766 1.327 . S
C767 C771 1.429 . S
C768 C751 1.574 . S
C768 H762 0.949 . S
C768 C772 1.368 . S
C769 C750 1.429 . S
C769 C763 1.429 . S
C769 C770 1.523 . S
C770 C751 1.368 . S
C770 C764 1.368 . S
C770 C769 1.523 . S
C771 C755 1.429 . S
C771 C767 1.429 . S
C771 C772 1.523 . S
C772 C756 1.368 . S
C772 C768 1.368 . S
C772 C771 1.523 . S
H773 C748 0.950 . S
H774 C750 0.950 . S
H775 C751 0.949 . S
H776 C753 0.950 . S
H777 C755 0.950 . S
C778 C779 1.349 . S
C778 C780 1.327 . S
C778 H803 0.950 . S
C779 C778 1.349 . S
C779 C795 1.349 . S
C780 C778 1.327 . S
C780 C799 1.429 . S
C780 H804 0.950 . S
C781 C798 1.574 . S
C781 C800 1.368 . S
C781 H805 0.949 . S
H782 C786 0.949 . S
C783 C784 1.349 . S
C783 C785 1.327 . S
C783 H806 0.950 . S
C784 C783 1.349 . S
C784 C796 1.349 . S
C785 C783 1.327 . S
C785 C801 1.429 . S
C785 H807 0.950 . S
C786 H782 0.949 . S
C786 C794 1.574 . S
C786 C802 1.368 . S
H787 C795 0.950 . S
H788 C793 0.950 . S
H789 C794 0.949 . S
H790 C796 0.950 . S
H791 C797 0.950 . S
H792 C798 0.949 . S
C793 H788 0.950 . S
C793 C795 1.327 . S
C793 C799 1.429 . S
C794 C786 1.574 . S
C794 H789 0.949 . S
C794 C800 1.368 . S
C795 C779 1.349 . S
C795 H787 0.950 . S
C795 C793 1.327 . S
C796 C784 1.349 . S
C796 H790 0.950 . S
C796 C797 1.327 . S
C797 H791 0.950 . S
C797 C796 1.327 . S
C797 C801 1.429 . S
C798 C781 1.574 . S
C798 H792 0.949 . S
C798 C802 1.368 . S
C799 C780 1.429 . S
C799 C793 1.429 . S
C799 C800 1.523 . S
C800 C781 1.368 . S
C800 C794 1.368 . S
C800 C799 1.523 . S
C801 C785 1.429 . S
C801 C797 1.429 . S
C801 C802 1.523 . S
C802 C786 1.368 . S
C802 C798 1.368 . S
C802 C801 1.523 . S
H803 C778 0.950 . S
H804 C780 0.950 . S
H805 C781 0.949 . S
H806 C783 0.950 . S
H807 C785 0.950 . S
C808 C809 1.349 . S
C808 C810 1.327 . S
C808 H833 0.950 . S
C809 C808 1.349 . S
C809 C825 1.349 . S
C810 C808 1.327 . S
C810 C829 1.429 . S
C810 H834 0.950 . S
C811 C828 1.574 . S
C811 C830 1.368 1_545 S
C811 H835 0.949 . S
H812 C816 0.949 . S
C813 C814 1.349 . S
C813 C815 1.327 . S
C813 H836 0.950 . S
C814 C813 1.349 . S
C814 C826 1.349 . S
C815 C813 1.327 . S
C815 C831 1.429 . S
C815 H837 0.950 . S
C816 H812 0.949 . S
C816 C824 1.574 . S
C816 C832 1.368 1_565 S
H817 C825 0.950 . S
H818 C823 0.950 . S
H819 C824 0.949 . S
H820 C826 0.950 . S
H821 C827 0.950 . S
H822 C828 0.949 . S
C823 H818 0.950 . S
C823 C825 1.327 . S
C823 C829 1.429 . S
C824 C816 1.574 . S
C824 H819 0.949 . S
C824 C830 1.368 . S
C825 C809 1.349 . S
C825 H817 0.950 . S
C825 C823 1.327 . S
C826 C814 1.349 . S
C826 H820 0.950 . S
C826 C827 1.327 . S
C827 H821 0.950 . S
C827 C826 1.327 . S
C827 C831 1.429 . S
C828 C811 1.574 . S
C828 H822 0.949 . S
C828 C832 1.368 . S
C829 C810 1.429 . S
C829 C823 1.429 . S
C829 C830 1.523 . S
C830 C811 1.368 1_565 S
C830 C824 1.368 . S
C830 C829 1.523 . S
C831 C815 1.429 . S
C831 C827 1.429 . S
C831 C832 1.523 . S
C832 C816 1.368 1_545 S
C832 C828 1.368 . S
C832 C831 1.523 . S
H833 C808 0.950 . S
H834 C810 0.950 . S
H835 C811 0.949 . S
H836 C813 0.950 . S
H837 C815 0.950 . S
C838 C839 1.349 . S
C838 C840 1.327 . S
C838 H863 0.950 . S
C839 C838 1.349 . S
C839 C855 1.349 . S
C840 C838 1.327 . S
C840 C859 1.429 . S
C840 H864 0.950 . S
C841 C858 1.592 1_455 S
C841 C860 1.368 1_554 S
C841 H865 0.949 . S
H842 C846 0.949 . S
C843 C844 1.349 . S
C843 C845 1.327 . S
C843 H866 0.950 . S
C844 C843 1.349 . S
C844 C856 1.349 . S
C845 C843 1.327 . S
C845 C861 1.429 . S
C845 H867 0.950 . S
C846 H842 0.949 . S
C846 C854 1.592 1_655 S
C846 C862 1.368 1_556 S
H847 C855 0.950 . S
H848 C853 0.950 1_554 S
H849 C854 0.949 . S
H850 C856 0.950 . S
H851 C857 0.950 1_556 S
H852 C858 0.949 . S
C853 H848 0.950 1_556 S
C853 C855 1.327 . S
C853 C859 1.429 . S
C854 C846 1.592 1_455 S
C854 H849 0.949 . S
C854 C860 1.350 1_545 S
C855 C839 1.349 . S
C855 H847 0.950 . S
C855 C853 1.327 . S
C856 C844 1.349 . S
C856 H850 0.950 . S
C856 C857 1.327 . S
C857 H851 0.950 1_554 S
C857 C856 1.327 . S
C857 C861 1.429 . S
C858 C841 1.592 1_655 S
C858 H852 0.949 . S
C858 C862 1.350 1_565 S
C859 C840 1.429 . S
C859 C853 1.429 . S
C859 C860 1.523 . S
C860 C841 1.368 1_556 S
C860 C854 1.350 1_565 S
C860 C859 1.523 . S
C861 C845 1.429 . S
C861 C857 1.429 . S
C861 C862 1.523 . S
C862 C846 1.368 1_554 S
C862 C858 1.350 1_545 S
C862 C861 1.523 . S
H863 C838 0.950 . S
H864 C840 0.950 . S
H865 C841 0.949 . S
H866 C843 0.950 . S
H867 C845 0.950 . S
C868 C869 1.349 . S
C868 C870 1.327 . S
C868 H893 0.950 . S
C869 C868 1.349 . S
C869 C885 1.349 . S
C870 C868 1.327 . S
C870 C889 1.429 . S
C870 H894 0.950 . S
C871 C888 1.574 . S
C871 C890 1.368 1_565 S
C871 H895 0.949 . S
H872 C876 0.949 . S
C873 C874 1.349 . S
C873 C875 1.327 . S
C873 H896 0.950 . S
C874 C873 1.349 . S
C874 C886 1.349 . S
C875 C873 1.327 . S
C875 C891 1.429 . S
C875 H897 0.950 . S
C876 H872 0.949 . S
C876 C884 1.574 . S
C876 C892 1.368 1_545 S
H877 C885 0.950 . S
H878 C883 0.950 . S
H879 C884 0.949 . S
H880 C886 0.950 . S
H881 C887 0.950 . S
H882 C888 0.949 . S
C883 H878 0.950 . S
C883 C885 1.327 . S
C883 C889 1.429 . S
C884 C876 1.574 . S
C884 H879 0.949 . S
C884 C890 1.368 1_554 S
C885 C869 1.349 . S
C885 H877 0.950 . S
C885 C883 1.327 . S
C886 C874 1.349 . S
C886 H880 0.950 . S
C886 C887 1.327 . S
C887 H881 0.950 . S
C887 C886 1.327 . S
C887 C891 1.429 . S
C888 C871 1.574 . S
C888 H882 0.949 . S
C888 C892 1.368 1_556 S
C889 C870 1.429 . S
C889 C883 1.429 . S
C889 C890 1.523 . S
C890 C871 1.368 1_545 S
C890 C884 1.368 1_556 S
C890 C889 1.523 . S
C891 C875 1.429 . S
C891 C887 1.429 . S
C891 C892 1.523 . S
C892 C876 1.368 1_565 S
C892 C888 1.368 1_554 S
C892 C891 1.523 . S
H893 C868 0.950 . S
H894 C870 0.950 . S
H895 C871 0.949 . S
H896 C873 0.950 . S
H897 C875 0.950 . S
C898 C899 1.349 . S
C898 C900 1.327 . S
C898 H923 0.950 . S
C899 C898 1.349 . S
C899 C915 1.349 . S
C900 C898 1.327 . S
C900 C919 1.429 . S
C900 H924 0.950 . S
C901 C918 1.574 1_545 S
C901 C920 1.368 . S
C901 H925 0.949 . S
H902 C906 0.949 . S
C903 C904 1.349 . S
C903 C905 1.327 . S
C903 H926 0.950 . S
C904 C903 1.349 . S
C904 C916 1.349 . S
C905 C903 1.327 . S
C905 C921 1.429 . S
C905 H927 0.950 . S
C906 H902 0.949 . S
C906 C914 1.574 1_565 S
C906 C922 1.368 . S
H907 C915 0.950 . S
H908 C913 0.950 . S
H909 C914 0.949 . S
H910 C916 0.950 . S
H911 C917 0.950 . S
H912 C918 0.949 . S
C913 H908 0.950 . S
C913 C915 1.327 . S
C913 C919 1.429 . S
C914 C906 1.574 1_545 S
C914 H909 0.949 . S
C914 C920 1.368 1_655 S
C915 C899 1.349 . S
C915 H907 0.950 . S
C915 C913 1.327 . S
C916 C904 1.349 . S
C916 H910 0.950 . S
C916 C917 1.327 . S
C917 H911 0.950 . S
C917 C916 1.327 . S
C917 C921 1.429 . S
C918 C901 1.574 1_565 S
C918 H912 0.949 . S
C918 C922 1.368 1_455 S
C919 C900 1.429 . S
C919 C913 1.429 . S
C919 C920 1.523 . S
C920 C901 1.368 . S
C920 C914 1.368 1_455 S
C920 C919 1.523 . S
C921 C905 1.429 . S
C921 C917 1.429 . S
C921 C922 1.523 . S
C922 C906 1.368 . S
C922 C918 1.368 1_655 S
C922 C921 1.523 . S
H923 C898 0.950 . S
H924 C900 0.950 . S
H925 C901 0.949 . S
H926 C903 0.950 . S
H927 C905 0.950 . S
C928 C929 1.349 . S
C928 C930 1.327 . S
C928 H953 0.950 . S
C929 C928 1.349 . S
C929 C945 1.349 . S
C930 C928 1.327 . S
C930 C949 1.429 . S
C930 H954 0.950 . S
C931 C948 1.574 . S
C931 C950 1.368 . S
C931 H955 0.949 . S
H932 C936 0.949 . S
C933 C934 1.349 . S
C933 C935 1.327 . S
C933 H956 0.950 . S
C934 C933 1.349 . S
C934 C946 1.349 . S
C935 C933 1.327 . S
C935 C951 1.429 . S
C935 H957 0.950 . S
C936 H932 0.949 . S
C936 C944 1.574 . S
C936 C952 1.368 . S
H937 C945 0.950 . S
H938 C943 0.950 . S
H939 C944 0.949 . S
H940 C946 0.950 . S
H941 C947 0.950 . S
H942 C948 0.949 . S
C943 H938 0.950 . S
C943 C945 1.327 . S
C943 C949 1.429 . S
C944 C936 1.574 . S
C944 H939 0.949 . S
C944 C950 1.368 1_455 S
C945 C929 1.349 . S
C945 H937 0.950 . S
C945 C943 1.327 . S
C946 C934 1.349 . S
C946 H940 0.950 . S
C946 C947 1.327 . S
C947 H941 0.950 . S
C947 C946 1.327 . S
C947 C951 1.429 . S
C948 C931 1.574 . S
C948 H942 0.949 . S
C948 C952 1.368 1_655 S
C949 C930 1.429 . S
C949 C943 1.429 . S
C949 C950 1.523 . S
C950 C931 1.368 . S
C950 C944 1.368 1_655 S
C950 C949 1.523 . S
C951 C935 1.429 . S
C951 C947 1.429 . S
C951 C952 1.523 . S
C952 C936 1.368 . S
C952 C948 1.368 1_455 S
C952 C951 1.523 . S
H953 C928 0.950 . S
H954 C930 0.950 . S
H955 C931 0.949 . S
H956 C933 0.950 . S
H957 C935 0.950 . S
C958 C959 1.349 . S
C958 C960 1.327 . S
C958 H983 0.950 . S
C959 C958 1.349 . S
C959 C975 1.349 . S
C960 C958 1.327 . S
C960 C979 1.429 . S
C960 H984 0.950 . S
C961 C978 1.574 1_455 S
C961 C980 1.368 . S
C961 H985 0.949 . S
H962 C966 0.949 . S
C963 C964 1.349 . S
C963 C965 1.327 . S
C963 H986 0.950 . S
C964 C963 1.349 . S
C964 C976 1.349 . S
C965 C963 1.327 . S
C965 C981 1.429 . S
C965 H987 0.950 . S
C966 H962 0.949 . S
C966 C974 1.574 1_655 S
C966 C982 1.368 . S
H967 C975 0.950 . S
H968 C973 0.950 . S
H969 C974 0.949 . S
H970 C976 0.950 . S
H971 C977 0.950 . S
H972 C978 0.949 . S
C973 H968 0.950 . S
C973 C975 1.327 . S
C973 C979 1.429 . S
C974 C966 1.574 1_455 S
C974 H969 0.949 . S
C974 C980 1.368 . S
C975 C959 1.349 . S
C975 H967 0.950 . S
C975 C973 1.327 . S
C976 C964 1.349 . S
C976 H970 0.950 . S
C976 C977 1.327 . S
C977 H971 0.950 . S
C977 C976 1.327 . S
C977 C981 1.429 . S
C978 C961 1.574 1_655 S
C978 H972 0.949 . S
C978 C982 1.368 . S
C979 C960 1.429 . S
C979 C973 1.429 . S
C979 C980 1.523 . S
C980 C961 1.368 . S
C980 C974 1.368 . S
C980 C979 1.523 . S
C981 C965 1.429 . S
C981 C977 1.429 . S
C981 C982 1.523 . S
C982 C966 1.368 . S
C982 C978 1.368 . S
C982 C981 1.523 . S
H983 C958 0.950 . S
H984 C960 0.950 . S
H985 C961 0.949 . S
H986 C963 0.950 . S
H987 C965 0.950 . S
C988 C989 1.349 . S
C988 C990 1.327 . S
C988 H1013 0.950 . S
C989 C988 1.349 . S
C989 C1005 1.349 . S
C990 C988 1.327 . S
C990 C1009 1.429 . S
C990 H1014 0.950 . S
C991 C1008 1.574 . S
C991 C1010 1.368 . S
C991 H1015 0.949 . S
H992 C996 0.949 . S
C993 C994 1.349 . S
C993 C995 1.327 . S
C993 H1016 0.950 . S
C994 C993 1.349 . S
C994 C1006 1.349 . S
C995 C993 1.327 . S
C995 C1011 1.429 . S
C995 H1017 0.950 . S
C996 H992 0.949 . S
C996 C1004 1.574 . S
C996 C1012 1.368 . S
H997 C1005 0.950 . S
H998 C1003 0.950 . S
H999 C1004 0.949 . S
H1000 C1006 0.950 . S
H1001 C1007 0.950 . S
H1002 C1008 0.949 . S
C1003 H998 0.950 . S
C1003 C1005 1.327 . S
C1003 C1009 1.429 . S
C1004 C996 1.574 . S
C1004 H999 0.949 . S
C1004 C1010 1.368 . S
C1005 C989 1.349 . S
C1005 H997 0.950 . S
C1005 C1003 1.327 . S
C1006 C994 1.349 . S
C1006 H1000 0.950 . S
C1006 C1007 1.327 . S
C1007 H1001 0.950 . S
C1007 C1006 1.327 . S
C1007 C1011 1.429 . S
C1008 C991 1.574 . S
C1008 H1002 0.949 . S
C1008 C1012 1.368 . S
C1009 C990 1.429 . S
C1009 C1003 1.429 . S
C1009 C1010 1.523 . S
C1010 C991 1.368 . S
C1010 C1004 1.368 . S
C1010 C1009 1.523 . S
C1011 C995 1.429 . S
C1011 C1007 1.429 . S
C1011 C1012 1.523 . S
C1012 C996 1.368 . S
C1012 C1008 1.368 . S
C1012 C1011 1.523 . S
H1013 C988 0.950 . S
H1014 C990 0.950 . S
H1015 C991 0.949 . S
H1016 C993 0.950 . S
H1017 C995 0.950 . S
C1018 C1019 1.349 . S
C1018 C1020 1.327 . S
C1018 H1043 0.950 . S
C1019 C1018 1.349 . S
C1019 C1035 1.349 . S
C1020 C1018 1.327 . S
C1020 C1039 1.429 . S
C1020 H1044 0.950 . S
C1021 C1038 1.574 . S
C1021 C1040 1.368 . S
C1021 H1045 0.949 . S
H1022 C1026 0.949 . S
C1023 C1024 1.349 . S
C1023 C1025 1.327 . S
C1023 H1046 0.950 . S
C1024 C1023 1.349 . S
C1024 C1036 1.349 . S
C1025 C1023 1.327 . S
C1025 C1041 1.429 . S
C1025 H1047 0.950 . S
C1026 H1022 0.949 . S
C1026 C1034 1.574 . S
C1026 C1042 1.368 . S
H1027 C1035 0.950 . S
H1028 C1033 0.950 . S
H1029 C1034 0.949 . S
H1030 C1036 0.950 . S
H1031 C1037 0.950 . S
H1032 C1038 0.949 . S
C1033 H1028 0.950 . S
C1033 C1035 1.327 . S
C1033 C1039 1.429 . S
C1034 C1026 1.574 . S
C1034 H1029 0.949 . S
C1034 C1040 1.368 . S
C1035 C1019 1.349 . S
C1035 H1027 0.950 . S
C1035 C1033 1.327 . S
C1036 C1024 1.349 . S
C1036 H1030 0.950 . S
C1036 C1037 1.327 . S
C1037 H1031 0.950 . S
C1037 C1036 1.327 . S
C1037 C1041 1.429 . S
C1038 C1021 1.574 . S
C1038 H1032 0.949 . S
C1038 C1042 1.368 . S
C1039 C1020 1.429 . S
C1039 C1033 1.429 . S
C1039 C1040 1.523 . S
C1040 C1021 1.368 . S
C1040 C1034 1.368 . S
C1040 C1039 1.523 . S
C1041 C1025 1.429 . S
C1041 C1037 1.429 . S
C1041 C1042 1.523 . S
C1042 C1026 1.368 . S
C1042 C1038 1.368 . S
C1042 C1041 1.523 . S
H1043 C1018 0.950 . S
H1044 C1020 0.950 . S
H1045 C1021 0.949 . S
H1046 C1023 0.950 . S
H1047 C1025 0.950 . S
C1048 C1049 1.349 . S
C1048 C1050 1.327 . S
C1048 H1073 0.950 . S
C1049 C1048 1.349 . S
C1049 C1065 1.349 . S
C1050 C1048 1.327 . S
C1050 C1069 1.429 . S
C1050 H1074 0.950 . S
C1051 C1068 1.574 . S
C1051 C1070 1.368 1_455 S
C1051 H1075 0.949 . S
H1052 C1056 0.949 . S
C1053 C1054 1.349 . S
C1053 C1055 1.327 . S
C1053 H1076 0.950 . S
C1054 C1053 1.349 . S
C1054 C1066 1.349 . S
C1055 C1053 1.327 . S
C1055 C1071 1.429 . S
C1055 H1077 0.950 . S
C1056 H1052 0.949 . S
C1056 C1064 1.574 . S
C1056 C1072 1.368 1_655 S
H1057 C1065 0.950 . S
H1058 C1063 0.950 . S
H1059 C1064 0.949 . S
H1060 C1066 0.950 . S
H1061 C1067 0.950 . S
H1062 C1068 0.949 . S
C1063 H1058 0.950 . S
C1063 C1065 1.327 . S
C1063 C1069 1.429 . S
C1064 C1056 1.574 . S
C1064 H1059 0.949 . S
C1064 C1070 1.368 . S
C1065 C1049 1.349 . S
C1065 H1057 0.950 . S
C1065 C1063 1.327 . S
C1066 C1054 1.349 . S
C1066 H1060 0.950 . S
C1066 C1067 1.327 . S
C1067 H1061 0.950 . S
C1067 C1066 1.327 . S
C1067 C1071 1.429 . S
C1068 C1051 1.574 . S
C1068 H1062 0.949 . S
C1068 C1072 1.368 . S
C1069 C1050 1.429 . S
C1069 C1063 1.429 . S
C1069 C1070 1.523 . S
C1070 C1051 1.368 1_655 S
C1070 C1064 1.368 . S
C1070 C1069 1.523 . S
C1071 C1055 1.429 . S
C1071 C1067 1.429 . S
C1071 C1072 1.523 . S
C1072 C1056 1.368 1_455 S
C1072 C1068 1.368 . S
C1072 C1071 1.523 . S
H1073 C1048 0.950 . S
H1074 C1050 0.950 . S
H1075 C1051 0.949 . S
H1076 C1053 0.950 . S
H1077 C1055 0.950 . S
C1078 C1079 1.349 . S
C1078 C1080 1.327 . S
C1078 H1103 0.950 . S
C1079 C1078 1.349 . S
C1079 C1095 1.349 . S
C1080 C1078 1.327 . S
C1080 C1099 1.429 . S
C1080 H1104 0.950 . S
C1081 C1098 1.574 . S
C1081 C1100 1.368 . S
C1081 H1105 0.949 . S
H1082 C1086 0.949 . S
C1083 C1084 1.349 . S
C1083 C1085 1.327 . S
C1083 H1106 0.950 . S
C1084 C1083 1.349 . S
C1084 C1096 1.349 . S
C1085 C1083 1.327 . S
C1085 C1101 1.429 . S
C1085 H1107 0.950 . S
C1086 H1082 0.949 . S
C1086 C1094 1.574 . S
C1086 C1102 1.368 . S
H1087 C1095 0.950 . S
H1088 C1093 0.950 . S
H1089 C1094 0.949 . S
H1090 C1096 0.950 . S
H1091 C1097 0.950 . S
H1092 C1098 0.949 . S
C1093 H1088 0.950 . S
C1093 C1095 1.327 . S
C1093 C1099 1.429 . S
C1094 C1086 1.574 . S
C1094 H1089 0.949 . S
C1094 C1100 1.368 . S
C1095 C1079 1.349 . S
C1095 H1087 0.950 . S
C1095 C1093 1.327 . S
C1096 C1084 1.349 . S
C1096 H1090 0.950 . S
C1096 C1097 1.327 . S
C1097 H1091 0.950 . S
C1097 C1096 1.327 . S
C1097 C1101 1.429 . S
C1098 C1081 1.574 . S
C1098 H1092 0.949 . S
C1098 C1102 1.368 . S
C1099 C1080 1.429 . S
C1099 C1093 1.429 . S
C1099 C1100 1.523 . S
C1100 C1081 1.368 . S
C1100 C1094 1.368 . S
C1100 C1099 1.523 . S
C1101 C1085 1.429 . S
C1101 C1097 1.429 . S
C1101 C1102 1.523 . S
C1102 C1086 1.368 . S
C1102 C1098 1.368 . S
C1102 C1101 1.523 . S
H1103 C1078 0.950 . S
H1104 C1080 0.950 . S
H1105 C1081 0.949 . S
H1106 C1083 0.950 . S
H1107 C1085 0.950 . S
C1108 C1109 1.349 . S
C1108 C1110 1.327 . S
C1108 H1133 0.950 . S
C1109 C1108 1.349 . S
C1109 C1125 1.349 . S
C1110 C1108 1.327 . S
C1110 C1129 1.429 . S
C1110 H1134 0.950 . S
C1111 C1128 1.574 . S
C1111 C1130 1.368 . S
C1111 H1135 0.949 . S
H1112 C1116 0.949 . S
C1113 C1114 1.349 . S
C1113 C1115 1.327 . S
C1113 H1136 0.950 . S
C1114 C1113 1.349 . S
C1114 C1126 1.349 . S
C1115 C1113 1.327 . S
C1115 C1131 1.429 . S
C1115 H1137 0.950 . S
C1116 H1112 0.949 . S
C1116 C1124 1.574 . S
C1116 C1132 1.368 . S
H1117 C1125 0.950 . S
H1118 C1123 0.950 . S
H1119 C1124 0.949 . S
H1120 C1126 0.950 . S
H1121 C1127 0.950 . S
H1122 C1128 0.949 . S
C1123 H1118 0.950 . S
C1123 C1125 1.327 . S
C1123 C1129 1.429 . S
C1124 C1116 1.574 . S
C1124 H1119 0.949 . S
C1124 C1130 1.368 . S
C1125 C1109 1.349 . S
C1125 H1117 0.950 . S
C1125 C1123 1.327 . S
C1126 C1114 1.349 . S
C1126 H1120 0.950 . S
C1126 C1127 1.327 . S
C1127 H1121 0.950 . S
C1127 C1126 1.327 . S
C1127 C1131 1.429 . S
C1128 C1111 1.574 . S
C1128 H1122 0.949 . S
C1128 C1132 1.368 . S
C1129 C1110 1.429 . S
C1129 C1123 1.429 . S
C1129 C1130 1.523 . S
C1130 C1111 1.368 . S
C1130 C1124 1.368 . S
C1130 C1129 1.523 . S
C1131 C1115 1.429 . S
C1131 C1127 1.429 . S
C1131 C1132 1.523 . S
C1132 C1116 1.368 . S
C1132 C1128 1.368 . S
C1132 C1131 1.523 . S
H1133 C1108 0.950 . S
H1134 C1110 0.950 . S
H1135 C1111 0.949 . S
H1136 C1113 0.950 . S
H1137 C1115 0.950 . S
C1138 C1139 1.349 . S
C1138 C1140 1.327 . S
C1138 H1163 0.950 . S
C1139 C1138 1.349 . S
C1139 C1155 1.349 . S
C1140 C1138 1.327 . S
C1140 C1159 1.429 . S
C1140 H1164 0.950 . S
C1141 C1158 1.574 1_455 S
C1141 C1160 1.368 . S
C1141 H1165 0.949 . S
H1142 C1146 0.949 . S
C1143 C1144 1.349 . S
C1143 C1145 1.327 . S
C1143 H1166 0.950 . S
C1144 C1143 1.349 . S
C1144 C1156 1.349 . S
C1145 C1143 1.327 . S
C1145 C1161 1.429 . S
C1145 H1167 0.950 . S
C1146 H1142 0.949 . S
C1146 C1154 1.574 1_655 S
C1146 C1162 1.368 . S
H1147 C1155 0.950 . S
H1148 C1153 0.950 . S
H1149 C1154 0.949 . S
H1150 C1156 0.950 . S
H1151 C1157 0.950 . S
H1152 C1158 0.949 . S
C1153 H1148 0.950 . S
C1153 C1155 1.327 . S
C1153 C1159 1.429 . S
C1154 C1146 1.574 1_455 S
C1154 H1149 0.949 . S
C1154 C1160 1.368 . S
C1155 C1139 1.349 . S
C1155 H1147 0.950 . S
C1155 C1153 1.327 . S
C1156 C1144 1.349 . S
C1156 H1150 0.950 . S
C1156 C1157 1.327 . S
C1157 H1151 0.950 . S
C1157 C1156 1.327 . S
C1157 C1161 1.429 . S
C1158 C1141 1.574 1_655 S
C1158 H1152 0.949 . S
C1158 C1162 1.368 . S
C1159 C1140 1.429 . S
C1159 C1153 1.429 . S
C1159 C1160 1.523 . S
C1160 C1141 1.368 . S
C1160 C1154 1.368 . S
C1160 C1159 1.523 . S
C1161 C1145 1.429 . S
C1161 C1157 1.429 . S
C1161 C1162 1.523 . S
C1162 C1146 1.368 . S
C1162 C1158 1.368 . S
C1162 C1161 1.523 . S
H1163 C1138 0.950 . S
H1164 C1140 0.950 . S
H1165 C1141 0.949 . S
H1166 C1143 0.950 . S
H1167 C1145 0.950 . S
C1168 C1169 1.349 . S
C1168 C1170 1.327 . S
C1168 H1193 0.950 . S
C1169 C1168 1.349 . S
C1169 C1185 1.349 . S
C1170 C1168 1.327 . S
C1170 C1189 1.429 . S
C1170 H1194 0.950 . S
C1171 C1188 1.574 . S
C1171 C1190 1.368 1_455 S
C1171 H1195 0.949 . S
H1172 C1176 0.949 . S
C1173 C1174 1.349 . S
C1173 C1175 1.327 . S
C1173 H1196 0.950 . S
C1174 C1173 1.349 . S
C1174 C1186 1.349 . S
C1175 C1173 1.327 . S
C1175 C1191 1.429 . S
C1175 H1197 0.950 . S
C1176 H1172 0.949 . S
C1176 C1184 1.574 . S
C1176 C1192 1.368 1_655 S
H1177 C1185 0.950 . S
H1178 C1183 0.950 . S
H1179 C1184 0.949 . S
H1180 C1186 0.950 . S
H1181 C1187 0.950 . S
H1182 C1188 0.949 . S
C1183 H1178 0.950 . S
C1183 C1185 1.327 . S
C1183 C1189 1.429 . S
C1184 C1176 1.574 . S
C1184 H1179 0.949 . S
C1184 C1190 1.368 . S
C1185 C1169 1.349 . S
C1185 H1177 0.950 . S
C1185 C1183 1.327 . S
C1186 C1174 1.349 . S
C1186 H1180 0.950 . S
C1186 C1187 1.327 . S
C1187 H1181 0.950 . S
C1187 C1186 1.327 . S
C1187 C1191 1.429 . S
C1188 C1171 1.574 . S
C1188 H1182 0.949 . S
C1188 C1192 1.368 . S
C1189 C1170 1.429 . S
C1189 C1183 1.429 . S
C1189 C1190 1.523 . S
C1190 C1171 1.368 1_655 S
C1190 C1184 1.368 . S
C1190 C1189 1.523 . S
C1191 C1175 1.429 . S
C1191 C1187 1.429 . S
C1191 C1192 1.523 . S
C1192 C1176 1.368 1_455 S
C1192 C1188 1.368 . S
C1192 C1191 1.523 . S
H1193 C1168 0.950 . S
H1194 C1170 0.950 . S
H1195 C1171 0.949 . S
H1196 C1173 0.950 . S
H1197 C1175 0.950 . S
C1198 C1199 1.349 . S
C1198 C1200 1.327 . S
C1198 H1223 0.950 . S
C1199 C1198 1.349 . S
C1199 C1215 1.349 . S
C1200 C1198 1.327 . S
C1200 C1219 1.429 . S
C1200 H1224 0.950 . S
C1201 C1218 1.574 1_655 S
C1201 C1220 1.368 . S
C1201 H1225 0.949 . S
H1202 C1206 0.949 . S
C1203 C1204 1.349 . S
C1203 C1205 1.327 . S
C1203 H1226 0.950 . S
C1204 C1203 1.349 . S
C1204 C1216 1.349 . S
C1205 C1203 1.327 . S
C1205 C1221 1.429 . S
C1205 H1227 0.950 . S
C1206 H1202 0.949 . S
C1206 C1214 1.574 1_455 S
C1206 C1222 1.368 . S
H1207 C1215 0.950 . S
H1208 C1213 0.950 . S
H1209 C1214 0.949 . S
H1210 C1216 0.950 . S
H1211 C1217 0.950 . S
H1212 C1218 0.949 . S
C1213 H1208 0.950 . S
C1213 C1215 1.327 . S
C1213 C1219 1.429 . S
C1214 C1206 1.574 1_655 S
C1214 H1209 0.949 . S
C1214 C1220 1.368 . S
C1215 C1199 1.349 . S
C1215 H1207 0.950 . S
C1215 C1213 1.327 . S
C1216 C1204 1.349 . S
C1216 H1210 0.950 . S
C1216 C1217 1.327 . S
C1217 H1211 0.950 . S
C1217 C1216 1.327 . S
C1217 C1221 1.429 . S
C1218 C1201 1.574 1_455 S
C1218 H1212 0.949 . S
C1218 C1222 1.368 . S
C1219 C1200 1.429 . S
C1219 C1213 1.429 . S
C1219 C1220 1.523 . S
C1220 C1201 1.368 . S
C1220 C1214 1.368 . S
C1220 C1219 1.523 . S
C1221 C1205 1.429 . S
C1221 C1217 1.429 . S
C1221 C1222 1.523 . S
C1222 C1206 1.368 . S
C1222 C1218 1.368 . S
C1222 C1221 1.523 . S
H1223 C1198 0.950 . S
H1224 C1200 0.950 . S
H1225 C1201 0.949 . S
H1226 C1203 0.950 . S
H1227 C1205 0.950 . S
C1228 C1229 1.349 . S
C1228 C1230 1.327 . S
C1228 H1253 0.950 . S
C1229 C1228 1.349 . S
C1229 C1245 1.349 . S
C1230 C1228 1.327 . S
C1230 C1249 1.429 . S
C1230 H1254 0.950 . S
C1231 C1248 1.574 . S
C1231 C1250 1.368 . S
C1231 H1255 0.949 . S
H1232 C1236 0.949 . S
C1233 C1234 1.349 . S
C1233 C1235 1.327 . S
C1233 H1256 0.950 . S
C1234 C1233 1.349 . S
C1234 C1246 1.349 . S
C1235 C1233 1.327 . S
C1235 C1251 1.429 . S
C1235 H1257 0.950 . S
C1236 H1232 0.949 . S
C1236 C1244 1.574 . S
C1236 C1252 1.368 . S
H1237 C1245 0.950 . S
H1238 C1243 0.950 . S
H1239 C1244 0.949 . S
H1240 C1246 0.950 . S
H1241 C1247 0.950 . S
H1242 C1248 0.949 . S
C1243 H1238 0.950 . S
C1243 C1245 1.327 . S
C1243 C1249 1.429 . S
C1244 C1236 1.574 . S
C1244 H1239 0.949 . S
C1244 C1250 1.368 . S
C1245 C1229 1.349 . S
C1245 H1237 0.950 . S
C1245 C1243 1.327 . S
C1246 C1234 1.349 . S
C1246 H1240 0.950 . S
C1246 C1247 1.327 . S
C1247 H1241 0.950 . S
C1247 C1246 1.327 . S
C1247 C1251 1.429 . S
C1248 C1231 1.574 . S
C1248 H1242 0.949 . S
C1248 C1252 1.368 . S
C1249 C1230 1.429 . S
C1249 C1243 1.429 . S
C1249 C1250 1.523 . S
C1250 C1231 1.368 . S
C1250 C1244 1.368 . S
C1250 C1249 1.523 . S
C1251 C1235 1.429 . S
C1251 C1247 1.429 . S
C1251 C1252 1.523 . S
C1252 C1236 1.368 . S
C1252 C1248 1.368 . S
C1252 C1251 1.523 . S
H1253 C1228 0.950 . S
H1254 C1230 0.950 . S
H1255 C1231 0.949 . S
H1256 C1233 0.950 . S
H1257 C1235 0.950 . S
C1258 C1259 1.349 . S
C1258 C1260 1.327 . S
C1258 H1283 0.950 . S
C1259 C1258 1.349 . S
C1259 C1275 1.349 . S
C1260 C1258 1.327 . S
C1260 C1279 1.429 . S
C1260 H1284 0.950 . S
C1261 C1278 1.574 . S
C1261 C1280 1.368 . S
C1261 H1285 0.949 . S
H1262 C1266 0.949 . S
C1263 C1264 1.349 . S
C1263 C1265 1.327 . S
C1263 H1286 0.950 . S
C1264 C1263 1.349 . S
C1264 C1276 1.349 . S
C1265 C1263 1.327 . S
C1265 C1281 1.429 . S
C1265 H1287 0.950 . S
C1266 H1262 0.949 . S
C1266 C1274 1.574 . S
C1266 C1282 1.368 . S
H1267 C1275 0.950 . S
H1268 C1273 0.950 . S
H1269 C1274 0.949 . S
H1270 C1276 0.950 . S
H1271 C1277 0.950 . S
H1272 C1278 0.949 . S
C1273 H1268 0.950 . S
C1273 C1275 1.327 . S
C1273 C1279 1.429 . S
C1274 C1266 1.574 . S
C1274 H1269 0.949 . S
C1274 C1280 1.368 . S
C1275 C1259 1.349 . S
C1275 H1267 0.950 . S
C1275 C1273 1.327 . S
C1276 C1264 1.349 . S
C1276 H1270 0.950 . S
C1276 C1277 1.327 . S
C1277 H1271 0.950 . S
C1277 C1276 1.327 . S
C1277 C1281 1.429 . S
C1278 C1261 1.574 . S
C1278 H1272 0.949 . S
C1278 C1282 1.368 . S
C1279 C1260 1.429 . S
C1279 C1273 1.429 . S
C1279 C1280 1.523 . S
C1280 C1261 1.368 . S
C1280 C1274 1.368 . S
C1280 C1279 1.523 . S
C1281 C1265 1.429 . S
C1281 C1277 1.429 . S
C1281 C1282 1.523 . S
C1282 C1266 1.368 . S
C1282 C1278 1.368 . S
C1282 C1281 1.523 . S
H1283 C1258 0.950 . S
H1284 C1260 0.950 . S
H1285 C1261 0.949 . S
H1286 C1263 0.950 . S
H1287 C1265 0.950 . S
C1288 C1289 1.349 . S
C1288 C1290 1.327 . S
C1288 H1313 0.950 . S
C1289 C1288 1.349 . S
C1289 C1305 1.349 . S
C1290 C1288 1.327 . S
C1290 C1309 1.429 . S
C1290 H1314 0.950 . S
C1291 C1308 1.574 . S
C1291 C1310 1.368 1_455 S
C1291 H1315 0.949 . S
H1292 C1296 0.949 . S
C1293 C1294 1.349 . S
C1293 C1295 1.327 . S
C1293 H1316 0.950 . S
C1294 C1293 1.349 . S
C1294 C1306 1.349 . S
C1295 C1293 1.327 . S
C1295 C1311 1.429 . S
C1295 H1317 0.950 . S
C1296 H1292 0.949 . S
C1296 C1304 1.574 . S
C1296 C1312 1.368 1_655 S
H1297 C1305 0.950 . S
H1298 C1303 0.950 . S
H1299 C1304 0.949 . S
H1300 C1306 0.950 . S
H1301 C1307 0.950 . S
H1302 C1308 0.949 . S
C1303 H1298 0.950 . S
C1303 C1305 1.327 . S
C1303 C1309 1.429 . S
C1304 C1296 1.574 . S
C1304 H1299 0.949 . S
C1304 C1310 1.368 . S
C1305 C1289 1.349 . S
C1305 H1297 0.950 . S
C1305 C1303 1.327 . S
C1306 C1294 1.349 . S
C1306 H1300 0.950 . S
C1306 C1307 1.327 . S
C1307 H1301 0.950 . S
C1307 C1306 1.327 . S
C1307 C1311 1.429 . S
C1308 C1291 1.574 . S
C1308 H1302 0.949 . S
C1308 C1312 1.368 . S
C1309 C1290 1.429 . S
C1309 C1303 1.429 . S
C1309 C1310 1.523 . S
C1310 C1291 1.368 1_655 S
C1310 C1304 1.368 . S
C1310 C1309 1.523 . S
C1311 C1295 1.429 . S
C1311 C1307 1.429 . S
C1311 C1312 1.523 . S
C1312 C1296 1.368 1_455 S
C1312 C1308 1.368 . S
C1312 C1311 1.523 . S
H1313 C1288 0.950 . S
H1314 C1290 0.950 . S
H1315 C1291 0.949 . S
H1316 C1293 0.950 . S
H1317 C1295 0.950 . S
C1318 C1319 1.349 . S
C1318 C1320 1.327 . S
C1318 H1343 0.950 . S
C1319 C1318 1.349 . S
C1319 C1335 1.349 . S
C1320 C1318 1.327 . S
C1320 C1339 1.429 . S
C1320 H1344 0.950 . S
C1321 C1338 1.574 . S
C1321 C1340 1.368 . S
C1321 H1345 0.949 . S
H1322 C1326 0.949 . S
C1323 C1324 1.349 . S
C1323 C1325 1.327 . S
C1323 H1346 0.950 . S
C1324 C1323 1.349 . S
C1324 C1336 1.349 . S
C1325 C1323 1.327 . S
C1325 C1341 1.429 . S
C1325 H1347 0.950 . S
C1326 H1322 0.949 . S
C1326 C1334 1.574 . S
C1326 C1342 1.368 . S
H1327 C1335 0.950 . S
H1328 C1333 0.950 . S
H1329 C1334 0.949 . S
H1330 C1336 0.950 . S
H1331 C1337 0.950 . S
H1332 C1338 0.949 . S
C1333 H1328 0.950 . S
C1333 C1335 1.327 . S
C1333 C1339 1.429 . S
C1334 C1326 1.574 . S
C1334 H1329 0.949 . S
C1334 C1340 1.368 . S
C1335 C1319 1.349 . S
C1335 H1327 0.950 . S
C1335 C1333 1.327 . S
C1336 C1324 1.349 . S
C1336 H1330 0.950 . S
C1336 C1337 1.327 . S
C1337 H1331 0.950 . S
C1337 C1336 1.327 . S
C1337 C1341 1.429 . S
C1338 C1321 1.574 . S
C1338 H1332 0.949 . S
C1338 C1342 1.368 . S
C1339 C1320 1.429 . S
C1339 C1333 1.429 . S
C1339 C1340 1.523 . S
C1340 C1321 1.368 . S
C1340 C1334 1.368 . S
C1340 C1339 1.523 . S
C1341 C1325 1.429 . S
C1341 C1337 1.429 . S
C1341 C1342 1.523 . S
C1342 C1326 1.368 . S
C1342 C1338 1.368 . S
C1342 C1341 1.523 . S
H1343 C1318 0.950 . S
H1344 C1320 0.950 . S
H1345 C1321 0.949 . S
H1346 C1323 0.950 . S
H1347 C1325 0.950 . S
C1348 C1349 1.349 . S
C1348 C1350 1.327 . S
C1348 H1373 0.950 . S
C1349 C1348 1.349 . S
C1349 C1365 1.349 . S
C1350 C1348 1.327 . S
C1350 C1369 1.429 . S
C1350 H1374 0.950 . S
C1351 C1368 1.574 . S
C1351 C1370 1.368 . S
C1351 H1375 0.949 . S
H1352 C1356 0.949 . S
C1353 C1354 1.349 . S
C1353 C1355 1.327 . S
C1353 H1376 0.950 . S
C1354 C1353 1.349 . S
C1354 C1366 1.349 . S
C1355 C1353 1.327 . S
C1355 C1371 1.429 . S
C1355 H1377 0.950 . S
C1356 H1352 0.949 . S
C1356 C1364 1.574 . S
C1356 C1372 1.368 . S
H1357 C1365 0.950 . S
H1358 C1363 0.950 . S
H1359 C1364 0.949 . S
H1360 C1366 0.950 . S
H1361 C1367 0.950 . S
H1362 C1368 0.949 . S
C1363 H1358 0.950 . S
C1363 C1365 1.327 . S
C1363 C1369 1.429 . S
C1364 C1356 1.574 . S
C1364 H1359 0.949 . S
C1364 C1370 1.368 . S
C1365 C1349 1.349 . S
C1365 H1357 0.950 . S
C1365 C1363 1.327 . S
C1366 C1354 1.349 . S
C1366 H1360 0.950 . S
C1366 C1367 1.327 . S
C1367 H1361 0.950 . S
C1367 C1366 1.327 . S
C1367 C1371 1.429 . S
C1368 C1351 1.574 . S
C1368 H1362 0.949 . S
C1368 C1372 1.368 . S
C1369 C1350 1.429 . S
C1369 C1363 1.429 . S
C1369 C1370 1.523 . S
C1370 C1351 1.368 . S
C1370 C1364 1.368 . S
C1370 C1369 1.523 . S
C1371 C1355 1.429 . S
C1371 C1367 1.429 . S
C1371 C1372 1.523 . S
C1372 C1356 1.368 . S
C1372 C1368 1.368 . S
C1372 C1371 1.523 . S
H1373 C1348 0.950 . S
H1374 C1350 0.950 . S
H1375 C1351 0.949 . S
H1376 C1353 0.950 . S
H1377 C1355 0.950 . S
C1378 C1379 1.349 . S
C1378 C1380 1.327 . S
C1378 H1403 0.950 . S
C1379 C1378 1.349 . S
C1379 C1395 1.349 . S
C1380 C1378 1.327 . S
C1380 C1399 1.429 . S
C1380 H1404 0.950 . S
C1381 C1398 1.574 1_655 S
C1381 C1400 1.368 . S
C1381 H1405 0.949 . S
H1382 C1386 0.949 . S
C1383 C1384 1.349 . S
C1383 C1385 1.327 . S
C1383 H1406 0.950 . S
C1384 C1383 1.349 . S
C1384 C1396 1.349 . S
C1385 C1383 1.327 . S
C1385 C1401 1.429 . S
C1385 H1407 0.950 . S
C1386 H1382 0.949 . S
C1386 C1394 1.574 1_455 S
C1386 C1402 1.368 . S
H1387 C1395 0.950 . S
H1388 C1393 0.950 . S
H1389 C1394 0.949 . S
H1390 C1396 0.950 . S
H1391 C1397 0.950 . S
H1392 C1398 0.949 . S
C1393 H1388 0.950 . S
C1393 C1395 1.327 . S
C1393 C1399 1.429 . S
C1394 C1386 1.574 1_655 S
C1394 H1389 0.949 . S
C1394 C1400 1.368 . S
C1395 C1379 1.349 . S
C1395 H1387 0.950 . S
C1395 C1393 1.327 . S
C1396 C1384 1.349 . S
C1396 H1390 0.950 . S
C1396 C1397 1.327 . S
C1397 H1391 0.950 . S
C1397 C1396 1.327 . S
C1397 C1401 1.429 . S
C1398 C1381 1.574 1_455 S
C1398 H1392 0.949 . S
C1398 C1402 1.368 . S
C1399 C1380 1.429 . S
C1399 C1393 1.429 . S
C1399 C1400 1.523 . S
C1400 C1381 1.368 . S
C1400 C1394 1.368 . S
C1400 C1399 1.523 . S
C1401 C1385 1.429 . S
C1401 C1397 1.429 . S
C1401 C1402 1.523 . S
C1402 C1386 1.368 . S
C1402 C1398 1.368 . S
C1402 C1401 1.523 . S
H1403 C1378 0.950 . S
H1404 C1380 0.950 . S
H1405 C1381 0.949 . S
H1406 C1383 0.950 . S
H1407 C1385 0.950 . S
C1408 C1409 1.349 . S
C1408 C1410 1.327 . S
C1408 H1433 0.950 . S
C1409 C1408 1.349 . S
C1409 C1425 1.349 . S
C1410 C1408 1.327 . S
C1410 C1429 1.429 . S
C1410 H1434 0.950 . S
C1411 C1428 1.574 . S
C1411 C1430 1.368 . S
C1411 H1435 0.949 . S
H1412 C1416 0.949 . S
C1413 C1414 1.349 . S
C1413 C1415 1.327 . S
C1413 H1436 0.950 . S
C1414 C1413 1.349 . S
C1414 C1426 1.349 . S
C1415 C1413 1.327 . S
C1415 C1431 1.429 . S
C1415 H1437 0.950 . S
C1416 H1412 0.949 . S
C1416 C1424 1.574 . S
C1416 C1432 1.368 . S
H1417 C1425 0.950 . S
H1418 C1423 0.950 . S
H1419 C1424 0.949 . S
H1420 C1426 0.950 . S
H1421 C1427 0.950 . S
H1422 C1428 0.949 . S
C1423 H1418 0.950 . S
C1423 C1425 1.327 . S
C1423 C1429 1.429 . S
C1424 C1416 1.574 . S
C1424 H1419 0.949 . S
C1424 C1430 1.368 1_554 S
C1425 C1409 1.349 . S
C1425 H1417 0.950 . S
C1425 C1423 1.327 . S
C1426 C1414 1.349 . S
C1426 H1420 0.950 . S
C1426 C1427 1.327 . S
C1427 H1421 0.950 . S
C1427 C1426 1.327 . S
C1427 C1431 1.429 . S
C1428 C1411 1.574 . S
C1428 H1422 0.949 . S
C1428 C1432 1.368 1_556 S
C1429 C1410 1.429 . S
C1429 C1423 1.429 . S
C1429 C1430 1.523 . S
C1430 C1411 1.368 . S
C1430 C1424 1.368 1_556 S
C1430 C1429 1.523 . S
C1431 C1415 1.429 . S
C1431 C1427 1.429 . S
C1431 C1432 1.523 . S
C1432 C1416 1.368 . S
C1432 C1428 1.368 1_554 S
C1432 C1431 1.523 . S
H1433 C1408 0.950 . S
H1434 C1410 0.950 . S
H1435 C1411 0.949 . S
H1436 C1413 0.950 . S
H1437 C1415 0.950 . S
C1438 C1439 1.349 . S
C1438 C1440 1.327 . S
C1438 H1463 0.950 . S
C1439 C1438 1.349 . S
C1439 C1455 1.349 . S
C1440 C1438 1.327 . S
C1440 C1459 1.429 . S
C1440 H1464 0.950 . S
C1441 C1458 1.574 1_545 S
C1441 C1460 1.368 . S
C1441 H1465 0.949 . S
H1442 C1446 0.949 . S
C1443 C1444 1.349 . S
C1443 C1445 1.327 . S
C1443 H1466 0.950 . S
C1444 C1443 1.349 . S
C1444 C1456 1.349 . S
C1445 C1443 1.327 . S
C1445 C1461 1.429 . S
C1445 H1467 0.950 . S
C1446 H1442 0.949 . S
C1446 C1454 1.574 1_565 S
C1446 C1462 1.368 . S
H1447 C1455 0.950 . S
H1448 C1453 0.950 . S
H1449 C1454 0.949 . S
H1450 C1456 0.950 . S
H1451 C1457 0.950 . S
H1452 C1458 0.949 . S
C1453 H1448 0.950 . S
C1453 C1455 1.327 . S
C1453 C1459 1.429 . S
C1454 C1446 1.574 1_545 S
C1454 H1449 0.949 . S
C1454 C1460 1.368 . S
C1455 C1439 1.349 . S
C1455 H1447 0.950 . S
C1455 C1453 1.327 . S
C1456 C1444 1.349 . S
C1456 H1450 0.950 . S
C1456 C1457 1.327 . S
C1457 H1451 0.950 . S
C1457 C1456 1.327 . S
C1457 C1461 1.429 . S
C1458 C1441 1.574 1_565 S
C1458 H1452 0.949 . S
C1458 C1462 1.368 . S
C1459 C1440 1.429 . S
C1459 C1453 1.429 . S
C1459 C1460 1.523 . S
C1460 C1441 1.368 . S
C1460 C1454 1.368 . S
C1460 C1459 1.523 . S
C1461 C1445 1.429 . S
C1461 C1457 1.429 . S
C1461 C1462 1.523 . S
C1462 C1446 1.368 . S
C1462 C1458 1.368 . S
C1462 C1461 1.523 . S
H1463 C1438 0.950 . S
H1464 C1440 0.950 . S
H1465 C1441 0.949 . S
H1466 C1443 0.950 . S
H1467 C1445 0.950 . S
C1468 C1469 1.349 . S
C1468 C1470 1.327 . S
C1468 H1493 0.950 . S
C1469 C1468 1.349 . S
C1469 C1485 1.349 . S
C1470 C1468 1.327 . S
C1470 C1489 1.429 . S
C1470 H1494 0.950 . S
C1471 C1488 1.574 . S
C1471 C1490 1.368 . S
C1471 H1495 0.949 . S
H1472 C1476 0.949 . S
C1473 C1474 1.349 . S
C1473 C1475 1.327 . S
C1473 H1496 0.950 . S
C1474 C1473 1.349 . S
C1474 C1486 1.349 . S
C1475 C1473 1.327 . S
C1475 C1491 1.429 . S
C1475 H1497 0.950 . S
C1476 H1472 0.949 . S
C1476 C1484 1.574 . S
C1476 C1492 1.368 . S
H1477 C1485 0.950 . S
H1478 C1483 0.950 . S
H1479 C1484 0.949 . S
H1480 C1486 0.950 . S
H1481 C1487 0.950 . S
H1482 C1488 0.949 . S
C1483 H1478 0.950 . S
C1483 C1485 1.327 . S
C1483 C1489 1.429 . S
C1484 C1476 1.574 . S
C1484 H1479 0.949 . S
C1484 C1490 1.368 . S
C1485 C1469 1.349 . S
C1485 H1477 0.950 . S
C1485 C1483 1.327 . S
C1486 C1474 1.349 . S
C1486 H1480 0.950 . S
C1486 C1487 1.327 . S
C1487 H1481 0.950 . S
C1487 C1486 1.327 . S
C1487 C1491 1.429 . S
C1488 C1471 1.574 . S
C1488 H1482 0.949 . S
C1488 C1492 1.368 . S
C1489 C1470 1.429 . S
C1489 C1483 1.429 . S
C1489 C1490 1.523 . S
C1490 C1471 1.368 . S
C1490 C1484 1.368 . S
C1490 C1489 1.523 . S
C1491 C1475 1.429 . S
C1491 C1487 1.429 . S
C1491 C1492 1.523 . S
C1492 C1476 1.368 . S
C1492 C1488 1.368 . S
C1492 C1491 1.523 . S
H1493 C1468 0.950 . S
H1494 C1470 0.950 . S
H1495 C1471 0.949 . S
H1496 C1473 0.950 . S
H1497 C1475 0.950 . S
C1498 C1499 1.349 . S
C1498 C1500 1.327 . S
C1498 H1523 0.950 . S
C1499 C1498 1.349 . S
C1499 C1515 1.349 . S
C1500 C1498 1.327 . S
C1500 C1519 1.429 . S
C1500 H1524 0.950 . S
C1501 C1518 1.574 1_545 S
C1501 C1520 1.368 . S
C1501 H1525 0.949 . S
H1502 C1506 0.949 . S
C1503 C1504 1.349 . S
C1503 C1505 1.327 . S
C1503 H1526 0.950 . S
C1504 C1503 1.349 . S
C1504 C1516 1.349 . S
C1505 C1503 1.327 . S
C1505 C1521 1.429 . S
C1505 H1527 0.950 . S
C1506 H1502 0.949 . S
C1506 C1514 1.574 1_565 S
C1506 C1522 1.368 . S
H1507 C1515 0.950 . S
H1508 C1513 0.950 . S
H1509 C1514 0.949 . S
H1510 C1516 0.950 . S
H1511 C1517 0.950 . S
H1512 C1518 0.949 . S
C1513 H1508 0.950 . S
C1513 C1515 1.327 . S
C1513 C1519 1.429 . S
C1514 C1506 1.574 1_545 S
C1514 H1509 0.949 . S
C1514 C1520 1.368 . S
C1515 C1499 1.349 . S
C1515 H1507 0.950 . S
C1515 C1513 1.327 . S
C1516 C1504 1.349 . S
C1516 H1510 0.950 . S
C1516 C1517 1.327 . S
C1517 H1511 0.950 . S
C1517 C1516 1.327 . S
C1517 C1521 1.429 . S
C1518 C1501 1.574 1_565 S
C1518 H1512 0.949 . S
C1518 C1522 1.368 . S
C1519 C1500 1.429 . S
C1519 C1513 1.429 . S
C1519 C1520 1.523 . S
C1520 C1501 1.368 . S
C1520 C1514 1.368 . S
C1520 C1519 1.523 . S
C1521 C1505 1.429 . S
C1521 C1517 1.429 . S
C1521 C1522 1.523 . S
C1522 C1506 1.368 . S
C1522 C1518 1.368 . S
C1522 C1521 1.523 . S
H1523 C1498 0.950 . S
H1524 C1500 0.950 . S
H1525 C1501 0.949 . S
H1526 C1503 0.950 . S
H1527 C1505 0.950 . S
C1528 C1529 1.349 . S
C1528 C1530 1.327 . S
C1528 H1553 0.950 . S
C1529 C1528 1.349 . S
C1529 C1545 1.349 . S
C1530 C1528 1.327 . S
C1530 C1549 1.429 . S
C1530 H1554 0.950 . S
C1531 C1548 1.574 . S
C1531 C1550 1.368 1_556 S
C1531 H1555 0.949 . S
H1532 C1536 0.949 . S
C1533 C1534 1.349 . S
C1533 C1535 1.327 . S
C1533 H1556 0.950 . S
C1534 C1533 1.349 . S
C1534 C1546 1.349 . S
C1535 C1533 1.327 . S
C1535 C1551 1.429 . S
C1535 H1557 0.950 . S
C1536 H1532 0.949 . S
C1536 C1544 1.574 . S
C1536 C1552 1.368 1_554 S
H1537 C1545 0.950 . S
H1538 C1543 0.950 . S
H1539 C1544 0.949 . S
H1540 C1546 0.950 . S
H1541 C1547 0.950 . S
H1542 C1548 0.949 . S
C1543 H1538 0.950 . S
C1543 C1545 1.327 . S
C1543 C1549 1.429 . S
C1544 C1536 1.574 . S
C1544 H1539 0.949 . S
C1544 C1550 1.368 . S
C1545 C1529 1.349 . S
C1545 H1537 0.950 . S
C1545 C1543 1.327 . S
C1546 C1534 1.349 . S
C1546 H1540 0.950 . S
C1546 C1547 1.327 . S
C1547 H1541 0.950 . S
C1547 C1546 1.327 . S
C1547 C1551 1.429 . S
C1548 C1531 1.574 . S
C1548 H1542 0.949 . S
C1548 C1552 1.368 . S
C1549 C1530 1.429 . S
C1549 C1543 1.429 . S
C1549 C1550 1.523 . S
C1550 C1531 1.368 1_554 S
C1550 C1544 1.368 . S
C1550 C1549 1.523 . S
C1551 C1535 1.429 . S
C1551 C1547 1.429 . S
C1551 C1552 1.523 . S
C1552 C1536 1.368 1_556 S
C1552 C1548 1.368 . S
C1552 C1551 1.523 . S
H1553 C1528 0.950 . S
H1554 C1530 0.950 . S
H1555 C1531 0.949 . S
H1556 C1533 0.950 . S
H1557 C1535 0.950 . S
C1558 C1559 1.349 . S
C1558 C1560 1.327 . S
C1558 H1583 0.950 . S
C1559 C1558 1.349 . S
C1559 C1575 1.349 . S
C1560 C1558 1.327 . S
C1560 C1579 1.429 . S
C1560 H1584 0.950 . S
C1561 C1578 1.574 1_565 S
C1561 C1580 1.368 . S
C1561 H1585 0.949 . S
H1562 C1566 0.949 . S
C1563 C1564 1.349 . S
C1563 C1565 1.327 . S
C1563 H1586 0.950 . S
C1564 C1563 1.349 . S
C1564 C1576 1.349 . S
C1565 C1563 1.327 . S
C1565 C1581 1.429 . S
C1565 H1587 0.950 . S
C1566 H1562 0.949 . S
C1566 C1574 1.574 1_545 S
C1566 C1582 1.368 . S
H1567 C1575 0.950 . S
H1568 C1573 0.950 . S
H1569 C1574 0.949 . S
H1570 C1576 0.950 . S
H1571 C1577 0.950 . S
H1572 C1578 0.949 . S
C1573 H1568 0.950 . S
C1573 C1575 1.327 . S
C1573 C1579 1.429 . S
C1574 C1566 1.574 1_565 S
C1574 H1569 0.949 . S
C1574 C1580 1.368 . S
C1575 C1559 1.349 . S
C1575 H1567 0.950 . S
C1575 C1573 1.327 . S
C1576 C1564 1.349 . S
C1576 H1570 0.950 . S
C1576 C1577 1.327 . S
C1577 H1571 0.950 . S
C1577 C1576 1.327 . S
C1577 C1581 1.429 . S
C1578 C1561 1.574 1_545 S
C1578 H1572 0.949 . S
C1578 C1582 1.368 . S
C1579 C1560 1.429 . S
C1579 C1573 1.429 . S
C1579 C1580 1.523 . S
C1580 C1561 1.368 . S
C1580 C1574 1.368 . S
C1580 C1579 1.523 . S
C1581 C1565 1.429 . S
C1581 C1577 1.429 . S
C1581 C1582 1.523 . S
C1582 C1566 1.368 . S
C1582 C1578 1.368 . S
C1582 C1581 1.523 . S
H1583 C1558 0.950 . S
H1584 C1560 0.950 . S
H1585 C1561 0.949 . S
H1586 C1563 0.950 . S
H1587 C1565 0.950 . S
C1588 C1589 1.349 . S
C1588 C1590 1.327 . S
C1588 H1613 0.950 . S
C1589 C1588 1.349 . S
C1589 C1605 1.349 . S
C1590 C1588 1.327 . S
C1590 C1609 1.429 . S
C1590 H1614 0.950 . S
C1591 C1608 1.574 . S
C1591 C1610 1.368 . S
C1591 H1615 0.949 . S
H1592 C1596 0.949 . S
C1593 C1594 1.349 . S
C1593 C1595 1.327 . S
C1593 H1616 0.950 . S
C1594 C1593 1.349 . S
C1594 C1606 1.349 . S
C1595 C1593 1.327 . S
C1595 C1611 1.429 . S
C1595 H1617 0.950 . S
C1596 H1592 0.949 . S
C1596 C1604 1.574 . S
C1596 C1612 1.368 . S
H1597 C1605 0.950 . S
H1598 C1603 0.950 . S
H1599 C1604 0.949 . S
H1600 C1606 0.950 . S
H1601 C1607 0.950 . S
H1602 C1608 0.949 . S
C1603 H1598 0.950 . S
C1603 C1605 1.327 . S
C1603 C1609 1.429 . S
C1604 C1596 1.574 . S
C1604 H1599 0.949 . S
C1604 C1610 1.368 . S
C1605 C1589 1.349 . S
C1605 H1597 0.950 . S
C1605 C1603 1.327 . S
C1606 C1594 1.349 . S
C1606 H1600 0.950 . S
C1606 C1607 1.327 . S
C1607 H1601 0.950 . S
C1607 C1606 1.327 . S
C1607 C1611 1.429 . S
C1608 C1591 1.574 . S
C1608 H1602 0.949 . S
C1608 C1612 1.368 . S
C1609 C1590 1.429 . S
C1609 C1603 1.429 . S
C1609 C1610 1.523 . S
C1610 C1591 1.368 . S
C1610 C1604 1.368 . S
C1610 C1609 1.523 . S
C1611 C1595 1.429 . S
C1611 C1607 1.429 . S
C1611 C1612 1.523 . S
C1612 C1596 1.368 . S
C1612 C1608 1.368 . S
C1612 C1611 1.523 . S
H1613 C1588 0.950 . S
H1614 C1590 0.950 . S
H1615 C1591 0.949 . S
H1616 C1593 0.950 . S
H1617 C1595 0.950 . S
C1618 C1619 1.349 . S
C1618 C1620 1.327 . S
C1618 H1643 0.950 . S
C1619 C1618 1.349 . S
C1619 C1635 1.349 . S
C1620 C1618 1.327 . S
C1620 C1639 1.429 . S
C1620 H1644 0.950 . S
C1621 C1638 1.574 1_545 S
C1621 C1640 1.368 . S
C1621 H1645 0.949 . S
H1622 C1626 0.949 . S
C1623 C1624 1.349 . S
C1623 C1625 1.327 . S
C1623 H1646 0.950 . S
C1624 C1623 1.349 . S
C1624 C1636 1.349 . S
C1625 C1623 1.327 . S
C1625 C1641 1.429 . S
C1625 H1647 0.950 . S
C1626 H1622 0.949 . S
C1626 C1634 1.574 1_565 S
C1626 C1642 1.368 . S
H1627 C1635 0.950 . S
H1628 C1633 0.950 . S
H1629 C1634 0.949 . S
H1630 C1636 0.950 . S
H1631 C1637 0.950 . S
H1632 C1638 0.949 . S
C1633 H1628 0.950 . S
C1633 C1635 1.327 . S
C1633 C1639 1.429 . S
C1634 C1626 1.574 1_545 S
C1634 H1629 0.949 . S
C1634 C1640 1.368 . S
C1635 C1619 1.349 . S
C1635 H1627 0.950 . S
C1635 C1633 1.327 . S
C1636 C1624 1.349 . S
C1636 H1630 0.950 . S
C1636 C1637 1.327 . S
C1637 H1631 0.950 . S
C1637 C1636 1.327 . S
C1637 C1641 1.429 . S
C1638 C1621 1.574 1_565 S
C1638 H1632 0.949 . S
C1638 C1642 1.368 . S
C1639 C1620 1.429 . S
C1639 C1633 1.429 . S
C1639 C1640 1.523 . S
C1640 C1621 1.368 . S
C1640 C1634 1.368 . S
C1640 C1639 1.523 . S
C1641 C1625 1.429 . S
C1641 C1637 1.429 . S
C1641 C1642 1.523 . S
C1642 C1626 1.368 . S
C1642 C1638 1.368 . S
C1642 C1641 1.523 . S
H1643 C1618 0.950 . S
H1644 C1620 0.950 . S
H1645 C1621 0.949 . S
H1646 C1623 0.950 . S
H1647 C1625 0.950 . S
C1648 C1649 1.349 . S
C1648 C1650 1.327 . S
C1648 H1673 0.950 . S
C1649 C1648 1.349 . S
C1649 C1665 1.349 . S
C1650 C1648 1.327 . S
C1650 C1669 1.429 . S
C1650 H1674 0.950 . S
C1651 C1668 1.574 . S
C1651 C1670 1.368 . S
C1651 H1675 0.949 . S
H1652 C1656 0.949 . S
C1653 C1654 1.349 . S
C1653 C1655 1.327 . S
C1653 H1676 0.950 . S
C1654 C1653 1.349 . S
C1654 C1666 1.349 . S
C1655 C1653 1.327 . S
C1655 C1671 1.429 . S
C1655 H1677 0.950 . S
C1656 H1652 0.949 . S
C1656 C1664 1.574 . S
C1656 C1672 1.368 . S
H1657 C1665 0.950 . S
H1658 C1663 0.950 . S
H1659 C1664 0.949 . S
H1660 C1666 0.950 . S
H1661 C1667 0.950 . S
H1662 C1668 0.949 . S
C1663 H1658 0.950 . S
C1663 C1665 1.327 . S
C1663 C1669 1.429 . S
C1664 C1656 1.574 . S
C1664 H1659 0.949 . S
C1664 C1670 1.368 . S
C1665 C1649 1.349 . S
C1665 H1657 0.950 . S
C1665 C1663 1.327 . S
C1666 C1654 1.349 . S
C1666 H1660 0.950 . S
C1666 C1667 1.327 . S
C1667 H1661 0.950 . S
C1667 C1666 1.327 . S
C1667 C1671 1.429 . S
C1668 C1651 1.574 . S
C1668 H1662 0.949 . S
C1668 C1672 1.368 . S
C1669 C1650 1.429 . S
C1669 C1663 1.429 . S
C1669 C1670 1.523 . S
C1670 C1651 1.368 . S
C1670 C1664 1.368 . S
C1670 C1669 1.523 . S
C1671 C1655 1.429 . S
C1671 C1667 1.429 . S
C1671 C1672 1.523 . S
C1672 C1656 1.368 . S
C1672 C1668 1.368 . S
C1672 C1671 1.523 . S
H1673 C1648 0.950 . S
H1674 C1650 0.950 . S
H1675 C1651 0.949 . S
H1676 C1653 0.950 . S
H1677 C1655 0.950 . S
C1678 C1679 1.349 . S
C1678 C1680 1.327 . S
C1678 H1703 0.950 . S
C1679 C1678 1.349 . S
C1679 C1695 1.349 . S
C1680 C1678 1.327 . S
C1680 C1699 1.429 . S
C1680 H1704 0.950 . S
C1681 C1698 1.574 . S
C1681 C1700 1.368 . S
C1681 H1705 0.949 . S
H1682 C1686 0.949 . S
C1683 C1684 1.349 . S
C1683 C1685 1.327 . S
C1683 H1706 0.950 . S
C1684 C1683 1.349 . S
C1684 C1696 1.349 . S
C1685 C1683 1.327 . S
C1685 C1701 1.429 . S
C1685 H1707 0.950 . S
C1686 H1682 0.949 . S
C1686 C1694 1.574 . S
C1686 C1702 1.368 . S
H1687 C1695 0.950 . S
H1688 C1693 0.950 . S
H1689 C1694 0.949 . S
H1690 C1696 0.950 . S
H1691 C1697 0.950 . S
H1692 C1698 0.949 . S
C1693 H1688 0.950 . S
C1693 C1695 1.327 . S
C1693 C1699 1.429 . S
C1694 C1686 1.574 . S
C1694 H1689 0.949 . S
C1694 C1700 1.368 . S
C1695 C1679 1.349 . S
C1695 H1687 0.950 . S
C1695 C1693 1.327 . S
C1696 C1684 1.349 . S
C1696 H1690 0.950 . S
C1696 C1697 1.327 . S
C1697 H1691 0.950 . S
C1697 C1696 1.327 . S
C1697 C1701 1.429 . S
C1698 C1681 1.574 . S
C1698 H1692 0.949 . S
C1698 C1702 1.368 . S
C1699 C1680 1.429 . S
C1699 C1693 1.429 . S
C1699 C1700 1.523 . S
C1700 C1681 1.368 . S
C1700 C1694 1.368 . S
C1700 C1699 1.523 . S
C1701 C1685 1.429 . S
C1701 C1697 1.429 . S
C1701 C1702 1.523 . S
C1702 C1686 1.368 . S
C1702 C1698 1.368 . S
C1702 C1701 1.523 . S
H1703 C1678 0.950 . S
H1704 C1680 0.950 . S
H1705 C1681 0.949 . S
H1706 C1683 0.950 . S
H1707 C1685 0.950 . S
C1708 C1709 1.349 . S
C1708 C1710 1.327 . S
C1708 H1733 0.950 . S
C1709 C1708 1.349 . S
C1709 C1725 1.349 . S
C1710 C1708 1.327 . S
C1710 C1729 1.429 . S
C1710 H1734 0.950 . S
C1711 C1728 1.574 . S
C1711 C1730 1.368 . S
C1711 H1735 0.949 . S
H1712 C1716 0.949 . S
C1713 C1714 1.349 . S
C1713 C1715 1.327 . S
C1713 H1736 0.950 . S
C1714 C1713 1.349 . S
C1714 C1726 1.349 . S
C1715 C1713 1.327 . S
C1715 C1731 1.429 . S
C1715 H1737 0.950 . S
C1716 H1712 0.949 . S
C1716 C1724 1.574 . S
C1716 C1732 1.368 . S
H1717 C1725 0.950 . S
H1718 C1723 0.950 . S
H1719 C1724 0.949 . S
H1720 C1726 0.950 . S
H1721 C1727 0.950 . S
H1722 C1728 0.949 . S
C1723 H1718 0.950 . S
C1723 C1725 1.327 . S
C1723 C1729 1.429 . S
C1724 C1716 1.574 . S
C1724 H1719 0.949 . S
C1724 C1730 1.368 1_556 S
C1725 C1709 1.349 . S
C1725 H1717 0.950 . S
C1725 C1723 1.327 . S
C1726 C1714 1.349 . S
C1726 H1720 0.950 . S
C1726 C1727 1.327 . S
C1727 H1721 0.950 . S
C1727 C1726 1.327 . S
C1727 C1731 1.429 . S
C1728 C1711 1.574 . S
C1728 H1722 0.949 . S
C1728 C1732 1.368 1_554 S
C1729 C1710 1.429 . S
C1729 C1723 1.429 . S
C1729 C1730 1.523 . S
C1730 C1711 1.368 . S
C1730 C1724 1.368 1_554 S
C1730 C1729 1.523 . S
C1731 C1715 1.429 . S
C1731 C1727 1.429 . S
C1731 C1732 1.523 . S
C1732 C1716 1.368 . S
C1732 C1728 1.368 1_556 S
C1732 C1731 1.523 . S
H1733 C1708 0.950 . S
H1734 C1710 0.950 . S
H1735 C1711 0.949 . S
H1736 C1713 0.950 . S
H1737 C1715 0.950 . S
C1738 C1739 1.349 . S
C1738 C1740 1.327 . S
C1738 H1763 0.950 . S
C1739 C1738 1.349 . S
C1739 C1755 1.349 . S
C1740 C1738 1.327 . S
C1740 C1759 1.429 . S
C1740 H1764 0.950 . S
C1741 C1758 1.574 . S
C1741 C1760 1.368 . S
C1741 H1765 0.949 . S
H1742 C1746 0.949 . S
C1743 C1744 1.349 . S
C1743 C1745 1.327 . S
C1743 H1766 0.950 . S
C1744 C1743 1.349 . S
C1744 C1756 1.349 . S
C1745 C1743 1.327 . S
C1745 C1761 1.429 . S
C1745 H1767 0.950 . S
C1746 H1742 0.949 . S
C1746 C1754 1.574 . S
C1746 C1762 1.368 . S
H1747 C1755 0.950 . S
H1748 C1753 0.950 . S
H1749 C1754 0.949 . S
H1750 C1756 0.950 . S
H1751 C1757 0.950 . S
H1752 C1758 0.949 . S
C1753 H1748 0.950 . S
C1753 C1755 1.327 . S
C1753 C1759 1.429 . S
C1754 C1746 1.574 . S
C1754 H1749 0.949 . S
C1754 C1760 1.368 . S
C1755 C1739 1.349 . S
C1755 H1747 0.950 . S
C1755 C1753 1.327 . S
C1756 C1744 1.349 . S
C1756 H1750 0.950 . S
C1756 C1757 1.327 . S
C1757 H1751 0.950 . S
C1757 C1756 1.327 . S
C1757 C1761 1.429 . S
C1758 C1741 1.574 . S
C1758 H1752 0.949 . S
C1758 C1762 1.368 . S
C1759 C1740 1.429 . S
C1759 C1753 1.429 . S
C1759 C1760 1.523 . S
C1760 C1741 1.368 . S
C1760 C1754 1.368 . S
C1760 C1759 1.523 . S
C1761 C1745 1.429 . S
C1761 C1757 1.429 . S
C1761 C1762 1.523 . S
C1762 C1746 1.368 . S
C1762 C1758 1.368 . S
C1762 C1761 1.523 . S
H1763 C1738 0.950 . S
H1764 C1740 0.950 . S
H1765 C1741 0.949 . S
H1766 C1743 0.950 . S
H1767 C1745 0.950 . S
C1768 C1769 1.349 . S
C1768 C1770 1.327 . S
C1768 H1793 0.950 . S
C1769 C1768 1.349 . S
C1769 C1785 1.349 . S
C1770 C1768 1.327 . S
C1770 C1789 1.429 . S
C1770 H1794 0.950 . S
C1771 C1788 1.574 . S
C1771 C1790 1.368 . S
C1771 H1795 0.949 . S
H1772 C1776 0.949 . S
C1773 C1774 1.349 . S
C1773 C1775 1.327 . S
C1773 H1796 0.950 . S
C1774 C1773 1.349 . S
C1774 C1786 1.349 . S
C1775 C1773 1.327 . S
C1775 C1791 1.429 . S
C1775 H1797 0.950 . S
C1776 H1772 0.949 . S
C1776 C1784 1.574 . S
C1776 C1792 1.368 . S
H1777 C1785 0.950 . S
H1778 C1783 0.950 . S
H1779 C1784 0.949 . S
H1780 C1786 0.950 . S
H1781 C1787 0.950 . S
H1782 C1788 0.949 . S
C1783 H1778 0.950 . S
C1783 C1785 1.327 . S
C1783 C1789 1.429 . S
C1784 C1776 1.574 . S
C1784 H1779 0.949 . S
C1784 C1790 1.368 . S
C1785 C1769 1.349 . S
C1785 H1777 0.950 . S
C1785 C1783 1.327 . S
C1786 C1774 1.349 . S
C1786 H1780 0.950 . S
C1786 C1787 1.327 . S
C1787 H1781 0.950 . S
C1787 C1786 1.327 . S
C1787 C1791 1.429 . S
C1788 C1771 1.574 . S
C1788 H1782 0.949 . S
C1788 C1792 1.368 . S
C1789 C1770 1.429 . S
C1789 C1783 1.429 . S
C1789 C1790 1.523 . S
C1790 C1771 1.368 . S
C1790 C1784 1.368 . S
C1790 C1789 1.523 . S
C1791 C1775 1.429 . S
C1791 C1787 1.429 . S
C1791 C1792 1.523 . S
C1792 C1776 1.368 . S
C1792 C1788 1.368 . S
C1792 C1791 1.523 . S
H1793 C1768 0.950 . S
H1794 C1770 0.950 . S
H1795 C1771 0.949 . S
H1796 C1773 0.950 . S
H1797 C1775 0.950 . S
C1798 C1799 1.349 . S
C1798 C1800 1.327 . S
C1798 H1823 0.950 . S
C1799 C1798 1.349 . S
C1799 C1815 1.349 . S
C1800 C1798 1.327 . S
C1800 C1819 1.429 . S
C1800 H1824 0.950 . S
C1801 C1818 1.574 . S
C1801 C1820 1.368 . S
C1801 H1825 0.949 . S
H1802 C1806 0.949 . S
C1803 C1804 1.349 . S
C1803 C1805 1.327 . S
C1803 H1826 0.950 . S
C1804 C1803 1.349 . S
C1804 C1816 1.349 . S
C1805 C1803 1.327 . S
C1805 C1821 1.429 . S
C1805 H1827 0.950 . S
C1806 H1802 0.949 . S
C1806 C1814 1.574 . S
C1806 C1822 1.368 . S
H1807 C1815 0.950 . S
H1808 C1813 0.950 . S
H1809 C1814 0.949 . S
H1810 C1816 0.950 . S
H1811 C1817 0.950 . S
H1812 C1818 0.949 . S
C1813 H1808 0.950 . S
C1813 C1815 1.327 . S
C1813 C1819 1.429 . S
C1814 C1806 1.574 . S
C1814 H1809 0.949 . S
C1814 C1820 1.368 . S
C1815 C1799 1.349 . S
C1815 H1807 0.950 . S
C1815 C1813 1.327 . S
C1816 C1804 1.349 . S
C1816 H1810 0.950 . S
C1816 C1817 1.327 . S
C1817 H1811 0.950 . S
C1817 C1816 1.327 . S
C1817 C1821 1.429 . S
C1818 C1801 1.574 . S
C1818 H1812 0.949 . S
C1818 C1822 1.368 . S
C1819 C1800 1.429 . S
C1819 C1813 1.429 . S
C1819 C1820 1.523 . S
C1820 C1801 1.368 . S
C1820 C1814 1.368 . S
C1820 C1819 1.523 . S
C1821 C1805 1.429 . S
C1821 C1817 1.429 . S
C1821 C1822 1.523 . S
C1822 C1806 1.368 . S
C1822 C1818 1.368 . S
C1822 C1821 1.523 . S
H1823 C1798 0.950 . S
H1824 C1800 0.950 . S
H1825 C1801 0.949 . S
H1826 C1803 0.950 . S
H1827 C1805 0.950 . S
C1828 C1829 1.349 . S
C1828 C1830 1.327 . S
C1828 H1853 0.950 . S
C1829 C1828 1.349 . S
C1829 C1845 1.349 . S
C1830 C1828 1.327 . S
C1830 C1849 1.429 . S
C1830 H1854 0.950 . S
C1831 C1848 1.574 . S
C1831 C1850 1.368 1_554 S
C1831 H1855 0.949 . S
H1832 C1836 0.949 . S
C1833 C1834 1.349 . S
C1833 C1835 1.327 . S
C1833 H1856 0.950 . S
C1834 C1833 1.349 . S
C1834 C1846 1.349 . S
C1835 C1833 1.327 . S
C1835 C1851 1.429 . S
C1835 H1857 0.950 . S
C1836 H1832 0.949 . S
C1836 C1844 1.574 . S
C1836 C1852 1.368 1_556 S
H1837 C1845 0.950 . S
H1838 C1843 0.950 . S
H1839 C1844 0.949 . S
H1840 C1846 0.950 . S
H1841 C1847 0.950 . S
H1842 C1848 0.949 . S
C1843 H1838 0.950 . S
C1843 C1845 1.327 . S
C1843 C1849 1.429 . S
C1844 C1836 1.574 . S
C1844 H1839 0.949 . S
C1844 C1850 1.368 . S
C1845 C1829 1.349 . S
C1845 H1837 0.950 . S
C1845 C1843 1.327 . S
C1846 C1834 1.349 . S
C1846 H1840 0.950 . S
C1846 C1847 1.327 . S
C1847 H1841 0.950 . S
C1847 C1846 1.327 . S
C1847 C1851 1.429 . S
C1848 C1831 1.574 . S
C1848 H1842 0.949 . S
C1848 C1852 1.368 . S
C1849 C1830 1.429 . S
C1849 C1843 1.429 . S
C1849 C1850 1.523 . S
C1850 C1831 1.368 1_556 S
C1850 C1844 1.368 . S
C1850 C1849 1.523 . S
C1851 C1835 1.429 . S
C1851 C1847 1.429 . S
C1851 C1852 1.523 . S
C1852 C1836 1.368 1_554 S
C1852 C1848 1.368 . S
C1852 C1851 1.523 . S
H1853 C1828 0.950 . S
H1854 C1830 0.950 . S
H1855 C1831 0.949 . S
H1856 C1833 0.950 . S
H1857 C1835 0.950 . S
C1858 C1859 1.349 . S
C1858 C1860 1.327 . S
C1858 H1883 0.950 . S
C1859 C1858 1.349 . S
C1859 C1875 1.349 . S
C1860 C1858 1.327 . S
C1860 C1879 1.429 . S
C1860 H1884 0.950 . S
C1861 C1878 1.574 . S
C1861 C1880 1.368 . S
C1861 H1885 0.949 . S
H1862 C1866 0.949 . S
C1863 C1864 1.349 . S
C1863 C1865 1.327 . S
C1863 H1886 0.950 . S
C1864 C1863 1.349 . S
C1864 C1876 1.349 . S
C1865 C1863 1.327 . S
C1865 C1881 1.429 . S
C1865 H1887 0.950 . S
C1866 H1862 0.949 . S
C1866 C1874 1.574 . S
C1866 C1882 1.368 . S
H1867 C1875 0.950 . S
H1868 C1873 0.950 . S
H1869 C1874 0.949 . S
H1870 C1876 0.950 . S
H1871 C1877 0.950 . S
H1872 C1878 0.949 . S
C1873 H1868 0.950 . S
C1873 C1875 1.327 . S
C1873 C1879 1.429 . S
C1874 C1866 1.574 . S
C1874 H1869 0.949 . S
C1874 C1880 1.368 . S
C1875 C1859 1.349 . S
C1875 H1867 0.950 . S
C1875 C1873 1.327 . S
C1876 C1864 1.349 . S
C1876 H1870 0.950 . S
C1876 C1877 1.327 . S
C1877 H1871 0.950 . S
C1877 C1876 1.327 . S
C1877 C1881 1.429 . S
C1878 C1861 1.574 . S
C1878 H1872 0.949 . S
C1878 C1882 1.368 . S
C1879 C1860 1.429 . S
C1879 C1873 1.429 . S
C1879 C1880 1.523 . S
C1880 C1861 1.368 . S
C1880 C1874 1.368 . S
C1880 C1879 1.523 . S
C1881 C1865 1.429 . S
C1881 C1877 1.429 . S
C1881 C1882 1.523 . S
C1882 C1866 1.368 . S
C1882 C1878 1.368 . S
C1882 C1881 1.523 . S
H1883 C1858 0.950 . S
H1884 C1860 0.950 . S
H1885 C1861 0.949 . S
H1886 C1863 0.950 . S
H1887 C1865 0.950 . S
C1888 C1889 1.349 . S
C1888 C1890 1.327 . S
C1888 H1913 0.950 . S
C1889 C1888 1.349 . S
C1889 C1905 1.349 . S
C1890 C1888 1.327 . S
C1890 C1909 1.429 . S
C1890 H1914 0.950 . S
C1891 C1908 1.574 . S
C1891 C1910 1.368 . S
C1891 H1915 0.949 . S
H1892 C1896 0.949 . S
C1893 C1894 1.349 . S
C1893 C1895 1.327 . S
C1893 H1916 0.950 . S
C1894 C1893 1.349 . S
C1894 C1906 1.349 . S
C1895 C1893 1.327 . S
C1895 C1911 1.429 . S
C1895 H1917 0.950 . S
C1896 H1892 0.949 . S
C1896 C1904 1.574 . S
C1896 C1912 1.368 . S
H1897 C1905 0.950 . S
H1898 C1903 0.950 . S
H1899 C1904 0.949 . S
H1900 C1906 0.950 . S
H1901 C1907 0.950 . S
H1902 C1908 0.949 . S
C1903 H1898 0.950 . S
C1903 C1905 1.327 . S
C1903 C1909 1.429 . S
C1904 C1896 1.574 . S
C1904 H1899 0.949 . S
C1904 C1910 1.368 . S
C1905 C1889 1.349 . S
C1905 H1897 0.950 . S
C1905 C1903 1.327 . S
C1906 C1894 1.349 . S
C1906 H1900 0.950 . S
C1906 C1907 1.327 . S
C1907 H1901 0.950 . S
C1907 C1906 1.327 . S
C1907 C1911 1.429 . S
C1908 C1891 1.574 . S
C1908 H1902 0.949 . S
C1908 C1912 1.368 . S
C1909 C1890 1.429 . S
C1909 C1903 1.429 . S
C1909 C1910 1.523 . S
C1910 C1891 1.368 . S
C1910 C1904 1.368 . S
C1910 C1909 1.523 . S
C1911 C1895 1.429 . S
C1911 C1907 1.429 . S
C1911 C1912 1.523 . S
C1912 C1896 1.368 . S
C1912 C1908 1.368 . S
C1912 C1911 1.523 . S
H1913 C1888 0.950 . S
H1914 C1890 0.950 . S
H1915 C1891 0.949 . S
H1916 C1893 0.950 . S
H1917 C1895 0.950 . S
C1918 C1919 1.349 . S
C1918 C1920 1.327 . S
C1918 H1943 0.950 . S
C1919 C1918 1.349 . S
C1919 C1935 1.349 . S
C1920 C1918 1.327 . S
C1920 C1939 1.429 . S
C1920 H1944 0.950 . S
C1921 C1938 1.574 . S
C1921 C1940 1.368 . S
C1921 H1945 0.949 . S
H1922 C1926 0.949 . S
C1923 C1924 1.349 . S
C1923 C1925 1.327 . S
C1923 H1946 0.950 . S
C1924 C1923 1.349 . S
C1924 C1936 1.349 . S
C1925 C1923 1.327 . S
C1925 C1941 1.429 . S
C1925 H1947 0.950 . S
C1926 H1922 0.949 . S
C1926 C1934 1.574 . S
C1926 C1942 1.368 . S
H1927 C1935 0.950 . S
H1928 C1933 0.950 . S
H1929 C1934 0.949 . S
H1930 C1936 0.950 . S
H1931 C1937 0.950 . S
H1932 C1938 0.949 . S
C1933 H1928 0.950 . S
C1933 C1935 1.327 . S
C1933 C1939 1.429 . S
C1934 C1926 1.574 . S
C1934 H1929 0.949 . S
C1934 C1940 1.368 . S
C1935 C1919 1.349 . S
C1935 H1927 0.950 . S
C1935 C1933 1.327 . S
C1936 C1924 1.349 . S
C1936 H1930 0.950 . S
C1936 C1937 1.327 . S
C1937 H1931 0.950 . S
C1937 C1936 1.327 . S
C1937 C1941 1.429 . S
C1938 C1921 1.574 . S
C1938 H1932 0.949 . S
C1938 C1942 1.368 . S
C1939 C1920 1.429 . S
C1939 C1933 1.429 . S
C1939 C1940 1.523 . S
C1940 C1921 1.368 . S
C1940 C1934 1.368 . S
C1940 C1939 1.523 . S
C1941 C1925 1.429 . S
C1941 C1937 1.429 . S
C1941 C1942 1.523 . S
C1942 C1926 1.368 . S
C1942 C1938 1.368 . S
C1942 C1941 1.523 . S
H1943 C1918 0.950 . S
H1944 C1920 0.950 . S
H1945 C1921 0.949 . S
H1946 C1923 0.950 . S
H1947 C1925 0.950 . S
C1948 C1949 1.349 . S
C1948 C1950 1.327 . S
C1948 H1973 0.950 . S
C1949 C1948 1.349 . S
C1949 C1965 1.349 . S
C1950 C1948 1.327 . S
C1950 C1969 1.429 . S
C1950 H1974 0.950 . S
C1951 C1968 1.574 . S
C1951 C1970 1.368 . S
C1951 H1975 0.949 . S
H1952 C1956 0.949 . S
C1953 C1954 1.349 . S
C1953 C1955 1.327 . S
C1953 H1976 0.950 . S
C1954 C1953 1.349 . S
C1954 C1966 1.349 . S
C1955 C1953 1.327 . S
C1955 C1971 1.429 . S
C1955 H1977 0.950 . S
C1956 H1952 0.949 . S
C1956 C1964 1.574 . S
C1956 C1972 1.368 . S
H1957 C1965 0.950 . S
H1958 C1963 0.950 . S
H1959 C1964 0.949 . S
H1960 C1966 0.950 . S
H1961 C1967 0.950 . S
H1962 C1968 0.949 . S
C1963 H1958 0.950 . S
C1963 C1965 1.327 . S
C1963 C1969 1.429 . S
C1964 C1956 1.574 . S
C1964 H1959 0.949 . S
C1964 C1970 1.368 . S
C1965 C1949 1.349 . S
C1965 H1957 0.950 . S
C1965 C1963 1.327 . S
C1966 C1954 1.349 . S
C1966 H1960 0.950 . S
C1966 C1967 1.327 . S
C1967 H1961 0.950 . S
C1967 C1966 1.327 . S
C1967 C1971 1.429 . S
C1968 C1951 1.574 . S
C1968 H1962 0.949 . S
C1968 C1972 1.368 . S
C1969 C1950 1.429 . S
C1969 C1963 1.429 . S
C1969 C1970 1.523 . S
C1970 C1951 1.368 . S
C1970 C1964 1.368 . S
C1970 C1969 1.523 . S
C1971 C1955 1.429 . S
C1971 C1967 1.429 . S
C1971 C1972 1.523 . S
C1972 C1956 1.368 . S
C1972 C1968 1.368 . S
C1972 C1971 1.523 . S
H1973 C1948 0.950 . S
H1974 C1950 0.950 . S
H1975 C1951 0.949 . S
H1976 C1953 0.950 . S
H1977 C1955 0.950 . S
C1978 C1979 1.349 . S
C1978 C1980 1.327 . S
C1978 H2003 0.950 . S
C1979 C1978 1.349 . S
C1979 C1995 1.349 . S
C1980 C1978 1.327 . S
C1980 C1999 1.429 . S
C1980 H2004 0.950 . S
C1981 C1998 1.574 . S
C1981 C2000 1.368 . S
C1981 H2005 0.949 . S
H1982 C1986 0.949 . S
C1983 C1984 1.349 . S
C1983 C1985 1.327 . S
C1983 H2006 0.950 . S
C1984 C1983 1.349 . S
C1984 C1996 1.349 . S
C1985 C1983 1.327 . S
C1985 C2001 1.429 . S
C1985 H2007 0.950 . S
C1986 H1982 0.949 . S
C1986 C1994 1.574 . S
C1986 C2002 1.368 . S
H1987 C1995 0.950 . S
H1988 C1993 0.950 . S
H1989 C1994 0.949 . S
H1990 C1996 0.950 . S
H1991 C1997 0.950 . S
H1992 C1998 0.949 . S
C1993 H1988 0.950 . S
C1993 C1995 1.327 . S
C1993 C1999 1.429 . S
C1994 C1986 1.574 . S
C1994 H1989 0.949 . S
C1994 C2000 1.368 . S
C1995 C1979 1.349 . S
C1995 H1987 0.950 . S
C1995 C1993 1.327 . S
C1996 C1984 1.349 . S
C1996 H1990 0.950 . S
C1996 C1997 1.327 . S
C1997 H1991 0.950 . S
C1997 C1996 1.327 . S
C1997 C2001 1.429 . S
C1998 C1981 1.574 . S
C1998 H1992 0.949 . S
C1998 C2002 1.368 . S
C1999 C1980 1.429 . S
C1999 C1993 1.429 . S
C1999 C2000 1.523 . S
C2000 C1981 1.368 . S
C2000 C1994 1.368 . S
C2000 C1999 1.523 . S
C2001 C1985 1.429 . S
C2001 C1997 1.429 . S
C2001 C2002 1.523 . S
C2002 C1986 1.368 . S
C2002 C1998 1.368 . S
C2002 C2001 1.523 . S
H2003 C1978 0.950 . S
H2004 C1980 0.950 . S
H2005 C1981 0.949 . S
H2006 C1983 0.950 . S
H2007 C1985 0.950 . S
C2008 C2009 1.349 . S
C2008 C2010 1.327 . S
C2008 H2033 0.950 . S
C2009 C2008 1.349 . S
C2009 C2025 1.349 . S
C2010 C2008 1.327 . S
C2010 C2029 1.429 . S
C2010 H2034 0.950 . S
C2011 C2028 1.574 . S
C2011 C2030 1.368 . S
C2011 H2035 0.949 . S
H2012 C2016 0.949 . S
C2013 C2014 1.349 . S
C2013 C2015 1.327 . S
C2013 H2036 0.950 . S
C2014 C2013 1.349 . S
C2014 C2026 1.349 . S
C2015 C2013 1.327 . S
C2015 C2031 1.429 . S
C2015 H2037 0.950 . S
C2016 H2012 0.949 . S
C2016 C2024 1.574 . S
C2016 C2032 1.368 . S
H2017 C2025 0.950 . S
H2018 C2023 0.950 . S
H2019 C2024 0.949 . S
H2020 C2026 0.950 . S
H2021 C2027 0.950 . S
H2022 C2028 0.949 . S
C2023 H2018 0.950 . S
C2023 C2025 1.327 . S
C2023 C2029 1.429 . S
C2024 C2016 1.574 . S
C2024 H2019 0.949 . S
C2024 C2030 1.368 . S
C2025 C2009 1.349 . S
C2025 H2017 0.950 . S
C2025 C2023 1.327 . S
C2026 C2014 1.349 . S
C2026 H2020 0.950 . S
C2026 C2027 1.327 . S
C2027 H2021 0.950 . S
C2027 C2026 1.327 . S
C2027 C2031 1.429 . S
C2028 C2011 1.574 . S
C2028 H2022 0.949 . S
C2028 C2032 1.368 . S
C2029 C2010 1.429 . S
C2029 C2023 1.429 . S
C2029 C2030 1.523 . S
C2030 C2011 1.368 . S
C2030 C2024 1.368 . S
C2030 C2029 1.523 . S
C2031 C2015 1.429 . S
C2031 C2027 1.429 . S
C2031 C2032 1.523 . S
C2032 C2016 1.368 . S
C2032 C2028 1.368 . S
C2032 C2031 1.523 . S
H2033 C2008 0.950 . S
H2034 C2010 0.950 . S
H2035 C2011 0.949 . S
H2036 C2013 0.950 . S
H2037 C2015 0.950 . S
C2038 C2039 1.349 . S
C2038 C2040 1.327 . S
C2038 H2063 0.950 . S
C2039 C2038 1.349 . S
C2039 C2055 1.349 . S
C2040 C2038 1.327 . S
C2040 C2059 1.429 . S
C2040 H2064 0.950 . S
C2041 C2058 1.574 . S
C2041 C2060 1.368 . S
C2041 H2065 0.949 . S
H2042 C2046 0.949 . S
C2043 C2044 1.349 . S
C2043 C2045 1.327 . S
C2043 H2066 0.950 . S
C2044 C2043 1.349 . S
C2044 C2056 1.349 . S
C2045 C2043 1.327 . S
C2045 C2061 1.429 . S
C2045 H2067 0.950 . S
C2046 H2042 0.949 . S
C2046 C2054 1.574 . S
C2046 C2062 1.368 . S
H2047 C2055 0.950 . S
H2048 C2053 0.950 . S
H2049 C2054 0.949 . S
H2050 C2056 0.950 . S
H2051 C2057 0.950 . S
H2052 C2058 0.949 . S
C2053 H2048 0.950 . S
C2053 C2055 1.327 . S
C2053 C2059 1.429 . S
C2054 C2046 1.574 . S
C2054 H2049 0.949 . S
C2054 C2060 1.368 . S
C2055 C2039 1.349 . S
C2055 H2047 0.950 . S
C2055 C2053 1.327 . S
C2056 C2044 1.349 . S
C2056 H2050 0.950 . S
C2056 C2057 1.327 . S
C2057 H2051 0.950 . S
C2057 C2056 1.327 . S
C2057 C2061 1.429 . S
C2058 C2041 1.574 . S
C2058 H2052 0.949 . S
C2058 C2062 1.368 . S
C2059 C2040 1.429 . S
C2059 C2053 1.429 . S
C2059 C2060 1.523 . S
C2060 C2041 1.368 . S
C2060 C2054 1.368 . S
C2060 C2059 1.523 . S
C2061 C2045 1.429 . S
C2061 C2057 1.429 . S
C2061 C2062 1.523 . S
C2062 C2046 1.368 . S
C2062 C2058 1.368 . S
C2062 C2061 1.523 . S
H2063 C2038 0.950 . S
H2064 C2040 0.950 . S
H2065 C2041 0.949 . S
H2066 C2043 0.950 . S
H2067 C2045 0.950 . S
C2068 C2069 1.349 . S
C2068 C2070 1.327 . S
C2068 H2093 0.950 . S
C2069 C2068 1.349 . S
C2069 C2085 1.349 . S
C2070 C2068 1.327 . S
C2070 C2089 1.429 . S
C2070 H2094 0.950 . S
C2071 C2088 1.574 . S
C2071 C2090 1.368 . S
C2071 H2095 0.949 . S
H2072 C2076 0.949 . S
C2073 C2074 1.349 . S
C2073 C2075 1.327 . S
C2073 H2096 0.950 . S
C2074 C2073 1.349 . S
C2074 C2086 1.349 . S
C2075 C2073 1.327 . S
C2075 C2091 1.429 . S
C2075 H2097 0.950 . S
C2076 H2072 0.949 . S
C2076 C2084 1.574 . S
C2076 C2092 1.368 . S
H2077 C2085 0.950 . S
H2078 C2083 0.950 . S
H2079 C2084 0.949 . S
H2080 C2086 0.950 . S
H2081 C2087 0.950 . S
H2082 C2088 0.949 . S
C2083 H2078 0.950 . S
C2083 C2085 1.327 . S
C2083 C2089 1.429 . S
C2084 C2076 1.574 . S
C2084 H2079 0.949 . S
C2084 C2090 1.368 . S
C2085 C2069 1.349 . S
C2085 H2077 0.950 . S
C2085 C2083 1.327 . S
C2086 C2074 1.349 . S
C2086 H2080 0.950 . S
C2086 C2087 1.327 . S
C2087 H2081 0.950 . S
C2087 C2086 1.327 . S
C2087 C2091 1.429 . S
C2088 C2071 1.574 . S
C2088 H2082 0.949 . S
C2088 C2092 1.368 . S
C2089 C2070 1.429 . S
C2089 C2083 1.429 . S
C2089 C2090 1.523 . S
C2090 C2071 1.368 . S
C2090 C2084 1.368 . S
C2090 C2089 1.523 . S
C2091 C2075 1.429 . S
C2091 C2087 1.429 . S
C2091 C2092 1.523 . S
C2092 C2076 1.368 . S
C2092 C2088 1.368 . S
C2092 C2091 1.523 . S
H2093 C2068 0.950 . S
H2094 C2070 0.950 . S
H2095 C2071 0.949 . S
H2096 C2073 0.950 . S
H2097 C2075 0.950 . S
C2098 C2099 1.349 . S
C2098 C2100 1.327 . S
C2098 H2123 0.950 . S
C2099 C2098 1.349 . S
C2099 C2115 1.349 . S
C2100 C2098 1.327 . S
C2100 C2119 1.429 . S
C2100 H2124 0.950 . S
C2101 C2118 1.574 . S
C2101 C2120 1.368 . S
C2101 H2125 0.949 . S
H2102 C2106 0.949 . S
C2103 C2104 1.349 . S
C2103 C2105 1.327 . S
C2103 H2126 0.950 . S
C2104 C2103 1.349 . S
C2104 C2116 1.349 . S
C2105 C2103 1.327 . S
C2105 C2121 1.429 . S
C2105 H2127 0.950 . S
C2106 H2102 0.949 . S
C2106 C2114 1.574 . S
C2106 C2122 1.368 . S
H2107 C2115 0.950 . S
H2108 C2113 0.950 . S
H2109 C2114 0.949 . S
H2110 C2116 0.950 . S
H2111 C2117 0.950 . S
H2112 C2118 0.949 . S
C2113 H2108 0.950 . S
C2113 C2115 1.327 . S
C2113 C2119 1.429 . S
C2114 C2106 1.574 . S
C2114 H2109 0.949 . S
C2114 C2120 1.368 . S
C2115 C2099 1.349 . S
C2115 H2107 0.950 . S
C2115 C2113 1.327 . S
C2116 C2104 1.349 . S
C2116 H2110 0.950 . S
C2116 C2117 1.327 . S
C2117 H2111 0.950 . S
C2117 C2116 1.327 . S
C2117 C2121 1.429 . S
C2118 C2101 1.574 . S
C2118 H2112 0.949 . S
C2118 C2122 1.368 . S
C2119 C2100 1.429 . S
C2119 C2113 1.429 . S
C2119 C2120 1.523 . S
C2120 C2101 1.368 . S
C2120 C2114 1.368 . S
C2120 C2119 1.523 . S
C2121 C2105 1.429 . S
C2121 C2117 1.429 . S
C2121 C2122 1.523 . S
C2122 C2106 1.368 . S
C2122 C2118 1.368 . S
C2122 C2121 1.523 . S
H2123 C2098 0.950 . S
H2124 C2100 0.950 . S
H2125 C2101 0.949 . S
H2126 C2103 0.950 . S
H2127 C2105 0.950 . S
C2128 C2129 1.349 . S
C2128 C2130 1.327 . S
C2128 H2153 0.950 . S
C2129 C2128 1.349 . S
C2129 C2145 1.349 . S
C2130 C2128 1.327 . S
C2130 C2149 1.429 . S
C2130 H2154 0.950 . S
C2131 C2148 1.574 . S
C2131 C2150 1.368 . S
C2131 H2155 0.949 . S
H2132 C2136 0.949 . S
C2133 C2134 1.349 . S
C2133 C2135 1.327 . S
C2133 H2156 0.950 . S
C2134 C2133 1.349 . S
C2134 C2146 1.349 . S
C2135 C2133 1.327 . S
C2135 C2151 1.429 . S
C2135 H2157 0.950 . S
C2136 H2132 0.949 . S
C2136 C2144 1.574 . S
C2136 C2152 1.368 . S
H2137 C2145 0.950 . S
H2138 C2143 0.950 . S
H2139 C2144 0.949 . S
H2140 C2146 0.950 . S
H2141 C2147 0.950 . S
H2142 C2148 0.949 . S
C2143 H2138 0.950 . S
C2143 C2145 1.327 . S
C2143 C2149 1.429 . S
C2144 C2136 1.574 . S
C2144 H2139 0.949 . S
C2144 C2150 1.368 . S
C2145 C2129 1.349 . S
C2145 H2137 0.950 . S
C2145 C2143 1.327 . S
C2146 C2134 1.349 . S
C2146 H2140 0.950 . S
C2146 C2147 1.327 . S
C2147 H2141 0.950 . S
C2147 C2146 1.327 . S
C2147 C2151 1.429 . S
C2148 C2131 1.574 . S
C2148 H2142 0.949 . S
C2148 C2152 1.368 . S
C2149 C2130 1.429 . S
C2149 C2143 1.429 . S
C2149 C2150 1.523 . S
C2150 C2131 1.368 . S
C2150 C2144 1.368 . S
C2150 C2149 1.523 . S
C2151 C2135 1.429 . S
C2151 C2147 1.429 . S
C2151 C2152 1.523 . S
C2152 C2136 1.368 . S
C2152 C2148 1.368 . S
C2152 C2151 1.523 . S
H2153 C2128 0.950 . S
H2154 C2130 0.950 . S
H2155 C2131 0.949 . S
H2156 C2133 0.950 . S
H2157 C2135 0.950 . S
C2158 C2159 1.349 . S
C2158 C2160 1.327 . S
C2158 H2183 0.950 . S
C2159 C2158 1.349 . S
C2159 C2175 1.349 . S
C2160 C2158 1.327 . S
C2160 C2179 1.429 . S
C2160 H2184 0.950 . S
C2161 C2178 1.574 . S
C2161 C2180 1.368 . S
C2161 H2185 0.949 . S
H2162 C2166 0.949 . S
C2163 C2164 1.349 . S
C2163 C2165 1.327 . S
C2163 H2186 0.950 . S
C2164 C2163 1.349 . S
C2164 C2176 1.349 . S
C2165 C2163 1.327 . S
C2165 C2181 1.429 . S
C2165 H2187 0.950 . S
C2166 H2162 0.949 . S
C2166 C2174 1.574 . S
C2166 C2182 1.368 . S
H2167 C2175 0.950 . S
H2168 C2173 0.950 . S
H2169 C2174 0.949 . S
H2170 C2176 0.950 . S
H2171 C2177 0.950 . S
H2172 C2178 0.949 . S
C2173 H2168 0.950 . S
C2173 C2175 1.327 . S
C2173 C2179 1.429 . S
C2174 C2166 1.574 . S
C2174 H2169 0.949 . S
C2174 C2180 1.368 . S
C2175 C2159 1.349 . S
C2175 H2167 0.950 . S
C2175 C2173 1.327 . S
C2176 C2164 1.349 . S
C2176 H2170 0.950 . S
C2176 C2177 1.327 . S
C2177 H2171 0.950 . S
C2177 C2176 1.327 . S
C2177 C2181 1.429 . S
C2178 C2161 1.574 . S
C2178 H2172 0.949 . S
C2178 C2182 1.368 . S
C2179 C2160 1.429 . S
C2179 C2173 1.429 . S
C2179 C2180 1.523 . S
C2180 C2161 1.368 . S
C2180 C2174 1.368 . S
C2180 C2179 1.523 . S
C2181 C2165 1.429 . S
C2181 C2177 1.429 . S
C2181 C2182 1.523 . S
C2182 C2166 1.368 . S
C2182 C2178 1.368 . S
C2182 C2181 1.523 . S
H2183 C2158 0.950 . S
H2184 C2160 0.950 . S
H2185 C2161 0.949 . S
H2186 C2163 0.950 . S
H2187 C2165 0.950 . S
C2188 C2189 1.349 . S
C2188 C2190 1.327 . S
C2188 H2213 0.950 . S
C2189 C2188 1.349 . S
C2189 C2205 1.349 . S
C2190 C2188 1.327 . S
C2190 C2209 1.429 . S
C2190 H2214 0.950 . S
C2191 C2208 1.574 . S
C2191 C2210 1.368 . S
C2191 H2215 0.949 . S
H2192 C2196 0.949 . S
C2193 C2194 1.349 . S
C2193 C2195 1.327 . S
C2193 H2216 0.950 . S
C2194 C2193 1.349 . S
C2194 C2206 1.349 . S
C2195 C2193 1.327 . S
C2195 C2211 1.429 . S
C2195 H2217 0.950 . S
C2196 H2192 0.949 . S
C2196 C2204 1.574 . S
C2196 C2212 1.368 . S
H2197 C2205 0.950 . S
H2198 C2203 0.950 . S
H2199 C2204 0.949 . S
H2200 C2206 0.950 . S
H2201 C2207 0.950 . S
H2202 C2208 0.949 . S
C2203 H2198 0.950 . S
C2203 C2205 1.327 . S
C2203 C2209 1.429 . S
C2204 C2196 1.574 . S
C2204 H2199 0.949 . S
C2204 C2210 1.368 . S
C2205 C2189 1.349 . S
C2205 H2197 0.950 . S
C2205 C2203 1.327 . S
C2206 C2194 1.349 . S
C2206 H2200 0.950 . S
C2206 C2207 1.327 . S
C2207 H2201 0.950 . S
C2207 C2206 1.327 . S
C2207 C2211 1.429 . S
C2208 C2191 1.574 . S
C2208 H2202 0.949 . S
C2208 C2212 1.368 . S
C2209 C2190 1.429 . S
C2209 C2203 1.429 . S
C2209 C2210 1.523 . S
C2210 C2191 1.368 . S
C2210 C2204 1.368 . S
C2210 C2209 1.523 . S
C2211 C2195 1.429 . S
C2211 C2207 1.429 . S
C2211 C2212 1.523 . S
C2212 C2196 1.368 . S
C2212 C2208 1.368 . S
C2212 C2211 1.523 . S
H2213 C2188 0.950 . S
H2214 C2190 0.950 . S
H2215 C2191 0.949 . S
H2216 C2193 0.950 . S
H2217 C2195 0.950 . S
C2218 C2219 1.349 . S
C2218 C2220 1.327 . S
C2218 H2243 0.950 . S
C2219 C2218 1.349 . S
C2219 C2235 1.349 . S
C2220 C2218 1.327 . S
C2220 C2239 1.429 . S
C2220 H2244 0.950 . S
C2221 C2238 1.574 . S
C2221 C2240 1.368 . S
C2221 H2245 0.949 . S
H2222 C2226 0.949 . S
C2223 C2224 1.349 . S
C2223 C2225 1.327 . S
C2223 H2246 0.950 . S
C2224 C2223 1.349 . S
C2224 C2236 1.349 . S
C2225 C2223 1.327 . S
C2225 C2241 1.429 . S
C2225 H2247 0.950 . S
C2226 H2222 0.949 . S
C2226 C2234 1.574 . S
C2226 C2242 1.368 . S
H2227 C2235 0.950 . S
H2228 C2233 0.950 . S
H2229 C2234 0.949 . S
H2230 C2236 0.950 . S
H2231 C2237 0.950 . S
H2232 C2238 0.949 . S
C2233 H2228 0.950 . S
C2233 C2235 1.327 . S
C2233 C2239 1.429 . S
C2234 C2226 1.574 . S
C2234 H2229 0.949 . S
C2234 C2240 1.368 . S
C2235 C2219 1.349 . S
C2235 H2227 0.950 . S
C2235 C2233 1.327 . S
C2236 C2224 1.349 . S
C2236 H2230 0.950 . S
C2236 C2237 1.327 . S
C2237 H2231 0.950 . S
C2237 C2236 1.327 . S
C2237 C2241 1.429 . S
C2238 C2221 1.574 . S
C2238 H2232 0.949 . S
C2238 C2242 1.368 . S
C2239 C2220 1.429 . S
C2239 C2233 1.429 . S
C2239 C2240 1.523 . S
C2240 C2221 1.368 . S
C2240 C2234 1.368 . S
C2240 C2239 1.523 . S
C2241 C2225 1.429 . S
C2241 C2237 1.429 . S
C2241 C2242 1.523 . S
C2242 C2226 1.368 . S
C2242 C2238 1.368 . S
C2242 C2241 1.523 . S
H2243 C2218 0.950 . S
H2244 C2220 0.950 . S
H2245 C2221 0.949 . S
H2246 C2223 0.950 . S
H2247 C2225 0.950 . S
C2248 C2249 1.349 . S
C2248 C2250 1.327 . S
C2248 H2273 0.950 . S
C2249 C2248 1.349 . S
C2249 C2265 1.349 . S
C2250 C2248 1.327 . S
C2250 C2269 1.429 . S
C2250 H2274 0.950 . S
C2251 C2268 1.574 . S
C2251 C2270 1.368 . S
C2251 H2275 0.949 . S
H2252 C2256 0.949 . S
C2253 C2254 1.349 . S
C2253 C2255 1.327 . S
C2253 H2276 0.950 . S
C2254 C2253 1.349 . S
C2254 C2266 1.349 . S
C2255 C2253 1.327 . S
C2255 C2271 1.429 . S
C2255 H2277 0.950 . S
C2256 H2252 0.949 . S
C2256 C2264 1.574 . S
C2256 C2272 1.368 . S
H2257 C2265 0.950 . S
H2258 C2263 0.950 . S
H2259 C2264 0.949 . S
H2260 C2266 0.950 . S
H2261 C2267 0.950 . S
H2262 C2268 0.949 . S
C2263 H2258 0.950 . S
C2263 C2265 1.327 . S
C2263 C2269 1.429 . S
C2264 C2256 1.574 . S
C2264 H2259 0.949 . S
C2264 C2270 1.368 . S
C2265 C2249 1.349 . S
C2265 H2257 0.950 . S
C2265 C2263 1.327 . S
C2266 C2254 1.349 . S
C2266 H2260 0.950 . S
C2266 C2267 1.327 . S
C2267 H2261 0.950 . S
C2267 C2266 1.327 . S
C2267 C2271 1.429 . S
C2268 C2251 1.574 . S
C2268 H2262 0.949 . S
C2268 C2272 1.368 . S
C2269 C2250 1.429 . S
C2269 C2263 1.429 . S
C2269 C2270 1.523 . S
C2270 C2251 1.368 . S
C2270 C2264 1.368 . S
C2270 C2269 1.523 . S
C2271 C2255 1.429 . S
C2271 C2267 1.429 . S
C2271 C2272 1.523 . S
C2272 C2256 1.368 . S
C2272 C2268 1.368 . S
C2272 C2271 1.523 . S
H2273 C2248 0.950 . S
H2274 C2250 0.950 . S
H2275 C2251 0.949 . S
H2276 C2253 0.950 . S
H2277 C2255 0.950 . S
C2278 C2279 1.349 . S
C2278 C2280 1.327 . S
C2278 H2303 0.950 . S
C2279 C2278 1.349 . S
C2279 C2295 1.349 . S
C2280 C2278 1.327 . S
C2280 C2299 1.429 . S
C2280 H2304 0.950 . S
C2281 C2298 1.574 . S
C2281 C2300 1.368 . S
C2281 H2305 0.949 . S
H2282 C2286 0.949 . S
C2283 C2284 1.349 . S
C2283 C2285 1.327 . S
C2283 H2306 0.950 . S
C2284 C2283 1.349 . S
C2284 C2296 1.349 . S
C2285 C2283 1.327 . S
C2285 C2301 1.429 . S
C2285 H2307 0.950 . S
C2286 H2282 0.949 . S
C2286 C2294 1.574 . S
C2286 C2302 1.368 . S
H2287 C2295 0.950 . S
H2288 C2293 0.950 . S
H2289 C2294 0.949 . S
H2290 C2296 0.950 . S
H2291 C2297 0.950 . S
H2292 C2298 0.949 . S
C2293 H2288 0.950 . S
C2293 C2295 1.327 . S
C2293 C2299 1.429 . S
C2294 C2286 1.574 . S
C2294 H2289 0.949 . S
C2294 C2300 1.368 . S
C2295 C2279 1.349 . S
C2295 H2287 0.950 . S
C2295 C2293 1.327 . S
C2296 C2284 1.349 . S
C2296 H2290 0.950 . S
C2296 C2297 1.327 . S
C2297 H2291 0.950 . S
C2297 C2296 1.327 . S
C2297 C2301 1.429 . S
C2298 C2281 1.574 . S
C2298 H2292 0.949 . S
C2298 C2302 1.368 . S
C2299 C2280 1.429 . S
C2299 C2293 1.429 . S
C2299 C2300 1.523 . S
C2300 C2281 1.368 . S
C2300 C2294 1.368 . S
C2300 C2299 1.523 . S
C2301 C2285 1.429 . S
C2301 C2297 1.429 . S
C2301 C2302 1.523 . S
C2302 C2286 1.368 . S
C2302 C2298 1.368 . S
C2302 C2301 1.523 . S
H2303 C2278 0.950 . S
H2304 C2280 0.950 . S
H2305 C2281 0.949 . S
H2306 C2283 0.950 . S
H2307 C2285 0.950 . S
C2308 C2309 1.349 . S
C2308 C2310 1.327 . S
C2308 H2333 0.950 . S
C2309 C2308 1.349 . S
C2309 C2325 1.349 . S
C2310 C2308 1.327 . S
C2310 C2329 1.429 . S
C2310 H2334 0.950 . S
C2311 C2328 1.574 . S
C2311 C2330 1.368 . S
C2311 H2335 0.949 . S
H2312 C2316 0.949 . S
C2313 C2314 1.349 . S
C2313 C2315 1.327 . S
C2313 H2336 0.950 . S
C2314 C2313 1.349 . S
C2314 C2326 1.349 . S
C2315 C2313 1.327 . S
C2315 C2331 1.429 . S
C2315 H2337 0.950 . S
C2316 H2312 0.949 . S
C2316 C2324 1.574 . S
C2316 C2332 1.368 . S
H2317 C2325 0.950 . S
H2318 C2323 0.950 . S
H2319 C2324 0.949 . S
H2320 C2326 0.950 . S
H2321 C2327 0.950 . S
H2322 C2328 0.949 . S
C2323 H2318 0.950 . S
C2323 C2325 1.327 . S
C2323 C2329 1.429 . S
C2324 C2316 1.574 . S
C2324 H2319 0.949 . S
C2324 C2330 1.368 . S
C2325 C2309 1.349 . S
C2325 H2317 0.950 . S
C2325 C2323 1.327 . S
C2326 C2314 1.349 . S
C2326 H2320 0.950 . S
C2326 C2327 1.327 . S
C2327 H2321 0.950 . S
C2327 C2326 1.327 . S
C2327 C2331 1.429 . S
C2328 C2311 1.574 . S
C2328 H2322 0.949 . S
C2328 C2332 1.368 . S
C2329 C2310 1.429 . S
C2329 C2323 1.429 . S
C2329 C2330 1.523 . S
C2330 C2311 1.368 . S
C2330 C2324 1.368 . S
C2330 C2329 1.523 . S
C2331 C2315 1.429 . S
C2331 C2327 1.429 . S
C2331 C2332 1.523 . S
C2332 C2316 1.368 . S
C2332 C2328 1.368 . S
C2332 C2331 1.523 . S
H2333 C2308 0.950 . S
H2334 C2310 0.950 . S
H2335 C2311 0.949 . S
H2336 C2313 0.950 . S
H2337 C2315 0.950 . S
C2338 C2339 1.349 . S
C2338 C2340 1.327 . S
C2338 H2363 0.950 . S
C2339 C2338 1.349 . S
C2339 C2355 1.349 . S
C2340 C2338 1.327 . S
C2340 C2359 1.429 . S
C2340 H2364 0.950 . S
C2341 C2358 1.574 . S
C2341 C2360 1.368 . S
C2341 H2365 0.949 . S
H2342 C2346 0.949 . S
C2343 C2344 1.349 . S
C2343 C2345 1.327 . S
C2343 H2366 0.950 . S
C2344 C2343 1.349 . S
C2344 C2356 1.349 . S
C2345 C2343 1.327 . S
C2345 C2361 1.429 . S
C2345 H2367 0.950 . S
C2346 H2342 0.949 . S
C2346 C2354 1.574 . S
C2346 C2362 1.368 . S
H2347 C2355 0.950 . S
H2348 C2353 0.950 . S
H2349 C2354 0.949 . S
H2350 C2356 0.950 . S
H2351 C2357 0.950 . S
H2352 C2358 0.949 . S
C2353 H2348 0.950 . S
C2353 C2355 1.327 . S
C2353 C2359 1.429 . S
C2354 C2346 1.574 . S
C2354 H2349 0.949 . S
C2354 C2360 1.368 . S
C2355 C2339 1.349 . S
C2355 H2347 0.950 . S
C2355 C2353 1.327 . S
C2356 C2344 1.349 . S
C2356 H2350 0.950 . S
C2356 C2357 1.327 . S
C2357 H2351 0.950 . S
C2357 C2356 1.327 . S
C2357 C2361 1.429 . S
C2358 C2341 1.574 . S
C2358 H2352 0.949 . S
C2358 C2362 1.368 . S
C2359 C2340 1.429 . S
C2359 C2353 1.429 . S
C2359 C2360 1.523 . S
C2360 C2341 1.368 . S
C2360 C2354 1.368 . S
C2360 C2359 1.523 . S
C2361 C2345 1.429 . S
C2361 C2357 1.429 . S
C2361 C2362 1.523 . S
C2362 C2346 1.368 . S
C2362 C2358 1.368 . S
C2362 C2361 1.523 . S
H2363 C2338 0.950 . S
H2364 C2340 0.950 . S
H2365 C2341 0.949 . S
H2366 C2343 0.950 . S
H2367 C2345 0.950 . S
C449 C125 1.496 . S
C454 C13 1.496 . S
C479 C363 1.496 . S
C484 C27 1.496 . S
C509 C153 1.496 . S
C514 C41 1.496 . S
C539 C391 1.496 . S
C544 C55 1.496 . S
C569 C181 1.496 . S
C574 C69 1.496 . S
C599 C83 1.496 . S
C604 C419 1.496 . S
C629 C97 1.496 . S
C634 C209 1.496 . S
C659 C111 1.496 . S
C664 C447 1.496 . S
C689 C251 1.496 . S
C694 C139 1.496 . S
C719 C279 1.496 . S
C724 C167 1.496 . S
C749 C195 1.496 . S
C754 C307 1.496 . S
C779 C223 1.496 . S
C784 C335 1.496 . S
C809 C237 1.496 . S
C814 C349 1.496 . S
C839 C377 1.496 . S
C844 C265 1.496 . S
C869 C293 1.496 . S
C874 C405 1.496 . S
C899 C433 1.496 . S
C904 C321 1.496 . S
C929 C260 1.207 . S
C934 C8 1.207 . S
C959 C274 1.207 . S
C964 C22 1.207 . S
C989 C36 1.207 . S
C994 C232 1.207 . S
C1019 C50 1.207 . S
C1024 C246 1.207 . S
C1049 C316 1.207 . S
C1054 C64 1.207 . S
C1079 C78 1.207 . S
C1084 C330 1.207 . S
C1109 C288 1.207 . S
C1114 C92 1.207 . S
C1139 C302 1.207 . S
C1144 C106 1.207 . S
C1169 C120 1.207 . S
C1174 C372 1.207 . S
C1199 C386 1.207 . S
C1204 C134 1.207 . S
C1229 C148 1.207 . S
C1234 C344 1.207 . S
C1259 C162 1.207 . S
C1264 C358 1.207 . S
C1289 C176 1.207 . S
C1294 C428 1.207 . S
C1319 C190 1.207 . S
C1324 C442 1.207 . S
C1349 C400 1.207 . S
C1354 C204 1.207 . S
C1379 C414 1.207 . S
C1384 C218 1.207 . S
C1409 C95 1.311 . S
C1414 C11 1.311 . S
C1439 C109 1.311 . S
C1444 C25 1.311 . S
C1469 C67 1.311 . S
C1474 C39 1.311 . S
C1499 C53 1.311 . S
C1504 C81 1.311 . S
C1529 C207 1.311 . S
C1534 C123 1.311 . S
C1559 C221 1.311 . S
C1564 C137 1.311 . S
C1589 C179 1.311 . S
C1594 C151 1.311 . S
C1619 C193 1.311 . S
C1624 C165 1.311 . S
C1649 C319 1.311 . S
C1654 C235 1.311 . S
C1679 C333 1.311 . S
C1684 C249 1.311 . S
C1709 C263 1.311 . S
C1714 C291 1.311 . S
C1739 C277 1.311 . S
C1744 C305 1.311 . S
C1769 C431 1.311 . S
C1774 C347 1.311 . S
C1799 C445 1.311 . S
C1804 C361 1.311 . S
C1829 C375 1.311 . S
C1834 C403 1.311 . S
C1859 C389 1.311 . S
C1864 C417 1.311 . S
C1889 C7 1.478 . S
C1894 C301 1.478 . S
C1919 C315 1.478 . S
C1924 C21 1.478 . S
C1949 C329 1.478 . S
C1954 C35 1.478 . S
C1979 C49 1.478 . S
C1984 C287 1.478 . S
C2009 C273 1.478 . S
C2014 C63 1.478 . S
C2039 C77 1.478 . S
C2044 C231 1.478 . S
C2069 C245 1.478 . S
C2074 C91 1.478 . S
C2099 C105 1.478 . S
C2104 C259 1.478 . S
C2129 C413 1.478 . S
C2134 C119 1.478 . S
C2159 C427 1.478 . S
C2164 C133 1.478 . S
C2189 C147 1.478 . S
C2194 C441 1.478 . S
C2219 C399 1.478 . S
C2224 C161 1.478 . S
C2249 C385 1.478 . S
C2254 C175 1.478 . S
C2279 C189 1.478 . S
C2284 C343 1.478 . S
C2309 C357 1.478 . S
C2314 C203 1.478 . S
C2339 C217 1.478 . S
C2344 C371 1.478 . S
