# Generated by pormake.
# Topology som, (6)-cn, num edge types: 1
# Building blocks:
#     Node 0, Type 0, BuildingBlock: BETDAH_clean_sbu_0, # of connection points: 6
#     Node 1, Type 0, BuildingBlock: BETDAH_clean_sbu_0, # of connection points: 6
#     Node 2, Type 0, BuildingBlock: BETDAH_clean_sbu_0, # of connection points: 6
#     Node 3, Type 0, BuildingBlock: BETDAH_clean_sbu_0, # of connection points: 6
#     Node 4, Type 0, BuildingBlock: BETDAH_clean_sbu_0, # of connection points: 6
#     Node 5, Type 0, BuildingBlock: BETDAH_clean_sbu_0, # of connection points: 6
#     Node 6, Type 0, BuildingBlock: BETDAH_clean_sbu_0, # of connection points: 6
#     Node 7, Type 0, BuildingBlock: BETDAH_clean_sbu_0, # of connection points: 6
#     Node 8, Type 0, BuildingBlock: BETDAH_clean_sbu_0, # of connection points: 6
#     Node 9, Type 0, BuildingBlock: BETDAH_clean_sbu_0, # of connection points: 6
#     Node 10, Type 0, BuildingBlock: BETDAH_clean_sbu_0, # of connection points: 6
#     Node 11, Type 0, BuildingBlock: BETDAH_clean_sbu_0, # of connection points: 6
#     Node 12, Type 0, BuildingBlock: BETDAH_clean_sbu_0, # of connection points: 6
#     Node 13, Type 0, BuildingBlock: BETDAH_clean_sbu_0, # of connection points: 6
#     Node 14, Type 0, BuildingBlock: BETDAH_clean_sbu_0, # of connection points: 6
#     Node 15, Type 0, BuildingBlock: BETDAH_clean_sbu_0, # of connection points: 6
#     Node 16, Type 0, BuildingBlock: BETDAH_clean_sbu_0, # of connection points: 6
#     Node 17, Type 0, BuildingBlock: BETDAH_clean_sbu_0, # of connection points: 6
#     Node 18, Type 0, BuildingBlock: BETDAH_clean_sbu_0, # of connection points: 6
#     Node 19, Type 0, BuildingBlock: BETDAH_clean_sbu_0, # of connection points: 6
#     Node 20, Type 0, BuildingBlock: BETDAH_clean_sbu_0, # of connection points: 6
#     Node 21, Type 0, BuildingBlock: BETDAH_clean_sbu_0, # of connection points: 6
#     Node 22, Type 0, BuildingBlock: BETDAH_clean_sbu_0, # of connection points: 6
#     Node 23, Type 0, BuildingBlock: BETDAH_clean_sbu_0, # of connection points: 6
#     Node 24, Type 0, BuildingBlock: BETDAH_clean_sbu_0, # of connection points: 6
#     Node 25, Type 0, BuildingBlock: BETDAH_clean_sbu_0, # of connection points: 6
#     Node 26, Type 0, BuildingBlock: BETDAH_clean_sbu_0, # of connection points: 6
#     Node 27, Type 0, BuildingBlock: BETDAH_clean_sbu_0, # of connection points: 6
#     Node 28, Type 0, BuildingBlock: BETDAH_clean_sbu_0, # of connection points: 6
#     Node 29, Type 0, BuildingBlock: BETDAH_clean_sbu_0, # of connection points: 6
#     Node 30, Type 0, BuildingBlock: BETDAH_clean_sbu_0, # of connection points: 6
#     Node 31, Type 0, BuildingBlock: BETDAH_clean_sbu_0, # of connection points: 6
#     Edge 32, Type (0, 0), BuildingBlock: XIVTED_clean_linker_0, # of connection points: 2
#     Edge 33, Type (0, 0), BuildingBlock: XIVTED_clean_linker_0, # of connection points: 2
#     Edge 34, Type (0, 0), BuildingBlock: XIVTED_clean_linker_0, # of connection points: 2
#     Edge 35, Type (0, 0), BuildingBlock: XIVTED_clean_linker_0, # of connection points: 2
#     Edge 36, Type (0, 0), BuildingBlock: XIVTED_clean_linker_0, # of connection points: 2
#     Edge 37, Type (0, 0), BuildingBlock: XIVTED_clean_linker_0, # of connection points: 2
#     Edge 38, Type (0, 0), BuildingBlock: XIVTED_clean_linker_0, # of connection points: 2
#     Edge 39, Type (0, 0), BuildingBlock: XIVTED_clean_linker_0, # of connection points: 2
#     Edge 40, Type (0, 0), BuildingBlock: XIVTED_clean_linker_0, # of connection points: 2
#     Edge 41, Type (0, 0), BuildingBlock: XIVTED_clean_linker_0, # of connection points: 2
#     Edge 42, Type (0, 0), BuildingBlock: XIVTED_clean_linker_0, # of connection points: 2
#     Edge 43, Type (0, 0), BuildingBlock: XIVTED_clean_linker_0, # of connection points: 2
#     Edge 44, Type (0, 0), BuildingBlock: XIVTED_clean_linker_0, # of connection points: 2
#     Edge 45, Type (0, 0), BuildingBlock: XIVTED_clean_linker_0, # of connection points: 2
#     Edge 46, Type (0, 0), BuildingBlock: XIVTED_clean_linker_0, # of connection points: 2
#     Edge 47, Type (0, 0), BuildingBlock: XIVTED_clean_linker_0, # of connection points: 2
#     Edge 48, Type (0, 0), BuildingBlock: XIVTED_clean_linker_0, # of connection points: 2
#     Edge 49, Type (0, 0), BuildingBlock: XIVTED_clean_linker_0, # of connection points: 2
#     Edge 50, Type (0, 0), BuildingBlock: XIVTED_clean_linker_0, # of connection points: 2
#     Edge 51, Type (0, 0), BuildingBlock: XIVTED_clean_linker_0, # of connection points: 2
#     Edge 52, Type (0, 0), BuildingBlock: XIVTED_clean_linker_0, # of connection points: 2
#     Edge 53, Type (0, 0), BuildingBlock: XIVTED_clean_linker_0, # of connection points: 2
#     Edge 54, Type (0, 0), BuildingBlock: XIVTED_clean_linker_0, # of connection points: 2
#     Edge 55, Type (0, 0), BuildingBlock: XIVTED_clean_linker_0, # of connection points: 2
#     Edge 56, Type (0, 0), BuildingBlock: XIVTED_clean_linker_0, # of connection points: 2
#     Edge 57, Type (0, 0), BuildingBlock: XIVTED_clean_linker_0, # of connection points: 2
#     Edge 58, Type (0, 0), BuildingBlock: XIVTED_clean_linker_0, # of connection points: 2
#     Edge 59, Type (0, 0), BuildingBlock: XIVTED_clean_linker_0, # of connection points: 2
#     Edge 60, Type (0, 0), BuildingBlock: XIVTED_clean_linker_0, # of connection points: 2
#     Edge 61, Type (0, 0), BuildingBlock: XIVTED_clean_linker_0, # of connection points: 2
#     Edge 62, Type (0, 0), BuildingBlock: XIVTED_clean_linker_0, # of connection points: 2
#     Edge 63, Type (0, 0), BuildingBlock: XIVTED_clean_linker_0, # of connection points: 2
#     Edge 64, Type (0, 0), BuildingBlock: XIVTED_clean_linker_0, # of connection points: 2
#     Edge 65, Type (0, 0), BuildingBlock: XIVTED_clean_linker_0, # of connection points: 2
#     Edge 66, Type (0, 0), BuildingBlock: XIVTED_clean_linker_0, # of connection points: 2
#     Edge 67, Type (0, 0), BuildingBlock: XIVTED_clean_linker_0, # of connection points: 2
#     Edge 68, Type (0, 0), BuildingBlock: XIVTED_clean_linker_0, # of connection points: 2
#     Edge 69, Type (0, 0), BuildingBlock: XIVTED_clean_linker_0, # of connection points: 2
#     Edge 70, Type (0, 0), BuildingBlock: XIVTED_clean_linker_0, # of connection points: 2
#     Edge 71, Type (0, 0), BuildingBlock: XIVTED_clean_linker_0, # of connection points: 2
#     Edge 72, Type (0, 0), BuildingBlock: XIVTED_clean_linker_0, # of connection points: 2
#     Edge 73, Type (0, 0), BuildingBlock: XIVTED_clean_linker_0, # of connection points: 2
#     Edge 74, Type (0, 0), BuildingBlock: XIVTED_clean_linker_0, # of connection points: 2
#     Edge 75, Type (0, 0), BuildingBlock: XIVTED_clean_linker_0, # of connection points: 2
#     Edge 76, Type (0, 0), BuildingBlock: XIVTED_clean_linker_0, # of connection points: 2
#     Edge 77, Type (0, 0), BuildingBlock: XIVTED_clean_linker_0, # of connection points: 2
#     Edge 78, Type (0, 0), BuildingBlock: XIVTED_clean_linker_0, # of connection points: 2
#     Edge 79, Type (0, 0), BuildingBlock: XIVTED_clean_linker_0, # of connection points: 2
#     Edge 80, Type (0, 0), BuildingBlock: XIVTED_clean_linker_0, # of connection points: 2
#     Edge 81, Type (0, 0), BuildingBlock: XIVTED_clean_linker_0, # of connection points: 2
#     Edge 82, Type (0, 0), BuildingBlock: XIVTED_clean_linker_0, # of connection points: 2
#     Edge 83, Type (0, 0), BuildingBlock: XIVTED_clean_linker_0, # of connection points: 2
#     Edge 84, Type (0, 0), BuildingBlock: XIVTED_clean_linker_0, # of connection points: 2
#     Edge 85, Type (0, 0), BuildingBlock: XIVTED_clean_linker_0, # of connection points: 2
#     Edge 86, Type (0, 0), BuildingBlock: XIVTED_clean_linker_0, # of connection points: 2
#     Edge 87, Type (0, 0), BuildingBlock: XIVTED_clean_linker_0, # of connection points: 2
#     Edge 88, Type (0, 0), BuildingBlock: XIVTED_clean_linker_0, # of connection points: 2
#     Edge 89, Type (0, 0), BuildingBlock: XIVTED_clean_linker_0, # of connection points: 2
#     Edge 90, Type (0, 0), BuildingBlock: XIVTED_clean_linker_0, # of connection points: 2
#     Edge 91, Type (0, 0), BuildingBlock: XIVTED_clean_linker_0, # of connection points: 2
#     Edge 92, Type (0, 0), BuildingBlock: XIVTED_clean_linker_0, # of connection points: 2
#     Edge 93, Type (0, 0), BuildingBlock: XIVTED_clean_linker_0, # of connection points: 2
#     Edge 94, Type (0, 0), BuildingBlock: XIVTED_clean_linker_0, # of connection points: 2
#     Edge 95, Type (0, 0), BuildingBlock: XIVTED_clean_linker_0, # of connection points: 2
#     Edge 96, Type (0, 0), BuildingBlock: XIVTED_clean_linker_0, # of connection points: 2
#     Edge 97, Type (0, 0), BuildingBlock: XIVTED_clean_linker_0, # of connection points: 2
#     Edge 98, Type (0, 0), BuildingBlock: XIVTED_clean_linker_0, # of connection points: 2
#     Edge 99, Type (0, 0), BuildingBlock: XIVTED_clean_linker_0, # of connection points: 2
#     Edge 100, Type (0, 0), BuildingBlock: XIVTED_clean_linker_0, # of connection points: 2
#     Edge 101, Type (0, 0), BuildingBlock: XIVTED_clean_linker_0, # of connection points: 2
#     Edge 102, Type (0, 0), BuildingBlock: XIVTED_clean_linker_0, # of connection points: 2
#     Edge 103, Type (0, 0), BuildingBlock: XIVTED_clean_linker_0, # of connection points: 2
#     Edge 104, Type (0, 0), BuildingBlock: XIVTED_clean_linker_0, # of connection points: 2
#     Edge 105, Type (0, 0), BuildingBlock: XIVTED_clean_linker_0, # of connection points: 2
#     Edge 106, Type (0, 0), BuildingBlock: XIVTED_clean_linker_0, # of connection points: 2
#     Edge 107, Type (0, 0), BuildingBlock: XIVTED_clean_linker_0, # of connection points: 2
#     Edge 108, Type (0, 0), BuildingBlock: XIVTED_clean_linker_0, # of connection points: 2
#     Edge 109, Type (0, 0), BuildingBlock: XIVTED_clean_linker_0, # of connection points: 2
#     Edge 110, Type (0, 0), BuildingBlock: XIVTED_clean_linker_0, # of connection points: 2
#     Edge 111, Type (0, 0), BuildingBlock: XIVTED_clean_linker_0, # of connection points: 2
#     Edge 112, Type (0, 0), BuildingBlock: XIVTED_clean_linker_0, # of connection points: 2
#     Edge 113, Type (0, 0), BuildingBlock: XIVTED_clean_linker_0, # of connection points: 2
#     Edge 114, Type (0, 0), BuildingBlock: XIVTED_clean_linker_0, # of connection points: 2
#     Edge 115, Type (0, 0), BuildingBlock: XIVTED_clean_linker_0, # of connection points: 2
#     Edge 116, Type (0, 0), BuildingBlock: XIVTED_clean_linker_0, # of connection points: 2
#     Edge 117, Type (0, 0), BuildingBlock: XIVTED_clean_linker_0, # of connection points: 2
#     Edge 118, Type (0, 0), BuildingBlock: XIVTED_clean_linker_0, # of connection points: 2
#     Edge 119, Type (0, 0), BuildingBlock: XIVTED_clean_linker_0, # of connection points: 2
#     Edge 120, Type (0, 0), BuildingBlock: XIVTED_clean_linker_0, # of connection points: 2
#     Edge 121, Type (0, 0), BuildingBlock: XIVTED_clean_linker_0, # of connection points: 2
#     Edge 122, Type (0, 0), BuildingBlock: XIVTED_clean_linker_0, # of connection points: 2
#     Edge 123, Type (0, 0), BuildingBlock: XIVTED_clean_linker_0, # of connection points: 2
#     Edge 124, Type (0, 0), BuildingBlock: XIVTED_clean_linker_0, # of connection points: 2
#     Edge 125, Type (0, 0), BuildingBlock: XIVTED_clean_linker_0, # of connection points: 2
#     Edge 126, Type (0, 0), BuildingBlock: XIVTED_clean_linker_0, # of connection points: 2
#     Edge 127, Type (0, 0), BuildingBlock: XIVTED_clean_linker_0, # of connection points: 2
# Relax obj value: 0.061
# Max RMSD: 0.128
# Mean RMSD: 0.128
data_MOF--net-som--node1-BETDAH_clean_sbu_0--edge1-XIVTED_clean_linker_0
_symmetry_space_group_name_H-M    P1
_symmetry_Int_Tables_number       1
_symmetry_cell_setting            triclinic
loop_
_symmetry_equiv_pos_as_xyz
'x, y, z'
_cell_length_a     25.948629
_cell_length_b     55.803055
_cell_length_c     110.7171
_cell_angle_alpha  89.977792
_cell_angle_beta   89.927198
_cell_angle_gamma 90.083234
loop_
_atom_site_label
_atom_site_type_symbol
_atom_site_fract_x
_atom_site_fract_y
_atom_site_fract_z
_atom_type_partial_charge
Ho0 Ho 0.99098 0.49589 0.09656 0.0
Ho1 Ho 0.09576 0.47148 0.09613 0.0
C2 C 0.99692 0.43822 0.09867 0.0
C3 C 0.89735 0.51047 0.09316 0.0
C4 C 0.8431 0.50236 0.09395 0.0
C5 C 0.81323 0.50144 0.0834 0.0
C6 C 0.76052 0.49635 0.08398 0.0
C7 C 0.73633 0.49223 0.09516 0.0
C8 C 0.76651 0.49257 0.10571 0.0
C9 C 0.81934 0.49758 0.10512 0.0
C10 C 0.04171 0.49408 0.1179 0.0
C11 C 0.0864 0.52949 0.09236 0.0
C12 C 0.18879 0.45755 0.10088 0.0
C13 C 0.24326 0.46521 0.10002 0.0
C14 C 0.27296 0.46624 0.11059 0.0
C15 C 0.32579 0.47102 0.11002 0.0
C16 C 0.35024 0.47476 0.09883 0.0
C17 C 0.32019 0.4743 0.08826 0.0
C18 C 0.26723 0.46958 0.08884 0.0
C19 C 0.04857 0.47345 0.07438 0.0
O20 O 0.96917 0.4572 0.09588 0.0
O21 O 0.04696 0.43957 0.10081 0.0
O22 O 0.92264 0.51354 0.10325 0.0
O23 O 0.92582 0.50108 0.08463 0.0
O24 O 1.01488 0.51234 0.11436 0.0
O25 O 0.0385 0.47751 0.11022 0.0
O26 O 0.11663 0.51121 0.09531 0.0
O27 O 0.03669 0.52685 0.0905 0.0
O28 O 0.16462 0.45244 0.09084 0.0
O29 O 0.15966 0.46887 0.10864 0.0
O30 O 0.07708 0.45579 0.07801 0.0
O31 O 0.04896 0.48985 0.08224 0.0
H32 H 0.83041 0.50534 0.07469 0.0
H33 H 0.73839 0.49652 0.0757 0.0
H34 H 0.7492 0.48917 0.11446 0.0
H35 H 0.84121 0.49819 0.11344 0.0
H36 H 0.25549 0.4627 0.11931 0.0
H37 H 0.34778 0.47096 0.11833 0.0
H38 H 0.33769 0.47742 0.07951 0.0
H39 H 0.24538 0.46892 0.08052 0.0
Ho40 Ho 0.30817 0.72731 0.07849 0.0
Ho41 Ho 0.19686 0.75289 0.08113 0.0
C42 C 0.3012 0.78469 0.08372 0.0
C43 C 0.4006 0.7146 0.07234 0.0
C44 C 0.455 0.72237 0.07345 0.0
C45 C 0.48807 0.71959 0.06352 0.0
C46 C 0.54065 0.72487 0.06451 0.0
C47 C 0.56161 0.73301 0.0755 0.0
C48 C 0.52801 0.7364 0.08537 0.0
C49 C 0.47527 0.73115 0.08436 0.0
C50 C 0.2618 0.72684 0.10049 0.0
C51 C 0.20934 0.69557 0.07587 0.0
C52 C 0.1093 0.76603 0.09017 0.0
C53 C 0.05358 0.76297 0.08793 0.0
C54 C 1.01888 0.76648 0.09748 0.0
C55 C 0.96585 0.76352 0.09572 0.0
C56 C 0.94619 0.75695 0.08434 0.0
C57 C 0.9813 0.75333 0.07478 0.0
C58 C 0.03449 0.75629 0.07656 0.0
C59 C 0.22371 0.74721 0.05744 0.0
O60 O 0.3296 0.76582 0.08088 0.0
O61 O 0.25027 0.78386 0.08505 0.0
O62 O 0.37745 0.70722 0.08219 0.0
O63 O 0.37054 0.72744 0.0654 0.0
O64 O 0.2909 0.70959 0.09652 0.0
O65 O 0.26157 0.74368 0.09293 0.0
O66 O 0.18222 0.71293 0.08109 0.0
O67 O 0.25639 0.69886 0.07163 0.0
O68 O 0.1354 0.77895 0.08235 0.0
O69 O 0.1342 0.74684 0.09366 0.0
O70 O 0.18144 0.75745 0.061 0.0
O71 O 0.24786 0.74106 0.06677 0.0
H72 H 0.47332 0.71291 0.05501 0.0
H73 H 0.56492 0.72249 0.05664 0.0
H74 H 0.54264 0.74244 0.094 0.0
H75 H 0.45062 0.7335 0.09217 0.0
H76 H 0.03288 0.77143 0.10635 0.0
H77 H 0.94031 0.76603 0.10336 0.0
H78 H 0.96767 0.74849 0.06587 0.0
H79 H 0.06066 0.75339 0.06907 0.0
Ho80 Ho 0.99303 0.7267 0.19741 0.0
Ho81 Ho 0.10375 0.75202 0.1961 0.0
C82 C 1.00056 0.78439 0.19372 0.0
C83 C 0.89959 0.71308 0.20192 0.0
C84 C 0.84542 0.72051 0.19999 0.0
C85 C 0.82296 0.73918 0.20671 0.0
C86 C 0.7703 0.74422 0.20562 0.0
C87 C 0.73892 0.73066 0.19782 0.0
C88 C 0.76187 0.71247 0.19087 0.0
C89 C 0.81436 0.7074 0.19199 0.0
C90 C 0.04392 0.72634 0.17598 0.0
C91 C 0.0908 0.69549 0.20303 0.0
C92 C 0.19173 0.76506 0.18734 0.0
C93 C 0.24747 0.76092 0.18939 0.0
C94 C 0.27473 0.7455 0.18166 0.0
C95 C 0.32765 0.74199 0.18312 0.0
C96 C 0.35482 0.75401 0.19228 0.0
C97 C 0.32768 0.76957 0.19998 0.0
C98 C 0.27456 0.773 0.19856 0.0
C99 C 0.07346 0.74683 0.21948 0.0
O100 O 0.97154 0.76518 0.19545 0.0
O101 O 0.05168 0.78373 0.193 0.0
O102 O 0.92557 0.70622 0.19239 0.0
O103 O 0.92754 0.72561 0.20949 0.0
O104 O 1.01575 0.70864 0.17981 0.0
O105 O 0.04181 0.74329 0.18345 0.0
O106 O 0.12035 0.71214 0.19789 0.0
O107 O 0.04201 0.69913 0.20577 0.0
O108 O 0.16633 0.77766 0.1954 0.0
O109 O 0.16521 0.74675 0.18326 0.0
O110 O 0.11653 0.75686 0.21622 0.0
O111 O 0.05003 0.74059 0.21002 0.0
H112 H 0.84568 0.74954 0.21304 0.0
H113 H 0.7539 0.7582 0.2112 0.0
H114 H 0.73917 0.70195 0.18461 0.0
H115 H 0.83046 0.69281 0.18675 0.0
H116 H 0.25519 0.73628 0.17437 0.0
H117 H 0.3475 0.73021 0.17689 0.0
H118 H 0.34743 0.77897 0.20718 0.0
H119 H 0.25488 0.78519 0.20461 0.0
Ho120 Ho 0.31004 0.49489 0.21432 0.0
Ho121 Ho 0.20546 0.47048 0.21287 0.0
C122 C 0.30463 0.43784 0.20938 0.0
C123 C 0.40297 0.50856 0.21946 0.0
C124 C 0.45754 0.50126 0.21782 0.0
C125 C 0.48371 0.48917 0.22711 0.0
C126 C 0.53652 0.48445 0.22616 0.0
C127 C 0.56456 0.49184 0.21593 0.0
C128 C 0.53814 0.50353 0.20654 0.0
C129 C 0.48535 0.50826 0.20749 0.0
C130 C 0.26555 0.4941 0.19215 0.0
C131 C 0.21453 0.52841 0.21656 0.0
C132 C 0.11232 0.45731 0.2075 0.0
C133 C 0.0577 0.46419 0.20941 0.0
C134 C 0.03063 0.47622 0.20024 0.0
C135 C 0.97775 0.48053 0.20136 0.0
C136 C 0.95048 0.47278 0.21164 0.0
C137 C 0.9778 0.4612 0.22092 0.0
C138 C 0.03072 0.45689 0.21981 0.0
C139 C 0.24655 0.47214 0.23539 0.0
O140 O 0.33152 0.45588 0.21384 0.0
O141 O 0.2553 0.44013 0.20661 0.0
O142 O 0.37778 0.51569 0.20988 0.0
O143 O 0.3744 0.49565 0.22674 0.0
O144 O 0.29251 0.51194 0.19619 0.0
O145 O 0.26617 0.47734 0.19972 0.0
O146 O 0.1865 0.51023 0.21249 0.0
O147 O 0.26225 0.52543 0.22026 0.0
O148 O 0.13796 0.44899 0.21675 0.0
O149 O 0.14042 0.47129 0.20066 0.0
O150 O 0.21966 0.45442 0.23121 0.0
O151 O 0.24799 0.48864 0.22761 0.0
H152 H 0.46362 0.48377 0.23525 0.0
H153 H 0.55546 0.47514 0.2335 0.0
H154 H 0.55858 0.50979 0.19861 0.0
H155 H 0.46669 0.51795 0.20024 0.0
H156 H 0.05011 0.48185 0.19206 0.0
H157 H 0.95813 0.48979 0.1941 0.0
H158 H 0.95798 0.45471 0.2289 0.0
H159 H 0.05014 0.44726 0.22697 0.0
Ho160 Ho 0.95171 0.50404 0.96304 0.0
Ho161 Ho 0.05686 0.47923 0.96494 0.0
C162 C 0.96023 0.44602 0.96649 0.0
C163 C 0.85928 0.51749 0.95715 0.0
C164 C 0.80431 0.51098 0.95855 0.0
C165 C 0.77076 0.51497 0.94884 0.0
C166 C 0.71789 0.51059 0.95001 0.0
C167 C 0.69716 0.50208 0.96096 0.0
C168 C 0.73112 0.49768 0.97065 0.0
C169 C 0.78419 0.50205 0.96945 0.0
C170 C 0.99135 0.50203 0.98567 0.0
C171 C 0.0521 0.5363 0.96002 0.0
C172 C 0.14909 0.46534 0.97063 0.0
C173 C 0.20386 0.47253 0.96963 0.0
C174 C 0.23725 0.46745 0.97925 0.0
C175 C 0.29009 0.47217 0.97829 0.0
C176 C 0.3109 0.48203 0.96764 0.0
C177 C 0.27707 0.48762 0.95809 0.0
C178 C 0.22407 0.48296 0.95909 0.0
C179 C 1.01355 0.48022 0.94263 0.0
O180 O 0.93287 0.46437 0.96241 0.0
O181 O 1.00776 0.44867 0.97044 0.0
O182 O 0.88369 0.52521 0.96671 0.0
O183 O 0.88767 0.50344 0.95045 0.0
O184 O 0.9643 0.51971 0.98153 0.0
O185 O 0.9935 0.48566 0.97784 0.0
O186 O 0.07828 0.5182 0.96463 0.0
O187 O 1.00291 0.53422 0.95703 0.0
O188 O 0.12553 0.45906 0.96068 0.0
O189 O 0.11977 0.47798 0.97784 0.0
O190 O 0.04062 0.46244 0.94668 0.0
O191 O 1.01379 0.49689 0.95027 0.0
H192 H 0.78538 0.52196 0.94036 0.0
H193 H 0.69308 0.51452 0.94241 0.0
H194 H 0.71673 0.49083 0.97916 0.0
H195 H 0.80932 0.49873 0.97707 0.0
H196 H 0.22257 0.4593 0.98745 0.0
H197 H 0.31485 0.46737 0.98577 0.0
H198 H 0.29158 0.49554 0.94983 0.0
H199 H 0.19908 0.48717 0.95155 0.0
Ho200 Ho 0.84644 0.22243 0.94503 0.0
Ho201 Ho 0.74168 0.24697 0.9451 0.0
C202 C 0.83749 0.28035 0.94911 0.0
C203 C 0.93933 0.20882 0.93985 0.0
C204 C 0.9939 0.2162 0.941 0.0
C205 C 0.02354 0.2192 0.9305 0.0
C206 C 0.07637 0.2239 0.93124 0.0
C207 C 0.1009 0.22557 0.94253 0.0
C208 C 0.07094 0.22308 0.95306 0.0
C209 C 1.01798 0.21845 0.95232 0.0
C210 C 0.80107 0.2243 0.96704 0.0
C211 C 0.74728 0.18944 0.94234 0.0
C212 C 0.64816 0.26135 0.94893 0.0
C213 C 0.59382 0.25343 0.94791 0.0
C214 C 0.56429 0.25048 0.95844 0.0
C215 C 0.51155 0.24549 0.95774 0.0
C216 C 0.48697 0.24351 0.94647 0.0
C217 C 0.51681 0.24591 0.93592 0.0
C218 C 0.56965 0.25082 0.93662 0.0
C219 C 0.79116 0.24518 0.92353 0.0
O220 O 0.86735 0.26211 0.9459 0.0
O221 O 0.78791 0.27771 0.9512 0.0
O222 O 0.91481 0.20237 0.94966 0.0
O223 O 0.91052 0.22129 0.93249 0.0
O224 O 0.82949 0.20672 0.96327 0.0
O225 O 0.80054 0.24072 0.95917 0.0
O226 O 0.71982 0.20825 0.94555 0.0
O227 O 0.79718 0.19092 0.94001 0.0
O228 O 0.67361 0.26556 0.93895 0.0
O229 O 0.67649 0.25094 0.95717 0.0
O230 O 0.76448 0.26344 0.92717 0.0
O231 O 0.78818 0.22866 0.93123 0.0
H232 H 1.00603 0.2173 0.92167 0.0
H233 H 0.09828 0.22542 0.92294 0.0
H234 H 0.08849 0.22457 0.9619 0.0
H235 H 0.99621 0.21621 0.9606 0.0
H236 H 0.58173 0.25269 0.96726 0.0
H237 H 0.4897 0.24405 0.96605 0.0
H238 H 0.49922 0.24419 0.92709 0.0
H239 H 0.59121 0.25306 0.92831 0.0
Ho240 Ho 0.95139 0.22042 0.82768 0.0
Ho241 Ho 0.05555 0.24525 0.82628 0.0
C242 C 0.95954 0.27839 0.82421 0.0
C243 C 0.85809 0.2069 0.83281 0.0
C244 C 0.80341 0.21355 0.83076 0.0
C245 C 0.78004 0.23243 0.83715 0.0
C246 C 0.7271 0.2368 0.83602 0.0
C247 C 0.69624 0.2224 0.82849 0.0
C248 C 0.71993 0.20385 0.82192 0.0
C249 C 0.77276 0.19943 0.82308 0.0
C250 C 0.99251 0.22244 0.80515 0.0
C251 C 0.05088 0.18805 0.83089 0.0
C252 C 0.1485 0.25947 0.82143 0.0
C253 C 0.20323 0.25273 0.8233 0.0
C254 C 0.22596 0.23349 0.81706 0.0
C255 C 0.27889 0.22896 0.81812 0.0
C256 C 0.31028 0.24353 0.82544 0.0
C257 C 0.2872 0.26245 0.83185 0.0
C258 C 0.23443 0.26704 0.83075 0.0
C259 C 1.01063 0.24415 0.84845 0.0
O260 O 0.93218 0.26005 0.82835 0.0
O261 O 1.00711 0.27563 0.82032 0.0
O262 O 0.88414 0.19888 0.82355 0.0
O263 O 0.88584 0.22073 0.83978 0.0
O264 O 0.96599 0.20459 0.80933 0.0
O265 O 0.99383 0.23893 0.81294 0.0
O266 O 0.07745 0.20631 0.82653 0.0
O267 O 1.00158 0.19008 0.83376 0.0
O268 O 0.1226 0.26642 0.83094 0.0
O269 O 0.12076 0.24636 0.81408 0.0
O270 O 0.03727 0.26211 0.8444 0.0
O271 O 1.01184 0.22739 0.84087 0.0
H272 H 0.80236 0.24358 0.84321 0.0
H273 H 0.71029 0.25142 0.8411 0.0
H274 H 0.69735 0.19217 0.81618 0.0
H275 H 0.78942 0.18452 0.81819 0.0
H276 H 0.20314 0.22215 0.81119 0.0
H277 H 0.29527 0.21407 0.81316 0.0
H278 H 0.3102 0.27425 0.83744 0.0
H279 H 0.2182 0.28219 0.83553 0.0
Ho280 Ho 0.84085 0.50109 0.8457 0.0
Ho281 Ho 0.73704 0.47634 0.84721 0.0
C282 C 0.83188 0.44305 0.84214 0.0
C283 C 0.93446 0.51586 0.84925 0.0
C284 C 0.98921 0.50899 0.84778 0.0
C285 C 1.01081 0.48955 0.85407 0.0
C286 C 0.06392 0.48514 0.85349 0.0
C287 C 0.09652 0.50006 0.84661 0.0
C288 C 0.07448 0.51912 0.84011 0.0
C289 C 1.02153 0.52355 0.84073 0.0
C290 C 0.7904 0.49885 0.82435 0.0
C291 C 0.74208 0.53398 0.84885 0.0
C292 C 0.64316 0.46083 0.84528 0.0
C293 C 0.58879 0.4683 0.84659 0.0
C294 C 0.56876 0.48842 0.84057 0.0
C295 C 0.51594 0.49357 0.84116 0.0
C296 C 0.48224 0.47879 0.84782 0.0
C297 C 0.50283 0.45905 0.85407 0.0
C298 C 0.55543 0.45387 0.85343 0.0
C299 C 0.79178 0.47848 0.86803 0.0
O300 O 0.86224 0.46146 0.84484 0.0
O301 O 0.78186 0.44549 0.84072 0.0
O302 O 0.90835 0.52034 0.83942 0.0
O303 O 0.90708 0.5046 0.85741 0.0
O304 O 0.81862 0.51674 0.82784 0.0
O305 O 0.79204 0.48239 0.83221 0.0
O306 O 0.71437 0.51486 0.84625 0.0
O307 O 0.79231 0.5328 0.85075 0.0
O308 O 0.67027 0.45909 0.85517 0.0
O309 O 0.66963 0.46968 0.83624 0.0
O310 O 0.76525 0.45997 0.86467 0.0
O311 O 0.7865 0.49507 0.86043 0.0
H312 H 0.98695 0.47801 0.85962 0.0
H313 H 0.07949 0.47013 0.85848 0.0
H314 H 0.09838 0.53118 0.83486 0.0
H315 H 1.00599 0.53883 0.83591 0.0
H316 H 0.59364 0.49992 0.83525 0.0
H317 H 0.50145 0.50907 0.83637 0.0
H318 H 0.47803 0.4471 0.85915 0.0
H319 H 0.56991 0.43816 0.85807 0.0
Ho320 Ho 0.98623 -0.00025 0.58793 0.0
Ho321 Ho 0.09131 0.97552 0.5884 0.0
C322 C 0.992 0.94232 0.59084 0.0
C323 C 0.89303 0.0143 0.5838 0.0
C324 C 0.83852 0.00674 0.58449 0.0
C325 C 0.80517 0.01327 0.5751 0.0
C326 C 0.75245 0.00831 0.57585 0.0
C327 C 0.73176 -0.00327 0.58605 0.0
C328 C 0.76553 -0.01033 0.59535 0.0
C329 C 0.81845 -0.00542 0.59457 0.0
C330 C 0.03434 -0.00177 0.60968 0.0
C331 C 0.08166 0.03344 0.58421 0.0
C332 C 0.18385 0.96161 0.59377 0.0
C333 C 0.2386 0.96865 0.59296 0.0
C334 C 0.27154 0.96271 0.60253 0.0
C335 C 0.32443 0.96726 0.60173 0.0
C336 C 0.34565 0.97786 0.59132 0.0
C337 C 0.31226 0.98433 0.58183 0.0
C338 C 0.25919 0.9798 0.58265 0.0
C339 C 0.04674 0.9767 0.56632 0.0
O340 O 0.96472 0.96102 0.58741 0.0
O341 O 0.04169 0.94397 0.59341 0.0
O342 O 0.91738 0.01791 0.59397 0.0
O343 O 0.92184 0.00392 0.57564 0.0
O344 O 1.00793 0.01644 0.60589 0.0
O345 O 0.03214 0.98165 0.60201 0.0
O346 O 0.11148 0.01537 0.58769 0.0
O347 O 0.03249 0.03048 0.58178 0.0
O348 O 0.16035 0.95599 0.58373 0.0
O349 O 0.15466 0.97388 0.60115 0.0
O350 O 0.0749 0.95923 0.57029 0.0
O351 O 0.04604 -0.00662 0.57404 0.0
H352 H 0.81978 0.02278 0.56727 0.0
H353 H 0.72765 0.01427 0.56859 0.0
H354 H 0.75102 0.98044 0.60326 0.0
H355 H 0.84344 -0.01076 0.60192 0.0
H356 H 0.25647 0.95399 0.61054 0.0
H357 H 0.34887 0.96175 0.60915 0.0
H358 H 0.32715 -0.00717 0.57375 0.0
H359 H 0.23447 0.98465 0.57517 0.0
Ho360 Ho 0.31039 0.23269 0.57679 0.0
Ho361 Ho 0.19853 0.25804 0.57868 0.0
C362 C 0.30276 0.29 0.58169 0.0
C363 C 0.40295 0.21877 0.57138 0.0
C364 C 0.45744 0.22631 0.57192 0.0
C365 C 0.49396 0.21341 0.56525 0.0
C366 C 0.5463 0.21928 0.56588 0.0
C367 C 0.56345 0.23829 0.57321 0.0
C368 C 0.52648 0.25139 0.57983 0.0
C369 C 0.47393 0.24545 0.57918 0.0
C370 C 0.26143 0.23258 0.59849 0.0
C371 C 0.21178 0.20067 0.57376 0.0
C372 C 0.11066 0.27204 0.58718 0.0
C373 C 0.05497 0.26977 0.58471 0.0
C374 C 1.02077 0.28601 0.59008 0.0
C375 C 0.96752 0.28353 0.58851 0.0
C376 C 0.94718 0.26469 0.58152 0.0
C377 C 0.98179 0.24866 0.57594 0.0
C378 C 0.03519 0.25116 0.57754 0.0
C379 C 0.22757 0.25192 0.55518 0.0
O380 O 0.33152 0.27132 0.57871 0.0
O381 O 0.25184 0.28887 0.583 0.0
O382 O 0.38024 0.21397 0.58166 0.0
O383 O 0.37303 0.23034 0.56387 0.0
O384 O 0.29056 0.21515 0.59475 0.0
O385 O 0.26212 0.24924 0.59085 0.0
O386 O 0.18375 0.21802 0.57873 0.0
O387 O 0.25942 0.20398 0.5699 0.0
O388 O 0.13801 0.28474 0.57952 0.0
O389 O 0.13427 0.25252 0.59075 0.0
O390 O 0.1847 0.26197 0.55846 0.0
O391 O 0.25125 0.24625 0.56466 0.0
H392 H 0.48204 0.19849 0.55964 0.0
H393 H 0.57344 0.2085 0.56082 0.0
H394 H 0.53809 0.2663 0.58546 0.0
H395 H 0.44628 0.25564 0.58441 0.0
H396 H 0.03526 0.30051 0.59563 0.0
H397 H 0.94226 0.29645 0.59276 0.0
H398 H 0.9676 0.23382 0.57059 0.0
H399 H 0.06096 0.23836 0.57334 0.0
Ho400 Ho 0.98428 0.2279 0.69392 0.0
Ho401 Ho 0.08867 0.25255 0.69428 0.0
C402 C 0.98962 0.2855 0.69153 0.0
C403 C 0.89087 0.21252 0.69713 0.0
C404 C 0.83621 0.21906 0.69544 0.0
C405 C 0.81719 0.24191 0.69834 0.0
C406 C 0.76427 0.24674 0.69752 0.0
C407 C 0.72944 0.22884 0.69376 0.0
C408 C 0.74903 0.20618 0.69062 0.0
C409 C 0.80175 0.20138 0.69147 0.0
C410 C 0.03532 0.22956 0.67253 0.0
C411 C 0.07967 0.19468 0.69834 0.0
C412 C 0.18184 0.26716 0.68991 0.0
C413 C 0.23672 0.26083 0.69145 0.0
C414 C 0.25607 0.23806 0.6885 0.0
C415 C 0.30913 0.23346 0.68919 0.0
C416 C 0.34376 0.25151 0.69288 0.0
C417 C 0.32388 0.27409 0.69604 0.0
C418 C 0.27105 0.27867 0.69532 0.0
C419 C 0.04135 0.25061 0.7161 0.0
O420 O 0.96194 0.26652 0.69442 0.0
O421 O 0.03963 0.28416 0.68931 0.0
O422 O 0.91782 0.20819 0.6874 0.0
O423 O 0.9171 0.22416 0.70534 0.0
O424 O 1.00859 0.21131 0.67618 0.0
O425 O 0.03188 0.24626 0.68013 0.0
O426 O 0.10946 0.21284 0.69491 0.0
O427 O 0.03032 0.19756 0.70062 0.0
O428 O 0.15616 0.27283 0.69965 0.0
O429 O 0.15448 0.25452 0.6823 0.0
O430 O 0.06948 0.26834 0.71236 0.0
O431 O 0.04196 0.23413 0.70828 0.0
H432 H 0.84303 0.2559 0.70141 0.0
H433 H 0.75062 0.26447 0.69986 0.0
H434 H 0.72345 0.19185 0.68786 0.0
H435 H 0.81553 0.18358 0.68926 0.0
H436 H 0.23038 0.22394 0.68552 0.0
H437 H 0.32302 0.21578 0.68683 0.0
H438 H 0.34931 0.28852 0.69874 0.0
H439 H 0.25704 0.29642 0.69755 0.0
Ho440 Ho 0.30285 -0.00583 0.70624 0.0
Ho441 Ho 0.19894 0.96929 0.70537 0.0
C442 C 0.29832 0.93689 0.70194 0.0
C443 C 0.39603 0.00846 0.71071 0.0
C444 C 0.45062 0.00116 0.70908 0.0
C445 C 0.47556 -0.01317 0.71774 0.0
C446 C 0.52842 0.98215 0.71684 0.0
C447 C 0.5577 -0.00826 0.70728 0.0
C448 C 0.53251 0.00566 0.69849 0.0
C449 C 0.47971 0.01039 0.69942 0.0
C450 C 0.2562 -0.00679 0.68431 0.0
C451 C 0.20699 0.02727 0.70896 0.0
C452 C 0.10551 0.95561 0.70056 0.0
C453 C 0.05094 0.96282 0.70229 0.0
C454 C 0.02553 0.97675 0.69355 0.0
C455 C 0.97264 0.98131 0.6945 0.0
C456 C 0.94376 0.97195 0.70419 0.0
C457 C 0.96943 0.95843 0.71306 0.0
C458 C 1.02228 0.95385 0.7121 0.0
C459 C 0.24206 0.9712 0.72768 0.0
O460 O 0.32507 0.95531 0.70603 0.0
O461 O 0.24875 0.93872 0.69934 0.0
O462 O 0.3703 0.01453 0.70103 0.0
O463 O 0.36792 -0.0037 0.7184 0.0
O464 O 0.28276 0.01123 0.68829 0.0
O465 O 0.25808 0.97634 0.69184 0.0
O466 O 0.17909 0.00896 0.705 0.0
O467 O 0.25511 0.02453 0.71242 0.0
O468 O 0.13119 0.94859 0.71007 0.0
O469 O 0.13372 0.96847 0.69321 0.0
O470 O 0.21559 0.95326 0.72359 0.0
O471 O 0.24231 -0.01226 0.7199 0.0
H472 H 0.45452 0.97963 0.72538 0.0
H473 H 0.54644 0.97113 0.72368 0.0
H474 H 0.55391 0.01362 0.69111 0.0
H475 H 0.46197 0.02183 0.6927 0.0
H476 H 0.04623 0.98371 0.6858 0.0
H477 H 0.9543 -0.00797 0.68759 0.0
H478 H 0.94836 0.95065 0.72054 0.0
H479 H 0.04038 0.9427 0.71888 0.0
Ho480 Ho 0.95533 0.00248 0.45452 0.0
Ho481 Ho 0.05981 0.97778 0.45607 0.0
C482 C 0.96386 0.94452 0.4587 0.0
C483 C 0.86297 0.01595 0.44864 0.0
C484 C 0.80796 0.00935 0.44994 0.0
C485 C 0.77682 0.00893 0.43959 0.0
C486 C 0.72374 0.00491 0.44052 0.0
C487 C 0.70039 0.00129 0.45186 0.0
C488 C 0.73193 0.00108 0.46221 0.0
C489 C 0.78517 0.00509 0.46126 0.0
C490 C 0.99593 0.00121 0.47704 0.0
C491 C 0.05567 0.03489 0.45185 0.0
C492 C 0.15261 0.96362 0.46101 0.0
C493 C 0.20735 0.97102 0.46009 0.0
C494 C 0.23789 0.9709 0.47055 0.0
C495 C 0.29085 0.97547 0.46987 0.0
C496 C 0.31474 0.98015 0.4587 0.0
C497 C 0.28378 0.98093 0.44826 0.0
C498 C 0.23067 0.9764 0.44894 0.0
C499 C 1.01488 0.97907 0.43389 0.0
O500 O 0.9358 0.9626 0.45453 0.0
O501 O 1.01181 0.94754 0.46222 0.0
O502 O 0.8873 0.02359 0.45824 0.0
O503 O 0.89154 0.00212 0.44187 0.0
O504 O 0.96877 0.01875 0.47279 0.0
O505 O 0.99778 0.98451 0.46935 0.0
O506 O 0.08144 0.0166 0.45634 0.0
O507 O 1.00661 0.03294 0.4487 0.0
O508 O 0.12836 0.9582 0.45103 0.0
O509 O 0.12356 0.97532 0.46867 0.0
O510 O 0.04059 0.96086 0.43795 0.0
O511 O 1.01651 -0.00432 0.44152 0.0
H512 H 0.79347 0.01216 0.43075 0.0
H513 H 0.70096 0.00476 0.43233 0.0
H514 H 0.71531 -0.00147 0.47109 0.0
H515 H 0.80821 0.00535 0.46941 0.0
H516 H 0.22091 0.96677 0.47925 0.0
H517 H 0.31313 0.97517 0.47814 0.0
H518 H 0.30078 0.98426 0.43948 0.0
H519 H 0.20821 0.97657 0.44071 0.0
Ho520 Ho 0.85144 0.71963 0.44599 0.0
Ho521 Ho 0.73878 0.74327 0.44787 0.0
C522 C 0.83533 0.77641 0.4517 0.0
C523 C 0.93819 0.70647 0.43666 0.0
C524 C 0.99395 0.71003 0.43839 0.0
C525 C 0.02654 0.70898 0.4283 0.0
C526 C 0.07972 0.71201 0.4296 0.0
C527 C 0.10146 0.71615 0.44105 0.0
C528 C 0.06852 0.71731 0.45116 0.0
C529 C 1.01519 0.71435 0.44984 0.0
C530 C 0.82395 0.72601 0.46951 0.0
C531 C 0.74983 0.68563 0.4448 0.0
C532 C 0.64562 0.75552 0.45347 0.0
C533 C 0.59158 0.74796 0.45171 0.0
C534 C 0.55816 0.74796 0.46167 0.0
C535 C 0.50588 0.74265 0.46022 0.0
C536 C 0.48577 0.7373 0.44874 0.0
C537 C 0.51962 0.7368 0.43879 0.0
C538 C 0.57206 0.74202 0.44026 0.0
C539 C 0.78609 0.74289 0.42598 0.0
O540 O 0.86501 0.75984 0.44657 0.0
O541 O 0.78767 0.77212 0.45524 0.0
O542 O 0.91367 0.69406 0.44495 0.0
O543 O 0.91225 0.72518 0.43291 0.0
O544 O 0.86756 0.71673 0.46612 0.0
O545 O 0.79903 0.73117 0.46011 0.0
O546 O 0.71961 0.70448 0.44624 0.0
O547 O 0.80084 0.68698 0.44392 0.0
O548 O 0.6704 0.76392 0.44406 0.0
O549 O 0.67429 0.7418 0.4603 0.0
O550 O 0.75617 0.7601 0.42962 0.0
O551 O 0.78676 0.72659 0.43382 0.0
H552 H 1.01083 0.70566 0.41939 0.0
H553 H 0.10388 0.7107 0.42165 0.0
H554 H 0.0839 0.72077 0.46008 0.0
H555 H 0.99061 0.71542 0.45773 0.0
H556 H 0.57235 0.75259 0.47057 0.0
H557 H 0.48092 0.74348 0.46806 0.0
H558 H 0.50553 0.73244 0.42985 0.0
H559 H 0.59709 0.74177 0.43242 0.0
Ho560 Ho 0.94717 0.71686 0.32949 0.0
Ho561 Ho 0.05198 0.7418 0.32869 0.0
C562 C 0.95571 0.77469 0.32551 0.0
C563 C 0.85405 0.703 0.33454 0.0
C564 C 0.79927 0.70887 0.33235 0.0
C565 C 0.77991 0.73221 0.33376 0.0
C566 C 0.72692 0.73664 0.33268 0.0
C567 C 0.69227 0.71785 0.33012 0.0
C568 C 0.71215 0.69464 0.32843 0.0
C569 C 0.76497 0.69023 0.32955 0.0
C570 C 0.99081 0.71863 0.30721 0.0
C571 C 0.04721 0.68481 0.3336 0.0
C572 C 0.14476 0.75667 0.32416 0.0
C573 C 0.19966 0.75058 0.32594 0.0
C574 C 0.21878 0.72734 0.32401 0.0
C575 C 0.27177 0.72273 0.32494 0.0
C576 C 0.30664 0.74125 0.32783 0.0
C577 C 0.28699 0.76437 0.32995 0.0
C578 C 0.23419 0.76894 0.32901 0.0
C579 C 1.00386 0.74105 0.35051 0.0
O580 O 0.92747 0.75654 0.32957 0.0
O581 O 1.00394 0.77176 0.32213 0.0
O582 O 0.88059 0.6947 0.32542 0.0
O583 O 0.88074 0.7177 0.34129 0.0
O584 O 0.96253 0.70111 0.31112 0.0
O585 O 0.9918 0.73504 0.31504 0.0
O586 O 0.07421 0.70297 0.32929 0.0
O587 O 0.99744 0.68679 0.33604 0.0
O588 O 0.11858 0.76305 0.33373 0.0
O589 O 0.11793 0.74329 0.31676 0.0
O590 O 0.03108 0.75897 0.34662 0.0
O591 O 1.00618 0.72421 0.34299 0.0
H592 H 0.80551 0.74696 0.3359 0.0
H593 H 0.71308 0.75479 0.33387 0.0
H594 H 0.68671 0.67968 0.32662 0.0
H595 H 0.77895 0.67206 0.32852 0.0
H596 H 0.19295 0.71284 0.32163 0.0
H597 H 0.2854 0.70466 0.32339 0.0
H598 H 0.31257 0.77915 0.33201 0.0
H599 H 0.22037 0.78703 0.33045 0.0
Ho600 Ho 0.84237 0.0009 0.33861 0.0
Ho601 Ho 0.73731 0.97681 0.33865 0.0
C602 C 0.83212 0.94291 0.33489 0.0
C603 C 0.93538 0.01459 0.34363 0.0
C604 C 0.9899 0.00729 0.34253 0.0
C605 C 1.01995 0.00569 0.35302 0.0
C606 C 0.07284 0.0013 0.35227 0.0
C607 C 0.097 -0.00147 0.34098 0.0
C608 C 0.06656 -0.00056 0.33047 0.0
C609 C 1.01353 0.0038 0.33123 0.0
C610 C 0.79716 -0.00121 0.3166 0.0
C611 C 0.74399 0.03435 0.34115 0.0
C612 C 0.64377 0.96234 0.33495 0.0
C613 C 0.58954 0.9704 0.33566 0.0
C614 C 0.5603 0.97181 0.32503 0.0
C615 C 0.50758 0.97681 0.32551 0.0
C616 C 0.48273 0.98035 0.33666 0.0
C617 C 0.51235 0.9796 0.3473 0.0
C618 C 0.56518 0.97465 0.34681 0.0
C619 C 0.78716 0.97823 0.36017 0.0
O620 O 0.86225 0.96107 0.33813 0.0
O621 O 0.78285 0.94585 0.33257 0.0
O622 O 0.91097 0.0207 0.33377 0.0
O623 O 0.90655 0.00228 0.35109 0.0
O624 O 0.82585 0.01636 0.32029 0.0
O625 O 0.7963 0.98253 0.32454 0.0
O626 O 0.71616 0.0156 0.33798 0.0
O627 O 0.79377 0.03267 0.34354 0.0
O628 O 0.66861 0.95897 0.34508 0.0
O629 O 0.67262 0.972 0.32655 0.0
O630 O 0.76022 0.96008 0.35648 0.0
O631 O 0.78434 -0.0051 0.35253 0.0
H632 H 1.00265 0.00837 0.36183 0.0
H633 H 0.0949 0.00027 0.36055 0.0
H634 H 0.08394 -0.00241 0.32162 0.0
H635 H 0.9914 0.00502 0.32297 0.0
H636 H 0.57802 0.96849 0.31632 0.0
H637 H 0.48618 0.97766 0.31713 0.0
H638 H 0.49442 0.98199 0.35605 0.0
H639 H 0.58652 0.97353 0.35519 0.0
Ho640 Ho 0.49089 0.4984 0.59582 0.0
Ho641 Ho 0.59588 0.47389 0.59591 0.0
C642 C 0.49641 0.44081 0.59821 0.0
C643 C 0.39756 0.51313 0.59202 0.0
C644 C 0.34315 0.50533 0.5926 0.0
C645 C 0.31011 0.5115 0.58308 0.0
C646 C 0.2574 0.50644 0.58375 0.0
C647 C 0.23643 0.49513 0.59401 0.0
C648 C 0.26989 0.4884 0.60342 0.0
C649 C 0.32278 0.4934 0.60272 0.0
C650 C 0.54028 0.49681 0.61736 0.0
C651 C 0.58676 0.53186 0.59183 0.0
C652 C 0.68847 0.45976 0.60107 0.0
C653 C 0.74318 0.46695 0.60035 0.0
C654 C 0.77578 0.46136 0.61003 0.0
C655 C 0.82868 0.46593 0.60931 0.0
C656 C 0.85027 0.47619 0.59885 0.0
C657 C 0.81721 0.48233 0.58925 0.0
C658 C 0.76414 0.47779 0.58999 0.0
C659 C 0.54996 0.47528 0.574 0.0
O660 O 0.46902 0.45975 0.59519 0.0
O661 O 0.54632 0.44215 0.60057 0.0
O662 O 0.422 0.51598 0.60225 0.0
O663 O 0.42643 0.50353 0.58363 0.0
O664 O 0.51374 0.51505 0.61366 0.0
O665 O 0.53753 0.48017 0.60972 0.0
O666 O 0.61676 0.51362 0.59497 0.0
O667 O 0.53716 0.52922 0.5898 0.0
O668 O 0.66497 0.4547 0.59094 0.0
O669 O 0.65918 0.47149 0.60864 0.0
O670 O 0.57836 0.45775 0.57784 0.0
O671 O 0.54984 0.49192 0.58175 0.0
H672 H 0.32491 0.52084 0.57522 0.0
H673 H 0.23282 0.51214 0.5764 0.0
H674 H 0.25516 0.47937 0.61137 0.0
H675 H 0.34748 0.48833 0.61017 0.0
H676 H 0.76045 0.45288 0.61808 0.0
H677 H 0.85288 0.46069 0.61682 0.0
H678 H 0.83238 0.49057 0.58113 0.0
H679 H 0.73973 0.48237 0.58241 0.0
Ho680 Ho 0.8085 0.73065 0.57782 0.0
Ho681 Ho 0.69653 0.75561 0.58031 0.0
C682 C 0.80026 0.7881 0.5826 0.0
C683 C 0.90079 0.71784 0.5716 0.0
C684 C 0.9554 0.7252 0.57263 0.0
C685 C 0.98862 0.72093 0.56288 0.0
C686 C 0.04134 0.72587 0.56381 0.0
C687 C 0.06223 0.73516 0.57456 0.0
C688 C 0.0285 0.74007 0.58424 0.0
C689 C 0.97559 0.73514 0.58329 0.0
C690 C 0.76269 0.73075 0.59988 0.0
C691 C 0.71031 0.69821 0.57573 0.0
C692 C 0.60925 0.76913 0.58935 0.0
C693 C 0.55348 0.7662 0.58722 0.0
C694 C 0.51891 0.77188 0.59651 0.0
C695 C 0.46579 0.7691 0.59486 0.0
C696 C 0.44596 0.76055 0.58384 0.0
C697 C 0.48095 0.75476 0.57453 0.0
C698 C 0.53423 0.75755 0.57621 0.0
C699 C 0.72296 0.74901 0.55665 0.0
O700 O 0.82922 0.7693 0.57995 0.0
O701 O 0.74933 0.78699 0.58388 0.0
O702 O 0.87773 0.71044 0.58145 0.0
O703 O 0.87099 0.73104 0.56478 0.0
O704 O 0.79241 0.71361 0.59606 0.0
O705 O 0.76166 0.74727 0.59215 0.0
O706 O 0.68285 0.71561 0.58081 0.0
O707 O 0.7571 0.70165 0.57134 0.0
O708 O 0.63523 0.78176 0.58139 0.0
O709 O 0.63398 0.74993 0.59291 0.0
O710 O 0.68028 0.75896 0.56015 0.0
O711 O 0.74761 0.74356 0.56602 0.0
H712 H 0.97387 0.71335 0.55456 0.0
H713 H 0.06576 0.72231 0.55608 0.0
H714 H 0.04314 0.74706 0.59269 0.0
H715 H 0.95072 0.73865 0.59095 0.0
H716 H 0.53306 0.77839 0.60511 0.0
H717 H 0.44031 0.77332 0.60231 0.0
H718 H 0.46716 0.74834 0.56589 0.0
H719 H 0.56035 0.75297 0.56893 0.0
Ho720 Ho 0.48562 0.72546 0.69546 0.0
Ho721 Ho 0.58956 0.75007 0.69689 0.0
C722 C 0.49088 0.78305 0.69349 0.0
C723 C 0.3919 0.70987 0.69771 0.0
C724 C 0.3374 0.717 0.69638 0.0
C725 C 0.31834 0.73868 0.70104 0.0
C726 C 0.26547 0.74376 0.70051 0.0
C727 C 0.23078 0.72732 0.69529 0.0
C728 C 0.25043 0.70594 0.69039 0.0
C729 C 0.30308 0.70086 0.69095 0.0
C730 C 0.53994 0.72765 0.67453 0.0
C731 C 0.58042 0.69201 0.70025 0.0
C732 C 0.68315 0.76492 0.69335 0.0
C733 C 0.73787 0.75818 0.69484 0.0
C734 C 0.758 0.7368 0.69007 0.0
C735 C 0.81106 0.73222 0.69059 0.0
C736 C 0.84499 0.74888 0.6959 0.0
C737 C 0.82436 0.76994 0.70093 0.0
C738 C 0.77148 0.77452 0.70037 0.0
C739 C 0.53908 0.74751 0.71831 0.0
O740 O 0.46301 0.76405 0.69624 0.0
O741 O 0.54114 0.7817 0.69161 0.0
O742 O 0.4189 0.70768 0.6878 0.0
O743 O 0.41825 0.7194 0.70656 0.0
O744 O 0.51305 0.70922 0.67788 0.0
O745 O 0.53517 0.74418 0.68219 0.0
O746 O 0.6108 0.7104 0.69749 0.0
O747 O 0.53053 0.69457 0.70187 0.0
O748 O 0.65689 0.76945 0.70316 0.0
O749 O 0.65608 0.75345 0.68523 0.0
O750 O 0.56714 0.76549 0.71485 0.0
O751 O 0.54095 0.73123 0.71038 0.0
H752 H 0.34407 0.75149 0.70524 0.0
H753 H 0.25174 0.76052 0.70424 0.0
H754 H 0.22491 0.69272 0.68645 0.0
H755 H 0.31689 0.68397 0.68738 0.0
H756 H 0.73297 0.72384 0.68575 0.0
H757 H 0.82554 0.71568 0.68677 0.0
H758 H 0.84927 0.78332 0.70494 0.0
H759 H 0.75693 0.79123 0.70402 0.0
Ho760 Ho 0.8027 0.49268 0.71468 0.0
Ho761 Ho 0.69743 0.46835 0.71289 0.0
C762 C 0.79678 0.43562 0.7095 0.0
C763 C 0.89518 0.50612 0.72039 0.0
C764 C 0.94982 0.49886 0.71923 0.0
C765 C 0.98105 0.49878 0.72957 0.0
C766 C 0.03388 0.49413 0.72868 0.0
C767 C 0.05686 0.48954 0.7174 0.0
C768 C 0.02526 0.48909 0.70707 0.0
C769 C 0.97228 0.49365 0.70797 0.0
C770 C 0.75924 0.49204 0.6924 0.0
C771 C 0.7071 0.52634 0.71642 0.0
C772 C 0.60453 0.45534 0.70716 0.0
C773 C 0.54985 0.46229 0.70864 0.0
C774 C 0.51838 0.4635 0.69836 0.0
C775 C 0.4656 0.46807 0.69945 0.0
C776 C 0.44288 0.47148 0.71086 0.0
C777 C 0.47472 0.47072 0.72116 0.0
C778 C 0.52767 0.4662 0.72006 0.0
C779 C 0.73765 0.47001 0.73549 0.0
O780 O 0.82371 0.4536 0.71403 0.0
O781 O 0.74744 0.43794 0.70672 0.0
O782 O 0.87133 0.5131 0.7106 0.0
O783 O 0.86587 0.4932 0.7275 0.0
O784 O 0.78665 0.50973 0.69646 0.0
O785 O 0.75915 0.47531 0.7 0.0
O786 O 0.67928 0.50813 0.7123 0.0
O787 O 0.75457 0.5234 0.72032 0.0
O788 O 0.62907 0.4474 0.71666 0.0
O789 O 0.63322 0.46912 0.70037 0.0
O790 O 0.71056 0.45236 0.7313 0.0
O791 O 0.7396 0.48645 0.72769 0.0
H792 H 0.96472 0.50292 0.73834 0.0
H793 H 0.057 0.4949 0.73681 0.0
H794 H 0.04152 0.48529 0.69826 0.0
H795 H 0.94916 0.4935 0.69983 0.0
H796 H 0.5345 0.46037 0.68947 0.0
H797 H 0.44233 0.4682 0.69133 0.0
H798 H 0.45871 0.47359 0.73008 0.0
H799 H 0.551 0.46543 0.72816 0.0
Ho800 Ho 0.45466 0.50173 0.46233 0.0
Ho801 Ho 0.55977 0.47751 0.46415 0.0
C802 C 0.4643 0.44372 0.46591 0.0
C803 C 0.36213 0.51479 0.45637 0.0
C804 C 0.30733 0.50795 0.4578 0.0
C805 C 0.27575 0.50737 0.44753 0.0
C806 C 0.22289 0.50287 0.44858 0.0
C807 C 0.20023 0.49891 0.45996 0.0
C808 C 0.23219 0.49903 0.47024 0.0
C809 C 0.28521 0.50348 0.46918 0.0
C810 C 0.49408 0.50015 0.48496 0.0
C811 C 0.55427 0.53463 0.45965 0.0
C812 C 0.65241 0.4639 0.46957 0.0
C813 C 0.70705 0.47128 0.46843 0.0
C814 C 0.73845 0.47095 0.47874 0.0
C815 C 0.79129 0.47569 0.47786 0.0
C816 C 0.81409 0.48077 0.4666 0.0
C817 C 0.7823 0.48164 0.45631 0.0
C818 C 0.72932 0.47699 0.45721 0.0
C819 C 0.51656 0.479 0.4418 0.0
O820 O 0.43637 0.46187 0.46179 0.0
O821 O 0.51176 0.44677 0.4698 0.0
O822 O 0.38646 0.52283 0.46588 0.0
O823 O 0.39085 0.50084 0.4497 0.0
O824 O 0.46676 0.51766 0.48074 0.0
O825 O 0.49665 0.48362 0.4772 0.0
O826 O 0.58061 0.51656 0.46421 0.0
O827 O 0.50532 0.5323 0.45649 0.0
O828 O 0.62832 0.4574 0.45972 0.0
O829 O 0.62327 0.4764 0.47687 0.0
O830 O 0.54311 0.461 0.44579 0.0
O831 O 0.5169 0.4954 0.44955 0.0
H832 H 0.29184 0.51092 0.43867 0.0
H833 H 0.19954 0.50323 0.44048 0.0
H834 H 0.21622 0.49573 0.47913 0.0
H835 H 0.30866 0.50375 0.47726 0.0
H836 H 0.72228 0.46642 0.48748 0.0
H837 H 0.81455 0.47458 0.48595 0.0
H838 H 0.79842 0.48582 0.44753 0.0
H839 H 0.70607 0.47746 0.4491 0.0
Ho840 Ho 0.35189 0.22104 0.44448 0.0
Ho841 Ho 0.23968 0.24549 0.44599 0.0
C842 C 0.33737 0.27734 0.45124 0.0
C843 C 0.43947 0.20755 0.43572 0.0
C844 C 0.49504 0.21107 0.43787 0.0
C845 C 0.51452 0.23287 0.44228 0.0
C846 C 0.56776 0.23625 0.44349 0.0
C847 C 0.60248 0.21786 0.44039 0.0
C848 C 0.58257 0.19589 0.43625 0.0
C849 C 0.5294 0.19257 0.43498 0.0
C850 C 0.32168 0.22643 0.46788 0.0
C851 C 0.24884 0.18808 0.44186 0.0
C852 C 0.147 0.25896 0.45135 0.0
C853 C 0.09245 0.25334 0.44899 0.0
C854 C 0.07597 0.23018 0.44589 0.0
C855 C 0.02337 0.22536 0.44426 0.0
C856 C 0.98641 0.24364 0.44569 0.0
C857 C 1.00349 0.26683 0.44869 0.0
C858 C 0.05589 0.2716 0.4503 0.0
C859 C 0.28963 0.24601 0.42443 0.0
O860 O 0.3672 0.26105 0.44593 0.0
O861 O 0.28914 0.27305 0.45434 0.0
O862 O 0.41399 0.19514 0.44384 0.0
O863 O 0.41385 0.22622 0.43176 0.0
O864 O 0.36533 0.21696 0.46467 0.0
O865 O 0.29801 0.23213 0.45838 0.0
O866 O 0.21904 0.20705 0.44341 0.0
O867 O 0.30004 0.18905 0.44148 0.0
O868 O 0.17356 0.26803 0.44239 0.0
O869 O 0.17322 0.24337 0.4577 0.0
O870 O 0.25962 0.26318 0.42807 0.0
O871 O 0.2889 0.22932 0.43204 0.0
H872 H 0.48867 0.24736 0.44463 0.0
H873 H 0.58175 0.25327 0.44687 0.0
H874 H 0.60814 0.18145 0.43366 0.0
H875 H 0.51512 0.17565 0.43153 0.0
H876 H 0.10364 0.21583 0.44483 0.0
H877 H 1.01169 0.20736 0.44183 0.0
H878 H 0.97627 0.28127 0.45007 0.0
H879 H 0.06784 0.28956 0.45277 0.0
Ho880 Ho 0.45422 0.22089 0.32873 0.0
Ho881 Ho 0.55841 0.24594 0.3278 0.0
C882 C 0.46211 0.27898 0.32557 0.0
C883 C 0.36089 0.20726 0.33372 0.0
C884 C 0.30634 0.21443 0.33191 0.0
C885 C 0.27976 0.2269 0.34102 0.0
C886 C 0.22697 0.23153 0.33994 0.0
C887 C 0.1993 0.22363 0.32977 0.0
C888 C 0.22612 0.21154 0.32055 0.0
C889 C 0.27893 0.20693 0.32163 0.0
C890 C 0.49662 0.22346 0.30637 0.0
C891 C 0.5538 0.18855 0.33196 0.0
C892 C 0.65142 0.26033 0.32315 0.0
C893 C 0.70611 0.25309 0.32464 0.0
C894 C 0.73189 0.24051 0.31544 0.0
C895 C 0.78482 0.23594 0.31626 0.0
C896 C 0.81338 0.244 0.32627 0.0
C897 C 0.78734 0.25615 0.33558 0.0
C898 C 0.73445 0.2607 0.33476 0.0
C899 C 0.51199 0.24439 0.34977 0.0
O900 O 0.43444 0.26047 0.3294 0.0
O901 O 0.5102 0.27649 0.322 0.0
O902 O 0.38673 0.19983 0.3243 0.0
O903 O 0.38894 0.22048 0.34092 0.0
O904 O 0.4697 0.20552 0.31031 0.0
O905 O 0.49747 0.23975 0.31427 0.0
O906 O 0.58059 0.20702 0.3279 0.0
O907 O 0.50426 0.19036 0.33462 0.0
O908 O 0.62587 0.26635 0.33288 0.0
O909 O 0.62319 0.24816 0.3155 0.0
O910 O 0.5387 0.2625 0.34591 0.0
O911 O 0.51392 0.22777 0.34212 0.0
H912 H 0.29946 0.23256 0.34915 0.0
H913 H 0.20751 0.24059 0.34729 0.0
H914 H 0.20621 0.20546 0.31253 0.0
H915 H 0.29799 0.19706 0.31449 0.0
H916 H 0.71148 0.23472 0.30742 0.0
H917 H 0.80365 0.22681 0.30885 0.0
H918 H 0.80792 0.26233 0.34349 0.0
H919 H 0.71603 0.27067 0.34196 0.0
Ho920 Ho 0.34227 0.50217 0.34607 0.0
Ho921 Ho 0.23807 0.47712 0.34672 0.0
C922 C 0.33388 0.44438 0.34157 0.0
C923 C 0.43548 0.51681 0.35031 0.0
C924 C 0.49038 0.51049 0.3487 0.0
C925 C 0.50989 0.48783 0.35182 0.0
C926 C 0.56299 0.4833 0.35115 0.0
C927 C 0.59754 0.50129 0.34733 0.0
C928 C 0.57751 0.52373 0.34397 0.0
C929 C 0.52462 0.52825 0.34467 0.0
C930 C 0.29382 0.50063 0.32443 0.0
C931 C 0.24277 0.53466 0.34943 0.0
C932 C 0.14465 0.46151 0.34387 0.0
C933 C 0.08999 0.46823 0.3454 0.0
C934 C 0.07129 0.491 0.34222 0.0
C935 C 1.01839 0.49598 0.34295 0.0
C936 C 0.98327 0.47833 0.34689 0.0
C937 C 1.00255 0.45576 0.35029 0.0
C938 C 0.05524 0.45081 0.34954 0.0
C939 C 0.29105 0.47816 0.36781 0.0
O940 O 0.36376 0.4626 0.34485 0.0
O941 O 0.2841 0.44699 0.33977 0.0
O942 O 0.40961 0.52256 0.34062 0.0
O943 O 0.40826 0.50412 0.35795 0.0
O944 O 0.32205 0.51833 0.32815 0.0
O945 O 0.29474 0.484 0.33217 0.0
O946 O 0.21526 0.51567 0.34648 0.0
O947 O 0.29295 0.53345 0.35143 0.0
O948 O 0.1715 0.45805 0.35369 0.0
O949 O 0.17099 0.4724 0.33539 0.0
O950 O 0.26438 0.45993 0.36414 0.0
O951 O 0.28648 0.49513 0.36039 0.0
H952 H 0.48432 0.47377 0.35494 0.0
H953 H 0.57698 0.46572 0.35366 0.0
H954 H 0.60286 0.53811 0.34114 0.0
H955 H 0.51051 0.54591 0.34231 0.0
H956 H 0.09737 0.50479 0.33903 0.0
H957 H 1.00499 0.51365 0.3404 0.0
H958 H 0.97676 0.44162 0.3532 0.0
H959 H 0.06877 0.43308 0.35196 0.0
Ho960 Ho 0.48456 -0.00255 0.08896 0.0
Ho961 Ho 0.58944 0.97268 0.08885 0.0
C962 C 0.48954 0.93992 0.09146 0.0
C963 C 0.39142 0.01253 0.08522 0.0
C964 C 0.33692 0.00484 0.08554 0.0
C965 C 0.3033 0.01348 0.07665 0.0
C966 C 0.2506 0.00833 0.07718 0.0
C967 C 0.23019 -0.00556 0.08666 0.0
C968 C 0.26425 0.98529 0.09543 0.0
C969 C 0.31715 -0.00961 0.09486 0.0
C970 C 0.53458 -0.00439 0.11043 0.0
C971 C 0.58075 0.03077 0.08527 0.0
C972 C 0.68209 0.95812 0.09372 0.0
C973 C 0.73694 0.96507 0.09303 0.0
C974 C 0.77033 0.95725 0.10215 0.0
C975 C 0.82322 0.96184 0.10143 0.0
C976 C 0.84405 0.97439 0.09153 0.0
C977 C 0.81022 0.98266 0.08249 0.0
C978 C 0.75713 0.97807 0.08324 0.0
C979 C 0.54325 0.97493 0.06695 0.0
O980 O 0.46244 0.95882 0.08822 0.0
O981 O 0.53947 0.94124 0.0938 0.0
O982 O 0.41543 0.0146 0.09555 0.0
O983 O 0.42052 0.00341 0.07674 0.0
O984 O 0.50793 0.01389 0.10682 0.0
O985 O 0.53152 0.97905 0.10275 0.0
O986 O 0.61036 0.0124 0.08842 0.0
O987 O 0.53125 0.02826 0.08306 0.0
O988 O 0.65831 0.95358 0.08357 0.0
O989 O 0.6532 0.96972 0.10142 0.0
O990 O 0.57125 0.95714 0.07064 0.0
O991 O 0.54347 -0.00877 0.07486 0.0
H992 H 0.31769 0.02475 0.06942 0.0
H993 H 0.2256 0.01593 0.07036 0.0
H994 H 0.24998 0.97426 0.10276 0.0
H995 H 0.34237 0.98339 0.10181 0.0
H996 H 0.75558 0.94708 0.10976 0.0
H997 H 0.84796 0.9549 0.10848 0.0
H998 H 0.82478 -0.00734 0.07483 0.0
H999 H 0.73204 0.98438 0.07611 0.0
Ho1000 Ho 0.80649 0.23073 0.07744 0.0
Ho1001 Ho 0.70241 0.25586 0.07802 0.0
C1002 C 0.80244 0.28783 0.08212 0.0
C1003 C 0.89939 0.21591 0.0731 0.0
C1004 C 0.95426 0.22217 0.07499 0.0
C1005 C 0.97455 0.24467 0.07178 0.0
C1006 C 0.02759 0.24917 0.07277 0.0
C1007 C 0.06136 0.23131 0.07703 0.0
C1008 C 0.04056 0.20902 0.08046 0.0
C1009 C 0.98772 0.20453 0.07943 0.0
C1010 C 0.75853 0.23202 0.09925 0.0
C1011 C 0.70991 0.19793 0.07447 0.0
C1012 C 0.60913 0.27004 0.08259 0.0
C1013 C 0.55435 0.26386 0.08046 0.0
C1014 C 0.53371 0.24141 0.08364 0.0
C1015 C 0.48066 0.23703 0.08257 0.0
C1016 C 0.44719 0.25497 0.07827 0.0
C1017 C 0.46833 0.27719 0.07484 0.0
C1018 C 0.5212 0.28157 0.07596 0.0
C1019 C 0.74708 0.25377 0.05585 0.0
O1020 O 0.82924 0.26957 0.07788 0.0
O1021 O 0.75266 0.28592 0.08456 0.0
O1022 O 0.87287 0.20955 0.08263 0.0
O1023 O 0.87269 0.22908 0.06558 0.0
O1024 O 0.78543 0.21397 0.09545 0.0
O1025 O 0.76092 0.24871 0.09165 0.0
O1026 O 0.68206 0.21627 0.07839 0.0
O1027 O 0.75823 0.2006 0.07109 0.0
O1028 O 0.63593 0.27748 0.07332 0.0
O1029 O 0.63574 0.25615 0.08976 0.0
O1030 O 0.72029 0.27171 0.0598 0.0
O1031 O 0.74668 0.23732 0.06366 0.0
H1032 H 0.94964 0.25865 0.06834 0.0
H1033 H 0.04215 0.26664 0.07019 0.0
H1034 H 0.06533 0.19473 0.08361 0.0
H1035 H 0.97308 0.18698 0.08187 0.0
H1036 H 0.55831 0.22736 0.08714 0.0
H1037 H 0.46585 0.21961 0.08514 0.0
H1038 H 0.44379 0.29154 0.07166 0.0
H1039 H 0.53607 0.2991 0.07356 0.0
Ho1040 Ho 0.48819 0.22859 0.19562 0.0
Ho1041 Ho 0.59391 0.25265 0.1951 0.0
C1042 C 0.49535 0.28626 0.19337 0.0
C1043 C 0.39504 0.21415 0.20002 0.0
C1044 C 0.34062 0.22171 0.19928 0.0
C1045 C 0.30722 0.21571 0.20878 0.0
C1046 C 0.25453 0.22061 0.20798 0.0
C1047 C 0.23394 0.23159 0.19761 0.0
C1048 C 0.26776 0.23814 0.18821 0.0
C1049 C 0.32064 0.2333 0.18904 0.0
C1050 C 0.53535 0.23062 0.17378 0.0
C1051 C 0.58354 0.19462 0.19858 0.0
C1052 C 0.68658 0.26644 0.18964 0.0
C1053 C 0.74116 0.25921 0.19044 0.0
C1054 C 0.77415 0.2647 0.18079 0.0
C1055 C 0.82698 0.26011 0.1816 0.0
C1056 C 0.84807 0.24992 0.19211 0.0
C1057 C 0.81462 0.24386 0.20168 0.0
C1058 C 0.76163 0.24843 0.20085 0.0
C1059 C 0.55033 0.25016 0.21732 0.0
O1060 O 0.4675 0.2674 0.19641 0.0
O1061 O 0.54502 0.28468 0.19079 0.0
O1062 O 0.41929 0.2101 0.18987 0.0
O1063 O 0.42396 0.22489 0.20804 0.0
O1064 O 0.50813 0.21254 0.17746 0.0
O1065 O 0.53409 0.24702 0.18158 0.0
O1066 O 0.61336 0.21281 0.19522 0.0
O1067 O 0.53453 0.19751 0.20126 0.0
O1068 O 0.66318 0.27209 0.19971 0.0
O1069 O 0.65715 0.25427 0.18228 0.0
O1070 O 0.57903 0.26772 0.21359 0.0
O1071 O 0.54892 0.23406 0.2093 0.0
H1072 H 0.32177 0.20665 0.21673 0.0
H1073 H 0.22967 0.21505 0.21533 0.0
H1074 H 0.25332 0.24691 0.18017 0.0
H1075 H 0.34566 0.23822 0.1816 0.0
H1076 H 0.75918 0.27313 0.1727 0.0
H1077 H 0.8515 0.26528 0.17411 0.0
H1078 H 0.82942 0.23567 0.20983 0.0
H1079 H 0.73687 0.24391 0.2084 0.0
Ho1080 Ho 0.80671 -0.00627 0.20634 0.0
Ho1081 Ho 0.70168 0.96879 0.20517 0.0
C1082 C 0.80184 0.93636 0.2025 0.0
C1083 C 0.89933 0.00816 0.21138 0.0
C1084 C 0.954 0.00084 0.21055 0.0
C1085 C 0.98741 0.00678 0.22004 0.0
C1086 C 0.04018 0.00192 0.2192 0.0
C1087 C 0.0609 -0.00895 0.20881 0.0
C1088 C 0.02705 0.98461 0.1994 0.0
C1089 C 0.9741 -0.01059 0.20027 0.0
C1090 C 0.76152 -0.00806 0.18425 0.0
C1091 C 0.71034 0.02694 0.20831 0.0
C1092 C 0.60902 0.95482 0.19973 0.0
C1093 C 0.55413 0.96158 0.20086 0.0
C1094 C 0.52079 0.95663 0.19122 0.0
C1095 C 0.46793 0.96113 0.19222 0.0
C1096 C 0.44703 0.97069 0.20292 0.0
C1097 C 0.4808 0.97608 0.21251 0.0
C1098 C 0.53384 0.97159 0.21149 0.0
C1099 C 0.74331 0.97152 0.2276 0.0
O1100 O 0.8282 0.95486 0.20663 0.0
O1101 O 0.75246 0.93809 0.19963 0.0
O1102 O 0.87551 0.01318 0.20128 0.0
O1103 O 0.87014 -0.0035 0.21903 0.0
O1104 O 0.78839 0.01001 0.18809 0.0
O1105 O 0.76252 0.97545 0.192 0.0
O1106 O 0.68239 0.00851 0.20447 0.0
O1107 O 0.75835 0.02434 0.2119 0.0
O1108 O 0.63324 0.94835 0.20954 0.0
O1109 O 0.63765 0.9679 0.19258 0.0
O1110 O 0.71608 0.95364 0.2237 0.0
O1111 O 0.74455 -0.01235 0.21962 0.0
H1112 H 0.97281 0.01571 0.22803 0.0
H1113 H 0.06497 0.0074 0.22656 0.0
H1114 H 0.0415 0.97591 0.19134 0.0
H1115 H 0.94909 0.98453 0.19284 0.0
H1116 H 0.53555 0.94879 0.18296 0.0
H1117 H 0.44326 0.95643 0.1847 0.0
H1118 H 0.46625 0.98376 0.22082 0.0
H1119 H 0.55882 0.97566 0.21905 0.0
Ho1120 Ho 0.45405 0.00364 0.95516 0.0
Ho1121 Ho 0.55925 0.97953 0.95665 0.0
C1122 C 0.46396 0.94574 0.95887 0.0
C1123 C 0.36161 0.01681 0.94926 0.0
C1124 C 0.30672 0.01015 0.9506 0.0
C1125 C 0.27605 0.00847 0.94021 0.0
C1126 C 0.22302 0.00442 0.94114 0.0
C1127 C 0.19928 0.00205 0.95251 0.0
C1128 C 0.23034 0.00308 0.96292 0.0
C1129 C 0.28353 0.00711 0.96198 0.0
C1130 C 0.49416 0.00162 0.97775 0.0
C1131 C 0.5534 0.03667 0.95247 0.0
C1132 C 0.65187 0.96564 0.96185 0.0
C1133 C 0.70657 0.97294 0.96081 0.0
C1134 C 0.73675 0.97405 0.97131 0.0
C1135 C 0.78969 0.97854 0.97059 0.0
C1136 C 0.81387 0.9819 0.95933 0.0
C1137 C 0.78328 0.98144 0.94883 0.0
C1138 C 0.7302 0.97699 0.94956 0.0
C1139 C 0.51482 0.98093 0.93443 0.0
O1140 O 0.43566 0.96376 0.95473 0.0
O1141 O 0.51159 0.94897 0.96258 0.0
O1142 O 0.38593 0.02474 0.95879 0.0
O1143 O 0.39021 0.00286 0.94256 0.0
O1144 O 0.46633 0.01913 0.9737 0.0
O1145 O 0.49669 0.98538 0.96985 0.0
O1146 O 0.58014 0.01851 0.9568 0.0
O1147 O 0.50427 0.03444 0.94948 0.0
O1148 O 0.62766 0.95955 0.95196 0.0
O1149 O 0.62288 0.97791 0.96929 0.0
O1150 O 0.54152 0.96294 0.93838 0.0
O1151 O 0.51556 -0.00259 0.94216 0.0
H1152 H 0.29303 0.01076 0.93134 0.0
H1153 H 0.20055 0.00329 0.93292 0.0
H1154 H 0.21335 0.00152 0.97183 0.0
H1155 H 0.30619 0.00837 0.97017 0.0
H1156 H 0.7195 0.97094 0.98009 0.0
H1157 H 0.81174 0.97921 0.97888 0.0
H1158 H 0.80058 0.98372 0.94 0.0
H1159 H 0.70801 0.97618 0.94129 0.0
Ho1160 Ho 0.34839 0.71984 0.94715 0.0
Ho1161 Ho 0.24254 0.74354 0.94789 0.0
C1162 C 0.33722 0.7777 0.95098 0.0
C1163 C 0.44091 0.70662 0.94136 0.0
C1164 C 0.49552 0.71372 0.9424 0.0
C1165 C 0.52776 0.71093 0.93233 0.0
C1166 C 0.58062 0.71538 0.93322 0.0
C1167 C 0.60249 0.72269 0.94424 0.0
C1168 C 0.56982 0.72608 0.95426 0.0
C1169 C 0.51679 0.72167 0.95335 0.0
C1170 C 0.30587 0.72161 0.96948 0.0
C1171 C 0.24975 0.68612 0.94508 0.0
C1172 C 0.14939 0.75759 0.95243 0.0
C1173 C 0.095 0.75006 0.9514 0.0
C1174 C 0.06227 0.75332 0.96135 0.0
C1175 C 1.00958 0.74846 0.96042 0.0
C1176 C 0.98835 0.7403 0.94949 0.0
C1177 C 1.02149 0.73647 0.93959 0.0
C1178 C 0.07435 0.74126 0.94054 0.0
C1179 C 0.28966 0.74206 0.92599 0.0
O1180 O 0.36723 0.75979 0.9474 0.0
O1181 O 0.28861 0.77439 0.9539 0.0
O1182 O 0.41731 0.69975 0.95121 0.0
O1183 O 0.41171 0.71966 0.93434 0.0
O1184 O 0.33543 0.70451 0.96566 0.0
O1185 O 0.30335 0.73786 0.96155 0.0
O1186 O 0.2219 0.70477 0.94833 0.0
O1187 O 0.29947 0.68787 0.94255 0.0
O1188 O 0.17412 0.76268 0.94245 0.0
O1189 O 0.17791 0.7461 0.96025 0.0
O1190 O 0.26245 0.76003 0.92977 0.0
O1191 O 0.28827 0.72555 0.93373 0.0
H1192 H 0.51218 0.7047 0.92381 0.0
H1193 H 0.60459 0.71231 0.92536 0.0
H1194 H 0.58527 0.73202 0.96284 0.0
H1195 H 0.49268 0.72406 0.96125 0.0
H1196 H 0.0773 0.76023 0.96978 0.0
H1197 H 0.98521 0.75188 0.96818 0.0
H1198 H 1.0065 0.72989 0.93109 0.0
H1199 H 0.0988 0.73848 0.93273 0.0
Ho1200 Ho 0.44933 0.7179 0.83007 0.0
Ho1201 Ho 0.55454 0.74201 0.82865 0.0
C1202 C 0.45947 0.77585 0.82637 0.0
C1203 C 0.35663 0.70475 0.83589 0.0
C1204 C 0.3018 0.71139 0.83445 0.0
C1205 C 0.27131 0.71417 0.84483 0.0
C1206 C 0.21831 0.71818 0.84387 0.0
C1207 C 0.19441 0.71939 0.83249 0.0
C1208 C 0.22528 0.71725 0.82207 0.0
C1209 C 0.27844 0.71325 0.82304 0.0
C1210 C 0.48995 0.71987 0.80749 0.0
C1211 C 0.54846 0.68491 0.83312 0.0
C1212 C 0.64734 0.75582 0.82345 0.0
C1213 C 0.70195 0.74843 0.82449 0.0
C1214 C 0.73167 0.74621 0.81395 0.0
C1215 C 0.78455 0.74164 0.81462 0.0
C1216 C 0.80915 0.73933 0.82588 0.0
C1217 C 0.77903 0.74092 0.83644 0.0
C1218 C 0.72601 0.74544 0.83576 0.0
C1219 C 0.50952 0.74081 0.85083 0.0
O1220 O 0.43097 0.75778 0.83044 0.0
O1221 O 0.50728 0.7727 0.82276 0.0
O1222 O 0.38128 0.69669 0.82642 0.0
O1223 O 0.38507 0.7188 0.84258 0.0
O1224 O 0.46217 0.70232 0.81156 0.0
O1225 O 0.49231 0.73614 0.81539 0.0
O1226 O 0.57544 0.703 0.82872 0.0
O1227 O 0.49919 0.68723 0.83599 0.0
O1228 O 0.62308 0.76196 0.83334 0.0
O1229 O 0.61827 0.7436 0.816 0.0
O1230 O 0.53647 0.75877 0.84687 0.0
O1231 O 0.51039 0.72427 0.84315 0.0
H1232 H 0.28839 0.71277 0.85373 0.0
H1233 H 0.19599 0.72018 0.85208 0.0
H1234 H 0.20816 0.71789 0.81317 0.0
H1235 H 0.30093 0.71111 0.81486 0.0
H1236 H 0.71412 0.74851 0.80515 0.0
H1237 H 0.80624 0.74009 0.8063 0.0
H1238 H 0.79667 0.73947 0.84527 0.0
H1239 H 0.70424 0.74716 0.84406 0.0
Ho1240 Ho 0.3403 0.00138 0.83838 0.0
Ho1241 Ho 0.23644 0.97717 0.83924 0.0
C1242 C 0.33044 0.94345 0.83481 0.0
C1243 C 0.43405 0.01561 0.84222 0.0
C1244 C 0.48849 0.00808 0.8409 0.0
C1245 C 0.51244 -0.00629 0.84969 0.0
C1246 C 0.56538 -0.0109 0.8491 0.0
C1247 C 0.59562 -0.0011 0.83976 0.0
C1248 C 0.57135 0.01275 0.83082 0.0
C1249 C 0.51849 0.01736 0.83141 0.0
C1250 C 0.29205 -0.00046 0.81672 0.0
C1251 C 0.24225 0.03468 0.84152 0.0
C1252 C 0.14258 0.9621 0.83667 0.0
C1253 C 0.08828 0.96975 0.83807 0.0
C1254 C 0.06472 0.98517 0.82969 0.0
C1255 C 1.01182 -0.01013 0.83037 0.0
C1256 C 0.98131 0.9792 0.83942 0.0
C1257 C 1.00533 0.96438 0.848 0.0
C1258 C 0.0581 0.95963 0.8473 0.0
C1259 C 0.28913 0.97861 0.86039 0.0
O1260 O 0.3606 0.96158 0.83807 0.0
O1261 O 0.28118 0.94647 0.83259 0.0
O1262 O 0.40848 0.02026 0.83234 0.0
O1263 O 0.40582 0.00469 0.85033 0.0
O1264 O 0.31975 0.01739 0.82045 0.0
O1265 O 0.29285 0.98299 0.82452 0.0
O1266 O 0.21437 0.01583 0.83856 0.0
O1267 O 0.29228 0.03314 0.8436 0.0
O1268 O 0.1694 0.95914 0.84654 0.0
O1269 O 0.16961 0.97169 0.82792 0.0
O1270 O 0.26268 0.96028 0.85676 0.0
O1271 O 0.2848 -0.00461 0.85286 0.0
H1272 H 0.49065 0.98656 0.85723 0.0
H1273 H 0.58292 0.97859 0.85621 0.0
H1274 H 0.59333 0.02029 0.82341 0.0
H1275 H 0.50134 0.02871 0.82458 0.0
H1276 H 0.08674 -0.0069 0.82239 0.0
H1277 H 0.99455 0.00118 0.82354 0.0
H1278 H 0.98322 0.95618 0.85521 0.0
H1279 H 0.07509 0.94754 0.85383 0.0
H1280 H 0.03907 0.39335 0.09637 0.0
H1281 H 0.76298 0.32982 0.09103 0.0
H1282 H 0.89404 0.43013 0.10091 0.0
H1283 H 0.90621 0.29592 0.08086 0.0
H1284 H 0.81126 0.36552 0.09699 0.0
H1285 H 0.99173 0.35575 0.09344 0.0
C1286 C 0.9974 0.39344 0.09695 0.0
C1287 C 0.9704 0.41487 0.09875 0.0
C1288 C 0.83207 0.35024 0.09345 0.0
C1289 C 0.91619 0.37222 0.0953 0.0
C1290 C 0.8045 0.32989 0.09001 0.0
C1291 C 0.8305 0.30992 0.08536 0.0
C1292 C 0.88601 0.35055 0.09228 0.0
C1293 C 0.88444 0.31096 0.08432 0.0
C1294 C 0.97039 0.37205 0.09519 0.0
C1295 C 0.91639 0.41404 0.09938 0.0
N1296 N 0.91039 0.33095 0.08775 0.0
N1297 N 0.89106 0.3931 0.09758 0.0
H1298 H 0.3858 0.93297 0.09249 0.0
H1299 H 0.40536 0.79144 0.08493 0.0
H1300 H 0.53008 0.89446 0.09234 0.0
H1301 H 0.26096 0.82945 0.08809 0.0
H1302 H 0.4514 0.82869 0.08846 0.0
H1303 H 0.33963 0.89506 0.09193 0.0
C1304 C 0.40787 0.9165 0.0924 0.0
C1305 C 0.462 0.91687 0.09233 0.0
C1306 C 0.40966 0.8289 0.08844 0.0
C1307 C 0.40906 0.87332 0.09164 0.0
C1308 C 0.38317 0.80762 0.08637 0.0
C1309 C 0.329 0.80731 0.08611 0.0
C1310 C 0.38197 0.85015 0.0902 0.0
C1311 C 0.30265 0.82884 0.08816 0.0
C1312 C 0.38136 0.89484 0.09211 0.0
C1313 C 0.48838 0.89498 0.09237 0.0
N1314 N 0.32944 0.84944 0.09005 0.0
N1315 N 0.4616 0.87404 0.0919 0.0
H1316 H 0.76384 0.89292 0.19486 0.0
H1317 H 0.04115 0.82978 0.19545 0.0
H1318 H 0.90524 0.92886 0.20475 0.0
H1319 H 0.89778 0.79173 0.19021 0.0
H1320 H 0.99285 0.86739 0.1964 0.0
H1321 H 0.81329 0.85638 0.191 0.0
C1322 C 0.80517 0.89314 0.19623 0.0
C1323 C 0.8303 0.91392 0.20022 0.0
C1324 C 0.97209 0.85078 0.19496 0.0
C1325 C 0.88708 0.87235 0.19574 0.0
C1326 C 0.99968 0.82935 0.19435 0.0
C1327 C 0.97348 0.80757 0.19288 0.0
C1328 C 0.91802 0.85037 0.19405 0.0
C1329 C 0.91963 0.80807 0.19151 0.0
C1330 C 0.83339 0.87231 0.194 0.0
C1331 C 0.88404 0.91322 0.20178 0.0
N1332 N 0.8937 0.82909 0.1922 0.0
N1333 N 0.91057 0.89278 0.19955 0.0
H1334 H 0.26426 0.39595 0.20056 0.0
H1335 H 0.53856 0.33103 0.1953 0.0
H1336 H 0.40812 0.4292 0.21085 0.0
H1337 H 0.39248 0.29462 0.19162 0.0
H1338 H 0.49218 0.36888 0.19816 0.0
H1339 H 0.31162 0.35989 0.19483 0.0
C1340 C 0.30573 0.39566 0.20165 0.0
C1341 C 0.33217 0.41556 0.20627 0.0
C1342 C 0.47041 0.3526 0.19663 0.0
C1343 C 0.38664 0.3745 0.19961 0.0
C1344 C 0.49685 0.33107 0.1949 0.0
C1345 C 0.46929 0.30968 0.19335 0.0
C1346 C 0.4162 0.35262 0.1967 0.0
C1347 C 0.41526 0.31067 0.19295 0.0
C1348 C 0.33277 0.3751 0.19834 0.0
C1349 C 0.38602 0.41422 0.20741 0.0
N1350 N 0.3905 0.33175 0.19469 0.0
N1351 N 0.41148 0.39404 0.20411 0.0
H1352 H 1.01426 0.5782 0.95063 0.0
H1353 H 0.29155 0.64118 0.94727 0.0
H1354 H 0.15562 0.54421 0.96203 0.0
H1355 H 0.14744 0.6783 0.94201 0.0
H1356 H 0.24352 0.60355 0.94965 0.0
H1357 H 0.06378 0.61369 0.94486 0.0
C1358 C 0.05561 0.57822 0.95196 0.0
C1359 C 0.08072 0.55829 0.95691 0.0
C1360 C 0.22257 0.61994 0.94786 0.0
C1361 C 0.13763 0.59865 0.95021 0.0
C1362 C 0.24997 0.64132 0.94641 0.0
C1363 C 0.22333 0.66283 0.9446 0.0
C1364 C 0.16839 0.62023 0.9474 0.0
C1365 C 0.16943 0.66212 0.94358 0.0
C1366 C 0.08389 0.59843 0.94862 0.0
C1367 C 0.1345 0.55923 0.95834 0.0
N1368 N 0.14372 0.6412 0.94508 0.0
N1369 N 0.16114 0.57909 0.95502 0.0
H1370 H 0.7891 0.1443 0.94241 0.0
H1371 H 0.51348 0.07966 0.94493 0.0
H1372 H 0.64398 0.18194 0.94065 0.0
H1373 H 0.65687 0.04477 0.95402 0.0
H1374 H 0.56149 0.11643 0.94057 0.0
H1375 H 0.74171 0.10635 0.94356 0.0
C1376 C 0.74738 0.14455 0.94211 0.0
C1377 C 0.72041 0.16625 0.94159 0.0
C1378 C 0.58234 0.10067 0.94351 0.0
C1379 C 0.66617 0.12317 0.94295 0.0
C1380 C 0.55495 0.07972 0.94602 0.0
C1381 C 0.5811 0.0592 0.94994 0.0
C1382 C 0.63619 0.10099 0.94487 0.0
C1383 C 0.63497 0.06024 0.95112 0.0
C1384 C 0.72036 0.12295 0.94284 0.0
C1385 C 0.66633 0.16561 0.94123 0.0
N1386 N 0.66071 0.0808 0.94861 0.0
N1387 N 0.64099 0.14442 0.94198 0.0
H1388 H 1.01077 0.14521 0.83862 0.0
H1389 H 0.2851 0.0797 0.84095 0.0
H1390 H 0.15441 0.17978 0.8292 0.0
H1391 H 0.13911 0.0427 0.84323 0.0
H1392 H 0.23862 0.11781 0.83955 0.0
H1393 H 0.05824 0.1084 0.84295 0.0
C1394 C 0.05222 0.14507 0.83746 0.0
C1395 C 0.07856 0.16554 0.83346 0.0
C1396 C 0.21689 0.10133 0.84044 0.0
C1397 C 0.13311 0.12361 0.83848 0.0
C1398 C 0.24339 0.07963 0.84131 0.0
C1399 C 0.21592 0.05803 0.84209 0.0
C1400 C 0.16269 0.10133 0.84043 0.0
C1401 C 0.16186 0.05892 0.84249 0.0
C1402 C 0.07931 0.12408 0.83995 0.0
C1403 C 0.13238 0.16437 0.83217 0.0
N1404 N 0.13704 0.0802 0.8416 0.0
N1405 N 0.15787 0.14375 0.83467 0.0
H1406 H 0.50851 0.64281 0.84192 0.0
H1407 H 0.78411 0.57897 0.84675 0.0
H1408 H 0.65184 0.67641 0.8314 0.0
H1409 H 0.63898 0.54184 0.85082 0.0
H1410 H 0.73681 0.61653 0.84391 0.0
H1411 H 0.55644 0.60681 0.84755 0.0
C1412 C 0.54996 0.64261 0.84075 0.0
C1413 C 0.5761 0.66259 0.83611 0.0
C1414 C 0.71543 0.60015 0.84552 0.0
C1415 C 0.63119 0.62165 0.84266 0.0
C1416 C 0.74241 0.57878 0.84723 0.0
C1417 C 0.71542 0.55727 0.8489 0.0
C1418 C 0.66123 0.59991 0.84556 0.0
C1419 C 0.66136 0.558 0.84941 0.0
C1420 C 0.57732 0.62209 0.844 0.0
C1421 C 0.62994 0.66137 0.83486 0.0
N1422 N 0.63605 0.57894 0.84768 0.0
N1423 N 0.65568 0.64125 0.83813 0.0
H1424 H 0.03369 0.89714 0.59223 0.0
H1425 H 0.75851 0.83244 0.58719 0.0
H1426 H 0.8884 0.93478 0.59128 0.0
H1427 H 0.9042 0.79569 0.5835 0.0
H1428 H 0.80543 0.86976 0.59091 0.0
H1429 H 0.98652 0.85909 0.59151 0.0
C1430 C 0.99196 0.89739 0.592 0.0
C1431 C 0.96499 0.91912 0.59167 0.0
C1432 C 0.82703 0.85347 0.58931 0.0
C1433 C 0.91093 0.87587 0.59079 0.0
C1434 C 0.80025 0.83218 0.58717 0.0
C1435 C 0.82734 0.81093 0.58493 0.0
C1436 C 0.88123 0.85345 0.58925 0.0
C1437 C 0.88152 0.81166 0.58508 0.0
C1438 C 0.96506 0.87571 0.59153 0.0
C1439 C 0.91087 0.91844 0.59138 0.0
N1440 N 0.90662 0.83256 0.58717 0.0
N1441 N 0.88568 0.89719 0.59088 0.0
H1442 H 0.262 0.33268 0.5896 0.0
H1443 H 0.53816 0.39577 0.5964 0.0
H1444 H 0.40657 0.29823 0.58102 0.0
H1445 H 0.39323 0.43305 0.59997 0.0
H1446 H 0.49059 0.35827 0.59339 0.0
H1447 H 0.30969 0.36864 0.5955 0.0
C1448 C 0.30364 0.33267 0.58891 0.0
C1449 C 0.33018 0.3124 0.58476 0.0
C1450 C 0.46929 0.37466 0.59493 0.0
C1451 C 0.38498 0.35333 0.59163 0.0
C1452 C 0.49644 0.39599 0.59675 0.0
C1453 C 0.46959 0.41753 0.59829 0.0
C1454 C 0.41508 0.37499 0.59473 0.0
C1455 C 0.41549 0.41686 0.59863 0.0
C1456 C 0.33087 0.35316 0.59233 0.0
C1457 C 0.38428 0.3134 0.58414 0.0
N1458 N 0.39003 0.39597 0.59678 0.0
N1459 N 0.40983 0.3335 0.58754 0.0
H1460 H 0.03209 0.33031 0.69401 0.0
H1461 H 0.75676 0.39396 0.70028 0.0
H1462 H 0.88672 0.29369 0.68947 0.0
H1463 H 0.90035 0.42709 0.71087 0.0
H1464 H 0.80455 0.35838 0.69399 0.0
H1465 H 0.98509 0.36779 0.69739 0.0
C1466 C 0.99041 0.33024 0.69351 0.0
C1467 C 0.96323 0.30887 0.69158 0.0
C1468 C 0.82554 0.37346 0.69769 0.0
C1469 C 0.90938 0.3514 0.69556 0.0
C1470 C 0.79825 0.39374 0.70132 0.0
C1471 C 0.82449 0.41348 0.70618 0.0
C1472 C 0.87945 0.37297 0.69887 0.0
C1473 C 0.87838 0.41223 0.70725 0.0
C1474 C 0.96359 0.35156 0.69554 0.0
C1475 C 0.9092 0.30973 0.69108 0.0
N1476 N 0.90407 0.39233 0.70362 0.0
N1477 N 0.88406 0.33061 0.69314 0.0
H1478 H 0.53308 0.82824 0.69342 0.0
H1479 H 0.25808 0.89338 0.69519 0.0
H1480 H 0.38744 0.79077 0.69205 0.0
H1481 H 0.40201 0.92897 0.7032 0.0
H1482 H 0.30566 0.85628 0.69151 0.0
H1483 H 0.48621 0.8663 0.69428 0.0
C1484 C 0.49136 0.82803 0.69317 0.0
C1485 C 0.46416 0.80633 0.69278 0.0
C1486 C 0.32676 0.87225 0.69406 0.0
C1487 C 0.41042 0.84961 0.6938 0.0
C1488 C 0.29961 0.89342 0.69616 0.0
C1489 C 0.326 0.91426 0.69959 0.0
C1490 C 0.38065 0.87199 0.69533 0.0
C1491 C 0.37992 0.91329 0.70067 0.0
C1492 C 0.46462 0.84971 0.69372 0.0
C1493 C 0.41005 0.80707 0.69249 0.0
N1494 N 0.40543 0.8925 0.69856 0.0
N1495 N 0.385 0.82834 0.69305 0.0
H1496 H 0.15839 0.04267 0.45521 0.0
H1497 H 0.14863 0.17991 0.43576 0.0
H1498 H 1.01978 0.07766 0.44278 0.0
H1499 H 0.28859 0.1432 0.44576 0.0
H1500 H 0.10188 0.14216 0.43702 0.0
H1501 H 0.20697 0.07887 0.45093 0.0
C1502 C 0.13799 0.058 0.4516 0.0
C1503 C 0.08467 0.05715 0.44943 0.0
C1504 C 0.14287 0.14228 0.43883 0.0
C1505 C 0.14062 0.09879 0.44444 0.0
C1506 C 0.16967 0.16384 0.43814 0.0
C1507 C 0.22251 0.16475 0.44084 0.0
C1508 C 0.16898 0.12144 0.44234 0.0
C1509 C 0.24787 0.14332 0.44364 0.0
C1510 C 0.16599 0.07867 0.4491 0.0
C1511 C 0.06071 0.07755 0.44465 0.0
N1512 N 0.22069 0.12254 0.44446 0.0
N1513 N 0.08888 0.09762 0.44236 0.0
H1514 H 0.79195 0.64138 0.44925 0.0
H1515 H 0.51678 0.57602 0.44957 0.0
H1516 H 0.64881 0.67635 0.44013 0.0
H1517 H 0.65671 0.54371 0.46299 0.0
H1518 H 0.56607 0.61182 0.44414 0.0
H1519 H 0.74469 0.60369 0.45189 0.0
C1520 C 0.75081 0.64105 0.44762 0.0
C1521 C 0.7242 0.66205 0.44461 0.0
C1522 C 0.58592 0.59686 0.44828 0.0
C1523 C 0.66996 0.61927 0.44774 0.0
C1524 C 0.55775 0.57648 0.45142 0.0
C1525 C 0.58252 0.5569 0.4568 0.0
C1526 C 0.63923 0.59762 0.4505 0.0
C1527 C 0.63583 0.55842 0.45891 0.0
C1528 C 0.72379 0.61961 0.44921 0.0
C1529 C 0.67082 0.66064 0.44263 0.0
N1530 N 0.66237 0.57842 0.45576 0.0
N1531 N 0.64543 0.63967 0.44431 0.0
H1532 H 0.28425 0.57981 0.34769 0.0
H1533 H 1.00758 0.64254 0.34232 0.0
H1534 H 0.13967 0.54222 0.35169 0.0
H1535 H 0.15101 0.67699 0.33262 0.0
H1536 H 0.05594 0.60682 0.34822 0.0
H1537 H 0.23644 0.61729 0.34507 0.0
C1538 C 0.24257 0.57951 0.34822 0.0
C1539 C 0.21587 0.55788 0.34977 0.0
C1540 C 0.07675 0.62224 0.34481 0.0
C1541 C 0.16108 0.60044 0.34666 0.0
C1542 C 0.04914 0.64259 0.3414 0.0
C1543 C 0.07518 0.66273 0.33688 0.0
C1544 C 0.13074 0.62209 0.34373 0.0
C1545 C 0.12917 0.66183 0.33597 0.0
C1546 C 0.21528 0.60084 0.34663 0.0
C1547 C 0.16181 0.55847 0.35035 0.0
N1548 N 0.15512 0.64186 0.33935 0.0
N1549 N 0.1362 0.57936 0.34871 0.0
H1550 H 0.78709 0.07935 0.34118 0.0
H1551 H 0.51317 0.14528 0.33888 0.0
H1552 H 0.64076 0.04246 0.34243 0.0
H1553 H 0.65747 0.18037 0.33058 0.0
H1554 H 0.56027 0.10818 0.34275 0.0
H1555 H 0.74091 0.1176 0.34009 0.0
C1556 C 0.74536 0.07932 0.34137 0.0
C1557 C 0.71773 0.05773 0.34178 0.0
C1558 C 0.58158 0.12403 0.3401 0.0
C1559 C 0.66484 0.10118 0.34049 0.0
C1560 C 0.5547 0.1452 0.33787 0.0
C1561 C 0.58133 0.16591 0.33431 0.0
C1562 C 0.63546 0.12362 0.33881 0.0
C1563 C 0.63524 0.16479 0.33321 0.0
C1564 C 0.71903 0.1011 0.34068 0.0
C1565 C 0.66366 0.05867 0.34198 0.0
N1566 N 0.66051 0.14398 0.33544 0.0
N1567 N 0.63902 0.08002 0.34128 0.0
H1568 H 0.08758 0.45525 0.12854 0.0
H1569 H 0.24045 0.5325 0.17795 0.0
H1570 H 0.07108 0.53179 0.13207 0.0
H1571 H 0.21875 0.45613 0.181 0.0
H1572 H 0.18602 0.53252 0.15984 0.0
H1573 H 0.143 0.45507 0.1465 0.0
C1574 C 0.09563 0.47201 0.13311 0.0
C1575 C 0.07467 0.49357 0.12883 0.0
C1576 C 0.1932 0.51575 0.16446 0.0
C1577 C 0.13831 0.49354 0.14933 0.0
C1578 C 0.22445 0.51572 0.17476 0.0
C1579 C 0.23412 0.49428 0.18097 0.0
C1580 C 0.17196 0.49413 0.16024 0.0
C1581 C 0.2122 0.47306 0.17648 0.0
C1582 C 0.12716 0.47189 0.14337 0.0
C1583 C 0.0863 0.51476 0.1351 0.0
N1584 N 0.18232 0.4735 0.16637 0.0
N1585 N 0.1175 0.51424 0.14498 0.0
H1586 H 0.23734 0.68796 0.11456 0.0
H1587 H 0.0883 0.76479 0.16479 0.0
H1588 H 0.21434 0.76425 0.11187 0.0
H1589 H 0.07218 0.68814 0.16182 0.0
H1590 H 0.14147 0.76483 0.14648 0.0
H1591 H 0.18393 0.68746 0.13291 0.0
C1592 C 0.22119 0.7046 0.11786 0.0
C1593 C 0.23025 0.72618 0.11168 0.0
C1594 C 0.12625 0.74799 0.1498 0.0
C1595 C 0.1694 0.72579 0.13271 0.0
C1596 C 0.09597 0.74795 0.16027 0.0
C1597 C 0.07577 0.72643 0.16483 0.0
C1598 C 0.13697 0.72629 0.14386 0.0
C1599 C 0.08689 0.70514 0.15859 0.0
C1600 C 0.19055 0.7043 0.1283 0.0
C1601 C 0.20824 0.74721 0.11633 0.0
N1602 N 0.11694 0.70558 0.14847 0.0
N1603 N 0.17908 0.74651 0.12657 0.0
H1604 H 0.83765 0.51777 0.87839 0.0
H1605 H 0.9893 0.44175 0.92847 0.0
H1606 H 0.82204 0.44124 0.88234 0.0
H1607 H 0.96703 0.51808 0.93127 0.0
H1608 H 0.93593 0.44143 0.91021 0.0
H1609 H 0.89271 0.51853 0.89644 0.0
C1610 C 0.84587 0.50114 0.88305 0.0
C1611 C 0.82518 0.47941 0.87889 0.0
C1612 C 0.94273 0.45827 0.9148 0.0
C1613 C 0.88838 0.4801 0.89946 0.0
C1614 C 0.97338 0.45847 0.92519 0.0
C1615 C 0.98256 0.47997 0.93139 0.0
C1616 C 0.92158 0.47979 0.91045 0.0
C1617 C 0.96079 0.5011 0.92677 0.0
C1618 C 0.87717 0.50158 0.89336 0.0
C1619 C 0.83703 0.45839 0.88527 0.0
N1620 N 0.93147 0.50051 0.91657 0.0
N1621 N 0.86797 0.45924 0.89519 0.0
H1622 H 0.98539 0.28262 0.86249 0.0
H1623 H 0.83639 0.20619 0.9129 0.0
H1624 H 0.96388 0.2062 0.85977 0.0
H1625 H 0.81883 0.28259 0.90894 0.0
H1626 H 0.89018 0.20564 0.89464 0.0
H1627 H 0.9317 0.28285 0.88073 0.0
C1628 C 0.96954 0.26587 0.86577 0.0
C1629 C 0.97913 0.24435 0.85962 0.0
C1630 C 0.87444 0.22252 0.89774 0.0
C1631 C 0.91779 0.24444 0.88053 0.0
C1632 C 0.84384 0.22284 0.90817 0.0
C1633 C 0.82308 0.24447 0.91242 0.0
C1634 C 0.88488 0.24403 0.89158 0.0
C1635 C 0.83393 0.26552 0.90595 0.0
C1636 C 0.93871 0.26602 0.87615 0.0
C1637 C 0.95739 0.22318 0.86424 0.0
N1638 N 0.86426 0.2648 0.89591 0.0
N1639 N 0.92794 0.22373 0.87444 0.0
H1640 H 0.06196 0.03585 0.62415 0.0
H1641 H 0.20895 0.95526 0.67317 0.0
H1642 H 0.07877 0.95934 0.62058 0.0
H1643 H 0.22938 0.03174 0.6704 0.0
H1644 H 0.15431 0.95627 0.65508 0.0
H1645 H 0.11606 0.03466 0.64231 0.0
C1646 C 0.07688 0.01879 0.62723 0.0
C1647 C 0.06593 -0.00233 0.62084 0.0
C1648 C 0.17086 0.97283 0.65841 0.0
C1649 C 0.1277 -0.00388 0.64166 0.0
C1650 C 0.20198 0.97225 0.66874 0.0
C1651 C 0.22386 -0.00657 0.67326 0.0
C1652 C 0.161 -0.00521 0.65263 0.0
C1653 C 0.2135 0.01497 0.66717 0.0
C1654 C 0.10793 0.01812 0.63756 0.0
C1655 C 0.08639 0.97606 0.62522 0.0
N1656 N 0.18266 0.01512 0.65722 0.0
N1657 N 0.1161 0.97582 0.63536 0.0
H1658 H 0.21336 0.27047 0.60923 0.0
H1659 H 0.0642 0.19155 0.65855 0.0
H1660 H 0.23511 0.19423 0.61275 0.0
H1661 H 0.08209 0.26811 0.66169 0.0
H1662 H 0.11991 0.19209 0.64064 0.0
H1663 H 0.15853 0.26994 0.62728 0.0
C1664 C 0.2066 0.25361 0.61383 0.0
C1665 C 0.22885 0.23236 0.60951 0.0
C1666 C 0.11171 0.20877 0.64525 0.0
C1667 C 0.1658 0.23157 0.63014 0.0
C1668 C 0.07975 0.20849 0.65544 0.0
C1669 C 0.0685 0.22982 0.66161 0.0
C1670 C 0.13209 0.2306 0.64106 0.0
C1671 C 0.08985 0.25125 0.65721 0.0
C1672 C 0.1754 0.25333 0.62414 0.0
C1673 C 0.21885 0.21102 0.61581 0.0
N1674 N 0.12038 0.25112 0.64718 0.0
N1675 N 0.18783 0.21114 0.62576 0.0
H1676 H 0.97041 0.0177 0.42288 0.0
H1677 H 0.81587 0.93997 0.374 0.0
H1678 H 0.98617 0.94108 0.41969 0.0
H1679 H 0.83463 0.01651 0.37107 0.0
H1680 H 0.87232 0.94008 0.39174 0.0
H1681 H 0.91527 0.01776 0.4049 0.0
C1682 C 0.96237 0.00089 0.41836 0.0
C1683 C 0.98296 0.97935 0.42277 0.0
C1684 C 0.86417 0.95686 0.38723 0.0
C1685 C 0.91945 0.97924 0.40223 0.0
C1686 C 0.83175 0.95682 0.37713 0.0
C1687 C 0.82056 0.97827 0.37105 0.0
C1688 C 0.88513 0.97856 0.39141 0.0
C1689 C 0.84235 -0.00043 0.37548 0.0
C1690 C 0.93094 0.00094 0.40809 0.0
C1691 C 0.97126 0.9581 0.41657 0.0
N1692 N 0.8734 -0.0008 0.3854 0.0
N1693 N 0.94008 0.95855 0.40667 0.0
H1694 H 0.9578 0.70275 0.36161 0.0
H1695 H 0.80975 0.78102 0.41138 0.0
H1696 H 0.97689 0.77924 0.36469 0.0
H1697 H 0.83372 0.70495 0.41505 0.0
H1698 H 0.86297 0.78073 0.39301 0.0
H1699 H 0.90448 0.70311 0.37993 0.0
C1700 C 0.95078 0.71962 0.36615 0.0
C1701 C 0.97197 0.74099 0.36165 0.0
C1702 C 0.85661 0.7641 0.39784 0.0
C1703 C 0.91051 0.7416 0.38257 0.0
C1704 C 0.82608 0.76425 0.40829 0.0
C1705 C 0.81741 0.74299 0.41475 0.0
C1706 C 0.87799 0.74246 0.3937 0.0
C1707 C 0.83957 0.72176 0.41035 0.0
C1708 C 0.92043 0.71981 0.37662 0.0
C1709 C 0.96154 0.76234 0.36789 0.0
N1710 N 0.86862 0.72201 0.40009 0.0
N1711 N 0.93136 0.76213 0.37798 0.0
H1712 H 0.56871 0.53454 0.63163 0.0
H1713 H 0.71218 0.45425 0.6812 0.0
H1714 H 0.58463 0.45794 0.62833 0.0
H1715 H 0.73505 0.53054 0.67814 0.0
H1716 H 0.65889 0.45522 0.66292 0.0
H1717 H 0.62281 0.53349 0.64978 0.0
C1718 C 0.58348 0.51749 0.63475 0.0
C1719 C 0.57223 0.4963 0.62846 0.0
C1720 C 0.67571 0.47174 0.66621 0.0
C1721 C 0.63395 0.49492 0.64927 0.0
C1722 C 0.70606 0.4712 0.67665 0.0
C1723 C 0.72817 0.49234 0.68116 0.0
C1724 C 0.66682 0.49364 0.6603 0.0
C1725 C 0.71895 0.51381 0.67493 0.0
C1726 C 0.61453 0.51691 0.64508 0.0
C1727 C 0.59249 0.4747 0.6329 0.0
N1728 N 0.68876 0.51394 0.66486 0.0
N1729 N 0.62216 0.47455 0.64304 0.0
H1730 H 0.73908 0.69192 0.61397 0.0
H1731 H 0.58579 0.76696 0.66419 0.0
H1732 H 0.71393 0.76804 0.61114 0.0
H1733 H 0.56992 0.69049 0.66007 0.0
H1734 H 0.6406 0.76791 0.64608 0.0
H1735 H 0.68511 0.69115 0.6322 0.0
C1736 C 0.72236 0.70848 0.61722 0.0
C1737 C 0.73093 0.73007 0.61104 0.0
C1738 C 0.62505 0.75093 0.64913 0.0
C1739 C 0.6694 0.72938 0.63193 0.0
C1740 C 0.59389 0.75038 0.65947 0.0
C1741 C 0.57316 0.72862 0.66361 0.0
C1742 C 0.6362 0.72952 0.64296 0.0
C1743 C 0.58492 0.70767 0.65716 0.0
C1744 C 0.69139 0.70803 0.62759 0.0
C1745 C 0.70818 0.751 0.61563 0.0
N1746 N 0.6158 0.70861 0.64721 0.0
N1747 N 0.67867 0.75017 0.62581 0.0
H1748 H 0.32128 0.43984 0.38137 0.0
H1749 H 0.47089 0.51751 0.43099 0.0
H1750 H 0.33778 0.51655 0.37881 0.0
H1751 H 0.49071 0.4412 0.4272 0.0
H1752 H 0.41673 0.51759 0.41285 0.0
H1753 H 0.37757 0.43997 0.39912 0.0
C1754 C 0.33669 0.45673 0.38457 0.0
C1755 C 0.32484 0.47822 0.37861 0.0
C1756 C 0.4331 0.50084 0.41594 0.0
C1757 C 0.38916 0.47853 0.39899 0.0
C1758 C 0.46396 0.50078 0.4263 0.0
C1759 C 0.48537 0.47931 0.43058 0.0
C1760 C 0.42302 0.47922 0.40987 0.0
C1761 C 0.47512 0.45816 0.42417 0.0
C1762 C 0.36899 0.45678 0.39468 0.0
C1763 C 0.34602 0.49957 0.38313 0.0
N1764 N 0.44444 0.45861 0.41419 0.0
N1765 N 0.37692 0.49921 0.39307 0.0
H1766 H 0.31519 0.28436 0.41013 0.0
H1767 H 0.46546 0.20604 0.3607 0.0
H1768 H 0.3366 0.20806 0.41342 0.0
H1769 H 0.48424 0.28254 0.36386 0.0
H1770 H 0.41075 0.2064 0.3788 0.0
H1771 H 0.36951 0.28413 0.39193 0.0
C1772 C 0.3312 0.26756 0.40699 0.0
C1773 C 0.32154 0.24622 0.4133 0.0
C1774 C 0.42695 0.2231 0.37556 0.0
C1775 C 0.38334 0.24574 0.39246 0.0
C1776 C 0.4581 0.2229 0.36523 0.0
C1777 C 0.47957 0.24428 0.36082 0.0
C1778 C 0.41659 0.24489 0.38146 0.0
C1779 C 0.4687 0.26564 0.36701 0.0
C1780 C 0.36234 0.26744 0.39664 0.0
C1781 C 0.34327 0.22494 0.40885 0.0
N1782 N 0.4378 0.26543 0.37697 0.0
N1783 N 0.37295 0.22522 0.3987 0.0
H1784 H 0.71435 0.95371 0.17335 0.0
H1785 H 0.5642 0.03339 0.12452 0.0
H1786 H 0.73447 0.03014 0.17012 0.0
H1787 H 0.57994 0.95678 0.12126 0.0
H1788 H 0.62001 0.03248 0.14237 0.0
H1789 H 0.65895 0.95431 0.15538 0.0
C1790 C 0.70718 0.97061 0.16883 0.0
C1791 C 0.72911 -0.0081 0.17321 0.0
C1792 C 0.61132 0.01586 0.13776 0.0
C1793 C 0.66539 -0.00722 0.15271 0.0
C1794 C 0.57928 0.01636 0.1276 0.0
C1795 C 0.56749 -0.00487 0.12139 0.0
C1796 C 0.63126 -0.00609 0.14187 0.0
C1797 C 0.58821 0.97357 0.12576 0.0
C1798 C 0.67563 0.97094 0.15857 0.0
C1799 C 0.71853 0.01329 0.16702 0.0
N1800 N 0.6189 0.97349 0.13575 0.0
N1801 N 0.68725 0.01321 0.15714 0.0
H1802 H 0.71217 0.27055 0.10999 0.0
H1803 H 0.56184 0.19261 0.15956 0.0
H1804 H 0.73119 0.19415 0.11362 0.0
H1805 H 0.5823 0.26901 0.16282 0.0
H1806 H 0.6166 0.19294 0.1415 0.0
H1807 H 0.65769 0.27052 0.12814 0.0
C1808 C 0.70492 0.25377 0.11463 0.0
C1809 C 0.72635 0.23232 0.11033 0.0
C1810 C 0.60916 0.20964 0.14616 0.0
C1811 C 0.66362 0.23211 0.13102 0.0
C1812 C 0.57772 0.20948 0.15644 0.0
C1813 C 0.56756 0.23081 0.1627 0.0
C1814 C 0.63011 0.23136 0.14198 0.0
C1815 C 0.58928 0.25215 0.15827 0.0
C1816 C 0.67391 0.25378 0.12499 0.0
C1817 C 0.71565 0.2111 0.11667 0.0
N1818 N 0.61934 0.2519 0.14816 0.0
N1819 N 0.68484 0.21151 0.12664 0.0
H1820 H 0.31918 0.9406 0.87422 0.0
H1821 H 0.4684 0.01928 0.92356 0.0
H1822 H 0.33556 0.01725 0.87124 0.0
H1823 H 0.48879 0.94296 0.91998 0.0
H1824 H 0.414 0.01902 0.90544 0.0
H1825 H 0.37521 0.94115 0.89202 0.0
C1826 C 0.33449 0.95757 0.87734 0.0
C1827 C 0.32269 0.97892 0.87124 0.0
C1828 C 0.43054 0.00235 0.90858 0.0
C1829 C 0.38674 0.97972 0.89169 0.0
C1830 C 0.46153 0.00248 0.91893 0.0
C1831 C 0.48321 0.98111 0.92327 0.0
C1832 C 0.42059 0.98063 0.90258 0.0
C1833 C 0.47301 0.95985 0.91692 0.0
C1834 C 0.36665 0.95786 0.88747 0.0
C1835 C 0.34376 0.00038 0.87567 0.0
N1836 N 0.44223 0.96013 0.90696 0.0
N1837 N 0.37453 0.00026 0.88564 0.0
H1838 H 0.4636 0.70236 0.8618 0.0
H1839 H 0.31609 0.78021 0.91177 0.0
H1840 H 0.48364 0.77873 0.86535 0.0
H1841 H 0.33618 0.7038 0.9149 0.0
H1842 H 0.37031 0.77999 0.89361 0.0
H1843 H 0.41014 0.70242 0.8801 0.0
C1844 C 0.45682 0.71914 0.86645 0.0
C1845 C 0.47821 0.74057 0.86207 0.0
C1846 C 0.36291 0.76326 0.89826 0.0
C1847 C 0.4166 0.74082 0.88296 0.0
C1848 C 0.33177 0.76336 0.9086 0.0
C1849 C 0.32163 0.74199 0.91486 0.0
C1850 C 0.38356 0.74156 0.89401 0.0
C1851 C 0.34312 0.72069 0.91036 0.0
C1852 C 0.42637 0.71916 0.87691 0.0
C1853 C 0.46811 0.76179 0.86845 0.0
N1854 N 0.37284 0.72099 0.9002 0.0
N1855 N 0.43783 0.76141 0.87852 0.0
H1856 H 0.25949 0.6542 0.06959 0.0
H1857 H 0.03476 0.57089 0.09517 0.0
H1858 H 0.11515 0.68042 0.0839 0.0
H1859 H 0.18431 0.54319 0.08537 0.0
H1860 H 0.06357 0.61096 0.09017 0.0
H1861 H 0.23137 0.61326 0.07376 0.0
C1862 C 0.22158 0.65138 0.07345 0.0
C1863 C 0.18967 0.67082 0.07647 0.0
C1864 C 0.09036 0.59623 0.08912 0.0
C1865 C 0.15782 0.62406 0.08138 0.0
C1866 C 0.07395 0.5733 0.09199 0.0
C1867 C 0.10718 0.55371 0.09058 0.0
C1868 C 0.14046 0.59975 0.08475 0.0
C1869 C 0.15765 0.5579 0.08659 0.0
C1870 C 0.20583 0.62799 0.07591 0.0
C1871 C 0.14112 0.66604 0.08146 0.0
N1872 N 0.17278 0.58057 0.08371 0.0
N1873 N 0.12683 0.64314 0.08381 0.0
H1874 H 0.19199 0.68043 0.20374 0.0
H1875 H 0.11589 0.54285 0.21158 0.0
H1876 H 0.03526 0.65545 0.20795 0.0
H1877 H 0.2677 0.57001 0.21998 0.0
H1878 H 0.08639 0.58404 0.20866 0.0
H1879 H 0.22224 0.63953 0.20794 0.0
C1880 C 0.16408 0.66642 0.20554 0.0
C1881 C 0.11116 0.67137 0.20554 0.0
C1882 C 0.12606 0.58093 0.21124 0.0
C1883 C 0.14512 0.6249 0.21023 0.0
C1884 C 0.14283 0.55745 0.21293 0.0
C1885 C 0.19422 0.553 0.21604 0.0
C1886 C 0.16115 0.59998 0.21252 0.0
C1887 C 0.22762 0.57261 0.21763 0.0
C1888 C 0.18127 0.64318 0.20799 0.0
C1889 C 0.0765 0.65257 0.20794 0.0
N1890 N 0.21061 0.59526 0.21574 0.0
N1891 N 0.09409 0.63019 0.21013 0.0
H1892 H 0.9373 0.29333 0.95461 0.0
H1893 H 0.86441 0.43239 0.95887 0.0
H1894 H 0.78545 0.32208 0.94807 0.0
H1895 H 1.00989 0.4039 0.97123 0.0
H1896 H 0.8359 0.39177 0.95436 0.0
H1897 H 0.9673 0.33396 0.95964 0.0
C1898 C 0.91055 0.30818 0.95414 0.0
C1899 C 0.85886 0.30441 0.95105 0.0
C1900 C 0.87395 0.39439 0.95815 0.0
C1901 C 0.89232 0.35045 0.95681 0.0
C1902 C 0.8901 0.41758 0.96078 0.0
C1903 C 0.93959 0.42155 0.9654 0.0
C1904 C 0.90766 0.37506 0.96006 0.0
C1905 C 0.97135 0.40167 0.96767 0.0
C1906 C 0.92745 0.33126 0.95709 0.0
C1907 C 0.82554 0.32416 0.95057 0.0
N1908 N 0.95498 0.37926 0.96488 0.0
N1909 N 0.84282 0.34628 0.95345 0.0
H1910 H 0.78055 0.40121 0.84432 0.0
H1911 H 1.00812 0.3204 0.81841 0.0
H1912 H 0.93017 0.43002 0.83522 0.0
H1913 H 0.86517 0.29232 0.83267 0.0
H1914 H 0.97864 0.3609 0.82296 0.0
H1915 H 0.81048 0.36145 0.8391 0.0
C1916 C 0.81995 0.39913 0.84124 0.0
C1917 C 0.85291 0.41895 0.8401 0.0
C1918 C 0.95369 0.34587 0.82502 0.0
C1919 C 0.88743 0.37327 0.83404 0.0
C1920 C 0.97023 0.32273 0.82235 0.0
C1921 C 0.93905 0.3029 0.82521 0.0
C1922 C 0.90561 0.34918 0.83054 0.0
C1923 C 0.89049 0.30704 0.83032 0.0
C1924 C 0.837 0.37637 0.83826 0.0
C1925 C 0.90366 0.41516 0.83623 0.0
N1926 N 0.87537 0.32973 0.83287 0.0
N1927 N 0.91939 0.39266 0.83324 0.0
H1928 H 0.02678 0.07453 0.58398 0.0
H1929 H 0.26363 0.15953 0.56803 0.0
H1930 H 0.18267 0.04807 0.5811 0.0
H1931 H 0.11504 0.18526 0.57996 0.0
H1932 H 0.23327 0.11845 0.57052 0.0
H1933 H 0.05782 0.11489 0.58059 0.0
C1934 C 0.06774 0.07721 0.58261 0.0
C1935 C 0.10226 0.05786 0.58274 0.0
C1936 C 0.20735 0.1331 0.57254 0.0
C1937 C 0.13806 0.10434 0.57885 0.0
C1938 C 0.2244 0.1566 0.57104 0.0
C1939 C 0.19178 0.17593 0.57383 0.0
C1940 C 0.15724 0.12892 0.57676 0.0
C1941 C 0.14153 0.17096 0.57773 0.0
C1942 C 0.0854 0.10035 0.58071 0.0
C1943 C 0.15487 0.06252 0.58108 0.0
N1944 N 0.12584 0.14792 0.5791 0.0
N1945 N 0.17126 0.08539 0.57912 0.0
H1946 H 0.18121 0.18061 0.70039 0.0
H1947 H 0.10897 0.04143 0.70316 0.0
H1948 H 0.02525 0.15339 0.69988 0.0
H1949 H 0.25804 0.069 0.71366 0.0
H1950 H 0.0787 0.08256 0.70062 0.0
H1951 H 0.21228 0.13951 0.70366 0.0
C1952 C 0.15365 0.16605 0.70095 0.0
C1953 C 0.10067 0.17042 0.69996 0.0
C1954 C 0.11794 0.07956 0.70356 0.0
C1955 C 0.13555 0.12373 0.70362 0.0
C1956 C 0.13513 0.0561 0.70505 0.0
C1957 C 0.18601 0.05177 0.70863 0.0
C1958 C 0.15207 0.09875 0.70555 0.0
C1959 C 0.2184 0.07148 0.7109 0.0
C1960 C 0.17127 0.14268 0.70286 0.0
C1961 C 0.06647 0.15093 0.70072 0.0
N1962 N 0.20099 0.09413 0.70924 0.0
N1963 N 0.0845 0.12848 0.70248 0.0
H1964 H 0.77773 0.81638 0.45533 0.0
H1965 H 1.01644 0.90355 0.4637 0.0
H1966 H 0.93533 0.79283 0.45125 0.0
H1967 H 0.86523 0.92918 0.45373 0.0
H1968 H 0.98536 0.8626 0.46222 0.0
H1969 H 0.80788 0.85741 0.45759 0.0
C1970 C 0.81881 0.8198 0.45497 0.0
C1971 C 0.85423 0.80112 0.45315 0.0
C1972 C 0.95899 0.87717 0.46038 0.0
C1973 C 0.88869 0.84814 0.45575 0.0
C1974 C 0.97647 0.90063 0.4613 0.0
C1975 C 0.94329 0.9199 0.45882 0.0
C1976 C 0.9078 0.87287 0.45708 0.0
C1977 C 0.89207 0.91488 0.45572 0.0
C1978 C 0.83583 0.84328 0.4562 0.0
C1979 C 0.90681 0.8067 0.45263 0.0
N1980 N 0.8758 0.89176 0.45495 0.0
N1981 N 0.92255 0.82979 0.454 0.0
H1982 H 0.85824 0.78937 0.33156 0.0
H1983 H 0.93313 0.9284 0.33229 0.0
H1984 H 1.00686 0.81602 0.32004 0.0
H1985 H 0.77698 0.90177 0.3345 0.0
H1986 H 0.96313 0.88704 0.32932 0.0
H1987 H 0.82883 0.83069 0.33384 0.0
C1988 C 0.88446 0.80387 0.32939 0.0
C1989 C 0.935 0.79923 0.32562 0.0
C1990 C 0.92231 0.89039 0.33043 0.0
C1991 C 0.90207 0.84643 0.3284 0.0
C1992 C 0.90533 0.91391 0.33219 0.0
C1993 C 0.85259 0.9185 0.33354 0.0
C1994 C 0.88621 0.87154 0.3302 0.0
C1995 C 0.81801 0.89911 0.33335 0.0
C1996 C 0.86778 0.82744 0.33073 0.0
C1997 C 0.96749 0.81873 0.32297 0.0
N1998 N 0.83544 0.87652 0.33172 0.0
N1999 N 0.95057 0.8415 0.3245 0.0
H2000 H 0.53469 0.57327 0.59425 0.0
H2001 H 0.76151 0.65683 0.56992 0.0
H2002 H 0.68544 0.54566 0.58543 0.0
H2003 H 0.61613 0.6829 0.58369 0.0
H2004 H 0.73344 0.61585 0.57407 0.0
H2005 H 0.56406 0.61336 0.58952 0.0
C2006 C 0.57425 0.57569 0.59134 0.0
C2007 C 0.60766 0.55611 0.59013 0.0
C2008 C 0.70769 0.63056 0.57612 0.0
C2009 C 0.64161 0.60222 0.58462 0.0
C2010 C 0.72341 0.65397 0.57366 0.0
C2011 C 0.69112 0.67339 0.5765 0.0
C2012 C 0.6593 0.62658 0.58139 0.0
C2013 C 0.64238 0.66855 0.58138 0.0
C2014 C 0.59099 0.59866 0.58864 0.0
C2015 C 0.65859 0.56035 0.58649 0.0
N2016 N 0.62808 0.64564 0.58371 0.0
N2017 N 0.67406 0.58305 0.58376 0.0
H2018 H 0.75659 0.56808 0.72224 0.0
H2019 H 0.52807 0.65041 0.69825 0.0
H2020 H 0.6127 0.5408 0.70821 0.0
H2021 H 0.67925 0.67841 0.70644 0.0
H2022 H 0.55794 0.6104 0.70294 0.0
H2023 H 0.72741 0.60878 0.7181 0.0
C2024 C 0.71858 0.57062 0.71842 0.0
C2025 C 0.68701 0.55095 0.71553 0.0
C2026 C 0.5848 0.62519 0.70369 0.0
C2027 C 0.65387 0.5975 0.71067 0.0
C2028 C 0.56779 0.64811 0.70102 0.0
C2029 C 0.60121 0.66778 0.70206 0.0
C2030 C 0.63568 0.62177 0.7075 0.0
C2031 C 0.65235 0.66368 0.70552 0.0
C2032 C 0.70221 0.59388 0.71598 0.0
C2033 C 0.63831 0.55538 0.71058 0.0
N2034 N 0.66805 0.64103 0.70822 0.0
N2035 N 0.62333 0.5782 0.70827 0.0
H2036 H 0.51701 0.40226 0.47007 0.0
H2037 H 0.28013 0.31717 0.45508 0.0
H2038 H 0.36695 0.42882 0.45981 0.0
H2039 H 0.43799 0.29307 0.4528 0.0
H2040 H 0.31027 0.3574 0.45945 0.0
H2041 H 0.48693 0.36145 0.46666 0.0
C2042 C 0.4775 0.39954 0.46723 0.0
C2043 C 0.44435 0.41903 0.46521 0.0
C2044 C 0.33837 0.34336 0.45799 0.0
C2045 C 0.4101 0.37232 0.46124 0.0
C2046 C 0.3213 0.32031 0.45554 0.0
C2047 C 0.35673 0.30168 0.45363 0.0
C2048 C 0.39131 0.3479 0.45865 0.0
C2049 C 0.40948 0.30694 0.4542 0.0
C2050 C 0.46062 0.37621 0.4652 0.0
C2051 C 0.39376 0.41435 0.46148 0.0
N2052 N 0.42529 0.32964 0.45674 0.0
N2053 N 0.37815 0.39142 0.45961 0.0
H2054 H 0.36445 0.29231 0.33201 0.0
H2055 H 0.43506 0.43144 0.3375 0.0
H2056 H 0.51228 0.32125 0.32139 0.0
H2057 H 0.28089 0.40271 0.34054 0.0
H2058 H 0.46637 0.39095 0.33269 0.0
H2059 H 0.33417 0.33293 0.33586 0.0
C2060 C 0.39033 0.3072 0.33035 0.0
C2061 C 0.44092 0.30337 0.32639 0.0
C2062 C 0.4257 0.39366 0.3344 0.0
C2063 C 0.40694 0.34985 0.33097 0.0
C2064 C 0.40798 0.41666 0.33721 0.0
C2065 C 0.35537 0.42043 0.33932 0.0
C2066 C 0.39046 0.37449 0.33386 0.0
C2067 C 0.32175 0.40071 0.33884 0.0
C2068 C 0.37314 0.3304 0.33259 0.0
C2069 C 0.47289 0.32337 0.32443 0.0
N2070 N 0.33987 0.37865 0.33617 0.0
N2071 N 0.45548 0.34577 0.32683 0.0
H2072 H 0.68214 0.04441 0.08212 0.0
H2073 H 0.61213 0.18394 0.08065 0.0
H2074 H 0.52752 0.07238 0.08521 0.0
H2075 H 0.75988 0.15616 0.06933 0.0
H2076 H 0.58153 0.1429 0.08335 0.0
H2077 H 0.71366 0.08547 0.0788 0.0
C2078 C 0.655 0.05914 0.08215 0.0
C2079 C 0.60222 0.05501 0.08384 0.0
C2080 C 0.62055 0.14582 0.08019 0.0
C2081 C 0.63756 0.10162 0.08008 0.0
C2082 C 0.63793 0.16924 0.07861 0.0
C2083 C 0.68857 0.17349 0.07478 0.0
C2084 C 0.65424 0.12657 0.07802 0.0
C2085 C 0.72045 0.15373 0.0723 0.0
C2086 C 0.67283 0.08248 0.08019 0.0
C2087 C 0.56852 0.07468 0.0838 0.0
N2088 N 0.70286 0.13111 0.07405 0.0
N2089 N 0.58677 0.09709 0.08195 0.0
H2090 H 0.68482 0.18042 0.20062 0.0
H2091 H 0.61277 0.04105 0.20201 0.0
H2092 H 0.52898 0.15327 0.19906 0.0
H2093 H 0.76097 0.06868 0.21315 0.0
H2094 H 0.58257 0.0822 0.1994 0.0
H2095 H 0.71573 0.13918 0.20338 0.0
C2096 C 0.65726 0.16583 0.20082 0.0
C2097 C 0.60436 0.17024 0.19973 0.0
C2098 C 0.62161 0.0792 0.20249 0.0
C2099 C 0.63903 0.1234 0.20283 0.0
C2100 C 0.63876 0.05573 0.20401 0.0
C2101 C 0.68937 0.05142 0.20781 0.0
C2102 C 0.65552 0.09839 0.20466 0.0
C2103 C 0.72154 0.07113 0.21022 0.0
C2104 C 0.67477 0.14238 0.20245 0.0
C2105 C 0.57012 0.15073 0.20002 0.0
N2106 N 0.70416 0.09377 0.20853 0.0
N2107 N 0.58806 0.12818 0.20153 0.0
H2108 H 0.28068 0.8183 0.95076 0.0
H2109 H 0.51535 0.90499 0.96505 0.0
H2110 H 0.43774 0.7932 0.95314 0.0
H2111 H 0.36799 0.9301 0.95204 0.0
H2112 H 0.48559 0.86389 0.96289 0.0
H2113 H 0.31076 0.85919 0.95308 0.0
C2114 C 0.32167 0.8214 0.9518 0.0
C2115 C 0.35688 0.80232 0.95187 0.0
C2116 C 0.45979 0.87839 0.96053 0.0
C2117 C 0.39142 0.84924 0.95452 0.0
C2118 C 0.4765 0.90191 0.96183 0.0
C2119 C 0.444 0.92106 0.9587 0.0
C2120 C 0.41012 0.87396 0.95617 0.0
C2121 C 0.39424 0.9159 0.95457 0.0
C2122 C 0.33874 0.8448 0.95306 0.0
C2123 C 0.40945 0.80744 0.95305 0.0
N2124 N 0.37878 0.89277 0.95342 0.0
N2125 N 0.42522 0.83053 0.95443 0.0
H2126 H 0.51114 0.81683 0.82048 0.0
H2127 H 0.27457 0.90251 0.83459 0.0
H2128 H 0.36287 0.79122 0.83283 0.0
H2129 H 0.43127 0.92843 0.83235 0.0
H2130 H 0.30526 0.86188 0.83198 0.0
H2131 H 0.48085 0.85786 0.82257 0.0
C2132 C 0.47199 0.81978 0.82354 0.0
C2133 C 0.43939 0.80051 0.8265 0.0
C2134 C 0.33304 0.87638 0.83208 0.0
C2135 C 0.40488 0.84753 0.82896 0.0
C2136 C 0.31561 0.89967 0.83351 0.0
C2137 C 0.35051 0.91893 0.83359 0.0
C2138 C 0.3858 0.87219 0.83062 0.0
C2139 C 0.40317 0.91407 0.83233 0.0
C2140 C 0.45497 0.84327 0.8248 0.0
C2141 C 0.38924 0.80551 0.83043 0.0
N2142 N 0.41931 0.89107 0.83082 0.0
N2143 N 0.3735 0.82859 0.83155 0.0
H2144 H 0.67454 0.4657 0.08008 0.0
H2145 H 0.41212 0.50133 0.11387 0.0
H2146 H 0.6684 0.51089 0.11167 0.0
H2147 H 0.41823 0.45569 0.08244 0.0
H2148 H 0.50594 0.50507 0.1132 0.0
H2149 H 0.58073 0.46179 0.08079 0.0
C2150 C 0.65349 0.47482 0.08716 0.0
C2151 C 0.67952 0.48866 0.09583 0.0
C2152 C 0.48677 0.49427 0.10643 0.0
C2153 C 0.57191 0.48419 0.09672 0.0
C2154 C 0.43317 0.49206 0.10684 0.0
C2155 C 0.40711 0.47816 0.09821 0.0
C2156 C 0.51476 0.48246 0.09735 0.0
C2157 C 0.43649 0.46685 0.08919 0.0
C2158 C 0.5999 0.47252 0.08759 0.0
C2159 C 0.65015 0.49979 0.10489 0.0
N2160 N 0.48866 0.4692 0.08902 0.0
N2161 N 0.598 0.49737 0.10508 0.0
H2162 H 0.61186 0.76863 0.08818 0.0
H2163 H 0.89569 0.72288 0.07074 0.0
H2164 H 0.64139 0.70707 0.06563 0.0
H2165 H 0.86669 0.78365 0.09387 0.0
H2166 H 0.80275 0.71754 0.06832 0.0
H2167 H 0.70483 0.77474 0.09018 0.0
C2168 C 0.63775 0.75633 0.08368 0.0
C2169 C 0.61835 0.7373 0.0767 0.0
C2170 C 0.81669 0.73206 0.07393 0.0
C2171 C 0.72538 0.74439 0.07887 0.0
C2172 C 0.86991 0.73523 0.07525 0.0
C2173 C 0.88943 0.75374 0.08255 0.0
C2174 C 0.78237 0.7475 0.07992 0.0
C2175 C 0.85371 0.7689 0.0883 0.0
C2176 C 0.69096 0.75992 0.08477 0.0
C2177 C 0.65419 0.72221 0.07095 0.0
N2178 N 0.80212 0.76544 0.08687 0.0
N2179 N 0.70573 0.72606 0.07217 0.0
H2180 H 0.68621 0.77353 0.19842 0.0
H2181 H 0.40888 0.71197 0.19088 0.0
H2182 H 0.66195 0.69711 0.19606 0.0
H2183 H 0.4296 0.78781 0.19675 0.0
H2184 H 0.50194 0.70648 0.19238 0.0
H2185 H 0.59281 0.77943 0.19761 0.0
C2186 C 0.66135 0.75798 0.19778 0.0
C2187 C 0.68222 0.73477 0.19725 0.0
C2188 C 0.48622 0.72434 0.19338 0.0
C2189 C 0.57515 0.74145 0.1962 0.0
C2190 C 0.43304 0.7275 0.19246 0.0
C2191 C 0.41133 0.7504 0.19365 0.0
C2192 C 0.51825 0.74424 0.19545 0.0
C2193 C 0.44457 0.7698 0.19588 0.0
C2194 C 0.60799 0.76138 0.19726 0.0
C2195 C 0.64791 0.71536 0.19627 0.0
N2196 N 0.49636 0.7663 0.19666 0.0
N2197 N 0.59626 0.71914 0.19576 0.0
H2198 H 0.89233 0.4851 0.23149 0.0
H2199 H 0.62277 0.47878 0.19623 0.0
H2200 H 0.87849 0.46743 0.19368 0.0
H2201 H 0.63625 0.49677 0.23401 0.0
H2202 H 0.71635 0.47437 0.19516 0.0
H2203 H 0.79862 0.4891 0.23266 0.0
C2204 C 0.86964 0.48199 0.22343 0.0
C2205 C 0.89354 0.47595 0.21246 0.0
C2206 C 0.69885 0.47924 0.2037 0.0
C2207 C 0.78598 0.48066 0.21372 0.0
C2208 C 0.64536 0.48186 0.2043 0.0
C2209 C 0.6214 0.48818 0.21523 0.0
C2210 C 0.72887 0.48299 0.21408 0.0
C2211 C 0.6528 0.49157 0.22543 0.0
C2212 C 0.81609 0.48438 0.2241 0.0
C2213 C 0.86201 0.47247 0.20229 0.0
N2214 N 0.70481 0.48899 0.2246 0.0
N2215 N 0.80999 0.47484 0.20318 0.0
H2216 H 0.63558 0.51194 0.98063 0.0
H2217 H 0.37231 0.47369 0.94782 0.0
H2218 H 0.62844 0.48414 0.9443 0.0
H2219 H 0.37967 0.49845 0.98469 0.0
H2220 H 0.46576 0.47835 0.94623 0.0
H2221 H 0.54212 0.50726 0.9823 0.0
C2222 C 0.61455 0.50465 0.97303 0.0
C2223 C 0.64028 0.49847 0.9623 0.0
C2224 C 0.44696 0.4828 0.95467 0.0
C2225 C 0.53263 0.49339 0.9641 0.0
C2226 C 0.39342 0.48032 0.95556 0.0
C2227 C 0.36777 0.48568 0.96641 0.0
C2228 C 0.47542 0.49078 0.96469 0.0
C2229 C 0.39764 0.49381 0.97619 0.0
C2230 C 0.561 0.50215 0.97397 0.0
C2231 C 0.61046 0.4895 0.9527 0.0
N2232 N 0.4497 0.4961 0.97509 0.0
N2233 N 0.55842 0.48727 0.95382 0.0
H2234 H 0.42573 0.2142 0.96039 0.0
H2235 H 0.16227 0.255 0.92872 0.0
H2236 H 0.41839 0.26502 0.93105 0.0
H2237 H 0.1694 0.20382 0.9579 0.0
H2238 H 0.25601 0.25895 0.92947 0.0
H2239 H 0.33194 0.21017 0.95965 0.0
C2240 C 0.40442 0.22454 0.9538 0.0
C2241 C 0.43013 0.23998 0.94578 0.0
C2242 C 0.2371 0.24688 0.93573 0.0
C2243 C 0.32252 0.23538 0.94484 0.0
C2244 C 0.18352 0.24455 0.93528 0.0
C2245 C 0.15776 0.22903 0.94325 0.0
C2246 C 0.26538 0.23356 0.94421 0.0
C2247 C 0.18742 0.21623 0.95168 0.0
C2248 C 0.35084 0.22217 0.95336 0.0
C2249 C 0.40042 0.25267 0.93732 0.0
N2250 N 0.23956 0.21874 0.95191 0.0
N2251 N 0.3483 0.25014 0.9371 0.0
H2252 H 0.63343 0.21982 0.80852 0.0
H2253 H 0.37321 0.24627 0.84536 0.0
H2254 H 0.62895 0.23312 0.8469 0.0
H2255 H 0.37719 0.23207 0.80706 0.0
H2256 H 0.46679 0.24158 0.84608 0.0
H2257 H 0.53977 0.22431 0.80778 0.0
C2258 C 0.6128 0.22363 0.81681 0.0
C2259 C 0.63935 0.22607 0.8278 0.0
C2260 C 0.44723 0.23945 0.83752 0.0
C2261 C 0.53174 0.23137 0.827 0.0
C2262 C 0.39373 0.24221 0.83709 0.0
C2263 C 0.36708 0.23961 0.82612 0.0
C2264 C 0.47462 0.23409 0.8269 0.0
C2265 C 0.39586 0.23396 0.81574 0.0
C2266 C 0.55926 0.22628 0.81637 0.0
C2267 C 0.6104 0.23138 0.8382 0.0
N2268 N 0.44796 0.23148 0.81638 0.0
N2269 N 0.5583 0.23379 0.83755 0.0
H2270 H 0.16376 0.50405 0.82749 0.0
H2271 H 0.4151 0.47525 0.86695 0.0
H2272 H 0.15942 0.48807 0.86562 0.0
H2273 H 0.41999 0.4922 0.82894 0.0
H2274 H 0.32155 0.48011 0.86665 0.0
H2275 H 0.2575 0.49989 0.82783 0.0
C2276 C 0.18247 0.49971 0.83595 0.0
C2277 C 0.15345 0.49643 0.84654 0.0
C2278 C 0.34305 0.48283 0.85837 0.0
C2279 C 0.2611 0.49151 0.84699 0.0
C2280 C 0.39653 0.47998 0.85853 0.0
C2281 C 0.42561 0.48323 0.84794 0.0
C2282 C 0.31816 0.48892 0.84754 0.0
C2283 C 0.39934 0.48975 0.83735 0.0
C2284 C 0.23606 0.49726 0.83612 0.0
C2285 C 0.17995 0.49046 0.85719 0.0
N2286 N 0.34718 0.49227 0.83741 0.0
N2287 N 0.23217 0.48826 0.85714 0.0
H2288 H 0.40742 0.97097 0.57142 0.0
H2289 H 0.67034 0.00225 0.60609 0.0
H2290 H 0.41397 -0.00756 0.60884 0.0
H2291 H 0.66344 0.98281 0.56841 0.0
H2292 H 0.57677 -0.0022 0.6074 0.0
H2293 H 0.50103 0.97518 0.57014 0.0
C2294 C 0.4284 0.9768 0.57935 0.0
C2295 C 0.40252 0.98135 0.59026 0.0
C2296 C 0.59571 -0.00554 0.59884 0.0
C2297 C 0.51021 0.98584 0.5889 0.0
C2298 C 0.64927 -0.00319 0.59811 0.0
C2299 C 0.67501 -0.00708 0.58712 0.0
C2300 C 0.56741 -0.01189 0.58851 0.0
C2301 C 0.64533 0.9863 0.57704 0.0
C2302 C 0.482 0.97901 0.57863 0.0
C2303 C 0.43215 -0.01158 0.60028 0.0
N2304 N 0.59324 0.98412 0.57798 0.0
N2305 N 0.48427 -0.00958 0.59935 0.0
H2306 H 0.63672 0.23739 0.55519 0.0
H2307 H 0.87249 0.27069 0.59889 0.0
H2308 H 0.6192 0.25186 0.59327 0.0
H2309 H 0.89141 0.25149 0.56139 0.0
H2310 H 0.77942 0.26572 0.59676 0.0
H2311 H 0.72937 0.24415 0.55708 0.0
C2312 C 0.65224 0.24193 0.56397 0.0
C2313 C 0.61975 0.24387 0.5741 0.0
C2314 C 0.80387 0.26261 0.58898 0.0
C2315 C 0.72641 0.25193 0.5763 0.0
C2316 C 0.85714 0.26559 0.59017 0.0
C2317 C 0.89016 0.26158 0.58029 0.0
C2318 C 0.78302 0.25559 0.57783 0.0
C2319 C 0.86774 0.25455 0.56929 0.0
C2320 C 0.70528 0.2459 0.56503 0.0
C2321 C 0.64236 0.25035 0.58517 0.0
N2322 N 0.81571 0.25182 0.56836 0.0
N2323 N 0.69415 0.25405 0.58597 0.0
H2324 H 0.67045 0.25395 0.71005 0.0
H2325 H 0.4028 0.22663 0.6765 0.0
H2326 H 0.6588 0.21374 0.67687 0.0
H2327 H 0.41451 0.26683 0.70968 0.0
H2328 H 0.49633 0.22139 0.67658 0.0
H2329 H 0.57698 0.25937 0.7099 0.0
C2330 C 0.64837 0.24645 0.70266 0.0
C2331 C 0.67276 0.23333 0.69346 0.0
C2332 C 0.47845 0.23133 0.68386 0.0
C2333 C 0.56525 0.23917 0.69334 0.0
C2334 C 0.42491 0.23417 0.68387 0.0
C2335 C 0.40052 0.24722 0.69309 0.0
C2336 C 0.50808 0.24157 0.69314 0.0
C2337 C 0.43153 0.25691 0.70229 0.0
C2338 C 0.59486 0.2494 0.70264 0.0
C2339 C 0.64178 0.22371 0.68424 0.0
N2340 N 0.48354 0.25391 0.70207 0.0
N2341 N 0.58978 0.2268 0.68443 0.0
H2342 H 0.88373 0.98105 0.72417 0.0
H2343 H 0.61781 0.98283 0.6873 0.0
H2344 H 0.87367 0.97059 0.68562 0.0
H2345 H 0.62753 -0.00753 0.72591 0.0
H2346 H 0.71146 0.97842 0.6865 0.0
H2347 H 0.79003 0.98529 0.725 0.0
C2348 C 0.86187 0.97958 0.71587 0.0
C2349 C 0.88684 0.97545 0.7048 0.0
C2350 C 0.69312 0.98146 0.69516 0.0
C2351 C 0.77924 0.98046 0.70568 0.0
C2352 C 0.6396 0.98407 0.69562 0.0
C2353 C 0.61456 -0.01195 0.70669 0.0
C2354 C 0.72211 0.98288 0.70585 0.0
C2355 C 0.64493 -0.01088 0.71718 0.0
C2356 C 0.80831 0.98211 0.71635 0.0
C2357 C 0.85635 0.97409 0.69434 0.0
N2358 N 0.697 0.98662 0.7165 0.0
N2359 N 0.80428 0.97653 0.69504 0.0
H2360 H 0.62495 0.02509 0.43927 0.0
H2361 H 0.39023 0.95621 0.47123 0.0
H2362 H 0.64516 0.9711 0.46677 0.0
H2363 H 0.36999 0.01139 0.44432 0.0
H2364 H 0.4834 0.96155 0.4698 0.0
H2365 H 0.53173 0.02008 0.44089 0.0
C2366 C 0.60989 0.01204 0.4456 0.0
C2367 C 0.64328 -0.00159 0.45285 0.0
C2368 C 0.45862 0.97252 0.46421 0.0
C2369 C 0.53594 -0.00719 0.45487 0.0
C2370 C 0.40524 0.96961 0.46508 0.0
C2371 C 0.37183 0.98343 0.45792 0.0
C2372 C 0.47917 -0.01062 0.4561 0.0
C2373 C 0.394 0.00013 0.44994 0.0
C2374 C 0.5565 0.00931 0.44658 0.0
C2375 C 0.62113 0.98217 0.46107 0.0
N2376 N 0.44613 0.00263 0.44925 0.0
N2377 N 0.56898 0.9798 0.46183 0.0
H2378 H 0.42316 0.75357 0.43055 0.0
H2379 H 0.16438 0.69818 0.45883 0.0
H2380 H 0.41969 0.71186 0.46337 0.0
H2381 H 0.16825 0.74073 0.42628 0.0
H2382 H 0.25783 0.7027 0.4606 0.0
H2383 H 0.33012 0.74813 0.42857 0.0
C2384 C 0.40296 0.74305 0.43728 0.0
C2385 C 0.42945 0.73317 0.44715 0.0
C2386 C 0.23824 0.71105 0.45307 0.0
C2387 C 0.32247 0.72713 0.44502 0.0
C2388 C 0.18478 0.70861 0.4521 0.0
C2389 C 0.15826 0.71908 0.44239 0.0
C2390 C 0.26557 0.7241 0.44428 0.0
C2391 C 0.18702 0.73207 0.43383 0.0
C2392 C 0.34969 0.7401 0.43619 0.0
C2393 C 0.40088 0.72007 0.4557 0.0
N2394 N 0.23899 0.73422 0.43499 0.0
N2395 N 0.34903 0.71745 0.45444 0.0
H2396 H 0.36549 0.71295 0.31285 0.0
H2397 H 0.63342 0.74671 0.34477 0.0
H2398 H 0.37762 0.75961 0.3438 0.0
H2399 H 0.62129 0.69855 0.31441 0.0
H2400 H 0.54002 0.75222 0.34429 0.0
H2401 H 0.45889 0.70731 0.31331 0.0
C2402 C 0.38763 0.72185 0.31982 0.0
C2403 C 0.36337 0.73682 0.32829 0.0
C2404 C 0.55776 0.74047 0.33772 0.0
C2405 C 0.47085 0.73069 0.32875 0.0
C2406 C 0.61125 0.73746 0.33792 0.0
C2407 C 0.63551 0.72213 0.32961 0.0
C2408 C 0.52801 0.72812 0.32913 0.0
C2409 C 0.60438 0.71031 0.3211 0.0
C2410 C 0.44112 0.71875 0.32002 0.0
C2411 C 0.3945 0.74818 0.33697 0.0
N2412 N 0.5524 0.71354 0.32108 0.0
N2413 N 0.44645 0.7449 0.33697 0.0
H2414 H 0.15236 0.9692 0.3258 0.0
H2415 H 0.42743 0.0106 0.3514 0.0
H2416 H 0.17163 0.02127 0.35426 0.0
H2417 H 0.40813 0.9578 0.32327 0.0
H2418 H 0.33382 0.01497 0.35248 0.0
H2419 H 0.24604 0.96523 0.32451 0.0
C2420 C 0.17624 0.97986 0.33175 0.0
C2421 C 0.15392 -0.00446 0.34018 0.0
C2422 C 0.35007 0.00247 0.34605 0.0
C2423 C 0.26138 -0.00905 0.33881 0.0
C2424 C 0.40357 -0.00012 0.34546 0.0
C2425 C 0.42587 0.98382 0.33722 0.0
C2426 C 0.31846 -0.01112 0.33835 0.0
C2427 C 0.39286 0.97066 0.32965 0.0
C2428 C 0.22976 0.9775 0.33105 0.0
C2429 C 0.18694 0.00867 0.34776 0.0
N2430 N 0.34093 0.97345 0.33041 0.0
N2431 N 0.23889 0.00609 0.34689 0.0
H2432 H 0.17444 0.50131 0.6139 0.0
H2433 H 0.91261 0.46854 0.57913 0.0
H2434 H 0.16866 0.48055 0.57638 0.0
H2435 H 0.91806 0.4914 0.61635 0.0
H2436 H 1.00624 0.47275 0.57795 0.0
H2437 H 0.08087 0.49681 0.6151 0.0
C2438 C 0.15362 0.49557 0.60593 0.0
C2439 C 0.17967 0.49132 0.59501 0.0
C2440 C 0.98697 0.47689 0.58638 0.0
C2441 C 0.07206 0.48645 0.59629 0.0
C2442 C 0.93336 0.47467 0.58703 0.0
C2443 C 0.90717 0.47963 0.59786 0.0
C2444 C 1.01487 0.48413 0.59662 0.0
C2445 C 0.9365 0.48708 0.60785 0.0
C2446 C 0.10005 0.49318 0.6066 0.0
C2447 C 0.15029 0.48432 0.58495 0.0
N2448 N 0.98863 0.48908 0.60699 0.0
N2449 N 0.09819 0.48212 0.58583 0.0
H2450 H 0.36777 0.7898 0.59189 0.0
H2451 H 0.1408 0.70698 0.56588 0.0
H2452 H 0.39398 0.72444 0.57199 0.0
H2453 H 0.11383 0.77206 0.58597 0.0
H2454 H 0.23343 0.71354 0.56774 0.0
H2455 H 0.27497 0.78388 0.58966 0.0
C2456 C 0.35413 0.77414 0.58709 0.0
C2457 C 0.38911 0.75755 0.58217 0.0
C2458 C 0.20731 0.72642 0.57173 0.0
C2459 C 0.28229 0.75079 0.57947 0.0
C2460 C 0.15423 0.72278 0.57061 0.0
C2461 C 0.11907 0.73904 0.57572 0.0
C2462 C 0.22584 0.7465 0.57803 0.0
C2463 C 0.13922 0.75888 0.58197 0.0
C2464 C 0.30099 0.77084 0.58576 0.0
C2465 C 0.36877 0.73786 0.57584 0.0
N2466 N 0.19113 0.76205 0.58293 0.0
N2467 N 0.31687 0.73502 0.5747 0.0
H2468 H 0.90486 0.73049 0.67765 0.0
H2469 H 0.17135 0.74658 0.71341 0.0
H2470 H 0.91506 0.75848 0.7139 0.0
H2471 H 0.16075 0.71814 0.67725 0.0
H2472 H 0.07782 0.75184 0.71362 0.0
H2473 H 0.99844 0.72569 0.67738 0.0
C2474 C 0.92666 0.73541 0.6856 0.0
C2475 C 0.90183 0.7449 0.69582 0.0
C2476 C 0.09595 0.74449 0.70563 0.0
C2477 C 1.00946 0.73978 0.6955 0.0
C2478 C 0.14948 0.74166 0.70546 0.0
C2479 C 0.17414 0.73186 0.6953 0.0
C2480 C 0.06664 0.73751 0.69555 0.0
C2481 C 0.14347 0.72546 0.68535 0.0
C2482 C 0.98023 0.73285 0.6854 0.0
C2483 C 0.93244 0.75137 0.70577 0.0
N2484 N 0.09146 0.72836 0.68573 0.0
N2485 N 0.98453 0.7487 0.70535 0.0
H2486 H 0.12094 0.4643 0.73254 0.0
H2487 H 0.37894 0.49808 0.6963 0.0
H2488 H 0.12281 0.50714 0.70009 0.0
H2489 H 0.37682 0.45289 0.72794 0.0
H2490 H 0.28539 0.50209 0.69774 0.0
H2491 H 0.21464 0.46039 0.7312 0.0
C2492 C 0.14101 0.47294 0.72514 0.0
C2493 C 0.11374 0.48609 0.71642 0.0
C2494 C 0.30536 0.49131 0.70438 0.0
C2495 C 0.22136 0.4816 0.7148 0.0
C2496 C 0.35886 0.48894 0.70354 0.0
C2497 C 0.38605 0.47506 0.71199 0.0
C2498 C 0.27849 0.47973 0.71374 0.0
C2499 C 0.35777 0.464 0.7213 0.0
C2500 C 0.19457 0.47062 0.72436 0.0
C2501 C 0.14196 0.49657 0.70694 0.0
N2502 N 0.30566 0.46652 0.7219 0.0
N2503 N 0.19409 0.49416 0.70641 0.0
H2504 H 0.87861 0.50532 0.48196 0.0
H2505 H 0.13576 0.47321 0.44508 0.0
H2506 H 0.87964 0.46399 0.44902 0.0
H2507 H 0.13459 0.51668 0.47732 0.0
H2508 H 0.04218 0.46924 0.44654 0.0
H2509 H 0.97231 0.50928 0.48057 0.0
C2510 C 0.89849 0.49703 0.47444 0.0
C2511 C 0.87098 0.48428 0.4656 0.0
C2512 C 0.06236 0.47963 0.45331 0.0
C2513 C 0.97862 0.48884 0.46393 0.0
C2514 C 0.11588 0.48199 0.45246 0.0
C2515 C 0.14336 0.49537 0.46107 0.0
C2516 C 0.03575 0.49073 0.46284 0.0
C2517 C 0.11532 0.50595 0.47054 0.0
C2518 C 0.95205 0.49938 0.47363 0.0
C2519 C 0.89897 0.47424 0.45597 0.0
N2520 N 0.06318 0.50346 0.47115 0.0
N2521 N 0.95111 0.47668 0.45542 0.0
H2522 H 0.93178 0.2039 0.45309 0.0
H2523 H 0.65763 0.25781 0.43388 0.0
H2524 H 0.91246 0.27209 0.43525 0.0
H2525 H 0.67686 0.18671 0.44852 0.0
H2526 H 0.75084 0.26364 0.43483 0.0
H2527 H 0.83881 0.19718 0.45162 0.0
C2528 C 0.90816 0.21737 0.44876 0.0
C2529 C 0.9302 0.23866 0.44433 0.0
C2530 C 0.73474 0.24675 0.43784 0.0
C2531 C 0.82336 0.23122 0.4428 0.0
C2532 C 0.6814 0.24347 0.43739 0.0
C2533 C 0.65922 0.22175 0.44116 0.0
C2534 C 0.76641 0.22821 0.44215 0.0
C2535 C 0.69222 0.20367 0.44541 0.0
C2536 C 0.85496 0.21359 0.448 0.0
C2537 C 0.89729 0.25559 0.43898 0.0
N2538 N 0.74406 0.20732 0.44582 0.0
N2539 N 0.84568 0.25154 0.4384 0.0
H2540 H 0.14277 0.26317 0.33643 0.0
H2541 H 0.86986 0.20456 0.31938 0.0
H2542 H 0.12587 0.19222 0.32141 0.0
H2543 H 0.88711 0.27562 0.33424 0.0
H2544 H 0.96349 0.19978 0.31992 0.0
H2545 H 0.04923 0.26805 0.33568 0.0
C2546 C 0.11944 0.24858 0.333 0.0
C2547 C 0.14244 0.22724 0.32898 0.0
C2548 C 0.94679 0.21641 0.32308 0.0
C2549 C 0.03499 0.23279 0.32802 0.0
C2550 C 0.89327 0.2192 0.32273 0.0
C2551 C 0.87033 0.24052 0.32679 0.0
C2552 C 0.97786 0.23508 0.32751 0.0
C2553 C 0.90282 0.25872 0.33118 0.0
C2554 C 0.06597 0.25142 0.33252 0.0
C2555 C 0.11008 0.20912 0.32446 0.0
N2556 N 0.95479 0.25559 0.33141 0.0
N2557 N 0.05813 0.21228 0.32413 0.0
H2558 H 0.92478 0.50297 0.33033 0.0
H2559 H 0.65628 0.477 0.36396 0.0
H2560 H 0.91217 0.46406 0.36391 0.0
H2561 H 0.66874 0.51623 0.33048 0.0
H2562 H 0.7498 0.47179 0.36399 0.0
H2563 H 0.83133 0.50856 0.33038 0.0
C2564 C 0.90251 0.4958 0.33778 0.0
C2565 C 0.92662 0.48297 0.34712 0.0
C2566 C 0.73209 0.48152 0.35663 0.0
C2567 C 0.81913 0.48902 0.34713 0.0
C2568 C 0.67855 0.48434 0.35655 0.0
C2569 C 0.65435 0.49709 0.3472 0.0
C2570 C 0.76195 0.49148 0.34728 0.0
C2571 C 0.68559 0.50654 0.33796 0.0
C2572 C 0.84901 0.49884 0.33775 0.0
C2573 C 0.89538 0.47377 0.35642 0.0
N2574 N 0.73762 0.50355 0.33824 0.0
N2575 N 0.84341 0.47694 0.35618 0.0
H2576 H 0.90522 0.97169 0.07125 0.0
H2577 H 0.16933 -0.00479 0.10699 0.0
H2578 H 0.91303 0.98533 0.10958 0.0
H2579 H 0.16127 0.98473 0.06842 0.0
H2580 H 0.0758 -0.00953 0.10818 0.0
H2581 H 0.99882 0.97618 0.07003 0.0
C2582 C 0.92646 0.97585 0.0794 0.0
C2583 C 0.90092 0.97811 0.09055 0.0
C2584 C 0.09447 -0.01084 0.09945 0.0
C2585 C 1.00862 0.98291 0.08923 0.0
C2586 C 0.14802 -0.00833 0.09878 0.0
C2587 C 0.17344 -0.00961 0.08759 0.0
C2588 C 0.06583 0.98527 0.08886 0.0
C2589 C 0.14342 0.98617 0.07723 0.0
C2590 C 0.98005 0.97823 0.07871 0.0
C2591 C 0.93091 0.9831 0.10082 0.0
N2592 N 0.09135 0.98378 0.07813 0.0
N2593 N 0.983 0.98529 0.09991 0.0
H2594 H 0.1296 0.21711 0.09461 0.0
H2595 H 0.37901 0.26938 0.06069 0.0
H2596 H 0.12309 0.25488 0.06063 0.0
H2597 H 0.38526 0.23157 0.09467 0.0
H2598 H 0.28543 0.26428 0.06051 0.0
H2599 H 0.2231 0.22232 0.0948 0.0
C2600 C 0.14778 0.22647 0.08717 0.0
C2601 C 0.11818 0.2355 0.07757 0.0
C2602 C 0.30725 0.25706 0.068 0.0
C2603 C 0.2257 0.24167 0.07777 0.0
C2604 C 0.36076 0.26004 0.06814 0.0
C2605 C 0.39031 0.25094 0.07773 0.0
C2606 C 0.28275 0.24492 0.07754 0.0
C2607 C 0.36435 0.23866 0.08701 0.0
C2608 C 0.20126 0.22951 0.08731 0.0
C2609 C 0.14406 0.24783 0.06829 0.0
N2610 N 0.31219 0.23608 0.0867 0.0
N2611 N 0.19621 0.25048 0.0686 0.0
H2612 H 0.90963 0.25784 0.2119 0.0
H2613 H 0.17272 0.22478 0.17768 0.0
H2614 H 0.91646 0.23452 0.17477 0.0
H2615 H 0.16553 0.24651 0.21505 0.0
H2616 H 0.07919 0.22909 0.17631 0.0
H2617 H 1.00319 0.25375 0.21323 0.0
C2618 C 0.93067 0.25163 0.20405 0.0
C2619 C 0.9049 0.24651 0.1932 0.0
C2620 C 0.09805 0.23297 0.18481 0.0
C2621 C 1.01252 0.24214 0.19462 0.0
C2622 C 0.15159 0.23069 0.18557 0.0
C2623 C 0.17723 0.23527 0.1965 0.0
C2624 C 0.06968 0.23992 0.19504 0.0
C2625 C 0.14748 0.24248 0.20647 0.0
C2626 C 0.98424 0.24948 0.20479 0.0
C2627 C 0.93458 0.23896 0.18327 0.0
N2628 N 0.09542 0.24456 0.20551 0.0
N2629 N 0.98668 0.23703 0.18422 0.0
H2630 H 0.38515 0.96261 0.22274 0.0
H2631 H 0.12249 -0.00245 0.18883 0.0
H2632 H 0.37866 -0.01306 0.18576 0.0
H2633 H 0.12932 0.97613 0.22625 0.0
H2634 H 0.21594 -0.00723 0.18741 0.0
H2635 H 0.29168 0.96731 0.2242 0.0
C2636 C 0.36425 0.96915 0.21495 0.0
C2637 C 0.39016 0.97436 0.2041 0.0
C2638 C 0.19702 -0.01092 0.19594 0.0
C2639 C 0.28251 0.97944 0.20567 0.0
C2640 C 0.14349 -0.00838 0.19673 0.0
C2641 C 0.11771 -0.01275 0.20769 0.0
C2642 C 0.22531 0.98204 0.20616 0.0
C2643 C 0.14741 0.98001 0.21766 0.0
C2644 C 0.3107 0.97166 0.21577 0.0
C2645 C 0.36052 0.98236 0.19426 0.0
N2646 N 0.19946 0.97764 0.21665 0.0
N2647 N 0.30847 0.98462 0.19528 0.0
H2648 H 0.8888 0.95921 0.97259 0.0
H2649 H 0.1244 0.0245 0.93917 0.0
H2650 H 0.86944 0.01155 0.94423 0.0
H2651 H 0.14373 0.97339 0.96808 0.0
H2652 H 0.03114 0.0197 0.94078 0.0
H2653 H 0.98202 0.9643 0.97113 0.0
C2654 C 0.90403 0.97194 0.96611 0.0
C2655 C 0.87091 0.98504 0.95855 0.0
C2656 C 0.05573 0.00952 0.94677 0.0
C2657 C 0.9782 -0.00933 0.95671 0.0
C2658 C 0.10912 0.01212 0.94581 0.0
C2659 C 0.14223 -0.00076 0.95346 0.0
C2660 C 0.03494 -0.00609 0.95546 0.0
C2661 C 0.11987 0.98387 0.96206 0.0
C2662 C 0.95742 0.9747 0.96523 0.0
C2663 C 0.89328 0.00086 0.95017 0.0
N2664 N 0.06772 0.9816 0.9628 0.0
N2665 N 0.94542 0.00323 0.94948 0.0
H2666 H 0.9258 0.75248 0.93048 0.0
H2667 H 0.66539 0.70938 0.963 0.0
H2668 H 0.92137 0.72037 0.96593 0.0
H2669 H 0.6695 0.74296 0.92789 0.0
H2670 H 0.75903 0.71326 0.96425 0.0
H2671 H 0.8322 0.74831 0.92917 0.0
C2672 C 0.90525 0.74432 0.93795 0.0
C2673 C 0.93165 0.73677 0.94834 0.0
C2674 C 0.73947 0.71982 0.95628 0.0
C2675 C 0.82411 0.73226 0.94697 0.0
C2676 C 0.68587 0.71779 0.9556 0.0
C2677 C 0.65934 0.72587 0.94533 0.0
C2678 C 0.76697 0.73003 0.94662 0.0
C2679 C 0.68826 0.7362 0.93592 0.0
C2680 C 0.85169 0.74212 0.93723 0.0
C2681 C 0.90268 0.72672 0.95781 0.0
N2682 N 0.74041 0.73797 0.93679 0.0
N2683 N 0.85058 0.72477 0.9569 0.0
H2684 H 0.11958 0.69838 0.8465 0.0
H2685 H 0.88396 0.76046 0.81187 0.0
H2686 H 0.13887 0.74644 0.81627 0.0
H2687 H 0.86474 0.71106 0.84156 0.0
H2688 H 0.97715 0.75536 0.81326 0.0
H2689 H 0.02635 0.70306 0.84491 0.0
C2690 C 0.1043 0.71007 0.83957 0.0
C2691 C 0.13739 0.72213 0.83155 0.0
C2692 C 0.95259 0.7456 0.81946 0.0
C2693 C 0.03012 0.72732 0.82957 0.0
C2694 C 0.89921 0.74836 0.81862 0.0
C2695 C 0.86615 0.73611 0.82658 0.0
C2696 C 0.9734 0.73049 0.82834 0.0
C2697 C 0.88855 0.72109 0.83531 0.0
C2698 C 0.05092 0.7126 0.83862 0.0
C2699 C 0.11502 0.73662 0.8226 0.0
N2700 N 0.94066 0.71872 0.83595 0.0
N2701 N 0.06288 0.73884 0.82187 0.0
H2702 H 0.65077 0.9582 0.84505 0.0
H2703 H 0.92628 0.02032 0.83482 0.0
H2704 H 0.67029 0.03198 0.83423 0.0
H2705 H 0.90638 0.94585 0.84434 0.0
H2706 H 0.83263 0.02507 0.83473 0.0
H2707 H 0.74443 0.95351 0.84517 0.0
C2708 C 0.67471 0.97343 0.84273 0.0
C2709 C 0.6525 -0.0045 0.8396 0.0
C2710 C 0.84877 0.0077 0.83686 0.0
C2711 C 0.75992 -0.00977 0.83965 0.0
C2712 C 0.90228 0.00495 0.83686 0.0
C2713 C 0.92442 0.98266 0.83962 0.0
C2714 C 0.81699 -0.01197 0.83962 0.0
C2715 C 0.89123 0.96347 0.84235 0.0
C2716 C 0.72822 0.97072 0.84274 0.0
C2717 C 0.68557 0.01453 0.83653 0.0
N2718 N 0.83931 0.96659 0.84227 0.0
N2719 N 0.73752 0.01146 0.83665 0.0
H2720 H 0.05817 0.44131 0.05602 0.0
H2721 H 0.9762 0.53388 1.00405 0.0
H2722 H 1.01135 0.51402 0.06327 0.0
H2723 H 0.02926 0.46203 0.997 0.0
H2724 H 0.98775 0.52697 0.02571 0.0
H2725 H 0.04505 0.44829 0.03446 0.0
C2726 C 0.04477 0.45873 0.05307 0.0
C2727 C 0.03602 0.47714 0.06145 0.0
C2728 C 0.997 0.51272 0.01945 0.0
C2729 C 1.02121 0.48535 0.03669 0.0
C2730 C 0.99056 0.51668 1.00707 0.0
C2731 C 1.00171 0.49848 0.99871 0.0
C2732 C 1.01467 0.49036 0.02354 0.0
C2733 C 1.02019 0.47655 1.00313 0.0
C2734 C 0.03745 0.46273 0.04074 0.0
C2735 C 1.01858 0.49933 0.05711 0.0
N2736 N 0.02593 0.47309 1.01523 0.0
N2737 N 1.01193 0.50284 0.04503 0.0
H2738 H 0.33298 0.693 0.98845 0.0
H2739 H 0.1825 0.76972 0.03811 0.0
H2740 H 0.25084 0.75804 0.98009 0.0
H2741 H 0.29794 0.71753 0.04755 0.0
H2742 H 0.20262 0.76379 1.01678 0.0
H2743 H 0.31566 0.69955 1.00994 0.0
C2744 C 0.31107 0.70863 0.99113 0.0
C2745 C 0.2933 0.72502 0.98245 0.0
C2746 C 0.22387 0.75371 0.02348 0.0
C2747 C 0.27325 0.73258 1.00709 0.0
C2748 C 0.21238 0.75706 0.03568 0.0
C2749 C 0.23881 0.74418 0.04462 0.0
C2750 C 0.26163 0.73703 0.0201 0.0
C2751 C 0.27703 0.72798 0.04095 0.0
C2752 C 0.30145 0.7124 1.00342 0.0
C2753 C 0.26521 0.74495 0.98647 0.0
N2754 N 0.28708 0.72474 0.02895 0.0
N2755 N 0.25591 0.74812 0.99848 0.0
H2756 H 0.96447 0.69002 0.2881 0.0
H2757 H 0.11307 0.76917 0.23901 0.0
H2758 H 0.04443 0.75559 0.29674 0.0
H2759 H 0.9988 0.71668 0.22901 0.0
H2760 H 0.09254 0.7625 0.26024 0.0
H2761 H 0.98136 0.69723 0.2666 0.0
C2762 C 0.98583 0.70588 0.28548 0.0
C2763 C 1.00314 0.72223 0.29424 0.0
C2764 C 0.07162 0.7525 0.25345 0.0
C2765 C 1.02262 0.73057 0.26963 0.0
C2766 C 0.08333 0.75629 0.2413 0.0
C2767 C 0.05747 0.74351 0.23222 0.0
C2768 C 0.03418 0.73548 0.25665 0.0
C2769 C 1.01937 0.72703 0.23572 0.0
C2770 C 0.99517 0.71004 0.2732 0.0
C2771 C 0.03045 0.7425 0.29031 0.0
N2772 N 1.00912 0.72333 0.24769 0.0
N2773 N 0.03948 0.74604 0.27832 0.0
H2774 H 0.23195 0.43993 0.25365 0.0
H2775 H 0.30319 0.53317 0.3062 0.0
H2776 H 0.28139 0.51255 0.24696 0.0
H2777 H 0.25939 0.45983 0.31304 0.0
H2778 H 0.29268 0.52624 0.28455 0.0
H2779 H 0.24092 0.44685 0.27537 0.0
C2780 C 0.245 0.45731 0.25675 0.0
C2781 C 0.25584 0.47571 0.24848 0.0
C2782 C 0.28515 0.51165 0.29076 0.0
C2783 C 0.26581 0.48385 0.27339 0.0
C2784 C 0.29095 0.51562 0.30314 0.0
C2785 C 0.28231 0.49702 0.31144 0.0
C2786 C 0.27058 0.48886 0.28658 0.0
C2787 C 0.26645 0.47467 0.30696 0.0
C2788 C 0.24996 0.46127 0.26917 0.0
C2789 C 0.27262 0.49786 0.25302 0.0
N2790 N 0.2613 0.47119 0.29483 0.0
N2791 N 0.27691 0.50133 0.26516 0.0
H2792 H 0.8124 0.1923 0.98545 0.0
H2793 H 0.73527 0.28581 0.03744 0.0
H2794 H 0.76452 0.26487 0.97823 0.0
H2795 H 0.78258 0.21314 0.04458 0.0
H2796 H 0.74646 0.27864 1.0158 0.0
H2797 H 0.80066 0.19945 1.00707 0.0
C2798 C 0.79906 0.20972 0.98842 0.0
C2799 C 0.78955 0.22804 0.98002 0.0
C2800 C 0.75455 0.26426 0.02207 0.0
C2801 C 0.77639 0.23645 1.00484 0.0
C2802 C 0.74834 0.26837 0.03445 0.0
C2803 C 0.7579 0.25002 0.04283 0.0
C2804 C 0.77045 0.2416 1.018 0.0
C2805 C 0.77477 0.22778 0.03844 0.0
C2806 C 0.79253 0.21382 1.00078 0.0
C2807 C 0.77229 0.25024 0.98439 0.0
N2808 N 0.78034 0.22418 0.02633 0.0
N2809 N 0.76646 0.25385 0.99649 0.0
H2810 H 0.97879 0.19009 0.78696 0.0
H2811 H 0.05036 0.28315 0.73429 0.0
H2812 H 0.02703 0.2629 0.79353 0.0
H2813 H 1.00718 0.20972 0.72753 0.0
H2814 H 0.0395 0.2763 0.75594 0.0
H2815 H 0.98826 0.19688 0.76523 0.0
C2816 C 0.99168 0.20749 0.78382 0.0
C2817 C 1.00205 0.22598 0.79207 0.0
C2818 C 0.0322 0.26167 0.74975 0.0
C2819 C 1.01259 0.23396 0.76715 0.0
C2820 C 0.03821 0.26559 0.73737 0.0
C2821 C 0.02983 0.24695 0.72909 0.0
C2822 C 1.01766 0.23889 0.75396 0.0
C2823 C 1.01405 0.22459 0.7336 0.0
C2824 C 0.99692 0.21138 0.77141 0.0
C2825 C 1.01863 0.24815 0.7875 0.0
N2826 N 1.00867 0.22116 0.74573 0.0
N2827 N 0.02322 0.25154 0.77536 0.0
H2828 H 0.79702 0.53129 0.80606 0.0
H2829 H 0.72299 0.43788 0.7538 0.0
H2830 H 0.75627 0.45767 0.81317 0.0
H2831 H 0.77356 0.51028 0.74698 0.0
H2832 H 0.73314 0.44478 0.77551 0.0
H2833 H 0.78496 0.52422 0.78448 0.0
C2834 C 0.78513 0.51364 0.80307 0.0
C2835 C 0.77782 0.49501 0.81143 0.0
C2836 C 0.74216 0.45915 0.76928 0.0
C2837 C 0.76427 0.48669 0.78663 0.0
C2838 C 0.73652 0.4552 0.75688 0.0
C2839 C 0.74737 0.47355 0.74857 0.0
C2840 C 0.75867 0.48166 0.77345 0.0
C2841 C 0.76476 0.49563 0.75306 0.0
C2842 C 0.77845 0.50959 0.79073 0.0
C2843 C 0.76231 0.47254 0.80704 0.0
N2844 N 0.76968 0.49908 0.76519 0.0
N2845 N 0.75625 0.46898 0.79494 0.0
H2846 H 0.05805 0.94374 0.54839 0.0
H2847 H 0.98171 0.03405 0.49497 0.0
H2848 H 1.01087 0.0168 0.55452 0.0
H2849 H 0.032 0.9614 0.48896 0.0
H2850 H 0.992 0.02815 0.51673 0.0
H2851 H 0.0469 0.94967 0.52668 0.0
C2852 C 0.045 0.96102 0.54516 0.0
C2853 C 0.03553 0.97983 0.55328 0.0
C2854 C 1.00093 0.0135 0.51067 0.0
C2855 C 0.02298 -0.01316 0.52834 0.0
C2856 C 0.99522 0.01687 0.49823 0.0
C2857 C 1.00591 -0.00184 0.49014 0.0
C2858 C 1.01744 -0.00879 0.51511 0.0
C2859 C 0.02331 0.9763 0.49488 0.0
C2860 C 0.0388 0.96442 0.53275 0.0
C2861 C 1.01861 0.00181 0.54858 0.0
N2862 N 0.02837 0.97341 0.50704 0.0
N2863 N 1.01306 0.00473 0.53642 0.0
H2864 H 0.23722 0.25091 0.47668 0.0
H2865 H 0.30888 0.22545 0.54625 0.0
H2866 H 0.37015 0.21052 0.48799 0.0
H2867 H 0.1805 0.26902 0.5351 0.0
H2868 H 0.33141 0.21922 0.52494 0.0
H2869 H 0.21429 0.25704 0.49801 0.0
C2870 C 0.2613 0.24321 0.48364 0.0
C2871 C 0.30543 0.2301 0.48057 0.0
C2872 C 0.29842 0.23024 0.52715 0.0
C2873 C 0.27993 0.23713 0.50497 0.0
C2874 C 0.28585 0.23391 0.53933 0.0
C2875 C 0.24325 0.248 0.54245 0.0
C2876 C 0.26795 0.24067 0.51803 0.0
C2877 C 0.21386 0.25808 0.53309 0.0
C2878 C 0.24842 0.24678 0.49582 0.0
C2879 C 0.33571 0.22073 0.48996 0.0
N2880 N 0.22672 0.25424 0.52134 0.0
N2881 N 0.32244 0.2244 0.5017 0.0
H2882 H 0.30095 0.03208 0.79848 0.0
H2883 H 0.22986 0.93877 0.74593 0.0
H2884 H 0.25813 0.95861 0.80531 0.0
H2885 H 0.27598 0.01185 0.73923 0.0
H2886 H 0.23977 0.94561 0.76763 0.0
H2887 H 0.28999 0.0252 0.77683 0.0
C2888 C 0.28886 0.01451 0.79542 0.0
C2889 C 0.28059 -0.00414 0.80372 0.0
C2890 C 0.24788 0.96015 0.76144 0.0
C2891 C 0.26832 -0.01222 0.77885 0.0
C2892 C 0.24239 0.95624 0.74903 0.0
C2893 C 0.25201 0.97479 0.74075 0.0
C2894 C 0.26308 0.98282 0.76566 0.0
C2895 C 0.26816 -0.00295 0.74529 0.0
C2896 C 0.28279 0.01057 0.78304 0.0
C2897 C 0.26491 0.97349 0.79923 0.0
N2898 N 0.27301 0.00046 0.75742 0.0
N2899 N 0.25948 0.97005 0.78711 0.0
H2900 H 0.87447 0.71038 0.48941 0.0
H2901 H 0.67348 0.76569 0.53679 0.0
H2902 H 0.73852 0.74925 0.47875 0.0
H2903 H 0.80598 0.72421 0.54729 0.0
H2904 H 0.69688 0.76019 0.51559 0.0
H2905 H 0.85056 0.71569 0.51057 0.0
C2906 C 0.83939 0.72001 0.49153 0.0
C2907 C 0.80822 0.72927 0.48228 0.0
C2908 C 0.72103 0.75232 0.5225 0.0
C2909 C 0.78058 0.73551 0.50661 0.0
C2910 C 0.70772 0.75546 0.53463 0.0
C2911 C 0.7382 0.74559 0.54385 0.0
C2912 C 0.76523 0.73914 0.51949 0.0
C2913 C 0.78192 0.73244 0.5405 0.0
C2914 C 0.82576 0.72302 0.50364 0.0
C2915 C 0.76334 0.74162 0.48558 0.0
N2916 N 0.79416 0.72961 0.5286 0.0
N2917 N 0.75088 0.74441 0.49747 0.0
H2918 H 0.78248 0.01181 0.23849 0.0
H2919 H 0.75691 0.95861 0.30578 0.0
H2920 H 0.72763 0.9405 0.24633 0.0
H2921 H 0.81141 0.02996 0.29789 0.0
H2922 H 0.74464 0.95176 0.28408 0.0
H2923 H 0.79386 0.01875 0.2602 0.0
C2924 C 0.77314 -0.00242 0.24478 0.0
C2925 C 0.754 0.97557 0.2406 0.0
C2926 C 0.75914 0.96895 0.28709 0.0
C2927 C 0.76651 0.9834 0.26549 0.0
C2928 C 0.76593 0.97288 0.29949 0.0
C2929 C 0.78534 -0.00514 0.30364 0.0
C2930 C 0.77186 -0.01287 0.27878 0.0
C2931 C 0.79647 0.01272 0.29508 0.0
C2932 C 0.77944 0.00156 0.25718 0.0
C2933 C 0.74244 0.95775 0.24916 0.0
N2934 N 0.78975 0.00845 0.28308 0.0
N2935 N 0.74873 0.96207 0.26117 0.0
H2936 H 0.55993 0.44237 0.55602 0.0
H2937 H 0.47927 0.53272 0.50298 0.0
H2938 H 0.51319 0.51541 0.5624 0.0
H2939 H 0.53156 0.46046 0.49672 0.0
H2940 H 0.49061 0.52672 0.52471 0.0
H2941 H 0.54728 0.44839 0.53437 0.0
C2942 C 0.54665 0.45967 0.55286 0.0
C2943 C 0.53776 0.47845 0.56103 0.0
C2944 C 0.49974 0.51217 0.5186 0.0
C2945 C 0.52349 0.48555 0.53616 0.0
C2946 C 0.49341 0.5156 0.50619 0.0
C2947 C 0.50439 0.49703 0.49803 0.0
C2948 C 0.51714 0.48997 0.52295 0.0
C2949 C 0.52262 0.47525 0.50269 0.0
C2950 C 0.53961 0.46311 0.54047 0.0
C2951 C 0.5205 0.50045 0.55642 0.0
N2952 N 0.52827 0.4723 0.51483 0.0
N2953 N 0.51411 0.50342 0.54429 0.0
H2954 H 0.52834 0.76002 0.79634 0.0
H2955 H 0.50309 0.70633 0.72918 0.0
H2956 H 0.47296 0.68867 0.78887 0.0
H2957 H 0.54869 0.77904 0.73696 0.0
H2958 H 0.49177 0.69924 0.75092 0.0
H2959 H 0.538 0.76689 0.77459 0.0
C2960 C 0.51851 0.74575 0.79012 0.0
C2961 C 0.49971 0.72376 0.79442 0.0
C2962 C 0.50403 0.71678 0.74787 0.0
C2963 C 0.51032 0.7315 0.76947 0.0
C2964 C 0.51027 0.72085 0.73545 0.0
C2965 C 0.52699 0.74329 0.73125 0.0
C2966 C 0.51473 0.73527 0.75615 0.0
C2967 C 0.53587 0.76144 0.73979 0.0
C2968 C 0.52381 0.74969 0.77769 0.0
C2969 C 0.48753 0.70591 0.78595 0.0
N2970 N 0.52988 0.75701 0.75179 0.0
N2971 N 0.49294 0.71017 0.7739 0.0
H2972 H 0.53572 0.26365 0.29535 0.0
H2973 H 0.51049 0.20989 0.22821 0.0
H2974 H 0.48143 0.19217 0.28775 0.0
H2975 H 0.5647 0.28133 0.23596 0.0
H2976 H 0.49842 0.20312 0.24994 0.0
H2977 H 0.54723 0.27036 0.27362 0.0
C2978 C 0.52652 0.24933 0.28911 0.0
C2979 C 0.50748 0.22735 0.29336 0.0
C2980 C 0.51282 0.2203 0.24689 0.0
C2981 C 0.52015 0.23491 0.26846 0.0
C2982 C 0.5195 0.22419 0.23448 0.0
C2983 C 0.53875 0.24618 0.23028 0.0
C2984 C 0.52548 0.23854 0.25516 0.0
C2985 C 0.54988 0.26408 0.2388 0.0
C2986 C 0.53291 0.25318 0.2767 0.0
C2987 C 0.49614 0.20941 0.28486 0.0
N2988 N 0.54325 0.25985 0.25081 0.0
N2989 N 0.50249 0.2136 0.27284 0.0
H2990 H 0.50525 0.01545 0.05598 0.0
H2991 H 0.53369 0.96175 0.98889 0.0
H2992 H 0.55631 0.94352 0.04834 0.0
H2993 H 0.47653 0.03275 0.99635 0.0
H2994 H 0.54379 0.95505 1.01064 0.0
H2995 H 0.49415 0.02227 0.03423 0.0
C2996 C 0.51373 0.00105 0.04973 0.0
C2997 C 0.53185 0.97891 0.05397 0.0
C2998 C 0.52912 0.97213 1.00753 0.0
C2999 C 0.51977 0.98661 0.02906 0.0
C3000 C 0.52356 0.97598 0.99511 0.0
C3001 C 0.50413 -0.00219 0.9908 0.0
C3002 C 0.51522 -0.00974 1.01575 0.0
C3003 C 0.49158 0.01562 0.99927 0.0
C3004 C 0.5076 0.00496 0.03731 0.0
C3005 C 0.54236 0.96089 0.04547 0.0
N3006 N 0.49722 0.01145 1.01132 0.0
N3007 N 0.53637 0.96516 0.03345 0.0
loop_
_geom_bond_atom_site_label_1
_geom_bond_atom_site_label_2
_geom_bond_distance
_geom_bond_site_symmetry_2
_ccdc_geom_bond_type
Ho0 C3 2.811 . S
Ho0 O20 2.322 . S
Ho0 O22 2.378 . S
Ho0 O23 2.524 . S
Ho0 O24 2.381 . S
Ho0 O25 2.669 1_655 S
Ho0 O27 2.346 1_655 S
Ho0 O31 2.305 1_655 S
Ho1 C12 2.811 . S
Ho1 O21 2.346 . S
Ho1 O25 2.305 . S
Ho1 O26 2.322 . S
Ho1 O28 2.378 . S
Ho1 O29 2.524 . S
Ho1 O30 2.381 . S
Ho1 O31 2.669 . S
C2 O20 1.259 . S
C2 O21 1.268 1_655 S
C3 Ho0 2.811 . S
C3 C4 1.488 . S
C3 O22 1.215 . S
C3 O23 1.289 . S
C4 C3 1.488 . S
C4 C5 1.348 . S
C4 C9 1.413 . S
C5 C4 1.348 . S
C5 C6 1.442 . S
C5 H32 0.930 . S
C6 C5 1.442 . S
C6 C7 1.381 . S
C6 H33 0.931 . S
C7 C6 1.381 . S
C7 C8 1.321 . S
C8 C7 1.321 . S
C8 C9 1.403 . S
C8 H34 0.934 . S
C9 C4 1.413 . S
C9 C8 1.403 . S
C9 H35 0.930 . S
C10 O24 1.275 1_455 S
C10 O25 1.256 . S
C11 O26 1.259 . S
C11 O27 1.268 . S
C12 Ho1 2.811 . S
C12 C13 1.488 . S
C12 O28 1.215 . S
C12 O29 1.289 . S
C13 C12 1.488 . S
C13 C14 1.348 . S
C13 C18 1.413 . S
C14 C13 1.348 . S
C14 C15 1.442 . S
C14 H36 0.930 . S
C15 C14 1.442 . S
C15 C16 1.381 . S
C15 H37 0.931 . S
C16 C15 1.381 . S
C16 C17 1.321 . S
C17 C16 1.321 . S
C17 C18 1.403 . S
C17 H38 0.934 . S
C18 C13 1.413 . S
C18 C17 1.403 . S
C18 H39 0.930 . S
C19 O30 1.275 . S
C19 O31 1.256 . S
O20 Ho0 2.322 . S
O20 C2 1.259 . S
O21 Ho1 2.346 . S
O21 C2 1.268 1_455 S
O22 Ho0 2.378 . S
O22 C3 1.215 . S
O23 Ho0 2.524 . S
O23 C3 1.289 . S
O24 Ho0 2.381 . S
O24 C10 1.275 1_655 S
O25 Ho0 2.669 1_455 S
O25 Ho1 2.305 . S
O25 C10 1.256 . S
O26 Ho1 2.322 . S
O26 C11 1.259 . S
O27 Ho0 2.346 1_455 S
O27 C11 1.268 . S
O28 Ho1 2.378 . S
O28 C12 1.215 . S
O29 Ho1 2.524 . S
O29 C12 1.289 . S
O30 Ho1 2.381 . S
O30 C19 1.275 . S
O31 Ho0 2.305 1_455 S
O31 Ho1 2.669 . S
O31 C19 1.256 . S
H32 C5 0.930 . S
H33 C6 0.931 . S
H34 C8 0.934 . S
H35 C9 0.930 . S
H36 C14 0.930 . S
H37 C15 0.931 . S
H38 C17 0.934 . S
H39 C18 0.930 . S
Ho40 C43 2.811 . S
Ho40 O60 2.322 . S
Ho40 O62 2.378 . S
Ho40 O63 2.524 . S
Ho40 O64 2.381 . S
Ho40 O65 2.669 . S
Ho40 O67 2.346 . S
Ho40 O71 2.305 . S
Ho41 C52 2.811 . S
Ho41 O61 2.346 . S
Ho41 O65 2.305 . S
Ho41 O66 2.322 . S
Ho41 O68 2.378 . S
Ho41 O69 2.524 . S
Ho41 O70 2.381 . S
Ho41 O71 2.669 . S
C42 O60 1.259 . S
C42 O61 1.268 . S
C43 Ho40 2.811 . S
C43 C44 1.488 . S
C43 O62 1.215 . S
C43 O63 1.289 . S
C44 C43 1.488 . S
C44 C45 1.348 . S
C44 C49 1.413 . S
C45 C44 1.348 . S
C45 C46 1.442 . S
C45 H72 0.930 . S
C46 C45 1.442 . S
C46 C47 1.381 . S
C46 H73 0.931 . S
C47 C46 1.381 . S
C47 C48 1.321 . S
C48 C47 1.321 . S
C48 C49 1.403 . S
C48 H74 0.934 . S
C49 C44 1.413 . S
C49 C48 1.403 . S
C49 H75 0.930 . S
C50 O64 1.275 . S
C50 O65 1.256 . S
C51 O66 1.259 . S
C51 O67 1.268 . S
C52 Ho41 2.811 . S
C52 C53 1.488 . S
C52 O68 1.215 . S
C52 O69 1.289 . S
C53 C52 1.488 . S
C53 C54 1.348 1_455 S
C53 C58 1.413 1_455 S
C54 C53 1.348 1_655 S
C54 C55 1.442 . S
C54 H76 0.930 . S
C55 C54 1.442 . S
C55 C56 1.381 . S
C55 H77 0.931 . S
C56 C55 1.381 . S
C56 C57 1.321 . S
C57 C56 1.321 . S
C57 C58 1.403 . S
C57 H78 0.934 . S
C58 C53 1.413 1_655 S
C58 C57 1.403 . S
C58 H79 0.930 . S
C59 O70 1.275 . S
C59 O71 1.256 . S
O60 Ho40 2.322 . S
O60 C42 1.259 . S
O61 Ho41 2.346 . S
O61 C42 1.268 . S
O62 Ho40 2.378 . S
O62 C43 1.215 . S
O63 Ho40 2.524 . S
O63 C43 1.289 . S
O64 Ho40 2.381 . S
O64 C50 1.275 . S
O65 Ho40 2.669 . S
O65 Ho41 2.305 . S
O65 C50 1.256 . S
O66 Ho41 2.322 . S
O66 C51 1.259 . S
O67 Ho40 2.346 . S
O67 C51 1.268 . S
O68 Ho41 2.378 . S
O68 C52 1.215 . S
O69 Ho41 2.524 . S
O69 C52 1.289 . S
O70 Ho41 2.381 . S
O70 C59 1.275 . S
O71 Ho40 2.305 . S
O71 Ho41 2.669 . S
O71 C59 1.256 . S
H72 C45 0.930 . S
H73 C46 0.931 . S
H74 C48 0.934 . S
H75 C49 0.930 . S
H76 C54 0.930 . S
H77 C55 0.931 . S
H78 C57 0.934 . S
H79 C58 0.930 . S
Ho80 C83 2.811 . S
Ho80 O100 2.322 . S
Ho80 O102 2.378 . S
Ho80 O103 2.524 . S
Ho80 O104 2.381 . S
Ho80 O105 2.669 1_655 S
Ho80 O107 2.346 1_655 S
Ho80 O111 2.305 1_655 S
Ho81 C92 2.811 . S
Ho81 O101 2.346 . S
Ho81 O105 2.305 . S
Ho81 O106 2.322 . S
Ho81 O108 2.378 . S
Ho81 O109 2.524 . S
Ho81 O110 2.381 . S
Ho81 O111 2.669 . S
C82 O100 1.259 . S
C82 O101 1.268 1_655 S
C83 Ho80 2.811 . S
C83 C84 1.488 . S
C83 O102 1.215 . S
C83 O103 1.289 . S
C84 C83 1.488 . S
C84 C85 1.348 . S
C84 C89 1.413 . S
C85 C84 1.348 . S
C85 C86 1.442 . S
C85 H112 0.930 . S
C86 C85 1.442 . S
C86 C87 1.381 . S
C86 H113 0.931 . S
C87 C86 1.381 . S
C87 C88 1.321 . S
C88 C87 1.321 . S
C88 C89 1.403 . S
C88 H114 0.934 . S
C89 C84 1.413 . S
C89 C88 1.403 . S
C89 H115 0.930 . S
C90 O104 1.275 1_455 S
C90 O105 1.256 . S
C91 O106 1.259 . S
C91 O107 1.268 . S
C92 Ho81 2.811 . S
C92 C93 1.488 . S
C92 O108 1.215 . S
C92 O109 1.289 . S
C93 C92 1.488 . S
C93 C94 1.348 . S
C93 C98 1.413 . S
C94 C93 1.348 . S
C94 C95 1.442 . S
C94 H116 0.930 . S
C95 C94 1.442 . S
C95 C96 1.381 . S
C95 H117 0.931 . S
C96 C95 1.381 . S
C96 C97 1.321 . S
C97 C96 1.321 . S
C97 C98 1.403 . S
C97 H118 0.934 . S
C98 C93 1.413 . S
C98 C97 1.403 . S
C98 H119 0.930 . S
C99 O110 1.275 . S
C99 O111 1.256 . S
O100 Ho80 2.322 . S
O100 C82 1.259 . S
O101 Ho81 2.346 . S
O101 C82 1.268 1_455 S
O102 Ho80 2.378 . S
O102 C83 1.215 . S
O103 Ho80 2.524 . S
O103 C83 1.289 . S
O104 Ho80 2.381 . S
O104 C90 1.275 1_655 S
O105 Ho80 2.669 1_455 S
O105 Ho81 2.305 . S
O105 C90 1.256 . S
O106 Ho81 2.322 . S
O106 C91 1.259 . S
O107 Ho80 2.346 1_455 S
O107 C91 1.268 . S
O108 Ho81 2.378 . S
O108 C92 1.215 . S
O109 Ho81 2.524 . S
O109 C92 1.289 . S
O110 Ho81 2.381 . S
O110 C99 1.275 . S
O111 Ho80 2.305 1_455 S
O111 Ho81 2.669 . S
O111 C99 1.256 . S
H112 C85 0.930 . S
H113 C86 0.931 . S
H114 C88 0.934 . S
H115 C89 0.930 . S
H116 C94 0.930 . S
H117 C95 0.931 . S
H118 C97 0.934 . S
H119 C98 0.930 . S
Ho120 C123 2.811 . S
Ho120 O140 2.322 . S
Ho120 O142 2.378 . S
Ho120 O143 2.524 . S
Ho120 O144 2.381 . S
Ho120 O145 2.669 . S
Ho120 O147 2.346 . S
Ho120 O151 2.305 . S
Ho121 C132 2.811 . S
Ho121 O141 2.346 . S
Ho121 O145 2.305 . S
Ho121 O146 2.322 . S
Ho121 O148 2.378 . S
Ho121 O149 2.524 . S
Ho121 O150 2.381 . S
Ho121 O151 2.669 . S
C122 O140 1.259 . S
C122 O141 1.268 . S
C123 Ho120 2.811 . S
C123 C124 1.488 . S
C123 O142 1.215 . S
C123 O143 1.289 . S
C124 C123 1.488 . S
C124 C125 1.348 . S
C124 C129 1.413 . S
C125 C124 1.348 . S
C125 C126 1.442 . S
C125 H152 0.930 . S
C126 C125 1.442 . S
C126 C127 1.381 . S
C126 H153 0.931 . S
C127 C126 1.381 . S
C127 C128 1.321 . S
C128 C127 1.321 . S
C128 C129 1.403 . S
C128 H154 0.934 . S
C129 C124 1.413 . S
C129 C128 1.403 . S
C129 H155 0.930 . S
C130 O144 1.275 . S
C130 O145 1.256 . S
C131 O146 1.259 . S
C131 O147 1.268 . S
C132 Ho121 2.811 . S
C132 C133 1.488 . S
C132 O148 1.215 . S
C132 O149 1.289 . S
C133 C132 1.488 . S
C133 C134 1.348 1_455 S
C133 C138 1.413 1_455 S
C134 C133 1.348 1_655 S
C134 C135 1.442 . S
C134 H156 0.930 . S
C135 C134 1.442 . S
C135 C136 1.381 . S
C135 H157 0.931 . S
C136 C135 1.381 . S
C136 C137 1.321 . S
C137 C136 1.321 . S
C137 C138 1.403 . S
C137 H158 0.934 . S
C138 C133 1.413 1_655 S
C138 C137 1.403 . S
C138 H159 0.930 . S
C139 O150 1.275 . S
C139 O151 1.256 . S
O140 Ho120 2.322 . S
O140 C122 1.259 . S
O141 Ho121 2.346 . S
O141 C122 1.268 . S
O142 Ho120 2.378 . S
O142 C123 1.215 . S
O143 Ho120 2.524 . S
O143 C123 1.289 . S
O144 Ho120 2.381 . S
O144 C130 1.275 . S
O145 Ho120 2.669 . S
O145 Ho121 2.305 . S
O145 C130 1.256 . S
O146 Ho121 2.322 . S
O146 C131 1.259 . S
O147 Ho120 2.346 . S
O147 C131 1.268 . S
O148 Ho121 2.378 . S
O148 C132 1.215 . S
O149 Ho121 2.524 . S
O149 C132 1.289 . S
O150 Ho121 2.381 . S
O150 C139 1.275 . S
O151 Ho120 2.305 . S
O151 Ho121 2.669 . S
O151 C139 1.256 . S
H152 C125 0.930 . S
H153 C126 0.931 . S
H154 C128 0.934 . S
H155 C129 0.930 . S
H156 C134 0.930 . S
H157 C135 0.931 . S
H158 C137 0.934 . S
H159 C138 0.930 . S
Ho160 C163 2.811 . S
Ho160 O180 2.322 . S
Ho160 O182 2.378 . S
Ho160 O183 2.524 . S
Ho160 O184 2.381 . S
Ho160 O185 2.669 . S
Ho160 O187 2.346 . S
Ho160 O191 2.305 . S
Ho161 C172 2.811 . S
Ho161 O181 2.346 1_455 S
Ho161 O185 2.305 1_455 S
Ho161 O186 2.322 . S
Ho161 O188 2.378 . S
Ho161 O189 2.524 . S
Ho161 O190 2.381 . S
Ho161 O191 2.669 1_455 S
C162 O180 1.259 . S
C162 O181 1.268 . S
C163 Ho160 2.811 . S
C163 C164 1.488 . S
C163 O182 1.215 . S
C163 O183 1.289 . S
C164 C163 1.488 . S
C164 C165 1.348 . S
C164 C169 1.413 . S
C165 C164 1.348 . S
C165 C166 1.442 . S
C165 H192 0.930 . S
C166 C165 1.442 . S
C166 C167 1.381 . S
C166 H193 0.931 . S
C167 C166 1.381 . S
C167 C168 1.321 . S
C168 C167 1.321 . S
C168 C169 1.403 . S
C168 H194 0.934 . S
C169 C164 1.413 . S
C169 C168 1.403 . S
C169 H195 0.930 . S
C170 O184 1.275 . S
C170 O185 1.256 . S
C171 O186 1.259 . S
C171 O187 1.268 1_455 S
C172 Ho161 2.811 . S
C172 C173 1.488 . S
C172 O188 1.215 . S
C172 O189 1.289 . S
C173 C172 1.488 . S
C173 C174 1.348 . S
C173 C178 1.413 . S
C174 C173 1.348 . S
C174 C175 1.442 . S
C174 H196 0.930 . S
C175 C174 1.442 . S
C175 C176 1.381 . S
C175 H197 0.931 . S
C176 C175 1.381 . S
C176 C177 1.321 . S
C177 C176 1.321 . S
C177 C178 1.403 . S
C177 H198 0.934 . S
C178 C173 1.413 . S
C178 C177 1.403 . S
C178 H199 0.930 . S
C179 O190 1.275 1_655 S
C179 O191 1.256 . S
O180 Ho160 2.322 . S
O180 C162 1.259 . S
O181 Ho161 2.346 1_655 S
O181 C162 1.268 . S
O182 Ho160 2.378 . S
O182 C163 1.215 . S
O183 Ho160 2.524 . S
O183 C163 1.289 . S
O184 Ho160 2.381 . S
O184 C170 1.275 . S
O185 Ho160 2.669 . S
O185 Ho161 2.305 1_655 S
O185 C170 1.256 . S
O186 Ho161 2.322 . S
O186 C171 1.259 . S
O187 Ho160 2.346 . S
O187 C171 1.268 1_655 S
O188 Ho161 2.378 . S
O188 C172 1.215 . S
O189 Ho161 2.524 . S
O189 C172 1.289 . S
O190 Ho161 2.381 . S
O190 C179 1.275 1_455 S
O191 Ho160 2.305 . S
O191 Ho161 2.669 1_655 S
O191 C179 1.256 . S
H192 C165 0.930 . S
H193 C166 0.931 . S
H194 C168 0.934 . S
H195 C169 0.930 . S
H196 C174 0.930 . S
H197 C175 0.931 . S
H198 C177 0.934 . S
H199 C178 0.930 . S
Ho200 C203 2.811 . S
Ho200 O220 2.322 . S
Ho200 O222 2.378 . S
Ho200 O223 2.524 . S
Ho200 O224 2.381 . S
Ho200 O225 2.669 . S
Ho200 O227 2.346 . S
Ho200 O231 2.305 . S
Ho201 C212 2.811 . S
Ho201 O221 2.346 . S
Ho201 O225 2.305 . S
Ho201 O226 2.322 . S
Ho201 O228 2.378 . S
Ho201 O229 2.524 . S
Ho201 O230 2.381 . S
Ho201 O231 2.669 . S
C202 O220 1.259 . S
C202 O221 1.268 . S
C203 Ho200 2.811 . S
C203 C204 1.488 . S
C203 O222 1.215 . S
C203 O223 1.289 . S
C204 C203 1.488 . S
C204 C205 1.348 1_655 S
C204 C209 1.413 1_655 S
C205 C204 1.348 1_455 S
C205 C206 1.442 . S
C205 H232 0.930 . S
C206 C205 1.442 . S
C206 C207 1.381 . S
C206 H233 0.931 . S
C207 C206 1.381 . S
C207 C208 1.321 . S
C208 C207 1.321 . S
C208 C209 1.403 . S
C208 H234 0.934 . S
C209 C204 1.413 1_455 S
C209 C208 1.403 . S
C209 H235 0.930 . S
C210 O224 1.275 . S
C210 O225 1.256 . S
C211 O226 1.259 . S
C211 O227 1.268 . S
C212 Ho201 2.811 . S
C212 C213 1.488 . S
C212 O228 1.215 . S
C212 O229 1.289 . S
C213 C212 1.488 . S
C213 C214 1.348 . S
C213 C218 1.413 . S
C214 C213 1.348 . S
C214 C215 1.442 . S
C214 H236 0.930 . S
C215 C214 1.442 . S
C215 C216 1.381 . S
C215 H237 0.931 . S
C216 C215 1.381 . S
C216 C217 1.321 . S
C217 C216 1.321 . S
C217 C218 1.403 . S
C217 H238 0.934 . S
C218 C213 1.413 . S
C218 C217 1.403 . S
C218 H239 0.930 . S
C219 O230 1.275 . S
C219 O231 1.256 . S
O220 Ho200 2.322 . S
O220 C202 1.259 . S
O221 Ho201 2.346 . S
O221 C202 1.268 . S
O222 Ho200 2.378 . S
O222 C203 1.215 . S
O223 Ho200 2.524 . S
O223 C203 1.289 . S
O224 Ho200 2.381 . S
O224 C210 1.275 . S
O225 Ho200 2.669 . S
O225 Ho201 2.305 . S
O225 C210 1.256 . S
O226 Ho201 2.322 . S
O226 C211 1.259 . S
O227 Ho200 2.346 . S
O227 C211 1.268 . S
O228 Ho201 2.378 . S
O228 C212 1.215 . S
O229 Ho201 2.524 . S
O229 C212 1.289 . S
O230 Ho201 2.381 . S
O230 C219 1.275 . S
O231 Ho200 2.305 . S
O231 Ho201 2.669 . S
O231 C219 1.256 . S
H232 C205 0.930 . S
H233 C206 0.931 . S
H234 C208 0.934 . S
H235 C209 0.930 . S
H236 C214 0.930 . S
H237 C215 0.931 . S
H238 C217 0.934 . S
H239 C218 0.930 . S
Ho240 C243 2.811 . S
Ho240 O260 2.322 . S
Ho240 O262 2.378 . S
Ho240 O263 2.524 . S
Ho240 O264 2.381 . S
Ho240 O265 2.669 . S
Ho240 O267 2.346 . S
Ho240 O271 2.305 . S
Ho241 C252 2.811 . S
Ho241 O261 2.346 1_455 S
Ho241 O265 2.305 1_455 S
Ho241 O266 2.322 . S
Ho241 O268 2.378 . S
Ho241 O269 2.524 . S
Ho241 O270 2.381 . S
Ho241 O271 2.669 1_455 S
C242 O260 1.259 . S
C242 O261 1.268 . S
C243 Ho240 2.811 . S
C243 C244 1.488 . S
C243 O262 1.215 . S
C243 O263 1.289 . S
C244 C243 1.488 . S
C244 C245 1.348 . S
C244 C249 1.413 . S
C245 C244 1.348 . S
C245 C246 1.442 . S
C245 H272 0.930 . S
C246 C245 1.442 . S
C246 C247 1.381 . S
C246 H273 0.931 . S
C247 C246 1.381 . S
C247 C248 1.321 . S
C248 C247 1.321 . S
C248 C249 1.403 . S
C248 H274 0.934 . S
C249 C244 1.413 . S
C249 C248 1.403 . S
C249 H275 0.930 . S
C250 O264 1.275 . S
C250 O265 1.256 . S
C251 O266 1.259 . S
C251 O267 1.268 1_455 S
C252 Ho241 2.811 . S
C252 C253 1.488 . S
C252 O268 1.215 . S
C252 O269 1.289 . S
C253 C252 1.488 . S
C253 C254 1.348 . S
C253 C258 1.413 . S
C254 C253 1.348 . S
C254 C255 1.442 . S
C254 H276 0.930 . S
C255 C254 1.442 . S
C255 C256 1.381 . S
C255 H277 0.931 . S
C256 C255 1.381 . S
C256 C257 1.321 . S
C257 C256 1.321 . S
C257 C258 1.403 . S
C257 H278 0.934 . S
C258 C253 1.413 . S
C258 C257 1.403 . S
C258 H279 0.930 . S
C259 O270 1.275 1_655 S
C259 O271 1.256 . S
O260 Ho240 2.322 . S
O260 C242 1.259 . S
O261 Ho241 2.346 1_655 S
O261 C242 1.268 . S
O262 Ho240 2.378 . S
O262 C243 1.215 . S
O263 Ho240 2.524 . S
O263 C243 1.289 . S
O264 Ho240 2.381 . S
O264 C250 1.275 . S
O265 Ho240 2.669 . S
O265 Ho241 2.305 1_655 S
O265 C250 1.256 . S
O266 Ho241 2.322 . S
O266 C251 1.259 . S
O267 Ho240 2.346 . S
O267 C251 1.268 1_655 S
O268 Ho241 2.378 . S
O268 C252 1.215 . S
O269 Ho241 2.524 . S
O269 C252 1.289 . S
O270 Ho241 2.381 . S
O270 C259 1.275 1_455 S
O271 Ho240 2.305 . S
O271 Ho241 2.669 1_655 S
O271 C259 1.256 . S
H272 C245 0.930 . S
H273 C246 0.931 . S
H274 C248 0.934 . S
H275 C249 0.930 . S
H276 C254 0.930 . S
H277 C255 0.931 . S
H278 C257 0.934 . S
H279 C258 0.930 . S
Ho280 C283 2.811 . S
Ho280 O300 2.322 . S
Ho280 O302 2.378 . S
Ho280 O303 2.524 . S
Ho280 O304 2.381 . S
Ho280 O305 2.669 . S
Ho280 O307 2.346 . S
Ho280 O311 2.305 . S
Ho281 C292 2.811 . S
Ho281 O301 2.346 . S
Ho281 O305 2.305 . S
Ho281 O306 2.322 . S
Ho281 O308 2.378 . S
Ho281 O309 2.524 . S
Ho281 O310 2.381 . S
Ho281 O311 2.669 . S
C282 O300 1.259 . S
C282 O301 1.268 . S
C283 Ho280 2.811 . S
C283 C284 1.488 . S
C283 O302 1.215 . S
C283 O303 1.289 . S
C284 C283 1.488 . S
C284 C285 1.348 1_655 S
C284 C289 1.413 1_655 S
C285 C284 1.348 1_455 S
C285 C286 1.442 . S
C285 H312 0.930 . S
C286 C285 1.442 . S
C286 C287 1.381 . S
C286 H313 0.931 . S
C287 C286 1.381 . S
C287 C288 1.321 . S
C288 C287 1.321 . S
C288 C289 1.403 . S
C288 H314 0.934 . S
C289 C284 1.413 1_455 S
C289 C288 1.403 . S
C289 H315 0.930 . S
C290 O304 1.275 . S
C290 O305 1.256 . S
C291 O306 1.259 . S
C291 O307 1.268 . S
C292 Ho281 2.811 . S
C292 C293 1.488 . S
C292 O308 1.215 . S
C292 O309 1.289 . S
C293 C292 1.488 . S
C293 C294 1.348 . S
C293 C298 1.413 . S
C294 C293 1.348 . S
C294 C295 1.442 . S
C294 H316 0.930 . S
C295 C294 1.442 . S
C295 C296 1.381 . S
C295 H317 0.931 . S
C296 C295 1.381 . S
C296 C297 1.321 . S
C297 C296 1.321 . S
C297 C298 1.403 . S
C297 H318 0.934 . S
C298 C293 1.413 . S
C298 C297 1.403 . S
C298 H319 0.930 . S
C299 O310 1.275 . S
C299 O311 1.256 . S
O300 Ho280 2.322 . S
O300 C282 1.259 . S
O301 Ho281 2.346 . S
O301 C282 1.268 . S
O302 Ho280 2.378 . S
O302 C283 1.215 . S
O303 Ho280 2.524 . S
O303 C283 1.289 . S
O304 Ho280 2.381 . S
O304 C290 1.275 . S
O305 Ho280 2.669 . S
O305 Ho281 2.305 . S
O305 C290 1.256 . S
O306 Ho281 2.322 . S
O306 C291 1.259 . S
O307 Ho280 2.346 . S
O307 C291 1.268 . S
O308 Ho281 2.378 . S
O308 C292 1.215 . S
O309 Ho281 2.524 . S
O309 C292 1.289 . S
O310 Ho281 2.381 . S
O310 C299 1.275 . S
O311 Ho280 2.305 . S
O311 Ho281 2.669 . S
O311 C299 1.256 . S
H312 C285 0.930 . S
H313 C286 0.931 . S
H314 C288 0.934 . S
H315 C289 0.930 . S
H316 C294 0.930 . S
H317 C295 0.931 . S
H318 C297 0.934 . S
H319 C298 0.930 . S
Ho320 C323 2.810 . S
Ho320 O340 2.322 1_545 S
Ho320 O342 2.378 . S
Ho320 O343 2.524 1_545 S
Ho320 O344 2.381 . S
Ho320 O345 2.669 1_645 S
Ho320 O347 2.346 1_655 S
Ho320 O351 2.305 1_645 S
Ho321 C332 2.811 . S
Ho321 O341 2.346 . S
Ho321 O345 2.305 . S
Ho321 O346 2.322 1_565 S
Ho321 O348 2.378 . S
Ho321 O349 2.524 . S
Ho321 O350 2.381 . S
Ho321 O351 2.669 . S
C322 O340 1.259 . S
C322 O341 1.268 1_655 S
C323 Ho320 2.810 . S
C323 C324 1.489 1_545 S
C323 O342 1.214 . S
C323 O343 1.290 1_545 S
C324 C323 1.489 1_565 S
C324 C325 1.348 . S
C324 C329 1.413 . S
C325 C324 1.348 . S
C325 C326 1.442 . S
C325 H352 0.930 . S
C326 C325 1.442 . S
C326 C327 1.381 . S
C326 H353 0.931 . S
C327 C326 1.381 . S
C327 C328 1.321 . S
C328 C327 1.321 . S
C328 C329 1.403 . S
C328 H354 0.934 . S
C329 C324 1.413 . S
C329 C328 1.403 . S
C329 H355 0.929 . S
C330 O344 1.275 1_465 S
C330 O345 1.256 . S
C331 O346 1.259 . S
C331 O347 1.268 . S
C332 Ho321 2.811 . S
C332 C333 1.488 . S
C332 O348 1.215 . S
C332 O349 1.289 . S
C333 C332 1.488 . S
C333 C334 1.348 1_565 S
C333 C338 1.413 . S
C334 C333 1.348 1_545 S
C334 C335 1.442 . S
C334 H356 0.930 . S
C335 C334 1.442 . S
C335 C336 1.381 . S
C335 H357 0.931 . S
C336 C335 1.381 . S
C336 C337 1.321 1_545 S
C337 C336 1.321 1_565 S
C337 C338 1.403 . S
C337 H358 0.934 . S
C338 C333 1.413 . S
C338 C337 1.403 . S
C338 H359 0.930 . S
C339 O350 1.275 . S
C339 O351 1.256 . S
O340 Ho320 2.322 1_565 S
O340 C322 1.259 . S
O341 Ho321 2.346 . S
O341 C322 1.268 1_455 S
O342 Ho320 2.378 . S
O342 C323 1.214 . S
O343 Ho320 2.524 1_565 S
O343 C323 1.290 1_565 S
O344 Ho320 2.381 . S
O344 C330 1.275 1_645 S
O345 Ho320 2.669 1_465 S
O345 Ho321 2.305 . S
O345 C330 1.256 . S
O346 Ho321 2.322 1_545 S
O346 C331 1.259 . S
O347 Ho320 2.346 1_455 S
O347 C331 1.268 . S
O348 Ho321 2.378 . S
O348 C332 1.215 . S
O349 Ho321 2.524 . S
O349 C332 1.289 . S
O350 Ho321 2.381 . S
O350 C339 1.275 . S
O351 Ho320 2.305 1_465 S
O351 Ho321 2.669 . S
O351 C339 1.256 . S
H352 C325 0.930 . S
H353 C326 0.931 . S
H354 C328 0.934 . S
H355 C329 0.929 . S
H356 C334 0.930 . S
H357 C335 0.931 . S
H358 C337 0.934 . S
H359 C338 0.930 . S
Ho360 C363 2.811 . S
Ho360 O380 2.322 . S
Ho360 O382 2.378 . S
Ho360 O383 2.524 . S
Ho360 O384 2.381 . S
Ho360 O385 2.669 . S
Ho360 O387 2.346 . S
Ho360 O391 2.305 . S
Ho361 C372 2.811 . S
Ho361 O381 2.346 . S
Ho361 O385 2.305 . S
Ho361 O386 2.322 . S
Ho361 O388 2.378 . S
Ho361 O389 2.524 . S
Ho361 O390 2.381 . S
Ho361 O391 2.669 . S
C362 O380 1.259 . S
C362 O381 1.268 . S
C363 Ho360 2.811 . S
C363 C364 1.488 . S
C363 O382 1.215 . S
C363 O383 1.289 . S
C364 C363 1.488 . S
C364 C365 1.348 . S
C364 C369 1.413 . S
C365 C364 1.348 . S
C365 C366 1.442 . S
C365 H392 0.930 . S
C366 C365 1.442 . S
C366 C367 1.381 . S
C366 H393 0.931 . S
C367 C366 1.381 . S
C367 C368 1.321 . S
C368 C367 1.321 . S
C368 C369 1.403 . S
C368 H394 0.934 . S
C369 C364 1.413 . S
C369 C368 1.403 . S
C369 H395 0.930 . S
C370 O384 1.275 . S
C370 O385 1.256 . S
C371 O386 1.259 . S
C371 O387 1.268 . S
C372 Ho361 2.811 . S
C372 C373 1.488 . S
C372 O388 1.215 . S
C372 O389 1.289 . S
C373 C372 1.488 . S
C373 C374 1.348 1_455 S
C373 C378 1.413 1_455 S
C374 C373 1.348 1_655 S
C374 C375 1.442 . S
C374 H396 0.930 . S
C375 C374 1.442 . S
C375 C376 1.381 . S
C375 H397 0.931 . S
C376 C375 1.381 . S
C376 C377 1.321 . S
C377 C376 1.321 . S
C377 C378 1.403 . S
C377 H398 0.934 . S
C378 C373 1.413 1_655 S
C378 C377 1.403 . S
C378 H399 0.930 . S
C379 O390 1.275 . S
C379 O391 1.256 . S
O380 Ho360 2.322 . S
O380 C362 1.259 . S
O381 Ho361 2.346 . S
O381 C362 1.268 . S
O382 Ho360 2.378 . S
O382 C363 1.215 . S
O383 Ho360 2.524 . S
O383 C363 1.289 . S
O384 Ho360 2.381 . S
O384 C370 1.275 . S
O385 Ho360 2.669 . S
O385 Ho361 2.305 . S
O385 C370 1.256 . S
O386 Ho361 2.322 . S
O386 C371 1.259 . S
O387 Ho360 2.346 . S
O387 C371 1.268 . S
O388 Ho361 2.378 . S
O388 C372 1.215 . S
O389 Ho361 2.524 . S
O389 C372 1.289 . S
O390 Ho361 2.381 . S
O390 C379 1.275 . S
O391 Ho360 2.305 . S
O391 Ho361 2.669 . S
O391 C379 1.256 . S
H392 C365 0.930 . S
H393 C366 0.931 . S
H394 C368 0.934 . S
H395 C369 0.930 . S
H396 C374 0.930 . S
H397 C375 0.931 . S
H398 C377 0.934 . S
H399 C378 0.930 . S
Ho400 C403 2.811 . S
Ho400 O420 2.322 . S
Ho400 O422 2.378 . S
Ho400 O423 2.524 . S
Ho400 O424 2.381 . S
Ho400 O425 2.669 1_655 S
Ho400 O427 2.346 1_655 S
Ho400 O431 2.305 1_655 S
Ho401 C412 2.811 . S
Ho401 O421 2.346 . S
Ho401 O425 2.305 . S
Ho401 O426 2.322 . S
Ho401 O428 2.378 . S
Ho401 O429 2.524 . S
Ho401 O430 2.381 . S
Ho401 O431 2.669 . S
C402 O420 1.259 . S
C402 O421 1.268 1_655 S
C403 Ho400 2.811 . S
C403 C404 1.488 . S
C403 O422 1.215 . S
C403 O423 1.289 . S
C404 C403 1.488 . S
C404 C405 1.348 . S
C404 C409 1.413 . S
C405 C404 1.348 . S
C405 C406 1.442 . S
C405 H432 0.930 . S
C406 C405 1.442 . S
C406 C407 1.381 . S
C406 H433 0.931 . S
C407 C406 1.381 . S
C407 C408 1.321 . S
C408 C407 1.321 . S
C408 C409 1.403 . S
C408 H434 0.934 . S
C409 C404 1.413 . S
C409 C408 1.403 . S
C409 H435 0.930 . S
C410 O424 1.275 1_455 S
C410 O425 1.256 . S
C411 O426 1.259 . S
C411 O427 1.268 . S
C412 Ho401 2.811 . S
C412 C413 1.488 . S
C412 O428 1.215 . S
C412 O429 1.289 . S
C413 C412 1.488 . S
C413 C414 1.348 . S
C413 C418 1.413 . S
C414 C413 1.348 . S
C414 C415 1.442 . S
C414 H436 0.930 . S
C415 C414 1.442 . S
C415 C416 1.381 . S
C415 H437 0.931 . S
C416 C415 1.381 . S
C416 C417 1.321 . S
C417 C416 1.321 . S
C417 C418 1.403 . S
C417 H438 0.934 . S
C418 C413 1.413 . S
C418 C417 1.403 . S
C418 H439 0.930 . S
C419 O430 1.275 . S
C419 O431 1.256 . S
O420 Ho400 2.322 . S
O420 C402 1.259 . S
O421 Ho401 2.346 . S
O421 C402 1.268 1_455 S
O422 Ho400 2.378 . S
O422 C403 1.215 . S
O423 Ho400 2.524 . S
O423 C403 1.289 . S
O424 Ho400 2.381 . S
O424 C410 1.275 1_655 S
O425 Ho400 2.669 1_455 S
O425 Ho401 2.305 . S
O425 C410 1.256 . S
O426 Ho401 2.322 . S
O426 C411 1.259 . S
O427 Ho400 2.346 1_455 S
O427 C411 1.268 . S
O428 Ho401 2.378 . S
O428 C412 1.215 . S
O429 Ho401 2.524 . S
O429 C412 1.289 . S
O430 Ho401 2.381 . S
O430 C419 1.275 . S
O431 Ho400 2.305 1_455 S
O431 Ho401 2.669 . S
O431 C419 1.256 . S
H432 C405 0.930 . S
H433 C406 0.931 . S
H434 C408 0.934 . S
H435 C409 0.930 . S
H436 C414 0.930 . S
H437 C415 0.931 . S
H438 C417 0.934 . S
H439 C418 0.930 . S
Ho440 C443 2.810 . S
Ho440 O460 2.322 1_545 S
Ho440 O462 2.378 . S
Ho440 O463 2.524 1_545 S
Ho440 O464 2.381 . S
Ho440 O465 2.669 1_545 S
Ho440 O467 2.346 . S
Ho440 O471 2.305 1_545 S
Ho441 C452 2.811 . S
Ho441 O461 2.346 . S
Ho441 O465 2.305 . S
Ho441 O466 2.322 1_565 S
Ho441 O468 2.378 . S
Ho441 O469 2.524 . S
Ho441 O470 2.381 . S
Ho441 O471 2.669 . S
C442 O460 1.259 . S
C442 O461 1.268 . S
C443 Ho440 2.810 . S
C443 C444 1.489 1_545 S
C443 O462 1.214 . S
C443 O463 1.290 1_545 S
C444 C443 1.489 1_565 S
C444 C445 1.348 . S
C444 C449 1.413 . S
C445 C444 1.348 . S
C445 C446 1.442 . S
C445 H472 0.930 . S
C446 C445 1.442 . S
C446 C447 1.381 . S
C446 H473 0.931 . S
C447 C446 1.381 . S
C447 C448 1.321 . S
C448 C447 1.321 . S
C448 C449 1.403 . S
C448 H474 0.934 . S
C449 C444 1.413 . S
C449 C448 1.403 . S
C449 H475 0.929 . S
C450 O464 1.275 1_565 S
C450 O465 1.256 . S
C451 O466 1.259 . S
C451 O467 1.268 . S
C452 Ho441 2.811 . S
C452 C453 1.488 . S
C452 O468 1.215 . S
C452 O469 1.289 . S
C453 C452 1.488 . S
C453 C454 1.348 1_465 S
C453 C458 1.413 1_455 S
C454 C453 1.348 1_645 S
C454 C455 1.442 . S
C454 H476 0.930 . S
C455 C454 1.442 . S
C455 C456 1.381 . S
C455 H477 0.931 . S
C456 C455 1.381 . S
C456 C457 1.321 1_545 S
C457 C456 1.321 1_565 S
C457 C458 1.403 . S
C457 H478 0.934 . S
C458 C453 1.413 1_655 S
C458 C457 1.403 . S
C458 H479 0.930 . S
C459 O470 1.275 . S
C459 O471 1.256 . S
O460 Ho440 2.322 1_565 S
O460 C442 1.259 . S
O461 Ho441 2.346 . S
O461 C442 1.268 . S
O462 Ho440 2.378 . S
O462 C443 1.214 . S
O463 Ho440 2.524 1_565 S
O463 C443 1.290 1_565 S
O464 Ho440 2.381 . S
O464 C450 1.275 1_545 S
O465 Ho440 2.669 1_565 S
O465 Ho441 2.305 . S
O465 C450 1.256 . S
O466 Ho441 2.322 1_545 S
O466 C451 1.259 . S
O467 Ho440 2.346 . S
O467 C451 1.268 . S
O468 Ho441 2.378 . S
O468 C452 1.215 . S
O469 Ho441 2.524 . S
O469 C452 1.289 . S
O470 Ho441 2.381 . S
O470 C459 1.275 . S
O471 Ho440 2.305 1_565 S
O471 Ho441 2.669 . S
O471 C459 1.256 . S
H472 C445 0.930 . S
H473 C446 0.931 . S
H474 C448 0.934 . S
H475 C449 0.929 . S
H476 C454 0.930 . S
H477 C455 0.931 . S
H478 C457 0.934 . S
H479 C458 0.930 . S
Ho480 C483 2.811 . S
Ho480 O500 2.322 1_545 S
Ho480 O502 2.378 . S
Ho480 O503 2.524 . S
Ho480 O504 2.381 . S
Ho480 O505 2.669 . S
Ho480 O507 2.346 . S
Ho480 O511 2.305 . S
Ho481 C492 2.810 . S
Ho481 O501 2.346 1_455 S
Ho481 O505 2.305 1_465 S
Ho481 O506 2.322 1_565 S
Ho481 O508 2.378 . S
Ho481 O509 2.524 1_565 S
Ho481 O510 2.381 . S
Ho481 O511 2.669 1_465 S
C482 O500 1.259 . S
C482 O501 1.268 . S
C483 Ho480 2.811 . S
C483 C484 1.488 . S
C483 O502 1.215 . S
C483 O503 1.289 . S
C484 C483 1.488 . S
C484 C485 1.348 1_545 S
C484 C489 1.413 . S
C485 C484 1.348 1_565 S
C485 C486 1.442 . S
C485 H512 0.930 . S
C486 C485 1.442 . S
C486 C487 1.381 . S
C486 H513 0.931 . S
C487 C486 1.381 . S
C487 C488 1.321 1_565 S
C488 C487 1.321 1_545 S
C488 C489 1.403 . S
C488 H514 0.934 . S
C489 C484 1.413 . S
C489 C488 1.403 . S
C489 H515 0.930 . S
C490 O504 1.275 . S
C490 O505 1.256 . S
C491 O506 1.259 . S
C491 O507 1.268 1_455 S
C492 Ho481 2.810 . S
C492 C493 1.489 1_565 S
C492 O508 1.214 . S
C492 O509 1.290 1_565 S
C493 C492 1.489 1_545 S
C493 C494 1.348 . S
C493 C498 1.413 . S
C494 C493 1.348 . S
C494 C495 1.442 . S
C494 H516 0.930 . S
C495 C494 1.442 . S
C495 C496 1.381 . S
C495 H517 0.931 . S
C496 C495 1.381 . S
C496 C497 1.321 . S
C497 C496 1.321 . S
C497 C498 1.403 . S
C497 H518 0.934 . S
C498 C493 1.413 . S
C498 C497 1.403 . S
C498 H519 0.929 . S
C499 O510 1.275 1_645 S
C499 O511 1.256 . S
O500 Ho480 2.322 1_565 S
O500 C482 1.259 . S
O501 Ho481 2.346 1_655 S
O501 C482 1.268 . S
O502 Ho480 2.378 . S
O502 C483 1.215 . S
O503 Ho480 2.524 . S
O503 C483 1.289 . S
O504 Ho480 2.381 . S
O504 C490 1.275 . S
O505 Ho480 2.669 . S
O505 Ho481 2.305 1_645 S
O505 C490 1.256 . S
O506 Ho481 2.322 1_545 S
O506 C491 1.259 . S
O507 Ho480 2.346 . S
O507 C491 1.268 1_655 S
O508 Ho481 2.378 . S
O508 C492 1.214 . S
O509 Ho481 2.524 1_545 S
O509 C492 1.290 1_545 S
O510 Ho481 2.381 . S
O510 C499 1.275 1_465 S
O511 Ho480 2.305 . S
O511 Ho481 2.669 1_645 S
O511 C499 1.256 . S
H512 C485 0.930 . S
H513 C486 0.931 . S
H514 C488 0.934 . S
H515 C489 0.930 . S
H516 C494 0.930 . S
H517 C495 0.931 . S
H518 C497 0.934 . S
H519 C498 0.929 . S
Ho520 C523 2.811 . S
Ho520 O540 2.322 . S
Ho520 O542 2.378 . S
Ho520 O543 2.524 . S
Ho520 O544 2.381 . S
Ho520 O545 2.669 . S
Ho520 O547 2.346 . S
Ho520 O551 2.305 . S
Ho521 C532 2.811 . S
Ho521 O541 2.346 . S
Ho521 O545 2.305 . S
Ho521 O546 2.322 . S
Ho521 O548 2.378 . S
Ho521 O549 2.524 . S
Ho521 O550 2.381 . S
Ho521 O551 2.669 . S
C522 O540 1.259 . S
C522 O541 1.268 . S
C523 Ho520 2.811 . S
C523 C524 1.488 . S
C523 O542 1.215 . S
C523 O543 1.289 . S
C524 C523 1.488 . S
C524 C525 1.348 1_655 S
C524 C529 1.413 1_655 S
C525 C524 1.348 1_455 S
C525 C526 1.442 . S
C525 H552 0.930 . S
C526 C525 1.442 . S
C526 C527 1.381 . S
C526 H553 0.931 . S
C527 C526 1.381 . S
C527 C528 1.321 . S
C528 C527 1.321 . S
C528 C529 1.403 . S
C528 H554 0.934 . S
C529 C524 1.413 1_455 S
C529 C528 1.403 . S
C529 H555 0.930 . S
C530 O544 1.275 . S
C530 O545 1.256 . S
C531 O546 1.259 . S
C531 O547 1.268 . S
C532 Ho521 2.811 . S
C532 C533 1.488 . S
C532 O548 1.215 . S
C532 O549 1.289 . S
C533 C532 1.488 . S
C533 C534 1.348 . S
C533 C538 1.413 . S
C534 C533 1.348 . S
C534 C535 1.442 . S
C534 H556 0.930 . S
C535 C534 1.442 . S
C535 C536 1.381 . S
C535 H557 0.931 . S
C536 C535 1.381 . S
C536 C537 1.321 . S
C537 C536 1.321 . S
C537 C538 1.403 . S
C537 H558 0.934 . S
C538 C533 1.413 . S
C538 C537 1.403 . S
C538 H559 0.930 . S
C539 O550 1.275 . S
C539 O551 1.256 . S
O540 Ho520 2.322 . S
O540 C522 1.259 . S
O541 Ho521 2.346 . S
O541 C522 1.268 . S
O542 Ho520 2.378 . S
O542 C523 1.215 . S
O543 Ho520 2.524 . S
O543 C523 1.289 . S
O544 Ho520 2.381 . S
O544 C530 1.275 . S
O545 Ho520 2.669 . S
O545 Ho521 2.305 . S
O545 C530 1.256 . S
O546 Ho521 2.322 . S
O546 C531 1.259 . S
O547 Ho520 2.346 . S
O547 C531 1.268 . S
O548 Ho521 2.378 . S
O548 C532 1.215 . S
O549 Ho521 2.524 . S
O549 C532 1.289 . S
O550 Ho521 2.381 . S
O550 C539 1.275 . S
O551 Ho520 2.305 . S
O551 Ho521 2.669 . S
O551 C539 1.256 . S
H552 C525 0.930 . S
H553 C526 0.931 . S
H554 C528 0.934 . S
H555 C529 0.930 . S
H556 C534 0.930 . S
H557 C535 0.931 . S
H558 C537 0.934 . S
H559 C538 0.930 . S
Ho560 C563 2.811 . S
Ho560 O580 2.322 . S
Ho560 O582 2.378 . S
Ho560 O583 2.524 . S
Ho560 O584 2.381 . S
Ho560 O585 2.669 . S
Ho560 O587 2.346 . S
Ho560 O591 2.305 . S
Ho561 C572 2.811 . S
Ho561 O581 2.346 1_455 S
Ho561 O585 2.305 1_455 S
Ho561 O586 2.322 . S
Ho561 O588 2.378 . S
Ho561 O589 2.524 . S
Ho561 O590 2.381 . S
Ho561 O591 2.669 1_455 S
C562 O580 1.259 . S
C562 O581 1.268 . S
C563 Ho560 2.811 . S
C563 C564 1.488 . S
C563 O582 1.215 . S
C563 O583 1.289 . S
C564 C563 1.488 . S
C564 C565 1.348 . S
C564 C569 1.413 . S
C565 C564 1.348 . S
C565 C566 1.442 . S
C565 H592 0.930 . S
C566 C565 1.442 . S
C566 C567 1.381 . S
C566 H593 0.931 . S
C567 C566 1.381 . S
C567 C568 1.321 . S
C568 C567 1.321 . S
C568 C569 1.403 . S
C568 H594 0.934 . S
C569 C564 1.413 . S
C569 C568 1.403 . S
C569 H595 0.930 . S
C570 O584 1.275 . S
C570 O585 1.256 . S
C571 O586 1.259 . S
C571 O587 1.268 1_455 S
C572 Ho561 2.811 . S
C572 C573 1.488 . S
C572 O588 1.215 . S
C572 O589 1.289 . S
C573 C572 1.488 . S
C573 C574 1.348 . S
C573 C578 1.413 . S
C574 C573 1.348 . S
C574 C575 1.442 . S
C574 H596 0.930 . S
C575 C574 1.442 . S
C575 C576 1.381 . S
C575 H597 0.931 . S
C576 C575 1.381 . S
C576 C577 1.321 . S
C577 C576 1.321 . S
C577 C578 1.403 . S
C577 H598 0.934 . S
C578 C573 1.413 . S
C578 C577 1.403 . S
C578 H599 0.930 . S
C579 O590 1.275 1_655 S
C579 O591 1.256 . S
O580 Ho560 2.322 . S
O580 C562 1.259 . S
O581 Ho561 2.346 1_655 S
O581 C562 1.268 . S
O582 Ho560 2.378 . S
O582 C563 1.215 . S
O583 Ho560 2.524 . S
O583 C563 1.289 . S
O584 Ho560 2.381 . S
O584 C570 1.275 . S
O585 Ho560 2.669 . S
O585 Ho561 2.305 1_655 S
O585 C570 1.256 . S
O586 Ho561 2.322 . S
O586 C571 1.259 . S
O587 Ho560 2.346 . S
O587 C571 1.268 1_655 S
O588 Ho561 2.378 . S
O588 C572 1.215 . S
O589 Ho561 2.524 . S
O589 C572 1.289 . S
O590 Ho561 2.381 . S
O590 C579 1.275 1_455 S
O591 Ho560 2.305 . S
O591 Ho561 2.669 1_655 S
O591 C579 1.256 . S
H592 C565 0.930 . S
H593 C566 0.931 . S
H594 C568 0.934 . S
H595 C569 0.930 . S
H596 C574 0.930 . S
H597 C575 0.931 . S
H598 C577 0.934 . S
H599 C578 0.930 . S
Ho600 C603 2.811 . S
Ho600 O620 2.322 1_545 S
Ho600 O622 2.378 . S
Ho600 O623 2.524 . S
Ho600 O624 2.381 . S
Ho600 O625 2.669 . S
Ho600 O627 2.346 . S
Ho600 O631 2.305 . S
Ho601 C612 2.810 . S
Ho601 O621 2.346 . S
Ho601 O625 2.305 1_565 S
Ho601 O626 2.322 1_565 S
Ho601 O628 2.378 . S
Ho601 O629 2.524 1_565 S
Ho601 O630 2.381 . S
Ho601 O631 2.669 1_565 S
C602 O620 1.259 . S
C602 O621 1.268 . S
C603 Ho600 2.811 . S
C603 C604 1.488 . S
C603 O622 1.215 . S
C603 O623 1.289 . S
C604 C603 1.488 . S
C604 C605 1.348 1_645 S
C604 C609 1.413 1_655 S
C605 C604 1.348 1_465 S
C605 C606 1.442 . S
C605 H632 0.930 . S
C606 C605 1.442 . S
C606 C607 1.381 . S
C606 H633 0.931 . S
C607 C606 1.381 . S
C607 C608 1.321 1_565 S
C608 C607 1.321 1_545 S
C608 C609 1.403 . S
C608 H634 0.934 . S
C609 C604 1.413 1_455 S
C609 C608 1.403 . S
C609 H635 0.930 . S
C610 O624 1.275 . S
C610 O625 1.256 . S
C611 O626 1.259 . S
C611 O627 1.268 . S
C612 Ho601 2.810 . S
C612 C613 1.489 1_565 S
C612 O628 1.214 . S
C612 O629 1.290 1_565 S
C613 C612 1.489 1_545 S
C613 C614 1.348 . S
C613 C618 1.413 . S
C614 C613 1.348 . S
C614 C615 1.442 . S
C614 H636 0.930 . S
C615 C614 1.442 . S
C615 C616 1.381 . S
C615 H637 0.931 . S
C616 C615 1.381 . S
C616 C617 1.321 . S
C617 C616 1.321 . S
C617 C618 1.403 . S
C617 H638 0.934 . S
C618 C613 1.413 . S
C618 C617 1.403 . S
C618 H639 0.929 . S
C619 O630 1.275 1_545 S
C619 O631 1.256 . S
O620 Ho600 2.322 1_565 S
O620 C602 1.259 . S
O621 Ho601 2.346 . S
O621 C602 1.268 . S
O622 Ho600 2.378 . S
O622 C603 1.215 . S
O623 Ho600 2.524 . S
O623 C603 1.289 . S
O624 Ho600 2.381 . S
O624 C610 1.275 . S
O625 Ho600 2.669 . S
O625 Ho601 2.305 1_545 S
O625 C610 1.256 . S
O626 Ho601 2.322 1_545 S
O626 C611 1.259 . S
O627 Ho600 2.346 . S
O627 C611 1.268 . S
O628 Ho601 2.378 . S
O628 C612 1.214 . S
O629 Ho601 2.524 1_545 S
O629 C612 1.290 1_545 S
O630 Ho601 2.381 . S
O630 C619 1.275 1_565 S
O631 Ho600 2.305 . S
O631 Ho601 2.669 1_545 S
O631 C619 1.256 . S
H632 C605 0.930 . S
H633 C606 0.931 . S
H634 C608 0.934 . S
H635 C609 0.930 . S
H636 C614 0.930 . S
H637 C615 0.931 . S
H638 C617 0.934 . S
H639 C618 0.929 . S
Ho640 C643 2.811 . S
Ho640 O660 2.322 . S
Ho640 O662 2.378 . S
Ho640 O663 2.524 . S
Ho640 O664 2.381 . S
Ho640 O665 2.669 . S
Ho640 O667 2.346 . S
Ho640 O671 2.305 . S
Ho641 C652 2.811 . S
Ho641 O661 2.346 . S
Ho641 O665 2.305 . S
Ho641 O666 2.322 . S
Ho641 O668 2.378 . S
Ho641 O669 2.524 . S
Ho641 O670 2.381 . S
Ho641 O671 2.669 . S
C642 O660 1.259 . S
C642 O661 1.268 . S
C643 Ho640 2.811 . S
C643 C644 1.488 . S
C643 O662 1.215 . S
C643 O663 1.289 . S
C644 C643 1.488 . S
C644 C645 1.348 . S
C644 C649 1.413 . S
C645 C644 1.348 . S
C645 C646 1.442 . S
C645 H672 0.930 . S
C646 C645 1.442 . S
C646 C647 1.381 . S
C646 H673 0.931 . S
C647 C646 1.381 . S
C647 C648 1.321 . S
C648 C647 1.321 . S
C648 C649 1.403 . S
C648 H674 0.934 . S
C649 C644 1.413 . S
C649 C648 1.403 . S
C649 H675 0.930 . S
C650 O664 1.275 . S
C650 O665 1.256 . S
C651 O666 1.259 . S
C651 O667 1.268 . S
C652 Ho641 2.811 . S
C652 C653 1.488 . S
C652 O668 1.215 . S
C652 O669 1.289 . S
C653 C652 1.488 . S
C653 C654 1.348 . S
C653 C658 1.413 . S
C654 C653 1.348 . S
C654 C655 1.442 . S
C654 H676 0.930 . S
C655 C654 1.442 . S
C655 C656 1.381 . S
C655 H677 0.931 . S
C656 C655 1.381 . S
C656 C657 1.321 . S
C657 C656 1.321 . S
C657 C658 1.403 . S
C657 H678 0.934 . S
C658 C653 1.413 . S
C658 C657 1.403 . S
C658 H679 0.930 . S
C659 O670 1.275 . S
C659 O671 1.256 . S
O660 Ho640 2.322 . S
O660 C642 1.259 . S
O661 Ho641 2.346 . S
O661 C642 1.268 . S
O662 Ho640 2.378 . S
O662 C643 1.215 . S
O663 Ho640 2.524 . S
O663 C643 1.289 . S
O664 Ho640 2.381 . S
O664 C650 1.275 . S
O665 Ho640 2.669 . S
O665 Ho641 2.305 . S
O665 C650 1.256 . S
O666 Ho641 2.322 . S
O666 C651 1.259 . S
O667 Ho640 2.346 . S
O667 C651 1.268 . S
O668 Ho641 2.378 . S
O668 C652 1.215 . S
O669 Ho641 2.524 . S
O669 C652 1.289 . S
O670 Ho641 2.381 . S
O670 C659 1.275 . S
O671 Ho640 2.305 . S
O671 Ho641 2.669 . S
O671 C659 1.256 . S
H672 C645 0.930 . S
H673 C646 0.931 . S
H674 C648 0.934 . S
H675 C649 0.930 . S
H676 C654 0.930 . S
H677 C655 0.931 . S
H678 C657 0.934 . S
H679 C658 0.930 . S
Ho680 C683 2.811 . S
Ho680 O700 2.322 . S
Ho680 O702 2.378 . S
Ho680 O703 2.524 . S
Ho680 O704 2.381 . S
Ho680 O705 2.669 . S
Ho680 O707 2.346 . S
Ho680 O711 2.305 . S
Ho681 C692 2.811 . S
Ho681 O701 2.346 . S
Ho681 O705 2.305 . S
Ho681 O706 2.322 . S
Ho681 O708 2.378 . S
Ho681 O709 2.524 . S
Ho681 O710 2.381 . S
Ho681 O711 2.669 . S
C682 O700 1.259 . S
C682 O701 1.268 . S
C683 Ho680 2.811 . S
C683 C684 1.488 . S
C683 O702 1.215 . S
C683 O703 1.289 . S
C684 C683 1.488 . S
C684 C685 1.348 . S
C684 C689 1.413 . S
C685 C684 1.348 . S
C685 C686 1.442 1_655 S
C685 H712 0.930 . S
C686 C685 1.442 1_455 S
C686 C687 1.381 . S
C686 H713 0.931 . S
C687 C686 1.381 . S
C687 C688 1.321 . S
C688 C687 1.321 . S
C688 C689 1.403 1_455 S
C688 H714 0.934 . S
C689 C684 1.413 . S
C689 C688 1.403 1_655 S
C689 H715 0.930 . S
C690 O704 1.275 . S
C690 O705 1.256 . S
C691 O706 1.259 . S
C691 O707 1.268 . S
C692 Ho681 2.811 . S
C692 C693 1.488 . S
C692 O708 1.215 . S
C692 O709 1.289 . S
C693 C692 1.488 . S
C693 C694 1.348 . S
C693 C698 1.413 . S
C694 C693 1.348 . S
C694 C695 1.442 . S
C694 H716 0.930 . S
C695 C694 1.442 . S
C695 C696 1.381 . S
C695 H717 0.931 . S
C696 C695 1.381 . S
C696 C697 1.321 . S
C697 C696 1.321 . S
C697 C698 1.403 . S
C697 H718 0.934 . S
C698 C693 1.413 . S
C698 C697 1.403 . S
C698 H719 0.930 . S
C699 O710 1.275 . S
C699 O711 1.256 . S
O700 Ho680 2.322 . S
O700 C682 1.259 . S
O701 Ho681 2.346 . S
O701 C682 1.268 . S
O702 Ho680 2.378 . S
O702 C683 1.215 . S
O703 Ho680 2.524 . S
O703 C683 1.289 . S
O704 Ho680 2.381 . S
O704 C690 1.275 . S
O705 Ho680 2.669 . S
O705 Ho681 2.305 . S
O705 C690 1.256 . S
O706 Ho681 2.322 . S
O706 C691 1.259 . S
O707 Ho680 2.346 . S
O707 C691 1.268 . S
O708 Ho681 2.378 . S
O708 C692 1.215 . S
O709 Ho681 2.524 . S
O709 C692 1.289 . S
O710 Ho681 2.381 . S
O710 C699 1.275 . S
O711 Ho680 2.305 . S
O711 Ho681 2.669 . S
O711 C699 1.256 . S
H712 C685 0.930 . S
H713 C686 0.931 . S
H714 C688 0.934 . S
H715 C689 0.930 . S
H716 C694 0.930 . S
H717 C695 0.931 . S
H718 C697 0.934 . S
H719 C698 0.930 . S
Ho720 C723 2.811 . S
Ho720 O740 2.322 . S
Ho720 O742 2.378 . S
Ho720 O743 2.524 . S
Ho720 O744 2.381 . S
Ho720 O745 2.669 . S
Ho720 O747 2.346 . S
Ho720 O751 2.305 . S
Ho721 C732 2.811 . S
Ho721 O741 2.346 . S
Ho721 O745 2.305 . S
Ho721 O746 2.322 . S
Ho721 O748 2.378 . S
Ho721 O749 2.524 . S
Ho721 O750 2.381 . S
Ho721 O751 2.669 . S
C722 O740 1.259 . S
C722 O741 1.268 . S
C723 Ho720 2.811 . S
C723 C724 1.488 . S
C723 O742 1.215 . S
C723 O743 1.289 . S
C724 C723 1.488 . S
C724 C725 1.348 . S
C724 C729 1.413 . S
C725 C724 1.348 . S
C725 C726 1.442 . S
C725 H752 0.930 . S
C726 C725 1.442 . S
C726 C727 1.381 . S
C726 H753 0.931 . S
C727 C726 1.381 . S
C727 C728 1.321 . S
C728 C727 1.321 . S
C728 C729 1.403 . S
C728 H754 0.934 . S
C729 C724 1.413 . S
C729 C728 1.403 . S
C729 H755 0.930 . S
C730 O744 1.275 . S
C730 O745 1.256 . S
C731 O746 1.259 . S
C731 O747 1.268 . S
C732 Ho721 2.811 . S
C732 C733 1.488 . S
C732 O748 1.215 . S
C732 O749 1.289 . S
C733 C732 1.488 . S
C733 C734 1.348 . S
C733 C738 1.413 . S
C734 C733 1.348 . S
C734 C735 1.442 . S
C734 H756 0.930 . S
C735 C734 1.442 . S
C735 C736 1.381 . S
C735 H757 0.931 . S
C736 C735 1.381 . S
C736 C737 1.321 . S
C737 C736 1.321 . S
C737 C738 1.403 . S
C737 H758 0.934 . S
C738 C733 1.413 . S
C738 C737 1.403 . S
C738 H759 0.930 . S
C739 O750 1.275 . S
C739 O751 1.256 . S
O740 Ho720 2.322 . S
O740 C722 1.259 . S
O741 Ho721 2.346 . S
O741 C722 1.268 . S
O742 Ho720 2.378 . S
O742 C723 1.215 . S
O743 Ho720 2.524 . S
O743 C723 1.289 . S
O744 Ho720 2.381 . S
O744 C730 1.275 . S
O745 Ho720 2.669 . S
O745 Ho721 2.305 . S
O745 C730 1.256 . S
O746 Ho721 2.322 . S
O746 C731 1.259 . S
O747 Ho720 2.346 . S
O747 C731 1.268 . S
O748 Ho721 2.378 . S
O748 C732 1.215 . S
O749 Ho721 2.524 . S
O749 C732 1.289 . S
O750 Ho721 2.381 . S
O750 C739 1.275 . S
O751 Ho720 2.305 . S
O751 Ho721 2.669 . S
O751 C739 1.256 . S
H752 C725 0.930 . S
H753 C726 0.931 . S
H754 C728 0.934 . S
H755 C729 0.930 . S
H756 C734 0.930 . S
H757 C735 0.931 . S
H758 C737 0.934 . S
H759 C738 0.930 . S
Ho760 C763 2.811 . S
Ho760 O780 2.322 . S
Ho760 O782 2.378 . S
Ho760 O783 2.524 . S
Ho760 O784 2.381 . S
Ho760 O785 2.669 . S
Ho760 O787 2.346 . S
Ho760 O791 2.305 . S
Ho761 C772 2.811 . S
Ho761 O781 2.346 . S
Ho761 O785 2.305 . S
Ho761 O786 2.322 . S
Ho761 O788 2.378 . S
Ho761 O789 2.524 . S
Ho761 O790 2.381 . S
Ho761 O791 2.669 . S
C762 O780 1.259 . S
C762 O781 1.268 . S
C763 Ho760 2.811 . S
C763 C764 1.488 . S
C763 O782 1.215 . S
C763 O783 1.289 . S
C764 C763 1.488 . S
C764 C765 1.348 . S
C764 C769 1.413 . S
C765 C764 1.348 . S
C765 C766 1.442 1_655 S
C765 H792 0.930 . S
C766 C765 1.442 1_455 S
C766 C767 1.381 . S
C766 H793 0.931 . S
C767 C766 1.381 . S
C767 C768 1.321 . S
C768 C767 1.321 . S
C768 C769 1.403 1_455 S
C768 H794 0.934 . S
C769 C764 1.413 . S
C769 C768 1.403 1_655 S
C769 H795 0.930 . S
C770 O784 1.275 . S
C770 O785 1.256 . S
C771 O786 1.259 . S
C771 O787 1.268 . S
C772 Ho761 2.811 . S
C772 C773 1.488 . S
C772 O788 1.215 . S
C772 O789 1.289 . S
C773 C772 1.488 . S
C773 C774 1.348 . S
C773 C778 1.413 . S
C774 C773 1.348 . S
C774 C775 1.442 . S
C774 H796 0.930 . S
C775 C774 1.442 . S
C775 C776 1.381 . S
C775 H797 0.931 . S
C776 C775 1.381 . S
C776 C777 1.321 . S
C777 C776 1.321 . S
C777 C778 1.403 . S
C777 H798 0.934 . S
C778 C773 1.413 . S
C778 C777 1.403 . S
C778 H799 0.930 . S
C779 O790 1.275 . S
C779 O791 1.256 . S
O780 Ho760 2.322 . S
O780 C762 1.259 . S
O781 Ho761 2.346 . S
O781 C762 1.268 . S
O782 Ho760 2.378 . S
O782 C763 1.215 . S
O783 Ho760 2.524 . S
O783 C763 1.289 . S
O784 Ho760 2.381 . S
O784 C770 1.275 . S
O785 Ho760 2.669 . S
O785 Ho761 2.305 . S
O785 C770 1.256 . S
O786 Ho761 2.322 . S
O786 C771 1.259 . S
O787 Ho760 2.346 . S
O787 C771 1.268 . S
O788 Ho761 2.378 . S
O788 C772 1.215 . S
O789 Ho761 2.524 . S
O789 C772 1.289 . S
O790 Ho761 2.381 . S
O790 C779 1.275 . S
O791 Ho760 2.305 . S
O791 Ho761 2.669 . S
O791 C779 1.256 . S
H792 C765 0.930 . S
H793 C766 0.931 . S
H794 C768 0.934 . S
H795 C769 0.930 . S
H796 C774 0.930 . S
H797 C775 0.931 . S
H798 C777 0.934 . S
H799 C778 0.930 . S
Ho800 C803 2.811 . S
Ho800 O820 2.322 . S
Ho800 O822 2.378 . S
Ho800 O823 2.524 . S
Ho800 O824 2.381 . S
Ho800 O825 2.669 . S
Ho800 O827 2.346 . S
Ho800 O831 2.305 . S
Ho801 C812 2.811 . S
Ho801 O821 2.346 . S
Ho801 O825 2.305 . S
Ho801 O826 2.322 . S
Ho801 O828 2.378 . S
Ho801 O829 2.524 . S
Ho801 O830 2.381 . S
Ho801 O831 2.669 . S
C802 O820 1.259 . S
C802 O821 1.268 . S
C803 Ho800 2.811 . S
C803 C804 1.488 . S
C803 O822 1.215 . S
C803 O823 1.289 . S
C804 C803 1.488 . S
C804 C805 1.348 . S
C804 C809 1.413 . S
C805 C804 1.348 . S
C805 C806 1.442 . S
C805 H832 0.930 . S
C806 C805 1.442 . S
C806 C807 1.381 . S
C806 H833 0.931 . S
C807 C806 1.381 . S
C807 C808 1.321 . S
C808 C807 1.321 . S
C808 C809 1.403 . S
C808 H834 0.934 . S
C809 C804 1.413 . S
C809 C808 1.403 . S
C809 H835 0.930 . S
C810 O824 1.275 . S
C810 O825 1.256 . S
C811 O826 1.259 . S
C811 O827 1.268 . S
C812 Ho801 2.811 . S
C812 C813 1.488 . S
C812 O828 1.215 . S
C812 O829 1.289 . S
C813 C812 1.488 . S
C813 C814 1.348 . S
C813 C818 1.413 . S
C814 C813 1.348 . S
C814 C815 1.442 . S
C814 H836 0.930 . S
C815 C814 1.442 . S
C815 C816 1.381 . S
C815 H837 0.931 . S
C816 C815 1.381 . S
C816 C817 1.321 . S
C817 C816 1.321 . S
C817 C818 1.403 . S
C817 H838 0.934 . S
C818 C813 1.413 . S
C818 C817 1.403 . S
C818 H839 0.930 . S
C819 O830 1.275 . S
C819 O831 1.256 . S
O820 Ho800 2.322 . S
O820 C802 1.259 . S
O821 Ho801 2.346 . S
O821 C802 1.268 . S
O822 Ho800 2.378 . S
O822 C803 1.215 . S
O823 Ho800 2.524 . S
O823 C803 1.289 . S
O824 Ho800 2.381 . S
O824 C810 1.275 . S
O825 Ho800 2.669 . S
O825 Ho801 2.305 . S
O825 C810 1.256 . S
O826 Ho801 2.322 . S
O826 C811 1.259 . S
O827 Ho800 2.346 . S
O827 C811 1.268 . S
O828 Ho801 2.378 . S
O828 C812 1.215 . S
O829 Ho801 2.524 . S
O829 C812 1.289 . S
O830 Ho801 2.381 . S
O830 C819 1.275 . S
O831 Ho800 2.305 . S
O831 Ho801 2.669 . S
O831 C819 1.256 . S
H832 C805 0.930 . S
H833 C806 0.931 . S
H834 C808 0.934 . S
H835 C809 0.930 . S
H836 C814 0.930 . S
H837 C815 0.931 . S
H838 C817 0.934 . S
H839 C818 0.930 . S
Ho840 C843 2.811 . S
Ho840 O860 2.322 . S
Ho840 O862 2.378 . S
Ho840 O863 2.524 . S
Ho840 O864 2.381 . S
Ho840 O865 2.669 . S
Ho840 O867 2.346 . S
Ho840 O871 2.305 . S
Ho841 C852 2.811 . S
Ho841 O861 2.346 . S
Ho841 O865 2.305 . S
Ho841 O866 2.322 . S
Ho841 O868 2.378 . S
Ho841 O869 2.524 . S
Ho841 O870 2.381 . S
Ho841 O871 2.669 . S
C842 O860 1.259 . S
C842 O861 1.268 . S
C843 Ho840 2.811 . S
C843 C844 1.488 . S
C843 O862 1.215 . S
C843 O863 1.289 . S
C844 C843 1.488 . S
C844 C845 1.348 . S
C844 C849 1.413 . S
C845 C844 1.348 . S
C845 C846 1.442 . S
C845 H872 0.930 . S
C846 C845 1.442 . S
C846 C847 1.381 . S
C846 H873 0.931 . S
C847 C846 1.381 . S
C847 C848 1.321 . S
C848 C847 1.321 . S
C848 C849 1.403 . S
C848 H874 0.934 . S
C849 C844 1.413 . S
C849 C848 1.403 . S
C849 H875 0.930 . S
C850 O864 1.275 . S
C850 O865 1.256 . S
C851 O866 1.259 . S
C851 O867 1.268 . S
C852 Ho841 2.811 . S
C852 C853 1.488 . S
C852 O868 1.215 . S
C852 O869 1.289 . S
C853 C852 1.488 . S
C853 C854 1.348 . S
C853 C858 1.413 . S
C854 C853 1.348 . S
C854 C855 1.442 1_455 S
C854 H876 0.930 . S
C855 C854 1.442 1_655 S
C855 C856 1.381 . S
C855 H877 0.931 . S
C856 C855 1.381 . S
C856 C857 1.321 . S
C857 C856 1.321 . S
C857 C858 1.403 1_655 S
C857 H878 0.934 . S
C858 C853 1.413 . S
C858 C857 1.403 1_455 S
C858 H879 0.930 . S
C859 O870 1.275 . S
C859 O871 1.256 . S
O860 Ho840 2.322 . S
O860 C842 1.259 . S
O861 Ho841 2.346 . S
O861 C842 1.268 . S
O862 Ho840 2.378 . S
O862 C843 1.215 . S
O863 Ho840 2.524 . S
O863 C843 1.289 . S
O864 Ho840 2.381 . S
O864 C850 1.275 . S
O865 Ho840 2.669 . S
O865 Ho841 2.305 . S
O865 C850 1.256 . S
O866 Ho841 2.322 . S
O866 C851 1.259 . S
O867 Ho840 2.346 . S
O867 C851 1.268 . S
O868 Ho841 2.378 . S
O868 C852 1.215 . S
O869 Ho841 2.524 . S
O869 C852 1.289 . S
O870 Ho841 2.381 . S
O870 C859 1.275 . S
O871 Ho840 2.305 . S
O871 Ho841 2.669 . S
O871 C859 1.256 . S
H872 C845 0.930 . S
H873 C846 0.931 . S
H874 C848 0.934 . S
H875 C849 0.930 . S
H876 C854 0.930 . S
H877 C855 0.931 . S
H878 C857 0.934 . S
H879 C858 0.930 . S
Ho880 C883 2.811 . S
Ho880 O900 2.322 . S
Ho880 O902 2.378 . S
Ho880 O903 2.524 . S
Ho880 O904 2.381 . S
Ho880 O905 2.669 . S
Ho880 O907 2.346 . S
Ho880 O911 2.305 . S
Ho881 C892 2.811 . S
Ho881 O901 2.346 . S
Ho881 O905 2.305 . S
Ho881 O906 2.322 . S
Ho881 O908 2.378 . S
Ho881 O909 2.524 . S
Ho881 O910 2.381 . S
Ho881 O911 2.669 . S
C882 O900 1.259 . S
C882 O901 1.268 . S
C883 Ho880 2.811 . S
C883 C884 1.488 . S
C883 O902 1.215 . S
C883 O903 1.289 . S
C884 C883 1.488 . S
C884 C885 1.348 . S
C884 C889 1.413 . S
C885 C884 1.348 . S
C885 C886 1.442 . S
C885 H912 0.930 . S
C886 C885 1.442 . S
C886 C887 1.381 . S
C886 H913 0.931 . S
C887 C886 1.381 . S
C887 C888 1.321 . S
C888 C887 1.321 . S
C888 C889 1.403 . S
C888 H914 0.934 . S
C889 C884 1.413 . S
C889 C888 1.403 . S
C889 H915 0.930 . S
C890 O904 1.275 . S
C890 O905 1.256 . S
C891 O906 1.259 . S
C891 O907 1.268 . S
C892 Ho881 2.811 . S
C892 C893 1.488 . S
C892 O908 1.215 . S
C892 O909 1.289 . S
C893 C892 1.488 . S
C893 C894 1.348 . S
C893 C898 1.413 . S
C894 C893 1.348 . S
C894 C895 1.442 . S
C894 H916 0.930 . S
C895 C894 1.442 . S
C895 C896 1.381 . S
C895 H917 0.931 . S
C896 C895 1.381 . S
C896 C897 1.321 . S
C897 C896 1.321 . S
C897 C898 1.403 . S
C897 H918 0.934 . S
C898 C893 1.413 . S
C898 C897 1.403 . S
C898 H919 0.930 . S
C899 O910 1.275 . S
C899 O911 1.256 . S
O900 Ho880 2.322 . S
O900 C882 1.259 . S
O901 Ho881 2.346 . S
O901 C882 1.268 . S
O902 Ho880 2.378 . S
O902 C883 1.215 . S
O903 Ho880 2.524 . S
O903 C883 1.289 . S
O904 Ho880 2.381 . S
O904 C890 1.275 . S
O905 Ho880 2.669 . S
O905 Ho881 2.305 . S
O905 C890 1.256 . S
O906 Ho881 2.322 . S
O906 C891 1.259 . S
O907 Ho880 2.346 . S
O907 C891 1.268 . S
O908 Ho881 2.378 . S
O908 C892 1.215 . S
O909 Ho881 2.524 . S
O909 C892 1.289 . S
O910 Ho881 2.381 . S
O910 C899 1.275 . S
O911 Ho880 2.305 . S
O911 Ho881 2.669 . S
O911 C899 1.256 . S
H912 C885 0.930 . S
H913 C886 0.931 . S
H914 C888 0.934 . S
H915 C889 0.930 . S
H916 C894 0.930 . S
H917 C895 0.931 . S
H918 C897 0.934 . S
H919 C898 0.930 . S
Ho920 C923 2.811 . S
Ho920 O940 2.322 . S
Ho920 O942 2.378 . S
Ho920 O943 2.524 . S
Ho920 O944 2.381 . S
Ho920 O945 2.669 . S
Ho920 O947 2.346 . S
Ho920 O951 2.305 . S
Ho921 C932 2.811 . S
Ho921 O941 2.346 . S
Ho921 O945 2.305 . S
Ho921 O946 2.322 . S
Ho921 O948 2.378 . S
Ho921 O949 2.524 . S
Ho921 O950 2.381 . S
Ho921 O951 2.669 . S
C922 O940 1.259 . S
C922 O941 1.268 . S
C923 Ho920 2.811 . S
C923 C924 1.488 . S
C923 O942 1.215 . S
C923 O943 1.289 . S
C924 C923 1.488 . S
C924 C925 1.348 . S
C924 C929 1.413 . S
C925 C924 1.348 . S
C925 C926 1.442 . S
C925 H952 0.930 . S
C926 C925 1.442 . S
C926 C927 1.381 . S
C926 H953 0.931 . S
C927 C926 1.381 . S
C927 C928 1.321 . S
C928 C927 1.321 . S
C928 C929 1.403 . S
C928 H954 0.934 . S
C929 C924 1.413 . S
C929 C928 1.403 . S
C929 H955 0.930 . S
C930 O944 1.275 . S
C930 O945 1.256 . S
C931 O946 1.259 . S
C931 O947 1.268 . S
C932 Ho921 2.811 . S
C932 C933 1.488 . S
C932 O948 1.215 . S
C932 O949 1.289 . S
C933 C932 1.488 . S
C933 C934 1.348 . S
C933 C938 1.413 . S
C934 C933 1.348 . S
C934 C935 1.442 1_455 S
C934 H956 0.930 . S
C935 C934 1.442 1_655 S
C935 C936 1.381 . S
C935 H957 0.931 . S
C936 C935 1.381 . S
C936 C937 1.321 . S
C937 C936 1.321 . S
C937 C938 1.403 1_655 S
C937 H958 0.934 . S
C938 C933 1.413 . S
C938 C937 1.403 1_455 S
C938 H959 0.930 . S
C939 O950 1.275 . S
C939 O951 1.256 . S
O940 Ho920 2.322 . S
O940 C922 1.259 . S
O941 Ho921 2.346 . S
O941 C922 1.268 . S
O942 Ho920 2.378 . S
O942 C923 1.215 . S
O943 Ho920 2.524 . S
O943 C923 1.289 . S
O944 Ho920 2.381 . S
O944 C930 1.275 . S
O945 Ho920 2.669 . S
O945 Ho921 2.305 . S
O945 C930 1.256 . S
O946 Ho921 2.322 . S
O946 C931 1.259 . S
O947 Ho920 2.346 . S
O947 C931 1.268 . S
O948 Ho921 2.378 . S
O948 C932 1.215 . S
O949 Ho921 2.524 . S
O949 C932 1.289 . S
O950 Ho921 2.381 . S
O950 C939 1.275 . S
O951 Ho920 2.305 . S
O951 Ho921 2.669 . S
O951 C939 1.256 . S
H952 C925 0.930 . S
H953 C926 0.931 . S
H954 C928 0.934 . S
H955 C929 0.930 . S
H956 C934 0.930 . S
H957 C935 0.931 . S
H958 C937 0.934 . S
H959 C938 0.930 . S
Ho960 C963 2.810 . S
Ho960 O980 2.322 1_545 S
Ho960 O982 2.378 . S
Ho960 O983 2.524 1_545 S
Ho960 O984 2.381 . S
Ho960 O985 2.669 1_545 S
Ho960 O987 2.346 . S
Ho960 O991 2.305 1_545 S
Ho961 C972 2.811 . S
Ho961 O981 2.346 . S
Ho961 O985 2.305 . S
Ho961 O986 2.322 1_565 S
Ho961 O988 2.378 . S
Ho961 O989 2.524 . S
Ho961 O990 2.381 . S
Ho961 O991 2.669 . S
C962 O980 1.259 . S
C962 O981 1.268 . S
C963 Ho960 2.810 . S
C963 C964 1.489 1_545 S
C963 O982 1.214 . S
C963 O983 1.290 1_545 S
C964 C963 1.489 1_565 S
C964 C965 1.348 . S
C964 C969 1.413 . S
C965 C964 1.348 . S
C965 C966 1.442 . S
C965 H992 0.930 . S
C966 C965 1.442 . S
C966 C967 1.381 . S
C966 H993 0.931 . S
C967 C966 1.381 . S
C967 C968 1.321 . S
C968 C967 1.321 . S
C968 C969 1.403 . S
C968 H994 0.934 . S
C969 C964 1.413 . S
C969 C968 1.403 . S
C969 H995 0.929 . S
C970 O984 1.275 1_565 S
C970 O985 1.256 . S
C971 O986 1.259 . S
C971 O987 1.268 . S
C972 Ho961 2.811 . S
C972 C973 1.488 . S
C972 O988 1.215 . S
C972 O989 1.289 . S
C973 C972 1.488 . S
C973 C974 1.348 1_565 S
C973 C978 1.413 . S
C974 C973 1.348 1_545 S
C974 C975 1.442 . S
C974 H996 0.930 . S
C975 C974 1.442 . S
C975 C976 1.381 . S
C975 H997 0.931 . S
C976 C975 1.381 . S
C976 C977 1.321 1_545 S
C977 C976 1.321 1_565 S
C977 C978 1.403 . S
C977 H998 0.934 . S
C978 C973 1.413 . S
C978 C977 1.403 . S
C978 H999 0.930 . S
C979 O990 1.275 . S
C979 O991 1.256 . S
O980 Ho960 2.322 1_565 S
O980 C962 1.259 . S
O981 Ho961 2.346 . S
O981 C962 1.268 . S
O982 Ho960 2.378 . S
O982 C963 1.214 . S
O983 Ho960 2.524 1_565 S
O983 C963 1.290 1_565 S
O984 Ho960 2.381 . S
O984 C970 1.275 1_545 S
O985 Ho960 2.669 1_565 S
O985 Ho961 2.305 . S
O985 C970 1.256 . S
O986 Ho961 2.322 1_545 S
O986 C971 1.259 . S
O987 Ho960 2.346 . S
O987 C971 1.268 . S
O988 Ho961 2.378 . S
O988 C972 1.215 . S
O989 Ho961 2.524 . S
O989 C972 1.289 . S
O990 Ho961 2.381 . S
O990 C979 1.275 . S
O991 Ho960 2.305 1_565 S
O991 Ho961 2.669 . S
O991 C979 1.256 . S
H992 C965 0.930 . S
H993 C966 0.931 . S
H994 C968 0.934 . S
H995 C969 0.929 . S
H996 C974 0.930 . S
H997 C975 0.931 . S
H998 C977 0.934 . S
H999 C978 0.930 . S
Ho1000 C1003 2.811 . S
Ho1000 O1020 2.322 . S
Ho1000 O1022 2.378 . S
Ho1000 O1023 2.524 . S
Ho1000 O1024 2.381 . S
Ho1000 O1025 2.669 . S
Ho1000 O1027 2.346 . S
Ho1000 O1031 2.305 . S
Ho1001 C1012 2.811 . S
Ho1001 O1021 2.346 . S
Ho1001 O1025 2.305 . S
Ho1001 O1026 2.322 . S
Ho1001 O1028 2.378 . S
Ho1001 O1029 2.524 . S
Ho1001 O1030 2.381 . S
Ho1001 O1031 2.669 . S
C1002 O1020 1.259 . S
C1002 O1021 1.268 . S
C1003 Ho1000 2.811 . S
C1003 C1004 1.488 . S
C1003 O1022 1.215 . S
C1003 O1023 1.289 . S
C1004 C1003 1.488 . S
C1004 C1005 1.348 . S
C1004 C1009 1.413 . S
C1005 C1004 1.348 . S
C1005 C1006 1.442 1_655 S
C1005 H1032 0.930 . S
C1006 C1005 1.442 1_455 S
C1006 C1007 1.381 . S
C1006 H1033 0.931 . S
C1007 C1006 1.381 . S
C1007 C1008 1.321 . S
C1008 C1007 1.321 . S
C1008 C1009 1.403 1_455 S
C1008 H1034 0.934 . S
C1009 C1004 1.413 . S
C1009 C1008 1.403 1_655 S
C1009 H1035 0.930 . S
C1010 O1024 1.275 . S
C1010 O1025 1.256 . S
C1011 O1026 1.259 . S
C1011 O1027 1.268 . S
C1012 Ho1001 2.811 . S
C1012 C1013 1.488 . S
C1012 O1028 1.215 . S
C1012 O1029 1.289 . S
C1013 C1012 1.488 . S
C1013 C1014 1.348 . S
C1013 C1018 1.413 . S
C1014 C1013 1.348 . S
C1014 C1015 1.442 . S
C1014 H1036 0.930 . S
C1015 C1014 1.442 . S
C1015 C1016 1.381 . S
C1015 H1037 0.931 . S
C1016 C1015 1.381 . S
C1016 C1017 1.321 . S
C1017 C1016 1.321 . S
C1017 C1018 1.403 . S
C1017 H1038 0.934 . S
C1018 C1013 1.413 . S
C1018 C1017 1.403 . S
C1018 H1039 0.930 . S
C1019 O1030 1.275 . S
C1019 O1031 1.256 . S
O1020 Ho1000 2.322 . S
O1020 C1002 1.259 . S
O1021 Ho1001 2.346 . S
O1021 C1002 1.268 . S
O1022 Ho1000 2.378 . S
O1022 C1003 1.215 . S
O1023 Ho1000 2.524 . S
O1023 C1003 1.289 . S
O1024 Ho1000 2.381 . S
O1024 C1010 1.275 . S
O1025 Ho1000 2.669 . S
O1025 Ho1001 2.305 . S
O1025 C1010 1.256 . S
O1026 Ho1001 2.322 . S
O1026 C1011 1.259 . S
O1027 Ho1000 2.346 . S
O1027 C1011 1.268 . S
O1028 Ho1001 2.378 . S
O1028 C1012 1.215 . S
O1029 Ho1001 2.524 . S
O1029 C1012 1.289 . S
O1030 Ho1001 2.381 . S
O1030 C1019 1.275 . S
O1031 Ho1000 2.305 . S
O1031 Ho1001 2.669 . S
O1031 C1019 1.256 . S
H1032 C1005 0.930 . S
H1033 C1006 0.931 . S
H1034 C1008 0.934 . S
H1035 C1009 0.930 . S
H1036 C1014 0.930 . S
H1037 C1015 0.931 . S
H1038 C1017 0.934 . S
H1039 C1018 0.930 . S
Ho1040 C1043 2.811 . S
Ho1040 O1060 2.322 . S
Ho1040 O1062 2.378 . S
Ho1040 O1063 2.524 . S
Ho1040 O1064 2.381 . S
Ho1040 O1065 2.669 . S
Ho1040 O1067 2.346 . S
Ho1040 O1071 2.305 . S
Ho1041 C1052 2.811 . S
Ho1041 O1061 2.346 . S
Ho1041 O1065 2.305 . S
Ho1041 O1066 2.322 . S
Ho1041 O1068 2.378 . S
Ho1041 O1069 2.524 . S
Ho1041 O1070 2.381 . S
Ho1041 O1071 2.669 . S
C1042 O1060 1.259 . S
C1042 O1061 1.268 . S
C1043 Ho1040 2.811 . S
C1043 C1044 1.488 . S
C1043 O1062 1.215 . S
C1043 O1063 1.289 . S
C1044 C1043 1.488 . S
C1044 C1045 1.348 . S
C1044 C1049 1.413 . S
C1045 C1044 1.348 . S
C1045 C1046 1.442 . S
C1045 H1072 0.930 . S
C1046 C1045 1.442 . S
C1046 C1047 1.381 . S
C1046 H1073 0.931 . S
C1047 C1046 1.381 . S
C1047 C1048 1.321 . S
C1048 C1047 1.321 . S
C1048 C1049 1.403 . S
C1048 H1074 0.934 . S
C1049 C1044 1.413 . S
C1049 C1048 1.403 . S
C1049 H1075 0.930 . S
C1050 O1064 1.275 . S
C1050 O1065 1.256 . S
C1051 O1066 1.259 . S
C1051 O1067 1.268 . S
C1052 Ho1041 2.811 . S
C1052 C1053 1.488 . S
C1052 O1068 1.215 . S
C1052 O1069 1.289 . S
C1053 C1052 1.488 . S
C1053 C1054 1.348 . S
C1053 C1058 1.413 . S
C1054 C1053 1.348 . S
C1054 C1055 1.442 . S
C1054 H1076 0.930 . S
C1055 C1054 1.442 . S
C1055 C1056 1.381 . S
C1055 H1077 0.931 . S
C1056 C1055 1.381 . S
C1056 C1057 1.321 . S
C1057 C1056 1.321 . S
C1057 C1058 1.403 . S
C1057 H1078 0.934 . S
C1058 C1053 1.413 . S
C1058 C1057 1.403 . S
C1058 H1079 0.930 . S
C1059 O1070 1.275 . S
C1059 O1071 1.256 . S
O1060 Ho1040 2.322 . S
O1060 C1042 1.259 . S
O1061 Ho1041 2.346 . S
O1061 C1042 1.268 . S
O1062 Ho1040 2.378 . S
O1062 C1043 1.215 . S
O1063 Ho1040 2.524 . S
O1063 C1043 1.289 . S
O1064 Ho1040 2.381 . S
O1064 C1050 1.275 . S
O1065 Ho1040 2.669 . S
O1065 Ho1041 2.305 . S
O1065 C1050 1.256 . S
O1066 Ho1041 2.322 . S
O1066 C1051 1.259 . S
O1067 Ho1040 2.346 . S
O1067 C1051 1.268 . S
O1068 Ho1041 2.378 . S
O1068 C1052 1.215 . S
O1069 Ho1041 2.524 . S
O1069 C1052 1.289 . S
O1070 Ho1041 2.381 . S
O1070 C1059 1.275 . S
O1071 Ho1040 2.305 . S
O1071 Ho1041 2.669 . S
O1071 C1059 1.256 . S
H1072 C1045 0.930 . S
H1073 C1046 0.931 . S
H1074 C1048 0.934 . S
H1075 C1049 0.930 . S
H1076 C1054 0.930 . S
H1077 C1055 0.931 . S
H1078 C1057 0.934 . S
H1079 C1058 0.930 . S
Ho1080 C1083 2.810 . S
Ho1080 O1100 2.322 1_545 S
Ho1080 O1102 2.378 . S
Ho1080 O1103 2.524 1_545 S
Ho1080 O1104 2.381 . S
Ho1080 O1105 2.669 1_545 S
Ho1080 O1107 2.346 . S
Ho1080 O1111 2.305 1_545 S
Ho1081 C1092 2.811 . S
Ho1081 O1101 2.346 . S
Ho1081 O1105 2.305 . S
Ho1081 O1106 2.322 1_565 S
Ho1081 O1108 2.378 . S
Ho1081 O1109 2.524 . S
Ho1081 O1110 2.381 . S
Ho1081 O1111 2.669 . S
C1082 O1100 1.259 . S
C1082 O1101 1.268 . S
C1083 Ho1080 2.810 . S
C1083 C1084 1.489 1_545 S
C1083 O1102 1.214 . S
C1083 O1103 1.290 1_545 S
C1084 C1083 1.489 1_565 S
C1084 C1085 1.348 . S
C1084 C1089 1.413 . S
C1085 C1084 1.348 . S
C1085 C1086 1.442 1_655 S
C1085 H1112 0.930 . S
C1086 C1085 1.442 1_455 S
C1086 C1087 1.381 . S
C1086 H1113 0.931 . S
C1087 C1086 1.381 . S
C1087 C1088 1.321 . S
C1088 C1087 1.321 . S
C1088 C1089 1.403 1_455 S
C1088 H1114 0.934 . S
C1089 C1084 1.413 . S
C1089 C1088 1.403 1_655 S
C1089 H1115 0.929 . S
C1090 O1104 1.275 1_565 S
C1090 O1105 1.256 . S
C1091 O1106 1.259 . S
C1091 O1107 1.268 . S
C1092 Ho1081 2.811 . S
C1092 C1093 1.488 . S
C1092 O1108 1.215 . S
C1092 O1109 1.289 . S
C1093 C1092 1.488 . S
C1093 C1094 1.348 1_565 S
C1093 C1098 1.413 . S
C1094 C1093 1.348 1_545 S
C1094 C1095 1.442 . S
C1094 H1116 0.930 . S
C1095 C1094 1.442 . S
C1095 C1096 1.381 . S
C1095 H1117 0.931 . S
C1096 C1095 1.381 . S
C1096 C1097 1.321 1_545 S
C1097 C1096 1.321 1_565 S
C1097 C1098 1.403 . S
C1097 H1118 0.934 . S
C1098 C1093 1.413 . S
C1098 C1097 1.403 . S
C1098 H1119 0.930 . S
C1099 O1110 1.275 . S
C1099 O1111 1.256 . S
O1100 Ho1080 2.322 1_565 S
O1100 C1082 1.259 . S
O1101 Ho1081 2.346 . S
O1101 C1082 1.268 . S
O1102 Ho1080 2.378 . S
O1102 C1083 1.214 . S
O1103 Ho1080 2.524 1_565 S
O1103 C1083 1.290 1_565 S
O1104 Ho1080 2.381 . S
O1104 C1090 1.275 1_545 S
O1105 Ho1080 2.669 1_565 S
O1105 Ho1081 2.305 . S
O1105 C1090 1.256 . S
O1106 Ho1081 2.322 1_545 S
O1106 C1091 1.259 . S
O1107 Ho1080 2.346 . S
O1107 C1091 1.268 . S
O1108 Ho1081 2.378 . S
O1108 C1092 1.215 . S
O1109 Ho1081 2.524 . S
O1109 C1092 1.289 . S
O1110 Ho1081 2.381 . S
O1110 C1099 1.275 . S
O1111 Ho1080 2.305 1_565 S
O1111 Ho1081 2.669 . S
O1111 C1099 1.256 . S
H1112 C1085 0.930 . S
H1113 C1086 0.931 . S
H1114 C1088 0.934 . S
H1115 C1089 0.929 . S
H1116 C1094 0.930 . S
H1117 C1095 0.931 . S
H1118 C1097 0.934 . S
H1119 C1098 0.930 . S
Ho1120 C1123 2.811 . S
Ho1120 O1140 2.322 1_545 S
Ho1120 O1142 2.378 . S
Ho1120 O1143 2.524 . S
Ho1120 O1144 2.381 . S
Ho1120 O1145 2.669 . S
Ho1120 O1147 2.346 . S
Ho1120 O1151 2.305 . S
Ho1121 C1132 2.810 . S
Ho1121 O1141 2.346 . S
Ho1121 O1145 2.305 1_565 S
Ho1121 O1146 2.322 1_565 S
Ho1121 O1148 2.378 . S
Ho1121 O1149 2.524 1_565 S
Ho1121 O1150 2.381 . S
Ho1121 O1151 2.669 1_565 S
C1122 O1140 1.259 . S
C1122 O1141 1.268 . S
C1123 Ho1120 2.811 . S
C1123 C1124 1.488 . S
C1123 O1142 1.215 . S
C1123 O1143 1.289 . S
C1124 C1123 1.488 . S
C1124 C1125 1.348 1_545 S
C1124 C1129 1.413 . S
C1125 C1124 1.348 1_565 S
C1125 C1126 1.442 . S
C1125 H1152 0.930 . S
C1126 C1125 1.442 . S
C1126 C1127 1.381 . S
C1126 H1153 0.931 . S
C1127 C1126 1.381 . S
C1127 C1128 1.321 1_565 S
C1128 C1127 1.321 1_545 S
C1128 C1129 1.403 . S
C1128 H1154 0.934 . S
C1129 C1124 1.413 . S
C1129 C1128 1.403 . S
C1129 H1155 0.930 . S
C1130 O1144 1.275 . S
C1130 O1145 1.256 . S
C1131 O1146 1.259 . S
C1131 O1147 1.268 . S
C1132 Ho1121 2.810 . S
C1132 C1133 1.489 1_565 S
C1132 O1148 1.214 . S
C1132 O1149 1.290 1_565 S
C1133 C1132 1.489 1_545 S
C1133 C1134 1.348 . S
C1133 C1138 1.413 . S
C1134 C1133 1.348 . S
C1134 C1135 1.442 . S
C1134 H1156 0.930 . S
C1135 C1134 1.442 . S
C1135 C1136 1.381 . S
C1135 H1157 0.931 . S
C1136 C1135 1.381 . S
C1136 C1137 1.321 . S
C1137 C1136 1.321 . S
C1137 C1138 1.403 . S
C1137 H1158 0.934 . S
C1138 C1133 1.413 . S
C1138 C1137 1.403 . S
C1138 H1159 0.929 . S
C1139 O1150 1.275 1_545 S
C1139 O1151 1.256 . S
O1140 Ho1120 2.322 1_565 S
O1140 C1122 1.259 . S
O1141 Ho1121 2.346 . S
O1141 C1122 1.268 . S
O1142 Ho1120 2.378 . S
O1142 C1123 1.215 . S
O1143 Ho1120 2.524 . S
O1143 C1123 1.289 . S
O1144 Ho1120 2.381 . S
O1144 C1130 1.275 . S
O1145 Ho1120 2.669 . S
O1145 Ho1121 2.305 1_545 S
O1145 C1130 1.256 . S
O1146 Ho1121 2.322 1_545 S
O1146 C1131 1.259 . S
O1147 Ho1120 2.346 . S
O1147 C1131 1.268 . S
O1148 Ho1121 2.378 . S
O1148 C1132 1.214 . S
O1149 Ho1121 2.524 1_545 S
O1149 C1132 1.290 1_545 S
O1150 Ho1121 2.381 . S
O1150 C1139 1.275 1_565 S
O1151 Ho1120 2.305 . S
O1151 Ho1121 2.669 1_545 S
O1151 C1139 1.256 . S
H1152 C1125 0.930 . S
H1153 C1126 0.931 . S
H1154 C1128 0.934 . S
H1155 C1129 0.930 . S
H1156 C1134 0.930 . S
H1157 C1135 0.931 . S
H1158 C1137 0.934 . S
H1159 C1138 0.929 . S
Ho1160 C1163 2.811 . S
Ho1160 O1180 2.322 . S
Ho1160 O1182 2.378 . S
Ho1160 O1183 2.524 . S
Ho1160 O1184 2.381 . S
Ho1160 O1185 2.669 . S
Ho1160 O1187 2.346 . S
Ho1160 O1191 2.305 . S
Ho1161 C1172 2.811 . S
Ho1161 O1181 2.346 . S
Ho1161 O1185 2.305 . S
Ho1161 O1186 2.322 . S
Ho1161 O1188 2.378 . S
Ho1161 O1189 2.524 . S
Ho1161 O1190 2.381 . S
Ho1161 O1191 2.669 . S
C1162 O1180 1.259 . S
C1162 O1181 1.268 . S
C1163 Ho1160 2.811 . S
C1163 C1164 1.488 . S
C1163 O1182 1.215 . S
C1163 O1183 1.289 . S
C1164 C1163 1.488 . S
C1164 C1165 1.348 . S
C1164 C1169 1.413 . S
C1165 C1164 1.348 . S
C1165 C1166 1.442 . S
C1165 H1192 0.930 . S
C1166 C1165 1.442 . S
C1166 C1167 1.381 . S
C1166 H1193 0.931 . S
C1167 C1166 1.381 . S
C1167 C1168 1.321 . S
C1168 C1167 1.321 . S
C1168 C1169 1.403 . S
C1168 H1194 0.934 . S
C1169 C1164 1.413 . S
C1169 C1168 1.403 . S
C1169 H1195 0.930 . S
C1170 O1184 1.275 . S
C1170 O1185 1.256 . S
C1171 O1186 1.259 . S
C1171 O1187 1.268 . S
C1172 Ho1161 2.811 . S
C1172 C1173 1.488 . S
C1172 O1188 1.215 . S
C1172 O1189 1.289 . S
C1173 C1172 1.488 . S
C1173 C1174 1.348 . S
C1173 C1178 1.413 . S
C1174 C1173 1.348 . S
C1174 C1175 1.442 1_455 S
C1174 H1196 0.930 . S
C1175 C1174 1.442 1_655 S
C1175 C1176 1.381 . S
C1175 H1197 0.931 . S
C1176 C1175 1.381 . S
C1176 C1177 1.321 . S
C1177 C1176 1.321 . S
C1177 C1178 1.403 1_655 S
C1177 H1198 0.934 . S
C1178 C1173 1.413 . S
C1178 C1177 1.403 1_455 S
C1178 H1199 0.930 . S
C1179 O1190 1.275 . S
C1179 O1191 1.256 . S
O1180 Ho1160 2.322 . S
O1180 C1162 1.259 . S
O1181 Ho1161 2.346 . S
O1181 C1162 1.268 . S
O1182 Ho1160 2.378 . S
O1182 C1163 1.215 . S
O1183 Ho1160 2.524 . S
O1183 C1163 1.289 . S
O1184 Ho1160 2.381 . S
O1184 C1170 1.275 . S
O1185 Ho1160 2.669 . S
O1185 Ho1161 2.305 . S
O1185 C1170 1.256 . S
O1186 Ho1161 2.322 . S
O1186 C1171 1.259 . S
O1187 Ho1160 2.346 . S
O1187 C1171 1.268 . S
O1188 Ho1161 2.378 . S
O1188 C1172 1.215 . S
O1189 Ho1161 2.524 . S
O1189 C1172 1.289 . S
O1190 Ho1161 2.381 . S
O1190 C1179 1.275 . S
O1191 Ho1160 2.305 . S
O1191 Ho1161 2.669 . S
O1191 C1179 1.256 . S
H1192 C1165 0.930 . S
H1193 C1166 0.931 . S
H1194 C1168 0.934 . S
H1195 C1169 0.930 . S
H1196 C1174 0.930 . S
H1197 C1175 0.931 . S
H1198 C1177 0.934 . S
H1199 C1178 0.930 . S
Ho1200 C1203 2.811 . S
Ho1200 O1220 2.322 . S
Ho1200 O1222 2.378 . S
Ho1200 O1223 2.524 . S
Ho1200 O1224 2.381 . S
Ho1200 O1225 2.669 . S
Ho1200 O1227 2.346 . S
Ho1200 O1231 2.305 . S
Ho1201 C1212 2.811 . S
Ho1201 O1221 2.346 . S
Ho1201 O1225 2.305 . S
Ho1201 O1226 2.322 . S
Ho1201 O1228 2.378 . S
Ho1201 O1229 2.524 . S
Ho1201 O1230 2.381 . S
Ho1201 O1231 2.669 . S
C1202 O1220 1.259 . S
C1202 O1221 1.268 . S
C1203 Ho1200 2.811 . S
C1203 C1204 1.488 . S
C1203 O1222 1.215 . S
C1203 O1223 1.289 . S
C1204 C1203 1.488 . S
C1204 C1205 1.348 . S
C1204 C1209 1.413 . S
C1205 C1204 1.348 . S
C1205 C1206 1.442 . S
C1205 H1232 0.930 . S
C1206 C1205 1.442 . S
C1206 C1207 1.381 . S
C1206 H1233 0.931 . S
C1207 C1206 1.381 . S
C1207 C1208 1.321 . S
C1208 C1207 1.321 . S
C1208 C1209 1.403 . S
C1208 H1234 0.934 . S
C1209 C1204 1.413 . S
C1209 C1208 1.403 . S
C1209 H1235 0.930 . S
C1210 O1224 1.275 . S
C1210 O1225 1.256 . S
C1211 O1226 1.259 . S
C1211 O1227 1.268 . S
C1212 Ho1201 2.811 . S
C1212 C1213 1.488 . S
C1212 O1228 1.215 . S
C1212 O1229 1.289 . S
C1213 C1212 1.488 . S
C1213 C1214 1.348 . S
C1213 C1218 1.413 . S
C1214 C1213 1.348 . S
C1214 C1215 1.442 . S
C1214 H1236 0.930 . S
C1215 C1214 1.442 . S
C1215 C1216 1.381 . S
C1215 H1237 0.931 . S
C1216 C1215 1.381 . S
C1216 C1217 1.321 . S
C1217 C1216 1.321 . S
C1217 C1218 1.403 . S
C1217 H1238 0.934 . S
C1218 C1213 1.413 . S
C1218 C1217 1.403 . S
C1218 H1239 0.930 . S
C1219 O1230 1.275 . S
C1219 O1231 1.256 . S
O1220 Ho1200 2.322 . S
O1220 C1202 1.259 . S
O1221 Ho1201 2.346 . S
O1221 C1202 1.268 . S
O1222 Ho1200 2.378 . S
O1222 C1203 1.215 . S
O1223 Ho1200 2.524 . S
O1223 C1203 1.289 . S
O1224 Ho1200 2.381 . S
O1224 C1210 1.275 . S
O1225 Ho1200 2.669 . S
O1225 Ho1201 2.305 . S
O1225 C1210 1.256 . S
O1226 Ho1201 2.322 . S
O1226 C1211 1.259 . S
O1227 Ho1200 2.346 . S
O1227 C1211 1.268 . S
O1228 Ho1201 2.378 . S
O1228 C1212 1.215 . S
O1229 Ho1201 2.524 . S
O1229 C1212 1.289 . S
O1230 Ho1201 2.381 . S
O1230 C1219 1.275 . S
O1231 Ho1200 2.305 . S
O1231 Ho1201 2.669 . S
O1231 C1219 1.256 . S
H1232 C1205 0.930 . S
H1233 C1206 0.931 . S
H1234 C1208 0.934 . S
H1235 C1209 0.930 . S
H1236 C1214 0.930 . S
H1237 C1215 0.931 . S
H1238 C1217 0.934 . S
H1239 C1218 0.930 . S
Ho1240 C1243 2.811 . S
Ho1240 O1260 2.322 1_545 S
Ho1240 O1262 2.378 . S
Ho1240 O1263 2.524 . S
Ho1240 O1264 2.381 . S
Ho1240 O1265 2.669 . S
Ho1240 O1267 2.346 . S
Ho1240 O1271 2.305 . S
Ho1241 C1252 2.810 . S
Ho1241 O1261 2.346 . S
Ho1241 O1265 2.305 1_565 S
Ho1241 O1266 2.322 1_565 S
Ho1241 O1268 2.378 . S
Ho1241 O1269 2.524 1_565 S
Ho1241 O1270 2.381 . S
Ho1241 O1271 2.669 1_565 S
C1242 O1260 1.259 . S
C1242 O1261 1.268 . S
C1243 Ho1240 2.811 . S
C1243 C1244 1.488 . S
C1243 O1262 1.215 . S
C1243 O1263 1.289 . S
C1244 C1243 1.488 . S
C1244 C1245 1.348 1_545 S
C1244 C1249 1.413 . S
C1245 C1244 1.348 1_565 S
C1245 C1246 1.442 . S
C1245 H1272 0.930 . S
C1246 C1245 1.442 . S
C1246 C1247 1.381 . S
C1246 H1273 0.931 . S
C1247 C1246 1.381 . S
C1247 C1248 1.321 1_565 S
C1248 C1247 1.321 1_545 S
C1248 C1249 1.403 . S
C1248 H1274 0.934 . S
C1249 C1244 1.413 . S
C1249 C1248 1.403 . S
C1249 H1275 0.930 . S
C1250 O1264 1.275 . S
C1250 O1265 1.256 . S
C1251 O1266 1.259 . S
C1251 O1267 1.268 . S
C1252 Ho1241 2.810 . S
C1252 C1253 1.489 1_565 S
C1252 O1268 1.214 . S
C1252 O1269 1.290 1_565 S
C1253 C1252 1.489 1_545 S
C1253 C1254 1.348 . S
C1253 C1258 1.413 . S
C1254 C1253 1.348 . S
C1254 C1255 1.442 1_455 S
C1254 H1276 0.930 . S
C1255 C1254 1.442 1_655 S
C1255 C1256 1.381 . S
C1255 H1277 0.931 . S
C1256 C1255 1.381 . S
C1256 C1257 1.321 . S
C1257 C1256 1.321 . S
C1257 C1258 1.403 1_655 S
C1257 H1278 0.934 . S
C1258 C1253 1.413 . S
C1258 C1257 1.403 1_455 S
C1258 H1279 0.929 . S
C1259 O1270 1.275 1_545 S
C1259 O1271 1.256 . S
O1260 Ho1240 2.322 1_565 S
O1260 C1242 1.259 . S
O1261 Ho1241 2.346 . S
O1261 C1242 1.268 . S
O1262 Ho1240 2.378 . S
O1262 C1243 1.215 . S
O1263 Ho1240 2.524 . S
O1263 C1243 1.289 . S
O1264 Ho1240 2.381 . S
O1264 C1250 1.275 . S
O1265 Ho1240 2.669 . S
O1265 Ho1241 2.305 1_545 S
O1265 C1250 1.256 . S
O1266 Ho1241 2.322 1_545 S
O1266 C1251 1.259 . S
O1267 Ho1240 2.346 . S
O1267 C1251 1.268 . S
O1268 Ho1241 2.378 . S
O1268 C1252 1.214 . S
O1269 Ho1241 2.524 1_545 S
O1269 C1252 1.290 1_545 S
O1270 Ho1241 2.381 . S
O1270 C1259 1.275 1_565 S
O1271 Ho1240 2.305 . S
O1271 Ho1241 2.669 1_545 S
O1271 C1259 1.256 . S
H1272 C1245 0.930 . S
H1273 C1246 0.931 . S
H1274 C1248 0.934 . S
H1275 C1249 0.930 . S
H1276 C1254 0.930 . S
H1277 C1255 0.931 . S
H1278 C1257 0.934 . S
H1279 C1258 0.929 . S
H1280 C1286 0.930 . S
H1281 C1290 0.930 . S
H1282 C1295 0.929 . S
H1283 C1293 0.929 . S
H1284 C1288 0.929 . S
H1285 C1294 0.929 . S
C1286 H1280 0.930 . S
C1286 C1287 1.367 . S
C1286 C1294 1.378 . S
C1287 C1286 1.367 . S
C1287 C1295 1.433 . S
C1288 H1284 0.929 . S
C1288 C1290 1.378 . S
C1288 C1292 1.350 . S
C1289 C1292 1.463 . S
C1289 C1294 1.350 . S
C1289 N1297 1.427 . S
C1290 H1281 0.930 . S
C1290 C1288 1.378 . S
C1290 C1291 1.367 . S
C1291 C1290 1.367 . S
C1291 C1293 1.433 . S
C1292 C1288 1.350 . S
C1292 C1289 1.463 . S
C1292 N1296 1.427 . S
C1293 H1283 0.929 . S
C1293 C1291 1.433 . S
C1293 N1296 1.384 . S
C1294 H1285 0.929 . S
C1294 C1286 1.378 . S
C1294 C1289 1.350 . S
C1295 H1282 0.929 . S
C1295 C1287 1.433 . S
C1295 N1297 1.384 . S
N1296 C1292 1.427 . S
N1296 C1293 1.384 . S
N1297 C1289 1.427 . S
N1297 C1295 1.384 . S
H1298 C1304 0.930 . S
H1299 C1308 0.930 . S
H1300 C1313 0.929 . S
H1301 C1311 0.929 . S
H1302 C1306 0.929 . S
H1303 C1312 0.929 . S
C1304 H1298 0.930 . S
C1304 C1305 1.367 . S
C1304 C1312 1.378 . S
C1305 C1304 1.367 . S
C1305 C1313 1.433 . S
C1306 H1302 0.929 . S
C1306 C1308 1.378 . S
C1306 C1310 1.350 . S
C1307 C1310 1.463 . S
C1307 C1312 1.350 . S
C1307 N1315 1.427 . S
C1308 H1299 0.930 . S
C1308 C1306 1.378 . S
C1308 C1309 1.367 . S
C1309 C1308 1.367 . S
C1309 C1311 1.433 . S
C1310 C1306 1.350 . S
C1310 C1307 1.463 . S
C1310 N1314 1.427 . S
C1311 H1301 0.929 . S
C1311 C1309 1.433 . S
C1311 N1314 1.384 . S
C1312 H1303 0.929 . S
C1312 C1304 1.378 . S
C1312 C1307 1.350 . S
C1313 H1300 0.929 . S
C1313 C1305 1.433 . S
C1313 N1315 1.384 . S
N1314 C1310 1.427 . S
N1314 C1311 1.384 . S
N1315 C1307 1.427 . S
N1315 C1313 1.384 . S
H1316 C1322 0.930 . S
H1317 C1326 0.930 . S
H1318 C1331 0.929 . S
H1319 C1329 0.929 . S
H1320 C1324 0.929 . S
H1321 C1330 0.929 . S
C1322 H1316 0.930 . S
C1322 C1323 1.367 . S
C1322 C1330 1.378 . S
C1323 C1322 1.367 . S
C1323 C1331 1.433 . S
C1324 H1320 0.929 . S
C1324 C1326 1.378 . S
C1324 C1328 1.350 . S
C1325 C1328 1.463 . S
C1325 C1330 1.350 . S
C1325 N1333 1.427 . S
C1326 H1317 0.930 . S
C1326 C1324 1.378 . S
C1326 C1327 1.367 . S
C1327 C1326 1.367 . S
C1327 C1329 1.433 . S
C1328 C1324 1.350 . S
C1328 C1325 1.463 . S
C1328 N1332 1.427 . S
C1329 H1319 0.929 . S
C1329 C1327 1.433 . S
C1329 N1332 1.384 . S
C1330 H1321 0.929 . S
C1330 C1322 1.378 . S
C1330 C1325 1.350 . S
C1331 H1318 0.929 . S
C1331 C1323 1.433 . S
C1331 N1333 1.384 . S
N1332 C1328 1.427 . S
N1332 C1329 1.384 . S
N1333 C1325 1.427 . S
N1333 C1331 1.384 . S
H1334 C1340 0.930 . S
H1335 C1344 0.930 . S
H1336 C1349 0.929 . S
H1337 C1347 0.929 . S
H1338 C1342 0.929 . S
H1339 C1348 0.929 . S
C1340 H1334 0.930 . S
C1340 C1341 1.367 . S
C1340 C1348 1.378 . S
C1341 C1340 1.367 . S
C1341 C1349 1.433 . S
C1342 H1338 0.929 . S
C1342 C1344 1.378 . S
C1342 C1346 1.350 . S
C1343 C1346 1.463 . S
C1343 C1348 1.350 . S
C1343 N1351 1.427 . S
C1344 H1335 0.930 . S
C1344 C1342 1.378 . S
C1344 C1345 1.367 . S
C1345 C1344 1.367 . S
C1345 C1347 1.433 . S
C1346 C1342 1.350 . S
C1346 C1343 1.463 . S
C1346 N1350 1.427 . S
C1347 H1337 0.929 . S
C1347 C1345 1.433 . S
C1347 N1350 1.384 . S
C1348 H1339 0.929 . S
C1348 C1340 1.378 . S
C1348 C1343 1.350 . S
C1349 H1336 0.929 . S
C1349 C1341 1.433 . S
C1349 N1351 1.384 . S
N1350 C1346 1.427 . S
N1350 C1347 1.384 . S
N1351 C1343 1.427 . S
N1351 C1349 1.384 . S
H1352 C1358 0.930 . S
H1353 C1362 0.930 . S
H1354 C1367 0.929 . S
H1355 C1365 0.929 . S
H1356 C1360 0.929 . S
H1357 C1366 0.929 . S
C1358 H1352 0.930 . S
C1358 C1359 1.367 . S
C1358 C1366 1.378 . S
C1359 C1358 1.367 . S
C1359 C1367 1.433 . S
C1360 H1356 0.929 . S
C1360 C1362 1.378 . S
C1360 C1364 1.350 . S
C1361 C1364 1.463 . S
C1361 C1366 1.350 . S
C1361 N1369 1.427 . S
C1362 H1353 0.930 . S
C1362 C1360 1.378 . S
C1362 C1363 1.367 . S
C1363 C1362 1.367 . S
C1363 C1365 1.433 . S
C1364 C1360 1.350 . S
C1364 C1361 1.463 . S
C1364 N1368 1.427 . S
C1365 H1355 0.929 . S
C1365 C1363 1.433 . S
C1365 N1368 1.384 . S
C1366 H1357 0.929 . S
C1366 C1358 1.378 . S
C1366 C1361 1.350 . S
C1367 H1354 0.929 . S
C1367 C1359 1.433 . S
C1367 N1369 1.384 . S
N1368 C1364 1.427 . S
N1368 C1365 1.384 . S
N1369 C1361 1.427 . S
N1369 C1367 1.384 . S
H1370 C1376 0.930 . S
H1371 C1380 0.930 . S
H1372 C1385 0.929 . S
H1373 C1383 0.929 . S
H1374 C1378 0.929 . S
H1375 C1384 0.929 . S
C1376 H1370 0.930 . S
C1376 C1377 1.367 . S
C1376 C1384 1.378 . S
C1377 C1376 1.367 . S
C1377 C1385 1.433 . S
C1378 H1374 0.929 . S
C1378 C1380 1.378 . S
C1378 C1382 1.350 . S
C1379 C1382 1.463 . S
C1379 C1384 1.350 . S
C1379 N1387 1.427 . S
C1380 H1371 0.930 . S
C1380 C1378 1.378 . S
C1380 C1381 1.367 . S
C1381 C1380 1.367 . S
C1381 C1383 1.433 . S
C1382 C1378 1.350 . S
C1382 C1379 1.463 . S
C1382 N1386 1.427 . S
C1383 H1373 0.929 . S
C1383 C1381 1.433 . S
C1383 N1386 1.384 . S
C1384 H1375 0.929 . S
C1384 C1376 1.378 . S
C1384 C1379 1.350 . S
C1385 H1372 0.929 . S
C1385 C1377 1.433 . S
C1385 N1387 1.384 . S
N1386 C1382 1.427 . S
N1386 C1383 1.384 . S
N1387 C1379 1.427 . S
N1387 C1385 1.384 . S
H1388 C1394 0.930 . S
H1389 C1398 0.930 . S
H1390 C1403 0.912 1_655 S
H1391 C1401 0.929 . S
H1392 C1396 0.929 . S
H1393 C1402 0.929 . S
C1394 H1388 0.930 . S
C1394 C1395 1.367 . S
C1394 C1402 1.378 . S
C1395 C1394 1.367 . S
C1395 C1403 1.433 . S
C1396 H1392 0.929 . S
C1396 C1398 1.378 . S
C1396 C1400 1.350 . S
C1397 C1400 1.463 . S
C1397 C1402 1.350 . S
C1397 N1405 1.427 . S
C1398 H1389 0.930 . S
C1398 C1396 1.378 . S
C1398 C1399 1.367 . S
C1399 C1398 1.367 . S
C1399 C1401 1.433 . S
C1400 C1396 1.350 . S
C1400 C1397 1.463 . S
C1400 N1404 1.427 . S
C1401 H1391 0.929 . S
C1401 C1399 1.433 . S
C1401 N1404 1.384 . S
C1402 H1393 0.929 . S
C1402 C1394 1.378 . S
C1402 C1397 1.350 . S
C1403 H1390 0.912 1_455 S
C1403 C1395 1.433 . S
C1403 N1405 1.384 . S
N1404 C1400 1.427 . S
N1404 C1401 1.384 . S
N1405 C1397 1.427 . S
N1405 C1403 1.384 . S
H1406 C1412 0.930 . S
H1407 C1416 0.930 . S
H1408 C1421 0.929 . S
H1409 C1419 0.929 . S
H1410 C1414 0.929 . S
H1411 C1420 0.929 . S
C1412 H1406 0.930 . S
C1412 C1413 1.367 . S
C1412 C1420 1.378 . S
C1413 C1412 1.367 . S
C1413 C1421 1.433 . S
C1414 H1410 0.929 . S
C1414 C1416 1.378 . S
C1414 C1418 1.350 . S
C1415 C1418 1.463 . S
C1415 C1420 1.350 . S
C1415 N1423 1.427 . S
C1416 H1407 0.930 . S
C1416 C1414 1.378 . S
C1416 C1417 1.367 . S
C1417 C1416 1.367 . S
C1417 C1419 1.433 . S
C1418 C1414 1.350 . S
C1418 C1415 1.463 . S
C1418 N1422 1.427 . S
C1419 H1409 0.929 . S
C1419 C1417 1.433 . S
C1419 N1422 1.384 . S
C1420 H1411 0.929 . S
C1420 C1412 1.378 . S
C1420 C1415 1.350 . S
C1421 H1408 0.929 . S
C1421 C1413 1.433 . S
C1421 N1423 1.384 . S
N1422 C1418 1.427 . S
N1422 C1419 1.384 . S
N1423 C1415 1.427 . S
N1423 C1421 1.384 . S
H1424 C1430 0.930 . S
H1425 C1434 0.930 . S
H1426 C1439 0.929 . S
H1427 C1437 0.929 . S
H1428 C1432 0.929 . S
H1429 C1438 0.929 . S
C1430 H1424 0.930 . S
C1430 C1431 1.367 . S
C1430 C1438 1.378 . S
C1431 C1430 1.367 . S
C1431 C1439 1.433 . S
C1432 H1428 0.929 . S
C1432 C1434 1.378 . S
C1432 C1436 1.350 . S
C1433 C1436 1.463 . S
C1433 C1438 1.350 . S
C1433 N1441 1.427 . S
C1434 H1425 0.930 . S
C1434 C1432 1.378 . S
C1434 C1435 1.367 . S
C1435 C1434 1.367 . S
C1435 C1437 1.433 . S
C1436 C1432 1.350 . S
C1436 C1433 1.463 . S
C1436 N1440 1.427 . S
C1437 H1427 0.929 . S
C1437 C1435 1.433 . S
C1437 N1440 1.384 . S
C1438 H1429 0.929 . S
C1438 C1430 1.378 . S
C1438 C1433 1.350 . S
C1439 H1426 0.929 . S
C1439 C1431 1.433 . S
C1439 N1441 1.384 . S
N1440 C1436 1.427 . S
N1440 C1437 1.384 . S
N1441 C1433 1.427 . S
N1441 C1439 1.384 . S
H1442 C1448 0.930 . S
H1443 C1452 0.930 . S
H1444 C1457 0.929 . S
H1445 C1455 0.929 . S
H1446 C1450 0.929 . S
H1447 C1456 0.929 . S
C1448 H1442 0.930 . S
C1448 C1449 1.367 . S
C1448 C1456 1.378 . S
C1449 C1448 1.367 . S
C1449 C1457 1.433 . S
C1450 H1446 0.929 . S
C1450 C1452 1.378 . S
C1450 C1454 1.350 . S
C1451 C1454 1.463 . S
C1451 C1456 1.350 . S
C1451 N1459 1.427 . S
C1452 H1443 0.930 . S
C1452 C1450 1.378 . S
C1452 C1453 1.367 . S
C1453 C1452 1.367 . S
C1453 C1455 1.433 . S
C1454 C1450 1.350 . S
C1454 C1451 1.463 . S
C1454 N1458 1.427 . S
C1455 H1445 0.929 . S
C1455 C1453 1.433 . S
C1455 N1458 1.384 . S
C1456 H1447 0.929 . S
C1456 C1448 1.378 . S
C1456 C1451 1.350 . S
C1457 H1444 0.929 . S
C1457 C1449 1.433 . S
C1457 N1459 1.384 . S
N1458 C1454 1.427 . S
N1458 C1455 1.384 . S
N1459 C1451 1.427 . S
N1459 C1457 1.384 . S
H1460 C1466 0.930 . S
H1461 C1470 0.930 . S
H1462 C1475 0.929 . S
H1463 C1473 0.929 . S
H1464 C1468 0.929 . S
H1465 C1474 0.929 . S
C1466 H1460 0.930 . S
C1466 C1467 1.367 . S
C1466 C1474 1.378 . S
C1467 C1466 1.367 . S
C1467 C1475 1.433 . S
C1468 H1464 0.929 . S
C1468 C1470 1.378 . S
C1468 C1472 1.350 . S
C1469 C1472 1.463 . S
C1469 C1474 1.350 . S
C1469 N1477 1.427 . S
C1470 H1461 0.930 . S
C1470 C1468 1.378 . S
C1470 C1471 1.367 . S
C1471 C1470 1.367 . S
C1471 C1473 1.433 . S
C1472 C1468 1.350 . S
C1472 C1469 1.463 . S
C1472 N1476 1.427 . S
C1473 H1463 0.929 . S
C1473 C1471 1.433 . S
C1473 N1476 1.384 . S
C1474 H1465 0.929 . S
C1474 C1466 1.378 . S
C1474 C1469 1.350 . S
C1475 H1462 0.929 . S
C1475 C1467 1.433 . S
C1475 N1477 1.384 . S
N1476 C1472 1.427 . S
N1476 C1473 1.384 . S
N1477 C1469 1.427 . S
N1477 C1475 1.384 . S
H1478 C1484 0.930 . S
H1479 C1488 0.930 . S
H1480 C1493 0.929 . S
H1481 C1491 0.929 . S
H1482 C1486 0.929 . S
H1483 C1492 0.929 . S
C1484 H1478 0.930 . S
C1484 C1485 1.367 . S
C1484 C1492 1.378 . S
C1485 C1484 1.367 . S
C1485 C1493 1.433 . S
C1486 H1482 0.929 . S
C1486 C1488 1.378 . S
C1486 C1490 1.350 . S
C1487 C1490 1.463 . S
C1487 C1492 1.350 . S
C1487 N1495 1.427 . S
C1488 H1479 0.930 . S
C1488 C1486 1.378 . S
C1488 C1489 1.367 . S
C1489 C1488 1.367 . S
C1489 C1491 1.433 . S
C1490 C1486 1.350 . S
C1490 C1487 1.463 . S
C1490 N1494 1.427 . S
C1491 H1481 0.929 . S
C1491 C1489 1.433 . S
C1491 N1494 1.384 . S
C1492 H1483 0.929 . S
C1492 C1484 1.378 . S
C1492 C1487 1.350 . S
C1493 H1480 0.929 . S
C1493 C1485 1.433 . S
C1493 N1495 1.384 . S
N1494 C1490 1.427 . S
N1494 C1491 1.384 . S
N1495 C1487 1.427 . S
N1495 C1493 1.384 . S
H1496 C1502 0.930 . S
H1497 C1506 0.930 . S
H1498 C1511 0.929 . S
H1499 C1509 0.929 . S
H1500 C1504 0.929 . S
H1501 C1510 0.929 . S
C1502 H1496 0.930 . S
C1502 C1503 1.367 . S
C1502 C1510 1.378 . S
C1503 C1502 1.367 . S
C1503 C1511 1.433 . S
C1504 H1500 0.929 . S
C1504 C1506 1.378 . S
C1504 C1508 1.350 . S
C1505 C1508 1.463 . S
C1505 C1510 1.350 . S
C1505 N1513 1.427 . S
C1506 H1497 0.930 . S
C1506 C1504 1.378 . S
C1506 C1507 1.367 . S
C1507 C1506 1.367 . S
C1507 C1509 1.433 . S
C1508 C1504 1.350 . S
C1508 C1505 1.463 . S
C1508 N1512 1.427 . S
C1509 H1499 0.929 . S
C1509 C1507 1.433 . S
C1509 N1512 1.384 . S
C1510 H1501 0.929 . S
C1510 C1502 1.378 . S
C1510 C1505 1.350 . S
C1511 H1498 0.929 . S
C1511 C1503 1.433 . S
C1511 N1513 1.384 . S
N1512 C1508 1.427 . S
N1512 C1509 1.384 . S
N1513 C1505 1.427 . S
N1513 C1511 1.384 . S
H1514 C1520 0.930 . S
H1515 C1524 0.930 . S
H1516 C1529 0.929 . S
H1517 C1527 0.929 . S
H1518 C1522 0.929 . S
H1519 C1528 0.929 . S
C1520 H1514 0.930 . S
C1520 C1521 1.367 . S
C1520 C1528 1.378 . S
C1521 C1520 1.367 . S
C1521 C1529 1.433 . S
C1522 H1518 0.929 . S
C1522 C1524 1.378 . S
C1522 C1526 1.350 . S
C1523 C1526 1.463 . S
C1523 C1528 1.350 . S
C1523 N1531 1.427 . S
C1524 H1515 0.930 . S
C1524 C1522 1.378 . S
C1524 C1525 1.367 . S
C1525 C1524 1.367 . S
C1525 C1527 1.433 . S
C1526 C1522 1.350 . S
C1526 C1523 1.463 . S
C1526 N1530 1.427 . S
C1527 H1517 0.929 . S
C1527 C1525 1.433 . S
C1527 N1530 1.384 . S
C1528 H1519 0.929 . S
C1528 C1520 1.378 . S
C1528 C1523 1.350 . S
C1529 H1516 0.929 . S
C1529 C1521 1.433 . S
C1529 N1531 1.384 . S
N1530 C1526 1.427 . S
N1530 C1527 1.384 . S
N1531 C1523 1.427 . S
N1531 C1529 1.384 . S
H1532 C1538 0.930 . S
H1533 C1542 0.930 . S
H1534 C1547 0.929 . S
H1535 C1545 0.929 . S
H1536 C1540 0.929 . S
H1537 C1546 0.929 . S
C1538 H1532 0.930 . S
C1538 C1539 1.367 . S
C1538 C1546 1.378 . S
C1539 C1538 1.367 . S
C1539 C1547 1.433 . S
C1540 H1536 0.929 . S
C1540 C1542 1.378 . S
C1540 C1544 1.350 . S
C1541 C1544 1.463 . S
C1541 C1546 1.350 . S
C1541 N1549 1.427 . S
C1542 H1533 0.930 . S
C1542 C1540 1.378 . S
C1542 C1543 1.367 . S
C1543 C1542 1.367 . S
C1543 C1545 1.433 . S
C1544 C1540 1.350 . S
C1544 C1541 1.463 . S
C1544 N1548 1.427 . S
C1545 H1535 0.929 . S
C1545 C1543 1.433 . S
C1545 N1548 1.384 . S
C1546 H1537 0.929 . S
C1546 C1538 1.378 . S
C1546 C1541 1.350 . S
C1547 H1534 0.929 . S
C1547 C1539 1.433 . S
C1547 N1549 1.384 . S
N1548 C1544 1.427 . S
N1548 C1545 1.384 . S
N1549 C1541 1.427 . S
N1549 C1547 1.384 . S
H1550 C1556 0.930 . S
H1551 C1560 0.930 . S
H1552 C1565 0.929 . S
H1553 C1563 0.929 . S
H1554 C1558 0.929 . S
H1555 C1564 0.929 . S
C1556 H1550 0.930 . S
C1556 C1557 1.367 . S
C1556 C1564 1.378 . S
C1557 C1556 1.367 . S
C1557 C1565 1.433 . S
C1558 H1554 0.929 . S
C1558 C1560 1.378 . S
C1558 C1562 1.350 . S
C1559 C1562 1.463 . S
C1559 C1564 1.350 . S
C1559 N1567 1.427 . S
C1560 H1551 0.930 . S
C1560 C1558 1.378 . S
C1560 C1561 1.367 . S
C1561 C1560 1.367 . S
C1561 C1563 1.433 . S
C1562 C1558 1.350 . S
C1562 C1559 1.463 . S
C1562 N1566 1.427 . S
C1563 H1553 0.929 . S
C1563 C1561 1.433 . S
C1563 N1566 1.384 . S
C1564 H1555 0.929 . S
C1564 C1556 1.378 . S
C1564 C1559 1.350 . S
C1565 H1552 0.929 . S
C1565 C1557 1.433 . S
C1565 N1567 1.384 . S
N1566 C1562 1.427 . S
N1566 C1563 1.384 . S
N1567 C1559 1.427 . S
N1567 C1565 1.384 . S
H1568 C1574 0.930 . S
H1569 C1578 0.930 . S
H1570 C1583 0.929 . S
H1571 C1581 0.929 . S
H1572 C1576 0.929 . S
H1573 C1582 0.929 . S
C1574 H1568 0.930 . S
C1574 C1575 1.367 . S
C1574 C1582 1.378 . S
C1575 C1574 1.367 . S
C1575 C1583 1.433 . S
C1576 H1572 0.929 . S
C1576 C1578 1.378 . S
C1576 C1580 1.350 . S
C1577 C1580 1.463 . S
C1577 C1582 1.350 . S
C1577 N1585 1.427 . S
C1578 H1569 0.930 . S
C1578 C1576 1.378 . S
C1578 C1579 1.367 . S
C1579 C1578 1.367 . S
C1579 C1581 1.433 . S
C1580 C1576 1.350 . S
C1580 C1577 1.463 . S
C1580 N1584 1.427 . S
C1581 H1571 0.929 . S
C1581 C1579 1.433 . S
C1581 N1584 1.384 . S
C1582 H1573 0.929 . S
C1582 C1574 1.378 . S
C1582 C1577 1.350 . S
C1583 H1570 0.929 . S
C1583 C1575 1.433 . S
C1583 N1585 1.384 . S
N1584 C1580 1.427 . S
N1584 C1581 1.384 . S
N1585 C1577 1.427 . S
N1585 C1583 1.384 . S
H1586 C1592 0.930 . S
H1587 C1596 0.930 . S
H1588 C1601 0.929 . S
H1589 C1599 0.929 . S
H1590 C1594 0.929 . S
H1591 C1600 0.929 . S
C1592 H1586 0.930 . S
C1592 C1593 1.367 . S
C1592 C1600 1.378 . S
C1593 C1592 1.367 . S
C1593 C1601 1.433 . S
C1594 H1590 0.929 . S
C1594 C1596 1.378 . S
C1594 C1598 1.350 . S
C1595 C1598 1.463 . S
C1595 C1600 1.350 . S
C1595 N1603 1.427 . S
C1596 H1587 0.930 . S
C1596 C1594 1.378 . S
C1596 C1597 1.367 . S
C1597 C1596 1.367 . S
C1597 C1599 1.433 . S
C1598 C1594 1.350 . S
C1598 C1595 1.463 . S
C1598 N1602 1.427 . S
C1599 H1589 0.929 . S
C1599 C1597 1.433 . S
C1599 N1602 1.384 . S
C1600 H1591 0.929 . S
C1600 C1592 1.378 . S
C1600 C1595 1.350 . S
C1601 H1588 0.929 . S
C1601 C1593 1.433 . S
C1601 N1603 1.384 . S
N1602 C1598 1.427 . S
N1602 C1599 1.384 . S
N1603 C1595 1.427 . S
N1603 C1601 1.384 . S
H1604 C1610 0.930 . S
H1605 C1614 0.930 . S
H1606 C1619 0.929 . S
H1607 C1617 0.929 . S
H1608 C1612 0.929 . S
H1609 C1618 0.929 . S
C1610 H1604 0.930 . S
C1610 C1611 1.367 . S
C1610 C1618 1.378 . S
C1611 C1610 1.367 . S
C1611 C1619 1.433 . S
C1612 H1608 0.929 . S
C1612 C1614 1.378 . S
C1612 C1616 1.350 . S
C1613 C1616 1.463 . S
C1613 C1618 1.350 . S
C1613 N1621 1.427 . S
C1614 H1605 0.930 . S
C1614 C1612 1.378 . S
C1614 C1615 1.367 . S
C1615 C1614 1.367 . S
C1615 C1617 1.433 . S
C1616 C1612 1.350 . S
C1616 C1613 1.463 . S
C1616 N1620 1.427 . S
C1617 H1607 0.929 . S
C1617 C1615 1.433 . S
C1617 N1620 1.384 . S
C1618 H1609 0.929 . S
C1618 C1610 1.378 . S
C1618 C1613 1.350 . S
C1619 H1606 0.929 . S
C1619 C1611 1.433 . S
C1619 N1621 1.384 . S
N1620 C1616 1.427 . S
N1620 C1617 1.384 . S
N1621 C1613 1.427 . S
N1621 C1619 1.384 . S
H1622 C1628 0.930 . S
H1623 C1632 0.930 . S
H1624 C1637 0.929 . S
H1625 C1635 0.929 . S
H1626 C1630 0.929 . S
H1627 C1636 0.929 . S
C1628 H1622 0.930 . S
C1628 C1629 1.367 . S
C1628 C1636 1.378 . S
C1629 C1628 1.367 . S
C1629 C1637 1.433 . S
C1630 H1626 0.929 . S
C1630 C1632 1.378 . S
C1630 C1634 1.350 . S
C1631 C1634 1.463 . S
C1631 C1636 1.350 . S
C1631 N1639 1.427 . S
C1632 H1623 0.930 . S
C1632 C1630 1.378 . S
C1632 C1633 1.367 . S
C1633 C1632 1.367 . S
C1633 C1635 1.433 . S
C1634 C1630 1.350 . S
C1634 C1631 1.463 . S
C1634 N1638 1.427 . S
C1635 H1625 0.929 . S
C1635 C1633 1.433 . S
C1635 N1638 1.384 . S
C1636 H1627 0.929 . S
C1636 C1628 1.378 . S
C1636 C1631 1.350 . S
C1637 H1624 0.929 . S
C1637 C1629 1.433 . S
C1637 N1639 1.384 . S
N1638 C1634 1.427 . S
N1638 C1635 1.384 . S
N1639 C1631 1.427 . S
N1639 C1637 1.384 . S
H1640 C1646 0.930 . S
H1641 C1650 0.930 . S
H1642 C1655 0.929 . S
H1643 C1653 0.929 . S
H1644 C1648 0.929 . S
H1645 C1654 0.929 . S
C1646 H1640 0.930 . S
C1646 C1647 1.367 1_545 S
C1646 C1654 1.378 . S
C1647 C1646 1.367 1_565 S
C1647 C1655 1.433 . S
C1648 H1644 0.929 . S
C1648 C1650 1.378 . S
C1648 C1652 1.350 . S
C1649 C1652 1.463 . S
C1649 C1654 1.350 1_565 S
C1649 N1657 1.427 . S
C1650 H1641 0.930 . S
C1650 C1648 1.378 . S
C1650 C1651 1.367 . S
C1651 C1650 1.367 . S
C1651 C1653 1.433 1_565 S
C1652 C1648 1.350 . S
C1652 C1649 1.463 . S
C1652 N1656 1.427 1_565 S
C1653 H1643 0.929 . S
C1653 C1651 1.433 1_545 S
C1653 N1656 1.384 . S
C1654 H1645 0.929 . S
C1654 C1646 1.378 . S
C1654 C1649 1.350 1_545 S
C1655 H1642 0.929 . S
C1655 C1647 1.433 . S
C1655 N1657 1.384 . S
N1656 C1652 1.427 1_545 S
N1656 C1653 1.384 . S
N1657 C1649 1.427 . S
N1657 C1655 1.384 . S
H1658 C1664 0.930 . S
H1659 C1668 0.930 . S
H1660 C1673 0.929 . S
H1661 C1671 0.929 . S
H1662 C1666 0.929 . S
H1663 C1672 0.929 . S
C1664 H1658 0.930 . S
C1664 C1665 1.367 . S
C1664 C1672 1.378 . S
C1665 C1664 1.367 . S
C1665 C1673 1.433 . S
C1666 H1662 0.929 . S
C1666 C1668 1.378 . S
C1666 C1670 1.350 . S
C1667 C1670 1.463 . S
C1667 C1672 1.350 . S
C1667 N1675 1.427 . S
C1668 H1659 0.930 . S
C1668 C1666 1.378 . S
C1668 C1669 1.367 . S
C1669 C1668 1.367 . S
C1669 C1671 1.433 . S
C1670 C1666 1.350 . S
C1670 C1667 1.463 . S
C1670 N1674 1.427 . S
C1671 H1661 0.929 . S
C1671 C1669 1.433 . S
C1671 N1674 1.384 . S
C1672 H1663 0.929 . S
C1672 C1664 1.378 . S
C1672 C1667 1.350 . S
C1673 H1660 0.929 . S
C1673 C1665 1.433 . S
C1673 N1675 1.384 . S
N1674 C1670 1.427 . S
N1674 C1671 1.384 . S
N1675 C1667 1.427 . S
N1675 C1673 1.384 . S
H1676 C1682 0.930 . S
H1677 C1686 0.930 . S
H1678 C1691 0.929 . S
H1679 C1689 0.929 . S
H1680 C1684 0.929 . S
H1681 C1690 0.929 . S
C1682 H1676 0.930 . S
C1682 C1683 1.367 . S
C1682 C1690 1.378 . S
C1683 C1682 1.367 . S
C1683 C1691 1.433 1_545 S
C1684 H1680 0.929 . S
C1684 C1686 1.378 . S
C1684 C1688 1.350 1_565 S
C1685 C1688 1.463 . S
C1685 C1690 1.350 . S
C1685 N1693 1.427 1_545 S
C1686 H1677 0.930 . S
C1686 C1684 1.378 . S
C1686 C1687 1.367 1_565 S
C1687 C1686 1.367 1_545 S
C1687 C1689 1.433 . S
C1688 C1684 1.350 1_545 S
C1688 C1685 1.463 . S
C1688 N1692 1.427 . S
C1689 H1679 0.929 . S
C1689 C1687 1.433 . S
C1689 N1692 1.384 . S
C1690 H1681 0.929 . S
C1690 C1682 1.378 . S
C1690 C1685 1.350 . S
C1691 H1678 0.929 . S
C1691 C1683 1.433 1_565 S
C1691 N1693 1.384 . S
N1692 C1688 1.427 . S
N1692 C1689 1.384 . S
N1693 C1685 1.427 1_565 S
N1693 C1691 1.384 . S
H1694 C1700 0.930 . S
H1695 C1704 0.930 . S
H1696 C1709 0.929 . S
H1697 C1707 0.929 . S
H1698 C1702 0.929 . S
H1699 C1708 0.929 . S
C1700 H1694 0.930 . S
C1700 C1701 1.367 . S
C1700 C1708 1.378 . S
C1701 C1700 1.367 . S
C1701 C1709 1.433 . S
C1702 H1698 0.929 . S
C1702 C1704 1.378 . S
C1702 C1706 1.350 . S
C1703 C1706 1.463 . S
C1703 C1708 1.350 . S
C1703 N1711 1.427 . S
C1704 H1695 0.930 . S
C1704 C1702 1.378 . S
C1704 C1705 1.367 . S
C1705 C1704 1.367 . S
C1705 C1707 1.433 . S
C1706 C1702 1.350 . S
C1706 C1703 1.463 . S
C1706 N1710 1.427 . S
C1707 H1697 0.929 . S
C1707 C1705 1.433 . S
C1707 N1710 1.384 . S
C1708 H1699 0.929 . S
C1708 C1700 1.378 . S
C1708 C1703 1.350 . S
C1709 H1696 0.929 . S
C1709 C1701 1.433 . S
C1709 N1711 1.384 . S
N1710 C1706 1.427 . S
N1710 C1707 1.384 . S
N1711 C1703 1.427 . S
N1711 C1709 1.384 . S
H1712 C1718 0.930 . S
H1713 C1722 0.930 . S
H1714 C1727 0.929 . S
H1715 C1725 0.929 . S
H1716 C1720 0.929 . S
H1717 C1726 0.929 . S
C1718 H1712 0.930 . S
C1718 C1719 1.367 . S
C1718 C1726 1.378 . S
C1719 C1718 1.367 . S
C1719 C1727 1.433 . S
C1720 H1716 0.929 . S
C1720 C1722 1.378 . S
C1720 C1724 1.350 . S
C1721 C1724 1.463 . S
C1721 C1726 1.350 . S
C1721 N1729 1.427 . S
C1722 H1713 0.930 . S
C1722 C1720 1.378 . S
C1722 C1723 1.367 . S
C1723 C1722 1.367 . S
C1723 C1725 1.433 . S
C1724 C1720 1.350 . S
C1724 C1721 1.463 . S
C1724 N1728 1.427 . S
C1725 H1715 0.929 . S
C1725 C1723 1.433 . S
C1725 N1728 1.384 . S
C1726 H1717 0.929 . S
C1726 C1718 1.378 . S
C1726 C1721 1.350 . S
C1727 H1714 0.929 . S
C1727 C1719 1.433 . S
C1727 N1729 1.384 . S
N1728 C1724 1.427 . S
N1728 C1725 1.384 . S
N1729 C1721 1.427 . S
N1729 C1727 1.384 . S
H1730 C1736 0.930 . S
H1731 C1740 0.930 . S
H1732 C1745 0.929 . S
H1733 C1743 0.929 . S
H1734 C1738 0.929 . S
H1735 C1744 0.929 . S
C1736 H1730 0.930 . S
C1736 C1737 1.367 . S
C1736 C1744 1.378 . S
C1737 C1736 1.367 . S
C1737 C1745 1.433 . S
C1738 H1734 0.929 . S
C1738 C1740 1.378 . S
C1738 C1742 1.350 . S
C1739 C1742 1.463 . S
C1739 C1744 1.350 . S
C1739 N1747 1.427 . S
C1740 H1731 0.930 . S
C1740 C1738 1.378 . S
C1740 C1741 1.367 . S
C1741 C1740 1.367 . S
C1741 C1743 1.433 . S
C1742 C1738 1.350 . S
C1742 C1739 1.463 . S
C1742 N1746 1.427 . S
C1743 H1733 0.929 . S
C1743 C1741 1.433 . S
C1743 N1746 1.384 . S
C1744 H1735 0.929 . S
C1744 C1736 1.378 . S
C1744 C1739 1.350 . S
C1745 H1732 0.929 . S
C1745 C1737 1.433 . S
C1745 N1747 1.384 . S
N1746 C1742 1.427 . S
N1746 C1743 1.384 . S
N1747 C1739 1.427 . S
N1747 C1745 1.384 . S
H1748 C1754 0.930 . S
H1749 C1758 0.930 . S
H1750 C1763 0.929 . S
H1751 C1761 0.929 . S
H1752 C1756 0.929 . S
H1753 C1762 0.929 . S
C1754 H1748 0.930 . S
C1754 C1755 1.367 . S
C1754 C1762 1.378 . S
C1755 C1754 1.367 . S
C1755 C1763 1.433 . S
C1756 H1752 0.929 . S
C1756 C1758 1.378 . S
C1756 C1760 1.350 . S
C1757 C1760 1.463 . S
C1757 C1762 1.350 . S
C1757 N1765 1.427 . S
C1758 H1749 0.930 . S
C1758 C1756 1.378 . S
C1758 C1759 1.367 . S
C1759 C1758 1.367 . S
C1759 C1761 1.433 . S
C1760 C1756 1.350 . S
C1760 C1757 1.463 . S
C1760 N1764 1.427 . S
C1761 H1751 0.929 . S
C1761 C1759 1.433 . S
C1761 N1764 1.384 . S
C1762 H1753 0.929 . S
C1762 C1754 1.378 . S
C1762 C1757 1.350 . S
C1763 H1750 0.929 . S
C1763 C1755 1.433 . S
C1763 N1765 1.384 . S
N1764 C1760 1.427 . S
N1764 C1761 1.384 . S
N1765 C1757 1.427 . S
N1765 C1763 1.384 . S
H1766 C1772 0.930 . S
H1767 C1776 0.930 . S
H1768 C1781 0.929 . S
H1769 C1779 0.929 . S
H1770 C1774 0.929 . S
H1771 C1780 0.929 . S
C1772 H1766 0.930 . S
C1772 C1773 1.367 . S
C1772 C1780 1.378 . S
C1773 C1772 1.367 . S
C1773 C1781 1.433 . S
C1774 H1770 0.929 . S
C1774 C1776 1.378 . S
C1774 C1778 1.350 . S
C1775 C1778 1.463 . S
C1775 C1780 1.350 . S
C1775 N1783 1.427 . S
C1776 H1767 0.930 . S
C1776 C1774 1.378 . S
C1776 C1777 1.367 . S
C1777 C1776 1.367 . S
C1777 C1779 1.433 . S
C1778 C1774 1.350 . S
C1778 C1775 1.463 . S
C1778 N1782 1.427 . S
C1779 H1769 0.929 . S
C1779 C1777 1.433 . S
C1779 N1782 1.384 . S
C1780 H1771 0.929 . S
C1780 C1772 1.378 . S
C1780 C1775 1.350 . S
C1781 H1768 0.929 . S
C1781 C1773 1.433 . S
C1781 N1783 1.384 . S
N1782 C1778 1.427 . S
N1782 C1779 1.384 . S
N1783 C1775 1.427 . S
N1783 C1781 1.384 . S
H1784 C1790 0.930 . S
H1785 C1794 0.930 . S
H1786 C1799 0.929 . S
H1787 C1797 0.929 . S
H1788 C1792 0.929 . S
H1789 C1798 0.929 . S
C1790 H1784 0.930 . S
C1790 C1791 1.367 . S
C1790 C1798 1.378 . S
C1791 C1790 1.367 . S
C1791 C1799 1.433 1_565 S
C1792 H1788 0.929 . S
C1792 C1794 1.378 . S
C1792 C1796 1.350 1_545 S
C1793 C1796 1.463 . S
C1793 C1798 1.350 . S
C1793 N1801 1.427 1_565 S
C1794 H1785 0.930 . S
C1794 C1792 1.378 . S
C1794 C1795 1.367 1_545 S
C1795 C1794 1.367 1_565 S
C1795 C1797 1.433 . S
C1796 C1792 1.350 1_565 S
C1796 C1793 1.463 . S
C1796 N1800 1.427 . S
C1797 H1787 0.929 . S
C1797 C1795 1.433 . S
C1797 N1800 1.384 . S
C1798 H1789 0.929 . S
C1798 C1790 1.378 . S
C1798 C1793 1.350 . S
C1799 H1786 0.929 . S
C1799 C1791 1.433 1_545 S
C1799 N1801 1.384 . S
N1800 C1796 1.427 . S
N1800 C1797 1.384 . S
N1801 C1793 1.427 1_545 S
N1801 C1799 1.384 . S
H1802 C1808 0.930 . S
H1803 C1812 0.930 . S
H1804 C1817 0.929 . S
H1805 C1815 0.929 . S
H1806 C1810 0.929 . S
H1807 C1816 0.929 . S
C1808 H1802 0.930 . S
C1808 C1809 1.367 . S
C1808 C1816 1.378 . S
C1809 C1808 1.367 . S
C1809 C1817 1.433 . S
C1810 H1806 0.929 . S
C1810 C1812 1.378 . S
C1810 C1814 1.350 . S
C1811 C1814 1.463 . S
C1811 C1816 1.350 . S
C1811 N1819 1.427 . S
C1812 H1803 0.930 . S
C1812 C1810 1.378 . S
C1812 C1813 1.367 . S
C1813 C1812 1.367 . S
C1813 C1815 1.433 . S
C1814 C1810 1.350 . S
C1814 C1811 1.463 . S
C1814 N1818 1.427 . S
C1815 H1805 0.929 . S
C1815 C1813 1.433 . S
C1815 N1818 1.384 . S
C1816 H1807 0.929 . S
C1816 C1808 1.378 . S
C1816 C1811 1.350 . S
C1817 H1804 0.929 . S
C1817 C1809 1.433 . S
C1817 N1819 1.384 . S
N1818 C1814 1.427 . S
N1818 C1815 1.384 . S
N1819 C1811 1.427 . S
N1819 C1817 1.384 . S
H1820 C1826 0.930 . S
H1821 C1830 0.930 . S
H1822 C1835 0.929 . S
H1823 C1833 0.929 . S
H1824 C1828 0.929 . S
H1825 C1834 0.929 . S
C1826 H1820 0.930 . S
C1826 C1827 1.367 1_565 S
C1826 C1834 1.378 . S
C1827 C1826 1.367 1_545 S
C1827 C1835 1.433 . S
C1828 H1824 0.929 . S
C1828 C1830 1.378 . S
C1828 C1832 1.350 . S
C1829 C1832 1.463 . S
C1829 C1834 1.350 1_545 S
C1829 N1837 1.427 . S
C1830 H1821 0.930 . S
C1830 C1828 1.378 . S
C1830 C1831 1.367 . S
C1831 C1830 1.367 . S
C1831 C1833 1.433 1_545 S
C1832 C1828 1.350 . S
C1832 C1829 1.463 . S
C1832 N1836 1.427 1_545 S
C1833 H1823 0.929 . S
C1833 C1831 1.433 1_565 S
C1833 N1836 1.384 . S
C1834 H1825 0.929 . S
C1834 C1826 1.378 . S
C1834 C1829 1.350 1_565 S
C1835 H1822 0.929 . S
C1835 C1827 1.433 . S
C1835 N1837 1.384 . S
N1836 C1832 1.427 1_565 S
N1836 C1833 1.384 . S
N1837 C1829 1.427 . S
N1837 C1835 1.384 . S
H1838 C1844 0.930 . S
H1839 C1848 0.930 . S
H1840 C1853 0.929 . S
H1841 C1851 0.929 . S
H1842 C1846 0.929 . S
H1843 C1852 0.929 . S
C1844 H1838 0.930 . S
C1844 C1845 1.367 . S
C1844 C1852 1.378 . S
C1845 C1844 1.367 . S
C1845 C1853 1.433 . S
C1846 H1842 0.929 . S
C1846 C1848 1.378 . S
C1846 C1850 1.350 . S
C1847 C1850 1.463 . S
C1847 C1852 1.350 . S
C1847 N1855 1.427 . S
C1848 H1839 0.930 . S
C1848 C1846 1.378 . S
C1848 C1849 1.367 . S
C1849 C1848 1.367 . S
C1849 C1851 1.433 . S
C1850 C1846 1.350 . S
C1850 C1847 1.463 . S
C1850 N1854 1.427 . S
C1851 H1841 0.929 . S
C1851 C1849 1.433 . S
C1851 N1854 1.384 . S
C1852 H1843 0.929 . S
C1852 C1844 1.378 . S
C1852 C1847 1.350 . S
C1853 H1840 0.929 . S
C1853 C1845 1.433 . S
C1853 N1855 1.384 . S
N1854 C1850 1.427 . S
N1854 C1851 1.384 . S
N1855 C1847 1.427 . S
N1855 C1853 1.384 . S
H1856 C1862 0.930 . S
H1857 C1866 0.930 . S
H1858 C1871 0.929 . S
H1859 C1869 0.929 . S
H1860 C1864 0.929 . S
H1861 C1870 0.929 . S
C1862 H1856 0.930 . S
C1862 C1863 1.367 . S
C1862 C1870 1.378 . S
C1863 C1862 1.367 . S
C1863 C1871 1.433 . S
C1864 H1860 0.929 . S
C1864 C1866 1.378 . S
C1864 C1868 1.350 . S
C1865 C1868 1.463 . S
C1865 C1870 1.350 . S
C1865 N1873 1.427 . S
C1866 H1857 0.930 . S
C1866 C1864 1.378 . S
C1866 C1867 1.367 . S
C1867 C1866 1.367 . S
C1867 C1869 1.433 . S
C1868 C1864 1.350 . S
C1868 C1865 1.463 . S
C1868 N1872 1.427 . S
C1869 H1859 0.929 . S
C1869 C1867 1.433 . S
C1869 N1872 1.384 . S
C1870 H1861 0.929 . S
C1870 C1862 1.378 . S
C1870 C1865 1.350 . S
C1871 H1858 0.929 . S
C1871 C1863 1.433 . S
C1871 N1873 1.384 . S
N1872 C1868 1.427 . S
N1872 C1869 1.384 . S
N1873 C1865 1.427 . S
N1873 C1871 1.384 . S
H1874 C1880 0.930 . S
H1875 C1884 0.930 . S
H1876 C1889 0.929 . S
H1877 C1887 0.929 . S
H1878 C1882 0.929 . S
H1879 C1888 0.929 . S
C1880 H1874 0.930 . S
C1880 C1881 1.367 . S
C1880 C1888 1.378 . S
C1881 C1880 1.367 . S
C1881 C1889 1.433 . S
C1882 H1878 0.929 . S
C1882 C1884 1.378 . S
C1882 C1886 1.350 . S
C1883 C1886 1.463 . S
C1883 C1888 1.350 . S
C1883 N1891 1.427 . S
C1884 H1875 0.930 . S
C1884 C1882 1.378 . S
C1884 C1885 1.367 . S
C1885 C1884 1.367 . S
C1885 C1887 1.433 . S
C1886 C1882 1.350 . S
C1886 C1883 1.463 . S
C1886 N1890 1.427 . S
C1887 H1877 0.929 . S
C1887 C1885 1.433 . S
C1887 N1890 1.384 . S
C1888 H1879 0.929 . S
C1888 C1880 1.378 . S
C1888 C1883 1.350 . S
C1889 H1876 0.929 . S
C1889 C1881 1.433 . S
C1889 N1891 1.384 . S
N1890 C1886 1.427 . S
N1890 C1887 1.384 . S
N1891 C1883 1.427 . S
N1891 C1889 1.384 . S
H1892 C1898 0.930 . S
H1893 C1902 0.930 . S
H1894 C1907 0.929 . S
H1895 C1905 0.929 . S
H1896 C1900 0.929 . S
H1897 C1906 0.929 . S
C1898 H1892 0.930 . S
C1898 C1899 1.367 . S
C1898 C1906 1.378 . S
C1899 C1898 1.367 . S
C1899 C1907 1.433 . S
C1900 H1896 0.929 . S
C1900 C1902 1.378 . S
C1900 C1904 1.350 . S
C1901 C1904 1.463 . S
C1901 C1906 1.350 . S
C1901 N1909 1.427 . S
C1902 H1893 0.930 . S
C1902 C1900 1.378 . S
C1902 C1903 1.367 . S
C1903 C1902 1.367 . S
C1903 C1905 1.433 . S
C1904 C1900 1.350 . S
C1904 C1901 1.463 . S
C1904 N1908 1.427 . S
C1905 H1895 0.929 . S
C1905 C1903 1.433 . S
C1905 N1908 1.384 . S
C1906 H1897 0.929 . S
C1906 C1898 1.378 . S
C1906 C1901 1.350 . S
C1907 H1894 0.929 . S
C1907 C1899 1.433 . S
C1907 N1909 1.384 . S
N1908 C1904 1.427 . S
N1908 C1905 1.384 . S
N1909 C1901 1.427 . S
N1909 C1907 1.384 . S
H1910 C1916 0.930 . S
H1911 C1920 0.930 . S
H1912 C1925 0.929 . S
H1913 C1923 0.929 . S
H1914 C1918 0.929 . S
H1915 C1924 0.929 . S
C1916 H1910 0.930 . S
C1916 C1917 1.367 . S
C1916 C1924 1.378 . S
C1917 C1916 1.367 . S
C1917 C1925 1.433 . S
C1918 H1914 0.929 . S
C1918 C1920 1.378 . S
C1918 C1922 1.350 . S
C1919 C1922 1.463 . S
C1919 C1924 1.350 . S
C1919 N1927 1.427 . S
C1920 H1911 0.930 . S
C1920 C1918 1.378 . S
C1920 C1921 1.367 . S
C1921 C1920 1.367 . S
C1921 C1923 1.433 . S
C1922 C1918 1.350 . S
C1922 C1919 1.463 . S
C1922 N1926 1.427 . S
C1923 H1913 0.929 . S
C1923 C1921 1.433 . S
C1923 N1926 1.384 . S
C1924 H1915 0.929 . S
C1924 C1916 1.378 . S
C1924 C1919 1.350 . S
C1925 H1912 0.929 . S
C1925 C1917 1.433 . S
C1925 N1927 1.384 . S
N1926 C1922 1.427 . S
N1926 C1923 1.384 . S
N1927 C1919 1.427 . S
N1927 C1925 1.384 . S
H1928 C1934 0.930 . S
H1929 C1938 0.930 . S
H1930 C1943 0.929 . S
H1931 C1941 0.929 . S
H1932 C1936 0.929 . S
H1933 C1942 0.929 . S
C1934 H1928 0.930 . S
C1934 C1935 1.367 . S
C1934 C1942 1.378 . S
C1935 C1934 1.367 . S
C1935 C1943 1.433 . S
C1936 H1932 0.929 . S
C1936 C1938 1.378 . S
C1936 C1940 1.350 . S
C1937 C1940 1.463 . S
C1937 C1942 1.350 . S
C1937 N1945 1.427 . S
C1938 H1929 0.930 . S
C1938 C1936 1.378 . S
C1938 C1939 1.367 . S
C1939 C1938 1.367 . S
C1939 C1941 1.433 . S
C1940 C1936 1.350 . S
C1940 C1937 1.463 . S
C1940 N1944 1.427 . S
C1941 H1931 0.929 . S
C1941 C1939 1.433 . S
C1941 N1944 1.384 . S
C1942 H1933 0.929 . S
C1942 C1934 1.378 . S
C1942 C1937 1.350 . S
C1943 H1930 0.929 . S
C1943 C1935 1.433 . S
C1943 N1945 1.384 . S
N1944 C1940 1.427 . S
N1944 C1941 1.384 . S
N1945 C1937 1.427 . S
N1945 C1943 1.384 . S
H1946 C1952 0.930 . S
H1947 C1956 0.930 . S
H1948 C1961 0.929 . S
H1949 C1959 0.929 . S
H1950 C1954 0.929 . S
H1951 C1960 0.929 . S
C1952 H1946 0.930 . S
C1952 C1953 1.367 . S
C1952 C1960 1.378 . S
C1953 C1952 1.367 . S
C1953 C1961 1.433 . S
C1954 H1950 0.929 . S
C1954 C1956 1.378 . S
C1954 C1958 1.350 . S
C1955 C1958 1.463 . S
C1955 C1960 1.350 . S
C1955 N1963 1.427 . S
C1956 H1947 0.930 . S
C1956 C1954 1.378 . S
C1956 C1957 1.367 . S
C1957 C1956 1.367 . S
C1957 C1959 1.433 . S
C1958 C1954 1.350 . S
C1958 C1955 1.463 . S
C1958 N1962 1.427 . S
C1959 H1949 0.929 . S
C1959 C1957 1.433 . S
C1959 N1962 1.384 . S
C1960 H1951 0.929 . S
C1960 C1952 1.378 . S
C1960 C1955 1.350 . S
C1961 H1948 0.929 . S
C1961 C1953 1.433 . S
C1961 N1963 1.384 . S
N1962 C1958 1.427 . S
N1962 C1959 1.384 . S
N1963 C1955 1.427 . S
N1963 C1961 1.384 . S
H1964 C1970 0.930 . S
H1965 C1974 0.930 . S
H1966 C1979 0.929 . S
H1967 C1977 0.929 . S
H1968 C1972 0.929 . S
H1969 C1978 0.929 . S
C1970 H1964 0.930 . S
C1970 C1971 1.367 . S
C1970 C1978 1.378 . S
C1971 C1970 1.367 . S
C1971 C1979 1.433 . S
C1972 H1968 0.929 . S
C1972 C1974 1.378 . S
C1972 C1976 1.350 . S
C1973 C1976 1.463 . S
C1973 C1978 1.350 . S
C1973 N1981 1.427 . S
C1974 H1965 0.930 . S
C1974 C1972 1.378 . S
C1974 C1975 1.367 . S
C1975 C1974 1.367 . S
C1975 C1977 1.433 . S
C1976 C1972 1.350 . S
C1976 C1973 1.463 . S
C1976 N1980 1.427 . S
C1977 H1967 0.929 . S
C1977 C1975 1.433 . S
C1977 N1980 1.384 . S
C1978 H1969 0.929 . S
C1978 C1970 1.378 . S
C1978 C1973 1.350 . S
C1979 H1966 0.929 . S
C1979 C1971 1.433 . S
C1979 N1981 1.384 . S
N1980 C1976 1.427 . S
N1980 C1977 1.384 . S
N1981 C1973 1.427 . S
N1981 C1979 1.384 . S
H1982 C1988 0.930 . S
H1983 C1992 0.930 . S
H1984 C1997 0.929 . S
H1985 C1995 0.929 . S
H1986 C1990 0.929 . S
H1987 C1996 0.929 . S
C1988 H1982 0.930 . S
C1988 C1989 1.367 . S
C1988 C1996 1.378 . S
C1989 C1988 1.367 . S
C1989 C1997 1.433 . S
C1990 H1986 0.929 . S
C1990 C1992 1.378 . S
C1990 C1994 1.350 . S
C1991 C1994 1.463 . S
C1991 C1996 1.350 . S
C1991 N1999 1.427 . S
C1992 H1983 0.930 . S
C1992 C1990 1.378 . S
C1992 C1993 1.367 . S
C1993 C1992 1.367 . S
C1993 C1995 1.433 . S
C1994 C1990 1.350 . S
C1994 C1991 1.463 . S
C1994 N1998 1.427 . S
C1995 H1985 0.929 . S
C1995 C1993 1.433 . S
C1995 N1998 1.384 . S
C1996 H1987 0.929 . S
C1996 C1988 1.378 . S
C1996 C1991 1.350 . S
C1997 H1984 0.929 . S
C1997 C1989 1.433 . S
C1997 N1999 1.384 . S
N1998 C1994 1.427 . S
N1998 C1995 1.384 . S
N1999 C1991 1.427 . S
N1999 C1997 1.384 . S
H2000 C2006 0.930 . S
H2001 C2010 0.930 . S
H2002 C2015 0.929 . S
H2003 C2013 0.929 . S
H2004 C2008 0.929 . S
H2005 C2014 0.929 . S
C2006 H2000 0.930 . S
C2006 C2007 1.367 . S
C2006 C2014 1.378 . S
C2007 C2006 1.367 . S
C2007 C2015 1.433 . S
C2008 H2004 0.929 . S
C2008 C2010 1.378 . S
C2008 C2012 1.350 . S
C2009 C2012 1.463 . S
C2009 C2014 1.350 . S
C2009 N2017 1.427 . S
C2010 H2001 0.930 . S
C2010 C2008 1.378 . S
C2010 C2011 1.367 . S
C2011 C2010 1.367 . S
C2011 C2013 1.433 . S
C2012 C2008 1.350 . S
C2012 C2009 1.463 . S
C2012 N2016 1.427 . S
C2013 H2003 0.929 . S
C2013 C2011 1.433 . S
C2013 N2016 1.384 . S
C2014 H2005 0.929 . S
C2014 C2006 1.378 . S
C2014 C2009 1.350 . S
C2015 H2002 0.929 . S
C2015 C2007 1.433 . S
C2015 N2017 1.384 . S
N2016 C2012 1.427 . S
N2016 C2013 1.384 . S
N2017 C2009 1.427 . S
N2017 C2015 1.384 . S
H2018 C2024 0.930 . S
H2019 C2028 0.930 . S
H2020 C2033 0.929 . S
H2021 C2031 0.929 . S
H2022 C2026 0.929 . S
H2023 C2032 0.929 . S
C2024 H2018 0.930 . S
C2024 C2025 1.367 . S
C2024 C2032 1.378 . S
C2025 C2024 1.367 . S
C2025 C2033 1.433 . S
C2026 H2022 0.929 . S
C2026 C2028 1.378 . S
C2026 C2030 1.350 . S
C2027 C2030 1.463 . S
C2027 C2032 1.350 . S
C2027 N2035 1.427 . S
C2028 H2019 0.930 . S
C2028 C2026 1.378 . S
C2028 C2029 1.367 . S
C2029 C2028 1.367 . S
C2029 C2031 1.433 . S
C2030 C2026 1.350 . S
C2030 C2027 1.463 . S
C2030 N2034 1.427 . S
C2031 H2021 0.929 . S
C2031 C2029 1.433 . S
C2031 N2034 1.384 . S
C2032 H2023 0.929 . S
C2032 C2024 1.378 . S
C2032 C2027 1.350 . S
C2033 H2020 0.929 . S
C2033 C2025 1.433 . S
C2033 N2035 1.384 . S
N2034 C2030 1.427 . S
N2034 C2031 1.384 . S
N2035 C2027 1.427 . S
N2035 C2033 1.384 . S
H2036 C2042 0.930 . S
H2037 C2046 0.930 . S
H2038 C2051 0.929 . S
H2039 C2049 0.929 . S
H2040 C2044 0.929 . S
H2041 C2050 0.929 . S
C2042 H2036 0.930 . S
C2042 C2043 1.367 . S
C2042 C2050 1.378 . S
C2043 C2042 1.367 . S
C2043 C2051 1.433 . S
C2044 H2040 0.929 . S
C2044 C2046 1.378 . S
C2044 C2048 1.350 . S
C2045 C2048 1.463 . S
C2045 C2050 1.350 . S
C2045 N2053 1.427 . S
C2046 H2037 0.930 . S
C2046 C2044 1.378 . S
C2046 C2047 1.367 . S
C2047 C2046 1.367 . S
C2047 C2049 1.433 . S
C2048 C2044 1.350 . S
C2048 C2045 1.463 . S
C2048 N2052 1.427 . S
C2049 H2039 0.929 . S
C2049 C2047 1.433 . S
C2049 N2052 1.384 . S
C2050 H2041 0.929 . S
C2050 C2042 1.378 . S
C2050 C2045 1.350 . S
C2051 H2038 0.929 . S
C2051 C2043 1.433 . S
C2051 N2053 1.384 . S
N2052 C2048 1.427 . S
N2052 C2049 1.384 . S
N2053 C2045 1.427 . S
N2053 C2051 1.384 . S
H2054 C2060 0.930 . S
H2055 C2064 0.930 . S
H2056 C2069 0.929 . S
H2057 C2067 0.929 . S
H2058 C2062 0.929 . S
H2059 C2068 0.929 . S
C2060 H2054 0.930 . S
C2060 C2061 1.367 . S
C2060 C2068 1.378 . S
C2061 C2060 1.367 . S
C2061 C2069 1.433 . S
C2062 H2058 0.929 . S
C2062 C2064 1.378 . S
C2062 C2066 1.350 . S
C2063 C2066 1.463 . S
C2063 C2068 1.350 . S
C2063 N2071 1.427 . S
C2064 H2055 0.930 . S
C2064 C2062 1.378 . S
C2064 C2065 1.367 . S
C2065 C2064 1.367 . S
C2065 C2067 1.433 . S
C2066 C2062 1.350 . S
C2066 C2063 1.463 . S
C2066 N2070 1.427 . S
C2067 H2057 0.929 . S
C2067 C2065 1.433 . S
C2067 N2070 1.384 . S
C2068 H2059 0.929 . S
C2068 C2060 1.378 . S
C2068 C2063 1.350 . S
C2069 H2056 0.929 . S
C2069 C2061 1.433 . S
C2069 N2071 1.384 . S
N2070 C2066 1.427 . S
N2070 C2067 1.384 . S
N2071 C2063 1.427 . S
N2071 C2069 1.384 . S
H2072 C2078 0.930 . S
H2073 C2082 0.930 . S
H2074 C2087 0.929 . S
H2075 C2085 0.929 . S
H2076 C2080 0.929 . S
H2077 C2086 0.929 . S
C2078 H2072 0.930 . S
C2078 C2079 1.367 . S
C2078 C2086 1.378 . S
C2079 C2078 1.367 . S
C2079 C2087 1.433 . S
C2080 H2076 0.929 . S
C2080 C2082 1.378 . S
C2080 C2084 1.350 . S
C2081 C2084 1.463 . S
C2081 C2086 1.350 . S
C2081 N2089 1.427 . S
C2082 H2073 0.930 . S
C2082 C2080 1.378 . S
C2082 C2083 1.367 . S
C2083 C2082 1.367 . S
C2083 C2085 1.433 . S
C2084 C2080 1.350 . S
C2084 C2081 1.463 . S
C2084 N2088 1.427 . S
C2085 H2075 0.929 . S
C2085 C2083 1.433 . S
C2085 N2088 1.384 . S
C2086 H2077 0.929 . S
C2086 C2078 1.378 . S
C2086 C2081 1.350 . S
C2087 H2074 0.929 . S
C2087 C2079 1.433 . S
C2087 N2089 1.384 . S
N2088 C2084 1.427 . S
N2088 C2085 1.384 . S
N2089 C2081 1.427 . S
N2089 C2087 1.384 . S
H2090 C2096 0.930 . S
H2091 C2100 0.930 . S
H2092 C2105 0.929 . S
H2093 C2103 0.929 . S
H2094 C2098 0.929 . S
H2095 C2104 0.929 . S
C2096 H2090 0.930 . S
C2096 C2097 1.367 . S
C2096 C2104 1.378 . S
C2097 C2096 1.367 . S
C2097 C2105 1.433 . S
C2098 H2094 0.929 . S
C2098 C2100 1.378 . S
C2098 C2102 1.350 . S
C2099 C2102 1.463 . S
C2099 C2104 1.350 . S
C2099 N2107 1.427 . S
C2100 H2091 0.930 . S
C2100 C2098 1.378 . S
C2100 C2101 1.367 . S
C2101 C2100 1.367 . S
C2101 C2103 1.433 . S
C2102 C2098 1.350 . S
C2102 C2099 1.463 . S
C2102 N2106 1.427 . S
C2103 H2093 0.929 . S
C2103 C2101 1.433 . S
C2103 N2106 1.384 . S
C2104 H2095 0.929 . S
C2104 C2096 1.378 . S
C2104 C2099 1.350 . S
C2105 H2092 0.929 . S
C2105 C2097 1.433 . S
C2105 N2107 1.384 . S
N2106 C2102 1.427 . S
N2106 C2103 1.384 . S
N2107 C2099 1.427 . S
N2107 C2105 1.384 . S
H2108 C2114 0.930 . S
H2109 C2118 0.930 . S
H2110 C2123 0.929 . S
H2111 C2121 0.929 . S
H2112 C2116 0.929 . S
H2113 C2122 0.929 . S
C2114 H2108 0.930 . S
C2114 C2115 1.367 . S
C2114 C2122 1.378 . S
C2115 C2114 1.367 . S
C2115 C2123 1.433 . S
C2116 H2112 0.929 . S
C2116 C2118 1.378 . S
C2116 C2120 1.350 . S
C2117 C2120 1.463 . S
C2117 C2122 1.350 . S
C2117 N2125 1.427 . S
C2118 H2109 0.930 . S
C2118 C2116 1.378 . S
C2118 C2119 1.367 . S
C2119 C2118 1.367 . S
C2119 C2121 1.433 . S
C2120 C2116 1.350 . S
C2120 C2117 1.463 . S
C2120 N2124 1.427 . S
C2121 H2111 0.929 . S
C2121 C2119 1.433 . S
C2121 N2124 1.384 . S
C2122 H2113 0.929 . S
C2122 C2114 1.378 . S
C2122 C2117 1.350 . S
C2123 H2110 0.929 . S
C2123 C2115 1.433 . S
C2123 N2125 1.384 . S
N2124 C2120 1.427 . S
N2124 C2121 1.384 . S
N2125 C2117 1.427 . S
N2125 C2123 1.384 . S
H2126 C2132 0.930 . S
H2127 C2136 0.930 . S
H2128 C2141 0.929 . S
H2129 C2139 0.929 . S
H2130 C2134 0.929 . S
H2131 C2140 0.929 . S
C2132 H2126 0.930 . S
C2132 C2133 1.367 . S
C2132 C2140 1.378 . S
C2133 C2132 1.367 . S
C2133 C2141 1.433 . S
C2134 H2130 0.929 . S
C2134 C2136 1.378 . S
C2134 C2138 1.350 . S
C2135 C2138 1.463 . S
C2135 C2140 1.350 . S
C2135 N2143 1.427 . S
C2136 H2127 0.930 . S
C2136 C2134 1.378 . S
C2136 C2137 1.367 . S
C2137 C2136 1.367 . S
C2137 C2139 1.433 . S
C2138 C2134 1.350 . S
C2138 C2135 1.463 . S
C2138 N2142 1.427 . S
C2139 H2129 0.929 . S
C2139 C2137 1.433 . S
C2139 N2142 1.384 . S
C2140 H2131 0.929 . S
C2140 C2132 1.378 . S
C2140 C2135 1.350 . S
C2141 H2128 0.929 . S
C2141 C2133 1.433 . S
C2141 N2143 1.384 . S
N2142 C2138 1.427 . S
N2142 C2139 1.384 . S
N2143 C2135 1.427 . S
N2143 C2141 1.384 . S
H2144 C2150 0.930 . S
H2145 C2154 0.930 . S
H2146 C2159 0.929 . S
H2147 C2157 0.929 . S
H2148 C2152 0.929 . S
H2149 C2158 0.929 . S
C2150 H2144 0.930 . S
C2150 C2151 1.367 . S
C2150 C2158 1.378 . S
C2151 C2150 1.367 . S
C2151 C2159 1.433 . S
C2152 H2148 0.929 . S
C2152 C2154 1.378 . S
C2152 C2156 1.350 . S
C2153 C2156 1.463 . S
C2153 C2158 1.350 . S
C2153 N2161 1.427 . S
C2154 H2145 0.930 . S
C2154 C2152 1.378 . S
C2154 C2155 1.367 . S
C2155 C2154 1.367 . S
C2155 C2157 1.433 . S
C2156 C2152 1.350 . S
C2156 C2153 1.463 . S
C2156 N2160 1.427 . S
C2157 H2147 0.929 . S
C2157 C2155 1.433 . S
C2157 N2160 1.384 . S
C2158 H2149 0.929 . S
C2158 C2150 1.378 . S
C2158 C2153 1.350 . S
C2159 H2146 0.929 . S
C2159 C2151 1.433 . S
C2159 N2161 1.384 . S
N2160 C2156 1.427 . S
N2160 C2157 1.384 . S
N2161 C2153 1.427 . S
N2161 C2159 1.384 . S
H2162 C2168 0.930 . S
H2163 C2172 0.930 . S
H2164 C2177 0.929 . S
H2165 C2175 0.929 . S
H2166 C2170 0.929 . S
H2167 C2176 0.929 . S
C2168 H2162 0.930 . S
C2168 C2169 1.367 . S
C2168 C2176 1.378 . S
C2169 C2168 1.367 . S
C2169 C2177 1.433 . S
C2170 H2166 0.929 . S
C2170 C2172 1.378 . S
C2170 C2174 1.350 . S
C2171 C2174 1.463 . S
C2171 C2176 1.350 . S
C2171 N2179 1.427 . S
C2172 H2163 0.930 . S
C2172 C2170 1.378 . S
C2172 C2173 1.367 . S
C2173 C2172 1.367 . S
C2173 C2175 1.433 . S
C2174 C2170 1.350 . S
C2174 C2171 1.463 . S
C2174 N2178 1.427 . S
C2175 H2165 0.929 . S
C2175 C2173 1.433 . S
C2175 N2178 1.384 . S
C2176 H2167 0.929 . S
C2176 C2168 1.378 . S
C2176 C2171 1.350 . S
C2177 H2164 0.929 . S
C2177 C2169 1.433 . S
C2177 N2179 1.384 . S
N2178 C2174 1.427 . S
N2178 C2175 1.384 . S
N2179 C2171 1.427 . S
N2179 C2177 1.384 . S
H2180 C2186 0.930 . S
H2181 C2190 0.930 . S
H2182 C2195 0.929 . S
H2183 C2193 0.929 . S
H2184 C2188 0.929 . S
H2185 C2194 0.929 . S
C2186 H2180 0.930 . S
C2186 C2187 1.367 . S
C2186 C2194 1.378 . S
C2187 C2186 1.367 . S
C2187 C2195 1.433 . S
C2188 H2184 0.929 . S
C2188 C2190 1.378 . S
C2188 C2192 1.350 . S
C2189 C2192 1.463 . S
C2189 C2194 1.350 . S
C2189 N2197 1.427 . S
C2190 H2181 0.930 . S
C2190 C2188 1.378 . S
C2190 C2191 1.367 . S
C2191 C2190 1.367 . S
C2191 C2193 1.433 . S
C2192 C2188 1.350 . S
C2192 C2189 1.463 . S
C2192 N2196 1.427 . S
C2193 H2183 0.929 . S
C2193 C2191 1.433 . S
C2193 N2196 1.384 . S
C2194 H2185 0.929 . S
C2194 C2186 1.378 . S
C2194 C2189 1.350 . S
C2195 H2182 0.929 . S
C2195 C2187 1.433 . S
C2195 N2197 1.384 . S
N2196 C2192 1.427 . S
N2196 C2193 1.384 . S
N2197 C2189 1.427 . S
N2197 C2195 1.384 . S
H2198 C2204 0.930 . S
H2199 C2208 0.930 . S
H2200 C2213 0.929 . S
H2201 C2211 0.929 . S
H2202 C2206 0.929 . S
H2203 C2212 0.929 . S
C2204 H2198 0.930 . S
C2204 C2205 1.367 . S
C2204 C2212 1.378 . S
C2205 C2204 1.367 . S
C2205 C2213 1.433 . S
C2206 H2202 0.929 . S
C2206 C2208 1.378 . S
C2206 C2210 1.350 . S
C2207 C2210 1.463 . S
C2207 C2212 1.350 . S
C2207 N2215 1.427 . S
C2208 H2199 0.930 . S
C2208 C2206 1.378 . S
C2208 C2209 1.367 . S
C2209 C2208 1.367 . S
C2209 C2211 1.433 . S
C2210 C2206 1.350 . S
C2210 C2207 1.463 . S
C2210 N2214 1.427 . S
C2211 H2201 0.929 . S
C2211 C2209 1.433 . S
C2211 N2214 1.384 . S
C2212 H2203 0.929 . S
C2212 C2204 1.378 . S
C2212 C2207 1.350 . S
C2213 H2200 0.929 . S
C2213 C2205 1.433 . S
C2213 N2215 1.384 . S
N2214 C2210 1.427 . S
N2214 C2211 1.384 . S
N2215 C2207 1.427 . S
N2215 C2213 1.384 . S
H2216 C2222 0.930 . S
H2217 C2226 0.930 . S
H2218 C2231 0.929 . S
H2219 C2229 0.929 . S
H2220 C2224 0.929 . S
H2221 C2230 0.929 . S
C2222 H2216 0.930 . S
C2222 C2223 1.367 . S
C2222 C2230 1.378 . S
C2223 C2222 1.367 . S
C2223 C2231 1.433 . S
C2224 H2220 0.929 . S
C2224 C2226 1.378 . S
C2224 C2228 1.350 . S
C2225 C2228 1.463 . S
C2225 C2230 1.350 . S
C2225 N2233 1.427 . S
C2226 H2217 0.930 . S
C2226 C2224 1.378 . S
C2226 C2227 1.367 . S
C2227 C2226 1.367 . S
C2227 C2229 1.433 . S
C2228 C2224 1.350 . S
C2228 C2225 1.463 . S
C2228 N2232 1.427 . S
C2229 H2219 0.929 . S
C2229 C2227 1.433 . S
C2229 N2232 1.384 . S
C2230 H2221 0.929 . S
C2230 C2222 1.378 . S
C2230 C2225 1.350 . S
C2231 H2218 0.929 . S
C2231 C2223 1.433 . S
C2231 N2233 1.384 . S
N2232 C2228 1.427 . S
N2232 C2229 1.384 . S
N2233 C2225 1.427 . S
N2233 C2231 1.384 . S
H2234 C2240 0.930 . S
H2235 C2244 0.930 . S
H2236 C2249 0.929 . S
H2237 C2247 0.929 . S
H2238 C2242 0.929 . S
H2239 C2248 0.929 . S
C2240 H2234 0.930 . S
C2240 C2241 1.367 . S
C2240 C2248 1.378 . S
C2241 C2240 1.367 . S
C2241 C2249 1.433 . S
C2242 H2238 0.929 . S
C2242 C2244 1.378 . S
C2242 C2246 1.350 . S
C2243 C2246 1.463 . S
C2243 C2248 1.350 . S
C2243 N2251 1.427 . S
C2244 H2235 0.930 . S
C2244 C2242 1.378 . S
C2244 C2245 1.367 . S
C2245 C2244 1.367 . S
C2245 C2247 1.433 . S
C2246 C2242 1.350 . S
C2246 C2243 1.463 . S
C2246 N2250 1.427 . S
C2247 H2237 0.929 . S
C2247 C2245 1.433 . S
C2247 N2250 1.384 . S
C2248 H2239 0.929 . S
C2248 C2240 1.378 . S
C2248 C2243 1.350 . S
C2249 H2236 0.929 . S
C2249 C2241 1.433 . S
C2249 N2251 1.384 . S
N2250 C2246 1.427 . S
N2250 C2247 1.384 . S
N2251 C2243 1.427 . S
N2251 C2249 1.384 . S
H2252 C2258 0.930 . S
H2253 C2262 0.930 . S
H2254 C2267 0.929 . S
H2255 C2265 0.929 . S
H2256 C2260 0.929 . S
H2257 C2266 0.929 . S
C2258 H2252 0.930 . S
C2258 C2259 1.367 . S
C2258 C2266 1.378 . S
C2259 C2258 1.367 . S
C2259 C2267 1.433 . S
C2260 H2256 0.929 . S
C2260 C2262 1.378 . S
C2260 C2264 1.350 . S
C2261 C2264 1.463 . S
C2261 C2266 1.350 . S
C2261 N2269 1.427 . S
C2262 H2253 0.930 . S
C2262 C2260 1.378 . S
C2262 C2263 1.367 . S
C2263 C2262 1.367 . S
C2263 C2265 1.433 . S
C2264 C2260 1.350 . S
C2264 C2261 1.463 . S
C2264 N2268 1.427 . S
C2265 H2255 0.929 . S
C2265 C2263 1.433 . S
C2265 N2268 1.384 . S
C2266 H2257 0.929 . S
C2266 C2258 1.378 . S
C2266 C2261 1.350 . S
C2267 H2254 0.929 . S
C2267 C2259 1.433 . S
C2267 N2269 1.384 . S
N2268 C2264 1.427 . S
N2268 C2265 1.384 . S
N2269 C2261 1.427 . S
N2269 C2267 1.384 . S
H2270 C2276 0.930 . S
H2271 C2280 0.930 . S
H2272 C2285 0.929 . S
H2273 C2283 0.929 . S
H2274 C2278 0.929 . S
H2275 C2284 0.929 . S
C2276 H2270 0.930 . S
C2276 C2277 1.367 . S
C2276 C2284 1.378 . S
C2277 C2276 1.367 . S
C2277 C2285 1.433 . S
C2278 H2274 0.929 . S
C2278 C2280 1.378 . S
C2278 C2282 1.350 . S
C2279 C2282 1.463 . S
C2279 C2284 1.350 . S
C2279 N2287 1.427 . S
C2280 H2271 0.930 . S
C2280 C2278 1.378 . S
C2280 C2281 1.367 . S
C2281 C2280 1.367 . S
C2281 C2283 1.433 . S
C2282 C2278 1.350 . S
C2282 C2279 1.463 . S
C2282 N2286 1.427 . S
C2283 H2273 0.929 . S
C2283 C2281 1.433 . S
C2283 N2286 1.384 . S
C2284 H2275 0.929 . S
C2284 C2276 1.378 . S
C2284 C2279 1.350 . S
C2285 H2272 0.929 . S
C2285 C2277 1.433 . S
C2285 N2287 1.384 . S
N2286 C2282 1.427 . S
N2286 C2283 1.384 . S
N2287 C2279 1.427 . S
N2287 C2285 1.384 . S
H2288 C2294 0.930 . S
H2289 C2298 0.930 . S
H2290 C2303 0.929 . S
H2291 C2301 0.929 . S
H2292 C2296 0.929 . S
H2293 C2302 0.929 . S
C2294 H2288 0.930 . S
C2294 C2295 1.367 1_565 S
C2294 C2302 1.378 . S
C2295 C2294 1.367 1_545 S
C2295 C2303 1.433 . S
C2296 H2292 0.929 . S
C2296 C2298 1.378 . S
C2296 C2300 1.350 1_545 S
C2297 C2300 1.463 . S
C2297 C2302 1.350 . S
C2297 N2305 1.427 1_565 S
C2298 H2289 0.930 . S
C2298 C2296 1.378 . S
C2298 C2299 1.367 1_545 S
C2299 C2298 1.367 1_565 S
C2299 C2301 1.433 . S
C2300 C2296 1.350 1_565 S
C2300 C2297 1.463 . S
C2300 N2304 1.427 . S
C2301 H2291 0.929 . S
C2301 C2299 1.433 . S
C2301 N2304 1.384 . S
C2302 H2293 0.929 . S
C2302 C2294 1.378 . S
C2302 C2297 1.350 . S
C2303 H2290 0.929 . S
C2303 C2295 1.433 . S
C2303 N2305 1.384 . S
N2304 C2300 1.427 . S
N2304 C2301 1.384 . S
N2305 C2297 1.427 1_545 S
N2305 C2303 1.384 . S
H2306 C2312 0.930 . S
H2307 C2316 0.930 . S
H2308 C2321 0.929 . S
H2309 C2319 0.929 . S
H2310 C2314 0.929 . S
H2311 C2320 0.929 . S
C2312 H2306 0.930 . S
C2312 C2313 1.367 . S
C2312 C2320 1.378 . S
C2313 C2312 1.367 . S
C2313 C2321 1.433 . S
C2314 H2310 0.929 . S
C2314 C2316 1.378 . S
C2314 C2318 1.350 . S
C2315 C2318 1.463 . S
C2315 C2320 1.350 . S
C2315 N2323 1.427 . S
C2316 H2307 0.930 . S
C2316 C2314 1.378 . S
C2316 C2317 1.367 . S
C2317 C2316 1.367 . S
C2317 C2319 1.433 . S
C2318 C2314 1.350 . S
C2318 C2315 1.463 . S
C2318 N2322 1.427 . S
C2319 H2309 0.929 . S
C2319 C2317 1.433 . S
C2319 N2322 1.384 . S
C2320 H2311 0.929 . S
C2320 C2312 1.378 . S
C2320 C2315 1.350 . S
C2321 H2308 0.929 . S
C2321 C2313 1.433 . S
C2321 N2323 1.384 . S
N2322 C2318 1.427 . S
N2322 C2319 1.384 . S
N2323 C2315 1.427 . S
N2323 C2321 1.384 . S
H2324 C2330 0.930 . S
H2325 C2334 0.930 . S
H2326 C2339 0.929 . S
H2327 C2337 0.929 . S
H2328 C2332 0.929 . S
H2329 C2338 0.929 . S
C2330 H2324 0.930 . S
C2330 C2331 1.367 . S
C2330 C2338 1.378 . S
C2331 C2330 1.367 . S
C2331 C2339 1.433 . S
C2332 H2328 0.929 . S
C2332 C2334 1.378 . S
C2332 C2336 1.350 . S
C2333 C2336 1.463 . S
C2333 C2338 1.350 . S
C2333 N2341 1.427 . S
C2334 H2325 0.930 . S
C2334 C2332 1.378 . S
C2334 C2335 1.367 . S
C2335 C2334 1.367 . S
C2335 C2337 1.433 . S
C2336 C2332 1.350 . S
C2336 C2333 1.463 . S
C2336 N2340 1.427 . S
C2337 H2327 0.929 . S
C2337 C2335 1.433 . S
C2337 N2340 1.384 . S
C2338 H2329 0.929 . S
C2338 C2330 1.378 . S
C2338 C2333 1.350 . S
C2339 H2326 0.929 . S
C2339 C2331 1.433 . S
C2339 N2341 1.384 . S
N2340 C2336 1.427 . S
N2340 C2337 1.384 . S
N2341 C2333 1.427 . S
N2341 C2339 1.384 . S
H2342 C2348 0.930 . S
H2343 C2352 0.930 . S
H2344 C2357 0.929 . S
H2345 C2355 0.929 . S
H2346 C2350 0.929 . S
H2347 C2356 0.929 . S
C2348 H2342 0.930 . S
C2348 C2349 1.367 . S
C2348 C2356 1.378 . S
C2349 C2348 1.367 . S
C2349 C2357 1.442 . S
C2350 H2346 0.929 . S
C2350 C2352 1.378 . S
C2350 C2354 1.350 . S
C2351 C2354 1.463 . S
C2351 C2356 1.350 1_565 S
C2351 N2359 1.427 . S
C2352 H2343 0.930 . S
C2352 C2350 1.378 . S
C2352 C2353 1.367 . S
C2353 C2352 1.367 . S
C2353 C2355 1.433 . S
C2354 C2350 1.350 . S
C2354 C2351 1.463 . S
C2354 N2358 1.427 . S
C2355 H2345 0.929 . S
C2355 C2353 1.433 . S
C2355 N2358 1.384 . S
C2356 H2347 0.929 . S
C2356 C2348 1.378 . S
C2356 C2351 1.350 1_545 S
C2357 H2344 0.929 . S
C2357 C2349 1.442 . S
C2357 N2359 1.377 1_545 S
N2358 C2354 1.427 . S
N2358 C2355 1.384 . S
N2359 C2351 1.427 . S
N2359 C2357 1.377 1_565 S
H2360 C2366 0.930 . S
H2361 C2370 0.930 . S
H2362 C2375 0.929 . S
H2363 C2373 0.929 . S
H2364 C2368 0.929 . S
H2365 C2374 0.929 . S
C2366 H2360 0.930 . S
C2366 C2367 1.367 1_545 S
C2366 C2374 1.378 . S
C2367 C2366 1.367 1_565 S
C2367 C2375 1.433 . S
C2368 H2364 0.929 . S
C2368 C2370 1.378 . S
C2368 C2372 1.350 1_565 S
C2369 C2372 1.463 . S
C2369 C2374 1.350 . S
C2369 N2377 1.427 1_545 S
C2370 H2361 0.930 . S
C2370 C2368 1.378 . S
C2370 C2371 1.367 1_565 S
C2371 C2370 1.367 1_545 S
C2371 C2373 1.433 . S
C2372 C2368 1.350 1_545 S
C2372 C2369 1.463 . S
C2372 N2376 1.427 . S
C2373 H2363 0.929 . S
C2373 C2371 1.433 . S
C2373 N2376 1.384 . S
C2374 H2365 0.929 . S
C2374 C2366 1.378 . S
C2374 C2369 1.350 . S
C2375 H2362 0.929 . S
C2375 C2367 1.433 . S
C2375 N2377 1.384 . S
N2376 C2372 1.427 . S
N2376 C2373 1.384 . S
N2377 C2369 1.427 1_565 S
N2377 C2375 1.384 . S
H2378 C2384 0.930 . S
H2379 C2388 0.930 . S
H2380 C2393 0.929 . S
H2381 C2391 0.929 . S
H2382 C2386 0.929 . S
H2383 C2392 0.929 . S
C2384 H2378 0.930 . S
C2384 C2385 1.367 . S
C2384 C2392 1.378 . S
C2385 C2384 1.367 . S
C2385 C2393 1.433 . S
C2386 H2382 0.929 . S
C2386 C2388 1.378 . S
C2386 C2390 1.350 . S
C2387 C2390 1.463 . S
C2387 C2392 1.350 . S
C2387 N2395 1.427 . S
C2388 H2379 0.930 . S
C2388 C2386 1.378 . S
C2388 C2389 1.367 . S
C2389 C2388 1.367 . S
C2389 C2391 1.433 . S
C2390 C2386 1.350 . S
C2390 C2387 1.463 . S
C2390 N2394 1.427 . S
C2391 H2381 0.929 . S
C2391 C2389 1.433 . S
C2391 N2394 1.384 . S
C2392 H2383 0.929 . S
C2392 C2384 1.378 . S
C2392 C2387 1.350 . S
C2393 H2380 0.929 . S
C2393 C2385 1.433 . S
C2393 N2395 1.384 . S
N2394 C2390 1.427 . S
N2394 C2391 1.384 . S
N2395 C2387 1.427 . S
N2395 C2393 1.384 . S
H2396 C2402 0.930 . S
H2397 C2406 0.930 . S
H2398 C2411 0.929 . S
H2399 C2409 0.929 . S
H2400 C2404 0.929 . S
H2401 C2410 0.929 . S
C2402 H2396 0.930 . S
C2402 C2403 1.367 . S
C2402 C2410 1.378 . S
C2403 C2402 1.367 . S
C2403 C2411 1.433 . S
C2404 H2400 0.929 . S
C2404 C2406 1.378 . S
C2404 C2408 1.350 . S
C2405 C2408 1.463 . S
C2405 C2410 1.350 . S
C2405 N2413 1.427 . S
C2406 H2397 0.930 . S
C2406 C2404 1.378 . S
C2406 C2407 1.367 . S
C2407 C2406 1.367 . S
C2407 C2409 1.433 . S
C2408 C2404 1.350 . S
C2408 C2405 1.463 . S
C2408 N2412 1.427 . S
C2409 H2399 0.929 . S
C2409 C2407 1.433 . S
C2409 N2412 1.384 . S
C2410 H2401 0.929 . S
C2410 C2402 1.378 . S
C2410 C2405 1.350 . S
C2411 H2398 0.929 . S
C2411 C2403 1.433 . S
C2411 N2413 1.384 . S
N2412 C2408 1.427 . S
N2412 C2409 1.384 . S
N2413 C2405 1.427 . S
N2413 C2411 1.384 . S
H2414 C2420 0.930 . S
H2415 C2424 0.930 . S
H2416 C2429 0.929 . S
H2417 C2427 0.929 . S
H2418 C2422 0.929 . S
H2419 C2428 0.929 . S
C2420 H2414 0.930 . S
C2420 C2421 1.367 . S
C2420 C2428 1.378 . S
C2421 C2420 1.367 . S
C2421 C2429 1.433 1_565 S
C2422 H2418 0.929 . S
C2422 C2424 1.378 . S
C2422 C2426 1.350 . S
C2423 C2426 1.463 . S
C2423 C2428 1.350 1_545 S
C2423 N2431 1.427 . S
C2424 H2415 0.930 . S
C2424 C2422 1.378 . S
C2424 C2425 1.367 . S
C2425 C2424 1.367 . S
C2425 C2427 1.433 . S
C2426 C2422 1.350 . S
C2426 C2423 1.463 . S
C2426 N2430 1.441 . S
C2427 H2417 0.929 . S
C2427 C2425 1.433 . S
C2427 N2430 1.393 . S
C2428 H2419 0.929 . S
C2428 C2420 1.378 . S
C2428 C2423 1.350 1_565 S
C2429 H2416 0.929 . S
C2429 C2421 1.433 1_545 S
C2429 N2431 1.384 . S
N2430 C2426 1.441 . S
N2430 C2427 1.393 . S
N2431 C2423 1.427 . S
N2431 C2429 1.384 . S
H2432 C2438 0.930 . S
H2433 C2442 0.930 . S
H2434 C2447 0.929 . S
H2435 C2445 0.929 . S
H2436 C2440 0.929 1_455 S
H2437 C2446 0.929 . S
C2438 H2432 0.930 . S
C2438 C2439 1.367 . S
C2438 C2446 1.378 . S
C2439 C2438 1.367 . S
C2439 C2447 1.433 . S
C2440 H2436 0.929 1_655 S
C2440 C2442 1.378 . S
C2440 C2444 1.350 1_655 S
C2441 C2444 1.463 . S
C2441 C2446 1.350 . S
C2441 N2449 1.427 . S
C2442 H2433 0.930 . S
C2442 C2440 1.378 . S
C2442 C2443 1.367 . S
C2443 C2442 1.367 . S
C2443 C2445 1.433 . S
C2444 C2440 1.350 1_455 S
C2444 C2441 1.463 . S
C2444 N2448 1.427 1_455 S
C2445 H2435 0.929 . S
C2445 C2443 1.433 . S
C2445 N2448 1.384 . S
C2446 H2437 0.929 . S
C2446 C2438 1.378 . S
C2446 C2441 1.350 . S
C2447 H2434 0.929 . S
C2447 C2439 1.433 . S
C2447 N2449 1.384 . S
N2448 C2444 1.427 1_655 S
N2448 C2445 1.384 . S
N2449 C2441 1.427 . S
N2449 C2447 1.384 . S
H2450 C2456 0.930 . S
H2451 C2460 0.930 . S
H2452 C2465 0.929 . S
H2453 C2463 0.929 . S
H2454 C2458 0.929 . S
H2455 C2464 0.929 . S
C2456 H2450 0.930 . S
C2456 C2457 1.367 . S
C2456 C2464 1.378 . S
C2457 C2456 1.367 . S
C2457 C2465 1.433 . S
C2458 H2454 0.929 . S
C2458 C2460 1.378 . S
C2458 C2462 1.350 . S
C2459 C2462 1.463 . S
C2459 C2464 1.350 . S
C2459 N2467 1.427 . S
C2460 H2451 0.930 . S
C2460 C2458 1.378 . S
C2460 C2461 1.367 . S
C2461 C2460 1.367 . S
C2461 C2463 1.433 . S
C2462 C2458 1.350 . S
C2462 C2459 1.463 . S
C2462 N2466 1.427 . S
C2463 H2453 0.929 . S
C2463 C2461 1.433 . S
C2463 N2466 1.384 . S
C2464 H2455 0.929 . S
C2464 C2456 1.378 . S
C2464 C2459 1.350 . S
C2465 H2452 0.929 . S
C2465 C2457 1.433 . S
C2465 N2467 1.384 . S
N2466 C2462 1.427 . S
N2466 C2463 1.384 . S
N2467 C2459 1.427 . S
N2467 C2465 1.384 . S
H2468 C2474 0.930 . S
H2469 C2478 0.930 . S
H2470 C2483 0.929 . S
H2471 C2481 0.929 . S
H2472 C2476 0.929 . S
H2473 C2482 0.929 . S
C2474 H2468 0.930 . S
C2474 C2475 1.367 . S
C2474 C2482 1.378 . S
C2475 C2474 1.367 . S
C2475 C2483 1.433 . S
C2476 H2472 0.929 . S
C2476 C2478 1.378 . S
C2476 C2480 1.350 . S
C2477 C2480 1.463 . S
C2477 C2482 1.350 1_455 S
C2477 N2485 1.427 1_455 S
C2478 H2469 0.930 . S
C2478 C2476 1.378 . S
C2478 C2479 1.367 . S
C2479 C2478 1.367 . S
C2479 C2481 1.433 . S
C2480 C2476 1.350 . S
C2480 C2477 1.463 . S
C2480 N2484 1.427 . S
C2481 H2471 0.929 . S
C2481 C2479 1.433 . S
C2481 N2484 1.384 . S
C2482 H2473 0.929 . S
C2482 C2474 1.378 . S
C2482 C2477 1.350 1_655 S
C2483 H2470 0.929 . S
C2483 C2475 1.433 . S
C2483 N2485 1.384 . S
N2484 C2480 1.427 . S
N2484 C2481 1.384 . S
N2485 C2477 1.427 1_655 S
N2485 C2483 1.384 . S
H2486 C2492 0.930 . S
H2487 C2496 0.930 . S
H2488 C2501 0.929 . S
H2489 C2499 0.929 . S
H2490 C2494 0.929 . S
H2491 C2500 0.929 . S
C2492 H2486 0.930 . S
C2492 C2493 1.367 . S
C2492 C2500 1.378 . S
C2493 C2492 1.367 . S
C2493 C2501 1.433 . S
C2494 H2490 0.929 . S
C2494 C2496 1.378 . S
C2494 C2498 1.350 . S
C2495 C2498 1.463 . S
C2495 C2500 1.350 . S
C2495 N2503 1.427 . S
C2496 H2487 0.930 . S
C2496 C2494 1.378 . S
C2496 C2497 1.367 . S
C2497 C2496 1.367 . S
C2497 C2499 1.433 . S
C2498 C2494 1.350 . S
C2498 C2495 1.463 . S
C2498 N2502 1.427 . S
C2499 H2489 0.929 . S
C2499 C2497 1.433 . S
C2499 N2502 1.384 . S
C2500 H2491 0.929 . S
C2500 C2492 1.378 . S
C2500 C2495 1.350 . S
C2501 H2488 0.929 . S
C2501 C2493 1.433 . S
C2501 N2503 1.384 . S
N2502 C2498 1.427 . S
N2502 C2499 1.384 . S
N2503 C2495 1.427 . S
N2503 C2501 1.384 . S
H2504 C2510 0.930 . S
H2505 C2514 0.930 . S
H2506 C2519 0.929 . S
H2507 C2517 0.929 . S
H2508 C2512 0.920 1_655 S
H2509 C2518 0.929 . S
C2510 H2504 0.930 . S
C2510 C2511 1.367 . S
C2510 C2518 1.378 . S
C2511 C2510 1.367 . S
C2511 C2519 1.433 . S
C2512 H2508 0.920 1_455 S
C2512 C2514 1.378 . S
C2512 C2516 1.350 1_455 S
C2513 C2516 1.463 . S
C2513 C2518 1.350 . S
C2513 N2521 1.427 . S
C2514 H2505 0.930 . S
C2514 C2512 1.378 . S
C2514 C2515 1.367 . S
C2515 C2514 1.367 . S
C2515 C2517 1.433 . S
C2516 C2512 1.350 1_655 S
C2516 C2513 1.463 . S
C2516 N2520 1.427 1_655 S
C2517 H2507 0.929 . S
C2517 C2515 1.433 . S
C2517 N2520 1.384 . S
C2518 H2509 0.929 . S
C2518 C2510 1.378 . S
C2518 C2513 1.350 . S
C2519 H2506 0.929 . S
C2519 C2511 1.433 . S
C2519 N2521 1.384 . S
N2520 C2516 1.427 1_455 S
N2520 C2517 1.384 . S
N2521 C2513 1.427 . S
N2521 C2519 1.384 . S
H2522 C2528 0.930 . S
H2523 C2532 0.930 . S
H2524 C2537 0.929 . S
H2525 C2535 0.929 . S
H2526 C2530 0.929 . S
H2527 C2536 0.929 . S
C2528 H2522 0.930 . S
C2528 C2529 1.367 . S
C2528 C2536 1.378 . S
C2529 C2528 1.367 . S
C2529 C2537 1.433 . S
C2530 H2526 0.929 . S
C2530 C2532 1.378 . S
C2530 C2534 1.350 . S
C2531 C2534 1.463 . S
C2531 C2536 1.350 . S
C2531 N2539 1.427 . S
C2532 H2523 0.930 . S
C2532 C2530 1.378 . S
C2532 C2533 1.367 . S
C2533 C2532 1.367 . S
C2533 C2535 1.433 . S
C2534 C2530 1.350 . S
C2534 C2531 1.463 . S
C2534 N2538 1.427 . S
C2535 H2525 0.929 . S
C2535 C2533 1.433 . S
C2535 N2538 1.384 . S
C2536 H2527 0.929 . S
C2536 C2528 1.378 . S
C2536 C2531 1.350 . S
C2537 H2524 0.929 . S
C2537 C2529 1.433 . S
C2537 N2539 1.384 . S
N2538 C2534 1.427 . S
N2538 C2535 1.384 . S
N2539 C2531 1.427 . S
N2539 C2537 1.384 . S
H2540 C2546 0.930 . S
H2541 C2550 0.930 . S
H2542 C2555 0.929 . S
H2543 C2553 0.929 . S
H2544 C2548 0.929 . S
H2545 C2554 0.929 . S
C2546 H2540 0.930 . S
C2546 C2547 1.367 . S
C2546 C2554 1.378 . S
C2547 C2546 1.367 . S
C2547 C2555 1.433 . S
C2548 H2544 0.929 . S
C2548 C2550 1.378 . S
C2548 C2552 1.350 . S
C2549 C2552 1.463 . S
C2549 C2554 1.350 1_655 S
C2549 N2557 1.427 1_655 S
C2550 H2541 0.930 . S
C2550 C2548 1.378 . S
C2550 C2551 1.367 . S
C2551 C2550 1.367 . S
C2551 C2553 1.433 . S
C2552 C2548 1.350 . S
C2552 C2549 1.463 . S
C2552 N2556 1.427 . S
C2553 H2543 0.929 . S
C2553 C2551 1.433 . S
C2553 N2556 1.384 . S
C2554 H2545 0.929 . S
C2554 C2546 1.378 . S
C2554 C2549 1.350 1_455 S
C2555 H2542 0.929 . S
C2555 C2547 1.433 . S
C2555 N2557 1.384 . S
N2556 C2552 1.427 . S
N2556 C2553 1.384 . S
N2557 C2549 1.427 1_455 S
N2557 C2555 1.384 . S
H2558 C2564 0.930 . S
H2559 C2568 0.930 . S
H2560 C2573 0.929 . S
H2561 C2571 0.929 . S
H2562 C2566 0.929 . S
H2563 C2572 0.929 . S
C2564 H2558 0.930 . S
C2564 C2565 1.367 . S
C2564 C2572 1.378 . S
C2565 C2564 1.367 . S
C2565 C2573 1.433 . S
C2566 H2562 0.929 . S
C2566 C2568 1.378 . S
C2566 C2570 1.350 . S
C2567 C2570 1.463 . S
C2567 C2572 1.350 . S
C2567 N2575 1.427 . S
C2568 H2559 0.930 . S
C2568 C2566 1.378 . S
C2568 C2569 1.367 . S
C2569 C2568 1.367 . S
C2569 C2571 1.433 . S
C2570 C2566 1.350 . S
C2570 C2567 1.463 . S
C2570 N2574 1.427 . S
C2571 H2561 0.929 . S
C2571 C2569 1.433 . S
C2571 N2574 1.384 . S
C2572 H2563 0.929 . S
C2572 C2564 1.378 . S
C2572 C2567 1.350 . S
C2573 H2560 0.929 . S
C2573 C2565 1.433 . S
C2573 N2575 1.384 . S
N2574 C2570 1.427 . S
N2574 C2571 1.384 . S
N2575 C2567 1.427 . S
N2575 C2573 1.384 . S
H2576 C2582 0.930 . S
H2577 C2586 0.930 . S
H2578 C2591 0.929 . S
H2579 C2589 0.929 . S
H2580 C2584 0.929 . S
H2581 C2590 0.929 . S
C2582 H2576 0.930 . S
C2582 C2583 1.367 1_565 S
C2582 C2590 1.378 . S
C2583 C2582 1.367 1_545 S
C2583 C2591 1.433 . S
C2584 H2580 0.929 . S
C2584 C2586 1.378 . S
C2584 C2588 1.350 1_545 S
C2585 C2588 1.463 . S
C2585 C2590 1.350 1_455 S
C2585 N2593 1.427 1_465 S
C2586 H2577 0.930 . S
C2586 C2584 1.378 . S
C2586 C2587 1.367 1_545 S
C2587 C2586 1.367 1_565 S
C2587 C2589 1.433 . S
C2588 C2584 1.350 1_565 S
C2588 C2585 1.463 . S
C2588 N2592 1.427 . S
C2589 H2579 0.929 . S
C2589 C2587 1.433 . S
C2589 N2592 1.384 . S
C2590 H2581 0.929 . S
C2590 C2582 1.378 . S
C2590 C2585 1.350 1_655 S
C2591 H2578 0.929 . S
C2591 C2583 1.433 . S
C2591 N2593 1.384 . S
N2592 C2588 1.427 . S
N2592 C2589 1.384 . S
N2593 C2585 1.427 1_645 S
N2593 C2591 1.384 . S
H2594 C2600 0.930 . S
H2595 C2604 0.930 . S
H2596 C2609 0.929 . S
H2597 C2607 0.929 . S
H2598 C2602 0.929 . S
H2599 C2608 0.929 . S
C2600 H2594 0.930 . S
C2600 C2601 1.367 . S
C2600 C2608 1.378 . S
C2601 C2600 1.367 . S
C2601 C2609 1.433 . S
C2602 H2598 0.929 . S
C2602 C2604 1.378 . S
C2602 C2606 1.350 . S
C2603 C2606 1.463 . S
C2603 C2608 1.350 . S
C2603 N2611 1.427 . S
C2604 H2595 0.930 . S
C2604 C2602 1.378 . S
C2604 C2605 1.367 . S
C2605 C2604 1.367 . S
C2605 C2607 1.433 . S
C2606 C2602 1.350 . S
C2606 C2603 1.463 . S
C2606 N2610 1.427 . S
C2607 H2597 0.929 . S
C2607 C2605 1.433 . S
C2607 N2610 1.384 . S
C2608 H2599 0.929 . S
C2608 C2600 1.378 . S
C2608 C2603 1.350 . S
C2609 H2596 0.929 . S
C2609 C2601 1.433 . S
C2609 N2611 1.384 . S
N2610 C2606 1.427 . S
N2610 C2607 1.384 . S
N2611 C2603 1.427 . S
N2611 C2609 1.384 . S
H2612 C2618 0.930 . S
H2613 C2622 0.930 . S
H2614 C2627 0.929 . S
H2615 C2625 0.929 . S
H2616 C2620 0.929 . S
H2617 C2626 0.929 1_455 S
C2618 H2612 0.930 . S
C2618 C2619 1.367 . S
C2618 C2626 1.378 . S
C2619 C2618 1.367 . S
C2619 C2627 1.433 . S
C2620 H2616 0.929 . S
C2620 C2622 1.378 . S
C2620 C2624 1.350 . S
C2621 C2624 1.463 . S
C2621 C2626 1.350 1_455 S
C2621 N2629 1.427 1_455 S
C2622 H2613 0.930 . S
C2622 C2620 1.378 . S
C2622 C2623 1.367 . S
C2623 C2622 1.367 . S
C2623 C2625 1.433 . S
C2624 C2620 1.350 . S
C2624 C2621 1.463 . S
C2624 N2628 1.427 . S
C2625 H2615 0.929 . S
C2625 C2623 1.433 . S
C2625 N2628 1.384 . S
C2626 H2617 0.929 1_655 S
C2626 C2618 1.378 . S
C2626 C2621 1.350 1_655 S
C2627 H2614 0.929 . S
C2627 C2619 1.433 . S
C2627 N2629 1.384 . S
N2628 C2624 1.427 . S
N2628 C2625 1.384 . S
N2629 C2621 1.427 1_655 S
N2629 C2627 1.384 . S
H2630 C2636 0.930 . S
H2631 C2640 0.930 . S
H2632 C2645 0.929 . S
H2633 C2643 0.929 . S
H2634 C2638 0.929 1_545 S
H2635 C2644 0.929 . S
C2636 H2630 0.930 . S
C2636 C2637 1.367 1_565 S
C2636 C2644 1.378 . S
C2637 C2636 1.367 1_545 S
C2637 C2645 1.433 . S
C2638 H2634 0.929 1_565 S
C2638 C2640 1.378 . S
C2638 C2642 1.350 . S
C2639 C2642 1.463 . S
C2639 C2644 1.350 . S
C2639 N2647 1.427 1_565 S
C2640 H2631 0.930 . S
C2640 C2638 1.378 . S
C2640 C2641 1.367 . S
C2641 C2640 1.367 . S
C2641 C2643 1.433 . S
C2642 C2638 1.350 . S
C2642 C2639 1.463 . S
C2642 N2646 1.427 . S
C2643 H2633 0.929 . S
C2643 C2641 1.433 . S
C2643 N2646 1.384 . S
C2644 H2635 0.929 . S
C2644 C2636 1.378 . S
C2644 C2639 1.350 . S
C2645 H2632 0.929 . S
C2645 C2637 1.433 . S
C2645 N2647 1.384 . S
N2646 C2642 1.427 . S
N2646 C2643 1.384 . S
N2647 C2639 1.427 1_545 S
N2647 C2645 1.384 . S
H2648 C2654 0.930 . S
H2649 C2658 0.930 . S
H2650 C2663 0.929 . S
H2651 C2661 0.929 . S
H2652 C2656 0.929 . S
H2653 C2662 0.929 . S
C2654 H2648 0.930 . S
C2654 C2655 1.367 1_565 S
C2654 C2662 1.378 . S
C2655 C2654 1.367 1_545 S
C2655 C2663 1.433 . S
C2656 H2652 0.929 . S
C2656 C2658 1.378 . S
C2656 C2660 1.350 1_455 S
C2657 C2660 1.463 . S
C2657 C2662 1.350 1_545 S
C2657 N2665 1.427 . S
C2658 H2649 0.930 . S
C2658 C2656 1.378 . S
C2658 C2659 1.367 1_545 S
C2659 C2658 1.367 1_565 S
C2659 C2661 1.433 . S
C2660 C2656 1.350 1_655 S
C2660 C2657 1.463 . S
C2660 N2664 1.427 1_645 S
C2661 H2651 0.929 . S
C2661 C2659 1.433 . S
C2661 N2664 1.384 . S
C2662 H2653 0.929 . S
C2662 C2654 1.378 . S
C2662 C2657 1.350 1_565 S
C2663 H2650 0.929 . S
C2663 C2655 1.433 . S
C2663 N2665 1.384 . S
N2664 C2660 1.427 1_465 S
N2664 C2661 1.384 . S
N2665 C2657 1.427 . S
N2665 C2663 1.384 . S
H2666 C2672 0.930 . S
H2667 C2676 0.930 . S
H2668 C2681 0.929 . S
H2669 C2679 0.929 . S
H2670 C2674 0.929 . S
H2671 C2680 0.929 . S
C2672 H2666 0.930 . S
C2672 C2673 1.367 . S
C2672 C2680 1.378 . S
C2673 C2672 1.367 . S
C2673 C2681 1.433 . S
C2674 H2670 0.929 . S
C2674 C2676 1.378 . S
C2674 C2678 1.350 . S
C2675 C2678 1.463 . S
C2675 C2680 1.350 . S
C2675 N2683 1.427 . S
C2676 H2667 0.930 . S
C2676 C2674 1.378 . S
C2676 C2677 1.367 . S
C2677 C2676 1.367 . S
C2677 C2679 1.433 . S
C2678 C2674 1.350 . S
C2678 C2675 1.463 . S
C2678 N2682 1.427 . S
C2679 H2669 0.929 . S
C2679 C2677 1.433 . S
C2679 N2682 1.384 . S
C2680 H2671 0.929 . S
C2680 C2672 1.378 . S
C2680 C2675 1.350 . S
C2681 H2668 0.929 . S
C2681 C2673 1.433 . S
C2681 N2683 1.384 . S
N2682 C2678 1.427 . S
N2682 C2679 1.384 . S
N2683 C2675 1.427 . S
N2683 C2681 1.384 . S
H2684 C2690 0.930 . S
H2685 C2694 0.930 . S
H2686 C2699 0.929 . S
H2687 C2697 0.929 . S
H2688 C2692 0.929 . S
H2689 C2698 0.929 . S
C2690 H2684 0.930 . S
C2690 C2691 1.367 . S
C2690 C2698 1.378 . S
C2691 C2690 1.367 . S
C2691 C2699 1.433 . S
C2692 H2688 0.929 . S
C2692 C2694 1.378 . S
C2692 C2696 1.350 . S
C2693 C2696 1.463 . S
C2693 C2698 1.350 1_655 S
C2693 N2701 1.427 1_655 S
C2694 H2685 0.930 . S
C2694 C2692 1.378 . S
C2694 C2695 1.367 . S
C2695 C2694 1.367 . S
C2695 C2697 1.433 . S
C2696 C2692 1.350 . S
C2696 C2693 1.463 . S
C2696 N2700 1.427 . S
C2697 H2687 0.929 . S
C2697 C2695 1.433 . S
C2697 N2700 1.384 . S
C2698 H2689 0.929 . S
C2698 C2690 1.378 . S
C2698 C2693 1.350 1_455 S
C2699 H2686 0.929 . S
C2699 C2691 1.433 . S
C2699 N2701 1.384 . S
N2700 C2696 1.427 . S
N2700 C2697 1.384 . S
N2701 C2693 1.427 1_455 S
N2701 C2699 1.384 . S
H2702 C2708 0.930 . S
H2703 C2712 0.930 . S
H2704 C2717 0.929 . S
H2705 C2715 0.929 . S
H2706 C2710 0.929 . S
H2707 C2716 0.929 . S
C2708 H2702 0.930 . S
C2708 C2709 1.367 . S
C2708 C2716 1.378 . S
C2709 C2708 1.367 . S
C2709 C2717 1.433 1_565 S
C2710 H2706 0.929 . S
C2710 C2712 1.378 . S
C2710 C2714 1.350 . S
C2711 C2714 1.463 . S
C2711 C2716 1.350 1_545 S
C2711 N2719 1.427 . S
C2712 H2703 0.930 . S
C2712 C2710 1.378 . S
C2712 C2713 1.367 . S
C2713 C2712 1.367 . S
C2713 C2715 1.433 1_545 S
C2714 C2710 1.350 . S
C2714 C2711 1.463 . S
C2714 N2718 1.427 1_545 S
C2715 H2705 0.929 . S
C2715 C2713 1.433 1_565 S
C2715 N2718 1.384 . S
C2716 H2707 0.929 . S
C2716 C2708 1.378 . S
C2716 C2711 1.350 1_565 S
C2717 H2704 0.929 . S
C2717 C2709 1.433 1_545 S
C2717 N2719 1.384 . S
N2718 C2714 1.427 1_565 S
N2718 C2715 1.384 . S
N2719 C2711 1.427 . S
N2719 C2717 1.384 . S
H2720 C2726 0.930 . S
H2721 C2730 0.930 . S
H2722 C2735 0.929 . S
H2723 C2733 0.929 . S
H2724 C2728 0.929 . S
H2725 C2734 0.929 . S
C2726 H2720 0.930 . S
C2726 C2727 1.367 . S
C2726 C2734 1.378 . S
C2727 C2726 1.367 . S
C2727 C2735 1.433 . S
C2728 H2724 0.929 . S
C2728 C2730 1.378 . S
C2728 C2732 1.350 . S
C2729 C2732 1.463 1_454 S
C2729 C2734 1.350 . S
C2729 N2737 1.427 . S
C2730 H2721 0.930 . S
C2730 C2728 1.378 . S
C2730 C2731 1.367 . S
C2731 C2730 1.367 . S
C2731 C2733 1.433 . S
C2732 C2728 1.350 . S
C2732 C2729 1.463 1_656 S
C2732 N2736 1.427 . S
C2733 H2723 0.929 . S
C2733 C2731 1.433 . S
C2733 N2736 1.384 . S
C2734 H2725 0.929 . S
C2734 C2726 1.378 . S
C2734 C2729 1.350 . S
C2735 H2722 0.929 . S
C2735 C2727 1.433 . S
C2735 N2737 1.384 . S
N2736 C2732 1.427 . S
N2736 C2733 1.384 . S
N2737 C2729 1.427 . S
N2737 C2735 1.384 . S
H2738 C2744 0.930 . S
H2739 C2748 0.930 . S
H2740 C2753 0.929 . S
H2741 C2751 0.929 . S
H2742 C2746 0.929 . S
H2743 C2752 0.929 . S
C2744 H2738 0.930 . S
C2744 C2745 1.367 . S
C2744 C2752 1.378 . S
C2745 C2744 1.367 . S
C2745 C2753 1.433 . S
C2746 H2742 0.929 . S
C2746 C2748 1.378 . S
C2746 C2750 1.350 . S
C2747 C2750 1.463 1_556 S
C2747 C2752 1.350 . S
C2747 N2755 1.427 . S
C2748 H2739 0.930 . S
C2748 C2746 1.378 . S
C2748 C2749 1.367 . S
C2749 C2748 1.367 . S
C2749 C2751 1.433 . S
C2750 C2746 1.350 . S
C2750 C2747 1.463 1_554 S
C2750 N2754 1.427 . S
C2751 H2741 0.929 . S
C2751 C2749 1.433 . S
C2751 N2754 1.384 . S
C2752 H2743 0.929 . S
C2752 C2744 1.378 . S
C2752 C2747 1.350 . S
C2753 H2740 0.929 . S
C2753 C2745 1.433 . S
C2753 N2755 1.384 . S
N2754 C2750 1.427 . S
N2754 C2751 1.384 . S
N2755 C2747 1.427 . S
N2755 C2753 1.384 . S
H2756 C2762 0.930 . S
H2757 C2766 0.930 . S
H2758 C2771 0.929 . S
H2759 C2769 0.929 . S
H2760 C2764 0.929 . S
H2761 C2770 0.929 . S
C2762 H2756 0.930 . S
C2762 C2763 1.367 . S
C2762 C2770 1.378 . S
C2763 C2762 1.367 . S
C2763 C2771 1.433 1_655 S
C2764 H2760 0.929 . S
C2764 C2766 1.378 . S
C2764 C2768 1.350 . S
C2765 C2768 1.463 1_655 S
C2765 C2770 1.350 . S
C2765 N2773 1.427 1_655 S
C2766 H2757 0.930 . S
C2766 C2764 1.378 . S
C2766 C2767 1.367 . S
C2767 C2766 1.367 . S
C2767 C2769 1.433 1_455 S
C2768 C2764 1.350 . S
C2768 C2765 1.463 1_455 S
C2768 N2772 1.427 1_455 S
C2769 H2759 0.929 . S
C2769 C2767 1.433 1_655 S
C2769 N2772 1.384 . S
C2770 H2761 0.929 . S
C2770 C2762 1.378 . S
C2770 C2765 1.350 . S
C2771 H2758 0.929 . S
C2771 C2763 1.433 1_455 S
C2771 N2773 1.384 . S
N2772 C2768 1.427 1_655 S
N2772 C2769 1.384 . S
N2773 C2765 1.427 1_455 S
N2773 C2771 1.384 . S
H2774 C2780 0.930 . S
H2775 C2784 0.930 . S
H2776 C2789 0.929 . S
H2777 C2787 0.929 . S
H2778 C2782 0.929 . S
H2779 C2788 0.929 . S
C2780 H2774 0.930 . S
C2780 C2781 1.367 . S
C2780 C2788 1.378 . S
C2781 C2780 1.367 . S
C2781 C2789 1.433 . S
C2782 H2778 0.929 . S
C2782 C2784 1.378 . S
C2782 C2786 1.350 . S
C2783 C2786 1.463 . S
C2783 C2788 1.350 . S
C2783 N2791 1.427 . S
C2784 H2775 0.930 . S
C2784 C2782 1.378 . S
C2784 C2785 1.367 . S
C2785 C2784 1.367 . S
C2785 C2787 1.433 . S
C2786 C2782 1.350 . S
C2786 C2783 1.463 . S
C2786 N2790 1.427 . S
C2787 H2777 0.929 . S
C2787 C2785 1.433 . S
C2787 N2790 1.384 . S
C2788 H2779 0.929 . S
C2788 C2780 1.378 . S
C2788 C2783 1.350 . S
C2789 H2776 0.929 . S
C2789 C2781 1.433 . S
C2789 N2791 1.384 . S
N2790 C2786 1.427 . S
N2790 C2787 1.384 . S
N2791 C2783 1.427 . S
N2791 C2789 1.384 . S
H2792 C2798 0.930 . S
H2793 C2802 0.930 . S
H2794 C2807 0.929 . S
H2795 C2805 0.929 . S
H2796 C2800 0.929 . S
H2797 C2806 0.929 . S
C2798 H2792 0.930 . S
C2798 C2799 1.367 . S
C2798 C2806 1.378 . S
C2799 C2798 1.367 . S
C2799 C2807 1.433 . S
C2800 H2796 0.929 . S
C2800 C2802 1.378 . S
C2800 C2804 1.350 . S
C2801 C2804 1.463 1_556 S
C2801 C2806 1.350 . S
C2801 N2809 1.427 . S
C2802 H2793 0.930 . S
C2802 C2800 1.378 . S
C2802 C2803 1.367 . S
C2803 C2802 1.367 . S
C2803 C2805 1.433 . S
C2804 C2800 1.350 . S
C2804 C2801 1.463 1_554 S
C2804 N2808 1.427 . S
C2805 H2795 0.929 . S
C2805 C2803 1.433 . S
C2805 N2808 1.384 . S
C2806 H2797 0.929 . S
C2806 C2798 1.378 . S
C2806 C2801 1.350 . S
C2807 H2794 0.929 . S
C2807 C2799 1.433 . S
C2807 N2809 1.384 . S
N2808 C2804 1.427 . S
N2808 C2805 1.384 . S
N2809 C2801 1.427 . S
N2809 C2807 1.384 . S
H2810 C2816 0.930 . S
H2811 C2820 0.930 . S
H2812 C2825 0.929 . S
H2813 C2823 0.929 . S
H2814 C2818 0.929 . S
H2815 C2824 0.929 . S
C2816 H2810 0.930 . S
C2816 C2817 1.367 . S
C2816 C2824 1.378 . S
C2817 C2816 1.367 . S
C2817 C2825 1.433 1_655 S
C2818 H2814 0.929 . S
C2818 C2820 1.378 . S
C2818 C2822 1.350 . S
C2819 C2822 1.463 1_655 S
C2819 C2824 1.350 . S
C2819 N2827 1.427 1_655 S
C2820 H2811 0.930 . S
C2820 C2818 1.378 . S
C2820 C2821 1.367 . S
C2821 C2820 1.367 . S
C2821 C2823 1.433 1_455 S
C2822 C2818 1.350 . S
C2822 C2819 1.463 1_455 S
C2822 N2826 1.427 1_455 S
C2823 H2813 0.929 . S
C2823 C2821 1.433 1_655 S
C2823 N2826 1.384 . S
C2824 H2815 0.929 . S
C2824 C2816 1.378 . S
C2824 C2819 1.350 . S
C2825 H2812 0.929 . S
C2825 C2817 1.433 1_455 S
C2825 N2827 1.384 . S
N2826 C2822 1.427 1_655 S
N2826 C2823 1.384 . S
N2827 C2819 1.427 1_455 S
N2827 C2825 1.384 . S
H2828 C2834 0.930 . S
H2829 C2838 0.930 . S
H2830 C2843 0.929 . S
H2831 C2841 0.929 . S
H2832 C2836 0.929 . S
H2833 C2842 0.929 . S
C2834 H2828 0.930 . S
C2834 C2835 1.367 . S
C2834 C2842 1.378 . S
C2835 C2834 1.367 . S
C2835 C2843 1.433 . S
C2836 H2832 0.929 . S
C2836 C2838 1.378 . S
C2836 C2840 1.350 . S
C2837 C2840 1.463 . S
C2837 C2842 1.350 . S
C2837 N2845 1.427 . S
C2838 H2829 0.930 . S
C2838 C2836 1.378 . S
C2838 C2839 1.367 . S
C2839 C2838 1.367 . S
C2839 C2841 1.433 . S
C2840 C2836 1.350 . S
C2840 C2837 1.463 . S
C2840 N2844 1.427 . S
C2841 H2831 0.929 . S
C2841 C2839 1.433 . S
C2841 N2844 1.384 . S
C2842 H2833 0.929 . S
C2842 C2834 1.378 . S
C2842 C2837 1.350 . S
C2843 H2830 0.929 . S
C2843 C2835 1.433 . S
C2843 N2845 1.384 . S
N2844 C2840 1.427 . S
N2844 C2841 1.384 . S
N2845 C2837 1.427 . S
N2845 C2843 1.384 . S
H2846 C2852 0.930 1_655 S
H2847 C2856 0.930 1_455 S
H2848 C2861 0.929 . S
H2849 C2859 0.929 . S
H2850 C2854 0.929 . S
H2851 C2860 0.929 . S
C2852 H2846 0.930 1_455 S
C2852 C2853 1.367 . S
C2852 C2860 1.378 1_455 S
C2853 C2852 1.367 . S
C2853 C2861 1.433 1_565 S
C2854 H2850 0.929 . S
C2854 C2856 1.378 1_455 S
C2854 C2858 1.350 1_455 S
C2855 C2858 1.463 1_465 S
C2855 C2860 1.350 1_455 S
C2855 N2863 1.427 1_565 S
C2856 H2847 0.930 1_655 S
C2856 C2854 1.378 1_655 S
C2856 C2857 1.367 . S
C2857 C2856 1.367 . S
C2857 C2859 1.433 1_545 S
C2858 C2854 1.350 1_655 S
C2858 C2855 1.463 1_645 S
C2858 N2862 1.427 1_545 S
C2859 H2849 0.929 . S
C2859 C2857 1.433 1_565 S
C2859 N2862 1.384 . S
C2860 H2851 0.929 . S
C2860 C2852 1.378 1_655 S
C2860 C2855 1.350 1_655 S
C2861 H2848 0.929 . S
C2861 C2853 1.433 1_545 S
C2861 N2863 1.384 . S
N2862 C2858 1.427 1_565 S
N2862 C2859 1.384 . S
N2863 C2855 1.427 1_545 S
N2863 C2861 1.384 . S
H2864 C2870 0.930 . S
H2865 C2874 0.930 . S
H2866 C2879 0.929 . S
H2867 C2877 0.929 . S
H2868 C2872 0.929 . S
H2869 C2878 0.929 . S
C2870 H2864 0.930 . S
C2870 C2871 1.367 . S
C2870 C2878 1.378 . S
C2871 C2870 1.367 . S
C2871 C2879 1.433 . S
C2872 H2868 0.929 . S
C2872 C2874 1.378 . S
C2872 C2876 1.350 . S
C2873 C2876 1.463 . S
C2873 C2878 1.350 . S
C2873 N2881 1.427 . S
C2874 H2865 0.930 . S
C2874 C2872 1.378 . S
C2874 C2875 1.367 . S
C2875 C2874 1.367 . S
C2875 C2877 1.433 . S
C2876 C2872 1.350 . S
C2876 C2873 1.463 . S
C2876 N2880 1.427 . S
C2877 H2867 0.929 . S
C2877 C2875 1.433 . S
C2877 N2880 1.384 . S
C2878 H2869 0.929 . S
C2878 C2870 1.378 . S
C2878 C2873 1.350 . S
C2879 H2866 0.929 . S
C2879 C2871 1.433 . S
C2879 N2881 1.384 . S
N2880 C2876 1.427 . S
N2880 C2877 1.384 . S
N2881 C2873 1.427 . S
N2881 C2879 1.384 . S
H2882 C2888 0.930 . S
H2883 C2892 0.930 . S
H2884 C2897 0.929 . S
H2885 C2895 0.929 . S
H2886 C2890 0.929 . S
H2887 C2896 0.929 . S
C2888 H2882 0.930 . S
C2888 C2889 1.367 . S
C2888 C2896 1.378 . S
C2889 C2888 1.367 . S
C2889 C2897 1.433 1_545 S
C2890 H2886 0.929 . S
C2890 C2892 1.378 . S
C2890 C2894 1.350 . S
C2891 C2894 1.463 1_545 S
C2891 C2896 1.350 . S
C2891 N2899 1.427 1_545 S
C2892 H2883 0.930 . S
C2892 C2890 1.378 . S
C2892 C2893 1.367 . S
C2893 C2892 1.367 . S
C2893 C2895 1.433 1_565 S
C2894 C2890 1.350 . S
C2894 C2891 1.463 1_565 S
C2894 N2898 1.427 1_565 S
C2895 H2885 0.929 . S
C2895 C2893 1.433 1_545 S
C2895 N2898 1.384 . S
C2896 H2887 0.929 . S
C2896 C2888 1.378 . S
C2896 C2891 1.350 . S
C2897 H2884 0.929 . S
C2897 C2889 1.433 1_565 S
C2897 N2899 1.384 . S
N2898 C2894 1.427 1_545 S
N2898 C2895 1.384 . S
N2899 C2891 1.427 1_565 S
N2899 C2897 1.384 . S
H2900 C2906 0.930 . S
H2901 C2910 0.930 . S
H2902 C2915 0.929 . S
H2903 C2913 0.929 . S
H2904 C2908 0.929 . S
H2905 C2914 0.929 . S
C2906 H2900 0.930 . S
C2906 C2907 1.367 . S
C2906 C2914 1.378 . S
C2907 C2906 1.367 . S
C2907 C2915 1.433 . S
C2908 H2904 0.929 . S
C2908 C2910 1.378 . S
C2908 C2912 1.350 . S
C2909 C2912 1.463 . S
C2909 C2914 1.350 . S
C2909 N2917 1.427 . S
C2910 H2901 0.930 . S
C2910 C2908 1.378 . S
C2910 C2911 1.367 . S
C2911 C2910 1.367 . S
C2911 C2913 1.433 . S
C2912 C2908 1.350 . S
C2912 C2909 1.463 . S
C2912 N2916 1.427 . S
C2913 H2903 0.929 . S
C2913 C2911 1.433 . S
C2913 N2916 1.384 . S
C2914 H2905 0.929 . S
C2914 C2906 1.378 . S
C2914 C2909 1.350 . S
C2915 H2902 0.929 . S
C2915 C2907 1.433 . S
C2915 N2917 1.384 . S
N2916 C2912 1.427 . S
N2916 C2913 1.384 . S
N2917 C2909 1.427 . S
N2917 C2915 1.384 . S
H2918 C2924 0.930 . S
H2919 C2928 0.930 . S
H2920 C2933 0.929 . S
H2921 C2931 0.929 . S
H2922 C2926 0.929 . S
H2923 C2932 0.929 . S
C2924 H2918 0.930 . S
C2924 C2925 1.367 1_545 S
C2924 C2932 1.378 . S
C2925 C2924 1.367 1_565 S
C2925 C2933 1.433 . S
C2926 H2922 0.929 . S
C2926 C2928 1.378 . S
C2926 C2930 1.349 1_565 S
C2927 C2930 1.462 1_565 S
C2927 C2932 1.349 1_565 S
C2927 N2935 1.428 . S
C2928 H2919 0.930 . S
C2928 C2926 1.378 . S
C2928 C2929 1.367 1_565 S
C2929 C2928 1.367 1_545 S
C2929 C2931 1.433 . S
C2930 C2926 1.349 1_545 S
C2930 C2927 1.462 1_545 S
C2930 N2934 1.428 . S
C2931 H2921 0.929 . S
C2931 C2929 1.433 . S
C2931 N2934 1.384 . S
C2932 H2923 0.929 . S
C2932 C2924 1.378 . S
C2932 C2927 1.349 1_545 S
C2933 H2920 0.929 . S
C2933 C2925 1.433 . S
C2933 N2935 1.384 . S
N2934 C2930 1.428 . S
N2934 C2931 1.384 . S
N2935 C2927 1.428 . S
N2935 C2933 1.384 . S
H2936 C2942 0.930 . S
H2937 C2946 0.930 . S
H2938 C2951 0.929 . S
H2939 C2949 0.929 . S
H2940 C2944 0.929 . S
H2941 C2950 0.929 . S
C2942 H2936 0.930 . S
C2942 C2943 1.367 . S
C2942 C2950 1.378 . S
C2943 C2942 1.367 . S
C2943 C2951 1.433 . S
C2944 H2940 0.929 . S
C2944 C2946 1.378 . S
C2944 C2948 1.350 . S
C2945 C2948 1.463 . S
C2945 C2950 1.350 . S
C2945 N2953 1.427 . S
C2946 H2937 0.930 . S
C2946 C2944 1.378 . S
C2946 C2947 1.367 . S
C2947 C2946 1.367 . S
C2947 C2949 1.433 . S
C2948 C2944 1.350 . S
C2948 C2945 1.463 . S
C2948 N2952 1.427 . S
C2949 H2939 0.929 . S
C2949 C2947 1.433 . S
C2949 N2952 1.384 . S
C2950 H2941 0.929 . S
C2950 C2942 1.378 . S
C2950 C2945 1.350 . S
C2951 H2938 0.929 . S
C2951 C2943 1.433 . S
C2951 N2953 1.384 . S
N2952 C2948 1.427 . S
N2952 C2949 1.384 . S
N2953 C2945 1.427 . S
N2953 C2951 1.384 . S
H2954 C2960 0.930 . S
H2955 C2964 0.930 . S
H2956 C2969 0.929 . S
H2957 C2967 0.929 . S
H2958 C2962 0.929 . S
H2959 C2968 0.929 . S
C2960 H2954 0.930 . S
C2960 C2961 1.367 . S
C2960 C2968 1.378 . S
C2961 C2960 1.367 . S
C2961 C2969 1.433 . S
C2962 H2958 0.929 . S
C2962 C2964 1.378 . S
C2962 C2966 1.350 . S
C2963 C2966 1.463 . S
C2963 C2968 1.350 . S
C2963 N2971 1.427 . S
C2964 H2955 0.930 . S
C2964 C2962 1.378 . S
C2964 C2965 1.367 . S
C2965 C2964 1.367 . S
C2965 C2967 1.433 . S
C2966 C2962 1.350 . S
C2966 C2963 1.463 . S
C2966 N2970 1.427 . S
C2967 H2957 0.929 . S
C2967 C2965 1.433 . S
C2967 N2970 1.384 . S
C2968 H2959 0.929 . S
C2968 C2960 1.378 . S
C2968 C2963 1.350 . S
C2969 H2956 0.929 . S
C2969 C2961 1.433 . S
C2969 N2971 1.384 . S
N2970 C2966 1.427 . S
N2970 C2967 1.384 . S
N2971 C2963 1.427 . S
N2971 C2969 1.384 . S
H2972 C2978 0.930 . S
H2973 C2982 0.930 . S
H2974 C2987 0.929 . S
H2975 C2985 0.929 . S
H2976 C2980 0.929 . S
H2977 C2986 0.929 . S
C2978 H2972 0.930 . S
C2978 C2979 1.367 . S
C2978 C2986 1.378 . S
C2979 C2978 1.367 . S
C2979 C2987 1.433 . S
C2980 H2976 0.929 . S
C2980 C2982 1.378 . S
C2980 C2984 1.350 . S
C2981 C2984 1.463 . S
C2981 C2986 1.350 . S
C2981 N2989 1.427 . S
C2982 H2973 0.930 . S
C2982 C2980 1.378 . S
C2982 C2983 1.367 . S
C2983 C2982 1.367 . S
C2983 C2985 1.433 . S
C2984 C2980 1.350 . S
C2984 C2981 1.463 . S
C2984 N2988 1.427 . S
C2985 H2975 0.929 . S
C2985 C2983 1.433 . S
C2985 N2988 1.384 . S
C2986 H2977 0.929 . S
C2986 C2978 1.378 . S
C2986 C2981 1.350 . S
C2987 H2974 0.929 . S
C2987 C2979 1.433 . S
C2987 N2989 1.384 . S
N2988 C2984 1.427 . S
N2988 C2985 1.384 . S
N2989 C2981 1.427 . S
N2989 C2987 1.384 . S
H2990 C2996 0.930 . S
H2991 C3000 0.930 . S
H2992 C3005 0.929 . S
H2993 C3003 0.929 . S
H2994 C2998 0.929 . S
H2995 C3004 0.929 . S
C2996 H2990 0.930 . S
C2996 C2997 1.367 1_545 S
C2996 C3004 1.378 . S
C2997 C2996 1.367 1_565 S
C2997 C3005 1.433 . S
C2998 H2994 0.929 . S
C2998 C3000 1.378 . S
C2998 C3002 1.344 1_565 S
C2999 C3002 1.462 1_564 S
C2999 C3004 1.344 1_565 S
C2999 N3007 1.435 . S
C3000 H2991 0.930 . S
C3000 C2998 1.378 . S
C3000 C3001 1.367 1_565 S
C3001 C3000 1.367 1_545 S
C3001 C3003 1.433 . S
C3002 C2998 1.344 1_545 S
C3002 C2999 1.462 1_546 S
C3002 N3006 1.435 . S
C3003 H2993 0.929 . S
C3003 C3001 1.433 . S
C3003 N3006 1.384 . S
C3004 H2995 0.929 . S
C3004 C2996 1.378 . S
C3004 C2999 1.344 1_545 S
C3005 H2992 0.929 . S
C3005 C2997 1.433 . S
C3005 N3007 1.384 . S
N3006 C3002 1.435 . S
N3006 C3003 1.384 . S
N3007 C2999 1.435 . S
N3007 C3005 1.384 . S
C1287 C2 1.645 . S
C1291 C1002 1.650 . S
C1305 C962 1.649 . S
C1309 C42 1.648 . S
C1323 C1082 1.645 . S
C1327 C82 1.650 . S
C1341 C122 1.645 . S
C1345 C1042 1.649 . S
C1359 C171 1.645 . S
C1363 C1171 1.649 . S
C1377 C211 1.649 . S
C1381 C1131 1.648 . S
C1395 C251 1.647 . S
C1399 C1251 1.649 . S
C1413 C1211 1.645 . S
C1417 C291 1.650 . S
C1431 C322 1.645 . S
C1435 C682 1.650 . S
C1449 C362 1.645 . S
C1453 C642 1.649 . S
C1467 C402 1.649 . S
C1471 C762 1.645 . S
C1485 C722 1.647 . S
C1489 C442 1.650 . S
C1503 C491 1.649 . S
C1507 C851 1.647 . S
C1521 C531 1.650 . S
C1525 C811 1.645 . S
C1539 C931 1.650 . S
C1543 C571 1.646 . S
C1557 C611 1.645 . S
C1561 C891 1.649 . S
C1575 C10 1.616 . S
C1579 C130 1.611 . S
C1593 C50 1.610 . S
C1597 C90 1.616 . S
C1611 C299 1.615 . S
C1615 C179 1.610 . S
C1629 C259 1.610 . S
C1633 C219 1.616 . S
C1647 C330 1.610 . S
C1651 C450 1.616 . S
C1665 C370 1.616 . S
C1669 C410 1.613 . S
C1683 C499 1.614 . S
C1687 C619 1.610 . S
C1701 C579 1.616 . S
C1705 C539 1.612 . S
C1719 C650 1.614 . S
C1723 C770 1.615 . S
C1737 C690 1.611 . S
C1741 C730 1.613 . S
C1755 C939 1.612 . S
C1759 C819 1.616 . S
C1773 C859 1.611 . S
C1777 C899 1.616 . S
C1791 C1090 1.616 . S
C1795 C970 1.611 . S
C1809 C1010 1.616 . S
C1813 C1050 1.613 . S
C1827 C1259 1.610 . S
C1831 C1139 1.616 . S
C1845 C1219 1.615 . S
C1849 C1179 1.614 . S
C1863 C51 1.490 . S
C1867 C11 1.489 . S
C1881 C91 1.501 . S
C1885 C131 1.503 . S
C1899 C202 1.498 . S
C1903 C162 1.502 . S
C1917 C282 1.490 . S
C1921 C242 1.489 . S
C1935 C331 1.490 . S
C1939 C371 1.494 . S
C1953 C411 1.502 . S
C1957 C451 1.497 . S
C1971 C522 1.495 . S
C1975 C482 1.490 . S
C1989 C562 1.500 . S
C1993 C602 1.503 . S
C2007 C651 1.492 . S
C2011 C691 1.497 . S
C2025 C771 1.497 . S
C2029 C731 1.492 . S
C2043 C802 1.491 . S
C2047 C842 1.489 . S
C2061 C882 1.501 . S
C2065 C922 1.497 . S
C2079 C971 1.502 . S
C2083 C1011 1.498 . S
C2097 C1051 1.503 . S
C2101 C1091 1.499 . S
C2115 C1162 1.494 . S
C2119 C1122 1.490 . S
C2133 C1202 1.494 . S
C2137 C1242 1.490 . S
C2151 C7 1.677 . S
C2155 C16 1.677 . S
C2169 C47 1.681 . S
C2173 C56 1.681 . S
C2187 C87 1.681 . S
C2191 C96 1.681 . S
C2205 C136 1.679 . S
C2209 C127 1.679 . S
C2223 C167 1.677 . S
C2227 C176 1.677 . S
C2241 C216 1.678 . S
C2245 C207 1.678 . S
C2259 C247 1.679 . S
C2263 C256 1.679 . S
C2277 C287 1.680 . S
C2281 C296 1.680 . S
C2295 C336 1.674 . S
C2299 C327 1.674 . S
C2313 C367 1.677 . S
C2317 C376 1.677 . S
C2331 C407 1.674 . S
C2335 C416 1.674 . S
C2349 C456 1.680 . S
C2353 C447 1.680 . S
C2367 C487 1.673 . S
C2371 C496 1.673 . S
C2385 C536 1.672 . S
C2389 C527 1.672 . S
C2403 C576 1.675 . S
C2407 C567 1.675 . S
C2421 C607 1.681 . S
C2425 C616 1.681 . S
C2439 C647 1.677 . S
C2443 C656 1.677 . S
C2457 C696 1.673 . S
C2461 C687 1.673 . S
C2475 C736 1.675 . S
C2479 C727 1.675 . S
C2493 C767 1.677 . S
C2497 C776 1.677 . S
C2511 C816 1.678 . S
C2515 C807 1.678 . S
C2529 C856 1.675 . S
C2533 C847 1.675 . S
C2547 C887 1.676 . S
C2551 C896 1.676 . S
C2565 C936 1.676 . S
C2569 C927 1.676 . S
C2583 C976 1.675 . S
C2587 C967 1.675 . S
C2601 C1007 1.679 . S
C2605 C1016 1.679 . S
C2619 C1056 1.677 . S
C2623 C1047 1.677 . S
C2637 C1096 1.677 . S
C2641 C1087 1.677 . S
C2655 C1136 1.672 . S
C2659 C1127 1.672 . S
C2673 C1176 1.675 . S
C2677 C1167 1.675 . S
C2691 C1207 1.672 . S
C2695 C1216 1.672 . S
C2709 C1247 1.680 . S
C2713 C1256 1.680 . S
C2727 C19 1.485 . S
C2731 C170 1.485 . S
C2745 C1170 1.482 . S
C2749 C59 1.482 . S
C2763 C570 1.481 . S
C2767 C99 1.481 . S
C2781 C139 1.481 . S
C2785 C930 1.481 . S
C2799 C210 1.485 . S
C2803 C1019 1.485 . S
C2817 C250 1.484 . S
C2821 C419 1.484 . S
C2835 C290 1.490 . S
C2839 C779 1.490 . S
C2853 C339 1.486 . S
C2857 C490 1.486 . S
C2871 C850 1.494 . S
C2875 C379 1.494 . S
C2889 C1250 1.493 . S
C2893 C459 1.493 . S
C2907 C530 1.481 . S
C2911 C699 1.481 . S
C2925 C1099 1.493 . S
C2929 C610 1.493 . S
C2943 C659 1.489 . S
C2947 C810 1.489 . S
C2961 C1210 1.494 . S
C2965 C739 1.494 . S
C2979 C890 1.494 . S
C2983 C1059 1.494 . S
C2997 C979 1.483 . S
C3001 C1130 1.483 . S
