# Generated by pormake.
# Topology snp, (6)-cn, num edge types: 1
# Building blocks:
#     Node 0, Type 0, BuildingBlock: KUMJIN_clean_sbu_0, # of connection points: 6
#     Node 1, Type 0, BuildingBlock: KUMJIN_clean_sbu_0, # of connection points: 6
#     Node 2, Type 0, BuildingBlock: KUMJIN_clean_sbu_0, # of connection points: 6
#     Node 3, Type 0, BuildingBlock: KUMJIN_clean_sbu_0, # of connection points: 6
#     Edge 4, Type (0, 0), BuildingBlock: CIFDUS_clean_linker_0, # of connection points: 2
#     Edge 5, Type (0, 0), BuildingBlock: CIFDUS_clean_linker_0, # of connection points: 2
#     Edge 6, Type (0, 0), BuildingBlock: CIFDUS_clean_linker_0, # of connection points: 2
#     Edge 7, Type (0, 0), BuildingBlock: CIFDUS_clean_linker_0, # of connection points: 2
#     Edge 8, Type (0, 0), BuildingBlock: CIFDUS_clean_linker_0, # of connection points: 2
#     Edge 9, Type (0, 0), BuildingBlock: CIFDUS_clean_linker_0, # of connection points: 2
#     Edge 10, Type (0, 0), BuildingBlock: CIFDUS_clean_linker_0, # of connection points: 2
#     Edge 11, Type (0, 0), BuildingBlock: CIFDUS_clean_linker_0, # of connection points: 2
#     Edge 12, Type (0, 0), BuildingBlock: CIFDUS_clean_linker_0, # of connection points: 2
#     Edge 13, Type (0, 0), BuildingBlock: CIFDUS_clean_linker_0, # of connection points: 2
#     Edge 14, Type (0, 0), BuildingBlock: CIFDUS_clean_linker_0, # of connection points: 2
#     Edge 15, Type (0, 0), BuildingBlock: CIFDUS_clean_linker_0, # of connection points: 2
# Relax obj value: 0.278
# Max RMSD: 0.227
# Mean RMSD: 0.209
data_MOF--net-snp--node1-KUMJIN_clean_sbu_0--edge1-CIFDUS_clean_linker_0
_symmetry_space_group_name_H-M    P1
_symmetry_Int_Tables_number       1
_symmetry_cell_setting            triclinic
loop_
_symmetry_equiv_pos_as_xyz
'x, y, z'
_cell_length_a     22.833424
_cell_length_b     24.041383
_cell_length_c     26.852124
_cell_angle_alpha  116.59094
_cell_angle_beta   104.40146
_cell_angle_gamma 73.966296
loop_
_atom_site_label
_atom_site_type_symbol
_atom_site_fract_x
_atom_site_fract_y
_atom_site_fract_z
_atom_type_partial_charge
Eu0 Eu 0.28505 0.16459 0.17186 0.0
C1 C 0.38349 0.90029 1.0435 0.0
C2 C 0.3498 0.82125 1.05682 0.0
C3 C 0.36261 0.80292 0.96331 0.0
C4 C 0.36665 0.88096 1.07843 0.0
C5 C 0.38319 0.8605 0.98576 0.0
C6 C 0.34616 0.78319 0.99884 0.0
C7 C 0.43021 0.93357 0.97726 0.0
N8 N 0.40384 0.95596 1.06649 0.0
C9 C 0.42961 0.97154 1.0347 0.0
C10 C 0.40554 0.87866 0.95253 0.0
Eu11 Eu 0.39298 0.02056 0.16287 0.0
N12 N 0.37037 0.91884 0.1342 0.0
C13 C 0.36387 0.89714 0.17132 0.0
C14 C 0.33906 0.80068 0.09439 0.0
C15 C 0.34719 0.8384 0.15205 0.0
H16 H 0.449 1.01357 1.05249 0.0
H17 H 0.34019 0.82252 0.18166 0.0
H18 H 0.33244 0.73762 0.98133 0.0
H19 H 0.44923 0.94701 0.95203 0.0
H20 H 0.36826 0.9269 0.21547 0.0
H21 H 0.37168 0.31433 0.39002 0.0
H22 H 0.32614 0.75512 1.07946 0.0
H23 H 0.1394 0.16367 0.10676 0.0
H24 H 0.38017 0.22719 0.2978 0.0
H25 H 0.03606 0.22698 0.12416 0.0
H26 H 0.36127 0.77231 0.91887 0.0
H27 H 0.27044 0.38118 0.41366 0.0
H28 H 0.15673 0.40395 0.38585 0.0
H29 H 0.40562 0.84944 0.90822 0.0
H30 H 0.06553 0.37856 0.315 0.0
N31 N 0.28394 0.24369 0.26624 0.0
C32 C 0.33531 0.256 0.30575 0.0
C33 C 0.27366 0.34276 0.37239 0.0
C34 C 0.2211 0.32973 0.33263 0.0
C35 C 0.33085 0.30534 0.35907 0.0
C36 C 0.22758 0.27922 0.27927 0.0
H37 H 0.02008 0.31248 0.21731 0.0
N38 N 0.18291 0.2139 0.18944 0.0
C39 C 0.07468 0.23653 0.15756 0.0
C40 C 0.17571 0.26367 0.23993 0.0
C41 C 0.13357 0.20056 0.14802 0.0
C42 C 0.06595 0.28542 0.21012 0.0
C43 C 0.11673 0.29997 0.25202 0.0
O44 O 0.31215 0.179 0.1063 0.0
O45 O 0.33277 0.07209 0.10989 0.0
O46 O 0.42938 0.08548 0.14209 0.0
O47 O 0.38252 0.18119 0.20216 0.0
O48 O 0.23751 0.09536 0.09298 0.0
O49 O 0.24739 0.25154 0.15818 0.0
O50 O 0.47051 0.04444 0.23092 0.0
O51 O 0.34833 0.11564 0.22335 0.0
O52 O 0.23389 0.10006 0.17835 0.0
O53 O 0.30059 1.00048 0.15694 0.0
O54 O 0.36417 0.04056 0.24579 0.0
O55 O 0.48117 0.95437 0.16041 0.0
C56 C 0.28552 0.05419 1.07394 0.0
C57 C 0.3131 0.28411 0.12599 0.0
C58 C 0.33496 0.34826 0.08619 0.0
C59 C 0.30535 0.30154 1.08122 0.0
C60 C 0.37405 0.37593 0.13637 0.0
C61 C 0.35131 0.31288 0.17609 0.0
C62 C 0.38217 0.35813 0.18092 0.0
C63 C 0.42677 0.14675 0.17173 0.0
C64 C 0.28057 0.23611 0.11956 0.0
C65 C 0.1104 0.35049 0.30482 0.0
C66 C 0.16241 0.36516 0.34508 0.0
C67 C 0.34084 0.10005 0.26086 0.0
C68 C 0.53312 0.95638 0.24863 0.0
C69 C 0.49856 0.95252 0.28348 0.0
C70 C 0.5243 0.91532 0.31509 0.0
C71 C 0.58628 0.88397 0.31221 0.0
C72 C 0.59465 0.92516 0.24732 0.0
C73 C 0.62111 0.88961 0.27925 0.0
C74 C 0.24815 0.03921 0.17039 0.0
C75 C 0.50517 0.98897 0.21048 0.0
H76 H 0.27604 0.27868 1.04251 0.0
H77 H 0.39713 0.41245 0.14177 0.0
H78 H 0.35719 0.30045 0.21136 0.0
H79 H 0.41186 0.38005 0.21955 0.0
H80 H 0.45174 0.97808 0.28557 0.0
H81 H 0.6079 0.85343 0.33409 0.0
H82 H 0.62199 0.92745 0.22081 0.0
H83 H 0.66854 0.86499 0.27742 0.0
Eu84 Eu 0.03237 0.33924 0.57144 0.0
C85 C 0.31635 0.28134 0.5995 0.0
C86 C 0.37156 0.21985 0.65363 0.0
C87 C 0.4178 0.21686 0.58005 0.0
C88 C 0.31904 0.26201 0.6416 0.0
C89 C 0.36642 0.26005 0.56919 0.0
C90 C 0.42028 0.19665 0.62205 0.0
C91 C 0.31266 0.3276 0.52093 0.0
N92 N 0.26579 0.32248 0.58923 0.0
C93 C 0.26387 0.34672 0.55134 0.0
C94 C 0.36391 0.28361 0.52946 0.0
Eu95 Eu 0.18659 0.35617 0.64491 0.0
N96 N 0.27141 0.28579 0.6719 0.0
C97 C 0.27534 0.271 0.71654 0.0
C98 C 0.37435 0.20313 0.69785 0.0
C99 C 0.32636 0.22942 0.7298 0.0
H100 H 0.22473 0.38052 0.54378 0.0
H101 H 0.32843 0.21744 0.76463 0.0
H102 H 0.46066 0.16399 0.63055 0.0
H103 H 0.31056 0.34659 0.49074 0.0
H104 H 0.23949 0.28978 0.74233 0.0
H105 H 0.91033 0.5222 0.7463 0.0
H106 H 0.41379 0.17087 0.70829 0.0
H107 H 1.00365 0.19413 0.4844 0.0
H108 H 0.99745 0.46985 0.6937 0.0
H109 H 0.91928 0.13513 0.45563 0.0
H110 H 0.45627 0.19953 0.55676 0.0
H111 H 0.81881 0.47323 0.71779 0.0
H112 H 0.76681 0.38146 0.65427 0.0
H113 H 0.40145 0.26855 0.50549 0.0
H114 H 0.76992 0.27589 0.57644 0.0
N115 N 0.95535 0.39212 0.63223 0.0
C116 C 0.95754 0.44804 0.67881 0.0
C117 C 0.85664 0.45014 0.69341 0.0
C118 C 0.85534 0.39185 0.64716 0.0
C119 C 0.90824 0.4779 0.70964 0.0
C120 C 0.9059 0.36355 0.6169 0.0
H121 H 0.82645 0.18396 0.50229 0.0
N122 N 0.95951 0.27493 0.54807 0.0
C123 C 0.91603 0.18212 0.48919 0.0
C124 C 0.90832 0.30302 0.57392 0.0
C125 C 0.96383 0.21555 0.5059 0.0
C126 C 0.86345 0.20996 0.51554 0.0
C127 C 0.8593 0.2708 0.55884 0.0
O128 O 0.94787 0.3578 0.51665 0.0
O129 O 0.12976 0.32783 0.55797 0.0
O130 O 0.1414 0.41385 0.59445 0.0
O131 O 0.04576 0.44115 0.61704 0.0
O132 O 0.08252 0.25496 0.50447 0.0
O133 O 0.03223 0.37454 0.50902 0.0
O134 O 0.17454 0.44804 0.71697 0.0
O135 O 0.08951 0.36375 0.65539 0.0
O136 O 0.07725 0.25163 0.59043 0.0
O137 O 0.1838 0.25367 0.61367 0.0
O138 O 0.15504 0.35514 0.71986 0.0
O139 O 0.25322 0.41838 0.67454 0.0
C140 C 0.13428 0.27368 0.51571 0.0
C141 C 0.94164 0.44391 0.49455 0.0
C142 C 0.8997 0.5076 0.44 0.0
C143 C 0.93169 0.45056 0.44421 0.0
C144 C 0.87843 0.55909 0.48766 0.0
C145 C 0.92081 0.49554 0.54245 0.0
C146 C 0.88987 0.55317 0.53903 0.0
C147 C 0.09202 0.45698 0.60887 0.0
C148 C 0.97311 0.38196 0.4947 0.0
C149 C 0.80798 0.29997 0.5875 0.0
C150 C 0.8061 0.36021 0.63166 0.0
C151 C 0.09705 0.35694 0.70152 0.0
C152 C 0.26493 0.48719 0.77003 0.0
C153 C 0.28042 0.45811 0.80787 0.0
C154 C 0.31916 0.48291 0.85907 0.0
C155 C 0.3426 0.53674 0.87151 0.0
C156 C 0.28852 0.54088 0.78314 0.0
C157 C 0.32725 0.56548 0.83369 0.0
C158 C 0.13615 0.22687 0.60343 0.0
C159 C 0.22543 0.46164 0.71613 0.0
H160 H 0.94643 0.40963 0.40714 0.0
H161 H 0.85224 0.60288 0.48485 0.0
H162 H 0.92786 0.49116 0.58201 0.0
H163 H 0.87352 0.59277 0.57594 0.0
H164 H 0.26265 0.41614 0.79729 0.0
H165 H 0.37183 0.55733 0.91094 0.0
H166 H 0.27705 0.56368 0.75418 0.0
H167 H 0.34517 0.60711 0.84371 0.0
Eu168 Eu 0.81379 0.22698 1.05665 0.0
C169 C 0.7695 0.9999 1.06992 0.0
C170 C 0.66992 0.01825 0.09721 0.0
C171 C 0.70821 0.91704 1.02488 0.0
C172 C 0.72307 0.04006 0.10138 0.0
C173 C 0.76357 0.93693 1.03321 0.0
C174 C 0.66145 0.95764 1.05694 0.0
C175 C 0.87108 0.91446 1.02425 0.0
N176 N 0.82308 0.02 1.08008 0.0
C177 C 0.87474 0.97726 1.0611 0.0
C178 C 0.81476 0.89471 1.00878 0.0
Eu179 Eu 0.822 0.12913 0.13813 0.0
N180 N 0.73296 0.09804 0.14045 0.0
C181 C 0.69627 0.13261 0.18178 0.0
C182 C 0.62895 0.05629 0.13609 0.0
C183 C 0.64336 0.11264 0.17971 0.0
H184 H 0.91881 0.9913 1.07275 0.0
H185 H 0.61373 0.1407 0.21171 0.0
H186 H 0.62037 0.94053 1.05234 0.0
H187 H 0.91169 0.88142 1.00763 0.0
H188 H 0.70687 0.17666 0.21518 0.0
H189 H 0.92988 0.4277 0.18321 0.0
H190 H 0.58784 0.04105 0.13458 0.0
H191 H 0.67912 0.22819 0.96888 0.0
H192 H 0.92133 0.31504 0.1326 0.0
H193 H 0.58541 0.3046 0.95624 0.0
H194 H 0.70245 0.86923 0.99604 0.0
H195 H 0.83666 0.51124 0.18855 0.0
H196 H 0.7237 0.54012 0.15664 0.0
H197 H 0.81214 0.84598 0.98038 0.0
H198 H 0.62943 0.50633 0.09421 0.0
N199 N 0.82423 0.33439 0.10904 0.0
C200 C 0.88037 0.35106 0.13382 0.0
C201 C 0.8327 0.46185 0.16579 0.0
C202 C 0.77608 0.44451 0.13684 0.0
C203 C 0.88543 0.41487 0.16273 0.0
C204 C 0.77364 0.37949 0.10736 0.0
H205 H 0.57788 0.41866 1.01829 0.0
N206 N 0.72295 0.29782 1.03953 0.0
C207 C 0.62305 0.32095 0.98914 0.0
C208 C 0.72113 0.3606 1.07159 0.0
C209 C 0.67626 0.27783 0.99636 0.0
C210 C 0.61888 0.38526 1.02439 0.0
C211 C 0.66889 0.40604 1.06525 0.0
O212 O 0.82319 0.19482 0.96739 0.0
O213 O 0.82097 0.13037 1.05461 0.0
O214 O 0.90108 0.10028 0.09136 0.0
O215 O 0.90988 0.19735 0.09844 0.0
O216 O 0.76735 0.14799 0.98756 0.0
O217 O 0.88803 0.24661 1.03039 0.0
O218 O 0.90133 0.14299 0.20678 0.0
O219 O 0.83208 0.22181 0.14156 0.0
O220 O 0.71931 0.24786 0.08371 0.0
O221 O 0.72328 0.16415 0.10852 0.0
O222 O 0.78617 0.22578 0.20193 0.0
O223 O 0.84217 0.08426 0.19821 0.0
C224 C 0.78687 0.10641 1.00883 0.0
C225 C 0.86312 0.26237 0.94449 0.0
C226 C 0.90272 0.29955 0.88763 0.0
C227 C 0.91251 0.26272 0.92004 0.0
C228 C 0.84364 0.3359 0.88164 0.0
C229 C 0.80575 0.30057 0.93721 0.0
C230 C 0.79625 0.33666 0.90629 0.0
C231 C 0.93379 0.13869 0.09343 0.0
C232 C 0.86893 0.22253 0.97678 0.0
C233 C 0.66936 0.47074 0.09798 0.0
C234 C 0.72298 0.48998 0.13362 0.0
C235 C 0.80429 0.25842 0.18338 0.0
C236 C 0.94568 0.06074 0.24117 0.0
C237 C 0.95696 0.05168 0.29257 0.0
C238 C 0.00857 1.00617 0.30316 0.0
C239 C 0.04861 0.97286 0.26233 0.0
C240 C 0.98607 0.02384 0.20164 0.0
C241 C 0.03713 0.98106 0.21236 0.0
C242 C 0.69358 0.21222 0.095 0.0
C243 C 0.89152 0.10643 0.22666 0.0
H244 H 0.9574 0.23398 0.9253 0.0
H245 H 0.83409 0.36505 0.85826 0.0
H246 H 0.76757 0.30229 0.95523 0.0
H247 H 0.75141 0.36558 0.90125 0.0
H248 H 0.92523 0.07833 0.323 0.0
H249 H 0.08913 0.93912 0.26867 0.0
H250 H 0.97834 0.02844 0.16217 0.0
H251 H 0.06825 0.95377 0.18146 0.0
Eu252 Eu 0.0521 0.9239 0.65895 0.0
C253 C 0.32808 0.85651 0.74491 0.0
C254 C 0.3991 0.92556 0.76683 0.0
C255 C 0.42397 0.8493 0.80849 0.0
C256 C 0.34362 0.90378 0.738 0.0
C257 C 0.36776 0.82931 0.78108 0.0
C258 C 0.43926 0.89788 0.80195 0.0
C259 C 0.29315 0.76553 0.76138 0.0
N260 N 0.27399 0.83751 0.7167 0.0
C261 C 0.25574 0.79328 0.7255 0.0
C262 C 0.34983 0.78287 0.78865 0.0
Eu263 Eu 0.21744 0.8817 0.65039 0.0
N264 N 0.30468 0.9283 0.70268 0.0
C265 C 0.3191 0.974 0.6933 0.0
C266 C 0.41316 0.97364 0.75862 0.0
C267 C 0.37292 0.99794 0.72157 0.0
H268 H 0.21156 0.77996 0.70657 0.0
H269 H 0.38366 0.03454 0.71422 0.0
H270 H 0.48246 0.9133 0.82384 0.0
H271 H 0.2781 0.73071 0.76798 0.0
H272 H 0.28896 0.99171 0.66349 0.0
H273 H 0.97581 0.83339 0.433 0.0
H274 H 0.45523 0.99169 0.78006 0.0
H275 H 0.99423 0.05968 0.75939 0.0
H276 H 0.03352 0.82897 0.52284 0.0
H277 H 0.92675 0.16279 0.76824 0.0
H278 H 0.45602 0.82758 0.83487 0.0
H279 H 0.91371 0.93517 0.43178 0.0
H280 H 0.87322 0.05101 0.48586 0.0
H281 H 0.37893 0.7608 0.816 0.0
H282 H 0.86106 0.14124 0.57761 0.0
N283 N 1.00403 0.92693 0.57132 0.0
C284 C 0.00613 0.8734 0.52254 0.0
C285 C 0.93843 0.93329 0.47122 0.0
C286 C 0.93489 0.98748 0.5218 0.0
C287 C 0.97338 0.87573 0.47175 0.0
C288 C 0.96774 0.98234 0.57199 0.0
H289 H 0.88063 0.18347 0.6829 0.0
N290 N 0.98948 0.02444 0.67072 0.0
C291 C 0.93666 0.12714 0.72722 0.0
C292 C 0.96117 0.03309 0.62331 0.0
C293 C 0.97494 0.06891 0.72212 0.0
C294 C 0.91085 0.13862 0.67901 0.0
C295 C 0.9216 0.09068 0.62609 0.0
O296 O 0.97812 0.93566 0.70301 0.0
O297 O 0.146 0.89237 0.69921 0.0
O298 O 0.18504 0.78986 0.62069 0.0
O299 O 0.07869 0.81781 0.6193 0.0
O300 O 0.08028 0.9424 0.75211 0.0
O301 O 0.98761 0.85859 0.62127 0.0
O302 O 0.24163 0.79205 0.57902 0.0
O303 O 0.12187 0.90565 0.60441 0.0
O304 O 0.09272 1.01308 0.70609 0.0
O305 O 0.20051 0.98094 0.71766 0.0
O306 O 0.18796 0.95374 0.61139 0.0
O307 O 0.28499 0.86957 0.59927 0.0
C308 C 0.1379 0.91662 0.75088 0.0
C309 C 0.93899 0.84354 0.68157 0.0
C310 C 0.91062 0.82657 0.75477 0.0
C311 C 0.937 0.86095 0.73837 0.0
C312 C 0.88735 0.77311 0.7138 0.0
C313 C 0.91576 0.78965 0.64087 0.0
C314 C 0.89056 0.75445 0.65705 0.0
C315 C 0.13022 0.77576 0.61071 0.0
C316 C 0.95771 0.88551 0.66412 0.0
C317 C 0.89154 0.09732 0.57612 0.0
C318 C 0.89816 0.04581 0.524 0.0
C319 C 0.13213 0.94635 0.59081 0.0
C320 C 0.26361 0.80441 0.50262 0.0
C321 C 0.29628 0.83117 0.48337 0.0
C322 C 0.28523 0.82261 0.42652 0.0
C323 C 0.24085 0.78652 0.38924 0.0
C324 C 0.21955 0.76883 0.46433 0.0
C325 C 0.20828 0.7602 0.40814 0.0
C326 C 0.14934 0.02398 0.72971 0.0
C327 C 0.27578 0.81397 0.56249 0.0
H328 H 0.95244 0.90387 0.76989 0.0
H329 H 0.86577 0.74679 0.72561 0.0
H330 H 0.91589 0.77556 0.59651 0.0
H331 H 0.87229 0.71339 0.62537 0.0
H332 H 0.32975 0.85925 0.51295 0.0
H333 H 0.23184 0.77749 0.34502 0.0
H334 H 0.19356 0.74773 0.47769 0.0
H335 H 0.17431 0.73264 0.37894 0.0
H336 H 1.0058 0.15375 0.18938 0.0
H337 H 1.00029 0.06542 1.00937 0.0
H338 H 0.09785 0.9933 1.01877 0.0
H339 H 0.18643 0.962 1.07979 0.0
H340 H 0.19527 0.05624 0.25882 0.0
H341 H 0.08963 0.11415 0.24938 0.0
C342 C 0.02713 0.1197 0.15259 0.0
C343 C 0.9986 0.11556 0.09912 0.0
C344 C 0.08077 0.0774 0.15834 0.0
C345 C 0.02415 0.07037 1.05101 0.0
C346 C 0.07832 0.02812 1.05626 0.0
C347 C 0.1636 0.99311 0.11636 0.0
C348 C 0.19867 1.01224 0.16946 0.0
C349 C 0.10664 0.03113 0.10976 0.0
C350 C 0.16895 0.04596 0.21718 0.0
C351 C 0.10993 0.08093 0.21185 0.0
H352 H 0.2504 0.07947 0.7539 0.0
H353 H 0.06652 0.13332 0.7879 0.0
H354 H 0.03557 0.18894 0.72564 0.0
H355 H 0.05804 0.1988 0.64527 0.0
H356 H 0.24477 0.14573 0.61106 0.0
H357 H 0.27742 0.10279 0.68264 0.0
C358 C 0.20382 0.10429 0.74761 0.0
C359 C 0.1562 0.09064 0.76181 0.0
C360 C 0.18728 0.13129 0.70847 0.0
C361 C 0.10083 0.13485 0.76737 0.0
C362 C 0.0829 0.16565 0.73119 0.0
C363 C 0.10603 0.17988 0.65467 0.0
C364 C 0.14924 0.17819 0.62504 0.0
C365 C 0.125 0.15955 0.6981 0.0
C366 C 0.21054 0.14747 0.63364 0.0
C367 C 0.22963 0.12466 0.67557 0.0
H368 H 0.62953 0.28288 0.18158 0.0
H369 H 0.61229 0.15928 1.0054 0.0
H370 H 0.52163 0.12986 1.01296 0.0
H371 H 0.46211 0.12281 1.07409 0.0
H372 H 0.48004 0.24516 0.25091 0.0
H373 H 0.55518 0.29246 0.23905 0.0
C374 C 0.60347 0.2527 0.14426 0.0
C375 C 0.62682 0.22379 0.09288 0.0
C376 C 0.55303 0.23404 0.14966 0.0
C377 C 0.59414 0.18305 1.04504 0.0
C378 C 0.5432 0.16513 1.0497 0.0
C379 C 0.48235 0.16005 0.10988 0.0
C380 C 0.46769 0.17899 0.16367 0.0
C381 C 0.52482 0.18731 0.10252 0.0
C382 C 0.49203 0.22896 0.20939 0.0
C383 C 0.53457 0.25623 0.20252 0.0
H384 H 0.16731 0.48997 0.56753 0.0
H385 H 1.00512 0.56357 0.64953 0.0
H386 H 1.00007 0.66765 0.65226 0.0
H387 H 0.04473 0.73847 0.63608 0.0
H388 H 0.21014 0.66667 0.55903 0.0
H389 H 0.21045 0.56011 0.54884 0.0
C390 C 0.13049 0.52862 0.58565 0.0
C391 C 0.08647 0.51911 0.60818 0.0
C392 C 0.1282 0.58827 0.58749 0.0
C393 C 0.03911 0.56961 0.63142 0.0
C394 C 0.03619 0.62909 0.63296 0.0
C395 C 0.08001 0.69932 0.61577 0.0
C396 C 0.12694 0.71019 0.59767 0.0
C397 C 0.08074 0.639 0.61154 0.0
C398 C 0.17344 0.65931 0.57304 0.0
C399 C 0.1737 0.59858 0.56741 0.0
H400 H 0.25358 0.20538 0.50067 0.0
H401 H 0.08936 0.28604 0.41744 0.0
H402 H 0.13481 0.23716 0.33074 0.0
H403 H 0.22086 0.16877 0.27724 0.0
H404 H 0.39229 0.10564 0.36432 0.0
H405 H 0.34558 0.14999 0.45021 0.0
C406 C 0.22915 0.21567 0.46479 0.0
C407 C 0.16904 0.25289 0.46741 0.0
C408 C 0.25728 0.19051 0.41535 0.0
C409 C 0.13647 0.26027 0.41808 0.0
C410 C 0.16247 0.23205 0.36809 0.0
C411 C 0.24957 0.16855 0.31559 0.0
C412 C 0.31184 0.13744 0.31426 0.0
C413 C 0.22313 0.19752 0.36616 0.0
C414 C 0.34522 0.13161 0.36403 0.0
C415 C 0.31835 0.1569 0.41343 0.0
H416 H 0.10928 0.37016 0.81207 0.0
H417 H 0.99852 0.29647 0.65287 0.0
H418 H 0.92564 0.27971 0.69477 0.0
H419 H 0.89549 0.28113 0.77781 0.0
H420 H 0.01828 0.33123 0.93479 0.0
H421 H 0.08651 0.35716 0.89337 0.0
C422 C 0.06862 0.35132 0.78659 0.0
C423 C 0.05479 0.34264 0.72895 0.0
C424 C 0.0307 0.33463 0.81121 0.0
C425 C 1.00438 0.31385 0.69748 0.0
C426 C 0.96454 0.30103 0.72168 0.0
C427 C 0.93764 0.29685 0.80302 0.0
C428 C 0.95128 0.30352 0.85976 0.0
C429 C 0.97697 0.31137 0.77871 0.0
C430 C 0.00648 0.32427 0.89104 0.0
C431 C 0.04528 0.34002 0.86735 0.0
H432 H 0.11189 0.87354 0.47616 0.0
H433 H 0.07996 0.06515 0.59859 0.0
H434 H 0.03916 0.10354 0.52348 0.0
H435 H 0.01528 0.08158 0.41984 0.0
H436 H 0.03538 0.88696 0.29952 0.0
H437 H 0.07608 0.85111 0.37514 0.0
C438 C 0.09473 0.92358 0.48644 0.0
C439 C 0.09846 0.9666 0.54365 0.0
C440 C 0.06874 0.94483 0.44244 0.0
C441 C 0.07778 0.03135 0.55536 0.0
C442 C 0.05383 0.05309 0.51206 0.0
C443 C 0.02653 0.03145 0.41028 0.0
C444 C 0.02193 0.98758 0.35302 0.0
C445 C 0.04908 1.01033 0.45497 0.0
C446 C 0.0387 0.92249 0.34242 0.0
C447 C 0.0623 0.90158 0.38594 0.0
H448 H 0.23539 0.98349 0.81192 0.0
H449 H 0.13214 0.86002 0.81518 0.0
H450 H 0.17408 0.88535 0.91416 0.0
H451 H 0.22793 0.9545 1.00379 0.0
H452 H 0.33068 0.07852 1.00154 0.0
H453 H 0.30222 0.04061 0.89899 0.0
C454 C 0.22353 0.96001 0.83307 0.0
C455 C 0.1808 0.9184 0.8044 0.0
C456 C 0.24738 0.97584 0.89124 0.0
C457 C 0.1656 0.89089 0.83494 0.0
C458 C 0.18918 0.90599 0.89211 0.0
C459 C 0.24564 0.97189 0.98073 0.0
C460 C 0.28249 0.01877 1.01094 0.0
C461 C 0.22839 0.95013 0.92138 0.0
C462 C 0.30355 0.04159 0.97986 0.0
C463 C 0.28666 0.0202 0.92095 0.0
H464 H 0.8977 0.03348 0.98948 0.0
H465 H 0.70365 0.03313 0.9376 0.0
H466 H 0.72614 0.93237 0.85621 0.0
H467 H 0.80136 0.85811 0.79206 0.0
H468 H 0.9952 0.85976 0.84857 0.0
H469 H 0.97282 0.94437 0.93936 0.0
C470 C 0.86039 1.00976 0.96251 0.0
C471 C 0.79927 0.03943 0.97035 0.0
C472 C 0.87383 0.95218 0.91696 0.0
C473 C 0.75114 1.00999 0.9328 0.0
C474 C 0.76404 0.95269 0.88637 0.0
C475 C 0.83871 0.8749 0.82534 0.0
C476 C 0.89967 0.85416 0.81367 0.0
C477 C 0.82527 0.92486 0.87684 0.0
C478 C 0.94793 0.87592 0.8568 0.0
C479 C 0.93509 0.92476 0.90826 0.0
H480 H 0.39971 0.91773 0.29503 0.0
H481 H 0.562 0.89197 0.41157 0.0
H482 H 0.50281 0.86221 0.45663 0.0
H483 H 0.40646 0.83617 0.45868 0.0
H484 H 0.24276 0.87189 0.34686 0.0
H485 H 0.30145 0.90547 0.30451 0.0
C486 C 0.42249 0.9069 0.33065 0.0
C487 C 0.48623 0.90565 0.34802 0.0
C488 C 0.38787 0.89094 0.35719 0.0
C489 C 0.51376 0.89121 0.39512 0.0
C490 C 0.47972 0.87463 0.4215 0.0
C491 C 0.38312 0.85244 0.42584 0.0
C492 C 0.32024 0.84989 0.40536 0.0
C493 C 0.41695 0.87303 0.40211 0.0
C494 C 0.29138 0.87113 0.36246 0.0
C495 C 0.32483 0.89095 0.33841 0.0
H496 H 0.23954 0.44495 0.89175 0.0
H497 H 0.43086 0.45689 0.91916 0.0
H498 H 0.45319 0.41447 0.99082 0.0
H499 H 0.41761 0.37635 1.04709 0.0
H500 H 0.22521 0.36837 1.02138 0.0
H501 H 0.20443 0.40525 0.94658 0.0
C502 C 0.28626 0.43751 0.91292 0.0
C503 C 0.33344 0.45411 0.90032 0.0
C504 C 0.2986 0.41369 0.95426 0.0
C505 C 0.39363 0.44508 0.92863 0.0
C506 C 0.40644 0.42069 0.96944 0.0
C507 C 0.37108 0.38311 1.0254 0.0
C508 C 0.32314 0.36952 1.03988 0.0
C509 C 0.35913 0.40549 0.98303 0.0
C510 C 0.26323 0.37754 1.01062 0.0
C511 C 0.25114 0.3991 0.96808 0.0
H512 H 0.9016 0.31521 0.21958 0.0
H513 H 0.70818 0.34951 0.22663 0.0
H514 H 0.71504 0.45312 0.30467 0.0
H515 H 0.78404 0.51766 0.38349 0.0
H516 H 0.97368 0.48941 0.36656 0.0
H517 H 0.95857 0.4035 0.27429 0.0
C518 C 0.86002 0.34736 0.2352 0.0
C519 C 0.80415 0.32607 0.21636 0.0
C520 C 0.8636 0.40794 0.27753 0.0
C521 C 0.75139 0.36598 0.23989 0.0
C522 C 0.75528 0.42513 0.28434 0.0
C523 C 0.82086 0.49574 0.35783 0.0
C524 C 0.88096 0.5059 0.38284 0.0
C525 C 0.81209 0.44503 0.30531 0.0
C526 C 0.92751 0.4801 0.34857 0.0
C527 C 0.91951 0.4294 0.29662 0.0
loop_
_geom_bond_atom_site_label_1
_geom_bond_atom_site_label_2
_geom_bond_distance
_geom_bond_site_symmetry_2
_ccdc_geom_bond_type
Eu0 N31 2.657 . S
Eu0 N38 2.609 . S
Eu0 O44 2.558 1_554 S
Eu0 O45 2.612 1_545 S
Eu0 O47 2.339 . S
Eu0 O48 2.563 1_554 S
Eu0 O49 2.419 . S
Eu0 O51 2.380 . S
Eu0 O52 2.432 . S
Eu0 C64 2.848 1_554 S
C1 C4 1.429 . S
C1 C5 1.411 . S
C1 N8 1.377 1_556 S
C2 C4 1.420 . S
C2 C6 1.423 . S
C2 C14 1.392 . S
C3 C5 1.420 . S
C3 C6 1.351 . S
C3 H26 0.931 . S
C4 C1 1.429 . S
C4 C2 1.420 . S
C4 N12 1.362 . S
C5 C1 1.411 . S
C5 C3 1.420 . S
C5 C10 1.395 . S
C6 C2 1.423 . S
C6 C3 1.351 . S
C6 H18 0.930 . S
C7 C9 1.400 . S
C7 C10 1.386 1_554 S
C7 H19 0.930 . S
N8 C1 1.377 1_554 S
N8 C9 1.321 . S
N8 Eu11 2.609 . S
C9 C7 1.400 . S
C9 N8 1.321 . S
C9 H16 0.930 . S
C10 C5 1.395 . S
C10 C7 1.386 1_556 S
C10 H29 0.930 . S
Eu11 N8 2.609 . S
Eu11 N12 2.657 1_554 S
Eu11 O45 2.380 . S
Eu11 O46 2.432 1_565 S
Eu11 O50 2.558 . S
Eu11 O51 2.612 1_565 S
Eu11 O53 2.339 . S
Eu11 O54 2.563 1_565 S
Eu11 O55 2.419 . S
Eu11 C75 2.848 . S
N12 C4 1.362 . S
N12 Eu11 2.657 1_556 S
N12 C13 1.334 . S
C13 N12 1.334 . S
C13 C15 1.413 . S
C13 H20 0.929 . S
C14 C2 1.392 . S
C14 C15 1.367 . S
C14 H22 0.930 . S
C15 C13 1.413 . S
C15 C14 1.367 . S
C15 H17 0.930 . S
H16 C9 0.930 . S
H17 C15 0.930 . S
H18 C6 0.930 . S
H19 C7 0.930 . S
H20 C13 0.929 . S
H21 C35 0.930 . S
H22 C14 0.930 . S
H23 C41 0.930 . S
H24 C32 0.929 . S
H25 C39 0.930 . S
H26 C3 0.931 . S
H27 C33 0.930 . S
H28 C66 0.930 . S
H29 C10 0.930 . S
H30 C65 0.931 . S
N31 Eu0 2.657 . S
N31 C32 1.334 . S
N31 C36 1.362 . S
C32 H24 0.929 . S
C32 N31 1.334 . S
C32 C35 1.413 . S
C33 H27 0.930 . S
C33 C34 1.392 . S
C33 C35 1.367 . S
C34 C33 1.392 . S
C34 C36 1.420 . S
C34 C66 1.423 . S
C35 H21 0.930 . S
C35 C32 1.413 . S
C35 C33 1.367 . S
C36 N31 1.362 . S
C36 C34 1.420 . S
C36 C40 1.429 . S
H37 C42 0.930 . S
N38 Eu0 2.609 . S
N38 C40 1.377 . S
N38 C41 1.321 . S
C39 H25 0.930 . S
C39 C41 1.400 . S
C39 C42 1.386 . S
C40 C36 1.429 . S
C40 N38 1.377 . S
C40 C43 1.411 . S
C41 H23 0.930 . S
C41 N38 1.321 . S
C41 C39 1.400 . S
C42 H37 0.930 . S
C42 C39 1.386 . S
C42 C43 1.395 . S
C43 C40 1.411 . S
C43 C42 1.395 . S
C43 C65 1.420 . S
O44 Eu0 2.558 1_556 S
O44 C64 1.257 . S
O45 Eu0 2.612 1_565 S
O45 Eu11 2.380 . S
O45 C56 1.276 1_554 S
O46 Eu11 2.432 1_545 S
O46 C63 1.265 . S
O47 Eu0 2.339 . S
O47 C63 1.254 . S
O48 Eu0 2.563 1_556 S
O48 C56 1.235 1_545 S
O49 Eu0 2.419 . S
O49 C64 1.249 1_554 S
O50 Eu11 2.558 . S
O50 C75 1.257 . S
O51 Eu0 2.380 . S
O51 Eu11 2.612 1_545 S
O51 C67 1.276 . S
O52 Eu0 2.432 . S
O52 C74 1.264 . S
O53 Eu11 2.339 . S
O53 C74 1.254 1_565 S
O54 Eu11 2.563 1_545 S
O54 C67 1.235 . S
O55 Eu11 2.419 . S
O55 C75 1.249 . S
C56 O45 1.276 1_556 S
C56 O48 1.235 1_565 S
C57 C59 1.393 . S
C57 C61 1.395 . S
C57 C64 1.492 . S
C58 C59 1.392 . S
C58 C60 1.386 . S
C59 C57 1.393 . S
C59 C58 1.392 . S
C59 H76 0.930 . S
C60 C58 1.386 . S
C60 C62 1.395 . S
C60 H77 0.930 . S
C61 C57 1.395 . S
C61 C62 1.379 . S
C61 H78 0.930 . S
C62 C60 1.395 . S
C62 C61 1.379 . S
C62 H79 0.930 . S
C63 O46 1.265 . S
C63 O47 1.254 . S
C64 Eu0 2.848 1_556 S
C64 O44 1.257 . S
C64 O49 1.249 1_556 S
C64 C57 1.492 . S
C65 H30 0.931 . S
C65 C43 1.420 . S
C65 C66 1.351 . S
C66 H28 0.930 . S
C66 C34 1.423 . S
C66 C65 1.351 . S
C67 O51 1.276 . S
C67 O54 1.235 . S
C68 C69 1.393 . S
C68 C72 1.395 . S
C68 C75 1.492 . S
C69 C68 1.393 . S
C69 C70 1.392 . S
C69 H80 0.930 . S
C70 C69 1.392 . S
C70 C71 1.386 . S
C71 C70 1.386 . S
C71 C73 1.395 . S
C71 H81 0.930 . S
C72 C68 1.395 . S
C72 C73 1.379 . S
C72 H82 0.930 . S
C73 C71 1.395 . S
C73 C72 1.379 . S
C73 H83 0.930 . S
C74 O52 1.264 . S
C74 O53 1.254 1_545 S
C75 Eu11 2.848 . S
C75 O50 1.257 . S
C75 O55 1.249 . S
C75 C68 1.492 . S
H76 C59 0.930 . S
H77 C60 0.930 . S
H78 C61 0.930 . S
H79 C62 0.930 . S
H80 C69 0.930 . S
H81 C71 0.930 . S
H82 C72 0.930 . S
H83 C73 0.930 . S
Eu84 N115 2.657 1_455 S
Eu84 N122 2.609 1_455 S
Eu84 O128 2.558 1_455 S
Eu84 O129 2.612 . S
Eu84 O131 2.339 . S
Eu84 O132 2.563 . S
Eu84 O133 2.419 1_455 S
Eu84 O135 2.380 . S
Eu84 O136 2.432 . S
Eu84 C148 2.848 1_455 S
C85 C88 1.429 . S
C85 C89 1.411 . S
C85 N92 1.377 . S
C86 C88 1.420 . S
C86 C90 1.423 . S
C86 C98 1.392 . S
C87 C89 1.420 . S
C87 C90 1.351 . S
C87 H110 0.931 . S
C88 C85 1.429 . S
C88 C86 1.420 . S
C88 N96 1.362 . S
C89 C85 1.411 . S
C89 C87 1.420 . S
C89 C94 1.395 . S
C90 C86 1.423 . S
C90 C87 1.351 . S
C90 H102 0.930 . S
C91 C93 1.400 . S
C91 C94 1.386 . S
C91 H103 0.930 . S
N92 C85 1.377 . S
N92 C93 1.321 . S
N92 Eu95 2.609 . S
C93 C91 1.400 . S
C93 N92 1.321 . S
C93 H100 0.930 . S
C94 C89 1.395 . S
C94 C91 1.386 . S
C94 H113 0.930 . S
Eu95 N92 2.609 . S
Eu95 N96 2.657 . S
Eu95 O129 2.380 . S
Eu95 O130 2.432 . S
Eu95 O134 2.558 . S
Eu95 O135 2.612 . S
Eu95 O137 2.339 . S
Eu95 O138 2.563 . S
Eu95 O139 2.419 . S
Eu95 C159 2.848 . S
N96 C88 1.362 . S
N96 Eu95 2.657 . S
N96 C97 1.334 . S
C97 N96 1.334 . S
C97 C99 1.413 . S
C97 H104 0.929 . S
C98 C86 1.392 . S
C98 C99 1.367 . S
C98 H106 0.930 . S
C99 C97 1.413 . S
C99 C98 1.367 . S
C99 H101 0.930 . S
H100 C93 0.930 . S
H101 C99 0.930 . S
H102 C90 0.930 . S
H103 C91 0.930 . S
H104 C97 0.929 . S
H105 C119 0.930 . S
H106 C98 0.930 . S
H107 C125 0.930 . S
H108 C116 0.929 . S
H109 C123 0.930 . S
H110 C87 0.931 . S
H111 C117 0.930 . S
H112 C150 0.930 . S
H113 C94 0.930 . S
H114 C149 0.931 . S
N115 Eu84 2.657 1_655 S
N115 C116 1.334 . S
N115 C120 1.362 . S
C116 H108 0.929 . S
C116 N115 1.334 . S
C116 C119 1.413 . S
C117 H111 0.930 . S
C117 C118 1.392 . S
C117 C119 1.367 . S
C118 C117 1.392 . S
C118 C120 1.420 . S
C118 C150 1.423 . S
C119 H105 0.930 . S
C119 C116 1.413 . S
C119 C117 1.367 . S
C120 N115 1.362 . S
C120 C118 1.420 . S
C120 C124 1.429 . S
H121 C126 0.930 . S
N122 Eu84 2.609 1_655 S
N122 C124 1.377 . S
N122 C125 1.321 . S
C123 H109 0.930 . S
C123 C125 1.400 . S
C123 C126 1.386 . S
C124 C120 1.429 . S
C124 N122 1.377 . S
C124 C127 1.411 . S
C125 H107 0.930 . S
C125 N122 1.321 . S
C125 C123 1.400 . S
C126 H121 0.930 . S
C126 C123 1.386 . S
C126 C127 1.395 . S
C127 C124 1.411 . S
C127 C126 1.395 . S
C127 C149 1.420 . S
O128 Eu84 2.558 1_655 S
O128 C148 1.257 . S
O129 Eu84 2.612 . S
O129 Eu95 2.380 . S
O129 C140 1.276 . S
O130 Eu95 2.432 . S
O130 C147 1.264 . S
O131 Eu84 2.339 . S
O131 C147 1.254 . S
O132 Eu84 2.563 . S
O132 C140 1.235 . S
O133 Eu84 2.419 1_655 S
O133 C148 1.249 . S
O134 Eu95 2.558 . S
O134 C159 1.257 . S
O135 Eu84 2.380 . S
O135 Eu95 2.612 . S
O135 C151 1.276 . S
O136 Eu84 2.432 . S
O136 C158 1.264 . S
O137 Eu95 2.339 . S
O137 C158 1.254 . S
O138 Eu95 2.563 . S
O138 C151 1.235 . S
O139 Eu95 2.419 . S
O139 C159 1.249 . S
C140 O129 1.276 . S
C140 O132 1.235 . S
C141 C143 1.393 . S
C141 C145 1.395 . S
C141 C148 1.492 . S
C142 C143 1.392 . S
C142 C144 1.386 . S
C143 C141 1.393 . S
C143 C142 1.392 . S
C143 H160 0.930 . S
C144 C142 1.386 . S
C144 C146 1.395 . S
C144 H161 0.930 . S
C145 C141 1.395 . S
C145 C146 1.379 . S
C145 H162 0.930 . S
C146 C144 1.395 . S
C146 C145 1.379 . S
C146 H163 0.930 . S
C147 O130 1.264 . S
C147 O131 1.254 . S
C148 Eu84 2.848 1_655 S
C148 O128 1.257 . S
C148 O133 1.249 . S
C148 C141 1.492 . S
C149 H114 0.931 . S
C149 C127 1.420 . S
C149 C150 1.351 . S
C150 H112 0.930 . S
C150 C118 1.423 . S
C150 C149 1.351 . S
C151 O135 1.276 . S
C151 O138 1.235 . S
C152 C153 1.393 . S
C152 C156 1.395 . S
C152 C159 1.492 . S
C153 C152 1.393 . S
C153 C154 1.392 . S
C153 H164 0.930 . S
C154 C153 1.392 . S
C154 C155 1.386 . S
C155 C154 1.386 . S
C155 C157 1.395 . S
C155 H165 0.930 . S
C156 C152 1.395 . S
C156 C157 1.379 . S
C156 H166 0.930 . S
C157 C155 1.395 . S
C157 C156 1.379 . S
C157 H167 0.930 . S
C158 O136 1.264 . S
C158 O137 1.254 . S
C159 Eu95 2.848 . S
C159 O134 1.257 . S
C159 O139 1.249 . S
C159 C152 1.492 . S
H160 C143 0.930 . S
H161 C144 0.930 . S
H162 C145 0.930 . S
H163 C146 0.930 . S
H164 C153 0.930 . S
H165 C155 0.930 . S
H166 C156 0.930 . S
H167 C157 0.930 . S
Eu168 N199 2.657 . S
Eu168 N206 2.609 . S
Eu168 O212 2.558 1_554 S
Eu168 O213 2.612 1_554 S
Eu168 O215 2.339 . S
Eu168 O216 2.563 1_554 S
Eu168 O217 2.419 1_554 S
Eu168 O219 2.380 . S
Eu168 O220 2.432 . S
Eu168 C232 2.848 1_554 S
C169 C172 1.429 . S
C169 C173 1.411 . S
C169 N176 1.377 1_566 S
C170 C172 1.420 . S
C170 C174 1.423 . S
C170 C182 1.392 . S
C171 C173 1.420 . S
C171 C174 1.351 . S
C171 H194 0.931 . S
C172 C169 1.429 . S
C172 C170 1.420 . S
C172 N180 1.362 1_565 S
C173 C169 1.411 . S
C173 C171 1.420 . S
C173 C178 1.395 1_655 S
C174 C170 1.423 . S
C174 C171 1.351 . S
C174 H186 0.930 . S
C175 C177 1.400 . S
C175 C178 1.386 1_554 S
C175 H187 0.930 . S
N176 C169 1.377 1_544 S
N176 C177 1.321 1_645 S
N176 Eu179 2.609 . S
C177 C175 1.400 . S
C177 N176 1.321 1_465 S
C177 H184 0.930 1_565 S
C178 C173 1.395 1_455 S
C178 C175 1.386 1_556 S
C178 H197 0.930 . S
Eu179 N176 2.609 . S
Eu179 N180 2.657 1_554 S
Eu179 O213 2.380 1_554 S
Eu179 O214 2.432 . S
Eu179 O218 2.558 . S
Eu179 O219 2.612 . S
Eu179 O221 2.339 . S
Eu179 O222 2.563 . S
Eu179 O223 2.419 . S
Eu179 C243 2.848 . S
N180 C172 1.362 1_545 S
N180 Eu179 2.657 1_556 S
N180 C181 1.334 . S
C181 N180 1.334 . S
C181 C183 1.413 1_545 S
C181 H188 0.929 . S
C182 C170 1.392 . S
C182 C183 1.367 . S
C182 H190 0.930 . S
C183 C181 1.413 1_565 S
C183 C182 1.367 . S
C183 H185 0.930 . S
H184 C177 0.930 1_545 S
H185 C183 0.930 . S
H186 C174 0.930 . S
H187 C175 0.930 . S
H188 C181 0.929 . S
H189 C203 0.930 . S
H190 C182 0.930 . S
H191 C209 0.930 . S
H192 C200 0.929 . S
H193 C207 0.930 . S
H194 C171 0.931 . S
H195 C201 0.930 . S
H196 C234 0.930 . S
H197 C178 0.930 . S
H198 C233 0.931 . S
N199 Eu168 2.657 . S
N199 C200 1.334 . S
N199 C204 1.362 . S
C200 H192 0.929 . S
C200 N199 1.334 . S
C200 C203 1.413 . S
C201 H195 0.930 . S
C201 C202 1.392 . S
C201 C203 1.367 . S
C202 C201 1.392 . S
C202 C204 1.420 . S
C202 C234 1.423 . S
C203 H189 0.930 . S
C203 C200 1.413 . S
C203 C201 1.367 . S
C204 N199 1.362 . S
C204 C202 1.420 . S
C204 C208 1.429 . S
H205 C210 0.930 . S
N206 Eu168 2.609 . S
N206 C208 1.377 . S
N206 C209 1.321 . S
C207 H193 0.930 . S
C207 C209 1.400 . S
C207 C210 1.386 . S
C208 C204 1.429 . S
C208 N206 1.377 . S
C208 C211 1.411 . S
C209 H191 0.930 . S
C209 N206 1.321 . S
C209 C207 1.400 . S
C210 H205 0.930 . S
C210 C207 1.386 . S
C210 C211 1.395 . S
C211 C208 1.411 . S
C211 C210 1.395 . S
C211 C233 1.420 . S
O212 Eu168 2.558 1_556 S
O212 C232 1.257 . S
O213 Eu168 2.612 1_556 S
O213 Eu179 2.380 1_556 S
O213 C224 1.276 . S
O214 Eu179 2.432 . S
O214 C231 1.264 . S
O215 Eu168 2.339 . S
O215 C231 1.254 . S
O216 Eu168 2.563 1_556 S
O216 C224 1.235 . S
O217 Eu168 2.419 1_556 S
O217 C232 1.249 . S
O218 Eu179 2.558 . S
O218 C243 1.257 . S
O219 Eu168 2.380 . S
O219 Eu179 2.612 . S
O219 C235 1.276 . S
O220 Eu168 2.432 . S
O220 C242 1.264 . S
O221 Eu179 2.339 . S
O221 C242 1.254 . S
O222 Eu179 2.563 . S
O222 C235 1.235 . S
O223 Eu179 2.419 . S
O223 C243 1.249 . S
C224 O213 1.276 . S
C224 O216 1.235 . S
C225 C227 1.393 . S
C225 C229 1.395 . S
C225 C232 1.492 . S
C226 C227 1.392 . S
C226 C228 1.386 . S
C227 C225 1.393 . S
C227 C226 1.392 . S
C227 H244 0.930 . S
C228 C226 1.386 . S
C228 C230 1.395 . S
C228 H245 0.930 . S
C229 C225 1.395 . S
C229 C230 1.379 . S
C229 H246 0.930 . S
C230 C228 1.395 . S
C230 C229 1.379 . S
C230 H247 0.930 . S
C231 O214 1.264 . S
C231 O215 1.254 . S
C232 Eu168 2.848 1_556 S
C232 O212 1.257 . S
C232 O217 1.249 . S
C232 C225 1.492 . S
C233 H198 0.931 . S
C233 C211 1.420 . S
C233 C234 1.351 . S
C234 H196 0.930 . S
C234 C202 1.423 . S
C234 C233 1.351 . S
C235 O219 1.276 . S
C235 O222 1.235 . S
C236 C237 1.393 . S
C236 C240 1.395 1_545 S
C236 C243 1.492 . S
C237 C236 1.393 . S
C237 C238 1.392 1_545 S
C237 H248 0.930 . S
C238 C237 1.392 1_565 S
C238 C239 1.386 . S
C239 C238 1.386 . S
C239 C241 1.395 . S
C239 H249 0.930 . S
C240 C236 1.395 1_565 S
C240 C241 1.379 . S
C240 H250 0.930 . S
C241 C239 1.395 . S
C241 C240 1.379 . S
C241 H251 0.930 . S
C242 O220 1.264 . S
C242 O221 1.254 . S
C243 Eu179 2.848 . S
C243 O218 1.257 . S
C243 O223 1.249 . S
C243 C236 1.492 . S
H244 C227 0.930 . S
H245 C228 0.930 . S
H246 C229 0.930 . S
H247 C230 0.930 . S
H248 C237 0.930 . S
H249 C239 0.930 . S
H250 C240 0.930 . S
H251 C241 0.930 . S
Eu252 N283 2.657 . S
Eu252 N290 2.609 1_565 S
Eu252 O296 2.558 1_565 S
Eu252 O297 2.612 1_655 S
Eu252 O299 2.339 1_655 S
Eu252 O300 2.563 1_655 S
Eu252 O301 2.419 . S
Eu252 O303 2.380 1_655 S
Eu252 O304 2.432 1_665 S
Eu252 C316 2.848 . S
C253 C256 1.429 . S
C253 C257 1.411 . S
C253 N260 1.377 . S
C254 C256 1.420 . S
C254 C258 1.423 . S
C254 C266 1.392 . S
C255 C257 1.420 . S
C255 C258 1.351 . S
C255 H278 0.931 . S
C256 C253 1.429 . S
C256 C254 1.420 . S
C256 N264 1.362 . S
C257 C253 1.411 . S
C257 C255 1.420 . S
C257 C262 1.395 . S
C258 C254 1.423 . S
C258 C255 1.351 . S
C258 H270 0.930 . S
C259 C261 1.400 . S
C259 C262 1.386 . S
C259 H271 0.930 . S
N260 C253 1.377 . S
N260 C261 1.321 . S
N260 Eu263 2.609 . S
C261 C259 1.400 . S
C261 N260 1.321 . S
C261 H268 0.930 . S
C262 C257 1.395 . S
C262 C259 1.386 . S
C262 H281 0.930 . S
Eu263 N260 2.609 . S
Eu263 N264 2.657 . S
Eu263 O297 2.380 . S
Eu263 O298 2.432 . S
Eu263 O302 2.558 . S
Eu263 O303 2.612 . S
Eu263 O305 2.339 . S
Eu263 O306 2.563 . S
Eu263 O307 2.419 . S
Eu263 C327 2.848 . S
N264 C256 1.362 . S
N264 Eu263 2.657 . S
N264 C265 1.334 . S
C265 N264 1.334 . S
C265 C267 1.413 . S
C265 H272 0.929 . S
C266 C254 1.392 . S
C266 C267 1.367 . S
C266 H274 0.930 . S
C267 C265 1.413 . S
C267 C266 1.367 . S
C267 H269 0.930 1_565 S
H268 C261 0.930 . S
H269 C267 0.930 1_545 S
H270 C258 0.930 . S
H271 C259 0.930 . S
H272 C265 0.929 . S
H273 C287 0.930 . S
H274 C266 0.930 . S
H275 C293 0.930 . S
H276 C284 0.929 . S
H277 C291 0.930 . S
H278 C255 0.931 . S
H279 C285 0.930 . S
H280 C318 0.930 . S
H281 C262 0.930 . S
H282 C317 0.931 . S
N283 Eu252 2.657 . S
N283 C284 1.334 . S
N283 C288 1.362 . S
C284 H276 0.929 . S
C284 N283 1.334 . S
C284 C287 1.413 . S
C285 H279 0.930 . S
C285 C286 1.392 . S
C285 C287 1.367 . S
C286 C285 1.392 . S
C286 C288 1.420 . S
C286 C318 1.423 . S
C287 H273 0.930 . S
C287 C284 1.413 . S
C287 C285 1.367 . S
C288 N283 1.362 . S
C288 C286 1.420 . S
C288 C292 1.429 1_565 S
H289 C294 0.930 . S
N290 Eu252 2.609 1_545 S
N290 C292 1.377 . S
N290 C293 1.321 . S
C291 H277 0.930 . S
C291 C293 1.400 . S
C291 C294 1.386 . S
C292 C288 1.429 1_545 S
C292 N290 1.377 . S
C292 C295 1.411 . S
C293 H275 0.930 . S
C293 N290 1.321 . S
C293 C291 1.400 . S
C294 H289 0.930 . S
C294 C291 1.386 . S
C294 C295 1.395 . S
C295 C292 1.411 . S
C295 C294 1.395 . S
C295 C317 1.420 . S
O296 Eu252 2.558 1_545 S
O296 C316 1.257 1_545 S
O297 Eu252 2.612 1_455 S
O297 Eu263 2.380 . S
O297 C308 1.276 . S
O298 Eu263 2.432 . S
O298 C315 1.264 . S
O299 Eu252 2.339 1_455 S
O299 C315 1.254 . S
O300 Eu252 2.563 1_455 S
O300 C308 1.235 . S
O301 Eu252 2.419 . S
O301 C316 1.249 . S
O302 Eu263 2.558 . S
O302 C327 1.257 . S
O303 Eu252 2.380 1_455 S
O303 Eu263 2.612 . S
O303 C319 1.276 . S
O304 Eu252 2.432 1_445 S
O304 C326 1.264 . S
O305 Eu263 2.339 . S
O305 C326 1.254 1_565 S
O306 Eu263 2.563 . S
O306 C319 1.235 . S
O307 Eu263 2.419 . S
O307 C327 1.249 . S
C308 O297 1.276 . S
C308 O300 1.235 . S
C309 C311 1.393 . S
C309 C313 1.395 1_565 S
C309 C316 1.492 . S
C310 C311 1.392 . S
C310 C312 1.386 1_565 S
C311 C309 1.393 . S
C311 C310 1.392 . S
C311 H328 0.930 . S
C312 C310 1.386 1_545 S
C312 C314 1.395 . S
C312 H329 0.930 . S
C313 C309 1.395 1_545 S
C313 C314 1.379 . S
C313 H330 0.930 . S
C314 C312 1.395 . S
C314 C313 1.379 . S
C314 H331 0.930 . S
C315 O298 1.264 . S
C315 O299 1.254 . S
C316 Eu252 2.848 . S
C316 O296 1.257 1_565 S
C316 O301 1.249 . S
C316 C309 1.492 . S
C317 H282 0.931 . S
C317 C295 1.420 . S
C317 C318 1.351 1_545 S
C318 H280 0.930 . S
C318 C286 1.423 . S
C318 C317 1.351 1_565 S
C319 O303 1.276 . S
C319 O306 1.235 . S
C320 C321 1.393 . S
C320 C324 1.395 . S
C320 C327 1.492 . S
C321 C320 1.393 . S
C321 C322 1.392 . S
C321 H332 0.930 . S
C322 C321 1.392 . S
C322 C323 1.386 . S
C323 C322 1.386 . S
C323 C325 1.395 . S
C323 H333 0.930 . S
C324 C320 1.395 . S
C324 C325 1.379 . S
C324 H334 0.930 . S
C325 C323 1.395 . S
C325 C324 1.379 . S
C325 H335 0.930 . S
C326 O304 1.264 . S
C326 O305 1.254 1_545 S
C327 Eu263 2.848 . S
C327 O302 1.257 . S
C327 O307 1.249 . S
C327 C320 1.492 . S
H328 C311 0.930 . S
H329 C312 0.930 . S
H330 C313 0.930 . S
H331 C314 0.930 . S
H332 C321 0.930 . S
H333 C323 0.930 . S
H334 C324 0.930 . S
H335 C325 0.930 . S
H336 C342 0.930 1_655 S
H337 C345 0.930 . S
H338 C346 0.930 1_556 S
H339 C347 0.930 . S
H340 C350 0.930 . S
H341 C351 0.930 . S
C342 H336 0.930 1_455 S
C342 C343 1.355 1_455 S
C342 C344 1.415 . S
C343 C342 1.355 1_655 S
C343 C345 1.419 1_654 S
C344 C342 1.415 . S
C344 C349 1.425 . S
C344 C351 1.409 . S
C345 H337 0.930 . S
C345 C343 1.419 1_456 S
C345 C346 1.362 1_556 S
C346 H338 0.930 1_554 S
C346 C345 1.362 1_554 S
C346 C349 1.409 . S
C347 H339 0.930 . S
C347 C348 1.355 . S
C347 C349 1.415 . S
C348 C347 1.355 . S
C348 C350 1.419 . S
C349 C344 1.425 . S
C349 C346 1.409 . S
C349 C347 1.415 . S
C350 H340 0.930 . S
C350 C348 1.419 . S
C350 C351 1.362 . S
C351 H341 0.930 . S
C351 C344 1.409 . S
C351 C350 1.362 . S
H352 C358 0.930 . S
H353 C361 0.930 1_655 S
H354 C362 0.930 1_655 S
H355 C363 0.930 . S
H356 C366 0.930 . S
H357 C367 0.930 . S
C358 H352 0.930 . S
C358 C359 1.355 . S
C358 C360 1.415 . S
C359 C358 1.355 . S
C359 C361 1.419 . S
C360 C358 1.415 . S
C360 C365 1.425 . S
C360 C367 1.409 . S
C361 H353 0.930 1_455 S
C361 C359 1.419 . S
C361 C362 1.362 . S
C362 H354 0.930 1_455 S
C362 C361 1.362 . S
C362 C365 1.409 . S
C363 H355 0.930 . S
C363 C364 1.355 . S
C363 C365 1.415 . S
C364 C363 1.355 . S
C364 C366 1.419 . S
C365 C360 1.425 . S
C365 C362 1.409 . S
C365 C363 1.415 . S
C366 H356 0.930 . S
C366 C364 1.419 . S
C366 C367 1.362 . S
C367 H357 0.930 . S
C367 C360 1.409 . S
C367 C366 1.362 . S
H368 C374 0.930 . S
H369 C377 0.930 1_556 S
H370 C378 0.930 . S
H371 C379 0.940 1_556 S
H372 C382 0.930 . S
H373 C383 0.930 . S
C374 H368 0.930 . S
C374 C375 1.355 . S
C374 C376 1.415 . S
C375 C374 1.355 . S
C375 C377 1.419 . S
C376 C374 1.415 . S
C376 C381 1.425 . S
C376 C383 1.409 . S
C377 H369 0.930 1_554 S
C377 C375 1.419 . S
C377 C378 1.362 1_554 S
C378 H370 0.930 . S
C378 C377 1.362 1_556 S
C378 C381 1.409 1_556 S
C379 H371 0.940 1_554 S
C379 C380 1.355 . S
C379 C381 1.415 . S
C380 C379 1.355 . S
C380 C382 1.419 . S
C381 C376 1.425 . S
C381 C378 1.409 1_554 S
C381 C379 1.415 . S
C382 H372 0.930 . S
C382 C380 1.419 . S
C382 C383 1.362 . S
C383 H373 0.930 . S
C383 C376 1.409 . S
C383 C382 1.362 . S
H384 C390 0.930 . S
H385 C393 0.930 . S
H386 C394 0.930 . S
H387 C395 0.930 . S
H388 C398 0.930 . S
H389 C399 0.930 . S
C390 H384 0.930 . S
C390 C391 1.355 . S
C390 C392 1.415 . S
C391 C390 1.355 . S
C391 C393 1.419 . S
C392 C390 1.415 . S
C392 C397 1.425 . S
C392 C399 1.409 . S
C393 H385 0.930 . S
C393 C391 1.419 . S
C393 C394 1.362 . S
C394 H386 0.930 . S
C394 C393 1.362 . S
C394 C397 1.409 . S
C395 H387 0.930 . S
C395 C396 1.355 . S
C395 C397 1.415 . S
C396 C395 1.355 . S
C396 C398 1.419 . S
C397 C392 1.425 . S
C397 C394 1.409 . S
C397 C395 1.415 . S
C398 H388 0.930 . S
C398 C396 1.419 . S
C398 C399 1.362 . S
C399 H389 0.930 . S
C399 C392 1.409 . S
C399 C398 1.362 . S
H400 C406 0.930 . S
H401 C409 0.930 . S
H402 C410 0.930 . S
H403 C411 0.930 . S
H404 C414 0.930 . S
H405 C415 0.930 . S
C406 H400 0.930 . S
C406 C407 1.355 . S
C406 C408 1.415 . S
C407 C406 1.355 . S
C407 C409 1.419 . S
C408 C406 1.415 . S
C408 C413 1.425 . S
C408 C415 1.409 . S
C409 H401 0.930 . S
C409 C407 1.419 . S
C409 C410 1.362 . S
C410 H402 0.930 . S
C410 C409 1.362 . S
C410 C413 1.409 . S
C411 H403 0.930 . S
C411 C412 1.355 . S
C411 C413 1.415 . S
C412 C411 1.355 . S
C412 C414 1.419 . S
C413 C408 1.425 . S
C413 C410 1.409 . S
C413 C411 1.415 . S
C414 H404 0.930 . S
C414 C412 1.419 . S
C414 C415 1.362 . S
C415 H405 0.930 . S
C415 C408 1.409 . S
C415 C414 1.362 . S
H416 C422 0.930 . S
H417 C425 0.930 . S
H418 C426 0.930 . S
H419 C427 0.930 . S
H420 C430 0.930 . S
H421 C431 0.930 . S
C422 H416 0.930 . S
C422 C423 1.355 1_455 S
C422 C424 1.415 1_455 S
C423 C422 1.355 1_655 S
C423 C425 1.419 . S
C424 C422 1.415 1_655 S
C424 C429 1.425 . S
C424 C431 1.409 1_655 S
C425 H417 0.930 . S
C425 C423 1.419 . S
C425 C426 1.362 . S
C426 H418 0.930 . S
C426 C425 1.362 . S
C426 C429 1.409 . S
C427 H419 0.930 . S
C427 C428 1.355 . S
C427 C429 1.415 . S
C428 C427 1.355 . S
C428 C430 1.419 . S
C429 C424 1.425 . S
C429 C426 1.409 . S
C429 C427 1.415 . S
C430 H420 0.930 . S
C430 C428 1.419 . S
C430 C431 1.362 1_655 S
C431 H421 0.930 . S
C431 C424 1.409 1_455 S
C431 C430 1.362 1_455 S
H432 C438 0.930 . S
H433 C441 0.930 1_545 S
H434 C442 0.930 . S
H435 C443 0.930 . S
H436 C446 0.930 . S
H437 C447 0.930 . S
C438 H432 0.930 . S
C438 C439 1.355 . S
C438 C440 1.415 . S
C439 C438 1.355 . S
C439 C441 1.419 . S
C440 C438 1.415 . S
C440 C445 1.425 . S
C440 C447 1.409 . S
C441 H433 0.930 1_565 S
C441 C439 1.419 . S
C441 C442 1.362 1_565 S
C442 H434 0.930 . S
C442 C441 1.362 1_545 S
C442 C445 1.409 1_545 S
C443 H435 0.930 . S
C443 C444 1.355 1_545 S
C443 C445 1.415 1_545 S
C444 C443 1.355 1_565 S
C444 C446 1.419 . S
C445 C440 1.425 . S
C445 C442 1.409 1_565 S
C445 C443 1.415 1_565 S
C446 H436 0.930 . S
C446 C444 1.419 . S
C446 C447 1.362 . S
C447 H437 0.930 . S
C447 C440 1.409 . S
C447 C446 1.362 . S
H448 C454 0.930 . S
H449 C457 0.930 . S
H450 C458 0.930 . S
H451 C459 0.930 . S
H452 C462 0.930 . S
H453 C463 0.930 . S
C454 H448 0.930 . S
C454 C455 1.355 . S
C454 C456 1.415 . S
C455 C454 1.355 . S
C455 C457 1.419 . S
C456 C454 1.415 . S
C456 C461 1.425 . S
C456 C463 1.409 . S
C457 H449 0.930 . S
C457 C455 1.419 . S
C457 C458 1.362 . S
C458 H450 0.930 . S
C458 C457 1.362 . S
C458 C461 1.409 . S
C459 H451 0.930 . S
C459 C460 1.355 . S
C459 C461 1.415 . S
C460 C459 1.355 . S
C460 C462 1.419 . S
C461 C456 1.425 . S
C461 C458 1.409 . S
C461 C459 1.415 . S
C462 H452 0.930 . S
C462 C460 1.419 . S
C462 C463 1.362 . S
C463 H453 0.930 . S
C463 C456 1.409 . S
C463 C462 1.362 . S
H464 C470 0.930 . S
H465 C473 0.930 . S
H466 C474 0.930 . S
H467 C475 0.930 . S
H468 C478 0.930 . S
H469 C479 0.930 . S
C470 H464 0.930 . S
C470 C471 1.355 . S
C470 C472 1.415 . S
C471 C470 1.355 . S
C471 C473 1.419 . S
C472 C470 1.415 . S
C472 C477 1.425 1_545 S
C472 C479 1.409 . S
C473 H465 0.930 . S
C473 C471 1.419 . S
C473 C474 1.362 1_545 S
C474 H466 0.930 . S
C474 C473 1.362 1_565 S
C474 C477 1.409 . S
C475 H467 0.930 . S
C475 C476 1.355 . S
C475 C477 1.415 . S
C476 C475 1.355 . S
C476 C478 1.419 . S
C477 C472 1.425 1_565 S
C477 C474 1.409 . S
C477 C475 1.415 . S
C478 H468 0.930 . S
C478 C476 1.419 . S
C478 C479 1.362 1_565 S
C479 H469 0.930 . S
C479 C472 1.409 . S
C479 C478 1.362 1_545 S
H480 C486 0.930 . S
H481 C489 0.930 . S
H482 C490 0.930 . S
H483 C491 0.930 . S
H484 C494 0.930 . S
H485 C495 0.930 . S
C486 H480 0.930 . S
C486 C487 1.355 . S
C486 C488 1.415 . S
C487 C486 1.355 . S
C487 C489 1.419 . S
C488 C486 1.415 . S
C488 C493 1.425 . S
C488 C495 1.409 . S
C489 H481 0.930 . S
C489 C487 1.419 . S
C489 C490 1.362 . S
C490 H482 0.930 . S
C490 C489 1.362 . S
C490 C493 1.409 . S
C491 H483 0.930 . S
C491 C492 1.355 . S
C491 C493 1.415 . S
C492 C491 1.355 . S
C492 C494 1.419 . S
C493 C488 1.425 . S
C493 C490 1.409 . S
C493 C491 1.415 . S
C494 H484 0.930 . S
C494 C492 1.419 . S
C494 C495 1.362 . S
C495 H485 0.930 . S
C495 C488 1.409 . S
C495 C494 1.362 . S
H496 C502 0.930 . S
H497 C505 0.930 . S
H498 C506 0.930 . S
H499 C507 0.930 . S
H500 C510 0.930 . S
H501 C511 0.930 . S
C502 H496 0.930 . S
C502 C503 1.355 . S
C502 C504 1.415 . S
C503 C502 1.355 . S
C503 C505 1.419 . S
C504 C502 1.415 . S
C504 C509 1.425 . S
C504 C511 1.409 . S
C505 H497 0.930 . S
C505 C503 1.419 . S
C505 C506 1.362 . S
C506 H498 0.930 . S
C506 C505 1.362 . S
C506 C509 1.409 . S
C507 H499 0.930 . S
C507 C508 1.355 . S
C507 C509 1.415 . S
C508 C507 1.355 . S
C508 C510 1.419 . S
C509 C504 1.425 . S
C509 C506 1.409 . S
C509 C507 1.415 . S
C510 H500 0.930 . S
C510 C508 1.419 . S
C510 C511 1.362 . S
C511 H501 0.930 . S
C511 C504 1.409 . S
C511 C510 1.362 . S
H512 C518 0.930 . S
H513 C521 0.930 . S
H514 C522 0.930 . S
H515 C523 0.930 . S
H516 C526 0.930 . S
H517 C527 0.930 . S
C518 H512 0.930 . S
C518 C519 1.355 . S
C518 C520 1.415 . S
C519 C518 1.355 . S
C519 C521 1.419 . S
C520 C518 1.415 . S
C520 C525 1.425 . S
C520 C527 1.409 . S
C521 H513 0.930 . S
C521 C519 1.419 . S
C521 C522 1.362 . S
C522 H514 0.930 . S
C522 C521 1.362 . S
C522 C525 1.409 . S
C523 H515 0.930 . S
C523 C524 1.355 . S
C523 C525 1.415 . S
C524 C523 1.355 . S
C524 C526 1.419 . S
C525 C520 1.425 . S
C525 C522 1.409 . S
C525 C523 1.415 . S
C526 H516 0.930 . S
C526 C524 1.419 . S
C526 C527 1.362 . S
C527 H517 0.930 . S
C527 C520 1.409 . S
C527 C526 1.362 . S
C343 C231 0.873 . S
C348 C74 0.873 . S
C359 C326 0.573 . S
C364 C158 0.524 . S
C375 C242 1.216 . S
C380 C63 1.216 . S
C391 C147 0.890 . S
C396 C315 0.887 . S
C407 C140 2.998 . S
C412 C67 3.010 . S
C423 C151 3.115 1_655 S
C428 C226 3.152 . S
C439 C319 2.474 1_655 S
C444 C238 2.201 . S
C455 C308 2.555 . S
C460 C56 2.392 . S
C471 C224 0.908 . S
C476 C310 0.654 . S
C487 C70 0.713 . S
C492 C322 0.602 . S
C503 C154 0.416 . S
C508 C58 0.781 . S
C519 C235 0.557 . S
C524 C142 0.986 . S
