# Generated by pormake.
# Topology uni, (4)-cn, num edge types: 1
# Building blocks:
#     Node 0, Type 0, BuildingBlock: KUFVIS_clean_sbu_0, # of connection points: 4
#     Node 1, Type 0, BuildingBlock: KUFVIS_clean_sbu_0, # of connection points: 4
#     Node 2, Type 0, BuildingBlock: KUFVIS_clean_sbu_0, # of connection points: 4
#     Node 3, Type 0, BuildingBlock: KUFVIS_clean_sbu_0, # of connection points: 4
#     Node 4, Type 0, BuildingBlock: KUFVIS_clean_sbu_0, # of connection points: 4
#     Node 5, Type 0, BuildingBlock: KUFVIS_clean_sbu_0, # of connection points: 4
#     Edge 6, Type (0, 0), BuildingBlock: XUDNAN_clean_linker_2, # of connection points: 2
#     Edge 7, Type (0, 0), BuildingBlock: XUDNAN_clean_linker_2, # of connection points: 2
#     Edge 8, Type (0, 0), BuildingBlock: XUDNAN_clean_linker_2, # of connection points: 2
#     Edge 9, Type (0, 0), BuildingBlock: XUDNAN_clean_linker_2, # of connection points: 2
#     Edge 10, Type (0, 0), BuildingBlock: XUDNAN_clean_linker_2, # of connection points: 2
#     Edge 11, Type (0, 0), BuildingBlock: XUDNAN_clean_linker_2, # of connection points: 2
#     Edge 12, Type (0, 0), BuildingBlock: XUDNAN_clean_linker_2, # of connection points: 2
#     Edge 13, Type (0, 0), BuildingBlock: XUDNAN_clean_linker_2, # of connection points: 2
#     Edge 14, Type (0, 0), BuildingBlock: XUDNAN_clean_linker_2, # of connection points: 2
#     Edge 15, Type (0, 0), BuildingBlock: XUDNAN_clean_linker_2, # of connection points: 2
#     Edge 16, Type (0, 0), BuildingBlock: XUDNAN_clean_linker_2, # of connection points: 2
#     Edge 17, Type (0, 0), BuildingBlock: XUDNAN_clean_linker_2, # of connection points: 2
# Relax obj value: 0.055
# Max RMSD: 0.074
# Mean RMSD: 0.074
data_MOF--net-uni--node1-KUFVIS_clean_sbu_0--edge1-XUDNAN_clean_linker_2
_symmetry_space_group_name_H-M    P1
_symmetry_Int_Tables_number       1
_symmetry_cell_setting            triclinic
loop_
_symmetry_equiv_pos_as_xyz
'x, y, z'
_cell_length_a     38.206005
_cell_length_b     38.199555
_cell_length_c     22.942577
_cell_angle_alpha  90.165194
_cell_angle_beta   89.705502
_cell_angle_gamma 120.00414
loop_
_atom_site_label
_atom_site_type_symbol
_atom_site_fract_x
_atom_site_fract_y
_atom_site_fract_z
_atom_type_partial_charge
Mn0 Mn 0.65569 0.02822 0.08004 0.0
Mn1 Mn 0.65851 0.11741 0.09986 0.0
C2 C 0.61718 0.03482 0.15306 0.0
C3 C 0.67795 0.98233 0.09764 0.0
C4 C 0.61311 0.06003 1.00131 0.0
O5 O 0.70803 0.06855 0.03821 0.0
O6 O 0.7077 0.12657 0.05675 0.0
C7 C 0.72858 0.15717 0.17932 0.0
N8 N 0.68889 0.14374 0.16809 0.0
C9 C 0.68008 0.16808 0.26077 0.0
C10 C 0.72094 0.1824 0.27317 0.0
C11 C 0.74526 0.17685 0.2323 0.0
C12 C 0.66523 0.14902 0.20703 0.0
H13 H 0.74736 0.15286 0.14812 0.0
C14 C 0.72389 0.107 0.03511 0.0
O15 O 0.65843 0.98063 0.05067 0.0
O16 O 0.68637 0.01192 0.13336 0.0
N17 N 0.61288 0.11267 0.14173 0.0
C18 C 0.57341 0.09416 0.12511 0.0
C19 C 0.54471 0.0954 0.16222 0.0
C20 C 0.55689 0.11576 0.21584 0.0
C21 C 0.59767 0.1346 0.23197 0.0
C22 C 0.62497 0.13263 0.19301 0.0
H23 H 0.56386 0.07833 0.08406 0.0
O24 O 0.60711 0.99953 0.13175 0.0
O25 O 0.6493 0.06531 0.13058 0.0
O26 O 0.62094 0.03254 0.01579 0.0
O27 O 0.6259 0.09311 0.02908 0.0
C28 C 0.61212 0.15437 0.28579 0.0
C29 C 0.6533 0.17111 0.30018 0.0
H30 H 0.73384 0.19731 0.31418 0.0
H31 H 0.77676 0.18763 0.2417 0.0
H32 H 0.51324 0.08054 0.14966 0.0
H33 H 0.53462 0.11639 0.24456 0.0
H34 H 0.59168 0.15625 0.31687 0.0
H35 H 0.66391 0.18565 0.34209 0.0
Mn36 Mn 0.66331 0.6528 0.22948 0.0
Mn37 Mn 0.57452 0.64938 0.25487 0.0
C38 C 0.61351 0.60122 0.28537 0.0
C39 C 0.73052 0.67258 0.25023 0.0
C40 C 0.59271 0.62152 0.14216 0.0
O41 O 0.67742 0.71052 0.2112 0.0
O42 O 0.61525 0.70275 0.22146 0.0
C43 C 0.60391 0.71051 0.34929 0.0
N44 N 0.57779 0.67239 0.33018 0.0
C45 C 0.54144 0.6552 0.42119 0.0
C46 C 0.56789 0.69427 0.4418 0.0
C47 C 0.59944 0.72196 0.40582 0.0
C48 C 0.548 0.64519 0.36501 0.0
H49 H 0.62786 0.73211 0.32157 0.0
C50 C 0.65281 0.72382 0.20807 0.0
O51 O 0.71626 0.66316 0.19782 0.0
O52 O 0.70607 0.67146 0.29068 0.0
N53 N 0.5319 0.60036 0.28748 0.0
C54 C 0.50766 0.56455 0.26008 0.0
C55 C 0.4749 0.5334 0.29037 0.0
C56 C 0.46665 0.53977 0.3479 0.0
C57 C 0.49097 0.57743 0.37436 0.0
C58 C 0.52358 0.60713 0.34232 0.0
H59 H 0.51344 0.55969 0.21558 0.0
O60 O 0.6406 0.59614 0.25841 0.0
O61 O 0.61604 0.63622 0.27869 0.0
O62 O 0.62935 0.63286 0.15472 0.0
O63 O 0.56818 0.62417 0.17737 0.0
C64 C 0.48347 0.58699 0.43068 0.0
C65 C 0.50857 0.62592 0.45395 0.0
H66 H 0.56421 0.70337 0.48512 0.0
H67 H 0.62 0.75218 0.42141 0.0
H68 H 0.45591 0.50463 0.26929 0.0
H69 H 0.44118 0.51578 0.37099 0.0
H70 H 0.4584 0.56468 0.45642 0.0
H71 H 0.50254 0.63289 0.49737 0.0
Mn72 Mn 0.04722 0.66584 0.39942 0.0
Mn73 Mn 0.96091 0.57833 0.42834 0.0
C74 C 0.0462 0.62088 0.46895 0.0
C75 C 0.09294 0.7344 0.4154 0.0
C76 C 1.01052 0.59226 0.31841 0.0
O77 O 1.00343 0.67649 0.36731 0.0
O78 O 0.94777 0.61799 0.39345 0.0
C79 C 0.92738 0.60755 0.52081 0.0
N80 N 0.93958 0.58137 0.50254 0.0
C81 C 0.92103 0.54639 0.5945 0.0
C82 C 0.9077 0.5726 0.61397 0.0
C83 C 0.91107 0.60342 0.57704 0.0
C84 C 0.93679 0.55182 0.53788 0.0
H85 H 0.93036 0.63156 0.49287 0.0
C86 C 0.96502 0.65353 0.37107 0.0
O87 O 0.09125 0.71728 0.36582 0.0
O88 O 0.06708 0.71218 0.45519 0.0
N89 N 0.96948 0.53781 0.46331 0.0
C90 C 0.987 0.51747 0.43982 0.0
C91 C 0.98764 0.48661 0.47205 0.0
C92 C 0.97019 0.47694 0.52795 0.0
C93 C 0.95279 0.49861 0.55149 0.0
C94 C 0.95262 0.52872 0.51708 0.0
H95 H 1.00031 0.52472 0.39682 0.0
O96 O 0.07984 0.6462 0.44324 0.0
O97 O 1.01444 0.62194 0.45184 0.0
O98 O 0.03819 0.62793 0.331 0.0
O99 O 0.98012 0.57092 0.35123 0.0
C100 C 0.93619 0.49194 0.60809 0.0
C101 C 0.92039 0.51587 0.62963 0.0
H102 H 0.8954 0.56972 0.65748 0.0
H103 H 0.90126 0.62405 0.59198 0.0
H104 H 1.00148 0.47025 0.45383 0.0
H105 H 0.97057 0.453 0.55261 0.0
H106 H 0.93608 0.46897 0.6358 0.0
H107 H 0.90844 0.51099 0.67362 0.0
Mn108 Mn 0.41587 0.04593 0.5802 0.0
Mn109 Mn 0.415 0.95842 0.60614 0.0
C110 C 0.45544 0.04251 0.65429 0.0
C111 C 0.391 0.09008 0.59425 0.0
C112 C 0.45817 0.01308 0.50307 0.0
O113 O 0.36429 1.00335 0.53904 0.0
O114 O 0.3637 0.94649 0.56765 0.0
C115 C 0.34892 0.92242 0.69351 0.0
N116 N 0.38775 0.93462 0.67775 0.0
C117 C 0.40045 0.91265 0.76944 0.0
C118 C 0.36031 0.89902 0.7861 0.0
C119 C 0.33451 0.90415 0.74809 0.0
C120 C 0.41299 0.93029 0.71427 0.0
H121 H 0.32926 0.927 0.66491 0.0
C122 C 0.34756 0.9648 0.54231 0.0
O123 O 0.41026 0.09099 0.54709 0.0
O124 O 0.38467 0.0625 0.63248 0.0
N125 N 0.46262 0.9657 0.64435 0.0
C126 C 0.50142 0.98422 0.6242 0.0
C127 C 0.53164 0.98396 0.65845 0.0
C128 C 0.52164 0.96453 0.71287 0.0
C129 C 0.48159 0.94587 0.73283 0.0
C130 C 0.45268 0.94677 0.69656 0.0
H131 H 0.50927 0.99912 0.58237 0.0
O132 O 0.46441 0.07709 0.63148 0.0
O133 O 0.42387 0.01118 0.63286 0.0
O134 O 0.45123 0.04125 0.51721 0.0
O135 O 0.44484 0.98022 0.5317 0.0
C136 C 0.46939 0.92721 0.78784 0.0
C137 C 0.42886 0.91064 0.80616 0.0
H138 H 0.34919 0.88527 0.8284 0.0
H139 H 0.30366 0.89427 0.76098 0.0
H140 H 0.56257 0.99872 0.64297 0.0
H141 H 0.54504 0.96446 0.73925 0.0
H142 H 0.49112 0.92618 0.81689 0.0
H143 H 0.42004 0.89717 0.84907 0.0
Mn144 Mn 0.4097 0.42135 0.72715 0.0
Mn145 Mn 0.49545 0.4192 0.75522 0.0
C146 C 0.4585 0.46966 0.78806 0.0
C147 C 0.34212 0.40054 0.74806 0.0
C148 C 0.4805 0.45012 0.64152 0.0
O149 O 0.39597 0.36494 0.69972 0.0
O150 O 0.45247 0.36509 0.72813 0.0
C151 C 0.46562 0.36371 0.8564 0.0
N152 N 0.49277 0.4001 0.83293 0.0
C153 C 0.53043 0.42121 0.92229 0.0
C154 C 0.50308 0.38383 0.9473 0.0
C155 C 0.47035 0.35508 0.91432 0.0
C156 C 0.52368 0.42841 0.86479 0.0
H157 H 0.44055 0.34145 0.83111 0.0
C158 C 0.41686 0.34757 0.70636 0.0
O159 O 0.35765 0.41427 0.69702 0.0
O160 O 0.36542 0.39788 0.78659 0.0
N161 N 0.5399 0.46903 0.78233 0.0
C162 C 0.56472 0.50284 0.75098 0.0
C163 C 0.59873 0.53475 0.77781 0.0
C164 C 0.60749 0.53116 0.83612 0.0
C165 C 0.58243 0.49546 0.86682 0.0
C166 C 0.5488 0.4648 0.8379 0.0
H167 H 0.55859 0.50552 0.70591 0.0
O168 O 0.43164 0.47604 0.76375 0.0
O169 O 0.45553 0.43487 0.77711 0.0
O170 O 0.4462 0.44579 0.65551 0.0
O171 O 0.50117 0.44047 0.67464 0.0
C172 C 0.59004 0.48874 0.92452 0.0
C173 C 0.56424 0.45152 0.95205 0.0
H174 H 0.50686 0.37694 0.99179 0.0
H175 H 0.449 0.32622 0.93338 0.0
H176 H 0.61825 0.56196 0.7535 0.0
H177 H 0.63382 0.55577 0.85662 0.0
H178 H 0.61582 0.51189 0.94799 0.0
H179 H 0.57046 0.44666 0.99639 0.0
Mn180 Mn 0.02609 0.40818 0.90044 0.0
Mn181 Mn 0.11493 0.49434 0.92441 0.0
C182 C 0.02887 0.45559 0.9664 0.0
C183 C 0.97941 0.34018 0.91893 0.0
C184 C 0.06292 0.48216 0.81909 0.0
O185 O 0.0676 0.39484 0.86619 0.0
O186 O 0.12466 0.45328 0.8861 0.0
C187 C 0.14698 0.46125 0.01244 0.0
N188 N 0.13601 0.48881 0.99697 0.0
C189 C 0.15689 0.52226 0.08978 0.0
C190 C 0.16854 0.49432 0.10667 0.0
C191 C 0.16333 0.46354 0.06793 0.0
C192 C 0.13999 0.51795 0.03441 0.0
H193 H 0.14334 0.43775 0.98261 0.0
C194 C 0.106 0.4174 0.86532 0.0
O195 O 0.97993 0.35716 0.86983 0.0
O196 O 1.00694 0.36218 0.95676 0.0
N197 N 0.11124 0.53738 0.96126 0.0
C198 C 0.10092 0.56348 0.93694 0.0
C199 C 0.10448 0.59613 0.96991 0.0
C200 C 0.11973 0.60232 0.02688 0.0
C201 C 0.13187 0.57616 0.05001 0.0
C202 C 0.12724 0.5439 0.01531 0.0
H203 H 0.08976 0.55927 0.89286 0.0
O204 O 0.99479 0.42891 0.94378 0.0
O205 O 0.06055 0.45326 0.9511 0.0
O206 O 0.03468 0.44673 0.83254 0.0
O207 O 0.09449 0.50279 0.84985 0.0
C208 C 0.14932 0.58142 0.10556 0.0
C209 C 0.16176 0.55444 0.12549 0.0
H210 H 0.18156 0.49626 0.14922 0.0
H211 H 0.1722 0.44183 0.08066 0.0
H212 H 0.09566 0.61657 0.95136 0.0
H213 H 0.12258 0.62763 0.0521 0.0
H214 H 0.15332 0.60611 0.13337 0.0
H215 H 0.17496 0.55869 0.16842 0.0
H216 H 0.5371 0.99641 0.18516 0.0
H217 H 0.65818 0.07562 0.24919 0.0
H218 H 0.63023 0.08029 0.34435 0.0
H219 H 0.48498 0.04079 0.26261 0.0
H220 H 0.44128 0.99239 0.27785 0.0
H221 H 0.47152 0.99887 0.2139 0.0
H222 H 0.47973 0.93859 0.24899 0.0
H223 H 0.45062 0.93354 0.31365 0.0
H224 H 0.50086 0.94088 0.31993 0.0
H225 H 0.58936 0.07888 0.43053 0.0
H226 H 0.53838 0.06439 0.50772 0.0
H227 H 0.44368 0.98061 0.3926 0.0
C228 C 0.55751 0.01512 0.21915 0.0
C229 C 0.59965 0.03764 0.20911 0.0
C230 C 0.6257 0.06009 0.25523 0.0
C231 C 0.61012 0.06257 0.3095 0.0
C232 C 0.56837 0.04135 0.31748 0.0
C233 C 0.54238 0.01742 0.27407 0.0
C234 C 0.49895 0.9954 0.29574 0.0
C235 C 0.47265 1.00761 0.26039 0.0
C236 C 0.48153 0.94937 0.29451 0.0
C237 C 0.50461 0.01114 0.35781 0.0
C238 C 0.54491 0.03801 0.36903 0.0
C239 C 0.55778 0.05759 0.42253 0.0
C240 C 0.52872 0.04929 0.46595 0.0
C241 C 0.48749 0.02126 0.4559 0.0
C242 C 0.4752 1.00188 0.40125 0.0
H243 H 0.61685 0.61475 0.40233 0.0
H244 H 0.55656 0.52198 0.27136 0.0
H245 H 0.51492 0.47311 0.34837 0.0
H246 H 0.62357 0.54355 0.50076 0.0
H247 H 0.62006 0.56784 0.56617 0.0
H248 H 0.64219 0.59723 0.50114 0.0
H249 H 0.58874 0.62271 0.50008 0.0
H250 H 0.57386 0.59748 0.56959 0.0
H251 H 0.53664 0.58506 0.51424 0.0
H252 H 0.47604 0.4366 0.43946 0.0
H253 H 0.45105 0.41106 0.53916 0.0
H254 H 0.54442 0.52409 0.61182 0.0
C255 C 0.59428 0.58429 0.3901 0.0
C256 C 0.5882 0.57235 0.33095 0.0
C257 C 0.56048 0.53176 0.3164 0.0
C258 C 0.53683 0.50394 0.35978 0.0
C259 C 0.54292 0.51675 0.41774 0.0
C260 C 0.57185 0.55563 0.43317 0.0
C261 C 0.57618 0.56003 0.49897 0.0
C262 C 0.61798 0.56761 0.51786 0.0
C263 C 0.56847 0.59341 0.52187 0.0
C264 C 0.54304 0.51855 0.51806 0.0
C265 C 0.52415 0.49407 0.4705 0.0
C266 C 0.49106 0.45522 0.47702 0.0
C267 C 0.47697 0.44104 0.53358 0.0
C268 C 0.49625 0.46545 0.58271 0.0
C269 C 0.52977 0.50458 0.57487 0.0
H270 H 0.09643 0.49862 0.70871 0.0
H271 H 1.01372 0.51327 0.82248 0.0
H272 H 1.00321 0.55255 0.74601 0.0
H273 H 0.14099 0.59793 0.63941 0.0
H274 H 0.1443 0.57958 0.56829 0.0
H275 H 0.14709 0.55425 0.63277 0.0
H276 H 0.08917 0.48792 0.59362 0.0
H277 H 0.08287 0.51185 0.53011 0.0
H278 H 0.04094 0.48335 0.57893 0.0
H279 H 1.00644 0.59483 0.66259 0.0
H280 H 1.01127 0.62672 0.56756 0.0
H281 H 0.08534 0.57903 0.50058 0.0
C282 C 0.07606 0.51009 0.71703 0.0
C283 C 0.05571 0.50312 0.77108 0.0
C284 C 0.02926 0.51831 0.78103 0.0
C285 C 0.02338 0.54081 0.73813 0.0
C286 C 0.044 0.54754 0.68539 0.0
C287 C 0.06929 0.53217 0.67404 0.0
C288 C 0.08622 0.54263 0.61237 0.0
C289 C 0.13239 0.57024 0.61329 0.0
C290 C 0.07406 0.50418 0.57657 0.0
C291 C 0.06564 0.56538 0.59061 0.0
C292 C 0.04261 0.5689 0.63445 0.0
C293 C 0.02328 0.59122 0.62731 0.0
C294 C 0.02596 0.60896 0.57309 0.0
C295 C 0.04656 0.60321 0.52598 0.0
C296 C 0.06799 0.5824 0.53535 0.0
H297 H 0.62825 0.09391 0.8921 0.0
H298 H 0.53304 1.00723 1.00471 0.0
H299 H 0.48241 0.99483 0.92852 0.0
H300 H 0.57123 0.13526 0.82528 0.0
H301 H 0.59292 0.1398 0.7538 0.0
H302 H 0.62158 0.14295 0.81769 0.0
H303 H 0.63173 0.08608 0.77683 0.0
H304 H 0.60157 0.0803 0.71351 0.0
H305 H 0.58866 0.03767 0.7603 0.0
H306 H 0.44199 0.99724 0.84525 0.0
H307 H 0.41441 1.00327 0.75116 0.0
H308 H 0.53576 0.08183 0.68622 0.0
C309 C 0.59671 0.07225 0.90027 0.0
C310 C 0.58416 0.05145 0.95392 0.0
C311 C 0.54291 0.0232 0.96357 0.0
C312 C 0.51405 0.0162 0.92081 0.0
C313 C 0.52717 0.03736 0.86844 0.0
C314 C 0.56754 0.06424 0.8574 0.0
C315 C 0.57346 0.08163 0.79631 0.0
C316 C 0.59082 0.12764 0.79843 0.0
C317 C 0.60042 0.07076 0.75952 0.0
C318 C 0.53013 0.06009 0.77474 0.0
C319 C 0.50395 0.0356 0.81782 0.0
C320 C 0.46223 0.01519 0.81048 0.0
C321 C 0.44687 0.01851 0.75683 0.0
C322 C 0.47308 0.04086 0.71057 0.0
C323 C 0.51521 0.0631 0.72025 0.0
H324 H 0.52565 0.54977 0.11313 0.0
H325 H 0.62782 0.65629 0.03894 0.0
H326 H 0.6039 0.62965 0.93958 0.0
H327 H 0.52963 0.48236 0.02053 0.0
H328 H 0.47671 0.44804 1.00663 0.0
H329 H 0.4927 0.47497 0.07478 0.0
H330 H 0.45175 0.51011 0.06583 0.0
H331 H 0.42888 0.48015 1.00161 0.0
H332 H 0.452 0.53441 0.99849 0.0
H333 H 0.56425 0.59429 0.84883 0.0
H334 H 0.52065 0.5463 0.77261 0.0
H335 H 0.4525 0.45738 0.90539 0.0
C336 C 0.54263 0.5676 0.07586 0.0
C337 C 0.57824 0.60528 0.08328 0.0
C338 C 0.60038 0.62741 0.03379 0.0
C339 C 0.5869 0.61264 0.97738 0.0
C340 C 0.55168 0.57532 0.97138 0.0
C341 C 0.53018 0.55278 0.01926 0.0
C342 C 0.49505 0.51226 1.00084 0.0
C343 C 0.49868 0.47725 0.02709 0.0
C344 C 0.45453 0.50906 0.01769 0.0
C345 C 0.50092 0.51505 0.93518 0.0
C346 C 0.53259 0.55246 0.91906 0.0
C347 C 0.54034 0.56438 0.86081 0.0
C348 C 0.51562 0.53702 0.81789 0.0
C349 C 0.48514 0.49759 0.83324 0.0
C350 C 0.47729 0.48666 0.89263 0.0
H351 H 0.04209 0.45459 0.08327 0.0
H352 H 1.01036 0.5146 0.95137 0.0
H353 H 1.0048 0.55786 0.02716 0.0
H354 H 0.9659 0.44954 0.18147 0.0
H355 H 0.9935 0.45384 0.24708 0.0
H356 H 1.00136 0.43144 0.18274 0.0
H357 H 0.07978 0.48507 0.18161 0.0
H358 H 0.06941 0.50133 0.25014 0.0
H359 H 0.09425 0.53744 0.19303 0.0
H360 H 1.0064 0.59683 0.11632 0.0
H361 H 1.00324 0.62142 0.21511 0.0
H362 H 0.0221 0.52854 0.29141 0.0
C363 C 0.03517 0.47774 0.07055 0.0
C364 C 0.02901 0.48324 0.01136 0.0
C365 C 0.01687 0.51141 0.99633 0.0
C366 C 1.01358 0.53594 0.03902 0.0
C367 C 0.02045 0.53038 0.09696 0.0
C368 C 0.02991 0.50125 0.11312 0.0
C369 C 0.02957 0.49739 0.1791 0.0
C370 C 0.99556 0.45557 0.19874 0.0
C371 C 0.07072 0.50575 0.20216 0.0
C372 C 0.02074 0.53044 0.19728 0.0
C373 C 1.01598 0.54929 0.14908 0.0
C374 C 1.00953 0.58198 0.1544 0.0
C375 C 1.00789 0.59579 0.21047 0.0
C376 C 1.01197 0.57652 0.26035 0.0
C377 C 0.01826 0.5433 0.25377 0.0
H378 H 0.61479 0.75194 0.13844 0.0
H379 H 0.72446 0.7909 0.2375 0.0
H380 H 0.74578 0.86242 0.21549 0.0
H381 H 0.66201 0.82985 0.02396 0.0
H382 H 0.61765 0.83466 0.0166 0.0
H383 H 0.61263 0.787 0.03798 0.0
H384 H 0.57304 0.78636 0.13042 0.0
H385 H 0.57808 0.83403 0.10954 0.0
H386 H 0.59557 0.82865 0.17995 0.0
H387 H 0.74994 0.92995 0.19288 0.0
H388 H 0.74052 0.98696 0.16213 0.0
H389 H 0.63165 0.90292 0.06996 0.0
C390 C 0.64358 0.77556 0.15478 0.0
C391 C 0.668 0.7661 0.18976 0.0
C392 C 0.70551 0.79765 0.21026 0.0
C393 C 0.71773 0.83828 0.19814 0.0
C394 C 0.69254 0.84665 0.16427 0.0
C395 C 0.65665 0.81604 0.14184 0.0
C396 C 0.63482 0.83279 0.10695 0.0
C397 C 0.63161 0.82034 0.04255 0.0
C398 C 0.59291 0.81968 0.13332 0.0
C399 C 0.66334 0.87768 0.1146 0.0
C400 C 0.69635 0.88522 0.14815 0.0
C401 C 0.72475 0.92441 0.16538 0.0
C402 C 0.71916 0.95657 0.1479 0.0
C403 C 0.6859 0.94934 0.11268 0.0
C404 C 0.65803 0.90943 0.09542 0.0
H405 H 0.8911 0.63536 0.41366 0.0
H406 H 0.97752 0.70315 0.27717 0.0
H407 H 0.92843 0.72032 0.23447 0.0
H408 H 0.80417 0.59293 0.33008 0.0
H409 H 0.7725 0.59731 0.38471 0.0
H410 H 0.81547 0.59319 0.40634 0.0
H411 H 0.84338 0.65979 0.46514 0.0
H412 H 0.8003 0.66405 0.44395 0.0
H413 H 0.85072 0.70496 0.4294 0.0
H414 H 0.86571 0.72142 0.19984 0.0
H415 H 0.79784 0.71259 0.18185 0.0
H416 H 0.75556 0.64981 0.34662 0.0
C417 C 0.90007 0.65444 0.37537 0.0
C418 C 0.93812 0.66792 0.34863 0.0
C419 C 0.94863 0.69275 0.29852 0.0
C420 C 0.9209 0.70253 0.27397 0.0
C421 C 0.88329 0.68807 0.30098 0.0
C422 C 0.87328 0.66524 0.35131 0.0
C423 C 0.83078 0.65264 0.37151 0.0
C424 C 0.80418 0.60628 0.37322 0.0
C425 C 0.83135 0.6715 0.43103 0.0
C426 C 0.81776 0.67076 0.32361 0.0
C427 C 0.84835 0.69093 0.28311 0.0
C428 C 0.84196 0.70664 0.23204 0.0
C429 C 0.80335 0.70142 0.2221 0.0
C430 C 0.77191 0.68132 0.26347 0.0
C431 C 0.77948 0.66639 0.31518 0.0
H432 H 0.13636 0.76151 0.51522 0.0
H433 H 0.12557 0.79949 0.34183 0.0
H434 H 0.1861 0.86662 0.35929 0.0
H435 H 0.17837 0.86015 0.5903 0.0
H436 H 0.21271 0.85116 0.63265 0.0
H437 H 0.16487 0.80927 0.61011 0.0
H438 H 0.20206 0.77569 0.56123 0.0
H439 H 0.24989 0.81745 0.58345 0.0
H440 H 0.24078 0.80357 0.50757 0.0
H441 H 0.2507 0.92902 0.3952 0.0
H442 H 0.3163 0.97689 0.44129 0.0
H443 H 0.2873 0.89366 0.58554 0.0
C444 C 0.14603 0.78447 0.48171 0.0
C445 C 0.12585 0.7759 0.42778 0.0
C446 C 0.14036 0.8059 0.38382 0.0
C447 C 0.17462 0.84406 0.39343 0.0
C448 C 0.19445 0.85139 0.44684 0.0
C449 C 0.18082 0.82215 0.48997 0.0
C450 C 0.2101 0.83531 0.54038 0.0
C451 C 0.19032 0.83921 0.59669 0.0
C452 C 0.22669 0.80629 0.54859 0.0
C453 C 0.24258 0.87625 0.51872 0.0
C454 C 0.23272 0.8856 0.4654 0.0
C455 C 0.25862 0.92195 0.43701 0.0
C456 C 0.29573 0.949 0.46348 0.0
C457 C 0.30693 0.93898 0.51689 0.0
C458 C 0.27968 0.90227 0.54475 0.0
H459 H 0.42973 0.28965 0.7542 0.0
H460 H 0.36791 0.31063 0.61236 0.0
H461 H 0.34832 0.24305 0.57195 0.0
H462 H 0.47039 0.24126 0.67523 0.0
H463 H 0.46332 0.20501 0.73082 0.0
H464 H 0.46895 0.25307 0.75104 0.0
H465 H 0.40091 0.21685 0.80721 0.0
H466 H 0.39511 0.16854 0.78737 0.0
H467 H 0.35591 0.17995 0.77014 0.0
H468 H 0.34577 0.17818 0.5391 0.0
H469 H 0.3536 0.1182 0.52274 0.0
H470 H 0.41053 0.13657 0.69139 0.0
C471 C 0.41134 0.27969 0.71528 0.0
C472 C 0.40031 0.30533 0.68633 0.0
C473 C 0.37636 0.29129 0.63545 0.0
C474 C 0.36523 0.25302 0.61215 0.0
C475 C 0.37741 0.22883 0.64114 0.0
C476 C 0.39919 0.24133 0.69235 0.0
C477 C 0.4097 0.21035 0.71426 0.0
C478 C 0.45582 0.22852 0.71802 0.0
C479 C 0.38917 0.19288 0.77324 0.0
C480 C 0.39168 0.179 0.66637 0.0
C481 C 0.37337 0.19025 0.62431 0.0
C482 C 0.35885 0.16843 0.5726 0.0
C483 C 0.36342 0.1345 0.56359 0.0
C484 C 0.38148 0.12229 0.60661 0.0
C485 C 0.39515 0.14446 0.65892 0.0
H486 H 0.16839 0.45471 0.78877 0.0
H487 H 0.10224 0.34588 0.89188 0.0
H488 H 0.15341 0.32622 0.86715 0.0
H489 H 0.20095 0.4079 0.67257 0.0
H490 H 0.24899 0.45358 0.66376 0.0
H491 H 0.20501 0.4564 0.68519 0.0
H492 H 0.24328 0.49822 0.77605 0.0
H493 H 0.28713 0.49514 0.75543 0.0
H494 H 0.26461 0.47787 0.82638 0.0
H495 H 0.2184 0.32539 0.84473 0.0
H496 H 0.28627 0.33809 0.81476 0.0
H497 H 0.30588 0.44358 0.71787 0.0
C498 C 0.16414 0.42616 0.80467 0.0
C499 C 0.13139 0.40157 0.84182 0.0
C500 C 0.12686 0.3647 0.86259 0.0
C501 C 0.15589 0.35349 0.84903 0.0
C502 C 0.18857 0.37904 0.81348 0.0
C503 C 0.19218 0.41408 0.79031 0.0
C504 C 0.23057 0.43694 0.75465 0.0
C505 C 0.22078 0.4388 0.69021 0.0
C506 C 0.258 0.47955 0.77965 0.0
C507 C 0.24888 0.41016 0.76303 0.0
C508 C 0.22442 0.37704 0.79747 0.0
C509 C 0.23718 0.35052 0.81632 0.0
C510 C 0.27576 0.35801 0.79936 0.0
C511 C 0.30069 0.39121 0.763 0.0
C512 C 0.2868 0.41724 0.74417 0.0
H513 H 0.89995 0.30688 0.89181 0.0
H514 H 0.98463 0.28161 0.98066 0.0
H515 H 0.92825 0.21392 0.00871 0.0
H516 H 0.82624 0.26585 1.00163 0.0
H517 H 0.78378 0.24684 0.95281 0.0
H518 H 0.83127 0.28989 0.93214 0.0
H519 H 0.83191 0.25292 0.83755 0.0
H520 H 0.78443 0.20956 0.85822 0.0
H521 H 0.82753 0.20378 0.84236 0.0
H522 H 0.86141 0.14961 0.02989 0.0
H523 H 0.79039 0.09978 0.05538 0.0
H524 H 0.74983 0.17108 0.96132 0.0
C525 C 0.90668 0.28662 0.91591 0.0
C526 C 0.94662 0.29888 0.933 0.0
C527 C 0.95421 0.2724 0.96657 0.0
C528 C 0.92242 0.2339 0.98239 0.0
C529 C 0.88317 0.22277 0.96521 0.0
C530 C 0.87521 0.24873 0.9335 0.0
C531 C 0.83017 0.232 0.92686 0.0
C532 C 0.81712 0.26032 0.95506 0.0
C533 C 0.81779 0.22409 0.86241 0.0
C534 C 0.8139 0.19278 0.96037 0.0
C535 C 0.84485 0.18737 0.98082 0.0
C536 C 0.83699 0.15352 0.01385 0.0
C537 C 0.7966 0.12522 0.02777 0.0
C538 C 0.76479 0.13154 0.0099 0.0
C539 C 0.77364 0.1654 0.97501 0.0
loop_
_geom_bond_atom_site_label_1
_geom_bond_atom_site_label_2
_geom_bond_distance
_geom_bond_site_symmetry_2
_ccdc_geom_bond_type
Mn0 O5 2.095 . S
Mn0 O15 2.162 1_545 S
Mn0 O16 2.297 1_545 S
Mn0 O24 2.385 1_545 S
Mn0 O25 2.209 . S
Mn0 O26 2.094 1_554 S
Mn1 O6 2.121 . S
Mn1 N8 2.257 . S
Mn1 N17 2.282 . S
Mn1 O25 2.215 . S
Mn1 O27 2.108 1_554 S
C2 O24 1.234 1_545 S
C2 O25 1.283 . S
C3 O15 1.281 . S
C3 O16 1.236 . S
C4 O26 1.240 . S
C4 O27 1.270 . S
O5 Mn0 2.095 . S
O5 C14 1.250 . S
O6 Mn1 2.121 . S
O6 C14 1.258 . S
C7 N8 1.326 . S
C7 C11 1.460 . S
C7 H13 0.929 . S
N8 Mn1 2.257 . S
N8 C7 1.326 . S
N8 C12 1.362 . S
C9 C10 1.258 . S
C9 C12 1.431 . S
C9 C29 1.449 . S
C10 C9 1.258 . S
C10 C11 1.477 . S
C10 H30 0.931 . S
C11 C7 1.460 . S
C11 C10 1.477 . S
C11 H31 0.930 . S
C12 N8 1.362 . S
C12 C9 1.431 . S
C12 C22 1.476 . S
H13 C7 0.929 . S
C14 O5 1.250 . S
C14 O6 1.258 . S
O15 Mn0 2.162 1_565 S
O15 C3 1.281 . S
O16 Mn0 2.297 1_565 S
O16 C3 1.236 . S
N17 Mn1 2.282 . S
N17 C18 1.328 . S
N17 C22 1.318 . S
C18 N17 1.328 . S
C18 C19 1.457 . S
C18 H23 0.929 . S
C19 C18 1.457 . S
C19 C20 1.291 . S
C19 H32 0.931 . S
C20 C19 1.291 . S
C20 C21 1.373 . S
C20 H33 0.929 . S
C21 C20 1.373 . S
C21 C22 1.396 . S
C21 C28 1.403 . S
C22 C12 1.476 . S
C22 N17 1.318 . S
C22 C21 1.396 . S
H23 C18 0.929 . S
O24 Mn0 2.385 1_565 S
O24 C2 1.234 1_565 S
O25 Mn0 2.209 . S
O25 Mn1 2.215 . S
O25 C2 1.283 . S
O26 Mn0 2.094 1_556 S
O26 C4 1.240 . S
O27 Mn1 2.108 1_556 S
O27 C4 1.270 . S
C28 C21 1.403 . S
C28 C29 1.399 . S
C28 H34 0.929 . S
C29 C9 1.449 . S
C29 C28 1.399 . S
C29 H35 0.930 . S
H30 C10 0.931 . S
H31 C11 0.930 . S
H32 C19 0.931 . S
H33 C20 0.929 . S
H34 C28 0.929 . S
H35 C29 0.930 . S
Mn36 O41 2.095 . S
Mn36 O51 2.162 . S
Mn36 O52 2.297 . S
Mn36 O60 2.385 . S
Mn36 O61 2.209 . S
Mn36 O62 2.094 . S
Mn37 O42 2.121 . S
Mn37 N44 2.257 . S
Mn37 N53 2.282 . S
Mn37 O61 2.215 . S
Mn37 O63 2.117 . S
C38 O60 1.234 . S
C38 O61 1.283 . S
C39 O51 1.281 . S
C39 O52 1.236 . S
C40 O62 1.240 . S
C40 O63 1.264 . S
O41 Mn36 2.095 . S
O41 C50 1.250 . S
O42 Mn37 2.121 . S
O42 C50 1.258 . S
C43 N44 1.326 . S
C43 C47 1.460 . S
C43 H49 0.929 . S
N44 Mn37 2.257 . S
N44 C43 1.326 . S
N44 C48 1.362 . S
C45 C46 1.258 . S
C45 C48 1.431 . S
C45 C65 1.449 . S
C46 C45 1.258 . S
C46 C47 1.477 . S
C46 H66 0.931 . S
C47 C43 1.460 . S
C47 C46 1.477 . S
C47 H67 0.930 . S
C48 N44 1.362 . S
C48 C45 1.431 . S
C48 C58 1.476 . S
H49 C43 0.929 . S
C50 O41 1.250 . S
C50 O42 1.258 . S
O51 Mn36 2.162 . S
O51 C39 1.281 . S
O52 Mn36 2.297 . S
O52 C39 1.236 . S
N53 Mn37 2.282 . S
N53 C54 1.328 . S
N53 C58 1.318 . S
C54 N53 1.328 . S
C54 C55 1.457 . S
C54 H59 0.929 . S
C55 C54 1.457 . S
C55 C56 1.291 . S
C55 H68 0.931 . S
C56 C55 1.291 . S
C56 C57 1.373 . S
C56 H69 0.929 . S
C57 C56 1.373 . S
C57 C58 1.396 . S
C57 C64 1.403 . S
C58 C48 1.476 . S
C58 N53 1.318 . S
C58 C57 1.396 . S
H59 C54 0.929 . S
O60 Mn36 2.385 . S
O60 C38 1.234 . S
O61 Mn36 2.209 . S
O61 Mn37 2.215 . S
O61 C38 1.283 . S
O62 Mn36 2.094 . S
O62 C40 1.240 . S
O63 Mn37 2.117 . S
O63 C40 1.264 . S
C64 C57 1.403 . S
C64 C65 1.399 . S
C64 H70 0.929 . S
C65 C45 1.449 . S
C65 C64 1.399 . S
C65 H71 0.930 . S
H66 C46 0.931 . S
H67 C47 0.930 . S
H68 C55 0.931 . S
H69 C56 0.929 . S
H70 C64 0.929 . S
H71 C65 0.930 . S
Mn72 O77 2.095 1_455 S
Mn72 O87 2.162 . S
Mn72 O88 2.297 . S
Mn72 O96 2.385 . S
Mn72 O97 2.209 1_455 S
Mn72 O98 2.094 . S
Mn73 O78 2.121 . S
Mn73 N80 2.257 . S
Mn73 N89 2.282 . S
Mn73 O97 2.215 . S
Mn73 O99 2.117 . S
C74 O96 1.234 . S
C74 O97 1.283 1_455 S
C75 O87 1.281 . S
C75 O88 1.236 . S
C76 O98 1.240 . S
C76 O99 1.264 1_455 S
O77 Mn72 2.095 1_655 S
O77 C86 1.250 . S
O78 Mn73 2.121 . S
O78 C86 1.258 . S
C79 N80 1.326 . S
C79 C83 1.460 . S
C79 H85 0.929 . S
N80 Mn73 2.257 . S
N80 C79 1.326 . S
N80 C84 1.362 . S
C81 C82 1.258 . S
C81 C84 1.431 . S
C81 C101 1.449 . S
C82 C81 1.258 . S
C82 C83 1.477 . S
C82 H102 0.931 . S
C83 C79 1.460 . S
C83 C82 1.477 . S
C83 H103 0.930 . S
C84 N80 1.362 . S
C84 C81 1.431 . S
C84 C94 1.476 . S
H85 C79 0.929 . S
C86 O77 1.250 . S
C86 O78 1.258 . S
O87 Mn72 2.162 . S
O87 C75 1.281 . S
O88 Mn72 2.297 . S
O88 C75 1.236 . S
N89 Mn73 2.282 . S
N89 C90 1.328 . S
N89 C94 1.318 . S
C90 N89 1.328 . S
C90 C91 1.457 . S
C90 H95 0.929 . S
C91 C90 1.457 . S
C91 C92 1.291 . S
C91 H104 0.931 1_655 S
C92 C91 1.291 . S
C92 C93 1.373 . S
C92 H105 0.929 . S
C93 C92 1.373 . S
C93 C94 1.396 . S
C93 C100 1.403 . S
C94 C84 1.476 . S
C94 N89 1.318 . S
C94 C93 1.396 . S
H95 C90 0.929 . S
O96 Mn72 2.385 . S
O96 C74 1.234 . S
O97 Mn72 2.209 1_655 S
O97 Mn73 2.215 . S
O97 C74 1.283 1_655 S
O98 Mn72 2.094 . S
O98 C76 1.240 . S
O99 Mn73 2.117 . S
O99 C76 1.264 1_655 S
C100 C93 1.403 . S
C100 C101 1.399 . S
C100 H106 0.929 . S
C101 C81 1.449 . S
C101 C100 1.399 . S
C101 H107 0.930 . S
H102 C82 0.931 . S
H103 C83 0.930 . S
H104 C91 0.931 1_455 S
H105 C92 0.929 . S
H106 C100 0.929 . S
H107 C101 0.930 . S
Mn108 O113 2.095 1_545 S
Mn108 O123 2.162 . S
Mn108 O124 2.297 . S
Mn108 O132 2.385 . S
Mn108 O133 2.209 . S
Mn108 O134 2.094 . S
Mn109 O114 2.121 . S
Mn109 N116 2.257 . S
Mn109 N125 2.282 . S
Mn109 O133 2.215 1_565 S
Mn109 O135 2.117 . S
C110 O132 1.234 . S
C110 O133 1.283 . S
C111 O123 1.281 . S
C111 O124 1.236 . S
C112 O134 1.240 . S
C112 O135 1.264 1_545 S
O113 Mn108 2.095 1_565 S
O113 C122 1.250 . S
O114 Mn109 2.121 . S
O114 C122 1.258 . S
C115 N116 1.326 . S
C115 C119 1.460 . S
C115 H121 0.929 . S
N116 Mn109 2.257 . S
N116 C115 1.326 . S
N116 C120 1.362 . S
C117 C118 1.258 . S
C117 C120 1.431 . S
C117 C137 1.449 . S
C118 C117 1.258 . S
C118 C119 1.477 . S
C118 H138 0.931 . S
C119 C115 1.460 . S
C119 C118 1.477 . S
C119 H139 0.930 . S
C120 N116 1.362 . S
C120 C117 1.431 . S
C120 C130 1.476 . S
H121 C115 0.929 . S
C122 O113 1.250 . S
C122 O114 1.258 . S
O123 Mn108 2.162 . S
O123 C111 1.281 . S
O124 Mn108 2.297 . S
O124 C111 1.236 . S
N125 Mn109 2.282 . S
N125 C126 1.328 . S
N125 C130 1.318 . S
C126 N125 1.328 . S
C126 C127 1.457 . S
C126 H131 0.929 1_565 S
C127 C126 1.457 . S
C127 C128 1.291 . S
C127 H140 0.931 1_565 S
C128 C127 1.291 . S
C128 C129 1.373 . S
C128 H141 0.929 . S
C129 C128 1.373 . S
C129 C130 1.396 . S
C129 C136 1.403 . S
C130 C120 1.476 . S
C130 N125 1.318 . S
C130 C129 1.396 . S
H131 C126 0.929 1_545 S
O132 Mn108 2.385 . S
O132 C110 1.234 . S
O133 Mn108 2.209 . S
O133 Mn109 2.215 1_545 S
O133 C110 1.283 . S
O134 Mn108 2.094 . S
O134 C112 1.240 . S
O135 Mn109 2.117 . S
O135 C112 1.264 1_565 S
C136 C129 1.403 . S
C136 C137 1.399 . S
C136 H142 0.929 . S
C137 C117 1.449 . S
C137 C136 1.399 . S
C137 H143 0.930 . S
H138 C118 0.931 . S
H139 C119 0.930 . S
H140 C127 0.931 1_545 S
H141 C128 0.929 . S
H142 C136 0.929 . S
H143 C137 0.930 . S
Mn144 O149 2.095 . S
Mn144 O159 2.162 . S
Mn144 O160 2.297 . S
Mn144 O168 2.385 . S
Mn144 O169 2.209 . S
Mn144 O170 2.094 . S
Mn145 O150 2.121 . S
Mn145 N152 2.257 . S
Mn145 N161 2.282 . S
Mn145 O169 2.215 . S
Mn145 O171 2.117 . S
C146 O168 1.234 . S
C146 O169 1.283 . S
C147 O159 1.281 . S
C147 O160 1.236 . S
C148 O170 1.240 . S
C148 O171 1.264 . S
O149 Mn144 2.095 . S
O149 C158 1.250 . S
O150 Mn145 2.121 . S
O150 C158 1.258 . S
C151 N152 1.326 . S
C151 C155 1.460 . S
C151 H157 0.929 . S
N152 Mn145 2.257 . S
N152 C151 1.326 . S
N152 C156 1.362 . S
C153 C154 1.258 . S
C153 C156 1.431 . S
C153 C173 1.449 . S
C154 C153 1.258 . S
C154 C155 1.477 . S
C154 H174 0.931 . S
C155 C151 1.460 . S
C155 C154 1.477 . S
C155 H175 0.930 . S
C156 N152 1.362 . S
C156 C153 1.431 . S
C156 C166 1.476 . S
H157 C151 0.929 . S
C158 O149 1.250 . S
C158 O150 1.258 . S
O159 Mn144 2.162 . S
O159 C147 1.281 . S
O160 Mn144 2.297 . S
O160 C147 1.236 . S
N161 Mn145 2.282 . S
N161 C162 1.328 . S
N161 C166 1.318 . S
C162 N161 1.328 . S
C162 C163 1.457 . S
C162 H167 0.929 . S
C163 C162 1.457 . S
C163 C164 1.291 . S
C163 H176 0.931 . S
C164 C163 1.291 . S
C164 C165 1.373 . S
C164 H177 0.929 . S
C165 C164 1.373 . S
C165 C166 1.396 . S
C165 C172 1.403 . S
C166 C156 1.476 . S
C166 N161 1.318 . S
C166 C165 1.396 . S
H167 C162 0.929 . S
O168 Mn144 2.385 . S
O168 C146 1.234 . S
O169 Mn144 2.209 . S
O169 Mn145 2.215 . S
O169 C146 1.283 . S
O170 Mn144 2.094 . S
O170 C148 1.240 . S
O171 Mn145 2.117 . S
O171 C148 1.264 . S
C172 C165 1.403 . S
C172 C173 1.399 . S
C172 H178 0.929 . S
C173 C153 1.449 . S
C173 C172 1.399 . S
C173 H179 0.930 . S
H174 C154 0.931 . S
H175 C155 0.930 . S
H176 C163 0.931 . S
H177 C164 0.929 . S
H178 C172 0.929 . S
H179 C173 0.930 . S
Mn180 O185 2.095 . S
Mn180 O195 2.162 1_455 S
Mn180 O196 2.297 1_455 S
Mn180 O204 2.385 1_455 S
Mn180 O205 2.209 . S
Mn180 O206 2.094 1_455 S
Mn181 O186 2.121 . S
Mn181 N188 2.257 . S
Mn181 N197 2.282 . S
Mn181 O205 2.215 . S
Mn181 O207 2.117 . S
C182 O204 1.234 1_455 S
C182 O205 1.283 . S
C183 O195 1.281 . S
C183 O196 1.236 . S
C184 O206 1.240 1_455 S
C184 O207 1.264 . S
O185 Mn180 2.095 . S
O185 C194 1.250 . S
O186 Mn181 2.121 . S
O186 C194 1.258 . S
C187 N188 1.326 . S
C187 C191 1.460 1_556 S
C187 H193 0.929 . S
N188 Mn181 2.257 . S
N188 C187 1.326 . S
N188 C192 1.362 1_556 S
C189 C190 1.258 . S
C189 C192 1.431 . S
C189 C209 1.449 . S
C190 C189 1.258 . S
C190 C191 1.477 . S
C190 H210 0.931 . S
C191 C187 1.460 1_554 S
C191 C190 1.477 . S
C191 H211 0.930 . S
C192 N188 1.362 1_554 S
C192 C189 1.431 . S
C192 C202 1.476 1_554 S
H193 C187 0.929 . S
C194 O185 1.250 . S
C194 O186 1.258 . S
O195 Mn180 2.162 1_655 S
O195 C183 1.281 . S
O196 Mn180 2.297 1_655 S
O196 C183 1.236 . S
N197 Mn181 2.282 . S
N197 C198 1.328 . S
N197 C202 1.318 . S
C198 N197 1.328 . S
C198 C199 1.457 . S
C198 H203 0.929 . S
C199 C198 1.457 . S
C199 C200 1.291 . S
C199 H212 0.931 . S
C200 C199 1.291 . S
C200 C201 1.373 1_556 S
C200 H213 0.929 1_556 S
C201 C200 1.373 1_554 S
C201 C202 1.396 1_554 S
C201 C208 1.403 . S
C202 C192 1.476 1_556 S
C202 N197 1.318 . S
C202 C201 1.396 1_556 S
H203 C198 0.929 . S
O204 Mn180 2.385 1_655 S
O204 C182 1.234 1_655 S
O205 Mn180 2.209 . S
O205 Mn181 2.215 . S
O205 C182 1.283 . S
O206 Mn180 2.094 1_655 S
O206 C184 1.240 1_655 S
O207 Mn181 2.117 . S
O207 C184 1.264 . S
C208 C201 1.403 . S
C208 C209 1.399 . S
C208 H214 0.929 . S
C209 C189 1.449 . S
C209 C208 1.399 . S
C209 H215 0.930 . S
H210 C190 0.931 . S
H211 C191 0.930 . S
H212 C199 0.931 . S
H213 C200 0.929 1_554 S
H214 C208 0.929 . S
H215 C209 0.930 . S
H216 C228 0.930 . S
H217 C230 0.930 . S
H218 C231 0.930 . S
H219 C235 0.959 . S
H220 C235 0.959 . S
H221 C235 0.961 . S
H222 C236 0.960 . S
H223 C236 0.961 . S
H224 C236 0.959 . S
H225 C239 0.929 . S
H226 C240 0.931 . S
H227 C242 0.930 . S
C228 H216 0.930 . S
C228 C229 1.399 . S
C228 C233 1.399 . S
C229 C228 1.399 . S
C229 C230 1.376 . S
C230 H217 0.930 . S
C230 C229 1.376 . S
C230 C231 1.388 . S
C231 H218 0.930 . S
C231 C230 1.388 . S
C231 C232 1.390 . S
C232 C231 1.390 . S
C232 C233 1.394 . S
C232 C238 1.465 . S
C233 C228 1.399 . S
C233 C232 1.394 . S
C233 C234 1.516 . S
C234 C233 1.516 . S
C234 C235 1.502 . S
C234 C236 1.561 1_545 S
C234 C237 1.526 . S
C235 H219 0.959 . S
C235 H220 0.959 . S
C235 H221 0.961 . S
C235 C234 1.502 . S
C236 H222 0.960 . S
C236 H223 0.961 . S
C236 H224 0.959 . S
C236 C234 1.561 1_565 S
C237 C234 1.526 . S
C237 C238 1.396 . S
C237 C242 1.390 . S
C238 C232 1.465 . S
C238 C237 1.396 . S
C238 C239 1.399 . S
C239 H225 0.929 . S
C239 C238 1.399 . S
C239 C240 1.385 . S
C240 H226 0.931 . S
C240 C239 1.385 . S
C240 C241 1.389 . S
C241 C240 1.389 . S
C241 C242 1.387 . S
C242 H227 0.930 . S
C242 C237 1.390 . S
C242 C241 1.387 . S
H243 C255 0.930 . S
H244 C257 0.930 . S
H245 C258 0.930 . S
H246 C262 0.959 . S
H247 C262 0.959 . S
H248 C262 0.961 . S
H249 C263 0.960 . S
H250 C263 0.961 . S
H251 C263 0.959 . S
H252 C266 0.929 . S
H253 C267 0.931 . S
H254 C269 0.930 . S
C255 H243 0.930 . S
C255 C256 1.399 . S
C255 C260 1.399 . S
C256 C255 1.399 . S
C256 C257 1.376 . S
C257 H244 0.930 . S
C257 C256 1.376 . S
C257 C258 1.388 . S
C258 H245 0.930 . S
C258 C257 1.388 . S
C258 C259 1.390 . S
C259 C258 1.390 . S
C259 C260 1.394 . S
C259 C265 1.465 . S
C260 C255 1.399 . S
C260 C259 1.394 . S
C260 C261 1.516 . S
C261 C260 1.516 . S
C261 C262 1.502 . S
C261 C263 1.561 . S
C261 C264 1.526 . S
C262 H246 0.959 . S
C262 H247 0.959 . S
C262 H248 0.961 . S
C262 C261 1.502 . S
C263 H249 0.960 . S
C263 H250 0.961 . S
C263 H251 0.959 . S
C263 C261 1.561 . S
C264 C261 1.526 . S
C264 C265 1.396 . S
C264 C269 1.390 . S
C265 C259 1.465 . S
C265 C264 1.396 . S
C265 C266 1.399 . S
C266 H252 0.929 . S
C266 C265 1.399 . S
C266 C267 1.385 . S
C267 H253 0.931 . S
C267 C266 1.385 . S
C267 C268 1.389 . S
C268 C267 1.389 . S
C268 C269 1.387 . S
C269 H254 0.930 . S
C269 C264 1.390 . S
C269 C268 1.387 . S
H270 C282 0.930 . S
H271 C284 0.930 . S
H272 C285 0.930 . S
H273 C289 0.959 . S
H274 C289 0.959 . S
H275 C289 0.961 . S
H276 C290 0.960 . S
H277 C290 0.961 . S
H278 C290 0.959 1_655 S
H279 C293 0.929 . S
H280 C294 0.931 . S
H281 C296 0.930 . S
C282 H270 0.930 . S
C282 C283 1.399 . S
C282 C287 1.399 . S
C283 C282 1.399 . S
C283 C284 1.376 1_455 S
C284 H271 0.930 . S
C284 C283 1.376 1_655 S
C284 C285 1.388 . S
C285 H272 0.930 . S
C285 C284 1.388 . S
C285 C286 1.390 1_655 S
C286 C285 1.390 1_455 S
C286 C287 1.394 . S
C286 C292 1.465 . S
C287 C282 1.399 . S
C287 C286 1.394 . S
C287 C288 1.516 . S
C288 C287 1.516 . S
C288 C289 1.502 . S
C288 C290 1.561 . S
C288 C291 1.526 . S
C289 H273 0.959 . S
C289 H274 0.959 . S
C289 H275 0.961 . S
C289 C288 1.502 . S
C290 H276 0.960 . S
C290 H277 0.961 . S
C290 H278 0.959 1_455 S
C290 C288 1.561 . S
C291 C288 1.526 . S
C291 C292 1.396 . S
C291 C296 1.390 . S
C292 C286 1.465 . S
C292 C291 1.396 . S
C292 C293 1.399 1_455 S
C293 H279 0.929 . S
C293 C292 1.399 1_655 S
C293 C294 1.385 . S
C294 H280 0.931 . S
C294 C293 1.385 . S
C294 C295 1.389 1_655 S
C295 C294 1.389 1_455 S
C295 C296 1.387 . S
C296 H281 0.930 . S
C296 C291 1.390 . S
C296 C295 1.387 . S
H297 C309 0.930 1_565 S
H298 C311 0.930 . S
H299 C312 0.930 . S
H300 C316 0.959 1_545 S
H301 C316 0.959 . S
H302 C316 0.961 . S
H303 C317 0.960 . S
H304 C317 0.961 . S
H305 C317 0.959 . S
H306 C320 0.929 . S
H307 C321 0.931 . S
H308 C323 0.930 1_565 S
C309 H297 0.930 1_545 S
C309 C310 1.399 . S
C309 C314 1.399 . S
C310 C309 1.399 . S
C310 C311 1.376 . S
C311 H298 0.930 . S
C311 C310 1.376 . S
C311 C312 1.388 . S
C312 H299 0.930 . S
C312 C311 1.388 . S
C312 C313 1.390 . S
C313 C312 1.390 . S
C313 C314 1.394 . S
C313 C319 1.465 . S
C314 C309 1.399 . S
C314 C313 1.394 . S
C314 C315 1.516 1_545 S
C315 C314 1.516 1_565 S
C315 C316 1.502 . S
C315 C317 1.561 . S
C315 C318 1.526 1_565 S
C316 H300 0.959 1_565 S
C316 H301 0.959 . S
C316 H302 0.961 . S
C316 C315 1.502 . S
C317 H303 0.960 . S
C317 H304 0.961 . S
C317 H305 0.959 . S
C317 C315 1.561 . S
C318 C315 1.526 1_545 S
C318 C319 1.396 . S
C318 C323 1.390 . S
C319 C313 1.465 . S
C319 C318 1.396 . S
C319 C320 1.399 . S
C320 H306 0.929 . S
C320 C319 1.399 . S
C320 C321 1.385 . S
C321 H307 0.931 . S
C321 C320 1.385 . S
C321 C322 1.389 . S
C322 C321 1.389 . S
C322 C323 1.387 . S
C323 H308 0.930 1_545 S
C323 C318 1.390 . S
C323 C322 1.387 . S
H324 C336 0.930 . S
H325 C338 0.930 . S
H326 C339 0.930 . S
H327 C343 0.959 . S
H328 C343 0.959 . S
H329 C343 0.961 . S
H330 C344 0.960 . S
H331 C344 0.961 . S
H332 C344 0.959 . S
H333 C347 0.929 . S
H334 C348 0.931 . S
H335 C350 0.930 . S
C336 H324 0.930 . S
C336 C337 1.399 . S
C336 C341 1.399 . S
C337 C336 1.399 . S
C337 C338 1.376 . S
C338 H325 0.930 . S
C338 C337 1.376 . S
C338 C339 1.388 . S
C339 H326 0.930 . S
C339 C338 1.388 . S
C339 C340 1.390 1_554 S
C340 C339 1.390 1_556 S
C340 C341 1.394 1_556 S
C340 C346 1.465 . S
C341 C336 1.399 . S
C341 C340 1.394 1_554 S
C341 C342 1.516 1_554 S
C342 C341 1.516 1_556 S
C342 C343 1.502 . S
C342 C344 1.561 1_556 S
C342 C345 1.526 . S
C343 H327 0.959 . S
C343 H328 0.959 . S
C343 H329 0.961 . S
C343 C342 1.502 . S
C344 H330 0.960 . S
C344 H331 0.961 . S
C344 H332 0.959 . S
C344 C342 1.561 1_554 S
C345 C342 1.526 . S
C345 C346 1.396 . S
C345 C350 1.390 . S
C346 C340 1.465 . S
C346 C345 1.396 . S
C346 C347 1.399 . S
C347 H333 0.929 . S
C347 C346 1.399 . S
C347 C348 1.385 . S
C348 H334 0.931 . S
C348 C347 1.385 . S
C348 C349 1.389 . S
C349 C348 1.389 . S
C349 C350 1.387 . S
C350 H335 0.930 . S
C350 C345 1.390 . S
C350 C349 1.387 . S
H351 C363 0.933 1_655 S
H352 C365 0.930 1_556 S
H353 C366 0.930 . S
H354 C370 0.959 . S
H355 C370 0.959 . S
H356 C370 0.961 . S
H357 C371 0.960 . S
H358 C371 0.961 . S
H359 C371 0.959 . S
H360 C374 0.929 . S
H361 C375 0.931 . S
H362 C377 0.930 . S
C363 H351 0.933 1_455 S
C363 C364 1.399 . S
C363 C368 1.399 . S
C364 C363 1.399 . S
C364 C365 1.376 . S
C365 H352 0.930 1_554 S
C365 C364 1.376 . S
C365 C366 1.388 . S
C366 H353 0.930 . S
C366 C365 1.388 . S
C366 C367 1.390 . S
C367 C366 1.390 . S
C367 C368 1.394 . S
C367 C373 1.465 . S
C368 C363 1.399 . S
C368 C367 1.394 . S
C368 C369 1.516 . S
C369 C368 1.516 . S
C369 C370 1.502 1_455 S
C369 C371 1.561 . S
C369 C372 1.526 . S
C370 H354 0.959 . S
C370 H355 0.959 . S
C370 H356 0.961 . S
C370 C369 1.502 1_655 S
C371 H357 0.960 . S
C371 H358 0.961 . S
C371 H359 0.959 . S
C371 C369 1.561 . S
C372 C369 1.526 . S
C372 C373 1.396 . S
C372 C377 1.390 . S
C373 C367 1.465 . S
C373 C372 1.396 . S
C373 C374 1.399 . S
C374 H360 0.929 . S
C374 C373 1.399 . S
C374 C375 1.385 . S
C375 H361 0.931 . S
C375 C374 1.385 . S
C375 C376 1.389 . S
C376 C375 1.389 . S
C376 C377 1.387 . S
C377 H362 0.930 . S
C377 C372 1.390 . S
C377 C376 1.387 . S
H378 C390 0.930 . S
H379 C392 0.930 . S
H380 C393 0.930 . S
H381 C397 0.959 . S
H382 C397 0.959 . S
H383 C397 0.961 . S
H384 C398 0.960 . S
H385 C398 0.961 . S
H386 C398 0.959 . S
H387 C401 0.929 . S
H388 C402 0.931 . S
H389 C404 0.930 . S
C390 H378 0.930 . S
C390 C391 1.399 . S
C390 C395 1.399 . S
C391 C390 1.399 . S
C391 C392 1.376 . S
C392 H379 0.930 . S
C392 C391 1.376 . S
C392 C393 1.388 . S
C393 H380 0.930 . S
C393 C392 1.388 . S
C393 C394 1.390 . S
C394 C393 1.390 . S
C394 C395 1.394 . S
C394 C400 1.465 . S
C395 C390 1.399 . S
C395 C394 1.394 . S
C395 C396 1.516 . S
C396 C395 1.516 . S
C396 C397 1.502 . S
C396 C398 1.561 . S
C396 C399 1.526 . S
C397 H381 0.959 . S
C397 H382 0.959 . S
C397 H383 0.961 . S
C397 C396 1.502 . S
C398 H384 0.960 . S
C398 H385 0.961 . S
C398 H386 0.959 . S
C398 C396 1.561 . S
C399 C396 1.526 . S
C399 C400 1.396 . S
C399 C404 1.390 . S
C400 C394 1.465 . S
C400 C399 1.396 . S
C400 C401 1.399 . S
C401 H387 0.929 . S
C401 C400 1.399 . S
C401 C402 1.385 . S
C402 H388 0.931 . S
C402 C401 1.385 . S
C402 C403 1.389 . S
C403 C402 1.389 . S
C403 C404 1.387 . S
C404 H389 0.930 . S
C404 C399 1.390 . S
C404 C403 1.387 . S
H405 C417 0.930 . S
H406 C419 0.930 . S
H407 C420 0.930 . S
H408 C424 0.959 . S
H409 C424 0.959 . S
H410 C424 0.961 . S
H411 C425 0.960 . S
H412 C425 0.961 . S
H413 C425 0.959 . S
H414 C428 0.929 . S
H415 C429 0.931 . S
H416 C431 0.930 . S
C417 H405 0.930 . S
C417 C418 1.399 . S
C417 C422 1.399 . S
C418 C417 1.399 . S
C418 C419 1.376 . S
C419 H406 0.930 . S
C419 C418 1.376 . S
C419 C420 1.388 . S
C420 H407 0.930 . S
C420 C419 1.388 . S
C420 C421 1.390 . S
C421 C420 1.390 . S
C421 C422 1.394 . S
C421 C427 1.465 . S
C422 C417 1.399 . S
C422 C421 1.394 . S
C422 C423 1.516 . S
C423 C422 1.516 . S
C423 C424 1.502 . S
C423 C425 1.561 . S
C423 C426 1.526 . S
C424 H408 0.959 . S
C424 H409 0.959 . S
C424 H410 0.961 . S
C424 C423 1.502 . S
C425 H411 0.960 . S
C425 H412 0.961 . S
C425 H413 0.959 . S
C425 C423 1.561 . S
C426 C423 1.526 . S
C426 C427 1.396 . S
C426 C431 1.390 . S
C427 C421 1.465 . S
C427 C426 1.396 . S
C427 C428 1.399 . S
C428 H414 0.929 . S
C428 C427 1.399 . S
C428 C429 1.385 . S
C429 H415 0.931 . S
C429 C428 1.385 . S
C429 C430 1.389 . S
C430 C429 1.389 . S
C430 C431 1.387 . S
C431 H416 0.930 . S
C431 C426 1.390 . S
C431 C430 1.387 . S
H432 C444 0.930 . S
H433 C446 0.930 . S
H434 C447 0.930 . S
H435 C451 0.959 . S
H436 C451 0.959 . S
H437 C451 0.961 . S
H438 C452 0.960 . S
H439 C452 0.961 . S
H440 C452 0.959 . S
H441 C455 0.929 . S
H442 C456 0.931 . S
H443 C458 0.930 . S
C444 H432 0.930 . S
C444 C445 1.399 . S
C444 C449 1.399 . S
C445 C444 1.399 . S
C445 C446 1.376 . S
C446 H433 0.930 . S
C446 C445 1.376 . S
C446 C447 1.388 . S
C447 H434 0.930 . S
C447 C446 1.388 . S
C447 C448 1.390 . S
C448 C447 1.390 . S
C448 C449 1.394 . S
C448 C454 1.465 . S
C449 C444 1.399 . S
C449 C448 1.394 . S
C449 C450 1.516 . S
C450 C449 1.516 . S
C450 C451 1.502 . S
C450 C452 1.561 . S
C450 C453 1.526 . S
C451 H435 0.959 . S
C451 H436 0.959 . S
C451 H437 0.961 . S
C451 C450 1.502 . S
C452 H438 0.960 . S
C452 H439 0.961 . S
C452 H440 0.959 . S
C452 C450 1.561 . S
C453 C450 1.526 . S
C453 C454 1.396 . S
C453 C458 1.390 . S
C454 C448 1.465 . S
C454 C453 1.396 . S
C454 C455 1.399 . S
C455 H441 0.929 . S
C455 C454 1.399 . S
C455 C456 1.385 . S
C456 H442 0.931 . S
C456 C455 1.385 . S
C456 C457 1.389 . S
C457 C456 1.389 . S
C457 C458 1.387 . S
C458 H443 0.930 . S
C458 C453 1.390 . S
C458 C457 1.387 . S
H459 C471 0.930 . S
H460 C473 0.930 . S
H461 C474 0.930 . S
H462 C478 0.959 . S
H463 C478 0.959 . S
H464 C478 0.961 . S
H465 C479 0.960 . S
H466 C479 0.961 . S
H467 C479 0.959 . S
H468 C482 0.929 . S
H469 C483 0.931 . S
H470 C485 0.930 . S
C471 H459 0.930 . S
C471 C472 1.399 . S
C471 C476 1.399 . S
C472 C471 1.399 . S
C472 C473 1.376 . S
C473 H460 0.930 . S
C473 C472 1.376 . S
C473 C474 1.388 . S
C474 H461 0.930 . S
C474 C473 1.388 . S
C474 C475 1.390 . S
C475 C474 1.390 . S
C475 C476 1.394 . S
C475 C481 1.465 . S
C476 C471 1.399 . S
C476 C475 1.394 . S
C476 C477 1.516 . S
C477 C476 1.516 . S
C477 C478 1.502 . S
C477 C479 1.561 . S
C477 C480 1.526 . S
C478 H462 0.959 . S
C478 H463 0.959 . S
C478 H464 0.961 . S
C478 C477 1.502 . S
C479 H465 0.960 . S
C479 H466 0.961 . S
C479 H467 0.959 . S
C479 C477 1.561 . S
C480 C477 1.526 . S
C480 C481 1.396 . S
C480 C485 1.390 . S
C481 C475 1.465 . S
C481 C480 1.396 . S
C481 C482 1.399 . S
C482 H468 0.929 . S
C482 C481 1.399 . S
C482 C483 1.385 . S
C483 H469 0.931 . S
C483 C482 1.385 . S
C483 C484 1.389 . S
C484 C483 1.389 . S
C484 C485 1.387 . S
C485 H470 0.930 . S
C485 C480 1.390 . S
C485 C484 1.387 . S
H486 C498 0.930 . S
H487 C500 0.930 . S
H488 C501 0.930 . S
H489 C505 0.959 . S
H490 C505 0.959 . S
H491 C505 0.961 . S
H492 C506 0.960 . S
H493 C506 0.961 . S
H494 C506 0.959 . S
H495 C509 0.929 . S
H496 C510 0.931 . S
H497 C512 0.930 . S
C498 H486 0.930 . S
C498 C499 1.399 . S
C498 C503 1.399 . S
C499 C498 1.399 . S
C499 C500 1.376 . S
C500 H487 0.930 . S
C500 C499 1.376 . S
C500 C501 1.388 . S
C501 H488 0.930 . S
C501 C500 1.388 . S
C501 C502 1.390 . S
C502 C501 1.390 . S
C502 C503 1.394 . S
C502 C508 1.465 . S
C503 C498 1.399 . S
C503 C502 1.394 . S
C503 C504 1.516 . S
C504 C503 1.516 . S
C504 C505 1.502 . S
C504 C506 1.561 . S
C504 C507 1.526 . S
C505 H489 0.959 . S
C505 H490 0.959 . S
C505 H491 0.961 . S
C505 C504 1.502 . S
C506 H492 0.960 . S
C506 H493 0.961 . S
C506 H494 0.959 . S
C506 C504 1.561 . S
C507 C504 1.526 . S
C507 C508 1.396 . S
C507 C512 1.390 . S
C508 C502 1.465 . S
C508 C507 1.396 . S
C508 C509 1.399 . S
C509 H495 0.929 . S
C509 C508 1.399 . S
C509 C510 1.385 . S
C510 H496 0.931 . S
C510 C509 1.385 . S
C510 C511 1.389 . S
C511 C510 1.389 . S
C511 C512 1.387 . S
C512 H497 0.930 . S
C512 C507 1.390 . S
C512 C511 1.387 . S
H513 C525 0.930 . S
H514 C527 0.930 . S
H515 C528 0.930 . S
H516 C532 0.959 . S
H517 C532 0.959 . S
H518 C532 0.961 . S
H519 C533 0.960 . S
H520 C533 0.961 . S
H521 C533 0.959 . S
H522 C536 0.929 . S
H523 C537 0.931 . S
H524 C539 0.930 . S
C525 H513 0.930 . S
C525 C526 1.399 . S
C525 C530 1.399 . S
C526 C525 1.399 . S
C526 C527 1.376 1_556 S
C527 H514 0.930 . S
C527 C526 1.376 1_554 S
C527 C528 1.388 . S
C528 H515 0.930 . S
C528 C527 1.388 . S
C528 C529 1.390 . S
C529 C528 1.390 . S
C529 C530 1.394 1_554 S
C529 C535 1.465 . S
C530 C525 1.399 . S
C530 C529 1.394 1_556 S
C530 C531 1.516 . S
C531 C530 1.516 . S
C531 C532 1.502 . S
C531 C533 1.561 . S
C531 C534 1.526 . S
C532 H516 0.959 . S
C532 H517 0.959 . S
C532 H518 0.961 . S
C532 C531 1.502 . S
C533 H519 0.960 . S
C533 H520 0.961 . S
C533 H521 0.959 . S
C533 C531 1.561 . S
C534 C531 1.526 . S
C534 C535 1.396 1_556 S
C534 C539 1.390 . S
C535 C529 1.465 . S
C535 C534 1.396 1_554 S
C535 C536 1.399 . S
C536 H522 0.929 . S
C536 C535 1.399 . S
C536 C537 1.385 . S
C537 H523 0.931 . S
C537 C536 1.385 . S
C537 C538 1.389 . S
C538 C537 1.389 . S
C538 C539 1.387 1_554 S
C539 H524 0.930 . S
C539 C534 1.390 . S
C539 C538 1.387 1_556 S
C229 C2 1.590 . S
C241 C112 1.576 . S
C256 C38 1.571 . S
C268 C148 1.597 . S
C283 C184 1.588 . S
C295 C74 1.599 . S
C310 C4 1.573 . S
C322 C110 1.579 . S
C337 C40 1.576 . S
C349 C146 1.567 . S
C364 C182 1.582 1_554 S
C376 C76 1.601 . S
C391 C50 1.275 . S
C403 C3 1.373 . S
C418 C86 1.268 . S
C430 C39 1.357 . S
C445 C75 1.358 . S
C457 C122 1.276 . S
C472 C158 1.337 . S
C484 C111 1.372 . S
C499 C194 1.344 . S
C511 C147 1.385 . S
C526 C183 1.384 . S
C538 C14 1.334 . S
