# Generated by pormake.
# Topology zfw, (5)-cn, num edge types: 1
# Building blocks:
#     Node 0, Type 0, BuildingBlock: XOMCOT_clean_sbu_0, # of connection points: 5
#     Node 1, Type 0, BuildingBlock: XOMCOT_clean_sbu_0, # of connection points: 5
#     Node 2, Type 0, BuildingBlock: XOMCOT_clean_sbu_0, # of connection points: 5
#     Node 3, Type 0, BuildingBlock: XOMCOT_clean_sbu_0, # of connection points: 5
#     Node 4, Type 0, BuildingBlock: XOMCOT_clean_sbu_0, # of connection points: 5
#     Node 5, Type 0, BuildingBlock: XOMCOT_clean_sbu_0, # of connection points: 5
#     Node 6, Type 0, BuildingBlock: XOMCOT_clean_sbu_0, # of connection points: 5
#     Node 7, Type 0, BuildingBlock: XOMCOT_clean_sbu_0, # of connection points: 5
#     Node 8, Type 0, BuildingBlock: XOMCOT_clean_sbu_0, # of connection points: 5
#     Node 9, Type 0, BuildingBlock: XOMCOT_clean_sbu_0, # of connection points: 5
#     Node 10, Type 0, BuildingBlock: XOMCOT_clean_sbu_0, # of connection points: 5
#     Node 11, Type 0, BuildingBlock: XOMCOT_clean_sbu_0, # of connection points: 5
#     Node 12, Type 0, BuildingBlock: XOMCOT_clean_sbu_0, # of connection points: 5
#     Node 13, Type 0, BuildingBlock: XOMCOT_clean_sbu_0, # of connection points: 5
#     Node 14, Type 0, BuildingBlock: XOMCOT_clean_sbu_0, # of connection points: 5
#     Node 15, Type 0, BuildingBlock: XOMCOT_clean_sbu_0, # of connection points: 5
#     Edge 16, Type (0, 0), BuildingBlock: EZIPEK_clean_linker_0, # of connection points: 2
#     Edge 17, Type (0, 0), BuildingBlock: EZIPEK_clean_linker_0, # of connection points: 2
#     Edge 18, Type (0, 0), BuildingBlock: EZIPEK_clean_linker_0, # of connection points: 2
#     Edge 19, Type (0, 0), BuildingBlock: EZIPEK_clean_linker_0, # of connection points: 2
#     Edge 20, Type (0, 0), BuildingBlock: EZIPEK_clean_linker_0, # of connection points: 2
#     Edge 21, Type (0, 0), BuildingBlock: EZIPEK_clean_linker_0, # of connection points: 2
#     Edge 22, Type (0, 0), BuildingBlock: EZIPEK_clean_linker_0, # of connection points: 2
#     Edge 23, Type (0, 0), BuildingBlock: EZIPEK_clean_linker_0, # of connection points: 2
#     Edge 24, Type (0, 0), BuildingBlock: EZIPEK_clean_linker_0, # of connection points: 2
#     Edge 25, Type (0, 0), BuildingBlock: EZIPEK_clean_linker_0, # of connection points: 2
#     Edge 26, Type (0, 0), BuildingBlock: EZIPEK_clean_linker_0, # of connection points: 2
#     Edge 27, Type (0, 0), BuildingBlock: EZIPEK_clean_linker_0, # of connection points: 2
#     Edge 28, Type (0, 0), BuildingBlock: EZIPEK_clean_linker_0, # of connection points: 2
#     Edge 29, Type (0, 0), BuildingBlock: EZIPEK_clean_linker_0, # of connection points: 2
#     Edge 30, Type (0, 0), BuildingBlock: EZIPEK_clean_linker_0, # of connection points: 2
#     Edge 31, Type (0, 0), BuildingBlock: EZIPEK_clean_linker_0, # of connection points: 2
#     Edge 32, Type (0, 0), BuildingBlock: EZIPEK_clean_linker_0, # of connection points: 2
#     Edge 33, Type (0, 0), BuildingBlock: EZIPEK_clean_linker_0, # of connection points: 2
#     Edge 34, Type (0, 0), BuildingBlock: EZIPEK_clean_linker_0, # of connection points: 2
#     Edge 35, Type (0, 0), BuildingBlock: EZIPEK_clean_linker_0, # of connection points: 2
#     Edge 36, Type (0, 0), BuildingBlock: EZIPEK_clean_linker_0, # of connection points: 2
#     Edge 37, Type (0, 0), BuildingBlock: EZIPEK_clean_linker_0, # of connection points: 2
#     Edge 38, Type (0, 0), BuildingBlock: EZIPEK_clean_linker_0, # of connection points: 2
#     Edge 39, Type (0, 0), BuildingBlock: EZIPEK_clean_linker_0, # of connection points: 2
#     Edge 40, Type (0, 0), BuildingBlock: EZIPEK_clean_linker_0, # of connection points: 2
#     Edge 41, Type (0, 0), BuildingBlock: EZIPEK_clean_linker_0, # of connection points: 2
#     Edge 42, Type (0, 0), BuildingBlock: EZIPEK_clean_linker_0, # of connection points: 2
#     Edge 43, Type (0, 0), BuildingBlock: EZIPEK_clean_linker_0, # of connection points: 2
#     Edge 44, Type (0, 0), BuildingBlock: EZIPEK_clean_linker_0, # of connection points: 2
#     Edge 45, Type (0, 0), BuildingBlock: EZIPEK_clean_linker_0, # of connection points: 2
#     Edge 46, Type (0, 0), BuildingBlock: EZIPEK_clean_linker_0, # of connection points: 2
#     Edge 47, Type (0, 0), BuildingBlock: EZIPEK_clean_linker_0, # of connection points: 2
#     Edge 48, Type (0, 0), BuildingBlock: EZIPEK_clean_linker_0, # of connection points: 2
#     Edge 49, Type (0, 0), BuildingBlock: EZIPEK_clean_linker_0, # of connection points: 2
#     Edge 50, Type (0, 0), BuildingBlock: EZIPEK_clean_linker_0, # of connection points: 2
#     Edge 51, Type (0, 0), BuildingBlock: EZIPEK_clean_linker_0, # of connection points: 2
#     Edge 52, Type (0, 0), BuildingBlock: EZIPEK_clean_linker_0, # of connection points: 2
#     Edge 53, Type (0, 0), BuildingBlock: EZIPEK_clean_linker_0, # of connection points: 2
#     Edge 54, Type (0, 0), BuildingBlock: EZIPEK_clean_linker_0, # of connection points: 2
#     Edge 55, Type (0, 0), BuildingBlock: EZIPEK_clean_linker_0, # of connection points: 2
# Relax obj value: 0.262
# Max RMSD: 0.221
# Mean RMSD: 0.205
data_MOF--net-zfw--node1-XOMCOT_clean_sbu_0--edge1-EZIPEK_clean_linker_0
_symmetry_space_group_name_H-M    P1
_symmetry_Int_Tables_number       1
_symmetry_cell_setting            triclinic
loop_
_symmetry_equiv_pos_as_xyz
'x, y, z'
_cell_length_a     51.507716
_cell_length_b     51.202384
_cell_length_c     13.158205
_cell_angle_alpha  89.890632
_cell_angle_beta   90.023517
_cell_angle_gamma 90.025507
loop_
_atom_site_label
_atom_site_type_symbol
_atom_site_fract_x
_atom_site_fract_y
_atom_site_fract_z
_atom_type_partial_charge
Co0 Co 0.10727 0.09315 0.24828 0.0
C1 C 0.09782 0.08663 0.46539 0.0
C2 C 0.11616 0.05248 0.40466 0.0
C3 C 0.11468 0.0499 0.50893 0.0
N4 N 0.10534 0.07543 0.37775 0.0
N5 N 0.10403 0.0719 0.5468 0.0
H6 H 0.09048 0.10641 0.47027 0.0
H7 H 0.12619 0.03949 0.35333 0.0
C8 C 0.09016 0.03697 0.17735 0.0
O9 O 0.0804 0.0287 0.26362 0.0
N10 N 0.10926 0.11057 0.11679 0.0
C11 C 0.12331 0.13166 0.08816 0.0
C12 C 0.1227 0.13362 0.98342 0.0
C13 C 0.09963 0.10077 0.02936 0.0
N14 N 0.10797 0.11395 0.94748 0.0
C15 C 0.06514 0.12861 0.2461 0.0
C16 C 0.02866 0.09653 0.3368 0.0
C17 C 0.02363 0.12335 0.32918 0.0
C18 C 0.04179 0.13926 0.28014 0.0
C19 C 0.05232 0.08655 0.30065 0.0
N20 N 0.07063 0.10271 0.25896 0.0
H21 H 0.07973 0.14174 0.21674 0.0
H22 H 0.05664 0.06638 0.3151 0.0
H23 H 0.13447 0.14397 0.13843 0.0
H24 H 0.08799 0.0833 0.02371 0.0
O25 O 0.12145 0.12356 0.31709 0.0
O26 O 0.14532 0.09157 0.25533 0.0
O27 O 0.10031 0.05968 0.1688 0.0
C28 C 0.14447 0.11386 0.3034 0.0
H29 H 0.12325 0.03443 0.55403 0.0
H30 H 0.13373 0.14713 0.93707 0.0
H31 H 0.01513 0.08373 0.37552 0.0
H32 H 0.03862 0.16012 0.27376 0.0
Co33 Co 0.2405 0.7813 0.53045 0.0
C34 C 0.24814 0.77273 0.75206 0.0
C35 C 0.2822 0.78846 0.6822 0.0
C36 C 0.28589 0.78824 0.78613 0.0
N37 N 0.25845 0.77873 0.66055 0.0
N38 N 0.26411 0.77891 0.82937 0.0
H39 H 0.22835 0.76673 0.76421 0.0
H40 H 0.29519 0.79707 0.62739 0.0
C41 C 0.29391 0.75968 0.46072 0.0
O42 O 0.29615 0.74382 0.53882 0.0
N43 N 0.22359 0.78413 0.39994 0.0
C44 C 0.20139 0.77256 0.36941 0.0
C45 C 0.20095 0.77218 0.26431 0.0
C46 C 0.23589 0.79124 0.31377 0.0
N47 N 0.22284 0.7837 0.23038 0.0
C48 C 0.2108 0.73836 0.60368 0.0
C49 C 0.229 0.69984 0.47612 0.0
C50 C 0.20916 0.69381 0.54575 0.0
C51 C 0.20029 0.71346 0.60981 0.0
C52 C 0.23904 0.72549 0.47194 0.0
N53 N 0.23044 0.74431 0.53761 0.0
H54 H 0.2019 0.75307 0.64998 0.0
H55 H 0.25267 0.73039 0.41295 0.0
H56 H 0.18777 0.76286 0.41934 0.0
H57 H 0.2552 0.79956 0.3115 0.0
O58 O 0.21007 0.79569 0.59694 0.0
O59 O 0.24224 0.8197 0.53935 0.0
O60 O 0.27405 0.77451 0.45223 0.0
C61 C 0.2197 0.8188 0.58463 0.0
H62 H 0.30219 0.79649 0.82696 0.0
H63 H 0.18686 0.76232 0.21688 0.0
H64 H 0.23593 0.68521 0.42338 0.0
H65 H 0.18456 0.7098 0.66272 0.0
Co66 Co 0.54863 0.92001 0.77023 0.0
C67 C 0.55638 0.92881 0.99202 0.0
C68 C 0.53903 0.9618 0.91867 0.0
C69 C 0.53833 0.9658 0.02243 0.0
N70 N 0.55027 0.93849 0.89942 0.0
N71 N 0.54881 0.94472 0.06783 0.0
H72 H 0.56399 0.90954 0.00568 0.0
H73 H 0.53001 0.9741 0.86185 0.0
C74 C 0.56868 0.97409 0.69947 0.0
O75 O 0.58572 0.97497 0.77356 0.0
N76 N 0.54646 0.90282 0.63977 0.0
C77 C 0.56051 0.88235 0.60617 0.0
C78 C 0.56062 0.88279 0.50106 0.0
C79 C 0.53757 0.91478 0.55515 0.0
N80 N 0.54641 0.90341 0.46987 0.0
C81 C 0.59198 0.89145 0.84565 0.0
C82 C 0.63042 0.91137 0.72194 0.0
C83 C 0.63671 0.89156 0.79192 0.0
C84 C 0.61709 0.88181 0.85406 0.0
C85 C 0.60461 0.92054 0.71548 0.0
N86 N 0.58575 0.911 0.77899 0.0
H87 H 0.57738 0.88212 0.89129 0.0
H88 H 0.59985 0.93447 0.65698 0.0
H89 H 0.57207 0.86968 0.65392 0.0
H90 H 0.52707 0.93301 0.55561 0.0
O91 O 0.53472 0.88907 0.83723 0.0
O92 O 0.51052 0.92103 0.77884 0.0
O93 O 0.55446 0.95375 0.6912 0.0
C94 C 0.51162 0.89856 0.82567 0.0
H95 H 0.52887 0.98175 0.06161 0.0
H96 H 0.57209 0.87043 0.4518 0.0
H97 H 0.64507 0.91904 0.67096 0.0
H98 H 0.62103 0.86615 0.90746 0.0
Co99 Co 0.42008 0.21902 0.98363 0.0
C100 C 0.41563 0.22338 0.20458 0.0
C101 C 0.37784 0.22173 0.13607 0.0
C102 C 0.37486 0.22269 0.24035 0.0
N103 N 0.40345 0.22205 0.1143 0.0
N104 N 0.39872 0.22315 0.28238 0.0
H105 H 0.43651 0.22347 0.21379 0.0
H106 H 0.3624 0.22017 0.08075 0.0
C107 C 0.38186 0.24539 0.83936 0.0
O108 O 0.4011 0.2598 0.80533 0.0
N109 N 0.43665 0.21551 0.85131 0.0
C110 C 0.46125 0.22072 0.82148 0.0
C111 C 0.46255 0.21934 0.71684 0.0
C112 C 0.42409 0.20923 0.765 0.0
N113 N 0.43885 0.21279 0.68218 0.0
C114 C 0.45819 0.25852 0.01758 0.0
C115 C 0.42537 0.30082 0.03677 0.0
C116 C 0.45213 0.30437 0.05192 0.0
C117 C 0.46848 0.28286 0.04177 0.0
C118 C 0.41576 0.27582 0.01241 0.0
N119 N 0.43228 0.25512 0.99933 0.0
H120 H 0.47124 0.24217 0.019 0.0
H121 H 0.39502 0.27301 0.00806 0.0
H122 H 0.47719 0.22595 0.8702 0.0
H123 H 0.40399 0.20367 0.76137 0.0
O124 O 0.4494 0.20167 0.04725 0.0
O125 O 0.41511 0.18096 0.98737 0.0
O126 O 0.38588 0.2296 0.91372 0.0
C127 C 0.43759 0.17968 0.03281 0.0
H128 H 0.35677 0.22195 0.28216 0.0
H129 H 0.47899 0.2245 0.66968 0.0
H130 H 0.41204 0.31696 0.04677 0.0
H131 H 0.48913 0.28468 0.05594 0.0
Co132 Co 0.10553 0.91529 0.74489 0.0
C133 C 0.09855 0.92381 0.52774 0.0
C134 C 0.12492 0.95192 0.5903 0.0
C135 C 0.1265 0.9531 0.48572 0.0
N136 N 0.10739 0.9335 0.61649 0.0
N137 N 0.11 0.93528 0.44732 0.0
H138 H 0.08648 0.90661 0.52164 0.0
H139 H 0.13758 0.96187 0.6432 0.0
C140 C 0.09284 0.97228 0.81233 0.0
O141 O 0.09266 0.9825 0.72083 0.0
N142 N 0.10417 0.89743 0.87461 0.0
C143 C 0.09044 0.87638 0.90594 0.0
C144 C 0.09074 0.87556 0.0108 0.0
C145 C 0.11326 0.90841 0.96052 0.0
N146 N 0.10487 0.89592 0.04404 0.0
C147 C 0.0646 0.88113 0.68522 0.0
C148 C 0.02454 0.9169 0.67886 0.0
C149 C 0.01971 0.89098 0.64932 0.0
C150 C 0.04012 0.87312 0.65335 0.0
C151 C 0.04955 0.92412 0.71241 0.0
N152 N 0.06925 0.90619 0.71602 0.0
H153 H 0.08 0.86689 0.68388 0.0
H154 H 0.05307 0.94422 0.73202 0.0
H155 H 0.07975 0.86314 0.85828 0.0
H156 H 0.12407 0.92647 0.96249 0.0
O157 O 0.12204 0.88553 0.68102 0.0
O158 O 0.14349 0.91719 0.75764 0.0
O159 O 0.0959 0.94775 0.82565 0.0
C160 C 0.14422 0.8953 0.7074 0.0
H161 H 0.14019 0.96447 0.44164 0.0
H162 H 0.08017 0.86209 0.05892 0.0
H163 H 0.00927 0.93139 0.67494 0.0
H164 H 0.03727 0.85303 0.62999 0.0
Co165 Co 0.4144 0.78785 0.0109 0.0
C166 C 0.40992 0.78537 0.78978 0.0
C167 C 0.37215 0.78724 0.85827 0.0
C168 C 0.36917 0.78722 0.75391 0.0
N169 N 0.39774 0.78609 0.88007 0.0
N170 N 0.39303 0.78647 0.7121 0.0
H171 H 0.43079 0.78472 0.78056 0.0
H172 H 0.35674 0.78866 0.91374 0.0
C173 C 0.37633 0.76201 0.15504 0.0
O174 O 0.39572 0.74755 0.18724 0.0
N175 N 0.43095 0.79042 0.14345 0.0
C176 C 0.45531 0.78434 0.17379 0.0
C177 C 0.45666 0.78623 0.27825 0.0
C178 C 0.41863 0.79769 0.22909 0.0
N179 N 0.43326 0.79396 0.31219 0.0
C180 C 0.45124 0.74732 0.97528 0.0
C181 C 0.41704 0.70619 0.95315 0.0
C182 C 0.44369 0.70185 0.93867 0.0
C183 C 0.46074 0.72276 0.95023 0.0
C184 C 0.40824 0.7314 0.97849 0.0
N185 N 0.42543 0.7515 0.99301 0.0
H186 H 0.46484 0.76323 0.97513 0.0
H187 H 0.38759 0.73485 0.98274 0.0
H188 H 0.47104 0.77826 0.12564 0.0
H189 H 0.39868 0.80407 0.23194 0.0
O190 O 0.44433 0.80432 0.94923 0.0
O191 O 0.4107 0.82606 0.00949 0.0
O192 O 0.38007 0.77774 0.08025 0.0
C193 C 0.43331 0.82663 0.96475 0.0
H194 H 0.35112 0.78849 0.71201 0.0
H195 H 0.47287 0.78063 0.32593 0.0
H196 H 0.40322 0.69052 0.942 0.0
H197 H 0.48134 0.7203 0.93654 0.0
Co198 Co 0.54793 0.08559 0.23433 0.0
C199 C 0.54954 0.07973 0.01093 0.0
C200 C 0.55522 0.04263 0.08259 0.0
C201 C 0.55597 0.03917 0.97836 0.0
N202 N 0.55156 0.06825 0.10311 0.0
N203 N 0.55227 0.06262 0.93463 0.0
H204 H 0.54539 0.10017 0.99841 0.0
H205 H 0.55669 0.02726 0.1383 0.0
C206 C 0.57553 0.03685 0.32744 0.0
O207 O 0.59574 0.03754 0.26663 0.0
N208 N 0.54404 0.10216 0.36511 0.0
C209 C 0.55226 0.12598 0.39462 0.0
C210 C 0.55232 0.12675 0.49979 0.0
C211 C 0.53858 0.08918 0.45166 0.0
N212 N 0.54412 0.10335 0.53455 0.0
C213 C 0.59037 0.1133 0.14755 0.0
C214 C 0.62674 0.10515 0.29829 0.0
C215 C 0.63316 0.12134 0.21551 0.0
C216 C 0.61458 0.12513 0.13975 0.0
C217 C 0.60175 0.09401 0.30421 0.0
N218 N 0.58411 0.09748 0.22756 0.0
H219 H 0.57623 0.11818 0.09081 0.0
H220 H 0.59627 0.08354 0.37199 0.0
H221 H 0.55988 0.14077 0.34397 0.0
H222 H 0.53258 0.06895 0.45502 0.0
O223 O 0.5322 0.11567 0.16875 0.0
O224 O 0.51012 0.08164 0.22548 0.0
O225 O 0.55625 0.05218 0.31293 0.0
C226 C 0.50988 0.10435 0.1804 0.0
H227 H 0.55856 0.02096 0.93792 0.0
H228 H 0.5599 0.14232 0.54677 0.0
H229 H 0.64046 0.10209 0.35954 0.0
H230 H 0.6185 0.1379 0.07577 0.0
Co231 Co 0.24541 0.22469 0.46809 0.0
C232 C 0.25065 0.21914 0.246 0.0
C233 C 0.28776 0.22725 0.31176 0.0
C234 C 0.29054 0.2262 0.20746 0.0
N235 N 0.26249 0.22352 0.3359 0.0
N236 N 0.26706 0.22121 0.16747 0.0
H237 H 0.23014 0.21535 0.23651 0.0
H238 H 0.30331 0.23076 0.36458 0.0
C239 C 0.29627 0.25015 0.54736 0.0
O240 O 0.2948 0.27013 0.48481 0.0
N241 N 0.229 0.22517 0.59909 0.0
C242 C 0.20607 0.23568 0.62686 0.0
C243 C 0.20456 0.23518 0.73178 0.0
C244 C 0.24076 0.21795 0.6858 0.0
N245 N 0.22655 0.22419 0.76746 0.0
C246 C 0.22256 0.26773 0.36443 0.0
C247 C 0.22803 0.30497 0.51419 0.0
C248 C 0.21275 0.3107 0.42837 0.0
C249 C 0.21076 0.29195 0.35221 0.0
C250 C 0.23964 0.28014 0.52364 0.0
N251 N 0.2368 0.26174 0.44897 0.0
H252 H 0.2183 0.25319 0.30843 0.0
H253 H 0.24945 0.27518 0.59357 0.0
H254 H 0.19224 0.24444 0.57514 0.0
H255 H 0.26004 0.20964 0.68998 0.0
O256 O 0.2139 0.21044 0.40994 0.0
O257 O 0.24586 0.18648 0.47274 0.0
O258 O 0.27964 0.2316 0.54199 0.0
C259 C 0.22311 0.18739 0.42929 0.0
H260 H 0.30813 0.22956 0.16432 0.0
H261 H 0.1894 0.2436 0.77825 0.0
H262 H 0.22973 0.31895 0.57548 0.0
H263 H 0.19883 0.29545 0.28568 0.0
Co264 Co 0.91465 0.28082 0.50794 0.0
C265 C 0.9087 0.28838 0.28666 0.0
C266 C 0.87278 0.27541 0.35102 0.0
C267 C 0.87001 0.27669 0.24672 0.0
N268 N 0.89734 0.28221 0.37605 0.0
N269 N 0.8928 0.28459 0.20743 0.0
H270 H 0.9289 0.29363 0.27766 0.0
H271 H 0.858 0.26895 0.40302 0.0
C272 C 0.86479 0.25564 0.5968 0.0
O273 O 0.86698 0.23441 0.54162 0.0
N274 N 0.93123 0.28029 0.63908 0.0
C275 C 0.95405 0.2695 0.6671 0.0
C276 C 0.95563 0.27004 0.772 0.0
C277 C 0.91964 0.28773 0.72582 0.0
N278 N 0.93381 0.28133 0.80761 0.0
C279 C 0.93455 0.23706 0.4008 0.0
C280 C 0.9332 0.20093 0.5565 0.0
C281 C 0.94663 0.19483 0.46665 0.0
C282 C 0.94643 0.21295 0.38755 0.0
C283 C 0.92151 0.22566 0.5669 0.0
N284 N 0.92236 0.24356 0.48949 0.0
H285 H 0.93734 0.2512 0.3417 0.0
H286 H 0.91339 0.23104 0.63937 0.0
H287 H 0.96774 0.26053 0.61557 0.0
H288 H 0.90047 0.29628 0.73 0.0
O289 O 0.94648 0.29375 0.44842 0.0
O290 O 0.9155 0.3191 0.50997 0.0
O291 O 0.88018 0.27501 0.5826 0.0
C292 C 0.93811 0.3172 0.46573 0.0
H293 H 0.85319 0.27084 0.2029 0.0
H294 H 0.97069 0.26142 0.81855 0.0
H295 H 0.9332 0.18743 0.61996 0.0
H296 H 0.95686 0.20913 0.31761 0.0
Co297 Co 0.73396 0.73162 0.01369 0.0
C298 C 0.73837 0.73186 0.79351 0.0
C299 C 0.7752 0.72278 0.86169 0.0
C300 C 0.77789 0.7217 0.75729 0.0
N301 N 0.75042 0.72925 0.8834 0.0
N302 N 0.75459 0.72721 0.71594 0.0
H303 H 0.71803 0.73669 0.78475 0.0
H304 H 0.79007 0.71862 0.91741 0.0
C305 C 0.77418 0.75588 0.15224 0.0
O306 O 0.75644 0.77286 0.17975 0.0
N307 N 0.71752 0.73332 0.14638 0.0
C308 C 0.69508 0.74459 0.17705 0.0
C309 C 0.69358 0.74323 0.28149 0.0
C310 C 0.72857 0.7243 0.23227 0.0
N311 N 0.71498 0.73095 0.31523 0.0
C312 C 0.70003 0.77335 0.96105 0.0
C313 C 0.73652 0.81174 0.9257 0.0
C314 C 0.71018 0.81718 0.90716 0.0
C315 C 0.69201 0.7976 0.92564 0.0
C316 C 0.74381 0.78691 0.96296 0.0
N317 N 0.72546 0.7682 0.98306 0.0
H318 H 0.68545 0.75838 0.96663 0.0
H319 H 0.76419 0.78247 0.97145 0.0
H320 H 0.68083 0.75382 0.12941 0.0
H321 H 0.7471 0.71449 0.23496 0.0
O322 O 0.70291 0.71614 0.95718 0.0
O323 O 0.73489 0.69332 0.0248 0.0
O324 O 0.76911 0.74006 0.07939 0.0
C325 C 0.71241 0.69346 0.97908 0.0
H326 H 0.79525 0.71678 0.71514 0.0
H327 H 0.67886 0.75197 0.32925 0.0
H328 H 0.75125 0.82624 0.90921 0.0
H329 H 0.67161 0.80077 0.90944 0.0
Co330 Co 0.73532 0.2823 0.99758 0.0
C331 C 0.74347 0.27533 0.21503 0.0
C332 C 0.77243 0.30053 0.15089 0.0
C333 C 0.77378 0.30232 0.25528 0.0
N334 N 0.75338 0.28362 0.12585 0.0
N335 N 0.75544 0.28655 0.29465 0.0
H336 H 0.7259 0.26389 0.22187 0.0
H337 H 0.78285 0.31264 0.09718 0.0
C338 C 0.7914 0.26601 0.93536 0.0
O339 O 0.80024 0.26429 0.02867 0.0
N340 N 0.71775 0.28166 0.86756 0.0
C341 C 0.69616 0.26907 0.8354 0.0
C342 C 0.69553 0.26967 0.73062 0.0
C343 C 0.72927 0.29042 0.78218 0.0
N344 N 0.71654 0.28286 0.69825 0.0
C345 C 0.69908 0.24308 0.05526 0.0
C346 C 0.73266 0.20138 0.07378 0.0
C347 C 0.7064 0.19799 0.10006 0.0
C348 C 0.68966 0.2192 0.08933 0.0
C349 C 0.7413 0.22579 0.03698 0.0
N350 N 0.72446 0.24634 0.02754 0.0
H351 H 0.68564 0.25917 0.05294 0.0
H352 H 0.76159 0.22829 0.02028 0.0
H353 H 0.68228 0.25898 0.88217 0.0
H354 H 0.7478 0.30033 0.78088 0.0
O355 O 0.70635 0.29995 0.06089 0.0
O356 O 0.73863 0.32045 0.98464 0.0
O357 O 0.76748 0.27106 0.91801 0.0
C358 C 0.71684 0.32189 0.03478 0.0
H359 H 0.78571 0.31569 0.29857 0.0
H360 H 0.68163 0.25995 0.68192 0.0
H361 H 0.74633 0.1855 0.08309 0.0
H362 H 0.66936 0.21754 0.11007 0.0
Co363 Co 0.91111 0.73256 0.52427 0.0
C364 C 0.90282 0.74155 0.74538 0.0
C365 C 0.86997 0.72339 0.67566 0.0
C366 C 0.86625 0.72338 0.77954 0.0
N367 N 0.89299 0.73475 0.65396 0.0
N368 N 0.88733 0.73421 0.82278 0.0
H369 H 0.92211 0.74902 0.75743 0.0
H370 H 0.8577 0.71376 0.62083 0.0
C371 C 0.85734 0.75369 0.45631 0.0
O372 O 0.85452 0.76809 0.53808 0.0
N373 N 0.92811 0.72999 0.39393 0.0
C374 C 0.94994 0.74219 0.36285 0.0
C375 C 0.95025 0.74255 0.25774 0.0
C376 C 0.91592 0.7225 0.30803 0.0
N377 N 0.92867 0.73038 0.22429 0.0
C378 C 0.94083 0.77547 0.59709 0.0
C379 C 0.92157 0.81447 0.47362 0.0
C380 C 0.94172 0.82034 0.5421 0.0
C381 C 0.95113 0.80043 0.60405 0.0
C382 C 0.91178 0.78873 0.46838 0.0
N383 N 0.92095 0.76963 0.53199 0.0
H384 H 0.94996 0.76067 0.64262 0.0
H385 H 0.89778 0.78408 0.4104 0.0
H386 H 0.96334 0.7523 0.41235 0.0
H387 H 0.89681 0.71372 0.30625 0.0
O388 O 0.94163 0.71829 0.59113 0.0
O389 O 0.90977 0.69403 0.53392 0.0
O390 O 0.87757 0.73946 0.44532 0.0
C391 C 0.9322 0.69509 0.58011 0.0
H392 H 0.85063 0.71388 0.8204 0.0
H393 H 0.964 0.7528 0.20995 0.0
H394 H 0.91416 0.82934 0.42268 0.0
H395 H 0.96704 0.80399 0.65624 0.0
Co396 Co 0.60158 0.59787 0.75609 0.0
C397 C 0.58855 0.59115 0.97119 0.0
C398 C 0.61002 0.55839 0.91506 0.0
C399 C 0.6085 0.55642 0.01927 0.0
N400 N 0.59742 0.58014 0.88501 0.0
N401 N 0.59603 0.57771 0.05455 0.0
H402 H 0.57979 0.61037 0.97365 0.0
H403 H 0.62184 0.54635 0.86614 0.0
C404 C 0.5875 0.54112 0.68535 0.0
O405 O 0.57729 0.53324 0.77138 0.0
N406 N 0.60595 0.61495 0.62503 0.0
C407 C 0.62056 0.63578 0.59811 0.0
C408 C 0.62001 0.63825 0.49342 0.0
C409 C 0.59635 0.6056 0.53683 0.0
N410 N 0.60498 0.61899 0.45585 0.0
C411 C 0.55913 0.63235 0.73693 0.0
C412 C 0.52072 0.59975 0.81074 0.0
C413 C 0.51557 0.62653 0.80046 0.0
C414 C 0.53477 0.64264 0.75942 0.0
C415 C 0.54558 0.59016 0.7872 0.0
N416 N 0.56467 0.60659 0.75335 0.0
H417 H 0.57422 0.6457 0.7135 0.0
H418 H 0.54981 0.57009 0.804 0.0
H419 H 0.63173 0.64776 0.6496 0.0
H420 H 0.5841 0.58856 0.53043 0.0
O421 O 0.61316 0.62896 0.82781 0.0
O422 O 0.6394 0.59766 0.77779 0.0
O423 O 0.59709 0.56405 0.67546 0.0
C424 C 0.63669 0.61997 0.82488 0.0
H425 H 0.61886 0.54246 0.06606 0.0
H426 H 0.63105 0.65199 0.44812 0.0
H427 H 0.50626 0.58676 0.84264 0.0
H428 H 0.53148 0.66342 0.75057 0.0
Co429 Co 0.0506 0.41232 0.24196 0.0
C430 C 0.0627 0.41795 0.45785 0.0
C431 C 0.04469 0.45268 0.3999 0.0
C432 C 0.04624 0.45454 0.50444 0.0
N433 N 0.05456 0.42946 0.37158 0.0
N434 N 0.05674 0.4322 0.54047 0.0
H435 H 0.07033 0.39826 0.46092 0.0
H436 H 0.03493 0.4662 0.34953 0.0
C437 C 0.07088 0.45952 0.1174 0.0
O438 O 0.09434 0.4496 0.11266 0.0
N439 N 0.04629 0.3953 0.10975 0.0
C440 C 0.0308 0.37495 0.08429 0.0
C441 C 0.03094 0.37198 0.97996 0.0
C442 C 0.05634 0.40344 0.02039 0.0
N443 N 0.04672 0.39034 0.94064 0.0
C444 C 0.09434 0.37924 0.21965 0.0
C445 C 0.12982 0.4105 0.32003 0.0
C446 C 0.13576 0.38411 0.30394 0.0
C447 C 0.11814 0.36876 0.24979 0.0
C448 C 0.10568 0.42036 0.28799 0.0
N449 N 0.08785 0.40452 0.24117 0.0
H450 H 0.08017 0.36613 0.18737 0.0
H451 H 0.10063 0.44021 0.30776 0.0
H452 H 0.01933 0.36348 0.13648 0.0
H453 H 0.06962 0.4193 0.01106 0.0
O454 O 0.03936 0.38055 0.31187 0.0
O455 O 0.01286 0.41187 0.2638 0.0
O456 O 0.05323 0.44794 0.16972 0.0
C457 C 0.01571 0.38941 0.30955 0.0
H458 H 0.03759 0.46965 0.55087 0.0
H459 H 0.01915 0.3586 0.93611 0.0
H460 H 0.14298 0.42289 0.36234 0.0
H461 H 0.12202 0.34824 0.23684 0.0
Co462 Co 0.6062 0.41726 0.241 0.0
C463 C 0.59478 0.42118 0.02377 0.0
C464 C 0.60452 0.45883 0.08396 0.0
C465 C 0.60206 0.46093 0.97965 0.0
N466 N 0.60042 0.43374 0.11071 0.0
N467 N 0.59702 0.43693 0.94224 0.0
H468 H 0.59166 0.4003 0.01904 0.0
H469 H 0.6106 0.47414 0.13523 0.0
C470 C 0.58305 0.46338 0.36366 0.0
O471 O 0.55998 0.45255 0.36735 0.0
N472 N 0.612 0.40091 0.37365 0.0
C473 C 0.62893 0.38189 0.40054 0.0
C474 C 0.62873 0.37912 0.50505 0.0
C475 C 0.60106 0.40837 0.4621 0.0
N476 N 0.61148 0.39628 0.54282 0.0
C477 C 0.56513 0.38098 0.26802 0.0
C478 C 0.52658 0.40937 0.17209 0.0
C479 C 0.52253 0.38271 0.19122 0.0
C480 C 0.54174 0.36881 0.24314 0.0
C481 C 0.55043 0.4209 0.19825 0.0
N482 N 0.56967 0.40657 0.24393 0.0
H483 H 0.58046 0.369 0.29898 0.0
H484 H 0.55393 0.44093 0.17609 0.0
H485 H 0.64129 0.37118 0.34921 0.0
H486 H 0.58641 0.42303 0.46984 0.0
O487 O 0.61971 0.38642 0.17188 0.0
O488 O 0.64384 0.41982 0.21871 0.0
O489 O 0.60131 0.45259 0.31247 0.0
C490 C 0.64263 0.39708 0.17443 0.0
H491 H 0.60639 0.47803 0.93414 0.0
H492 H 0.64138 0.36679 0.55002 0.0
H493 H 0.5121 0.4207 0.13178 0.0
H494 H 0.53935 0.34815 0.25859 0.0
Co495 Co 0.04547 0.59787 0.74874 0.0
C496 C 0.05261 0.59062 0.5321 0.0
C497 C 0.02588 0.5623 0.59128 0.0
C498 C 0.02482 0.56155 0.48658 0.0
N499 N 0.04341 0.58051 0.61946 0.0
N500 N 0.0416 0.57946 0.45059 0.0
H501 H 0.06477 0.6078 0.52769 0.0
H502 H 0.01306 0.55209 0.6429 0.0
C503 C 0.05959 0.54053 0.80598 0.0
O504 O 0.06102 0.5324 0.71164 0.0
N505 N 0.04712 0.6152 0.87898 0.0
C506 C 0.05645 0.63891 0.90578 0.0
C507 C 0.05649 0.64071 0.01039 0.0
C508 C 0.04096 0.60337 0.96718 0.0
N509 N 0.04687 0.61824 0.04767 0.0
C510 C 0.08644 0.63264 0.69378 0.0
C511 C 0.12617 0.59677 0.67675 0.0
C512 C 0.13106 0.62303 0.65245 0.0
C513 C 0.11083 0.64095 0.6618 0.0
C514 C 0.10128 0.58924 0.71042 0.0
N515 N 0.08175 0.60721 0.7199 0.0
H516 H 0.07103 0.64682 0.69328 0.0
H517 H 0.09767 0.56887 0.7242 0.0
H518 H 0.06304 0.65396 0.85475 0.0
H519 H 0.03324 0.58377 0.9732 0.0
O520 O 0.02889 0.62801 0.6871 0.0
O521 O 1.00744 0.59602 0.76172 0.0
O522 O 0.05527 0.56458 0.82602 0.0
C523 C 1.00667 0.61814 0.71257 0.0
H524 H 0.01133 0.55041 0.44079 0.0
H525 H 0.06368 0.6568 0.0556 0.0
H526 H 0.14125 0.58222 0.66799 0.0
H527 H 0.11367 0.66128 0.64154 0.0
C528 C 0.21007 0.15035 0.31394 0.0
C529 C 0.20715 0.16376 0.40736 0.0
C530 C 0.16795 0.13815 0.44291 0.0
C531 C 0.16811 0.12816 0.34186 0.0
N532 N 0.18934 0.12613 0.17804 0.0
N533 N 0.18391 0.17007 0.56363 0.0
C534 C 0.18943 0.13423 0.27691 0.0
C535 C 0.18631 0.15742 0.47278 0.0
N536 N 0.23272 0.15286 0.26113 0.0
N537 N 0.15087 0.12831 0.51209 0.0
H538 H 0.19848 0.18201 0.5928 0.0
H539 H 0.16725 0.16947 0.60835 0.0
H540 H 0.13854 0.11304 0.4943 0.0
H541 H 0.15097 0.13291 0.5891 0.0
H542 H 0.23727 0.14158 0.19784 0.0
H543 H 0.24812 0.16422 0.28754 0.0
H544 H 0.20257 0.13276 0.12401 0.0
H545 H 0.17499 0.11419 0.14742 0.0
C546 C 0.20007 0.86449 0.56295 0.0
C547 C 0.20526 0.84222 0.6246 0.0
C548 C 0.17366 0.85813 0.75091 0.0
C549 C 0.16851 0.88017 0.68943 0.0
N550 N 0.18263 0.90859 0.55498 0.0
N551 N 0.20289 0.82298 0.79167 0.0
C552 C 0.18373 0.88478 0.60142 0.0
C553 C 0.19378 0.84064 0.72295 0.0
N554 N 0.20904 0.86558 0.4654 0.0
N555 N 0.15904 0.85362 0.83578 0.0
H556 H 0.2189 0.81154 0.77596 0.0
H557 H 0.197 0.82212 0.86731 0.0
H558 H 0.14587 0.8672 0.86403 0.0
H559 H 0.15915 0.83601 0.87554 0.0
H560 H 0.20329 0.87988 0.41368 0.0
H561 H 0.22052 0.85105 0.43317 0.0
H562 H 0.19481 0.91401 0.49536 0.0
H563 H 0.17121 0.92371 0.58329 0.0
C564 C 0.48786 0.87486 0.96872 0.0
C565 C 0.48816 0.8842 0.86605 0.0
C566 C 0.4472 0.86026 0.83545 0.0
C567 C 0.4475 0.85101 0.93708 0.0
N568 N 0.46336 0.85529 0.10711 0.0
N569 N 0.46585 0.88818 0.70487 0.0
C570 C 0.46629 0.86032 0.00568 0.0
C571 C 0.46689 0.87796 0.80086 0.0
N572 N 0.50865 0.87891 0.03081 0.0
N573 N 0.42861 0.85107 0.77085 0.0
H574 H 0.48086 0.89891 0.67224 0.0
H575 H 0.44958 0.88703 0.65819 0.0
H576 H 0.4129 0.84005 0.79668 0.0
H577 H 0.42909 0.85366 0.69249 0.0
H578 H 0.51139 0.86924 0.09969 0.0
H579 H 0.52382 0.89117 0.01198 0.0
H580 H 0.47497 0.86352 0.16334 0.0
H581 H 0.44748 0.84498 0.1358 0.0
C582 C 0.47931 0.11807 0.04084 0.0
C583 C 0.48566 0.11772 0.14577 0.0
C584 C 0.45169 0.15033 0.17539 0.0
C585 C 0.44973 0.15487 0.0693 0.0
N586 N 0.46175 0.14285 0.89894 0.0
N587 N 0.47755 0.13343 0.3151 0.0
C588 C 0.46331 0.13843 1.00115 0.0
C589 C 0.47152 0.13364 0.21399 0.0
N590 N 0.48792 0.09842 0.98001 0.0
N591 N 0.43394 0.16135 0.23877 0.0
H592 H 0.49102 0.1205 0.34635 0.0
H593 H 0.47017 0.14691 0.36677 0.0
H594 H 0.41803 0.17161 0.21044 0.0
H595 H 0.43313 0.15739 0.3163 0.0
H596 H 0.4824 0.09646 0.90429 0.0
H597 H 0.49775 0.08235 0.00986 0.0
H598 H 0.47359 0.13353 0.84608 0.0
H599 H 0.44948 0.15694 0.86761 0.0
C600 C 0.97418 0.85371 0.47975 0.0
C601 C 0.95462 0.84644 0.55034 0.0
C602 C 0.97342 0.87596 0.67774 0.0
C603 C 0.99407 0.88168 0.60984 0.0
N604 N 0.00943 0.88343 0.43759 0.0
N605 N 0.93059 0.85679 0.70112 0.0
C606 C 0.99264 0.87318 0.5074 0.0
C607 C 0.95246 0.85999 0.64386 0.0
N608 N 0.97633 0.84067 0.38968 0.0
N609 N 0.97475 0.88413 0.77635 0.0
H610 H 0.91518 0.84507 0.67695 0.0
H611 H 0.9267 0.8675 0.76654 0.0
H612 H 0.98955 0.89616 0.80327 0.0
H613 H 0.96196 0.87794 0.83271 0.0
H614 H 0.99208 0.8427 0.34077 0.0
H615 H 0.96286 0.82677 0.3659 0.0
H616 H 0.00822 0.87972 0.35995 0.0
H617 H 0.02305 0.89771 0.4568 0.0
C618 C 0.95659 0.15275 0.37763 0.0
C619 C 0.96315 0.17102 0.45454 0.0
C620 C 1.00584 0.15013 0.47206 0.0
C621 C 1.00115 0.13582 0.3817 0.0
N622 N 0.97205 0.12283 0.24791 0.0
N623 N 0.99482 0.18801 0.57289 0.0
C624 C 0.97632 0.13655 0.33526 0.0
C625 C 0.9878 0.16961 0.50294 0.0
N626 N 0.93147 0.1512 0.34489 0.0
N627 N 0.0277 0.14517 0.52776 0.0
H628 H 0.98236 0.20262 0.59827 0.0
H629 H 0.01365 0.18991 0.60087 0.0
H630 H 0.04127 0.13105 0.50663 0.0
H631 H 0.03106 0.15309 0.59942 0.0
H632 H 0.92478 0.13696 0.29493 0.0
H633 H 0.91678 0.1628 0.37558 0.0
H634 H 0.95543 0.12485 0.20357 0.0
H635 H 0.98587 0.1103 0.2167 0.0
C636 C 0.6642 0.15722 0.2702 0.0
C637 C 0.65842 0.13569 0.20598 0.0
C638 C 0.69062 0.1513 0.08191 0.0
C639 C 0.69558 0.17332 0.14427 0.0
N640 N 0.69425 0.19223 0.31121 0.0
N641 N 0.67208 0.10777 0.06933 0.0
C642 C 0.68491 0.17434 0.24356 0.0
C643 C 0.67389 0.13118 0.11839 0.0
N644 N 0.64875 0.16267 0.35182 0.0
N645 N 0.70035 0.15041 0.98545 0.0
H646 H 0.66003 0.09278 0.09538 0.0
H647 H 0.68426 0.10236 0.00982 0.0
H648 H 0.71289 0.16456 0.95652 0.0
H649 H 0.69479 0.13646 0.9322 0.0
H650 H 0.65022 0.17987 0.39356 0.0
H651 H 0.63321 0.15097 0.37392 0.0
H652 H 0.68885 0.19263 0.38748 0.0
H653 H 0.70944 0.20491 0.29289 0.0
C654 C 0.67064 0.85935 0.73297 0.0
C655 C 0.66306 0.87944 0.80107 0.0
C656 C 0.69464 0.86361 0.92711 0.0
C657 C 0.7005 0.84225 0.86264 0.0
N658 N 0.70095 0.82429 0.69434 0.0
N659 N 0.67316 0.90565 0.94686 0.0
C660 C 0.69095 0.84191 0.76156 0.0
C661 C 0.67715 0.88332 0.8925 0.0
N662 N 0.65715 0.85574 0.64468 0.0
N663 N 0.70442 0.86407 0.02358 0.0
H664 H 0.66041 0.92018 0.92209 0.0
H665 H 0.68402 0.91083 0.01045 0.0
H666 H 0.71788 0.85038 0.04949 0.0
H667 H 0.69852 0.87729 0.07893 0.0
H668 H 0.6595 0.83957 0.59778 0.0
H669 H 0.64261 0.86846 0.62033 0.0
H670 H 0.69648 0.82412 0.61718 0.0
H671 H 0.7157 0.81133 0.71482 0.0
C672 C 0.67278 0.66632 0.00602 0.0
C673 C 0.69682 0.66963 0.95606 0.0
C674 C 0.68308 0.6386 0.8235 0.0
C675 C 0.65875 0.63501 0.87373 0.0
N676 N 0.63378 0.64113 0.02783 0.0
N677 N 0.72768 0.65412 0.83379 0.0
C678 C 0.65463 0.64764 0.96934 0.0
C679 C 0.70293 0.65401 0.87064 0.0
N680 N 0.6671 0.68146 0.08857 0.0
N681 N 0.68667 0.62929 0.72726 0.0
H682 H 0.74233 0.66558 0.86556 0.0
H683 H 0.73421 0.64106 0.77886 0.0
H684 H 0.67263 0.61892 0.6873 0.0
H685 H 0.70273 0.63399 0.68281 0.0
H686 H 0.64852 0.68342 0.11884 0.0
H687 H 0.68098 0.69299 0.12469 0.0
H688 H 0.63104 0.64742 0.10223 0.0
H689 H 0.62069 0.62692 0.00676 0.0
C690 C 0.6634 0.37264 0.02951 0.0
C691 C 0.66576 0.38332 0.12871 0.0
C692 C 0.7084 0.3617 0.14258 0.0
C693 C 0.70267 0.34669 0.05492 0.0
N694 N 0.67472 0.33819 0.91218 0.0
N695 N 0.69162 0.38793 0.28118 0.0
C696 C 0.68019 0.35234 0.99746 0.0
C697 C 0.68883 0.37825 0.1852 0.0
N698 N 0.64614 0.38324 0.96314 0.0
N699 N 0.73257 0.36021 0.18449 0.0
H700 H 0.67836 0.40064 0.31434 0.0
H701 H 0.70636 0.38208 0.3304 0.0
H702 H 0.74713 0.34868 0.1528 0.0
H703 H 0.73885 0.37214 0.2436 0.0
H704 H 0.64445 0.37773 0.88726 0.0
H705 H 0.63679 0.40047 0.98094 0.0
H706 H 0.65688 0.33897 0.87492 0.0
H707 H 0.68773 0.32484 0.88115 0.0
C708 C 0.99693 0.36198 0.45363 0.0
C709 C 0.9935 0.37416 0.35669 0.0
C710 C 0.94927 0.35522 0.35066 0.0
C711 C 0.95474 0.34007 0.43839 0.0
N712 N 0.98366 0.32895 0.57489 0.0
N713 N 0.96635 0.37968 0.20768 0.0
C714 C 0.97854 0.34351 0.49007 0.0
C715 C 0.96946 0.37042 0.3044 0.0
N716 N 0.01714 0.36908 0.51428 0.0
N717 N 0.92475 0.35506 0.31133 0.0
H718 H 0.98038 0.39046 0.16931 0.0
H719 H 0.95067 0.37473 0.16158 0.0
H720 H 0.90977 0.34403 0.34304 0.0
H721 H 0.91864 0.36775 0.25421 0.0
H722 H 0.01936 0.36322 0.58959 0.0
H723 H 0.03003 0.38347 0.49345 0.0
H724 H 1.00209 0.32702 0.60667 0.0
H725 H 0.96945 0.31802 0.61169 0.0
C726 C 0.9587 0.67429 0.72077 0.0
C727 C 0.9466 0.67186 0.6235 0.0
C728 C 0.96661 0.62822 0.60822 0.0
C729 C 0.98236 0.63337 0.69424 0.0
N730 N 0.99259 0.66058 0.837 0.0
N731 N 0.94125 0.64649 0.46997 0.0
C732 C 0.97803 0.65617 0.75194 0.0
C733 C 0.95073 0.64857 0.56656 0.0
N734 N 0.95095 0.69343 0.78574 0.0
N735 N 0.96675 0.60384 0.56673 0.0
H736 H 0.93032 0.66103 0.43492 0.0
H737 H 0.94615 0.63126 0.42125 0.0
H738 H 0.9779 0.58875 0.59725 0.0
H739 H 0.95411 0.59804 0.50924 0.0
H740 H 0.95724 0.69513 0.86061 0.0
H741 H 0.93566 0.7057 0.76866 0.0
H742 H 0.99364 0.67854 0.87381 0.0
H743 H 1.00431 0.64622 0.86917 0.0
C744 C 0.46424 0.33734 0.18656 0.0
C745 C 0.46389 0.32986 0.08268 0.0
C746 C 0.49881 0.36113 0.04554 0.0
C747 C 0.49963 0.3682 0.15001 0.0
N748 N 0.47897 0.3684 0.3138 0.0
N749 N 0.47524 0.33948 0.90956 0.0
C750 C 0.48082 0.3581 0.21837 0.0
C751 C 0.47926 0.34357 0.01092 0.0
N752 N 0.44986 0.32362 0.25569 0.0
N753 N 0.51773 0.36973 0.98071 0.0
H754 H 0.46103 0.32667 0.88276 0.0
H755 H 0.48408 0.35049 0.85266 0.0
H756 H 0.53241 0.38257 1.0025 0.0
H757 H 0.51999 0.3628 0.90691 0.0
H758 H 0.45166 0.32588 0.33398 0.0
H759 H 0.43698 0.30887 0.23477 0.0
H760 H 0.46426 0.36362 0.36478 0.0
H761 H 0.49089 0.38361 0.33852 0.0
C762 C 0.45612 0.66973 0.80218 0.0
C763 C 0.45471 0.67618 0.9069 0.0
C764 C 0.48895 0.64437 0.94557 0.0
C765 C 0.49135 0.6389 0.84007 0.0
N766 N 0.47288 0.64042 0.6725 0.0
N767 N 0.46369 0.66461 0.08023 0.0
C768 C 0.47329 0.64954 0.76999 0.0
C769 C 0.46901 0.66156 0.97925 0.0
N770 N 0.44226 0.68398 0.73308 0.0
N771 N 0.5068 0.63466 0.01266 0.0
H772 H 0.44918 0.67719 0.10599 0.0
H773 H 0.47177 0.65302 0.13713 0.0
H774 H 0.52152 0.6218 0.9916 0.0
H775 H 0.50803 0.64048 0.08827 0.0
H776 H 0.44478 0.68255 0.65481 0.0
H777 H 0.42891 0.69824 0.7545 0.0
H778 H 0.45888 0.6457 0.61922 0.0
H779 H 0.48531 0.62563 0.64781 0.0
C780 C 0.1985 0.65354 0.6444 0.0
C781 C 0.19593 0.66786 0.55259 0.0
C782 C 0.15731 0.64196 0.51025 0.0
C783 C 0.15647 0.63257 0.61171 0.0
N784 N 0.17682 0.62833 0.77582 0.0
N785 N 0.1733 0.67525 0.39474 0.0
C786 C 0.1776 0.63746 0.67826 0.0
C787 C 0.17584 0.66143 0.48308 0.0
N788 N 0.22073 0.65605 0.70005 0.0
N789 N 0.13994 0.63254 0.44094 0.0
H790 H 0.18678 0.68919 0.37126 0.0
H791 H 0.15721 0.67384 0.34712 0.0
H792 H 0.12626 0.61827 0.45976 0.0
H793 H 0.14068 0.63691 0.36367 0.0
H794 H 0.2249 0.64479 0.76395 0.0
H795 H 0.23611 0.66783 0.67587 0.0
H796 H 0.19003 0.63383 0.83174 0.0
H797 H 0.16209 0.61614 0.80242 0.0
C798 C 0.20251 0.35275 0.33836 0.0
C799 C 0.1967 0.33494 0.4181 0.0
C800 C 0.1549 0.35711 0.44431 0.0
C801 C 0.15865 0.37121 0.35255 0.0
N802 N 0.18604 0.38332 0.21219 0.0
N803 N 0.16671 0.31938 0.54564 0.0
C804 C 0.18268 0.36962 0.30041 0.0
C805 C 0.17294 0.33727 0.47236 0.0
N806 N 0.22704 0.35326 0.29891 0.0
N807 N 0.13387 0.36256 0.50397 0.0
H808 H 0.17931 0.30468 0.5694 0.0
H809 H 0.14837 0.31802 0.57855 0.0
H810 H 0.1202 0.37677 0.48475 0.0
H811 H 0.1313 0.35486 0.57659 0.0
H812 H 0.23336 0.36705 0.24623 0.0
H813 H 0.24181 0.34118 0.32625 0.0
H814 H 0.20181 0.38079 0.16379 0.0
H815 H 0.17224 0.3965 0.18485 0.0
C816 C 0.07011 0.02241 0.01116 0.0
C817 C 0.08982 0.0196 0.08614 0.0
C818 C 0.11277 0.98879 0.97511 0.0
C819 C 0.0919 0.98952 0.90433 0.0
N820 N 0.04889 1.00444 0.86167 0.0
N821 N 0.12734 0.9964 0.14774 0.0
C822 C 0.07008 0.00573 0.92394 0.0
C823 C 0.1103 1.00158 0.07069 0.0
N824 N 0.05153 0.04122 0.0228 0.0
N825 N 0.1357 0.97722 0.9486 0.0
H826 H 0.12639 0.00563 0.21821 0.0
H827 H 0.1408 0.98124 0.14496 0.0
H828 H 0.13879 0.96871 0.87766 0.0
H829 H 0.15244 0.97836 0.99277 0.0
H830 H 0.03853 0.04647 0.9657 0.0
H831 H 0.05021 0.05286 0.08761 0.0
H832 H 0.03131 0.01358 0.87758 0.0
H833 H 0.04815 0.99249 0.79765 0.0
C834 C 0.34111 0.78536 0.25742 0.0
C835 C 0.3515 0.76184 0.21634 0.0
C836 C 0.32115 0.73679 0.32553 0.0
C837 C 0.31411 0.76008 0.37774 0.0
N838 N 0.32118 0.80624 0.40241 0.0
N839 N 0.35026 0.71484 0.20825 0.0
C840 C 0.325 0.78427 0.34557 0.0
C841 C 0.3411 0.73749 0.24974 0.0
N842 N 0.34595 0.8089 0.21218 0.0
N843 N 0.308 0.71411 0.34477 0.0
H844 H 0.3621 0.71452 0.14395 0.0
H845 H 0.34674 0.69642 0.23899 0.0
H846 H 0.29368 0.71243 0.40008 0.0
H847 H 0.30981 0.69733 0.30081 0.0
H848 H 0.33654 0.82606 0.23328 0.0
H849 H 0.35673 0.81122 0.14616 0.0
H850 H 0.33138 0.82357 0.39055 0.0
H851 H 0.30995 0.80652 0.46807 0.0
C852 C 0.59366 0.02347 0.50071 0.0
C853 C 0.57513 0.01987 0.42122 0.0
C854 C 0.54884 0.99295 0.53762 0.0
C855 C 0.56864 0.99396 0.61297 0.0
N856 N 0.60208 0.02175 0.68191 0.0
N857 N 0.53743 0.99695 0.35985 0.0
C858 C 0.58908 0.01235 0.59915 0.0
C859 C 0.55336 1.00348 0.43888 0.0
N860 N 0.61591 0.03726 0.48277 0.0
N861 N 0.52456 0.98462 0.5638 0.0
H862 H 0.5405 1.00361 0.28587 0.0
H863 H 0.52306 0.98269 0.36556 0.0
H864 H 0.51946 0.98037 0.63877 0.0
H865 H 0.50868 0.98556 0.51483 0.0
H866 H 0.63144 0.0378 0.53342 0.0
H867 H 0.62016 0.04618 0.41377 0.0
H868 H 0.61577 0.03668 0.67831 0.0
H869 H 0.59604 0.01811 0.75608 0.0
C870 C 0.34725 0.22281 0.73235 0.0
C871 C 0.35659 0.24575 0.78119 0.0
C872 C 0.32286 0.27091 0.6899 0.0
C873 C 0.3173 0.24893 0.62715 0.0
N874 N 0.32917 0.20507 0.57774 0.0
N875 N 0.35308 0.29233 0.80423 0.0
C876 C 0.33079 0.22516 0.64568 0.0
C877 C 0.34437 0.27002 0.75877 0.0
N878 N 0.35341 0.19863 0.7689 0.0
N879 N 0.30684 0.29217 0.68842 0.0
H880 H 0.3668 0.29224 0.86258 0.0
H881 H 0.34745 0.31095 0.78101 0.0
H882 H 0.29034 0.29338 0.64302 0.0
H883 H 0.30833 0.3075 0.74003 0.0
H884 H 0.34522 0.18155 0.74019 0.0
H885 H 0.36388 0.19564 0.83545 0.0
H886 H 0.34085 0.18848 0.58245 0.0
H887 H 0.31859 0.20622 0.51042 0.0
C888 C 0.82406 0.23938 0.83504 0.0
C889 C 0.80962 0.26276 0.8471 0.0
C890 C 0.82771 0.27901 0.68526 0.0
C891 C 0.84465 0.25715 0.67975 0.0
N892 N 0.86143 0.21814 0.76077 0.0
N893 N 0.80172 0.30709 0.79271 0.0
C894 C 0.84341 0.23769 0.75747 0.0
C895 C 0.81246 0.28316 0.77438 0.0
N896 N 0.81875 0.21831 0.89551 0.0
N897 N 0.82539 0.29542 0.60378 0.0
H898 H 0.79127 0.31134 0.85851 0.0
H899 H 0.80538 0.32344 0.74769 0.0
H900 H 0.83567 0.29275 0.5364 0.0
H901 H 0.81126 0.30993 0.59903 0.0
H902 H 0.82644 0.19979 0.88277 0.0
H903 H 0.80477 0.21866 0.95271 0.0
H904 H 0.8635 0.20555 0.8225 0.0
H905 H 0.87579 0.2157 0.70625 0.0
C906 C 0.81162 0.77782 0.24257 0.0
C907 C 0.79888 0.75423 0.21444 0.0
C908 C 0.82535 0.73036 0.34103 0.0
C909 C 0.83718 0.7541 0.37289 0.0
N910 N 0.84093 0.80091 0.3562 0.0
N911 N 0.80023 0.70686 0.2156 0.0
C912 C 0.83018 0.77795 0.32389 0.0
C913 C 0.80773 0.73016 0.25692 0.0
N914 N 0.80717 0.79982 0.18596 0.0
N915 N 0.82943 0.70804 0.39608 0.0
H916 H 0.78779 0.70502 0.15407 0.0
H917 H 0.80867 0.68906 0.23499 0.0
H918 H 0.84191 0.70705 0.45814 0.0
H919 H 0.81855 0.69106 0.38696 0.0
H920 H 0.81722 0.81729 0.19444 0.0
H921 H 0.79505 0.7999 0.12241 0.0
H922 H 0.83442 0.81928 0.33418 0.0
H923 H 0.85575 0.8019 0.40978 0.0
C924 C 0.56949 0.52502 0.5177 0.0
C925 C 0.5882 0.52288 0.59672 0.0
C926 C 0.60794 0.48535 0.5097 0.0
C927 C 0.58824 0.48624 0.43308 0.0
N928 N 0.55512 0.51143 0.34951 0.0
N929 N 0.62609 0.50167 0.666 0.0
C930 C 0.57042 0.50747 0.43308 0.0
C931 C 0.60763 0.50337 0.59154 0.0
N932 N 0.55007 0.5431 0.52597 0.0
N933 N 0.62765 0.4677 0.50809 0.0
H934 H 0.62697 0.5145 0.72738 0.0
H935 H 0.64053 0.48736 0.6663 0.0
H936 H 0.631 0.45422 0.4505 0.0
H937 H 0.631 0.45422 0.4505 0.0
H938 H 0.53413 0.54399 0.47754 0.0
H939 H 0.54895 0.55634 0.58598 0.0
H940 H 0.54345 0.5278 0.33897 0.0
H941 H 0.5561 0.4995 0.28538 0.0
C942 C 0.08139 0.52251 0.9651 0.0
C943 C 0.06113 0.52116 0.89173 0.0
C944 C 0.04402 0.48177 0.97654 0.0
C945 C 0.06471 0.48249 0.04912 0.0
N946 N 0.09891 0.50751 0.12685 0.0
N947 N 0.02147 0.50081 0.83412 0.0
C948 C 0.08217 0.50409 0.04726 0.0
C949 C 0.04203 0.50128 0.89995 0.0
N950 N 0.10061 0.54068 0.95365 0.0
N951 N 0.02556 0.46275 0.97654 0.0
H952 H 0.01826 0.51514 0.77915 0.0
H953 H 1.00716 0.48637 0.83629 0.0
H954 H 0.02422 0.4476 0.02908 0.0
H955 H 0.02422 0.4476 0.02908 0.0
H956 H 0.11763 0.54086 0.99625 0.0
H957 H 0.10048 0.55472 0.89633 0.0
H958 H 0.11092 0.52369 0.13526 0.0
H959 H 0.09902 0.49526 0.19034 0.0
C960 C 0.12943 0.09149 0.8049 0.0
C961 C 0.10723 0.10391 0.84555 0.0
C962 C 0.08201 0.09079 0.6963 0.0
C963 C 0.10501 0.08129 0.65012 0.0
N964 N 0.15197 0.07809 0.65339 0.0
N965 N 0.06297 0.11774 0.82864 0.0
C966 C 0.12913 0.083 0.70251 0.0
C967 C 0.08363 0.10423 0.79066 0.0
N968 N 0.15053 0.08694 0.86531 0.0
N969 N 0.05859 0.08617 0.65107 0.0
H970 H 0.06384 0.12755 0.89804 0.0
H971 H 0.04585 0.1209 0.78834 0.0
H972 H 0.05687 0.07563 0.5836 0.0
H973 H 0.04083 0.09068 0.68446 0.0
H974 H 0.16614 0.07539 0.84275 0.0
H975 H 0.15131 0.09245 0.94146 0.0
H976 H 0.17007 0.08174 0.68579 0.0
H977 H 0.15316 0.07343 0.57666 0.0
C978 C 0.23485 0.80542 0.07009 0.0
C979 C 0.23367 0.78246 0.12963 0.0
C980 C 0.25446 0.75755 0.99299 0.0
C981 C 0.25634 0.78067 0.93442 0.0
N982 N 0.2526 0.82752 0.92259 0.0
N983 N 0.24686 0.738 0.15852 0.0
C984 C 0.24796 0.80495 0.97495 0.0
C985 C 0.24476 0.75884 0.09408 0.0
N986 N 0.22252 0.82739 0.10357 0.0
N987 N 0.26165 0.73431 0.95073 0.0
H988 H 0.23997 0.73843 0.23295 0.0
H989 H 0.25714 0.72109 0.14123 0.0
H990 H 0.27003 0.73312 0.87868 0.0
H991 H 0.25814 0.71624 0.98445 0.0
H992 H 0.22009 0.84415 0.05969 0.0
H993 H 0.21291 0.82811 0.17334 0.0
H994 H 0.24952 0.84606 0.95263 0.0
H995 H 0.26087 0.82789 0.85045 0.0
C996 C 0.52388 0.92597 0.21159 0.0
C997 C 0.54708 0.93735 0.1735 0.0
C998 C 0.56846 0.92969 0.33731 0.0
C999 C 0.54649 0.91527 0.37034 0.0
N1000 N 0.5035 0.89901 0.34173 0.0
N1001 N 0.59151 0.9499 0.19643 0.0
C1002 C 0.52412 0.91346 0.30844 0.0
C1003 C 0.56936 0.93929 0.23579 0.0
N1004 N 0.50169 0.92721 0.15493 0.0
N1005 N 0.588 0.93488 0.40445 0.0
H1006 H 0.59217 0.95809 0.12375 0.0
H1007 H 0.6094 0.94949 0.23326 0.0
H1008 H 0.58776 0.92812 0.47918 0.0
H1009 H 0.60334 0.94751 0.38903 0.0
H1010 H 0.48351 0.92156 0.18138 0.0
H1011 H 0.50118 0.93519 0.08207 0.0
H1012 H 0.48723 0.89483 0.29787 0.0
H1013 H 0.50335 0.88985 0.41266 0.0
C1014 C 0.40424 0.19706 0.439 0.0
C1015 C 0.40573 0.2214 0.38786 0.0
C1016 C 0.42691 0.24083 0.53603 0.0
C1017 C 0.42876 0.21565 0.58087 0.0
N1018 N 0.42159 0.16941 0.57272 0.0
N1019 N 0.41906 0.2663 0.3835 0.0
C1020 C 0.41789 0.19367 0.53188 0.0
C1021 C 0.41727 0.24325 0.43539 0.0
N1022 N 0.38975 0.17726 0.39902 0.0
N1023 N 0.43304 0.2625 0.59147 0.0
H1024 H 0.41046 0.26911 0.31248 0.0
H1025 H 0.43005 0.28211 0.40849 0.0
H1026 H 0.43949 0.26164 0.66637 0.0
H1027 H 0.42951 0.28149 0.56665 0.0
H1028 H 0.38564 0.16005 0.4381 0.0
H1029 H 0.38034 0.17866 0.32922 0.0
H1030 H 0.41648 0.15218 0.53588 0.0
H1031 H 0.4319 0.16646 0.64006 0.0
C1032 C 0.09418 0.93901 0.2715 0.0
C1033 C 0.10943 0.92579 0.34459 0.0
C1034 C 0.12291 0.89373 0.2168 0.0
C1035 C 0.10612 0.90578 0.14601 0.0
N1036 N 0.07351 0.9378 0.10562 0.0
N1037 N 0.13672 0.8896 0.3922 0.0
C1038 C 0.09119 0.92799 0.17311 0.0
C1039 C 0.12337 0.90283 0.31869 0.0
N1040 N 0.08262 0.96209 0.29704 0.0
N1041 N 0.13897 0.87416 0.18494 0.0
H1042 H 0.13815 0.8963 0.46658 0.0
H1043 H 0.14516 0.87135 0.38151 0.0
H1044 H 0.13878 0.86716 0.11049 0.0
H1045 H 0.15364 0.86609 0.22942 0.0
H1046 H 0.07311 0.97415 0.24539 0.0
H1047 H 0.08395 0.97002 0.36985 0.0
H1048 H 0.06056 0.95277 0.12234 0.0
H1049 H 0.07043 0.92964 0.03411 0.0
C1050 C 0.40994 0.76511 0.55918 0.0
C1051 C 0.40006 0.78773 0.60673 0.0
C1052 C 0.41385 0.81457 0.46253 0.0
C1053 C 0.42312 0.79186 0.41356 0.0
N1054 N 0.42466 0.74481 0.4037 0.0
N1055 N 0.38748 0.8329 0.59724 0.0
C1056 C 0.41972 0.76687 0.45866 0.0
C1057 C 0.40031 0.81215 0.55605 0.0
N1058 N 0.41014 0.74201 0.61119 0.0
N1059 N 0.41894 0.83847 0.42082 0.0
H1060 H 0.37798 0.83189 0.667 0.0
H1061 H 0.38472 0.85055 0.55936 0.0
H1062 H 0.42914 0.84064 0.3528 0.0
H1063 H 0.41502 0.85607 0.4572 0.0
H1064 H 0.41991 0.72543 0.58621 0.0
H1065 H 0.40146 0.73983 0.68236 0.0
H1066 H 0.41987 0.72609 0.42836 0.0
H1067 H 0.43157 0.74521 0.32942 0.0
C1068 C 0.52418 0.08304 0.68553 0.0
C1069 C 0.54658 0.09262 0.63541 0.0
C1070 C 0.57346 0.07947 0.78038 0.0
C1071 C 0.55117 0.06918 0.82857 0.0
N1072 N 0.50682 0.05526 0.81892 0.0
N1073 N 0.5933 0.09331 0.62249 0.0
C1074 C 0.52697 0.06903 0.77818 0.0
C1075 C 0.57152 0.08898 0.67921 0.0
N1076 N 0.50021 0.08825 0.64608 0.0
N1077 N 0.59637 0.08048 0.83242 0.0
H1078 H 0.59261 0.09931 0.54689 0.0
H1079 H 0.61192 0.08854 0.6471 0.0
H1080 H 0.59851 0.07253 0.90505 0.0
H1081 H 0.61269 0.09041 0.80601 0.0
H1082 H 0.48295 0.08396 0.68375 0.0
H1083 H 0.49769 0.09897 0.57927 0.0
H1084 H 0.48923 0.05234 0.78153 0.0
H1085 H 0.50855 0.04499 0.88716 0.0
C1086 C 0.24001 0.1994 0.91838 0.0
C1087 C 0.23612 0.22375 0.86976 0.0
C1088 C 0.25389 0.24657 0.01715 0.0
C1089 C 0.25925 0.22215 0.06304 0.0
N1090 N 0.26173 0.17551 0.05356 0.0
N1091 N 0.24469 0.26996 0.86128 0.0
C1092 C 0.2536 0.19856 0.0122 0.0
C1093 C 0.24454 0.24725 0.91589 0.0
N1094 N 0.23016 0.17727 0.87527 0.0
N1095 N 0.25691 0.26901 0.07181 0.0
H1096 H 0.23842 0.27106 0.7861 0.0
H1097 H 0.25317 0.28716 0.88742 0.0
H1098 H 0.26402 0.26915 0.14602 0.0
H1099 H 0.25058 0.2872 0.04633 0.0
H1100 H 0.23029 0.15908 0.91068 0.0
H1101 H 0.21996 0.17761 0.80671 0.0
H1102 H 0.26013 0.15757 0.01705 0.0
H1103 H 0.27212 0.17479 0.12164 0.0
C1104 C 0.90753 0.30715 0.05314 0.0
C1105 C 0.90125 0.28359 0.10365 0.0
C1106 C 0.91563 0.25843 0.95645 0.0
C1107 C 0.9243 0.28184 0.91006 0.0
N1108 N 0.93139 0.32813 0.91624 0.0
N1109 N 0.90395 0.23667 0.1132 0.0
C1110 C 0.92104 0.30617 0.95915 0.0
C1111 C 0.90651 0.25914 0.05797 0.0
N1112 N 0.90006 0.33033 0.09498 0.0
N1113 N 0.91515 0.23575 0.90209 0.0
H1114 H 0.89772 0.23645 0.18853 0.0
H1115 H 0.91019 0.21852 0.08726 0.0
H1116 H 0.92133 0.2346 0.82686 0.0
H1117 H 0.90647 0.21867 0.92858 0.0
H1118 H 0.90219 0.34832 0.05895 0.0
H1119 H 0.88971 0.33122 0.16307 0.0
H1120 H 0.93176 0.34625 0.95194 0.0
H1121 H 0.94149 0.32767 0.84751 0.0
C1122 C 0.74529 0.75219 0.56145 0.0
C1123 C 0.74746 0.72779 0.61087 0.0
C1124 C 0.72633 0.70592 0.46799 0.0
C1125 C 0.72479 0.73021 0.41716 0.0
N1126 N 0.7358 0.7759 0.40652 0.0
N1127 N 0.74382 0.6811 0.60983 0.0
C1128 C 0.7351 0.75325 0.46145 0.0
C1129 C 0.73918 0.70448 0.56331 0.0
N1130 N 0.75245 0.77434 0.61202 0.0
N1131 N 0.71475 0.68453 0.42566 0.0
H1132 H 0.75333 0.6798 0.67956 0.0
H1133 H 0.74008 0.66303 0.57688 0.0
H1134 H 0.7051 0.68536 0.35596 0.0
H1135 H 0.71309 0.66652 0.46183 0.0
H1136 H 0.74883 0.79316 0.58564 0.0
H1137 H 0.76111 0.77385 0.68373 0.0
H1138 H 0.74578 0.79257 0.42924 0.0
H1139 H 0.72756 0.77769 0.33466 0.0
C1140 C 0.71475 0.30099 0.5254 0.0
C1141 C 0.72643 0.28395 0.59641 0.0
C1142 C 0.75924 0.27125 0.47114 0.0
C1143 C 0.74622 0.28655 0.39762 0.0
N1144 N 0.71087 0.31479 0.34976 0.0
N1145 N 0.75754 0.2504 0.63671 0.0
C1146 C 0.72371 0.30111 0.42338 0.0
C1147 C 0.74822 0.26849 0.56947 0.0
N1148 N 0.69567 0.31762 0.55713 0.0
N1149 N 0.78214 0.25944 0.44619 0.0
H1150 H 0.74926 0.2473 0.708 0.0
H1151 H 0.77209 0.23703 0.61953 0.0
H1152 H 0.79002 0.26043 0.37325 0.0
H1153 H 0.79417 0.25019 0.49866 0.0
H1154 H 0.68787 0.33243 0.51228 0.0
H1155 H 0.68885 0.31777 0.6318 0.0
H1156 H 0.69291 0.32367 0.36038 0.0
H1157 H 0.71763 0.31616 0.27546 0.0
C1158 C 0.9053 0.75435 0.08884 0.0
C1159 C 0.91778 0.73131 0.12353 0.0
C1160 C 0.90525 0.70868 0.96712 0.0
C1161 C 0.89533 0.73255 0.92769 0.0
N1162 N 0.88696 0.77836 0.94641 0.0
N1163 N 0.93178 0.68731 0.09557 0.0
C1164 C 0.89563 0.75547 0.98758 0.0
C1165 C 0.91817 0.70861 0.06274 0.0
N1166 N 0.90197 0.77477 0.15418 0.0
N1167 N 0.90224 0.68611 0.91327 0.0
H1168 H 0.9412 0.68686 0.16583 0.0
H1169 H 0.9354 0.67096 0.05089 0.0
H1170 H 0.89433 0.68554 0.84051 0.0
H1171 H 0.90643 0.66767 0.94241 0.0
H1172 H 0.89071 0.79111 0.13761 0.0
H1173 H 0.90892 0.77448 0.22857 0.0
H1174 H 0.88917 0.79646 0.98123 0.0
H1175 H 0.87863 0.77932 0.87418 0.0
C1176 C 0.62513 0.59999 0.30266 0.0
C1177 C 0.60298 0.61013 0.3523 0.0
C1178 C 0.57575 0.59625 0.20912 0.0
C1179 C 0.59833 0.58857 0.15544 0.0
N1180 N 0.6452 0.59024 0.14186 0.0
N1181 N 0.55771 0.62122 0.34931 0.0
C1182 C 0.62326 0.59241 0.19952 0.0
C1183 C 0.57838 0.60925 0.30424 0.0
N1184 N 0.64772 0.59639 0.35527 0.0
N1185 N 0.55186 0.59032 0.17048 0.0
H1186 H 0.55935 0.63096 0.41863 0.0
H1187 H 0.53968 0.62336 0.3145 0.0
H1188 H 0.5495 0.58039 0.10193 0.0
H1189 H 0.53459 0.59327 0.20984 0.0
H1190 H 0.66364 0.58653 0.32517 0.0
H1191 H 0.64962 0.60068 0.43228 0.0
H1192 H 0.66357 0.59531 0.16862 0.0
H1193 H 0.64487 0.58682 0.06391 0.0
C1194 C 0.07324 0.39899 0.78809 0.0
C1195 C 0.04871 0.39904 0.83675 0.0
C1196 C 0.02908 0.41864 0.68561 0.0
C1197 C 0.0541 0.42161 0.64166 0.0
N1198 N 0.1004 0.41713 0.65444 0.0
N1199 N 1.00446 0.41446 0.84077 0.0
C1200 C 0.07634 0.41239 0.69391 0.0
C1201 C 0.02692 0.4104 0.78804 0.0
N1202 N 0.09335 0.38573 0.83175 0.0
N1203 N 1.00727 0.4222 0.62814 0.0
H1204 H 1.00222 0.40949 0.91705 0.0
H1205 H 0.98901 0.42528 0.81171 0.0
H1206 H 0.00781 0.42631 0.55065 0.0
H1207 H 0.98869 0.41775 0.65432 0.0
H1208 H 0.11121 0.3829 0.79645 0.0
H1209 H 0.09131 0.37563 0.90027 0.0
H1210 H 0.11761 0.41293 0.69259 0.0
H1211 H 0.1031 0.42725 0.58635 0.0
C1212 C 0.58424 0.40219 0.69521 0.0
C1213 C 0.60851 0.40516 0.64593 0.0
C1214 C 0.62537 0.42922 0.792 0.0
C1215 C 0.60059 0.42774 0.83959 0.0
N1216 N 0.55555 0.41589 0.83193 0.0
N1217 N 0.65162 0.42378 0.64299 0.0
C1218 C 0.57976 0.41498 0.78973 0.0
C1219 C 0.62878 0.41938 0.69291 0.0
N1220 N 0.56582 0.38655 0.65208 0.0
N1221 N 0.6466 0.43921 0.83988 0.0
H1222 H 0.65493 0.41808 0.56821 0.0
H1223 H 0.66691 0.43428 0.67533 0.0
H1224 H 0.64694 0.4456 0.91499 0.0
H1225 H 0.64694 0.4456 0.91499 0.0
H1226 H 0.54843 0.38153 0.68729 0.0
H1227 H 0.56893 0.37687 0.5834 0.0
H1228 H 0.5389 0.40892 0.79637 0.0
H1229 H 0.55183 0.42557 0.90011 0.0
C1230 C 0.02567 0.60946 0.31794 0.0
C1231 C 0.04296 0.58944 0.34895 0.0
C1232 C 0.0653 0.59165 0.1856 0.0
C1233 C 0.04643 0.60978 0.15141 0.0
N1234 N 1.00721 0.63411 0.17777 0.0
N1235 N 0.07821 0.56024 0.31497 0.0
C1236 C 0.02623 0.61828 0.21579 0.0
C1237 C 0.06254 0.58018 0.28331 0.0
N1238 N 0.00937 0.62049 0.38737 0.0
N1239 N 0.08609 0.58605 0.12498 0.0
H1240 H 0.07662 0.55192 0.38719 0.0
H1241 H 0.09171 0.55098 0.26876 0.0
H1242 H 0.08859 0.59451 0.05346 0.0
H1243 H 0.10176 0.57467 0.14783 0.0
H1244 H 0.99796 0.63684 0.37252 0.0
H1245 H 0.0089 0.61451 0.46298 0.0
H1246 H 0.99041 0.63894 0.2175 0.0
H1247 H 1.00745 0.64103 0.10313 0.0
loop_
_geom_bond_atom_site_label_1
_geom_bond_atom_site_label_2
_geom_bond_distance
_geom_bond_site_symmetry_2
_ccdc_geom_bond_type
Co0 N4 2.148 . S
Co0 N10 2.128 . S
Co0 N20 2.194 . S
Co0 O25 2.351 . S
Co0 O26 2.155 . S
Co0 O27 2.096 . S
C1 N4 1.301 . S
C1 N5 1.328 . S
C1 H6 0.930 . S
C2 C3 1.333 . S
C2 N4 1.317 . S
C2 H7 0.930 . S
C3 C2 1.333 . S
C3 N5 1.350 . S
C3 H29 0.931 . S
N4 Co0 2.148 . S
N4 C1 1.301 . S
N4 C2 1.317 . S
N5 C1 1.328 . S
N5 C3 1.350 . S
H6 C1 0.930 . S
H7 C2 0.930 . S
C8 O9 1.224 . S
C8 O27 1.247 . S
O9 C8 1.224 . S
N10 Co0 2.128 . S
N10 C11 1.355 . S
N10 C13 1.311 . S
C11 N10 1.355 . S
C11 C12 1.363 1_554 S
C11 H23 0.929 . S
C12 C11 1.363 1_556 S
C12 N14 1.375 . S
C12 H30 0.931 . S
C13 N10 1.311 . S
C13 N14 1.347 1_554 S
C13 H24 0.929 . S
N14 C12 1.375 . S
N14 C13 1.347 1_556 S
C15 C18 1.365 . S
C15 N20 1.328 . S
C15 H21 0.929 . S
C16 C17 1.362 . S
C16 C19 1.378 . S
C16 H31 0.929 . S
C17 C16 1.362 . S
C17 C18 1.366 . S
C18 C15 1.365 . S
C18 C17 1.366 . S
C18 H32 0.930 . S
C19 C16 1.378 . S
C19 N20 1.315 . S
C19 H22 0.930 . S
N20 Co0 2.194 . S
N20 C15 1.328 . S
N20 C19 1.315 . S
H21 C15 0.929 . S
H22 C19 0.930 . S
H23 C11 0.929 . S
H24 C13 0.929 . S
O25 Co0 2.351 . S
O25 C28 1.244 . S
O26 Co0 2.155 . S
O26 C28 1.240 . S
O27 Co0 2.096 . S
O27 C8 1.247 . S
C28 O25 1.244 . S
C28 O26 1.240 . S
H29 C3 0.931 . S
H30 C12 0.931 . S
H31 C16 0.929 . S
H32 C18 0.930 . S
Co33 N37 2.148 . S
Co33 N43 2.128 . S
Co33 N53 2.194 . S
Co33 O58 2.351 . S
Co33 O59 2.155 . S
Co33 O60 2.096 . S
C34 N37 1.301 . S
C34 N38 1.328 . S
C34 H39 0.930 . S
C35 C36 1.333 . S
C35 N37 1.317 . S
C35 H40 0.930 . S
C36 C35 1.333 . S
C36 N38 1.350 . S
C36 H62 0.931 . S
N37 Co33 2.148 . S
N37 C34 1.301 . S
N37 C35 1.317 . S
N38 C34 1.328 . S
N38 C36 1.350 . S
H39 C34 0.930 . S
H40 C35 0.930 . S
C41 O42 1.224 . S
C41 O60 1.247 . S
O42 C41 1.224 . S
N43 Co33 2.128 . S
N43 C44 1.355 . S
N43 C46 1.311 . S
C44 N43 1.355 . S
C44 C45 1.363 . S
C44 H56 0.929 . S
C45 C44 1.363 . S
C45 N47 1.375 . S
C45 H63 0.931 . S
C46 N43 1.311 . S
C46 N47 1.347 . S
C46 H57 0.929 . S
N47 C45 1.375 . S
N47 C46 1.347 . S
C48 C51 1.365 . S
C48 N53 1.328 . S
C48 H54 0.929 . S
C49 C50 1.362 . S
C49 C52 1.378 . S
C49 H64 0.929 . S
C50 C49 1.362 . S
C50 C51 1.366 . S
C51 C48 1.365 . S
C51 C50 1.366 . S
C51 H65 0.930 . S
C52 C49 1.378 . S
C52 N53 1.315 . S
C52 H55 0.930 . S
N53 Co33 2.194 . S
N53 C48 1.328 . S
N53 C52 1.315 . S
H54 C48 0.929 . S
H55 C52 0.930 . S
H56 C44 0.929 . S
H57 C46 0.929 . S
O58 Co33 2.351 . S
O58 C61 1.244 . S
O59 Co33 2.155 . S
O59 C61 1.240 . S
O60 Co33 2.096 . S
O60 C41 1.247 . S
C61 O58 1.244 . S
C61 O59 1.240 . S
H62 C36 0.931 . S
H63 C45 0.931 . S
H64 C49 0.929 . S
H65 C51 0.930 . S
Co66 N70 2.148 . S
Co66 N76 2.128 . S
Co66 N86 2.194 . S
Co66 O91 2.351 . S
Co66 O92 2.155 . S
Co66 O93 2.096 . S
C67 N70 1.301 1_554 S
C67 N71 1.328 . S
C67 H72 0.930 . S
C68 C69 1.333 1_556 S
C68 N70 1.317 . S
C68 H73 0.930 . S
C69 C68 1.333 1_554 S
C69 N71 1.350 . S
C69 H95 0.931 . S
N70 Co66 2.148 . S
N70 C67 1.301 1_556 S
N70 C68 1.317 . S
N71 C67 1.328 . S
N71 C69 1.350 . S
H72 C67 0.930 . S
H73 C68 0.930 . S
C74 O75 1.224 . S
C74 O93 1.247 . S
O75 C74 1.224 . S
N76 Co66 2.128 . S
N76 C77 1.355 . S
N76 C79 1.311 . S
C77 N76 1.355 . S
C77 C78 1.363 . S
C77 H89 0.929 . S
C78 C77 1.363 . S
C78 N80 1.375 . S
C78 H96 0.931 . S
C79 N76 1.311 . S
C79 N80 1.347 . S
C79 H90 0.929 . S
N80 C78 1.375 . S
N80 C79 1.347 . S
C81 C84 1.365 . S
C81 N86 1.328 . S
C81 H87 0.929 . S
C82 C83 1.362 . S
C82 C85 1.378 . S
C82 H97 0.929 . S
C83 C82 1.362 . S
C83 C84 1.366 . S
C84 C81 1.365 . S
C84 C83 1.366 . S
C84 H98 0.930 . S
C85 C82 1.378 . S
C85 N86 1.315 . S
C85 H88 0.930 . S
N86 Co66 2.194 . S
N86 C81 1.328 . S
N86 C85 1.315 . S
H87 C81 0.929 . S
H88 C85 0.930 . S
H89 C77 0.929 . S
H90 C79 0.929 . S
O91 Co66 2.351 . S
O91 C94 1.244 . S
O92 Co66 2.155 . S
O92 C94 1.240 . S
O93 Co66 2.096 . S
O93 C74 1.247 . S
C94 O91 1.244 . S
C94 O92 1.240 . S
H95 C69 0.931 . S
H96 C78 0.931 . S
H97 C82 0.929 . S
H98 C84 0.930 . S
Co99 N103 2.148 1_556 S
Co99 N109 2.128 . S
Co99 N119 2.194 1_556 S
Co99 O124 2.351 1_556 S
Co99 O125 2.155 1_556 S
Co99 O126 2.096 . S
C100 N103 1.301 . S
C100 N104 1.328 . S
C100 H105 0.930 . S
C101 C102 1.333 . S
C101 N103 1.317 . S
C101 H106 0.930 . S
C102 C101 1.333 . S
C102 N104 1.350 . S
C102 H128 0.931 . S
N103 Co99 2.148 1_554 S
N103 C100 1.301 . S
N103 C101 1.317 . S
N104 C100 1.328 . S
N104 C102 1.350 . S
H105 C100 0.930 . S
H106 C101 0.930 . S
C107 O108 1.224 . S
C107 O126 1.247 . S
O108 C107 1.224 . S
N109 Co99 2.128 . S
N109 C110 1.355 . S
N109 C112 1.311 . S
C110 N109 1.355 . S
C110 C111 1.363 . S
C110 H122 0.929 . S
C111 C110 1.363 . S
C111 N113 1.375 . S
C111 H129 0.931 . S
C112 N109 1.311 . S
C112 N113 1.347 . S
C112 H123 0.929 . S
N113 C111 1.375 . S
N113 C112 1.347 . S
C114 C117 1.365 . S
C114 N119 1.328 . S
C114 H120 0.929 . S
C115 C116 1.362 . S
C115 C118 1.377 1_554 S
C115 H130 0.929 1_554 S
C116 C115 1.362 . S
C116 C117 1.366 . S
C117 C114 1.365 . S
C117 C116 1.366 . S
C117 H131 0.930 . S
C118 C115 1.377 1_556 S
C118 N119 1.313 1_556 S
C118 H121 0.933 . S
N119 Co99 2.194 1_554 S
N119 C114 1.328 . S
N119 C118 1.313 1_554 S
H120 C114 0.929 . S
H121 C118 0.933 . S
H122 C110 0.929 . S
H123 C112 0.929 . S
O124 Co99 2.351 1_554 S
O124 C127 1.244 . S
O125 Co99 2.155 1_554 S
O125 C127 1.240 . S
O126 Co99 2.096 . S
O126 C107 1.247 . S
C127 O124 1.244 . S
C127 O125 1.240 . S
H128 C102 0.931 . S
H129 C111 0.931 . S
H130 C115 0.929 1_556 S
H131 C117 0.930 . S
Co132 N136 2.148 . S
Co132 N142 2.128 . S
Co132 N152 2.194 . S
Co132 O157 2.351 . S
Co132 O158 2.155 . S
Co132 O159 2.096 . S
C133 N136 1.301 . S
C133 N137 1.328 . S
C133 H138 0.930 . S
C134 C135 1.333 . S
C134 N136 1.317 . S
C134 H139 0.930 . S
C135 C134 1.333 . S
C135 N137 1.350 . S
C135 H161 0.931 . S
N136 Co132 2.148 . S
N136 C133 1.301 . S
N136 C134 1.317 . S
N137 C133 1.328 . S
N137 C135 1.350 . S
H138 C133 0.930 . S
H139 C134 0.930 . S
C140 O141 1.224 . S
C140 O159 1.247 . S
O141 C140 1.224 . S
N142 Co132 2.128 . S
N142 C143 1.355 . S
N142 C145 1.311 . S
C143 N142 1.355 . S
C143 C144 1.363 1_556 S
C143 H155 0.929 . S
C144 C143 1.363 1_554 S
C144 N146 1.375 . S
C144 H162 0.931 . S
C145 N142 1.311 . S
C145 N146 1.347 1_556 S
C145 H156 0.929 . S
N146 C144 1.375 . S
N146 C145 1.347 1_554 S
C147 C150 1.365 . S
C147 N152 1.328 . S
C147 H153 0.929 . S
C148 C149 1.362 . S
C148 C151 1.378 . S
C148 H163 0.929 . S
C149 C148 1.362 . S
C149 C150 1.366 . S
C150 C147 1.365 . S
C150 C149 1.366 . S
C150 H164 0.930 . S
C151 C148 1.378 . S
C151 N152 1.315 . S
C151 H154 0.930 . S
N152 Co132 2.194 . S
N152 C147 1.328 . S
N152 C151 1.315 . S
H153 C147 0.929 . S
H154 C151 0.930 . S
H155 C143 0.929 . S
H156 C145 0.929 . S
O157 Co132 2.351 . S
O157 C160 1.244 . S
O158 Co132 2.155 . S
O158 C160 1.240 . S
O159 Co132 2.096 . S
O159 C140 1.247 . S
C160 O157 1.244 . S
C160 O158 1.240 . S
H161 C135 0.931 . S
H162 C144 0.931 . S
H163 C148 0.929 . S
H164 C150 0.930 . S
Co165 N169 2.148 1_554 S
Co165 N175 2.128 . S
Co165 N185 2.194 1_554 S
Co165 O190 2.351 1_554 S
Co165 O191 2.155 1_554 S
Co165 O192 2.096 . S
C166 N169 1.301 . S
C166 N170 1.328 . S
C166 H171 0.930 . S
C167 C168 1.333 . S
C167 N169 1.317 . S
C167 H172 0.930 . S
C168 C167 1.333 . S
C168 N170 1.350 . S
C168 H194 0.931 . S
N169 Co165 2.148 1_556 S
N169 C166 1.301 . S
N169 C167 1.317 . S
N170 C166 1.328 . S
N170 C168 1.350 . S
H171 C166 0.930 . S
H172 C167 0.930 . S
C173 O174 1.224 . S
C173 O192 1.247 . S
O174 C173 1.224 . S
N175 Co165 2.128 . S
N175 C176 1.355 . S
N175 C178 1.311 . S
C176 N175 1.355 . S
C176 C177 1.363 . S
C176 H188 0.929 . S
C177 C176 1.363 . S
C177 N179 1.375 . S
C177 H195 0.931 . S
C178 N175 1.311 . S
C178 N179 1.347 . S
C178 H189 0.929 . S
N179 C177 1.375 . S
N179 C178 1.347 . S
C180 C183 1.365 . S
C180 N185 1.328 . S
C180 H186 0.929 . S
C181 C182 1.362 . S
C181 C184 1.377 1_556 S
C181 H196 0.929 1_556 S
C182 C181 1.362 . S
C182 C183 1.366 . S
C183 C180 1.365 . S
C183 C182 1.366 . S
C183 H197 0.930 . S
C184 C181 1.377 1_554 S
C184 N185 1.313 1_554 S
C184 H187 0.933 . S
N185 Co165 2.194 1_556 S
N185 C180 1.328 . S
N185 C184 1.313 1_556 S
H186 C180 0.929 . S
H187 C184 0.933 . S
H188 C176 0.929 . S
H189 C178 0.929 . S
O190 Co165 2.351 1_556 S
O190 C193 1.244 . S
O191 Co165 2.155 1_556 S
O191 C193 1.240 . S
O192 Co165 2.096 . S
O192 C173 1.247 . S
C193 O190 1.244 . S
C193 O191 1.240 . S
H194 C168 0.931 . S
H195 C177 0.931 . S
H196 C181 0.929 1_554 S
H197 C183 0.930 . S
Co198 N202 2.148 . S
Co198 N208 2.128 . S
Co198 N218 2.194 . S
Co198 O223 2.351 . S
Co198 O224 2.155 . S
Co198 O225 2.096 . S
C199 N202 1.301 1_556 S
C199 N203 1.328 . S
C199 H204 0.930 . S
C200 C201 1.333 1_554 S
C200 N202 1.317 . S
C200 H205 0.930 . S
C201 C200 1.333 1_556 S
C201 N203 1.350 . S
C201 H227 0.931 . S
N202 Co198 2.148 . S
N202 C199 1.301 1_554 S
N202 C200 1.317 . S
N203 C199 1.328 . S
N203 C201 1.350 . S
H204 C199 0.930 . S
H205 C200 0.930 . S
C206 O207 1.224 . S
C206 O225 1.247 . S
O207 C206 1.224 . S
N208 Co198 2.128 . S
N208 C209 1.355 . S
N208 C211 1.311 . S
C209 N208 1.355 . S
C209 C210 1.363 . S
C209 H221 0.929 . S
C210 C209 1.363 . S
C210 N212 1.375 . S
C210 H228 0.931 . S
C211 N208 1.311 . S
C211 N212 1.347 . S
C211 H222 0.929 . S
N212 C210 1.375 . S
N212 C211 1.347 . S
C213 C216 1.365 . S
C213 N218 1.328 . S
C213 H219 0.929 . S
C214 C215 1.362 . S
C214 C217 1.378 . S
C214 H229 0.929 . S
C215 C214 1.362 . S
C215 C216 1.366 . S
C216 C213 1.365 . S
C216 C215 1.366 . S
C216 H230 0.930 . S
C217 C214 1.378 . S
C217 N218 1.315 . S
C217 H220 0.930 . S
N218 Co198 2.194 . S
N218 C213 1.328 . S
N218 C217 1.315 . S
H219 C213 0.929 . S
H220 C217 0.930 . S
H221 C209 0.929 . S
H222 C211 0.929 . S
O223 Co198 2.351 . S
O223 C226 1.244 . S
O224 Co198 2.155 . S
O224 C226 1.240 . S
O225 Co198 2.096 . S
O225 C206 1.247 . S
C226 O223 1.244 . S
C226 O224 1.240 . S
H227 C201 0.931 . S
H228 C210 0.931 . S
H229 C214 0.929 . S
H230 C216 0.930 . S
Co231 N235 2.148 . S
Co231 N241 2.128 . S
Co231 N251 2.194 . S
Co231 O256 2.351 . S
Co231 O257 2.155 . S
Co231 O258 2.096 . S
C232 N235 1.301 . S
C232 N236 1.328 . S
C232 H237 0.930 . S
C233 C234 1.333 . S
C233 N235 1.317 . S
C233 H238 0.930 . S
C234 C233 1.333 . S
C234 N236 1.350 . S
C234 H260 0.931 . S
N235 Co231 2.148 . S
N235 C232 1.301 . S
N235 C233 1.317 . S
N236 C232 1.328 . S
N236 C234 1.350 . S
H237 C232 0.930 . S
H238 C233 0.930 . S
C239 O240 1.224 . S
C239 O258 1.247 . S
O240 C239 1.224 . S
N241 Co231 2.128 . S
N241 C242 1.355 . S
N241 C244 1.311 . S
C242 N241 1.355 . S
C242 C243 1.363 . S
C242 H254 0.929 . S
C243 C242 1.363 . S
C243 N245 1.375 . S
C243 H261 0.931 . S
C244 N241 1.311 . S
C244 N245 1.347 . S
C244 H255 0.929 . S
N245 C243 1.375 . S
N245 C244 1.347 . S
C246 C249 1.365 . S
C246 N251 1.328 . S
C246 H252 0.929 . S
C247 C248 1.362 . S
C247 C250 1.378 . S
C247 H262 0.929 . S
C248 C247 1.362 . S
C248 C249 1.366 . S
C249 C246 1.365 . S
C249 C248 1.366 . S
C249 H263 0.930 . S
C250 C247 1.378 . S
C250 N251 1.315 . S
C250 H253 0.930 . S
N251 Co231 2.194 . S
N251 C246 1.328 . S
N251 C250 1.315 . S
H252 C246 0.929 . S
H253 C250 0.930 . S
H254 C242 0.929 . S
H255 C244 0.929 . S
O256 Co231 2.351 . S
O256 C259 1.244 . S
O257 Co231 2.155 . S
O257 C259 1.240 . S
O258 Co231 2.096 . S
O258 C239 1.247 . S
C259 O256 1.244 . S
C259 O257 1.240 . S
H260 C234 0.931 . S
H261 C243 0.931 . S
H262 C247 0.929 . S
H263 C249 0.930 . S
Co264 N268 2.148 . S
Co264 N274 2.128 . S
Co264 N284 2.194 . S
Co264 O289 2.351 . S
Co264 O290 2.155 . S
Co264 O291 2.096 . S
C265 N268 1.301 . S
C265 N269 1.328 . S
C265 H270 0.930 . S
C266 C267 1.333 . S
C266 N268 1.317 . S
C266 H271 0.930 . S
C267 C266 1.333 . S
C267 N269 1.350 . S
C267 H293 0.931 . S
N268 Co264 2.148 . S
N268 C265 1.301 . S
N268 C266 1.317 . S
N269 C265 1.328 . S
N269 C267 1.350 . S
H270 C265 0.930 . S
H271 C266 0.930 . S
C272 O273 1.224 . S
C272 O291 1.247 . S
O273 C272 1.224 . S
N274 Co264 2.128 . S
N274 C275 1.355 . S
N274 C277 1.311 . S
C275 N274 1.355 . S
C275 C276 1.363 . S
C275 H287 0.929 . S
C276 C275 1.363 . S
C276 N278 1.375 . S
C276 H294 0.931 . S
C277 N274 1.311 . S
C277 N278 1.347 . S
C277 H288 0.929 . S
N278 C276 1.375 . S
N278 C277 1.347 . S
C279 C282 1.365 . S
C279 N284 1.328 . S
C279 H285 0.929 . S
C280 C281 1.362 . S
C280 C283 1.378 . S
C280 H295 0.929 . S
C281 C280 1.362 . S
C281 C282 1.366 . S
C282 C279 1.365 . S
C282 C281 1.366 . S
C282 H296 0.930 . S
C283 C280 1.378 . S
C283 N284 1.315 . S
C283 H286 0.930 . S
N284 Co264 2.194 . S
N284 C279 1.328 . S
N284 C283 1.315 . S
H285 C279 0.929 . S
H286 C283 0.930 . S
H287 C275 0.929 . S
H288 C277 0.929 . S
O289 Co264 2.351 . S
O289 C292 1.244 . S
O290 Co264 2.155 . S
O290 C292 1.240 . S
O291 Co264 2.096 . S
O291 C272 1.247 . S
C292 O289 1.244 . S
C292 O290 1.240 . S
H293 C267 0.931 . S
H294 C276 0.931 . S
H295 C280 0.929 . S
H296 C282 0.930 . S
Co297 N301 2.148 1_554 S
Co297 N307 2.128 . S
Co297 N317 2.194 1_554 S
Co297 O322 2.351 1_554 S
Co297 O323 2.155 1_554 S
Co297 O324 2.096 . S
C298 N301 1.301 . S
C298 N302 1.328 . S
C298 H303 0.930 . S
C299 C300 1.333 . S
C299 N301 1.317 . S
C299 H304 0.930 . S
C300 C299 1.333 . S
C300 N302 1.350 . S
C300 H326 0.931 . S
N301 Co297 2.148 1_556 S
N301 C298 1.301 . S
N301 C299 1.317 . S
N302 C298 1.328 . S
N302 C300 1.350 . S
H303 C298 0.930 . S
H304 C299 0.930 . S
C305 O306 1.224 . S
C305 O324 1.247 . S
O306 C305 1.224 . S
N307 Co297 2.128 . S
N307 C308 1.355 . S
N307 C310 1.311 . S
C308 N307 1.355 . S
C308 C309 1.363 . S
C308 H320 0.929 . S
C309 C308 1.363 . S
C309 N311 1.375 . S
C309 H327 0.931 . S
C310 N307 1.311 . S
C310 N311 1.347 . S
C310 H321 0.929 . S
N311 C309 1.375 . S
N311 C310 1.347 . S
C312 C315 1.365 . S
C312 N317 1.328 . S
C312 H318 0.929 . S
C313 C314 1.362 . S
C313 C316 1.377 1_556 S
C313 H328 0.929 1_556 S
C314 C313 1.362 . S
C314 C315 1.366 . S
C315 C312 1.365 . S
C315 C314 1.366 . S
C315 H329 0.930 . S
C316 C313 1.377 1_554 S
C316 N317 1.313 1_554 S
C316 H319 0.933 . S
N317 Co297 2.194 1_556 S
N317 C312 1.328 . S
N317 C316 1.313 1_556 S
H318 C312 0.929 . S
H319 C316 0.933 . S
H320 C308 0.929 . S
H321 C310 0.929 . S
O322 Co297 2.351 1_556 S
O322 C325 1.244 . S
O323 Co297 2.155 1_556 S
O323 C325 1.240 . S
O324 Co297 2.096 . S
O324 C305 1.247 . S
C325 O322 1.244 . S
C325 O323 1.240 . S
H326 C300 0.931 . S
H327 C309 0.931 . S
H328 C313 0.929 1_554 S
H329 C315 0.930 . S
Co330 N334 2.148 1_556 S
Co330 N340 2.128 . S
Co330 N350 2.194 1_556 S
Co330 O355 2.351 1_556 S
Co330 O356 2.155 1_556 S
Co330 O357 2.096 . S
C331 N334 1.301 . S
C331 N335 1.328 . S
C331 H336 0.930 . S
C332 C333 1.333 . S
C332 N334 1.317 . S
C332 H337 0.930 . S
C333 C332 1.333 . S
C333 N335 1.350 . S
C333 H359 0.931 . S
N334 Co330 2.148 1_554 S
N334 C331 1.301 . S
N334 C332 1.317 . S
N335 C331 1.328 . S
N335 C333 1.350 . S
H336 C331 0.930 . S
H337 C332 0.930 . S
C338 O339 1.224 . S
C338 O357 1.247 . S
O339 C338 1.224 . S
N340 Co330 2.128 . S
N340 C341 1.355 . S
N340 C343 1.311 . S
C341 N340 1.355 . S
C341 C342 1.363 . S
C341 H353 0.929 . S
C342 C341 1.363 . S
C342 N344 1.375 . S
C342 H360 0.931 . S
C343 N340 1.311 . S
C343 N344 1.347 . S
C343 H354 0.929 . S
N344 C342 1.375 . S
N344 C343 1.347 . S
C345 C348 1.365 . S
C345 N350 1.328 . S
C345 H351 0.929 . S
C346 C347 1.362 . S
C346 C349 1.377 1_554 S
C346 H361 0.929 1_554 S
C347 C346 1.362 . S
C347 C348 1.366 . S
C348 C345 1.365 . S
C348 C347 1.366 . S
C348 H362 0.930 . S
C349 C346 1.377 1_556 S
C349 N350 1.313 1_556 S
C349 H352 0.933 . S
N350 Co330 2.194 1_554 S
N350 C345 1.328 . S
N350 C349 1.313 1_554 S
H351 C345 0.929 . S
H352 C349 0.933 . S
H353 C341 0.929 . S
H354 C343 0.929 . S
O355 Co330 2.351 1_554 S
O355 C358 1.244 . S
O356 Co330 2.155 1_554 S
O356 C358 1.240 . S
O357 Co330 2.096 . S
O357 C338 1.247 . S
C358 O355 1.244 . S
C358 O356 1.240 . S
H359 C333 0.931 . S
H360 C342 0.931 . S
H361 C346 0.929 1_556 S
H362 C348 0.930 . S
Co363 N367 2.148 . S
Co363 N373 2.128 . S
Co363 N383 2.194 . S
Co363 O388 2.351 . S
Co363 O389 2.155 . S
Co363 O390 2.096 . S
C364 N367 1.301 . S
C364 N368 1.328 . S
C364 H369 0.930 . S
C365 C366 1.333 . S
C365 N367 1.317 . S
C365 H370 0.930 . S
C366 C365 1.333 . S
C366 N368 1.350 . S
C366 H392 0.931 . S
N367 Co363 2.148 . S
N367 C364 1.301 . S
N367 C365 1.317 . S
N368 C364 1.328 . S
N368 C366 1.350 . S
H369 C364 0.930 . S
H370 C365 0.930 . S
C371 O372 1.224 . S
C371 O390 1.247 . S
O372 C371 1.224 . S
N373 Co363 2.128 . S
N373 C374 1.355 . S
N373 C376 1.311 . S
C374 N373 1.355 . S
C374 C375 1.363 . S
C374 H386 0.929 . S
C375 C374 1.363 . S
C375 N377 1.375 . S
C375 H393 0.931 . S
C376 N373 1.311 . S
C376 N377 1.347 . S
C376 H387 0.929 . S
N377 C375 1.375 . S
N377 C376 1.347 . S
C378 C381 1.365 . S
C378 N383 1.328 . S
C378 H384 0.929 . S
C379 C380 1.362 . S
C379 C382 1.378 . S
C379 H394 0.929 . S
C380 C379 1.362 . S
C380 C381 1.366 . S
C381 C378 1.365 . S
C381 C380 1.366 . S
C381 H395 0.930 . S
C382 C379 1.378 . S
C382 N383 1.315 . S
C382 H385 0.930 . S
N383 Co363 2.194 . S
N383 C378 1.328 . S
N383 C382 1.315 . S
H384 C378 0.929 . S
H385 C382 0.930 . S
H386 C374 0.929 . S
H387 C376 0.929 . S
O388 Co363 2.351 . S
O388 C391 1.244 . S
O389 Co363 2.155 . S
O389 C391 1.240 . S
O390 Co363 2.096 . S
O390 C371 1.247 . S
C391 O388 1.244 . S
C391 O389 1.240 . S
H392 C366 0.931 . S
H393 C375 0.931 . S
H394 C379 0.929 . S
H395 C381 0.930 . S
Co396 N400 2.148 . S
Co396 N406 2.128 . S
Co396 N416 2.194 . S
Co396 O421 2.351 . S
Co396 O422 2.155 . S
Co396 O423 2.096 . S
C397 N400 1.301 1_554 S
C397 N401 1.328 . S
C397 H402 0.930 . S
C398 C399 1.333 1_556 S
C398 N400 1.317 . S
C398 H403 0.930 . S
C399 C398 1.333 1_554 S
C399 N401 1.350 . S
C399 H425 0.931 . S
N400 Co396 2.148 . S
N400 C397 1.301 1_556 S
N400 C398 1.317 . S
N401 C397 1.328 . S
N401 C399 1.350 . S
H402 C397 0.930 . S
H403 C398 0.930 . S
C404 O405 1.224 . S
C404 O423 1.247 . S
O405 C404 1.224 . S
N406 Co396 2.128 . S
N406 C407 1.355 . S
N406 C409 1.311 . S
C407 N406 1.355 . S
C407 C408 1.363 . S
C407 H419 0.929 . S
C408 C407 1.363 . S
C408 N410 1.375 . S
C408 H426 0.931 . S
C409 N406 1.311 . S
C409 N410 1.347 . S
C409 H420 0.929 . S
N410 C408 1.375 . S
N410 C409 1.347 . S
C411 C414 1.365 . S
C411 N416 1.328 . S
C411 H417 0.929 . S
C412 C413 1.362 . S
C412 C415 1.378 . S
C412 H427 0.929 . S
C413 C412 1.362 . S
C413 C414 1.366 . S
C414 C411 1.365 . S
C414 C413 1.366 . S
C414 H428 0.930 . S
C415 C412 1.378 . S
C415 N416 1.315 . S
C415 H418 0.930 . S
N416 Co396 2.194 . S
N416 C411 1.328 . S
N416 C415 1.315 . S
H417 C411 0.929 . S
H418 C415 0.930 . S
H419 C407 0.929 . S
H420 C409 0.929 . S
O421 Co396 2.351 . S
O421 C424 1.244 . S
O422 Co396 2.155 . S
O422 C424 1.240 . S
O423 Co396 2.096 . S
O423 C404 1.247 . S
C424 O421 1.244 . S
C424 O422 1.240 . S
H425 C399 0.931 . S
H426 C408 0.931 . S
H427 C412 0.929 . S
H428 C414 0.930 . S
Co429 N433 2.148 . S
Co429 N439 2.128 . S
Co429 N449 2.194 . S
Co429 O454 2.351 . S
Co429 O455 2.155 1_455 S
Co429 O456 2.096 . S
C430 N433 1.301 . S
C430 N434 1.328 . S
C430 H435 0.930 . S
C431 C432 1.333 . S
C431 N433 1.317 . S
C431 H436 0.930 . S
C432 C431 1.333 . S
C432 N434 1.350 . S
C432 H458 0.931 . S
N433 Co429 2.148 . S
N433 C430 1.301 . S
N433 C431 1.317 . S
N434 C430 1.328 . S
N434 C432 1.350 . S
H435 C430 0.930 . S
H436 C431 0.930 . S
C437 O438 1.224 . S
C437 O456 1.247 . S
O438 C437 1.224 . S
N439 Co429 2.128 . S
N439 C440 1.355 . S
N439 C442 1.311 . S
C440 N439 1.355 . S
C440 C441 1.363 1_554 S
C440 H452 0.929 . S
C441 C440 1.363 1_556 S
C441 N443 1.375 . S
C441 H459 0.931 . S
C442 N439 1.311 . S
C442 N443 1.347 1_554 S
C442 H453 0.929 . S
N443 C441 1.375 . S
N443 C442 1.347 1_556 S
C444 C447 1.365 . S
C444 N449 1.328 . S
C444 H450 0.929 . S
C445 C446 1.362 . S
C445 C448 1.378 . S
C445 H460 0.929 . S
C446 C445 1.362 . S
C446 C447 1.366 . S
C447 C444 1.365 . S
C447 C446 1.366 . S
C447 H461 0.930 . S
C448 C445 1.378 . S
C448 N449 1.315 . S
C448 H451 0.930 . S
N449 Co429 2.194 . S
N449 C444 1.328 . S
N449 C448 1.315 . S
H450 C444 0.929 . S
H451 C448 0.930 . S
H452 C440 0.929 . S
H453 C442 0.929 . S
O454 Co429 2.351 . S
O454 C457 1.209 1_455 S
O455 Co429 2.155 1_655 S
O455 C457 1.243 . S
O456 Co429 2.096 . S
O456 C437 1.247 . S
C457 O454 1.209 1_655 S
C457 O455 1.243 . S
H458 C432 0.931 . S
H459 C441 0.931 . S
H460 C445 0.929 . S
H461 C447 0.930 . S
Co462 N466 2.148 . S
Co462 N472 2.128 . S
Co462 N482 2.194 . S
Co462 O487 2.351 . S
Co462 O488 2.155 . S
Co462 O489 2.096 . S
C463 N466 1.301 1_556 S
C463 N467 1.328 . S
C463 H468 0.930 . S
C464 C465 1.333 1_554 S
C464 N466 1.317 . S
C464 H469 0.930 . S
C465 C464 1.333 1_556 S
C465 N467 1.350 . S
C465 H491 0.931 . S
N466 Co462 2.148 . S
N466 C463 1.301 1_554 S
N466 C464 1.317 . S
N467 C463 1.328 . S
N467 C465 1.350 . S
H468 C463 0.930 . S
H469 C464 0.930 . S
C470 O471 1.224 . S
C470 O489 1.247 . S
O471 C470 1.224 . S
N472 Co462 2.128 . S
N472 C473 1.355 . S
N472 C475 1.311 . S
C473 N472 1.355 . S
C473 C474 1.363 . S
C473 H485 0.929 . S
C474 C473 1.363 . S
C474 N476 1.375 . S
C474 H492 0.931 . S
C475 N472 1.311 . S
C475 N476 1.347 . S
C475 H486 0.929 . S
N476 C474 1.375 . S
N476 C475 1.347 . S
C477 C480 1.365 . S
C477 N482 1.328 . S
C477 H483 0.929 . S
C478 C479 1.362 . S
C478 C481 1.378 . S
C478 H493 0.929 . S
C479 C478 1.362 . S
C479 C480 1.366 . S
C480 C477 1.365 . S
C480 C479 1.366 . S
C480 H494 0.930 . S
C481 C478 1.378 . S
C481 N482 1.315 . S
C481 H484 0.930 . S
N482 Co462 2.194 . S
N482 C477 1.328 . S
N482 C481 1.315 . S
H483 C477 0.929 . S
H484 C481 0.930 . S
H485 C473 0.929 . S
H486 C475 0.929 . S
O487 Co462 2.351 . S
O487 C490 1.244 . S
O488 Co462 2.155 . S
O488 C490 1.240 . S
O489 Co462 2.096 . S
O489 C470 1.247 . S
C490 O487 1.244 . S
C490 O488 1.240 . S
H491 C465 0.931 . S
H492 C474 0.931 . S
H493 C478 0.929 . S
H494 C480 0.930 . S
Co495 N499 2.148 . S
Co495 N505 2.128 . S
Co495 N515 2.194 . S
Co495 O520 2.351 . S
Co495 O521 2.155 1_455 S
Co495 O522 2.096 . S
C496 N499 1.301 . S
C496 N500 1.328 . S
C496 H501 0.930 . S
C497 C498 1.333 . S
C497 N499 1.317 . S
C497 H502 0.930 . S
C498 C497 1.333 . S
C498 N500 1.350 . S
C498 H524 0.931 . S
N499 Co495 2.148 . S
N499 C496 1.301 . S
N499 C497 1.317 . S
N500 C496 1.328 . S
N500 C498 1.350 . S
H501 C496 0.930 . S
H502 C497 0.930 . S
C503 O504 1.224 . S
C503 O522 1.247 . S
O504 C503 1.224 . S
N505 Co495 2.128 . S
N505 C506 1.355 . S
N505 C508 1.311 . S
C506 N505 1.355 . S
C506 C507 1.363 1_556 S
C506 H518 0.929 . S
C507 C506 1.363 1_554 S
C507 N509 1.375 . S
C507 H525 0.931 . S
C508 N505 1.311 . S
C508 N509 1.347 1_556 S
C508 H519 0.929 . S
N509 C507 1.375 . S
N509 C508 1.347 1_554 S
C510 C513 1.365 . S
C510 N515 1.328 . S
C510 H516 0.929 . S
C511 C512 1.362 . S
C511 C514 1.378 . S
C511 H526 0.929 . S
C512 C511 1.362 . S
C512 C513 1.366 . S
C513 C510 1.365 . S
C513 C512 1.366 . S
C513 H527 0.930 . S
C514 C511 1.378 . S
C514 N515 1.315 . S
C514 H517 0.930 . S
N515 Co495 2.194 . S
N515 C510 1.328 . S
N515 C514 1.315 . S
H516 C510 0.929 . S
H517 C514 0.930 . S
H518 C506 0.929 . S
H519 C508 0.929 . S
O520 Co495 2.351 . S
O520 C523 1.209 1_455 S
O521 Co495 2.155 1_655 S
O521 C523 1.243 . S
O522 Co495 2.096 . S
O522 C503 1.247 . S
C523 O520 1.209 1_655 S
C523 O521 1.243 . S
H524 C498 0.931 . S
H525 C507 0.931 . S
H526 C511 0.929 . S
H527 C513 0.930 . S
C528 C529 1.363 . S
C528 C534 1.379 . S
C528 N536 1.356 . S
C529 C528 1.363 . S
C529 C535 1.363 . S
C530 C531 1.363 . S
C530 C535 1.379 . S
C530 N537 1.356 . S
C531 C530 1.363 . S
C531 C534 1.363 . S
N532 C534 1.356 . S
N532 H544 0.984 . S
N532 H545 0.985 . S
N533 C535 1.356 . S
N533 H538 0.984 . S
N533 H539 0.985 . S
C534 C528 1.379 . S
C534 C531 1.363 . S
C534 N532 1.356 . S
C535 C529 1.363 . S
C535 C530 1.379 . S
C535 N533 1.356 . S
N536 C528 1.356 . S
N536 H542 0.984 . S
N536 H543 0.984 . S
N537 C530 1.356 . S
N537 H540 0.984 . S
N537 H541 0.985 . S
H538 N533 0.984 . S
H539 N533 0.985 . S
H540 N537 0.984 . S
H541 N537 0.985 . S
H542 N536 0.984 . S
H543 N536 0.984 . S
H544 N532 0.984 . S
H545 N532 0.985 . S
C546 C547 1.363 . S
C546 C552 1.379 . S
C546 N554 1.356 . S
C547 C546 1.363 . S
C547 C553 1.363 . S
C548 C549 1.363 . S
C548 C553 1.379 . S
C548 N555 1.356 . S
C549 C548 1.363 . S
C549 C552 1.363 . S
N550 C552 1.356 . S
N550 H562 0.984 . S
N550 H563 0.985 . S
N551 C553 1.356 . S
N551 H556 0.984 . S
N551 H557 0.985 . S
C552 C546 1.379 . S
C552 C549 1.363 . S
C552 N550 1.356 . S
C553 C547 1.363 . S
C553 C548 1.379 . S
C553 N551 1.356 . S
N554 C546 1.356 . S
N554 H560 0.984 . S
N554 H561 0.984 . S
N555 C548 1.356 . S
N555 H558 0.984 . S
N555 H559 0.985 . S
H556 N551 0.984 . S
H557 N551 0.985 . S
H558 N555 0.984 . S
H559 N555 0.985 . S
H560 N554 0.984 . S
H561 N554 0.984 . S
H562 N550 0.984 . S
H563 N550 0.985 . S
C564 C565 1.363 . S
C564 C570 1.379 . S
C564 N572 1.356 1_556 S
C565 C564 1.363 . S
C565 C571 1.363 . S
C566 C567 1.363 . S
C566 C571 1.379 . S
C566 N573 1.356 . S
C567 C566 1.363 . S
C567 C570 1.363 . S
N568 C570 1.356 1_554 S
N568 H580 0.984 . S
N568 H581 0.985 . S
N569 C571 1.356 . S
N569 H574 0.984 . S
N569 H575 0.985 . S
C570 C564 1.379 . S
C570 C567 1.363 . S
C570 N568 1.356 1_556 S
C571 C565 1.363 . S
C571 C566 1.379 . S
C571 N569 1.356 . S
N572 C564 1.356 1_554 S
N572 H578 0.984 . S
N572 H579 0.984 1_554 S
N573 C566 1.356 . S
N573 H576 0.984 . S
N573 H577 0.985 . S
H574 N569 0.984 . S
H575 N569 0.985 . S
H576 N573 0.984 . S
H577 N573 0.985 . S
H578 N572 0.984 . S
H579 N572 0.984 1_556 S
H580 N568 0.984 . S
H581 N568 0.985 . S
C582 C583 1.363 . S
C582 C588 1.379 . S
C582 N590 1.356 1_554 S
C583 C582 1.363 . S
C583 C589 1.363 . S
C584 C585 1.363 . S
C584 C589 1.379 . S
C584 N591 1.356 . S
C585 C584 1.363 . S
C585 C588 1.363 . S
N586 C588 1.356 1_556 S
N586 H598 0.984 . S
N586 H599 0.985 . S
N587 C589 1.356 . S
N587 H592 0.984 . S
N587 H593 0.985 . S
C588 C582 1.379 . S
C588 C585 1.363 . S
C588 N586 1.356 1_554 S
C589 C583 1.363 . S
C589 C584 1.379 . S
C589 N587 1.356 . S
N590 C582 1.356 1_556 S
N590 H596 0.984 . S
N590 H597 0.984 1_556 S
N591 C584 1.356 . S
N591 H594 0.984 . S
N591 H595 0.985 . S
H592 N587 0.984 . S
H593 N587 0.985 . S
H594 N591 0.984 . S
H595 N591 0.985 . S
H596 N590 0.984 . S
H597 N590 0.984 1_554 S
H598 N586 0.984 . S
H599 N586 0.985 . S
C600 C601 1.363 . S
C600 C606 1.379 . S
C600 N608 1.356 . S
C601 C600 1.363 . S
C601 C607 1.363 . S
C602 C603 1.363 . S
C602 C607 1.379 . S
C602 N609 1.356 . S
C603 C602 1.363 . S
C603 C606 1.363 . S
N604 C606 1.356 1_455 S
N604 H616 0.984 . S
N604 H617 0.985 . S
N605 C607 1.356 . S
N605 H610 0.984 . S
N605 H611 0.985 . S
C606 C600 1.379 . S
C606 C603 1.363 . S
C606 N604 1.356 1_655 S
C607 C601 1.363 . S
C607 C602 1.379 . S
C607 N605 1.356 . S
N608 C600 1.356 . S
N608 H614 0.984 . S
N608 H615 0.984 . S
N609 C602 1.356 . S
N609 H612 0.984 . S
N609 H613 0.985 . S
H610 N605 0.984 . S
H611 N605 0.985 . S
H612 N609 0.984 . S
H613 N609 0.985 . S
H614 N608 0.984 . S
H615 N608 0.984 . S
H616 N604 0.984 . S
H617 N604 0.985 . S
C618 C619 1.363 . S
C618 C624 1.379 . S
C618 N626 1.356 . S
C619 C618 1.363 . S
C619 C625 1.363 . S
C620 C621 1.363 . S
C620 C625 1.379 . S
C620 N627 1.356 1_655 S
C621 C620 1.363 . S
C621 C624 1.363 . S
N622 C624 1.356 . S
N622 H634 0.984 . S
N622 H635 0.985 1_655 S
N623 C625 1.356 . S
N623 H628 0.984 . S
N623 H629 0.985 . S
C624 C618 1.379 . S
C624 C621 1.363 . S
C624 N622 1.356 . S
C625 C619 1.363 . S
C625 C620 1.379 . S
C625 N623 1.356 . S
N626 C618 1.356 . S
N626 H632 0.984 . S
N626 H633 0.984 . S
N627 C620 1.356 1_455 S
N627 H630 0.984 . S
N627 H631 0.985 . S
H628 N623 0.984 . S
H629 N623 0.985 . S
H630 N627 0.984 . S
H631 N627 0.985 . S
H632 N626 0.984 . S
H633 N626 0.984 . S
H634 N622 0.984 . S
H635 N622 0.985 1_455 S
C636 C637 1.363 . S
C636 C642 1.379 . S
C636 N644 1.356 . S
C637 C636 1.363 . S
C637 C643 1.363 . S
C638 C639 1.363 . S
C638 C643 1.379 . S
C638 N645 1.356 1_554 S
C639 C638 1.363 . S
C639 C642 1.363 . S
N640 C642 1.356 . S
N640 H652 0.984 . S
N640 H653 0.985 . S
N641 C643 1.356 . S
N641 H646 0.984 . S
N641 H647 0.985 . S
C642 C636 1.379 . S
C642 C639 1.363 . S
C642 N640 1.356 . S
C643 C637 1.363 . S
C643 C638 1.379 . S
C643 N641 1.356 . S
N644 C636 1.356 . S
N644 H650 0.984 . S
N644 H651 0.984 . S
N645 C638 1.356 1_556 S
N645 H648 0.984 . S
N645 H649 0.985 . S
H646 N641 0.984 . S
H647 N641 0.985 . S
H648 N645 0.984 . S
H649 N645 0.985 . S
H650 N644 0.984 . S
H651 N644 0.984 . S
H652 N640 0.984 . S
H653 N640 0.985 . S
C654 C655 1.363 . S
C654 C660 1.379 . S
C654 N662 1.356 . S
C655 C654 1.363 . S
C655 C661 1.363 . S
C656 C657 1.363 . S
C656 C661 1.379 . S
C656 N663 1.356 1_556 S
C657 C656 1.363 . S
C657 C660 1.363 . S
N658 C660 1.356 . S
N658 H670 0.984 . S
N658 H671 0.985 . S
N659 C661 1.356 . S
N659 H664 0.984 . S
N659 H665 0.985 1_556 S
C660 C654 1.379 . S
C660 C657 1.363 . S
C660 N658 1.356 . S
C661 C655 1.363 . S
C661 C656 1.379 . S
C661 N659 1.356 . S
N662 C654 1.356 . S
N662 H668 0.984 . S
N662 H669 0.984 . S
N663 C656 1.356 1_554 S
N663 H666 0.984 . S
N663 H667 0.985 . S
H664 N659 0.984 . S
H665 N659 0.985 1_554 S
H666 N663 0.984 . S
H667 N663 0.985 . S
H668 N662 0.984 . S
H669 N662 0.984 . S
H670 N658 0.984 . S
H671 N658 0.985 . S
C672 C673 1.363 . S
C672 C678 1.379 . S
C672 N680 1.356 1_556 S
C673 C672 1.363 . S
C673 C679 1.363 . S
C674 C675 1.363 . S
C674 C679 1.379 . S
C674 N681 1.356 . S
C675 C674 1.363 . S
C675 C678 1.363 . S
N676 C678 1.356 1_554 S
N676 H688 0.984 . S
N676 H689 0.985 1_554 S
N677 C679 1.356 . S
N677 H682 0.984 . S
N677 H683 0.985 . S
C678 C672 1.379 . S
C678 C675 1.363 . S
C678 N676 1.356 1_556 S
C679 C673 1.363 . S
C679 C674 1.379 . S
C679 N677 1.356 . S
N680 C672 1.356 1_554 S
N680 H686 0.984 . S
N680 H687 0.984 . S
N681 C674 1.356 . S
N681 H684 0.984 . S
N681 H685 0.985 . S
H682 N677 0.984 . S
H683 N677 0.985 . S
H684 N681 0.984 . S
H685 N681 0.985 . S
H686 N680 0.984 . S
H687 N680 0.984 . S
H688 N676 0.984 . S
H689 N676 0.985 1_556 S
C690 C691 1.363 . S
C690 C696 1.379 . S
C690 N698 1.356 . S
C691 C690 1.363 . S
C691 C697 1.363 . S
C692 C693 1.363 . S
C692 C697 1.379 . S
C692 N699 1.356 . S
C693 C692 1.363 . S
C693 C696 1.363 . S
N694 C696 1.356 1_556 S
N694 H706 0.984 . S
N694 H707 0.985 . S
N695 C697 1.356 . S
N695 H700 0.984 . S
N695 H701 0.985 . S
C696 C690 1.379 . S
C696 C693 1.363 . S
C696 N694 1.356 1_554 S
C697 C691 1.363 . S
C697 C692 1.379 . S
C697 N695 1.356 . S
N698 C690 1.356 . S
N698 H704 0.984 1_554 S
N698 H705 0.984 . S
N699 C692 1.356 . S
N699 H702 0.984 . S
N699 H703 0.985 . S
H700 N695 0.984 . S
H701 N695 0.985 . S
H702 N699 0.984 . S
H703 N699 0.985 . S
H704 N698 0.984 1_556 S
H705 N698 0.984 . S
H706 N694 0.984 . S
H707 N694 0.985 . S
C708 C709 1.363 . S
C708 C714 1.379 . S
C708 N716 1.356 1_655 S
C709 C708 1.363 . S
C709 C715 1.363 . S
C710 C711 1.363 . S
C710 C715 1.379 . S
C710 N717 1.356 . S
C711 C710 1.363 . S
C711 C714 1.363 . S
N712 C714 1.356 . S
N712 H724 0.984 . S
N712 H725 0.985 . S
N713 C715 1.356 . S
N713 H718 0.984 . S
N713 H719 0.985 . S
C714 C708 1.379 . S
C714 C711 1.363 . S
C714 N712 1.356 . S
C715 C709 1.363 . S
C715 C710 1.379 . S
C715 N713 1.356 . S
N716 C708 1.356 1_455 S
N716 H722 0.984 . S
N716 H723 0.984 . S
N717 C710 1.356 . S
N717 H720 0.984 . S
N717 H721 0.985 . S
H718 N713 0.984 . S
H719 N713 0.985 . S
H720 N717 0.984 . S
H721 N717 0.985 . S
H722 N716 0.984 . S
H723 N716 0.984 . S
H724 N712 0.984 . S
H725 N712 0.985 . S
C726 C727 1.363 . S
C726 C732 1.379 . S
C726 N734 1.356 . S
C727 C726 1.363 . S
C727 C733 1.363 . S
C728 C729 1.363 . S
C728 C733 1.379 . S
C728 N735 1.356 . S
C729 C728 1.363 . S
C729 C732 1.363 . S
N730 C732 1.356 . S
N730 H742 0.984 . S
N730 H743 0.985 . S
N731 C733 1.356 . S
N731 H736 0.984 . S
N731 H737 0.985 . S
C732 C726 1.379 . S
C732 C729 1.363 . S
C732 N730 1.356 . S
C733 C727 1.363 . S
C733 C728 1.379 . S
C733 N731 1.356 . S
N734 C726 1.356 . S
N734 H740 0.984 . S
N734 H741 0.984 . S
N735 C728 1.356 . S
N735 H738 0.984 . S
N735 H739 0.985 . S
H736 N731 0.984 . S
H737 N731 0.985 . S
H738 N735 0.984 . S
H739 N735 0.985 . S
H740 N734 0.984 . S
H741 N734 0.984 . S
H742 N730 0.984 . S
H743 N730 0.985 . S
C744 C745 1.363 . S
C744 C750 1.379 . S
C744 N752 1.356 . S
C745 C744 1.363 . S
C745 C751 1.363 . S
C746 C747 1.363 . S
C746 C751 1.379 . S
C746 N753 1.356 . S
C747 C746 1.363 . S
C747 C750 1.363 . S
N748 C750 1.356 . S
N748 H760 0.984 . S
N748 H761 0.985 . S
N749 C751 1.356 1_556 S
N749 H754 0.984 . S
N749 H755 0.985 . S
C750 C744 1.379 . S
C750 C747 1.363 . S
C750 N748 1.356 . S
C751 C745 1.363 . S
C751 C746 1.379 . S
C751 N749 1.356 1_554 S
N752 C744 1.356 . S
N752 H758 0.984 . S
N752 H759 0.984 . S
N753 C746 1.356 . S
N753 H756 0.984 . S
N753 H757 0.985 1_554 S
H754 N749 0.984 . S
H755 N749 0.985 . S
H756 N753 0.984 . S
H757 N753 0.985 1_556 S
H758 N752 0.984 . S
H759 N752 0.984 . S
H760 N748 0.984 . S
H761 N748 0.985 . S
C762 C763 1.363 . S
C762 C768 1.379 . S
C762 N770 1.356 . S
C763 C762 1.363 . S
C763 C769 1.363 . S
C764 C765 1.363 . S
C764 C769 1.379 . S
C764 N771 1.356 1_556 S
C765 C764 1.363 . S
C765 C768 1.363 . S
N766 C768 1.356 . S
N766 H778 0.984 . S
N766 H779 0.985 . S
N767 C769 1.356 1_554 S
N767 H772 0.984 . S
N767 H773 0.985 . S
C768 C762 1.379 . S
C768 C765 1.363 . S
C768 N766 1.356 . S
C769 C763 1.363 . S
C769 C764 1.379 . S
C769 N767 1.356 1_556 S
N770 C762 1.356 . S
N770 H776 0.984 . S
N770 H777 0.984 . S
N771 C764 1.356 1_554 S
N771 H774 0.984 1_554 S
N771 H775 0.985 . S
H772 N767 0.984 . S
H773 N767 0.985 . S
H774 N771 0.984 1_556 S
H775 N771 0.985 . S
H776 N770 0.984 . S
H777 N770 0.984 . S
H778 N766 0.984 . S
H779 N766 0.985 . S
C780 C781 1.363 . S
C780 C786 1.379 . S
C780 N788 1.356 . S
C781 C780 1.363 . S
C781 C787 1.363 . S
C782 C783 1.363 . S
C782 C787 1.379 . S
C782 N789 1.356 . S
C783 C782 1.363 . S
C783 C786 1.363 . S
N784 C786 1.356 . S
N784 H796 0.984 . S
N784 H797 0.985 . S
N785 C787 1.356 . S
N785 H790 0.984 . S
N785 H791 0.985 . S
C786 C780 1.379 . S
C786 C783 1.363 . S
C786 N784 1.356 . S
C787 C781 1.363 . S
C787 C782 1.379 . S
C787 N785 1.356 . S
N788 C780 1.356 . S
N788 H794 0.984 . S
N788 H795 0.984 . S
N789 C782 1.356 . S
N789 H792 0.984 . S
N789 H793 0.985 . S
H790 N785 0.984 . S
H791 N785 0.985 . S
H792 N789 0.984 . S
H793 N789 0.985 . S
H794 N788 0.984 . S
H795 N788 0.984 . S
H796 N784 0.984 . S
H797 N784 0.985 . S
C798 C799 1.363 . S
C798 C804 1.379 . S
C798 N806 1.356 . S
C799 C798 1.363 . S
C799 C805 1.363 . S
C800 C801 1.363 . S
C800 C805 1.379 . S
C800 N807 1.356 . S
C801 C800 1.363 . S
C801 C804 1.363 . S
N802 C804 1.356 . S
N802 H814 0.984 . S
N802 H815 0.985 . S
N803 C805 1.356 . S
N803 H808 0.984 . S
N803 H809 0.985 . S
C804 C798 1.379 . S
C804 C801 1.363 . S
C804 N802 1.356 . S
C805 C799 1.363 . S
C805 C800 1.379 . S
C805 N803 1.356 . S
N806 C798 1.356 . S
N806 H812 0.984 . S
N806 H813 0.984 . S
N807 C800 1.356 . S
N807 H810 0.984 . S
N807 H811 0.985 . S
H808 N803 0.984 . S
H809 N803 0.985 . S
H810 N807 0.984 . S
H811 N807 0.985 . S
H812 N806 0.984 . S
H813 N806 0.984 . S
H814 N802 0.984 . S
H815 N802 0.985 . S
C816 C817 1.363 . S
C816 C822 1.379 1_554 S
C816 N824 1.356 . S
C817 C816 1.363 . S
C817 C823 1.363 1_545 S
C818 C819 1.363 . S
C818 C823 1.379 1_556 S
C818 N825 1.356 . S
C819 C818 1.363 . S
C819 C822 1.363 1_565 S
N820 C822 1.356 . S
N820 H832 0.984 . S
N820 H833 0.985 . S
N821 C823 1.356 . S
N821 H826 0.984 . S
N821 H827 0.985 . S
C822 C816 1.379 1_556 S
C822 C819 1.363 1_545 S
C822 N820 1.356 . S
C823 C817 1.363 1_565 S
C823 C818 1.379 1_554 S
C823 N821 1.356 . S
N824 C816 1.356 . S
N824 H830 0.984 . S
N824 H831 0.984 . S
N825 C818 1.356 . S
N825 H828 0.984 . S
N825 H829 0.985 . S
H826 N821 0.984 . S
H827 N821 0.985 . S
H828 N825 0.984 . S
H829 N825 0.985 . S
H830 N824 0.984 . S
H831 N824 0.984 . S
H832 N820 0.984 . S
H833 N820 0.985 . S
C834 C835 1.363 . S
C834 C840 1.379 . S
C834 N842 1.356 . S
C835 C834 1.363 . S
C835 C841 1.363 . S
C836 C837 1.363 . S
C836 C841 1.379 . S
C836 N843 1.356 . S
C837 C836 1.363 . S
C837 C840 1.363 . S
N838 C840 1.356 . S
N838 H850 0.984 . S
N838 H851 0.985 . S
N839 C841 1.356 . S
N839 H844 0.984 . S
N839 H845 0.985 . S
C840 C834 1.379 . S
C840 C837 1.363 . S
C840 N838 1.356 . S
C841 C835 1.363 . S
C841 C836 1.379 . S
C841 N839 1.356 . S
N842 C834 1.356 . S
N842 H848 0.984 . S
N842 H849 0.984 . S
N843 C836 1.356 . S
N843 H846 0.984 . S
N843 H847 0.985 . S
H844 N839 0.984 . S
H845 N839 0.985 . S
H846 N843 0.984 . S
H847 N843 0.985 . S
H848 N842 0.984 . S
H849 N842 0.984 . S
H850 N838 0.984 . S
H851 N838 0.985 . S
C852 C853 1.363 . S
C852 C858 1.379 . S
C852 N860 1.356 . S
C853 C852 1.363 . S
C853 C859 1.363 1_545 S
C854 C855 1.363 . S
C854 C859 1.379 . S
C854 N861 1.356 . S
C855 C854 1.363 . S
C855 C858 1.363 1_565 S
N856 C858 1.356 . S
N856 H868 0.984 . S
N856 H869 0.985 . S
N857 C859 1.356 . S
N857 H862 0.984 . S
N857 H863 0.985 . S
C858 C852 1.379 . S
C858 C855 1.363 1_545 S
C858 N856 1.356 . S
C859 C853 1.363 1_565 S
C859 C854 1.379 . S
C859 N857 1.356 . S
N860 C852 1.356 . S
N860 H866 0.984 . S
N860 H867 0.984 . S
N861 C854 1.356 . S
N861 H864 0.984 . S
N861 H865 0.985 . S
H862 N857 0.984 . S
H863 N857 0.985 . S
H864 N861 0.984 . S
H865 N861 0.985 . S
H866 N860 0.984 . S
H867 N860 0.984 . S
H868 N856 0.984 . S
H869 N856 0.985 . S
C870 C871 1.363 . S
C870 C876 1.379 . S
C870 N878 1.356 . S
C871 C870 1.363 . S
C871 C877 1.363 . S
C872 C873 1.363 . S
C872 C877 1.379 . S
C872 N879 1.356 . S
C873 C872 1.363 . S
C873 C876 1.363 . S
N874 C876 1.356 . S
N874 H886 0.984 . S
N874 H887 0.985 . S
N875 C877 1.356 . S
N875 H880 0.984 . S
N875 H881 0.985 . S
C876 C870 1.379 . S
C876 C873 1.363 . S
C876 N874 1.356 . S
C877 C871 1.363 . S
C877 C872 1.379 . S
C877 N875 1.356 . S
N878 C870 1.356 . S
N878 H884 0.984 . S
N878 H885 0.984 . S
N879 C872 1.356 . S
N879 H882 0.984 . S
N879 H883 0.985 . S
H880 N875 0.984 . S
H881 N875 0.985 . S
H882 N879 0.984 . S
H883 N879 0.985 . S
H884 N878 0.984 . S
H885 N878 0.984 . S
H886 N874 0.984 . S
H887 N874 0.985 . S
C888 C889 1.363 . S
C888 C894 1.379 . S
C888 N896 1.356 . S
C889 C888 1.363 . S
C889 C895 1.363 . S
C890 C891 1.363 . S
C890 C895 1.379 . S
C890 N897 1.356 . S
C891 C890 1.363 . S
C891 C894 1.363 . S
N892 C894 1.356 . S
N892 H904 0.984 . S
N892 H905 0.985 . S
N893 C895 1.356 . S
N893 H898 0.984 . S
N893 H899 0.985 . S
C894 C888 1.379 . S
C894 C891 1.363 . S
C894 N892 1.356 . S
C895 C889 1.363 . S
C895 C890 1.379 . S
C895 N893 1.356 . S
N896 C888 1.356 . S
N896 H902 0.984 . S
N896 H903 0.984 . S
N897 C890 1.356 . S
N897 H900 0.984 . S
N897 H901 0.985 . S
H898 N893 0.984 . S
H899 N893 0.985 . S
H900 N897 0.984 . S
H901 N897 0.985 . S
H902 N896 0.984 . S
H903 N896 0.984 . S
H904 N892 0.984 . S
H905 N892 0.985 . S
C906 C907 1.363 . S
C906 C912 1.379 . S
C906 N914 1.356 . S
C907 C906 1.363 . S
C907 C913 1.363 . S
C908 C909 1.363 . S
C908 C913 1.379 . S
C908 N915 1.356 . S
C909 C908 1.363 . S
C909 C912 1.363 . S
N910 C912 1.356 . S
N910 H922 0.984 . S
N910 H923 0.985 . S
N911 C913 1.356 . S
N911 H916 0.984 . S
N911 H917 0.985 . S
C912 C906 1.379 . S
C912 C909 1.363 . S
C912 N910 1.356 . S
C913 C907 1.363 . S
C913 C908 1.379 . S
C913 N911 1.356 . S
N914 C906 1.356 . S
N914 H920 0.984 . S
N914 H921 0.984 . S
N915 C908 1.356 . S
N915 H918 0.984 . S
N915 H919 0.985 . S
H916 N911 0.984 . S
H917 N911 0.985 . S
H918 N915 0.984 . S
H919 N915 0.985 . S
H920 N914 0.984 . S
H921 N914 0.984 . S
H922 N910 0.984 . S
H923 N910 0.985 . S
C924 C925 1.363 . S
C924 C930 1.379 . S
C924 N932 1.356 . S
C925 C924 1.363 . S
C925 C931 1.363 . S
C926 C927 1.363 . S
C926 C931 1.379 . S
C926 N933 1.356 . S
C927 C926 1.363 . S
C927 C930 1.363 . S
N928 C930 1.356 . S
N928 H940 0.984 . S
N928 H941 0.985 . S
N929 C931 1.356 . S
N929 H934 0.984 . S
N929 H935 0.985 . S
C930 C924 1.379 . S
C930 C927 1.363 . S
C930 N928 1.356 . S
C931 C925 1.363 . S
C931 C926 1.379 . S
C931 N929 1.356 . S
N932 C924 1.356 . S
N932 H938 0.984 . S
N932 H939 0.984 . S
N933 C926 1.356 . S
N933 H936 0.984 . S
N933 H937 0.985 . S
H934 N929 0.984 . S
H935 N929 0.985 . S
H936 N933 0.984 . S
H937 N933 0.985 . S
H938 N932 0.984 . S
H939 N932 0.984 . S
H940 N928 0.984 . S
H941 N928 0.985 . S
C942 C943 1.363 . S
C942 C948 1.379 1_556 S
C942 N950 1.356 . S
C943 C942 1.363 . S
C943 C949 1.363 . S
C944 C945 1.363 . S
C944 C949 1.379 1_554 S
C944 N951 1.356 . S
C945 C944 1.363 . S
C945 C948 1.363 . S
N946 C948 1.356 . S
N946 H958 0.984 . S
N946 H959 0.985 . S
N947 C949 1.356 . S
N947 H952 0.984 . S
N947 H953 0.985 . S
C948 C942 1.379 1_554 S
C948 C945 1.363 . S
C948 N946 1.356 . S
C949 C943 1.363 . S
C949 C944 1.379 1_556 S
C949 N947 1.356 . S
N950 C942 1.356 . S
N950 H956 0.984 . S
N950 H957 0.984 . S
N951 C944 1.356 . S
N951 H954 0.984 . S
N951 H955 0.985 . S
H952 N947 0.984 . S
H953 N947 0.985 . S
H954 N951 0.984 . S
H955 N951 0.985 . S
H956 N950 0.984 . S
H957 N950 0.984 . S
H958 N946 0.984 . S
H959 N946 0.985 . S
C960 C961 1.363 . S
C960 C966 1.379 . S
C960 N968 1.356 . S
C961 C960 1.363 . S
C961 C967 1.363 . S
C962 C963 1.363 . S
C962 C967 1.379 . S
C962 N969 1.356 . S
C963 C962 1.363 . S
C963 C966 1.363 . S
N964 C966 1.356 . S
N964 H976 0.984 . S
N964 H977 0.985 . S
N965 C967 1.356 . S
N965 H970 0.984 . S
N965 H971 0.985 . S
C966 C960 1.379 . S
C966 C963 1.363 . S
C966 N964 1.356 . S
C967 C961 1.363 . S
C967 C962 1.379 . S
C967 N965 1.356 . S
N968 C960 1.356 . S
N968 H974 0.984 . S
N968 H975 0.984 1_556 S
N969 C962 1.356 . S
N969 H972 0.984 . S
N969 H973 0.985 . S
H970 N965 0.984 . S
H971 N965 0.985 . S
H972 N969 0.984 . S
H973 N969 0.985 . S
H974 N968 0.984 . S
H975 N968 0.984 1_554 S
H976 N964 0.984 . S
H977 N964 0.985 . S
C978 C979 1.363 . S
C978 C984 1.379 1_554 S
C978 N986 1.356 . S
C979 C978 1.363 . S
C979 C985 1.363 . S
C980 C981 1.363 1_554 S
C980 C985 1.379 . S
C980 N987 1.356 1_554 S
C981 C980 1.363 1_556 S
C981 C984 1.363 . S
N982 C984 1.356 . S
N982 H994 0.984 . S
N982 H995 0.985 . S
N983 C985 1.356 . S
N983 H988 0.984 . S
N983 H989 0.985 . S
C984 C978 1.379 1_556 S
C984 C981 1.363 . S
C984 N982 1.356 . S
C985 C979 1.363 . S
C985 C980 1.379 . S
C985 N983 1.356 . S
N986 C978 1.356 . S
N986 H992 0.984 . S
N986 H993 0.984 . S
N987 C980 1.356 1_556 S
N987 H990 0.984 . S
N987 H991 0.985 . S
H988 N983 0.984 . S
H989 N983 0.985 . S
H990 N987 0.984 . S
H991 N987 0.985 . S
H992 N986 0.984 . S
H993 N986 0.984 . S
H994 N982 0.984 . S
H995 N982 0.985 . S
C996 C997 1.363 . S
C996 C1002 1.379 . S
C996 N1004 1.356 . S
C997 C996 1.363 . S
C997 C1003 1.363 . S
C998 C999 1.363 . S
C998 C1003 1.379 . S
C998 N1005 1.356 . S
C999 C998 1.363 . S
C999 C1002 1.363 . S
N1000 C1002 1.356 . S
N1000 H1012 0.984 . S
N1000 H1013 0.985 . S
N1001 C1003 1.356 . S
N1001 H1006 0.984 . S
N1001 H1007 0.985 . S
C1002 C996 1.379 . S
C1002 C999 1.363 . S
C1002 N1000 1.356 . S
C1003 C997 1.363 . S
C1003 C998 1.379 . S
C1003 N1001 1.356 . S
N1004 C996 1.356 . S
N1004 H1010 0.984 . S
N1004 H1011 0.984 . S
N1005 C998 1.356 . S
N1005 H1008 0.984 . S
N1005 H1009 0.985 . S
H1006 N1001 0.984 . S
H1007 N1001 0.985 . S
H1008 N1005 0.984 . S
H1009 N1005 0.985 . S
H1010 N1004 0.984 . S
H1011 N1004 0.984 . S
H1012 N1000 0.984 . S
H1013 N1000 0.985 . S
C1014 C1015 1.363 . S
C1014 C1020 1.379 . S
C1014 N1022 1.356 . S
C1015 C1014 1.363 . S
C1015 C1021 1.363 . S
C1016 C1017 1.363 . S
C1016 C1021 1.379 . S
C1016 N1023 1.356 . S
C1017 C1016 1.363 . S
C1017 C1020 1.363 . S
N1018 C1020 1.356 . S
N1018 H1030 0.984 . S
N1018 H1031 0.985 . S
N1019 C1021 1.356 . S
N1019 H1024 0.984 . S
N1019 H1025 0.985 . S
C1020 C1014 1.379 . S
C1020 C1017 1.363 . S
C1020 N1018 1.356 . S
C1021 C1015 1.363 . S
C1021 C1016 1.379 . S
C1021 N1019 1.356 . S
N1022 C1014 1.356 . S
N1022 H1028 0.984 . S
N1022 H1029 0.984 . S
N1023 C1016 1.356 . S
N1023 H1026 0.984 . S
N1023 H1027 0.985 . S
H1024 N1019 0.984 . S
H1025 N1019 0.985 . S
H1026 N1023 0.984 . S
H1027 N1023 0.985 . S
H1028 N1022 0.984 . S
H1029 N1022 0.984 . S
H1030 N1018 0.984 . S
H1031 N1018 0.985 . S
C1032 C1033 1.363 . S
C1032 C1038 1.379 . S
C1032 N1040 1.356 . S
C1033 C1032 1.363 . S
C1033 C1039 1.363 . S
C1034 C1035 1.363 . S
C1034 C1039 1.379 . S
C1034 N1041 1.356 . S
C1035 C1034 1.363 . S
C1035 C1038 1.363 . S
N1036 C1038 1.356 . S
N1036 H1048 0.984 . S
N1036 H1049 0.994 . S
N1037 C1039 1.356 . S
N1037 H1042 0.984 . S
N1037 H1043 0.985 . S
C1038 C1032 1.379 . S
C1038 C1035 1.363 . S
C1038 N1036 1.356 . S
C1039 C1033 1.363 . S
C1039 C1034 1.379 . S
C1039 N1037 1.356 . S
N1040 C1032 1.356 . S
N1040 H1046 0.984 . S
N1040 H1047 0.984 . S
N1041 C1034 1.356 . S
N1041 H1044 0.984 . S
N1041 H1045 0.985 . S
H1042 N1037 0.984 . S
H1043 N1037 0.985 . S
H1044 N1041 0.984 . S
H1045 N1041 0.985 . S
H1046 N1040 0.984 . S
H1047 N1040 0.984 . S
H1048 N1036 0.984 . S
H1049 N1036 0.994 . S
C1050 C1051 1.363 . S
C1050 C1056 1.379 . S
C1050 N1058 1.356 . S
C1051 C1050 1.363 . S
C1051 C1057 1.363 . S
C1052 C1053 1.363 . S
C1052 C1057 1.379 . S
C1052 N1059 1.356 . S
C1053 C1052 1.363 . S
C1053 C1056 1.363 . S
N1054 C1056 1.356 . S
N1054 H1066 0.984 . S
N1054 H1067 0.985 . S
N1055 C1057 1.356 . S
N1055 H1060 0.984 . S
N1055 H1061 0.985 . S
C1056 C1050 1.379 . S
C1056 C1053 1.363 . S
C1056 N1054 1.356 . S
C1057 C1051 1.363 . S
C1057 C1052 1.379 . S
C1057 N1055 1.356 . S
N1058 C1050 1.356 . S
N1058 H1064 0.984 . S
N1058 H1065 0.984 . S
N1059 C1052 1.356 . S
N1059 H1062 0.984 . S
N1059 H1063 0.985 . S
H1060 N1055 0.984 . S
H1061 N1055 0.985 . S
H1062 N1059 0.984 . S
H1063 N1059 0.985 . S
H1064 N1058 0.984 . S
H1065 N1058 0.984 . S
H1066 N1054 0.984 . S
H1067 N1054 0.985 . S
C1068 C1069 1.363 . S
C1068 C1074 1.379 . S
C1068 N1076 1.356 . S
C1069 C1068 1.363 . S
C1069 C1075 1.363 . S
C1070 C1071 1.363 . S
C1070 C1075 1.379 . S
C1070 N1077 1.356 . S
C1071 C1070 1.363 . S
C1071 C1074 1.363 . S
N1072 C1074 1.356 . S
N1072 H1084 0.984 . S
N1072 H1085 0.985 . S
N1073 C1075 1.356 . S
N1073 H1078 0.984 . S
N1073 H1079 0.985 . S
C1074 C1068 1.379 . S
C1074 C1071 1.363 . S
C1074 N1072 1.356 . S
C1075 C1069 1.363 . S
C1075 C1070 1.379 . S
C1075 N1073 1.356 . S
N1076 C1068 1.356 . S
N1076 H1082 0.984 . S
N1076 H1083 0.984 . S
N1077 C1070 1.356 . S
N1077 H1080 0.984 . S
N1077 H1081 0.985 . S
H1078 N1073 0.984 . S
H1079 N1073 0.985 . S
H1080 N1077 0.984 . S
H1081 N1077 0.985 . S
H1082 N1076 0.984 . S
H1083 N1076 0.984 . S
H1084 N1072 0.984 . S
H1085 N1072 0.985 . S
C1086 C1087 1.363 . S
C1086 C1092 1.379 1_556 S
C1086 N1094 1.356 . S
C1087 C1086 1.363 . S
C1087 C1093 1.363 . S
C1088 C1089 1.363 1_556 S
C1088 C1093 1.379 . S
C1088 N1095 1.356 1_556 S
C1089 C1088 1.363 1_554 S
C1089 C1092 1.363 . S
N1090 C1092 1.356 . S
N1090 H1102 0.984 . S
N1090 H1103 0.985 . S
N1091 C1093 1.356 . S
N1091 H1096 0.984 . S
N1091 H1097 0.985 . S
C1092 C1086 1.379 1_554 S
C1092 C1089 1.363 . S
C1092 N1090 1.356 . S
C1093 C1087 1.363 . S
C1093 C1088 1.379 . S
C1093 N1091 1.356 . S
N1094 C1086 1.356 . S
N1094 H1100 0.984 . S
N1094 H1101 0.984 . S
N1095 C1088 1.356 1_554 S
N1095 H1098 0.984 . S
N1095 H1099 0.985 . S
H1096 N1091 0.984 . S
H1097 N1091 0.985 . S
H1098 N1095 0.984 . S
H1099 N1095 0.985 . S
H1100 N1094 0.984 . S
H1101 N1094 0.984 . S
H1102 N1090 0.984 . S
H1103 N1090 0.985 . S
C1104 C1105 1.363 1_556 S
C1104 C1110 1.379 . S
C1104 N1112 1.356 1_556 S
C1105 C1104 1.363 1_554 S
C1105 C1111 1.363 . S
C1106 C1107 1.363 . S
C1106 C1111 1.379 1_556 S
C1106 N1113 1.356 . S
C1107 C1106 1.363 . S
C1107 C1110 1.363 . S
N1108 C1110 1.356 . S
N1108 H1120 0.984 . S
N1108 H1121 0.985 . S
N1109 C1111 1.356 . S
N1109 H1114 0.984 . S
N1109 H1115 0.985 . S
C1110 C1104 1.379 . S
C1110 C1107 1.363 . S
C1110 N1108 1.356 . S
C1111 C1105 1.363 . S
C1111 C1106 1.379 1_554 S
C1111 N1109 1.356 . S
N1112 C1104 1.356 1_554 S
N1112 H1118 0.984 . S
N1112 H1119 0.984 . S
N1113 C1106 1.356 . S
N1113 H1116 0.984 . S
N1113 H1117 0.985 . S
H1114 N1109 0.984 . S
H1115 N1109 0.985 . S
H1116 N1113 0.984 . S
H1117 N1113 0.985 . S
H1118 N1112 0.984 . S
H1119 N1112 0.984 . S
H1120 N1108 0.984 . S
H1121 N1108 0.985 . S
C1122 C1123 1.363 . S
C1122 C1128 1.379 . S
C1122 N1130 1.356 . S
C1123 C1122 1.363 . S
C1123 C1129 1.363 . S
C1124 C1125 1.363 . S
C1124 C1129 1.379 . S
C1124 N1131 1.356 . S
C1125 C1124 1.363 . S
C1125 C1128 1.363 . S
N1126 C1128 1.356 . S
N1126 H1138 0.984 . S
N1126 H1139 0.985 . S
N1127 C1129 1.356 . S
N1127 H1132 0.984 . S
N1127 H1133 0.985 . S
C1128 C1122 1.379 . S
C1128 C1125 1.363 . S
C1128 N1126 1.356 . S
C1129 C1123 1.363 . S
C1129 C1124 1.379 . S
C1129 N1127 1.356 . S
N1130 C1122 1.356 . S
N1130 H1136 0.984 . S
N1130 H1137 0.984 . S
N1131 C1124 1.356 . S
N1131 H1134 0.984 . S
N1131 H1135 0.985 . S
H1132 N1127 0.984 . S
H1133 N1127 0.985 . S
H1134 N1131 0.984 . S
H1135 N1131 0.985 . S
H1136 N1130 0.984 . S
H1137 N1130 0.984 . S
H1138 N1126 0.984 . S
H1139 N1126 0.985 . S
C1140 C1141 1.363 . S
C1140 C1146 1.379 . S
C1140 N1148 1.356 . S
C1141 C1140 1.363 . S
C1141 C1147 1.363 . S
C1142 C1143 1.363 . S
C1142 C1147 1.379 . S
C1142 N1149 1.356 . S
C1143 C1142 1.363 . S
C1143 C1146 1.363 . S
N1144 C1146 1.356 . S
N1144 H1156 0.984 . S
N1144 H1157 0.985 . S
N1145 C1147 1.356 . S
N1145 H1150 0.984 . S
N1145 H1151 0.985 . S
C1146 C1140 1.379 . S
C1146 C1143 1.363 . S
C1146 N1144 1.356 . S
C1147 C1141 1.363 . S
C1147 C1142 1.379 . S
C1147 N1145 1.356 . S
N1148 C1140 1.356 . S
N1148 H1154 0.984 . S
N1148 H1155 0.984 . S
N1149 C1142 1.356 . S
N1149 H1152 0.984 . S
N1149 H1153 0.985 . S
H1150 N1145 0.984 . S
H1151 N1145 0.985 . S
H1152 N1149 0.984 . S
H1153 N1149 0.985 . S
H1154 N1148 0.984 . S
H1155 N1148 0.984 . S
H1156 N1144 0.984 . S
H1157 N1144 0.985 . S
C1158 C1159 1.363 . S
C1158 C1164 1.385 . S
C1158 N1166 1.356 . S
C1159 C1158 1.363 . S
C1159 C1165 1.363 . S
C1160 C1161 1.363 . S
C1160 C1165 1.379 1_556 S
C1160 N1167 1.356 . S
C1161 C1160 1.363 . S
C1161 C1164 1.359 1_556 S
N1162 C1164 1.352 1_556 S
N1162 H1174 0.984 . S
N1162 H1175 0.985 . S
N1163 C1165 1.356 . S
N1163 H1168 0.984 . S
N1163 H1169 0.985 . S
C1164 C1158 1.385 . S
C1164 C1161 1.359 1_554 S
C1164 N1162 1.352 1_554 S
C1165 C1159 1.363 . S
C1165 C1160 1.379 1_554 S
C1165 N1163 1.356 . S
N1166 C1158 1.356 . S
N1166 H1172 0.984 . S
N1166 H1173 0.984 . S
N1167 C1160 1.356 . S
N1167 H1170 0.984 . S
N1167 H1171 0.985 . S
H1168 N1163 0.984 . S
H1169 N1163 0.985 . S
H1170 N1167 0.984 . S
H1171 N1167 0.985 . S
H1172 N1166 0.984 . S
H1173 N1166 0.984 . S
H1174 N1162 0.984 . S
H1175 N1162 0.985 . S
C1176 C1177 1.363 . S
C1176 C1182 1.379 . S
C1176 N1184 1.356 . S
C1177 C1176 1.363 . S
C1177 C1183 1.363 . S
C1178 C1179 1.363 . S
C1178 C1183 1.379 . S
C1178 N1185 1.356 . S
C1179 C1178 1.363 . S
C1179 C1182 1.363 . S
N1180 C1182 1.356 . S
N1180 H1192 0.984 . S
N1180 H1193 0.985 . S
N1181 C1183 1.356 . S
N1181 H1186 0.984 . S
N1181 H1187 0.985 . S
C1182 C1176 1.379 . S
C1182 C1179 1.363 . S
C1182 N1180 1.356 . S
C1183 C1177 1.363 . S
C1183 C1178 1.379 . S
C1183 N1181 1.356 . S
N1184 C1176 1.356 . S
N1184 H1190 0.984 . S
N1184 H1191 0.984 . S
N1185 C1178 1.356 . S
N1185 H1188 0.984 . S
N1185 H1189 0.985 . S
H1186 N1181 0.984 . S
H1187 N1181 0.985 . S
H1188 N1185 0.984 . S
H1189 N1185 0.985 . S
H1190 N1184 0.984 . S
H1191 N1184 0.984 . S
H1192 N1180 0.984 . S
H1193 N1180 0.985 . S
C1194 C1195 1.363 . S
C1194 C1200 1.379 . S
C1194 N1202 1.356 . S
C1195 C1194 1.363 . S
C1195 C1201 1.363 . S
C1196 C1197 1.363 . S
C1196 C1201 1.379 . S
C1196 N1203 1.356 . S
C1197 C1196 1.363 . S
C1197 C1200 1.363 . S
N1198 C1200 1.356 . S
N1198 H1210 0.984 . S
N1198 H1211 0.985 . S
N1199 C1201 1.356 . S
N1199 H1204 0.984 . S
N1199 H1205 0.985 1_455 S
C1200 C1194 1.379 . S
C1200 C1197 1.363 . S
C1200 N1198 1.356 . S
C1201 C1195 1.363 . S
C1201 C1196 1.379 . S
C1201 N1199 1.356 . S
N1202 C1194 1.356 . S
N1202 H1208 0.984 . S
N1202 H1209 0.984 . S
N1203 C1196 1.356 . S
N1203 H1206 0.984 . S
N1203 H1207 0.985 1_455 S
H1204 N1199 0.984 . S
H1205 N1199 0.985 1_655 S
H1206 N1203 0.984 . S
H1207 N1203 0.985 1_655 S
H1208 N1202 0.984 . S
H1209 N1202 0.984 . S
H1210 N1198 0.984 . S
H1211 N1198 0.985 . S
C1212 C1213 1.363 . S
C1212 C1218 1.379 . S
C1212 N1220 1.356 . S
C1213 C1212 1.363 . S
C1213 C1219 1.363 . S
C1214 C1215 1.363 . S
C1214 C1219 1.379 . S
C1214 N1221 1.356 . S
C1215 C1214 1.363 . S
C1215 C1218 1.363 . S
N1216 C1218 1.356 . S
N1216 H1228 0.984 . S
N1216 H1229 0.985 . S
N1217 C1219 1.356 . S
N1217 H1222 0.984 . S
N1217 H1223 0.985 . S
C1218 C1212 1.379 . S
C1218 C1215 1.363 . S
C1218 N1216 1.356 . S
C1219 C1213 1.363 . S
C1219 C1214 1.379 . S
C1219 N1217 1.356 . S
N1220 C1212 1.356 . S
N1220 H1226 0.984 . S
N1220 H1227 0.984 . S
N1221 C1214 1.356 . S
N1221 H1224 0.984 . S
N1221 H1225 0.985 . S
H1222 N1217 0.984 . S
H1223 N1217 0.985 . S
H1224 N1221 0.984 . S
H1225 N1221 0.985 . S
H1226 N1220 0.984 . S
H1227 N1220 0.984 . S
H1228 N1216 0.984 . S
H1229 N1216 0.985 . S
C1230 C1231 1.363 . S
C1230 C1236 1.379 . S
C1230 N1238 1.356 . S
C1231 C1230 1.363 . S
C1231 C1237 1.363 . S
C1232 C1233 1.363 . S
C1232 C1237 1.379 . S
C1232 N1239 1.356 . S
C1233 C1232 1.363 . S
C1233 C1236 1.363 . S
N1234 C1236 1.356 . S
N1234 H1246 0.984 1_455 S
N1234 H1247 0.985 . S
N1235 C1237 1.356 . S
N1235 H1240 0.984 . S
N1235 H1241 0.985 . S
C1236 C1230 1.379 . S
C1236 C1233 1.363 . S
C1236 N1234 1.356 . S
C1237 C1231 1.363 . S
C1237 C1232 1.379 . S
C1237 N1235 1.356 . S
N1238 C1230 1.356 . S
N1238 H1244 0.984 1_455 S
N1238 H1245 0.984 . S
N1239 C1232 1.356 . S
N1239 H1242 0.984 . S
N1239 H1243 0.985 . S
H1240 N1235 0.984 . S
H1241 N1235 0.985 . S
H1242 N1239 0.984 . S
H1243 N1239 0.985 . S
H1244 N1238 0.984 1_655 S
H1245 N1238 0.984 . S
H1246 N1234 0.984 1_655 S
H1247 N1234 0.985 . S
C529 C259 1.571 . S
C531 C28 1.573 . S
C547 C61 1.571 . S
C549 C160 1.573 . S
C565 C94 1.615 . S
C567 C193 1.620 . S
C583 C226 1.615 . S
C585 C127 1.620 . S
C601 C380 1.612 . S
C603 C149 1.614 1_655 S
C619 C281 1.612 . S
C621 C17 1.615 1_655 S
C637 C215 1.644 . S
C639 C347 1.649 . S
C655 C83 1.644 . S
C657 C314 1.649 . S
C673 C325 1.619 . S
C675 C424 1.615 . S
C691 C490 1.614 . S
C693 C358 1.620 . S
C709 C457 1.604 . S
C711 C292 1.571 . S
C727 C391 1.571 . S
C729 C523 1.604 . S
C745 C116 1.649 . S
C747 C479 1.644 . S
C763 C182 1.649 . S
C765 C413 1.644 . S
C781 C50 1.612 . S
C783 C512 1.615 . S
C799 C248 1.612 . S
C801 C446 1.614 . S
C817 C8 1.554 . S
C819 C140 1.554 . S
C835 C173 1.545 . S
C837 C41 1.542 . S
C853 C206 1.747 . S
C855 C74 1.747 . S
C871 C107 1.545 . S
C873 C239 1.542 . S
C889 C338 1.545 . S
C891 C272 1.542 . S
C907 C305 1.545 . S
C909 C371 1.542 . S
C925 C404 1.747 . S
C927 C470 1.747 . S
C943 C503 1.554 . S
C945 C437 1.554 . S
C961 N14 1.171 . S
C963 N5 1.169 . S
C979 N47 1.157 . S
C981 N38 1.155 . S
C997 N71 1.214 . S
C999 N80 1.217 . S
C1015 N104 1.172 . S
C1017 N113 1.174 . S
C1033 N137 1.169 . S
C1035 N146 1.171 . S
C1051 N170 1.172 . S
C1053 N179 1.174 . S
C1069 N212 1.217 . S
C1071 N203 1.214 . S
C1087 N245 1.157 . S
C1089 N236 1.155 . S
C1105 N269 1.155 . S
C1107 N278 1.157 . S
C1123 N302 1.172 . S
C1125 N311 1.174 . S
C1141 N344 1.174 . S
C1143 N335 1.172 . S
C1159 N377 1.157 . S
C1161 N368 1.155 . S
C1177 N410 1.217 . S
C1179 N401 1.214 . S
C1195 N443 1.171 . S
C1197 N434 1.169 . S
C1213 N476 1.217 . S
C1215 N467 1.214 . S
C1231 N500 1.169 . S
C1233 N509 1.171 . S
