# Generated by pormake.
# Topology rob, (6)-cn, num edge types: 1
# Building blocks:
#     Node 0, Type 0, BuildingBlock: KUMJIN_clean_sbu_1, # of connection points: 6
#     Node 1, Type 0, BuildingBlock: KUMJIN_clean_sbu_1, # of connection points: 6
#     Node 2, Type 0, BuildingBlock: KUMJIN_clean_sbu_1, # of connection points: 6
#     Node 3, Type 0, BuildingBlock: KUMJIN_clean_sbu_1, # of connection points: 6
#     Edge 4, Type (0, 0), BuildingBlock: XUDNAN_clean_linker_2, # of connection points: 2
#     Edge 5, Type (0, 0), BuildingBlock: XUDNAN_clean_linker_2, # of connection points: 2
#     Edge 6, Type (0, 0), BuildingBlock: XUDNAN_clean_linker_2, # of connection points: 2
#     Edge 7, Type (0, 0), BuildingBlock: XUDNAN_clean_linker_2, # of connection points: 2
#     Edge 8, Type (0, 0), BuildingBlock: XUDNAN_clean_linker_2, # of connection points: 2
#     Edge 9, Type (0, 0), BuildingBlock: XUDNAN_clean_linker_2, # of connection points: 2
#     Edge 10, Type (0, 0), BuildingBlock: XUDNAN_clean_linker_2, # of connection points: 2
#     Edge 11, Type (0, 0), BuildingBlock: XUDNAN_clean_linker_2, # of connection points: 2
#     Edge 12, Type (0, 0), BuildingBlock: XUDNAN_clean_linker_2, # of connection points: 2
#     Edge 13, Type (0, 0), BuildingBlock: XUDNAN_clean_linker_2, # of connection points: 2
#     Edge 14, Type (0, 0), BuildingBlock: XUDNAN_clean_linker_2, # of connection points: 2
#     Edge 15, Type (0, 0), BuildingBlock: XUDNAN_clean_linker_2, # of connection points: 2
# Relax obj value: 0.020
# Max RMSD: 0.112
# Mean RMSD: 0.112
data_MOF--net-rob--node1-KUMJIN_clean_sbu_1--edge1-XUDNAN_clean_linker_2
_symmetry_space_group_name_H-M    P1
_symmetry_Int_Tables_number       1
_symmetry_cell_setting            triclinic
loop_
_symmetry_equiv_pos_as_xyz
'x, y, z'
_cell_length_a     18.829708
_cell_length_b     23.04338
_cell_length_c     34.213508
_cell_angle_alpha  109.20151
_cell_angle_beta   89.75057
_cell_angle_gamma 89.821528
loop_
_atom_site_label
_atom_site_type_symbol
_atom_site_fract_x
_atom_site_fract_y
_atom_site_fract_z
_atom_type_partial_charge
Eu0 Eu 0.30139 0.20065 0.96296 0.0
C1 C 0.10595 0.42826 0.04534 0.0
N2 N 0.17431 0.41869 0.05448 0.0
C3 C 0.20446 0.52204 0.0605 0.0
C4 C 0.08381 0.48639 0.04476 0.0
C5 C 0.22346 0.46437 0.06239 0.0
C6 C 0.13439 0.53306 0.05162 0.0
C7 C 0.98766 0.38806 0.025 0.0
C8 C 0.05848 0.37916 0.03523 0.0
C9 C 0.96465 0.44684 0.02662 0.0
C10 C 0.01232 0.496 0.0371 0.0
Eu11 Eu 0.19868 0.32165 0.05967 0.0
N12 N 0.08166 0.32282 0.03488 0.0
C13 C 0.9416 0.33783 0.01408 0.0
C14 C 0.0359 0.27449 0.02606 0.0
C15 C 0.96585 0.28086 0.01467 0.0
H16 H 0.27708 0.45661 0.07063 0.0
H17 H 0.93007 0.24212 1.00732 0.0
H18 H 0.23523 0.06061 0.95023 0.0
H19 H 0.57716 0.27911 0.98653 0.0
H20 H 0.0518 0.2314 0.02892 0.0
H21 H 0.88696 0.34277 1.00583 0.0
H22 H 0.45252 0.28189 0.96633 0.0
H23 H 0.24362 0.55815 0.06632 0.0
H24 H 0.91008 0.45477 0.0197 0.0
H25 H 0.99352 0.54116 0.0386 0.0
H26 H 0.27515 0.96196 0.95655 0.0
H27 H 0.11998 0.57765 0.0499 0.0
H28 H 0.62307 0.18872 1.00241 0.0
N29 N 0.33513 0.10407 0.96701 0.0
C30 C 0.40413 0.09783 0.97662 0.0
C31 C 0.31181 0.99994 0.96253 0.0
C32 C 0.42939 0.04215 0.98015 0.0
C33 C 0.28917 0.05604 0.95937 0.0
C34 C 0.3821 0.99302 0.97313 0.0
N35 N 0.4241 0.20008 0.97821 0.0
C36 C 0.46995 0.24505 0.97677 0.0
C37 C 0.52181 0.14195 0.99215 0.0
C38 C 0.44965 0.14742 0.98285 0.0
C39 C 0.56734 0.19112 0.99531 0.0
C40 C 0.54156 0.24238 0.98667 0.0
H41 H 0.39937 0.94939 0.97539 0.0
H42 H 0.52159 0.99485 0.99284 0.0
H43 H 0.60197 0.082 1.00375 0.0
O44 O 0.34515 0.21791 0.90802 0.0
O45 O 0.31935 0.19083 0.02657 0.0
O46 O 0.30499 0.2878 0.07492 0.0
O47 O 0.29693 0.12924 0.90209 0.0
O48 O 0.32666 0.3036 0.98121 0.0
O49 O 0.31303 0.34463 0.05234 0.0
O50 O 0.13657 0.31107 0.11112 0.0
O51 O 0.19252 0.33373 0.99654 0.0
O52 O 0.19099 0.23383 0.95493 0.0
O53 O 0.19613 0.3942 0.11976 0.0
O54 O 0.17947 0.22 0.0467 0.0
O55 O 0.19191 0.16947 0.97629 0.0
C56 C 0.33096 0.23154 0.06326 0.0
C57 C 0.34434 0.1411 0.83862 0.0
C58 C 0.40614 0.15052 0.77783 0.0
C59 C 0.37003 0.09832 0.75283 0.0
C60 C 0.3096 0.08862 0.81289 0.0
C61 C 0.32247 0.06749 0.77032 0.0
C62 C 0.39335 0.17171 0.8209 0.0
C63 C 0.3446 0.34276 0.01758 0.0
C64 C 0.32915 0.16302 0.88366 0.0
C65 C 0.50086 0.03719 0.99024 0.0
C66 C 0.5468 0.08698 0.99648 0.0
C67 C 0.17739 0.29185 0.96119 0.0
C68 C 0.17986 0.36214 0.17852 0.0
C69 C 0.1537 0.33845 0.24159 0.0
C70 C 0.22153 0.35926 0.25653 0.0
C71 C 0.24764 0.38262 0.19404 0.0
C72 C 0.13262 0.34082 0.20278 0.0
C73 C 0.26782 0.38173 0.23303 0.0
C74 C 0.16907 0.17201 0.01334 0.0
C75 C 0.15742 0.36308 0.13742 0.0
H76 H 0.37962 0.08073 0.71973 0.0
H77 H 0.27209 0.064 0.82563 0.0
H78 H 0.29551 0.02695 0.75079 0.0
H79 H 0.42119 0.21184 0.84038 0.0
H80 H 0.23854 0.35831 0.28653 0.0
H81 H 0.28506 0.39937 0.17616 0.0
H82 H 0.08025 0.32485 0.19112 0.0
H83 H 0.31965 0.39831 0.24505 0.0
Eu84 Eu 0.80685 0.70229 0.96257 0.0
C85 C 0.57791 0.90403 0.06145 0.0
N86 N 0.64871 0.90169 0.0684 0.0
C87 C 0.65695 0.01104 0.08633 0.0
C88 C 0.54371 0.96075 0.067 0.0
C89 C 0.68861 0.9538 0.08056 0.0
C90 C 0.58413 0.01459 0.07973 0.0
C91 C 0.46629 0.85075 0.03995 0.0
C92 C 0.5396 0.8494 0.0481 0.0
C93 C 0.43216 0.90719 0.04573 0.0
C94 C 0.47065 0.96193 0.05935 0.0
Eu95 Eu 0.69446 0.80455 0.06327 0.0
N96 N 0.57387 0.79516 0.04285 0.0
C97 C 0.4291 0.79533 0.02656 0.0
C98 C 0.53673 0.7415 0.03207 0.0
C99 C 0.46443 0.74052 0.02288 0.0
H100 H 0.74451 0.95143 0.08682 0.0
H101 H 0.43563 0.69758 0.01387 0.0
H102 H 0.73078 0.56313 0.92348 0.0
H103 H 0.07599 0.76447 0.01953 0.0
H104 H 0.56122 0.69949 0.0319 0.0
H105 H 0.37285 0.79449 0.01985 0.0
H106 H 0.95153 0.78391 1.00545 0.0
H107 H 0.68855 0.05243 0.09627 0.0
H108 H 0.37591 0.90902 0.03964 0.0
H109 H 0.4436 1.00484 0.06293 0.0
H110 H 0.76588 0.45406 0.90489 0.0
H111 H 0.55971 0.05904 0.0844 0.0
H112 H 0.1206 0.65767 1.00099 0.0
N113 N 0.83197 0.59688 0.94782 0.0
C114 C 0.89978 0.5828 0.95497 0.0
C115 C 0.80398 0.4898 0.91903 0.0
C116 C 0.92298 0.52114 0.94273 0.0
C117 C 0.78397 0.55164 0.9302 0.0
C118 C 0.87393 0.47444 0.92505 0.0
N119 N 0.92402 0.68952 0.98282 0.0
C120 C 0.96943 0.73733 0.99887 0.0
C121 C 0.01898 0.6171 0.97818 0.0
C122 C 0.94727 0.63035 0.97269 0.0
C123 C 0.06529 0.666 0.99591 0.0
C124 C 0.0403 0.72635 1.00642 0.0
H125 H 0.88977 0.42651 0.91541 0.0
H126 H 0.01314 0.46092 0.93803 0.0
H127 H 0.09771 0.54473 0.96809 0.0
O128 O 0.85325 0.74061 0.91762 0.0
O129 O 0.83413 0.68891 0.02438 0.0
O130 O 0.80957 0.78382 0.07116 0.0
O131 O 0.81181 0.64837 0.89677 0.0
O132 O 0.82436 0.80657 0.98392 0.0
O133 O 0.79995 0.84544 0.05444 0.0
O134 O 0.64919 0.77711 0.11359 0.0
O135 O 0.67417 0.82173 1.00235 0.0
O136 O 0.69231 0.72619 0.95472 0.0
O137 O 0.69621 0.86682 0.12706 0.0
O138 O 0.69172 0.70044 0.04462 0.0
O139 O 0.69967 0.66592 0.97359 0.0
C140 C 0.83676 0.72876 0.06208 0.0
C141 C 0.90912 0.66909 0.85958 0.0
C142 C 0.97903 0.66865 0.79934 0.0
C143 C 0.03026 0.63148 0.8094 0.0
C144 C 0.96023 0.63086 0.86843 0.0
C145 C 0.02057 0.61248 0.84369 0.0
C146 C 0.91841 0.68749 0.82465 0.0
C147 C 0.83089 0.84908 0.0206 0.0
C148 C 0.84624 0.69002 0.88642 0.0
C149 C 0.99459 0.508 0.9474 0.0
C150 C 0.04258 0.55579 0.9648 0.0
C151 C 0.66693 0.78229 0.96476 0.0
C152 C 0.59739 0.85811 0.16799 0.0
C153 C 0.51215 0.85602 0.22165 0.0
C154 C 0.47886 0.90854 0.21766 0.0
C155 C 0.56446 0.91166 0.16564 0.0
C156 C 0.57103 0.83048 0.19613 0.0
C157 C 0.50504 0.93609 0.18993 0.0
C158 C 0.68475 0.65687 0.00866 0.0
C159 C 0.65908 0.8307 0.14146 0.0
H160 H 0.07691 0.61583 0.7901 0.0
H161 H 0.9535 0.61463 0.89412 0.0
H162 H 0.05957 0.58296 0.85092 0.0
H163 H 0.87881 0.71649 0.81726 0.0
H164 H 0.43253 0.92854 0.2361 0.0
H165 H 0.58463 0.93505 0.14531 0.0
H166 H 0.59745 0.79008 0.19879 0.0
H167 H 0.47937 0.97678 0.18746 0.0
Eu168 Eu 0.30787 0.8099 0.55889 0.0
C169 C 0.08761 0.58355 0.44979 0.0
N170 N 0.15794 0.59235 0.44488 0.0
C171 C 0.18116 0.48531 0.43186 0.0
C172 C 0.06162 0.52515 0.44723 0.0
C173 C 0.20466 0.54428 0.43536 0.0
C174 C 0.10941 0.47574 0.43798 0.0
C175 C 0.9682 0.62567 0.4633 0.0
C176 C 0.04138 0.63316 0.4574 0.0
C177 C 0.94242 0.56792 0.46181 0.0
C178 C 0.98902 0.5179 0.4539 0.0
Eu179 Eu 0.19224 0.69279 0.44993 0.0
N180 N 0.0681 0.6889 0.45961 0.0
C181 C 0.92315 0.67662 0.4708 0.0
C182 C 0.02406 0.73825 0.46567 0.0
C183 C 0.95119 0.73304 0.4717 0.0
H184 H 0.25993 0.55079 0.42952 0.0
H185 H 0.91664 0.77252 0.47685 0.0
H186 H 0.23664 0.95148 0.57925 0.0
H187 H 0.58413 0.73373 0.53648 0.0
H188 H 0.0443 0.78166 0.46543 0.0
H189 H 0.86667 0.67277 0.47558 0.0
H190 H 0.45419 0.72166 0.54145 0.0
H191 H 0.21831 0.44723 0.42422 0.0
H192 H 0.88653 0.5614 0.46673 0.0
H193 H 0.96829 0.47366 0.45298 0.0
H194 H 0.27687 0.05504 0.58377 0.0
H195 H 0.09137 0.42992 0.43509 0.0
H196 H 0.63422 0.8362 0.54451 0.0
N197 N 0.3397 0.91139 0.56577 0.0
C198 C 0.4106 0.92142 0.56306 0.0
C199 C 0.31484 0.01773 0.57784 0.0
C200 C 0.43615 0.9806 0.56766 0.0
C201 C 0.2921 0.95871 0.57445 0.0
C202 C 0.38692 0.02841 0.57389 0.0
N203 N 0.43161 0.81518 0.55032 0.0
C204 C 0.47571 0.766 0.54417 0.0
C205 C 0.53164 0.88167 0.55394 0.0
C206 C 0.45805 0.87244 0.5563 0.0
C207 C 0.57728 0.83099 0.54648 0.0
C208 C 0.54919 0.77298 0.54175 0.0
H209 H 0.4038 0.07371 0.57562 0.0
H210 H 0.53024 0.03562 0.56993 0.0
H211 H 0.61362 0.94898 0.5574 0.0
O212 O 0.34491 0.7797 0.60986 0.0
O213 O 0.36569 0.81065 0.50044 0.0
O214 O 0.27523 0.7555 0.47966 0.0
O215 O 0.28976 0.86638 0.62321 0.0
O216 O 0.30069 0.70537 0.53702 0.0
O217 O 0.29809 0.65501 0.4663 0.0
O218 O 0.15761 0.71097 0.39396 0.0
O219 O 0.15413 0.68797 0.51179 0.0
O220 O 0.1906 0.78324 0.55388 0.0
O221 O 0.23513 0.63985 0.38943 0.0
O222 O 0.17058 0.79723 0.46803 0.0
O223 O 0.20813 0.84823 0.53714 0.0
C224 C 0.33088 0.77894 0.46865 0.0
C225 C 0.38141 0.86113 0.66907 0.0
C226 C 0.44766 0.87064 0.73206 0.0
C227 C 0.48434 0.92095 0.72745 0.0
C228 C 0.41788 0.91245 0.66575 0.0
C229 C 0.46957 0.94158 0.69441 0.0
C230 C 0.39664 0.84011 0.70247 0.0
C231 C 0.32604 0.66373 0.50349 0.0
C232 C 0.3265 0.83084 0.63841 0.0
C233 C 0.50963 0.9902 0.56596 0.0
C234 C 0.55719 0.94087 0.55898 0.0
C235 C 0.16159 0.72931 0.54884 0.0
C236 C 0.15118 0.6211 0.33519 0.0
C237 C 0.06742 0.60316 0.2781 0.0
C238 C 0.06691 0.54032 0.27353 0.0
C239 C 0.15011 0.55783 0.3298 0.0
C240 C 0.11034 0.64337 0.30869 0.0
C241 C 0.1085 0.51787 0.29905 0.0
C242 C 0.17008 0.84441 0.50345 0.0
C243 C 0.19235 0.66415 0.36921 0.0
H244 H 0.5233 0.94524 0.75011 0.0
H245 H 0.40562 0.93101 0.64153 0.0
H246 H 0.49717 0.9811 0.69148 0.0
H247 H 0.36749 0.80173 0.70616 0.0
H248 H 0.03433 0.50858 0.25013 0.0
H249 H 0.1809 0.53905 0.34949 0.0
H250 H 0.11025 0.69204 0.31266 0.0
H251 H 0.10801 0.46941 0.29529 0.0
Eu252 Eu 0.8315 0.32286 0.55445 0.0
C253 C 0.59237 0.113 0.48106 0.0
N254 N 0.66008 0.11671 0.46812 0.0
C255 C 0.67562 0.00811 0.45255 0.0
C256 C 0.56332 0.056 0.47963 0.0
C257 C 0.70161 0.06535 0.45352 0.0
C258 C 0.6062 1.00338 0.46568 0.0
C259 C 0.48028 0.16348 0.50756 0.0
C260 C 0.55149 0.16632 0.49537 0.0
C261 C 0.45089 0.10663 0.50528 0.0
C262 C 0.49235 0.05318 0.4916 0.0
Eu263 Eu 0.69683 0.21497 0.46906 0.0
N264 N 0.58108 0.22085 0.49694 0.0
C265 C 0.44017 0.21774 0.52093 0.0
C266 C 0.54125 0.27327 0.50821 0.0
C267 C 0.47077 0.27286 0.52107 0.0
H268 H 0.75429 0.06805 0.44169 0.0
H269 H 0.43971 0.31484 0.53034 0.0
H270 H 0.77765 0.46914 0.57254 0.0
H271 H 0.07954 0.20792 0.48765 0.0
H272 H 0.56268 0.31504 0.50613 0.0
H273 H 0.38532 0.2174 0.53056 0.0
H274 H 0.95641 0.21319 0.51265 0.0
H275 H 0.70879 0.96752 0.4411 0.0
H276 H 0.39594 0.10353 0.51387 0.0
H277 H 0.46883 0.00981 0.4903 0.0
H278 H 0.83123 0.56745 0.57372 0.0
H279 H 0.586 0.95886 0.46452 0.0
H280 H 0.14144 0.30301 0.48891 0.0
N281 N 0.87157 0.41704 0.55033 0.0
C282 C 0.9408 0.41747 0.53893 0.0
C283 C 0.86249 0.52559 0.56384 0.0
C284 C 0.97418 0.473 0.54086 0.0
C285 C 0.83198 0.46972 0.56249 0.0
C286 C 0.93404 0.52733 0.55336 0.0
N287 N 0.94554 0.30909 0.52411 0.0
C288 C 0.98125 0.25447 0.51161 0.0
C289 C 0.05037 0.36164 0.51315 0.0
C290 C 0.97866 0.36217 0.52536 0.0
C291 C 0.08647 0.30533 0.49883 0.0
C292 C 0.05168 0.25153 0.498 0.0
H293 H 0.95775 0.57072 0.55477 0.0
H294 H 0.07325 0.51518 0.53258 0.0
H295 H 0.13959 0.41774 0.50776 0.0
O296 O 0.89073 0.30086 0.60278 0.0
O297 O 0.84286 0.32236 0.48751 0.0
O298 O 0.81095 0.22347 0.45159 0.0
O299 O 0.85298 0.39342 0.61376 0.0
O300 O 0.82971 0.2206 0.54469 0.0
O301 O 0.80236 0.17115 0.47601 0.0
O302 O 0.64298 0.24514 0.4226 0.0
O303 O 0.67805 0.21697 0.53558 0.0
O304 O 0.72141 0.31064 0.57719 0.0
O305 O 0.67619 0.15052 0.40714 0.0
O306 O 0.69553 0.31911 0.48239 0.0
O307 O 0.72419 0.36375 0.55128 0.0
C308 C 0.84168 0.27503 0.45311 0.0
C309 C 0.8613 0.3597 0.6717 0.0
C310 C 0.89099 0.35889 0.74087 0.0
C311 C 0.81849 0.36292 0.75109 0.0
C312 C 0.78914 0.36563 0.68287 0.0
C313 C 0.76794 0.36678 0.72229 0.0
C314 C 0.91226 0.35722 0.70104 0.0
C315 C 0.8287 0.17115 0.51163 0.0
C316 C 0.88397 0.35589 0.62965 0.0
C317 C 0.04638 0.47272 0.53042 0.0
C318 C 0.08417 0.4172 0.5163 0.0
C319 C 0.68741 0.25902 0.57204 0.0
C320 C 0.67112 0.19242 0.35274 0.0
C321 C 0.6424 0.19119 0.28296 0.0
C322 C 0.71479 0.19766 0.27546 0.0
C323 C 0.74333 0.19797 0.34452 0.0
C324 C 0.62074 0.18841 0.32171 0.0
C325 C 0.76497 0.20034 0.30599 0.0
C326 C 0.69047 0.36433 0.51786 0.0
C327 C 0.64761 0.19179 0.39365 0.0
H328 H 0.8012 0.36421 0.78162 0.0
H329 H 0.74913 0.36864 0.66097 0.0
H330 H 0.71213 0.37058 0.73052 0.0
H331 H 0.9682 0.3536 0.69288 0.0
H332 H 0.73252 0.1995 0.24572 0.0
H333 H 0.78284 0.20019 0.36779 0.0
H334 H 0.56486 0.18363 0.32777 0.0
H335 H 0.82087 0.20382 0.29976 0.0
H336 H 0.58345 0.58682 0.95592 0.0
H337 H 0.70975 0.59858 0.06385 0.0
H338 H 0.63971 0.51579 0.07544 0.0
H339 H 0.42103 0.5654 0.99701 0.0
H340 H 0.38555 0.51058 0.95072 0.0
H341 H 0.45111 0.56518 0.94688 0.0
H342 H 0.53246 0.47665 0.90283 0.0
H343 H 0.46655 0.42169 0.9059 0.0
H344 H 0.55626 0.41545 0.9223 0.0
H345 H 0.54704 0.44419 0.08182 0.0
H346 H 0.44417 0.37634 0.07743 0.0
H347 H 0.37869 0.40467 0.96361 0.0
C348 C 0.59768 0.57029 0.98105 0.0
C349 C 0.6517 0.59918 0.00923 0.0
C350 C 0.66798 0.57754 0.04234 0.0
C351 C 0.62867 0.53036 0.04906 0.0
C352 C 0.57354 0.50474 0.02208 0.0
C353 C 0.55867 0.52283 0.98823 0.0
C354 C 0.49369 0.48962 0.96557 0.0
C355 C 0.43435 0.53543 0.96503 0.0
C356 C 0.51344 0.44839 0.92153 0.0
C357 C 0.4736 0.45159 0.9927 0.0
C358 C 0.5205 0.46131 0.02515 0.0
C359 C 0.51067 0.43516 0.05612 0.0
C360 C 0.4518 0.39725 0.05362 0.0
C361 C 0.40408 0.38525 0.02013 0.0
C362 C 0.41517 0.41262 0.98921 0.0
H363 H 0.40922 0.57394 0.44662 0.0
H364 H 0.35326 0.64867 0.5773 0.0
H365 H 0.44163 0.58289 0.59345 0.0
H366 H 0.43826 0.41557 0.44788 0.0
H367 H 0.51192 0.40079 0.41207 0.0
H368 H 0.44246 0.45334 0.40939 0.0
H369 H 0.53652 0.53793 0.41637 0.0
H370 H 0.60611 0.4859 0.41965 0.0
H371 H 0.59557 0.55891 0.46011 0.0
H372 H 0.53942 0.51715 0.59808 0.0
H373 H 0.63433 0.44091 0.58946 0.0
H374 H 0.62747 0.39981 0.45605 0.0
C375 C 0.4151 0.57571 0.47846 0.0
C376 C 0.3747 0.61749 0.5106 0.0
C377 C 0.38392 0.61817 0.55195 0.0
C378 C 0.4342 0.58081 0.56167 0.0
C379 C 0.47455 0.54184 0.52978 0.0
C380 C 0.46508 0.53766 0.48891 0.0
C381 C 0.51583 0.49025 0.46107 0.0
C382 C 0.47465 0.43681 0.43081 0.0
C383 C 0.56651 0.52005 0.43794 0.0
C384 C 0.55532 0.46967 0.49301 0.0
C385 C 0.53063 0.50081 0.53238 0.0
C386 C 0.55905 0.49186 0.5674 0.0
C387 C 0.61345 0.44871 0.56215 0.0
C388 C 0.63851 0.41436 0.5221 0.0
C389 C 0.60934 0.42538 0.48704 0.0
H390 H 0.09235 0.07947 0.95541 0.0
H391 H 0.14909 0.15002 0.08553 0.0
H392 H 0.07058 0.07503 0.09999 0.0
H393 H 0.91026 0.05203 0.97043 0.0
H394 H 0.90407 0.98087 0.92795 0.0
H395 H 0.96798 0.03792 0.92606 0.0
H396 H 0.06951 0.95787 0.91449 0.0
H397 H 0.00581 0.90033 0.91591 0.0
H398 H 0.08053 0.91646 0.95054 0.0
H399 H 0.98083 1.0001 0.10279 0.0
H400 H 0.89049 0.9202 0.09262 0.0
H401 H 0.89122 0.89099 0.96044 0.0
C402 C 0.089 0.07832 0.98674 0.0
C403 C 0.12665 0.12125 0.01935 0.0
C404 C 0.12037 0.11841 0.06001 0.0
C405 C 0.07593 0.07576 0.06865 0.0
C406 C 0.0382 0.0354 0.03631 0.0
C407 C 0.04469 0.03533 0.99605 0.0
C408 C 0.99667 0.9867 0.96754 0.0
C409 C 0.94147 0.01616 0.94677 0.0
C410 C 0.04077 0.93741 0.9352 0.0
C411 C 0.96169 0.96065 0.99837 0.0
C412 C 0.98665 0.9899 0.03781 0.0
C413 C 0.96127 0.97627 0.07201 0.0
C414 C 0.90943 0.93092 0.06586 0.0
C415 C 0.88346 0.89903 0.02572 0.0
C416 C 0.91017 0.91424 0.99148 0.0
H417 H 0.90156 0.08082 0.45034 0.0
H418 H 0.84435 0.14042 0.5807 0.0
H419 H 0.92124 0.06025 0.59073 0.0
H420 H 0.91527 0.91316 0.43726 0.0
H421 H 0.99039 0.90152 0.40265 0.0
H422 H 0.92489 0.95949 0.40415 0.0
H423 H 0.02411 0.04141 0.41909 0.0
H424 H 0.08978 0.984 0.41823 0.0
H425 H 0.08127 0.05208 0.46302 0.0
H426 H 0.01081 0.98321 0.58932 0.0
H427 H 0.10477 0.90548 0.57586 0.0
H428 H 0.10729 0.89032 0.44581 0.0
C429 C 0.90386 0.07565 0.48064 0.0
C430 C 0.86689 0.11674 0.51478 0.0
C431 C 0.87234 0.1096 0.55419 0.0
C432 C 0.91579 0.06413 0.56021 0.0
C433 C 0.95332 0.02573 0.52645 0.0
C434 C 0.94746 0.03013 0.48729 0.0
C435 C 0.99694 0.98432 0.4571 0.0
C436 C 0.95432 0.9368 0.42328 0.0
C437 C 0.05124 0.01745 0.43826 0.0
C438 C 0.03257 0.95493 0.4858 0.0
C439 C 0.00599 0.97977 0.52557 0.0
C440 C 0.03167 0.96286 0.55826 0.0
C441 C 0.08573 0.91895 0.55025 0.0
C442 C 0.11404 0.89201 0.50979 0.0
C443 C 0.08662 0.90999 0.477 0.0
H444 H 0.59638 0.28166 0.25365 0.0
H445 H 0.57246 0.0882 0.23737 0.0
H446 H 0.49067 0.07704 0.17865 0.0
H447 H 0.412 0.30788 0.23118 0.0
H448 H 0.43495 0.36151 0.20491 0.0
H449 H 0.49093 0.35394 0.24553 0.0
H450 H 0.59856 0.33105 0.19512 0.0
H451 H 0.54246 0.33796 0.15435 0.0
H452 H 0.59348 0.26874 0.14671 0.0
H453 H 0.41384 0.08684 0.12129 0.0
H454 H 0.34575 0.11648 0.06893 0.0
H455 H 0.41376 0.30528 0.12547 0.0
C456 C 0.57324 0.23718 0.23784 0.0
C457 C 0.59014 0.18572 0.24982 0.0
C458 C 0.55942 0.12807 0.22863 0.0
C459 C 0.51318 0.12134 0.19534 0.0
C460 C 0.49752 0.17294 0.18414 0.0
C461 C 0.52605 0.22989 0.205 0.0
C462 C 0.50012 0.278 0.18691 0.0
C463 C 0.45692 0.3283 0.21906 0.0
C464 C 0.56238 0.30554 0.16976 0.0
C465 C 0.45319 0.23911 0.15239 0.0
C466 C 0.45275 0.1786 0.15117 0.0
C467 C 0.41435 0.13382 0.12148 0.0
C468 C 0.37578 0.15115 0.09202 0.0
C469 C 0.37437 0.21316 0.09323 0.0
C470 C 0.41351 0.25758 0.12394 0.0
H471 H 0.47025 0.91908 0.30077 0.0
H472 H 0.49639 0.73391 0.21472 0.0
H473 H 0.45051 0.69219 0.26807 0.0
H474 H 0.5219 0.88576 0.39106 0.0
H475 H 0.45822 0.93723 0.42439 0.0
H476 H 0.49319 0.95355 0.38011 0.0
H477 H 0.3664 0.95823 0.35266 0.0
H478 H 0.3303 0.94404 0.39747 0.0
H479 H 0.30675 0.89476 0.34633 0.0
H480 H 0.40358 0.67171 0.33298 0.0
H481 H 0.36066 0.67528 0.40241 0.0
H482 H 0.35813 0.87388 0.44221 0.0
C483 C 0.46561 0.86971 0.29281 0.0
C484 C 0.48634 0.82979 0.25341 0.0
C485 C 0.48122 0.76541 0.24481 0.0
C486 C 0.45482 0.74133 0.27481 0.0
C487 C 0.43387 0.78228 0.31318 0.0
C488 C 0.43921 0.84511 0.32211 0.0
C489 C 0.41431 0.8797 0.36558 0.0
C490 C 0.47563 0.91622 0.39178 0.0
C491 C 0.35064 0.92164 0.36547 0.0
C492 C 0.39278 0.82674 0.37972 0.0
C493 C 0.40486 0.77072 0.34935 0.0
C494 C 0.39217 0.71538 0.35651 0.0
C495 C 0.36638 0.71766 0.39566 0.0
C496 C 0.35205 0.7747 0.42646 0.0
C497 C 0.36635 0.82966 0.41848 0.0
H498 H 0.65413 0.72304 0.88038 0.0
H499 H 0.58133 0.8836 0.98006 0.0
H500 H 0.50381 0.91159 0.93178 0.0
H501 H 0.66833 0.80341 0.80811 0.0
H502 H 0.64196 0.73967 0.76379 0.0
H503 H 0.68412 0.72567 0.80699 0.0
H504 H 0.57757 0.6585 0.81339 0.0
H505 H 0.53475 0.67284 0.7704 0.0
H506 H 0.48906 0.69041 0.81936 0.0
H507 H 0.43885 0.92762 0.87477 0.0
H508 H 0.40244 0.93771 0.80809 0.0
H509 H 0.52219 0.77339 0.74229 0.0
C510 C 0.62079 0.76348 0.89223 0.0
C511 C 0.6217 0.79954 0.93476 0.0
C512 C 0.57961 0.85354 0.94844 0.0
C513 C 0.53537 0.87018 0.92118 0.0
C514 C 0.53488 0.83356 0.87988 0.0
C515 C 0.57749 0.78205 0.86503 0.0
C516 C 0.57298 0.75554 0.81811 0.0
C517 C 0.64619 0.75613 0.79808 0.0
C518 C 0.54172 0.69045 0.80452 0.0
C519 C 0.52194 0.80095 0.80922 0.0
C520 C 0.49966 0.84472 0.84562 0.0
C521 C 0.45523 0.89334 0.846 0.0
C522 C 0.43459 0.89862 0.80811 0.0
C523 C 0.4586 0.85581 0.77041 0.0
C524 C 0.50177 0.80567 0.77085 0.0
H525 H 0.54697 0.25537 0.5924 0.0
H526 H 0.76012 0.23797 0.63402 0.0
H527 H 0.71144 0.22193 0.69713 0.0
H528 H 0.46645 0.33281 0.69511 0.0
H529 H 0.38454 0.29079 0.68163 0.0
H530 H 0.43651 0.30732 0.6422 0.0
H531 H 0.44118 0.19153 0.59962 0.0
H532 H 0.38936 0.17409 0.63858 0.0
H533 H 0.47527 0.13833 0.62368 0.0
H534 H 0.63822 0.20179 0.75385 0.0
H535 H 0.54761 0.16901 0.79505 0.0
H536 H 0.38269 0.19665 0.71504 0.0
C537 C 0.58311 0.24884 0.61509 0.0
C538 C 0.65711 0.24885 0.609 0.0
C539 C 0.70314 0.23916 0.63881 0.0
C540 C 0.67597 0.23023 0.67471 0.0
C541 C 0.6025 0.23138 0.68033 0.0
C542 C 0.55677 0.24025 0.65122 0.0
C543 C 0.48016 0.23407 0.66273 0.0
C544 C 0.43952 0.29489 0.67091 0.0
C545 C 0.44422 0.18141 0.62912 0.0
C546 C 0.48967 0.21849 0.70208 0.0
C547 C 0.56059 0.21842 0.7123 0.0
C548 C 0.58251 0.20225 0.7463 0.0
C549 C 0.53081 0.1839 0.76962 0.0
C550 C 0.45839 0.18071 0.75828 0.0
C551 C 0.43771 0.19936 0.72457 0.0
H552 H 0.97189 0.72739 0.0918 0.0
H553 H 0.75208 0.68938 0.11166 0.0
H554 H 0.78656 0.65714 0.17091 0.0
H555 H 0.05139 0.60563 0.11942 0.0
H556 H 0.12552 0.65045 0.14612 0.0
H557 H 0.0829 0.6698 0.10498 0.0
H558 H 0.06097 0.78036 0.15468 0.0
H559 H 0.10251 0.76113 0.19622 0.0
H560 H 0.01341 0.79179 0.2025 0.0
H561 H 0.8451 0.62334 0.22492 0.0
H562 H 0.92411 0.59386 0.27287 0.0
H563 H 0.10575 0.66195 0.22318 0.0
C564 C 0.93147 0.71185 0.10863 0.0
C565 C 0.85964 0.7086 0.09655 0.0
C566 C 0.80757 0.68986 0.11967 0.0
C567 C 0.8266 0.67222 0.15365 0.0
C568 C 0.89785 0.6754 0.16482 0.0
C569 C 0.94947 0.69551 0.14346 0.0
C570 C 0.02193 0.69553 0.16271 0.0
C571 C 0.07357 0.6528 0.13142 0.0
C572 C 0.05143 0.76112 0.18006 0.0
C573 C 1.00328 0.67023 0.19717 0.0
C574 C 0.93124 0.6592 0.19783 0.0
C575 C 0.90145 0.63249 0.22511 0.0
C576 C 0.94659 0.61579 0.25211 0.0
C577 C 0.02055 0.62624 0.25183 0.0
C578 C 0.04912 0.65461 0.22443 0.0
H579 H 0.84757 0.35261 0.40668 0.0
H580 H 0.9462 0.1919 0.42294 0.0
H581 H 0.03051 0.18569 0.36627 0.0
H582 H 0.86598 0.29356 0.28965 0.0
H583 H 0.87784 0.37038 0.28872 0.0
H584 H 0.82447 0.35726 0.32889 0.0
H585 H 0.90689 0.43599 0.38327 0.0
H586 H 0.95729 0.44506 0.34083 0.0
H587 H 1.00164 0.42148 0.37949 0.0
H588 H 0.11096 0.20264 0.31366 0.0
H589 H 0.18029 0.23913 0.26488 0.0
H590 H 0.02345 0.38164 0.27564 0.0
C591 C 0.88719 0.31638 0.39815 0.0
C592 C 0.89182 0.27344 0.41957 0.0
C593 C 0.94281 0.22565 0.40721 0.0
C594 C 0.99047 0.22151 0.37491 0.0
C595 C 0.98475 0.26423 0.35423 0.0
C596 C 0.93371 0.31015 0.36471 0.0
C597 C 0.93912 0.34935 0.33666 0.0
C598 C 0.87286 0.34217 0.30942 0.0
C599 C 0.95185 0.41708 0.36164 0.0
C600 C 1.00399 0.32077 0.31093 0.0
C601 C 0.02883 0.27131 0.32138 0.0
C602 C 0.09137 0.24052 0.3046 0.0
C603 C 0.13047 0.26159 0.27709 0.0
C604 C 0.10674 0.31267 0.26644 0.0
C605 C 0.0419 0.34178 0.28282 0.0
H606 H 0.91541 0.26716 0.77331 0.0
H607 H 0.98388 0.44937 0.77977 0.0
H608 H 0.06696 0.4515 0.83629 0.0
H609 H 0.92042 0.28989 0.88119 0.0
H610 H 0.95373 0.21409 0.87547 0.0
H611 H 0.90116 0.22642 0.83504 0.0
H612 H 1.00204 0.18019 0.7819 0.0
H613 H 0.05473 0.16746 0.82219 0.0
H614 H 0.0902 0.21174 0.79197 0.0
H615 H 0.13718 0.43556 0.89447 0.0
H616 H 0.19331 0.40155 0.94846 0.0
H617 H 0.08507 0.2266 0.90109 0.0
C618 C 0.94866 0.30706 0.78642 0.0
C619 C 0.94404 0.35801 0.77233 0.0
C620 C 0.98762 0.40978 0.79009 0.0
C621 C 0.03464 0.41136 0.82216 0.0
C622 C 0.03802 0.36035 0.83551 0.0
C623 C 0.99675 0.30889 0.81793 0.0
C624 C 0.01031 0.26036 0.83808 0.0
C625 C 0.94236 0.24693 0.85866 0.0
C626 C 0.04116 0.20146 0.80666 0.0
C627 C 0.06499 0.29277 0.87008 0.0
C628 C 0.08002 0.3505 0.86819 0.0
C629 C 0.12649 0.39017 0.89588 0.0
C630 C 0.15786 0.37057 0.9265 0.0
C631 C 0.14406 0.31124 0.92852 0.0
C632 C 0.09739 0.2718 0.89976 0.0
H633 H 0.20345 0.75203 0.62806 0.0
H634 H 0.02438 0.69031 0.54607 0.0
H635 H 0.95328 0.67842 0.6039 0.0
H636 H 0.1807 0.64444 0.68034 0.0
H637 H 0.20825 0.69582 0.73004 0.0
H638 H 0.24179 0.70586 0.68338 0.0
H639 H 0.19636 0.81822 0.70818 0.0
H640 H 0.1622 0.80869 0.75497 0.0
H641 H 0.10408 0.83403 0.72202 0.0
H642 H 0.90408 0.66869 0.66971 0.0
H643 H 0.8831 0.65425 0.73739 0.0
H644 H 0.09652 0.71768 0.77534 0.0
C645 C 0.149 0.7368 0.62258 0.0
C646 C 0.11893 0.72239 0.58296 0.0
C647 C 0.04818 0.70117 0.5763 0.0
C648 C 0.0074 0.6947 0.60897 0.0
C649 C 0.0388 0.70876 0.64777 0.0
C650 C 0.10823 0.72881 0.65461 0.0
C651 C 0.13136 0.73595 0.69821 0.0
C652 C 0.19421 0.69293 0.69795 0.0
C653 C 0.14954 0.80324 0.72226 0.0
C654 C 0.06429 0.71608 0.71471 0.0
C655 C 0.01112 0.70159 0.68538 0.0
C656 C 0.94503 0.68036 0.69308 0.0
C657 C 0.93347 0.67255 0.73156 0.0
C658 C 0.98816 0.68504 0.76137 0.0
C659 C 0.05387 0.70794 0.753 0.0
loop_
_geom_bond_atom_site_label_1
_geom_bond_atom_site_label_2
_geom_bond_distance
_geom_bond_site_symmetry_2
_ccdc_geom_bond_type
Eu0 N29 2.600 . S
Eu0 N35 2.562 . S
Eu0 O44 2.462 . S
Eu0 O45 2.373 1_556 S
Eu0 O47 2.432 . S
Eu0 O48 2.291 . S
Eu0 O52 2.335 . S
Eu0 O55 2.372 . S
Eu0 C64 2.787 . S
C1 N2 1.365 . S
C1 C4 1.405 . S
C1 C8 1.448 . S
N2 C1 1.365 . S
N2 C5 1.319 . S
N2 Eu11 2.600 . S
C3 C5 1.397 . S
C3 C6 1.367 . S
C3 H23 0.931 . S
C4 C1 1.405 . S
C4 C6 1.403 . S
C4 C10 1.439 1_455 S
C5 N2 1.319 . S
C5 C3 1.397 . S
C5 H16 0.930 . S
C6 C3 1.367 . S
C6 C4 1.403 . S
C6 H27 0.929 . S
C7 C8 1.430 1_655 S
C7 C9 1.387 . S
C7 C13 1.404 1_554 S
C8 C1 1.448 . S
C8 C7 1.430 1_455 S
C8 N12 1.351 . S
C9 C7 1.387 . S
C9 C10 1.374 . S
C9 H24 0.931 1_554 S
C10 C4 1.439 1_655 S
C10 C9 1.374 . S
C10 H25 0.931 . S
Eu11 N2 2.600 . S
Eu11 N12 2.562 . S
Eu11 O46 2.335 . S
Eu11 O49 2.372 . S
Eu11 O50 2.462 . S
Eu11 O51 2.373 1_554 S
Eu11 O53 2.432 . S
Eu11 O54 2.291 . S
Eu11 C75 2.787 . S
N12 C8 1.351 . S
N12 Eu11 2.562 . S
N12 C14 1.325 . S
C13 C7 1.404 1_556 S
C13 C15 1.360 1_556 S
C13 H21 0.930 . S
C14 N12 1.325 . S
C14 C15 1.421 1_455 S
C14 H20 0.929 . S
C15 C13 1.360 1_554 S
C15 C14 1.421 1_655 S
C15 H17 0.931 1_554 S
H16 C5 0.930 . S
H17 C15 0.931 1_556 S
H18 C33 0.930 . S
H19 C40 0.930 . S
H20 C14 0.929 . S
H21 C13 0.930 . S
H22 C36 0.929 . S
H23 C3 0.931 . S
H24 C9 0.931 1_556 S
H25 C10 0.931 . S
H26 C31 0.931 . S
H27 C6 0.929 . S
H28 C39 0.930 . S
N29 Eu0 2.600 . S
N29 C30 1.365 . S
N29 C33 1.319 . S
C30 N29 1.365 . S
C30 C32 1.405 . S
C30 C38 1.448 . S
C31 H26 0.931 . S
C31 C33 1.397 1_565 S
C31 C34 1.367 . S
C32 C30 1.405 . S
C32 C34 1.403 1_545 S
C32 C65 1.439 . S
C33 H18 0.930 . S
C33 N29 1.319 . S
C33 C31 1.397 1_545 S
C34 C31 1.367 . S
C34 C32 1.403 1_565 S
C34 H41 0.929 . S
N35 Eu0 2.562 . S
N35 C36 1.325 . S
N35 C38 1.351 . S
C36 H22 0.929 . S
C36 N35 1.325 . S
C36 C40 1.416 1_556 S
C37 C38 1.430 . S
C37 C39 1.404 1_556 S
C37 C66 1.383 1_556 S
C38 C30 1.448 . S
C38 N35 1.351 . S
C38 C37 1.430 . S
C39 H28 0.930 . S
C39 C37 1.404 1_554 S
C39 C40 1.366 . S
C40 H19 0.930 . S
C40 C36 1.416 1_554 S
C40 C39 1.366 . S
H41 C34 0.929 . S
H42 C65 0.931 1_565 S
H43 C66 0.934 . S
O44 Eu0 2.462 . S
O44 C64 1.252 . S
O45 Eu0 2.373 1_554 S
O45 C56 1.249 . S
O46 Eu11 2.335 . S
O46 C56 1.264 . S
O47 Eu0 2.432 . S
O47 C64 1.268 . S
O48 Eu0 2.291 . S
O48 C63 1.255 1_556 S
O49 Eu11 2.372 . S
O49 C63 1.257 . S
O50 Eu11 2.462 . S
O50 C75 1.252 . S
O51 Eu11 2.373 1_556 S
O51 C67 1.249 . S
O52 Eu0 2.335 . S
O52 C67 1.264 . S
O53 Eu11 2.432 . S
O53 C75 1.268 . S
O54 Eu11 2.291 . S
O54 C74 1.255 1_554 S
O55 Eu0 2.372 . S
O55 C74 1.257 . S
C56 O45 1.249 . S
C56 O46 1.264 . S
C57 C60 1.382 . S
C57 C62 1.390 . S
C57 C64 1.506 . S
C58 C59 1.398 . S
C58 C62 1.392 . S
C59 C58 1.398 . S
C59 C61 1.372 . S
C59 H76 0.931 . S
C60 C57 1.382 . S
C60 C61 1.390 . S
C60 H77 0.931 . S
C61 C59 1.372 . S
C61 C60 1.390 . S
C61 H78 0.929 . S
C62 C57 1.390 . S
C62 C58 1.392 . S
C62 H79 0.930 . S
C63 O48 1.255 1_554 S
C63 O49 1.257 . S
C64 Eu0 2.787 . S
C64 O44 1.252 . S
C64 O47 1.268 . S
C64 C57 1.506 . S
C65 C32 1.439 . S
C65 H42 0.931 1_545 S
C65 C66 1.375 1_556 S
C66 C37 1.383 1_554 S
C66 H43 0.934 . S
C66 C65 1.375 1_554 S
C67 O51 1.249 . S
C67 O52 1.264 . S
C68 C71 1.382 . S
C68 C72 1.390 . S
C68 C75 1.506 . S
C69 C70 1.398 . S
C69 C72 1.392 . S
C70 C69 1.398 . S
C70 C73 1.372 . S
C70 H80 0.931 . S
C71 C68 1.382 . S
C71 C73 1.390 . S
C71 H81 0.931 . S
C72 C68 1.390 . S
C72 C69 1.392 . S
C72 H82 0.930 . S
C73 C70 1.372 . S
C73 C71 1.390 . S
C73 H83 0.929 . S
C74 O54 1.255 1_556 S
C74 O55 1.257 . S
C75 Eu11 2.787 . S
C75 O50 1.252 . S
C75 O53 1.268 . S
C75 C68 1.506 . S
H76 C59 0.931 . S
H77 C60 0.931 . S
H78 C61 0.929 . S
H79 C62 0.930 . S
H80 C70 0.931 . S
H81 C71 0.931 . S
H82 C72 0.930 . S
H83 C73 0.929 . S
Eu84 N113 2.600 . S
Eu84 N119 2.562 . S
Eu84 O128 2.462 . S
Eu84 O129 2.373 1_556 S
Eu84 O131 2.432 . S
Eu84 O132 2.291 . S
Eu84 O136 2.335 . S
Eu84 O139 2.372 . S
Eu84 C148 2.787 . S
C85 N86 1.365 . S
C85 C88 1.405 . S
C85 C92 1.448 . S
N86 C85 1.365 . S
N86 C89 1.319 . S
N86 Eu95 2.600 . S
C87 C89 1.397 1_545 S
C87 C90 1.367 . S
C87 H107 0.931 . S
C88 C85 1.405 . S
C88 C90 1.403 1_565 S
C88 C94 1.439 . S
C89 N86 1.319 . S
C89 C87 1.397 1_565 S
C89 H100 0.930 . S
C90 C87 1.367 . S
C90 C88 1.403 1_545 S
C90 H111 0.929 . S
C91 C92 1.430 . S
C91 C93 1.387 . S
C91 C97 1.404 1_554 S
C92 C85 1.448 . S
C92 C91 1.430 . S
C92 N96 1.351 . S
C93 C91 1.387 . S
C93 C94 1.374 . S
C93 H108 0.931 1_554 S
C94 C88 1.439 . S
C94 C93 1.374 . S
C94 H109 0.931 1_565 S
Eu95 N86 2.600 . S
Eu95 N96 2.562 . S
Eu95 O130 2.335 . S
Eu95 O133 2.372 . S
Eu95 O134 2.462 . S
Eu95 O135 2.373 1_554 S
Eu95 O137 2.432 . S
Eu95 O138 2.291 . S
Eu95 C159 2.787 . S
N96 C92 1.351 . S
N96 Eu95 2.562 . S
N96 C98 1.325 . S
C97 C91 1.404 1_556 S
C97 C99 1.360 1_556 S
C97 H105 0.930 . S
C98 N96 1.325 . S
C98 C99 1.421 . S
C98 H104 0.929 . S
C99 C97 1.360 1_554 S
C99 C98 1.421 . S
C99 H101 0.931 1_554 S
H100 C89 0.930 . S
H101 C99 0.931 1_556 S
H102 C117 0.930 . S
H103 C124 0.930 . S
H104 C98 0.929 . S
H105 C97 0.930 . S
H106 C120 0.929 . S
H107 C87 0.931 . S
H108 C93 0.931 1_556 S
H109 C94 0.931 1_545 S
H110 C115 0.931 . S
H111 C90 0.929 . S
H112 C123 0.930 . S
N113 Eu84 2.600 . S
N113 C114 1.365 . S
N113 C117 1.319 . S
C114 N113 1.365 . S
C114 C116 1.405 . S
C114 C122 1.448 . S
C115 H110 0.931 . S
C115 C117 1.397 . S
C115 C118 1.367 . S
C116 C114 1.405 . S
C116 C118 1.403 . S
C116 C149 1.439 1_655 S
C117 H102 0.930 . S
C117 N113 1.319 . S
C117 C115 1.397 . S
C118 C115 1.367 . S
C118 C116 1.403 . S
C118 H125 0.929 . S
N119 Eu84 2.562 . S
N119 C120 1.325 . S
N119 C122 1.351 . S
C120 H106 0.929 . S
C120 N119 1.325 . S
C120 C124 1.416 1_656 S
C121 C122 1.430 1_455 S
C121 C123 1.404 1_556 S
C121 C150 1.384 1_556 S
C122 C114 1.448 . S
C122 N119 1.351 . S
C122 C121 1.430 1_655 S
C123 H112 0.930 . S
C123 C121 1.404 1_554 S
C123 C124 1.366 . S
C124 H103 0.930 . S
C124 C120 1.416 1_454 S
C124 C123 1.366 . S
H125 C118 0.929 . S
H126 C149 0.931 . S
H127 C150 0.934 . S
O128 Eu84 2.462 . S
O128 C148 1.252 . S
O129 Eu84 2.373 1_554 S
O129 C140 1.249 . S
O130 Eu95 2.335 . S
O130 C140 1.264 . S
O131 Eu84 2.432 . S
O131 C148 1.268 . S
O132 Eu84 2.291 . S
O132 C147 1.255 1_556 S
O133 Eu95 2.372 . S
O133 C147 1.257 . S
O134 Eu95 2.462 . S
O134 C159 1.252 . S
O135 Eu95 2.373 1_556 S
O135 C151 1.249 . S
O136 Eu84 2.335 . S
O136 C151 1.264 . S
O137 Eu95 2.432 . S
O137 C159 1.268 . S
O138 Eu95 2.291 . S
O138 C158 1.255 1_554 S
O139 Eu84 2.372 . S
O139 C158 1.257 . S
C140 O129 1.249 . S
C140 O130 1.264 . S
C141 C144 1.382 . S
C141 C146 1.390 . S
C141 C148 1.506 . S
C142 C143 1.398 . S
C142 C146 1.392 . S
C143 C142 1.398 . S
C143 C145 1.372 . S
C143 H160 0.931 . S
C144 C141 1.382 . S
C144 C145 1.390 . S
C144 H161 0.931 . S
C145 C143 1.372 . S
C145 C144 1.390 . S
C145 H162 0.929 . S
C146 C141 1.390 . S
C146 C142 1.392 . S
C146 H163 0.930 . S
C147 O132 1.255 1_554 S
C147 O133 1.257 . S
C148 Eu84 2.787 . S
C148 O128 1.252 . S
C148 O131 1.268 . S
C148 C141 1.506 . S
C149 C116 1.439 1_455 S
C149 H126 0.931 . S
C149 C150 1.375 1_556 S
C150 C121 1.384 1_554 S
C150 H127 0.934 . S
C150 C149 1.375 1_554 S
C151 O135 1.249 . S
C151 O136 1.264 . S
C152 C155 1.382 . S
C152 C156 1.390 . S
C152 C159 1.506 . S
C153 C154 1.398 . S
C153 C156 1.392 . S
C154 C153 1.398 . S
C154 C157 1.372 . S
C154 H164 0.931 . S
C155 C152 1.382 . S
C155 C157 1.390 . S
C155 H165 0.931 . S
C156 C152 1.390 . S
C156 C153 1.392 . S
C156 H166 0.930 . S
C157 C154 1.372 . S
C157 C155 1.390 . S
C157 H167 0.929 . S
C158 O138 1.255 1_556 S
C158 O139 1.257 . S
C159 Eu95 2.787 . S
C159 O134 1.252 . S
C159 O137 1.268 . S
C159 C152 1.506 . S
H160 C143 0.931 . S
H161 C144 0.931 . S
H162 C145 0.929 . S
H163 C146 0.930 . S
H164 C154 0.931 . S
H165 C155 0.931 . S
H166 C156 0.930 . S
H167 C157 0.929 . S
Eu168 N197 2.600 . S
Eu168 N203 2.562 . S
Eu168 O212 2.462 . S
Eu168 O213 2.373 . S
Eu168 O215 2.432 . S
Eu168 O216 2.291 . S
Eu168 O220 2.335 . S
Eu168 O223 2.372 . S
Eu168 C232 2.787 . S
C169 N170 1.365 . S
C169 C172 1.405 . S
C169 C176 1.448 . S
N170 C169 1.365 . S
N170 C173 1.319 . S
N170 Eu179 2.600 . S
C171 C173 1.397 . S
C171 C174 1.367 . S
C171 H191 0.931 . S
C172 C169 1.405 . S
C172 C174 1.403 . S
C172 C178 1.439 1_455 S
C173 N170 1.319 . S
C173 C171 1.397 . S
C173 H184 0.930 . S
C174 C171 1.367 . S
C174 C172 1.403 . S
C174 H195 0.929 . S
C175 C176 1.430 1_655 S
C175 C177 1.387 . S
C175 C181 1.404 . S
C176 C169 1.448 . S
C176 C175 1.430 1_455 S
C176 N180 1.351 . S
C177 C175 1.387 . S
C177 C178 1.374 . S
C177 H192 0.931 . S
C178 C172 1.439 1_655 S
C178 C177 1.374 . S
C178 H193 0.931 . S
Eu179 N170 2.600 . S
Eu179 N180 2.562 . S
Eu179 O214 2.335 . S
Eu179 O217 2.372 . S
Eu179 O218 2.462 . S
Eu179 O219 2.373 . S
Eu179 O221 2.432 . S
Eu179 O222 2.291 . S
Eu179 C243 2.787 . S
N180 C176 1.351 . S
N180 Eu179 2.562 . S
N180 C182 1.325 . S
C181 C175 1.404 . S
C181 C183 1.366 . S
C181 H189 0.930 . S
C182 N180 1.325 . S
C182 C183 1.416 1_455 S
C182 H188 0.929 . S
C183 C181 1.366 . S
C183 C182 1.416 1_655 S
C183 H185 0.930 . S
H184 C173 0.930 . S
H185 C183 0.930 . S
H186 C201 0.930 . S
H187 C208 0.930 . S
H188 C182 0.929 . S
H189 C181 0.930 . S
H190 C204 0.929 . S
H191 C171 0.931 . S
H192 C177 0.931 . S
H193 C178 0.931 . S
H194 C199 0.931 . S
H195 C174 0.929 . S
H196 C207 0.930 . S
N197 Eu168 2.600 . S
N197 C198 1.365 . S
N197 C201 1.319 . S
C198 N197 1.365 . S
C198 C200 1.405 . S
C198 C206 1.448 . S
C199 H194 0.931 . S
C199 C201 1.397 1_545 S
C199 C202 1.367 . S
C200 C198 1.405 . S
C200 C202 1.403 1_565 S
C200 C233 1.439 . S
C201 H186 0.930 . S
C201 N197 1.319 . S
C201 C199 1.397 1_565 S
C202 C199 1.367 . S
C202 C200 1.403 1_545 S
C202 H209 0.929 . S
N203 Eu168 2.562 . S
N203 C204 1.325 . S
N203 C206 1.351 . S
C204 H190 0.929 . S
C204 N203 1.325 . S
C204 C208 1.416 . S
C205 C206 1.430 . S
C205 C207 1.404 . S
C205 C234 1.387 . S
C206 C198 1.448 . S
C206 N203 1.351 . S
C206 C205 1.430 . S
C207 H196 0.930 . S
C207 C205 1.404 . S
C207 C208 1.366 . S
C208 H187 0.930 . S
C208 C204 1.416 . S
C208 C207 1.366 . S
H209 C202 0.929 . S
H210 C233 0.931 1_545 S
H211 C234 0.931 . S
O212 Eu168 2.462 . S
O212 C232 1.252 . S
O213 Eu168 2.373 . S
O213 C224 1.249 . S
O214 Eu179 2.335 . S
O214 C224 1.264 . S
O215 Eu168 2.432 . S
O215 C232 1.268 . S
O216 Eu168 2.291 . S
O216 C231 1.255 . S
O217 Eu179 2.372 . S
O217 C231 1.257 . S
O218 Eu179 2.462 . S
O218 C243 1.252 . S
O219 Eu179 2.373 . S
O219 C235 1.249 . S
O220 Eu168 2.335 . S
O220 C235 1.264 . S
O221 Eu179 2.432 . S
O221 C243 1.268 . S
O222 Eu179 2.291 . S
O222 C242 1.255 . S
O223 Eu168 2.372 . S
O223 C242 1.257 . S
C224 O213 1.249 . S
C224 O214 1.264 . S
C225 C228 1.382 . S
C225 C230 1.390 . S
C225 C232 1.506 . S
C226 C227 1.398 . S
C226 C230 1.392 . S
C227 C226 1.398 . S
C227 C229 1.372 . S
C227 H244 0.931 . S
C228 C225 1.382 . S
C228 C229 1.390 . S
C228 H245 0.931 . S
C229 C227 1.372 . S
C229 C228 1.390 . S
C229 H246 0.929 . S
C230 C225 1.390 . S
C230 C226 1.392 . S
C230 H247 0.930 . S
C231 O216 1.255 . S
C231 O217 1.257 . S
C232 Eu168 2.787 . S
C232 O212 1.252 . S
C232 O215 1.268 . S
C232 C225 1.506 . S
C233 C200 1.439 . S
C233 H210 0.931 1_565 S
C233 C234 1.374 . S
C234 C205 1.387 . S
C234 H211 0.931 . S
C234 C233 1.374 . S
C235 O219 1.249 . S
C235 O220 1.264 . S
C236 C239 1.382 . S
C236 C240 1.390 . S
C236 C243 1.506 . S
C237 C238 1.398 . S
C237 C240 1.392 . S
C238 C237 1.398 . S
C238 C241 1.372 . S
C238 H248 0.931 . S
C239 C236 1.382 . S
C239 C241 1.390 . S
C239 H249 0.931 . S
C240 C236 1.390 . S
C240 C237 1.392 . S
C240 H250 0.930 . S
C241 C238 1.372 . S
C241 C239 1.390 . S
C241 H251 0.929 . S
C242 O222 1.255 . S
C242 O223 1.257 . S
C243 Eu179 2.787 . S
C243 O218 1.252 . S
C243 O221 1.268 . S
C243 C236 1.506 . S
H244 C227 0.931 . S
H245 C228 0.931 . S
H246 C229 0.929 . S
H247 C230 0.930 . S
H248 C238 0.931 . S
H249 C239 0.931 . S
H250 C240 0.930 . S
H251 C241 0.929 . S
Eu252 N281 2.600 . S
Eu252 N287 2.562 . S
Eu252 O296 2.462 . S
Eu252 O297 2.373 . S
Eu252 O299 2.432 . S
Eu252 O300 2.291 . S
Eu252 O304 2.335 . S
Eu252 O307 2.372 . S
Eu252 C316 2.787 . S
C253 N254 1.365 . S
C253 C256 1.405 . S
C253 C260 1.448 . S
N254 C253 1.365 . S
N254 C257 1.319 . S
N254 Eu263 2.600 . S
C255 C257 1.397 1_565 S
C255 C258 1.367 . S
C255 H275 0.931 . S
C256 C253 1.405 . S
C256 C258 1.403 1_545 S
C256 C262 1.439 . S
C257 N254 1.319 . S
C257 C255 1.397 1_545 S
C257 H268 0.930 . S
C258 C255 1.367 . S
C258 C256 1.403 1_565 S
C258 H279 0.929 . S
C259 C260 1.430 . S
C259 C261 1.387 . S
C259 C265 1.404 . S
C260 C253 1.448 . S
C260 C259 1.430 . S
C260 N264 1.351 . S
C261 C259 1.387 . S
C261 C262 1.374 . S
C261 H276 0.931 . S
C262 C256 1.439 . S
C262 C261 1.374 . S
C262 H277 0.931 1_545 S
Eu263 N254 2.600 . S
Eu263 N264 2.562 . S
Eu263 O298 2.335 . S
Eu263 O301 2.372 . S
Eu263 O302 2.462 . S
Eu263 O303 2.373 . S
Eu263 O305 2.432 . S
Eu263 O306 2.291 . S
Eu263 C327 2.787 . S
N264 C260 1.351 . S
N264 Eu263 2.562 . S
N264 C266 1.325 . S
C265 C259 1.404 . S
C265 C267 1.366 . S
C265 H273 0.930 . S
C266 N264 1.325 . S
C266 C267 1.416 . S
C266 H272 0.929 . S
C267 C265 1.366 . S
C267 C266 1.416 . S
C267 H269 0.930 . S
H268 C257 0.930 . S
H269 C267 0.930 . S
H270 C285 0.930 . S
H271 C292 0.930 . S
H272 C266 0.929 . S
H273 C265 0.930 . S
H274 C288 0.929 . S
H275 C255 0.931 . S
H276 C261 0.931 . S
H277 C262 0.931 1_565 S
H278 C283 0.931 . S
H279 C258 0.929 . S
H280 C291 0.930 . S
N281 Eu252 2.600 . S
N281 C282 1.365 . S
N281 C285 1.319 . S
C282 N281 1.365 . S
C282 C284 1.405 . S
C282 C290 1.448 . S
C283 H278 0.931 . S
C283 C285 1.397 . S
C283 C286 1.367 . S
C284 C282 1.405 . S
C284 C286 1.403 . S
C284 C317 1.439 1_655 S
C285 H270 0.930 . S
C285 N281 1.319 . S
C285 C283 1.397 . S
C286 C283 1.367 . S
C286 C284 1.403 . S
C286 H293 0.929 . S
N287 Eu252 2.562 . S
N287 C288 1.325 . S
N287 C290 1.351 . S
C288 H274 0.929 . S
C288 N287 1.325 . S
C288 C292 1.416 1_655 S
C289 C290 1.430 1_455 S
C289 C291 1.404 . S
C289 C318 1.387 . S
C290 C282 1.448 . S
C290 N287 1.351 . S
C290 C289 1.430 1_655 S
C291 H280 0.930 . S
C291 C289 1.404 . S
C291 C292 1.366 . S
C292 H271 0.930 . S
C292 C288 1.416 1_455 S
C292 C291 1.366 . S
H293 C286 0.929 . S
H294 C317 0.931 . S
H295 C318 0.931 . S
O296 Eu252 2.462 . S
O296 C316 1.252 . S
O297 Eu252 2.373 . S
O297 C308 1.249 . S
O298 Eu263 2.335 . S
O298 C308 1.264 . S
O299 Eu252 2.432 . S
O299 C316 1.268 . S
O300 Eu252 2.291 . S
O300 C315 1.255 . S
O301 Eu263 2.372 . S
O301 C315 1.257 . S
O302 Eu263 2.462 . S
O302 C327 1.252 . S
O303 Eu263 2.373 . S
O303 C319 1.249 . S
O304 Eu252 2.335 . S
O304 C319 1.264 . S
O305 Eu263 2.432 . S
O305 C327 1.268 . S
O306 Eu263 2.291 . S
O306 C326 1.255 . S
O307 Eu252 2.372 . S
O307 C326 1.257 . S
C308 O297 1.249 . S
C308 O298 1.264 . S
C309 C312 1.382 . S
C309 C314 1.390 . S
C309 C316 1.506 . S
C310 C311 1.398 . S
C310 C314 1.392 . S
C311 C310 1.398 . S
C311 C313 1.372 . S
C311 H328 0.931 . S
C312 C309 1.382 . S
C312 C313 1.390 . S
C312 H329 0.931 . S
C313 C311 1.372 . S
C313 C312 1.390 . S
C313 H330 0.929 . S
C314 C309 1.390 . S
C314 C310 1.392 . S
C314 H331 0.930 . S
C315 O300 1.255 . S
C315 O301 1.257 . S
C316 Eu252 2.787 . S
C316 O296 1.252 . S
C316 O299 1.268 . S
C316 C309 1.506 . S
C317 C284 1.439 1_455 S
C317 H294 0.931 . S
C317 C318 1.374 . S
C318 C289 1.387 . S
C318 H295 0.931 . S
C318 C317 1.374 . S
C319 O303 1.249 . S
C319 O304 1.264 . S
C320 C323 1.382 . S
C320 C324 1.390 . S
C320 C327 1.506 . S
C321 C322 1.398 . S
C321 C324 1.392 . S
C322 C321 1.398 . S
C322 C325 1.372 . S
C322 H332 0.931 . S
C323 C320 1.382 . S
C323 C325 1.390 . S
C323 H333 0.931 . S
C324 C320 1.390 . S
C324 C321 1.392 . S
C324 H334 0.930 . S
C325 C322 1.372 . S
C325 C323 1.390 . S
C325 H335 0.929 . S
C326 O306 1.255 . S
C326 O307 1.257 . S
C327 Eu263 2.787 . S
C327 O302 1.252 . S
C327 O305 1.268 . S
C327 C320 1.506 . S
H328 C311 0.931 . S
H329 C312 0.931 . S
H330 C313 0.929 . S
H331 C314 0.930 . S
H332 C322 0.931 . S
H333 C323 0.931 . S
H334 C324 0.930 . S
H335 C325 0.929 . S
H336 C348 0.930 . S
H337 C350 0.930 . S
H338 C351 0.930 . S
H339 C355 0.959 . S
H340 C355 0.959 . S
H341 C355 0.961 . S
H342 C356 0.960 . S
H343 C356 0.961 . S
H344 C356 0.959 . S
H345 C359 0.929 . S
H346 C360 0.931 . S
H347 C362 0.930 . S
C348 H336 0.930 . S
C348 C349 1.399 1_556 S
C348 C353 1.399 . S
C349 C348 1.399 1_554 S
C349 C350 1.376 . S
C350 H337 0.930 . S
C350 C349 1.376 . S
C350 C351 1.388 . S
C351 H338 0.930 . S
C351 C350 1.388 . S
C351 C352 1.390 . S
C352 C351 1.390 . S
C352 C353 1.394 1_554 S
C352 C358 1.465 . S
C353 C348 1.399 . S
C353 C352 1.394 1_556 S
C353 C354 1.516 . S
C354 C353 1.516 . S
C354 C355 1.502 . S
C354 C356 1.561 . S
C354 C357 1.526 . S
C355 H339 0.959 . S
C355 H340 0.959 . S
C355 H341 0.961 . S
C355 C354 1.502 . S
C356 H342 0.960 . S
C356 H343 0.961 . S
C356 H344 0.959 . S
C356 C354 1.561 . S
C357 C354 1.526 . S
C357 C358 1.396 1_556 S
C357 C362 1.390 . S
C358 C352 1.465 . S
C358 C357 1.396 1_554 S
C358 C359 1.399 . S
C359 H345 0.929 . S
C359 C358 1.399 . S
C359 C360 1.385 . S
C360 H346 0.931 . S
C360 C359 1.385 . S
C360 C361 1.389 . S
C361 C360 1.389 . S
C361 C362 1.387 1_554 S
C362 H347 0.930 . S
C362 C357 1.390 . S
C362 C361 1.387 1_556 S
H363 C375 0.930 . S
H364 C377 0.930 . S
H365 C378 0.930 . S
H366 C382 0.959 . S
H367 C382 0.959 . S
H368 C382 0.961 . S
H369 C383 0.960 . S
H370 C383 0.961 . S
H371 C383 0.959 . S
H372 C386 0.929 . S
H373 C387 0.931 . S
H374 C389 0.930 . S
C375 H363 0.930 . S
C375 C376 1.399 . S
C375 C380 1.399 . S
C376 C375 1.399 . S
C376 C377 1.376 . S
C377 H364 0.930 . S
C377 C376 1.376 . S
C377 C378 1.388 . S
C378 H365 0.930 . S
C378 C377 1.388 . S
C378 C379 1.390 . S
C379 C378 1.390 . S
C379 C380 1.394 . S
C379 C385 1.465 . S
C380 C375 1.399 . S
C380 C379 1.394 . S
C380 C381 1.516 . S
C381 C380 1.516 . S
C381 C382 1.502 . S
C381 C383 1.561 . S
C381 C384 1.526 . S
C382 H366 0.959 . S
C382 H367 0.959 . S
C382 H368 0.961 . S
C382 C381 1.502 . S
C383 H369 0.960 . S
C383 H370 0.961 . S
C383 H371 0.959 . S
C383 C381 1.561 . S
C384 C381 1.526 . S
C384 C385 1.396 . S
C384 C389 1.390 . S
C385 C379 1.465 . S
C385 C384 1.396 . S
C385 C386 1.399 . S
C386 H372 0.929 . S
C386 C385 1.399 . S
C386 C387 1.385 . S
C387 H373 0.931 . S
C387 C386 1.385 . S
C387 C388 1.389 . S
C388 C387 1.389 . S
C388 C389 1.387 . S
C389 H374 0.930 . S
C389 C384 1.390 . S
C389 C388 1.387 . S
H390 C402 0.930 . S
H391 C404 0.930 . S
H392 C405 0.930 . S
H393 C409 0.959 . S
H394 C409 0.959 1_565 S
H395 C409 0.961 . S
H396 C410 0.960 . S
H397 C410 0.961 1_655 S
H398 C410 0.959 . S
H399 C413 0.929 . S
H400 C414 0.931 . S
H401 C416 0.930 . S
C402 H390 0.930 . S
C402 C403 1.399 1_556 S
C402 C407 1.399 . S
C403 C402 1.399 1_554 S
C403 C404 1.376 . S
C404 H391 0.930 . S
C404 C403 1.376 . S
C404 C405 1.388 . S
C405 H392 0.930 . S
C405 C404 1.388 . S
C405 C406 1.390 . S
C406 C405 1.390 . S
C406 C407 1.394 1_554 S
C406 C412 1.465 1_445 S
C407 C402 1.399 . S
C407 C406 1.394 1_556 S
C407 C408 1.516 1_445 S
C408 C407 1.516 1_665 S
C408 C409 1.502 1_565 S
C408 C410 1.561 1_655 S
C408 C411 1.526 . S
C409 H393 0.959 . S
C409 H394 0.959 1_545 S
C409 H395 0.961 . S
C409 C408 1.502 1_545 S
C410 H396 0.960 . S
C410 H397 0.961 1_455 S
C410 H398 0.959 . S
C410 C408 1.561 1_455 S
C411 C408 1.526 . S
C411 C412 1.396 1_556 S
C411 C416 1.390 . S
C412 C406 1.465 1_665 S
C412 C411 1.396 1_554 S
C412 C413 1.399 . S
C413 H399 0.929 . S
C413 C412 1.399 . S
C413 C414 1.385 . S
C414 H400 0.931 . S
C414 C413 1.385 . S
C414 C415 1.389 . S
C415 C414 1.389 . S
C415 C416 1.387 1_554 S
C416 H401 0.930 . S
C416 C411 1.390 . S
C416 C415 1.387 1_556 S
H417 C429 0.930 . S
H418 C431 0.930 . S
H419 C432 0.930 . S
H420 C436 0.959 . S
H421 C436 0.959 . S
H422 C436 0.961 . S
H423 C437 0.960 1_545 S
H424 C437 0.961 . S
H425 C437 0.959 1_545 S
H426 C440 0.929 1_545 S
H427 C441 0.931 . S
H428 C443 0.930 . S
C429 H417 0.930 . S
C429 C430 1.399 . S
C429 C434 1.399 . S
C430 C429 1.399 . S
C430 C431 1.376 . S
C431 H418 0.930 . S
C431 C430 1.376 . S
C431 C432 1.388 . S
C432 H419 0.930 . S
C432 C431 1.388 . S
C432 C433 1.390 . S
C433 C432 1.390 . S
C433 C434 1.394 . S
C433 C439 1.465 1_645 S
C434 C429 1.399 . S
C434 C433 1.394 . S
C434 C435 1.516 1_545 S
C435 C434 1.516 1_565 S
C435 C436 1.502 . S
C435 C437 1.561 1_655 S
C435 C438 1.526 1_655 S
C436 H420 0.959 . S
C436 H421 0.959 . S
C436 H422 0.961 . S
C436 C435 1.502 . S
C437 H423 0.960 1_565 S
C437 H424 0.961 . S
C437 H425 0.959 1_565 S
C437 C435 1.561 1_455 S
C438 C435 1.526 1_455 S
C438 C439 1.396 . S
C438 C443 1.390 . S
C439 C433 1.465 1_465 S
C439 C438 1.396 . S
C439 C440 1.399 . S
C440 H426 0.929 1_565 S
C440 C439 1.399 . S
C440 C441 1.385 . S
C441 H427 0.931 . S
C441 C440 1.385 . S
C441 C442 1.389 . S
C442 C441 1.389 . S
C442 C443 1.387 . S
C443 H428 0.930 . S
C443 C438 1.390 . S
C443 C442 1.387 . S
H444 C456 0.930 . S
H445 C458 0.930 . S
H446 C459 0.930 . S
H447 C463 0.959 . S
H448 C463 0.959 . S
H449 C463 0.961 . S
H450 C464 0.960 . S
H451 C464 0.961 . S
H452 C464 0.959 . S
H453 C467 0.929 . S
H454 C468 0.931 . S
H455 C470 0.930 . S
C456 H444 0.930 . S
C456 C457 1.399 . S
C456 C461 1.399 . S
C457 C456 1.399 . S
C457 C458 1.376 . S
C458 H445 0.930 . S
C458 C457 1.376 . S
C458 C459 1.388 . S
C459 H446 0.930 . S
C459 C458 1.388 . S
C459 C460 1.390 . S
C460 C459 1.390 . S
C460 C461 1.394 . S
C460 C466 1.465 . S
C461 C456 1.399 . S
C461 C460 1.394 . S
C461 C462 1.516 . S
C462 C461 1.516 . S
C462 C463 1.502 . S
C462 C464 1.561 . S
C462 C465 1.526 . S
C463 H447 0.959 . S
C463 H448 0.959 . S
C463 H449 0.961 . S
C463 C462 1.502 . S
C464 H450 0.960 . S
C464 H451 0.961 . S
C464 H452 0.959 . S
C464 C462 1.561 . S
C465 C462 1.526 . S
C465 C466 1.396 . S
C465 C470 1.390 . S
C466 C460 1.465 . S
C466 C465 1.396 . S
C466 C467 1.399 . S
C467 H453 0.929 . S
C467 C466 1.399 . S
C467 C468 1.385 . S
C468 H454 0.931 . S
C468 C467 1.385 . S
C468 C469 1.389 . S
C469 C468 1.389 . S
C469 C470 1.387 . S
C470 H455 0.930 . S
C470 C465 1.390 . S
C470 C469 1.387 . S
H471 C483 0.930 . S
H472 C485 0.930 . S
H473 C486 0.930 . S
H474 C490 0.959 . S
H475 C490 0.959 . S
H476 C490 0.961 . S
H477 C491 0.960 . S
H478 C491 0.961 . S
H479 C491 0.959 . S
H480 C494 0.929 . S
H481 C495 0.931 . S
H482 C497 0.930 . S
C483 H471 0.930 . S
C483 C484 1.399 . S
C483 C488 1.399 . S
C484 C483 1.399 . S
C484 C485 1.376 . S
C485 H472 0.930 . S
C485 C484 1.376 . S
C485 C486 1.388 . S
C486 H473 0.930 . S
C486 C485 1.388 . S
C486 C487 1.390 . S
C487 C486 1.390 . S
C487 C488 1.394 . S
C487 C493 1.465 . S
C488 C483 1.399 . S
C488 C487 1.394 . S
C488 C489 1.516 . S
C489 C488 1.516 . S
C489 C490 1.502 . S
C489 C491 1.561 . S
C489 C492 1.526 . S
C490 H474 0.959 . S
C490 H475 0.959 . S
C490 H476 0.961 . S
C490 C489 1.502 . S
C491 H477 0.960 . S
C491 H478 0.961 . S
C491 H479 0.959 . S
C491 C489 1.561 . S
C492 C489 1.526 . S
C492 C493 1.396 . S
C492 C497 1.390 . S
C493 C487 1.465 . S
C493 C492 1.396 . S
C493 C494 1.399 . S
C494 H480 0.929 . S
C494 C493 1.399 . S
C494 C495 1.385 . S
C495 H481 0.931 . S
C495 C494 1.385 . S
C495 C496 1.389 . S
C496 C495 1.389 . S
C496 C497 1.387 . S
C497 H482 0.930 . S
C497 C492 1.390 . S
C497 C496 1.387 . S
H498 C510 0.930 . S
H499 C512 0.930 . S
H500 C513 0.930 . S
H501 C517 0.959 . S
H502 C517 0.959 . S
H503 C517 0.961 . S
H504 C518 0.960 . S
H505 C518 0.961 . S
H506 C518 0.959 . S
H507 C521 0.929 . S
H508 C522 0.931 . S
H509 C524 0.930 . S
C510 H498 0.930 . S
C510 C511 1.399 . S
C510 C515 1.399 . S
C511 C510 1.399 . S
C511 C512 1.376 . S
C512 H499 0.930 . S
C512 C511 1.376 . S
C512 C513 1.388 . S
C513 H500 0.930 . S
C513 C512 1.388 . S
C513 C514 1.390 . S
C514 C513 1.390 . S
C514 C515 1.394 . S
C514 C520 1.465 . S
C515 C510 1.399 . S
C515 C514 1.394 . S
C515 C516 1.516 . S
C516 C515 1.516 . S
C516 C517 1.502 . S
C516 C518 1.561 . S
C516 C519 1.526 . S
C517 H501 0.959 . S
C517 H502 0.959 . S
C517 H503 0.961 . S
C517 C516 1.502 . S
C518 H504 0.960 . S
C518 H505 0.961 . S
C518 H506 0.959 . S
C518 C516 1.561 . S
C519 C516 1.526 . S
C519 C520 1.396 . S
C519 C524 1.390 . S
C520 C514 1.465 . S
C520 C519 1.396 . S
C520 C521 1.399 . S
C521 H507 0.929 . S
C521 C520 1.399 . S
C521 C522 1.385 . S
C522 H508 0.931 . S
C522 C521 1.385 . S
C522 C523 1.389 . S
C523 C522 1.389 . S
C523 C524 1.387 . S
C524 H509 0.930 . S
C524 C519 1.390 . S
C524 C523 1.387 . S
H525 C537 0.930 . S
H526 C539 0.930 . S
H527 C540 0.930 . S
H528 C544 0.959 . S
H529 C544 0.959 . S
H530 C544 0.961 . S
H531 C545 0.960 . S
H532 C545 0.961 . S
H533 C545 0.959 . S
H534 C548 0.929 . S
H535 C549 0.931 . S
H536 C551 0.930 . S
C537 H525 0.930 . S
C537 C538 1.399 . S
C537 C542 1.399 . S
C538 C537 1.399 . S
C538 C539 1.376 . S
C539 H526 0.930 . S
C539 C538 1.376 . S
C539 C540 1.388 . S
C540 H527 0.930 . S
C540 C539 1.388 . S
C540 C541 1.390 . S
C541 C540 1.390 . S
C541 C542 1.394 . S
C541 C547 1.465 . S
C542 C537 1.399 . S
C542 C541 1.394 . S
C542 C543 1.516 . S
C543 C542 1.516 . S
C543 C544 1.502 . S
C543 C545 1.561 . S
C543 C546 1.526 . S
C544 H528 0.959 . S
C544 H529 0.959 . S
C544 H530 0.961 . S
C544 C543 1.502 . S
C545 H531 0.960 . S
C545 H532 0.961 . S
C545 H533 0.959 . S
C545 C543 1.561 . S
C546 C543 1.526 . S
C546 C547 1.396 . S
C546 C551 1.390 . S
C547 C541 1.465 . S
C547 C546 1.396 . S
C547 C548 1.399 . S
C548 H534 0.929 . S
C548 C547 1.399 . S
C548 C549 1.385 . S
C549 H535 0.931 . S
C549 C548 1.385 . S
C549 C550 1.389 . S
C550 C549 1.389 . S
C550 C551 1.387 . S
C551 H536 0.930 . S
C551 C546 1.390 . S
C551 C550 1.387 . S
H552 C564 0.930 . S
H553 C566 0.930 . S
H554 C567 0.930 . S
H555 C571 0.959 . S
H556 C571 0.959 . S
H557 C571 0.961 . S
H558 C572 0.960 . S
H559 C572 0.961 1_455 S
H560 C572 0.959 . S
H561 C575 0.929 . S
H562 C576 0.931 . S
H563 C578 0.930 . S
C564 H552 0.930 . S
C564 C565 1.399 . S
C564 C569 1.399 . S
C565 C564 1.399 . S
C565 C566 1.376 . S
C566 H553 0.930 . S
C566 C565 1.376 . S
C566 C567 1.388 . S
C567 H554 0.930 . S
C567 C566 1.388 . S
C567 C568 1.390 . S
C568 C567 1.390 . S
C568 C569 1.394 . S
C568 C574 1.465 . S
C569 C564 1.399 . S
C569 C568 1.394 . S
C569 C570 1.516 . S
C570 C569 1.516 . S
C570 C571 1.502 1_655 S
C570 C572 1.561 . S
C570 C573 1.526 . S
C571 H555 0.959 . S
C571 H556 0.959 . S
C571 H557 0.961 . S
C571 C570 1.502 1_455 S
C572 H558 0.960 . S
C572 H559 0.961 1_655 S
C572 H560 0.959 . S
C572 C570 1.561 . S
C573 C570 1.526 . S
C573 C574 1.396 . S
C573 C578 1.390 1_655 S
C574 C568 1.465 . S
C574 C573 1.396 . S
C574 C575 1.399 . S
C575 H561 0.929 . S
C575 C574 1.399 . S
C575 C576 1.385 . S
C576 H562 0.931 . S
C576 C575 1.385 . S
C576 C577 1.389 . S
C577 C576 1.389 . S
C577 C578 1.387 1_655 S
C578 H563 0.930 . S
C578 C573 1.390 1_455 S
C578 C577 1.387 1_455 S
H579 C591 0.930 . S
H580 C593 0.930 . S
H581 C594 0.930 . S
H582 C598 0.959 . S
H583 C598 0.959 . S
H584 C598 0.961 . S
H585 C599 0.960 . S
H586 C599 0.961 . S
H587 C599 0.959 1_455 S
H588 C602 0.929 1_455 S
H589 C603 0.931 . S
H590 C605 0.930 . S
C591 H579 0.930 . S
C591 C592 1.399 . S
C591 C596 1.399 . S
C592 C591 1.399 . S
C592 C593 1.376 . S
C593 H580 0.930 . S
C593 C592 1.376 . S
C593 C594 1.388 . S
C594 H581 0.930 . S
C594 C593 1.388 . S
C594 C595 1.390 . S
C595 C594 1.390 . S
C595 C596 1.394 . S
C595 C601 1.465 . S
C596 C591 1.399 . S
C596 C595 1.394 . S
C596 C597 1.516 . S
C597 C596 1.516 . S
C597 C598 1.502 . S
C597 C599 1.561 . S
C597 C600 1.526 . S
C598 H582 0.959 . S
C598 H583 0.959 . S
C598 H584 0.961 . S
C598 C597 1.502 . S
C599 H585 0.960 . S
C599 H586 0.961 . S
C599 H587 0.959 1_655 S
C599 C597 1.561 . S
C600 C597 1.526 . S
C600 C601 1.396 . S
C600 C605 1.390 . S
C601 C595 1.465 . S
C601 C600 1.396 . S
C601 C602 1.399 . S
C602 H588 0.929 1_655 S
C602 C601 1.399 . S
C602 C603 1.385 1_655 S
C603 H589 0.931 . S
C603 C602 1.385 1_455 S
C603 C604 1.389 . S
C604 C603 1.389 . S
C604 C605 1.387 1_455 S
C605 H590 0.930 . S
C605 C600 1.390 . S
C605 C604 1.387 1_655 S
H606 C618 0.925 1_655 S
H607 C620 0.930 . S
H608 C621 0.930 . S
H609 C625 0.959 . S
H610 C625 0.959 . S
H611 C625 0.961 . S
H612 C626 0.960 . S
H613 C626 0.961 . S
H614 C626 0.959 . S
H615 C629 0.929 . S
H616 C630 0.931 . S
H617 C632 0.930 . S
C618 H606 0.925 1_455 S
C618 C619 1.400 . S
C618 C623 1.403 . S
C619 C618 1.400 . S
C619 C620 1.376 . S
C620 H607 0.930 . S
C620 C619 1.376 . S
C620 C621 1.388 . S
C621 H608 0.930 . S
C621 C620 1.388 . S
C621 C622 1.390 . S
C622 C621 1.390 . S
C622 C623 1.394 . S
C622 C628 1.465 . S
C623 C618 1.403 . S
C623 C622 1.394 . S
C623 C624 1.516 . S
C624 C623 1.516 . S
C624 C625 1.502 1_455 S
C624 C626 1.561 . S
C624 C627 1.526 . S
C625 H609 0.959 . S
C625 H610 0.959 . S
C625 H611 0.961 . S
C625 C624 1.502 1_655 S
C626 H612 0.960 . S
C626 H613 0.961 . S
C626 H614 0.959 . S
C626 C624 1.561 . S
C627 C624 1.526 . S
C627 C628 1.396 . S
C627 C632 1.390 . S
C628 C622 1.465 . S
C628 C627 1.396 . S
C628 C629 1.399 . S
C629 H615 0.929 . S
C629 C628 1.399 . S
C629 C630 1.385 . S
C630 H616 0.931 . S
C630 C629 1.385 . S
C630 C631 1.389 . S
C631 C630 1.389 . S
C631 C632 1.387 . S
C632 H617 0.930 . S
C632 C627 1.390 . S
C632 C631 1.387 . S
H633 C645 0.930 . S
H634 C647 0.930 . S
H635 C648 0.930 1_655 S
H636 C652 0.959 . S
H637 C652 0.959 . S
H638 C652 0.961 . S
H639 C653 0.960 . S
H640 C653 0.961 . S
H641 C653 0.959 . S
H642 C656 0.929 . S
H643 C657 0.931 . S
H644 C659 0.930 . S
C645 H633 0.930 . S
C645 C646 1.399 . S
C645 C650 1.399 . S
C646 C645 1.399 . S
C646 C647 1.376 . S
C647 H634 0.930 . S
C647 C646 1.376 . S
C647 C648 1.388 . S
C648 H635 0.930 1_455 S
C648 C647 1.388 . S
C648 C649 1.390 . S
C649 C648 1.390 . S
C649 C650 1.394 . S
C649 C655 1.465 . S
C650 C645 1.399 . S
C650 C649 1.394 . S
C650 C651 1.516 . S
C651 C650 1.516 . S
C651 C652 1.502 . S
C651 C653 1.561 . S
C651 C654 1.526 . S
C652 H636 0.959 . S
C652 H637 0.959 . S
C652 H638 0.961 . S
C652 C651 1.502 . S
C653 H639 0.960 . S
C653 H640 0.961 . S
C653 H641 0.959 . S
C653 C651 1.561 . S
C654 C651 1.526 . S
C654 C655 1.396 . S
C654 C659 1.390 . S
C655 C649 1.465 . S
C655 C654 1.396 . S
C655 C656 1.399 1_455 S
C656 H642 0.929 . S
C656 C655 1.399 1_655 S
C656 C657 1.385 . S
C657 H643 0.931 . S
C657 C656 1.385 . S
C657 C658 1.389 . S
C658 C657 1.389 . S
C658 C659 1.387 1_655 S
C659 H644 0.930 . S
C659 C654 1.390 . S
C659 C658 1.387 1_455 S
C349 C158 1.524 1_554 S
C361 C63 1.482 . S
C376 C231 1.508 . S
C388 C326 1.494 . S
C403 C74 1.527 1_554 S
C415 C147 1.481 . S
C430 C315 1.513 . S
C442 C242 1.490 . S
C457 C321 1.175 . S
C469 C56 1.305 . S
C484 C153 1.283 . S
C496 C224 1.306 . S
C511 C151 1.313 . S
C523 C226 1.175 . S
C538 C319 1.289 . S
C550 C58 1.257 . S
C565 C140 1.290 . S
C577 C237 1.228 1_655 S
C592 C308 1.328 . S
C604 C69 1.274 . S
C619 C310 1.217 1_455 S
C631 C67 1.292 . S
C646 C235 1.329 . S
C658 C142 1.217 . S
