# Generated by pormake.
# Topology wjr, (5)-cn, num edge types: 1
# Building blocks:
#     Node 0, Type 0, BuildingBlock: XOMCOT_clean_sbu_0, # of connection points: 5
#     Node 1, Type 0, BuildingBlock: XOMCOT_clean_sbu_0, # of connection points: 5
#     Node 2, Type 0, BuildingBlock: XOMCOT_clean_sbu_0, # of connection points: 5
#     Node 3, Type 0, BuildingBlock: XOMCOT_clean_sbu_0, # of connection points: 5
#     Node 4, Type 0, BuildingBlock: XOMCOT_clean_sbu_0, # of connection points: 5
#     Node 5, Type 0, BuildingBlock: XOMCOT_clean_sbu_0, # of connection points: 5
#     Node 6, Type 0, BuildingBlock: XOMCOT_clean_sbu_0, # of connection points: 5
#     Node 7, Type 0, BuildingBlock: XOMCOT_clean_sbu_0, # of connection points: 5
#     Node 8, Type 0, BuildingBlock: XOMCOT_clean_sbu_0, # of connection points: 5
#     Node 9, Type 0, BuildingBlock: XOMCOT_clean_sbu_0, # of connection points: 5
#     Node 10, Type 0, BuildingBlock: XOMCOT_clean_sbu_0, # of connection points: 5
#     Node 11, Type 0, BuildingBlock: XOMCOT_clean_sbu_0, # of connection points: 5
#     Node 12, Type 0, BuildingBlock: XOMCOT_clean_sbu_0, # of connection points: 5
#     Node 13, Type 0, BuildingBlock: XOMCOT_clean_sbu_0, # of connection points: 5
#     Node 14, Type 0, BuildingBlock: XOMCOT_clean_sbu_0, # of connection points: 5
#     Node 15, Type 0, BuildingBlock: XOMCOT_clean_sbu_0, # of connection points: 5
#     Node 16, Type 0, BuildingBlock: XOMCOT_clean_sbu_0, # of connection points: 5
#     Node 17, Type 0, BuildingBlock: XOMCOT_clean_sbu_0, # of connection points: 5
#     Node 18, Type 0, BuildingBlock: XOMCOT_clean_sbu_0, # of connection points: 5
#     Node 19, Type 0, BuildingBlock: XOMCOT_clean_sbu_0, # of connection points: 5
#     Node 20, Type 0, BuildingBlock: XOMCOT_clean_sbu_0, # of connection points: 5
#     Node 21, Type 0, BuildingBlock: XOMCOT_clean_sbu_0, # of connection points: 5
#     Node 22, Type 0, BuildingBlock: XOMCOT_clean_sbu_0, # of connection points: 5
#     Node 23, Type 0, BuildingBlock: XOMCOT_clean_sbu_0, # of connection points: 5
#     Edge 24, Type (0, 0), BuildingBlock: XUDNAN_clean_linker_2, # of connection points: 2
#     Edge 25, Type (0, 0), BuildingBlock: XUDNAN_clean_linker_2, # of connection points: 2
#     Edge 26, Type (0, 0), BuildingBlock: XUDNAN_clean_linker_2, # of connection points: 2
#     Edge 27, Type (0, 0), BuildingBlock: XUDNAN_clean_linker_2, # of connection points: 2
#     Edge 28, Type (0, 0), BuildingBlock: XUDNAN_clean_linker_2, # of connection points: 2
#     Edge 29, Type (0, 0), BuildingBlock: XUDNAN_clean_linker_2, # of connection points: 2
#     Edge 30, Type (0, 0), BuildingBlock: XUDNAN_clean_linker_2, # of connection points: 2
#     Edge 31, Type (0, 0), BuildingBlock: XUDNAN_clean_linker_2, # of connection points: 2
#     Edge 32, Type (0, 0), BuildingBlock: XUDNAN_clean_linker_2, # of connection points: 2
#     Edge 33, Type (0, 0), BuildingBlock: XUDNAN_clean_linker_2, # of connection points: 2
#     Edge 34, Type (0, 0), BuildingBlock: XUDNAN_clean_linker_2, # of connection points: 2
#     Edge 35, Type (0, 0), BuildingBlock: XUDNAN_clean_linker_2, # of connection points: 2
#     Edge 36, Type (0, 0), BuildingBlock: XUDNAN_clean_linker_2, # of connection points: 2
#     Edge 37, Type (0, 0), BuildingBlock: XUDNAN_clean_linker_2, # of connection points: 2
#     Edge 38, Type (0, 0), BuildingBlock: XUDNAN_clean_linker_2, # of connection points: 2
#     Edge 39, Type (0, 0), BuildingBlock: XUDNAN_clean_linker_2, # of connection points: 2
#     Edge 40, Type (0, 0), BuildingBlock: XUDNAN_clean_linker_2, # of connection points: 2
#     Edge 41, Type (0, 0), BuildingBlock: XUDNAN_clean_linker_2, # of connection points: 2
#     Edge 42, Type (0, 0), BuildingBlock: XUDNAN_clean_linker_2, # of connection points: 2
#     Edge 43, Type (0, 0), BuildingBlock: XUDNAN_clean_linker_2, # of connection points: 2
#     Edge 44, Type (0, 0), BuildingBlock: XUDNAN_clean_linker_2, # of connection points: 2
#     Edge 45, Type (0, 0), BuildingBlock: XUDNAN_clean_linker_2, # of connection points: 2
#     Edge 46, Type (0, 0), BuildingBlock: XUDNAN_clean_linker_2, # of connection points: 2
#     Edge 47, Type (0, 0), BuildingBlock: XUDNAN_clean_linker_2, # of connection points: 2
#     Edge 48, Type (0, 0), BuildingBlock: XUDNAN_clean_linker_2, # of connection points: 2
#     Edge 49, Type (0, 0), BuildingBlock: XUDNAN_clean_linker_2, # of connection points: 2
#     Edge 50, Type (0, 0), BuildingBlock: XUDNAN_clean_linker_2, # of connection points: 2
#     Edge 51, Type (0, 0), BuildingBlock: XUDNAN_clean_linker_2, # of connection points: 2
#     Edge 52, Type (0, 0), BuildingBlock: XUDNAN_clean_linker_2, # of connection points: 2
#     Edge 53, Type (0, 0), BuildingBlock: XUDNAN_clean_linker_2, # of connection points: 2
#     Edge 54, Type (0, 0), BuildingBlock: XUDNAN_clean_linker_2, # of connection points: 2
#     Edge 55, Type (0, 0), BuildingBlock: XUDNAN_clean_linker_2, # of connection points: 2
#     Edge 56, Type (0, 0), BuildingBlock: XUDNAN_clean_linker_2, # of connection points: 2
#     Edge 57, Type (0, 0), BuildingBlock: XUDNAN_clean_linker_2, # of connection points: 2
#     Edge 58, Type (0, 0), BuildingBlock: XUDNAN_clean_linker_2, # of connection points: 2
#     Edge 59, Type (0, 0), BuildingBlock: XUDNAN_clean_linker_2, # of connection points: 2
#     Edge 60, Type (0, 0), BuildingBlock: XUDNAN_clean_linker_2, # of connection points: 2
#     Edge 61, Type (0, 0), BuildingBlock: XUDNAN_clean_linker_2, # of connection points: 2
#     Edge 62, Type (0, 0), BuildingBlock: XUDNAN_clean_linker_2, # of connection points: 2
#     Edge 63, Type (0, 0), BuildingBlock: XUDNAN_clean_linker_2, # of connection points: 2
#     Edge 64, Type (0, 0), BuildingBlock: XUDNAN_clean_linker_2, # of connection points: 2
#     Edge 65, Type (0, 0), BuildingBlock: XUDNAN_clean_linker_2, # of connection points: 2
#     Edge 66, Type (0, 0), BuildingBlock: XUDNAN_clean_linker_2, # of connection points: 2
#     Edge 67, Type (0, 0), BuildingBlock: XUDNAN_clean_linker_2, # of connection points: 2
#     Edge 68, Type (0, 0), BuildingBlock: XUDNAN_clean_linker_2, # of connection points: 2
#     Edge 69, Type (0, 0), BuildingBlock: XUDNAN_clean_linker_2, # of connection points: 2
#     Edge 70, Type (0, 0), BuildingBlock: XUDNAN_clean_linker_2, # of connection points: 2
#     Edge 71, Type (0, 0), BuildingBlock: XUDNAN_clean_linker_2, # of connection points: 2
#     Edge 72, Type (0, 0), BuildingBlock: XUDNAN_clean_linker_2, # of connection points: 2
#     Edge 73, Type (0, 0), BuildingBlock: XUDNAN_clean_linker_2, # of connection points: 2
#     Edge 74, Type (0, 0), BuildingBlock: XUDNAN_clean_linker_2, # of connection points: 2
#     Edge 75, Type (0, 0), BuildingBlock: XUDNAN_clean_linker_2, # of connection points: 2
#     Edge 76, Type (0, 0), BuildingBlock: XUDNAN_clean_linker_2, # of connection points: 2
#     Edge 77, Type (0, 0), BuildingBlock: XUDNAN_clean_linker_2, # of connection points: 2
#     Edge 78, Type (0, 0), BuildingBlock: XUDNAN_clean_linker_2, # of connection points: 2
#     Edge 79, Type (0, 0), BuildingBlock: XUDNAN_clean_linker_2, # of connection points: 2
#     Edge 80, Type (0, 0), BuildingBlock: XUDNAN_clean_linker_2, # of connection points: 2
#     Edge 81, Type (0, 0), BuildingBlock: XUDNAN_clean_linker_2, # of connection points: 2
#     Edge 82, Type (0, 0), BuildingBlock: XUDNAN_clean_linker_2, # of connection points: 2
#     Edge 83, Type (0, 0), BuildingBlock: XUDNAN_clean_linker_2, # of connection points: 2
# Relax obj value: 0.387
# Max RMSD: 0.201
# Mean RMSD: 0.201
data_MOF--net-wjr--node1-XOMCOT_clean_sbu_0--edge1-XUDNAN_clean_linker_2
_symmetry_space_group_name_H-M    P1
_symmetry_Int_Tables_number       1
_symmetry_cell_setting            triclinic
loop_
_symmetry_equiv_pos_as_xyz
'x, y, z'
_cell_length_a     65.293562
_cell_length_b     65.345921
_cell_length_c     51.200133
_cell_angle_alpha  90.029678
_cell_angle_beta   90.013036
_cell_angle_gamma 119.95548
loop_
_atom_site_label
_atom_site_type_symbol
_atom_site_fract_x
_atom_site_fract_y
_atom_site_fract_z
_atom_type_partial_charge
Co0 Co 0.47105 0.11449 0.19097 0.0
C1 C 0.45933 0.15145 0.20774 0.0
C2 C 0.44634 0.12169 0.23372 0.0
C3 C 0.4402 0.13733 0.2437 0.0
N4 N 0.45803 0.13029 0.21107 0.0
N5 N 0.44844 0.15599 0.22752 0.0
H6 H 0.46774 0.16307 0.19132 0.0
H7 H 0.44271 0.1052 0.24257 0.0
C8 C 0.43175 0.06195 0.1933 0.0
O9 O 0.43841 0.05573 0.17197 0.0
N10 N 0.4848 0.09885 0.17149 0.0
C11 C 0.49618 0.10602 0.14843 0.0
C12 C 0.50314 0.09037 0.14066 0.0
C13 C 0.48647 0.07974 0.17826 0.0
N14 N 0.49679 0.07374 0.15925 0.0
C15 C 0.47185 0.1391 0.14425 0.0
C16 C 0.43509 0.10052 0.1201 0.0
C17 C 0.45175 0.119 0.10452 0.0
C18 C 0.46926 0.13929 0.11707 0.0
C19 C 0.43835 0.10108 0.1471 0.0
N20 N 0.45798 0.11914 0.15848 0.0
H21 H 0.48686 0.154 0.15317 0.0
H22 H 0.42573 0.08622 0.15822 0.0
H23 H 0.49922 0.12144 0.13766 0.0
H24 H 0.47888 0.06953 0.19584 0.0
O25 O 0.50191 0.14289 0.1906 0.0
O26 O 0.48878 0.11508 0.22105 0.0
O27 O 0.44145 0.08361 0.20031 0.0
C28 C 0.50587 0.13488 0.21215 0.0
H29 H 0.43039 0.13524 0.2615 0.0
H30 H 0.51132 0.09055 0.1222 0.0
H31 H 0.42046 0.08501 0.11132 0.0
H32 H 0.48224 0.15424 0.10591 0.0
Co33 Co 0.36038 0.4726 0.19304 0.0
C34 C 0.31149 0.45869 0.21243 0.0
C35 C 0.32956 0.44582 0.23639 0.0
C36 C 0.30824 0.43964 0.24788 0.0
N37 N 0.33145 0.45717 0.21369 0.0
N38 N 0.2971 0.44795 0.23295 0.0
H39 H 0.30751 0.46777 0.1975 0.0
H40 H 0.34311 0.44283 0.24453 0.0
C41 C 0.35196 0.42335 0.2009 0.0
O42 O 0.33025 0.41501 0.19233 0.0
N43 N 0.38942 0.48851 0.1734 0.0
C44 C 0.39374 0.50349 0.15337 0.0
C45 C 0.41579 0.51027 0.14351 0.0
C46 C 0.40894 0.48656 0.17575 0.0
N47 N 0.42527 0.49959 0.15756 0.0
C48 C 0.33077 0.46821 0.15 0.0
C49 C 0.34691 0.44583 0.11705 0.0
C50 C 0.33471 0.45643 0.10631 0.0
C51 C 0.3255 0.46652 0.12345 0.0
C52 C 0.35143 0.44749 0.14401 0.0
N53 N 0.344 0.45926 0.1601 0.0
H54 H 0.32647 0.47923 0.16164 0.0
H55 H 0.36316 0.44162 0.15126 0.0
H56 H 0.3815 0.50875 0.14611 0.0
H57 H 0.41086 0.47532 0.18987 0.0
O58 O 0.35927 0.50169 0.19311 0.0
O59 O 0.37652 0.49095 0.22323 0.0
O60 O 0.36638 0.44557 0.20042 0.0
C61 C 0.37156 0.50667 0.21454 0.0
H62 H 0.30153 0.43008 0.26602 0.0
H63 H 0.42415 0.52204 0.12717 0.0
H64 H 0.35469 0.43814 0.10457 0.0
H65 H 0.31578 0.47477 0.11616 0.0
Co66 Co 0.88812 0.36276 0.18946 0.0
C67 C 0.85087 0.31492 0.20539 0.0
C68 C 0.87998 0.32939 0.23203 0.0
C69 C 0.86218 0.3087 0.24242 0.0
N70 N 0.87314 0.33308 0.20845 0.0
N71 N 0.84381 0.29969 0.22566 0.0
H72 H 0.83911 0.31395 0.19008 0.0
H73 H 0.89613 0.34169 0.24194 0.0
C74 C 0.92841 0.35451 0.2023 0.0
O75 O 0.91595 0.33289 0.19317 0.0
N76 N 0.90233 0.39244 0.17092 0.0
C77 C 0.89188 0.39727 0.15105 0.0
C78 C 0.90755 0.41897 0.14098 0.0
C79 C 0.92429 0.41133 0.17279 0.0
N80 N 0.92793 0.42774 0.1545 0.0
C81 C 0.86784 0.33503 0.14318 0.0
C82 C 0.9102 0.35343 0.11664 0.0
C83 C 0.88906 0.3417 0.10254 0.0
C84 C 0.8677 0.33141 0.11622 0.0
C85 C 0.9096 0.35632 0.14359 0.0
N86 N 0.88859 0.34788 0.15655 0.0
H87 H 0.85118 0.32984 0.15241 0.0
H88 H 0.92612 0.36785 0.15322 0.0
H89 H 0.87425 0.38547 0.14381 0.0
H90 H 0.93759 0.41265 0.18638 0.0
O91 O 0.8578 0.36126 0.18604 0.0
O92 O 0.8828 0.37746 0.21915 0.0
O93 O 0.92039 0.36874 0.20058 0.0
C94 C 0.86297 0.37267 0.2081 0.0
H95 H 0.86244 0.30143 0.26131 0.0
H96 H 0.90431 0.42748 0.12464 0.0
H97 H 0.92706 0.36199 0.1066 0.0
H98 H 0.851 0.32279 0.10584 0.0
Co99 Co 0.53453 0.89037 0.18303 0.0
C100 C 0.53532 0.84931 0.20449 0.0
C101 C 0.56618 0.88128 0.21647 0.0
C102 C 0.56633 0.86247 0.22851 0.0
N103 N 0.54673 0.87292 0.20132 0.0
N104 N 0.54689 0.84246 0.22083 0.0
H105 H 0.51828 0.83733 0.19602 0.0
H106 H 0.57907 0.89969 0.21926 0.0
C107 C 0.58607 0.93895 0.18727 0.0
O108 O 0.60081 0.94485 0.16754 0.0
N109 N 0.52129 0.9067 0.16444 0.0
C110 C 0.50476 0.89597 0.1458 0.0
C111 C 0.49671 0.91068 0.13824 0.0
C112 C 0.52305 0.92796 0.16821 0.0
N113 N 0.50822 0.93091 0.15209 0.0
C114 C 0.5315 0.85987 0.1404 0.0
C115 C 0.55954 0.89682 0.1072 0.0
C116 C 0.54774 0.87385 0.09724 0.0
C117 C 0.53405 0.85509 0.11429 0.0
C118 C 0.5565 0.90079 0.13314 0.0
N119 N 0.54254 0.88255 0.14944 0.0
H120 H 0.5195 0.84553 0.15277 0.0
H121 H 0.56388 0.91885 0.13934 0.0
H122 H 0.49836 0.87816 0.13882 0.0
H123 H 0.53458 0.9407 0.18253 0.0
O124 O 0.50175 0.86466 0.18814 0.0
O125 O 0.5229 0.89474 0.21477 0.0
O126 O 0.56604 0.92008 0.18566 0.0
C127 C 0.50261 0.87661 0.20899 0.0
H128 H 0.57963 0.86343 0.24187 0.0
H129 H 0.48276 0.90634 0.12417 0.0
H130 H 0.57031 0.91183 0.09476 0.0
H131 H 0.52435 0.83708 0.1072 0.0
Co132 Co 0.64226 0.52709 0.18662 0.0
C133 C 0.68529 0.53257 0.21282 0.0
C134 C 0.68808 0.56609 0.20527 0.0
C135 C 0.70866 0.56989 0.21698 0.0
N136 N 0.67329 0.54265 0.20286 0.0
N137 N 0.70691 0.54877 0.22169 0.0
H138 H 0.67869 0.51378 0.21287 0.0
H139 H 0.68456 0.57967 0.19858 0.0
C140 C 0.64098 0.5745 0.19439 0.0
O141 O 0.65316 0.58708 0.17421 0.0
N142 N 0.61152 0.5114 0.17017 0.0
C143 C 0.60555 0.49599 0.1502 0.0
C144 C 0.5833 0.48996 0.14178 0.0
C145 C 0.5927 0.51433 0.17396 0.0
N146 N 0.57532 0.50152 0.15665 0.0
C147 C 0.67297 0.53596 0.14372 0.0
C148 C 0.65071 0.55172 0.10994 0.0
C149 C 0.66642 0.54503 0.09974 0.0
C150 C 0.67843 0.53813 0.11716 0.0
C151 C 0.64572 0.54927 0.1367 0.0
N152 N 0.65618 0.54065 0.15304 0.0
H153 H 0.68078 0.52856 0.15648 0.0
H154 H 0.63169 0.55202 0.14375 0.0
H155 H 0.61702 0.4903 0.14164 0.0
H156 H 0.59214 0.52639 0.18806 0.0
O157 O 0.64214 0.49719 0.18442 0.0
O158 O 0.62859 0.50898 0.21748 0.0
O159 O 0.63731 0.55365 0.1982 0.0
C160 C 0.63124 0.49244 0.20688 0.0
H161 H 0.72368 0.58696 0.22165 0.0
H162 H 0.57393 0.47851 0.12549 0.0
H163 H 0.64082 0.55683 0.09713 0.0
H164 H 0.69085 0.53299 0.11011 0.0
Co165 Co 0.11472 0.6404 0.18737 0.0
C166 C 0.14632 0.68935 0.20762 0.0
C167 C 0.12487 0.66466 0.23727 0.0
C168 C 0.13948 0.68594 0.24906 0.0
N169 N 0.12908 0.66673 0.21133 0.0
N170 N 0.1528 0.70128 0.23041 0.0
H171 H 0.15446 0.69685 0.18907 0.0
H172 H 0.1122 0.64858 0.24701 0.0
C173 C 0.07381 0.64612 0.2075 0.0
O174 O 0.08708 0.66906 0.21053 0.0
N175 N 0.10032 0.61369 0.16409 0.0
C176 C 0.10866 0.61144 0.14084 0.0
C177 C 0.09277 0.5899 0.1303 0.0
C178 C 0.07982 0.5934 0.1677 0.0
N179 N 0.07468 0.57864 0.14722 0.0
C180 C 0.13811 0.67094 0.14429 0.0
C181 C 0.09671 0.6606 0.119 0.0
C182 C 0.1172 0.66775 0.10416 0.0
C183 C 0.13848 0.6747 0.1173 0.0
C184 C 0.09704 0.65692 0.14578 0.0
N185 N 0.11723 0.66039 0.1578 0.0
H186 H 0.15414 0.6736 0.15347 0.0
H187 H 0.08027 0.64829 0.15563 0.0
H188 H 0.12514 0.62448 0.13214 0.0
H189 H 0.06874 0.58969 0.18474 0.0
O190 O 0.14439 0.6405 0.18371 0.0
O191 O 0.11699 0.62055 0.21357 0.0
O192 O 0.08223 0.63393 0.19757 0.0
C193 C 0.13706 0.62562 0.20309 0.0
H194 H 0.14053 0.68985 0.26973 0.0
H195 H 0.09444 0.58301 0.11168 0.0
H196 H 0.07995 0.65537 0.10955 0.0
H197 H 0.15471 0.68035 0.10653 0.0
Co198 Co 0.88511 0.52313 0.32563 0.0
C199 C 0.85112 0.53799 0.30981 0.0
C200 C 0.88269 0.55526 0.287 0.0
C201 C 0.8662 0.55996 0.2761 0.0
N202 N 0.87345 0.54187 0.30859 0.0
N203 N 0.84628 0.54879 0.29034 0.0
H204 H 0.83781 0.52564 0.32292 0.0
H205 H 0.89924 0.55924 0.27803 0.0
C206 C 0.9308 0.57051 0.31657 0.0
O207 O 0.92218 0.584 0.32375 0.0
N208 N 0.89631 0.50401 0.34204 0.0
C209 C 0.88492 0.4875 0.36054 0.0
C210 C 0.89939 0.47903 0.36865 0.0
C211 C 0.91737 0.50521 0.33886 0.0
N212 N 0.91979 0.49027 0.35507 0.0
C213 C 0.8615 0.52615 0.37091 0.0
C214 C 0.90096 0.54822 0.40259 0.0
C215 C 0.87844 0.53819 0.41399 0.0
C216 C 0.85868 0.5281 0.39754 0.0
C217 C 0.90304 0.54623 0.37555 0.0
N218 N 0.88337 0.53475 0.36011 0.0
H219 H 0.84581 0.51564 0.3596 0.0
H220 H 0.92039 0.55204 0.36759 0.0
H221 H 0.86756 0.48243 0.36809 0.0
H222 H 0.93102 0.51739 0.32577 0.0
O223 O 0.85378 0.4953 0.32358 0.0
O224 O 0.88167 0.5071 0.29318 0.0
O225 O 0.91883 0.54816 0.31946 0.0
C226 C 0.86054 0.49181 0.30091 0.0
H227 H 0.86789 0.56877 0.25765 0.0
H228 H 0.89535 0.46591 0.38366 0.0
H229 H 0.91671 0.5559 0.41461 0.0
H230 H 0.84094 0.52026 0.40542 0.0
Co231 Co 0.35253 0.88859 0.32249 0.0
C232 C 0.30347 0.85238 0.30502 0.0
C233 C 0.32259 0.8808 0.27796 0.0
C234 C 0.30074 0.86612 0.26767 0.0
N235 N 0.32425 0.8726 0.30156 0.0
N236 N 0.28877 0.84833 0.28459 0.0
H237 H 0.29907 0.84094 0.32182 0.0
H238 H 0.33652 0.89648 0.26875 0.0
C239 C 0.34078 0.92768 0.31056 0.0
O240 O 0.31808 0.91483 0.31552 0.0
N241 N 0.38128 0.90564 0.3425 0.0
C242 C 0.38926 0.89799 0.3624 0.0
C243 C 0.41229 0.91517 0.36786 0.0
C244 C 0.39912 0.92729 0.33654 0.0
N245 N 0.41842 0.93333 0.35124 0.0
C246 C 0.32749 0.86174 0.36694 0.0
C247 C 0.33593 0.90065 0.39626 0.0
C248 C 0.33143 0.87991 0.40914 0.0
C249 C 0.32558 0.85979 0.39419 0.0
C250 C 0.33791 0.90193 0.36915 0.0
N251 N 0.33511 0.88302 0.35492 0.0
H252 H 0.32573 0.84686 0.35593 0.0
H253 H 0.3448 0.91908 0.3604 0.0
H254 H 0.37961 0.88066 0.37118 0.0
H255 H 0.39881 0.93752 0.32008 0.0
O256 O 0.35717 0.8611 0.32186 0.0
O257 O 0.3704 0.8896 0.29259 0.0
O258 O 0.35476 0.91977 0.31476 0.0
C259 C 0.36993 0.87068 0.30105 0.0
H260 H 0.29426 0.86798 0.24886 0.0
H261 H 0.42417 0.91363 0.38144 0.0
H262 H 0.34042 0.91654 0.40721 0.0
H263 H 0.32213 0.84347 0.40345 0.0
Co264 Co 0.46647 0.35708 0.32371 0.0
C265 C 0.45191 0.30829 0.30403 0.0
C266 C 0.43914 0.32675 0.28054 0.0
C267 C 0.43264 0.30552 0.26881 0.0
N268 N 0.45055 0.32832 0.30309 0.0
N269 N 0.44076 0.29403 0.28347 0.0
H270 H 0.46125 0.30435 0.31875 0.0
H271 H 0.43651 0.34058 0.27255 0.0
C272 C 0.41685 0.34844 0.31635 0.0
O273 O 0.40813 0.3262 0.32304 0.0
N274 N 0.48276 0.38591 0.3433 0.0
C275 C 0.49972 0.39132 0.36141 0.0
C276 C 0.50911 0.4147 0.36822 0.0
C277 C 0.4818 0.40575 0.33947 0.0
N278 N 0.49759 0.42345 0.35456 0.0
C279 C 0.46434 0.32797 0.36705 0.0
C280 C 0.43893 0.3412 0.39929 0.0
C281 C 0.44889 0.32848 0.40995 0.0
C282 C 0.46123 0.3213 0.39343 0.0
C283 C 0.44198 0.34704 0.37278 0.0
N284 N 0.45471 0.34062 0.3569 0.0
H285 H 0.47602 0.32452 0.35539 0.0
H286 H 0.43575 0.3585 0.36572 0.0
H287 H 0.50554 0.3794 0.36827 0.0
H288 H 0.47085 0.40764 0.32488 0.0
O289 O 0.49639 0.35711 0.3203 0.0
O290 O 0.48256 0.3736 0.293 0.0
O291 O 0.43899 0.3628 0.31852 0.0
C292 C 0.49951 0.36967 0.29927 0.0
H293 H 0.42343 0.2993 0.25038 0.0
H294 H 0.52373 0.42474 0.38142 0.0
H295 H 0.42955 0.3473 0.41158 0.0
H296 H 0.46959 0.31185 0.40118 0.0
Co297 Co 0.11082 0.4669 0.32088 0.0
C298 C 0.14701 0.45434 0.30287 0.0
C299 C 0.11386 0.43594 0.28244 0.0
C300 C 0.12905 0.42955 0.27175 0.0
N301 N 0.12485 0.4512 0.30215 0.0
N302 N 0.14986 0.441 0.2845 0.0
H303 H 0.16061 0.46603 0.31636 0.0
H304 H 0.09615 0.43033 0.27564 0.0
C305 C 0.05919 0.42661 0.32791 0.0
O306 O 0.0564 0.43339 0.35113 0.0
N307 N 0.09668 0.48306 0.33889 0.0
C308 C 0.10624 0.49903 0.35841 0.0
C309 C 0.09004 0.50518 0.3667 0.0
C310 C 0.07538 0.48112 0.33441 0.0
N311 N 0.07066 0.4938 0.35167 0.0
C312 C 0.13471 0.47305 0.37042 0.0
C313 C 0.10429 0.4286 0.38943 0.0
C314 C 0.11899 0.44609 0.4077 0.0
C315 C 0.13544 0.46829 0.39707 0.0
C316 C 0.10398 0.4343 0.36314 0.0
N317 N 0.11746 0.45689 0.35448 0.0
H318 H 0.14721 0.49033 0.36298 0.0
H319 H 0.09235 0.42045 0.35001 0.0
H320 H 0.12378 0.5061 0.36624 0.0
H321 H 0.0632 0.46999 0.31955 0.0
O322 O 0.13952 0.4975 0.31552 0.0
O323 O 0.10871 0.48041 0.2888 0.0
O324 O 0.07902 0.43727 0.31615 0.0
C325 C 0.12951 0.49808 0.29362 0.0
H326 H 0.12524 0.41771 0.25535 0.0
H327 H 0.09215 0.5168 0.38282 0.0
H328 H 0.09244 0.41052 0.39479 0.0
H329 H 0.14857 0.48241 0.4089 0.0
Co330 Co 0.64442 0.1119 0.32036 0.0
C331 C 0.69079 0.14994 0.30025 0.0
C332 C 0.6795 0.11655 0.28189 0.0
C333 C 0.69881 0.1334 0.26872 0.0
N334 N 0.67458 0.1266 0.30212 0.0
N335 N 0.70576 0.15443 0.28006 0.0
H336 H 0.69003 0.16369 0.31118 0.0
H337 H 0.66826 0.09881 0.27496 0.0
C338 C 0.65119 0.06896 0.31423 0.0
O339 O 0.6733 0.08051 0.32204 0.0
N340 N 0.61411 0.09719 0.33734 0.0
C341 C 0.6073 0.10366 0.35919 0.0
C342 C 0.58368 0.08764 0.36352 0.0
C343 C 0.59479 0.07783 0.32849 0.0
N344 N 0.57596 0.07153 0.34407 0.0
C345 C 0.67337 0.13662 0.36379 0.0
C346 C 0.65863 0.09796 0.39612 0.0
C347 C 0.67225 0.1207 0.40678 0.0
C348 C 0.67997 0.14012 0.39 0.0
C349 C 0.65216 0.09525 0.36973 0.0
N350 N 0.65938 0.11449 0.35394 0.0
H351 H 0.67808 0.15194 0.35196 0.0
H352 H 0.63999 0.07775 0.36258 0.0
H353 H 0.61865 0.11887 0.37107 0.0
H354 H 0.59465 0.0684 0.31105 0.0
O355 O 0.6445 0.14157 0.32071 0.0
O356 O 0.62983 0.11469 0.28906 0.0
O357 O 0.6389 0.07912 0.31295 0.0
C358 C 0.63369 0.13482 0.29834 0.0
H359 H 0.70586 0.13075 0.2507 0.0
H360 H 0.57297 0.08799 0.37946 0.0
H361 H 0.65229 0.08236 0.40819 0.0
H362 H 0.68987 0.15805 0.39725 0.0
Co363 Co 0.52964 0.64322 0.32043 0.0
C364 C 0.53834 0.69035 0.30445 0.0
C365 C 0.55671 0.67775 0.28066 0.0
C366 C 0.55787 0.69697 0.26865 0.0
N367 N 0.54483 0.67368 0.30341 0.0
N368 N 0.54613 0.70469 0.28345 0.0
H369 H 0.52558 0.69007 0.31809 0.0
H370 H 0.56145 0.6658 0.2715 0.0
C371 C 0.57897 0.65101 0.30902 0.0
O372 O 0.5896 0.67351 0.31519 0.0
N373 N 0.51424 0.61245 0.33623 0.0
C374 C 0.5011 0.60511 0.35816 0.0
C375 C 0.49614 0.58236 0.36349 0.0
C376 C 0.51668 0.59423 0.32827 0.0
N377 N 0.50625 0.57581 0.34475 0.0
C378 C 0.53412 0.66831 0.36787 0.0
C379 C 0.55944 0.65119 0.39403 0.0
C380 C 0.54811 0.66082 0.40859 0.0
C381 C 0.53632 0.67056 0.39509 0.0
C382 C 0.55645 0.64888 0.36707 0.0
N383 N 0.54322 0.65664 0.35431 0.0
H384 H 0.52303 0.67382 0.35819 0.0
H385 H 0.56267 0.63848 0.35718 0.0
H386 H 0.49643 0.61587 0.37002 0.0
H387 H 0.52657 0.59472 0.3111 0.0
O388 O 0.50029 0.64369 0.32303 0.0
O389 O 0.5113 0.6299 0.28937 0.0
O390 O 0.55659 0.63796 0.31063 0.0
C391 C 0.49551 0.63373 0.30013 0.0
H392 H 0.56443 0.70312 0.24912 0.0
H393 H 0.48705 0.57202 0.38055 0.0
H394 H 0.56908 0.6438 0.40358 0.0
H395 H 0.52719 0.67806 0.40553 0.0
Co396 Co 0.52349 0.8857 0.82345 0.0
C397 C 0.52926 0.84714 0.79946 0.0
C398 C 0.55035 0.8805 0.78067 0.0
C399 C 0.55214 0.86365 0.76662 0.0
N400 N 0.53647 0.87046 0.8017 0.0
N401 N 0.5388 0.8427 0.77834 0.0
H402 H 0.51561 0.83339 0.81127 0.0
H403 H 0.55677 0.89829 0.7742 0.0
C404 C 0.57228 0.9282 0.81364 0.0
O405 O 0.58297 0.91699 0.82212 0.0
N406 N 0.51021 0.90077 0.84425 0.0
C407 C 0.49867 0.89301 0.8671 0.0
C408 C 0.49355 0.90968 0.87649 0.0
C409 C 0.51156 0.92172 0.83969 0.0
N410 N 0.50169 0.92765 0.85923 0.0
C411 C 0.53432 0.86239 0.86339 0.0
C412 C 0.55831 0.90132 0.89539 0.0
C413 C 0.55115 0.87879 0.90559 0.0
C414 C 0.53967 0.85928 0.88889 0.0
C415 C 0.55238 0.90362 0.86977 0.0
N416 N 0.54012 0.88421 0.85421 0.0
H417 H 0.52352 0.84686 0.85196 0.0
H418 H 0.55594 0.9208 0.86326 0.0
H419 H 0.49492 0.87672 0.87662 0.0
H420 H 0.52044 0.93285 0.82304 0.0
O421 O 0.49438 0.85613 0.82799 0.0
O422 O 0.50193 0.88172 0.79575 0.0
O423 O 0.54978 0.91806 0.81288 0.0
C424 C 0.48704 0.86212 0.80731 0.0
H425 H 0.56117 0.86628 0.74813 0.0
H426 H 0.48494 0.9089 0.89483 0.0
H427 H 0.56739 0.91697 0.90745 0.0
H428 H 0.53319 0.84146 0.89589 0.0
Co429 Co 0.64202 0.52642 0.81994 0.0
C430 C 0.69169 0.5409 0.802 0.0
C431 C 0.67472 0.55583 0.77948 0.0
C432 C 0.69655 0.56317 0.7689 0.0
N433 N 0.67179 0.54255 0.80085 0.0
N434 N 0.70716 0.55376 0.78297 0.0
H435 H 0.69482 0.53025 0.81571 0.0
H436 H 0.66147 0.55926 0.7713 0.0
C437 C 0.64794 0.5754 0.81262 0.0
O438 O 0.6692 0.58601 0.82296 0.0
N439 N 0.61183 0.51044 0.83732 0.0
C440 C 0.60575 0.4993 0.8606 0.0
C441 C 0.58212 0.49169 0.86507 0.0
C442 C 0.59201 0.50902 0.82775 0.0
N443 N 0.57366 0.49776 0.84422 0.0
C444 C 0.67105 0.53172 0.86376 0.0
C445 C 0.65348 0.55326 0.89603 0.0
C446 C 0.66654 0.5437 0.9071 0.0
C447 C 0.67645 0.53407 0.89029 0.0
C448 C 0.64891 0.55103 0.8691 0.0
N449 N 0.65703 0.53964 0.85342 0.0
H450 H 0.67617 0.52127 0.85225 0.0
H451 H 0.63669 0.55615 0.86154 0.0
H452 H 0.61767 0.49719 0.87354 0.0
H453 H 0.59118 0.51658 0.80924 0.0
O454 O 0.64301 0.49722 0.82059 0.0
O455 O 0.62744 0.50847 0.78905 0.0
O456 O 0.63573 0.55292 0.81185 0.0
C457 C 0.63156 0.49243 0.79853 0.0
H458 H 0.70388 0.57405 0.75168 0.0
H459 H 0.57193 0.48234 0.88211 0.0
H460 H 0.64517 0.56058 0.90824 0.0
H461 H 0.68694 0.52674 0.8978 0.0
Co462 Co 0.1096 0.64383 0.8216 0.0
C463 C 0.14023 0.68548 0.78843 0.0
C464 C 0.13448 0.69604 0.82613 0.0
C465 C 0.15082 0.71583 0.81302 0.0
N466 N 0.12794 0.67681 0.81088 0.0
N467 N 0.15434 0.70908 0.78944 0.0
H468 H 0.14011 0.67485 0.77219 0.0
H469 H 0.12827 0.69593 0.8457 0.0
C470 C 0.0731 0.65762 0.80659 0.0
O471 O 0.08951 0.67979 0.80388 0.0
N472 N 0.09255 0.61156 0.83304 0.0
C473 C 0.09834 0.60227 0.85334 0.0
C474 C 0.08093 0.57911 0.8564 0.0
C475 C 0.07212 0.59397 0.82363 0.0
N476 N 0.0646 0.57404 0.83766 0.0
C477 C 0.13364 0.66141 0.87061 0.0
C478 C 0.09356 0.65108 0.89892 0.0
C479 C 0.11474 0.65801 0.91231 0.0
C480 C 0.13521 0.66409 0.89784 0.0
C481 C 0.09274 0.64868 0.87187 0.0
N482 N 0.11246 0.65322 0.85809 0.0
H483 H 0.14919 0.6649 0.85963 0.0
H484 H 0.0758 0.64164 0.86241 0.0
H485 H 0.11396 0.61175 0.86533 0.0
H486 H 0.06271 0.59583 0.80726 0.0
O487 O 0.13755 0.64038 0.81718 0.0
O488 O 0.11054 0.63348 0.78695 0.0
O489 O 0.07815 0.64268 0.81638 0.0
C490 C 0.12964 0.63334 0.79351 0.0
H491 H 0.16002 0.73372 0.82049 0.0
H492 H 0.08032 0.56693 0.87111 0.0
H493 H 0.07739 0.64627 0.90946 0.0
H494 H 0.15186 0.66936 0.90756 0.0
Co495 Co 0.46809 0.11198 0.82257 0.0
C496 C 0.45566 0.14819 0.80887 0.0
C497 C 0.44139 0.11953 0.78161 0.0
C498 C 0.43814 0.13723 0.7718 0.0
N499 N 0.45188 0.1261 0.80516 0.0
N500 N 0.44746 0.15556 0.78872 0.0
H501 H 0.46614 0.1593 0.82482 0.0
H502 H 0.43795 0.10367 0.77133 0.0
C503 C 0.41854 0.07081 0.81274 0.0
O504 O 0.40879 0.08407 0.81508 0.0
N505 N 0.48532 0.09884 0.83959 0.0
C506 C 0.50359 0.11087 0.85608 0.0
C507 C 0.51174 0.09627 0.86426 0.0
C508 C 0.48274 0.07707 0.83763 0.0
N509 N 0.49861 0.07506 0.85276 0.0
C510 C 0.47204 0.13639 0.87076 0.0
C511 C 0.4389 0.09697 0.89738 0.0
C512 C 0.455 0.11666 0.91186 0.0
C513 C 0.47098 0.13705 0.89817 0.0
C514 C 0.44091 0.09682 0.87035 0.0
N515 N 0.45794 0.11602 0.85723 0.0
H516 H 0.48579 0.15159 0.86076 0.0
H517 H 0.42989 0.08029 0.86083 0.0
H518 H 0.5106 0.12909 0.86179 0.0
H519 H 0.46932 0.06291 0.82596 0.0
O520 O 0.49806 0.14168 0.81852 0.0
O521 O 0.4824 0.11201 0.79038 0.0
O522 O 0.44047 0.07897 0.8174 0.0
C523 C 0.50006 0.13237 0.79679 0.0
H524 H 0.43072 0.13691 0.75284 0.0
H525 H 0.52619 0.10086 0.87772 0.0
H526 H 0.42575 0.081 0.90699 0.0
H527 H 0.48372 0.15276 0.90851 0.0
Co528 Co 0.35193 0.46546 0.82424 0.0
C529 C 0.30396 0.45643 0.80668 0.0
C530 C 0.31163 0.42945 0.79487 0.0
C531 C 0.28996 0.42387 0.78516 0.0
N532 N 0.32041 0.44957 0.80891 0.0
N533 N 0.28504 0.4407 0.79254 0.0
H534 H 0.30572 0.47246 0.81496 0.0
H535 H 0.32049 0.4196 0.79094 0.0
C536 C 0.35357 0.41628 0.82078 0.0
O537 O 0.34409 0.40176 0.84058 0.0
N538 N 0.38352 0.48092 0.83841 0.0
C539 C 0.39281 0.49687 0.85789 0.0
C540 C 0.41639 0.50348 0.86056 0.0
C541 C 0.40136 0.47827 0.82933 0.0
N542 N 0.42164 0.49178 0.84245 0.0
C543 C 0.32672 0.46707 0.86925 0.0
C544 C 0.3438 0.44588 0.90285 0.0
C545 C 0.33187 0.45681 0.91339 0.0
C546 C 0.32254 0.46676 0.89607 0.0
C547 C 0.34749 0.44648 0.87591 0.0
N548 N 0.33945 0.45744 0.85951 0.0
H549 H 0.32111 0.47651 0.85656 0.0
H550 H 0.35876 0.44008 0.86867 0.0
H551 H 0.38317 0.50328 0.86921 0.0
H552 H 0.39942 0.46653 0.81344 0.0
O553 O 0.35434 0.49622 0.82046 0.0
O554 O 0.36487 0.47832 0.79088 0.0
O555 O 0.35366 0.43583 0.82056 0.0
C556 C 0.36423 0.49707 0.79805 0.0
H557 H 0.27873 0.40873 0.7731 0.0
H558 H 0.42874 0.51613 0.87443 0.0
H559 H 0.35177 0.43844 0.91539 0.0
H560 H 0.313 0.47522 0.90325 0.0
Co561 Co 0.88204 0.35385 0.82306 0.0
C562 C 0.84854 0.30335 0.80863 0.0
C563 C 0.8749 0.32291 0.7796 0.0
C564 C 0.85975 0.30101 0.76966 0.0
N565 N 0.86835 0.32432 0.80423 0.0
N566 N 0.84321 0.2889 0.78778 0.0
H567 H 0.8379 0.29886 0.82608 0.0
H568 H 0.88936 0.33725 0.76922 0.0
C569 C 0.92557 0.34975 0.80765 0.0
O570 O 0.91444 0.32657 0.80821 0.0
N571 N 0.89606 0.38393 0.8403 0.0
C572 C 0.89054 0.39062 0.86291 0.0
C573 C 0.90559 0.41467 0.86598 0.0
C574 C 0.91379 0.40361 0.82989 0.0
N575 N 0.91998 0.42264 0.84498 0.0
C576 C 0.86113 0.32814 0.87006 0.0
C577 C 0.90351 0.34442 0.89615 0.0
C578 C 0.88258 0.335 0.91061 0.0
C579 C 0.86108 0.32567 0.89725 0.0
C580 C 0.90282 0.34641 0.86908 0.0
N581 N 0.88189 0.33933 0.85639 0.0
H582 H 0.8446 0.32337 0.86055 0.0
H583 H 0.91946 0.35623 0.85911 0.0
H584 H 0.87658 0.379 0.87604 0.0
H585 H 0.9221 0.40387 0.81152 0.0
O586 O 0.85149 0.3521 0.82497 0.0
O587 O 0.87739 0.36821 0.79268 0.0
O588 O 0.91507 0.36113 0.81379 0.0
C589 C 0.85733 0.3635 0.8029 0.0
H590 H 0.86039 0.29459 0.75034 0.0
H591 H 0.9057 0.42546 0.88209 0.0
H592 H 0.92048 0.3521 0.90594 0.0
H593 H 0.84459 0.31867 0.90789 0.0
Co594 Co 0.11375 0.47734 0.68524 0.0
C595 C 0.14751 0.46197 0.7058 0.0
C596 C 0.12028 0.45736 0.73267 0.0
C597 C 0.13444 0.45036 0.7448 0.0
N598 N 0.12799 0.46416 0.70805 0.0
N599 N 0.15157 0.45336 0.72807 0.0
H600 H 0.15851 0.4665 0.68862 0.0
H601 H 0.10549 0.45786 0.74147 0.0
C602 C 0.07142 0.43039 0.70302 0.0
O603 O 0.08172 0.41806 0.69745 0.0
N604 N 0.09937 0.49069 0.66348 0.0
C605 C 0.10761 0.50195 0.64055 0.0
C606 C 0.09128 0.50724 0.63043 0.0
C607 C 0.07842 0.48952 0.66724 0.0
N608 N 0.07297 0.49936 0.64723 0.0
C609 C 0.13503 0.46757 0.64148 0.0
C610 C 0.09297 0.43803 0.61631 0.0
C611 C 0.11407 0.44691 0.60205 0.0
C612 C 0.13537 0.46145 0.61523 0.0
C613 C 0.09338 0.44468 0.64235 0.0
N614 N 0.11419 0.4596 0.65466 0.0
H615 H 0.15147 0.48034 0.65042 0.0
H616 H 0.07668 0.4396 0.65154 0.0
H617 H 0.12411 0.50563 0.63161 0.0
H618 H 0.06703 0.48093 0.68379 0.0
O619 O 0.1439 0.50636 0.68084 0.0
O620 O 0.11798 0.49951 0.71231 0.0
O621 O 0.08127 0.4523 0.69716 0.0
C622 C 0.13777 0.51415 0.70112 0.0
H623 H 0.13253 0.44382 0.7646 0.0
H624 H 0.09268 0.516 0.61204 0.0
H625 H 0.076 0.42727 0.60696 0.0
H626 H 0.15213 0.46873 0.60514 0.0
Co627 Co 0.64287 0.11213 0.68674 0.0
C628 C 0.69096 0.14538 0.70843 0.0
C629 C 0.6813 0.109 0.71273 0.0
C630 C 0.70301 0.12261 0.72377 0.0
N631 N 0.67355 0.12308 0.70294 0.0
N632 N 0.7093 0.14551 0.721 0.0
H633 H 0.69026 0.16109 0.7034 0.0
H634 H 0.67196 0.09001 0.71259 0.0
C635 C 0.63259 0.05784 0.68718 0.0
O636 O 0.63643 0.05094 0.66452 0.0
N637 N 0.61233 0.10113 0.67075 0.0
C638 C 0.60717 0.11285 0.65267 0.0
C639 C 0.58401 0.09888 0.64511 0.0
C640 C 0.59224 0.08036 0.67428 0.0
N641 N 0.5747 0.07849 0.65867 0.0
C642 C 0.67206 0.13852 0.64358 0.0
C643 C 0.65377 0.10104 0.60896 0.0
C644 C 0.66913 0.12379 0.59929 0.0
C645 C 0.6785 0.14268 0.6172 0.0
C646 C 0.6471 0.09789 0.6351 0.0
N647 N 0.65642 0.11635 0.65216 0.0
H648 H 0.67858 0.15333 0.65684 0.0
H649 H 0.63305 0.08088 0.64108 0.0
H650 H 0.61957 0.13017 0.64515 0.0
H651 H 0.59068 0.06665 0.68735 0.0
O652 O 0.64505 0.14273 0.69173 0.0
O653 O 0.62992 0.1128 0.71971 0.0
O654 O 0.6359 0.07866 0.69009 0.0
C655 C 0.63363 0.13363 0.71344 0.0
H656 H 0.71309 0.11596 0.73379 0.0
H657 H 0.57479 0.1033 0.6306 0.0
H658 H 0.64618 0.08567 0.59641 0.0
H659 H 0.68991 0.1607 0.61089 0.0
Co660 Co 0.53195 0.64333 0.68748 0.0
C661 C 0.53591 0.68821 0.7037 0.0
C662 C 0.5588 0.6804 0.72638 0.0
C663 C 0.5598 0.70049 0.73634 0.0
N664 N 0.54384 0.67282 0.70589 0.0
N665 N 0.54532 0.70526 0.72207 0.0
H666 H 0.52246 0.68622 0.68997 0.0
H667 H 0.56757 0.67146 0.73431 0.0
C668 C 0.57188 0.6316 0.68898 0.0
O669 O 0.56485 0.61858 0.66776 0.0
N670 N 0.51877 0.61349 0.6689 0.0
C671 C 0.5062 0.60861 0.64657 0.0
C672 C 0.4988 0.58582 0.63935 0.0
C673 C 0.51742 0.59287 0.67587 0.0
N674 N 0.5062 0.57605 0.65747 0.0
C675 C 0.52829 0.66589 0.64099 0.0
C676 C 0.56492 0.66512 0.615 0.0
C677 C 0.54783 0.66709 0.60053 0.0
C678 C 0.5303 0.6692 0.61388 0.0
C679 C 0.56245 0.66222 0.64201 0.0
N680 N 0.54299 0.66027 0.65431 0.0
H681 H 0.51313 0.66496 0.65055 0.0
H682 H 0.57546 0.65999 0.65234 0.0
H683 H 0.50237 0.62058 0.63609 0.0
H684 H 0.52565 0.59063 0.69315 0.0
O685 O 0.49996 0.63855 0.68885 0.0
O686 O 0.51654 0.62666 0.71848 0.0
O687 O 0.56283 0.64421 0.69575 0.0
C688 C 0.49799 0.62726 0.71052 0.0
H689 H 0.57004 0.71051 0.75307 0.0
H690 H 0.48936 0.57727 0.62161 0.0
H691 H 0.57913 0.66409 0.6053 0.0
H692 H 0.51687 0.67092 0.60328 0.0
Co693 Co 0.88771 0.52699 0.69384 0.0
C694 C 0.85403 0.54252 0.71296 0.0
C695 C 0.88601 0.55684 0.73534 0.0
C696 C 0.87172 0.56433 0.7463 0.0
N697 N 0.87542 0.54385 0.71383 0.0
N698 N 0.85164 0.55521 0.73232 0.0
H699 H 0.84017 0.53213 0.69922 0.0
H700 H 0.90272 0.56003 0.74317 0.0
C701 C 0.9293 0.57601 0.69889 0.0
O702 O 0.91619 0.58429 0.68932 0.0
N703 N 0.8996 0.50972 0.67465 0.0
C704 C 0.88794 0.49398 0.65549 0.0
C705 C 0.90275 0.487 0.64477 0.0
C706 C 0.92123 0.51193 0.67564 0.0
N707 N 0.92363 0.49832 0.65742 0.0
C708 C 0.86234 0.53101 0.65048 0.0
C709 C 0.9008 0.55219 0.61727 0.0
C710 C 0.87803 0.54212 0.60666 0.0
C711 C 0.85874 0.53249 0.62385 0.0
C712 C 0.90366 0.55053 0.64414 0.0
N713 N 0.88453 0.53952 0.66043 0.0
H714 H 0.84703 0.52065 0.66241 0.0
H715 H 0.92119 0.55583 0.65119 0.0
H716 H 0.87013 0.48856 0.64917 0.0
H717 H 0.93523 0.52394 0.68855 0.0
O718 O 0.85712 0.49829 0.69549 0.0
O719 O 0.88586 0.50967 0.72475 0.0
O720 O 0.9211 0.55373 0.69996 0.0
C721 C 0.86487 0.49388 0.717 0.0
H722 H 0.8754 0.57502 0.76371 0.0
H723 H 0.89865 0.47484 0.62864 0.0
H724 H 0.9162 0.55935 0.60472 0.0
H725 H 0.8408 0.52451 0.61655 0.0
Co726 Co 0.35753 0.88604 0.69068 0.0
C727 C 0.30892 0.8464 0.69913 0.0
C728 C 0.31389 0.87837 0.71674 0.0
C729 C 0.29163 0.86032 0.72302 0.0
N730 N 0.32472 0.86969 0.70159 0.0
N731 N 0.28862 0.84045 0.7117 0.0
H732 H 0.31253 0.8337 0.68983 0.0
H733 H 0.32183 0.89622 0.72398 0.0
C734 C 0.35607 0.93442 0.6946 0.0
O735 O 0.34386 0.93484 0.67443 0.0
N736 N 0.39015 0.90196 0.6795 0.0
C737 C 0.39904 0.89279 0.6623 0.0
C738 C 0.42096 0.91029 0.65438 0.0
C739 C 0.40691 0.92491 0.68211 0.0
N740 N 0.42582 0.93033 0.66689 0.0
C741 C 0.33794 0.86309 0.64172 0.0
C742 C 0.35508 0.90416 0.61308 0.0
C743 C 0.34559 0.88257 0.59974 0.0
C744 C 0.33623 0.86174 0.61442 0.0
C745 C 0.35696 0.90474 0.64017 0.0
N746 N 0.34843 0.88443 0.65427 0.0
H747 H 0.33257 0.84706 0.65249 0.0
H748 H 0.3673 0.92165 0.64941 0.0
H749 H 0.38955 0.87499 0.65465 0.0
H750 H 0.40476 0.93774 0.69334 0.0
O751 O 0.35872 0.85687 0.69369 0.0
O752 O 0.36659 0.88311 0.72522 0.0
O753 O 0.3598 0.91726 0.69839 0.0
C754 C 0.36505 0.86344 0.71783 0.0
H755 H 0.27897 0.86145 0.73571 0.0
H756 H 0.43203 0.90874 0.63967 0.0
H757 H 0.36247 0.92073 0.6026 0.0
H758 H 0.32917 0.84471 0.60494 0.0
Co759 Co 0.47147 0.35903 0.68884 0.0
C760 C 0.4582 0.3114 0.70967 0.0
C761 C 0.44207 0.32805 0.73055 0.0
C762 C 0.43856 0.30865 0.74443 0.0
N763 N 0.45397 0.32971 0.70834 0.0
N764 N 0.44879 0.29827 0.73139 0.0
H765 H 0.47041 0.30942 0.69719 0.0
H766 H 0.43861 0.34154 0.73788 0.0
C767 C 0.42335 0.35458 0.69576 0.0
O768 O 0.41268 0.33189 0.69053 0.0
N769 N 0.48951 0.38852 0.67063 0.0
C770 C 0.50561 0.39311 0.65179 0.0
C771 C 0.51452 0.41607 0.64373 0.0
C772 C 0.48893 0.40868 0.67402 0.0
N773 N 0.50392 0.42577 0.65762 0.0
C774 C 0.46398 0.32815 0.64525 0.0
C775 C 0.44425 0.34754 0.61285 0.0
C776 C 0.45031 0.33151 0.60231 0.0
C777 C 0.45975 0.32132 0.61898 0.0
C778 C 0.44821 0.35344 0.63937 0.0
N779 N 0.45824 0.34401 0.65527 0.0
H780 H 0.4734 0.32188 0.65694 0.0
H781 H 0.44484 0.36701 0.64655 0.0
H782 H 0.51036 0.38056 0.64431 0.0
H783 H 0.47732 0.4106 0.68763 0.0
O784 O 0.49951 0.35592 0.68977 0.0
O785 O 0.48919 0.37357 0.71994 0.0
O786 O 0.44582 0.36716 0.69498 0.0
C787 C 0.50427 0.36759 0.71166 0.0
H788 H 0.43107 0.30383 0.76384 0.0
H789 H 0.52767 0.42486 0.62866 0.0
H790 H 0.43706 0.35592 0.60054 0.0
H791 H 0.46508 0.3092 0.61143 0.0
H792 H 0.51048 0.05042 0.19286 0.0
H793 H 0.47892 0.04631 0.11715 0.0
H794 H 0.47732 0.00849 0.10837 0.0
H795 H 0.54748 0.02784 0.17201 0.0
H796 H 0.54413 0.01093 0.2011 0.0
H797 H 0.54131 0.03694 0.20288 0.0
H798 H 0.49973 0.01235 0.22351 0.0
H799 H 0.50245 0.98625 0.22191 0.0
H800 H 0.47754 0.98636 0.20686 0.0
H801 H 0.48194 0.97398 0.10575 0.0
H802 H 0.49049 0.94182 0.10997 0.0
H803 H 0.51816 0.96582 0.18817 0.0
C804 C 0.50302 0.04126 0.17466 0.0
C805 C 0.495 0.05118 0.15549 0.0
C806 C 0.48544 0.03901 0.13179 0.0
C807 C 0.48434 0.01754 0.12672 0.0
C808 C 0.49292 0.00846 0.14559 0.0
C809 C 0.50197 0.0197 0.16916 0.0
C810 C 0.51084 0.0062 0.18535 0.0
C811 C 0.53752 0.02139 0.19064 0.0
C812 C 0.49679 0.99726 0.21092 0.0
C813 C 0.50559 0.98592 0.16694 0.0
C814 C 0.49522 0.98774 0.14422 0.0
C815 C 0.48962 0.97202 0.12363 0.0
C816 C 0.49446 0.95365 0.12635 0.0
C817 C 0.50456 0.95082 0.14964 0.0
C818 C 0.51037 0.96738 0.17016 0.0
H819 H 0.5444 0.49992 0.19314 0.0
H820 H 0.55843 0.5049 0.10999 0.0
H821 H 0.52151 0.50546 0.10142 0.0
H822 H 0.48154 0.4607 0.18774 0.0
H823 H 0.47415 0.47392 0.21432 0.0
H824 H 0.50219 0.47483 0.21413 0.0
H825 H 0.52397 0.52048 0.21828 0.0
H826 H 0.49599 0.5197 0.21849 0.0
H827 H 0.51818 0.53749 0.19474 0.0
H828 H 0.48372 0.50567 0.10168 0.0
H829 H 0.44577 0.5039 0.11055 0.0
H830 H 0.45486 0.49742 0.1935 0.0
C831 C 0.53967 0.50133 0.17323 0.0
C832 C 0.55411 0.5024 0.15216 0.0
C833 C 0.54739 0.50389 0.12627 0.0
C834 C 0.52657 0.50431 0.12126 0.0
C835 C 0.51255 0.50301 0.14236 0.0
C836 C 0.51866 0.5014 0.16783 0.0
C837 C 0.49991 0.49943 0.18678 0.0
C838 C 0.48879 0.47582 0.20161 0.0
C839 C 0.51012 0.52053 0.20569 0.0
C840 C 0.48243 0.50027 0.16793 0.0
C841 C 0.49022 0.50251 0.14245 0.0
C842 C 0.47739 0.50394 0.12154 0.0
C843 C 0.45594 0.50305 0.12677 0.0
C844 C 0.44744 0.5006 0.15268 0.0
C845 C 0.46087 0.4991 0.1735 0.0
H846 H 0.04836 0.54655 0.18455 0.0
H847 H 0.053 0.56028 0.10124 0.0
H848 H 0.01628 0.5224 0.0943 0.0
H849 H 0.02537 0.48323 0.17949 0.0
H850 H 0.00601 0.47622 0.20724 0.0
H851 H 0.03306 0.50422 0.20574 0.0
H852 H 0.00932 0.526 0.21183 0.0
H853 H 0.98224 0.49804 0.21332 0.0
H854 H 0.98546 0.51991 0.1897 0.0
H855 H 0.97897 0.48424 0.09624 0.0
H856 H 0.94293 0.44689 0.10675 0.0
H857 H 0.9618 0.45706 0.18891 0.0
C858 C 0.04159 0.54154 0.16489 0.0
C859 C 0.05356 0.55626 0.14337 0.0
C860 C 0.04432 0.54908 0.11789 0.0
C861 C 0.02342 0.52768 0.11379 0.0
C862 C 0.01207 0.51359 0.13536 0.0
C863 C 0.02081 0.52008 0.16041 0.0
C864 C 0.00495 0.50159 0.18012 0.0
C865 C 0.01814 0.49067 0.19396 0.0
C866 C 0.99489 0.51201 0.1999 0.0
C867 C 0.98583 0.48386 0.16218 0.0
C868 C 0.99038 0.49123 0.13647 0.0
C869 C 0.97519 0.47823 0.11627 0.0
C870 C 0.95469 0.45712 0.12247 0.0
C871 C 0.94952 0.44917 0.14865 0.0
C872 C 0.96544 0.46264 0.16873 0.0
H873 H 0.04189 0.49809 0.31648 0.0
H874 H 0.04893 0.48534 0.39811 0.0
H875 H 0.01017 0.4818 0.40753 0.0
H876 H 0.01577 0.53467 0.32901 0.0
H877 H 0.99637 0.52419 0.30109 0.0
H878 H 0.02412 0.52452 0.30035 0.0
H879 H 0.0021 0.47968 0.28954 0.0
H880 H 0.97446 0.47956 0.28992 0.0
H881 H 0.97838 0.45949 0.31061 0.0
H882 H 0.97084 0.47909 0.40808 0.0
H883 H 0.93422 0.48037 0.4005 0.0
H884 H 0.95306 0.49688 0.31886 0.0
C885 C 0.03507 0.49445 0.33623 0.0
C886 C 0.04818 0.49194 0.35665 0.0
C887 C 0.03907 0.48746 0.38237 0.0
C888 C 0.0171 0.48531 0.38783 0.0
C889 C 0.00462 0.48803 0.36738 0.0
C890 C 0.01332 0.49278 0.34215 0.0
C891 C 0.9968 0.49617 0.32415 0.0
C892 C 0.00899 0.52139 0.313 0.0
C893 C 0.98739 0.47761 0.30225 0.0
C894 C 0.97735 0.4922 0.34316 0.0
C895 C 0.98219 0.48737 0.36793 0.0
C896 C 0.96682 0.48285 0.38877 0.0
C897 C 0.94598 0.48343 0.38423 0.0
C898 C 0.94075 0.48865 0.35909 0.0
C899 C 0.95668 0.49303 0.33832 0.0
H900 H 0.45191 0.96191 0.38616 0.0
H901 H 0.4377 0.94742 0.30346 0.0
H902 H 0.47699 0.98093 0.29297 0.0
H903 H 0.48148 0.02453 0.38012 0.0
H904 H 0.50313 0.03037 0.40517 0.0
H905 H 0.47455 0.00402 0.40671 0.0
H906 H 0.49441 0.97818 0.40859 0.0
H907 H 0.52306 0.00448 0.40741 0.0
H908 H 0.51526 0.98142 0.38358 0.0
H909 H 0.51651 0.01661 0.29106 0.0
H910 H 0.55506 0.05251 0.29788 0.0
H911 H 0.54433 0.04506 0.38177 0.0
C912 C 0.45731 0.96575 0.36593 0.0
C913 C 0.44183 0.95225 0.34561 0.0
C914 C 0.44924 0.95775 0.31928 0.0
C915 C 0.47154 0.97667 0.31313 0.0
C916 C 0.48619 0.99002 0.33353 0.0
C917 C 0.47951 0.98487 0.3594 0.0
C918 C 0.49839 0.00284 0.37739 0.0
C919 C 0.48881 0.01623 0.39329 0.0
C920 C 0.50837 0.99102 0.3953 0.0
C921 C 0.51658 0.01886 0.35755 0.0
C922 C 0.50915 0.01101 0.3324 0.0
C923 C 0.52266 0.02286 0.31067 0.0
C924 C 0.54455 0.04318 0.31475 0.0
C925 C 0.55276 0.05146 0.34035 0.0
C926 C 0.53842 0.03923 0.362 0.0
H927 H 0.46982 0.44137 0.36759 0.0
H928 H 0.53845 0.45913 0.33686 0.0
H929 H 0.54806 0.50064 0.33057 0.0
H930 H 0.45816 0.47804 0.32615 0.0
H931 H 0.44481 0.48697 0.35118 0.0
H932 H 0.44343 0.45881 0.35343 0.0
H933 H 0.46279 0.46983 0.39929 0.0
H934 H 0.46408 0.49798 0.39729 0.0
H935 H 0.49063 0.49675 0.40344 0.0
H936 H 0.54941 0.53905 0.32626 0.0
H937 H 0.5441 0.5737 0.32686 0.0
H938 H 0.47485 0.53171 0.36207 0.0
C939 C 0.48688 0.45421 0.35976 0.0
C940 C 0.50357 0.44756 0.35274 0.0
C941 C 0.52575 0.46437 0.34252 0.0
C942 C 0.53122 0.48777 0.3388 0.0
C943 C 0.51435 0.49389 0.34585 0.0
C944 C 0.49277 0.47774 0.35645 0.0
C945 C 0.47809 0.48913 0.36291 0.0
C946 C 0.45475 0.47755 0.34749 0.0
C947 C 0.47364 0.48838 0.39249 0.0
C948 C 0.49462 0.5141 0.35373 0.0
C949 C 0.51537 0.51636 0.34391 0.0
C950 C 0.53328 0.53756 0.33395 0.0
C951 C 0.53 0.55709 0.3342 0.0
C952 C 0.50898 0.55533 0.34438 0.0
C953 C 0.49111 0.53354 0.35434 0.0
H954 H 0.49237 0.0406 0.8182 0.0
H955 H 0.50839 0.06263 0.89911 0.0
H956 H 0.51165 0.0275 0.90888 0.0
H957 H 0.4572 0.97825 0.83035 0.0
H958 H 0.46833 0.96958 0.80279 0.0
H959 H 0.46749 0.9967 0.80169 0.0
H960 H 0.5123 0.01994 0.79147 0.0
H961 H 0.5133 0.99289 0.79252 0.0
H962 H 0.5327 0.01738 0.8131 0.0
H963 H 0.51153 0.9899 0.91081 0.0
H964 H 0.50991 0.95173 0.90425 0.0
H965 H 0.49541 0.95366 0.82191 0.0
C966 C 0.49645 0.03786 0.83793 0.0
C967 C 0.50016 0.05427 0.85795 0.0
C968 C 0.50576 0.05037 0.8835 0.0
C969 C 0.50755 0.03045 0.88925 0.0
C970 C 0.50389 0.01465 0.86919 0.0
C971 C 0.49863 0.01809 0.84398 0.0
C972 C 0.49577 0.99825 0.82616 0.0
C973 C 0.4707 0.98491 0.81457 0.0
C974 C 0.51465 0.00769 0.80454 0.0
C975 C 0.49986 0.98303 0.8455 0.0
C976 C 0.50444 0.9929 0.87018 0.0
C977 C 0.50806 0.98197 0.89158 0.0
C978 C 0.50694 0.96026 0.88774 0.0
C979 C 0.50245 0.94981 0.86267 0.0
C980 C 0.49904 0.96144 0.84123 0.0
H981 H 0.45648 0.50137 0.87797 0.0
H982 H 0.43745 0.48485 0.7963 0.0
H983 H 0.47379 0.48317 0.78868 0.0
H984 H 0.52001 0.539 0.86619 0.0
H985 H 0.52823 0.52935 0.89532 0.0
H986 H 0.50084 0.52974 0.8943 0.0
H987 H 0.47811 0.48544 0.90703 0.0
H988 H 0.50538 0.48483 0.9077 0.0
H989 H 0.48132 0.46437 0.88726 0.0
H990 H 0.51133 0.48251 0.7897 0.0
H991 H 0.54973 0.48524 0.7989 0.0
H992 H 0.54523 0.50233 0.87972 0.0
C993 C 0.46013 0.4977 0.85845 0.0
C994 C 0.44393 0.49289 0.83781 0.0
C995 C 0.44929 0.48803 0.81254 0.0
C996 C 0.46995 0.48716 0.80797 0.0
C997 C 0.4852 0.49134 0.82883 0.0
C998 C 0.48077 0.49678 0.85351 0.0
C999 C 0.50031 0.50066 0.87238 0.0
C1000 C 0.5131 0.52621 0.88265 0.0
C1001 C 0.4907 0.48275 0.89492 0.0
C1002 C 0.51616 0.49617 0.85449 0.0
C1003 C 0.50708 0.49093 0.82944 0.0
C1004 C 0.51866 0.48663 0.80922 0.0
C1005 C 0.5404 0.48821 0.81459 0.0
C1006 C 0.55027 0.49391 0.83997 0.0
C1007 C 0.53782 0.49758 0.86027 0.0
H1008 H 0.94843 0.45643 0.87986 0.0
H1009 H 0.93417 0.44183 0.7971 0.0
H1010 H 0.9699 0.47934 0.78653 0.0
H1011 H 0.97189 0.52118 0.87353 0.0
H1012 H 0.99359 0.52813 0.89883 0.0
H1013 H 0.96587 0.50074 0.89998 0.0
H1014 H 0.98867 0.47775 0.90253 0.0
H1015 H 0.01641 0.50502 0.90094 0.0
H1016 H 0.00978 0.48199 0.8774 0.0
H1017 H 0.00783 0.51674 0.7845 0.0
H1018 H 0.04547 0.55395 0.79148 0.0
H1019 H 0.03546 0.54504 0.87527 0.0
C1020 C 0.95257 0.46144 0.85958 0.0
C1021 C 0.93874 0.4461 0.83931 0.0
C1022 C 0.94482 0.4531 0.81294 0.0
C1023 C 0.96499 0.47442 0.80671 0.0
C1024 C 0.97871 0.48875 0.82707 0.0
C1025 C 0.97267 0.48283 0.85297 0.0
C1026 C 0.99087 0.50143 0.87098 0.0
C1027 C 0.9799 0.51359 0.88677 0.0
C1028 C 0.0021 0.49091 0.88901 0.0
C1029 C 0.00841 0.51813 0.85108 0.0
C1030 C 0.00085 0.51058 0.82588 0.0
C1031 C 0.01389 0.52302 0.80411 0.0
C1032 C 0.03514 0.54405 0.80822 0.0
C1033 C 0.04315 0.55216 0.83383 0.0
C1034 C 0.02972 0.53896 0.85551 0.0
H1035 H 0.95701 0.50111 0.69111 0.0
H1036 H 0.93794 0.49434 0.60915 0.0
H1037 H 0.97452 0.49408 0.59766 0.0
H1038 H 0.01936 0.53944 0.68316 0.0
H1039 H 0.02749 0.5256 0.7084 0.0
H1040 H -0.00029 0.52513 0.71027 0.0
H1041 H 0.9775 0.47944 0.71351 0.0
H1042 H 0.00522 0.47976 0.71168 0.0
H1043 H 0.98201 0.46253 0.68864 0.0
H1044 H 0.01341 0.49573 0.5949 0.0
H1045 H 0.05141 0.49683 0.60122 0.0
H1046 H 0.04513 0.50186 0.68504 0.0
C1047 C 0.96065 0.49966 0.67078 0.0
C1048 C 0.94474 0.49775 0.65098 0.0
C1049 C 0.94982 0.49556 0.62459 0.0
C1050 C 0.97058 0.49553 0.61788 0.0
C1051 C 0.98594 0.4975 0.63783 0.0
C1052 C 0.98117 0.4993 0.66376 0.0
C1053 C 0.00047 0.50072 0.68141 0.0
C1054 C 0.01246 0.52412 0.69671 0.0
C1055 C 0.99071 0.47934 0.6999 0.0
C1056 C 0.01697 0.4998 0.66126 0.0
C1057 C 0.00826 0.498 0.63626 0.0
C1058 C 0.02043 0.49711 0.61437 0.0
C1059 C 0.04207 0.49793 0.61813 0.0
C1060 C 0.05121 0.49949 0.64359 0.0
C1061 C 0.03845 0.50046 0.66538 0.0
H1062 H 0.54742 0.04719 0.69606 0.0
H1063 H 0.54971 0.06379 0.61374 0.0
H1064 H 0.5105 0.02842 0.60746 0.0
H1065 H 0.51987 0.98467 0.68857 0.0
H1066 H 0.50185 0.97794 0.71744 0.0
H1067 H 0.52975 0.00504 0.71564 0.0
H1068 H 0.50866 0.02894 0.72538 0.0
H1069 H 0.48066 0.00188 0.72715 0.0
H1070 H 0.48443 0.0249 0.70493 0.0
H1071 H 0.47267 0.98992 0.60936 0.0
H1072 H 0.43748 0.95138 0.61998 0.0
H1073 H 0.45835 0.96041 0.70127 0.0
C1074 C 0.5396 0.04334 0.67676 0.0
C1075 C 0.55153 0.05822 0.65538 0.0
C1076 C 0.54071 0.05279 0.63043 0.0
C1077 C 0.51851 0.03269 0.62665 0.0
C1078 C 0.50724 0.01835 0.6481 0.0
C1079 C 0.51729 0.02346 0.67271 0.0
C1080 C 0.5015 0.00493 0.69237 0.0
C1081 C 0.51399 0.99241 0.70419 0.0
C1082 C 0.49333 0.01582 0.71372 0.0
C1083 C 0.48114 0.98845 0.67488 0.0
C1084 C 0.4849 0.99649 0.64938 0.0
C1085 C 0.46936 0.9836 0.6293 0.0
C1086 C 0.44952 0.96181 0.63543 0.0
C1087 C 0.44532 0.95334 0.6614 0.0
C1088 C 0.46112 0.96692 0.68141 0.0
H1089 H 0.49754 0.45301 0.69367 0.0
H1090 H 0.51528 0.45032 0.61246 0.0
H1091 H 0.51847 0.48886 0.60471 0.0
H1092 H 0.46171 0.4797 0.68193 0.0
H1093 H 0.47157 0.4983 0.7105 0.0
H1094 H 0.47127 0.47058 0.71045 0.0
H1095 H 0.51576 0.49228 0.72258 0.0
H1096 H 0.51613 0.52004 0.72273 0.0
H1097 H 0.53658 0.51632 0.70241 0.0
H1098 H 0.51837 0.52606 0.60462 0.0
H1099 H 0.51638 0.56209 0.61254 0.0
H1100 H 0.49907 0.54252 0.69388 0.0
C1101 C 0.50209 0.46058 0.67429 0.0
C1102 C 0.50635 0.44869 0.65368 0.0
C1103 C 0.5124 0.45923 0.62864 0.0
C1104 C 0.51409 0.48106 0.62399 0.0
C1105 C 0.50976 0.49224 0.64459 0.0
C1106 C 0.504 0.48257 0.6693 0.0
C1107 C 0.50013 0.49857 0.68778 0.0
C1108 C 0.47465 0.48603 0.69828 0.0
C1109 C 0.51824 0.50732 0.7102 0.0
C1110 C 0.50451 0.51859 0.6694 0.0
C1111 C 0.50993 0.51434 0.64461 0.0
C1112 C 0.51419 0.52967 0.62392 0.0
C1113 C 0.51285 0.54998 0.62857 0.0
C1114 C 0.50738 0.5549 0.65373 0.0
C1115 C 0.50336 0.53912 0.67453 0.0
H1116 H 0.4754 0.28269 0.27744 0.0
H1117 H 0.39978 0.25479 0.27413 0.0
H1118 H 0.39409 0.21687 0.25719 0.0
H1119 H 0.47917 0.25608 0.21784 0.0
H1120 H 0.50142 0.2495 0.22906 0.0
H1121 H 0.49993 0.27415 0.24269 0.0
H1122 H 0.49629 0.25731 0.28928 0.0
H1123 H 0.49832 0.23291 0.27582 0.0
H1124 H 0.47352 0.2274 0.29611 0.0
H1125 H 0.3963 0.18291 0.23979 0.0
H1126 H 0.40611 0.1526 0.22582 0.0
H1127 H 0.48044 0.20182 0.23838 0.0
C1128 C 0.45769 0.26831 0.27366 0.0
C1129 C 0.43789 0.27133 0.27728 0.0
C1130 C 0.41499 0.25253 0.27157 0.0
C1131 C 0.41166 0.23108 0.26185 0.0
C1132 C 0.43149 0.2288 0.25767 0.0
C1133 C 0.45408 0.24673 0.26357 0.0
C1134 C 0.47225 0.23954 0.25653 0.0
C1135 C 0.48919 0.25579 0.23526 0.0
C1136 C 0.48589 0.23927 0.28089 0.0
C1137 C 0.45625 0.21475 0.24607 0.0
C1138 C 0.43284 0.2091 0.24681 0.0
C1139 C 0.41455 0.18712 0.23895 0.0
C1140 C 0.42023 0.17012 0.23087 0.0
C1141 C 0.44393 0.17518 0.23056 0.0
C1142 C 0.46226 0.19789 0.23781 0.0
H1143 H 0.28408 0.47991 0.24778 0.0
H1144 H 0.25761 0.40633 0.22902 0.0
H1145 H 0.21718 0.39695 0.24119 0.0
H1146 H 0.24779 0.46948 0.30416 0.0
H1147 H 0.24247 0.49368 0.29868 0.0
H1148 H 0.26925 0.49537 0.2868 0.0
H1149 H 0.2599 0.50309 0.23996 0.0
H1150 H 0.23328 0.5018 0.25175 0.0
H1151 H 0.23179 0.48279 0.2254 0.0
H1152 H 0.18082 0.39489 0.25706 0.0
H1153 H 0.14833 0.40032 0.27296 0.0
H1154 H 0.1968 0.47537 0.28254 0.0
C1155 C 0.26955 0.46199 0.24583 0.0
C1156 C 0.27359 0.44372 0.23722 0.0
C1157 C 0.25453 0.42038 0.23537 0.0
C1158 C 0.23166 0.41496 0.24233 0.0
C1159 C 0.22819 0.43313 0.25133 0.0
C1160 C 0.24645 0.45623 0.25295 0.0
C1161 C 0.23761 0.47208 0.26401 0.0
C1162 C 0.25002 0.48331 0.28995 0.0
C1163 C 0.24083 0.49106 0.24408 0.0
C1164 C 0.21157 0.45419 0.26828 0.0
C1165 C 0.20677 0.43188 0.26086 0.0
C1166 C 0.18428 0.41227 0.26279 0.0
C1167 C 0.16594 0.41553 0.27186 0.0
C1168 C 0.16998 0.43821 0.27889 0.0
C1169 C 0.19326 0.4578 0.27756 0.0
H1170 H 0.8224 0.27942 0.27199 0.0
H1171 H 0.81264 0.27344 0.18787 0.0
H1172 H 0.77345 0.23829 0.19377 0.0
H1173 H 0.79823 0.21943 0.28463 0.0
H1174 H 0.78381 0.21927 0.31472 0.0
H1175 H 0.80973 0.24584 0.30421 0.0
H1176 H 0.78663 0.2685 0.30658 0.0
H1177 H 0.76055 0.24192 0.31706 0.0
H1178 H 0.75936 0.25761 0.28868 0.0
H1179 H 0.73762 0.20216 0.20788 0.0
H1180 H 0.70756 0.16576 0.22938 0.0
H1181 H 0.73987 0.19372 0.30464 0.0
C1182 C 0.81201 0.27081 0.2548 0.0
C1183 C 0.82066 0.27936 0.22941 0.0
C1184 C 0.80633 0.26756 0.2075 0.0
C1185 C 0.784 0.24754 0.21066 0.0
C1186 C 0.77612 0.23954 0.23587 0.0
C1187 C 0.78961 0.25075 0.25761 0.0
C1188 C 0.77755 0.23744 0.2824 0.0
C1189 C 0.79327 0.23005 0.29736 0.0
C1190 C 0.77061 0.25225 0.29971 0.0
C1191 C 0.75585 0.21626 0.27101 0.0
C1192 C 0.7552 0.21825 0.24416 0.0
C1193 C 0.73779 0.20048 0.22889 0.0
C1194 C 0.72092 0.17983 0.24123 0.0
C1195 C 0.7216 0.17696 0.26855 0.0
C1196 C 0.73891 0.19567 0.28375 0.0
H1197 H 0.55405 0.82755 0.26763 0.0
H1198 H 0.52385 0.80358 0.19063 0.0
H1199 H 0.51366 0.76294 0.20208 0.0
H1200 H 0.58197 0.79582 0.27315 0.0
H1201 H 0.57577 0.78828 0.30722 0.0
H1202 H 0.57661 0.81441 0.29484 0.0
H1203 H 0.53416 0.79953 0.31218 0.0
H1204 H 0.53319 0.77324 0.32464 0.0
H1205 H 0.51061 0.77082 0.30251 0.0
H1206 H 0.51265 0.72713 0.21869 0.0
H1207 H 0.52167 0.69838 0.23932 0.0
H1208 H 0.55188 0.74454 0.30606 0.0
C1209 C 0.54497 0.81362 0.2534 0.0
C1210 C 0.5397 0.81862 0.22828 0.0
C1211 C 0.52774 0.80002 0.2101 0.0
C1212 C 0.52183 0.7769 0.21646 0.0
C1213 C 0.52759 0.7726 0.24126 0.0
C1214 C 0.53868 0.79036 0.25957 0.0
C1215 C 0.54475 0.78136 0.28396 0.0
C1216 C 0.57136 0.79582 0.29012 0.0
C1217 C 0.52979 0.78123 0.3072 0.0
C1218 C 0.53739 0.75642 0.27548 0.0
C1219 C 0.52678 0.75153 0.25111 0.0
C1220 C 0.52043 0.73053 0.23799 0.0
C1221 C 0.52571 0.71441 0.24971 0.0
C1222 C 0.53735 0.71948 0.27413 0.0
C1223 C 0.54256 0.74031 0.28759 0.0
H1224 H 0.75433 0.57971 0.22627 0.0
H1225 H 0.6997 0.50778 0.24392 0.0
H1226 H 0.72965 0.50015 0.26339 0.0
H1227 H 0.80013 0.56725 0.21005 0.0
H1228 H 0.82325 0.59352 0.22534 0.0
H1229 H 0.79753 0.5934 0.21244 0.0
H1230 H 0.78986 0.60622 0.25759 0.0
H1231 H 0.81555 0.60637 0.27064 0.0
H1232 H 0.78719 0.58885 0.28607 0.0
H1233 H 0.76532 0.50023 0.28125 0.0
H1234 H 0.8046 0.50791 0.2955 0.0
H1235 H 0.83599 0.57996 0.2674 0.0
C1236 C 0.74851 0.5624 0.2344 0.0
C1237 C 0.72449 0.54436 0.23335 0.0
C1238 C 0.71792 0.52186 0.24399 0.0
C1239 C 0.73481 0.51736 0.25532 0.0
C1240 C 0.75822 0.53555 0.25604 0.0
C1241 C 0.7651 0.55763 0.2459 0.0
C1242 C 0.79144 0.57414 0.24927 0.0
C1243 C 0.8038 0.58256 0.22269 0.0
C1244 C 0.79629 0.59513 0.26695 0.0
C1245 C 0.7983 0.55778 0.26263 0.0
C1246 C 0.77884 0.53565 0.26649 0.0
C1247 C 0.78068 0.51753 0.27848 0.0
C1248 C 0.80304 0.52212 0.2867 0.0
C1249 C 0.82328 0.54463 0.2828 0.0
C1250 C 0.8208 0.56262 0.27057 0.0
H1251 H 0.275 0.80183 0.28739 0.0
H1252 H 0.25103 0.85117 0.2695 0.0
H1253 H 0.21321 0.81846 0.25287 0.0
H1254 H 0.25166 0.7673 0.23065 0.0
H1255 H 0.24305 0.7393 0.2459 0.0
H1256 H 0.26734 0.76599 0.259 0.0
H1257 H 0.24704 0.75724 0.30431 0.0
H1258 H 0.22298 0.7302 0.29154 0.0
H1259 H 0.21712 0.75161 0.3068 0.0
H1260 H 0.17969 0.7812 0.23486 0.0
H1261 H 0.15026 0.74037 0.22122 0.0
H1262 H 0.19568 0.7151 0.25071 0.0
C1263 C 0.26138 0.80546 0.28077 0.0
C1264 C 0.26556 0.8288 0.27993 0.0
C1265 C 0.24784 0.83325 0.27037 0.0
C1266 C 0.22646 0.81486 0.26081 0.0
C1267 C 0.22318 0.79213 0.26085 0.0
C1268 C 0.23997 0.78725 0.2709 0.0
C1269 C 0.23237 0.76138 0.26753 0.0
C1270 C 0.24964 0.75833 0.24971 0.0
C1271 C 0.22971 0.7494 0.29414 0.0
C1272 C 0.20866 0.75253 0.25431 0.0
C1273 C 0.20383 0.77061 0.25035 0.0
C1274 C 0.18318 0.76685 0.23798 0.0
C1275 C 0.16672 0.74381 0.23012 0.0
C1276 C 0.17107 0.72505 0.23485 0.0
C1277 C 0.19231 0.72944 0.24683 0.0
H1278 H 0.53944 0.80612 0.80259 0.0
H1279 H 0.52552 0.82922 0.72883 0.0
H1280 H 0.52128 0.79355 0.70723 0.0
H1281 H 0.5755 0.78668 0.7787 0.0
H1282 H 0.56537 0.76089 0.79903 0.0
H1283 H 0.56268 0.78552 0.81024 0.0
H1284 H 0.5176 0.75817 0.81685 0.0
H1285 H 0.52021 0.73331 0.80598 0.0
H1286 H 0.49974 0.74016 0.79009 0.0
H1287 H 0.52404 0.75901 0.69243 0.0
H1288 H 0.53275 0.72678 0.68544 0.0
H1289 H 0.54542 0.72567 0.76847 0.0
C1290 C 0.53469 0.80309 0.78212 0.0
C1291 C 0.53272 0.8202 0.76725 0.0
C1292 C 0.52712 0.8162 0.74038 0.0
C1293 C 0.52457 0.79599 0.72802 0.0
C1294 C 0.52757 0.77986 0.74288 0.0
C1295 C 0.53225 0.78296 0.76941 0.0
C1296 C 0.53695 0.76405 0.78013 0.0
C1297 C 0.56159 0.77495 0.79276 0.0
C1298 C 0.51746 0.74797 0.79941 0.0
C1299 C 0.53559 0.75085 0.75525 0.0
C1300 C 0.52958 0.75991 0.73413 0.0
C1301 C 0.52832 0.75143 0.70888 0.0
C1302 C 0.53331 0.73314 0.70509 0.0
C1303 C 0.53975 0.72371 0.72638 0.0
C1304 C 0.54073 0.73264 0.75179 0.0
H1305 H 0.80571 0.52166 0.7407 0.0
H1306 H 0.85402 0.59705 0.73685 0.0
H1307 H 0.82197 0.60452 0.75034 0.0
H1308 H 0.75257 0.52231 0.71816 0.0
H1309 H 0.73316 0.49956 0.74054 0.0
H1310 H 0.75942 0.5001 0.72875 0.0
H1311 H 0.77277 0.50058 0.77644 0.0
H1312 H 0.74674 0.50043 0.78837 0.0
H1313 H 0.77563 0.52346 0.79838 0.0
H1314 H 0.78574 0.60412 0.76456 0.0
H1315 H 0.74606 0.59592 0.77817 0.0
H1316 H 0.72062 0.52076 0.77575 0.0
C1317 C 0.80922 0.53965 0.74227 0.0
C1318 C 0.83213 0.5589 0.73753 0.0
C1319 C 0.83648 0.58224 0.74032 0.0
C1320 C 0.81845 0.58659 0.748 0.0
C1321 C 0.7962 0.56734 0.75316 0.0
C1322 C 0.79138 0.54431 0.75041 0.0
C1323 C 0.76601 0.52699 0.75827 0.0
C1324 C 0.75196 0.51132 0.73504 0.0
C1325 C 0.76526 0.51198 0.78176 0.0
C1326 C 0.75741 0.54396 0.76573 0.0
C1327 C 0.77521 0.56712 0.7625 0.0
C1328 C 0.77168 0.58609 0.76729 0.0
C1329 C 0.7492 0.58132 0.77507 0.0
C1330 C 0.73058 0.55784 0.77827 0.0
C1331 C 0.73479 0.53887 0.77393 0.0
H1332 H 0.28043 0.81361 0.75423 0.0
H1333 H 0.25272 0.81593 0.67838 0.0
H1334 H 0.21602 0.77801 0.68773 0.0
H1335 H 0.25149 0.74634 0.7569 0.0
H1336 H 0.24669 0.74629 0.79156 0.0
H1337 H 0.2722 0.77078 0.77671 0.0
H1338 H 0.25988 0.79965 0.79624 0.0
H1339 H 0.23435 0.77537 0.81094 0.0
H1340 H 0.23082 0.79517 0.78934 0.0
H1341 H 0.18049 0.74304 0.70812 0.0
H1342 H 0.14919 0.7146 0.73804 0.0
H1343 H 0.20036 0.73604 0.80057 0.0
C1344 C 0.26682 0.80559 0.73944 0.0
C1345 C 0.26908 0.81719 0.7156 0.0
C1346 C 0.25107 0.80684 0.69661 0.0
C1347 C 0.23034 0.78539 0.70176 0.0
C1348 C 0.22826 0.77452 0.72584 0.0
C1349 C 0.24622 0.78413 0.74423 0.0
C1350 C 0.23888 0.77027 0.76945 0.0
C1351 C 0.25316 0.75767 0.77391 0.0
C1352 C 0.2411 0.78606 0.79285 0.0
C1353 C 0.21339 0.75269 0.76323 0.0
C1354 C 0.20776 0.75477 0.7377 0.0
C1355 C 0.18482 0.74103 0.72801 0.0
C1356 C 0.16719 0.72503 0.74501 0.0
C1357 C 0.17261 0.72352 0.77139 0.0
C1358 C 0.196 0.73715 0.78041 0.0
H1359 H 0.43847 0.17284 0.74378 0.0
H1360 H 0.46435 0.19242 0.8234 0.0
H1361 H 0.47116 0.23237 0.81538 0.0
H1362 H 0.47839 0.2291 0.71345 0.0
H1363 H 0.45615 0.22752 0.69135 0.0
H1364 H 0.45488 0.20079 0.70262 0.0
H1365 H 0.41232 0.18544 0.71973 0.0
H1366 H 0.41337 0.212 0.70838 0.0
H1367 H 0.40671 0.20337 0.74213 0.0
H1368 H 0.47313 0.26954 0.79984 0.0
H1369 H 0.46811 0.30064 0.77839 0.0
H1370 H 0.44078 0.25719 0.70916 0.0
C1371 C 0.44563 0.18529 0.75971 0.0
C1372 C 0.45102 0.17905 0.78427 0.0
C1373 C 0.46032 0.19643 0.80427 0.0
C1374 C 0.46428 0.21933 0.79992 0.0
C1375 C 0.45885 0.22472 0.77549 0.0
C1376 C 0.44961 0.20818 0.75576 0.0
C1377 C 0.44406 0.21811 0.73172 0.0
C1378 C 0.45928 0.21893 0.70841 0.0
C1379 C 0.41754 0.20389 0.72512 0.0
C1380 C 0.45113 0.24273 0.74124 0.0
C1381 C 0.45986 0.24621 0.76648 0.0
C1382 C 0.46645 0.26706 0.78006 0.0
C1383 C 0.46349 0.28456 0.76781 0.0
C1384 C 0.45405 0.28115 0.74227 0.0
C1385 C 0.4483 0.26021 0.72858 0.0
H1386 H 0.19946 0.48243 0.7293 0.0
H1387 H 0.14317 0.41055 0.74175 0.0
H1388 H 0.17166 0.4004 0.76088 0.0
H1389 H 0.24639 0.46742 0.71375 0.0
H1390 H 0.26904 0.49294 0.73062 0.0
H1391 H 0.24461 0.49404 0.71568 0.0
H1392 H 0.23535 0.5066 0.76006 0.0
H1393 H 0.25938 0.50497 0.77526 0.0
H1394 H 0.2299 0.48813 0.78832 0.0
H1395 H 0.20443 0.3985 0.78158 0.0
H1396 H 0.24195 0.40324 0.79814 0.0
H1397 H 0.27875 0.47633 0.77303 0.0
C1398 C 0.19347 0.46443 0.73529 0.0
C1399 C 0.16924 0.44704 0.73376 0.0
C1400 C 0.16172 0.42386 0.74252 0.0
C1401 C 0.17772 0.41804 0.75355 0.0
C1402 C 0.20129 0.43566 0.75576 0.0
C1403 C 0.20938 0.45829 0.74652 0.0
C1404 C 0.2357 0.47383 0.7521 0.0
C1405 C 0.24976 0.48257 0.72651 0.0
C1406 C 0.24035 0.49461 0.77 0.0
C1407 C 0.24092 0.45637 0.76608 0.0
C1408 C 0.22063 0.43455 0.76799 0.0
C1409 C 0.22049 0.41541 0.78001 0.0
C1410 C 0.24183 0.41829 0.78945 0.0
C1411 C 0.26314 0.44006 0.78686 0.0
C1412 C 0.26263 0.45959 0.77554 0.0
H1413 H 0.71804 0.18993 0.73467 0.0
H1414 H 0.75061 0.14617 0.7281 0.0
H1415 H 0.78641 0.17701 0.74912 0.0
H1416 H 0.77256 0.24505 0.71946 0.0
H1417 H 0.76607 0.2626 0.74147 0.0
H1418 H 0.7423 0.23668 0.72642 0.0
H1419 H 0.72505 0.22048 0.77221 0.0
H1420 H 0.74909 0.24612 0.78741 0.0
H1421 H 0.7432 0.21698 0.79632 0.0
H1422 H 0.81825 0.21113 0.7712 0.0
H1423 H 0.84781 0.25076 0.78721 0.0
H1424 H 0.79711 0.27453 0.77841 0.0
C1425 C 0.73278 0.18696 0.73747 0.0
C1426 C 0.7311 0.16519 0.73043 0.0
C1427 C 0.75097 0.1622 0.73418 0.0
C1428 C 0.77152 0.17969 0.74604 0.0
C1429 C 0.77227 0.20041 0.75373 0.0
C1430 C 0.75379 0.20454 0.74907 0.0
C1431 C 0.76015 0.22919 0.75812 0.0
C1432 C 0.76029 0.24427 0.73499 0.0
C1433 C 0.74337 0.22812 0.77981 0.0
C1434 C 0.78498 0.238 0.76861 0.0
C1435 C 0.79134 0.22085 0.76609 0.0
C1436 C 0.81352 0.22472 0.77344 0.0
C1437 C 0.83008 0.24707 0.7827 0.0
C1438 C 0.82438 0.26518 0.78453 0.0
C1439 C 0.80144 0.26056 0.77789 0.0
H1440 H 0.42269 0.01667 0.20025 0.0
H1441 H 0.40158 0.0664 0.22695 0.0
H1442 H 0.37456 0.03707 0.25916 0.0
H1443 H 0.36573 0.96266 0.20858 0.0
H1444 H 0.37906 0.94595 0.22014 0.0
H1445 H 0.39488 0.97003 0.19767 0.0
H1446 H 0.43004 0.98928 0.23011 0.0
H1447 H 0.41422 0.96539 0.25274 0.0
H1448 H 0.42498 0.99542 0.26307 0.0
H1449 H 0.34941 0.00146 0.28882 0.0
H1450 H 0.33125 0.96434 0.31491 0.0
H1451 H 0.37193 0.9403 0.2708 0.0
C1452 C 0.41198 0.02119 0.21246 0.0
C1453 C 0.41388 0.04364 0.21076 0.0
C1454 C 0.40018 0.04918 0.22773 0.0
C1455 C 0.38479 0.03264 0.24608 0.0
C1456 C 0.38353 0.01072 0.24751 0.0
C1457 C 0.39693 0.00508 0.23124 0.0
C1458 C 0.39365 0.98104 0.2378 0.0
C1459 C 0.38268 0.96392 0.21467 0.0
C1460 C 0.41712 0.98291 0.24645 0.0
C1461 C 0.37641 0.97408 0.2603 0.0
C1462 C 0.37039 0.99115 0.26544 0.0
C1463 C 0.3541 0.98803 0.285 0.0
C1464 C 0.34381 0.96693 0.29966 0.0
C1465 C 0.35032 0.94962 0.29499 0.0
C1466 C 0.36681 0.95338 0.27504 0.0
H1467 H 0.39363 0.43565 0.22695 0.0
H1468 H 0.32487 0.37554 0.20853 0.0
H1469 H 0.33361 0.3503 0.23685 0.0
H1470 H 0.4257 0.403 0.22927 0.0
H1471 H 0.44424 0.4203 0.25602 0.0
H1472 H 0.43295 0.4333 0.2333 0.0
H1473 H 0.41479 0.44453 0.2718 0.0
H1474 H 0.42571 0.43123 0.29459 0.0
H1475 H 0.39464 0.42185 0.29379 0.0
H1476 H 0.3489 0.33187 0.26905 0.0
H1477 H 0.37108 0.32083 0.29952 0.0
H1478 H 0.43002 0.39278 0.29705 0.0
C1479 C 0.38051 0.4171 0.22853 0.0
C1480 C 0.35849 0.40763 0.21539 0.0
C1481 C 0.34185 0.38327 0.21826 0.0
C1482 C 0.34662 0.36878 0.23442 0.0
C1483 C 0.36818 0.3788 0.24761 0.0
C1484 C 0.385 0.40234 0.2446 0.0
C1485 C 0.4067 0.40875 0.26118 0.0
C1486 C 0.42869 0.4168 0.24391 0.0
C1487 C 0.41068 0.42771 0.28155 0.0
C1488 C 0.39935 0.38514 0.2741 0.0
C1489 C 0.37704 0.36815 0.26607 0.0
C1490 C 0.36643 0.34503 0.2754 0.0
C1491 C 0.37913 0.33895 0.29289 0.0
C1492 C 0.4023 0.35588 0.30091 0.0
C1493 C 0.41231 0.37938 0.29152 0.0
H1494 H 0.03244 0.43882 0.29861 0.0
H1495 H 0.04076 0.37919 0.31951 0.0
H1496 H 0.00937 0.35417 0.28758 0.0
H1497 H 0.96953 0.40781 0.28872 0.0
H1498 H 0.97169 0.42632 0.26152 0.0
H1499 H 0.99384 0.43766 0.28679 0.0
H1500 H 0.02578 0.44878 0.25097 0.0
H1501 H 0.00342 0.43607 0.22598 0.0
H1502 H 0.02436 0.42597 0.22996 0.0
H1503 H 0.97692 0.33609 0.25266 0.0
H1504 H 0.94504 0.32589 0.2204 0.0
H1505 H 0.95951 0.39833 0.22207 0.0
C1506 C 0.02738 0.4204 0.29683 0.0
C1507 C 0.03847 0.41067 0.31196 0.0
C1508 C 0.03193 0.3867 0.3085 0.0
C1509 C 0.01434 0.37251 0.29026 0.0
C1510 C 0.00389 0.38277 0.27536 0.0
C1511 C 0.0102 0.40619 0.27853 0.0
C1512 C 0.99672 0.41324 0.25999 0.0
C1513 C 0.98203 0.42173 0.27515 0.0
C1514 C 0.01358 0.43213 0.24058 0.0
C1515 C 0.98117 0.38993 0.2464 0.0
C1516 C 0.98576 0.37261 0.2552 0.0
C1517 C 0.97325 0.34956 0.24564 0.0
C1518 C 0.95522 0.34395 0.2272 0.0
C1519 C 0.94969 0.36127 0.21864 0.0
C1520 C 0.96325 0.38465 0.22811 0.0
H1521 H 0.61999 0.98562 0.19008 0.0
H1522 H 0.56687 0.92827 0.23674 0.0
H1523 H 0.57935 0.95457 0.27542 0.0
H1524 H 0.66556 0.0124 0.23742 0.0
H1525 H 0.67422 0.04224 0.22808 0.0
H1526 H 0.66121 0.01885 0.2043 0.0
H1527 H 0.62874 0.02959 0.19446 0.0
H1528 H 0.64179 0.05314 0.21808 0.0
H1529 H 0.61112 0.03075 0.2209 0.0
H1530 H 0.59768 0.98807 0.30911 0.0
H1531 H 0.6188 0.02589 0.33365 0.0
H1532 H 0.66008 0.06043 0.26477 0.0
C1533 C 0.61103 0.9785 0.20846 0.0
C1534 C 0.59265 0.95473 0.21044 0.0
C1535 C 0.58107 0.94634 0.23475 0.0
C1536 C 0.58809 0.96116 0.25685 0.0
C1537 C 0.6065 0.98444 0.25425 0.0
C1538 C 0.61757 0.99311 0.23053 0.0
C1539 C 0.63604 0.01905 0.23244 0.0
C1540 C 0.66072 0.02337 0.22513 0.0
C1541 C 0.629 0.03401 0.21546 0.0
C1542 C 0.63445 0.02345 0.26119 0.0
C1543 C 0.61708 0.00341 0.27345 0.0
C1544 C 0.6115 0.00374 0.29973 0.0
C1545 C 0.62368 0.02518 0.31359 0.0
C1546 C 0.64151 0.04577 0.30129 0.0
C1547 C 0.64705 0.04476 0.27487 0.0
H1548 H 0.60234 0.66124 0.26238 0.0
H1549 H 0.5828 0.61511 0.32968 0.0
H1550 H 0.59854 0.59197 0.30809 0.0
H1551 H 0.58425 0.61516 0.21614 0.0
H1552 H 0.60725 0.63197 0.19277 0.0
H1553 H 0.59723 0.6468 0.21458 0.0
H1554 H 0.64004 0.67356 0.23117 0.0
H1555 H 0.65026 0.65899 0.20922 0.0
H1556 H 0.65647 0.66024 0.24368 0.0
H1557 H 0.61346 0.57249 0.27872 0.0
H1558 H 0.62718 0.55714 0.24336 0.0
H1559 H 0.63656 0.61484 0.19314 0.0
C1560 C 0.60228 0.64681 0.27283 0.0
C1561 C 0.59221 0.64032 0.29801 0.0
C1562 C 0.59111 0.62061 0.31069 0.0
C1563 C 0.59989 0.60736 0.29853 0.0
C1564 C 0.60939 0.61391 0.27352 0.0
C1565 C 0.61066 0.63312 0.26072 0.0
C1566 C 0.61983 0.63494 0.23303 0.0
C1567 C 0.60102 0.63205 0.21294 0.0
C1568 C 0.64304 0.65832 0.22905 0.0
C1569 C 0.62381 0.61394 0.2324 0.0
C1570 C 0.61754 0.60211 0.25602 0.0
C1571 C 0.61861 0.58169 0.26021 0.0
C1572 C 0.62638 0.57306 0.23982 0.0
C1573 C 0.63308 0.58478 0.21531 0.0
C1574 C 0.63183 0.60561 0.21165 0.0
H1575 H 0.96837 0.61666 0.30903 0.0
H1576 H 0.93937 0.54415 0.28227 0.0
H1577 H 0.97035 0.55706 0.24942 0.0
H1578 H 0.988 0.64491 0.24528 0.0
H1579 H 0.01542 0.6692 0.25705 0.0
H1580 H 0.99013 0.6552 0.27839 0.0
H1581 H 0.01459 0.64693 0.31224 0.0
H1582 H 0.04001 0.66124 0.29117 0.0
H1583 H 0.02963 0.63143 0.3021 0.0
H1584 H 0.00275 0.57644 0.21875 0.0
H1585 H 0.04019 0.6011 0.19607 0.0
H1586 H 0.05215 0.6615 0.24307 0.0
C1587 C 0.96863 0.60358 0.29625 0.0
C1588 C 0.95125 0.57937 0.2984 0.0
C1589 C 0.95239 0.56278 0.28138 0.0
C1590 C 0.96985 0.56993 0.26232 0.0
C1591 C 0.98643 0.59375 0.26046 0.0
C1592 C 0.98648 0.61038 0.27718 0.0
C1593 C 0.00775 0.63462 0.27167 0.0
C1594 C -0.00016 0.65201 0.26255 0.0
C1595 C 0.02395 0.64411 0.29573 0.0
C1596 C 0.01954 0.62871 0.24955 0.0
C1597 C 0.00645 0.60507 0.24317 0.0
C1598 C 0.01334 0.59497 0.22366 0.0
C1599 C 0.03474 0.60918 0.21091 0.0
C1600 C 0.04939 0.63318 0.218 0.0
C1601 C 0.04133 0.64325 0.23712 0.0
H1602 H 0.58307 0.93524 0.76205 0.0
H1603 H 0.59019 0.97231 0.83461 0.0
H1604 H 0.60761 0.01029 0.8103 0.0
H1605 H 0.63594 0.9795 0.72989 0.0
H1606 H 0.62179 0.974 0.69839 0.0
H1607 H 0.61174 0.95055 0.72205 0.0
H1608 H 0.56925 0.94408 0.71869 0.0
H1609 H 0.57918 0.9676 0.69515 0.0
H1610 H 0.56445 0.96857 0.72449 0.0
H1611 H 0.62147 0.04355 0.77702 0.0
H1612 H 0.63264 0.06966 0.73856 0.0
H1613 H 0.61594 0.01001 0.68791 0.0
C1614 C 0.58866 0.95135 0.77292 0.0
C1615 C 0.58573 0.95103 0.80021 0.0
C1616 C 0.5928 0.97242 0.81371 0.0
C1617 C 0.60253 0.99395 0.80004 0.0
C1618 C 0.60476 0.99358 0.77293 0.0
C1619 C 0.59808 0.9728 0.75959 0.0
C1620 C 0.60109 0.97679 0.7304 0.0
C1621 C 0.6187 0.96981 0.71955 0.0
C1622 C 0.57707 0.96347 0.71636 0.0
C1623 C 0.61098 0.0032 0.72926 0.0
C1624 C 0.61272 0.01255 0.75395 0.0
C1625 C 0.62041 0.03642 0.75767 0.0
C1626 C 0.62668 0.05111 0.73564 0.0
C1627 C 0.62547 0.04195 0.71017 0.0
C1628 C 0.61742 0.01764 0.70709 0.0
H1629 H 0.61513 0.55854 0.77371 0.0
H1630 H 0.66153 0.62271 0.81635 0.0
H1631 H 0.64769 0.64471 0.78881 0.0
H1632 H 0.62547 0.5853 0.71118 0.0
H1633 H 0.59559 0.56649 0.69994 0.0
H1634 H 0.60807 0.55584 0.72408 0.0
H1635 H 0.57326 0.54631 0.75527 0.0
H1636 H 0.56059 0.55689 0.7313 0.0
H1637 H 0.56672 0.56922 0.76375 0.0
H1638 H 0.6274 0.65913 0.75676 0.0
H1639 H 0.60418 0.66503 0.72227 0.0
H1640 H 0.57416 0.59183 0.69888 0.0
C1641 C 0.62224 0.57718 0.77758 0.0
C1642 C 0.63926 0.58888 0.79743 0.0
C1643 C 0.64841 0.61338 0.80136 0.0
C1644 C 0.64065 0.62598 0.7858 0.0
C1645 C 0.62402 0.61386 0.76618 0.0
C1646 C 0.61507 0.59 0.762 0.0
C1647 C 0.59815 0.58112 0.73909 0.0
C1648 C 0.60738 0.57164 0.71728 0.0
C1649 C 0.57321 0.56228 0.74789 0.0
C1650 C 0.59885 0.6037 0.73092 0.0
C1651 C 0.61364 0.62237 0.74693 0.0
C1652 C 0.61606 0.6447 0.74392 0.0
C1653 C 0.60289 0.64793 0.72425 0.0
C1654 C 0.58786 0.62906 0.70753 0.0
C1655 C 0.58608 0.60678 0.71083 0.0
H1656 H 0.03694 0.61158 0.79844 0.0
H1657 H 0.05684 0.68473 0.78424 0.0
H1658 H 0.02237 0.67164 0.75542 0.0
H1659 H 0.01905 0.59061 0.7353 0.0
H1660 H 0.9938 0.56268 0.74411 0.0
H1661 H 0.01841 0.57711 0.76623 0.0
H1662 H 0.99078 0.57626 0.80284 0.0
H1663 H 0.96591 0.56132 0.78107 0.0
H1664 H 0.97174 0.58838 0.7968 0.0
H1665 H 0.98815 0.65124 0.72496 0.0
H1666 H 0.9535 0.62435 0.69834 0.0
H1667 H 0.95538 0.56419 0.73166 0.0
C1668 C 0.0338 0.62484 0.78974 0.0
C1669 C 0.04984 0.64926 0.79357 0.0
C1670 C 0.04497 0.66596 0.78166 0.0
C1671 C 0.02542 0.6587 0.76514 0.0
C1672 C 0.01065 0.63463 0.76082 0.0
C1673 C 0.01425 0.61787 0.77315 0.0
C1674 C 0.99585 0.59311 0.76456 0.0
C1675 C 0.00749 0.58013 0.75179 0.0
C1676 C 0.98014 0.57894 0.7877 0.0
C1677 C 0.98199 0.59873 0.74478 0.0
C1678 C 0.99073 0.62278 0.74314 0.0
C1679 C 0.98098 0.63234 0.72624 0.0
C1680 C 0.96135 0.61692 0.71107 0.0
C1681 C 0.95168 0.59214 0.71276 0.0
C1682 C 0.96242 0.58304 0.72968 0.0
H1683 H 0.40613 0.06171 0.76176 0.0
H1684 H 0.40375 0.02797 0.83537 0.0
H1685 H 0.38618 0.98914 0.81295 0.0
H1686 H 0.35287 0.01564 0.73206 0.0
H1687 H 0.3659 0.01959 0.70008 0.0
H1688 H 0.37672 0.04418 0.72235 0.0
H1689 H 0.41907 0.0506 0.71798 0.0
H1690 H 0.40839 0.02595 0.69579 0.0
H1691 H 0.4242 0.02648 0.72488 0.0
H1692 H 0.37114 0.95491 0.78238 0.0
H1693 H 0.35854 0.92659 0.74609 0.0
H1694 H 0.3707 0.98226 0.69132 0.0
C1695 C 0.40129 0.04599 0.77317 0.0
C1696 C 0.40546 0.04747 0.80035 0.0
C1697 C 0.40003 0.02689 0.81463 0.0
C1698 C 0.39021 0.0049 0.80203 0.0
C1699 C 0.38647 0.00401 0.7751 0.0
C1700 C 0.39193 0.024 0.76079 0.0
C1701 C 0.38774 0.01844 0.73183 0.0
C1702 C 0.36972 0.02483 0.72095 0.0
C1703 C 0.41124 0.03112 0.71673 0.0
C1704 C 0.37795 0.99194 0.73215 0.0
C1705 C 0.37785 0.98416 0.75732 0.0
C1706 C 0.37089 0.96074 0.76266 0.0
C1707 C 0.36376 0.94478 0.74184 0.0
C1708 C 0.36323 0.9521 0.71587 0.0
C1709 C 0.37039 0.97605 0.711 0.0
H1710 H 0.35956 0.37755 0.8155 0.0
H1711 H 0.3708 0.44077 0.77512 0.0
H1712 H 0.38784 0.43068 0.73774 0.0
H1713 H 0.41369 0.38088 0.79318 0.0
H1714 H 0.40081 0.34933 0.79031 0.0
H1715 H 0.38937 0.36149 0.81394 0.0
H1716 H 0.34753 0.33668 0.79394 0.0
H1717 H 0.35888 0.32459 0.77013 0.0
H1718 H 0.34319 0.33931 0.75958 0.0
H1719 H 0.40573 0.41495 0.70561 0.0
H1720 H 0.42242 0.39402 0.68087 0.0
H1721 H 0.39736 0.33981 0.74046 0.0
C1722 C 0.36548 0.38922 0.79875 0.0
C1723 C 0.36376 0.40996 0.79832 0.0
C1724 C 0.37193 0.42481 0.77604 0.0
C1725 C 0.38161 0.41921 0.75463 0.0
C1726 C 0.38298 0.39863 0.75565 0.0
C1727 C 0.37518 0.38386 0.77713 0.0
C1728 C 0.37923 0.36311 0.77348 0.0
C1729 C 0.39682 0.36375 0.79394 0.0
C1730 C 0.3558 0.33953 0.77432 0.0
C1731 C 0.38998 0.36821 0.74635 0.0
C1732 C 0.39233 0.389 0.73658 0.0
C1733 C 0.40355 0.3984 0.71281 0.0
C1734 C 0.41284 0.38639 0.69883 0.0
C1735 C 0.41036 0.36497 0.70836 0.0
C1736 C 0.39858 0.35567 0.73228 0.0
H1737 H 0.03376 0.38419 0.70844 0.0
H1738 H 0.06279 0.45544 0.73885 0.0
H1739 H 0.03058 0.44142 0.77075 0.0
H1740 H 0.97247 0.37051 0.71394 0.0
H1741 H 0.96118 0.34002 0.72265 0.0
H1742 H 0.98725 0.3551 0.70263 0.0
H1743 H 0.01027 0.34418 0.73569 0.0
H1744 H 0.98432 0.3293 0.75594 0.0
H1745 H 0.01158 0.35246 0.76951 0.0
H1746 H 0.99597 0.42081 0.79922 0.0
H1747 H 0.95768 0.39491 0.82019 0.0
H1748 H 0.94845 0.33644 0.77154 0.0
C1749 C 0.0333 0.39673 0.72191 0.0
C1750 C 0.05094 0.42094 0.72116 0.0
C1751 C 0.04951 0.43687 0.73887 0.0
C1752 C 0.03134 0.42906 0.75726 0.0
C1753 C 0.01434 0.40523 0.75764 0.0
C1754 C 0.01477 0.38927 0.74024 0.0
C1755 C 0.99311 0.36492 0.74402 0.0
C1756 C 0.97759 0.35719 0.71934 0.0
C1757 C 0.00026 0.34664 0.75176 0.0
C1758 C 0.98083 0.36979 0.76648 0.0
C1759 C 0.9936 0.39319 0.77398 0.0
C1760 C 0.98579 0.40242 0.79358 0.0
C1761 C 0.964 0.38754 0.80539 0.0
C1762 C 0.95009 0.36362 0.79763 0.0
C1763 C 0.95888 0.35451 0.77824 0.0
H1764 H 0.51545 0.12759 0.26147 0.0
H1765 H 0.54889 0.16564 0.19041 0.0
H1766 H 0.58814 0.17674 0.20895 0.0
H1767 H 0.56386 0.16716 0.30809 0.0
H1768 H 0.55919 0.14207 0.32731 0.0
H1769 H 0.53469 0.14168 0.31056 0.0
H1770 H 0.52551 0.10266 0.28743 0.0
H1771 H 0.54991 0.10297 0.30391 0.0
H1772 H 0.5484 0.10166 0.26876 0.0
H1773 H 0.62205 0.17551 0.23109 0.0
H1774 H 0.64746 0.16408 0.25598 0.0
H1775 H 0.59198 0.12879 0.31319 0.0
C1776 C 0.5311 0.13898 0.25018 0.0
C1777 C 0.52927 0.1459 0.22465 0.0
C1778 C 0.55003 0.16047 0.21022 0.0
C1779 C 0.57235 0.1668 0.22058 0.0
C1780 C 0.57349 0.15877 0.24551 0.0
C1781 C 0.55335 0.14549 0.26027 0.0
C1782 C 0.55872 0.13662 0.2851 0.0
C1783 C 0.55384 0.14755 0.3092 0.0
C1784 C 0.54483 0.10939 0.28634 0.0
C1785 C 0.58486 0.14599 0.28155 0.0
C1786 C 0.59322 0.15892 0.25872 0.0
C1787 C 0.61599 0.16625 0.24948 0.0
C1788 C 0.63029 0.15975 0.26364 0.0
C1789 C 0.62173 0.14639 0.28676 0.0
C1790 C 0.5991 0.13997 0.29613 0.0
H1791 H 0.45789 0.59451 0.31728 0.0
H1792 H 0.48168 0.64713 0.2563 0.0
H1793 H 0.44485 0.62215 0.23144 0.0
H1794 H 0.44223 0.54998 0.27696 0.0
H1795 H 0.41712 0.52785 0.29481 0.0
H1796 H 0.44027 0.55256 0.31182 0.0
H1797 H 0.40991 0.56339 0.33037 0.0
H1798 H 0.38648 0.53842 0.31349 0.0
H1799 H 0.39075 0.56758 0.30836 0.0
H1800 H 0.41027 0.58846 0.20952 0.0
H1801 H 0.38372 0.5488 0.19113 0.0
H1802 H 0.38458 0.51709 0.26508 0.0
C1803 C 0.4545 0.60125 0.29944 0.0
C1804 C 0.47182 0.62291 0.28897 0.0
C1805 C 0.46799 0.63082 0.26482 0.0
C1806 C 0.44716 0.61675 0.25067 0.0
C1807 C 0.4307 0.59477 0.26091 0.0
C1808 C 0.4342 0.58707 0.28484 0.0
C1809 C 0.41694 0.56109 0.289 0.0
C1810 C 0.42992 0.54708 0.29338 0.0
C1811 C 0.40002 0.55742 0.31165 0.0
C1812 C 0.40409 0.55501 0.26316 0.0
C1813 C 0.41158 0.57476 0.24756 0.0
C1814 C 0.40385 0.57299 0.2218 0.0
C1815 C 0.38874 0.55042 0.21152 0.0
C1816 C 0.38212 0.53006 0.22685 0.0
C1817 C 0.38922 0.53248 0.25315 0.0
H1818 H 0.84965 0.44809 0.31546 0.0
H1819 H 0.84404 0.48824 0.25166 0.0
H1820 H 0.8324 0.45439 0.22191 0.0
H1821 H 0.88041 0.42998 0.28385 0.0
H1822 H 0.86828 0.40072 0.29737 0.0
H1823 H 0.86662 0.42323 0.31561 0.0
H1824 H 0.82107 0.39685 0.31887 0.0
H1825 H 0.82263 0.37401 0.30067 0.0
H1826 H 0.80379 0.38507 0.28955 0.0
H1827 H 0.83073 0.42096 0.19751 0.0
H1828 H 0.84312 0.39354 0.18011 0.0
H1829 H 0.85402 0.3769 0.25886 0.0
C1830 C 0.84437 0.44897 0.29562 0.0
C1831 C 0.8467 0.47015 0.28586 0.0
C1832 C 0.84144 0.4717 0.25947 0.0
C1833 C 0.83481 0.45255 0.24252 0.0
C1834 C 0.83387 0.43215 0.25228 0.0
C1835 C 0.83845 0.43022 0.27834 0.0
C1836 C 0.84163 0.40904 0.28277 0.0
C1837 C 0.86566 0.4162 0.29562 0.0
C1838 C 0.82105 0.39012 0.29893 0.0
C1839 C 0.84045 0.4008 0.25492 0.0
C1840 C 0.83464 0.41348 0.23778 0.0
C1841 C 0.83466 0.41049 0.21079 0.0
C1842 C 0.84165 0.39485 0.20105 0.0
C1843 C 0.84923 0.38309 0.21829 0.0
C1844 C 0.84786 0.38548 0.24546 0.0
H1845 H 0.37454 0.83348 0.27727 0.0
H1846 H 0.41318 0.90411 0.30998 0.0
H1847 H 0.44863 0.91118 0.28842 0.0
H1848 H 0.43177 0.82745 0.28576 0.0
H1849 H 0.42471 0.8088 0.25736 0.0
H1850 H 0.40133 0.80733 0.27749 0.0
H1851 H 0.38322 0.81537 0.23665 0.0
H1852 H 0.40694 0.81767 0.21657 0.0
H1853 H 0.40081 0.84168 0.21763 0.0
H1854 H 0.47308 0.91631 0.25335 0.0
H1855 H 0.50081 0.9141 0.22425 0.0
H1856 H 0.45642 0.83749 0.22008 0.0
C1857 C 0.39078 0.84993 0.28064 0.0
C1858 C 0.39087 0.8687 0.29488 0.0
C1859 C 0.41241 0.88978 0.29909 0.0
C1860 C 0.43278 0.8941 0.28659 0.0
C1861 C 0.43184 0.87651 0.27094 0.0
C1862 C 0.4124 0.85417 0.26935 0.0
C1863 C 0.4186 0.83861 0.25245 0.0
C1864 C 0.41913 0.8194 0.26926 0.0
C1865 C 0.40136 0.8277 0.22945 0.0
C1866 C 0.44355 0.8568 0.24321 0.0
C1867 C 0.44979 0.87852 0.25387 0.0
C1868 C 0.46962 0.89922 0.24645 0.0
C1869 C 0.48527 0.89766 0.2298 0.0
C1870 C 0.48181 0.87548 0.22158 0.0
C1871 C 0.46001 0.85459 0.22713 0.0
H1872 H 0.58475 0.46872 0.20309 0.0
H1873 H 0.64361 0.46346 0.23389 0.0
H1874 H 0.61541 0.42696 0.25808 0.0
H1875 H 0.55499 0.45597 0.26111 0.0
H1876 H 0.52588 0.44084 0.24684 0.0
H1877 H 0.55024 0.46318 0.22851 0.0
H1878 H 0.54198 0.43346 0.19091 0.0
H1879 H 0.51727 0.41103 0.20895 0.0
H1880 H 0.54035 0.40562 0.19785 0.0
H1881 H 0.57963 0.39419 0.28421 0.0
H1882 H 0.54153 0.36931 0.30743 0.0
H1883 H 0.5082 0.39808 0.25782 0.0
C1884 C 0.59164 0.45927 0.21402 0.0
C1885 C 0.61609 0.46824 0.21616 0.0
C1886 C 0.62475 0.45623 0.23153 0.0
C1887 C 0.60887 0.43567 0.2454 0.0
C1888 C 0.58462 0.42769 0.24361 0.0
C1889 C 0.57621 0.4392 0.22801 0.0
C1890 C 0.55007 0.42952 0.23147 0.0
C1891 C 0.54502 0.4485 0.24265 0.0
C1892 C 0.53663 0.41929 0.20576 0.0
C1893 C 0.54475 0.41044 0.25121 0.0
C1894 C 0.56469 0.40952 0.25833 0.0
C1895 C 0.56387 0.39451 0.27831 0.0
C1896 C 0.5422 0.38041 0.29138 0.0
C1897 C 0.52182 0.38152 0.28425 0.0
C1898 C 0.52326 0.39641 0.26357 0.0
H1899 H 0.15955 0.62349 0.2472 0.0
H1900 H 0.1334 0.5913 0.17164 0.0
H1901 H 0.13713 0.55706 0.18474 0.0
H1902 H 0.20115 0.59526 0.25434 0.0
H1903 H 0.19654 0.59311 0.28915 0.0
H1904 H 0.19815 0.61774 0.2714 0.0
H1905 H 0.15748 0.60789 0.29027 0.0
H1906 H 0.15544 0.58311 0.30762 0.0
H1907 H 0.1323 0.57883 0.2852 0.0
H1908 H 0.13356 0.52334 0.20889 0.0
H1909 H 0.12524 0.49278 0.24167 0.0
H1910 H 0.15588 0.54624 0.30207 0.0
C1911 C 0.15605 0.60981 0.23304 0.0
C1912 C 0.14683 0.61014 0.20823 0.0
C1913 C 0.14128 0.59163 0.19037 0.0
C1914 C 0.1433 0.57209 0.19769 0.0
C1915 C 0.15167 0.57176 0.22265 0.0
C1916 C 0.15875 0.59046 0.23982 0.0
C1917 C 0.16487 0.58448 0.26631 0.0
C1918 C 0.19177 0.59848 0.27057 0.0
C1919 C 0.1517 0.58881 0.28864 0.0
C1920 C 0.15656 0.55844 0.26255 0.0
C1921 C 0.1501 0.55187 0.2368 0.0
C1922 C 0.13939 0.52841 0.22884 0.0
C1923 C 0.13462 0.51115 0.24766 0.0
C1924 C 0.1403 0.51727 0.27426 0.0
C1925 C 0.15213 0.54127 0.28171 0.0
H1926 H 0.46638 0.84351 0.76047 0.0
H1927 H 0.45221 0.85718 0.83915 0.0
H1928 H 0.41249 0.84877 0.8257 0.0
H1929 H 0.44486 0.86969 0.72717 0.0
H1930 H 0.42993 0.84861 0.70133 0.0
H1931 H 0.45383 0.84856 0.71844 0.0
H1932 H 0.42689 0.80454 0.73071 0.0
H1933 H 0.40275 0.80429 0.71324 0.0
H1934 H 0.39918 0.79536 0.74699 0.0
H1935 H 0.38102 0.85064 0.80186 0.0
H1936 H 0.35871 0.86001 0.76998 0.0
H1937 H 0.39049 0.84183 0.70652 0.0
C1938 C 0.45427 0.8434 0.775 0.0
C1939 C 0.46191 0.85055 0.8008 0.0
C1940 C 0.44625 0.85109 0.81943 0.0
C1941 C 0.42367 0.84633 0.81194 0.0
C1942 C 0.41681 0.84018 0.78601 0.0
C1943 C 0.43133 0.83787 0.76797 0.0
C1944 C 0.42076 0.8336 0.7408 0.0
C1945 C 0.43839 0.85119 0.7208 0.0
C1946 C 0.41187 0.80793 0.73243 0.0
C1947 C 0.40011 0.83756 0.74569 0.0
C1948 C 0.39755 0.84027 0.77212 0.0
C1949 C 0.38211 0.84753 0.78128 0.0
C1950 C 0.36956 0.85288 0.76303 0.0
C1951 C 0.37258 0.85107 0.73594 0.0
C1952 C 0.38724 0.84238 0.72718 0.0
H1953 H 0.54326 0.40624 0.69568 0.0
H1954 H 0.51579 0.35376 0.7569 0.0
H1955 H 0.55216 0.37778 0.78297 0.0
H1956 H 0.60903 0.42948 0.706 0.0
H1957 H 0.61541 0.45932 0.70035 0.0
H1958 H 0.5911 0.43509 0.68356 0.0
H1959 H 0.56258 0.44866 0.7014 0.0
H1960 H 0.58666 0.47276 0.71819 0.0
H1961 H 0.56084 0.45198 0.73616 0.0
H1962 H 0.58772 0.41075 0.80531 0.0
H1963 H 0.61651 0.45005 0.82304 0.0
H1964 H 0.61908 0.4817 0.74793 0.0
C1965 C 0.54565 0.39928 0.71392 0.0
C1966 C 0.52749 0.37787 0.72401 0.0
C1967 C 0.53012 0.3698 0.74865 0.0
C1968 C 0.55067 0.38335 0.7635 0.0
C1969 C 0.56811 0.40498 0.75344 0.0
C1970 C 0.56573 0.41287 0.72913 0.0
C1971 C 0.58431 0.43841 0.72475 0.0
C1972 C 0.60095 0.4407 0.70233 0.0
C1973 C 0.57291 0.45383 0.71986 0.0
C1974 C 0.59696 0.44402 0.75071 0.0
C1975 C 0.58789 0.42442 0.76679 0.0
C1976 C 0.59533 0.42606 0.79267 0.0
C1977 C 0.61178 0.44842 0.80256 0.0
C1978 C 0.62011 0.46875 0.78669 0.0
C1979 C 0.61324 0.46632 0.76028 0.0
H1980 H 0.15822 0.53671 0.74688 0.0
H1981 H 0.13811 0.5471 0.66966 0.0
H1982 H 0.14202 0.58494 0.68376 0.0
H1983 H 0.12971 0.5538 0.78324 0.0
H1984 H 0.15157 0.57121 0.80754 0.0
H1985 H 0.154 0.54879 0.78994 0.0
H1986 H 0.19609 0.57946 0.77449 0.0
H1987 H 0.19404 0.60211 0.79253 0.0
H1988 H 0.2009 0.60591 0.75818 0.0
H1989 H 0.13749 0.61458 0.70849 0.0
H1990 H 0.12815 0.63624 0.74114 0.0
H1991 H 0.15387 0.60947 0.8028 0.0
C1992 C 0.15616 0.5478 0.73264 0.0
C1993 C 0.14849 0.53944 0.70704 0.0
C1994 C 0.14482 0.55367 0.68905 0.0
C1995 C 0.1469 0.57516 0.69696 0.0
C1996 C 0.15357 0.58257 0.72267 0.0
C1997 C 0.15905 0.56981 0.74004 0.0
C1998 C 0.16372 0.58077 0.76713 0.0
C1999 C 0.14883 0.56255 0.78817 0.0
C2000 C 0.19026 0.59277 0.77347 0.0
C2001 C 0.15634 0.59921 0.76319 0.0
C2002 C 0.1516 0.60061 0.73709 0.0
C2003 C 0.14199 0.6143 0.72878 0.0
C2004 C 0.13662 0.62647 0.74754 0.0
C2005 C 0.14064 0.62479 0.77443 0.0
C2006 C 0.15134 0.6116 0.78229 0.0
H2007 H 0.51071 0.10597 0.76633 0.0
H2008 H 0.54056 0.17715 0.79679 0.0
H2009 H 0.57904 0.18761 0.77558 0.0
H2010 H 0.55934 0.10076 0.78199 0.0
H2011 H 0.5556 0.08185 0.7546 0.0
H2012 H 0.53036 0.08192 0.76846 0.0
H2013 H 0.51985 0.09193 0.72314 0.0
H2014 H 0.54497 0.09168 0.70906 0.0
H2015 H 0.54172 0.11736 0.70549 0.0
H2016 H 0.61516 0.18851 0.75046 0.0
H2017 H 0.64387 0.17867 0.72963 0.0
H2018 H 0.58809 0.10579 0.72242 0.0
C2019 C 0.52501 0.12405 0.76808 0.0
C2020 C 0.52253 0.14094 0.78267 0.0
C2021 C 0.54208 0.16407 0.78527 0.0
C2022 C 0.56391 0.17009 0.77332 0.0
C2023 C 0.56574 0.15258 0.75947 0.0
C2024 C 0.54664 0.12996 0.75724 0.0
C2025 C 0.55298 0.11313 0.74456 0.0
C2026 C 0.54937 0.09327 0.76354 0.0
C2027 C 0.53906 0.10295 0.71905 0.0
C2028 C 0.57871 0.12975 0.73942 0.0
C2029 C 0.58605 0.15256 0.74764 0.0
C2030 C 0.6095 0.17064 0.74423 0.0
C2031 C 0.62566 0.16499 0.73246 0.0
C2032 C 0.61816 0.14141 0.72512 0.0
C2033 C 0.59443 0.12389 0.72845 0.0
H2034 H 0.40761 0.51024 0.78145 0.0
H2035 H 0.35726 0.53487 0.78691 0.0
H2036 H 0.38611 0.57233 0.76459 0.0
H2037 H 0.45865 0.56606 0.79601 0.0
H2038 H 0.47735 0.56048 0.7748 0.0
H2039 H 0.45227 0.53621 0.79036 0.0
H2040 H 0.43658 0.51687 0.74506 0.0
H2041 H 0.46148 0.54116 0.72935 0.0
H2042 H 0.43187 0.53337 0.71987 0.0
H2043 H 0.42121 0.60623 0.73794 0.0
H2044 H 0.45922 0.63373 0.71569 0.0
H2045 H 0.48534 0.58598 0.73329 0.0
C2046 C 0.40246 0.52338 0.7777 0.0
C2047 C 0.38009 0.51958 0.78507 0.0
C2048 C 0.37429 0.53748 0.78087 0.0
C2049 C 0.39054 0.5587 0.76827 0.0
C2050 C 0.41252 0.56171 0.76087 0.0
C2051 C 0.41847 0.54454 0.76601 0.0
C2052 C 0.44323 0.5518 0.75753 0.0
C2053 C 0.45878 0.55376 0.78108 0.0
C2054 C 0.44327 0.5348 0.73671 0.0
C2055 C 0.45039 0.57565 0.74617 0.0
C2056 C 0.4326 0.58124 0.74785 0.0
C2057 C 0.43533 0.60212 0.73699 0.0
C2058 C 0.45683 0.61756 0.72436 0.0
C2059 C 0.47522 0.61208 0.72336 0.0
C2060 C 0.47179 0.59091 0.7344 0.0
H2061 H 0.87208 0.48441 0.76646 0.0
H2062 H 0.83049 0.45155 0.69708 0.0
H2063 H 0.81667 0.41211 0.71656 0.0
H2064 H 0.89378 0.4479 0.7736 0.0
H2065 H 0.89343 0.4472 0.80879 0.0
H2066 H 0.89539 0.47219 0.792 0.0
H2067 H 0.85809 0.46652 0.81642 0.0
H2068 H 0.85608 0.44141 0.83338 0.0
H2069 H 0.83115 0.43838 0.81501 0.0
H2070 H 0.81554 0.37719 0.73883 0.0
H2071 H 0.82554 0.35037 0.76291 0.0
H2072 H 0.86589 0.40588 0.81862 0.0
C2073 C 0.85934 0.46892 0.7558 0.0
C2074 C 0.8522 0.47093 0.73042 0.0
C2075 C 0.83586 0.45034 0.71678 0.0
C2076 C 0.82797 0.42789 0.72768 0.0
C2077 C 0.83625 0.42647 0.75238 0.0
C2078 C 0.85128 0.44654 0.76644 0.0
C2079 C 0.86001 0.44059 0.79103 0.0
C2080 C 0.88724 0.45267 0.79133 0.0
C2081 C 0.85077 0.4471 0.81541 0.0
C2082 C 0.84862 0.41412 0.788 0.0
C2083 C 0.83473 0.40616 0.76576 0.0
C2084 C 0.8255 0.38298 0.75685 0.0
C2085 C 0.83113 0.36783 0.77061 0.0
C2086 C 0.84554 0.37595 0.79308 0.0
C2087 C 0.85379 0.39906 0.80223 0.0
H2088 H 0.46029 0.1507 0.06399 0.0
H2089 H 0.44617 0.07958 0.08029 0.0
H2090 H 0.44797 0.07275 0.03339 0.0
H2091 H 0.42573 0.13698 0.00614 0.0
H2092 H 0.44599 0.16342 0.98871 0.0
H2093 H 0.44507 0.16363 0.02385 0.0
H2094 H 0.48994 0.17822 0.02563 0.0
H2095 H 0.49097 0.178 0.99044 0.0
H2096 H 0.50128 0.16156 0.00915 0.0
H2097 H 0.45057 0.07284 0.98559 0.0
H2098 H 0.45142 0.07888 0.93827 0.0
H2099 H 0.4626 0.14951 0.95088 0.0
C2100 C 0.45767 0.13376 0.05763 0.0
C2101 C 0.45265 0.11553 0.07587 0.0
C2102 C 0.44941 0.09361 0.06674 0.0
C2103 C 0.45068 0.08963 0.04012 0.0
C2104 C 0.45535 0.10776 0.0227 0.0
C2105 C 0.45877 0.12939 0.0309 0.0
C2106 C 0.46269 0.14542 0.00763 0.0
C2107 C 0.44373 0.15279 0.00652 0.0
C2108 C 0.48771 0.16709 0.00826 0.0
C2109 C 0.46006 0.12904 0.98517 0.0
C2110 C 0.45632 0.10761 0.99453 0.0
C2111 C 0.45329 0.08946 0.97798 0.0
C2112 C 0.45356 0.09302 0.95106 0.0
C2113 C 0.45642 0.11445 0.94071 0.0
C2114 C 0.46024 0.13291 0.95811 0.0
H2115 H 0.32809 0.42527 0.06585 0.0
H2116 H 0.34151 0.49629 0.08153 0.0
H2117 H 0.34103 0.50322 0.0345 0.0
H2118 H 0.36521 0.44085 0.00837 0.0
H2119 H 0.34584 0.41401 0.99101 0.0
H2120 H 0.34661 0.41406 0.02618 0.0
H2121 H 0.30139 0.39769 0.02754 0.0
H2122 H 0.3005 0.39763 0.99237 0.0
H2123 H 0.28909 0.41332 0.0107 0.0
H2124 H 0.33957 0.50314 0.98629 0.0
H2125 H 0.33815 0.49627 0.93895 0.0
H2126 H 0.32581 0.42542 0.95312 0.0
C2127 C 0.33091 0.44226 0.05937 0.0
C2128 C 0.33428 0.46001 0.07758 0.0
C2129 C 0.3381 0.48208 0.06817 0.0
C2130 C 0.33809 0.48632 0.04141 0.0
C2131 C 0.33442 0.46843 0.02408 0.0
C2132 C 0.331 0.44686 0.03254 0.0
C2133 C 0.32778 0.43088 0.00948 0.0
C2134 C 0.34754 0.42459 0.00872 0.0
C2135 C 0.30323 0.40856 0.01007 0.0
C2136 C 0.32993 0.4469 0.98688 0.0
C2137 C 0.33371 0.46844 0.99587 0.0
C2138 C 0.33643 0.48628 0.97895 0.0
C2139 C 0.33535 0.48209 0.95204 0.0
C2140 C 0.3315 0.46017 0.94216 0.0
C2141 C 0.32876 0.44237 0.95997 0.0
H2142 H 0.87016 0.30693 0.06457 0.0
H2143 H 0.90815 0.38283 0.07612 0.0
H2144 H 0.90861 0.38886 0.02853 0.0
H2145 H 0.90216 0.30794 0.00669 0.0
H2146 H 0.87696 0.28403 0.99071 0.0
H2147 H 0.87846 0.28541 0.02584 0.0
H2148 H 0.83808 0.28389 0.02745 0.0
H2149 H 0.83648 0.28257 0.99231 0.0
H2150 H 0.83416 0.30542 0.00949 0.0
H2151 H 0.90623 0.38713 0.98051 0.0
H2152 H 0.90211 0.3777 0.93345 0.0
H2153 H 0.86588 0.30288 0.95142 0.0
C2154 C 0.87849 0.32475 0.05693 0.0
C2155 C 0.88932 0.34446 0.07385 0.0
C2156 C 0.9001 0.36756 0.06335 0.0
C2157 C 0.9003 0.37115 0.03641 0.0
C2158 C 0.88974 0.35144 0.02018 0.0
C2159 C 0.87913 0.32868 0.02988 0.0
C2160 C 0.87006 0.31074 0.00778 0.0
C2161 C 0.88266 0.29617 0.00776 0.0
C2162 C 0.84309 0.29471 0.00936 0.0
C2163 C 0.87718 0.32703 0.98425 0.0
C2164 C 0.88846 0.35042 0.99202 0.0
C2165 C 0.89741 0.36891 0.97413 0.0
C2166 C 0.89507 0.3634 0.94752 0.0
C2167 C 0.88383 0.33964 0.939 0.0
C2168 C 0.87447 0.32117 0.95756 0.0
H2169 H 0.54376 0.89968 0.05775 0.0
H2170 H 0.55311 0.83946 0.07264 0.0
H2171 H 0.55578 0.83452 0.02499 0.0
H2172 H 0.50812 0.87689 1.00041 0.0
H2173 H 0.52128 0.90514 0.98424 0.0
H2174 H 0.52003 0.9037 0.01935 0.0
H2175 H 0.56538 0.93148 0.02162 0.0
H2176 H 0.56681 0.93294 0.98649 0.0
H2177 H 0.58455 0.92365 1.00435 0.0
H2178 H 0.55898 0.83735 0.97591 0.0
H2179 H 0.55966 0.84573 0.92888 0.0
H2180 H 0.54677 0.90335 0.94681 0.0
C2181 C 0.54658 0.88555 0.05104 0.0
C2182 C 0.5485 0.87007 0.06884 0.0
C2183 C 0.55155 0.85145 0.05927 0.0
C2184 C 0.55323 0.84863 0.03232 0.0
C2185 C 0.55169 0.8645 0.01535 0.0
C2186 C 0.54825 0.88248 0.02434 0.0
C2187 C 0.54688 0.89701 1.00214 0.0
C2188 C 0.52263 0.89558 1.0015 0.0
C2189 C 0.56711 0.92279 1.00376 0.0
C2190 C 0.55007 0.88436 0.97914 0.0
C2191 C 0.553 0.86579 0.98715 0.0
C2192 C 0.55655 0.85174 0.96939 0.0
C2193 C 0.55681 0.85661 0.94269 0.0
C2194 C 0.55327 0.87522 0.93395 0.0
C2195 C 0.55001 0.8893 0.95263 0.0
H2196 H 0.67038 0.57525 0.05965 0.0
H2197 H 0.66432 0.50712 0.07527 0.0
H2198 H 0.66431 0.50008 0.02807 0.0
H2199 H 0.63257 0.55733 1.00339 0.0
H2200 H 0.6501 0.58439 0.98558 0.0
H2201 H 0.65025 0.58466 0.02076 0.0
H2202 H 0.69586 0.60381 0.02076 0.0
H2203 H 0.69586 0.60365 0.98556 0.0
H2204 H 0.70936 0.58963 1.0033 0.0
H2205 H 0.6632 0.49929 0.98 0.0
H2206 H 0.66258 0.50531 0.93282 0.0
H2207 H 0.67077 0.57464 0.94682 0.0
C2208 C 0.66918 0.55893 0.05307 0.0
C2209 C 0.6677 0.54188 0.07117 0.0
C2210 C 0.66604 0.52068 0.06182 0.0
C2211 C 0.66583 0.51642 0.03504 0.0
C2212 C 0.66736 0.53354 0.01775 0.0
C2213 C 0.66915 0.55444 0.02625 0.0
C2214 C 0.6706 0.56979 1.00326 0.0
C2215 C 0.64963 0.5743 1.00326 0.0
C2216 C 0.69433 0.5931 1.00322 0.0
C2217 C 0.66905 0.55407 0.9806 0.0
C2218 C 0.66718 0.53328 0.98957 0.0
C2219 C 0.66502 0.51566 0.97268 0.0
C2220 C 0.66493 0.5194 0.94582 0.0
C2221 C 0.66722 0.54073 0.9359 0.0
C2222 C 0.66914 0.55822 0.95368 0.0
H2223 H 0.14301 0.69082 0.94979 0.0
H2224 H 0.08519 0.61904 0.93952 0.0
H2225 H 0.08128 0.61387 0.98715 0.0
H2226 H 0.16827 0.67855 0.00872 0.0
H2227 H 0.17576 0.7062 0.0242 0.0
H2228 H 0.17554 0.70418 0.98907 0.0
H2229 H 0.14625 0.7199 0.98656 0.0
H2230 H 0.14626 0.72187 0.02164 0.0
H2231 H 0.11877 0.7049 1.00431 0.0
H2232 H 0.08135 0.61657 0.03451 0.0
H2233 H 0.08604 0.62671 0.08113 0.0
H2234 H 0.14398 0.69688 0.06316 0.0
C2235 C 0.1298 0.67398 0.95772 0.0
C2236 C 0.11421 0.65536 0.94106 0.0
C2237 C 0.09703 0.63359 0.95199 0.0
C2238 C 0.09476 0.63044 0.97899 0.0
C2239 C 0.10988 0.64919 0.99491 0.0
C2240 C 0.12719 0.67052 0.98491 0.0
C2241 C 0.14038 0.6879 0.00687 0.0
C2242 C 0.16654 0.6946 0.00723 0.0
C2243 C 0.13774 0.70994 0.00471 0.0
C2244 C 0.1273 0.67308 0.03057 0.0
C2245 C 0.10992 0.65079 0.02297 0.0
C2246 C 0.0949 0.63394 0.0408 0.0
C2247 C 0.09756 0.63997 0.06721 0.0
C2248 C 0.11505 0.66272 0.07571 0.0
C2249 C 0.13038 0.67942 0.05715 0.0
H2250 H 0.90327 0.57058 0.45325 0.0
H2251 H 0.84646 0.49873 0.43991 0.0
H2252 H 0.83983 0.4929 0.48716 0.0
H2253 H 0.92648 0.55766 0.51096 0.0
H2254 H 0.93337 0.58469 0.52757 0.0
H2255 H 0.93352 0.5838 0.49241 0.0
H2256 H 0.90353 0.59877 0.49081 0.0
H2257 H 0.90327 0.59969 0.52598 0.0
H2258 H 0.87598 0.58286 0.50827 0.0
H2259 H 0.83919 0.49412 0.5351 0.0
H2260 H 0.84524 0.50204 0.58218 0.0
H2261 H 0.90264 0.57303 0.56619 0.0
C2262 C 0.88947 0.55365 0.46033 0.0
C2263 C 0.87509 0.53528 0.44276 0.0
C2264 C 0.85728 0.51332 0.45284 0.0
C2265 C 0.85346 0.50974 0.4797 0.0
C2266 C 0.86766 0.52821 0.49642 0.0
C2267 C 0.88536 0.54972 0.48729 0.0
C2268 C 0.89815 0.56642 0.50983 0.0
C2269 C 0.92444 0.57355 0.51021 0.0
C2270 C 0.89504 0.58823 0.50864 0.0
C2271 C 0.88497 0.55077 0.53294 0.0
C2272 C 0.86738 0.52888 0.52458 0.0
C2273 C 0.85278 0.51126 0.54196 0.0
C2274 C 0.85623 0.51604 0.56871 0.0
C2275 C 0.87413 0.53832 0.57799 0.0
C2276 C 0.88874 0.55588 0.55974 0.0
H2277 H 0.30537 0.85016 0.44993 0.0
H2278 H 0.37256 0.91216 0.43102 0.0
H2279 H 0.38442 0.91631 0.47708 0.0
H2280 H 0.29537 0.87083 0.50872 0.0
H2281 H 0.28335 0.8434 0.52647 0.0
H2282 H 0.28087 0.84306 0.49145 0.0
H2283 H 0.30143 0.81803 0.48806 0.0
H2284 H 0.30397 0.81831 0.52316 0.0
H2285 H 0.32993 0.82857 0.50307 0.0
H2286 H 0.38861 0.91592 0.524 0.0
H2287 H 0.38419 0.91262 0.57152 0.0
H2288 H 0.31367 0.85191 0.56275 0.0
C2289 C 0.32264 0.86438 0.4556 0.0
C2290 C 0.33792 0.88109 0.43704 0.0
C2291 C 0.3604 0.89949 0.44503 0.0
C2292 C 0.36743 0.90183 0.47108 0.0
C2293 C 0.35189 0.88552 0.489 0.0
C2294 C 0.32997 0.86711 0.48183 0.0
C2295 C 0.31631 0.85314 0.50574 0.0
C2296 C 0.29258 0.8526 0.50824 0.0
C2297 C 0.3127 0.82802 0.50496 0.0
C2298 C 0.33342 0.86766 0.52738 0.0
C2299 C 0.35408 0.88572 0.51697 0.0
C2300 C 0.37253 0.90191 0.53249 0.0
C2301 C 0.36969 0.90004 0.55951 0.0
C2302 C 0.34832 0.88246 0.57092 0.0
C2303 C 0.33015 0.86562 0.5546 0.0
H2304 H 0.46813 0.36109 0.44923 0.0
H2305 H 0.42659 0.28585 0.43464 0.0
H2306 H 0.42272 0.27833 0.48238 0.0
H2307 H 0.49962 0.35518 0.50606 0.0
H2308 H 0.50082 0.37998 0.52291 0.0
H2309 H 0.50075 0.37926 0.48772 0.0
H2310 H 0.46423 0.3849 0.48705 0.0
H2311 H 0.46412 0.38552 0.52219 0.0
H2312 H 0.43798 0.36455 0.50474 0.0
H2313 H 0.42273 0.27918 0.53164 0.0
H2314 H 0.42692 0.28821 0.57899 0.0
H2315 H 0.46856 0.36297 0.56165 0.0
C2316 C 0.45829 0.34306 0.4562 0.0
C2317 C 0.44751 0.32397 0.43844 0.0
C2318 C 0.43497 0.30061 0.44806 0.0
C2319 C 0.43269 0.29622 0.47507 0.0
C2320 C 0.44341 0.31541 0.49215 0.0
C2321 C 0.45619 0.33837 0.4831 0.0
C2322 C 0.46631 0.35578 0.5056 0.0
C2323 C 0.49348 0.36829 0.50556 0.0
C2324 C 0.45762 0.37373 0.50484 0.0
C2325 C 0.45613 0.33914 0.52869 0.0
C2326 C 0.44336 0.3159 0.5205 0.0
C2327 C 0.43269 0.2973 0.53827 0.0
C2328 C 0.43514 0.30256 0.56508 0.0
C2329 C 0.44783 0.32623 0.57388 0.0
C2330 C 0.45845 0.34472 0.55539 0.0
H2331 H 0.14415 0.47671 0.44997 0.0
H2332 H 0.08743 0.40456 0.43472 0.0
H2333 H 0.08211 0.39757 0.48104 0.0
H2334 H 0.16792 0.46265 0.50697 0.0
H2335 H 0.17408 0.48921 0.52416 0.0
H2336 H 0.17481 0.48903 0.48897 0.0
H2337 H 0.14436 0.50336 0.48737 0.0
H2338 H 0.14352 0.50358 0.52251 0.0
H2339 H 0.11656 0.48676 0.50422 0.0
H2340 H 0.08129 0.39746 0.52945 0.0
H2341 H 0.08514 0.40531 0.57673 0.0
H2342 H 0.14122 0.47722 0.56214 0.0
C2343 C 0.13071 0.45922 0.4557 0.0
C2344 C 0.11663 0.44136 0.43705 0.0
C2345 C 0.09912 0.41901 0.44712 0.0
C2346 C 0.09571 0.41461 0.474 0.0
C2347 C 0.10979 0.43253 0.49129 0.0
C2348 C 0.12695 0.45441 0.48265 0.0
C2349 C 0.13918 0.47081 0.5057 0.0
C2350 C 0.16556 0.47837 0.50649 0.0
C2351 C 0.13568 0.4924 0.5049 0.0
C2352 C 0.12592 0.45464 0.52851 0.0
C2353 C 0.10914 0.4326 0.51961 0.0
C2354 C 0.09439 0.41466 0.53668 0.0
C2355 C 0.09664 0.41935 0.56357 0.0
C2356 C 0.11343 0.44189 0.5734 0.0
C2357 C 0.12843 0.45968 0.55545 0.0
H2358 H 0.64311 0.09448 0.44732 0.0
H2359 H 0.7119 0.15564 0.43138 0.0
H2360 H 0.71822 0.16369 0.47857 0.0
H2361 H 0.62666 0.11758 0.50027 0.0
H2362 H 0.61331 0.09057 0.5189 0.0
H2363 H 0.61421 0.08946 0.48383 0.0
H2364 H 0.63552 0.06506 0.48686 0.0
H2365 H 0.63461 0.06605 0.52199 0.0
H2366 H 0.66245 0.07642 0.5055 0.0
H2367 H 0.71727 0.16491 0.52773 0.0
H2368 H 0.70929 0.15883 0.5749 0.0
H2369 H 0.64053 0.09769 0.55802 0.0
C2370 C 0.65974 0.10932 0.45362 0.0
C2371 C 0.67696 0.12442 0.43539 0.0
C2372 C 0.69822 0.14395 0.44477 0.0
C2373 C 0.70208 0.14862 0.4716 0.0
C2374 C 0.68465 0.13348 0.48891 0.0
C2375 C 0.66399 0.11413 0.48032 0.0
C2376 C 0.64818 0.10047 0.50298 0.0
C2377 C 0.62418 0.09949 0.50139 0.0
C2378 C 0.64501 0.07553 0.50441 0.0
C2379 C 0.66291 0.11559 0.52559 0.0
C2380 C 0.684 0.13435 0.51715 0.0
C2381 C 0.70074 0.1503 0.5346 0.0
C2382 C 0.69589 0.14679 0.56145 0.0
C2383 C 0.67427 0.12767 0.57068 0.0
C2384 C 0.65754 0.11215 0.55217 0.0
H2385 H 0.54924 0.69559 0.5597 0.0
H2386 H 0.54145 0.62722 0.57786 0.0
H2387 H 0.5384 0.61769 0.53093 0.0
H2388 H 0.50934 0.67607 0.50263 0.0
H2389 H 0.52753 0.70262 0.48427 0.0
H2390 H 0.52727 0.70365 0.51945 0.0
H2391 H 0.57279 0.72201 0.52018 0.0
H2392 H 0.57316 0.72102 0.48505 0.0
H2393 H 0.58597 0.70693 0.50393 0.0
H2394 H 0.53742 0.61569 0.48312 0.0
H2395 H 0.54003 0.62167 0.43569 0.0
H2396 H 0.55039 0.69218 0.44674 0.0
C2397 C 0.54672 0.67861 0.55363 0.0
C2398 C 0.54575 0.66215 0.5722 0.0
C2399 C 0.54252 0.6401 0.56378 0.0
C2400 C 0.54061 0.63448 0.53725 0.0
C2401 C 0.54202 0.65114 0.51934 0.0
C2402 C 0.54506 0.67277 0.527 0.0
C2403 C 0.54721 0.68778 0.50336 0.0
C2404 C 0.52661 0.69282 0.50238 0.0
C2405 C 0.57121 0.7108 0.50313 0.0
C2406 C 0.54545 0.67135 0.48138 0.0
C2407 C 0.54212 0.65022 0.49122 0.0
C2408 C 0.54018 0.63221 0.47512 0.0
C2409 C 0.54198 0.63592 0.44817 0.0
C2410 C 0.54602 0.65764 0.43742 0.0
C2411 C 0.54741 0.67545 0.45433 0.0
loop_
_geom_bond_atom_site_label_1
_geom_bond_atom_site_label_2
_geom_bond_distance
_geom_bond_site_symmetry_2
_ccdc_geom_bond_type
Co0 N4 2.148 . S
Co0 N10 2.128 . S
Co0 N20 2.194 . S
Co0 O25 2.351 . S
Co0 O26 2.155 . S
Co0 O27 2.096 . S
C1 N4 1.301 . S
C1 N5 1.328 . S
C1 H6 0.930 . S
C2 C3 1.333 . S
C2 N4 1.317 . S
C2 H7 0.930 . S
C3 C2 1.333 . S
C3 N5 1.350 . S
C3 H29 0.931 . S
N4 Co0 2.148 . S
N4 C1 1.301 . S
N4 C2 1.317 . S
N5 C1 1.328 . S
N5 C3 1.350 . S
H6 C1 0.930 . S
H7 C2 0.930 . S
C8 O9 1.224 . S
C8 O27 1.247 . S
O9 C8 1.224 . S
N10 Co0 2.128 . S
N10 C11 1.355 . S
N10 C13 1.311 . S
C11 N10 1.355 . S
C11 C12 1.363 . S
C11 H23 0.929 . S
C12 C11 1.363 . S
C12 N14 1.375 . S
C12 H30 0.931 . S
C13 N10 1.311 . S
C13 N14 1.347 . S
C13 H24 0.929 . S
N14 C12 1.375 . S
N14 C13 1.347 . S
C15 C18 1.365 . S
C15 N20 1.328 . S
C15 H21 0.929 . S
C16 C17 1.362 . S
C16 C19 1.378 . S
C16 H31 0.929 . S
C17 C16 1.362 . S
C17 C18 1.366 . S
C18 C15 1.365 . S
C18 C17 1.366 . S
C18 H32 0.930 . S
C19 C16 1.378 . S
C19 N20 1.315 . S
C19 H22 0.930 . S
N20 Co0 2.194 . S
N20 C15 1.328 . S
N20 C19 1.315 . S
H21 C15 0.929 . S
H22 C19 0.930 . S
H23 C11 0.929 . S
H24 C13 0.929 . S
O25 Co0 2.351 . S
O25 C28 1.244 . S
O26 Co0 2.155 . S
O26 C28 1.240 . S
O27 Co0 2.096 . S
O27 C8 1.247 . S
C28 O25 1.244 . S
C28 O26 1.240 . S
H29 C3 0.931 . S
H30 C12 0.931 . S
H31 C16 0.929 . S
H32 C18 0.930 . S
Co33 N37 2.148 . S
Co33 N43 2.128 . S
Co33 N53 2.194 . S
Co33 O58 2.351 . S
Co33 O59 2.155 . S
Co33 O60 2.096 . S
C34 N37 1.301 . S
C34 N38 1.328 . S
C34 H39 0.930 . S
C35 C36 1.333 . S
C35 N37 1.317 . S
C35 H40 0.930 . S
C36 C35 1.333 . S
C36 N38 1.350 . S
C36 H62 0.931 . S
N37 Co33 2.148 . S
N37 C34 1.301 . S
N37 C35 1.317 . S
N38 C34 1.328 . S
N38 C36 1.350 . S
H39 C34 0.930 . S
H40 C35 0.930 . S
C41 O42 1.224 . S
C41 O60 1.247 . S
O42 C41 1.224 . S
N43 Co33 2.128 . S
N43 C44 1.355 . S
N43 C46 1.311 . S
C44 N43 1.355 . S
C44 C45 1.363 . S
C44 H56 0.929 . S
C45 C44 1.363 . S
C45 N47 1.375 . S
C45 H63 0.931 . S
C46 N43 1.311 . S
C46 N47 1.347 . S
C46 H57 0.929 . S
N47 C45 1.375 . S
N47 C46 1.347 . S
C48 C51 1.365 . S
C48 N53 1.328 . S
C48 H54 0.929 . S
C49 C50 1.362 . S
C49 C52 1.378 . S
C49 H64 0.929 . S
C50 C49 1.362 . S
C50 C51 1.366 . S
C51 C48 1.365 . S
C51 C50 1.366 . S
C51 H65 0.930 . S
C52 C49 1.378 . S
C52 N53 1.315 . S
C52 H55 0.930 . S
N53 Co33 2.194 . S
N53 C48 1.328 . S
N53 C52 1.315 . S
H54 C48 0.929 . S
H55 C52 0.930 . S
H56 C44 0.929 . S
H57 C46 0.929 . S
O58 Co33 2.351 . S
O58 C61 1.244 . S
O59 Co33 2.155 . S
O59 C61 1.240 . S
O60 Co33 2.096 . S
O60 C41 1.247 . S
C61 O58 1.244 . S
C61 O59 1.240 . S
H62 C36 0.931 . S
H63 C45 0.931 . S
H64 C49 0.929 . S
H65 C51 0.930 . S
Co66 N70 2.148 . S
Co66 N76 2.128 . S
Co66 N86 2.194 . S
Co66 O91 2.351 . S
Co66 O92 2.155 . S
Co66 O93 2.096 . S
C67 N70 1.301 . S
C67 N71 1.328 . S
C67 H72 0.930 . S
C68 C69 1.333 . S
C68 N70 1.317 . S
C68 H73 0.930 . S
C69 C68 1.333 . S
C69 N71 1.350 . S
C69 H95 0.931 . S
N70 Co66 2.148 . S
N70 C67 1.301 . S
N70 C68 1.317 . S
N71 C67 1.328 . S
N71 C69 1.350 . S
H72 C67 0.930 . S
H73 C68 0.930 . S
C74 O75 1.224 . S
C74 O93 1.247 . S
O75 C74 1.224 . S
N76 Co66 2.128 . S
N76 C77 1.355 . S
N76 C79 1.311 . S
C77 N76 1.355 . S
C77 C78 1.363 . S
C77 H89 0.929 . S
C78 C77 1.363 . S
C78 N80 1.375 . S
C78 H96 0.931 . S
C79 N76 1.311 . S
C79 N80 1.347 . S
C79 H90 0.929 . S
N80 C78 1.375 . S
N80 C79 1.347 . S
C81 C84 1.365 . S
C81 N86 1.328 . S
C81 H87 0.929 . S
C82 C83 1.362 . S
C82 C85 1.378 . S
C82 H97 0.929 . S
C83 C82 1.362 . S
C83 C84 1.366 . S
C84 C81 1.365 . S
C84 C83 1.366 . S
C84 H98 0.930 . S
C85 C82 1.378 . S
C85 N86 1.315 . S
C85 H88 0.930 . S
N86 Co66 2.194 . S
N86 C81 1.328 . S
N86 C85 1.315 . S
H87 C81 0.929 . S
H88 C85 0.930 . S
H89 C77 0.929 . S
H90 C79 0.929 . S
O91 Co66 2.351 . S
O91 C94 1.244 . S
O92 Co66 2.155 . S
O92 C94 1.240 . S
O93 Co66 2.096 . S
O93 C74 1.247 . S
C94 O91 1.244 . S
C94 O92 1.240 . S
H95 C69 0.931 . S
H96 C78 0.931 . S
H97 C82 0.929 . S
H98 C84 0.930 . S
Co99 N103 2.148 . S
Co99 N109 2.128 . S
Co99 N119 2.194 . S
Co99 O124 2.351 . S
Co99 O125 2.155 . S
Co99 O126 2.096 . S
C100 N103 1.301 . S
C100 N104 1.328 . S
C100 H105 0.930 . S
C101 C102 1.333 . S
C101 N103 1.317 . S
C101 H106 0.930 . S
C102 C101 1.333 . S
C102 N104 1.350 . S
C102 H128 0.931 . S
N103 Co99 2.148 . S
N103 C100 1.301 . S
N103 C101 1.317 . S
N104 C100 1.328 . S
N104 C102 1.350 . S
H105 C100 0.930 . S
H106 C101 0.930 . S
C107 O108 1.224 . S
C107 O126 1.247 . S
O108 C107 1.224 . S
N109 Co99 2.128 . S
N109 C110 1.355 . S
N109 C112 1.311 . S
C110 N109 1.355 . S
C110 C111 1.363 . S
C110 H122 0.929 . S
C111 C110 1.363 . S
C111 N113 1.375 . S
C111 H129 0.931 . S
C112 N109 1.311 . S
C112 N113 1.347 . S
C112 H123 0.929 . S
N113 C111 1.375 . S
N113 C112 1.347 . S
C114 C117 1.365 . S
C114 N119 1.328 . S
C114 H120 0.929 . S
C115 C116 1.362 . S
C115 C118 1.378 . S
C115 H130 0.929 . S
C116 C115 1.362 . S
C116 C117 1.366 . S
C117 C114 1.365 . S
C117 C116 1.366 . S
C117 H131 0.930 . S
C118 C115 1.378 . S
C118 N119 1.315 . S
C118 H121 0.930 . S
N119 Co99 2.194 . S
N119 C114 1.328 . S
N119 C118 1.315 . S
H120 C114 0.929 . S
H121 C118 0.930 . S
H122 C110 0.929 . S
H123 C112 0.929 . S
O124 Co99 2.351 . S
O124 C127 1.244 . S
O125 Co99 2.155 . S
O125 C127 1.240 . S
O126 Co99 2.096 . S
O126 C107 1.247 . S
C127 O124 1.244 . S
C127 O125 1.240 . S
H128 C102 0.931 . S
H129 C111 0.931 . S
H130 C115 0.929 . S
H131 C117 0.930 . S
Co132 N136 2.148 . S
Co132 N142 2.128 . S
Co132 N152 2.194 . S
Co132 O157 2.351 . S
Co132 O158 2.155 . S
Co132 O159 2.096 . S
C133 N136 1.301 . S
C133 N137 1.328 . S
C133 H138 0.930 . S
C134 C135 1.333 . S
C134 N136 1.317 . S
C134 H139 0.930 . S
C135 C134 1.333 . S
C135 N137 1.350 . S
C135 H161 0.931 . S
N136 Co132 2.148 . S
N136 C133 1.301 . S
N136 C134 1.317 . S
N137 C133 1.328 . S
N137 C135 1.350 . S
H138 C133 0.930 . S
H139 C134 0.930 . S
C140 O141 1.224 . S
C140 O159 1.247 . S
O141 C140 1.224 . S
N142 Co132 2.128 . S
N142 C143 1.355 . S
N142 C145 1.311 . S
C143 N142 1.355 . S
C143 C144 1.363 . S
C143 H155 0.929 . S
C144 C143 1.363 . S
C144 N146 1.375 . S
C144 H162 0.931 . S
C145 N142 1.311 . S
C145 N146 1.347 . S
C145 H156 0.929 . S
N146 C144 1.375 . S
N146 C145 1.347 . S
C147 C150 1.365 . S
C147 N152 1.328 . S
C147 H153 0.929 . S
C148 C149 1.362 . S
C148 C151 1.378 . S
C148 H163 0.929 . S
C149 C148 1.362 . S
C149 C150 1.366 . S
C150 C147 1.365 . S
C150 C149 1.366 . S
C150 H164 0.930 . S
C151 C148 1.378 . S
C151 N152 1.315 . S
C151 H154 0.930 . S
N152 Co132 2.194 . S
N152 C147 1.328 . S
N152 C151 1.315 . S
H153 C147 0.929 . S
H154 C151 0.930 . S
H155 C143 0.929 . S
H156 C145 0.929 . S
O157 Co132 2.351 . S
O157 C160 1.244 . S
O158 Co132 2.155 . S
O158 C160 1.240 . S
O159 Co132 2.096 . S
O159 C140 1.247 . S
C160 O157 1.244 . S
C160 O158 1.240 . S
H161 C135 0.931 . S
H162 C144 0.931 . S
H163 C148 0.929 . S
H164 C150 0.930 . S
Co165 N169 2.148 . S
Co165 N175 2.128 . S
Co165 N185 2.194 . S
Co165 O190 2.351 . S
Co165 O191 2.155 . S
Co165 O192 2.096 . S
C166 N169 1.301 . S
C166 N170 1.328 . S
C166 H171 0.930 . S
C167 C168 1.333 . S
C167 N169 1.317 . S
C167 H172 0.930 . S
C168 C167 1.333 . S
C168 N170 1.350 . S
C168 H194 0.931 . S
N169 Co165 2.148 . S
N169 C166 1.301 . S
N169 C167 1.317 . S
N170 C166 1.328 . S
N170 C168 1.350 . S
H171 C166 0.930 . S
H172 C167 0.930 . S
C173 O174 1.224 . S
C173 O192 1.247 . S
O174 C173 1.224 . S
N175 Co165 2.128 . S
N175 C176 1.355 . S
N175 C178 1.311 . S
C176 N175 1.355 . S
C176 C177 1.363 . S
C176 H188 0.929 . S
C177 C176 1.363 . S
C177 N179 1.375 . S
C177 H195 0.931 . S
C178 N175 1.311 . S
C178 N179 1.347 . S
C178 H189 0.929 . S
N179 C177 1.375 . S
N179 C178 1.347 . S
C180 C183 1.365 . S
C180 N185 1.328 . S
C180 H186 0.929 . S
C181 C182 1.362 . S
C181 C184 1.378 . S
C181 H196 0.929 . S
C182 C181 1.362 . S
C182 C183 1.366 . S
C183 C180 1.365 . S
C183 C182 1.366 . S
C183 H197 0.930 . S
C184 C181 1.378 . S
C184 N185 1.315 . S
C184 H187 0.930 . S
N185 Co165 2.194 . S
N185 C180 1.328 . S
N185 C184 1.315 . S
H186 C180 0.929 . S
H187 C184 0.930 . S
H188 C176 0.929 . S
H189 C178 0.929 . S
O190 Co165 2.351 . S
O190 C193 1.244 . S
O191 Co165 2.155 . S
O191 C193 1.240 . S
O192 Co165 2.096 . S
O192 C173 1.247 . S
C193 O190 1.244 . S
C193 O191 1.240 . S
H194 C168 0.931 . S
H195 C177 0.931 . S
H196 C181 0.929 . S
H197 C183 0.930 . S
Co198 N202 2.148 . S
Co198 N208 2.128 . S
Co198 N218 2.194 . S
Co198 O223 2.351 . S
Co198 O224 2.155 . S
Co198 O225 2.096 . S
C199 N202 1.301 . S
C199 N203 1.328 . S
C199 H204 0.930 . S
C200 C201 1.333 . S
C200 N202 1.317 . S
C200 H205 0.930 . S
C201 C200 1.333 . S
C201 N203 1.350 . S
C201 H227 0.931 . S
N202 Co198 2.148 . S
N202 C199 1.301 . S
N202 C200 1.317 . S
N203 C199 1.328 . S
N203 C201 1.350 . S
H204 C199 0.930 . S
H205 C200 0.930 . S
C206 O207 1.224 . S
C206 O225 1.247 . S
O207 C206 1.224 . S
N208 Co198 2.128 . S
N208 C209 1.355 . S
N208 C211 1.311 . S
C209 N208 1.355 . S
C209 C210 1.363 . S
C209 H221 0.929 . S
C210 C209 1.363 . S
C210 N212 1.375 . S
C210 H228 0.931 . S
C211 N208 1.311 . S
C211 N212 1.347 . S
C211 H222 0.929 . S
N212 C210 1.375 . S
N212 C211 1.347 . S
C213 C216 1.365 . S
C213 N218 1.328 . S
C213 H219 0.929 . S
C214 C215 1.362 . S
C214 C217 1.378 . S
C214 H229 0.929 . S
C215 C214 1.362 . S
C215 C216 1.366 . S
C216 C213 1.365 . S
C216 C215 1.366 . S
C216 H230 0.930 . S
C217 C214 1.378 . S
C217 N218 1.315 . S
C217 H220 0.930 . S
N218 Co198 2.194 . S
N218 C213 1.328 . S
N218 C217 1.315 . S
H219 C213 0.929 . S
H220 C217 0.930 . S
H221 C209 0.929 . S
H222 C211 0.929 . S
O223 Co198 2.351 . S
O223 C226 1.244 . S
O224 Co198 2.155 . S
O224 C226 1.240 . S
O225 Co198 2.096 . S
O225 C206 1.247 . S
C226 O223 1.244 . S
C226 O224 1.240 . S
H227 C201 0.931 . S
H228 C210 0.931 . S
H229 C214 0.929 . S
H230 C216 0.930 . S
Co231 N235 2.148 . S
Co231 N241 2.128 . S
Co231 N251 2.194 . S
Co231 O256 2.351 . S
Co231 O257 2.155 . S
Co231 O258 2.096 . S
C232 N235 1.301 . S
C232 N236 1.328 . S
C232 H237 0.930 . S
C233 C234 1.333 . S
C233 N235 1.317 . S
C233 H238 0.930 . S
C234 C233 1.333 . S
C234 N236 1.350 . S
C234 H260 0.931 . S
N235 Co231 2.148 . S
N235 C232 1.301 . S
N235 C233 1.317 . S
N236 C232 1.328 . S
N236 C234 1.350 . S
H237 C232 0.930 . S
H238 C233 0.930 . S
C239 O240 1.224 . S
C239 O258 1.247 . S
O240 C239 1.224 . S
N241 Co231 2.128 . S
N241 C242 1.355 . S
N241 C244 1.311 . S
C242 N241 1.355 . S
C242 C243 1.363 . S
C242 H254 0.929 . S
C243 C242 1.363 . S
C243 N245 1.375 . S
C243 H261 0.931 . S
C244 N241 1.311 . S
C244 N245 1.347 . S
C244 H255 0.929 . S
N245 C243 1.375 . S
N245 C244 1.347 . S
C246 C249 1.365 . S
C246 N251 1.328 . S
C246 H252 0.929 . S
C247 C248 1.362 . S
C247 C250 1.378 . S
C247 H262 0.929 . S
C248 C247 1.362 . S
C248 C249 1.366 . S
C249 C246 1.365 . S
C249 C248 1.366 . S
C249 H263 0.930 . S
C250 C247 1.378 . S
C250 N251 1.315 . S
C250 H253 0.930 . S
N251 Co231 2.194 . S
N251 C246 1.328 . S
N251 C250 1.315 . S
H252 C246 0.929 . S
H253 C250 0.930 . S
H254 C242 0.929 . S
H255 C244 0.929 . S
O256 Co231 2.351 . S
O256 C259 1.244 . S
O257 Co231 2.155 . S
O257 C259 1.240 . S
O258 Co231 2.096 . S
O258 C239 1.247 . S
C259 O256 1.244 . S
C259 O257 1.240 . S
H260 C234 0.931 . S
H261 C243 0.931 . S
H262 C247 0.929 . S
H263 C249 0.930 . S
Co264 N268 2.148 . S
Co264 N274 2.128 . S
Co264 N284 2.194 . S
Co264 O289 2.351 . S
Co264 O290 2.155 . S
Co264 O291 2.096 . S
C265 N268 1.301 . S
C265 N269 1.328 . S
C265 H270 0.930 . S
C266 C267 1.333 . S
C266 N268 1.317 . S
C266 H271 0.930 . S
C267 C266 1.333 . S
C267 N269 1.350 . S
C267 H293 0.931 . S
N268 Co264 2.148 . S
N268 C265 1.301 . S
N268 C266 1.317 . S
N269 C265 1.328 . S
N269 C267 1.350 . S
H270 C265 0.930 . S
H271 C266 0.930 . S
C272 O273 1.224 . S
C272 O291 1.247 . S
O273 C272 1.224 . S
N274 Co264 2.128 . S
N274 C275 1.355 . S
N274 C277 1.311 . S
C275 N274 1.355 . S
C275 C276 1.363 . S
C275 H287 0.929 . S
C276 C275 1.363 . S
C276 N278 1.375 . S
C276 H294 0.931 . S
C277 N274 1.311 . S
C277 N278 1.347 . S
C277 H288 0.929 . S
N278 C276 1.375 . S
N278 C277 1.347 . S
C279 C282 1.365 . S
C279 N284 1.328 . S
C279 H285 0.929 . S
C280 C281 1.362 . S
C280 C283 1.378 . S
C280 H295 0.929 . S
C281 C280 1.362 . S
C281 C282 1.366 . S
C282 C279 1.365 . S
C282 C281 1.366 . S
C282 H296 0.930 . S
C283 C280 1.378 . S
C283 N284 1.315 . S
C283 H286 0.930 . S
N284 Co264 2.194 . S
N284 C279 1.328 . S
N284 C283 1.315 . S
H285 C279 0.929 . S
H286 C283 0.930 . S
H287 C275 0.929 . S
H288 C277 0.929 . S
O289 Co264 2.351 . S
O289 C292 1.244 . S
O290 Co264 2.155 . S
O290 C292 1.240 . S
O291 Co264 2.096 . S
O291 C272 1.247 . S
C292 O289 1.244 . S
C292 O290 1.240 . S
H293 C267 0.931 . S
H294 C276 0.931 . S
H295 C280 0.929 . S
H296 C282 0.930 . S
Co297 N301 2.148 . S
Co297 N307 2.128 . S
Co297 N317 2.194 . S
Co297 O322 2.351 . S
Co297 O323 2.155 . S
Co297 O324 2.096 . S
C298 N301 1.301 . S
C298 N302 1.328 . S
C298 H303 0.930 . S
C299 C300 1.333 . S
C299 N301 1.317 . S
C299 H304 0.930 . S
C300 C299 1.333 . S
C300 N302 1.350 . S
C300 H326 0.931 . S
N301 Co297 2.148 . S
N301 C298 1.301 . S
N301 C299 1.317 . S
N302 C298 1.328 . S
N302 C300 1.350 . S
H303 C298 0.930 . S
H304 C299 0.930 . S
C305 O306 1.224 . S
C305 O324 1.247 . S
O306 C305 1.224 . S
N307 Co297 2.128 . S
N307 C308 1.355 . S
N307 C310 1.311 . S
C308 N307 1.355 . S
C308 C309 1.363 . S
C308 H320 0.929 . S
C309 C308 1.363 . S
C309 N311 1.375 . S
C309 H327 0.931 . S
C310 N307 1.311 . S
C310 N311 1.347 . S
C310 H321 0.929 . S
N311 C309 1.375 . S
N311 C310 1.347 . S
C312 C315 1.365 . S
C312 N317 1.328 . S
C312 H318 0.929 . S
C313 C314 1.362 . S
C313 C316 1.378 . S
C313 H328 0.929 . S
C314 C313 1.362 . S
C314 C315 1.366 . S
C315 C312 1.365 . S
C315 C314 1.366 . S
C315 H329 0.930 . S
C316 C313 1.378 . S
C316 N317 1.315 . S
C316 H319 0.930 . S
N317 Co297 2.194 . S
N317 C312 1.328 . S
N317 C316 1.315 . S
H318 C312 0.929 . S
H319 C316 0.930 . S
H320 C308 0.929 . S
H321 C310 0.929 . S
O322 Co297 2.351 . S
O322 C325 1.244 . S
O323 Co297 2.155 . S
O323 C325 1.240 . S
O324 Co297 2.096 . S
O324 C305 1.247 . S
C325 O322 1.244 . S
C325 O323 1.240 . S
H326 C300 0.931 . S
H327 C309 0.931 . S
H328 C313 0.929 . S
H329 C315 0.930 . S
Co330 N334 2.148 . S
Co330 N340 2.128 . S
Co330 N350 2.194 . S
Co330 O355 2.351 . S
Co330 O356 2.155 . S
Co330 O357 2.096 . S
C331 N334 1.301 . S
C331 N335 1.328 . S
C331 H336 0.930 . S
C332 C333 1.333 . S
C332 N334 1.317 . S
C332 H337 0.930 . S
C333 C332 1.333 . S
C333 N335 1.350 . S
C333 H359 0.931 . S
N334 Co330 2.148 . S
N334 C331 1.301 . S
N334 C332 1.317 . S
N335 C331 1.328 . S
N335 C333 1.350 . S
H336 C331 0.930 . S
H337 C332 0.930 . S
C338 O339 1.224 . S
C338 O357 1.247 . S
O339 C338 1.224 . S
N340 Co330 2.128 . S
N340 C341 1.355 . S
N340 C343 1.311 . S
C341 N340 1.355 . S
C341 C342 1.363 . S
C341 H353 0.929 . S
C342 C341 1.363 . S
C342 N344 1.375 . S
C342 H360 0.931 . S
C343 N340 1.311 . S
C343 N344 1.347 . S
C343 H354 0.929 . S
N344 C342 1.375 . S
N344 C343 1.347 . S
C345 C348 1.365 . S
C345 N350 1.328 . S
C345 H351 0.929 . S
C346 C347 1.362 . S
C346 C349 1.378 . S
C346 H361 0.929 . S
C347 C346 1.362 . S
C347 C348 1.366 . S
C348 C345 1.365 . S
C348 C347 1.366 . S
C348 H362 0.930 . S
C349 C346 1.378 . S
C349 N350 1.315 . S
C349 H352 0.930 . S
N350 Co330 2.194 . S
N350 C345 1.328 . S
N350 C349 1.315 . S
H351 C345 0.929 . S
H352 C349 0.930 . S
H353 C341 0.929 . S
H354 C343 0.929 . S
O355 Co330 2.351 . S
O355 C358 1.244 . S
O356 Co330 2.155 . S
O356 C358 1.240 . S
O357 Co330 2.096 . S
O357 C338 1.247 . S
C358 O355 1.244 . S
C358 O356 1.240 . S
H359 C333 0.931 . S
H360 C342 0.931 . S
H361 C346 0.929 . S
H362 C348 0.930 . S
Co363 N367 2.148 . S
Co363 N373 2.128 . S
Co363 N383 2.194 . S
Co363 O388 2.351 . S
Co363 O389 2.155 . S
Co363 O390 2.096 . S
C364 N367 1.301 . S
C364 N368 1.328 . S
C364 H369 0.930 . S
C365 C366 1.333 . S
C365 N367 1.317 . S
C365 H370 0.930 . S
C366 C365 1.333 . S
C366 N368 1.350 . S
C366 H392 0.931 . S
N367 Co363 2.148 . S
N367 C364 1.301 . S
N367 C365 1.317 . S
N368 C364 1.328 . S
N368 C366 1.350 . S
H369 C364 0.930 . S
H370 C365 0.930 . S
C371 O372 1.224 . S
C371 O390 1.247 . S
O372 C371 1.224 . S
N373 Co363 2.128 . S
N373 C374 1.355 . S
N373 C376 1.311 . S
C374 N373 1.355 . S
C374 C375 1.363 . S
C374 H386 0.929 . S
C375 C374 1.363 . S
C375 N377 1.375 . S
C375 H393 0.931 . S
C376 N373 1.311 . S
C376 N377 1.347 . S
C376 H387 0.929 . S
N377 C375 1.375 . S
N377 C376 1.347 . S
C378 C381 1.365 . S
C378 N383 1.328 . S
C378 H384 0.929 . S
C379 C380 1.362 . S
C379 C382 1.378 . S
C379 H394 0.929 . S
C380 C379 1.362 . S
C380 C381 1.366 . S
C381 C378 1.365 . S
C381 C380 1.366 . S
C381 H395 0.930 . S
C382 C379 1.378 . S
C382 N383 1.315 . S
C382 H385 0.930 . S
N383 Co363 2.194 . S
N383 C378 1.328 . S
N383 C382 1.315 . S
H384 C378 0.929 . S
H385 C382 0.930 . S
H386 C374 0.929 . S
H387 C376 0.929 . S
O388 Co363 2.351 . S
O388 C391 1.244 . S
O389 Co363 2.155 . S
O389 C391 1.240 . S
O390 Co363 2.096 . S
O390 C371 1.247 . S
C391 O388 1.244 . S
C391 O389 1.240 . S
H392 C366 0.931 . S
H393 C375 0.931 . S
H394 C379 0.929 . S
H395 C381 0.930 . S
Co396 N400 2.148 . S
Co396 N406 2.128 . S
Co396 N416 2.194 . S
Co396 O421 2.351 . S
Co396 O422 2.155 . S
Co396 O423 2.096 . S
C397 N400 1.301 . S
C397 N401 1.328 . S
C397 H402 0.930 . S
C398 C399 1.333 . S
C398 N400 1.317 . S
C398 H403 0.930 . S
C399 C398 1.333 . S
C399 N401 1.350 . S
C399 H425 0.931 . S
N400 Co396 2.148 . S
N400 C397 1.301 . S
N400 C398 1.317 . S
N401 C397 1.328 . S
N401 C399 1.350 . S
H402 C397 0.930 . S
H403 C398 0.930 . S
C404 O405 1.224 . S
C404 O423 1.247 . S
O405 C404 1.224 . S
N406 Co396 2.128 . S
N406 C407 1.355 . S
N406 C409 1.311 . S
C407 N406 1.355 . S
C407 C408 1.363 . S
C407 H419 0.929 . S
C408 C407 1.363 . S
C408 N410 1.375 . S
C408 H426 0.931 . S
C409 N406 1.311 . S
C409 N410 1.347 . S
C409 H420 0.929 . S
N410 C408 1.375 . S
N410 C409 1.347 . S
C411 C414 1.365 . S
C411 N416 1.328 . S
C411 H417 0.929 . S
C412 C413 1.362 . S
C412 C415 1.378 . S
C412 H427 0.929 . S
C413 C412 1.362 . S
C413 C414 1.366 . S
C414 C411 1.365 . S
C414 C413 1.366 . S
C414 H428 0.930 . S
C415 C412 1.378 . S
C415 N416 1.315 . S
C415 H418 0.930 . S
N416 Co396 2.194 . S
N416 C411 1.328 . S
N416 C415 1.315 . S
H417 C411 0.929 . S
H418 C415 0.930 . S
H419 C407 0.929 . S
H420 C409 0.929 . S
O421 Co396 2.351 . S
O421 C424 1.244 . S
O422 Co396 2.155 . S
O422 C424 1.240 . S
O423 Co396 2.096 . S
O423 C404 1.247 . S
C424 O421 1.244 . S
C424 O422 1.240 . S
H425 C399 0.931 . S
H426 C408 0.931 . S
H427 C412 0.929 . S
H428 C414 0.930 . S
Co429 N433 2.148 . S
Co429 N439 2.128 . S
Co429 N449 2.194 . S
Co429 O454 2.351 . S
Co429 O455 2.155 . S
Co429 O456 2.096 . S
C430 N433 1.301 . S
C430 N434 1.328 . S
C430 H435 0.930 . S
C431 C432 1.333 . S
C431 N433 1.317 . S
C431 H436 0.930 . S
C432 C431 1.333 . S
C432 N434 1.350 . S
C432 H458 0.931 . S
N433 Co429 2.148 . S
N433 C430 1.301 . S
N433 C431 1.317 . S
N434 C430 1.328 . S
N434 C432 1.350 . S
H435 C430 0.930 . S
H436 C431 0.930 . S
C437 O438 1.224 . S
C437 O456 1.247 . S
O438 C437 1.224 . S
N439 Co429 2.128 . S
N439 C440 1.355 . S
N439 C442 1.311 . S
C440 N439 1.355 . S
C440 C441 1.363 . S
C440 H452 0.929 . S
C441 C440 1.363 . S
C441 N443 1.375 . S
C441 H459 0.931 . S
C442 N439 1.311 . S
C442 N443 1.347 . S
C442 H453 0.929 . S
N443 C441 1.375 . S
N443 C442 1.347 . S
C444 C447 1.365 . S
C444 N449 1.328 . S
C444 H450 0.929 . S
C445 C446 1.362 . S
C445 C448 1.378 . S
C445 H460 0.929 . S
C446 C445 1.362 . S
C446 C447 1.366 . S
C447 C444 1.365 . S
C447 C446 1.366 . S
C447 H461 0.930 . S
C448 C445 1.378 . S
C448 N449 1.315 . S
C448 H451 0.930 . S
N449 Co429 2.194 . S
N449 C444 1.328 . S
N449 C448 1.315 . S
H450 C444 0.929 . S
H451 C448 0.930 . S
H452 C440 0.929 . S
H453 C442 0.929 . S
O454 Co429 2.351 . S
O454 C457 1.244 . S
O455 Co429 2.155 . S
O455 C457 1.240 . S
O456 Co429 2.096 . S
O456 C437 1.247 . S
C457 O454 1.244 . S
C457 O455 1.240 . S
H458 C432 0.931 . S
H459 C441 0.931 . S
H460 C445 0.929 . S
H461 C447 0.930 . S
Co462 N466 2.148 . S
Co462 N472 2.128 . S
Co462 N482 2.194 . S
Co462 O487 2.351 . S
Co462 O488 2.155 . S
Co462 O489 2.096 . S
C463 N466 1.301 . S
C463 N467 1.328 . S
C463 H468 0.930 . S
C464 C465 1.333 . S
C464 N466 1.317 . S
C464 H469 0.930 . S
C465 C464 1.333 . S
C465 N467 1.350 . S
C465 H491 0.931 . S
N466 Co462 2.148 . S
N466 C463 1.301 . S
N466 C464 1.317 . S
N467 C463 1.328 . S
N467 C465 1.350 . S
H468 C463 0.930 . S
H469 C464 0.930 . S
C470 O471 1.224 . S
C470 O489 1.247 . S
O471 C470 1.224 . S
N472 Co462 2.128 . S
N472 C473 1.355 . S
N472 C475 1.311 . S
C473 N472 1.355 . S
C473 C474 1.363 . S
C473 H485 0.929 . S
C474 C473 1.363 . S
C474 N476 1.375 . S
C474 H492 0.931 . S
C475 N472 1.311 . S
C475 N476 1.347 . S
C475 H486 0.929 . S
N476 C474 1.375 . S
N476 C475 1.347 . S
C477 C480 1.365 . S
C477 N482 1.328 . S
C477 H483 0.929 . S
C478 C479 1.362 . S
C478 C481 1.378 . S
C478 H493 0.929 . S
C479 C478 1.362 . S
C479 C480 1.366 . S
C480 C477 1.365 . S
C480 C479 1.366 . S
C480 H494 0.930 . S
C481 C478 1.378 . S
C481 N482 1.315 . S
C481 H484 0.930 . S
N482 Co462 2.194 . S
N482 C477 1.328 . S
N482 C481 1.315 . S
H483 C477 0.929 . S
H484 C481 0.930 . S
H485 C473 0.929 . S
H486 C475 0.929 . S
O487 Co462 2.351 . S
O487 C490 1.244 . S
O488 Co462 2.155 . S
O488 C490 1.240 . S
O489 Co462 2.096 . S
O489 C470 1.247 . S
C490 O487 1.244 . S
C490 O488 1.240 . S
H491 C465 0.931 . S
H492 C474 0.931 . S
H493 C478 0.929 . S
H494 C480 0.930 . S
Co495 N499 2.148 . S
Co495 N505 2.128 . S
Co495 N515 2.194 . S
Co495 O520 2.351 . S
Co495 O521 2.155 . S
Co495 O522 2.096 . S
C496 N499 1.301 . S
C496 N500 1.328 . S
C496 H501 0.930 . S
C497 C498 1.333 . S
C497 N499 1.317 . S
C497 H502 0.930 . S
C498 C497 1.333 . S
C498 N500 1.350 . S
C498 H524 0.931 . S
N499 Co495 2.148 . S
N499 C496 1.301 . S
N499 C497 1.317 . S
N500 C496 1.328 . S
N500 C498 1.350 . S
H501 C496 0.930 . S
H502 C497 0.930 . S
C503 O504 1.224 . S
C503 O522 1.247 . S
O504 C503 1.224 . S
N505 Co495 2.128 . S
N505 C506 1.355 . S
N505 C508 1.311 . S
C506 N505 1.355 . S
C506 C507 1.363 . S
C506 H518 0.929 . S
C507 C506 1.363 . S
C507 N509 1.375 . S
C507 H525 0.931 . S
C508 N505 1.311 . S
C508 N509 1.347 . S
C508 H519 0.929 . S
N509 C507 1.375 . S
N509 C508 1.347 . S
C510 C513 1.365 . S
C510 N515 1.328 . S
C510 H516 0.929 . S
C511 C512 1.362 . S
C511 C514 1.378 . S
C511 H526 0.929 . S
C512 C511 1.362 . S
C512 C513 1.366 . S
C513 C510 1.365 . S
C513 C512 1.366 . S
C513 H527 0.930 . S
C514 C511 1.378 . S
C514 N515 1.315 . S
C514 H517 0.930 . S
N515 Co495 2.194 . S
N515 C510 1.328 . S
N515 C514 1.315 . S
H516 C510 0.929 . S
H517 C514 0.930 . S
H518 C506 0.929 . S
H519 C508 0.929 . S
O520 Co495 2.351 . S
O520 C523 1.244 . S
O521 Co495 2.155 . S
O521 C523 1.240 . S
O522 Co495 2.096 . S
O522 C503 1.247 . S
C523 O520 1.244 . S
C523 O521 1.240 . S
H524 C498 0.931 . S
H525 C507 0.931 . S
H526 C511 0.929 . S
H527 C513 0.930 . S
Co528 N532 2.148 . S
Co528 N538 2.128 . S
Co528 N548 2.194 . S
Co528 O553 2.351 . S
Co528 O554 2.155 . S
Co528 O555 2.096 . S
C529 N532 1.301 . S
C529 N533 1.328 . S
C529 H534 0.930 . S
C530 C531 1.333 . S
C530 N532 1.317 . S
C530 H535 0.930 . S
C531 C530 1.333 . S
C531 N533 1.350 . S
C531 H557 0.931 . S
N532 Co528 2.148 . S
N532 C529 1.301 . S
N532 C530 1.317 . S
N533 C529 1.328 . S
N533 C531 1.350 . S
H534 C529 0.930 . S
H535 C530 0.930 . S
C536 O537 1.224 . S
C536 O555 1.247 . S
O537 C536 1.224 . S
N538 Co528 2.128 . S
N538 C539 1.355 . S
N538 C541 1.311 . S
C539 N538 1.355 . S
C539 C540 1.363 . S
C539 H551 0.929 . S
C540 C539 1.363 . S
C540 N542 1.375 . S
C540 H558 0.931 . S
C541 N538 1.311 . S
C541 N542 1.347 . S
C541 H552 0.929 . S
N542 C540 1.375 . S
N542 C541 1.347 . S
C543 C546 1.365 . S
C543 N548 1.328 . S
C543 H549 0.929 . S
C544 C545 1.362 . S
C544 C547 1.378 . S
C544 H559 0.929 . S
C545 C544 1.362 . S
C545 C546 1.366 . S
C546 C543 1.365 . S
C546 C545 1.366 . S
C546 H560 0.930 . S
C547 C544 1.378 . S
C547 N548 1.315 . S
C547 H550 0.930 . S
N548 Co528 2.194 . S
N548 C543 1.328 . S
N548 C547 1.315 . S
H549 C543 0.929 . S
H550 C547 0.930 . S
H551 C539 0.929 . S
H552 C541 0.929 . S
O553 Co528 2.351 . S
O553 C556 1.244 . S
O554 Co528 2.155 . S
O554 C556 1.240 . S
O555 Co528 2.096 . S
O555 C536 1.247 . S
C556 O553 1.244 . S
C556 O554 1.240 . S
H557 C531 0.931 . S
H558 C540 0.931 . S
H559 C544 0.929 . S
H560 C546 0.930 . S
Co561 N565 2.148 . S
Co561 N571 2.128 . S
Co561 N581 2.194 . S
Co561 O586 2.351 . S
Co561 O587 2.155 . S
Co561 O588 2.096 . S
C562 N565 1.301 . S
C562 N566 1.328 . S
C562 H567 0.930 . S
C563 C564 1.333 . S
C563 N565 1.317 . S
C563 H568 0.930 . S
C564 C563 1.333 . S
C564 N566 1.350 . S
C564 H590 0.931 . S
N565 Co561 2.148 . S
N565 C562 1.301 . S
N565 C563 1.317 . S
N566 C562 1.328 . S
N566 C564 1.350 . S
H567 C562 0.930 . S
H568 C563 0.930 . S
C569 O570 1.224 . S
C569 O588 1.247 . S
O570 C569 1.224 . S
N571 Co561 2.128 . S
N571 C572 1.355 . S
N571 C574 1.311 . S
C572 N571 1.355 . S
C572 C573 1.363 . S
C572 H584 0.929 . S
C573 C572 1.363 . S
C573 N575 1.375 . S
C573 H591 0.931 . S
C574 N571 1.311 . S
C574 N575 1.347 . S
C574 H585 0.929 . S
N575 C573 1.375 . S
N575 C574 1.347 . S
C576 C579 1.365 . S
C576 N581 1.328 . S
C576 H582 0.929 . S
C577 C578 1.362 . S
C577 C580 1.378 . S
C577 H592 0.929 . S
C578 C577 1.362 . S
C578 C579 1.366 . S
C579 C576 1.365 . S
C579 C578 1.366 . S
C579 H593 0.930 . S
C580 C577 1.378 . S
C580 N581 1.315 . S
C580 H583 0.930 . S
N581 Co561 2.194 . S
N581 C576 1.328 . S
N581 C580 1.315 . S
H582 C576 0.929 . S
H583 C580 0.930 . S
H584 C572 0.929 . S
H585 C574 0.929 . S
O586 Co561 2.351 . S
O586 C589 1.244 . S
O587 Co561 2.155 . S
O587 C589 1.240 . S
O588 Co561 2.096 . S
O588 C569 1.247 . S
C589 O586 1.244 . S
C589 O587 1.240 . S
H590 C564 0.931 . S
H591 C573 0.931 . S
H592 C577 0.929 . S
H593 C579 0.930 . S
Co594 N598 2.148 . S
Co594 N604 2.128 . S
Co594 N614 2.194 . S
Co594 O619 2.351 . S
Co594 O620 2.155 . S
Co594 O621 2.096 . S
C595 N598 1.301 . S
C595 N599 1.328 . S
C595 H600 0.930 . S
C596 C597 1.333 . S
C596 N598 1.317 . S
C596 H601 0.930 . S
C597 C596 1.333 . S
C597 N599 1.350 . S
C597 H623 0.931 . S
N598 Co594 2.148 . S
N598 C595 1.301 . S
N598 C596 1.317 . S
N599 C595 1.328 . S
N599 C597 1.350 . S
H600 C595 0.930 . S
H601 C596 0.930 . S
C602 O603 1.224 . S
C602 O621 1.247 . S
O603 C602 1.224 . S
N604 Co594 2.128 . S
N604 C605 1.355 . S
N604 C607 1.311 . S
C605 N604 1.355 . S
C605 C606 1.363 . S
C605 H617 0.929 . S
C606 C605 1.363 . S
C606 N608 1.375 . S
C606 H624 0.931 . S
C607 N604 1.311 . S
C607 N608 1.347 . S
C607 H618 0.929 . S
N608 C606 1.375 . S
N608 C607 1.347 . S
C609 C612 1.365 . S
C609 N614 1.328 . S
C609 H615 0.929 . S
C610 C611 1.362 . S
C610 C613 1.378 . S
C610 H625 0.929 . S
C611 C610 1.362 . S
C611 C612 1.366 . S
C612 C609 1.365 . S
C612 C611 1.366 . S
C612 H626 0.930 . S
C613 C610 1.378 . S
C613 N614 1.315 . S
C613 H616 0.930 . S
N614 Co594 2.194 . S
N614 C609 1.328 . S
N614 C613 1.315 . S
H615 C609 0.929 . S
H616 C613 0.930 . S
H617 C605 0.929 . S
H618 C607 0.929 . S
O619 Co594 2.351 . S
O619 C622 1.244 . S
O620 Co594 2.155 . S
O620 C622 1.240 . S
O621 Co594 2.096 . S
O621 C602 1.247 . S
C622 O619 1.244 . S
C622 O620 1.240 . S
H623 C597 0.931 . S
H624 C606 0.931 . S
H625 C610 0.929 . S
H626 C612 0.930 . S
Co627 N631 2.148 . S
Co627 N637 2.128 . S
Co627 N647 2.194 . S
Co627 O652 2.351 . S
Co627 O653 2.155 . S
Co627 O654 2.096 . S
C628 N631 1.301 . S
C628 N632 1.328 . S
C628 H633 0.930 . S
C629 C630 1.333 . S
C629 N631 1.317 . S
C629 H634 0.930 . S
C630 C629 1.333 . S
C630 N632 1.350 . S
C630 H656 0.931 . S
N631 Co627 2.148 . S
N631 C628 1.301 . S
N631 C629 1.317 . S
N632 C628 1.328 . S
N632 C630 1.350 . S
H633 C628 0.930 . S
H634 C629 0.930 . S
C635 O636 1.224 . S
C635 O654 1.247 . S
O636 C635 1.224 . S
N637 Co627 2.128 . S
N637 C638 1.355 . S
N637 C640 1.311 . S
C638 N637 1.355 . S
C638 C639 1.363 . S
C638 H650 0.929 . S
C639 C638 1.363 . S
C639 N641 1.375 . S
C639 H657 0.931 . S
C640 N637 1.311 . S
C640 N641 1.347 . S
C640 H651 0.929 . S
N641 C639 1.375 . S
N641 C640 1.347 . S
C642 C645 1.365 . S
C642 N647 1.328 . S
C642 H648 0.929 . S
C643 C644 1.362 . S
C643 C646 1.378 . S
C643 H658 0.929 . S
C644 C643 1.362 . S
C644 C645 1.366 . S
C645 C642 1.365 . S
C645 C644 1.366 . S
C645 H659 0.930 . S
C646 C643 1.378 . S
C646 N647 1.315 . S
C646 H649 0.930 . S
N647 Co627 2.194 . S
N647 C642 1.328 . S
N647 C646 1.315 . S
H648 C642 0.929 . S
H649 C646 0.930 . S
H650 C638 0.929 . S
H651 C640 0.929 . S
O652 Co627 2.351 . S
O652 C655 1.244 . S
O653 Co627 2.155 . S
O653 C655 1.240 . S
O654 Co627 2.096 . S
O654 C635 1.247 . S
C655 O652 1.244 . S
C655 O653 1.240 . S
H656 C630 0.931 . S
H657 C639 0.931 . S
H658 C643 0.929 . S
H659 C645 0.930 . S
Co660 N664 2.148 . S
Co660 N670 2.128 . S
Co660 N680 2.194 . S
Co660 O685 2.351 . S
Co660 O686 2.155 . S
Co660 O687 2.096 . S
C661 N664 1.301 . S
C661 N665 1.328 . S
C661 H666 0.930 . S
C662 C663 1.333 . S
C662 N664 1.317 . S
C662 H667 0.930 . S
C663 C662 1.333 . S
C663 N665 1.350 . S
C663 H689 0.931 . S
N664 Co660 2.148 . S
N664 C661 1.301 . S
N664 C662 1.317 . S
N665 C661 1.328 . S
N665 C663 1.350 . S
H666 C661 0.930 . S
H667 C662 0.930 . S
C668 O669 1.224 . S
C668 O687 1.247 . S
O669 C668 1.224 . S
N670 Co660 2.128 . S
N670 C671 1.355 . S
N670 C673 1.311 . S
C671 N670 1.355 . S
C671 C672 1.363 . S
C671 H683 0.929 . S
C672 C671 1.363 . S
C672 N674 1.375 . S
C672 H690 0.931 . S
C673 N670 1.311 . S
C673 N674 1.347 . S
C673 H684 0.929 . S
N674 C672 1.375 . S
N674 C673 1.347 . S
C675 C678 1.365 . S
C675 N680 1.328 . S
C675 H681 0.929 . S
C676 C677 1.362 . S
C676 C679 1.378 . S
C676 H691 0.929 . S
C677 C676 1.362 . S
C677 C678 1.366 . S
C678 C675 1.365 . S
C678 C677 1.366 . S
C678 H692 0.930 . S
C679 C676 1.378 . S
C679 N680 1.315 . S
C679 H682 0.930 . S
N680 Co660 2.194 . S
N680 C675 1.328 . S
N680 C679 1.315 . S
H681 C675 0.929 . S
H682 C679 0.930 . S
H683 C671 0.929 . S
H684 C673 0.929 . S
O685 Co660 2.351 . S
O685 C688 1.244 . S
O686 Co660 2.155 . S
O686 C688 1.240 . S
O687 Co660 2.096 . S
O687 C668 1.247 . S
C688 O685 1.244 . S
C688 O686 1.240 . S
H689 C663 0.931 . S
H690 C672 0.931 . S
H691 C676 0.929 . S
H692 C678 0.930 . S
Co693 N697 2.148 . S
Co693 N703 2.128 . S
Co693 N713 2.194 . S
Co693 O718 2.351 . S
Co693 O719 2.155 . S
Co693 O720 2.096 . S
C694 N697 1.301 . S
C694 N698 1.328 . S
C694 H699 0.930 . S
C695 C696 1.333 . S
C695 N697 1.317 . S
C695 H700 0.930 . S
C696 C695 1.333 . S
C696 N698 1.350 . S
C696 H722 0.931 . S
N697 Co693 2.148 . S
N697 C694 1.301 . S
N697 C695 1.317 . S
N698 C694 1.328 . S
N698 C696 1.350 . S
H699 C694 0.930 . S
H700 C695 0.930 . S
C701 O702 1.224 . S
C701 O720 1.247 . S
O702 C701 1.224 . S
N703 Co693 2.128 . S
N703 C704 1.355 . S
N703 C706 1.311 . S
C704 N703 1.355 . S
C704 C705 1.363 . S
C704 H716 0.929 . S
C705 C704 1.363 . S
C705 N707 1.375 . S
C705 H723 0.931 . S
C706 N703 1.311 . S
C706 N707 1.347 . S
C706 H717 0.929 . S
N707 C705 1.375 . S
N707 C706 1.347 . S
C708 C711 1.365 . S
C708 N713 1.328 . S
C708 H714 0.929 . S
C709 C710 1.362 . S
C709 C712 1.378 . S
C709 H724 0.929 . S
C710 C709 1.362 . S
C710 C711 1.366 . S
C711 C708 1.365 . S
C711 C710 1.366 . S
C711 H725 0.930 . S
C712 C709 1.378 . S
C712 N713 1.315 . S
C712 H715 0.930 . S
N713 Co693 2.194 . S
N713 C708 1.328 . S
N713 C712 1.315 . S
H714 C708 0.929 . S
H715 C712 0.930 . S
H716 C704 0.929 . S
H717 C706 0.929 . S
O718 Co693 2.351 . S
O718 C721 1.244 . S
O719 Co693 2.155 . S
O719 C721 1.240 . S
O720 Co693 2.096 . S
O720 C701 1.247 . S
C721 O718 1.244 . S
C721 O719 1.240 . S
H722 C696 0.931 . S
H723 C705 0.931 . S
H724 C709 0.929 . S
H725 C711 0.930 . S
Co726 N730 2.148 . S
Co726 N736 2.128 . S
Co726 N746 2.194 . S
Co726 O751 2.351 . S
Co726 O752 2.155 . S
Co726 O753 2.096 . S
C727 N730 1.301 . S
C727 N731 1.328 . S
C727 H732 0.930 . S
C728 C729 1.333 . S
C728 N730 1.317 . S
C728 H733 0.930 . S
C729 C728 1.333 . S
C729 N731 1.350 . S
C729 H755 0.931 . S
N730 Co726 2.148 . S
N730 C727 1.301 . S
N730 C728 1.317 . S
N731 C727 1.328 . S
N731 C729 1.350 . S
H732 C727 0.930 . S
H733 C728 0.930 . S
C734 O735 1.224 . S
C734 O753 1.247 . S
O735 C734 1.224 . S
N736 Co726 2.128 . S
N736 C737 1.355 . S
N736 C739 1.311 . S
C737 N736 1.355 . S
C737 C738 1.363 . S
C737 H749 0.929 . S
C738 C737 1.363 . S
C738 N740 1.375 . S
C738 H756 0.931 . S
C739 N736 1.311 . S
C739 N740 1.347 . S
C739 H750 0.929 . S
N740 C738 1.375 . S
N740 C739 1.347 . S
C741 C744 1.365 . S
C741 N746 1.328 . S
C741 H747 0.929 . S
C742 C743 1.362 . S
C742 C745 1.378 . S
C742 H757 0.929 . S
C743 C742 1.362 . S
C743 C744 1.366 . S
C744 C741 1.365 . S
C744 C743 1.366 . S
C744 H758 0.930 . S
C745 C742 1.378 . S
C745 N746 1.315 . S
C745 H748 0.930 . S
N746 Co726 2.194 . S
N746 C741 1.328 . S
N746 C745 1.315 . S
H747 C741 0.929 . S
H748 C745 0.930 . S
H749 C737 0.929 . S
H750 C739 0.929 . S
O751 Co726 2.351 . S
O751 C754 1.244 . S
O752 Co726 2.155 . S
O752 C754 1.240 . S
O753 Co726 2.096 . S
O753 C734 1.247 . S
C754 O751 1.244 . S
C754 O752 1.240 . S
H755 C729 0.931 . S
H756 C738 0.931 . S
H757 C742 0.929 . S
H758 C744 0.930 . S
Co759 N763 2.148 . S
Co759 N769 2.128 . S
Co759 N779 2.194 . S
Co759 O784 2.351 . S
Co759 O785 2.155 . S
Co759 O786 2.096 . S
C760 N763 1.301 . S
C760 N764 1.328 . S
C760 H765 0.930 . S
C761 C762 1.333 . S
C761 N763 1.317 . S
C761 H766 0.930 . S
C762 C761 1.333 . S
C762 N764 1.350 . S
C762 H788 0.931 . S
N763 Co759 2.148 . S
N763 C760 1.301 . S
N763 C761 1.317 . S
N764 C760 1.328 . S
N764 C762 1.350 . S
H765 C760 0.930 . S
H766 C761 0.930 . S
C767 O768 1.224 . S
C767 O786 1.247 . S
O768 C767 1.224 . S
N769 Co759 2.128 . S
N769 C770 1.355 . S
N769 C772 1.311 . S
C770 N769 1.355 . S
C770 C771 1.363 . S
C770 H782 0.929 . S
C771 C770 1.363 . S
C771 N773 1.375 . S
C771 H789 0.931 . S
C772 N769 1.311 . S
C772 N773 1.347 . S
C772 H783 0.929 . S
N773 C771 1.375 . S
N773 C772 1.347 . S
C774 C777 1.365 . S
C774 N779 1.328 . S
C774 H780 0.929 . S
C775 C776 1.362 . S
C775 C778 1.378 . S
C775 H790 0.929 . S
C776 C775 1.362 . S
C776 C777 1.366 . S
C777 C774 1.365 . S
C777 C776 1.366 . S
C777 H791 0.930 . S
C778 C775 1.378 . S
C778 N779 1.315 . S
C778 H781 0.930 . S
N779 Co759 2.194 . S
N779 C774 1.328 . S
N779 C778 1.315 . S
H780 C774 0.929 . S
H781 C778 0.930 . S
H782 C770 0.929 . S
H783 C772 0.929 . S
O784 Co759 2.351 . S
O784 C787 1.244 . S
O785 Co759 2.155 . S
O785 C787 1.240 . S
O786 Co759 2.096 . S
O786 C767 1.247 . S
C787 O784 1.244 . S
C787 O785 1.240 . S
H788 C762 0.931 . S
H789 C771 0.931 . S
H790 C775 0.929 . S
H791 C777 0.930 . S
H792 C804 0.930 . S
H793 C806 0.930 . S
H794 C807 0.930 1_565 S
H795 C811 0.959 . S
H796 C811 0.959 . S
H797 C811 0.961 . S
H798 C812 0.960 . S
H799 C812 0.961 1_565 S
H800 C812 0.959 1_565 S
H801 C815 0.929 . S
H802 C816 0.931 . S
H803 C818 0.930 . S
C804 H792 0.930 . S
C804 C805 1.399 . S
C804 C809 1.399 . S
C805 C804 1.399 . S
C805 C806 1.376 . S
C806 H793 0.930 . S
C806 C805 1.376 . S
C806 C807 1.388 . S
C807 H794 0.930 1_545 S
C807 C806 1.388 . S
C807 C808 1.390 . S
C808 C807 1.390 . S
C808 C809 1.394 . S
C808 C814 1.465 1_545 S
C809 C804 1.399 . S
C809 C808 1.394 . S
C809 C810 1.516 . S
C810 C809 1.516 . S
C810 C811 1.502 . S
C810 C812 1.561 . S
C810 C813 1.526 1_545 S
C811 H795 0.959 . S
C811 H796 0.959 . S
C811 H797 0.961 . S
C811 C810 1.502 . S
C812 H798 0.960 . S
C812 H799 0.961 1_545 S
C812 H800 0.959 1_545 S
C812 C810 1.561 . S
C813 C810 1.526 1_565 S
C813 C814 1.396 . S
C813 C818 1.390 . S
C814 C808 1.465 1_565 S
C814 C813 1.396 . S
C814 C815 1.399 . S
C815 H801 0.929 . S
C815 C814 1.399 . S
C815 C816 1.385 . S
C816 H802 0.931 . S
C816 C815 1.385 . S
C816 C817 1.389 . S
C817 C816 1.389 . S
C817 C818 1.387 . S
C818 H803 0.930 . S
C818 C813 1.390 . S
C818 C817 1.387 . S
H819 C831 0.930 . S
H820 C833 0.930 . S
H821 C834 0.930 . S
H822 C838 0.959 . S
H823 C838 0.959 . S
H824 C838 0.961 . S
H825 C839 0.960 . S
H826 C839 0.961 . S
H827 C839 0.959 . S
H828 C842 0.929 . S
H829 C843 0.931 . S
H830 C845 0.930 . S
C831 H819 0.930 . S
C831 C832 1.399 . S
C831 C836 1.399 . S
C832 C831 1.399 . S
C832 C833 1.376 . S
C833 H820 0.930 . S
C833 C832 1.376 . S
C833 C834 1.388 . S
C834 H821 0.930 . S
C834 C833 1.388 . S
C834 C835 1.390 . S
C835 C834 1.390 . S
C835 C836 1.394 . S
C835 C841 1.465 . S
C836 C831 1.399 . S
C836 C835 1.394 . S
C836 C837 1.516 . S
C837 C836 1.516 . S
C837 C838 1.502 . S
C837 C839 1.561 . S
C837 C840 1.526 . S
C838 H822 0.959 . S
C838 H823 0.959 . S
C838 H824 0.961 . S
C838 C837 1.502 . S
C839 H825 0.960 . S
C839 H826 0.961 . S
C839 H827 0.959 . S
C839 C837 1.561 . S
C840 C837 1.526 . S
C840 C841 1.396 . S
C840 C845 1.390 . S
C841 C835 1.465 . S
C841 C840 1.396 . S
C841 C842 1.399 . S
C842 H828 0.929 . S
C842 C841 1.399 . S
C842 C843 1.385 . S
C843 H829 0.931 . S
C843 C842 1.385 . S
C843 C844 1.389 . S
C844 C843 1.389 . S
C844 C845 1.387 . S
C845 H830 0.930 . S
C845 C840 1.390 . S
C845 C844 1.387 . S
H846 C858 0.930 . S
H847 C860 0.930 . S
H848 C861 0.930 . S
H849 C865 0.959 . S
H850 C865 0.959 . S
H851 C865 0.961 . S
H852 C866 0.960 1_455 S
H853 C866 0.961 . S
H854 C866 0.959 . S
H855 C869 0.929 . S
H856 C870 0.931 . S
H857 C872 0.930 . S
C858 H846 0.930 . S
C858 C859 1.399 . S
C858 C863 1.399 . S
C859 C858 1.399 . S
C859 C860 1.376 . S
C860 H847 0.930 . S
C860 C859 1.376 . S
C860 C861 1.388 . S
C861 H848 0.930 . S
C861 C860 1.388 . S
C861 C862 1.390 . S
C862 C861 1.390 . S
C862 C863 1.394 . S
C862 C868 1.465 1_455 S
C863 C858 1.399 . S
C863 C862 1.394 . S
C863 C864 1.516 . S
C864 C863 1.516 . S
C864 C865 1.502 . S
C864 C866 1.561 1_455 S
C864 C867 1.526 1_455 S
C865 H849 0.959 . S
C865 H850 0.959 . S
C865 H851 0.961 . S
C865 C864 1.502 . S
C866 H852 0.960 1_655 S
C866 H853 0.961 . S
C866 H854 0.959 . S
C866 C864 1.561 1_655 S
C867 C864 1.526 1_655 S
C867 C868 1.396 . S
C867 C872 1.390 . S
C868 C862 1.465 1_655 S
C868 C867 1.396 . S
C868 C869 1.399 . S
C869 H855 0.929 . S
C869 C868 1.399 . S
C869 C870 1.385 . S
C870 H856 0.931 . S
C870 C869 1.385 . S
C870 C871 1.389 . S
C871 C870 1.389 . S
C871 C872 1.387 . S
C872 H857 0.930 . S
C872 C867 1.390 . S
C872 C871 1.387 . S
H873 C885 0.930 . S
H874 C887 0.930 . S
H875 C888 0.930 . S
H876 C892 0.959 . S
H877 C892 0.959 . S
H878 C892 0.961 . S
H879 C893 0.960 1_455 S
H880 C893 0.961 . S
H881 C893 0.959 . S
H882 C896 0.929 . S
H883 C897 0.931 . S
H884 C899 0.930 . S
C885 H873 0.930 . S
C885 C886 1.399 . S
C885 C890 1.399 . S
C886 C885 1.399 . S
C886 C887 1.376 . S
C887 H874 0.930 . S
C887 C886 1.376 . S
C887 C888 1.388 . S
C888 H875 0.930 . S
C888 C887 1.388 . S
C888 C889 1.390 . S
C889 C888 1.390 . S
C889 C890 1.394 . S
C889 C895 1.465 1_455 S
C890 C885 1.399 . S
C890 C889 1.394 . S
C890 C891 1.516 . S
C891 C890 1.516 . S
C891 C892 1.502 . S
C891 C893 1.561 1_455 S
C891 C894 1.526 1_455 S
C892 H876 0.959 . S
C892 H877 0.959 . S
C892 H878 0.961 . S
C892 C891 1.502 . S
C893 H879 0.960 1_655 S
C893 H880 0.961 . S
C893 H881 0.959 . S
C893 C891 1.561 1_655 S
C894 C891 1.526 1_655 S
C894 C895 1.396 . S
C894 C899 1.390 . S
C895 C889 1.465 1_655 S
C895 C894 1.396 . S
C895 C896 1.399 . S
C896 H882 0.929 . S
C896 C895 1.399 . S
C896 C897 1.385 . S
C897 H883 0.931 . S
C897 C896 1.385 . S
C897 C898 1.389 . S
C898 C897 1.389 . S
C898 C899 1.387 . S
C899 H884 0.930 . S
C899 C894 1.390 . S
C899 C898 1.387 . S
H900 C912 0.930 . S
H901 C914 0.930 . S
H902 C915 0.930 . S
H903 C919 0.959 . S
H904 C919 0.959 . S
H905 C919 0.961 . S
H906 C920 0.960 . S
H907 C920 0.952 1_545 S
H908 C920 0.959 . S
H909 C923 0.929 . S
H910 C924 0.931 . S
H911 C926 0.930 . S
C912 H900 0.930 . S
C912 C913 1.399 . S
C912 C917 1.399 . S
C913 C912 1.399 . S
C913 C914 1.376 . S
C914 H901 0.930 . S
C914 C913 1.376 . S
C914 C915 1.388 . S
C915 H902 0.930 . S
C915 C914 1.388 . S
C915 C916 1.390 . S
C916 C915 1.390 . S
C916 C917 1.394 . S
C916 C922 1.465 1_565 S
C917 C912 1.399 . S
C917 C916 1.394 . S
C917 C918 1.516 1_565 S
C918 C917 1.516 1_545 S
C918 C919 1.502 . S
C918 C920 1.561 1_545 S
C918 C921 1.526 . S
C919 H903 0.959 . S
C919 H904 0.959 . S
C919 H905 0.961 . S
C919 C918 1.502 . S
C920 H906 0.960 . S
C920 H907 0.952 1_565 S
C920 H908 0.959 . S
C920 C918 1.561 1_565 S
C921 C918 1.526 . S
C921 C922 1.396 . S
C921 C926 1.390 . S
C922 C916 1.465 1_545 S
C922 C921 1.396 . S
C922 C923 1.399 . S
C923 H909 0.929 . S
C923 C922 1.399 . S
C923 C924 1.385 . S
C924 H910 0.931 . S
C924 C923 1.385 . S
C924 C925 1.389 . S
C925 C924 1.389 . S
C925 C926 1.387 . S
C926 H911 0.930 . S
C926 C921 1.390 . S
C926 C925 1.387 . S
H927 C939 0.930 . S
H928 C941 0.930 . S
H929 C942 0.930 . S
H930 C946 0.959 . S
H931 C946 0.959 . S
H932 C946 0.961 . S
H933 C947 0.960 . S
H934 C947 0.961 . S
H935 C947 0.959 . S
H936 C950 0.929 . S
H937 C951 0.931 . S
H938 C953 0.930 . S
C939 H927 0.930 . S
C939 C940 1.399 . S
C939 C944 1.399 . S
C940 C939 1.399 . S
C940 C941 1.376 . S
C941 H928 0.930 . S
C941 C940 1.376 . S
C941 C942 1.388 . S
C942 H929 0.930 . S
C942 C941 1.388 . S
C942 C943 1.390 . S
C943 C942 1.390 . S
C943 C944 1.394 . S
C943 C949 1.465 . S
C944 C939 1.399 . S
C944 C943 1.394 . S
C944 C945 1.516 . S
C945 C944 1.516 . S
C945 C946 1.502 . S
C945 C947 1.561 . S
C945 C948 1.526 . S
C946 H930 0.959 . S
C946 H931 0.959 . S
C946 H932 0.961 . S
C946 C945 1.502 . S
C947 H933 0.960 . S
C947 H934 0.961 . S
C947 H935 0.959 . S
C947 C945 1.561 . S
C948 C945 1.526 . S
C948 C949 1.396 . S
C948 C953 1.390 . S
C949 C943 1.465 . S
C949 C948 1.396 . S
C949 C950 1.399 . S
C950 H936 0.929 . S
C950 C949 1.399 . S
C950 C951 1.385 . S
C951 H937 0.931 . S
C951 C950 1.385 . S
C951 C952 1.389 . S
C952 C951 1.389 . S
C952 C953 1.387 . S
C953 H938 0.930 . S
C953 C948 1.390 . S
C953 C952 1.387 . S
H954 C966 0.930 . S
H955 C968 0.930 . S
H956 C969 0.930 . S
H957 C973 0.959 . S
H958 C973 0.959 . S
H959 C973 0.961 . S
H960 C974 0.960 . S
H961 C974 0.961 1_565 S
H962 C974 0.959 . S
H963 C977 0.929 . S
H964 C978 0.931 . S
H965 C980 0.930 . S
C966 H954 0.930 . S
C966 C967 1.399 . S
C966 C971 1.399 . S
C967 C966 1.399 . S
C967 C968 1.376 . S
C968 H955 0.930 . S
C968 C967 1.376 . S
C968 C969 1.388 . S
C969 H956 0.930 . S
C969 C968 1.388 . S
C969 C970 1.390 . S
C970 C969 1.390 . S
C970 C971 1.394 . S
C970 C976 1.465 1_545 S
C971 C966 1.399 . S
C971 C970 1.394 . S
C971 C972 1.516 1_545 S
C972 C971 1.516 1_565 S
C972 C973 1.502 . S
C972 C974 1.561 1_565 S
C972 C975 1.526 . S
C973 H957 0.959 . S
C973 H958 0.959 . S
C973 H959 0.961 . S
C973 C972 1.502 . S
C974 H960 0.960 . S
C974 H961 0.961 1_545 S
C974 H962 0.959 . S
C974 C972 1.561 1_545 S
C975 C972 1.526 . S
C975 C976 1.396 . S
C975 C980 1.390 . S
C976 C970 1.465 1_565 S
C976 C975 1.396 . S
C976 C977 1.399 . S
C977 H963 0.929 . S
C977 C976 1.399 . S
C977 C978 1.385 . S
C978 H964 0.931 . S
C978 C977 1.385 . S
C978 C979 1.389 . S
C979 C978 1.389 . S
C979 C980 1.387 . S
C980 H965 0.930 . S
C980 C975 1.390 . S
C980 C979 1.387 . S
H981 C993 0.930 . S
H982 C995 0.930 . S
H983 C996 0.930 . S
H984 C1000 0.959 . S
H985 C1000 0.959 . S
H986 C1000 0.961 . S
H987 C1001 0.960 . S
H988 C1001 0.961 . S
H989 C1001 0.959 . S
H990 C1004 0.929 . S
H991 C1005 0.931 . S
H992 C1007 0.930 . S
C993 H981 0.930 . S
C993 C994 1.399 . S
C993 C998 1.399 . S
C994 C993 1.399 . S
C994 C995 1.376 . S
C995 H982 0.930 . S
C995 C994 1.376 . S
C995 C996 1.388 . S
C996 H983 0.930 . S
C996 C995 1.388 . S
C996 C997 1.390 . S
C997 C996 1.390 . S
C997 C998 1.394 . S
C997 C1003 1.465 . S
C998 C993 1.399 . S
C998 C997 1.394 . S
C998 C999 1.516 . S
C999 C998 1.516 . S
C999 C1000 1.502 . S
C999 C1001 1.561 . S
C999 C1002 1.526 . S
C1000 H984 0.959 . S
C1000 H985 0.959 . S
C1000 H986 0.961 . S
C1000 C999 1.502 . S
C1001 H987 0.960 . S
C1001 H988 0.961 . S
C1001 H989 0.959 . S
C1001 C999 1.561 . S
C1002 C999 1.526 . S
C1002 C1003 1.396 . S
C1002 C1007 1.390 . S
C1003 C997 1.465 . S
C1003 C1002 1.396 . S
C1003 C1004 1.399 . S
C1004 H990 0.929 . S
C1004 C1003 1.399 . S
C1004 C1005 1.385 . S
C1005 H991 0.931 . S
C1005 C1004 1.385 . S
C1005 C1006 1.389 . S
C1006 C1005 1.389 . S
C1006 C1007 1.387 . S
C1007 H992 0.930 . S
C1007 C1002 1.390 . S
C1007 C1006 1.387 . S
H1008 C1020 0.930 . S
H1009 C1022 0.930 . S
H1010 C1023 0.930 . S
H1011 C1027 0.959 . S
H1012 C1027 0.959 . S
H1013 C1027 0.961 . S
H1014 C1028 0.960 1_655 S
H1015 C1028 0.961 . S
H1016 C1028 0.959 . S
H1017 C1031 0.929 . S
H1018 C1032 0.931 . S
H1019 C1034 0.930 . S
C1020 H1008 0.930 . S
C1020 C1021 1.399 . S
C1020 C1025 1.399 . S
C1021 C1020 1.399 . S
C1021 C1022 1.376 . S
C1022 H1009 0.930 . S
C1022 C1021 1.376 . S
C1022 C1023 1.388 . S
C1023 H1010 0.930 . S
C1023 C1022 1.388 . S
C1023 C1024 1.390 . S
C1024 C1023 1.390 . S
C1024 C1025 1.394 . S
C1024 C1030 1.465 1_655 S
C1025 C1020 1.399 . S
C1025 C1024 1.394 . S
C1025 C1026 1.516 . S
C1026 C1025 1.516 . S
C1026 C1027 1.502 . S
C1026 C1028 1.561 1_655 S
C1026 C1029 1.526 1_655 S
C1027 H1011 0.959 . S
C1027 H1012 0.959 . S
C1027 H1013 0.961 . S
C1027 C1026 1.502 . S
C1028 H1014 0.960 1_455 S
C1028 H1015 0.961 . S
C1028 H1016 0.959 . S
C1028 C1026 1.561 1_455 S
C1029 C1026 1.526 1_455 S
C1029 C1030 1.396 . S
C1029 C1034 1.390 . S
C1030 C1024 1.465 1_455 S
C1030 C1029 1.396 . S
C1030 C1031 1.399 . S
C1031 H1017 0.929 . S
C1031 C1030 1.399 . S
C1031 C1032 1.385 . S
C1032 H1018 0.931 . S
C1032 C1031 1.385 . S
C1032 C1033 1.389 . S
C1033 C1032 1.389 . S
C1033 C1034 1.387 . S
C1034 H1019 0.930 . S
C1034 C1029 1.390 . S
C1034 C1033 1.387 . S
H1035 C1047 0.930 . S
H1036 C1049 0.930 . S
H1037 C1050 0.930 . S
H1038 C1054 0.959 . S
H1039 C1054 0.959 . S
H1040 C1054 0.961 . S
H1041 C1055 0.960 . S
H1042 C1055 0.961 . S
H1043 C1055 0.959 . S
H1044 C1058 0.929 . S
H1045 C1059 0.931 . S
H1046 C1061 0.930 . S
C1047 H1035 0.930 . S
C1047 C1048 1.399 . S
C1047 C1052 1.399 . S
C1048 C1047 1.399 . S
C1048 C1049 1.376 . S
C1049 H1036 0.930 . S
C1049 C1048 1.376 . S
C1049 C1050 1.388 . S
C1050 H1037 0.930 . S
C1050 C1049 1.388 . S
C1050 C1051 1.390 . S
C1051 C1050 1.390 . S
C1051 C1052 1.394 . S
C1051 C1057 1.465 1_655 S
C1052 C1047 1.399 . S
C1052 C1051 1.394 . S
C1052 C1053 1.514 . S
C1053 C1052 1.514 . S
C1053 C1054 1.502 1_655 S
C1053 C1055 1.561 . S
C1053 C1056 1.528 1_655 S
C1054 H1038 0.959 . S
C1054 H1039 0.959 . S
C1054 H1040 0.961 . S
C1054 C1053 1.502 1_455 S
C1055 H1041 0.960 . S
C1055 H1042 0.961 . S
C1055 H1043 0.959 . S
C1055 C1053 1.561 . S
C1056 C1053 1.528 1_455 S
C1056 C1057 1.396 . S
C1056 C1061 1.390 . S
C1057 C1051 1.465 1_455 S
C1057 C1056 1.396 . S
C1057 C1058 1.399 . S
C1058 H1044 0.929 . S
C1058 C1057 1.399 . S
C1058 C1059 1.385 . S
C1059 H1045 0.931 . S
C1059 C1058 1.385 . S
C1059 C1060 1.389 . S
C1060 C1059 1.389 . S
C1060 C1061 1.387 . S
C1061 H1046 0.930 . S
C1061 C1056 1.390 . S
C1061 C1060 1.387 . S
H1062 C1074 0.930 . S
H1063 C1076 0.930 . S
H1064 C1077 0.930 . S
H1065 C1081 0.959 . S
H1066 C1081 0.959 . S
H1067 C1081 0.961 . S
H1068 C1082 0.960 . S
H1069 C1082 0.947 1_565 S
H1070 C1082 0.959 . S
H1071 C1085 0.929 . S
H1072 C1086 0.931 . S
H1073 C1088 0.930 . S
C1074 H1062 0.930 . S
C1074 C1075 1.399 . S
C1074 C1079 1.399 . S
C1075 C1074 1.399 . S
C1075 C1076 1.376 . S
C1076 H1063 0.930 . S
C1076 C1075 1.376 . S
C1076 C1077 1.388 . S
C1077 H1064 0.930 . S
C1077 C1076 1.388 . S
C1077 C1078 1.390 . S
C1078 C1077 1.390 . S
C1078 C1079 1.394 . S
C1078 C1084 1.465 1_545 S
C1079 C1074 1.399 . S
C1079 C1078 1.394 . S
C1079 C1080 1.516 1_545 S
C1080 C1079 1.516 1_565 S
C1080 C1081 1.502 . S
C1080 C1082 1.561 1_565 S
C1080 C1083 1.526 . S
C1081 H1065 0.959 . S
C1081 H1066 0.959 . S
C1081 H1067 0.961 . S
C1081 C1080 1.502 . S
C1082 H1068 0.960 . S
C1082 H1069 0.947 1_545 S
C1082 H1070 0.959 . S
C1082 C1080 1.561 1_545 S
C1083 C1080 1.526 . S
C1083 C1084 1.396 . S
C1083 C1088 1.390 . S
C1084 C1078 1.465 1_565 S
C1084 C1083 1.396 . S
C1084 C1085 1.399 . S
C1085 H1071 0.929 . S
C1085 C1084 1.399 . S
C1085 C1086 1.385 . S
C1086 H1072 0.931 . S
C1086 C1085 1.385 . S
C1086 C1087 1.389 . S
C1087 C1086 1.389 . S
C1087 C1088 1.387 . S
C1088 H1073 0.930 . S
C1088 C1083 1.390 . S
C1088 C1087 1.387 . S
H1089 C1101 0.930 . S
H1090 C1103 0.930 . S
H1091 C1104 0.930 . S
H1092 C1108 0.959 . S
H1093 C1108 0.959 . S
H1094 C1108 0.961 . S
H1095 C1109 0.960 . S
H1096 C1109 0.961 . S
H1097 C1109 0.959 . S
H1098 C1112 0.929 . S
H1099 C1113 0.931 . S
H1100 C1115 0.930 . S
C1101 H1089 0.930 . S
C1101 C1102 1.399 . S
C1101 C1106 1.399 . S
C1102 C1101 1.399 . S
C1102 C1103 1.376 . S
C1103 H1090 0.930 . S
C1103 C1102 1.376 . S
C1103 C1104 1.388 . S
C1104 H1091 0.930 . S
C1104 C1103 1.388 . S
C1104 C1105 1.390 . S
C1105 C1104 1.390 . S
C1105 C1106 1.394 . S
C1105 C1111 1.465 . S
C1106 C1101 1.399 . S
C1106 C1105 1.394 . S
C1106 C1107 1.516 . S
C1107 C1106 1.516 . S
C1107 C1108 1.502 . S
C1107 C1109 1.561 . S
C1107 C1110 1.526 . S
C1108 H1092 0.959 . S
C1108 H1093 0.959 . S
C1108 H1094 0.961 . S
C1108 C1107 1.502 . S
C1109 H1095 0.960 . S
C1109 H1096 0.961 . S
C1109 H1097 0.959 . S
C1109 C1107 1.561 . S
C1110 C1107 1.526 . S
C1110 C1111 1.396 . S
C1110 C1115 1.390 . S
C1111 C1105 1.465 . S
C1111 C1110 1.396 . S
C1111 C1112 1.399 . S
C1112 H1098 0.929 . S
C1112 C1111 1.399 . S
C1112 C1113 1.385 . S
C1113 H1099 0.931 . S
C1113 C1112 1.385 . S
C1113 C1114 1.389 . S
C1114 C1113 1.389 . S
C1114 C1115 1.387 . S
C1115 H1100 0.930 . S
C1115 C1110 1.390 . S
C1115 C1114 1.387 . S
H1116 C1128 0.930 . S
H1117 C1130 0.930 . S
H1118 C1131 0.930 . S
H1119 C1135 0.959 . S
H1120 C1135 0.959 . S
H1121 C1135 0.961 . S
H1122 C1136 0.960 . S
H1123 C1136 0.961 . S
H1124 C1136 0.959 . S
H1125 C1139 0.929 . S
H1126 C1140 0.931 . S
H1127 C1142 0.930 . S
C1128 H1116 0.930 . S
C1128 C1129 1.399 . S
C1128 C1133 1.399 . S
C1129 C1128 1.399 . S
C1129 C1130 1.376 . S
C1130 H1117 0.930 . S
C1130 C1129 1.376 . S
C1130 C1131 1.388 . S
C1131 H1118 0.930 . S
C1131 C1130 1.388 . S
C1131 C1132 1.390 . S
C1132 C1131 1.390 . S
C1132 C1133 1.394 . S
C1132 C1138 1.465 . S
C1133 C1128 1.399 . S
C1133 C1132 1.394 . S
C1133 C1134 1.516 . S
C1134 C1133 1.516 . S
C1134 C1135 1.502 . S
C1134 C1136 1.561 . S
C1134 C1137 1.526 . S
C1135 H1119 0.959 . S
C1135 H1120 0.959 . S
C1135 H1121 0.961 . S
C1135 C1134 1.502 . S
C1136 H1122 0.960 . S
C1136 H1123 0.961 . S
C1136 H1124 0.959 . S
C1136 C1134 1.561 . S
C1137 C1134 1.526 . S
C1137 C1138 1.396 . S
C1137 C1142 1.390 . S
C1138 C1132 1.465 . S
C1138 C1137 1.396 . S
C1138 C1139 1.399 . S
C1139 H1125 0.929 . S
C1139 C1138 1.399 . S
C1139 C1140 1.385 . S
C1140 H1126 0.931 . S
C1140 C1139 1.385 . S
C1140 C1141 1.389 . S
C1141 C1140 1.389 . S
C1141 C1142 1.387 . S
C1142 H1127 0.930 . S
C1142 C1137 1.390 . S
C1142 C1141 1.387 . S
H1143 C1155 0.930 . S
H1144 C1157 0.930 . S
H1145 C1158 0.930 . S
H1146 C1162 0.959 . S
H1147 C1162 0.959 . S
H1148 C1162 0.961 . S
H1149 C1163 0.960 . S
H1150 C1163 0.961 . S
H1151 C1163 0.959 . S
H1152 C1166 0.929 . S
H1153 C1167 0.931 . S
H1154 C1169 0.930 . S
C1155 H1143 0.930 . S
C1155 C1156 1.399 . S
C1155 C1160 1.399 . S
C1156 C1155 1.399 . S
C1156 C1157 1.376 . S
C1157 H1144 0.930 . S
C1157 C1156 1.376 . S
C1157 C1158 1.388 . S
C1158 H1145 0.930 . S
C1158 C1157 1.388 . S
C1158 C1159 1.390 . S
C1159 C1158 1.390 . S
C1159 C1160 1.394 . S
C1159 C1165 1.465 . S
C1160 C1155 1.399 . S
C1160 C1159 1.394 . S
C1160 C1161 1.516 . S
C1161 C1160 1.516 . S
C1161 C1162 1.502 . S
C1161 C1163 1.561 . S
C1161 C1164 1.526 . S
C1162 H1146 0.959 . S
C1162 H1147 0.959 . S
C1162 H1148 0.961 . S
C1162 C1161 1.502 . S
C1163 H1149 0.960 . S
C1163 H1150 0.961 . S
C1163 H1151 0.959 . S
C1163 C1161 1.561 . S
C1164 C1161 1.526 . S
C1164 C1165 1.396 . S
C1164 C1169 1.390 . S
C1165 C1159 1.465 . S
C1165 C1164 1.396 . S
C1165 C1166 1.399 . S
C1166 H1152 0.929 . S
C1166 C1165 1.399 . S
C1166 C1167 1.385 . S
C1167 H1153 0.931 . S
C1167 C1166 1.385 . S
C1167 C1168 1.389 . S
C1168 C1167 1.389 . S
C1168 C1169 1.387 . S
C1169 H1154 0.930 . S
C1169 C1164 1.390 . S
C1169 C1168 1.387 . S
H1170 C1182 0.930 . S
H1171 C1184 0.930 . S
H1172 C1185 0.930 . S
H1173 C1189 0.959 . S
H1174 C1189 0.959 . S
H1175 C1189 0.961 . S
H1176 C1190 0.960 . S
H1177 C1190 0.961 . S
H1178 C1190 0.959 . S
H1179 C1193 0.929 . S
H1180 C1194 0.931 . S
H1181 C1196 0.930 . S
C1182 H1170 0.930 . S
C1182 C1183 1.399 . S
C1182 C1187 1.399 . S
C1183 C1182 1.399 . S
C1183 C1184 1.376 . S
C1184 H1171 0.930 . S
C1184 C1183 1.376 . S
C1184 C1185 1.388 . S
C1185 H1172 0.930 . S
C1185 C1184 1.388 . S
C1185 C1186 1.390 . S
C1186 C1185 1.390 . S
C1186 C1187 1.394 . S
C1186 C1192 1.465 . S
C1187 C1182 1.399 . S
C1187 C1186 1.394 . S
C1187 C1188 1.516 . S
C1188 C1187 1.516 . S
C1188 C1189 1.502 . S
C1188 C1190 1.561 . S
C1188 C1191 1.526 . S
C1189 H1173 0.959 . S
C1189 H1174 0.959 . S
C1189 H1175 0.961 . S
C1189 C1188 1.502 . S
C1190 H1176 0.960 . S
C1190 H1177 0.961 . S
C1190 H1178 0.959 . S
C1190 C1188 1.561 . S
C1191 C1188 1.526 . S
C1191 C1192 1.396 . S
C1191 C1196 1.390 . S
C1192 C1186 1.465 . S
C1192 C1191 1.396 . S
C1192 C1193 1.399 . S
C1193 H1179 0.929 . S
C1193 C1192 1.399 . S
C1193 C1194 1.385 . S
C1194 H1180 0.931 . S
C1194 C1193 1.385 . S
C1194 C1195 1.389 . S
C1195 C1194 1.389 . S
C1195 C1196 1.387 . S
C1196 H1181 0.930 . S
C1196 C1191 1.390 . S
C1196 C1195 1.387 . S
H1197 C1209 0.930 . S
H1198 C1211 0.930 . S
H1199 C1212 0.930 . S
H1200 C1216 0.959 . S
H1201 C1216 0.959 . S
H1202 C1216 0.961 . S
H1203 C1217 0.960 . S
H1204 C1217 0.961 . S
H1205 C1217 0.959 . S
H1206 C1220 0.929 . S
H1207 C1221 0.931 . S
H1208 C1223 0.930 . S
C1209 H1197 0.930 . S
C1209 C1210 1.399 . S
C1209 C1214 1.399 . S
C1210 C1209 1.399 . S
C1210 C1211 1.376 . S
C1211 H1198 0.930 . S
C1211 C1210 1.376 . S
C1211 C1212 1.388 . S
C1212 H1199 0.930 . S
C1212 C1211 1.388 . S
C1212 C1213 1.390 . S
C1213 C1212 1.390 . S
C1213 C1214 1.394 . S
C1213 C1219 1.465 . S
C1214 C1209 1.399 . S
C1214 C1213 1.394 . S
C1214 C1215 1.516 . S
C1215 C1214 1.516 . S
C1215 C1216 1.502 . S
C1215 C1217 1.561 . S
C1215 C1218 1.526 . S
C1216 H1200 0.959 . S
C1216 H1201 0.959 . S
C1216 H1202 0.961 . S
C1216 C1215 1.502 . S
C1217 H1203 0.960 . S
C1217 H1204 0.961 . S
C1217 H1205 0.959 . S
C1217 C1215 1.561 . S
C1218 C1215 1.526 . S
C1218 C1219 1.396 . S
C1218 C1223 1.390 . S
C1219 C1213 1.465 . S
C1219 C1218 1.396 . S
C1219 C1220 1.399 . S
C1220 H1206 0.929 . S
C1220 C1219 1.399 . S
C1220 C1221 1.385 . S
C1221 H1207 0.931 . S
C1221 C1220 1.385 . S
C1221 C1222 1.389 . S
C1222 C1221 1.389 . S
C1222 C1223 1.387 . S
C1223 H1208 0.930 . S
C1223 C1218 1.390 . S
C1223 C1222 1.387 . S
H1224 C1236 0.930 . S
H1225 C1238 0.930 . S
H1226 C1239 0.930 . S
H1227 C1243 0.959 . S
H1228 C1243 0.959 . S
H1229 C1243 0.961 . S
H1230 C1244 0.960 . S
H1231 C1244 0.961 . S
H1232 C1244 0.959 . S
H1233 C1247 0.929 . S
H1234 C1248 0.931 . S
H1235 C1250 0.930 . S
C1236 H1224 0.930 . S
C1236 C1237 1.399 . S
C1236 C1241 1.399 . S
C1237 C1236 1.399 . S
C1237 C1238 1.376 . S
C1238 H1225 0.930 . S
C1238 C1237 1.376 . S
C1238 C1239 1.388 . S
C1239 H1226 0.930 . S
C1239 C1238 1.388 . S
C1239 C1240 1.390 . S
C1240 C1239 1.390 . S
C1240 C1241 1.394 . S
C1240 C1246 1.465 . S
C1241 C1236 1.399 . S
C1241 C1240 1.394 . S
C1241 C1242 1.516 . S
C1242 C1241 1.516 . S
C1242 C1243 1.502 . S
C1242 C1244 1.561 . S
C1242 C1245 1.526 . S
C1243 H1227 0.959 . S
C1243 H1228 0.959 . S
C1243 H1229 0.961 . S
C1243 C1242 1.502 . S
C1244 H1230 0.960 . S
C1244 H1231 0.961 . S
C1244 H1232 0.959 . S
C1244 C1242 1.561 . S
C1245 C1242 1.526 . S
C1245 C1246 1.396 . S
C1245 C1250 1.390 . S
C1246 C1240 1.465 . S
C1246 C1245 1.396 . S
C1246 C1247 1.399 . S
C1247 H1233 0.929 . S
C1247 C1246 1.399 . S
C1247 C1248 1.385 . S
C1248 H1234 0.931 . S
C1248 C1247 1.385 . S
C1248 C1249 1.389 . S
C1249 C1248 1.389 . S
C1249 C1250 1.387 . S
C1250 H1235 0.930 . S
C1250 C1245 1.390 . S
C1250 C1249 1.387 . S
H1251 C1263 0.930 . S
H1252 C1265 0.930 . S
H1253 C1266 0.930 . S
H1254 C1270 0.959 . S
H1255 C1270 0.959 . S
H1256 C1270 0.961 . S
H1257 C1271 0.960 . S
H1258 C1271 0.961 . S
H1259 C1271 0.959 . S
H1260 C1274 0.929 . S
H1261 C1275 0.931 . S
H1262 C1277 0.930 . S
C1263 H1251 0.930 . S
C1263 C1264 1.399 . S
C1263 C1268 1.399 . S
C1264 C1263 1.399 . S
C1264 C1265 1.376 . S
C1265 H1252 0.930 . S
C1265 C1264 1.376 . S
C1265 C1266 1.388 . S
C1266 H1253 0.930 . S
C1266 C1265 1.388 . S
C1266 C1267 1.390 . S
C1267 C1266 1.390 . S
C1267 C1268 1.394 . S
C1267 C1273 1.465 . S
C1268 C1263 1.399 . S
C1268 C1267 1.394 . S
C1268 C1269 1.516 . S
C1269 C1268 1.516 . S
C1269 C1270 1.502 . S
C1269 C1271 1.561 . S
C1269 C1272 1.526 . S
C1270 H1254 0.959 . S
C1270 H1255 0.959 . S
C1270 H1256 0.961 . S
C1270 C1269 1.502 . S
C1271 H1257 0.960 . S
C1271 H1258 0.961 . S
C1271 H1259 0.959 . S
C1271 C1269 1.561 . S
C1272 C1269 1.526 . S
C1272 C1273 1.396 . S
C1272 C1277 1.390 . S
C1273 C1267 1.465 . S
C1273 C1272 1.396 . S
C1273 C1274 1.399 . S
C1274 H1260 0.929 . S
C1274 C1273 1.399 . S
C1274 C1275 1.385 . S
C1275 H1261 0.931 . S
C1275 C1274 1.385 . S
C1275 C1276 1.389 . S
C1276 C1275 1.389 . S
C1276 C1277 1.387 . S
C1277 H1262 0.930 . S
C1277 C1272 1.390 . S
C1277 C1276 1.387 . S
H1278 C1290 0.930 . S
H1279 C1292 0.930 . S
H1280 C1293 0.930 . S
H1281 C1297 0.959 . S
H1282 C1297 0.959 . S
H1283 C1297 0.961 . S
H1284 C1298 0.960 . S
H1285 C1298 0.961 . S
H1286 C1298 0.959 . S
H1287 C1301 0.929 . S
H1288 C1302 0.931 . S
H1289 C1304 0.930 . S
C1290 H1278 0.930 . S
C1290 C1291 1.399 . S
C1290 C1295 1.399 . S
C1291 C1290 1.399 . S
C1291 C1292 1.376 . S
C1292 H1279 0.930 . S
C1292 C1291 1.376 . S
C1292 C1293 1.388 . S
C1293 H1280 0.930 . S
C1293 C1292 1.388 . S
C1293 C1294 1.390 . S
C1294 C1293 1.390 . S
C1294 C1295 1.394 . S
C1294 C1300 1.465 . S
C1295 C1290 1.399 . S
C1295 C1294 1.394 . S
C1295 C1296 1.516 . S
C1296 C1295 1.516 . S
C1296 C1297 1.502 . S
C1296 C1298 1.561 . S
C1296 C1299 1.526 . S
C1297 H1281 0.959 . S
C1297 H1282 0.959 . S
C1297 H1283 0.961 . S
C1297 C1296 1.502 . S
C1298 H1284 0.960 . S
C1298 H1285 0.961 . S
C1298 H1286 0.959 . S
C1298 C1296 1.561 . S
C1299 C1296 1.526 . S
C1299 C1300 1.396 . S
C1299 C1304 1.390 . S
C1300 C1294 1.465 . S
C1300 C1299 1.396 . S
C1300 C1301 1.399 . S
C1301 H1287 0.929 . S
C1301 C1300 1.399 . S
C1301 C1302 1.385 . S
C1302 H1288 0.931 . S
C1302 C1301 1.385 . S
C1302 C1303 1.389 . S
C1303 C1302 1.389 . S
C1303 C1304 1.387 . S
C1304 H1289 0.930 . S
C1304 C1299 1.390 . S
C1304 C1303 1.387 . S
H1305 C1317 0.930 . S
H1306 C1319 0.930 . S
H1307 C1320 0.930 . S
H1308 C1324 0.959 . S
H1309 C1324 0.959 . S
H1310 C1324 0.961 . S
H1311 C1325 0.960 . S
H1312 C1325 0.961 . S
H1313 C1325 0.959 . S
H1314 C1328 0.929 . S
H1315 C1329 0.931 . S
H1316 C1331 0.930 . S
C1317 H1305 0.930 . S
C1317 C1318 1.399 . S
C1317 C1322 1.399 . S
C1318 C1317 1.399 . S
C1318 C1319 1.376 . S
C1319 H1306 0.930 . S
C1319 C1318 1.376 . S
C1319 C1320 1.388 . S
C1320 H1307 0.930 . S
C1320 C1319 1.388 . S
C1320 C1321 1.390 . S
C1321 C1320 1.390 . S
C1321 C1322 1.394 . S
C1321 C1327 1.465 . S
C1322 C1317 1.399 . S
C1322 C1321 1.394 . S
C1322 C1323 1.516 . S
C1323 C1322 1.516 . S
C1323 C1324 1.502 . S
C1323 C1325 1.561 . S
C1323 C1326 1.526 . S
C1324 H1308 0.959 . S
C1324 H1309 0.959 . S
C1324 H1310 0.961 . S
C1324 C1323 1.502 . S
C1325 H1311 0.960 . S
C1325 H1312 0.961 . S
C1325 H1313 0.959 . S
C1325 C1323 1.561 . S
C1326 C1323 1.526 . S
C1326 C1327 1.396 . S
C1326 C1331 1.390 . S
C1327 C1321 1.465 . S
C1327 C1326 1.396 . S
C1327 C1328 1.399 . S
C1328 H1314 0.929 . S
C1328 C1327 1.399 . S
C1328 C1329 1.385 . S
C1329 H1315 0.931 . S
C1329 C1328 1.385 . S
C1329 C1330 1.389 . S
C1330 C1329 1.389 . S
C1330 C1331 1.387 . S
C1331 H1316 0.930 . S
C1331 C1326 1.390 . S
C1331 C1330 1.387 . S
H1332 C1344 0.930 . S
H1333 C1346 0.930 . S
H1334 C1347 0.930 . S
H1335 C1351 0.959 . S
H1336 C1351 0.959 . S
H1337 C1351 0.961 . S
H1338 C1352 0.960 . S
H1339 C1352 0.961 . S
H1340 C1352 0.959 . S
H1341 C1355 0.929 . S
H1342 C1356 0.931 . S
H1343 C1358 0.930 . S
C1344 H1332 0.930 . S
C1344 C1345 1.399 . S
C1344 C1349 1.399 . S
C1345 C1344 1.399 . S
C1345 C1346 1.376 . S
C1346 H1333 0.930 . S
C1346 C1345 1.376 . S
C1346 C1347 1.388 . S
C1347 H1334 0.930 . S
C1347 C1346 1.388 . S
C1347 C1348 1.390 . S
C1348 C1347 1.390 . S
C1348 C1349 1.394 . S
C1348 C1354 1.465 . S
C1349 C1344 1.399 . S
C1349 C1348 1.394 . S
C1349 C1350 1.516 . S
C1350 C1349 1.516 . S
C1350 C1351 1.502 . S
C1350 C1352 1.561 . S
C1350 C1353 1.526 . S
C1351 H1335 0.959 . S
C1351 H1336 0.959 . S
C1351 H1337 0.961 . S
C1351 C1350 1.502 . S
C1352 H1338 0.960 . S
C1352 H1339 0.961 . S
C1352 H1340 0.959 . S
C1352 C1350 1.561 . S
C1353 C1350 1.526 . S
C1353 C1354 1.396 . S
C1353 C1358 1.390 . S
C1354 C1348 1.465 . S
C1354 C1353 1.396 . S
C1354 C1355 1.399 . S
C1355 H1341 0.929 . S
C1355 C1354 1.399 . S
C1355 C1356 1.385 . S
C1356 H1342 0.931 . S
C1356 C1355 1.385 . S
C1356 C1357 1.389 . S
C1357 C1356 1.389 . S
C1357 C1358 1.387 . S
C1358 H1343 0.930 . S
C1358 C1353 1.390 . S
C1358 C1357 1.387 . S
H1359 C1371 0.930 . S
H1360 C1373 0.930 . S
H1361 C1374 0.930 . S
H1362 C1378 0.959 . S
H1363 C1378 0.959 . S
H1364 C1378 0.961 . S
H1365 C1379 0.960 . S
H1366 C1379 0.961 . S
H1367 C1379 0.959 . S
H1368 C1382 0.929 . S
H1369 C1383 0.931 . S
H1370 C1385 0.930 . S
C1371 H1359 0.930 . S
C1371 C1372 1.399 . S
C1371 C1376 1.399 . S
C1372 C1371 1.399 . S
C1372 C1373 1.376 . S
C1373 H1360 0.930 . S
C1373 C1372 1.376 . S
C1373 C1374 1.388 . S
C1374 H1361 0.930 . S
C1374 C1373 1.388 . S
C1374 C1375 1.390 . S
C1375 C1374 1.390 . S
C1375 C1376 1.394 . S
C1375 C1381 1.465 . S
C1376 C1371 1.399 . S
C1376 C1375 1.394 . S
C1376 C1377 1.516 . S
C1377 C1376 1.516 . S
C1377 C1378 1.502 . S
C1377 C1379 1.561 . S
C1377 C1380 1.526 . S
C1378 H1362 0.959 . S
C1378 H1363 0.959 . S
C1378 H1364 0.961 . S
C1378 C1377 1.502 . S
C1379 H1365 0.960 . S
C1379 H1366 0.961 . S
C1379 H1367 0.959 . S
C1379 C1377 1.561 . S
C1380 C1377 1.526 . S
C1380 C1381 1.396 . S
C1380 C1385 1.390 . S
C1381 C1375 1.465 . S
C1381 C1380 1.396 . S
C1381 C1382 1.399 . S
C1382 H1368 0.929 . S
C1382 C1381 1.399 . S
C1382 C1383 1.385 . S
C1383 H1369 0.931 . S
C1383 C1382 1.385 . S
C1383 C1384 1.389 . S
C1384 C1383 1.389 . S
C1384 C1385 1.387 . S
C1385 H1370 0.930 . S
C1385 C1380 1.390 . S
C1385 C1384 1.387 . S
H1386 C1398 0.930 . S
H1387 C1400 0.930 . S
H1388 C1401 0.930 . S
H1389 C1405 0.959 . S
H1390 C1405 0.959 . S
H1391 C1405 0.961 . S
H1392 C1406 0.960 . S
H1393 C1406 0.961 . S
H1394 C1406 0.959 . S
H1395 C1409 0.929 . S
H1396 C1410 0.931 . S
H1397 C1412 0.930 . S
C1398 H1386 0.930 . S
C1398 C1399 1.399 . S
C1398 C1403 1.399 . S
C1399 C1398 1.399 . S
C1399 C1400 1.376 . S
C1400 H1387 0.930 . S
C1400 C1399 1.376 . S
C1400 C1401 1.388 . S
C1401 H1388 0.930 . S
C1401 C1400 1.388 . S
C1401 C1402 1.390 . S
C1402 C1401 1.390 . S
C1402 C1403 1.394 . S
C1402 C1408 1.465 . S
C1403 C1398 1.399 . S
C1403 C1402 1.394 . S
C1403 C1404 1.516 . S
C1404 C1403 1.516 . S
C1404 C1405 1.502 . S
C1404 C1406 1.561 . S
C1404 C1407 1.526 . S
C1405 H1389 0.959 . S
C1405 H1390 0.959 . S
C1405 H1391 0.961 . S
C1405 C1404 1.502 . S
C1406 H1392 0.960 . S
C1406 H1393 0.961 . S
C1406 H1394 0.959 . S
C1406 C1404 1.561 . S
C1407 C1404 1.526 . S
C1407 C1408 1.396 . S
C1407 C1412 1.390 . S
C1408 C1402 1.465 . S
C1408 C1407 1.396 . S
C1408 C1409 1.399 . S
C1409 H1395 0.929 . S
C1409 C1408 1.399 . S
C1409 C1410 1.385 . S
C1410 H1396 0.931 . S
C1410 C1409 1.385 . S
C1410 C1411 1.389 . S
C1411 C1410 1.389 . S
C1411 C1412 1.387 . S
C1412 H1397 0.930 . S
C1412 C1407 1.390 . S
C1412 C1411 1.387 . S
H1413 C1425 0.930 . S
H1414 C1427 0.930 . S
H1415 C1428 0.930 . S
H1416 C1432 0.959 . S
H1417 C1432 0.959 . S
H1418 C1432 0.961 . S
H1419 C1433 0.960 . S
H1420 C1433 0.961 . S
H1421 C1433 0.959 . S
H1422 C1436 0.929 . S
H1423 C1437 0.931 . S
H1424 C1439 0.930 . S
C1425 H1413 0.930 . S
C1425 C1426 1.399 . S
C1425 C1430 1.399 . S
C1426 C1425 1.399 . S
C1426 C1427 1.376 . S
C1427 H1414 0.930 . S
C1427 C1426 1.376 . S
C1427 C1428 1.388 . S
C1428 H1415 0.930 . S
C1428 C1427 1.388 . S
C1428 C1429 1.390 . S
C1429 C1428 1.390 . S
C1429 C1430 1.394 . S
C1429 C1435 1.465 . S
C1430 C1425 1.399 . S
C1430 C1429 1.394 . S
C1430 C1431 1.516 . S
C1431 C1430 1.516 . S
C1431 C1432 1.502 . S
C1431 C1433 1.561 . S
C1431 C1434 1.526 . S
C1432 H1416 0.959 . S
C1432 H1417 0.959 . S
C1432 H1418 0.961 . S
C1432 C1431 1.502 . S
C1433 H1419 0.960 . S
C1433 H1420 0.961 . S
C1433 H1421 0.959 . S
C1433 C1431 1.561 . S
C1434 C1431 1.526 . S
C1434 C1435 1.396 . S
C1434 C1439 1.390 . S
C1435 C1429 1.465 . S
C1435 C1434 1.396 . S
C1435 C1436 1.399 . S
C1436 H1422 0.929 . S
C1436 C1435 1.399 . S
C1436 C1437 1.385 . S
C1437 H1423 0.931 . S
C1437 C1436 1.385 . S
C1437 C1438 1.389 . S
C1438 C1437 1.389 . S
C1438 C1439 1.387 . S
C1439 H1424 0.930 . S
C1439 C1434 1.390 . S
C1439 C1438 1.387 . S
H1440 C1452 0.930 . S
H1441 C1454 0.930 . S
H1442 C1455 0.930 . S
H1443 C1459 0.959 . S
H1444 C1459 0.959 . S
H1445 C1459 0.961 . S
H1446 C1460 0.960 . S
H1447 C1460 0.961 . S
H1448 C1460 0.959 . S
H1449 C1463 0.929 1_545 S
H1450 C1464 0.931 . S
H1451 C1466 0.930 . S
C1452 H1440 0.930 . S
C1452 C1453 1.399 . S
C1452 C1457 1.399 . S
C1453 C1452 1.399 . S
C1453 C1454 1.376 . S
C1454 H1441 0.930 . S
C1454 C1453 1.376 . S
C1454 C1455 1.388 . S
C1455 H1442 0.930 . S
C1455 C1454 1.388 . S
C1455 C1456 1.390 . S
C1456 C1455 1.390 . S
C1456 C1457 1.394 . S
C1456 C1462 1.465 1_545 S
C1457 C1452 1.399 . S
C1457 C1456 1.394 . S
C1457 C1458 1.516 1_545 S
C1458 C1457 1.516 1_565 S
C1458 C1459 1.502 . S
C1458 C1460 1.561 . S
C1458 C1461 1.526 . S
C1459 H1443 0.959 . S
C1459 H1444 0.959 . S
C1459 H1445 0.961 . S
C1459 C1458 1.502 . S
C1460 H1446 0.960 . S
C1460 H1447 0.961 . S
C1460 H1448 0.959 . S
C1460 C1458 1.561 . S
C1461 C1458 1.526 . S
C1461 C1462 1.396 . S
C1461 C1466 1.390 . S
C1462 C1456 1.465 1_565 S
C1462 C1461 1.396 . S
C1462 C1463 1.399 . S
C1463 H1449 0.929 1_565 S
C1463 C1462 1.399 . S
C1463 C1464 1.385 . S
C1464 H1450 0.931 . S
C1464 C1463 1.385 . S
C1464 C1465 1.389 . S
C1465 C1464 1.389 . S
C1465 C1466 1.387 . S
C1466 H1451 0.930 . S
C1466 C1461 1.390 . S
C1466 C1465 1.387 . S
H1467 C1479 0.930 . S
H1468 C1481 0.930 . S
H1469 C1482 0.930 . S
H1470 C1486 0.959 . S
H1471 C1486 0.959 . S
H1472 C1486 0.961 . S
H1473 C1487 0.960 . S
H1474 C1487 0.961 . S
H1475 C1487 0.959 . S
H1476 C1490 0.929 . S
H1477 C1491 0.931 . S
H1478 C1493 0.930 . S
C1479 H1467 0.930 . S
C1479 C1480 1.399 . S
C1479 C1484 1.399 . S
C1480 C1479 1.399 . S
C1480 C1481 1.376 . S
C1481 H1468 0.930 . S
C1481 C1480 1.376 . S
C1481 C1482 1.388 . S
C1482 H1469 0.930 . S
C1482 C1481 1.388 . S
C1482 C1483 1.390 . S
C1483 C1482 1.390 . S
C1483 C1484 1.394 . S
C1483 C1489 1.465 . S
C1484 C1479 1.399 . S
C1484 C1483 1.394 . S
C1484 C1485 1.516 . S
C1485 C1484 1.516 . S
C1485 C1486 1.502 . S
C1485 C1487 1.561 . S
C1485 C1488 1.526 . S
C1486 H1470 0.959 . S
C1486 H1471 0.959 . S
C1486 H1472 0.961 . S
C1486 C1485 1.502 . S
C1487 H1473 0.960 . S
C1487 H1474 0.961 . S
C1487 H1475 0.959 . S
C1487 C1485 1.561 . S
C1488 C1485 1.526 . S
C1488 C1489 1.396 . S
C1488 C1493 1.390 . S
C1489 C1483 1.465 . S
C1489 C1488 1.396 . S
C1489 C1490 1.399 . S
C1490 H1476 0.929 . S
C1490 C1489 1.399 . S
C1490 C1491 1.385 . S
C1491 H1477 0.931 . S
C1491 C1490 1.385 . S
C1491 C1492 1.389 . S
C1492 C1491 1.389 . S
C1492 C1493 1.387 . S
C1493 H1478 0.930 . S
C1493 C1488 1.390 . S
C1493 C1492 1.387 . S
H1494 C1506 0.930 . S
H1495 C1508 0.930 . S
H1496 C1509 0.930 . S
H1497 C1513 0.959 . S
H1498 C1513 0.959 . S
H1499 C1513 0.961 1_455 S
H1500 C1514 0.960 . S
H1501 C1514 0.961 . S
H1502 C1514 0.959 . S
H1503 C1517 0.929 . S
H1504 C1518 0.931 . S
H1505 C1520 0.930 . S
C1506 H1494 0.930 . S
C1506 C1507 1.399 . S
C1506 C1511 1.399 . S
C1507 C1506 1.399 . S
C1507 C1508 1.376 . S
C1508 H1495 0.930 . S
C1508 C1507 1.376 . S
C1508 C1509 1.388 . S
C1509 H1496 0.930 . S
C1509 C1508 1.388 . S
C1509 C1510 1.390 . S
C1510 C1509 1.390 . S
C1510 C1511 1.394 . S
C1510 C1516 1.465 1_455 S
C1511 C1506 1.399 . S
C1511 C1510 1.394 . S
C1511 C1512 1.516 . S
C1512 C1511 1.516 . S
C1512 C1513 1.502 1_455 S
C1512 C1514 1.561 . S
C1512 C1515 1.526 1_455 S
C1513 H1497 0.959 . S
C1513 H1498 0.959 . S
C1513 H1499 0.961 1_655 S
C1513 C1512 1.502 1_655 S
C1514 H1500 0.960 . S
C1514 H1501 0.961 . S
C1514 H1502 0.959 . S
C1514 C1512 1.561 . S
C1515 C1512 1.526 1_655 S
C1515 C1516 1.396 . S
C1515 C1520 1.390 . S
C1516 C1510 1.465 1_655 S
C1516 C1515 1.396 . S
C1516 C1517 1.399 . S
C1517 H1503 0.929 . S
C1517 C1516 1.399 . S
C1517 C1518 1.385 . S
C1518 H1504 0.931 . S
C1518 C1517 1.385 . S
C1518 C1519 1.389 . S
C1519 C1518 1.389 . S
C1519 C1520 1.387 . S
C1520 H1505 0.930 . S
C1520 C1515 1.390 . S
C1520 C1519 1.387 . S
H1521 C1533 0.930 . S
H1522 C1535 0.930 . S
H1523 C1536 0.930 . S
H1524 C1540 0.959 . S
H1525 C1540 0.959 . S
H1526 C1540 0.961 . S
H1527 C1541 0.960 . S
H1528 C1541 0.961 . S
H1529 C1541 0.959 . S
H1530 C1544 0.929 1_565 S
H1531 C1545 0.931 . S
H1532 C1547 0.930 . S
C1533 H1521 0.930 . S
C1533 C1534 1.399 . S
C1533 C1538 1.399 . S
C1534 C1533 1.399 . S
C1534 C1535 1.376 . S
C1535 H1522 0.930 . S
C1535 C1534 1.376 . S
C1535 C1536 1.388 . S
C1536 H1523 0.930 . S
C1536 C1535 1.388 . S
C1536 C1537 1.390 . S
C1537 C1536 1.390 . S
C1537 C1538 1.394 . S
C1537 C1543 1.465 1_565 S
C1538 C1533 1.399 . S
C1538 C1537 1.394 . S
C1538 C1539 1.516 1_565 S
C1539 C1538 1.516 1_545 S
C1539 C1540 1.502 . S
C1539 C1541 1.561 . S
C1539 C1542 1.526 . S
C1540 H1524 0.959 . S
C1540 H1525 0.959 . S
C1540 H1526 0.961 . S
C1540 C1539 1.502 . S
C1541 H1527 0.960 . S
C1541 H1528 0.961 . S
C1541 H1529 0.959 . S
C1541 C1539 1.561 . S
C1542 C1539 1.526 . S
C1542 C1543 1.396 . S
C1542 C1547 1.390 . S
C1543 C1537 1.465 1_545 S
C1543 C1542 1.396 . S
C1543 C1544 1.399 . S
C1544 H1530 0.929 1_545 S
C1544 C1543 1.399 . S
C1544 C1545 1.385 . S
C1545 H1531 0.931 . S
C1545 C1544 1.385 . S
C1545 C1546 1.389 . S
C1546 C1545 1.389 . S
C1546 C1547 1.387 . S
C1547 H1532 0.930 . S
C1547 C1542 1.390 . S
C1547 C1546 1.387 . S
H1548 C1560 0.930 . S
H1549 C1562 0.930 . S
H1550 C1563 0.930 . S
H1551 C1567 0.959 . S
H1552 C1567 0.959 . S
H1553 C1567 0.961 . S
H1554 C1568 0.960 . S
H1555 C1568 0.961 . S
H1556 C1568 0.959 . S
H1557 C1571 0.929 . S
H1558 C1572 0.931 . S
H1559 C1574 0.930 . S
C1560 H1548 0.930 . S
C1560 C1561 1.399 . S
C1560 C1565 1.399 . S
C1561 C1560 1.399 . S
C1561 C1562 1.376 . S
C1562 H1549 0.930 . S
C1562 C1561 1.376 . S
C1562 C1563 1.388 . S
C1563 H1550 0.930 . S
C1563 C1562 1.388 . S
C1563 C1564 1.390 . S
C1564 C1563 1.390 . S
C1564 C1565 1.394 . S
C1564 C1570 1.465 . S
C1565 C1560 1.399 . S
C1565 C1564 1.394 . S
C1565 C1566 1.516 . S
C1566 C1565 1.516 . S
C1566 C1567 1.502 . S
C1566 C1568 1.561 . S
C1566 C1569 1.526 . S
C1567 H1551 0.959 . S
C1567 H1552 0.959 . S
C1567 H1553 0.961 . S
C1567 C1566 1.502 . S
C1568 H1554 0.960 . S
C1568 H1555 0.961 . S
C1568 H1556 0.959 . S
C1568 C1566 1.561 . S
C1569 C1566 1.526 . S
C1569 C1570 1.396 . S
C1569 C1574 1.390 . S
C1570 C1564 1.465 . S
C1570 C1569 1.396 . S
C1570 C1571 1.399 . S
C1571 H1557 0.929 . S
C1571 C1570 1.399 . S
C1571 C1572 1.385 . S
C1572 H1558 0.931 . S
C1572 C1571 1.385 . S
C1572 C1573 1.389 . S
C1573 C1572 1.389 . S
C1573 C1574 1.387 . S
C1574 H1559 0.930 . S
C1574 C1569 1.390 . S
C1574 C1573 1.387 . S
H1575 C1587 0.930 . S
H1576 C1589 0.930 . S
H1577 C1590 0.930 . S
H1578 C1594 0.959 1_655 S
H1579 C1594 0.959 . S
H1580 C1594 0.961 1_655 S
H1581 C1595 0.960 . S
H1582 C1595 0.961 . S
H1583 C1595 0.959 . S
H1584 C1598 0.929 . S
H1585 C1599 0.931 . S
H1586 C1601 0.930 . S
C1587 H1575 0.930 . S
C1587 C1588 1.399 . S
C1587 C1592 1.399 . S
C1588 C1587 1.399 . S
C1588 C1589 1.376 . S
C1589 H1576 0.930 . S
C1589 C1588 1.376 . S
C1589 C1590 1.388 . S
C1590 H1577 0.930 . S
C1590 C1589 1.388 . S
C1590 C1591 1.390 . S
C1591 C1590 1.390 . S
C1591 C1592 1.394 . S
C1591 C1597 1.465 1_655 S
C1592 C1587 1.399 . S
C1592 C1591 1.394 . S
C1592 C1593 1.516 1_655 S
C1593 C1592 1.516 1_455 S
C1593 C1594 1.502 . S
C1593 C1595 1.561 . S
C1593 C1596 1.526 . S
C1594 H1578 0.959 1_455 S
C1594 H1579 0.959 . S
C1594 H1580 0.961 1_455 S
C1594 C1593 1.502 . S
C1595 H1581 0.960 . S
C1595 H1582 0.961 . S
C1595 H1583 0.959 . S
C1595 C1593 1.561 . S
C1596 C1593 1.526 . S
C1596 C1597 1.396 . S
C1596 C1601 1.390 . S
C1597 C1591 1.465 1_455 S
C1597 C1596 1.396 . S
C1597 C1598 1.399 . S
C1598 H1584 0.929 . S
C1598 C1597 1.399 . S
C1598 C1599 1.385 . S
C1599 H1585 0.931 . S
C1599 C1598 1.385 . S
C1599 C1600 1.389 . S
C1600 C1599 1.389 . S
C1600 C1601 1.387 . S
C1601 H1586 0.930 . S
C1601 C1596 1.390 . S
C1601 C1600 1.387 . S
H1602 C1614 0.930 . S
H1603 C1616 0.930 . S
H1604 C1617 0.930 1_545 S
H1605 C1621 0.959 . S
H1606 C1621 0.959 . S
H1607 C1621 0.961 . S
H1608 C1622 0.960 . S
H1609 C1622 0.961 . S
H1610 C1622 0.959 . S
H1611 C1625 0.929 . S
H1612 C1626 0.931 . S
H1613 C1628 0.930 . S
C1614 H1602 0.930 . S
C1614 C1615 1.399 . S
C1614 C1619 1.399 . S
C1615 C1614 1.399 . S
C1615 C1616 1.376 . S
C1616 H1603 0.930 . S
C1616 C1615 1.376 . S
C1616 C1617 1.388 . S
C1617 H1604 0.930 1_565 S
C1617 C1616 1.388 . S
C1617 C1618 1.390 . S
C1618 C1617 1.390 . S
C1618 C1619 1.394 . S
C1618 C1624 1.465 1_565 S
C1619 C1614 1.399 . S
C1619 C1618 1.394 . S
C1619 C1620 1.516 . S
C1620 C1619 1.516 . S
C1620 C1621 1.502 . S
C1620 C1622 1.561 . S
C1620 C1623 1.526 1_565 S
C1621 H1605 0.959 . S
C1621 H1606 0.959 . S
C1621 H1607 0.961 . S
C1621 C1620 1.502 . S
C1622 H1608 0.960 . S
C1622 H1609 0.961 . S
C1622 H1610 0.959 . S
C1622 C1620 1.561 . S
C1623 C1620 1.526 1_545 S
C1623 C1624 1.396 . S
C1623 C1628 1.390 . S
C1624 C1618 1.465 1_545 S
C1624 C1623 1.396 . S
C1624 C1625 1.399 . S
C1625 H1611 0.929 . S
C1625 C1624 1.399 . S
C1625 C1626 1.385 . S
C1626 H1612 0.931 . S
C1626 C1625 1.385 . S
C1626 C1627 1.389 . S
C1627 C1626 1.389 . S
C1627 C1628 1.387 . S
C1628 H1613 0.930 . S
C1628 C1623 1.390 . S
C1628 C1627 1.387 . S
H1629 C1641 0.930 . S
H1630 C1643 0.930 . S
H1631 C1644 0.930 . S
H1632 C1648 0.959 . S
H1633 C1648 0.959 . S
H1634 C1648 0.961 . S
H1635 C1649 0.960 . S
H1636 C1649 0.961 . S
H1637 C1649 0.959 . S
H1638 C1652 0.929 . S
H1639 C1653 0.931 . S
H1640 C1655 0.930 . S
C1641 H1629 0.930 . S
C1641 C1642 1.399 . S
C1641 C1646 1.399 . S
C1642 C1641 1.399 . S
C1642 C1643 1.376 . S
C1643 H1630 0.930 . S
C1643 C1642 1.376 . S
C1643 C1644 1.388 . S
C1644 H1631 0.930 . S
C1644 C1643 1.388 . S
C1644 C1645 1.390 . S
C1645 C1644 1.390 . S
C1645 C1646 1.394 . S
C1645 C1651 1.465 . S
C1646 C1641 1.399 . S
C1646 C1645 1.394 . S
C1646 C1647 1.516 . S
C1647 C1646 1.516 . S
C1647 C1648 1.502 . S
C1647 C1649 1.561 . S
C1647 C1650 1.526 . S
C1648 H1632 0.959 . S
C1648 H1633 0.959 . S
C1648 H1634 0.961 . S
C1648 C1647 1.502 . S
C1649 H1635 0.960 . S
C1649 H1636 0.961 . S
C1649 H1637 0.959 . S
C1649 C1647 1.561 . S
C1650 C1647 1.526 . S
C1650 C1651 1.396 . S
C1650 C1655 1.390 . S
C1651 C1645 1.465 . S
C1651 C1650 1.396 . S
C1651 C1652 1.399 . S
C1652 H1638 0.929 . S
C1652 C1651 1.399 . S
C1652 C1653 1.385 . S
C1653 H1639 0.931 . S
C1653 C1652 1.385 . S
C1653 C1654 1.389 . S
C1654 C1653 1.389 . S
C1654 C1655 1.387 . S
C1655 H1640 0.930 . S
C1655 C1650 1.390 . S
C1655 C1654 1.387 . S
H1656 C1668 0.930 . S
H1657 C1670 0.930 . S
H1658 C1671 0.930 . S
H1659 C1675 0.959 1_455 S
H1660 C1675 0.959 . S
H1661 C1675 0.961 1_455 S
H1662 C1676 0.960 . S
H1663 C1676 0.961 . S
H1664 C1676 0.959 . S
H1665 C1679 0.929 . S
H1666 C1680 0.931 . S
H1667 C1682 0.930 . S
C1668 H1656 0.930 . S
C1668 C1669 1.399 . S
C1668 C1673 1.399 . S
C1669 C1668 1.399 . S
C1669 C1670 1.376 . S
C1670 H1657 0.930 . S
C1670 C1669 1.376 . S
C1670 C1671 1.388 . S
C1671 H1658 0.930 . S
C1671 C1670 1.388 . S
C1671 C1672 1.390 . S
C1672 C1671 1.390 . S
C1672 C1673 1.394 . S
C1672 C1678 1.465 1_455 S
C1673 C1668 1.399 . S
C1673 C1672 1.394 . S
C1673 C1674 1.516 1_455 S
C1674 C1673 1.516 1_655 S
C1674 C1675 1.502 . S
C1674 C1676 1.561 . S
C1674 C1677 1.526 . S
C1675 H1659 0.959 1_655 S
C1675 H1660 0.959 . S
C1675 H1661 0.961 1_655 S
C1675 C1674 1.502 . S
C1676 H1662 0.960 . S
C1676 H1663 0.961 . S
C1676 H1664 0.959 . S
C1676 C1674 1.561 . S
C1677 C1674 1.526 . S
C1677 C1678 1.396 . S
C1677 C1682 1.390 . S
C1678 C1672 1.465 1_655 S
C1678 C1677 1.396 . S
C1678 C1679 1.399 . S
C1679 H1665 0.929 . S
C1679 C1678 1.399 . S
C1679 C1680 1.385 . S
C1680 H1666 0.931 . S
C1680 C1679 1.385 . S
C1680 C1681 1.389 . S
C1681 C1680 1.389 . S
C1681 C1682 1.387 . S
C1682 H1667 0.930 . S
C1682 C1677 1.390 . S
C1682 C1681 1.387 . S
H1683 C1695 0.930 . S
H1684 C1697 0.930 . S
H1685 C1698 0.930 1_565 S
H1686 C1702 0.959 . S
H1687 C1702 0.959 . S
H1688 C1702 0.961 . S
H1689 C1703 0.960 . S
H1690 C1703 0.961 . S
H1691 C1703 0.959 . S
H1692 C1706 0.929 . S
H1693 C1707 0.931 . S
H1694 C1709 0.930 . S
C1695 H1683 0.930 . S
C1695 C1696 1.399 . S
C1695 C1700 1.399 . S
C1696 C1695 1.399 . S
C1696 C1697 1.376 . S
C1697 H1684 0.930 . S
C1697 C1696 1.376 . S
C1697 C1698 1.388 . S
C1698 H1685 0.930 1_545 S
C1698 C1697 1.388 . S
C1698 C1699 1.390 . S
C1699 C1698 1.390 . S
C1699 C1700 1.394 . S
C1699 C1705 1.465 1_545 S
C1700 C1695 1.399 . S
C1700 C1699 1.394 . S
C1700 C1701 1.516 . S
C1701 C1700 1.516 . S
C1701 C1702 1.502 . S
C1701 C1703 1.561 . S
C1701 C1704 1.526 1_545 S
C1702 H1686 0.959 . S
C1702 H1687 0.959 . S
C1702 H1688 0.961 . S
C1702 C1701 1.502 . S
C1703 H1689 0.960 . S
C1703 H1690 0.961 . S
C1703 H1691 0.959 . S
C1703 C1701 1.561 . S
C1704 C1701 1.526 1_565 S
C1704 C1705 1.396 . S
C1704 C1709 1.390 . S
C1705 C1699 1.465 1_565 S
C1705 C1704 1.396 . S
C1705 C1706 1.399 . S
C1706 H1692 0.929 . S
C1706 C1705 1.399 . S
C1706 C1707 1.385 . S
C1707 H1693 0.931 . S
C1707 C1706 1.385 . S
C1707 C1708 1.389 . S
C1708 C1707 1.389 . S
C1708 C1709 1.387 . S
C1709 H1694 0.930 . S
C1709 C1704 1.390 . S
C1709 C1708 1.387 . S
H1710 C1722 0.930 . S
H1711 C1724 0.930 . S
H1712 C1725 0.930 . S
H1713 C1729 0.959 . S
H1714 C1729 0.959 . S
H1715 C1729 0.961 . S
H1716 C1730 0.960 . S
H1717 C1730 0.961 . S
H1718 C1730 0.959 . S
H1719 C1733 0.929 . S
H1720 C1734 0.931 . S
H1721 C1736 0.930 . S
C1722 H1710 0.930 . S
C1722 C1723 1.399 . S
C1722 C1727 1.399 . S
C1723 C1722 1.399 . S
C1723 C1724 1.376 . S
C1724 H1711 0.930 . S
C1724 C1723 1.376 . S
C1724 C1725 1.388 . S
C1725 H1712 0.930 . S
C1725 C1724 1.388 . S
C1725 C1726 1.390 . S
C1726 C1725 1.390 . S
C1726 C1727 1.394 . S
C1726 C1732 1.465 . S
C1727 C1722 1.399 . S
C1727 C1726 1.394 . S
C1727 C1728 1.516 . S
C1728 C1727 1.516 . S
C1728 C1729 1.502 . S
C1728 C1730 1.561 . S
C1728 C1731 1.526 . S
C1729 H1713 0.959 . S
C1729 H1714 0.959 . S
C1729 H1715 0.961 . S
C1729 C1728 1.502 . S
C1730 H1716 0.960 . S
C1730 H1717 0.961 . S
C1730 H1718 0.959 . S
C1730 C1728 1.561 . S
C1731 C1728 1.526 . S
C1731 C1732 1.396 . S
C1731 C1736 1.390 . S
C1732 C1726 1.465 . S
C1732 C1731 1.396 . S
C1732 C1733 1.399 . S
C1733 H1719 0.929 . S
C1733 C1732 1.399 . S
C1733 C1734 1.385 . S
C1734 H1720 0.931 . S
C1734 C1733 1.385 . S
C1734 C1735 1.389 . S
C1735 C1734 1.389 . S
C1735 C1736 1.387 . S
C1736 H1721 0.930 . S
C1736 C1731 1.390 . S
C1736 C1735 1.387 . S
H1737 C1749 0.930 . S
H1738 C1751 0.930 . S
H1739 C1752 0.930 . S
H1740 C1756 0.959 . S
H1741 C1756 0.959 . S
H1742 C1756 0.961 . S
H1743 C1757 0.960 1_455 S
H1744 C1757 0.961 . S
H1745 C1757 0.959 1_455 S
H1746 C1760 0.929 . S
H1747 C1761 0.931 . S
H1748 C1763 0.930 . S
C1749 H1737 0.930 . S
C1749 C1750 1.399 . S
C1749 C1754 1.399 . S
C1750 C1749 1.399 . S
C1750 C1751 1.376 . S
C1751 H1738 0.930 . S
C1751 C1750 1.376 . S
C1751 C1752 1.388 . S
C1752 H1739 0.930 . S
C1752 C1751 1.388 . S
C1752 C1753 1.390 . S
C1753 C1752 1.390 . S
C1753 C1754 1.394 . S
C1753 C1759 1.465 1_455 S
C1754 C1749 1.399 . S
C1754 C1753 1.394 . S
C1754 C1755 1.516 1_455 S
C1755 C1754 1.516 1_655 S
C1755 C1756 1.502 . S
C1755 C1757 1.561 . S
C1755 C1758 1.526 . S
C1756 H1740 0.959 . S
C1756 H1741 0.959 . S
C1756 H1742 0.961 . S
C1756 C1755 1.502 . S
C1757 H1743 0.960 1_655 S
C1757 H1744 0.961 . S
C1757 H1745 0.959 1_655 S
C1757 C1755 1.561 . S
C1758 C1755 1.526 . S
C1758 C1759 1.396 . S
C1758 C1763 1.390 . S
C1759 C1753 1.465 1_655 S
C1759 C1758 1.396 . S
C1759 C1760 1.399 . S
C1760 H1746 0.929 . S
C1760 C1759 1.399 . S
C1760 C1761 1.385 . S
C1761 H1747 0.931 . S
C1761 C1760 1.385 . S
C1761 C1762 1.389 . S
C1762 C1761 1.389 . S
C1762 C1763 1.387 . S
C1763 H1748 0.930 . S
C1763 C1758 1.390 . S
C1763 C1762 1.387 . S
H1764 C1776 0.930 . S
H1765 C1778 0.930 . S
H1766 C1779 0.930 . S
H1767 C1783 0.959 . S
H1768 C1783 0.959 . S
H1769 C1783 0.961 . S
H1770 C1784 0.960 . S
H1771 C1784 0.961 . S
H1772 C1784 0.959 . S
H1773 C1787 0.929 . S
H1774 C1788 0.931 . S
H1775 C1790 0.930 . S
C1776 H1764 0.930 . S
C1776 C1777 1.399 . S
C1776 C1781 1.399 . S
C1777 C1776 1.399 . S
C1777 C1778 1.376 . S
C1778 H1765 0.930 . S
C1778 C1777 1.376 . S
C1778 C1779 1.388 . S
C1779 H1766 0.930 . S
C1779 C1778 1.388 . S
C1779 C1780 1.390 . S
C1780 C1779 1.390 . S
C1780 C1781 1.394 . S
C1780 C1786 1.465 . S
C1781 C1776 1.399 . S
C1781 C1780 1.394 . S
C1781 C1782 1.516 . S
C1782 C1781 1.516 . S
C1782 C1783 1.502 . S
C1782 C1784 1.561 . S
C1782 C1785 1.526 . S
C1783 H1767 0.959 . S
C1783 H1768 0.959 . S
C1783 H1769 0.961 . S
C1783 C1782 1.502 . S
C1784 H1770 0.960 . S
C1784 H1771 0.961 . S
C1784 H1772 0.959 . S
C1784 C1782 1.561 . S
C1785 C1782 1.526 . S
C1785 C1786 1.396 . S
C1785 C1790 1.390 . S
C1786 C1780 1.465 . S
C1786 C1785 1.396 . S
C1786 C1787 1.399 . S
C1787 H1773 0.929 . S
C1787 C1786 1.399 . S
C1787 C1788 1.385 . S
C1788 H1774 0.931 . S
C1788 C1787 1.385 . S
C1788 C1789 1.389 . S
C1789 C1788 1.389 . S
C1789 C1790 1.387 . S
C1790 H1775 0.930 . S
C1790 C1785 1.390 . S
C1790 C1789 1.387 . S
H1791 C1803 0.930 . S
H1792 C1805 0.930 . S
H1793 C1806 0.930 . S
H1794 C1810 0.959 . S
H1795 C1810 0.959 . S
H1796 C1810 0.961 . S
H1797 C1811 0.960 . S
H1798 C1811 0.961 . S
H1799 C1811 0.959 . S
H1800 C1814 0.929 . S
H1801 C1815 0.931 . S
H1802 C1817 0.930 . S
C1803 H1791 0.930 . S
C1803 C1804 1.399 . S
C1803 C1808 1.399 . S
C1804 C1803 1.399 . S
C1804 C1805 1.376 . S
C1805 H1792 0.930 . S
C1805 C1804 1.376 . S
C1805 C1806 1.388 . S
C1806 H1793 0.930 . S
C1806 C1805 1.388 . S
C1806 C1807 1.390 . S
C1807 C1806 1.390 . S
C1807 C1808 1.394 . S
C1807 C1813 1.465 . S
C1808 C1803 1.399 . S
C1808 C1807 1.394 . S
C1808 C1809 1.516 . S
C1809 C1808 1.516 . S
C1809 C1810 1.502 . S
C1809 C1811 1.561 . S
C1809 C1812 1.526 . S
C1810 H1794 0.959 . S
C1810 H1795 0.959 . S
C1810 H1796 0.961 . S
C1810 C1809 1.502 . S
C1811 H1797 0.960 . S
C1811 H1798 0.961 . S
C1811 H1799 0.959 . S
C1811 C1809 1.561 . S
C1812 C1809 1.526 . S
C1812 C1813 1.396 . S
C1812 C1817 1.390 . S
C1813 C1807 1.465 . S
C1813 C1812 1.396 . S
C1813 C1814 1.399 . S
C1814 H1800 0.929 . S
C1814 C1813 1.399 . S
C1814 C1815 1.385 . S
C1815 H1801 0.931 . S
C1815 C1814 1.385 . S
C1815 C1816 1.389 . S
C1816 C1815 1.389 . S
C1816 C1817 1.387 . S
C1817 H1802 0.930 . S
C1817 C1812 1.390 . S
C1817 C1816 1.387 . S
H1818 C1830 0.930 . S
H1819 C1832 0.930 . S
H1820 C1833 0.930 . S
H1821 C1837 0.959 . S
H1822 C1837 0.959 . S
H1823 C1837 0.961 . S
H1824 C1838 0.960 . S
H1825 C1838 0.961 . S
H1826 C1838 0.959 . S
H1827 C1841 0.929 . S
H1828 C1842 0.931 . S
H1829 C1844 0.930 . S
C1830 H1818 0.930 . S
C1830 C1831 1.399 . S
C1830 C1835 1.399 . S
C1831 C1830 1.399 . S
C1831 C1832 1.376 . S
C1832 H1819 0.930 . S
C1832 C1831 1.376 . S
C1832 C1833 1.388 . S
C1833 H1820 0.930 . S
C1833 C1832 1.388 . S
C1833 C1834 1.390 . S
C1834 C1833 1.390 . S
C1834 C1835 1.394 . S
C1834 C1840 1.465 . S
C1835 C1830 1.399 . S
C1835 C1834 1.394 . S
C1835 C1836 1.516 . S
C1836 C1835 1.516 . S
C1836 C1837 1.502 . S
C1836 C1838 1.561 . S
C1836 C1839 1.526 . S
C1837 H1821 0.959 . S
C1837 H1822 0.959 . S
C1837 H1823 0.961 . S
C1837 C1836 1.502 . S
C1838 H1824 0.960 . S
C1838 H1825 0.961 . S
C1838 H1826 0.959 . S
C1838 C1836 1.561 . S
C1839 C1836 1.526 . S
C1839 C1840 1.396 . S
C1839 C1844 1.390 . S
C1840 C1834 1.465 . S
C1840 C1839 1.396 . S
C1840 C1841 1.399 . S
C1841 H1827 0.929 . S
C1841 C1840 1.399 . S
C1841 C1842 1.385 . S
C1842 H1828 0.931 . S
C1842 C1841 1.385 . S
C1842 C1843 1.389 . S
C1843 C1842 1.389 . S
C1843 C1844 1.387 . S
C1844 H1829 0.930 . S
C1844 C1839 1.390 . S
C1844 C1843 1.387 . S
H1845 C1857 0.930 . S
H1846 C1859 0.930 . S
H1847 C1860 0.930 . S
H1848 C1864 0.959 . S
H1849 C1864 0.959 . S
H1850 C1864 0.961 . S
H1851 C1865 0.960 . S
H1852 C1865 0.961 . S
H1853 C1865 0.959 . S
H1854 C1868 0.929 . S
H1855 C1869 0.931 . S
H1856 C1871 0.930 . S
C1857 H1845 0.930 . S
C1857 C1858 1.399 . S
C1857 C1862 1.399 . S
C1858 C1857 1.399 . S
C1858 C1859 1.376 . S
C1859 H1846 0.930 . S
C1859 C1858 1.376 . S
C1859 C1860 1.388 . S
C1860 H1847 0.930 . S
C1860 C1859 1.388 . S
C1860 C1861 1.390 . S
C1861 C1860 1.390 . S
C1861 C1862 1.394 . S
C1861 C1867 1.465 . S
C1862 C1857 1.399 . S
C1862 C1861 1.394 . S
C1862 C1863 1.516 . S
C1863 C1862 1.516 . S
C1863 C1864 1.502 . S
C1863 C1865 1.561 . S
C1863 C1866 1.526 . S
C1864 H1848 0.959 . S
C1864 H1849 0.959 . S
C1864 H1850 0.961 . S
C1864 C1863 1.502 . S
C1865 H1851 0.960 . S
C1865 H1852 0.961 . S
C1865 H1853 0.959 . S
C1865 C1863 1.561 . S
C1866 C1863 1.526 . S
C1866 C1867 1.396 . S
C1866 C1871 1.390 . S
C1867 C1861 1.465 . S
C1867 C1866 1.396 . S
C1867 C1868 1.399 . S
C1868 H1854 0.929 . S
C1868 C1867 1.399 . S
C1868 C1869 1.385 . S
C1869 H1855 0.931 . S
C1869 C1868 1.385 . S
C1869 C1870 1.389 . S
C1870 C1869 1.389 . S
C1870 C1871 1.387 . S
C1871 H1856 0.930 . S
C1871 C1866 1.390 . S
C1871 C1870 1.387 . S
H1872 C1884 0.930 . S
H1873 C1886 0.930 . S
H1874 C1887 0.930 . S
H1875 C1891 0.959 . S
H1876 C1891 0.959 . S
H1877 C1891 0.961 . S
H1878 C1892 0.960 . S
H1879 C1892 0.961 . S
H1880 C1892 0.959 . S
H1881 C1895 0.929 . S
H1882 C1896 0.931 . S
H1883 C1898 0.930 . S
C1884 H1872 0.930 . S
C1884 C1885 1.399 . S
C1884 C1889 1.399 . S
C1885 C1884 1.399 . S
C1885 C1886 1.376 . S
C1886 H1873 0.930 . S
C1886 C1885 1.376 . S
C1886 C1887 1.388 . S
C1887 H1874 0.930 . S
C1887 C1886 1.388 . S
C1887 C1888 1.390 . S
C1888 C1887 1.390 . S
C1888 C1889 1.394 . S
C1888 C1894 1.465 . S
C1889 C1884 1.399 . S
C1889 C1888 1.394 . S
C1889 C1890 1.516 . S
C1890 C1889 1.516 . S
C1890 C1891 1.502 . S
C1890 C1892 1.561 . S
C1890 C1893 1.526 . S
C1891 H1875 0.959 . S
C1891 H1876 0.959 . S
C1891 H1877 0.961 . S
C1891 C1890 1.502 . S
C1892 H1878 0.960 . S
C1892 H1879 0.961 . S
C1892 H1880 0.959 . S
C1892 C1890 1.561 . S
C1893 C1890 1.526 . S
C1893 C1894 1.396 . S
C1893 C1898 1.390 . S
C1894 C1888 1.465 . S
C1894 C1893 1.396 . S
C1894 C1895 1.399 . S
C1895 H1881 0.929 . S
C1895 C1894 1.399 . S
C1895 C1896 1.385 . S
C1896 H1882 0.931 . S
C1896 C1895 1.385 . S
C1896 C1897 1.389 . S
C1897 C1896 1.389 . S
C1897 C1898 1.387 . S
C1898 H1883 0.930 . S
C1898 C1893 1.390 . S
C1898 C1897 1.387 . S
H1899 C1911 0.930 . S
H1900 C1913 0.930 . S
H1901 C1914 0.930 . S
H1902 C1918 0.959 . S
H1903 C1918 0.959 . S
H1904 C1918 0.961 . S
H1905 C1919 0.960 . S
H1906 C1919 0.961 . S
H1907 C1919 0.959 . S
H1908 C1922 0.929 . S
H1909 C1923 0.931 . S
H1910 C1925 0.930 . S
C1911 H1899 0.930 . S
C1911 C1912 1.399 . S
C1911 C1916 1.399 . S
C1912 C1911 1.399 . S
C1912 C1913 1.376 . S
C1913 H1900 0.930 . S
C1913 C1912 1.376 . S
C1913 C1914 1.388 . S
C1914 H1901 0.930 . S
C1914 C1913 1.388 . S
C1914 C1915 1.390 . S
C1915 C1914 1.390 . S
C1915 C1916 1.394 . S
C1915 C1921 1.465 . S
C1916 C1911 1.399 . S
C1916 C1915 1.394 . S
C1916 C1917 1.516 . S
C1917 C1916 1.516 . S
C1917 C1918 1.502 . S
C1917 C1919 1.561 . S
C1917 C1920 1.526 . S
C1918 H1902 0.959 . S
C1918 H1903 0.959 . S
C1918 H1904 0.961 . S
C1918 C1917 1.502 . S
C1919 H1905 0.960 . S
C1919 H1906 0.961 . S
C1919 H1907 0.959 . S
C1919 C1917 1.561 . S
C1920 C1917 1.526 . S
C1920 C1921 1.396 . S
C1920 C1925 1.390 . S
C1921 C1915 1.465 . S
C1921 C1920 1.396 . S
C1921 C1922 1.399 . S
C1922 H1908 0.929 . S
C1922 C1921 1.399 . S
C1922 C1923 1.385 . S
C1923 H1909 0.931 . S
C1923 C1922 1.385 . S
C1923 C1924 1.389 . S
C1924 C1923 1.389 . S
C1924 C1925 1.387 . S
C1925 H1910 0.930 . S
C1925 C1920 1.390 . S
C1925 C1924 1.387 . S
H1926 C1938 0.930 . S
H1927 C1940 0.930 . S
H1928 C1941 0.930 . S
H1929 C1945 0.959 . S
H1930 C1945 0.959 . S
H1931 C1945 0.961 . S
H1932 C1946 0.960 . S
H1933 C1946 0.961 . S
H1934 C1946 0.959 . S
H1935 C1949 0.929 . S
H1936 C1950 0.931 . S
H1937 C1952 0.930 . S
C1938 H1926 0.930 . S
C1938 C1939 1.399 . S
C1938 C1943 1.399 . S
C1939 C1938 1.399 . S
C1939 C1940 1.376 . S
C1940 H1927 0.930 . S
C1940 C1939 1.376 . S
C1940 C1941 1.388 . S
C1941 H1928 0.930 . S
C1941 C1940 1.388 . S
C1941 C1942 1.390 . S
C1942 C1941 1.390 . S
C1942 C1943 1.394 . S
C1942 C1948 1.465 . S
C1943 C1938 1.399 . S
C1943 C1942 1.394 . S
C1943 C1944 1.516 . S
C1944 C1943 1.516 . S
C1944 C1945 1.502 . S
C1944 C1946 1.561 . S
C1944 C1947 1.526 . S
C1945 H1929 0.959 . S
C1945 H1930 0.959 . S
C1945 H1931 0.961 . S
C1945 C1944 1.502 . S
C1946 H1932 0.960 . S
C1946 H1933 0.961 . S
C1946 H1934 0.959 . S
C1946 C1944 1.561 . S
C1947 C1944 1.526 . S
C1947 C1948 1.396 . S
C1947 C1952 1.390 . S
C1948 C1942 1.465 . S
C1948 C1947 1.396 . S
C1948 C1949 1.399 . S
C1949 H1935 0.929 . S
C1949 C1948 1.399 . S
C1949 C1950 1.385 . S
C1950 H1936 0.931 . S
C1950 C1949 1.385 . S
C1950 C1951 1.389 . S
C1951 C1950 1.389 . S
C1951 C1952 1.387 . S
C1952 H1937 0.930 . S
C1952 C1947 1.390 . S
C1952 C1951 1.387 . S
H1953 C1965 0.930 . S
H1954 C1967 0.930 . S
H1955 C1968 0.930 . S
H1956 C1972 0.959 . S
H1957 C1972 0.959 . S
H1958 C1972 0.961 . S
H1959 C1973 0.960 . S
H1960 C1973 0.961 . S
H1961 C1973 0.959 . S
H1962 C1976 0.929 . S
H1963 C1977 0.931 . S
H1964 C1979 0.930 . S
C1965 H1953 0.930 . S
C1965 C1966 1.399 . S
C1965 C1970 1.399 . S
C1966 C1965 1.399 . S
C1966 C1967 1.376 . S
C1967 H1954 0.930 . S
C1967 C1966 1.376 . S
C1967 C1968 1.388 . S
C1968 H1955 0.930 . S
C1968 C1967 1.388 . S
C1968 C1969 1.390 . S
C1969 C1968 1.390 . S
C1969 C1970 1.394 . S
C1969 C1975 1.465 . S
C1970 C1965 1.399 . S
C1970 C1969 1.394 . S
C1970 C1971 1.516 . S
C1971 C1970 1.516 . S
C1971 C1972 1.502 . S
C1971 C1973 1.561 . S
C1971 C1974 1.526 . S
C1972 H1956 0.959 . S
C1972 H1957 0.959 . S
C1972 H1958 0.961 . S
C1972 C1971 1.502 . S
C1973 H1959 0.960 . S
C1973 H1960 0.961 . S
C1973 H1961 0.959 . S
C1973 C1971 1.561 . S
C1974 C1971 1.526 . S
C1974 C1975 1.396 . S
C1974 C1979 1.390 . S
C1975 C1969 1.465 . S
C1975 C1974 1.396 . S
C1975 C1976 1.399 . S
C1976 H1962 0.929 . S
C1976 C1975 1.399 . S
C1976 C1977 1.385 . S
C1977 H1963 0.931 . S
C1977 C1976 1.385 . S
C1977 C1978 1.389 . S
C1978 C1977 1.389 . S
C1978 C1979 1.387 . S
C1979 H1964 0.930 . S
C1979 C1974 1.390 . S
C1979 C1978 1.387 . S
H1980 C1992 0.930 . S
H1981 C1994 0.930 . S
H1982 C1995 0.930 . S
H1983 C1999 0.959 . S
H1984 C1999 0.959 . S
H1985 C1999 0.961 . S
H1986 C2000 0.960 . S
H1987 C2000 0.961 . S
H1988 C2000 0.959 . S
H1989 C2003 0.929 . S
H1990 C2004 0.931 . S
H1991 C2006 0.930 . S
C1992 H1980 0.930 . S
C1992 C1993 1.399 . S
C1992 C1997 1.399 . S
C1993 C1992 1.399 . S
C1993 C1994 1.376 . S
C1994 H1981 0.930 . S
C1994 C1993 1.376 . S
C1994 C1995 1.388 . S
C1995 H1982 0.930 . S
C1995 C1994 1.388 . S
C1995 C1996 1.390 . S
C1996 C1995 1.390 . S
C1996 C1997 1.394 . S
C1996 C2002 1.465 . S
C1997 C1992 1.399 . S
C1997 C1996 1.394 . S
C1997 C1998 1.516 . S
C1998 C1997 1.516 . S
C1998 C1999 1.502 . S
C1998 C2000 1.561 . S
C1998 C2001 1.526 . S
C1999 H1983 0.959 . S
C1999 H1984 0.959 . S
C1999 H1985 0.961 . S
C1999 C1998 1.502 . S
C2000 H1986 0.960 . S
C2000 H1987 0.961 . S
C2000 H1988 0.959 . S
C2000 C1998 1.561 . S
C2001 C1998 1.526 . S
C2001 C2002 1.396 . S
C2001 C2006 1.390 . S
C2002 C1996 1.465 . S
C2002 C2001 1.396 . S
C2002 C2003 1.399 . S
C2003 H1989 0.929 . S
C2003 C2002 1.399 . S
C2003 C2004 1.385 . S
C2004 H1990 0.931 . S
C2004 C2003 1.385 . S
C2004 C2005 1.389 . S
C2005 C2004 1.389 . S
C2005 C2006 1.387 . S
C2006 H1991 0.930 . S
C2006 C2001 1.390 . S
C2006 C2005 1.387 . S
H2007 C2019 0.930 . S
H2008 C2021 0.930 . S
H2009 C2022 0.930 . S
H2010 C2026 0.959 . S
H2011 C2026 0.959 . S
H2012 C2026 0.961 . S
H2013 C2027 0.960 . S
H2014 C2027 0.961 . S
H2015 C2027 0.959 . S
H2016 C2030 0.929 . S
H2017 C2031 0.931 . S
H2018 C2033 0.930 . S
C2019 H2007 0.930 . S
C2019 C2020 1.399 . S
C2019 C2024 1.399 . S
C2020 C2019 1.399 . S
C2020 C2021 1.376 . S
C2021 H2008 0.930 . S
C2021 C2020 1.376 . S
C2021 C2022 1.388 . S
C2022 H2009 0.930 . S
C2022 C2021 1.388 . S
C2022 C2023 1.390 . S
C2023 C2022 1.390 . S
C2023 C2024 1.394 . S
C2023 C2029 1.465 . S
C2024 C2019 1.399 . S
C2024 C2023 1.394 . S
C2024 C2025 1.516 . S
C2025 C2024 1.516 . S
C2025 C2026 1.502 . S
C2025 C2027 1.561 . S
C2025 C2028 1.526 . S
C2026 H2010 0.959 . S
C2026 H2011 0.959 . S
C2026 H2012 0.961 . S
C2026 C2025 1.502 . S
C2027 H2013 0.960 . S
C2027 H2014 0.961 . S
C2027 H2015 0.959 . S
C2027 C2025 1.561 . S
C2028 C2025 1.526 . S
C2028 C2029 1.396 . S
C2028 C2033 1.390 . S
C2029 C2023 1.465 . S
C2029 C2028 1.396 . S
C2029 C2030 1.399 . S
C2030 H2016 0.929 . S
C2030 C2029 1.399 . S
C2030 C2031 1.385 . S
C2031 H2017 0.931 . S
C2031 C2030 1.385 . S
C2031 C2032 1.389 . S
C2032 C2031 1.389 . S
C2032 C2033 1.387 . S
C2033 H2018 0.930 . S
C2033 C2028 1.390 . S
C2033 C2032 1.387 . S
H2034 C2046 0.930 . S
H2035 C2048 0.930 . S
H2036 C2049 0.930 . S
H2037 C2053 0.959 . S
H2038 C2053 0.959 . S
H2039 C2053 0.961 . S
H2040 C2054 0.960 . S
H2041 C2054 0.961 . S
H2042 C2054 0.959 . S
H2043 C2057 0.929 . S
H2044 C2058 0.931 . S
H2045 C2060 0.930 . S
C2046 H2034 0.930 . S
C2046 C2047 1.399 . S
C2046 C2051 1.399 . S
C2047 C2046 1.399 . S
C2047 C2048 1.376 . S
C2048 H2035 0.930 . S
C2048 C2047 1.376 . S
C2048 C2049 1.388 . S
C2049 H2036 0.930 . S
C2049 C2048 1.388 . S
C2049 C2050 1.390 . S
C2050 C2049 1.390 . S
C2050 C2051 1.394 . S
C2050 C2056 1.465 . S
C2051 C2046 1.399 . S
C2051 C2050 1.394 . S
C2051 C2052 1.516 . S
C2052 C2051 1.516 . S
C2052 C2053 1.502 . S
C2052 C2054 1.561 . S
C2052 C2055 1.526 . S
C2053 H2037 0.959 . S
C2053 H2038 0.959 . S
C2053 H2039 0.961 . S
C2053 C2052 1.502 . S
C2054 H2040 0.960 . S
C2054 H2041 0.961 . S
C2054 H2042 0.959 . S
C2054 C2052 1.561 . S
C2055 C2052 1.526 . S
C2055 C2056 1.396 . S
C2055 C2060 1.390 . S
C2056 C2050 1.465 . S
C2056 C2055 1.396 . S
C2056 C2057 1.399 . S
C2057 H2043 0.929 . S
C2057 C2056 1.399 . S
C2057 C2058 1.385 . S
C2058 H2044 0.931 . S
C2058 C2057 1.385 . S
C2058 C2059 1.389 . S
C2059 C2058 1.389 . S
C2059 C2060 1.387 . S
C2060 H2045 0.930 . S
C2060 C2055 1.390 . S
C2060 C2059 1.387 . S
H2061 C2073 0.930 . S
H2062 C2075 0.930 . S
H2063 C2076 0.930 . S
H2064 C2080 0.959 . S
H2065 C2080 0.959 . S
H2066 C2080 0.961 . S
H2067 C2081 0.960 . S
H2068 C2081 0.961 . S
H2069 C2081 0.959 . S
H2070 C2084 0.929 . S
H2071 C2085 0.931 . S
H2072 C2087 0.930 . S
C2073 H2061 0.930 . S
C2073 C2074 1.399 . S
C2073 C2078 1.399 . S
C2074 C2073 1.399 . S
C2074 C2075 1.376 . S
C2075 H2062 0.930 . S
C2075 C2074 1.376 . S
C2075 C2076 1.388 . S
C2076 H2063 0.930 . S
C2076 C2075 1.388 . S
C2076 C2077 1.390 . S
C2077 C2076 1.390 . S
C2077 C2078 1.394 . S
C2077 C2083 1.465 . S
C2078 C2073 1.399 . S
C2078 C2077 1.394 . S
C2078 C2079 1.516 . S
C2079 C2078 1.516 . S
C2079 C2080 1.502 . S
C2079 C2081 1.561 . S
C2079 C2082 1.526 . S
C2080 H2064 0.959 . S
C2080 H2065 0.959 . S
C2080 H2066 0.961 . S
C2080 C2079 1.502 . S
C2081 H2067 0.960 . S
C2081 H2068 0.961 . S
C2081 H2069 0.959 . S
C2081 C2079 1.561 . S
C2082 C2079 1.526 . S
C2082 C2083 1.396 . S
C2082 C2087 1.390 . S
C2083 C2077 1.465 . S
C2083 C2082 1.396 . S
C2083 C2084 1.399 . S
C2084 H2070 0.929 . S
C2084 C2083 1.399 . S
C2084 C2085 1.385 . S
C2085 H2071 0.931 . S
C2085 C2084 1.385 . S
C2085 C2086 1.389 . S
C2086 C2085 1.389 . S
C2086 C2087 1.387 . S
C2087 H2072 0.930 . S
C2087 C2082 1.390 . S
C2087 C2086 1.387 . S
H2088 C2100 0.930 . S
H2089 C2102 0.930 . S
H2090 C2103 0.930 . S
H2091 C2107 0.962 . S
H2092 C2107 0.979 . S
H2093 C2107 0.939 1_554 S
H2094 C2108 0.957 1_554 S
H2095 C2108 0.964 . S
H2096 C2108 0.959 . S
H2097 C2111 0.929 . S
H2098 C2112 0.931 . S
H2099 C2114 0.930 . S
C2100 H2088 0.930 . S
C2100 C2101 1.399 . S
C2100 C2105 1.399 . S
C2101 C2100 1.399 . S
C2101 C2102 1.376 . S
C2102 H2089 0.930 . S
C2102 C2101 1.376 . S
C2102 C2103 1.388 . S
C2103 H2090 0.930 . S
C2103 C2102 1.388 . S
C2103 C2104 1.390 . S
C2104 C2103 1.390 . S
C2104 C2105 1.394 . S
C2104 C2110 1.465 1_554 S
C2105 C2100 1.399 . S
C2105 C2104 1.394 . S
C2105 C2106 1.517 1_554 S
C2106 C2105 1.517 1_556 S
C2106 C2107 1.502 . S
C2106 C2108 1.561 . S
C2106 C2109 1.525 . S
C2107 H2091 0.962 . S
C2107 H2092 0.979 . S
C2107 H2093 0.939 1_556 S
C2107 C2106 1.502 . S
C2108 H2094 0.957 1_556 S
C2108 H2095 0.964 . S
C2108 H2096 0.959 . S
C2108 C2106 1.561 . S
C2109 C2106 1.525 . S
C2109 C2110 1.396 . S
C2109 C2114 1.390 . S
C2110 C2104 1.465 1_556 S
C2110 C2109 1.396 . S
C2110 C2111 1.399 . S
C2111 H2097 0.929 . S
C2111 C2110 1.399 . S
C2111 C2112 1.385 . S
C2112 H2098 0.931 . S
C2112 C2111 1.385 . S
C2112 C2113 1.389 . S
C2113 C2112 1.389 . S
C2113 C2114 1.387 . S
C2114 H2099 0.930 . S
C2114 C2109 1.390 . S
C2114 C2113 1.387 . S
H2115 C2127 0.930 . S
H2116 C2129 0.930 . S
H2117 C2130 0.930 . S
H2118 C2134 0.962 . S
H2119 C2134 0.979 . S
H2120 C2134 0.939 1_554 S
H2121 C2135 0.957 1_554 S
H2122 C2135 0.963 . S
H2123 C2135 0.959 . S
H2124 C2138 0.929 . S
H2125 C2139 0.931 . S
H2126 C2141 0.930 . S
C2127 H2115 0.930 . S
C2127 C2128 1.399 . S
C2127 C2132 1.399 . S
C2128 C2127 1.399 . S
C2128 C2129 1.376 . S
C2129 H2116 0.930 . S
C2129 C2128 1.376 . S
C2129 C2130 1.388 . S
C2130 H2117 0.930 . S
C2130 C2129 1.388 . S
C2130 C2131 1.390 . S
C2131 C2130 1.390 . S
C2131 C2132 1.394 . S
C2131 C2137 1.465 1_554 S
C2132 C2127 1.399 . S
C2132 C2131 1.394 . S
C2132 C2133 1.517 1_554 S
C2133 C2132 1.517 1_556 S
C2133 C2134 1.502 . S
C2133 C2135 1.561 . S
C2133 C2136 1.525 . S
C2134 H2118 0.962 . S
C2134 H2119 0.979 . S
C2134 H2120 0.939 1_556 S
C2134 C2133 1.502 . S
C2135 H2121 0.957 1_556 S
C2135 H2122 0.963 . S
C2135 H2123 0.959 . S
C2135 C2133 1.561 . S
C2136 C2133 1.525 . S
C2136 C2137 1.396 . S
C2136 C2141 1.390 . S
C2137 C2131 1.465 1_556 S
C2137 C2136 1.396 . S
C2137 C2138 1.399 . S
C2138 H2124 0.929 . S
C2138 C2137 1.399 . S
C2138 C2139 1.385 . S
C2139 H2125 0.931 . S
C2139 C2138 1.385 . S
C2139 C2140 1.389 . S
C2140 C2139 1.389 . S
C2140 C2141 1.387 . S
C2141 H2126 0.930 . S
C2141 C2136 1.390 . S
C2141 C2140 1.387 . S
H2142 C2154 0.930 . S
H2143 C2156 0.930 . S
H2144 C2157 0.930 . S
H2145 C2161 0.962 . S
H2146 C2161 0.979 . S
H2147 C2161 0.939 1_554 S
H2148 C2162 0.957 1_554 S
H2149 C2162 0.964 . S
H2150 C2162 0.959 . S
H2151 C2165 0.929 . S
H2152 C2166 0.931 . S
H2153 C2168 0.930 . S
C2154 H2142 0.930 . S
C2154 C2155 1.399 . S
C2154 C2159 1.399 . S
C2155 C2154 1.399 . S
C2155 C2156 1.376 . S
C2156 H2143 0.930 . S
C2156 C2155 1.376 . S
C2156 C2157 1.388 . S
C2157 H2144 0.930 . S
C2157 C2156 1.388 . S
C2157 C2158 1.390 . S
C2158 C2157 1.390 . S
C2158 C2159 1.394 . S
C2158 C2164 1.465 1_554 S
C2159 C2154 1.399 . S
C2159 C2158 1.394 . S
C2159 C2160 1.517 1_554 S
C2160 C2159 1.517 1_556 S
C2160 C2161 1.502 . S
C2160 C2162 1.561 . S
C2160 C2163 1.525 . S
C2161 H2145 0.962 . S
C2161 H2146 0.979 . S
C2161 H2147 0.939 1_556 S
C2161 C2160 1.502 . S
C2162 H2148 0.957 1_556 S
C2162 H2149 0.964 . S
C2162 H2150 0.959 . S
C2162 C2160 1.561 . S
C2163 C2160 1.525 . S
C2163 C2164 1.396 . S
C2163 C2168 1.390 . S
C2164 C2158 1.465 1_556 S
C2164 C2163 1.396 . S
C2164 C2165 1.399 . S
C2165 H2151 0.929 . S
C2165 C2164 1.399 . S
C2165 C2166 1.385 . S
C2166 H2152 0.931 . S
C2166 C2165 1.385 . S
C2166 C2167 1.389 . S
C2167 C2166 1.389 . S
C2167 C2168 1.387 . S
C2168 H2153 0.930 . S
C2168 C2163 1.390 . S
C2168 C2167 1.387 . S
H2169 C2181 0.930 . S
H2170 C2183 0.930 . S
H2171 C2184 0.930 . S
H2172 C2188 0.962 . S
H2173 C2188 0.979 . S
H2174 C2188 0.939 1_554 S
H2175 C2189 0.957 1_554 S
H2176 C2189 0.963 . S
H2177 C2189 0.959 . S
H2178 C2192 0.929 . S
H2179 C2193 0.931 . S
H2180 C2195 0.930 . S
C2181 H2169 0.930 . S
C2181 C2182 1.399 . S
C2181 C2186 1.399 . S
C2182 C2181 1.399 . S
C2182 C2183 1.376 . S
C2183 H2170 0.930 . S
C2183 C2182 1.376 . S
C2183 C2184 1.388 . S
C2184 H2171 0.930 . S
C2184 C2183 1.388 . S
C2184 C2185 1.390 . S
C2185 C2184 1.390 . S
C2185 C2186 1.394 . S
C2185 C2191 1.465 1_554 S
C2186 C2181 1.399 . S
C2186 C2185 1.394 . S
C2186 C2187 1.517 1_554 S
C2187 C2186 1.517 1_556 S
C2187 C2188 1.502 . S
C2187 C2189 1.561 . S
C2187 C2190 1.525 . S
C2188 H2172 0.962 . S
C2188 H2173 0.979 . S
C2188 H2174 0.939 1_556 S
C2188 C2187 1.502 . S
C2189 H2175 0.957 1_556 S
C2189 H2176 0.963 . S
C2189 H2177 0.959 . S
C2189 C2187 1.561 . S
C2190 C2187 1.525 . S
C2190 C2191 1.396 . S
C2190 C2195 1.390 . S
C2191 C2185 1.465 1_556 S
C2191 C2190 1.396 . S
C2191 C2192 1.399 . S
C2192 H2178 0.929 . S
C2192 C2191 1.399 . S
C2192 C2193 1.385 . S
C2193 H2179 0.931 . S
C2193 C2192 1.385 . S
C2193 C2194 1.389 . S
C2194 C2193 1.389 . S
C2194 C2195 1.387 . S
C2195 H2180 0.930 . S
C2195 C2190 1.390 . S
C2195 C2194 1.387 . S
H2196 C2208 0.930 . S
H2197 C2210 0.930 . S
H2198 C2211 0.930 . S
H2199 C2215 0.962 . S
H2200 C2215 0.979 . S
H2201 C2215 0.939 1_554 S
H2202 C2216 0.957 1_554 S
H2203 C2216 0.963 . S
H2204 C2216 0.959 . S
H2205 C2219 0.929 . S
H2206 C2220 0.931 . S
H2207 C2222 0.930 . S
C2208 H2196 0.930 . S
C2208 C2209 1.399 . S
C2208 C2213 1.399 . S
C2209 C2208 1.399 . S
C2209 C2210 1.376 . S
C2210 H2197 0.930 . S
C2210 C2209 1.376 . S
C2210 C2211 1.388 . S
C2211 H2198 0.930 . S
C2211 C2210 1.388 . S
C2211 C2212 1.390 . S
C2212 C2211 1.390 . S
C2212 C2213 1.394 . S
C2212 C2218 1.465 1_554 S
C2213 C2208 1.399 . S
C2213 C2212 1.394 . S
C2213 C2214 1.517 1_554 S
C2214 C2213 1.517 1_556 S
C2214 C2215 1.502 . S
C2214 C2216 1.561 . S
C2214 C2217 1.525 . S
C2215 H2199 0.962 . S
C2215 H2200 0.979 . S
C2215 H2201 0.939 1_556 S
C2215 C2214 1.502 . S
C2216 H2202 0.957 1_556 S
C2216 H2203 0.963 . S
C2216 H2204 0.959 . S
C2216 C2214 1.561 . S
C2217 C2214 1.525 . S
C2217 C2218 1.396 . S
C2217 C2222 1.390 . S
C2218 C2212 1.465 1_556 S
C2218 C2217 1.396 . S
C2218 C2219 1.399 . S
C2219 H2205 0.929 . S
C2219 C2218 1.399 . S
C2219 C2220 1.385 . S
C2220 H2206 0.931 . S
C2220 C2219 1.385 . S
C2220 C2221 1.389 . S
C2221 C2220 1.389 . S
C2221 C2222 1.387 . S
C2222 H2207 0.930 . S
C2222 C2217 1.390 . S
C2222 C2221 1.387 . S
H2223 C2235 0.930 . S
H2224 C2237 0.930 . S
H2225 C2238 0.930 . S
H2226 C2242 0.962 . S
H2227 C2242 0.979 . S
H2228 C2242 0.939 1_556 S
H2229 C2243 0.957 1_556 S
H2230 C2243 0.964 . S
H2231 C2243 0.959 . S
H2232 C2246 0.929 . S
H2233 C2247 0.931 . S
H2234 C2249 0.930 . S
C2235 H2223 0.930 . S
C2235 C2236 1.399 . S
C2235 C2240 1.399 . S
C2236 C2235 1.399 . S
C2236 C2237 1.376 . S
C2237 H2224 0.930 . S
C2237 C2236 1.376 . S
C2237 C2238 1.388 . S
C2238 H2225 0.930 . S
C2238 C2237 1.388 . S
C2238 C2239 1.390 . S
C2239 C2238 1.390 . S
C2239 C2240 1.394 . S
C2239 C2245 1.465 1_556 S
C2240 C2235 1.399 . S
C2240 C2239 1.394 . S
C2240 C2241 1.517 1_556 S
C2241 C2240 1.517 1_554 S
C2241 C2242 1.502 . S
C2241 C2243 1.561 . S
C2241 C2244 1.525 . S
C2242 H2226 0.962 . S
C2242 H2227 0.979 . S
C2242 H2228 0.939 1_554 S
C2242 C2241 1.502 . S
C2243 H2229 0.957 1_554 S
C2243 H2230 0.964 . S
C2243 H2231 0.959 . S
C2243 C2241 1.561 . S
C2244 C2241 1.525 . S
C2244 C2245 1.396 . S
C2244 C2249 1.390 . S
C2245 C2239 1.465 1_554 S
C2245 C2244 1.396 . S
C2245 C2246 1.399 . S
C2246 H2232 0.929 . S
C2246 C2245 1.399 . S
C2246 C2247 1.385 . S
C2247 H2233 0.931 . S
C2247 C2246 1.385 . S
C2247 C2248 1.389 . S
C2248 C2247 1.389 . S
C2248 C2249 1.387 . S
C2249 H2234 0.930 . S
C2249 C2244 1.390 . S
C2249 C2248 1.387 . S
H2250 C2262 0.930 . S
H2251 C2264 0.930 . S
H2252 C2265 0.930 . S
H2253 C2269 0.959 . S
H2254 C2269 0.959 . S
H2255 C2269 0.961 . S
H2256 C2270 0.960 . S
H2257 C2270 0.961 . S
H2258 C2270 0.959 . S
H2259 C2273 0.929 . S
H2260 C2274 0.931 . S
H2261 C2276 0.930 . S
C2262 H2250 0.930 . S
C2262 C2263 1.399 . S
C2262 C2267 1.399 . S
C2263 C2262 1.399 . S
C2263 C2264 1.376 . S
C2264 H2251 0.930 . S
C2264 C2263 1.376 . S
C2264 C2265 1.388 . S
C2265 H2252 0.930 . S
C2265 C2264 1.388 . S
C2265 C2266 1.390 . S
C2266 C2265 1.390 . S
C2266 C2267 1.394 . S
C2266 C2272 1.465 . S
C2267 C2262 1.399 . S
C2267 C2266 1.394 . S
C2267 C2268 1.516 . S
C2268 C2267 1.516 . S
C2268 C2269 1.502 . S
C2268 C2270 1.561 . S
C2268 C2271 1.526 . S
C2269 H2253 0.959 . S
C2269 H2254 0.959 . S
C2269 H2255 0.961 . S
C2269 C2268 1.502 . S
C2270 H2256 0.960 . S
C2270 H2257 0.961 . S
C2270 H2258 0.959 . S
C2270 C2268 1.561 . S
C2271 C2268 1.526 . S
C2271 C2272 1.396 . S
C2271 C2276 1.390 . S
C2272 C2266 1.465 . S
C2272 C2271 1.396 . S
C2272 C2273 1.399 . S
C2273 H2259 0.929 . S
C2273 C2272 1.399 . S
C2273 C2274 1.385 . S
C2274 H2260 0.931 . S
C2274 C2273 1.385 . S
C2274 C2275 1.389 . S
C2275 C2274 1.389 . S
C2275 C2276 1.387 . S
C2276 H2261 0.930 . S
C2276 C2271 1.390 . S
C2276 C2275 1.387 . S
H2277 C2289 0.930 . S
H2278 C2291 0.930 . S
H2279 C2292 0.930 . S
H2280 C2296 0.959 . S
H2281 C2296 0.959 . S
H2282 C2296 0.961 . S
H2283 C2297 0.960 . S
H2284 C2297 0.961 . S
H2285 C2297 0.959 . S
H2286 C2300 0.929 . S
H2287 C2301 0.931 . S
H2288 C2303 0.930 . S
C2289 H2277 0.930 . S
C2289 C2290 1.399 . S
C2289 C2294 1.399 . S
C2290 C2289 1.399 . S
C2290 C2291 1.376 . S
C2291 H2278 0.930 . S
C2291 C2290 1.376 . S
C2291 C2292 1.388 . S
C2292 H2279 0.930 . S
C2292 C2291 1.388 . S
C2292 C2293 1.390 . S
C2293 C2292 1.390 . S
C2293 C2294 1.394 . S
C2293 C2299 1.465 . S
C2294 C2289 1.399 . S
C2294 C2293 1.394 . S
C2294 C2295 1.516 . S
C2295 C2294 1.516 . S
C2295 C2296 1.502 . S
C2295 C2297 1.561 . S
C2295 C2298 1.526 . S
C2296 H2280 0.959 . S
C2296 H2281 0.959 . S
C2296 H2282 0.961 . S
C2296 C2295 1.502 . S
C2297 H2283 0.960 . S
C2297 H2284 0.961 . S
C2297 H2285 0.959 . S
C2297 C2295 1.561 . S
C2298 C2295 1.526 . S
C2298 C2299 1.396 . S
C2298 C2303 1.390 . S
C2299 C2293 1.465 . S
C2299 C2298 1.396 . S
C2299 C2300 1.399 . S
C2300 H2286 0.929 . S
C2300 C2299 1.399 . S
C2300 C2301 1.385 . S
C2301 H2287 0.931 . S
C2301 C2300 1.385 . S
C2301 C2302 1.389 . S
C2302 C2301 1.389 . S
C2302 C2303 1.387 . S
C2303 H2288 0.930 . S
C2303 C2298 1.390 . S
C2303 C2302 1.387 . S
H2304 C2316 0.930 . S
H2305 C2318 0.930 . S
H2306 C2319 0.930 . S
H2307 C2323 0.959 . S
H2308 C2323 0.959 . S
H2309 C2323 0.961 . S
H2310 C2324 0.960 . S
H2311 C2324 0.961 . S
H2312 C2324 0.959 . S
H2313 C2327 0.929 . S
H2314 C2328 0.931 . S
H2315 C2330 0.930 . S
C2316 H2304 0.930 . S
C2316 C2317 1.399 . S
C2316 C2321 1.399 . S
C2317 C2316 1.399 . S
C2317 C2318 1.376 . S
C2318 H2305 0.930 . S
C2318 C2317 1.376 . S
C2318 C2319 1.388 . S
C2319 H2306 0.930 . S
C2319 C2318 1.388 . S
C2319 C2320 1.390 . S
C2320 C2319 1.390 . S
C2320 C2321 1.394 . S
C2320 C2326 1.465 . S
C2321 C2316 1.399 . S
C2321 C2320 1.394 . S
C2321 C2322 1.516 . S
C2322 C2321 1.516 . S
C2322 C2323 1.502 . S
C2322 C2324 1.561 . S
C2322 C2325 1.526 . S
C2323 H2307 0.959 . S
C2323 H2308 0.959 . S
C2323 H2309 0.961 . S
C2323 C2322 1.502 . S
C2324 H2310 0.960 . S
C2324 H2311 0.961 . S
C2324 H2312 0.959 . S
C2324 C2322 1.561 . S
C2325 C2322 1.526 . S
C2325 C2326 1.396 . S
C2325 C2330 1.390 . S
C2326 C2320 1.465 . S
C2326 C2325 1.396 . S
C2326 C2327 1.399 . S
C2327 H2313 0.929 . S
C2327 C2326 1.399 . S
C2327 C2328 1.385 . S
C2328 H2314 0.931 . S
C2328 C2327 1.385 . S
C2328 C2329 1.389 . S
C2329 C2328 1.389 . S
C2329 C2330 1.387 . S
C2330 H2315 0.930 . S
C2330 C2325 1.390 . S
C2330 C2329 1.387 . S
H2331 C2343 0.930 . S
H2332 C2345 0.930 . S
H2333 C2346 0.930 . S
H2334 C2350 0.959 . S
H2335 C2350 0.959 . S
H2336 C2350 0.961 . S
H2337 C2351 0.960 . S
H2338 C2351 0.961 . S
H2339 C2351 0.959 . S
H2340 C2354 0.929 . S
H2341 C2355 0.931 . S
H2342 C2357 0.930 . S
C2343 H2331 0.930 . S
C2343 C2344 1.399 . S
C2343 C2348 1.399 . S
C2344 C2343 1.399 . S
C2344 C2345 1.376 . S
C2345 H2332 0.930 . S
C2345 C2344 1.376 . S
C2345 C2346 1.388 . S
C2346 H2333 0.930 . S
C2346 C2345 1.388 . S
C2346 C2347 1.390 . S
C2347 C2346 1.390 . S
C2347 C2348 1.394 . S
C2347 C2353 1.465 . S
C2348 C2343 1.399 . S
C2348 C2347 1.394 . S
C2348 C2349 1.516 . S
C2349 C2348 1.516 . S
C2349 C2350 1.502 . S
C2349 C2351 1.561 . S
C2349 C2352 1.526 . S
C2350 H2334 0.959 . S
C2350 H2335 0.959 . S
C2350 H2336 0.961 . S
C2350 C2349 1.502 . S
C2351 H2337 0.960 . S
C2351 H2338 0.961 . S
C2351 H2339 0.959 . S
C2351 C2349 1.561 . S
C2352 C2349 1.526 . S
C2352 C2353 1.396 . S
C2352 C2357 1.390 . S
C2353 C2347 1.465 . S
C2353 C2352 1.396 . S
C2353 C2354 1.399 . S
C2354 H2340 0.929 . S
C2354 C2353 1.399 . S
C2354 C2355 1.385 . S
C2355 H2341 0.931 . S
C2355 C2354 1.385 . S
C2355 C2356 1.389 . S
C2356 C2355 1.389 . S
C2356 C2357 1.387 . S
C2357 H2342 0.930 . S
C2357 C2352 1.390 . S
C2357 C2356 1.387 . S
H2358 C2370 0.930 . S
H2359 C2372 0.930 . S
H2360 C2373 0.930 . S
H2361 C2377 0.959 . S
H2362 C2377 0.959 . S
H2363 C2377 0.961 . S
H2364 C2378 0.960 . S
H2365 C2378 0.961 . S
H2366 C2378 0.959 . S
H2367 C2381 0.929 . S
H2368 C2382 0.931 . S
H2369 C2384 0.930 . S
C2370 H2358 0.930 . S
C2370 C2371 1.399 . S
C2370 C2375 1.399 . S
C2371 C2370 1.399 . S
C2371 C2372 1.376 . S
C2372 H2359 0.930 . S
C2372 C2371 1.376 . S
C2372 C2373 1.388 . S
C2373 H2360 0.930 . S
C2373 C2372 1.388 . S
C2373 C2374 1.390 . S
C2374 C2373 1.390 . S
C2374 C2375 1.394 . S
C2374 C2380 1.465 . S
C2375 C2370 1.399 . S
C2375 C2374 1.394 . S
C2375 C2376 1.516 . S
C2376 C2375 1.516 . S
C2376 C2377 1.502 . S
C2376 C2378 1.561 . S
C2376 C2379 1.526 . S
C2377 H2361 0.959 . S
C2377 H2362 0.959 . S
C2377 H2363 0.961 . S
C2377 C2376 1.502 . S
C2378 H2364 0.960 . S
C2378 H2365 0.961 . S
C2378 H2366 0.959 . S
C2378 C2376 1.561 . S
C2379 C2376 1.526 . S
C2379 C2380 1.396 . S
C2379 C2384 1.390 . S
C2380 C2374 1.465 . S
C2380 C2379 1.396 . S
C2380 C2381 1.399 . S
C2381 H2367 0.929 . S
C2381 C2380 1.399 . S
C2381 C2382 1.385 . S
C2382 H2368 0.931 . S
C2382 C2381 1.385 . S
C2382 C2383 1.389 . S
C2383 C2382 1.389 . S
C2383 C2384 1.387 . S
C2384 H2369 0.930 . S
C2384 C2379 1.390 . S
C2384 C2383 1.387 . S
H2385 C2397 0.930 . S
H2386 C2399 0.930 . S
H2387 C2400 0.930 . S
H2388 C2404 0.959 . S
H2389 C2404 0.959 . S
H2390 C2404 0.961 . S
H2391 C2405 0.960 . S
H2392 C2405 0.961 . S
H2393 C2405 0.959 . S
H2394 C2408 0.929 . S
H2395 C2409 0.931 . S
H2396 C2411 0.930 . S
C2397 H2385 0.930 . S
C2397 C2398 1.399 . S
C2397 C2402 1.399 . S
C2398 C2397 1.399 . S
C2398 C2399 1.376 . S
C2399 H2386 0.930 . S
C2399 C2398 1.376 . S
C2399 C2400 1.388 . S
C2400 H2387 0.930 . S
C2400 C2399 1.388 . S
C2400 C2401 1.390 . S
C2401 C2400 1.390 . S
C2401 C2402 1.394 . S
C2401 C2407 1.465 . S
C2402 C2397 1.399 . S
C2402 C2401 1.394 . S
C2402 C2403 1.516 . S
C2403 C2402 1.516 . S
C2403 C2404 1.502 . S
C2403 C2405 1.561 . S
C2403 C2406 1.526 . S
C2404 H2388 0.959 . S
C2404 H2389 0.959 . S
C2404 H2390 0.961 . S
C2404 C2403 1.502 . S
C2405 H2391 0.960 . S
C2405 H2392 0.961 . S
C2405 H2393 0.959 . S
C2405 C2403 1.561 . S
C2406 C2403 1.526 . S
C2406 C2407 1.396 . S
C2406 C2411 1.390 . S
C2407 C2401 1.465 . S
C2407 C2406 1.396 . S
C2407 C2408 1.399 . S
C2408 H2394 0.929 . S
C2408 C2407 1.399 . S
C2408 C2409 1.385 . S
C2409 H2395 0.931 . S
C2409 C2408 1.385 . S
C2409 C2410 1.389 . S
C2410 C2409 1.389 . S
C2410 C2411 1.387 . S
C2411 H2396 0.930 . S
C2411 C2406 1.390 . S
C2411 C2410 1.387 . S
C805 N14 0.736 . S
C817 N113 0.604 . S
C832 N146 0.711 . S
C844 N47 0.644 . S
C859 N179 0.720 . S
C871 N80 0.632 . S
C886 N311 0.721 . S
C898 N212 0.630 . S
C913 N245 0.605 . S
C925 N344 0.692 . S
C940 N278 0.577 . S
C952 N377 0.733 . S
C967 N509 0.606 . S
C979 N410 0.702 . S
C994 N542 0.722 . S
C1006 N443 0.617 . S
C1021 N575 0.722 . S
C1033 N476 0.616 . S
C1048 N707 0.623 . S
C1060 N608 0.685 . S
C1075 N641 0.610 . S
C1087 N740 0.698 . S
C1102 N773 0.606 . S
C1114 N674 0.702 . S
C1129 N269 1.390 . S
C1141 N5 1.365 . S
C1156 N38 1.401 . S
C1168 N302 1.358 . S
C1183 N71 1.429 . S
C1195 N335 1.361 . S
C1210 N104 1.428 . S
C1222 N368 1.370 . S
C1237 N137 1.380 . S
C1249 N203 1.422 . S
C1264 N236 1.376 . S
C1276 N170 1.377 . S
C1291 N401 1.374 . S
C1303 N665 1.428 . S
C1318 N698 1.359 . S
C1330 N434 1.374 . S
C1345 N731 1.383 . S
C1357 N467 1.355 . S
C1372 N500 1.425 . S
C1384 N764 1.366 . S
C1399 N599 1.352 . S
C1411 N533 1.388 . S
C1426 N632 1.357 . S
C1438 N566 1.377 . S
C1453 C8 1.489 . S
C1465 C239 1.496 . S
C1480 C41 1.518 . S
C1492 C272 1.518 . S
C1507 C305 1.518 . S
C1519 C74 1.519 . S
C1534 C107 1.459 . S
C1546 C338 1.465 . S
C1561 C371 1.484 . S
C1573 C140 1.477 . S
C1588 C206 1.448 . S
C1600 C173 1.449 . S
C1615 C404 1.461 . S
C1627 C635 1.475 . S
C1642 C437 1.494 . S
C1654 C668 1.506 . S
C1669 C470 1.519 . S
C1681 C701 1.516 . S
C1696 C503 1.463 . S
C1708 C734 1.477 . S
C1723 C536 1.488 . S
C1735 C767 1.474 . S
C1750 C602 1.471 . S
C1762 C569 1.460 . S
C1777 C28 0.650 . S
C1789 C358 0.676 . S
C1804 C391 0.716 . S
C1816 C61 0.697 . S
C1831 C226 0.651 . S
C1843 C94 0.621 . S
C1858 C259 0.539 . S
C1870 C127 0.527 . S
C1885 C160 0.728 . S
C1897 C292 0.728 . S
C1912 C193 0.522 . S
C1924 C325 0.524 . S
C1939 C424 0.565 . S
C1951 C754 0.542 . S
C1966 C787 0.625 . S
C1978 C457 0.657 . S
C1993 C622 0.555 . S
C2005 C490 0.535 . S
C2020 C523 0.723 . S
C2032 C655 0.728 . S
C2047 C556 0.714 . S
C2059 C688 0.725 . S
C2074 C721 0.726 . S
C2086 C589 0.711 . S
C2101 C17 1.420 . S
C2113 C512 1.422 . S
C2128 C50 1.441 . S
C2140 C545 1.437 . S
C2155 C83 1.425 . S
C2167 C578 1.423 . S
C2182 C116 1.448 . S
C2194 C413 1.447 . S
C2209 C149 1.441 . S
C2221 C446 1.437 . S
C2236 C479 1.422 . S
C2248 C182 1.421 . S
C2263 C215 1.440 . S
C2275 C710 1.436 . S
C2290 C248 1.419 . S
C2302 C743 1.420 . S
C2317 C281 1.442 . S
C2329 C776 1.445 . S
C2344 C314 1.427 . S
C2356 C611 1.431 . S
C2371 C347 1.447 . S
C2383 C644 1.445 . S
C2398 C677 1.422 . S
C2410 C380 1.421 . S
