# Generated by pormake.
# Topology uke, (4)-cn, num edge types: 1
# Building blocks:
#     Node 0, Type 0, BuildingBlock: AZAVOO_clean_sbu_0, # of connection points: 4
#     Node 1, Type 0, BuildingBlock: AZAVOO_clean_sbu_0, # of connection points: 4
#     Node 2, Type 0, BuildingBlock: AZAVOO_clean_sbu_0, # of connection points: 4
#     Node 3, Type 0, BuildingBlock: AZAVOO_clean_sbu_0, # of connection points: 4
#     Node 4, Type 0, BuildingBlock: AZAVOO_clean_sbu_0, # of connection points: 4
#     Node 5, Type 0, BuildingBlock: AZAVOO_clean_sbu_0, # of connection points: 4
#     Node 6, Type 0, BuildingBlock: AZAVOO_clean_sbu_0, # of connection points: 4
#     Node 7, Type 0, BuildingBlock: AZAVOO_clean_sbu_0, # of connection points: 4
#     Node 8, Type 0, BuildingBlock: AZAVOO_clean_sbu_0, # of connection points: 4
#     Node 9, Type 0, BuildingBlock: AZAVOO_clean_sbu_0, # of connection points: 4
#     Node 10, Type 0, BuildingBlock: AZAVOO_clean_sbu_0, # of connection points: 4
#     Node 11, Type 0, BuildingBlock: AZAVOO_clean_sbu_0, # of connection points: 4
#     Node 12, Type 0, BuildingBlock: AZAVOO_clean_sbu_0, # of connection points: 4
#     Node 13, Type 0, BuildingBlock: AZAVOO_clean_sbu_0, # of connection points: 4
#     Node 14, Type 0, BuildingBlock: AZAVOO_clean_sbu_0, # of connection points: 4
#     Node 15, Type 0, BuildingBlock: AZAVOO_clean_sbu_0, # of connection points: 4
#     Node 16, Type 0, BuildingBlock: AZAVOO_clean_sbu_0, # of connection points: 4
#     Node 17, Type 0, BuildingBlock: AZAVOO_clean_sbu_0, # of connection points: 4
#     Node 18, Type 0, BuildingBlock: AZAVOO_clean_sbu_0, # of connection points: 4
#     Node 19, Type 0, BuildingBlock: AZAVOO_clean_sbu_0, # of connection points: 4
#     Node 20, Type 0, BuildingBlock: AZAVOO_clean_sbu_0, # of connection points: 4
#     Node 21, Type 0, BuildingBlock: AZAVOO_clean_sbu_0, # of connection points: 4
#     Node 22, Type 0, BuildingBlock: AZAVOO_clean_sbu_0, # of connection points: 4
#     Node 23, Type 0, BuildingBlock: AZAVOO_clean_sbu_0, # of connection points: 4
#     Node 24, Type 0, BuildingBlock: AZAVOO_clean_sbu_0, # of connection points: 4
#     Node 25, Type 0, BuildingBlock: AZAVOO_clean_sbu_0, # of connection points: 4
#     Node 26, Type 0, BuildingBlock: AZAVOO_clean_sbu_0, # of connection points: 4
#     Node 27, Type 0, BuildingBlock: AZAVOO_clean_sbu_0, # of connection points: 4
#     Node 28, Type 0, BuildingBlock: AZAVOO_clean_sbu_0, # of connection points: 4
#     Node 29, Type 0, BuildingBlock: AZAVOO_clean_sbu_0, # of connection points: 4
#     Node 30, Type 0, BuildingBlock: AZAVOO_clean_sbu_0, # of connection points: 4
#     Node 31, Type 0, BuildingBlock: AZAVOO_clean_sbu_0, # of connection points: 4
#     Edge 32, Type (0, 0), BuildingBlock: UVAHIK_clean_linker_0, # of connection points: 2
#     Edge 33, Type (0, 0), BuildingBlock: UVAHIK_clean_linker_0, # of connection points: 2
#     Edge 34, Type (0, 0), BuildingBlock: UVAHIK_clean_linker_0, # of connection points: 2
#     Edge 35, Type (0, 0), BuildingBlock: UVAHIK_clean_linker_0, # of connection points: 2
#     Edge 36, Type (0, 0), BuildingBlock: UVAHIK_clean_linker_0, # of connection points: 2
#     Edge 37, Type (0, 0), BuildingBlock: UVAHIK_clean_linker_0, # of connection points: 2
#     Edge 38, Type (0, 0), BuildingBlock: UVAHIK_clean_linker_0, # of connection points: 2
#     Edge 39, Type (0, 0), BuildingBlock: UVAHIK_clean_linker_0, # of connection points: 2
#     Edge 40, Type (0, 0), BuildingBlock: UVAHIK_clean_linker_0, # of connection points: 2
#     Edge 41, Type (0, 0), BuildingBlock: UVAHIK_clean_linker_0, # of connection points: 2
#     Edge 42, Type (0, 0), BuildingBlock: UVAHIK_clean_linker_0, # of connection points: 2
#     Edge 43, Type (0, 0), BuildingBlock: UVAHIK_clean_linker_0, # of connection points: 2
#     Edge 44, Type (0, 0), BuildingBlock: UVAHIK_clean_linker_0, # of connection points: 2
#     Edge 45, Type (0, 0), BuildingBlock: UVAHIK_clean_linker_0, # of connection points: 2
#     Edge 46, Type (0, 0), BuildingBlock: UVAHIK_clean_linker_0, # of connection points: 2
#     Edge 47, Type (0, 0), BuildingBlock: UVAHIK_clean_linker_0, # of connection points: 2
#     Edge 48, Type (0, 0), BuildingBlock: UVAHIK_clean_linker_0, # of connection points: 2
#     Edge 49, Type (0, 0), BuildingBlock: UVAHIK_clean_linker_0, # of connection points: 2
#     Edge 50, Type (0, 0), BuildingBlock: UVAHIK_clean_linker_0, # of connection points: 2
#     Edge 51, Type (0, 0), BuildingBlock: UVAHIK_clean_linker_0, # of connection points: 2
#     Edge 52, Type (0, 0), BuildingBlock: UVAHIK_clean_linker_0, # of connection points: 2
#     Edge 53, Type (0, 0), BuildingBlock: UVAHIK_clean_linker_0, # of connection points: 2
#     Edge 54, Type (0, 0), BuildingBlock: UVAHIK_clean_linker_0, # of connection points: 2
#     Edge 55, Type (0, 0), BuildingBlock: UVAHIK_clean_linker_0, # of connection points: 2
#     Edge 56, Type (0, 0), BuildingBlock: UVAHIK_clean_linker_0, # of connection points: 2
#     Edge 57, Type (0, 0), BuildingBlock: UVAHIK_clean_linker_0, # of connection points: 2
#     Edge 58, Type (0, 0), BuildingBlock: UVAHIK_clean_linker_0, # of connection points: 2
#     Edge 59, Type (0, 0), BuildingBlock: UVAHIK_clean_linker_0, # of connection points: 2
#     Edge 60, Type (0, 0), BuildingBlock: UVAHIK_clean_linker_0, # of connection points: 2
#     Edge 61, Type (0, 0), BuildingBlock: UVAHIK_clean_linker_0, # of connection points: 2
#     Edge 62, Type (0, 0), BuildingBlock: UVAHIK_clean_linker_0, # of connection points: 2
#     Edge 63, Type (0, 0), BuildingBlock: UVAHIK_clean_linker_0, # of connection points: 2
#     Edge 64, Type (0, 0), BuildingBlock: UVAHIK_clean_linker_0, # of connection points: 2
#     Edge 65, Type (0, 0), BuildingBlock: UVAHIK_clean_linker_0, # of connection points: 2
#     Edge 66, Type (0, 0), BuildingBlock: UVAHIK_clean_linker_0, # of connection points: 2
#     Edge 67, Type (0, 0), BuildingBlock: UVAHIK_clean_linker_0, # of connection points: 2
#     Edge 68, Type (0, 0), BuildingBlock: UVAHIK_clean_linker_0, # of connection points: 2
#     Edge 69, Type (0, 0), BuildingBlock: UVAHIK_clean_linker_0, # of connection points: 2
#     Edge 70, Type (0, 0), BuildingBlock: UVAHIK_clean_linker_0, # of connection points: 2
#     Edge 71, Type (0, 0), BuildingBlock: UVAHIK_clean_linker_0, # of connection points: 2
#     Edge 72, Type (0, 0), BuildingBlock: UVAHIK_clean_linker_0, # of connection points: 2
#     Edge 73, Type (0, 0), BuildingBlock: UVAHIK_clean_linker_0, # of connection points: 2
#     Edge 74, Type (0, 0), BuildingBlock: UVAHIK_clean_linker_0, # of connection points: 2
#     Edge 75, Type (0, 0), BuildingBlock: UVAHIK_clean_linker_0, # of connection points: 2
#     Edge 76, Type (0, 0), BuildingBlock: UVAHIK_clean_linker_0, # of connection points: 2
#     Edge 77, Type (0, 0), BuildingBlock: UVAHIK_clean_linker_0, # of connection points: 2
#     Edge 78, Type (0, 0), BuildingBlock: UVAHIK_clean_linker_0, # of connection points: 2
#     Edge 79, Type (0, 0), BuildingBlock: UVAHIK_clean_linker_0, # of connection points: 2
#     Edge 80, Type (0, 0), BuildingBlock: UVAHIK_clean_linker_0, # of connection points: 2
#     Edge 81, Type (0, 0), BuildingBlock: UVAHIK_clean_linker_0, # of connection points: 2
#     Edge 82, Type (0, 0), BuildingBlock: UVAHIK_clean_linker_0, # of connection points: 2
#     Edge 83, Type (0, 0), BuildingBlock: UVAHIK_clean_linker_0, # of connection points: 2
#     Edge 84, Type (0, 0), BuildingBlock: UVAHIK_clean_linker_0, # of connection points: 2
#     Edge 85, Type (0, 0), BuildingBlock: UVAHIK_clean_linker_0, # of connection points: 2
#     Edge 86, Type (0, 0), BuildingBlock: UVAHIK_clean_linker_0, # of connection points: 2
#     Edge 87, Type (0, 0), BuildingBlock: UVAHIK_clean_linker_0, # of connection points: 2
#     Edge 88, Type (0, 0), BuildingBlock: UVAHIK_clean_linker_0, # of connection points: 2
#     Edge 89, Type (0, 0), BuildingBlock: UVAHIK_clean_linker_0, # of connection points: 2
#     Edge 90, Type (0, 0), BuildingBlock: UVAHIK_clean_linker_0, # of connection points: 2
#     Edge 91, Type (0, 0), BuildingBlock: UVAHIK_clean_linker_0, # of connection points: 2
#     Edge 92, Type (0, 0), BuildingBlock: UVAHIK_clean_linker_0, # of connection points: 2
#     Edge 93, Type (0, 0), BuildingBlock: UVAHIK_clean_linker_0, # of connection points: 2
#     Edge 94, Type (0, 0), BuildingBlock: UVAHIK_clean_linker_0, # of connection points: 2
#     Edge 95, Type (0, 0), BuildingBlock: UVAHIK_clean_linker_0, # of connection points: 2
# Relax obj value: 0.252
# Max RMSD: 0.251
# Mean RMSD: 0.251
data_MOF--net-uke--node1-AZAVOO_clean_sbu_0--edge1-UVAHIK_clean_linker_0
_symmetry_space_group_name_H-M    P1
_symmetry_Int_Tables_number       1
_symmetry_cell_setting            triclinic
loop_
_symmetry_equiv_pos_as_xyz
'x, y, z'
_cell_length_a     37.293836
_cell_length_b     136.39076
_cell_length_c     53.358278
_cell_angle_alpha  90.010025
_cell_angle_beta   89.968121
_cell_angle_gamma 90.005513
loop_
_atom_site_label
_atom_site_type_symbol
_atom_site_fract_x
_atom_site_fract_y
_atom_site_fract_z
_atom_type_partial_charge
Mg0 Mg 0.1034 0.04619 0.31758 0.0
O1 O 0.09877 0.04641 0.27472 0.0
O2 O 0.05555 0.05681 0.26325 0.0
Mg3 Mg 0.03322 0.06345 0.2993 0.0
C4 C 0.08007 0.05063 0.25788 0.0
C5 C 0.16381 0.03296 0.30002 0.0
O6 O 0.17263 0.0415 0.29046 0.0
O7 O 0.05221 0.03737 0.32095 0.0
O8 O 0.01037 0.04835 0.31044 0.0
O9 O 0.1432 0.05808 0.31534 0.0
O10 O 0.0847 0.06058 0.31876 0.0
C11 C 0.01955 0.03975 0.31748 0.0
C12 C 0.11644 0.06412 0.3153 0.0
O13 O 0.13617 0.03236 0.31385 0.0
Mg14 Mg 0.1535 0.18574 0.31094 0.0
O15 O 0.15688 0.18741 0.26819 0.0
O16 O 0.20612 0.17965 0.25491 0.0
Mg17 Mg 0.23253 0.17253 0.28897 0.0
C18 C 0.17811 0.18476 0.25068 0.0
C19 C 0.08426 0.19699 0.29963 0.0
O20 O 0.07844 0.18873 0.28765 0.0
O21 O 0.199 0.19647 0.31662 0.0
O22 O 0.2469 0.18777 0.30491 0.0
O23 O 0.12096 0.17244 0.30594 0.0
O24 O 0.18024 0.17239 0.30864 0.0
C25 C 0.23277 0.1956 0.31369 0.0
C26 C 0.15084 0.16763 0.30476 0.0
O27 O 0.11318 0.19803 0.31188 0.0
Mg28 Mg 0.10824 0.18601 0.93158 0.0
O29 O 0.10182 0.18685 0.97418 0.0
O30 O 0.05641 0.17741 0.9867 0.0
Mg31 Mg 0.03285 0.17072 0.95098 0.0
C32 C 0.08212 0.1833 0.99146 0.0
C33 C 0.17143 0.19848 0.9488 0.0
O34 O 0.17861 0.19 0.9593 0.0
O35 O 0.06004 0.19583 0.9259 0.0
O36 O 0.01499 0.18609 0.93793 0.0
O37 O 0.1439 0.17328 0.93688 0.0
O38 O 0.08506 0.17215 0.93146 0.0
C39 C 0.02677 0.19428 0.92966 0.0
C40 C 0.1152 0.16794 0.93641 0.0
O41 O 0.14448 0.19918 0.93439 0.0
Mg42 Mg 0.15167 0.04584 0.93813 0.0
O43 O 0.15673 0.04552 0.98087 0.0
O44 O 0.20221 0.05499 0.99314 0.0
Mg45 Mg 0.22699 0.06119 0.9573 0.0
C46 C 0.17612 0.04926 0.99806 0.0
C47 C 0.0876 0.03361 0.95526 0.0
O48 O 0.08045 0.04218 0.96536 0.0
O49 O 0.19986 0.03592 0.93363 0.0
O50 O 0.24498 0.04565 0.9457 0.0
O51 O 0.11615 0.05866 0.942 0.0
O52 O 0.17518 0.05965 0.93727 0.0
C53 C 0.23305 0.03742 0.93781 0.0
C54 C 0.14498 0.06396 0.9415 0.0
O55 O 0.11501 0.03275 0.94132 0.0
Mg56 Mg 0.88174 0.93637 0.69053 0.0
O57 O 0.89186 0.93683 0.73284 0.0
O58 O 0.93461 0.92612 0.74312 0.0
Mg59 Mg 0.9524 0.91895 0.70641 0.0
C60 C 0.9116 0.93263 0.74914 0.0
C61 C 0.82599 0.95083 0.71042 0.0
O62 O 0.81734 0.9428 0.7226 0.0
O63 O 0.93294 0.94472 0.68276 0.0
O64 O 0.97509 0.93371 0.69243 0.0
O65 O 0.84168 0.92471 0.69714 0.0
O66 O 0.89926 0.92194 0.68948 0.0
C67 C 0.96572 0.94221 0.68476 0.0
C68 C 0.86812 0.91859 0.69557 0.0
O69 O 0.85117 0.95053 0.69443 0.0
Mg70 Mg 0.84267 0.79774 0.6922 0.0
O71 O 0.83756 0.7952 0.73444 0.0
O72 O 0.7867 0.80195 0.74814 0.0
Mg73 Mg 0.75908 0.80872 0.714 0.0
C74 C 0.81574 0.79726 0.75209 0.0
C75 C 0.91655 0.78828 0.70163 0.0
O76 O 0.92214 0.79709 0.71076 0.0
O77 O 0.801 0.78616 0.68395 0.0
O78 O 0.75042 0.79336 0.69672 0.0
O79 O 0.87041 0.81156 0.70063 0.0
O80 O 0.81158 0.81042 0.69505 0.0
C81 C 0.76711 0.7861 0.68699 0.0
C82 C 0.83907 0.81563 0.70124 0.0
O83 O 0.88651 0.78634 0.6916 0.0
Mg84 Mg 0.89263 0.79473 0.07095 0.0
O85 O 0.8962 0.79487 0.02799 0.0
O86 O 0.94142 0.80449 0.01591 0.0
Mg87 Mg 0.96665 0.81055 0.05163 0.0
C88 C 0.91537 0.79876 0.01087 0.0
C89 C 0.82885 0.78252 0.05391 0.0
O90 O 0.82101 0.79122 0.04487 0.0
O91 O 0.94133 0.78493 0.07355 0.0
O92 O 0.98575 0.79493 0.06163 0.0
O93 O 0.85619 0.8074 0.06942 0.0
O94 O 0.91532 0.80866 0.07215 0.0
C95 C 0.97429 0.78658 0.06892 0.0
C96 C 0.88458 0.81287 0.06939 0.0
O97 O 0.85659 0.78155 0.06746 0.0
Mg98 Mg 0.85486 0.93569 0.07103 0.0
O99 O 0.85003 0.93597 0.02814 0.0
O100 O 0.80285 0.92699 0.01647 0.0
Mg101 Mg 0.7782 0.92074 0.05218 0.0
C102 C 0.82958 0.93244 0.01123 0.0
C103 C 0.91996 0.94753 0.05404 0.0
O104 O 0.92633 0.93894 0.04381 0.0
O105 O 0.80736 0.9459 0.0754 0.0
O106 O 0.76145 0.93631 0.0641 0.0
O107 O 0.88952 0.92262 0.06815 0.0
O108 O 0.83039 0.92199 0.07183 0.0
C109 C 0.77401 0.94451 0.07165 0.0
C110 C 0.86037 0.91746 0.06844 0.0
O111 O 0.89261 0.94855 0.06797 0.0
Mg112 Mg 0.08794 0.55106 0.80248 0.0
O113 O 0.08083 0.54939 0.76022 0.0
O114 O 0.03013 0.55663 0.7481 0.0
Mg115 Mg 0.0047 0.56296 0.7837 0.0
C116 C 0.05867 0.55184 0.74317 0.0
C117 C 0.1573 0.54066 0.78617 0.0
O118 O 0.16035 0.54896 0.77388 0.0
O119 O 0.04553 0.53961 0.81026 0.0
O120 O -0.00484 0.54741 0.79951 0.0
O121 O 0.11651 0.56493 0.7956 0.0
O122 O 0.05786 0.56391 0.80217 0.0
C123 C 0.01153 0.53988 0.80806 0.0
C124 C 0.08549 0.56918 0.79666 0.0
O125 O 0.13063 0.53939 0.8006 0.0
Mg126 Mg 0.12832 0.68984 0.83209 0.0
O127 O 0.13464 0.68848 0.78949 0.0
O128 O 0.17454 0.67688 0.77989 0.0
Mg129 Mg 0.19548 0.67123 0.81741 0.0
C130 C 0.15192 0.68342 0.77342 0.0
C131 C 0.07319 0.70384 0.80984 0.0
O132 O 0.06205 0.69532 0.80137 0.0
O133 O 0.18095 0.69798 0.83515 0.0
O134 O 0.22082 0.68638 0.82498 0.0
O135 O 0.08661 0.6784 0.82999 0.0
O136 O 0.14443 0.67535 0.83604 0.0
C137 C 0.21299 0.69518 0.83108 0.0
C138 C 0.11254 0.67211 0.83162 0.0
O139 O 0.09933 0.70408 0.82505 0.0
Mg140 Mg 0.07776 0.68586 0.45317 0.0
O141 O 0.07534 0.68526 0.49605 0.0
O142 O 0.02874 0.67607 0.50779 0.0
Mg143 Mg 0.00237 0.67045 0.47193 0.0
C144 C 0.05577 0.68142 0.51301 0.0
C145 C 0.14374 0.69754 0.46957 0.0
O146 O 0.15049 0.68889 0.47929 0.0
O147 O 0.03003 0.69605 0.45166 0.0
O148 O 0.98448 0.68623 0.46233 0.0
O149 O 0.11282 0.67289 0.45315 0.0
O150 O 0.05353 0.67215 0.4511 0.0
C151 C -0.00321 0.69458 0.45569 0.0
C152 C 0.08387 0.66764 0.45283 0.0
O153 O 0.11556 0.69871 0.45656 0.0
Mg154 Mg 0.13962 0.54608 0.42382 0.0
O155 O 0.14148 0.54694 0.46681 0.0
O156 O 0.18335 0.5577 0.47859 0.0
Mg157 Mg 0.2082 0.56375 0.44276 0.0
C158 C 0.15881 0.55151 0.48379 0.0
C159 C 0.07853 0.53303 0.44115 0.0
O160 O 0.06905 0.54172 0.44942 0.0
O161 O 0.19119 0.53731 0.42291 0.0
O162 O 0.23188 0.54848 0.43455 0.0
O163 O 0.09968 0.558 0.42363 0.0
O164 O 0.15833 0.56046 0.42174 0.0
C165 C 0.22334 0.53979 0.4279 0.0
C166 C 0.12644 0.56405 0.42386 0.0
O167 O 0.10684 0.53224 0.42806 0.0
Mg168 Mg 0.90083 0.43442 0.18635 0.0
O169 O 0.90188 0.43615 0.22907 0.0
O170 O 0.95028 0.42867 0.24447 0.0
Mg171 Mg 0.98066 0.42235 0.21099 0.0
C172 C 0.92152 0.43359 0.24751 0.0
C173 C 0.82899 0.44451 0.19685 0.0
O174 O 0.82409 0.43596 0.20767 0.0
O175 O 0.94444 0.44579 0.1816 0.0
O176 O 0.99251 0.43803 0.19696 0.0
O177 O 0.87103 0.42066 0.19139 0.0
O178 O 0.93039 0.4215 0.18895 0.0
C179 C 0.97765 0.44555 0.18714 0.0
C180 C 0.90189 0.41635 0.19279 0.0
O181 O 0.85813 0.44611 0.18523 0.0
Mg182 Mg 0.85382 0.2949 0.18098 0.0
O183 O 0.84228 0.29734 0.22267 0.0
O184 O 0.80347 0.30956 0.22831 0.0
Mg185 Mg 0.78634 0.31406 0.18884 0.0
C186 C 0.82432 0.30298 0.23701 0.0
C187 C 0.90615 0.28194 0.20903 0.0
O188 O 0.9141 0.29076 0.21722 0.0
O189 O 0.80147 0.28676 0.17642 0.0
O190 O 0.76138 0.29874 0.18262 0.0
O191 O 0.89557 0.30633 0.18325 0.0
O192 O 0.83875 0.30929 0.17353 0.0
C193 C 0.76927 0.28977 0.17838 0.0
C194 C 0.87023 0.31259 0.17893 0.0
O195 O 0.88239 0.28099 0.19215 0.0
Mg196 Mg 0.8981 0.29694 0.55737 0.0
O197 O 0.90137 0.29865 0.51462 0.0
O198 O 0.94191 0.31005 0.50494 0.0
Mg199 Mg 0.96646 0.31512 0.54187 0.0
C200 C 0.91816 0.30381 0.49851 0.0
C201 C 0.83916 0.28359 0.53696 0.0
O202 O 0.83001 0.29214 0.52756 0.0
O203 O 0.94981 0.28834 0.558 0.0
O204 O 0.9907 0.29973 0.54835 0.0
O205 O 0.8576 0.30872 0.55852 0.0
O206 O 0.91611 0.31128 0.56172 0.0
C207 C 0.98211 0.29091 0.55388 0.0
C208 C 0.88414 0.31483 0.55972 0.0
O209 O 0.86621 0.28307 0.55134 0.0
Mg210 Mg 0.84146 0.43731 0.5644 0.0
O211 O 0.83576 0.43768 0.52168 0.0
O212 O 0.78802 0.42893 0.51014 0.0
Mg213 Mg 0.76383 0.42263 0.54608 0.0
C214 C 0.81495 0.43431 0.50481 0.0
C215 C 0.9074 0.44878 0.54736 0.0
O216 O 0.91357 0.44008 0.53776 0.0
O217 O 0.79459 0.44768 0.56917 0.0
O218 O 0.74797 0.43817 0.55905 0.0
O219 O 0.87546 0.42415 0.5611 0.0
O220 O 0.81641 0.42365 0.56531 0.0
C221 C 0.76099 0.44635 0.56644 0.0
C222 C 0.84619 0.41905 0.56159 0.0
O223 O 0.87982 0.45003 0.56097 0.0
Mg224 Mg 0.58348 0.05059 0.79751 0.0
O225 O 0.57667 0.04908 0.75516 0.0
O226 O 0.52691 0.0568 0.74303 0.0
Mg227 Mg 0.50202 0.06333 0.77858 0.0
C228 C 0.55486 0.05176 0.7381 0.0
C229 C 0.65195 0.03971 0.78172 0.0
O230 O 0.65578 0.04796 0.76932 0.0
O231 O 0.53961 0.0395 0.80462 0.0
O232 O 0.49031 0.04779 0.79386 0.0
O233 O 0.61395 0.06418 0.79118 0.0
O234 O 0.55509 0.06372 0.79729 0.0
C235 C 0.50568 0.04008 0.80222 0.0
C236 C 0.5835 0.06873 0.79216 0.0
O237 O 0.62489 0.03859 0.79587 0.0
Mg238 Mg 0.63394 0.1892 0.83348 0.0
O239 O 0.63862 0.18863 0.79062 0.0
O240 O 0.67957 0.17758 0.77911 0.0
Mg241 Mg 0.70273 0.17146 0.81546 0.0
C242 C 0.65596 0.18401 0.77374 0.0
C243 C 0.57457 0.20248 0.81465 0.0
O244 O 0.56537 0.19383 0.80589 0.0
O245 O 0.68558 0.19785 0.83618 0.0
O246 O 0.72626 0.18674 0.82411 0.0
O247 O 0.59368 0.17742 0.83118 0.0
O248 O 0.65206 0.17478 0.83547 0.0
C249 C 0.71773 0.19538 0.83117 0.0
C250 C 0.62033 0.17135 0.83142 0.0
O251 O 0.60195 0.20314 0.8287 0.0
Mg252 Mg 0.58171 0.18472 0.45398 0.0
O253 O 0.57898 0.18555 0.49688 0.0
O254 O 0.53094 0.17721 0.50995 0.0
Mg255 Mg 0.50414 0.17069 0.47532 0.0
C256 C 0.55858 0.18244 0.51436 0.0
C257 C 0.64948 0.1965 0.46726 0.0
O258 O 0.656 0.18825 0.47913 0.0
O259 O 0.53529 0.19527 0.45 0.0
O260 O 0.48841 0.18625 0.46238 0.0
O261 O 0.61504 0.17143 0.45686 0.0
O262 O 0.55572 0.17125 0.45469 0.0
C263 C 0.50184 0.19425 0.45411 0.0
C264 C 0.58537 0.16649 0.45739 0.0
O265 O 0.621 0.19728 0.4544 0.0
Mg266 Mg 0.62355 0.04533 0.41785 0.0
O267 O 0.62806 0.04542 0.46083 0.0
O268 O 0.67172 0.05567 0.47239 0.0
Mg269 Mg 0.69506 0.06214 0.43657 0.0
C270 C 0.6469 0.04958 0.47771 0.0
C271 C 0.56185 0.03232 0.43497 0.0
O272 O 0.55273 0.04093 0.44397 0.0
O273 O 0.67413 0.03621 0.41427 0.0
O274 O 0.71656 0.04687 0.42596 0.0
O275 O 0.58484 0.05751 0.42043 0.0
O276 O 0.64352 0.0596 0.41691 0.0
C277 C 0.70677 0.03837 0.41859 0.0
C278 C 0.61219 0.06335 0.42065 0.0
O279 O 0.58984 0.03164 0.42151 0.0
Mg280 Mg 0.39856 0.93393 0.19019 0.0
O281 O 0.4021 0.93375 0.23305 0.0
O282 O 0.44745 0.92412 0.24484 0.0
Mg283 Mg 0.47193 0.91783 0.20899 0.0
C284 C 0.42143 0.92984 0.25005 0.0
C285 C 0.3347 0.94641 0.20637 0.0
O286 O 0.32656 0.93783 0.21603 0.0
O287 O 0.44777 0.94354 0.18745 0.0
O288 O 0.49198 0.93325 0.19771 0.0
O289 O 0.36135 0.92143 0.19176 0.0
O290 O 0.42037 0.91989 0.18895 0.0
C291 C 0.48092 0.94169 0.19077 0.0
C292 C 0.38936 0.91582 0.19174 0.0
O293 O 0.36298 0.94723 0.19328 0.0
Mg294 Mg 0.34919 0.79333 0.1806 0.0
O295 O 0.34581 0.79311 0.22345 0.0
O296 O 0.29974 0.80225 0.23629 0.0
Mg297 Mg 0.27392 0.8085 0.20089 0.0
C298 C 0.32646 0.7967 0.24088 0.0
C299 C 0.41347 0.7811 0.19712 0.0
O300 O 0.42046 0.78961 0.20757 0.0
O301 O 0.3013 0.78326 0.17747 0.0
O302 O 0.25599 0.79298 0.18899 0.0
O303 O 0.38467 0.80622 0.18288 0.0
O304 O 0.32546 0.80714 0.18034 0.0
C305 C 0.26802 0.78472 0.18136 0.0
C306 C 0.35586 0.81151 0.18334 0.0
O307 O 0.38619 0.7803 0.18305 0.0
Mg308 Mg 0.41495 0.79337 0.55895 0.0
O309 O 0.41594 0.7937 0.51598 0.0
O310 O 0.4616 0.80303 0.50314 0.0
Mg311 Mg 0.48913 0.80887 0.53827 0.0
C312 C 0.43471 0.79754 0.49856 0.0
C313 C 0.34874 0.78154 0.5441 0.0
O314 O 0.3416 0.79017 0.53434 0.0
O315 O 0.46305 0.78328 0.55995 0.0
O316 O 0.50768 0.79316 0.54779 0.0
O317 O 0.37948 0.80627 0.55899 0.0
O318 O 0.43878 0.80716 0.55998 0.0
C319 C 0.49599 0.78481 0.55497 0.0
C320 C 0.40826 0.81158 0.55845 0.0
O321 O 0.37736 0.78043 0.55665 0.0
Mg322 Mg 0.35423 0.93377 0.57041 0.0
O323 O 0.34946 0.93299 0.52757 0.0
O324 O 0.3064 0.92241 0.51692 0.0
Mg325 Mg 0.28394 0.9163 0.5535 0.0
C326 C 0.33083 0.92854 0.51107 0.0
C327 C 0.41462 0.94681 0.55142 0.0
O328 O 0.42406 0.93812 0.54311 0.0
O329 O 0.30303 0.94263 0.57317 0.0
O330 O 0.26118 0.93159 0.56283 0.0
O331 O 0.39376 0.92175 0.56923 0.0
O332 O 0.33522 0.91944 0.57303 0.0
C333 C 0.27047 0.94024 0.56931 0.0
C334 C 0.36683 0.91577 0.57001 0.0
O335 O 0.38693 0.94756 0.56516 0.0
Mg336 Mg 0.6183 0.54584 0.31551 0.0
O337 O 0.60538 0.54603 0.27361 0.0
O338 O 0.56275 0.55702 0.26525 0.0
Mg339 Mg 0.54773 0.56373 0.30315 0.0
C340 C 0.585 0.55047 0.25817 0.0
C341 C 0.6715 0.53159 0.29188 0.0
O342 O 0.68036 0.5399 0.28107 0.0
O343 O 0.56716 0.53755 0.324 0.0
O344 O 0.5251 0.54882 0.31607 0.0
O345 O 0.65848 0.55745 0.30872 0.0
O346 O 0.6016 0.5603 0.31844 0.0
C347 C 0.53443 0.54019 0.32281 0.0
C348 C 0.63247 0.56364 0.31165 0.0
O349 O 0.64753 0.53161 0.30877 0.0
Mg350 Mg 0.65818 0.68503 0.30615 0.0
O351 O 0.66577 0.68725 0.2641 0.0
O352 O 0.71624 0.68006 0.25138 0.0
Mg353 Mg 0.74142 0.67331 0.28655 0.0
C354 C 0.68785 0.68497 0.24684 0.0
C355 C 0.58925 0.69548 0.29025 0.0
O356 O 0.58623 0.68709 0.27833 0.0
O357 O 0.70064 0.69631 0.31507 0.0
O358 O 0.75105 0.68864 0.30381 0.0
O359 O 0.62939 0.67136 0.29772 0.0
O360 O 0.68801 0.67211 0.30467 0.0
C361 C 0.73466 0.69606 0.31298 0.0
C362 C 0.66029 0.66704 0.29824 0.0
O363 O 0.61579 0.6968 0.30475 0.0
Mg364 Mg 0.60373 0.68622 0.9285 0.0
O365 O 0.60171 0.68691 0.97145 0.0
O366 O 0.55531 0.67807 0.98517 0.0
Mg367 Mg 0.52838 0.67146 0.95068 0.0
C368 C 0.58236 0.68357 0.98922 0.0
C369 C 0.67048 0.69788 0.94209 0.0
O370 O 0.67772 0.68919 0.95141 0.0
O371 O 0.5561 0.69644 0.92532 0.0
O372 O 0.51093 0.68689 0.93811 0.0
O373 O 0.63856 0.6732 0.93112 0.0
O374 O 0.57928 0.6725 0.92941 0.0
C375 C 0.52291 0.69505 0.92982 0.0
C376 C 0.60949 0.66804 0.93234 0.0
O377 O 0.64176 0.69905 0.92969 0.0
Mg378 Mg 0.65473 0.54609 0.93664 0.0
O379 O 0.65318 0.54576 0.97966 0.0
O380 O 0.69686 0.55536 0.99445 0.0
Mg381 Mg 0.72526 0.56209 0.96071 0.0
C382 C 0.67054 0.54954 0.99787 0.0
C383 C 0.58896 0.53359 0.94733 0.0
O384 O 0.57947 0.54219 0.95622 0.0
O385 O 0.70444 0.53663 0.93586 0.0
O386 O 0.74698 0.5468 0.94988 0.0
O387 O 0.61712 0.55849 0.93712 0.0
O388 O 0.67622 0.56017 0.93774 0.0
C389 C 0.73692 0.53845 0.9416 0.0
C390 C 0.64485 0.56414 0.93922 0.0
O391 O 0.61921 0.53271 0.93665 0.0
Mg392 Mg 0.38556 0.43846 0.68653 0.0
O393 O 0.39048 0.43815 0.72946 0.0
O394 O 0.43367 0.42767 0.7405 0.0
Mg395 Mg 0.45615 0.42127 0.7043 0.0
C396 C 0.40923 0.43383 0.74612 0.0
C397 C 0.32706 0.45242 0.70516 0.0
O398 O 0.31791 0.44422 0.71639 0.0
O399 O 0.4366 0.44728 0.68303 0.0
O400 O 0.47889 0.43649 0.69409 0.0
O401 O 0.34582 0.42654 0.68882 0.0
O402 O 0.40438 0.42413 0.68509 0.0
C403 C 0.46924 0.44504 0.68701 0.0
C404 C 0.37272 0.42053 0.68855 0.0
O405 O 0.35345 0.45239 0.69013 0.0
Mg406 Mg 0.34499 0.29845 0.68936 0.0
O407 O 0.33687 0.29702 0.73176 0.0
O408 O 0.28692 0.30488 0.74297 0.0
Mg409 Mg 0.26392 0.31172 0.70732 0.0
C410 C 0.31443 0.29975 0.7484 0.0
C411 C 0.41195 0.28737 0.7063 0.0
O412 O 0.41659 0.29594 0.71706 0.0
O413 O 0.3002 0.28769 0.68136 0.0
O414 O 0.25145 0.2964 0.69122 0.0
O415 O 0.37655 0.31189 0.69571 0.0
O416 O 0.31779 0.3118 0.68969 0.0
C417 C 0.26626 0.28858 0.68299 0.0
C418 C 0.34652 0.31664 0.695 0.0
O419 O 0.3851 0.28612 0.69202 0.0
Mg420 Mg 0.38378 0.29804 0.06881 0.0
O421 O 0.38688 0.29722 0.02595 0.0
O422 O 0.43317 0.30612 0.01239 0.0
Mg423 Mg 0.45909 0.3129 0.04713 0.0
C424 C 0.40638 0.30054 0.00824 0.0
C425 C 0.31848 0.28592 0.0541 0.0
O426 O 0.31122 0.29444 0.04379 0.0
O427 O 0.43167 0.28798 0.07282 0.0
O428 O 0.47694 0.29758 0.06051 0.0
O429 O 0.34858 0.31098 0.06569 0.0
O430 O 0.40782 0.3118 0.06802 0.0
C431 C 0.46496 0.28943 0.06887 0.0
C432 C 0.37754 0.31621 0.06498 0.0
O433 O 0.34642 0.28508 0.0675 0.0
Mg434 Mg 0.34196 0.43889 0.06656 0.0
O435 O 0.33758 0.4381 0.02386 0.0
O436 O 0.29165 0.42853 0.01292 0.0
Mg437 Mg 0.26729 0.4229 0.04953 0.0
C438 C 0.31796 0.43408 0.00721 0.0
C439 C 0.40621 0.45046 0.04794 0.0
O440 O 0.41325 0.44155 0.04001 0.0
O441 O 0.29349 0.4488 0.06869 0.0
O442 O 0.24861 0.43857 0.05947 0.0
O443 O 0.3782 0.42618 0.06587 0.0
O444 O 0.31914 0.42497 0.06924 0.0
C445 C 0.26021 0.44707 0.06561 0.0
C446 C 0.34982 0.42072 0.06646 0.0
O447 O 0.37851 0.4519 0.0613 0.0
C448 C 0.13118 0.04477 0.03093 0.0
C449 C 0.16648 0.04741 0.02453 0.0
C450 C 0.12107 0.04389 0.05604 0.0
C451 C 0.15205 0.03909 0.11905 0.0
H452 H 0.07746 0.05695 0.14089 0.0
C453 C 0.12297 0.04592 0.22392 0.0
C454 C 0.08822 0.04867 0.23125 0.0
C455 C 0.13149 0.04482 0.19857 0.0
C456 C 0.09773 0.05173 0.13517 0.0
H457 H 0.21922 0.05075 0.03937 0.0
H458 H 0.20162 0.04889 0.08337 0.0
H459 H 0.09411 0.05633 0.09684 0.0
H460 H 0.03467 0.05192 0.21795 0.0
H461 H 0.04884 0.04947 0.17387 0.0
H462 H 0.15518 0.03424 0.15706 0.0
C463 C 0.18184 0.04765 0.06885 0.0
C464 C 0.10741 0.05145 0.1099 0.0
C465 C 0.19181 0.04875 0.04374 0.0
C466 C 0.06181 0.04992 0.21281 0.0
C467 C 0.07009 0.04859 0.18749 0.0
C468 C 0.14184 0.0392 0.14429 0.0
C469 C 0.14624 0.0454 0.07518 0.0
C470 C 0.13489 0.04522 0.1017 0.0
C471 C 0.10525 0.04622 0.17993 0.0
C472 C 0.11482 0.04562 0.15279 0.0
H473 H 0.11101 0.04372 0.01657 0.0
H474 H 0.09348 0.04212 0.06054 0.0
H475 H 0.17321 0.03418 0.11305 0.0
H476 H 0.14396 0.04497 0.23774 0.0
H477 H 0.15899 0.04316 0.19365 0.0
C478 C 0.06586 0.18382 0.03712 0.0
C479 C 0.09079 0.18563 0.01788 0.0
C480 C 0.07513 0.18542 0.06219 0.0
C481 C 0.15175 0.18452 0.10321 0.0
H482 H 0.09377 0.19907 0.15071 0.0
C483 C 0.19565 0.18755 0.206 0.0
C484 C 0.16882 0.18711 0.22443 0.0
C485 C 0.18665 0.18887 0.18082 0.0
C486 C 0.11009 0.19487 0.13781 0.0
H487 H 0.14473 0.19076 0.00989 0.0
H488 H 0.16105 0.19329 0.05372 0.0
H489 H 0.07606 0.19844 0.10665 0.0
H490 H 0.11156 0.18794 0.23105 0.0
H491 H 0.09564 0.18975 0.18708 0.0
H492 H 0.18473 0.18046 0.1341 0.0
C493 C 0.13431 0.19071 0.0493 0.0
C494 C 0.09999 0.19457 0.11256 0.0
C495 C 0.12487 0.18929 0.02423 0.0
C496 C 0.13286 0.1883 0.21725 0.0
C497 C 0.12377 0.1894 0.19198 0.0
C498 C 0.16148 0.18465 0.12847 0.0
C499 C 0.10966 0.18869 0.0685 0.0
C500 C 0.12074 0.18938 0.09507 0.0
C501 C 0.15052 0.18953 0.17333 0.0
C502 C 0.14078 0.18981 0.14619 0.0
H503 H 0.03934 0.18105 0.03284 0.0
H504 H 0.05573 0.18376 0.07671 0.0
H505 H 0.16793 0.18035 0.09013 0.0
H506 H 0.22365 0.18679 0.21103 0.0
H507 H 0.20814 0.18923 0.1672 0.0
C508 C 0.81064 0.93429 0.96656 0.0
C509 C 0.83795 0.93439 0.98462 0.0
C510 C 0.81874 0.93554 0.9412 0.0
C511 C 0.89295 0.94254 0.89709 0.0
H512 H 0.83497 0.92783 0.84992 0.0
C513 C 0.9314 0.93243 0.7941 0.0
C514 C 0.90545 0.93481 0.77598 0.0
C515 C 0.92404 0.93367 0.81963 0.0
C516 C 0.85119 0.93203 0.8629 0.0
H517 H 0.89515 0.936 0.99043 0.0
H518 H 0.90965 0.93765 0.94616 0.0
H519 H 0.82036 0.92732 0.89428 0.0
H520 H 0.85179 0.94059 0.77043 0.0
H521 H 0.83873 0.94246 0.81502 0.0
H522 H 0.92491 0.94674 0.86532 0.0
C523 C 0.88175 0.93695 0.95145 0.0
C524 C 0.84271 0.93182 0.88837 0.0
C525 C 0.8735 0.93594 0.97689 0.0
C526 C 0.8724 0.9387 0.78388 0.0
C527 C 0.86482 0.93975 0.80938 0.0
C528 C 0.90189 0.94256 0.8716 0.0
C529 C 0.85451 0.93665 0.93318 0.0
C530 C 0.86337 0.93709 0.90589 0.0
C531 C 0.89039 0.93713 0.82744 0.0
C532 C 0.88097 0.93733 0.85434 0.0
H533 H 0.78292 0.93324 0.97204 0.0
H534 H 0.79682 0.93556 0.92791 0.0
H535 H 0.90919 0.94684 0.90981 0.0
H536 H 0.95714 0.92944 0.78859 0.0
H537 H 0.94409 0.93156 0.83329 0.0
C538 C 0.93267 0.79795 0.96561 0.0
C539 C 0.90655 0.79678 0.98433 0.0
C540 C 0.92402 0.7965 0.94042 0.0
C541 C 0.85248 0.78665 0.89799 0.0
H542 H 0.89827 0.80393 0.84995 0.0
C543 C 0.80032 0.7951 0.79755 0.0
C544 C 0.82594 0.79488 0.77821 0.0
C545 C 0.81075 0.79387 0.82253 0.0
C546 C 0.88556 0.79898 0.86313 0.0
H547 H 0.85094 0.79305 0.99138 0.0
H548 H 0.83533 0.79097 0.94742 0.0
H549 H 0.91519 0.80481 0.89386 0.0
H550 H 0.88247 0.79286 0.76988 0.0
H551 H 0.90064 0.79095 0.81356 0.0
H552 H 0.8215 0.78124 0.86701 0.0
C553 C 0.86284 0.79271 0.95211 0.0
C554 C 0.89536 0.79943 0.88834 0.0
C555 C 0.87171 0.79397 0.97737 0.0
C556 C 0.86203 0.79307 0.78431 0.0
C557 C 0.87251 0.79201 0.8093 0.0
C558 C 0.8422 0.78633 0.87277 0.0
C559 C 0.88881 0.79405 0.93323 0.0
C560 C 0.87897 0.79328 0.90618 0.0
C561 C 0.84705 0.79256 0.82864 0.0
C562 C 0.85867 0.79251 0.85515 0.0
H563 H 0.95989 0.79998 0.97044 0.0
H564 H 0.94504 0.79734 0.92659 0.0
H565 H 0.83965 0.78167 0.911 0.0
H566 H 0.7723 0.79643 0.79345 0.0
H567 H 0.79066 0.79436 0.83714 0.0
C568 C 0.04186 0.55029 0.69774 0.0
C569 C 0.06794 0.54974 0.71672 0.0
C570 C 0.05155 0.54912 0.67257 0.0
C571 C 0.12504 0.55395 0.63094 0.0
H572 H 0.08081 0.53579 0.58441 0.0
C573 C 0.17471 0.55153 0.52929 0.0
C574 C 0.14934 0.54986 0.51035 0.0
C575 C 0.16534 0.55048 0.55448 0.0
C576 C 0.09311 0.54101 0.59702 0.0
H577 H 0.12448 0.54727 0.72417 0.0
H578 H 0.14134 0.54551 0.68022 0.0
H579 H 0.06216 0.53587 0.62835 0.0
H580 H 0.09435 0.54564 0.50288 0.0
H581 H 0.07737 0.54427 0.5468 0.0
H582 H 0.15467 0.55951 0.59989 0.0
C583 C 0.11343 0.54676 0.68491 0.0
C584 C 0.08253 0.541 0.6222 0.0
C585 C 0.10369 0.54774 0.71004 0.0
C586 C 0.11453 0.54694 0.5171 0.0
C587 C 0.10489 0.54609 0.54234 0.0
C588 C 0.13508 0.55412 0.60575 0.0
C589 C 0.08754 0.54757 0.66596 0.0
C590 C 0.09857 0.54744 0.63935 0.0
C591 C 0.13007 0.54795 0.56143 0.0
C592 C 0.11943 0.54763 0.5884 0.0
H593 H 0.01408 0.55179 0.70229 0.0
H594 H 0.03117 0.54981 0.65822 0.0
H595 H 0.13742 0.55909 0.64379 0.0
H596 H 0.2019 0.55366 0.52463 0.0
H597 H 0.18584 0.55169 0.56849 0.0
C598 C 0.11018 0.6885 0.73914 0.0
C599 C 0.14369 0.68476 0.74653 0.0
C600 C 0.10104 0.68901 0.71379 0.0
C601 C 0.13439 0.69128 0.65087 0.0
H602 H 0.05339 0.67534 0.6305 0.0
C603 C 0.10128 0.68459 0.54646 0.0
C604 C 0.06545 0.68294 0.53957 0.0
C605 C 0.11079 0.68544 0.5717 0.0
C606 C 0.07558 0.68002 0.63579 0.0
H607 H 0.19443 0.67901 0.73313 0.0
H608 H 0.17869 0.68023 0.68862 0.0
H609 H 0.07011 0.67613 0.67453 0.0
H610 H 0.01123 0.68133 0.55353 0.0
H611 H 0.02731 0.68335 0.5974 0.0
H612 H 0.13932 0.6955 0.61247 0.0
C613 C 0.15949 0.68262 0.7026 0.0
C614 C 0.08527 0.68038 0.66104 0.0
C615 C 0.16837 0.68189 0.728 0.0
C616 C 0.03914 0.68247 0.55834 0.0
C617 C 0.0485 0.68356 0.58354 0.0
C618 C 0.12421 0.6911 0.62564 0.0
C619 C 0.12552 0.68602 0.69537 0.0
C620 C 0.11488 0.68595 0.66873 0.0
C621 C 0.08455 0.68488 0.59065 0.0
C622 C 0.0948 0.6854 0.61768 0.0
H623 H 0.09053 0.69074 0.75295 0.0
H624 H 0.07471 0.69168 0.70856 0.0
H625 H 0.15723 0.69566 0.6565 0.0
H626 H 0.12218 0.68491 0.53237 0.0
H627 H 0.13889 0.68627 0.57628 0.0
C628 C 0.7969 0.4353 0.45964 0.0
C629 C 0.82336 0.43629 0.47819 0.0
C630 C 0.80545 0.43662 0.43435 0.0
C631 C 0.87801 0.44567 0.3915 0.0
H632 H 0.83159 0.42824 0.34413 0.0
C633 C 0.93382 0.43563 0.29339 0.0
C634 C 0.90951 0.43591 0.27328 0.0
C635 C 0.92194 0.43712 0.31795 0.0
C636 C 0.84446 0.43323 0.35712 0.0
H637 H 0.87945 0.43959 0.4848 0.0
H638 H 0.89475 0.44145 0.44081 0.0
H639 H 0.81333 0.42802 0.38789 0.0
H640 H 0.85377 0.43819 0.26312 0.0
H641 H 0.83298 0.44055 0.30616 0.0
H642 H 0.91048 0.45044 0.3606 0.0
C643 C 0.8671 0.43996 0.44565 0.0
C644 C 0.8339 0.43316 0.38223 0.0
C645 C 0.85839 0.43882 0.47096 0.0
C646 C 0.87319 0.43793 0.27819 0.0
C647 C 0.86123 0.43925 0.3028 0.0
C648 C 0.88901 0.44561 0.36643 0.0
C649 C 0.84084 0.43878 0.42694 0.0
C650 C 0.8507 0.43932 0.39986 0.0
C651 C 0.88545 0.43876 0.3229 0.0
C652 C 0.87246 0.43934 0.34907 0.0
H653 H 0.76956 0.43347 0.46466 0.0
H654 H 0.78425 0.43588 0.42063 0.0
H655 H 0.8911 0.45068 0.40431 0.0
H656 H 0.96198 0.43413 0.2902 0.0
H657 H 0.94109 0.43665 0.33316 0.0
C658 C 0.8528 0.29503 0.27443 0.0
C659 C 0.8296 0.30217 0.26448 0.0
C660 C 0.85996 0.29471 0.30011 0.0
C661 C 0.86038 0.31053 0.35584 0.0
H662 H 0.87135 0.286 0.3918 0.0
C663 C 0.88163 0.29631 0.46391 0.0
C664 C 0.90852 0.30288 0.47165 0.0
C665 C 0.87114 0.29586 0.43878 0.0
C666 C 0.86813 0.29291 0.38207 0.0
H667 H 0.79485 0.31438 0.27399 0.0
H668 H 0.80713 0.31376 0.31884 0.0
H669 H 0.8524 0.28581 0.34799 0.0
H670 H 0.94602 0.31398 0.4588 0.0
H671 H 0.92793 0.31312 0.41505 0.0
H672 H 0.8758 0.31764 0.3899 0.0
C673 C 0.82017 0.30849 0.30666 0.0
C674 C 0.85759 0.2928 0.35692 0.0
C675 C 0.81295 0.30881 0.28096 0.0
C676 C 0.92512 0.30886 0.45357 0.0
C677 C 0.91458 0.30842 0.42848 0.0
C678 C 0.871 0.31064 0.38093 0.0
C679 C 0.84412 0.30152 0.31647 0.0
C680 C 0.85377 0.30161 0.34349 0.0
C681 C 0.88723 0.302 0.42084 0.0
C682 C 0.87523 0.30183 0.39429 0.0
H683 H 0.86611 0.28978 0.26233 0.0
H684 H 0.8788 0.28931 0.30701 0.0
H685 H 0.85808 0.31743 0.34598 0.0
H686 H 0.86823 0.2916 0.4773 0.0
H687 H 0.8498 0.29088 0.43351 0.0
C688 C 0.53736 0.05014 0.69284 0.0
C689 C 0.56362 0.04947 0.71167 0.0
C690 C 0.5465 0.04865 0.66769 0.0
C691 C 0.62025 0.05214 0.6252 0.0
H692 H 0.57083 0.03447 0.57998 0.0
C693 C 0.66521 0.04888 0.5227 0.0
C694 C 0.63863 0.0477 0.50436 0.0
C695 C 0.65687 0.04784 0.54808 0.0
C696 C 0.58463 0.03955 0.59222 0.0
H697 H 0.61989 0.0465 0.71889 0.0
H698 H 0.63584 0.04418 0.67493 0.0
H699 H 0.55356 0.03508 0.62416 0.0
H700 H 0.58259 0.0443 0.49808 0.0
H701 H 0.5675 0.04295 0.54234 0.0
H702 H 0.65004 0.05706 0.59353 0.0
C703 C 0.60821 0.04576 0.67973 0.0
C704 C 0.57483 0.03983 0.61755 0.0
C705 C 0.59899 0.04707 0.70487 0.0
C706 C 0.60369 0.04521 0.51183 0.0
C707 C 0.59512 0.04438 0.53727 0.0
C708 C 0.62956 0.05201 0.59988 0.0
C709 C 0.58214 0.04665 0.66091 0.0
C710 C 0.59265 0.04612 0.63422 0.0
C711 C 0.6215 0.04583 0.5558 0.0
C712 C 0.61197 0.0457 0.58298 0.0
H713 H 0.50986 0.05194 0.69749 0.0
H714 H 0.52599 0.04941 0.65345 0.0
H715 H 0.63403 0.05715 0.63767 0.0
H716 H 0.69251 0.05067 0.51745 0.0
H717 H 0.67822 0.04871 0.56163 0.0
C718 C 0.61325 0.18957 0.74051 0.0
C719 C 0.64703 0.18579 0.74713 0.0
C720 C 0.60359 0.19051 0.71533 0.0
C721 C 0.63702 0.19323 0.65185 0.0
H722 H 0.55315 0.17842 0.63164 0.0
C723 C 0.60397 0.18596 0.54768 0.0
C724 C 0.56803 0.1846 0.54067 0.0
C725 C 0.61318 0.18715 0.57289 0.0
C726 C 0.57615 0.1828 0.63689 0.0
H727 H 0.69773 0.18046 0.73258 0.0
H728 H 0.68105 0.18238 0.68847 0.0
H729 H 0.57004 0.179 0.67561 0.0
H730 H 0.51334 0.18399 0.55427 0.0
H731 H 0.52902 0.18661 0.598 0.0
H732 H 0.64282 0.19728 0.61336 0.0
C733 C 0.66204 0.18448 0.70286 0.0
C734 C 0.58591 0.18306 0.66212 0.0
C735 C 0.67145 0.18334 0.72805 0.0
C736 C 0.54134 0.18488 0.5592 0.0
C737 C 0.55043 0.18631 0.58432 0.0
C738 C 0.62684 0.19315 0.62661 0.0
C739 C 0.6278 0.1879 0.69632 0.0
C740 C 0.61661 0.18818 0.66977 0.0
C741 C 0.58656 0.18723 0.59164 0.0
C742 C 0.59646 0.18783 0.61871 0.0
H743 H 0.5938 0.19151 0.75476 0.0
H744 H 0.57707 0.19319 0.71067 0.0
H745 H 0.66072 0.19727 0.6574 0.0
H746 H 0.62515 0.18571 0.53378 0.0
H747 H 0.64132 0.18768 0.57766 0.0
C748 C 0.31189 0.9289 0.46612 0.0
C749 C 0.3386 0.9303 0.48429 0.0
C750 C 0.31963 0.93016 0.4407 0.0
C751 C 0.39004 0.93969 0.39665 0.0
H752 H 0.34168 0.92243 0.34981 0.0
C753 C 0.4379 0.93029 0.29556 0.0
C754 C 0.41214 0.93158 0.27662 0.0
C755 C 0.42843 0.93134 0.32078 0.0
C756 C 0.35514 0.92734 0.3627 0.0
H757 H 0.39432 0.93417 0.49017 0.0
H758 H 0.40845 0.93584 0.44589 0.0
H759 H 0.32622 0.92176 0.39406 0.0
H760 H 0.3564 0.93512 0.26923 0.0
H761 H 0.3397 0.93662 0.31342 0.0
H762 H 0.42039 0.94479 0.36502 0.0
C763 C 0.38111 0.93413 0.45111 0.0
C764 C 0.34616 0.92703 0.38809 0.0
C765 C 0.37312 0.9331 0.47657 0.0
C766 C 0.37687 0.93411 0.28339 0.0
C767 C 0.36725 0.93494 0.30862 0.0
C768 C 0.39958 0.93982 0.37129 0.0
C769 C 0.35455 0.9326 0.43275 0.0
C770 C 0.36347 0.93319 0.40549 0.0
C771 C 0.39289 0.93349 0.32749 0.0
C772 C 0.38218 0.93365 0.35415 0.0
H773 H 0.2849 0.92687 0.47156 0.0
H774 H 0.29813 0.92918 0.42731 0.0
H775 H 0.40352 0.94469 0.40925 0.0
H776 H 0.4653 0.92839 0.29091 0.0
H777 H 0.44857 0.93015 0.33508 0.0
C778 C 0.44987 0.79656 0.45298 0.0
C779 C 0.42431 0.79583 0.4722 0.0
C780 C 0.4398 0.79538 0.42796 0.0
C781 C 0.36394 0.78712 0.38697 0.0
H782 H 0.41302 0.80327 0.33792 0.0
C783 C 0.31201 0.79634 0.28679 0.0
C784 C 0.33673 0.79486 0.26724 0.0
C785 C 0.32262 0.79528 0.31178 0.0
C786 C 0.39931 0.79866 0.35142 0.0
H787 H 0.36818 0.79321 0.48037 0.0
H788 H 0.35017 0.79165 0.43674 0.0
H789 H 0.43157 0.80387 0.38157 0.0
H790 H 0.39177 0.79092 0.25858 0.0
H791 H 0.41039 0.78935 0.30228 0.0
H792 H 0.33046 0.78237 0.35658 0.0
C793 C 0.37827 0.7928 0.44086 0.0
C794 C 0.41005 0.79894 0.37646 0.0
C795 C 0.38853 0.79376 0.46594 0.0
C796 C 0.37205 0.79209 0.27319 0.0
C797 C 0.38279 0.79123 0.29816 0.0
C798 C 0.35273 0.78701 0.36196 0.0
C799 C 0.40373 0.79367 0.42147 0.0
C800 C 0.39259 0.79316 0.39464 0.0
C801 C 0.35826 0.79291 0.31764 0.0
C802 C 0.3704 0.79277 0.344 0.0
H803 H 0.47775 0.79801 0.45729 0.0
H804 H 0.46042 0.79583 0.41372 0.0
H805 H 0.35021 0.78244 0.40023 0.0
H806 H 0.28459 0.79843 0.2828 0.0
H807 H 0.3033 0.79665 0.32654 0.0
C808 C 0.68359 0.54795 0.04363 0.0
C809 C 0.6589 0.54746 0.02379 0.0
C810 C 0.67226 0.54658 0.06834 0.0
C811 C 0.59932 0.55132 0.10922 0.0
H812 H 0.64077 0.53199 0.15386 0.0
C813 C 0.56154 0.55062 0.21408 0.0
C814 C 0.58905 0.54838 0.23111 0.0
C815 C 0.56646 0.54912 0.18836 0.0
C816 C 0.62921 0.53753 0.1418 0.0
H817 H 0.60307 0.54506 0.01418 0.0
H818 H 0.58306 0.54304 0.05769 0.0
H819 H 0.65715 0.532 0.10958 0.0
H820 H 0.64319 0.54274 0.23454 0.0
H821 H 0.65248 0.5406 0.18995 0.0
H822 H 0.57327 0.55734 0.14133 0.0
C823 C 0.61123 0.54431 0.05391 0.0
C824 C 0.63839 0.53745 0.1164 0.0
C825 C 0.6227 0.54543 0.02911 0.0
C826 C 0.62133 0.54447 0.22193 0.0
C827 C 0.62654 0.54317 0.19624 0.0
C828 C 0.59074 0.55156 0.13471 0.0
C829 C 0.63592 0.54492 0.07369 0.0
C830 C 0.62378 0.5444 0.1 0.0
C831 C 0.5993 0.54554 0.17901 0.0
C832 C 0.60595 0.54475 0.15148 0.0
H833 H 0.71166 0.54946 0.04006 0.0
H834 H 0.69169 0.54713 0.08336 0.0
H835 H 0.58802 0.55682 0.09687 0.0
H836 H 0.53621 0.55355 0.22063 0.0
H837 H 0.54451 0.55083 0.17585 0.0
C838 C 0.64302 0.68996 0.21438 0.0
C839 C 0.67841 0.68732 0.22054 0.0
C840 C 0.63273 0.69104 0.18939 0.0
C841 C 0.6636 0.69541 0.12551 0.0
H842 H 0.58454 0.67858 0.10615 0.0
C843 C 0.62822 0.68792 0.02164 0.0
C844 C 0.59247 0.68578 0.01541 0.0
C845 C 0.6383 0.68919 0.04668 0.0
C846 C 0.60611 0.68351 0.11118 0.0
H847 H 0.73119 0.68429 0.20527 0.0
H848 H 0.71318 0.68639 0.16147 0.0
H849 H 0.60296 0.6793 0.14976 0.0
H850 H 0.53888 0.68386 0.03031 0.0
H851 H 0.55593 0.68656 0.07374 0.0
H852 H 0.66638 0.69982 0.08709 0.0
C853 C 0.69348 0.68752 0.17612 0.0
C854 C 0.61679 0.68386 0.13621 0.0
C855 C 0.7037 0.68628 0.20115 0.0
C856 C 0.56674 0.68536 0.03458 0.0
C857 C 0.57665 0.68684 0.05954 0.0
C858 C 0.65248 0.69521 0.10045 0.0
C859 C 0.6577 0.68966 0.17003 0.0
C860 C 0.64577 0.68974 0.14358 0.0
C861 C 0.61272 0.68854 0.06604 0.0
C862 C 0.62373 0.68919 0.09289 0.0
H863 H 0.62281 0.69083 0.22881 0.0
H864 H 0.60503 0.69276 0.18514 0.0
H865 H 0.68593 0.70005 0.13081 0.0
H866 H 0.6487 0.68825 0.00726 0.0
H867 H 0.66639 0.69036 0.05082 0.0
C868 C 0.42788 0.4343 0.79109 0.0
C869 C 0.40123 0.43562 0.77284 0.0
C870 C 0.41977 0.43535 0.81651 0.0
C871 C 0.34817 0.44405 0.86067 0.0
H872 H 0.39743 0.42665 0.9067 0.0
C873 C 0.30122 0.43414 0.96171 0.0
C874 C 0.32709 0.43556 0.98052 0.0
C875 C 0.31044 0.43515 0.93643 0.0
C876 C 0.38367 0.43159 0.89404 0.0
H877 H 0.34527 0.43917 0.7668 0.0
H878 H 0.33056 0.44052 0.81107 0.0
H879 H 0.41315 0.42642 0.86246 0.0
H880 H 0.3828 0.43925 0.9876 0.0
H881 H 0.39904 0.44069 0.94335 0.0
H882 H 0.31738 0.44876 0.8925 0.0
C883 C 0.35809 0.43901 0.80593 0.0
C884 C 0.39282 0.43154 0.86867 0.0
C885 C 0.36644 0.43818 0.78047 0.0
C886 C 0.36224 0.43812 0.97355 0.0
C887 C 0.3716 0.43893 0.94829 0.0
C888 C 0.33849 0.44393 0.886 0.0
C889 C 0.38456 0.4375 0.82436 0.0
C890 C 0.37526 0.43778 0.85157 0.0
C891 C 0.34582 0.43741 0.92955 0.0
C892 C 0.35625 0.43771 0.90285 0.0
H893 H 0.45506 0.43243 0.78571 0.0
H894 H 0.44119 0.43441 0.82997 0.0
H895 H 0.33445 0.44909 0.8483 0.0
H896 H 0.2739 0.4322 0.96652 0.0
H897 H 0.29019 0.43391 0.92223 0.0
C898 C 0.29418 0.29764 0.79287 0.0
C899 C 0.32183 0.29745 0.775 0.0
C900 C 0.30171 0.29622 0.81828 0.0
C901 C 0.37466 0.28859 0.86266 0.0
H902 H 0.32024 0.30448 0.90943 0.0
C903 C 0.42163 0.29938 0.96255 0.0
C904 C 0.39654 0.29823 0.98201 0.0
C905 C 0.41163 0.2978 0.93763 0.0
C906 C 0.33538 0.29992 0.8966 0.0
H907 H 0.379 0.29542 0.76969 0.0
H908 H 0.39243 0.29341 0.81392 0.0
H909 H 0.30426 0.30455 0.86526 0.0
H910 H 0.34144 0.29433 0.99058 0.0
H911 H 0.32385 0.29183 0.94691 0.0
H912 H 0.40702 0.28445 0.8942 0.0
C913 C 0.3647 0.29434 0.80844 0.0
C914 C 0.32614 0.2999 0.87124 0.0
C915 C 0.35705 0.29556 0.783 0.0
C916 C 0.36143 0.29527 0.97604 0.0
C917 C 0.35128 0.29387 0.95108 0.0
C918 C 0.38432 0.28877 0.88799 0.0
C919 C 0.33721 0.29479 0.82652 0.0
C920 C 0.34579 0.29429 0.85383 0.0
C921 C 0.37622 0.2952 0.93165 0.0
C922 C 0.36488 0.29448 0.90513 0.0
H923 H 0.2667 0.29896 0.78724 0.0
H924 H 0.27965 0.29636 0.83146 0.0
H925 H 0.39002 0.28401 0.85003 0.0
H926 H 0.44891 0.30161 0.96655 0.0
H927 H 0.43128 0.29893 0.92295 0.0
C928 C 0.28495 0.95443 0.23002 0.0
C929 C 0.31382 0.95518 0.21322 0.0
C930 C 0.26765 0.96284 0.23866 0.0
C931 C 0.28464 0.98895 0.24892 0.0
H932 H 0.1816 0.99051 0.25782 0.0
C933 C 0.21186 0.0247 0.2753 0.0
C934 C 0.18328 0.02405 0.29237 0.0
C935 C 0.22823 0.01623 0.26618 0.0
C936 C 0.21045 0.99013 0.25572 0.0
H937 H 0.34617 0.96528 0.19135 0.0
H938 H 0.31568 0.97996 0.20628 0.0
H939 H 0.20795 0.97584 0.23919 0.0
H940 H 0.15018 0.01404 0.31394 0.0
H941 H 0.17915 -0.00077 0.29819 0.0
H942 H 0.2872 0.00321 0.2655 0.0
C943 C 0.30686 0.97288 0.21309 0.0
C944 C 0.22549 0.98175 0.245 0.0
C945 C 0.32414 0.96447 0.20443 0.0
C946 C 0.17208 0.01477 0.30073 0.0
C947 C 0.18846 0.0063 0.29159 0.0
C948 C 0.26962 -0.00269 0.25965 0.0
C949 C 0.27893 0.97216 0.23065 0.0
C950 C 0.26273 0.9811 0.24146 0.0
C951 C 0.21635 0.00695 0.27397 0.0
C952 C 0.23238 -0.00202 0.26315 0.0
H953 H 0.27637 0.94737 0.23713 0.0
H954 H 0.24635 0.96207 0.25233 0.0
H955 H 0.31351 0.98857 0.24685 0.0
H956 H 0.22106 0.03174 0.26846 0.0
H957 H 0.24945 0.01696 0.25244 0.0
C958 C 0.94612 0.27438 0.24109 0.0
C959 C 0.92251 0.27325 0.22079 0.0
C960 C 0.96069 0.26618 0.25289 0.0
C961 C 0.9477 0.23963 0.26166 0.0
H962 H 0.04959 0.23978 0.27608 0.0
C963 C 0.0311 0.2048 0.27944 0.0
C964 C 0.05972 0.20536 0.29647 0.0
C965 C 0.01075 0.21311 0.274 0.0
C966 C 0.02097 0.23968 0.27265 0.0
H967 H 0.89554 0.26268 0.19694 0.0
H968 H 0.92153 0.24835 0.21735 0.0
H969 H 0.0216 0.25434 0.25856 0.0
H970 H 0.0879 0.21485 0.32252 0.0
H971 H 0.05207 0.22933 0.3132 0.0
H972 H 0.94735 0.22486 0.2753 0.0
C973 C 0.92832 0.25558 0.22434 0.0
C974 C 0.00497 0.24802 0.26254 0.0
C975 C 0.91372 0.26378 0.21252 0.0
C976 C 0.06628 0.21423 0.30907 0.0
C977 C 0.04587 0.22253 0.30368 0.0
C978 C 0.96374 0.23127 0.2718 0.0
C979 C 0.95195 0.25671 0.24463 0.0
C980 C 0.96829 0.24803 0.25666 0.0
C981 C 0.0186 0.22212 0.28557 0.0
C982 C 0.00062 0.23119 0.27711 0.0
H983 H 0.95318 0.28158 0.24804 0.0
H984 H 0.97854 0.26726 0.26866 0.0
H985 H 0.91924 0.2395 0.25765 0.0
H986 H 0.02533 0.19806 0.26949 0.0
H987 H 0.99007 0.21259 0.25982 0.0
C988 C 0.18038 0.21662 0.94763 0.0
C989 C 0.19048 0.20739 0.95696 0.0
C990 C 0.19476 0.22516 0.95791 0.0
C991 C 0.23393 0.23412 0.01647 0.0
H992 H 0.25995 0.25678 0.97654 0.0
C993 C 0.308 0.26786 0.05595 0.0
C994 C 0.29827 0.27711 0.04662 0.0
C995 C 0.29267 0.25937 0.04606 0.0
C996 C 0.25228 0.25055 0.98794 0.0
H997 H 0.22499 0.19984 0.98342 0.0
H998 H 0.25044 0.21477 0.00112 0.0
H999 H 0.24044 0.24178 0.95575 0.0
H1000 H 0.26329 0.28478 0.02069 0.0
H1001 H 0.23626 0.26995 0.00362 0.0
H1002 H 0.24591 0.24289 0.04866 0.0
C1003 C 0.23089 0.21539 0.9862 0.0
C1004 C 0.24128 0.24196 0.97604 0.0
C1005 C 0.21653 0.20685 0.97591 0.0
C1006 C 0.2715 0.27775 0.02818 0.0
C1007 C 0.25622 0.26927 0.01826 0.0
C1008 C 0.24496 0.24271 0.02837 0.0
C1009 C 0.21951 0.22462 0.97769 0.0
C1010 C 0.23206 0.23366 0.99019 0.0
C1011 C 0.26734 0.26 0.02666 0.0
C1012 C 0.25425 0.251 0.01421 0.0
H1013 H 0.16037 0.21728 0.93302 0.0
H1014 H 0.18534 0.23217 0.95107 0.0
H1015 H 0.22632 0.22789 0.02788 0.0
H1016 H 0.32851 0.26713 0.0702 0.0
H1017 H 0.30188 0.25232 0.0528 0.0
C1018 C 0.03998 0.02561 0.981 0.0
C1019 C 0.06723 0.02485 0.96293 0.0
C1020 C 0.02366 0.0172 0.99054 0.0
C1021 C 0.0094 0.99087 0.97885 0.0
H1022 H -0.00144 0.9896 0.0511 0.0
C1023 C 0.96849 0.95526 0.02857 0.0
C1024 C 0.94114 0.95617 0.04654 0.0
C1025 C 0.98555 0.96359 0.01916 0.0
C1026 C 0.00118 0.98989 0.0309 0.0
H1027 H 0.09768 0.01472 0.93985 0.0
H1028 H 0.06924 4e-05 0.9566 0.0
H1029 H 0.02277 0.0044 0.03182 0.0
H1030 H 0.91133 0.96645 0.06957 0.0
H1031 H 0.941 0.98097 0.05302 0.0
H1032 H 0.98773 0.97636 0.97791 0.0
C1033 C 0.06041 0.00714 0.96332 0.0
C1034 C 0.0149 -0.00164 0.01986 0.0
C1035 C 0.07677 0.01554 0.95379 0.0
C1036 C 0.93229 0.96552 0.05571 0.0
C1037 C 0.94937 0.97383 0.04631 0.0
C1038 C -0.00434 0.9824 0.98989 0.0
C1039 C 0.03422 0.00788 0.98215 0.0
C1040 C 0.01906 -0.00106 0.99372 0.0
C1041 C 0.97564 0.97296 0.02757 0.0
C1042 C 0.99138 0.98183 0.01602 0.0
H1043 H 0.03192 0.03268 0.98835 0.0
H1044 H 0.00308 0.01799 0.00474 0.0
H1045 H 0.01197 0.99116 0.95864 0.0
H1046 H 0.97603 0.94816 0.02121 0.0
H1047 H 0.00615 0.96269 0.00502 0.0
C1048 C 0.67163 0.02253 0.79003 0.0
C1049 C 0.67648 0.03142 0.77718 0.0
C1050 C 0.69222 0.01435 0.78389 0.0
C1051 C 0.74061 0.00388 0.73083 0.0
H1052 H 0.77352 0.98506 0.78019 0.0
C1053 C 0.81943 0.96892 0.70463 0.0
C1054 C 0.80928 0.96027 0.71705 0.0
C1055 C 0.80551 0.97795 0.71212 0.0
C1056 C 0.76424 0.99023 0.76621 0.0
H1057 H 0.70785 0.03886 0.74868 0.0
H1058 H 0.74405 0.02455 0.73808 0.0
H1059 H 0.7473 0.00053 0.79403 0.0
H1060 H 0.77606 0.95426 0.74672 0.0
H1061 H 0.75143 0.97002 0.75958 0.0
H1062 H 0.75704 -0.00648 0.70302 0.0
C1063 C 0.72396 0.0239 0.75265 0.0
C1064 C 0.74935 -0.00092 0.77413 0.0
C1065 C 0.70337 0.0321 0.75882 0.0
C1066 C 0.78443 0.9608 0.7368 0.0
C1067 C 0.77057 0.96983 0.74431 0.0
C1068 C 0.75553 -0.00496 0.72292 0.0
C1069 C 0.71807 0.0149 0.76479 0.0
C1070 C 0.73695 0.00594 0.75651 0.0
C1071 C 0.78123 0.97849 0.7322 0.0
C1072 C 0.76702 0.98807 0.74054 0.0
H1073 H 0.65118 0.02179 0.80433 0.0
H1074 H 0.68683 0.0075 0.79341 0.0
H1075 H 0.73077 0.00896 0.71683 0.0
H1076 H 0.8386 0.96875 0.68938 0.0
H1077 H 0.81435 0.98453 0.70256 0.0
C1078 C 0.03329 0.71268 0.7799 0.0
C1079 C 0.05937 0.713 0.79885 0.0
C1080 C 0.02284 0.72124 0.76764 0.0
C1081 C 0.02086 0.748 0.77411 0.0
H1082 H 0.00629 0.74729 0.70213 0.0
C1083 C 0.97265 0.78204 0.72156 0.0
C1084 C 0.94226 0.78032 0.70665 0.0
C1085 C 0.99356 0.77421 0.72992 0.0
C1086 C 0.01031 0.74759 0.72222 0.0
H1087 H 0.09441 0.72258 0.82023 0.0
H1088 H 0.07611 0.73753 0.79877 0.0
H1089 H 0.02846 0.73272 0.72374 0.0
H1090 H 0.9116 0.76915 0.68711 0.0
H1091 H 0.94781 0.75552 0.70188 0.0
H1092 H 0.00188 0.76276 0.77275 0.0
C1093 C 0.06367 0.73066 0.79348 0.0
C1094 C 0.02282 0.73925 0.73459 0.0
C1095 C 0.07413 0.72209 0.80576 0.0
C1096 C 0.93471 0.77071 0.69874 0.0
C1097 C 0.95562 0.7629 0.70707 0.0
C1098 C 0.00837 0.75632 0.76175 0.0
C1099 C 0.03825 0.73029 0.77409 0.0
C1100 C 0.02754 0.73933 0.76073 0.0
C1101 C 0.98449 0.76454 0.72344 0.0
C1102 C 0.00234 0.75615 0.73575 0.0
H1103 H 0.0214 0.70579 0.77416 0.0
H1104 H 0.00266 0.72077 0.7531 0.0
H1105 H 0.02393 0.74824 0.79428 0.0
H1106 H 0.97938 0.78937 0.72777 0.0
H1107 H 0.01605 0.77569 0.74219 0.0
C1108 C 0.72064 0.70531 0.96646 0.0
C1109 C 0.69195 0.70645 0.94966 0.0
C1110 C 0.73741 0.71351 0.97675 0.0
C1111 C 0.74866 0.74025 0.97032 0.0
H1112 H 0.76029 0.73938 0.04256 0.0
C1113 C 0.78186 0.77475 0.02722 0.0
C1114 C 0.80945 0.77379 0.04496 0.0
C1115 C 0.76685 0.76647 0.01609 0.0
C1116 C 0.75751 0.73969 0.02237 0.0
H1117 H 0.65977 0.71704 0.92926 0.0
H1118 H 0.68901 0.73135 0.94733 0.0
H1119 H 0.73847 0.72493 0.0204 0.0
H1120 H 0.84176 0.76338 0.06586 0.0
H1121 H 0.81562 0.74892 0.04634 0.0
H1122 H 0.76761 0.75502 0.97232 0.0
C1123 C 0.69857 0.72413 0.9525 0.0
C1124 C 0.74517 0.73143 0.00967 0.0
C1125 C 0.68175 0.71593 0.94222 0.0
C1126 C 0.82055 0.76436 0.05223 0.0
C1127 C 0.80552 0.75608 0.0411 0.0
C1128 C 0.76104 0.74852 0.98302 0.0
C1129 C 0.72587 0.72299 0.97038 0.0
C1130 C 0.74057 0.73163 0.98354 0.0
C1131 C 0.7791 0.75706 0.02253 0.0
C1132 C 0.76546 0.74833 0.00918 0.0
H1133 H 0.72928 0.6981 0.97243 0.0
H1134 H 0.75886 0.71244 0.99015 0.0
H1135 H 0.74568 0.74057 0.95015 0.0
H1136 H 0.77261 0.78192 0.0213 0.0
H1137 H 0.74603 0.76742 0.00216 0.0
C1138 C 0.17705 0.52339 0.79301 0.0
C1139 C 0.18173 0.53242 0.7808 0.0
C1140 C 0.19705 0.51523 0.7858 0.0
C1141 C 0.24313 0.50537 0.73086 0.0
H1142 H 0.2758 0.48558 0.77775 0.0
C1143 C 0.32026 0.47057 0.70064 0.0
C1144 C 0.30993 0.46176 0.71226 0.0
C1145 C 0.30645 0.4795 0.70893 0.0
C1146 C 0.26657 0.49102 0.76445 0.0
H1147 H 0.21239 0.54014 0.7524 0.0
H1148 H 0.24766 0.52588 0.74 0.0
H1149 H 0.25111 0.50094 0.79356 0.0
H1150 H 0.27633 0.45537 0.7412 0.0
H1151 H 0.25199 0.47098 0.75549 0.0
H1152 H 0.25825 0.4954 0.70177 0.0
C1153 C 0.22807 0.52509 0.75485 0.0
C1154 C 0.25254 0.49981 0.77349 0.0
C1155 C 0.20804 0.53326 0.76207 0.0
C1156 C 0.28484 0.46204 0.73188 0.0
C1157 C 0.27115 0.47097 0.74022 0.0
C1158 C 0.25725 0.49659 0.72183 0.0
C1159 C 0.22219 0.51595 0.76627 0.0
C1160 C 0.24023 0.50702 0.75679 0.0
C1161 C 0.28217 0.4798 0.72904 0.0
C1162 C 0.26862 0.48928 0.73854 0.0
H1163 H 0.15704 0.52251 0.80756 0.0
H1164 H 0.19166 0.50827 0.7948 0.0
H1165 H 0.23333 0.51073 0.71753 0.0
H1166 H 0.33959 0.47059 0.68548 0.0
H1167 H 0.31552 0.4862 0.70006 0.0
C1168 C 0.29587 0.77411 0.52259 0.0
C1169 C 0.32568 0.77305 0.53844 0.0
C1170 C 0.27577 0.76594 0.51554 0.0
C1171 C 0.25576 0.74036 0.53248 0.0
H1172 H 0.23051 0.73797 0.46221 0.0
C1173 C 0.19631 0.70488 0.49166 0.0
C1174 C 0.16678 0.70601 0.47559 0.0
C1175 C 0.2165 0.71302 0.49888 0.0
C1176 C 0.23709 0.73858 0.48192 0.0
H1177 H 0.35719 0.76264 0.55994 0.0
H1178 H 0.32213 0.74838 0.54749 0.0
H1179 H 0.26289 0.75243 0.47669 0.0
H1180 H 0.13574 0.71648 0.45397 0.0
H1181 H 0.17086 0.73067 0.46674 0.0
H1182 H 0.22992 0.72651 0.53771 0.0
C1183 C 0.3142 0.75553 0.54066 0.0
C1184 C 0.25554 0.74686 0.49022 0.0
C1185 C 0.33435 0.7637 0.5477 0.0
C1186 C 0.15838 0.71538 0.46636 0.0
C1187 C 0.17858 0.7235 0.47358 0.0
C1188 C 0.23729 0.73208 0.52418 0.0
C1189 C 0.28503 0.75656 0.52423 0.0
C1190 C 0.26502 0.74783 0.51558 0.0
C1191 C 0.20756 0.72242 0.49016 0.0
C1192 C 0.22776 0.73111 0.49882 0.0
H1193 H 0.28843 0.78122 0.51522 0.0
H1194 H 0.25306 0.76697 0.50316 0.0
H1195 H 0.26237 0.74097 0.55218 0.0
H1196 H 0.20353 0.69775 0.49902 0.0
H1197 H 0.23904 0.71195 0.51138 0.0
C1198 C 0.95745 0.45603 0.52237 0.0
C1199 C 0.92908 0.45727 0.53942 0.0
C1200 C 0.97502 0.46417 0.51235 0.0
C1201 C 0.9585 0.48997 0.49817 0.0
H1202 H 0.06138 0.4913 0.48817 0.0
C1203 C 0.03031 0.52514 0.46646 0.0
C1204 C 0.05915 0.52422 0.44969 0.0
C1205 C 0.01412 0.51683 0.47661 0.0
C1206 C 0.03256 0.49096 0.49052 0.0
H1207 H 0.8981 0.46798 0.56035 0.0
H1208 H 0.929 0.48218 0.54294 0.0
H1209 H 0.0353 0.47708 0.50917 0.0
H1210 H 0.09285 0.51387 0.42968 0.0
H1211 H 0.06412 0.49933 0.44716 0.0
H1212 H 0.95562 0.50379 0.47943 0.0
C1213 C 0.93722 0.47491 0.53705 0.0
C1214 C 0.01769 0.48285 0.50263 0.0
C1215 C 0.91972 0.46679 0.54713 0.0
C1216 C 0.07074 0.51482 0.44263 0.0
C1217 C 0.0545 0.50649 0.45277 0.0
C1218 C 0.97333 0.49805 0.48601 0.0
C1219 C 0.96448 0.47369 0.51915 0.0
C1220 C 0.98054 0.48231 0.50667 0.0
C1221 C 0.02637 0.50742 0.47015 0.0
C1222 C 0.01052 0.49866 0.48215 0.0
H1223 H 0.96532 0.44879 0.51609 0.0
H1224 H -0.00416 0.46301 0.49849 0.0
H1225 H 0.92968 0.48964 0.50058 0.0
H1226 H 0.02081 0.53228 0.47234 0.0
H1227 H 0.99276 0.51779 0.49015 0.0
C1228 C 0.67307 0.51328 0.2918 0.0
C1229 C 0.68561 0.52223 0.28219 0.0
C1230 C 0.68403 0.50443 0.28114 0.0
C1231 C 0.72201 0.49414 0.22302 0.0
H1232 H 0.74905 0.4724 0.26584 0.0
C1233 C 0.81025 0.46194 0.19122 0.0
C1234 C 0.80372 0.45262 0.20146 0.0
C1235 C 0.78976 0.46997 0.1987 0.0
C1236 C 0.7409 0.47833 0.2536 0.0
H1237 H 0.72007 0.52895 0.25426 0.0
H1238 H 0.73976 0.5135 0.23601 0.0
H1239 H 0.72665 0.48747 0.28458 0.0
H1240 H 0.76895 0.44426 0.22612 0.0
H1241 H 0.73303 0.45831 0.23907 0.0
H1242 H 0.73724 0.48505 0.19206 0.0
C1243 C 0.72089 0.51333 0.25145 0.0
C1244 C 0.72819 0.48697 0.26435 0.0
C1245 C 0.7099 0.52217 0.26207 0.0
C1246 C 0.77483 0.45136 0.21806 0.0
C1247 C 0.75437 0.45941 0.22557 0.0
C1248 C 0.7348 0.48549 0.21226 0.0
C1249 C 0.70778 0.50438 0.26071 0.0
C1250 C 0.71916 0.49501 0.24919 0.0
C1251 C 0.76238 0.46883 0.21655 0.0
C1252 C 0.74487 0.47756 0.22749 0.0
H1253 H 0.65417 0.51308 0.30722 0.0
H1254 H 0.6733 0.49765 0.28857 0.0
H1255 H 0.71459 0.50016 0.21085 0.0
H1256 H 0.83221 0.46313 0.17828 0.0
H1257 H 0.7967 0.47716 0.19154 0.0
C1258 C 0.8296 0.26548 0.53939 0.0
C1259 C 0.81987 0.27463 0.52944 0.0
C1260 C 0.81235 0.25695 0.53141 0.0
C1261 C 0.72952 0.24828 0.50138 0.0
H1262 H 0.78511 0.22477 0.48847 0.0
C1263 C 0.6651 0.21398 0.45877 0.0
C1264 C 0.67292 0.20509 0.47087 0.0
C1265 C 0.685 0.22238 0.46406 0.0
C1266 C 0.76926 0.23127 0.49215 0.0
H1267 H 0.78441 0.28205 0.50336 0.0
H1268 H 0.75451 0.26717 0.48932 0.0
H1269 H 0.81548 0.23972 0.50203 0.0
H1270 H 0.70866 0.19791 0.49719 0.0
H1271 H 0.74327 0.21263 0.50656 0.0
H1272 H 0.6833 0.23984 0.49168 0.0
C1273 C 0.77516 0.26659 0.5035 0.0
C1274 C 0.78659 0.23981 0.49996 0.0
C1275 C 0.79237 0.27511 0.5115 0.0
C1276 C 0.70196 0.20466 0.48759 0.0
C1277 C 0.72189 0.21308 0.49288 0.0
C1278 C 0.71222 0.23975 0.49355 0.0
C1279 C 0.78507 0.25742 0.51331 0.0
C1280 C 0.76686 0.24839 0.50473 0.0
C1281 C 0.71311 0.22206 0.48154 0.0
C1282 C 0.73189 0.23116 0.48892 0.0
H1283 H 0.85067 0.26487 0.55327 0.0
H1284 H 0.82018 0.25 0.53956 0.0
H1285 H 0.71354 0.25473 0.50529 0.0
H1286 H 0.64306 0.21453 0.44563 0.0
H1287 H 0.67806 0.22917 0.45473 0.0
C1288 C 0.46097 0.28004 0.73208 0.0
C1289 C 0.43399 0.27892 0.71393 0.0
C1290 C 0.47823 0.27185 0.74204 0.0
C1291 C 0.4609 0.24597 0.75388 0.0
H1292 H 0.56263 0.24453 0.76839 0.0
C1293 C 0.52906 0.21057 0.78747 0.0
C1294 C 0.55627 0.21136 0.80554 0.0
C1295 C 0.5141 0.21896 0.77685 0.0
C1296 C 0.53409 0.24489 0.76476 0.0
H1297 H 0.40551 0.26838 0.69083 0.0
H1298 H 0.43584 0.25409 0.70814 0.0
H1299 H 0.53855 0.25891 0.74691 0.0
H1300 H 0.58831 0.22155 0.82733 0.0
H1301 H 0.56162 0.23623 0.80904 0.0
H1302 H 0.45624 0.23203 0.77188 0.0
C1303 C 0.44317 0.2613 0.71494 0.0
C1304 C 0.52039 0.25309 0.75237 0.0
C1305 C 0.42599 0.26948 0.70494 0.0
C1306 C 0.56744 0.22071 0.81338 0.0
C1307 C 0.55239 0.22911 0.80278 0.0
C1308 C 0.47455 0.2378 0.76633 0.0
C1309 C 0.46874 0.26239 0.73405 0.0
C1310 C 0.4837 0.25367 0.74671 0.0
C1311 C 0.52592 0.22831 0.78415 0.0
C1312 C 0.5113 0.23716 0.7718 0.0
H1313 H 0.4678 0.28722 0.73934 0.0
H1314 H 0.49777 0.27289 0.75681 0.0
H1315 H 0.43236 0.24632 0.75022 0.0
H1316 H 0.51996 0.20348 0.78095 0.0
H1317 H 0.49404 0.2181 0.76235 0.0
C1318 C 0.51445 0.02416 0.46057 0.0
C1319 C 0.54311 0.02341 0.44358 0.0
C1320 C 0.49966 0.01577 0.47131 0.0
C1321 C 0.52408 0.99055 0.48732 0.0
H1322 H 0.42215 0.98747 0.49933 0.0
C1323 C 0.46098 0.95482 0.5246 0.0
C1324 C 0.43271 0.95567 0.54187 0.0
C1325 C 0.47533 0.96314 0.5132 0.0
C1326 C 0.45073 0.98829 0.49638 0.0
H1327 H 0.57754 0.01326 0.42352 0.0
H1328 H 0.55137 -0.00142 0.44212 0.0
H1329 H 0.44378 0.00174 0.4763 0.0
H1330 H 0.39836 0.96594 0.56161 0.0
H1331 H 0.42377 0.9805 0.54188 0.0
H1332 H 0.53104 0.97712 0.50744 0.0
C1333 C 0.54082 0.00568 0.44744 0.0
C1334 C 0.46307 -0.00356 0.48312 0.0
C1335 C 0.5556 0.01408 0.43666 0.0
C1336 C 0.42004 0.96504 0.54829 0.0
C1337 C 0.43437 0.97337 0.53686 0.0
C1338 C 0.51174 0.98241 0.50057 0.0
C1339 C 0.51323 0.00646 0.46527 0.0
C1340 C 0.49987 -0.00235 0.47848 0.0
C1341 C 0.46168 0.97248 0.51886 0.0
C1342 C 0.47495 0.98121 0.50527 0.0
H1343 H 0.50421 0.03125 0.46628 0.0
H1344 H 0.47858 0.0166 0.48513 0.0
H1345 H 0.55267 0.99139 0.48442 0.0
H1346 H 0.47132 0.9477 0.51925 0.0
H1347 H 0.4962 0.96222 0.49927 0.0
C1348 C 0.539 0.70265 0.26539 0.0
C1349 C 0.56549 0.70374 0.28388 0.0
C1350 C 0.5199 0.71079 0.25685 0.0
C1351 C 0.49782 0.73661 0.27116 0.0
H1352 H 0.491 0.739 0.19885 0.0
C1353 C 0.45963 0.77287 0.22361 0.0
C1354 C 0.4336 0.77229 0.20466 0.0
C1355 C 0.47557 0.76437 0.23295 0.0
C1356 C 0.49241 0.73839 0.21907 0.0
H1357 H 0.5914 0.71409 0.30892 0.0
H1358 H 0.55829 0.72828 0.29387 0.0
H1359 H 0.51629 0.72416 0.21718 0.0
H1360 H 0.40491 0.7624 0.17988 0.0
H1361 H 0.43281 0.74756 0.19621 0.0
H1362 H 0.47429 0.75089 0.273 0.0
C1363 C 0.55212 0.72115 0.28606 0.0
C1364 C 0.50672 0.72988 0.22957 0.0
C1365 C 0.57121 0.71302 0.2946 0.0
C1366 C 0.42488 0.76308 0.19451 0.0
C1367 C 0.44091 0.75459 0.2038 0.0
C1368 C 0.48357 0.74512 0.26065 0.0
C1369 C 0.52691 0.72015 0.26668 0.0
C1370 C 0.50973 0.72893 0.25572 0.0
C1371 C 0.46588 0.75515 0.22344 0.0
C1372 C 0.48093 0.74611 0.2345 0.0
H1373 H 0.53383 0.69559 0.25687 0.0
H1374 H 0.50015 0.70978 0.2422 0.0
H1375 H 0.49942 0.73602 0.29137 0.0
H1376 H 0.46698 0.77986 0.23179 0.0
H1377 H 0.49522 0.76502 0.2478 0.0
C1378 C 0.45641 0.45723 0.02233 0.0
C1379 C 0.42726 0.45882 0.03851 0.0
C1380 C 0.47397 0.46514 0.01119 0.0
C1381 C 0.45872 0.49065 0.99283 0.0
H1382 H 0.5624 0.49194 0.98841 0.0
C1383 C 0.53553 0.52575 0.96701 0.0
C1384 C 0.567 0.52486 0.95272 0.0
C1385 C 0.51708 0.51742 0.97487 0.0
C1386 C 0.53339 0.4916 0.98911 0.0
H1387 H 0.39444 0.46994 0.05647 0.0
H1388 H 0.42539 0.48375 0.03716 0.0
H1389 H 0.53411 0.47794 0.0088 0.0
H1390 H 0.60271 0.51458 0.93422 0.0
H1391 H 0.57013 0.50001 0.94774 0.0
H1392 H 0.45797 0.50434 0.97329 0.0
C1393 C 0.43425 0.47638 0.03282 0.0
C1394 C 0.51725 0.48361 0.00087 0.0
C1395 C 0.41676 0.46848 0.04401 0.0
C1396 C 0.57867 0.5155 0.94539 0.0
C1397 C 0.56017 0.50715 0.95324 0.0
C1398 C 0.47485 0.49863 0.98101 0.0
C1399 C 0.46263 0.47477 0.016 0.0
C1400 C 0.47979 0.48312 0.00307 0.0
C1401 C 0.52967 0.50803 0.96853 0.0
C1402 C 0.51236 0.49923 0.97926 0.0
H1403 H 0.46512 0.44988 0.0177 0.0
H1404 H 0.49568 0.4637 0.9982 0.0
H1405 H 0.42973 0.49036 0.99386 0.0
H1406 H 0.52582 0.53287 0.97294 0.0
H1407 H 0.49383 0.51832 0.98682 0.0
C1408 C 0.18296 0.1517 0.29819 0.0
C1409 C 0.15081 0.15705 0.29912 0.0
C1410 C 0.1823 0.14154 0.2949 0.0
C1411 C 0.12256 0.12075 0.2775 0.0
H1412 H 0.1837 0.10606 0.32271 0.0
C1413 C 0.09322 0.08116 0.30882 0.0
C1414 C 0.1222 0.0746 0.30974 0.0
C1415 C 0.09901 0.09107 0.30372 0.0
C1416 C 0.16684 0.11005 0.3097 0.0
H1417 H 0.09286 0.15601 0.29645 0.0
H1418 H 0.09167 0.13835 0.2914 0.0
H1419 H 0.19037 0.12377 0.31976 0.0
H1420 H 0.17997 0.07326 0.30586 0.0
H1421 H 0.19 0.0906 0.29727 0.0
H1422 H 0.09806 0.107 0.26834 0.0
C1423 C 0.11745 0.14197 0.29271 0.0
C1424 C 0.17074 0.1202 0.30792 0.0
C1425 C 0.11812 0.1521 0.29584 0.0
C1426 C 0.15706 0.07813 0.30535 0.0
C1427 C 0.16286 0.08805 0.30046 0.0
C1428 C 0.11847 0.11061 0.27946 0.0
C1429 C 0.14948 0.13654 0.29263 0.0
C1430 C 0.1482 0.12568 0.29214 0.0
C1431 C 0.13391 0.09461 0.29969 0.0
C1432 C 0.14018 0.1052 0.2959 0.0
H1433 H 0.20858 0.15531 0.30059 0.0
H1434 H 0.20747 0.13759 0.29457 0.0
H1435 H 0.10522 0.12474 0.26483 0.0
H1436 H 0.06611 0.07869 0.31233 0.0
H1437 H 0.07627 0.09601 0.30358 0.0
C1438 C 0.14455 0.15374 0.95741 0.0
C1439 C 0.11672 0.15745 0.94252 0.0
C1440 C 0.14677 0.14371 0.96235 0.0
C1441 C 0.09567 0.12021 0.95592 0.0
H1442 H 0.19103 0.10895 0.95754 0.0
C1443 C 0.11514 0.07845 0.96081 0.0
C1444 C 0.14343 0.07452 0.9467 0.0
C1445 C 0.11281 0.08855 0.96477 0.0
C1446 C 0.16416 0.11194 0.95687 0.0
H1447 H 0.06918 0.15372 0.92129 0.0
H1448 H 0.07405 0.13619 0.92855 0.0
H1449 H 0.18415 0.12656 0.95522 0.0
H1450 H 0.19168 0.07793 0.92588 0.0
H1451 H 0.18667 0.09556 0.93142 0.0
H1452 H 0.07572 0.10557 0.95539 0.0
C1453 C 0.0935 0.14097 0.93734 0.0
C1454 C 0.16017 0.1221 0.95603 0.0
C1455 C 0.09082 0.15102 0.93294 0.0
C1456 C 0.16968 0.0808 0.93694 0.0
C1457 C 0.16691 0.09092 0.94035 0.0
C1458 C 0.09968 0.11004 0.95614 0.0
C1459 C 0.12169 0.13716 0.95195 0.0
C1460 C 0.12586 0.12638 0.95515 0.0
C1461 C 0.13826 0.09494 0.95414 0.0
C1462 C 0.134 0.10576 0.95622 0.0
H1463 H 0.16458 0.15859 0.96531 0.0
H1464 H 0.16832 0.14111 0.9742 0.0
H1465 H 0.06879 0.1232 0.95588 0.0
H1466 H 0.09481 0.07372 0.96884 0.0
H1467 H 0.09089 0.09132 0.97602 0.0
C1468 C 0.83329 0.90505 0.71571 0.0
C1469 C 0.86328 0.90817 0.70193 0.0
C1470 C 0.82868 0.89514 0.72141 0.0
C1471 C 0.87772 0.87132 0.72185 0.0
H1472 H 0.78216 0.86028 0.7176 0.0
C1473 C 0.85959 0.82988 0.72641 0.0
C1474 C 0.83527 0.82587 0.70921 0.0
C1475 C 0.85907 0.83989 0.73167 0.0
C1476 C 0.80906 0.86322 0.71872 0.0
H1477 H 0.91183 0.90344 0.68318 0.0
H1478 H 0.90314 0.88616 0.69206 0.0
H1479 H 0.79026 0.87789 0.71378 0.0
H1480 H 0.79023 0.82894 0.68491 0.0
H1481 H 0.79057 0.84653 0.69277 0.0
H1482 H 0.897 0.85669 0.72465 0.0
C1483 C 0.88372 0.89133 0.69932 0.0
C1484 C 0.81367 0.87336 0.71692 0.0
C1485 C 0.8886 0.90124 0.69401 0.0
C1486 C 0.80924 0.83191 0.69827 0.0
C1487 C 0.80934 0.84198 0.70297 0.0
C1488 C 0.87321 0.86119 0.72314 0.0
C1489 C 0.85372 0.88814 0.71311 0.0
C1490 C 0.84818 0.87751 0.71786 0.0
C1491 C 0.83495 0.84614 0.71921 0.0
C1492 C 0.8389 0.85698 0.72108 0.0
H1493 H 0.81351 0.91028 0.72224 0.0
H1494 H 0.80556 0.89297 0.73237 0.0
H1495 H 0.90461 0.87426 0.72332 0.0
H1496 H 0.87951 0.82529 0.73543 0.0
H1497 H 0.87839 0.84274 0.74493 0.0
C1498 C 0.82985 0.90122 0.06408 0.0
C1499 C 0.86155 0.90677 0.06433 0.0
C1500 C 0.83123 0.89105 0.06134 0.0
C1501 C 0.84327 0.86972 0.07341 0.0
H1502 H 0.9136 0.85683 0.03115 0.0
C1503 C 0.84773 0.82786 0.06215 0.0
C1504 C 0.88161 0.82353 0.06535 0.0
C1505 C 0.8445 0.83799 0.05944 0.0
C1506 C 0.89394 0.86036 0.04308 0.0
H1507 H 0.91954 0.90605 0.06158 0.0
H1508 H 0.92201 0.88831 0.05751 0.0
H1509 H 0.90873 0.8747 0.03054 0.0
H1510 H 0.93872 0.82641 0.06784 0.0
H1511 H 0.93302 0.84413 0.06295 0.0
H1512 H 0.82852 0.85539 0.08594 0.0
C1513 C 0.89602 0.89181 0.05886 0.0
C1514 C 0.89117 0.87057 0.04279 0.0
C1515 C 0.89462 0.90198 0.0614 0.0
C1516 C 0.91228 0.82952 0.06526 0.0
C1517 C 0.90905 0.83965 0.06238 0.0
C1518 C 0.84586 0.85953 0.07355 0.0
C1519 C 0.86436 0.88622 0.05907 0.0
C1520 C 0.86602 0.87536 0.05814 0.0
C1521 C 0.87509 0.84398 0.05976 0.0
C1522 C 0.87141 0.85476 0.05856 0.0
H1523 H 0.80395 0.90468 0.06633 0.0
H1524 H 0.80631 0.88698 0.06119 0.0
H1525 H 0.82409 0.87318 0.08583 0.0
H1526 H 0.82359 0.82345 0.06204 0.0
H1527 H 0.81804 0.84114 0.05721 0.0
C1528 C 0.05508 0.58511 0.80464 0.0
C1529 C 0.08226 0.57979 0.7926 0.0
C1530 C 0.05534 0.59534 0.80415 0.0
C1531 C 0.12001 0.61561 0.79503 0.0
H1532 H 0.03519 0.63151 0.80545 0.0
C1533 C 0.13116 0.65461 0.83361 0.0
C1534 C 0.1067 0.66173 0.82546 0.0
C1535 C 0.12651 0.64481 0.82701 0.0
C1536 C 0.05918 0.62723 0.80216 0.0
H1537 H 0.12908 0.58084 0.76874 0.0
H1538 H 0.12846 0.59867 0.76657 0.0
H1539 H 0.02869 0.61423 0.79539 0.0
H1540 H 0.0584 0.66426 0.80383 0.0
H1541 H 0.05097 0.64719 0.79142 0.0
H1542 H 0.15048 0.62864 0.80074 0.0
C1543 C 0.10791 0.59503 0.77747 0.0
C1544 C 0.05545 0.61726 0.79674 0.0
C1545 C 0.10815 0.58481 0.77851 0.0
C1546 C 0.07745 0.65888 0.81059 0.0
C1547 C 0.07316 0.64909 0.80356 0.0
C1548 C 0.1237 0.62559 0.79994 0.0
C1549 C 0.08237 0.60044 0.79111 0.0
C1550 C 0.08585 0.61127 0.7937 0.0
C1551 C 0.09771 0.64193 0.81163 0.0
C1552 C 0.09341 0.63148 0.80424 0.0
H1553 H 0.03485 0.58139 0.81569 0.0
H1554 H 0.03544 0.59921 0.81513 0.0
H1555 H 0.14416 0.61127 0.79318 0.0
H1556 H 0.1538 0.65662 0.84526 0.0
H1557 H 0.14544 0.63948 0.83417 0.0
C1558 C 0.05468 0.6511 0.45358 0.0
C1559 C 0.08589 0.65686 0.45438 0.0
C1560 C 0.05708 0.64088 0.45327 0.0
C1561 C 0.1199 0.62023 0.46465 0.0
H1562 H 0.05915 0.60655 0.41715 0.0
C1563 C 0.14956 0.58113 0.42963 0.0
C1564 C 0.12053 0.57458 0.42862 0.0
C1565 C 0.14383 0.59104 0.43473 0.0
C1566 C 0.07599 0.61026 0.4307 0.0
H1567 H 0.14401 0.65644 0.45605 0.0
H1568 H 0.1482 0.63868 0.45496 0.0
H1569 H 0.05139 0.62412 0.42345 0.0
H1570 H 0.06268 0.5733 0.43187 0.0
H1571 H 0.05275 0.59065 0.44051 0.0
H1572 H 0.14516 0.60637 0.47129 0.0
C1573 C 0.12184 0.64201 0.45503 0.0
C1574 C 0.07147 0.62031 0.4344 0.0
C1575 C 0.11944 0.65221 0.45547 0.0
C1576 C 0.08563 0.57816 0.43251 0.0
C1577 C 0.07989 0.58809 0.43741 0.0
C1578 C 0.12458 0.61019 0.46081 0.0
C1579 C 0.09072 0.63623 0.45362 0.0
C1580 C 0.09365 0.62543 0.45121 0.0
C1581 C 0.10895 0.59461 0.43866 0.0
C1582 C 0.10291 0.60514 0.44361 0.0
H1583 H 0.02843 0.65447 0.45273 0.0
H1584 H 0.03258 0.63663 0.45252 0.0
H1585 H 0.137 0.62393 0.47806 0.0
H1586 H 0.1767 0.57863 0.4264 0.0
H1587 H 0.16666 0.59595 0.43521 0.0
C1588 C 0.85285 0.33 0.17205 0.0
C1589 C 0.8761 0.32313 0.18291 0.0
C1590 C 0.85773 0.33999 0.17633 0.0
C1591 C 0.92441 0.35816 0.19917 0.0
H1592 H 0.84006 0.37471 0.20131 0.0
C1593 C 0.93163 0.40011 0.18838 0.0
C1594 C 0.90402 0.40584 0.19851 0.0
C1595 C 0.9306 0.38991 0.19065 0.0
C1596 C 0.86399 0.37022 0.20133 0.0
H1597 H 0.92244 0.32125 0.20694 0.0
H1598 H 0.93017 0.33869 0.21527 0.0
H1599 H 0.83303 0.35717 0.19753 0.0
H1600 H 0.85552 0.40565 0.22084 0.0
H1601 H 0.85473 0.38793 0.22616 0.0
H1602 H 0.9553 0.37122 0.20403 0.0
C1603 C 0.90882 0.33642 0.20282 0.0
C1604 C 0.85993 0.36013 0.1986 0.0
C1605 C 0.90432 0.32642 0.19814 0.0
C1606 C 0.8768 0.40134 0.21249 0.0
C1607 C 0.87625 0.39118 0.21534 0.0
C1608 C 0.92847 0.36826 0.20239 0.0
C1609 C 0.88552 0.34333 0.192 0.0
C1610 C 0.89007 0.35398 0.19688 0.0
C1611 C 0.90234 0.3853 0.20361 0.0
C1612 C 0.89831 0.37445 0.203 0.0
H1613 H 0.83104 0.32765 0.16006 0.0
H1614 H 0.83981 0.34509 0.16713 0.0
H1615 H 0.94828 0.35367 0.19778 0.0
H1616 H 0.95289 0.40344 0.17748 0.0
H1617 H 0.95099 0.38566 0.18113 0.0
C1618 C 0.84297 0.32914 0.55457 0.0
C1619 C 0.87799 0.32547 0.5572 0.0
C1620 C 0.83704 0.33921 0.55234 0.0
C1621 C 0.88092 0.36222 0.5347 0.0
H1622 H 0.81088 0.37446 0.57841 0.0
C1623 C 0.88006 0.4036 0.55379 0.0
C1624 C 0.84709 0.40837 0.55735 0.0
C1625 C 0.88144 0.39344 0.55101 0.0
C1626 C 0.83004 0.37115 0.56571 0.0
H1627 H 0.93417 0.32948 0.55977 0.0
H1628 H 0.92379 0.34703 0.55552 0.0
H1629 H 0.81763 0.35668 0.57863 0.0
H1630 H 0.78959 0.40626 0.5603 0.0
H1631 H 0.7919 0.38853 0.55482 0.0
H1632 H 0.89347 0.37665 0.52177 0.0
C1633 C 0.90102 0.3421 0.55497 0.0
C1634 C 0.83396 0.36098 0.56592 0.0
C1635 C 0.90693 0.33205 0.55746 0.0
C1636 C 0.81541 0.4028 0.55755 0.0
C1637 C 0.81676 0.39263 0.5546 0.0
C1638 C 0.8768 0.37239 0.53432 0.0
C1639 C 0.86602 0.34577 0.55247 0.0
C1640 C 0.85988 0.35645 0.55075 0.0
C1641 C 0.84985 0.38783 0.55157 0.0
C1642 C 0.85179 0.37698 0.55017 0.0
H1643 H 0.82009 0.32425 0.55432 0.0
H1644 H 0.80981 0.34186 0.55033 0.0
H1645 H 0.90073 0.35888 0.52254 0.0
H1646 H 0.90499 0.40768 0.55363 0.0
H1647 H 0.90743 0.38998 0.54915 0.0
C1648 C 0.60869 0.08424 0.77495 0.0
C1649 C 0.58189 0.07941 0.78864 0.0
C1650 C 0.61007 0.09446 0.7745 0.0
C1651 C 0.56046 0.11706 0.79449 0.0
H1652 H 0.65677 0.12761 0.79853 0.0
C1653 C 0.5856 0.15836 0.80936 0.0
C1654 C 0.61505 0.16105 0.8242 0.0
C1655 C 0.58103 0.14864 0.80184 0.0
C1656 C 0.62966 0.1248 0.79775 0.0
H1657 H 0.53463 0.08135 0.8117 0.0
H1658 H 0.538 0.09914 0.81215 0.0
H1659 H 0.6484 0.11031 0.79075 0.0
H1660 H 0.66259 0.15576 0.84314 0.0
H1661 H 0.65369 0.1387 0.8313 0.0
H1662 H 0.54185 0.13143 0.80351 0.0
C1663 C 0.55737 0.09515 0.80102 0.0
C1664 C 0.62478 0.11486 0.79271 0.0
C1665 C 0.5555 0.08493 0.80092 0.0
C1666 C 0.63973 0.15386 0.83159 0.0
C1667 C 0.63475 0.1441 0.82455 0.0
C1668 C 0.56536 0.12697 0.80008 0.0
C1669 C 0.58525 0.10005 0.78833 0.0
C1670 C 0.59012 0.11082 0.7913 0.0
C1671 C 0.60542 0.14136 0.80946 0.0
C1672 C 0.60006 0.13094 0.80211 0.0
H1673 H 0.62907 0.08011 0.76503 0.0
H1674 H 0.63123 0.09795 0.76386 0.0
H1675 H 0.53334 0.11428 0.79309 0.0
H1676 H 0.56643 0.1638 0.80311 0.0
H1677 H 0.55856 0.14688 0.78982 0.0
C1678 C 0.55367 0.15037 0.46066 0.0
C1679 C 0.58579 0.15574 0.4603 0.0
C1680 C 0.55439 0.14013 0.4608 0.0
C1681 C 0.61461 0.11863 0.4695 0.0
H1682 H 0.54909 0.10621 0.42282 0.0
C1683 C 0.63746 0.08008 0.42835 0.0
C1684 C 0.60774 0.07377 0.42737 0.0
C1685 C 0.63316 0.08988 0.43532 0.0
C1686 C 0.56723 0.10956 0.43618 0.0
H1687 H 0.64383 0.15463 0.4608 0.0
H1688 H 0.6451 0.13683 0.46038 0.0
H1689 H 0.54408 0.12372 0.43089 0.0
H1690 H 0.55013 0.07279 0.43274 0.0
H1691 H 0.54265 0.08994 0.44457 0.0
H1692 H 0.63854 0.10446 0.47396 0.0
C1693 C 0.61932 0.14048 0.46102 0.0
C1694 C 0.56428 0.11958 0.44091 0.0
C1695 C 0.61859 0.1507 0.46107 0.0
C1696 C 0.57358 0.07747 0.43328 0.0
C1697 C 0.56925 0.08728 0.44003 0.0
C1698 C 0.61773 0.10861 0.4646 0.0
C1699 C 0.58724 0.13507 0.46037 0.0
C1700 C 0.58824 0.12426 0.45736 0.0
C1701 C 0.599 0.09356 0.44117 0.0
C1702 C 0.59435 0.10402 0.44765 0.0
H1703 H 0.52796 0.15404 0.46017 0.0
H1704 H 0.5292 0.13618 0.46074 0.0
H1705 H 0.6331 0.12198 0.4826 0.0
H1706 H 0.66404 0.0775 0.42362 0.0
H1707 H 0.65646 0.09462 0.43566 0.0
C1708 C 0.41569 0.89897 0.19501 0.0
C1709 C 0.38557 0.90516 0.19543 0.0
C1710 C 0.41155 0.88883 0.19715 0.0
C1711 C 0.34619 0.86961 0.18442 0.0
H1712 H 0.40833 0.85328 0.22504 0.0
C1713 C 0.32669 0.82787 0.18935 0.0
C1714 C 0.35792 0.82214 0.18819 0.0
C1715 C 0.32895 0.83798 0.19313 0.0
C1716 C 0.39095 0.85774 0.21346 0.0
H1717 H 0.32761 0.90559 0.19914 0.0
H1718 H 0.32048 0.8879 0.20275 0.0
H1719 H 0.41488 0.8711 0.22642 0.0
H1720 H 0.41602 0.82249 0.19034 0.0
H1721 H 0.42 0.84013 0.19624 0.0
H1722 H 0.32292 0.85634 0.17083 0.0
C1723 C 0.34721 0.8909 0.2006 0.0
C1724 C 0.39468 0.86793 0.2143 0.0
C1725 C 0.35135 0.90102 0.1986 0.0
C1726 C 0.39143 0.8267 0.1912 0.0
C1727 C 0.3937 0.83681 0.19479 0.0
C1728 C 0.34263 0.85945 0.18344 0.0
C1729 C 0.3772 0.8847 0.19957 0.0
C1730 C 0.37245 0.87394 0.19968 0.0
C1731 C 0.36251 0.84258 0.19559 0.0
C1732 C 0.36511 0.85339 0.19781 0.0
H1733 H 0.44238 0.90193 0.19249 0.0
H1734 H 0.43509 0.8842 0.19607 0.0
H1735 H 0.32906 0.87408 0.17266 0.0
H1736 H 0.30048 0.82459 0.18706 0.0
H1737 H 0.30437 0.8422 0.194 0.0
C1738 C 0.40683 0.90143 0.562 0.0
C1739 C 0.37219 0.90517 0.56605 0.0
C1740 C 0.41218 0.8914 0.5586 0.0
C1741 C 0.36639 0.86865 0.54069 0.0
H1742 H 0.44077 0.85596 0.57976 0.0
C1743 C 0.37219 0.82689 0.55438 0.0
C1744 C 0.40589 0.82232 0.55563 0.0
C1745 C 0.36957 0.83707 0.55308 0.0
C1746 C 0.42032 0.85941 0.56836 0.0
H1747 H 0.316 0.9013 0.56975 0.0
H1748 H 0.32535 0.88378 0.56361 0.0
H1749 H 0.43333 0.87368 0.58228 0.0
H1750 H 0.46332 0.82483 0.55596 0.0
H1751 H 0.45877 0.84262 0.5531 0.0
H1752 H 0.35328 0.85439 0.52678 0.0
C1753 C 0.34829 0.88864 0.56285 0.0
C1754 C 0.41601 0.86955 0.56987 0.0
C1755 C 0.34296 0.89868 0.56643 0.0
C1756 C 0.43697 0.82813 0.55499 0.0
C1757 C 0.43435 0.83833 0.55355 0.0
C1758 C 0.37085 0.85851 0.53903 0.0
C1759 C 0.38296 0.88491 0.55905 0.0
C1760 C 0.38872 0.87424 0.5563 0.0
C1761 C 0.4006 0.84292 0.55287 0.0
C1762 C 0.39757 0.85376 0.55311 0.0
H1763 H 0.42992 0.90625 0.56155 0.0
H1764 H 0.43916 0.88871 0.55552 0.0
H1765 H 0.34546 0.87212 0.52976 0.0
H1766 H 0.34771 0.82262 0.55491 0.0
H1767 H 0.34315 0.84037 0.55298 0.0
C1768 C 0.63799 0.65225 0.27587 0.0
C1769 C 0.66335 0.65661 0.29174 0.0
C1770 C 0.6381 0.64214 0.27207 0.0
C1771 C 0.68935 0.61913 0.28602 0.0
H1772 H 0.59393 0.60786 0.28566 0.0
C1773 C 0.66625 0.57725 0.29097 0.0
C1774 C 0.63722 0.57409 0.30568 0.0
C1775 C 0.67045 0.58718 0.28526 0.0
C1776 C 0.6208 0.61087 0.28597 0.0
H1777 H 0.70972 0.65399 0.31519 0.0
H1778 H 0.70886 0.63627 0.30979 0.0
H1779 H 0.60091 0.62543 0.28268 0.0
H1780 H 0.59014 0.57879 0.32623 0.0
H1781 H 0.59818 0.5961 0.31727 0.0
H1782 H 0.70895 0.60455 0.29129 0.0
C1783 C 0.68949 0.64062 0.29955 0.0
C1784 C 0.6249 0.62098 0.28374 0.0
C1785 C 0.6899 0.65077 0.30283 0.0
C1786 C 0.61259 0.58101 0.31466 0.0
C1787 C 0.61708 0.59094 0.30932 0.0
C1788 C 0.6852 0.609 0.28872 0.0
C1789 C 0.66297 0.63614 0.28464 0.0
C1790 C 0.65919 0.62528 0.28416 0.0
C1791 C 0.64597 0.59415 0.29446 0.0
C1792 C 0.6508 0.60477 0.28924 0.0
H1793 H 0.6176 0.65664 0.26676 0.0
H1794 H 0.61799 0.63901 0.25983 0.0
H1795 H 0.71621 0.62214 0.28593 0.0
H1796 H 0.68549 0.57203 0.28363 0.0
H1797 H 0.69271 0.58936 0.27349 0.0
C1798 C 0.64441 0.65287 0.9416 0.0
C1799 C 0.61111 0.65747 0.93799 0.0
C1800 C 0.64629 0.6428 0.94582 0.0
C1801 C 0.59524 0.62027 0.93421 0.0
H1802 H 0.66644 0.60859 0.978 0.0
C1803 C 0.60567 0.57864 0.9467 0.0
C1804 C 0.64027 0.57471 0.94393 0.0
C1805 C 0.60081 0.5887 0.94959 0.0
C1806 C 0.64652 0.61177 0.96568 0.0
H1807 H 0.5536 0.65515 0.93655 0.0
H1808 H 0.55683 0.63759 0.94447 0.0
H1809 H 0.65952 0.62641 0.97692 0.0
H1810 H 0.69699 0.5782 0.94277 0.0
H1811 H 0.68845 0.59584 0.94777 0.0
H1812 H 0.58249 0.60567 0.92277 0.0
C1813 C 0.58153 0.64176 0.94364 0.0
C1814 C 0.64257 0.62195 0.96502 0.0
C1815 C 0.57966 0.65183 0.93928 0.0
C1816 C 0.67002 0.58101 0.94491 0.0
C1817 C 0.66514 0.5911 0.94789 0.0
C1818 C 0.59906 0.61011 0.93498 0.0
C1819 C 0.6149 0.63711 0.94661 0.0
C1820 C 0.61721 0.62631 0.94901 0.0
C1821 C 0.63045 0.59504 0.94982 0.0
C1822 C 0.62501 0.60577 0.95048 0.0
H1823 H 0.66915 0.65701 0.94071 0.0
H1824 H 0.67245 0.63942 0.94766 0.0
H1825 H 0.57592 0.62339 0.92134 0.0
H1826 H 0.58219 0.57397 0.94622 0.0
H1827 H 0.5738 0.59155 0.95136 0.0
C1828 C 0.39664 0.40356 0.69454 0.0
C1829 C 0.3673 0.41 0.69352 0.0
C1830 C 0.39133 0.39359 0.69901 0.0
C1831 C 0.3257 0.37427 0.69053 0.0
H1832 H 0.38609 0.35968 0.73643 0.0
C1833 C 0.31291 0.33242 0.69996 0.0
C1834 C 0.34546 0.32725 0.70031 0.0
C1835 C 0.31251 0.34258 0.7033 0.0
C1836 C 0.36914 0.36364 0.72344 0.0
H1837 H 0.30935 0.41104 0.69642 0.0
H1838 H 0.30013 0.39356 0.70381 0.0
H1839 H 0.39161 0.37749 0.73403 0.0
H1840 H 0.40304 0.32861 0.70505 0.0
H1841 H 0.40248 0.34629 0.71013 0.0
H1842 H 0.3043 0.36046 0.67903 0.0
C1843 C 0.3272 0.39627 0.70129 0.0
C1844 C 0.37226 0.37382 0.72214 0.0
C1845 C 0.33253 0.40626 0.69709 0.0
C1846 C 0.37748 0.33238 0.70472 0.0
C1847 C 0.37712 0.34253 0.70785 0.0
C1848 C 0.32281 0.36408 0.69163 0.0
C1849 C 0.35655 0.38985 0.70224 0.0
C1850 C 0.35098 0.3792 0.70537 0.0
C1851 C 0.3447 0.34776 0.70685 0.0
C1852 C 0.34497 0.35863 0.70777 0.0
H1853 H 0.42371 0.40617 0.69162 0.0
H1854 H 0.41437 0.38875 0.69929 0.0
H1855 H 0.30922 0.37825 0.67726 0.0
H1856 H 0.28778 0.32868 0.69663 0.0
H1857 H 0.28703 0.34638 0.70278 0.0
C1858 C 0.38661 0.40574 0.05904 0.0
C1859 C 0.35277 0.41004 0.06276 0.0
C1860 C 0.38992 0.39562 0.05632 0.0
C1861 C 0.34042 0.37322 0.04057 0.0
H1862 H 0.41262 0.36045 0.08143 0.0
C1863 C 0.34238 0.33155 0.05825 0.0
C1864 C 0.37576 0.32687 0.06047 0.0
C1865 C 0.34043 0.34172 0.0557 0.0
C1866 C 0.39277 0.3639 0.06953 0.0
H1867 H 0.29581 0.4071 0.06623 0.0
H1868 H 0.30165 0.38937 0.06136 0.0
H1869 H 0.40739 0.37822 0.08218 0.0
H1870 H 0.43334 0.32913 0.06098 0.0
H1871 H 0.42999 0.34683 0.05585 0.0
H1872 H 0.32575 0.35888 0.02793 0.0
C1873 C 0.32552 0.39388 0.06038 0.0
C1874 C 0.38971 0.37408 0.07004 0.0
C1875 C 0.32221 0.40402 0.06326 0.0
C1876 C 0.4072 0.33251 0.05933 0.0
C1877 C 0.40527 0.34267 0.05659 0.0
C1878 C 0.34363 0.36302 0.03991 0.0
C1879 C 0.35946 0.38959 0.05716 0.0
C1880 C 0.36335 0.37883 0.05573 0.0
C1881 C 0.37185 0.3474 0.05518 0.0
C1882 C 0.36966 0.35825 0.05456 0.0
H1883 H 0.41068 0.41018 0.05845 0.0
H1884 H 0.41636 0.39251 0.05359 0.0
H1885 H 0.32013 0.37673 0.02915 0.0
H1886 H 0.31764 0.3274 0.05909 0.0
H1887 H 0.31424 0.34514 0.05499 0.0
C1888 C -0.00335 0.0261 0.34427 0.0
C1889 C 0.99107 0.03278 0.32458 0.0
C1890 C 0.96765 0.02111 0.3549 0.0
C1891 C 0.8981 0.02349 0.38499 0.0
H1892 H 0.81636 0.0113 0.35282 0.0
C1893 C 0.73783 0.02818 0.38698 0.0
C1894 C 0.73489 0.03134 0.41185 0.0
C1895 C 0.76919 0.02362 0.3787 0.0
C1896 C 0.83881 0.01476 0.36215 0.0
H1897 H 0.95174 0.03865 0.29875 0.0
H1898 H 0.90124 0.02977 0.31697 0.0
H1899 H 0.87382 0.01202 0.33092 0.0
H1900 H 0.75989 0.0313 0.44837 0.0
H1901 H 0.8134 0.02253 0.43465 0.0
H1902 H 0.86327 0.02736 0.41477 0.0
C1903 C 0.92789 0.02846 0.32432 0.0
C1904 C 0.87181 0.01503 0.34967 0.0
C1905 C 0.9567 0.03362 0.31406 0.0
C1906 C 0.76195 0.02899 0.42899 0.0
C1907 C 0.79277 0.02408 0.42096 0.0
C1908 C 0.86503 0.02349 0.39713 0.0
C1909 C 0.93287 0.02254 0.34556 0.0
C1910 C 0.9013 0.01974 0.36064 0.0
C1911 C 0.7979 0.02191 0.39535 0.0
C1912 C 0.83439 0.01954 0.38539 0.0
H1913 H 0.02288 0.02531 0.35275 0.0
H1914 H 0.97202 0.01661 0.37135 0.0
H1915 H 0.9204 0.02726 0.39375 0.0
H1916 H 0.71722 0.02999 0.37344 0.0
H1917 H 0.77171 0.0222 0.35884 0.0
C1918 C 0.2933 0.20327 0.31835 0.0
C1919 C 0.25661 0.20319 0.32434 0.0
C1920 C 0.31743 0.20862 0.33297 0.0
C1921 C 0.36333 0.22124 0.36851 0.0
H1922 H 0.35136 0.20737 0.43126 0.0
C1923 C 0.44589 0.2041 0.45887 0.0
C1924 C 0.47712 0.20191 0.44538 0.0
C1925 C 0.41868 0.20967 0.44786 0.0
C1926 C 0.35517 0.21166 0.41445 0.0
H1927 H 0.21592 0.20955 0.34852 0.0
H1928 H 0.25834 0.21862 0.37449 0.0
H1929 H 0.30221 0.20819 0.40227 0.0
H1930 H 0.50591 0.20439 0.41075 0.0
H1931 H 0.45792 0.21333 0.39076 0.0
H1932 H 0.41654 0.22463 0.3805 0.0
C1933 C 0.26828 0.21461 0.35839 0.0
C1934 C 0.32666 0.21209 0.39765 0.0
C1935 C 0.24407 0.20939 0.34352 0.0
C1936 C 0.48199 0.206 0.42154 0.0
C1937 C 0.4543 0.21123 0.41014 0.0
C1938 C 0.39169 0.22107 0.38568 0.0
C1939 C 0.30529 0.21386 0.35399 0.0
C1940 C 0.33115 0.21636 0.37397 0.0
C1941 C 0.42142 0.21272 0.42266 0.0
C1942 C 0.38882 0.21569 0.40819 0.0
H1943 H 0.30371 0.19867 0.30349 0.0
H1944 H 0.34586 0.20787 0.32927 0.0
H1945 H 0.36725 0.22467 0.35041 0.0
H1946 H 0.44187 0.20114 0.47751 0.0
H1947 H 0.39462 0.21103 0.45866 0.0
C1948 C 0.75041 0.20639 0.86016 0.0
C1949 C 0.74677 0.20236 0.83618 0.0
C1950 C 0.78205 0.21117 0.86693 0.0
C1951 C 0.87733 0.21046 0.8474 0.0
H1952 H 0.8876 0.22404 0.91081 0.0
C1953 C 0.00776 0.20765 0.90058 0.0
C1954 C 0.00048 0.20169 0.92147 0.0
C1955 C 0.98012 0.21289 0.88904 0.0
C1956 C 0.88523 0.22045 0.89277 0.0
H1957 H 0.77077 0.20108 0.79945 0.0
H1958 H 0.82483 0.21018 0.81039 0.0
H1959 H 0.83001 0.22434 0.88909 0.0
H1960 H 0.95992 0.19745 0.94847 0.0
H1961 H 0.91187 0.20676 0.92863 0.0
H1962 H 0.93237 0.20647 0.85136 0.0
C1963 C 0.80454 0.20916 0.82465 0.0
C1964 C 0.85213 0.22048 0.88044 0.0
C1965 C 0.77344 0.20403 0.81821 0.0
C1966 C 0.96613 0.20191 0.93223 0.0
C1967 C 0.93874 0.20732 0.92102 0.0
C1968 C 0.91052 0.21068 0.85934 0.0
C1969 C 0.81033 0.21224 0.84956 0.0
C1970 C 0.84708 0.2149 0.85845 0.0
C1971 C 0.94509 0.21243 0.89861 0.0
C1972 C 0.91418 0.21517 0.88282 0.0
H1973 H 0.73005 0.20513 0.87431 0.0
H1974 H 0.78509 0.2133 0.88633 0.0
H1975 H 0.87509 0.206 0.83071 0.0
H1976 H 0.03404 0.20762 0.89191 0.0
H1977 H 0.98555 0.21675 0.87171 0.0
C1978 C 0.25605 0.02586 0.90579 0.0
C1979 C 0.25922 0.03002 0.92969 0.0
C1980 C 0.28506 0.02096 0.89501 0.0
C1981 C 0.38386 0.02187 0.90137 0.0
H1982 H 0.37676 0.00888 0.83695 0.0
C1983 C 0.49645 0.02615 0.832 0.0
C1984 C 0.48309 0.03218 0.81275 0.0
C1985 C 0.47302 0.02053 0.84652 0.0
C1986 C 0.37933 0.01231 0.85517 0.0
H1987 H 0.29282 0.03123 0.96254 0.0
H1988 H 0.34244 0.02191 0.94477 0.0
H1989 H 0.32647 0.00809 0.86618 0.0
H1990 H 0.43562 0.03604 0.79149 0.0
H1991 H 0.39486 0.02612 0.81664 0.0
H1992 H 0.43646 0.02618 0.89015 0.0
C1993 C 0.31868 0.02296 0.93347 0.0
C1994 C 0.35037 0.01199 0.87185 0.0
C1995 C 0.29013 0.02821 0.94386 0.0
C1996 C 0.4466 0.03157 0.80641 0.0
C1997 C 0.42331 0.02581 0.82065 0.0
C1998 C 0.41302 0.02192 0.88507 0.0
C1999 C 0.31758 0.01988 0.90823 0.0
C2000 C 0.3513 0.01737 0.89444 0.0
C2001 C 0.43604 0.02069 0.84168 0.0
C2002 C 0.41023 0.01766 0.86124 0.0
H2003 H 0.2324 0.02718 0.8945 0.0
H2004 H 0.28266 0.01881 0.87558 0.0
H2005 H 0.38619 0.02617 0.91831 0.0
H2006 H 0.52448 0.02642 0.83727 0.0
H2007 H 0.48341 0.01663 0.86266 0.0
C2008 C 0.24133 0.95141 0.5997 0.0
C2009 C 0.24202 0.94723 0.57574 0.0
C2010 C 0.21042 0.95608 0.60837 0.0
C2011 C 0.14194 0.96524 0.62609 0.0
H2012 H 0.05809 0.95134 0.60211 0.0
C2013 C 0.98641 0.95492 0.65436 0.0
C2014 C 0.99372 0.94882 0.67497 0.0
C2015 C 0.01446 0.95941 0.64132 0.0
C2016 C 0.08102 0.95548 0.60869 0.0
H2017 H 0.21323 0.94559 0.54085 0.0
H2018 H 0.16035 0.95453 0.55496 0.0
H2019 H 0.11304 0.95046 0.5785 0.0
H2020 H 0.03537 0.94348 0.69976 0.0
H2021 H 0.08428 0.95154 0.67732 0.0
H2022 H 0.10994 0.96918 0.65805 0.0
C2023 C 0.1825 0.95368 0.56787 0.0
C2024 C 0.11282 0.95504 0.59504 0.0
C2025 C 0.21294 0.94866 0.55957 0.0
C2026 C 0.02907 0.94809 0.68383 0.0
C2027 C 0.05697 0.95277 0.67114 0.0
C2028 C 0.11027 0.96541 0.64017 0.0
C2029 C 0.17986 0.95691 0.59293 0.0
C2030 C 0.14432 0.95953 0.60408 0.0
C2031 C 0.05004 0.95807 0.64912 0.0
C2032 C 0.08003 0.96023 0.63196 0.0
H2033 H 0.26354 0.95033 0.6125 0.0
H2034 H 0.20988 0.95831 0.62781 0.0
H2035 H 0.16503 0.96912 0.6333 0.0
H2036 H 0.95939 0.9556 0.64711 0.0
H2037 H 0.00861 0.96342 0.62427 0.0
C2038 C 0.70968 0.77684 0.68223 0.0
C2039 C 0.74589 0.77808 0.6757 0.0
C2040 C 0.68722 0.77106 0.66741 0.0
C2041 C 0.67713 0.76842 0.60251 0.0
H2042 H 0.59177 0.75378 0.62011 0.0
C2043 C 0.55285 0.77577 0.54644 0.0
C2044 C 0.52239 0.7772 0.56137 0.0
C2045 C 0.58171 0.77028 0.55547 0.0
C2046 C 0.61535 0.75791 0.6148 0.0
H2047 H 0.7879 0.77335 0.65023 0.0
H2048 H 0.74825 0.76352 0.62391 0.0
H2049 H 0.64245 0.7542 0.64901 0.0
H2050 H 0.49658 0.77342 0.59637 0.0
H2051 H 0.54738 0.76459 0.61303 0.0
H2052 H 0.64951 0.77324 0.57013 0.0
C2053 C 0.73742 0.76695 0.64059 0.0
C2054 C 0.64455 0.75801 0.63127 0.0
C2055 C 0.76003 0.77261 0.65565 0.0
C2056 C 0.5199 0.77241 0.58451 0.0
C2057 C 0.54922 0.76725 0.59398 0.0
C2058 C 0.64773 0.76856 0.58645 0.0
C2059 C 0.7005 0.76655 0.64563 0.0
C2060 C 0.67495 0.76368 0.62577 0.0
C2061 C 0.58137 0.76655 0.58014 0.0
C2062 C 0.61553 0.7638 0.59304 0.0
H2063 H 0.69813 0.78087 0.69777 0.0
H2064 H 0.6588 0.77093 0.67164 0.0
H2065 H 0.70017 0.77291 0.59785 0.0
H2066 H 0.55501 0.77928 0.52828 0.0
H2067 H 0.60515 0.76954 0.54366 0.0
C2068 C 0.20665 0.77741 0.18236 0.0
C2069 C 0.24204 0.77718 0.17337 0.0
C2070 C 0.1799 0.77199 0.17041 0.0
C2071 C 0.15887 0.76809 0.10769 0.0
H2072 H 0.07244 0.75595 0.13332 0.0
C2073 C 0.029 0.77686 0.05892 0.0
C2074 C 0.0008 0.77903 0.07532 0.0
C2075 C 0.0579 0.77117 0.06708 0.0
C2076 C 0.09625 0.7594 0.1258 0.0
H2077 H 0.27793 0.77031 0.14657 0.0
H2078 H 0.23075 0.76115 0.12511 0.0
H2079 H 0.1271 0.75571 0.15844 0.0
H2080 H 0.97899 0.77655 0.11232 0.0
H2081 H 0.03022 0.76744 0.12738 0.0
H2082 H 0.12812 0.77296 0.07678 0.0
C2083 C 0.22393 0.7654 0.14159 0.0
C2084 C 0.12767 0.75911 0.1401 0.0
C2085 C 0.25084 0.77067 0.15385 0.0
C2086 C 0.00057 0.77493 0.09936 0.0
C2087 C 0.03006 0.76959 0.10788 0.0
C2088 C 0.12735 0.76867 0.0938 0.0
C2089 C 0.18802 0.76641 0.14904 0.0
C2090 C 0.15873 0.76385 0.13161 0.0
C2091 C 0.06003 0.76802 0.09222 0.0
C2092 C 0.09499 0.76482 0.10327 0.0
H2093 H 0.1992 0.78227 0.19755 0.0
H2094 H 0.15235 0.77295 0.17639 0.0
H2095 H 0.18242 0.77189 0.1008 0.0
H2096 H 0.0293 0.77985 0.04011 0.0
H2097 H 0.07947 0.76977 0.05399 0.0
C2098 C 0.74931 0.95509 0.10509 0.0
C2099 C 0.74833 0.95195 0.08011 0.0
C2100 C 0.71975 0.95983 0.1156 0.0
C2101 C 0.65302 0.96848 0.1376 0.0
H2102 H 0.56727 0.95643 0.11061 0.0
C2103 C 0.499 0.95614 0.16486 0.0
C2104 C 0.50771 0.94911 0.18316 0.0
C2105 C 0.52603 0.96156 0.15315 0.0
C2106 C 0.59071 0.96008 0.11816 0.0
H2107 H 0.71836 0.95237 0.04548 0.0
H2108 H 0.66807 0.96151 0.06298 0.0
H2109 H 0.62093 0.95676 0.08565 0.0
H2110 H 0.55078 0.94309 0.20567 0.0
H2111 H 0.59788 0.95268 0.18548 0.0
H2112 H 0.6228 0.97061 0.17147 0.0
C2113 C 0.69034 0.95975 0.07516 0.0
C2114 C 0.62182 0.96034 0.10373 0.0
C2115 C 0.71934 0.95464 0.06494 0.0
C2116 C 0.54336 0.94837 0.19143 0.0
C2117 C 0.57026 0.95393 0.18006 0.0
C2118 C 0.62203 0.96794 0.15235 0.0
C2119 C 0.68894 0.96177 0.10109 0.0
C2120 C 0.65406 0.96408 0.11366 0.0
C2121 C 0.56202 0.96019 0.15996 0.0
C2122 C 0.59112 0.96337 0.14304 0.0
H2123 H 0.77146 0.95303 0.11714 0.0
H2124 H 0.72021 0.96114 0.13558 0.0
H2125 H 0.6767 0.97181 0.14566 0.0
H2126 H 0.47175 0.9569 0.15813 0.0
H2127 H 0.51912 0.96632 0.13765 0.0
C2128 C 0.00384 0.52648 0.83952 0.0
C2129 C 0.98995 0.53194 0.81937 0.0
C2130 C 0.98091 0.52104 0.85486 0.0
C2131 C 0.92031 0.52321 0.89281 0.0
H2132 H 0.83563 0.50807 0.87651 0.0
C2133 C 0.76252 0.52634 0.91187 0.0
C2134 C 0.76467 0.53123 0.93491 0.0
C2135 C 0.79237 0.52145 0.90226 0.0
C2136 C 0.859 0.51235 0.88144 0.0
H2137 H 0.94228 0.53491 0.79743 0.0
H2138 H 0.90241 0.52527 0.82396 0.0
H2139 H 0.88619 0.50834 0.84745 0.0
H2140 H 0.7976 0.53379 0.96761 0.0
H2141 H 0.84883 0.52454 0.95195 0.0
H2142 H 0.89252 0.5283 0.92489 0.0
C2143 C 0.93086 0.52527 0.82807 0.0
C2144 C 0.88813 0.51237 0.8649 0.0
C2145 C 0.95363 0.53087 0.81301 0.0
C2146 C 0.79564 0.53021 0.94953 0.0
C2147 C 0.82511 0.52499 0.94035 0.0
C2148 C 0.89093 0.52344 0.90892 0.0
C2149 C 0.94395 0.5208 0.84994 0.0
C2150 C 0.91833 0.51817 0.86996 0.0
C2151 C 0.82479 0.52112 0.91583 0.0
C2152 C 0.85899 0.51846 0.9028 0.0
H2153 H 0.03176 0.52713 0.84485 0.0
H2154 H 0.99156 0.51765 0.87164 0.0
H2155 H 0.94319 0.52781 0.89708 0.0
H2156 H 0.73886 0.52702 0.90022 0.0
H2157 H 0.79055 0.51868 0.88331 0.0
C2158 C 0.26962 0.70343 0.81834 0.0
C2159 C 0.24253 0.70199 0.83612 0.0
C2160 C 0.30076 0.70853 0.8248 0.0
C2161 C 0.34733 0.72045 0.88023 0.0
H2162 H 0.42846 0.70647 0.8523 0.0
C2163 C 0.46252 0.7028 0.933 0.0
C2164 C 0.49672 0.70256 0.92202 0.0
C2165 C 0.43483 0.70807 0.92172 0.0
C2166 C 0.40634 0.71067 0.85994 0.0
H2167 H 0.2252 0.7051 0.87395 0.0
H2168 H 0.28028 0.71322 0.88607 0.0
H2169 H 0.37133 0.70555 0.83156 0.0
H2170 H 0.52981 0.70841 0.8921 0.0
H2171 H 0.48088 0.71733 0.87184 0.0
H2172 H 0.38245 0.72447 0.91042 0.0
C2173 C 0.27755 0.71094 0.86675 0.0
C2174 C 0.37323 0.71018 0.84795 0.0
C2175 C 0.24589 0.70618 0.85995 0.0
C2176 C 0.50366 0.70845 0.90095 0.0
C2177 C 0.47575 0.71357 0.88936 0.0
C2178 C 0.38036 0.72068 0.89264 0.0
C2179 C 0.30614 0.71184 0.84957 0.0
C2180 C 0.34271 0.71464 0.85858 0.0
C2181 C 0.44079 0.71304 0.89904 0.0
C2182 C 0.40968 0.71543 0.88309 0.0
H2183 H 0.26717 0.70035 0.7997 0.0
H2184 H 0.32131 0.70941 0.81065 0.0
H2185 H 0.32498 0.72432 0.88854 0.0
H2186 H 0.45656 0.69839 0.94937 0.0
H2187 H 0.40804 0.70748 0.92944 0.0
C2188 C 0.93919 0.70357 0.46212 0.0
C2189 C 0.97103 0.70226 0.44858 0.0
C2190 C 0.91135 0.70921 0.45213 0.0
C2191 C 0.88387 0.72235 0.3923 0.0
H2192 H 0.79665 0.70769 0.40454 0.0
C2193 C 0.79294 0.70469 0.32012 0.0
C2194 C 0.75609 0.70384 0.32515 0.0
C2195 C 0.81502 0.71012 0.33605 0.0
C2196 C 0.8204 0.71208 0.40119 0.0
H2197 H 0.00018 0.70639 0.41513 0.0
H2198 H 0.95128 0.71545 0.39676 0.0
H2199 H 0.84482 0.70673 0.43427 0.0
H2200 H 0.71283 0.70896 0.34908 0.0
H2201 H 0.75174 0.71815 0.37735 0.0
H2202 H 0.86004 0.7266 0.3573 0.0
C2203 C 0.94753 0.7126 0.41548 0.0
C2204 C 0.84836 0.71158 0.41843 0.0
C2205 C 0.97578 0.70729 0.42594 0.0
C2206 C 0.74118 0.7094 0.34479 0.0
C2207 C 0.76337 0.71469 0.36097 0.0
C2208 C 0.85616 0.7226 0.37463 0.0
C2209 C 0.91414 0.71321 0.42782 0.0
C2210 C 0.88138 0.71624 0.41359 0.0
C2211 C 0.80066 0.71467 0.35745 0.0
C2212 C 0.8249 0.71708 0.37846 0.0
H2213 H 0.93525 0.69988 0.47989 0.0
H2214 H 0.88686 0.70987 0.46288 0.0
H2215 H 0.90812 0.72642 0.38831 0.0
H2216 H 0.80512 0.70059 0.30495 0.0
H2217 H 0.84374 0.70993 0.33301 0.0
C2218 C 0.47143 0.53408 0.32247 0.0
C2219 C 0.50643 0.53347 0.332 0.0
C2220 C 0.44339 0.52913 0.33428 0.0
C2221 C 0.39018 0.51568 0.36302 0.0
H2222 H 0.38149 0.53034 0.42487 0.0
C2223 C 0.28029 0.53153 0.43992 0.0
C2224 C 0.25246 0.53285 0.42265 0.0
C2225 C 0.31164 0.52665 0.4328 0.0
C2226 C 0.38337 0.52583 0.40826 0.0
H2227 H 0.54011 0.5267 0.36025 0.0
H2228 H 0.49052 0.51841 0.38167 0.0
H2229 H 0.43806 0.53004 0.40309 0.0
H2230 H 0.23406 0.52968 0.38511 0.0
H2231 H 0.28931 0.52195 0.37188 0.0
H2232 H 0.33549 0.51147 0.36795 0.0
C2233 C 0.48511 0.52252 0.36471 0.0
C2234 C 0.4161 0.52572 0.39567 0.0
C2235 C 0.51335 0.52727 0.35249 0.0
C2236 C 0.25527 0.52868 0.39876 0.0
C2237 C 0.2871 0.52416 0.39128 0.0
C2238 C 0.35761 0.51551 0.37603 0.0
C2239 C 0.4498 0.52367 0.35613 0.0
C2240 C 0.41919 0.5211 0.37233 0.0
C2241 C 0.31647 0.52348 0.40786 0.0
C2242 C 0.35305 0.52112 0.39803 0.0
H2243 H 0.46548 0.53877 0.30661 0.0
H2244 H 0.41628 0.53023 0.32754 0.0
H2245 H 0.39216 0.51201 0.34506 0.0
H2246 H 0.27835 0.5346 0.4586 0.0
H2247 H 0.3328 0.52591 0.44653 0.0
C2248 C -0.0017 0.4568 0.15367 0.0
C2249 C 0.00092 0.45356 0.17851 0.0
C2250 C 0.0258 0.46236 0.14307 0.0
C2251 C 0.08874 0.47273 0.12062 0.0
H2252 H 0.17839 0.46239 0.14596 0.0
C2253 C 0.24305 0.46185 0.09055 0.0
C2254 C 0.23387 0.45466 0.07278 0.0
C2255 C 0.2163 0.46733 0.1024 0.0
C2256 C 0.15383 0.4656 0.13886 0.0
H2257 H 0.0313 0.45464 0.21289 0.0
H2258 H 0.07781 0.46513 0.19522 0.0
H2259 H 0.12586 0.46171 0.17191 0.0
H2260 H 0.19025 0.44848 0.05107 0.0
H2261 H 0.14366 0.45813 0.07153 0.0
H2262 H 0.11693 0.4754 0.08618 0.0
C2263 C 0.05599 0.46285 0.1832 0.0
C2264 C 0.12331 0.46525 0.15388 0.0
C2265 C 0.02916 0.45694 0.1935 0.0
C2266 C 0.19804 0.45388 0.06494 0.0
C2267 C 0.1714 0.45948 0.07647 0.0
C2268 C 0.1192 0.4728 0.10529 0.0
C2269 C 0.0561 0.46504 0.15735 0.0
C2270 C 0.08976 0.46827 0.14449 0.0
C2271 C 0.1801 0.46583 0.0963 0.0
C2272 C 0.15153 0.46879 0.11394 0.0
H2273 H 0.97668 0.45426 0.14174 0.0
H2274 H 0.02442 0.46377 0.12316 0.0
H2275 H 0.06391 0.47555 0.11301 0.0
H2276 H 0.27047 0.46266 0.0969 0.0
H2277 H 0.2236 0.47218 0.11765 0.0
C2278 C 0.73827 0.27864 0.1489 0.0
C2279 C 0.73993 0.28299 0.17262 0.0
C2280 C 0.70696 0.27395 0.14106 0.0
C2281 C 0.6379 0.26461 0.12523 0.0
H2282 H 0.55515 0.27892 0.14949 0.0
C2283 C 0.48304 0.27621 0.09863 0.0
C2284 C 0.49107 0.28207 0.07768 0.0
C2285 C 0.5104 0.27127 0.11129 0.0
C2286 C 0.57773 0.27464 0.14286 0.0
H2287 H 0.71244 0.28502 0.2079 0.0
H2288 H 0.65879 0.27609 0.19524 0.0
H2289 H 0.61069 0.27991 0.17225 0.0
H2290 H 0.53288 0.28635 0.05167 0.0
H2291 H 0.58049 0.27755 0.0735 0.0
H2292 H 0.60497 0.26043 0.09397 0.0
C2293 C 0.6805 0.27677 0.1819 0.0
C2294 C 0.6099 0.27516 0.15603 0.0
C2295 C 0.71135 0.2818 0.18935 0.0
C2296 C 0.52604 0.28197 0.06791 0.0
C2297 C 0.55321 0.27686 0.08027 0.0
C2298 C 0.60585 0.26435 0.11162 0.0
C2299 C 0.67696 0.27329 0.1571 0.0
C2300 C 0.64104 0.27055 0.14678 0.0
C2301 C 0.54595 0.27194 0.10282 0.0
C2302 C 0.57599 0.2697 0.11988 0.0
H2303 H 0.76012 0.27953 0.1357 0.0
H2304 H 0.70569 0.27153 0.12178 0.0
H2305 H 0.66072 0.26062 0.11794 0.0
H2306 H 0.4563 0.27614 0.10656 0.0
H2307 H 0.50427 0.26754 0.1287 0.0
C2308 C 0.00966 0.27838 0.58146 0.0
C2309 C 0.01102 0.28391 0.55935 0.0
C2310 C 0.04014 0.27351 0.59007 0.0
C2311 C 0.10766 0.26412 0.60854 0.0
H2312 H 0.19153 0.27999 0.59477 0.0
C2313 C 0.2554 0.27598 0.64997 0.0
C2314 C 0.24316 0.28111 0.67118 0.0
C2315 C 0.23103 0.27121 0.63426 0.0
C2316 C 0.16869 0.27529 0.59844 0.0
H2317 H 0.04343 0.28773 0.52719 0.0
H2318 H 0.09582 0.27851 0.5409 0.0
H2319 H 0.13981 0.28146 0.56814 0.0
H2320 H 0.19684 0.28417 0.69444 0.0
H2321 H 0.15444 0.27562 0.66732 0.0
H2322 H 0.13606 0.25898 0.64102 0.0
C2323 C 0.07218 0.27843 0.55266 0.0
C2324 C 0.13873 0.27608 0.58301 0.0
C2325 C 0.04205 0.28363 0.54456 0.0
C2326 C 0.20692 0.28035 0.67809 0.0
C2327 C 0.18271 0.27539 0.66268 0.0
C2328 C 0.13739 0.26358 0.62449 0.0
C2329 C 0.07246 0.27382 0.57635 0.0
C2330 C 0.107 0.27089 0.58853 0.0
C2331 C 0.19427 0.27129 0.63991 0.0
C2332 C 0.16753 0.26947 0.62007 0.0
H2333 H 0.98596 0.27851 0.59321 0.0
H2334 H 0.03876 0.27019 0.60844 0.0
H2335 H 0.08449 0.25967 0.61293 0.0
H2336 H 0.2832 0.27644 0.64418 0.0
H2337 H 0.24046 0.26812 0.61675 0.0
C2338 C 0.52692 0.45359 0.69586 0.0
C2339 C 0.49726 0.45212 0.68023 0.0
C2340 C 0.55649 0.45892 0.68729 0.0
C2341 C 0.62473 0.46108 0.65875 0.0
H2342 H 0.62309 0.47552 0.59619 0.0
C2343 C 0.70021 0.45399 0.56744 0.0
C2344 C 0.73593 0.4539 0.57574 0.0
C2345 C 0.67421 0.45922 0.58068 0.0
C2346 C 0.62408 0.47169 0.61396 0.0
H2347 H 0.47383 0.45547 0.64418 0.0
H2348 H 0.52601 0.46398 0.62832 0.0
H2349 H 0.56957 0.47513 0.62253 0.0
H2350 H 0.77321 0.46002 0.60275 0.0
H2351 H 0.72736 0.46885 0.62645 0.0
H2352 H 0.67908 0.4576 0.64996 0.0
C2353 C 0.52657 0.46153 0.64759 0.0
C2354 C 0.59329 0.47132 0.62894 0.0
C2355 C 0.49652 0.45655 0.65656 0.0
C2356 C 0.74585 0.45993 0.59595 0.0
C2357 C 0.71969 0.465 0.60951 0.0
C2358 C 0.65566 0.46172 0.64421 0.0
C2359 C 0.5577 0.46244 0.66243 0.0
C2360 C 0.59246 0.46544 0.6507 0.0
C2361 C 0.68345 0.46429 0.60267 0.0
C2362 C 0.65499 0.46654 0.62102 0.0
H2363 H 0.52769 0.45034 0.71439 0.0
H2364 H 0.57909 0.4598 0.69979 0.0
H2365 H 0.62575 0.4564 0.67508 0.0
H2366 H 0.69191 0.44948 0.55177 0.0
H2367 H 0.64639 0.45849 0.57515 0.0
loop_
_geom_bond_atom_site_label_1
_geom_bond_atom_site_label_2
_geom_bond_distance
_geom_bond_site_symmetry_2
_ccdc_geom_bond_type
Mg0 O1 2.028 . S
Mg0 O7 1.986 . S
Mg0 O9 2.114 . S
Mg0 O10 2.251 . S
Mg0 O13 2.010 . S
O1 Mg0 2.028 . S
O1 C4 1.250 . S
O2 Mg3 2.028 . S
O2 C4 1.248 . S
Mg3 O2 2.028 . S
Mg3 O8 2.032 . S
Mg3 O10 2.079 . S
C4 O1 1.250 . S
C4 O2 1.248 . S
C5 O6 1.264 . S
C5 O13 1.249 . S
O6 C5 1.264 . S
O7 Mg0 1.986 . S
O7 C11 1.246 . S
O8 Mg3 2.032 . S
O8 C11 1.259 . S
O9 Mg0 2.114 . S
O9 C12 1.252 . S
O10 Mg0 2.251 . S
O10 Mg3 2.079 . S
O10 C12 1.273 . S
C11 O7 1.246 . S
C11 O8 1.259 . S
C12 O9 1.252 . S
C12 O10 1.273 . S
O13 Mg0 2.010 . S
O13 C5 1.249 . S
Mg14 O15 2.028 . S
Mg14 O21 1.986 . S
Mg14 O23 2.114 . S
Mg14 O24 2.251 . S
Mg14 O27 2.010 . S
O15 Mg14 2.028 . S
O15 C18 1.250 . S
O16 Mg17 2.028 . S
O16 C18 1.248 . S
Mg17 O16 2.028 . S
Mg17 O22 2.032 . S
Mg17 O24 2.079 . S
C18 O15 1.250 . S
C18 O16 1.248 . S
C19 O20 1.264 . S
C19 O27 1.249 . S
O20 C19 1.264 . S
O21 Mg14 1.986 . S
O21 C25 1.246 . S
O22 Mg17 2.032 . S
O22 C25 1.259 . S
O23 Mg14 2.114 . S
O23 C26 1.252 . S
O24 Mg14 2.251 . S
O24 Mg17 2.079 . S
O24 C26 1.273 . S
C25 O21 1.246 . S
C25 O22 1.259 . S
C26 O23 1.252 . S
C26 O24 1.273 . S
O27 Mg14 2.010 . S
O27 C19 1.249 . S
Mg28 O29 2.063 . S
Mg28 O35 1.986 . S
Mg28 O37 2.114 . S
Mg28 O38 2.251 . S
Mg28 O41 2.010 . S
O29 Mg28 2.063 . S
O29 C32 1.224 1_556 S
O30 Mg31 2.028 1_554 S
O30 C32 1.248 . S
Mg31 O30 2.028 1_556 S
Mg31 O36 2.032 . S
Mg31 O38 2.079 . S
C32 O29 1.224 1_554 S
C32 O30 1.248 . S
C33 O34 1.264 . S
C33 O41 1.249 . S
O34 C33 1.264 . S
O35 Mg28 1.986 . S
O35 C39 1.246 . S
O36 Mg31 2.032 . S
O36 C39 1.259 . S
O37 Mg28 2.114 . S
O37 C40 1.252 . S
O38 Mg28 2.251 . S
O38 Mg31 2.079 . S
O38 C40 1.273 . S
C39 O35 1.246 . S
C39 O36 1.259 . S
C40 O37 1.252 . S
C40 O38 1.273 . S
O41 Mg28 2.010 . S
O41 C33 1.249 . S
Mg42 O43 2.063 . S
Mg42 O49 1.986 . S
Mg42 O51 2.114 . S
Mg42 O52 2.251 . S
Mg42 O55 2.010 . S
O43 Mg42 2.063 . S
O43 C46 1.224 1_556 S
O44 Mg45 2.028 1_554 S
O44 C46 1.248 . S
Mg45 O44 2.028 1_556 S
Mg45 O50 2.032 . S
Mg45 O52 2.079 . S
C46 O43 1.224 1_554 S
C46 O44 1.248 . S
C47 O48 1.264 . S
C47 O55 1.249 . S
O48 C47 1.264 . S
O49 Mg42 1.986 . S
O49 C53 1.246 . S
O50 Mg45 2.032 . S
O50 C53 1.259 . S
O51 Mg42 2.114 . S
O51 C54 1.252 . S
O52 Mg42 2.251 . S
O52 Mg45 2.079 . S
O52 C54 1.273 . S
C53 O49 1.246 . S
C53 O50 1.259 . S
C54 O51 1.252 . S
C54 O52 1.273 . S
O55 Mg42 2.010 . S
O55 C47 1.249 . S
Mg56 O57 2.028 . S
Mg56 O63 1.986 . S
Mg56 O65 2.114 . S
Mg56 O66 2.251 . S
Mg56 O69 2.010 . S
O57 Mg56 2.028 . S
O57 C60 1.250 . S
O58 Mg59 2.028 . S
O58 C60 1.248 . S
Mg59 O58 2.028 . S
Mg59 O64 2.032 . S
Mg59 O66 2.079 . S
C60 O57 1.250 . S
C60 O58 1.248 . S
C61 O62 1.264 . S
C61 O69 1.249 . S
O62 C61 1.264 . S
O63 Mg56 1.986 . S
O63 C67 1.246 . S
O64 Mg59 2.032 . S
O64 C67 1.259 . S
O65 Mg56 2.114 . S
O65 C68 1.252 . S
O66 Mg56 2.251 . S
O66 Mg59 2.079 . S
O66 C68 1.273 . S
C67 O63 1.246 . S
C67 O64 1.259 . S
C68 O65 1.252 . S
C68 O66 1.273 . S
O69 Mg56 2.010 . S
O69 C61 1.249 . S
Mg70 O71 2.028 . S
Mg70 O77 1.986 . S
Mg70 O79 2.114 . S
Mg70 O80 2.251 . S
Mg70 O83 2.010 . S
O71 Mg70 2.028 . S
O71 C74 1.250 . S
O72 Mg73 2.028 . S
O72 C74 1.248 . S
Mg73 O72 2.028 . S
Mg73 O78 2.032 . S
Mg73 O80 2.079 . S
C74 O71 1.250 . S
C74 O72 1.248 . S
C75 O76 1.264 . S
C75 O83 1.249 . S
O76 C75 1.264 . S
O77 Mg70 1.986 . S
O77 C81 1.246 . S
O78 Mg73 2.032 . S
O78 C81 1.259 . S
O79 Mg70 2.114 . S
O79 C82 1.252 . S
O80 Mg70 2.251 . S
O80 Mg73 2.079 . S
O80 C82 1.273 . S
C81 O77 1.246 . S
C81 O78 1.259 . S
C82 O79 1.252 . S
C82 O80 1.273 . S
O83 Mg70 2.010 . S
O83 C75 1.249 . S
Mg84 O85 2.063 . S
Mg84 O91 1.986 . S
Mg84 O93 2.114 . S
Mg84 O94 2.251 . S
Mg84 O97 2.010 . S
O85 Mg84 2.063 . S
O85 C88 1.224 1_554 S
O86 Mg87 2.028 1_556 S
O86 C88 1.248 . S
Mg87 O86 2.028 1_554 S
Mg87 O92 2.032 . S
Mg87 O94 2.079 . S
C88 O85 1.224 1_556 S
C88 O86 1.248 . S
C89 O90 1.264 . S
C89 O97 1.249 . S
O90 C89 1.264 . S
O91 Mg84 1.986 . S
O91 C95 1.246 . S
O92 Mg87 2.032 . S
O92 C95 1.259 . S
O93 Mg84 2.114 . S
O93 C96 1.252 . S
O94 Mg84 2.251 . S
O94 Mg87 2.079 . S
O94 C96 1.273 . S
C95 O91 1.246 . S
C95 O92 1.259 . S
C96 O93 1.252 . S
C96 O94 1.273 . S
O97 Mg84 2.010 . S
O97 C89 1.249 . S
Mg98 O99 2.063 . S
Mg98 O105 1.986 . S
Mg98 O107 2.114 . S
Mg98 O108 2.251 . S
Mg98 O111 2.010 . S
O99 Mg98 2.063 . S
O99 C102 1.224 1_554 S
O100 Mg101 2.028 1_556 S
O100 C102 1.248 . S
Mg101 O100 2.028 1_554 S
Mg101 O106 2.032 . S
Mg101 O108 2.079 . S
C102 O99 1.224 1_556 S
C102 O100 1.248 . S
C103 O104 1.264 . S
C103 O111 1.249 . S
O104 C103 1.264 . S
O105 Mg98 1.986 . S
O105 C109 1.246 . S
O106 Mg101 2.032 . S
O106 C109 1.259 . S
O107 Mg98 2.114 . S
O107 C110 1.252 . S
O108 Mg98 2.251 . S
O108 Mg101 2.079 . S
O108 C110 1.273 . S
C109 O105 1.246 . S
C109 O106 1.259 . S
C110 O107 1.252 . S
C110 O108 1.273 . S
O111 Mg98 2.010 . S
O111 C103 1.249 . S
Mg112 O113 2.028 . S
Mg112 O119 1.986 . S
Mg112 O121 2.114 . S
Mg112 O122 2.251 . S
Mg112 O125 2.010 . S
O113 Mg112 2.028 . S
O113 C116 1.250 . S
O114 Mg115 2.028 . S
O114 C116 1.248 . S
Mg115 O114 2.028 . S
Mg115 O120 2.032 . S
Mg115 O122 2.079 . S
C116 O113 1.250 . S
C116 O114 1.248 . S
C117 O118 1.264 . S
C117 O125 1.249 . S
O118 C117 1.264 . S
O119 Mg112 1.986 . S
O119 C123 1.246 . S
O120 Mg115 2.032 . S
O120 C123 1.259 . S
O121 Mg112 2.114 . S
O121 C124 1.252 . S
O122 Mg112 2.251 . S
O122 Mg115 2.079 . S
O122 C124 1.273 . S
C123 O119 1.246 . S
C123 O120 1.259 . S
C124 O121 1.252 . S
C124 O122 1.273 . S
O125 Mg112 2.010 . S
O125 C117 1.249 . S
Mg126 O127 2.028 . S
Mg126 O133 1.986 . S
Mg126 O135 2.114 . S
Mg126 O136 2.251 . S
Mg126 O139 2.010 . S
O127 Mg126 2.028 . S
O127 C130 1.250 . S
O128 Mg129 2.028 . S
O128 C130 1.248 . S
Mg129 O128 2.028 . S
Mg129 O134 2.032 . S
Mg129 O136 2.079 . S
C130 O127 1.250 . S
C130 O128 1.248 . S
C131 O132 1.264 . S
C131 O139 1.249 . S
O132 C131 1.264 . S
O133 Mg126 1.986 . S
O133 C137 1.246 . S
O134 Mg129 2.032 . S
O134 C137 1.259 . S
O135 Mg126 2.114 . S
O135 C138 1.252 . S
O136 Mg126 2.251 . S
O136 Mg129 2.079 . S
O136 C138 1.273 . S
C137 O133 1.246 . S
C137 O134 1.259 . S
C138 O135 1.252 . S
C138 O136 1.273 . S
O139 Mg126 2.010 . S
O139 C131 1.249 . S
Mg140 O141 2.028 . S
Mg140 O147 1.986 . S
Mg140 O149 2.114 . S
Mg140 O150 2.251 . S
Mg140 O153 2.010 . S
O141 Mg140 2.028 . S
O141 C144 1.250 . S
O142 Mg143 2.028 . S
O142 C144 1.248 . S
Mg143 O142 2.028 . S
Mg143 O148 2.032 . S
Mg143 O150 2.079 . S
C144 O141 1.250 . S
C144 O142 1.248 . S
C145 O146 1.264 . S
C145 O153 1.249 . S
O146 C145 1.264 . S
O147 Mg140 1.986 . S
O147 C151 1.246 . S
O148 Mg143 2.032 . S
O148 C151 1.259 . S
O149 Mg140 2.114 . S
O149 C152 1.252 . S
O150 Mg140 2.251 . S
O150 Mg143 2.079 . S
O150 C152 1.273 . S
C151 O147 1.246 . S
C151 O148 1.259 . S
C152 O149 1.252 . S
C152 O150 1.273 . S
O153 Mg140 2.010 . S
O153 C145 1.249 . S
Mg154 O155 2.028 . S
Mg154 O161 1.986 . S
Mg154 O163 2.114 . S
Mg154 O164 2.251 . S
Mg154 O167 2.010 . S
O155 Mg154 2.028 . S
O155 C158 1.250 . S
O156 Mg157 2.028 . S
O156 C158 1.248 . S
Mg157 O156 2.028 . S
Mg157 O162 2.032 . S
Mg157 O164 2.079 . S
C158 O155 1.250 . S
C158 O156 1.248 . S
C159 O160 1.264 . S
C159 O167 1.249 . S
O160 C159 1.264 . S
O161 Mg154 1.986 . S
O161 C165 1.246 . S
O162 Mg157 2.032 . S
O162 C165 1.259 . S
O163 Mg154 2.114 . S
O163 C166 1.252 . S
O164 Mg154 2.251 . S
O164 Mg157 2.079 . S
O164 C166 1.273 . S
C165 O161 1.246 . S
C165 O162 1.259 . S
C166 O163 1.252 . S
C166 O164 1.273 . S
O167 Mg154 2.010 . S
O167 C159 1.249 . S
Mg168 O169 2.028 . S
Mg168 O175 1.986 . S
Mg168 O177 2.114 . S
Mg168 O178 2.251 . S
Mg168 O181 2.010 . S
O169 Mg168 2.028 . S
O169 C172 1.250 . S
O170 Mg171 2.028 . S
O170 C172 1.248 . S
Mg171 O170 2.028 . S
Mg171 O176 2.032 . S
Mg171 O178 2.079 . S
C172 O169 1.250 . S
C172 O170 1.248 . S
C173 O174 1.264 . S
C173 O181 1.249 . S
O174 C173 1.264 . S
O175 Mg168 1.986 . S
O175 C179 1.246 . S
O176 Mg171 2.032 . S
O176 C179 1.259 . S
O177 Mg168 2.114 . S
O177 C180 1.252 . S
O178 Mg168 2.251 . S
O178 Mg171 2.079 . S
O178 C180 1.273 . S
C179 O175 1.246 . S
C179 O176 1.259 . S
C180 O177 1.252 . S
C180 O178 1.273 . S
O181 Mg168 2.010 . S
O181 C173 1.249 . S
Mg182 O183 2.028 . S
Mg182 O189 1.986 . S
Mg182 O191 2.114 . S
Mg182 O192 2.251 . S
Mg182 O195 2.010 . S
O183 Mg182 2.028 . S
O183 C186 1.250 . S
O184 Mg185 2.028 . S
O184 C186 1.248 . S
Mg185 O184 2.028 . S
Mg185 O190 2.032 . S
Mg185 O192 2.079 . S
C186 O183 1.250 . S
C186 O184 1.248 . S
C187 O188 1.264 . S
C187 O195 1.249 . S
O188 C187 1.264 . S
O189 Mg182 1.986 . S
O189 C193 1.246 . S
O190 Mg185 2.032 . S
O190 C193 1.259 . S
O191 Mg182 2.114 . S
O191 C194 1.252 . S
O192 Mg182 2.251 . S
O192 Mg185 2.079 . S
O192 C194 1.273 . S
C193 O189 1.246 . S
C193 O190 1.259 . S
C194 O191 1.252 . S
C194 O192 1.273 . S
O195 Mg182 2.010 . S
O195 C187 1.249 . S
Mg196 O197 2.028 . S
Mg196 O203 1.986 . S
Mg196 O205 2.114 . S
Mg196 O206 2.251 . S
Mg196 O209 2.010 . S
O197 Mg196 2.028 . S
O197 C200 1.250 . S
O198 Mg199 2.028 . S
O198 C200 1.248 . S
Mg199 O198 2.028 . S
Mg199 O204 2.032 . S
Mg199 O206 2.079 . S
C200 O197 1.250 . S
C200 O198 1.248 . S
C201 O202 1.264 . S
C201 O209 1.249 . S
O202 C201 1.264 . S
O203 Mg196 1.986 . S
O203 C207 1.246 . S
O204 Mg199 2.032 . S
O204 C207 1.259 . S
O205 Mg196 2.114 . S
O205 C208 1.252 . S
O206 Mg196 2.251 . S
O206 Mg199 2.079 . S
O206 C208 1.273 . S
C207 O203 1.246 . S
C207 O204 1.259 . S
C208 O205 1.252 . S
C208 O206 1.273 . S
O209 Mg196 2.010 . S
O209 C201 1.249 . S
Mg210 O211 2.028 . S
Mg210 O217 1.986 . S
Mg210 O219 2.114 . S
Mg210 O220 2.251 . S
Mg210 O223 2.010 . S
O211 Mg210 2.028 . S
O211 C214 1.250 . S
O212 Mg213 2.028 . S
O212 C214 1.248 . S
Mg213 O212 2.028 . S
Mg213 O218 2.032 . S
Mg213 O220 2.079 . S
C214 O211 1.250 . S
C214 O212 1.248 . S
C215 O216 1.264 . S
C215 O223 1.249 . S
O216 C215 1.264 . S
O217 Mg210 1.986 . S
O217 C221 1.246 . S
O218 Mg213 2.032 . S
O218 C221 1.259 . S
O219 Mg210 2.114 . S
O219 C222 1.252 . S
O220 Mg210 2.251 . S
O220 Mg213 2.079 . S
O220 C222 1.273 . S
C221 O217 1.246 . S
C221 O218 1.259 . S
C222 O219 1.252 . S
C222 O220 1.273 . S
O223 Mg210 2.010 . S
O223 C215 1.249 . S
Mg224 O225 2.028 . S
Mg224 O231 1.986 . S
Mg224 O233 2.114 . S
Mg224 O234 2.251 . S
Mg224 O237 2.010 . S
O225 Mg224 2.028 . S
O225 C228 1.250 . S
O226 Mg227 2.028 . S
O226 C228 1.248 . S
Mg227 O226 2.028 . S
Mg227 O232 2.032 . S
Mg227 O234 2.079 . S
C228 O225 1.250 . S
C228 O226 1.248 . S
C229 O230 1.264 . S
C229 O237 1.249 . S
O230 C229 1.264 . S
O231 Mg224 1.986 . S
O231 C235 1.246 . S
O232 Mg227 2.032 . S
O232 C235 1.259 . S
O233 Mg224 2.114 . S
O233 C236 1.252 . S
O234 Mg224 2.251 . S
O234 Mg227 2.079 . S
O234 C236 1.273 . S
C235 O231 1.246 . S
C235 O232 1.259 . S
C236 O233 1.252 . S
C236 O234 1.273 . S
O237 Mg224 2.010 . S
O237 C229 1.249 . S
Mg238 O239 2.028 . S
Mg238 O245 1.986 . S
Mg238 O247 2.114 . S
Mg238 O248 2.251 . S
Mg238 O251 2.010 . S
O239 Mg238 2.028 . S
O239 C242 1.250 . S
O240 Mg241 2.028 . S
O240 C242 1.248 . S
Mg241 O240 2.028 . S
Mg241 O246 2.032 . S
Mg241 O248 2.079 . S
C242 O239 1.250 . S
C242 O240 1.248 . S
C243 O244 1.264 . S
C243 O251 1.249 . S
O244 C243 1.264 . S
O245 Mg238 1.986 . S
O245 C249 1.246 . S
O246 Mg241 2.032 . S
O246 C249 1.259 . S
O247 Mg238 2.114 . S
O247 C250 1.252 . S
O248 Mg238 2.251 . S
O248 Mg241 2.079 . S
O248 C250 1.273 . S
C249 O245 1.246 . S
C249 O246 1.259 . S
C250 O247 1.252 . S
C250 O248 1.273 . S
O251 Mg238 2.010 . S
O251 C243 1.249 . S
Mg252 O253 2.028 . S
Mg252 O259 1.986 . S
Mg252 O261 2.114 . S
Mg252 O262 2.251 . S
Mg252 O265 2.010 . S
O253 Mg252 2.028 . S
O253 C256 1.250 . S
O254 Mg255 2.028 . S
O254 C256 1.248 . S
Mg255 O254 2.028 . S
Mg255 O260 2.032 . S
Mg255 O262 2.079 . S
C256 O253 1.250 . S
C256 O254 1.248 . S
C257 O258 1.264 . S
C257 O265 1.249 . S
O258 C257 1.264 . S
O259 Mg252 1.986 . S
O259 C263 1.246 . S
O260 Mg255 2.032 . S
O260 C263 1.259 . S
O261 Mg252 2.114 . S
O261 C264 1.252 . S
O262 Mg252 2.251 . S
O262 Mg255 2.079 . S
O262 C264 1.273 . S
C263 O259 1.246 . S
C263 O260 1.259 . S
C264 O261 1.252 . S
C264 O262 1.273 . S
O265 Mg252 2.010 . S
O265 C257 1.249 . S
Mg266 O267 2.028 . S
Mg266 O273 1.986 . S
Mg266 O275 2.114 . S
Mg266 O276 2.251 . S
Mg266 O279 2.010 . S
O267 Mg266 2.028 . S
O267 C270 1.250 . S
O268 Mg269 2.028 . S
O268 C270 1.248 . S
Mg269 O268 2.028 . S
Mg269 O274 2.032 . S
Mg269 O276 2.079 . S
C270 O267 1.250 . S
C270 O268 1.248 . S
C271 O272 1.264 . S
C271 O279 1.249 . S
O272 C271 1.264 . S
O273 Mg266 1.986 . S
O273 C277 1.246 . S
O274 Mg269 2.032 . S
O274 C277 1.259 . S
O275 Mg266 2.114 . S
O275 C278 1.252 . S
O276 Mg266 2.251 . S
O276 Mg269 2.079 . S
O276 C278 1.273 . S
C277 O273 1.246 . S
C277 O274 1.259 . S
C278 O275 1.252 . S
C278 O276 1.273 . S
O279 Mg266 2.010 . S
O279 C271 1.249 . S
Mg280 O281 2.028 . S
Mg280 O287 1.986 . S
Mg280 O289 2.114 . S
Mg280 O290 2.251 . S
Mg280 O293 2.010 . S
O281 Mg280 2.028 . S
O281 C284 1.250 . S
O282 Mg283 2.028 . S
O282 C284 1.248 . S
Mg283 O282 2.028 . S
Mg283 O288 2.032 . S
Mg283 O290 2.079 . S
C284 O281 1.250 . S
C284 O282 1.248 . S
C285 O286 1.264 . S
C285 O293 1.249 . S
O286 C285 1.264 . S
O287 Mg280 1.986 . S
O287 C291 1.246 . S
O288 Mg283 2.032 . S
O288 C291 1.259 . S
O289 Mg280 2.114 . S
O289 C292 1.252 . S
O290 Mg280 2.251 . S
O290 Mg283 2.079 . S
O290 C292 1.273 . S
C291 O287 1.246 . S
C291 O288 1.259 . S
C292 O289 1.252 . S
C292 O290 1.273 . S
O293 Mg280 2.010 . S
O293 C285 1.249 . S
Mg294 O295 2.028 . S
Mg294 O301 1.986 . S
Mg294 O303 2.114 . S
Mg294 O304 2.251 . S
Mg294 O307 2.010 . S
O295 Mg294 2.028 . S
O295 C298 1.250 . S
O296 Mg297 2.028 . S
O296 C298 1.248 . S
Mg297 O296 2.028 . S
Mg297 O302 2.032 . S
Mg297 O304 2.079 . S
C298 O295 1.250 . S
C298 O296 1.248 . S
C299 O300 1.264 . S
C299 O307 1.249 . S
O300 C299 1.264 . S
O301 Mg294 1.986 . S
O301 C305 1.246 . S
O302 Mg297 2.032 . S
O302 C305 1.259 . S
O303 Mg294 2.114 . S
O303 C306 1.252 . S
O304 Mg294 2.251 . S
O304 Mg297 2.079 . S
O304 C306 1.273 . S
C305 O301 1.246 . S
C305 O302 1.259 . S
C306 O303 1.252 . S
C306 O304 1.273 . S
O307 Mg294 2.010 . S
O307 C299 1.249 . S
Mg308 O309 2.028 . S
Mg308 O315 1.986 . S
Mg308 O317 2.114 . S
Mg308 O318 2.251 . S
Mg308 O321 2.010 . S
O309 Mg308 2.028 . S
O309 C312 1.250 . S
O310 Mg311 2.028 . S
O310 C312 1.248 . S
Mg311 O310 2.028 . S
Mg311 O316 2.032 . S
Mg311 O318 2.079 . S
C312 O309 1.250 . S
C312 O310 1.248 . S
C313 O314 1.264 . S
C313 O321 1.249 . S
O314 C313 1.264 . S
O315 Mg308 1.986 . S
O315 C319 1.246 . S
O316 Mg311 2.032 . S
O316 C319 1.259 . S
O317 Mg308 2.114 . S
O317 C320 1.252 . S
O318 Mg308 2.251 . S
O318 Mg311 2.079 . S
O318 C320 1.273 . S
C319 O315 1.246 . S
C319 O316 1.259 . S
C320 O317 1.252 . S
C320 O318 1.273 . S
O321 Mg308 2.010 . S
O321 C313 1.249 . S
Mg322 O323 2.028 . S
Mg322 O329 1.986 . S
Mg322 O331 2.114 . S
Mg322 O332 2.251 . S
Mg322 O335 2.010 . S
O323 Mg322 2.028 . S
O323 C326 1.250 . S
O324 Mg325 2.028 . S
O324 C326 1.248 . S
Mg325 O324 2.028 . S
Mg325 O330 2.032 . S
Mg325 O332 2.079 . S
C326 O323 1.250 . S
C326 O324 1.248 . S
C327 O328 1.264 . S
C327 O335 1.249 . S
O328 C327 1.264 . S
O329 Mg322 1.986 . S
O329 C333 1.246 . S
O330 Mg325 2.032 . S
O330 C333 1.259 . S
O331 Mg322 2.114 . S
O331 C334 1.252 . S
O332 Mg322 2.251 . S
O332 Mg325 2.079 . S
O332 C334 1.273 . S
C333 O329 1.246 . S
C333 O330 1.259 . S
C334 O331 1.252 . S
C334 O332 1.273 . S
O335 Mg322 2.010 . S
O335 C327 1.249 . S
Mg336 O337 2.028 . S
Mg336 O343 1.986 . S
Mg336 O345 2.114 . S
Mg336 O346 2.251 . S
Mg336 O349 2.010 . S
O337 Mg336 2.028 . S
O337 C340 1.250 . S
O338 Mg339 2.028 . S
O338 C340 1.248 . S
Mg339 O338 2.028 . S
Mg339 O344 2.032 . S
Mg339 O346 2.079 . S
C340 O337 1.250 . S
C340 O338 1.248 . S
C341 O342 1.264 . S
C341 O349 1.249 . S
O342 C341 1.264 . S
O343 Mg336 1.986 . S
O343 C347 1.246 . S
O344 Mg339 2.032 . S
O344 C347 1.259 . S
O345 Mg336 2.114 . S
O345 C348 1.252 . S
O346 Mg336 2.251 . S
O346 Mg339 2.079 . S
O346 C348 1.273 . S
C347 O343 1.246 . S
C347 O344 1.259 . S
C348 O345 1.252 . S
C348 O346 1.273 . S
O349 Mg336 2.010 . S
O349 C341 1.249 . S
Mg350 O351 2.028 . S
Mg350 O357 1.986 . S
Mg350 O359 2.114 . S
Mg350 O360 2.251 . S
Mg350 O363 2.010 . S
O351 Mg350 2.028 . S
O351 C354 1.250 . S
O352 Mg353 2.028 . S
O352 C354 1.248 . S
Mg353 O352 2.028 . S
Mg353 O358 2.032 . S
Mg353 O360 2.079 . S
C354 O351 1.250 . S
C354 O352 1.248 . S
C355 O356 1.264 . S
C355 O363 1.249 . S
O356 C355 1.264 . S
O357 Mg350 1.986 . S
O357 C361 1.246 . S
O358 Mg353 2.032 . S
O358 C361 1.259 . S
O359 Mg350 2.114 . S
O359 C362 1.252 . S
O360 Mg350 2.251 . S
O360 Mg353 2.079 . S
O360 C362 1.273 . S
C361 O357 1.246 . S
C361 O358 1.259 . S
C362 O359 1.252 . S
C362 O360 1.273 . S
O363 Mg350 2.010 . S
O363 C355 1.249 . S
Mg364 O365 2.063 . S
Mg364 O371 1.986 . S
Mg364 O373 2.114 . S
Mg364 O374 2.251 . S
Mg364 O377 2.010 . S
O365 Mg364 2.063 . S
O365 C368 1.224 1_556 S
O366 Mg367 2.028 1_554 S
O366 C368 1.248 . S
Mg367 O366 2.028 1_556 S
Mg367 O372 2.032 . S
Mg367 O374 2.079 . S
C368 O365 1.224 1_554 S
C368 O366 1.248 . S
C369 O370 1.264 . S
C369 O377 1.249 . S
O370 C369 1.264 . S
O371 Mg364 1.986 . S
O371 C375 1.246 . S
O372 Mg367 2.032 . S
O372 C375 1.259 . S
O373 Mg364 2.114 . S
O373 C376 1.252 . S
O374 Mg364 2.251 . S
O374 Mg367 2.079 . S
O374 C376 1.273 . S
C375 O371 1.246 . S
C375 O372 1.259 . S
C376 O373 1.252 . S
C376 O374 1.273 . S
O377 Mg364 2.010 . S
O377 C369 1.249 . S
Mg378 O379 2.063 . S
Mg378 O385 1.986 . S
Mg378 O387 2.114 . S
Mg378 O388 2.251 . S
Mg378 O391 2.010 . S
O379 Mg378 2.063 . S
O379 C382 1.224 1_556 S
O380 Mg381 2.028 1_554 S
O380 C382 1.248 . S
Mg381 O380 2.028 1_556 S
Mg381 O386 2.032 . S
Mg381 O388 2.079 . S
C382 O379 1.224 1_554 S
C382 O380 1.248 . S
C383 O384 1.264 . S
C383 O391 1.249 . S
O384 C383 1.264 . S
O385 Mg378 1.986 . S
O385 C389 1.246 . S
O386 Mg381 2.032 . S
O386 C389 1.259 . S
O387 Mg378 2.114 . S
O387 C390 1.252 . S
O388 Mg378 2.251 . S
O388 Mg381 2.079 . S
O388 C390 1.273 . S
C389 O385 1.246 . S
C389 O386 1.259 . S
C390 O387 1.252 . S
C390 O388 1.273 . S
O391 Mg378 2.010 . S
O391 C383 1.249 . S
Mg392 O393 2.028 . S
Mg392 O399 1.986 . S
Mg392 O401 2.114 . S
Mg392 O402 2.251 . S
Mg392 O405 2.010 . S
O393 Mg392 2.028 . S
O393 C396 1.250 . S
O394 Mg395 2.028 . S
O394 C396 1.248 . S
Mg395 O394 2.028 . S
Mg395 O400 2.032 . S
Mg395 O402 2.079 . S
C396 O393 1.250 . S
C396 O394 1.248 . S
C397 O398 1.264 . S
C397 O405 1.249 . S
O398 C397 1.264 . S
O399 Mg392 1.986 . S
O399 C403 1.246 . S
O400 Mg395 2.032 . S
O400 C403 1.259 . S
O401 Mg392 2.114 . S
O401 C404 1.252 . S
O402 Mg392 2.251 . S
O402 Mg395 2.079 . S
O402 C404 1.273 . S
C403 O399 1.246 . S
C403 O400 1.259 . S
C404 O401 1.252 . S
C404 O402 1.273 . S
O405 Mg392 2.010 . S
O405 C397 1.249 . S
Mg406 O407 2.028 . S
Mg406 O413 1.986 . S
Mg406 O415 2.114 . S
Mg406 O416 2.251 . S
Mg406 O419 2.010 . S
O407 Mg406 2.028 . S
O407 C410 1.250 . S
O408 Mg409 2.028 . S
O408 C410 1.248 . S
Mg409 O408 2.028 . S
Mg409 O414 2.032 . S
Mg409 O416 2.079 . S
C410 O407 1.250 . S
C410 O408 1.248 . S
C411 O412 1.264 . S
C411 O419 1.249 . S
O412 C411 1.264 . S
O413 Mg406 1.986 . S
O413 C417 1.246 . S
O414 Mg409 2.032 . S
O414 C417 1.259 . S
O415 Mg406 2.114 . S
O415 C418 1.252 . S
O416 Mg406 2.251 . S
O416 Mg409 2.079 . S
O416 C418 1.273 . S
C417 O413 1.246 . S
C417 O414 1.259 . S
C418 O415 1.252 . S
C418 O416 1.273 . S
O419 Mg406 2.010 . S
O419 C411 1.249 . S
Mg420 O421 2.063 . S
Mg420 O427 1.986 . S
Mg420 O429 2.114 . S
Mg420 O430 2.251 . S
Mg420 O433 2.010 . S
O421 Mg420 2.063 . S
O421 C424 1.224 1_554 S
O422 Mg423 2.028 1_556 S
O422 C424 1.248 . S
Mg423 O422 2.028 1_554 S
Mg423 O428 2.032 . S
Mg423 O430 2.079 . S
C424 O421 1.224 1_556 S
C424 O422 1.248 . S
C425 O426 1.264 . S
C425 O433 1.249 . S
O426 C425 1.264 . S
O427 Mg420 1.986 . S
O427 C431 1.246 . S
O428 Mg423 2.032 . S
O428 C431 1.259 . S
O429 Mg420 2.114 . S
O429 C432 1.252 . S
O430 Mg420 2.251 . S
O430 Mg423 2.079 . S
O430 C432 1.273 . S
C431 O427 1.246 . S
C431 O428 1.259 . S
C432 O429 1.252 . S
C432 O430 1.273 . S
O433 Mg420 2.010 . S
O433 C425 1.249 . S
Mg434 O435 2.063 . S
Mg434 O441 1.986 . S
Mg434 O443 2.114 . S
Mg434 O444 2.251 . S
Mg434 O447 2.010 . S
O435 Mg434 2.063 . S
O435 C438 1.224 1_554 S
O436 Mg437 2.028 1_556 S
O436 C438 1.248 . S
Mg437 O436 2.028 1_554 S
Mg437 O442 2.032 . S
Mg437 O444 2.079 . S
C438 O435 1.224 1_556 S
C438 O436 1.248 . S
C439 O440 1.264 . S
C439 O447 1.249 . S
O440 C439 1.264 . S
O441 Mg434 1.986 . S
O441 C445 1.246 . S
O442 Mg437 2.032 . S
O442 C445 1.259 . S
O443 Mg434 2.114 . S
O443 C446 1.252 . S
O444 Mg434 2.251 . S
O444 Mg437 2.079 . S
O444 C446 1.273 . S
C445 O441 1.246 . S
C445 O442 1.259 . S
C446 O443 1.252 . S
C446 O444 1.273 . S
O447 Mg434 2.010 . S
O447 C439 1.249 . S
C448 C449 1.349 . S
C448 C450 1.327 . S
C448 H473 0.950 . S
C449 C448 1.349 . S
C449 C465 1.349 . S
C450 C448 1.327 . S
C450 C469 1.429 . S
C450 H474 0.950 . S
C451 C468 1.574 . S
C451 C470 1.368 . S
C451 H475 0.949 . S
H452 C456 0.949 . S
C453 C454 1.349 . S
C453 C455 1.327 . S
C453 H476 0.950 . S
C454 C453 1.349 . S
C454 C466 1.349 . S
C455 C453 1.327 . S
C455 C471 1.429 . S
C455 H477 0.950 . S
C456 H452 0.949 . S
C456 C464 1.574 . S
C456 C472 1.368 . S
H457 C465 0.950 . S
H458 C463 0.950 . S
H459 C464 0.949 . S
H460 C466 0.950 . S
H461 C467 0.950 . S
H462 C468 0.949 . S
C463 H458 0.950 . S
C463 C465 1.327 . S
C463 C469 1.429 . S
C464 C456 1.574 . S
C464 H459 0.949 . S
C464 C470 1.368 . S
C465 C449 1.349 . S
C465 H457 0.950 . S
C465 C463 1.327 . S
C466 C454 1.349 . S
C466 H460 0.950 . S
C466 C467 1.327 . S
C467 H461 0.950 . S
C467 C466 1.327 . S
C467 C471 1.429 . S
C468 C451 1.574 . S
C468 H462 0.949 . S
C468 C472 1.368 . S
C469 C450 1.429 . S
C469 C463 1.429 . S
C469 C470 1.523 . S
C470 C451 1.368 . S
C470 C464 1.368 . S
C470 C469 1.523 . S
C471 C455 1.429 . S
C471 C467 1.429 . S
C471 C472 1.523 . S
C472 C456 1.368 . S
C472 C468 1.368 . S
C472 C471 1.523 . S
H473 C448 0.950 . S
H474 C450 0.950 . S
H475 C451 0.949 . S
H476 C453 0.950 . S
H477 C455 0.950 . S
C478 C479 1.349 . S
C478 C480 1.327 . S
C478 H503 0.950 . S
C479 C478 1.349 . S
C479 C495 1.349 . S
C480 C478 1.327 . S
C480 C499 1.429 . S
C480 H504 0.950 . S
C481 C498 1.574 . S
C481 C500 1.368 . S
C481 H505 0.949 . S
H482 C486 0.949 . S
C483 C484 1.349 . S
C483 C485 1.327 . S
C483 H506 0.950 . S
C484 C483 1.349 . S
C484 C496 1.349 . S
C485 C483 1.327 . S
C485 C501 1.429 . S
C485 H507 0.950 . S
C486 H482 0.949 . S
C486 C494 1.574 . S
C486 C502 1.368 . S
H487 C495 0.950 . S
H488 C493 0.950 . S
H489 C494 0.949 . S
H490 C496 0.950 . S
H491 C497 0.950 . S
H492 C498 0.949 . S
C493 H488 0.950 . S
C493 C495 1.327 . S
C493 C499 1.429 . S
C494 C486 1.574 . S
C494 H489 0.949 . S
C494 C500 1.368 . S
C495 C479 1.349 . S
C495 H487 0.950 . S
C495 C493 1.327 . S
C496 C484 1.349 . S
C496 H490 0.950 . S
C496 C497 1.327 . S
C497 H491 0.950 . S
C497 C496 1.327 . S
C497 C501 1.429 . S
C498 C481 1.574 . S
C498 H492 0.949 . S
C498 C502 1.368 . S
C499 C480 1.429 . S
C499 C493 1.429 . S
C499 C500 1.523 . S
C500 C481 1.368 . S
C500 C494 1.368 . S
C500 C499 1.523 . S
C501 C485 1.429 . S
C501 C497 1.429 . S
C501 C502 1.523 . S
C502 C486 1.368 . S
C502 C498 1.368 . S
C502 C501 1.523 . S
H503 C478 0.950 . S
H504 C480 0.950 . S
H505 C481 0.949 . S
H506 C483 0.950 . S
H507 C485 0.950 . S
C508 C509 1.349 . S
C508 C510 1.327 . S
C508 H533 0.950 . S
C509 C508 1.349 . S
C509 C525 1.349 . S
C510 C508 1.327 . S
C510 C529 1.429 . S
C510 H534 0.950 . S
C511 C528 1.574 . S
C511 C530 1.368 . S
C511 H535 0.949 . S
H512 C516 0.949 . S
C513 C514 1.349 . S
C513 C515 1.327 . S
C513 H536 0.950 . S
C514 C513 1.349 . S
C514 C526 1.349 . S
C515 C513 1.327 . S
C515 C531 1.429 . S
C515 H537 0.950 . S
C516 H512 0.949 . S
C516 C524 1.574 . S
C516 C532 1.368 . S
H517 C525 0.950 . S
H518 C523 0.950 . S
H519 C524 0.949 . S
H520 C526 0.950 . S
H521 C527 0.950 . S
H522 C528 0.949 . S
C523 H518 0.950 . S
C523 C525 1.327 . S
C523 C529 1.429 . S
C524 C516 1.574 . S
C524 H519 0.949 . S
C524 C530 1.368 . S
C525 C509 1.349 . S
C525 H517 0.950 . S
C525 C523 1.327 . S
C526 C514 1.349 . S
C526 H520 0.950 . S
C526 C527 1.327 . S
C527 H521 0.950 . S
C527 C526 1.327 . S
C527 C531 1.429 . S
C528 C511 1.574 . S
C528 H522 0.949 . S
C528 C532 1.368 . S
C529 C510 1.429 . S
C529 C523 1.429 . S
C529 C530 1.523 . S
C530 C511 1.368 . S
C530 C524 1.368 . S
C530 C529 1.523 . S
C531 C515 1.429 . S
C531 C527 1.429 . S
C531 C532 1.523 . S
C532 C516 1.368 . S
C532 C528 1.368 . S
C532 C531 1.523 . S
H533 C508 0.950 . S
H534 C510 0.950 . S
H535 C511 0.949 . S
H536 C513 0.950 . S
H537 C515 0.950 . S
C538 C539 1.349 . S
C538 C540 1.327 . S
C538 H563 0.950 . S
C539 C538 1.349 . S
C539 C555 1.349 . S
C540 C538 1.327 . S
C540 C559 1.429 . S
C540 H564 0.950 . S
C541 C558 1.574 . S
C541 C560 1.368 . S
C541 H565 0.949 . S
H542 C546 0.949 . S
C543 C544 1.349 . S
C543 C545 1.327 . S
C543 H566 0.950 . S
C544 C543 1.349 . S
C544 C556 1.349 . S
C545 C543 1.327 . S
C545 C561 1.429 . S
C545 H567 0.950 . S
C546 H542 0.949 . S
C546 C554 1.574 . S
C546 C562 1.368 . S
H547 C555 0.950 . S
H548 C553 0.950 . S
H549 C554 0.949 . S
H550 C556 0.950 . S
H551 C557 0.950 . S
H552 C558 0.949 . S
C553 H548 0.950 . S
C553 C555 1.327 . S
C553 C559 1.429 . S
C554 C546 1.574 . S
C554 H549 0.949 . S
C554 C560 1.368 . S
C555 C539 1.349 . S
C555 H547 0.950 . S
C555 C553 1.327 . S
C556 C544 1.349 . S
C556 H550 0.950 . S
C556 C557 1.327 . S
C557 H551 0.950 . S
C557 C556 1.327 . S
C557 C561 1.429 . S
C558 C541 1.574 . S
C558 H552 0.949 . S
C558 C562 1.368 . S
C559 C540 1.429 . S
C559 C553 1.429 . S
C559 C560 1.523 . S
C560 C541 1.368 . S
C560 C554 1.368 . S
C560 C559 1.523 . S
C561 C545 1.429 . S
C561 C557 1.429 . S
C561 C562 1.523 . S
C562 C546 1.368 . S
C562 C558 1.368 . S
C562 C561 1.523 . S
H563 C538 0.950 . S
H564 C540 0.950 . S
H565 C541 0.949 . S
H566 C543 0.950 . S
H567 C545 0.950 . S
C568 C569 1.349 . S
C568 C570 1.327 . S
C568 H593 0.950 . S
C569 C568 1.349 . S
C569 C585 1.349 . S
C570 C568 1.327 . S
C570 C589 1.429 . S
C570 H594 0.950 . S
C571 C588 1.574 . S
C571 C590 1.368 . S
C571 H595 0.949 . S
H572 C576 0.949 . S
C573 C574 1.349 . S
C573 C575 1.327 . S
C573 H596 0.950 . S
C574 C573 1.349 . S
C574 C586 1.349 . S
C575 C573 1.327 . S
C575 C591 1.429 . S
C575 H597 0.950 . S
C576 H572 0.949 . S
C576 C584 1.574 . S
C576 C592 1.368 . S
H577 C585 0.950 . S
H578 C583 0.950 . S
H579 C584 0.949 . S
H580 C586 0.950 . S
H581 C587 0.950 . S
H582 C588 0.949 . S
C583 H578 0.950 . S
C583 C585 1.327 . S
C583 C589 1.429 . S
C584 C576 1.574 . S
C584 H579 0.949 . S
C584 C590 1.368 . S
C585 C569 1.349 . S
C585 H577 0.950 . S
C585 C583 1.327 . S
C586 C574 1.349 . S
C586 H580 0.950 . S
C586 C587 1.327 . S
C587 H581 0.950 . S
C587 C586 1.327 . S
C587 C591 1.429 . S
C588 C571 1.574 . S
C588 H582 0.949 . S
C588 C592 1.368 . S
C589 C570 1.429 . S
C589 C583 1.429 . S
C589 C590 1.523 . S
C590 C571 1.368 . S
C590 C584 1.368 . S
C590 C589 1.523 . S
C591 C575 1.429 . S
C591 C587 1.429 . S
C591 C592 1.523 . S
C592 C576 1.368 . S
C592 C588 1.368 . S
C592 C591 1.523 . S
H593 C568 0.950 . S
H594 C570 0.950 . S
H595 C571 0.949 . S
H596 C573 0.950 . S
H597 C575 0.950 . S
C598 C599 1.349 . S
C598 C600 1.327 . S
C598 H623 0.950 . S
C599 C598 1.349 . S
C599 C615 1.349 . S
C600 C598 1.327 . S
C600 C619 1.429 . S
C600 H624 0.950 . S
C601 C618 1.574 . S
C601 C620 1.368 . S
C601 H625 0.949 . S
H602 C606 0.949 . S
C603 C604 1.349 . S
C603 C605 1.327 . S
C603 H626 0.950 . S
C604 C603 1.349 . S
C604 C616 1.349 . S
C605 C603 1.327 . S
C605 C621 1.429 . S
C605 H627 0.950 . S
C606 H602 0.949 . S
C606 C614 1.574 . S
C606 C622 1.368 . S
H607 C615 0.950 . S
H608 C613 0.950 . S
H609 C614 0.949 . S
H610 C616 0.950 . S
H611 C617 0.950 . S
H612 C618 0.949 . S
C613 H608 0.950 . S
C613 C615 1.327 . S
C613 C619 1.429 . S
C614 C606 1.574 . S
C614 H609 0.949 . S
C614 C620 1.368 . S
C615 C599 1.349 . S
C615 H607 0.950 . S
C615 C613 1.327 . S
C616 C604 1.349 . S
C616 H610 0.950 . S
C616 C617 1.327 . S
C617 H611 0.950 . S
C617 C616 1.327 . S
C617 C621 1.429 . S
C618 C601 1.574 . S
C618 H612 0.949 . S
C618 C622 1.368 . S
C619 C600 1.429 . S
C619 C613 1.429 . S
C619 C620 1.523 . S
C620 C601 1.368 . S
C620 C614 1.368 . S
C620 C619 1.523 . S
C621 C605 1.429 . S
C621 C617 1.429 . S
C621 C622 1.523 . S
C622 C606 1.368 . S
C622 C618 1.368 . S
C622 C621 1.523 . S
H623 C598 0.950 . S
H624 C600 0.950 . S
H625 C601 0.949 . S
H626 C603 0.950 . S
H627 C605 0.950 . S
C628 C629 1.349 . S
C628 C630 1.327 . S
C628 H653 0.950 . S
C629 C628 1.349 . S
C629 C645 1.349 . S
C630 C628 1.327 . S
C630 C649 1.429 . S
C630 H654 0.950 . S
C631 C648 1.574 . S
C631 C650 1.368 . S
C631 H655 0.949 . S
H632 C636 0.949 . S
C633 C634 1.349 . S
C633 C635 1.327 . S
C633 H656 0.950 . S
C634 C633 1.349 . S
C634 C646 1.349 . S
C635 C633 1.327 . S
C635 C651 1.429 . S
C635 H657 0.950 . S
C636 H632 0.949 . S
C636 C644 1.574 . S
C636 C652 1.368 . S
H637 C645 0.950 . S
H638 C643 0.950 . S
H639 C644 0.949 . S
H640 C646 0.950 . S
H641 C647 0.950 . S
H642 C648 0.949 . S
C643 H638 0.950 . S
C643 C645 1.327 . S
C643 C649 1.429 . S
C644 C636 1.574 . S
C644 H639 0.949 . S
C644 C650 1.368 . S
C645 C629 1.349 . S
C645 H637 0.950 . S
C645 C643 1.327 . S
C646 C634 1.349 . S
C646 H640 0.950 . S
C646 C647 1.327 . S
C647 H641 0.950 . S
C647 C646 1.327 . S
C647 C651 1.429 . S
C648 C631 1.574 . S
C648 H642 0.949 . S
C648 C652 1.368 . S
C649 C630 1.429 . S
C649 C643 1.429 . S
C649 C650 1.523 . S
C650 C631 1.368 . S
C650 C644 1.368 . S
C650 C649 1.523 . S
C651 C635 1.429 . S
C651 C647 1.429 . S
C651 C652 1.523 . S
C652 C636 1.368 . S
C652 C648 1.368 . S
C652 C651 1.523 . S
H653 C628 0.950 . S
H654 C630 0.950 . S
H655 C631 0.949 . S
H656 C633 0.950 . S
H657 C635 0.950 . S
C658 C659 1.349 . S
C658 C660 1.327 . S
C658 H683 0.950 . S
C659 C658 1.349 . S
C659 C675 1.349 . S
C660 C658 1.327 . S
C660 C679 1.429 . S
C660 H684 0.950 . S
C661 C678 1.574 . S
C661 C680 1.368 . S
C661 H685 0.949 . S
H662 C666 0.949 . S
C663 C664 1.349 . S
C663 C665 1.327 . S
C663 H686 0.950 . S
C664 C663 1.349 . S
C664 C676 1.349 . S
C665 C663 1.327 . S
C665 C681 1.429 . S
C665 H687 0.950 . S
C666 H662 0.949 . S
C666 C674 1.574 . S
C666 C682 1.368 . S
H667 C675 0.950 . S
H668 C673 0.950 . S
H669 C674 0.949 . S
H670 C676 0.950 . S
H671 C677 0.950 . S
H672 C678 0.949 . S
C673 H668 0.950 . S
C673 C675 1.327 . S
C673 C679 1.429 . S
C674 C666 1.574 . S
C674 H669 0.949 . S
C674 C680 1.368 . S
C675 C659 1.349 . S
C675 H667 0.950 . S
C675 C673 1.327 . S
C676 C664 1.349 . S
C676 H670 0.950 . S
C676 C677 1.327 . S
C677 H671 0.950 . S
C677 C676 1.327 . S
C677 C681 1.429 . S
C678 C661 1.574 . S
C678 H672 0.949 . S
C678 C682 1.368 . S
C679 C660 1.429 . S
C679 C673 1.429 . S
C679 C680 1.523 . S
C680 C661 1.368 . S
C680 C674 1.368 . S
C680 C679 1.523 . S
C681 C665 1.429 . S
C681 C677 1.429 . S
C681 C682 1.523 . S
C682 C666 1.368 . S
C682 C678 1.368 . S
C682 C681 1.523 . S
H683 C658 0.950 . S
H684 C660 0.950 . S
H685 C661 0.949 . S
H686 C663 0.950 . S
H687 C665 0.950 . S
C688 C689 1.349 . S
C688 C690 1.327 . S
C688 H713 0.950 . S
C689 C688 1.349 . S
C689 C705 1.349 . S
C690 C688 1.327 . S
C690 C709 1.429 . S
C690 H714 0.950 . S
C691 C708 1.574 . S
C691 C710 1.368 . S
C691 H715 0.949 . S
H692 C696 0.949 . S
C693 C694 1.349 . S
C693 C695 1.327 . S
C693 H716 0.950 . S
C694 C693 1.349 . S
C694 C706 1.349 . S
C695 C693 1.327 . S
C695 C711 1.429 . S
C695 H717 0.950 . S
C696 H692 0.949 . S
C696 C704 1.574 . S
C696 C712 1.368 . S
H697 C705 0.950 . S
H698 C703 0.950 . S
H699 C704 0.949 . S
H700 C706 0.950 . S
H701 C707 0.950 . S
H702 C708 0.949 . S
C703 H698 0.950 . S
C703 C705 1.327 . S
C703 C709 1.429 . S
C704 C696 1.574 . S
C704 H699 0.949 . S
C704 C710 1.368 . S
C705 C689 1.349 . S
C705 H697 0.950 . S
C705 C703 1.327 . S
C706 C694 1.349 . S
C706 H700 0.950 . S
C706 C707 1.327 . S
C707 H701 0.950 . S
C707 C706 1.327 . S
C707 C711 1.429 . S
C708 C691 1.574 . S
C708 H702 0.949 . S
C708 C712 1.368 . S
C709 C690 1.429 . S
C709 C703 1.429 . S
C709 C710 1.523 . S
C710 C691 1.368 . S
C710 C704 1.368 . S
C710 C709 1.523 . S
C711 C695 1.429 . S
C711 C707 1.429 . S
C711 C712 1.523 . S
C712 C696 1.368 . S
C712 C708 1.368 . S
C712 C711 1.523 . S
H713 C688 0.950 . S
H714 C690 0.950 . S
H715 C691 0.949 . S
H716 C693 0.950 . S
H717 C695 0.950 . S
C718 C719 1.349 . S
C718 C720 1.327 . S
C718 H743 0.950 . S
C719 C718 1.349 . S
C719 C735 1.349 . S
C720 C718 1.327 . S
C720 C739 1.429 . S
C720 H744 0.950 . S
C721 C738 1.574 . S
C721 C740 1.368 . S
C721 H745 0.949 . S
H722 C726 0.949 . S
C723 C724 1.349 . S
C723 C725 1.327 . S
C723 H746 0.950 . S
C724 C723 1.349 . S
C724 C736 1.349 . S
C725 C723 1.327 . S
C725 C741 1.429 . S
C725 H747 0.950 . S
C726 H722 0.949 . S
C726 C734 1.574 . S
C726 C742 1.368 . S
H727 C735 0.950 . S
H728 C733 0.950 . S
H729 C734 0.949 . S
H730 C736 0.950 . S
H731 C737 0.950 . S
H732 C738 0.949 . S
C733 H728 0.950 . S
C733 C735 1.327 . S
C733 C739 1.429 . S
C734 C726 1.574 . S
C734 H729 0.949 . S
C734 C740 1.368 . S
C735 C719 1.349 . S
C735 H727 0.950 . S
C735 C733 1.327 . S
C736 C724 1.349 . S
C736 H730 0.950 . S
C736 C737 1.327 . S
C737 H731 0.950 . S
C737 C736 1.327 . S
C737 C741 1.429 . S
C738 C721 1.574 . S
C738 H732 0.949 . S
C738 C742 1.368 . S
C739 C720 1.429 . S
C739 C733 1.429 . S
C739 C740 1.523 . S
C740 C721 1.368 . S
C740 C734 1.368 . S
C740 C739 1.523 . S
C741 C725 1.429 . S
C741 C737 1.429 . S
C741 C742 1.523 . S
C742 C726 1.368 . S
C742 C738 1.368 . S
C742 C741 1.523 . S
H743 C718 0.950 . S
H744 C720 0.950 . S
H745 C721 0.949 . S
H746 C723 0.950 . S
H747 C725 0.950 . S
C748 C749 1.349 . S
C748 C750 1.327 . S
C748 H773 0.950 . S
C749 C748 1.349 . S
C749 C765 1.349 . S
C750 C748 1.327 . S
C750 C769 1.429 . S
C750 H774 0.950 . S
C751 C768 1.574 . S
C751 C770 1.368 . S
C751 H775 0.949 . S
H752 C756 0.949 . S
C753 C754 1.349 . S
C753 C755 1.327 . S
C753 H776 0.950 . S
C754 C753 1.349 . S
C754 C766 1.349 . S
C755 C753 1.327 . S
C755 C771 1.429 . S
C755 H777 0.950 . S
C756 H752 0.949 . S
C756 C764 1.574 . S
C756 C772 1.368 . S
H757 C765 0.950 . S
H758 C763 0.950 . S
H759 C764 0.949 . S
H760 C766 0.950 . S
H761 C767 0.950 . S
H762 C768 0.949 . S
C763 H758 0.950 . S
C763 C765 1.327 . S
C763 C769 1.429 . S
C764 C756 1.574 . S
C764 H759 0.949 . S
C764 C770 1.368 . S
C765 C749 1.349 . S
C765 H757 0.950 . S
C765 C763 1.327 . S
C766 C754 1.349 . S
C766 H760 0.950 . S
C766 C767 1.327 . S
C767 H761 0.950 . S
C767 C766 1.327 . S
C767 C771 1.429 . S
C768 C751 1.574 . S
C768 H762 0.949 . S
C768 C772 1.368 . S
C769 C750 1.429 . S
C769 C763 1.429 . S
C769 C770 1.523 . S
C770 C751 1.368 . S
C770 C764 1.368 . S
C770 C769 1.523 . S
C771 C755 1.429 . S
C771 C767 1.429 . S
C771 C772 1.523 . S
C772 C756 1.368 . S
C772 C768 1.368 . S
C772 C771 1.523 . S
H773 C748 0.950 . S
H774 C750 0.950 . S
H775 C751 0.949 . S
H776 C753 0.950 . S
H777 C755 0.950 . S
C778 C779 1.349 . S
C778 C780 1.327 . S
C778 H803 0.950 . S
C779 C778 1.349 . S
C779 C795 1.349 . S
C780 C778 1.327 . S
C780 C799 1.429 . S
C780 H804 0.950 . S
C781 C798 1.574 . S
C781 C800 1.368 . S
C781 H805 0.949 . S
H782 C786 0.949 . S
C783 C784 1.349 . S
C783 C785 1.327 . S
C783 H806 0.950 . S
C784 C783 1.349 . S
C784 C796 1.349 . S
C785 C783 1.327 . S
C785 C801 1.429 . S
C785 H807 0.950 . S
C786 H782 0.949 . S
C786 C794 1.574 . S
C786 C802 1.368 . S
H787 C795 0.950 . S
H788 C793 0.950 . S
H789 C794 0.949 . S
H790 C796 0.950 . S
H791 C797 0.950 . S
H792 C798 0.949 . S
C793 H788 0.950 . S
C793 C795 1.327 . S
C793 C799 1.429 . S
C794 C786 1.574 . S
C794 H789 0.949 . S
C794 C800 1.368 . S
C795 C779 1.349 . S
C795 H787 0.950 . S
C795 C793 1.327 . S
C796 C784 1.349 . S
C796 H790 0.950 . S
C796 C797 1.327 . S
C797 H791 0.950 . S
C797 C796 1.327 . S
C797 C801 1.429 . S
C798 C781 1.574 . S
C798 H792 0.949 . S
C798 C802 1.368 . S
C799 C780 1.429 . S
C799 C793 1.429 . S
C799 C800 1.523 . S
C800 C781 1.368 . S
C800 C794 1.368 . S
C800 C799 1.523 . S
C801 C785 1.429 . S
C801 C797 1.429 . S
C801 C802 1.523 . S
C802 C786 1.368 . S
C802 C798 1.368 . S
C802 C801 1.523 . S
H803 C778 0.950 . S
H804 C780 0.950 . S
H805 C781 0.949 . S
H806 C783 0.950 . S
H807 C785 0.950 . S
C808 C809 1.349 . S
C808 C810 1.327 . S
C808 H833 0.950 . S
C809 C808 1.349 . S
C809 C825 1.349 . S
C810 C808 1.327 . S
C810 C829 1.429 . S
C810 H834 0.950 . S
C811 C828 1.574 . S
C811 C830 1.368 . S
C811 H835 0.949 . S
H812 C816 0.949 . S
C813 C814 1.349 . S
C813 C815 1.327 . S
C813 H836 0.950 . S
C814 C813 1.349 . S
C814 C826 1.349 . S
C815 C813 1.327 . S
C815 C831 1.429 . S
C815 H837 0.950 . S
C816 H812 0.949 . S
C816 C824 1.574 . S
C816 C832 1.368 . S
H817 C825 0.950 . S
H818 C823 0.950 . S
H819 C824 0.949 . S
H820 C826 0.950 . S
H821 C827 0.950 . S
H822 C828 0.949 . S
C823 H818 0.950 . S
C823 C825 1.327 . S
C823 C829 1.429 . S
C824 C816 1.574 . S
C824 H819 0.949 . S
C824 C830 1.368 . S
C825 C809 1.349 . S
C825 H817 0.950 . S
C825 C823 1.327 . S
C826 C814 1.349 . S
C826 H820 0.950 . S
C826 C827 1.327 . S
C827 H821 0.950 . S
C827 C826 1.327 . S
C827 C831 1.429 . S
C828 C811 1.574 . S
C828 H822 0.949 . S
C828 C832 1.368 . S
C829 C810 1.429 . S
C829 C823 1.429 . S
C829 C830 1.523 . S
C830 C811 1.368 . S
C830 C824 1.368 . S
C830 C829 1.523 . S
C831 C815 1.429 . S
C831 C827 1.429 . S
C831 C832 1.523 . S
C832 C816 1.368 . S
C832 C828 1.368 . S
C832 C831 1.523 . S
H833 C808 0.950 . S
H834 C810 0.950 . S
H835 C811 0.949 . S
H836 C813 0.950 . S
H837 C815 0.950 . S
C838 C839 1.349 . S
C838 C840 1.327 . S
C838 H863 0.950 . S
C839 C838 1.349 . S
C839 C855 1.349 . S
C840 C838 1.327 . S
C840 C859 1.429 . S
C840 H864 0.950 . S
C841 C858 1.574 . S
C841 C860 1.368 . S
C841 H865 0.949 . S
H842 C846 0.949 . S
C843 C844 1.349 . S
C843 C845 1.327 . S
C843 H866 0.950 . S
C844 C843 1.349 . S
C844 C856 1.349 . S
C845 C843 1.327 . S
C845 C861 1.429 . S
C845 H867 0.950 . S
C846 H842 0.949 . S
C846 C854 1.574 . S
C846 C862 1.368 . S
H847 C855 0.950 . S
H848 C853 0.950 . S
H849 C854 0.949 . S
H850 C856 0.950 . S
H851 C857 0.950 . S
H852 C858 0.949 . S
C853 H848 0.950 . S
C853 C855 1.327 . S
C853 C859 1.429 . S
C854 C846 1.574 . S
C854 H849 0.949 . S
C854 C860 1.368 . S
C855 C839 1.349 . S
C855 H847 0.950 . S
C855 C853 1.327 . S
C856 C844 1.349 . S
C856 H850 0.950 . S
C856 C857 1.327 . S
C857 H851 0.950 . S
C857 C856 1.327 . S
C857 C861 1.429 . S
C858 C841 1.574 . S
C858 H852 0.949 . S
C858 C862 1.368 . S
C859 C840 1.429 . S
C859 C853 1.429 . S
C859 C860 1.523 . S
C860 C841 1.368 . S
C860 C854 1.368 . S
C860 C859 1.523 . S
C861 C845 1.429 . S
C861 C857 1.429 . S
C861 C862 1.523 . S
C862 C846 1.368 . S
C862 C858 1.368 . S
C862 C861 1.523 . S
H863 C838 0.950 . S
H864 C840 0.950 . S
H865 C841 0.949 . S
H866 C843 0.950 . S
H867 C845 0.950 . S
C868 C869 1.349 . S
C868 C870 1.327 . S
C868 H893 0.950 . S
C869 C868 1.349 . S
C869 C885 1.349 . S
C870 C868 1.327 . S
C870 C889 1.429 . S
C870 H894 0.950 . S
C871 C888 1.574 . S
C871 C890 1.368 . S
C871 H895 0.949 . S
H872 C876 0.949 . S
C873 C874 1.349 . S
C873 C875 1.327 . S
C873 H896 0.950 . S
C874 C873 1.349 . S
C874 C886 1.349 . S
C875 C873 1.327 . S
C875 C891 1.429 . S
C875 H897 0.950 . S
C876 H872 0.949 . S
C876 C884 1.574 . S
C876 C892 1.368 . S
H877 C885 0.950 . S
H878 C883 0.950 . S
H879 C884 0.949 . S
H880 C886 0.950 . S
H881 C887 0.950 . S
H882 C888 0.949 . S
C883 H878 0.950 . S
C883 C885 1.327 . S
C883 C889 1.429 . S
C884 C876 1.574 . S
C884 H879 0.949 . S
C884 C890 1.368 . S
C885 C869 1.349 . S
C885 H877 0.950 . S
C885 C883 1.327 . S
C886 C874 1.349 . S
C886 H880 0.950 . S
C886 C887 1.327 . S
C887 H881 0.950 . S
C887 C886 1.327 . S
C887 C891 1.429 . S
C888 C871 1.574 . S
C888 H882 0.949 . S
C888 C892 1.368 . S
C889 C870 1.429 . S
C889 C883 1.429 . S
C889 C890 1.523 . S
C890 C871 1.368 . S
C890 C884 1.368 . S
C890 C889 1.523 . S
C891 C875 1.429 . S
C891 C887 1.429 . S
C891 C892 1.523 . S
C892 C876 1.368 . S
C892 C888 1.368 . S
C892 C891 1.523 . S
H893 C868 0.950 . S
H894 C870 0.950 . S
H895 C871 0.949 . S
H896 C873 0.950 . S
H897 C875 0.950 . S
C898 C899 1.349 . S
C898 C900 1.327 . S
C898 H923 0.950 . S
C899 C898 1.349 . S
C899 C915 1.349 . S
C900 C898 1.327 . S
C900 C919 1.429 . S
C900 H924 0.950 . S
C901 C918 1.574 . S
C901 C920 1.368 . S
C901 H925 0.949 . S
H902 C906 0.949 . S
C903 C904 1.349 . S
C903 C905 1.327 . S
C903 H926 0.950 . S
C904 C903 1.349 . S
C904 C916 1.349 . S
C905 C903 1.327 . S
C905 C921 1.429 . S
C905 H927 0.950 . S
C906 H902 0.949 . S
C906 C914 1.574 . S
C906 C922 1.368 . S
H907 C915 0.950 . S
H908 C913 0.950 . S
H909 C914 0.949 . S
H910 C916 0.950 . S
H911 C917 0.950 . S
H912 C918 0.949 . S
C913 H908 0.950 . S
C913 C915 1.327 . S
C913 C919 1.429 . S
C914 C906 1.574 . S
C914 H909 0.949 . S
C914 C920 1.368 . S
C915 C899 1.349 . S
C915 H907 0.950 . S
C915 C913 1.327 . S
C916 C904 1.349 . S
C916 H910 0.950 . S
C916 C917 1.327 . S
C917 H911 0.950 . S
C917 C916 1.327 . S
C917 C921 1.429 . S
C918 C901 1.574 . S
C918 H912 0.949 . S
C918 C922 1.368 . S
C919 C900 1.429 . S
C919 C913 1.429 . S
C919 C920 1.523 . S
C920 C901 1.368 . S
C920 C914 1.368 . S
C920 C919 1.523 . S
C921 C905 1.429 . S
C921 C917 1.429 . S
C921 C922 1.523 . S
C922 C906 1.368 . S
C922 C918 1.368 . S
C922 C921 1.523 . S
H923 C898 0.950 . S
H924 C900 0.950 . S
H925 C901 0.949 . S
H926 C903 0.950 . S
H927 C905 0.950 . S
C928 C929 1.349 . S
C928 C930 1.327 . S
C928 H953 0.950 . S
C929 C928 1.349 . S
C929 C945 1.349 . S
C930 C928 1.327 . S
C930 C949 1.429 . S
C930 H954 0.950 . S
C931 C948 1.574 1_565 S
C931 C950 1.368 . S
C931 H955 0.949 . S
H932 C936 0.949 . S
C933 C934 1.349 . S
C933 C935 1.327 . S
C933 H956 0.950 . S
C934 C933 1.349 . S
C934 C946 1.349 . S
C935 C933 1.327 . S
C935 C951 1.429 . S
C935 H957 0.950 . S
C936 H932 0.949 . S
C936 C944 1.574 1_545 S
C936 C952 1.368 . S
H937 C945 0.950 . S
H938 C943 0.950 . S
H939 C944 0.949 . S
H940 C946 0.950 . S
H941 C947 0.950 . S
H942 C948 0.949 . S
C943 H938 0.950 . S
C943 C945 1.327 . S
C943 C949 1.429 . S
C944 C936 1.574 1_565 S
C944 H939 0.949 . S
C944 C950 1.368 . S
C945 C929 1.349 . S
C945 H937 0.950 . S
C945 C943 1.327 . S
C946 C934 1.349 . S
C946 H940 0.950 . S
C946 C947 1.327 . S
C947 H941 0.950 . S
C947 C946 1.327 . S
C947 C951 1.429 . S
C948 C931 1.574 1_545 S
C948 H942 0.949 . S
C948 C952 1.368 . S
C949 C930 1.429 . S
C949 C943 1.429 . S
C949 C950 1.523 . S
C950 C931 1.368 . S
C950 C944 1.368 . S
C950 C949 1.523 . S
C951 C935 1.429 . S
C951 C947 1.429 . S
C951 C952 1.523 . S
C952 C936 1.368 . S
C952 C948 1.368 . S
C952 C951 1.523 . S
H953 C928 0.950 . S
H954 C930 0.950 . S
H955 C931 0.949 . S
H956 C933 0.950 . S
H957 C935 0.950 . S
C958 C959 1.349 . S
C958 C960 1.327 . S
C958 H983 0.950 . S
C959 C958 1.349 . S
C959 C975 1.349 . S
C960 C958 1.327 . S
C960 C979 1.429 . S
C960 H984 0.950 . S
C961 C978 1.574 . S
C961 C980 1.368 . S
C961 H985 0.949 . S
H962 C966 0.949 . S
C963 C964 1.349 . S
C963 C965 1.327 . S
C963 H986 0.950 . S
C964 C963 1.349 . S
C964 C976 1.349 . S
C965 C963 1.327 . S
C965 C981 1.429 . S
C965 H987 0.950 . S
C966 H962 0.949 . S
C966 C974 1.574 . S
C966 C982 1.368 . S
H967 C975 0.950 . S
H968 C973 0.950 . S
H969 C974 0.949 . S
H970 C976 0.950 . S
H971 C977 0.950 . S
H972 C978 0.949 . S
C973 H968 0.950 . S
C973 C975 1.327 . S
C973 C979 1.429 . S
C974 C966 1.574 . S
C974 H969 0.949 . S
C974 C980 1.368 1_455 S
C975 C959 1.349 . S
C975 H967 0.950 . S
C975 C973 1.327 . S
C976 C964 1.349 . S
C976 H970 0.950 . S
C976 C977 1.327 . S
C977 H971 0.950 . S
C977 C976 1.327 . S
C977 C981 1.429 . S
C978 C961 1.574 . S
C978 H972 0.949 . S
C978 C982 1.368 1_655 S
C979 C960 1.429 . S
C979 C973 1.429 . S
C979 C980 1.523 . S
C980 C961 1.368 . S
C980 C974 1.368 1_655 S
C980 C979 1.523 . S
C981 C965 1.429 . S
C981 C977 1.429 . S
C981 C982 1.523 . S
C982 C966 1.368 . S
C982 C978 1.368 1_455 S
C982 C981 1.523 . S
H983 C958 0.950 . S
H984 C960 0.950 . S
H985 C961 0.949 . S
H986 C963 0.950 . S
H987 C965 0.950 . S
C988 C989 1.349 . S
C988 C990 1.327 . S
C988 H1013 0.950 . S
C989 C988 1.349 . S
C989 C1005 1.349 . S
C990 C988 1.327 . S
C990 C1009 1.429 . S
C990 H1014 0.950 . S
C991 C1008 1.574 . S
C991 C1010 1.368 1_554 S
C991 H1015 0.949 . S
H992 C996 0.949 . S
C993 C994 1.349 . S
C993 C995 1.327 . S
C993 H1016 0.950 . S
C994 C993 1.349 . S
C994 C1006 1.349 . S
C995 C993 1.327 . S
C995 C1011 1.429 . S
C995 H1017 0.950 . S
C996 H992 0.949 . S
C996 C1004 1.574 . S
C996 C1012 1.368 1_556 S
H997 C1005 0.950 . S
H998 C1003 0.950 1_554 S
H999 C1004 0.949 . S
H1000 C1006 0.950 . S
H1001 C1007 0.950 1_556 S
H1002 C1008 0.949 . S
C1003 H998 0.950 1_556 S
C1003 C1005 1.327 . S
C1003 C1009 1.429 . S
C1004 C996 1.574 . S
C1004 H999 0.949 . S
C1004 C1010 1.368 . S
C1005 C989 1.349 . S
C1005 H997 0.950 . S
C1005 C1003 1.327 . S
C1006 C994 1.349 . S
C1006 H1000 0.950 . S
C1006 C1007 1.327 . S
C1007 H1001 0.950 1_554 S
C1007 C1006 1.327 . S
C1007 C1011 1.429 . S
C1008 C991 1.574 . S
C1008 H1002 0.949 . S
C1008 C1012 1.368 . S
C1009 C990 1.429 . S
C1009 C1003 1.429 . S
C1009 C1010 1.523 . S
C1010 C991 1.368 1_556 S
C1010 C1004 1.368 . S
C1010 C1009 1.523 . S
C1011 C995 1.429 . S
C1011 C1007 1.429 . S
C1011 C1012 1.523 . S
C1012 C996 1.368 1_554 S
C1012 C1008 1.368 . S
C1012 C1011 1.523 . S
H1013 C988 0.950 . S
H1014 C990 0.950 . S
H1015 C991 0.949 . S
H1016 C993 0.950 . S
H1017 C995 0.950 . S
C1018 C1019 1.349 . S
C1018 C1020 1.327 . S
C1018 H1043 0.950 . S
C1019 C1018 1.349 . S
C1019 C1035 1.349 . S
C1020 C1018 1.327 . S
C1020 C1039 1.429 . S
C1020 H1044 0.950 1_455 S
C1021 C1038 1.619 1_556 S
C1021 C1040 1.323 1_565 S
C1021 H1045 0.949 . S
H1022 C1026 0.949 . S
C1023 C1024 1.349 . S
C1023 C1025 1.327 . S
C1023 H1046 0.950 . S
C1024 C1023 1.349 . S
C1024 C1036 1.349 . S
C1025 C1023 1.327 . S
C1025 C1041 1.429 . S
C1025 H1047 0.950 1_655 S
C1026 H1022 0.949 . S
C1026 C1034 1.619 1_554 S
C1026 C1042 1.323 1_545 S
H1027 C1035 0.950 . S
H1028 C1033 0.950 . S
H1029 C1034 0.949 . S
H1030 C1036 0.950 . S
H1031 C1037 0.950 . S
H1032 C1038 0.949 . S
C1033 H1028 0.950 . S
C1033 C1035 1.327 . S
C1033 C1039 1.429 . S
C1034 C1026 1.619 1_556 S
C1034 H1029 0.949 . S
C1034 C1040 1.368 1_655 S
C1035 C1019 1.349 . S
C1035 H1027 0.950 . S
C1035 C1033 1.327 . S
C1036 C1024 1.349 . S
C1036 H1030 0.950 . S
C1036 C1037 1.327 . S
C1037 H1031 0.950 . S
C1037 C1036 1.327 . S
C1037 C1041 1.429 . S
C1038 C1021 1.619 1_554 S
C1038 H1032 0.949 . S
C1038 C1042 1.368 1_455 S
C1039 C1020 1.429 . S
C1039 C1033 1.429 . S
C1039 C1040 1.523 . S
C1040 C1021 1.323 1_545 S
C1040 C1034 1.368 1_455 S
C1040 C1039 1.523 . S
C1041 C1025 1.429 . S
C1041 C1037 1.429 . S
C1041 C1042 1.523 . S
C1042 C1026 1.323 1_565 S
C1042 C1038 1.368 1_655 S
C1042 C1041 1.523 . S
H1043 C1018 0.950 . S
H1044 C1020 0.950 1_655 S
H1045 C1021 0.949 . S
H1046 C1023 0.950 . S
H1047 C1025 0.950 1_455 S
C1048 C1049 1.349 . S
C1048 C1050 1.327 . S
C1048 H1073 0.950 . S
C1049 C1048 1.349 . S
C1049 C1065 1.349 . S
C1050 C1048 1.327 . S
C1050 C1069 1.429 . S
C1050 H1074 0.950 . S
C1051 C1068 1.659 . S
C1051 C1070 1.368 . S
C1051 H1075 0.949 . S
H1052 C1056 0.949 . S
C1053 C1054 1.349 . S
C1053 C1055 1.327 . S
C1053 H1076 0.950 . S
C1054 C1053 1.349 . S
C1054 C1066 1.349 . S
C1055 C1053 1.327 . S
C1055 C1071 1.429 . S
C1055 H1077 0.950 . S
C1056 H1052 0.949 . S
C1056 C1064 1.659 . S
C1056 C1072 1.368 . S
H1057 C1065 0.950 . S
H1058 C1063 0.950 . S
H1059 C1064 0.960 . S
H1060 C1066 0.950 . S
H1061 C1067 0.950 . S
H1062 C1068 0.960 . S
C1063 H1058 0.950 . S
C1063 C1065 1.327 . S
C1063 C1069 1.429 . S
C1064 C1056 1.659 . S
C1064 H1059 0.960 . S
C1064 C1070 1.280 1_565 S
C1065 C1049 1.349 . S
C1065 H1057 0.950 . S
C1065 C1063 1.327 . S
C1066 C1054 1.349 . S
C1066 H1060 0.950 . S
C1066 C1067 1.327 . S
C1067 H1061 0.950 . S
C1067 C1066 1.327 . S
C1067 C1071 1.429 . S
C1068 C1051 1.659 . S
C1068 H1062 0.960 . S
C1068 C1072 1.280 1_545 S
C1069 C1050 1.429 . S
C1069 C1063 1.429 . S
C1069 C1070 1.523 . S
C1070 C1051 1.368 . S
C1070 C1064 1.280 1_545 S
C1070 C1069 1.523 . S
C1071 C1055 1.429 . S
C1071 C1067 1.429 . S
C1071 C1072 1.523 . S
C1072 C1056 1.368 . S
C1072 C1068 1.280 1_565 S
C1072 C1071 1.523 . S
H1073 C1048 0.950 . S
H1074 C1050 0.950 . S
H1075 C1051 0.949 . S
H1076 C1053 0.950 . S
H1077 C1055 0.950 . S
C1078 C1079 1.349 . S
C1078 C1080 1.327 . S
C1078 H1103 0.950 . S
C1079 C1078 1.349 . S
C1079 C1095 1.349 . S
C1080 C1078 1.327 . S
C1080 C1099 1.429 . S
C1080 H1104 0.950 . S
C1081 C1098 1.574 . S
C1081 C1100 1.368 . S
C1081 H1105 0.949 . S
H1082 C1086 0.949 . S
C1083 C1084 1.349 . S
C1083 C1085 1.327 . S
C1083 H1106 0.950 . S
C1084 C1083 1.349 . S
C1084 C1096 1.349 . S
C1085 C1083 1.327 . S
C1085 C1101 1.429 . S
C1085 H1107 0.950 . S
C1086 H1082 0.949 . S
C1086 C1094 1.574 . S
C1086 C1102 1.368 . S
H1087 C1095 0.950 . S
H1088 C1093 0.950 . S
H1089 C1094 0.949 . S
H1090 C1096 0.950 . S
H1091 C1097 0.950 . S
H1092 C1098 0.949 . S
C1093 H1088 0.950 . S
C1093 C1095 1.327 . S
C1093 C1099 1.429 . S
C1094 C1086 1.574 . S
C1094 H1089 0.949 . S
C1094 C1100 1.368 1_655 S
C1095 C1079 1.349 . S
C1095 H1087 0.950 . S
C1095 C1093 1.327 . S
C1096 C1084 1.349 . S
C1096 H1090 0.950 . S
C1096 C1097 1.327 . S
C1097 H1091 0.950 . S
C1097 C1096 1.327 . S
C1097 C1101 1.429 . S
C1098 C1081 1.574 . S
C1098 H1092 0.949 . S
C1098 C1102 1.368 1_455 S
C1099 C1080 1.429 . S
C1099 C1093 1.429 . S
C1099 C1100 1.523 . S
C1100 C1081 1.368 . S
C1100 C1094 1.368 1_455 S
C1100 C1099 1.523 . S
C1101 C1085 1.429 . S
C1101 C1097 1.429 . S
C1101 C1102 1.523 . S
C1102 C1086 1.368 . S
C1102 C1098 1.368 1_655 S
C1102 C1101 1.523 . S
H1103 C1078 0.950 . S
H1104 C1080 0.950 . S
H1105 C1081 0.949 . S
H1106 C1083 0.950 . S
H1107 C1085 0.950 . S
C1108 C1109 1.349 . S
C1108 C1110 1.327 . S
C1108 H1133 0.950 . S
C1109 C1108 1.349 . S
C1109 C1125 1.349 . S
C1110 C1108 1.327 . S
C1110 C1129 1.429 . S
C1110 H1134 0.950 1_556 S
C1111 C1128 1.574 . S
C1111 C1130 1.368 . S
C1111 H1135 0.949 . S
H1112 C1116 0.949 . S
C1113 C1114 1.349 . S
C1113 C1115 1.327 . S
C1113 H1136 0.950 . S
C1114 C1113 1.349 . S
C1114 C1126 1.349 . S
C1115 C1113 1.327 . S
C1115 C1131 1.429 . S
C1115 H1137 0.950 1_554 S
C1116 H1112 0.949 . S
C1116 C1124 1.574 . S
C1116 C1132 1.368 . S
H1117 C1125 0.950 . S
H1118 C1123 0.950 . S
H1119 C1124 0.949 . S
H1120 C1126 0.950 . S
H1121 C1127 0.950 . S
H1122 C1128 0.949 . S
C1123 H1118 0.950 . S
C1123 C1125 1.327 . S
C1123 C1129 1.429 . S
C1124 C1116 1.574 . S
C1124 H1119 0.949 . S
C1124 C1130 1.368 1_554 S
C1125 C1109 1.349 . S
C1125 H1117 0.950 . S
C1125 C1123 1.327 . S
C1126 C1114 1.349 . S
C1126 H1120 0.950 . S
C1126 C1127 1.327 . S
C1127 H1121 0.950 . S
C1127 C1126 1.327 . S
C1127 C1131 1.429 . S
C1128 C1111 1.574 . S
C1128 H1122 0.949 . S
C1128 C1132 1.368 1_556 S
C1129 C1110 1.429 . S
C1129 C1123 1.429 . S
C1129 C1130 1.523 . S
C1130 C1111 1.368 . S
C1130 C1124 1.368 1_556 S
C1130 C1129 1.523 . S
C1131 C1115 1.429 . S
C1131 C1127 1.429 . S
C1131 C1132 1.523 . S
C1132 C1116 1.368 . S
C1132 C1128 1.368 1_554 S
C1132 C1131 1.523 . S
H1133 C1108 0.950 . S
H1134 C1110 0.950 1_554 S
H1135 C1111 0.949 . S
H1136 C1113 0.950 . S
H1137 C1115 0.950 1_556 S
C1138 C1139 1.349 . S
C1138 C1140 1.327 . S
C1138 H1163 0.950 . S
C1139 C1138 1.349 . S
C1139 C1155 1.349 . S
C1140 C1138 1.327 . S
C1140 C1159 1.429 . S
C1140 H1164 0.950 . S
C1141 C1158 1.574 . S
C1141 C1160 1.368 . S
C1141 H1165 0.949 . S
H1142 C1146 0.949 . S
C1143 C1144 1.349 . S
C1143 C1145 1.327 . S
C1143 H1166 0.950 . S
C1144 C1143 1.349 . S
C1144 C1156 1.349 . S
C1145 C1143 1.327 . S
C1145 C1161 1.429 . S
C1145 H1167 0.950 . S
C1146 H1142 0.949 . S
C1146 C1154 1.574 . S
C1146 C1162 1.368 . S
H1147 C1155 0.950 . S
H1148 C1153 0.950 . S
H1149 C1154 0.949 . S
H1150 C1156 0.950 . S
H1151 C1157 0.950 . S
H1152 C1158 0.949 . S
C1153 H1148 0.950 . S
C1153 C1155 1.327 . S
C1153 C1159 1.429 . S
C1154 C1146 1.574 . S
C1154 H1149 0.949 . S
C1154 C1160 1.368 . S
C1155 C1139 1.349 . S
C1155 H1147 0.950 . S
C1155 C1153 1.327 . S
C1156 C1144 1.349 . S
C1156 H1150 0.950 . S
C1156 C1157 1.327 . S
C1157 H1151 0.950 . S
C1157 C1156 1.327 . S
C1157 C1161 1.429 . S
C1158 C1141 1.574 . S
C1158 H1152 0.949 . S
C1158 C1162 1.368 . S
C1159 C1140 1.429 . S
C1159 C1153 1.429 . S
C1159 C1160 1.523 . S
C1160 C1141 1.368 . S
C1160 C1154 1.368 . S
C1160 C1159 1.523 . S
C1161 C1145 1.429 . S
C1161 C1157 1.429 . S
C1161 C1162 1.523 . S
C1162 C1146 1.368 . S
C1162 C1158 1.368 . S
C1162 C1161 1.523 . S
H1163 C1138 0.950 . S
H1164 C1140 0.950 . S
H1165 C1141 0.949 . S
H1166 C1143 0.950 . S
H1167 C1145 0.950 . S
C1168 C1169 1.349 . S
C1168 C1170 1.327 . S
C1168 H1193 0.950 . S
C1169 C1168 1.349 . S
C1169 C1185 1.349 . S
C1170 C1168 1.327 . S
C1170 C1189 1.429 . S
C1170 H1194 0.950 . S
C1171 C1188 1.574 . S
C1171 C1190 1.368 . S
C1171 H1195 0.949 . S
H1172 C1176 0.949 . S
C1173 C1174 1.349 . S
C1173 C1175 1.327 . S
C1173 H1196 0.950 . S
C1174 C1173 1.349 . S
C1174 C1186 1.349 . S
C1175 C1173 1.327 . S
C1175 C1191 1.429 . S
C1175 H1197 0.950 . S
C1176 H1172 0.949 . S
C1176 C1184 1.574 . S
C1176 C1192 1.368 . S
H1177 C1185 0.950 . S
H1178 C1183 0.950 . S
H1179 C1184 0.949 . S
H1180 C1186 0.950 . S
H1181 C1187 0.950 . S
H1182 C1188 0.949 . S
C1183 H1178 0.950 . S
C1183 C1185 1.327 . S
C1183 C1189 1.429 . S
C1184 C1176 1.574 . S
C1184 H1179 0.949 . S
C1184 C1190 1.368 . S
C1185 C1169 1.349 . S
C1185 H1177 0.950 . S
C1185 C1183 1.327 . S
C1186 C1174 1.349 . S
C1186 H1180 0.950 . S
C1186 C1187 1.327 . S
C1187 H1181 0.950 . S
C1187 C1186 1.327 . S
C1187 C1191 1.429 . S
C1188 C1171 1.574 . S
C1188 H1182 0.949 . S
C1188 C1192 1.368 . S
C1189 C1170 1.429 . S
C1189 C1183 1.429 . S
C1189 C1190 1.523 . S
C1190 C1171 1.368 . S
C1190 C1184 1.368 . S
C1190 C1189 1.523 . S
C1191 C1175 1.429 . S
C1191 C1187 1.429 . S
C1191 C1192 1.523 . S
C1192 C1176 1.368 . S
C1192 C1188 1.368 . S
C1192 C1191 1.523 . S
H1193 C1168 0.950 . S
H1194 C1170 0.950 . S
H1195 C1171 0.949 . S
H1196 C1173 0.950 . S
H1197 C1175 0.950 . S
C1198 C1199 1.349 . S
C1198 C1200 1.327 . S
C1198 H1223 0.950 . S
C1199 C1198 1.349 . S
C1199 C1215 1.349 . S
C1200 C1198 1.327 . S
C1200 C1219 1.429 . S
C1200 H1224 0.950 . S
C1201 C1218 1.574 . S
C1201 C1220 1.368 . S
C1201 H1225 0.949 . S
H1202 C1206 0.949 . S
C1203 C1204 1.349 . S
C1203 C1205 1.327 . S
C1203 H1226 0.950 . S
C1204 C1203 1.349 . S
C1204 C1216 1.349 . S
C1205 C1203 1.327 . S
C1205 C1221 1.429 . S
C1205 H1227 0.950 . S
C1206 H1202 0.949 . S
C1206 C1214 1.574 . S
C1206 C1222 1.368 . S
H1207 C1215 0.950 . S
H1208 C1213 0.950 . S
H1209 C1214 0.949 . S
H1210 C1216 0.950 . S
H1211 C1217 0.950 . S
H1212 C1218 0.949 . S
C1213 H1208 0.950 . S
C1213 C1215 1.327 . S
C1213 C1219 1.429 . S
C1214 C1206 1.574 . S
C1214 H1209 0.949 . S
C1214 C1220 1.368 1_455 S
C1215 C1199 1.349 . S
C1215 H1207 0.950 . S
C1215 C1213 1.327 . S
C1216 C1204 1.349 . S
C1216 H1210 0.950 . S
C1216 C1217 1.327 . S
C1217 H1211 0.950 . S
C1217 C1216 1.327 . S
C1217 C1221 1.429 . S
C1218 C1201 1.574 . S
C1218 H1212 0.949 . S
C1218 C1222 1.368 1_655 S
C1219 C1200 1.429 . S
C1219 C1213 1.429 . S
C1219 C1220 1.523 . S
C1220 C1201 1.368 . S
C1220 C1214 1.368 1_655 S
C1220 C1219 1.523 . S
C1221 C1205 1.429 . S
C1221 C1217 1.429 . S
C1221 C1222 1.523 . S
C1222 C1206 1.368 . S
C1222 C1218 1.368 1_455 S
C1222 C1221 1.523 . S
H1223 C1198 0.950 . S
H1224 C1200 0.950 . S
H1225 C1201 0.949 . S
H1226 C1203 0.950 . S
H1227 C1205 0.950 . S
C1228 C1229 1.349 . S
C1228 C1230 1.327 . S
C1228 H1253 0.950 . S
C1229 C1228 1.349 . S
C1229 C1245 1.349 . S
C1230 C1228 1.327 . S
C1230 C1249 1.429 . S
C1230 H1254 0.950 . S
C1231 C1248 1.574 . S
C1231 C1250 1.368 . S
C1231 H1255 0.949 . S
H1232 C1236 0.949 . S
C1233 C1234 1.349 . S
C1233 C1235 1.327 . S
C1233 H1256 0.950 . S
C1234 C1233 1.349 . S
C1234 C1246 1.349 . S
C1235 C1233 1.327 . S
C1235 C1251 1.429 . S
C1235 H1257 0.950 . S
C1236 H1232 0.949 . S
C1236 C1244 1.574 . S
C1236 C1252 1.368 . S
H1237 C1245 0.950 . S
H1238 C1243 0.950 . S
H1239 C1244 0.949 . S
H1240 C1246 0.950 . S
H1241 C1247 0.950 . S
H1242 C1248 0.949 . S
C1243 H1238 0.950 . S
C1243 C1245 1.327 . S
C1243 C1249 1.429 . S
C1244 C1236 1.574 . S
C1244 H1239 0.949 . S
C1244 C1250 1.368 . S
C1245 C1229 1.349 . S
C1245 H1237 0.950 . S
C1245 C1243 1.327 . S
C1246 C1234 1.349 . S
C1246 H1240 0.950 . S
C1246 C1247 1.327 . S
C1247 H1241 0.950 . S
C1247 C1246 1.327 . S
C1247 C1251 1.429 . S
C1248 C1231 1.574 . S
C1248 H1242 0.949 . S
C1248 C1252 1.368 . S
C1249 C1230 1.429 . S
C1249 C1243 1.429 . S
C1249 C1250 1.523 . S
C1250 C1231 1.368 . S
C1250 C1244 1.368 . S
C1250 C1249 1.523 . S
C1251 C1235 1.429 . S
C1251 C1247 1.429 . S
C1251 C1252 1.523 . S
C1252 C1236 1.368 . S
C1252 C1248 1.368 . S
C1252 C1251 1.523 . S
H1253 C1228 0.950 . S
H1254 C1230 0.950 . S
H1255 C1231 0.949 . S
H1256 C1233 0.950 . S
H1257 C1235 0.950 . S
C1258 C1259 1.349 . S
C1258 C1260 1.327 . S
C1258 H1283 0.950 . S
C1259 C1258 1.349 . S
C1259 C1275 1.349 . S
C1260 C1258 1.327 . S
C1260 C1279 1.429 . S
C1260 H1284 0.950 . S
C1261 C1278 1.574 . S
C1261 C1280 1.368 . S
C1261 H1285 0.949 . S
H1262 C1266 0.949 . S
C1263 C1264 1.349 . S
C1263 C1265 1.327 . S
C1263 H1286 0.950 . S
C1264 C1263 1.349 . S
C1264 C1276 1.349 . S
C1265 C1263 1.327 . S
C1265 C1281 1.429 . S
C1265 H1287 0.950 . S
C1266 H1262 0.949 . S
C1266 C1274 1.574 . S
C1266 C1282 1.368 . S
H1267 C1275 0.950 . S
H1268 C1273 0.950 . S
H1269 C1274 0.949 . S
H1270 C1276 0.950 . S
H1271 C1277 0.950 . S
H1272 C1278 0.949 . S
C1273 H1268 0.950 . S
C1273 C1275 1.327 . S
C1273 C1279 1.429 . S
C1274 C1266 1.574 . S
C1274 H1269 0.949 . S
C1274 C1280 1.368 . S
C1275 C1259 1.349 . S
C1275 H1267 0.950 . S
C1275 C1273 1.327 . S
C1276 C1264 1.349 . S
C1276 H1270 0.950 . S
C1276 C1277 1.327 . S
C1277 H1271 0.950 . S
C1277 C1276 1.327 . S
C1277 C1281 1.429 . S
C1278 C1261 1.574 . S
C1278 H1272 0.949 . S
C1278 C1282 1.368 . S
C1279 C1260 1.429 . S
C1279 C1273 1.429 . S
C1279 C1280 1.523 . S
C1280 C1261 1.368 . S
C1280 C1274 1.368 . S
C1280 C1279 1.523 . S
C1281 C1265 1.429 . S
C1281 C1277 1.429 . S
C1281 C1282 1.523 . S
C1282 C1266 1.368 . S
C1282 C1278 1.368 . S
C1282 C1281 1.523 . S
H1283 C1258 0.950 . S
H1284 C1260 0.950 . S
H1285 C1261 0.949 . S
H1286 C1263 0.950 . S
H1287 C1265 0.950 . S
C1288 C1289 1.349 . S
C1288 C1290 1.327 . S
C1288 H1313 0.950 . S
C1289 C1288 1.349 . S
C1289 C1305 1.349 . S
C1290 C1288 1.327 . S
C1290 C1309 1.429 . S
C1290 H1314 0.950 . S
C1291 C1308 1.574 . S
C1291 C1310 1.368 . S
C1291 H1315 0.949 . S
H1292 C1296 0.949 . S
C1293 C1294 1.349 . S
C1293 C1295 1.327 . S
C1293 H1316 0.950 . S
C1294 C1293 1.349 . S
C1294 C1306 1.349 . S
C1295 C1293 1.327 . S
C1295 C1311 1.429 . S
C1295 H1317 0.950 . S
C1296 H1292 0.949 . S
C1296 C1304 1.574 . S
C1296 C1312 1.368 . S
H1297 C1305 0.950 . S
H1298 C1303 0.950 . S
H1299 C1304 0.949 . S
H1300 C1306 0.950 . S
H1301 C1307 0.950 . S
H1302 C1308 0.949 . S
C1303 H1298 0.950 . S
C1303 C1305 1.327 . S
C1303 C1309 1.429 . S
C1304 C1296 1.574 . S
C1304 H1299 0.949 . S
C1304 C1310 1.368 . S
C1305 C1289 1.349 . S
C1305 H1297 0.950 . S
C1305 C1303 1.327 . S
C1306 C1294 1.349 . S
C1306 H1300 0.950 . S
C1306 C1307 1.327 . S
C1307 H1301 0.950 . S
C1307 C1306 1.327 . S
C1307 C1311 1.429 . S
C1308 C1291 1.574 . S
C1308 H1302 0.949 . S
C1308 C1312 1.368 . S
C1309 C1290 1.429 . S
C1309 C1303 1.429 . S
C1309 C1310 1.523 . S
C1310 C1291 1.368 . S
C1310 C1304 1.368 . S
C1310 C1309 1.523 . S
C1311 C1295 1.429 . S
C1311 C1307 1.429 . S
C1311 C1312 1.523 . S
C1312 C1296 1.368 . S
C1312 C1308 1.368 . S
C1312 C1311 1.523 . S
H1313 C1288 0.950 . S
H1314 C1290 0.950 . S
H1315 C1291 0.949 . S
H1316 C1293 0.950 . S
H1317 C1295 0.950 . S
C1318 C1319 1.349 . S
C1318 C1320 1.327 . S
C1318 H1343 0.950 . S
C1319 C1318 1.349 . S
C1319 C1335 1.349 . S
C1320 C1318 1.327 . S
C1320 C1339 1.429 . S
C1320 H1344 0.950 . S
C1321 C1338 1.574 1_545 S
C1321 C1340 1.368 . S
C1321 H1345 0.949 . S
H1322 C1326 0.949 . S
C1323 C1324 1.349 . S
C1323 C1325 1.327 . S
C1323 H1346 0.950 . S
C1324 C1323 1.349 . S
C1324 C1336 1.349 . S
C1325 C1323 1.327 . S
C1325 C1341 1.429 . S
C1325 H1347 0.950 . S
C1326 H1322 0.949 . S
C1326 C1334 1.574 1_565 S
C1326 C1342 1.368 . S
H1327 C1335 0.950 . S
H1328 C1333 0.950 . S
H1329 C1334 0.949 . S
H1330 C1336 0.950 . S
H1331 C1337 0.950 . S
H1332 C1338 0.949 . S
C1333 H1328 0.950 . S
C1333 C1335 1.327 . S
C1333 C1339 1.429 . S
C1334 C1326 1.574 1_545 S
C1334 H1329 0.949 . S
C1334 C1340 1.368 . S
C1335 C1319 1.349 . S
C1335 H1327 0.950 . S
C1335 C1333 1.327 . S
C1336 C1324 1.349 . S
C1336 H1330 0.950 . S
C1336 C1337 1.327 . S
C1337 H1331 0.950 . S
C1337 C1336 1.327 . S
C1337 C1341 1.429 . S
C1338 C1321 1.574 1_565 S
C1338 H1332 0.949 . S
C1338 C1342 1.368 . S
C1339 C1320 1.429 . S
C1339 C1333 1.429 . S
C1339 C1340 1.523 . S
C1340 C1321 1.368 . S
C1340 C1334 1.368 . S
C1340 C1339 1.523 . S
C1341 C1325 1.429 . S
C1341 C1337 1.429 . S
C1341 C1342 1.523 . S
C1342 C1326 1.368 . S
C1342 C1338 1.368 . S
C1342 C1341 1.523 . S
H1343 C1318 0.950 . S
H1344 C1320 0.950 . S
H1345 C1321 0.949 . S
H1346 C1323 0.950 . S
H1347 C1325 0.950 . S
C1348 C1349 1.349 . S
C1348 C1350 1.327 . S
C1348 H1373 0.950 . S
C1349 C1348 1.349 . S
C1349 C1365 1.349 . S
C1350 C1348 1.327 . S
C1350 C1369 1.429 . S
C1350 H1374 0.950 . S
C1351 C1368 1.574 . S
C1351 C1370 1.368 . S
C1351 H1375 0.949 . S
H1352 C1356 0.949 . S
C1353 C1354 1.349 . S
C1353 C1355 1.327 . S
C1353 H1376 0.950 . S
C1354 C1353 1.349 . S
C1354 C1366 1.349 . S
C1355 C1353 1.327 . S
C1355 C1371 1.429 . S
C1355 H1377 0.950 . S
C1356 H1352 0.949 . S
C1356 C1364 1.574 . S
C1356 C1372 1.368 . S
H1357 C1365 0.950 . S
H1358 C1363 0.950 . S
H1359 C1364 0.949 . S
H1360 C1366 0.950 . S
H1361 C1367 0.950 . S
H1362 C1368 0.949 . S
C1363 H1358 0.950 . S
C1363 C1365 1.327 . S
C1363 C1369 1.429 . S
C1364 C1356 1.574 . S
C1364 H1359 0.949 . S
C1364 C1370 1.368 . S
C1365 C1349 1.349 . S
C1365 H1357 0.950 . S
C1365 C1363 1.327 . S
C1366 C1354 1.349 . S
C1366 H1360 0.950 . S
C1366 C1367 1.327 . S
C1367 H1361 0.950 . S
C1367 C1366 1.327 . S
C1367 C1371 1.429 . S
C1368 C1351 1.574 . S
C1368 H1362 0.949 . S
C1368 C1372 1.368 . S
C1369 C1350 1.429 . S
C1369 C1363 1.429 . S
C1369 C1370 1.523 . S
C1370 C1351 1.368 . S
C1370 C1364 1.368 . S
C1370 C1369 1.523 . S
C1371 C1355 1.429 . S
C1371 C1367 1.429 . S
C1371 C1372 1.523 . S
C1372 C1356 1.368 . S
C1372 C1368 1.368 . S
C1372 C1371 1.523 . S
H1373 C1348 0.950 . S
H1374 C1350 0.950 . S
H1375 C1351 0.949 . S
H1376 C1353 0.950 . S
H1377 C1355 0.950 . S
C1378 C1379 1.349 . S
C1378 C1380 1.327 . S
C1378 H1403 0.950 . S
C1379 C1378 1.349 . S
C1379 C1395 1.349 . S
C1380 C1378 1.327 . S
C1380 C1399 1.429 . S
C1380 H1404 0.950 . S
C1381 C1398 1.574 . S
C1381 C1400 1.368 1_556 S
C1381 H1405 0.949 . S
H1382 C1386 0.949 . S
C1383 C1384 1.349 . S
C1383 C1385 1.327 . S
C1383 H1406 0.950 . S
C1384 C1383 1.349 . S
C1384 C1396 1.349 . S
C1385 C1383 1.327 . S
C1385 C1401 1.429 . S
C1385 H1407 0.950 . S
C1386 H1382 0.949 . S
C1386 C1394 1.574 . S
C1386 C1402 1.368 1_554 S
H1387 C1395 0.950 . S
H1388 C1393 0.950 1_556 S
H1389 C1394 0.949 . S
H1390 C1396 0.950 . S
H1391 C1397 0.950 1_554 S
H1392 C1398 0.949 . S
C1393 H1388 0.950 1_554 S
C1393 C1395 1.327 . S
C1393 C1399 1.429 . S
C1394 C1386 1.574 . S
C1394 H1389 0.949 . S
C1394 C1400 1.368 . S
C1395 C1379 1.349 . S
C1395 H1387 0.950 . S
C1395 C1393 1.327 . S
C1396 C1384 1.349 . S
C1396 H1390 0.950 . S
C1396 C1397 1.327 . S
C1397 H1391 0.950 1_556 S
C1397 C1396 1.327 . S
C1397 C1401 1.429 . S
C1398 C1381 1.574 . S
C1398 H1392 0.949 . S
C1398 C1402 1.368 . S
C1399 C1380 1.429 . S
C1399 C1393 1.429 . S
C1399 C1400 1.523 . S
C1400 C1381 1.368 1_554 S
C1400 C1394 1.368 . S
C1400 C1399 1.523 . S
C1401 C1385 1.429 . S
C1401 C1397 1.429 . S
C1401 C1402 1.523 . S
C1402 C1386 1.368 1_556 S
C1402 C1398 1.368 . S
C1402 C1401 1.523 . S
H1403 C1378 0.950 . S
H1404 C1380 0.950 . S
H1405 C1381 0.949 . S
H1406 C1383 0.950 . S
H1407 C1385 0.950 . S
C1408 C1409 1.349 . S
C1408 C1410 1.327 . S
C1408 H1433 0.950 . S
C1409 C1408 1.349 . S
C1409 C1425 1.349 . S
C1410 C1408 1.327 . S
C1410 C1429 1.429 . S
C1410 H1434 0.950 . S
C1411 C1428 1.574 . S
C1411 C1430 1.368 . S
C1411 H1435 0.949 . S
H1412 C1416 0.949 . S
C1413 C1414 1.349 . S
C1413 C1415 1.327 . S
C1413 H1436 0.950 . S
C1414 C1413 1.349 . S
C1414 C1426 1.349 . S
C1415 C1413 1.327 . S
C1415 C1431 1.429 . S
C1415 H1437 0.950 . S
C1416 H1412 0.949 . S
C1416 C1424 1.574 . S
C1416 C1432 1.368 . S
H1417 C1425 0.950 . S
H1418 C1423 0.950 . S
H1419 C1424 0.949 . S
H1420 C1426 0.950 . S
H1421 C1427 0.950 . S
H1422 C1428 0.949 . S
C1423 H1418 0.950 . S
C1423 C1425 1.327 . S
C1423 C1429 1.429 . S
C1424 C1416 1.574 . S
C1424 H1419 0.949 . S
C1424 C1430 1.368 . S
C1425 C1409 1.349 . S
C1425 H1417 0.950 . S
C1425 C1423 1.327 . S
C1426 C1414 1.349 . S
C1426 H1420 0.950 . S
C1426 C1427 1.327 . S
C1427 H1421 0.950 . S
C1427 C1426 1.327 . S
C1427 C1431 1.429 . S
C1428 C1411 1.574 . S
C1428 H1422 0.949 . S
C1428 C1432 1.368 . S
C1429 C1410 1.429 . S
C1429 C1423 1.429 . S
C1429 C1430 1.523 . S
C1430 C1411 1.368 . S
C1430 C1424 1.368 . S
C1430 C1429 1.523 . S
C1431 C1415 1.429 . S
C1431 C1427 1.429 . S
C1431 C1432 1.523 . S
C1432 C1416 1.368 . S
C1432 C1428 1.368 . S
C1432 C1431 1.523 . S
H1433 C1408 0.950 . S
H1434 C1410 0.950 . S
H1435 C1411 0.949 . S
H1436 C1413 0.950 . S
H1437 C1415 0.950 . S
C1438 C1439 1.349 . S
C1438 C1440 1.327 . S
C1438 H1463 0.950 . S
C1439 C1438 1.349 . S
C1439 C1455 1.349 . S
C1440 C1438 1.327 . S
C1440 C1459 1.429 . S
C1440 H1464 0.950 . S
C1441 C1458 1.574 . S
C1441 C1460 1.368 . S
C1441 H1465 0.949 . S
H1442 C1446 0.949 . S
C1443 C1444 1.349 . S
C1443 C1445 1.327 . S
C1443 H1466 0.950 . S
C1444 C1443 1.349 . S
C1444 C1456 1.349 . S
C1445 C1443 1.327 . S
C1445 C1461 1.429 . S
C1445 H1467 0.950 . S
C1446 H1442 0.949 . S
C1446 C1454 1.574 . S
C1446 C1462 1.368 . S
H1447 C1455 0.950 . S
H1448 C1453 0.950 . S
H1449 C1454 0.949 . S
H1450 C1456 0.950 . S
H1451 C1457 0.950 . S
H1452 C1458 0.949 . S
C1453 H1448 0.950 . S
C1453 C1455 1.327 . S
C1453 C1459 1.429 . S
C1454 C1446 1.574 . S
C1454 H1449 0.949 . S
C1454 C1460 1.368 . S
C1455 C1439 1.349 . S
C1455 H1447 0.950 . S
C1455 C1453 1.327 . S
C1456 C1444 1.349 . S
C1456 H1450 0.950 . S
C1456 C1457 1.327 . S
C1457 H1451 0.950 . S
C1457 C1456 1.327 . S
C1457 C1461 1.429 . S
C1458 C1441 1.574 . S
C1458 H1452 0.949 . S
C1458 C1462 1.368 . S
C1459 C1440 1.429 . S
C1459 C1453 1.429 . S
C1459 C1460 1.523 . S
C1460 C1441 1.368 . S
C1460 C1454 1.368 . S
C1460 C1459 1.523 . S
C1461 C1445 1.429 . S
C1461 C1457 1.429 . S
C1461 C1462 1.523 . S
C1462 C1446 1.368 . S
C1462 C1458 1.368 . S
C1462 C1461 1.523 . S
H1463 C1438 0.950 . S
H1464 C1440 0.950 . S
H1465 C1441 0.949 . S
H1466 C1443 0.950 . S
H1467 C1445 0.950 . S
C1468 C1469 1.349 . S
C1468 C1470 1.327 . S
C1468 H1493 0.950 . S
C1469 C1468 1.349 . S
C1469 C1485 1.349 . S
C1470 C1468 1.327 . S
C1470 C1489 1.429 . S
C1470 H1494 0.950 . S
C1471 C1488 1.574 . S
C1471 C1490 1.368 . S
C1471 H1495 0.949 . S
H1472 C1476 0.949 . S
C1473 C1474 1.349 . S
C1473 C1475 1.327 . S
C1473 H1496 0.950 . S
C1474 C1473 1.349 . S
C1474 C1486 1.349 . S
C1475 C1473 1.327 . S
C1475 C1491 1.429 . S
C1475 H1497 0.950 . S
C1476 H1472 0.949 . S
C1476 C1484 1.574 . S
C1476 C1492 1.368 . S
H1477 C1485 0.950 . S
H1478 C1483 0.950 . S
H1479 C1484 0.949 . S
H1480 C1486 0.950 . S
H1481 C1487 0.950 . S
H1482 C1488 0.949 . S
C1483 H1478 0.950 . S
C1483 C1485 1.327 . S
C1483 C1489 1.429 . S
C1484 C1476 1.574 . S
C1484 H1479 0.949 . S
C1484 C1490 1.368 . S
C1485 C1469 1.349 . S
C1485 H1477 0.950 . S
C1485 C1483 1.327 . S
C1486 C1474 1.349 . S
C1486 H1480 0.950 . S
C1486 C1487 1.327 . S
C1487 H1481 0.950 . S
C1487 C1486 1.327 . S
C1487 C1491 1.429 . S
C1488 C1471 1.574 . S
C1488 H1482 0.949 . S
C1488 C1492 1.368 . S
C1489 C1470 1.429 . S
C1489 C1483 1.429 . S
C1489 C1490 1.523 . S
C1490 C1471 1.368 . S
C1490 C1484 1.368 . S
C1490 C1489 1.523 . S
C1491 C1475 1.429 . S
C1491 C1487 1.429 . S
C1491 C1492 1.523 . S
C1492 C1476 1.368 . S
C1492 C1488 1.368 . S
C1492 C1491 1.523 . S
H1493 C1468 0.950 . S
H1494 C1470 0.950 . S
H1495 C1471 0.949 . S
H1496 C1473 0.950 . S
H1497 C1475 0.950 . S
C1498 C1499 1.349 . S
C1498 C1500 1.327 . S
C1498 H1523 0.950 . S
C1499 C1498 1.349 . S
C1499 C1515 1.349 . S
C1500 C1498 1.327 . S
C1500 C1519 1.429 . S
C1500 H1524 0.950 . S
C1501 C1518 1.574 . S
C1501 C1520 1.368 . S
C1501 H1525 0.949 . S
H1502 C1506 0.949 . S
C1503 C1504 1.349 . S
C1503 C1505 1.327 . S
C1503 H1526 0.950 . S
C1504 C1503 1.349 . S
C1504 C1516 1.349 . S
C1505 C1503 1.327 . S
C1505 C1521 1.429 . S
C1505 H1527 0.950 . S
C1506 H1502 0.949 . S
C1506 C1514 1.574 . S
C1506 C1522 1.368 . S
H1507 C1515 0.950 . S
H1508 C1513 0.950 . S
H1509 C1514 0.949 . S
H1510 C1516 0.950 . S
H1511 C1517 0.950 . S
H1512 C1518 0.949 . S
C1513 H1508 0.950 . S
C1513 C1515 1.327 . S
C1513 C1519 1.429 . S
C1514 C1506 1.574 . S
C1514 H1509 0.949 . S
C1514 C1520 1.368 . S
C1515 C1499 1.349 . S
C1515 H1507 0.950 . S
C1515 C1513 1.327 . S
C1516 C1504 1.349 . S
C1516 H1510 0.950 . S
C1516 C1517 1.327 . S
C1517 H1511 0.950 . S
C1517 C1516 1.327 . S
C1517 C1521 1.429 . S
C1518 C1501 1.574 . S
C1518 H1512 0.949 . S
C1518 C1522 1.368 . S
C1519 C1500 1.429 . S
C1519 C1513 1.429 . S
C1519 C1520 1.523 . S
C1520 C1501 1.368 . S
C1520 C1514 1.368 . S
C1520 C1519 1.523 . S
C1521 C1505 1.429 . S
C1521 C1517 1.429 . S
C1521 C1522 1.523 . S
C1522 C1506 1.368 . S
C1522 C1518 1.368 . S
C1522 C1521 1.523 . S
H1523 C1498 0.950 . S
H1524 C1500 0.950 . S
H1525 C1501 0.949 . S
H1526 C1503 0.950 . S
H1527 C1505 0.950 . S
C1528 C1529 1.349 . S
C1528 C1530 1.327 . S
C1528 H1553 0.950 . S
C1529 C1528 1.349 . S
C1529 C1545 1.349 . S
C1530 C1528 1.327 . S
C1530 C1549 1.429 . S
C1530 H1554 0.950 . S
C1531 C1548 1.574 . S
C1531 C1550 1.368 . S
C1531 H1555 0.949 . S
H1532 C1536 0.949 . S
C1533 C1534 1.349 . S
C1533 C1535 1.327 . S
C1533 H1556 0.950 . S
C1534 C1533 1.349 . S
C1534 C1546 1.349 . S
C1535 C1533 1.327 . S
C1535 C1551 1.429 . S
C1535 H1557 0.950 . S
C1536 H1532 0.949 . S
C1536 C1544 1.574 . S
C1536 C1552 1.368 . S
H1537 C1545 0.950 . S
H1538 C1543 0.950 . S
H1539 C1544 0.949 . S
H1540 C1546 0.950 . S
H1541 C1547 0.950 . S
H1542 C1548 0.949 . S
C1543 H1538 0.950 . S
C1543 C1545 1.327 . S
C1543 C1549 1.429 . S
C1544 C1536 1.574 . S
C1544 H1539 0.949 . S
C1544 C1550 1.368 . S
C1545 C1529 1.349 . S
C1545 H1537 0.950 . S
C1545 C1543 1.327 . S
C1546 C1534 1.349 . S
C1546 H1540 0.950 . S
C1546 C1547 1.327 . S
C1547 H1541 0.950 . S
C1547 C1546 1.327 . S
C1547 C1551 1.429 . S
C1548 C1531 1.574 . S
C1548 H1542 0.949 . S
C1548 C1552 1.368 . S
C1549 C1530 1.429 . S
C1549 C1543 1.429 . S
C1549 C1550 1.523 . S
C1550 C1531 1.368 . S
C1550 C1544 1.368 . S
C1550 C1549 1.523 . S
C1551 C1535 1.429 . S
C1551 C1547 1.429 . S
C1551 C1552 1.523 . S
C1552 C1536 1.368 . S
C1552 C1548 1.368 . S
C1552 C1551 1.523 . S
H1553 C1528 0.950 . S
H1554 C1530 0.950 . S
H1555 C1531 0.949 . S
H1556 C1533 0.950 . S
H1557 C1535 0.950 . S
C1558 C1559 1.349 . S
C1558 C1560 1.327 . S
C1558 H1583 0.950 . S
C1559 C1558 1.349 . S
C1559 C1575 1.349 . S
C1560 C1558 1.327 . S
C1560 C1579 1.429 . S
C1560 H1584 0.950 . S
C1561 C1578 1.574 . S
C1561 C1580 1.368 . S
C1561 H1585 0.949 . S
H1562 C1566 0.949 . S
C1563 C1564 1.349 . S
C1563 C1565 1.327 . S
C1563 H1586 0.950 . S
C1564 C1563 1.349 . S
C1564 C1576 1.349 . S
C1565 C1563 1.327 . S
C1565 C1581 1.429 . S
C1565 H1587 0.950 . S
C1566 H1562 0.949 . S
C1566 C1574 1.574 . S
C1566 C1582 1.368 . S
H1567 C1575 0.950 . S
H1568 C1573 0.950 . S
H1569 C1574 0.949 . S
H1570 C1576 0.950 . S
H1571 C1577 0.950 . S
H1572 C1578 0.949 . S
C1573 H1568 0.950 . S
C1573 C1575 1.327 . S
C1573 C1579 1.429 . S
C1574 C1566 1.574 . S
C1574 H1569 0.949 . S
C1574 C1580 1.368 . S
C1575 C1559 1.349 . S
C1575 H1567 0.950 . S
C1575 C1573 1.327 . S
C1576 C1564 1.349 . S
C1576 H1570 0.950 . S
C1576 C1577 1.327 . S
C1577 H1571 0.950 . S
C1577 C1576 1.327 . S
C1577 C1581 1.429 . S
C1578 C1561 1.574 . S
C1578 H1572 0.949 . S
C1578 C1582 1.368 . S
C1579 C1560 1.429 . S
C1579 C1573 1.429 . S
C1579 C1580 1.523 . S
C1580 C1561 1.368 . S
C1580 C1574 1.368 . S
C1580 C1579 1.523 . S
C1581 C1565 1.429 . S
C1581 C1577 1.429 . S
C1581 C1582 1.523 . S
C1582 C1566 1.368 . S
C1582 C1578 1.368 . S
C1582 C1581 1.523 . S
H1583 C1558 0.950 . S
H1584 C1560 0.950 . S
H1585 C1561 0.949 . S
H1586 C1563 0.950 . S
H1587 C1565 0.950 . S
C1588 C1589 1.349 . S
C1588 C1590 1.327 . S
C1588 H1613 0.950 . S
C1589 C1588 1.349 . S
C1589 C1605 1.349 . S
C1590 C1588 1.327 . S
C1590 C1609 1.429 . S
C1590 H1614 0.950 . S
C1591 C1608 1.574 . S
C1591 C1610 1.368 . S
C1591 H1615 0.949 . S
H1592 C1596 0.949 . S
C1593 C1594 1.349 . S
C1593 C1595 1.327 . S
C1593 H1616 0.950 . S
C1594 C1593 1.349 . S
C1594 C1606 1.349 . S
C1595 C1593 1.327 . S
C1595 C1611 1.429 . S
C1595 H1617 0.950 . S
C1596 H1592 0.949 . S
C1596 C1604 1.574 . S
C1596 C1612 1.368 . S
H1597 C1605 0.950 . S
H1598 C1603 0.950 . S
H1599 C1604 0.949 . S
H1600 C1606 0.950 . S
H1601 C1607 0.950 . S
H1602 C1608 0.949 . S
C1603 H1598 0.950 . S
C1603 C1605 1.327 . S
C1603 C1609 1.429 . S
C1604 C1596 1.574 . S
C1604 H1599 0.949 . S
C1604 C1610 1.368 . S
C1605 C1589 1.349 . S
C1605 H1597 0.950 . S
C1605 C1603 1.327 . S
C1606 C1594 1.349 . S
C1606 H1600 0.950 . S
C1606 C1607 1.327 . S
C1607 H1601 0.950 . S
C1607 C1606 1.327 . S
C1607 C1611 1.429 . S
C1608 C1591 1.574 . S
C1608 H1602 0.949 . S
C1608 C1612 1.368 . S
C1609 C1590 1.429 . S
C1609 C1603 1.429 . S
C1609 C1610 1.523 . S
C1610 C1591 1.368 . S
C1610 C1604 1.368 . S
C1610 C1609 1.523 . S
C1611 C1595 1.429 . S
C1611 C1607 1.429 . S
C1611 C1612 1.523 . S
C1612 C1596 1.368 . S
C1612 C1608 1.368 . S
C1612 C1611 1.523 . S
H1613 C1588 0.950 . S
H1614 C1590 0.950 . S
H1615 C1591 0.949 . S
H1616 C1593 0.950 . S
H1617 C1595 0.950 . S
C1618 C1619 1.349 . S
C1618 C1620 1.327 . S
C1618 H1643 0.950 . S
C1619 C1618 1.349 . S
C1619 C1635 1.349 . S
C1620 C1618 1.327 . S
C1620 C1639 1.429 . S
C1620 H1644 0.950 . S
C1621 C1638 1.574 . S
C1621 C1640 1.368 . S
C1621 H1645 0.949 . S
H1622 C1626 0.949 . S
C1623 C1624 1.349 . S
C1623 C1625 1.327 . S
C1623 H1646 0.950 . S
C1624 C1623 1.349 . S
C1624 C1636 1.349 . S
C1625 C1623 1.327 . S
C1625 C1641 1.429 . S
C1625 H1647 0.950 . S
C1626 H1622 0.949 . S
C1626 C1634 1.574 . S
C1626 C1642 1.368 . S
H1627 C1635 0.950 . S
H1628 C1633 0.950 . S
H1629 C1634 0.949 . S
H1630 C1636 0.950 . S
H1631 C1637 0.950 . S
H1632 C1638 0.949 . S
C1633 H1628 0.950 . S
C1633 C1635 1.327 . S
C1633 C1639 1.429 . S
C1634 C1626 1.574 . S
C1634 H1629 0.949 . S
C1634 C1640 1.368 . S
C1635 C1619 1.349 . S
C1635 H1627 0.950 . S
C1635 C1633 1.327 . S
C1636 C1624 1.349 . S
C1636 H1630 0.950 . S
C1636 C1637 1.327 . S
C1637 H1631 0.950 . S
C1637 C1636 1.327 . S
C1637 C1641 1.429 . S
C1638 C1621 1.574 . S
C1638 H1632 0.949 . S
C1638 C1642 1.368 . S
C1639 C1620 1.429 . S
C1639 C1633 1.429 . S
C1639 C1640 1.523 . S
C1640 C1621 1.368 . S
C1640 C1634 1.368 . S
C1640 C1639 1.523 . S
C1641 C1625 1.429 . S
C1641 C1637 1.429 . S
C1641 C1642 1.523 . S
C1642 C1626 1.368 . S
C1642 C1638 1.368 . S
C1642 C1641 1.523 . S
H1643 C1618 0.950 . S
H1644 C1620 0.950 . S
H1645 C1621 0.949 . S
H1646 C1623 0.950 . S
H1647 C1625 0.950 . S
C1648 C1649 1.349 . S
C1648 C1650 1.327 . S
C1648 H1673 0.950 . S
C1649 C1648 1.349 . S
C1649 C1665 1.349 . S
C1650 C1648 1.327 . S
C1650 C1669 1.429 . S
C1650 H1674 0.950 . S
C1651 C1668 1.574 . S
C1651 C1670 1.368 . S
C1651 H1675 0.949 . S
H1652 C1656 0.949 . S
C1653 C1654 1.349 . S
C1653 C1655 1.327 . S
C1653 H1676 0.950 . S
C1654 C1653 1.349 . S
C1654 C1666 1.349 . S
C1655 C1653 1.327 . S
C1655 C1671 1.429 . S
C1655 H1677 0.950 . S
C1656 H1652 0.949 . S
C1656 C1664 1.574 . S
C1656 C1672 1.368 . S
H1657 C1665 0.950 . S
H1658 C1663 0.950 . S
H1659 C1664 0.949 . S
H1660 C1666 0.950 . S
H1661 C1667 0.950 . S
H1662 C1668 0.949 . S
C1663 H1658 0.950 . S
C1663 C1665 1.327 . S
C1663 C1669 1.429 . S
C1664 C1656 1.574 . S
C1664 H1659 0.949 . S
C1664 C1670 1.368 . S
C1665 C1649 1.349 . S
C1665 H1657 0.950 . S
C1665 C1663 1.327 . S
C1666 C1654 1.349 . S
C1666 H1660 0.950 . S
C1666 C1667 1.327 . S
C1667 H1661 0.950 . S
C1667 C1666 1.327 . S
C1667 C1671 1.429 . S
C1668 C1651 1.574 . S
C1668 H1662 0.949 . S
C1668 C1672 1.368 . S
C1669 C1650 1.429 . S
C1669 C1663 1.429 . S
C1669 C1670 1.523 . S
C1670 C1651 1.368 . S
C1670 C1664 1.368 . S
C1670 C1669 1.523 . S
C1671 C1655 1.429 . S
C1671 C1667 1.429 . S
C1671 C1672 1.523 . S
C1672 C1656 1.368 . S
C1672 C1668 1.368 . S
C1672 C1671 1.523 . S
H1673 C1648 0.950 . S
H1674 C1650 0.950 . S
H1675 C1651 0.949 . S
H1676 C1653 0.950 . S
H1677 C1655 0.950 . S
C1678 C1679 1.349 . S
C1678 C1680 1.327 . S
C1678 H1703 0.950 . S
C1679 C1678 1.349 . S
C1679 C1695 1.349 . S
C1680 C1678 1.327 . S
C1680 C1699 1.429 . S
C1680 H1704 0.950 . S
C1681 C1698 1.574 . S
C1681 C1700 1.368 . S
C1681 H1705 0.949 . S
H1682 C1686 0.949 . S
C1683 C1684 1.349 . S
C1683 C1685 1.327 . S
C1683 H1706 0.950 . S
C1684 C1683 1.349 . S
C1684 C1696 1.349 . S
C1685 C1683 1.327 . S
C1685 C1701 1.429 . S
C1685 H1707 0.950 . S
C1686 H1682 0.949 . S
C1686 C1694 1.574 . S
C1686 C1702 1.368 . S
H1687 C1695 0.950 . S
H1688 C1693 0.950 . S
H1689 C1694 0.949 . S
H1690 C1696 0.950 . S
H1691 C1697 0.950 . S
H1692 C1698 0.949 . S
C1693 H1688 0.950 . S
C1693 C1695 1.327 . S
C1693 C1699 1.429 . S
C1694 C1686 1.574 . S
C1694 H1689 0.949 . S
C1694 C1700 1.368 . S
C1695 C1679 1.349 . S
C1695 H1687 0.950 . S
C1695 C1693 1.327 . S
C1696 C1684 1.349 . S
C1696 H1690 0.950 . S
C1696 C1697 1.327 . S
C1697 H1691 0.950 . S
C1697 C1696 1.327 . S
C1697 C1701 1.429 . S
C1698 C1681 1.574 . S
C1698 H1692 0.949 . S
C1698 C1702 1.368 . S
C1699 C1680 1.429 . S
C1699 C1693 1.429 . S
C1699 C1700 1.523 . S
C1700 C1681 1.368 . S
C1700 C1694 1.368 . S
C1700 C1699 1.523 . S
C1701 C1685 1.429 . S
C1701 C1697 1.429 . S
C1701 C1702 1.523 . S
C1702 C1686 1.368 . S
C1702 C1698 1.368 . S
C1702 C1701 1.523 . S
H1703 C1678 0.950 . S
H1704 C1680 0.950 . S
H1705 C1681 0.949 . S
H1706 C1683 0.950 . S
H1707 C1685 0.950 . S
C1708 C1709 1.349 . S
C1708 C1710 1.327 . S
C1708 H1733 0.950 . S
C1709 C1708 1.349 . S
C1709 C1725 1.349 . S
C1710 C1708 1.327 . S
C1710 C1729 1.429 . S
C1710 H1734 0.950 . S
C1711 C1728 1.574 . S
C1711 C1730 1.368 . S
C1711 H1735 0.949 . S
H1712 C1716 0.949 . S
C1713 C1714 1.349 . S
C1713 C1715 1.327 . S
C1713 H1736 0.950 . S
C1714 C1713 1.349 . S
C1714 C1726 1.349 . S
C1715 C1713 1.327 . S
C1715 C1731 1.429 . S
C1715 H1737 0.950 . S
C1716 H1712 0.949 . S
C1716 C1724 1.574 . S
C1716 C1732 1.368 . S
H1717 C1725 0.950 . S
H1718 C1723 0.950 . S
H1719 C1724 0.949 . S
H1720 C1726 0.950 . S
H1721 C1727 0.950 . S
H1722 C1728 0.949 . S
C1723 H1718 0.950 . S
C1723 C1725 1.327 . S
C1723 C1729 1.429 . S
C1724 C1716 1.574 . S
C1724 H1719 0.949 . S
C1724 C1730 1.368 . S
C1725 C1709 1.349 . S
C1725 H1717 0.950 . S
C1725 C1723 1.327 . S
C1726 C1714 1.349 . S
C1726 H1720 0.950 . S
C1726 C1727 1.327 . S
C1727 H1721 0.950 . S
C1727 C1726 1.327 . S
C1727 C1731 1.429 . S
C1728 C1711 1.574 . S
C1728 H1722 0.949 . S
C1728 C1732 1.368 . S
C1729 C1710 1.429 . S
C1729 C1723 1.429 . S
C1729 C1730 1.523 . S
C1730 C1711 1.368 . S
C1730 C1724 1.368 . S
C1730 C1729 1.523 . S
C1731 C1715 1.429 . S
C1731 C1727 1.429 . S
C1731 C1732 1.523 . S
C1732 C1716 1.368 . S
C1732 C1728 1.368 . S
C1732 C1731 1.523 . S
H1733 C1708 0.950 . S
H1734 C1710 0.950 . S
H1735 C1711 0.949 . S
H1736 C1713 0.950 . S
H1737 C1715 0.950 . S
C1738 C1739 1.349 . S
C1738 C1740 1.327 . S
C1738 H1763 0.950 . S
C1739 C1738 1.349 . S
C1739 C1755 1.349 . S
C1740 C1738 1.327 . S
C1740 C1759 1.429 . S
C1740 H1764 0.950 . S
C1741 C1758 1.574 . S
C1741 C1760 1.368 . S
C1741 H1765 0.949 . S
H1742 C1746 0.949 . S
C1743 C1744 1.349 . S
C1743 C1745 1.327 . S
C1743 H1766 0.950 . S
C1744 C1743 1.349 . S
C1744 C1756 1.349 . S
C1745 C1743 1.327 . S
C1745 C1761 1.429 . S
C1745 H1767 0.950 . S
C1746 H1742 0.949 . S
C1746 C1754 1.574 . S
C1746 C1762 1.368 . S
H1747 C1755 0.950 . S
H1748 C1753 0.950 . S
H1749 C1754 0.949 . S
H1750 C1756 0.950 . S
H1751 C1757 0.950 . S
H1752 C1758 0.949 . S
C1753 H1748 0.950 . S
C1753 C1755 1.327 . S
C1753 C1759 1.429 . S
C1754 C1746 1.574 . S
C1754 H1749 0.949 . S
C1754 C1760 1.368 . S
C1755 C1739 1.349 . S
C1755 H1747 0.950 . S
C1755 C1753 1.327 . S
C1756 C1744 1.349 . S
C1756 H1750 0.950 . S
C1756 C1757 1.327 . S
C1757 H1751 0.950 . S
C1757 C1756 1.327 . S
C1757 C1761 1.429 . S
C1758 C1741 1.574 . S
C1758 H1752 0.949 . S
C1758 C1762 1.368 . S
C1759 C1740 1.429 . S
C1759 C1753 1.429 . S
C1759 C1760 1.523 . S
C1760 C1741 1.368 . S
C1760 C1754 1.368 . S
C1760 C1759 1.523 . S
C1761 C1745 1.429 . S
C1761 C1757 1.429 . S
C1761 C1762 1.523 . S
C1762 C1746 1.368 . S
C1762 C1758 1.368 . S
C1762 C1761 1.523 . S
H1763 C1738 0.950 . S
H1764 C1740 0.950 . S
H1765 C1741 0.949 . S
H1766 C1743 0.950 . S
H1767 C1745 0.950 . S
C1768 C1769 1.349 . S
C1768 C1770 1.327 . S
C1768 H1793 0.950 . S
C1769 C1768 1.349 . S
C1769 C1785 1.349 . S
C1770 C1768 1.327 . S
C1770 C1789 1.429 . S
C1770 H1794 0.950 . S
C1771 C1788 1.574 . S
C1771 C1790 1.368 . S
C1771 H1795 0.949 . S
H1772 C1776 0.949 . S
C1773 C1774 1.349 . S
C1773 C1775 1.327 . S
C1773 H1796 0.950 . S
C1774 C1773 1.349 . S
C1774 C1786 1.349 . S
C1775 C1773 1.327 . S
C1775 C1791 1.429 . S
C1775 H1797 0.950 . S
C1776 H1772 0.949 . S
C1776 C1784 1.574 . S
C1776 C1792 1.368 . S
H1777 C1785 0.950 . S
H1778 C1783 0.950 . S
H1779 C1784 0.949 . S
H1780 C1786 0.950 . S
H1781 C1787 0.950 . S
H1782 C1788 0.949 . S
C1783 H1778 0.950 . S
C1783 C1785 1.327 . S
C1783 C1789 1.429 . S
C1784 C1776 1.574 . S
C1784 H1779 0.949 . S
C1784 C1790 1.368 . S
C1785 C1769 1.349 . S
C1785 H1777 0.950 . S
C1785 C1783 1.327 . S
C1786 C1774 1.349 . S
C1786 H1780 0.950 . S
C1786 C1787 1.327 . S
C1787 H1781 0.950 . S
C1787 C1786 1.327 . S
C1787 C1791 1.429 . S
C1788 C1771 1.574 . S
C1788 H1782 0.949 . S
C1788 C1792 1.368 . S
C1789 C1770 1.429 . S
C1789 C1783 1.429 . S
C1789 C1790 1.523 . S
C1790 C1771 1.368 . S
C1790 C1784 1.368 . S
C1790 C1789 1.523 . S
C1791 C1775 1.429 . S
C1791 C1787 1.429 . S
C1791 C1792 1.523 . S
C1792 C1776 1.368 . S
C1792 C1788 1.368 . S
C1792 C1791 1.523 . S
H1793 C1768 0.950 . S
H1794 C1770 0.950 . S
H1795 C1771 0.949 . S
H1796 C1773 0.950 . S
H1797 C1775 0.950 . S
C1798 C1799 1.349 . S
C1798 C1800 1.327 . S
C1798 H1823 0.950 . S
C1799 C1798 1.349 . S
C1799 C1815 1.349 . S
C1800 C1798 1.327 . S
C1800 C1819 1.429 . S
C1800 H1824 0.950 . S
C1801 C1818 1.574 . S
C1801 C1820 1.368 . S
C1801 H1825 0.949 . S
H1802 C1806 0.949 . S
C1803 C1804 1.349 . S
C1803 C1805 1.327 . S
C1803 H1826 0.950 . S
C1804 C1803 1.349 . S
C1804 C1816 1.349 . S
C1805 C1803 1.327 . S
C1805 C1821 1.429 . S
C1805 H1827 0.950 . S
C1806 H1802 0.949 . S
C1806 C1814 1.574 . S
C1806 C1822 1.368 . S
H1807 C1815 0.950 . S
H1808 C1813 0.950 . S
H1809 C1814 0.949 . S
H1810 C1816 0.950 . S
H1811 C1817 0.950 . S
H1812 C1818 0.949 . S
C1813 H1808 0.950 . S
C1813 C1815 1.327 . S
C1813 C1819 1.429 . S
C1814 C1806 1.574 . S
C1814 H1809 0.949 . S
C1814 C1820 1.368 . S
C1815 C1799 1.349 . S
C1815 H1807 0.950 . S
C1815 C1813 1.327 . S
C1816 C1804 1.349 . S
C1816 H1810 0.950 . S
C1816 C1817 1.327 . S
C1817 H1811 0.950 . S
C1817 C1816 1.327 . S
C1817 C1821 1.429 . S
C1818 C1801 1.574 . S
C1818 H1812 0.949 . S
C1818 C1822 1.368 . S
C1819 C1800 1.429 . S
C1819 C1813 1.429 . S
C1819 C1820 1.523 . S
C1820 C1801 1.368 . S
C1820 C1814 1.368 . S
C1820 C1819 1.523 . S
C1821 C1805 1.429 . S
C1821 C1817 1.429 . S
C1821 C1822 1.523 . S
C1822 C1806 1.368 . S
C1822 C1818 1.368 . S
C1822 C1821 1.523 . S
H1823 C1798 0.950 . S
H1824 C1800 0.950 . S
H1825 C1801 0.949 . S
H1826 C1803 0.950 . S
H1827 C1805 0.950 . S
C1828 C1829 1.349 . S
C1828 C1830 1.327 . S
C1828 H1853 0.950 . S
C1829 C1828 1.349 . S
C1829 C1845 1.349 . S
C1830 C1828 1.327 . S
C1830 C1849 1.429 . S
C1830 H1854 0.950 . S
C1831 C1848 1.574 . S
C1831 C1850 1.368 . S
C1831 H1855 0.949 . S
H1832 C1836 0.949 . S
C1833 C1834 1.349 . S
C1833 C1835 1.327 . S
C1833 H1856 0.950 . S
C1834 C1833 1.349 . S
C1834 C1846 1.349 . S
C1835 C1833 1.327 . S
C1835 C1851 1.429 . S
C1835 H1857 0.950 . S
C1836 H1832 0.949 . S
C1836 C1844 1.574 . S
C1836 C1852 1.368 . S
H1837 C1845 0.950 . S
H1838 C1843 0.950 . S
H1839 C1844 0.949 . S
H1840 C1846 0.950 . S
H1841 C1847 0.950 . S
H1842 C1848 0.949 . S
C1843 H1838 0.950 . S
C1843 C1845 1.327 . S
C1843 C1849 1.429 . S
C1844 C1836 1.574 . S
C1844 H1839 0.949 . S
C1844 C1850 1.368 . S
C1845 C1829 1.349 . S
C1845 H1837 0.950 . S
C1845 C1843 1.327 . S
C1846 C1834 1.349 . S
C1846 H1840 0.950 . S
C1846 C1847 1.327 . S
C1847 H1841 0.950 . S
C1847 C1846 1.327 . S
C1847 C1851 1.429 . S
C1848 C1831 1.574 . S
C1848 H1842 0.949 . S
C1848 C1852 1.368 . S
C1849 C1830 1.429 . S
C1849 C1843 1.429 . S
C1849 C1850 1.523 . S
C1850 C1831 1.368 . S
C1850 C1844 1.368 . S
C1850 C1849 1.523 . S
C1851 C1835 1.429 . S
C1851 C1847 1.429 . S
C1851 C1852 1.523 . S
C1852 C1836 1.368 . S
C1852 C1848 1.368 . S
C1852 C1851 1.523 . S
H1853 C1828 0.950 . S
H1854 C1830 0.950 . S
H1855 C1831 0.949 . S
H1856 C1833 0.950 . S
H1857 C1835 0.950 . S
C1858 C1859 1.349 . S
C1858 C1860 1.327 . S
C1858 H1883 0.950 . S
C1859 C1858 1.349 . S
C1859 C1875 1.349 . S
C1860 C1858 1.327 . S
C1860 C1879 1.429 . S
C1860 H1884 0.950 . S
C1861 C1878 1.574 . S
C1861 C1880 1.368 . S
C1861 H1885 0.949 . S
H1862 C1866 0.949 . S
C1863 C1864 1.349 . S
C1863 C1865 1.327 . S
C1863 H1886 0.950 . S
C1864 C1863 1.349 . S
C1864 C1876 1.349 . S
C1865 C1863 1.327 . S
C1865 C1881 1.429 . S
C1865 H1887 0.950 . S
C1866 H1862 0.949 . S
C1866 C1874 1.574 . S
C1866 C1882 1.368 . S
H1867 C1875 0.950 . S
H1868 C1873 0.950 . S
H1869 C1874 0.949 . S
H1870 C1876 0.950 . S
H1871 C1877 0.950 . S
H1872 C1878 0.949 . S
C1873 H1868 0.950 . S
C1873 C1875 1.327 . S
C1873 C1879 1.429 . S
C1874 C1866 1.574 . S
C1874 H1869 0.949 . S
C1874 C1880 1.368 . S
C1875 C1859 1.349 . S
C1875 H1867 0.950 . S
C1875 C1873 1.327 . S
C1876 C1864 1.349 . S
C1876 H1870 0.950 . S
C1876 C1877 1.327 . S
C1877 H1871 0.950 . S
C1877 C1876 1.327 . S
C1877 C1881 1.429 . S
C1878 C1861 1.574 . S
C1878 H1872 0.949 . S
C1878 C1882 1.368 . S
C1879 C1860 1.429 . S
C1879 C1873 1.429 . S
C1879 C1880 1.523 . S
C1880 C1861 1.368 . S
C1880 C1874 1.368 . S
C1880 C1879 1.523 . S
C1881 C1865 1.429 . S
C1881 C1877 1.429 . S
C1881 C1882 1.523 . S
C1882 C1866 1.368 . S
C1882 C1878 1.368 . S
C1882 C1881 1.523 . S
H1883 C1858 0.950 . S
H1884 C1860 0.950 . S
H1885 C1861 0.949 . S
H1886 C1863 0.950 . S
H1887 C1865 0.950 . S
C1888 C1889 1.349 . S
C1888 C1890 1.327 . S
C1888 H1913 0.950 1_655 S
C1889 C1888 1.349 . S
C1889 C1905 1.349 . S
C1890 C1888 1.327 . S
C1890 C1909 1.429 . S
C1890 H1914 0.950 . S
C1891 C1908 1.574 . S
C1891 C1910 1.368 . S
C1891 H1915 0.949 . S
H1892 C1896 0.949 . S
C1893 C1894 1.349 . S
C1893 C1895 1.327 . S
C1893 H1916 0.950 . S
C1894 C1893 1.349 . S
C1894 C1906 1.349 . S
C1895 C1893 1.327 . S
C1895 C1911 1.429 . S
C1895 H1917 0.950 . S
C1896 H1892 0.949 . S
C1896 C1904 1.574 . S
C1896 C1912 1.368 . S
H1897 C1905 0.950 . S
H1898 C1903 0.950 . S
H1899 C1904 0.949 . S
H1900 C1906 0.950 . S
H1901 C1907 0.950 . S
H1902 C1908 0.949 . S
C1903 H1898 0.950 . S
C1903 C1905 1.327 . S
C1903 C1909 1.429 . S
C1904 C1896 1.574 . S
C1904 H1899 0.949 . S
C1904 C1910 1.368 . S
C1905 C1889 1.349 . S
C1905 H1897 0.950 . S
C1905 C1903 1.327 . S
C1906 C1894 1.349 . S
C1906 H1900 0.950 . S
C1906 C1907 1.327 . S
C1907 H1901 0.950 . S
C1907 C1906 1.327 . S
C1907 C1911 1.429 . S
C1908 C1891 1.574 . S
C1908 H1902 0.949 . S
C1908 C1912 1.368 . S
C1909 C1890 1.429 . S
C1909 C1903 1.429 . S
C1909 C1910 1.523 . S
C1910 C1891 1.368 . S
C1910 C1904 1.368 . S
C1910 C1909 1.523 . S
C1911 C1895 1.429 . S
C1911 C1907 1.429 . S
C1911 C1912 1.523 . S
C1912 C1896 1.368 . S
C1912 C1908 1.368 . S
C1912 C1911 1.523 . S
H1913 C1888 0.950 1_455 S
H1914 C1890 0.950 . S
H1915 C1891 0.949 . S
H1916 C1893 0.950 . S
H1917 C1895 0.950 . S
C1918 C1919 1.349 . S
C1918 C1920 1.327 . S
C1918 H1943 0.950 . S
C1919 C1918 1.349 . S
C1919 C1935 1.349 . S
C1920 C1918 1.327 . S
C1920 C1939 1.429 . S
C1920 H1944 0.950 . S
C1921 C1938 1.574 . S
C1921 C1940 1.368 . S
C1921 H1945 0.949 . S
H1922 C1926 0.949 . S
C1923 C1924 1.349 . S
C1923 C1925 1.327 . S
C1923 H1946 0.950 . S
C1924 C1923 1.349 . S
C1924 C1936 1.349 . S
C1925 C1923 1.327 . S
C1925 C1941 1.429 . S
C1925 H1947 0.950 . S
C1926 H1922 0.949 . S
C1926 C1934 1.574 . S
C1926 C1942 1.368 . S
H1927 C1935 0.950 . S
H1928 C1933 0.950 . S
H1929 C1934 0.949 . S
H1930 C1936 0.950 . S
H1931 C1937 0.950 . S
H1932 C1938 0.949 . S
C1933 H1928 0.950 . S
C1933 C1935 1.327 . S
C1933 C1939 1.429 . S
C1934 C1926 1.574 . S
C1934 H1929 0.949 . S
C1934 C1940 1.368 . S
C1935 C1919 1.349 . S
C1935 H1927 0.950 . S
C1935 C1933 1.327 . S
C1936 C1924 1.349 . S
C1936 H1930 0.950 . S
C1936 C1937 1.327 . S
C1937 H1931 0.950 . S
C1937 C1936 1.327 . S
C1937 C1941 1.429 . S
C1938 C1921 1.574 . S
C1938 H1932 0.949 . S
C1938 C1942 1.368 . S
C1939 C1920 1.429 . S
C1939 C1933 1.429 . S
C1939 C1940 1.523 . S
C1940 C1921 1.368 . S
C1940 C1934 1.368 . S
C1940 C1939 1.523 . S
C1941 C1925 1.429 . S
C1941 C1937 1.429 . S
C1941 C1942 1.523 . S
C1942 C1926 1.368 . S
C1942 C1938 1.368 . S
C1942 C1941 1.523 . S
H1943 C1918 0.950 . S
H1944 C1920 0.950 . S
H1945 C1921 0.949 . S
H1946 C1923 0.950 . S
H1947 C1925 0.950 . S
C1948 C1949 1.349 . S
C1948 C1950 1.327 . S
C1948 H1973 0.950 . S
C1949 C1948 1.349 . S
C1949 C1965 1.349 . S
C1950 C1948 1.327 . S
C1950 C1969 1.429 . S
C1950 H1974 0.950 . S
C1951 C1968 1.574 . S
C1951 C1970 1.368 . S
C1951 H1975 0.949 . S
H1952 C1956 0.949 . S
C1953 C1954 1.349 . S
C1953 C1955 1.327 . S
C1953 H1976 0.950 1_655 S
C1954 C1953 1.349 . S
C1954 C1966 1.349 . S
C1955 C1953 1.327 . S
C1955 C1971 1.429 . S
C1955 H1977 0.950 . S
C1956 H1952 0.949 . S
C1956 C1964 1.574 . S
C1956 C1972 1.368 . S
H1957 C1965 0.950 . S
H1958 C1963 0.950 . S
H1959 C1964 0.949 . S
H1960 C1966 0.950 . S
H1961 C1967 0.950 . S
H1962 C1968 0.949 . S
C1963 H1958 0.950 . S
C1963 C1965 1.327 . S
C1963 C1969 1.429 . S
C1964 C1956 1.574 . S
C1964 H1959 0.949 . S
C1964 C1970 1.368 . S
C1965 C1949 1.349 . S
C1965 H1957 0.950 . S
C1965 C1963 1.327 . S
C1966 C1954 1.349 . S
C1966 H1960 0.950 . S
C1966 C1967 1.327 . S
C1967 H1961 0.950 . S
C1967 C1966 1.327 . S
C1967 C1971 1.429 . S
C1968 C1951 1.574 . S
C1968 H1962 0.949 . S
C1968 C1972 1.368 . S
C1969 C1950 1.429 . S
C1969 C1963 1.429 . S
C1969 C1970 1.523 . S
C1970 C1951 1.368 . S
C1970 C1964 1.368 . S
C1970 C1969 1.523 . S
C1971 C1955 1.429 . S
C1971 C1967 1.429 . S
C1971 C1972 1.523 . S
C1972 C1956 1.368 . S
C1972 C1968 1.368 . S
C1972 C1971 1.523 . S
H1973 C1948 0.950 . S
H1974 C1950 0.950 . S
H1975 C1951 0.949 . S
H1976 C1953 0.950 1_455 S
H1977 C1955 0.950 . S
C1978 C1979 1.349 . S
C1978 C1980 1.327 . S
C1978 H2003 0.950 . S
C1979 C1978 1.349 . S
C1979 C1995 1.349 . S
C1980 C1978 1.327 . S
C1980 C1999 1.429 . S
C1980 H2004 0.950 . S
C1981 C1998 1.574 . S
C1981 C2000 1.368 . S
C1981 H2005 0.949 . S
H1982 C1986 0.949 . S
C1983 C1984 1.349 . S
C1983 C1985 1.327 . S
C1983 H2006 0.950 . S
C1984 C1983 1.349 . S
C1984 C1996 1.349 . S
C1985 C1983 1.327 . S
C1985 C2001 1.429 . S
C1985 H2007 0.950 . S
C1986 H1982 0.949 . S
C1986 C1994 1.574 . S
C1986 C2002 1.368 . S
H1987 C1995 0.950 . S
H1988 C1993 0.950 . S
H1989 C1994 0.949 . S
H1990 C1996 0.950 . S
H1991 C1997 0.950 . S
H1992 C1998 0.949 . S
C1993 H1988 0.950 . S
C1993 C1995 1.327 . S
C1993 C1999 1.429 . S
C1994 C1986 1.574 . S
C1994 H1989 0.949 . S
C1994 C2000 1.368 . S
C1995 C1979 1.349 . S
C1995 H1987 0.950 . S
C1995 C1993 1.327 . S
C1996 C1984 1.349 . S
C1996 H1990 0.950 . S
C1996 C1997 1.327 . S
C1997 H1991 0.950 . S
C1997 C1996 1.327 . S
C1997 C2001 1.429 . S
C1998 C1981 1.574 . S
C1998 H1992 0.949 . S
C1998 C2002 1.368 . S
C1999 C1980 1.429 . S
C1999 C1993 1.429 . S
C1999 C2000 1.523 . S
C2000 C1981 1.368 . S
C2000 C1994 1.368 . S
C2000 C1999 1.523 . S
C2001 C1985 1.429 . S
C2001 C1997 1.429 . S
C2001 C2002 1.523 . S
C2002 C1986 1.368 . S
C2002 C1998 1.368 . S
C2002 C2001 1.523 . S
H2003 C1978 0.950 . S
H2004 C1980 0.950 . S
H2005 C1981 0.949 . S
H2006 C1983 0.950 . S
H2007 C1985 0.950 . S
C2008 C2009 1.349 . S
C2008 C2010 1.327 . S
C2008 H2033 0.950 . S
C2009 C2008 1.349 . S
C2009 C2025 1.349 . S
C2010 C2008 1.327 . S
C2010 C2029 1.429 . S
C2010 H2034 0.950 . S
C2011 C2028 1.574 . S
C2011 C2030 1.368 . S
C2011 H2035 0.949 . S
H2012 C2016 0.949 . S
C2013 C2014 1.349 . S
C2013 C2015 1.327 . S
C2013 H2036 0.950 1_455 S
C2014 C2013 1.349 . S
C2014 C2026 1.349 . S
C2015 C2013 1.327 . S
C2015 C2031 1.429 . S
C2015 H2037 0.950 . S
C2016 H2012 0.949 . S
C2016 C2024 1.574 . S
C2016 C2032 1.368 . S
H2017 C2025 0.950 . S
H2018 C2023 0.950 . S
H2019 C2024 0.949 . S
H2020 C2026 0.950 . S
H2021 C2027 0.950 . S
H2022 C2028 0.949 . S
C2023 H2018 0.950 . S
C2023 C2025 1.327 . S
C2023 C2029 1.429 . S
C2024 C2016 1.574 . S
C2024 H2019 0.949 . S
C2024 C2030 1.368 . S
C2025 C2009 1.349 . S
C2025 H2017 0.950 . S
C2025 C2023 1.327 . S
C2026 C2014 1.349 . S
C2026 H2020 0.950 . S
C2026 C2027 1.327 . S
C2027 H2021 0.950 . S
C2027 C2026 1.327 . S
C2027 C2031 1.429 . S
C2028 C2011 1.574 . S
C2028 H2022 0.949 . S
C2028 C2032 1.368 . S
C2029 C2010 1.429 . S
C2029 C2023 1.429 . S
C2029 C2030 1.523 . S
C2030 C2011 1.368 . S
C2030 C2024 1.368 . S
C2030 C2029 1.523 . S
C2031 C2015 1.429 . S
C2031 C2027 1.429 . S
C2031 C2032 1.523 . S
C2032 C2016 1.368 . S
C2032 C2028 1.368 . S
C2032 C2031 1.523 . S
H2033 C2008 0.950 . S
H2034 C2010 0.950 . S
H2035 C2011 0.949 . S
H2036 C2013 0.950 1_655 S
H2037 C2015 0.950 . S
C2038 C2039 1.349 . S
C2038 C2040 1.327 . S
C2038 H2063 0.950 . S
C2039 C2038 1.349 . S
C2039 C2055 1.349 . S
C2040 C2038 1.327 . S
C2040 C2059 1.429 . S
C2040 H2064 0.950 . S
C2041 C2058 1.574 . S
C2041 C2060 1.368 . S
C2041 H2065 0.949 . S
H2042 C2046 0.949 . S
C2043 C2044 1.349 . S
C2043 C2045 1.327 . S
C2043 H2066 0.950 . S
C2044 C2043 1.349 . S
C2044 C2056 1.349 . S
C2045 C2043 1.327 . S
C2045 C2061 1.429 . S
C2045 H2067 0.950 . S
C2046 H2042 0.949 . S
C2046 C2054 1.574 . S
C2046 C2062 1.368 . S
H2047 C2055 0.950 . S
H2048 C2053 0.950 . S
H2049 C2054 0.949 . S
H2050 C2056 0.950 . S
H2051 C2057 0.950 . S
H2052 C2058 0.949 . S
C2053 H2048 0.950 . S
C2053 C2055 1.327 . S
C2053 C2059 1.429 . S
C2054 C2046 1.574 . S
C2054 H2049 0.949 . S
C2054 C2060 1.368 . S
C2055 C2039 1.349 . S
C2055 H2047 0.950 . S
C2055 C2053 1.327 . S
C2056 C2044 1.349 . S
C2056 H2050 0.950 . S
C2056 C2057 1.327 . S
C2057 H2051 0.950 . S
C2057 C2056 1.327 . S
C2057 C2061 1.429 . S
C2058 C2041 1.574 . S
C2058 H2052 0.949 . S
C2058 C2062 1.368 . S
C2059 C2040 1.429 . S
C2059 C2053 1.429 . S
C2059 C2060 1.523 . S
C2060 C2041 1.368 . S
C2060 C2054 1.368 . S
C2060 C2059 1.523 . S
C2061 C2045 1.429 . S
C2061 C2057 1.429 . S
C2061 C2062 1.523 . S
C2062 C2046 1.368 . S
C2062 C2058 1.368 . S
C2062 C2061 1.523 . S
H2063 C2038 0.950 . S
H2064 C2040 0.950 . S
H2065 C2041 0.949 . S
H2066 C2043 0.950 . S
H2067 C2045 0.950 . S
C2068 C2069 1.349 . S
C2068 C2070 1.327 . S
C2068 H2093 0.950 . S
C2069 C2068 1.349 . S
C2069 C2085 1.349 . S
C2070 C2068 1.327 . S
C2070 C2089 1.429 . S
C2070 H2094 0.950 . S
C2071 C2088 1.574 . S
C2071 C2090 1.368 . S
C2071 H2095 0.949 . S
H2072 C2076 0.949 . S
C2073 C2074 1.349 . S
C2073 C2075 1.327 . S
C2073 H2096 0.950 . S
C2074 C2073 1.349 . S
C2074 C2086 1.349 . S
C2075 C2073 1.327 . S
C2075 C2091 1.429 . S
C2075 H2097 0.950 . S
C2076 H2072 0.949 . S
C2076 C2084 1.574 . S
C2076 C2092 1.368 . S
H2077 C2085 0.950 . S
H2078 C2083 0.950 . S
H2079 C2084 0.949 . S
H2080 C2086 0.950 1_655 S
H2081 C2087 0.950 . S
H2082 C2088 0.949 . S
C2083 H2078 0.950 . S
C2083 C2085 1.327 . S
C2083 C2089 1.429 . S
C2084 C2076 1.574 . S
C2084 H2079 0.949 . S
C2084 C2090 1.368 . S
C2085 C2069 1.349 . S
C2085 H2077 0.950 . S
C2085 C2083 1.327 . S
C2086 C2074 1.349 . S
C2086 H2080 0.950 1_455 S
C2086 C2087 1.327 . S
C2087 H2081 0.950 . S
C2087 C2086 1.327 . S
C2087 C2091 1.429 . S
C2088 C2071 1.574 . S
C2088 H2082 0.949 . S
C2088 C2092 1.368 . S
C2089 C2070 1.429 . S
C2089 C2083 1.429 . S
C2089 C2090 1.523 . S
C2090 C2071 1.368 . S
C2090 C2084 1.368 . S
C2090 C2089 1.523 . S
C2091 C2075 1.429 . S
C2091 C2087 1.429 . S
C2091 C2092 1.523 . S
C2092 C2076 1.368 . S
C2092 C2088 1.368 . S
C2092 C2091 1.523 . S
H2093 C2068 0.950 . S
H2094 C2070 0.950 . S
H2095 C2071 0.949 . S
H2096 C2073 0.950 . S
H2097 C2075 0.950 . S
C2098 C2099 1.349 . S
C2098 C2100 1.327 . S
C2098 H2123 0.950 . S
C2099 C2098 1.349 . S
C2099 C2115 1.349 . S
C2100 C2098 1.327 . S
C2100 C2119 1.429 . S
C2100 H2124 0.950 . S
C2101 C2118 1.574 . S
C2101 C2120 1.368 . S
C2101 H2125 0.949 . S
H2102 C2106 0.949 . S
C2103 C2104 1.349 . S
C2103 C2105 1.327 . S
C2103 H2126 0.950 . S
C2104 C2103 1.349 . S
C2104 C2116 1.349 . S
C2105 C2103 1.327 . S
C2105 C2121 1.429 . S
C2105 H2127 0.950 . S
C2106 H2102 0.949 . S
C2106 C2114 1.574 . S
C2106 C2122 1.368 . S
H2107 C2115 0.950 . S
H2108 C2113 0.950 . S
H2109 C2114 0.949 . S
H2110 C2116 0.950 . S
H2111 C2117 0.950 . S
H2112 C2118 0.949 . S
C2113 H2108 0.950 . S
C2113 C2115 1.327 . S
C2113 C2119 1.429 . S
C2114 C2106 1.574 . S
C2114 H2109 0.949 . S
C2114 C2120 1.368 . S
C2115 C2099 1.349 . S
C2115 H2107 0.950 . S
C2115 C2113 1.327 . S
C2116 C2104 1.349 . S
C2116 H2110 0.950 . S
C2116 C2117 1.327 . S
C2117 H2111 0.950 . S
C2117 C2116 1.327 . S
C2117 C2121 1.429 . S
C2118 C2101 1.574 . S
C2118 H2112 0.949 . S
C2118 C2122 1.368 . S
C2119 C2100 1.429 . S
C2119 C2113 1.429 . S
C2119 C2120 1.523 . S
C2120 C2101 1.368 . S
C2120 C2114 1.368 . S
C2120 C2119 1.523 . S
C2121 C2105 1.429 . S
C2121 C2117 1.429 . S
C2121 C2122 1.523 . S
C2122 C2106 1.368 . S
C2122 C2118 1.368 . S
C2122 C2121 1.523 . S
H2123 C2098 0.950 . S
H2124 C2100 0.950 . S
H2125 C2101 0.949 . S
H2126 C2103 0.950 . S
H2127 C2105 0.950 . S
C2128 C2129 1.349 . S
C2128 C2130 1.327 . S
C2128 H2153 0.950 1_655 S
C2129 C2128 1.349 . S
C2129 C2145 1.349 . S
C2130 C2128 1.327 . S
C2130 C2149 1.429 . S
C2130 H2154 0.950 . S
C2131 C2148 1.574 . S
C2131 C2150 1.368 . S
C2131 H2155 0.949 . S
H2132 C2136 0.949 . S
C2133 C2134 1.349 . S
C2133 C2135 1.327 . S
C2133 H2156 0.950 . S
C2134 C2133 1.349 . S
C2134 C2146 1.349 . S
C2135 C2133 1.327 . S
C2135 C2151 1.429 . S
C2135 H2157 0.950 . S
C2136 H2132 0.949 . S
C2136 C2144 1.574 . S
C2136 C2152 1.368 . S
H2137 C2145 0.950 . S
H2138 C2143 0.950 . S
H2139 C2144 0.949 . S
H2140 C2146 0.950 . S
H2141 C2147 0.950 . S
H2142 C2148 0.949 . S
C2143 H2138 0.950 . S
C2143 C2145 1.327 . S
C2143 C2149 1.429 . S
C2144 C2136 1.574 . S
C2144 H2139 0.949 . S
C2144 C2150 1.368 . S
C2145 C2129 1.349 . S
C2145 H2137 0.950 . S
C2145 C2143 1.327 . S
C2146 C2134 1.349 . S
C2146 H2140 0.950 . S
C2146 C2147 1.327 . S
C2147 H2141 0.950 . S
C2147 C2146 1.327 . S
C2147 C2151 1.429 . S
C2148 C2131 1.574 . S
C2148 H2142 0.949 . S
C2148 C2152 1.368 . S
C2149 C2130 1.429 . S
C2149 C2143 1.429 . S
C2149 C2150 1.523 . S
C2150 C2131 1.368 . S
C2150 C2144 1.368 . S
C2150 C2149 1.523 . S
C2151 C2135 1.429 . S
C2151 C2147 1.429 . S
C2151 C2152 1.523 . S
C2152 C2136 1.368 . S
C2152 C2148 1.368 . S
C2152 C2151 1.523 . S
H2153 C2128 0.950 1_455 S
H2154 C2130 0.950 . S
H2155 C2131 0.949 . S
H2156 C2133 0.950 . S
H2157 C2135 0.950 . S
C2158 C2159 1.349 . S
C2158 C2160 1.327 . S
C2158 H2183 0.950 . S
C2159 C2158 1.349 . S
C2159 C2175 1.349 . S
C2160 C2158 1.327 . S
C2160 C2179 1.429 . S
C2160 H2184 0.950 . S
C2161 C2178 1.574 . S
C2161 C2180 1.368 . S
C2161 H2185 0.949 . S
H2162 C2166 0.949 . S
C2163 C2164 1.349 . S
C2163 C2165 1.327 . S
C2163 H2186 0.950 . S
C2164 C2163 1.349 . S
C2164 C2176 1.349 . S
C2165 C2163 1.327 . S
C2165 C2181 1.429 . S
C2165 H2187 0.950 . S
C2166 H2162 0.949 . S
C2166 C2174 1.574 . S
C2166 C2182 1.368 . S
H2167 C2175 0.950 . S
H2168 C2173 0.950 . S
H2169 C2174 0.949 . S
H2170 C2176 0.950 . S
H2171 C2177 0.950 . S
H2172 C2178 0.949 . S
C2173 H2168 0.950 . S
C2173 C2175 1.327 . S
C2173 C2179 1.429 . S
C2174 C2166 1.574 . S
C2174 H2169 0.949 . S
C2174 C2180 1.368 . S
C2175 C2159 1.349 . S
C2175 H2167 0.950 . S
C2175 C2173 1.327 . S
C2176 C2164 1.349 . S
C2176 H2170 0.950 . S
C2176 C2177 1.327 . S
C2177 H2171 0.950 . S
C2177 C2176 1.327 . S
C2177 C2181 1.429 . S
C2178 C2161 1.574 . S
C2178 H2172 0.949 . S
C2178 C2182 1.368 . S
C2179 C2160 1.429 . S
C2179 C2173 1.429 . S
C2179 C2180 1.523 . S
C2180 C2161 1.368 . S
C2180 C2174 1.368 . S
C2180 C2179 1.523 . S
C2181 C2165 1.429 . S
C2181 C2177 1.429 . S
C2181 C2182 1.523 . S
C2182 C2166 1.368 . S
C2182 C2178 1.368 . S
C2182 C2181 1.523 . S
H2183 C2158 0.950 . S
H2184 C2160 0.950 . S
H2185 C2161 0.949 . S
H2186 C2163 0.950 . S
H2187 C2165 0.950 . S
C2188 C2189 1.349 . S
C2188 C2190 1.327 . S
C2188 H2213 0.950 . S
C2189 C2188 1.349 . S
C2189 C2205 1.349 . S
C2190 C2188 1.327 . S
C2190 C2209 1.429 . S
C2190 H2214 0.950 . S
C2191 C2208 1.574 . S
C2191 C2210 1.368 . S
C2191 H2215 0.949 . S
H2192 C2196 0.949 . S
C2193 C2194 1.349 . S
C2193 C2195 1.327 . S
C2193 H2216 0.950 . S
C2194 C2193 1.349 . S
C2194 C2206 1.349 . S
C2195 C2193 1.327 . S
C2195 C2211 1.429 . S
C2195 H2217 0.950 . S
C2196 H2192 0.949 . S
C2196 C2204 1.574 . S
C2196 C2212 1.368 . S
H2197 C2205 0.950 1_455 S
H2198 C2203 0.950 . S
H2199 C2204 0.949 . S
H2200 C2206 0.950 . S
H2201 C2207 0.950 . S
H2202 C2208 0.949 . S
C2203 H2198 0.950 . S
C2203 C2205 1.327 . S
C2203 C2209 1.429 . S
C2204 C2196 1.574 . S
C2204 H2199 0.949 . S
C2204 C2210 1.368 . S
C2205 C2189 1.349 . S
C2205 H2197 0.950 1_655 S
C2205 C2203 1.327 . S
C2206 C2194 1.349 . S
C2206 H2200 0.950 . S
C2206 C2207 1.327 . S
C2207 H2201 0.950 . S
C2207 C2206 1.327 . S
C2207 C2211 1.429 . S
C2208 C2191 1.574 . S
C2208 H2202 0.949 . S
C2208 C2212 1.368 . S
C2209 C2190 1.429 . S
C2209 C2203 1.429 . S
C2209 C2210 1.523 . S
C2210 C2191 1.368 . S
C2210 C2204 1.368 . S
C2210 C2209 1.523 . S
C2211 C2195 1.429 . S
C2211 C2207 1.429 . S
C2211 C2212 1.523 . S
C2212 C2196 1.368 . S
C2212 C2208 1.368 . S
C2212 C2211 1.523 . S
H2213 C2188 0.950 . S
H2214 C2190 0.950 . S
H2215 C2191 0.949 . S
H2216 C2193 0.950 . S
H2217 C2195 0.950 . S
C2218 C2219 1.349 . S
C2218 C2220 1.327 . S
C2218 H2243 0.950 . S
C2219 C2218 1.349 . S
C2219 C2235 1.349 . S
C2220 C2218 1.327 . S
C2220 C2239 1.429 . S
C2220 H2244 0.950 . S
C2221 C2238 1.574 . S
C2221 C2240 1.368 . S
C2221 H2245 0.949 . S
H2222 C2226 0.949 . S
C2223 C2224 1.349 . S
C2223 C2225 1.327 . S
C2223 H2246 0.950 . S
C2224 C2223 1.349 . S
C2224 C2236 1.349 . S
C2225 C2223 1.327 . S
C2225 C2241 1.429 . S
C2225 H2247 0.950 . S
C2226 H2222 0.949 . S
C2226 C2234 1.574 . S
C2226 C2242 1.368 . S
H2227 C2235 0.950 . S
H2228 C2233 0.950 . S
H2229 C2234 0.949 . S
H2230 C2236 0.950 . S
H2231 C2237 0.950 . S
H2232 C2238 0.949 . S
C2233 H2228 0.950 . S
C2233 C2235 1.327 . S
C2233 C2239 1.429 . S
C2234 C2226 1.574 . S
C2234 H2229 0.949 . S
C2234 C2240 1.368 . S
C2235 C2219 1.349 . S
C2235 H2227 0.950 . S
C2235 C2233 1.327 . S
C2236 C2224 1.349 . S
C2236 H2230 0.950 . S
C2236 C2237 1.327 . S
C2237 H2231 0.950 . S
C2237 C2236 1.327 . S
C2237 C2241 1.429 . S
C2238 C2221 1.574 . S
C2238 H2232 0.949 . S
C2238 C2242 1.368 . S
C2239 C2220 1.429 . S
C2239 C2233 1.429 . S
C2239 C2240 1.523 . S
C2240 C2221 1.368 . S
C2240 C2234 1.368 . S
C2240 C2239 1.523 . S
C2241 C2225 1.429 . S
C2241 C2237 1.429 . S
C2241 C2242 1.523 . S
C2242 C2226 1.368 . S
C2242 C2238 1.368 . S
C2242 C2241 1.523 . S
H2243 C2218 0.950 . S
H2244 C2220 0.950 . S
H2245 C2221 0.949 . S
H2246 C2223 0.950 . S
H2247 C2225 0.950 . S
C2248 C2249 1.349 . S
C2248 C2250 1.327 . S
C2248 H2273 0.950 1_455 S
C2249 C2248 1.349 . S
C2249 C2265 1.349 . S
C2250 C2248 1.327 . S
C2250 C2269 1.429 . S
C2250 H2274 0.950 . S
C2251 C2268 1.574 . S
C2251 C2270 1.368 . S
C2251 H2275 0.949 . S
H2252 C2256 0.949 . S
C2253 C2254 1.349 . S
C2253 C2255 1.327 . S
C2253 H2276 0.950 . S
C2254 C2253 1.349 . S
C2254 C2266 1.349 . S
C2255 C2253 1.327 . S
C2255 C2271 1.429 . S
C2255 H2277 0.950 . S
C2256 H2252 0.949 . S
C2256 C2264 1.574 . S
C2256 C2272 1.368 . S
H2257 C2265 0.950 . S
H2258 C2263 0.950 . S
H2259 C2264 0.949 . S
H2260 C2266 0.950 . S
H2261 C2267 0.950 . S
H2262 C2268 0.949 . S
C2263 H2258 0.950 . S
C2263 C2265 1.327 . S
C2263 C2269 1.429 . S
C2264 C2256 1.574 . S
C2264 H2259 0.949 . S
C2264 C2270 1.368 . S
C2265 C2249 1.349 . S
C2265 H2257 0.950 . S
C2265 C2263 1.327 . S
C2266 C2254 1.349 . S
C2266 H2260 0.950 . S
C2266 C2267 1.327 . S
C2267 H2261 0.950 . S
C2267 C2266 1.327 . S
C2267 C2271 1.429 . S
C2268 C2251 1.574 . S
C2268 H2262 0.949 . S
C2268 C2272 1.368 . S
C2269 C2250 1.429 . S
C2269 C2263 1.429 . S
C2269 C2270 1.523 . S
C2270 C2251 1.368 . S
C2270 C2264 1.368 . S
C2270 C2269 1.523 . S
C2271 C2255 1.429 . S
C2271 C2267 1.429 . S
C2271 C2272 1.523 . S
C2272 C2256 1.368 . S
C2272 C2268 1.368 . S
C2272 C2271 1.523 . S
H2273 C2248 0.950 1_655 S
H2274 C2250 0.950 . S
H2275 C2251 0.949 . S
H2276 C2253 0.950 . S
H2277 C2255 0.950 . S
C2278 C2279 1.349 . S
C2278 C2280 1.327 . S
C2278 H2303 0.950 . S
C2279 C2278 1.349 . S
C2279 C2295 1.349 . S
C2280 C2278 1.327 . S
C2280 C2299 1.429 . S
C2280 H2304 0.950 . S
C2281 C2298 1.574 . S
C2281 C2300 1.368 . S
C2281 H2305 0.949 . S
H2282 C2286 0.949 . S
C2283 C2284 1.349 . S
C2283 C2285 1.327 . S
C2283 H2306 0.950 . S
C2284 C2283 1.349 . S
C2284 C2296 1.349 . S
C2285 C2283 1.327 . S
C2285 C2301 1.429 . S
C2285 H2307 0.950 . S
C2286 H2282 0.949 . S
C2286 C2294 1.574 . S
C2286 C2302 1.368 . S
H2287 C2295 0.950 . S
H2288 C2293 0.950 . S
H2289 C2294 0.949 . S
H2290 C2296 0.950 . S
H2291 C2297 0.950 . S
H2292 C2298 0.949 . S
C2293 H2288 0.950 . S
C2293 C2295 1.327 . S
C2293 C2299 1.429 . S
C2294 C2286 1.574 . S
C2294 H2289 0.949 . S
C2294 C2300 1.368 . S
C2295 C2279 1.349 . S
C2295 H2287 0.950 . S
C2295 C2293 1.327 . S
C2296 C2284 1.349 . S
C2296 H2290 0.950 . S
C2296 C2297 1.327 . S
C2297 H2291 0.950 . S
C2297 C2296 1.327 . S
C2297 C2301 1.429 . S
C2298 C2281 1.574 . S
C2298 H2292 0.949 . S
C2298 C2302 1.368 . S
C2299 C2280 1.429 . S
C2299 C2293 1.429 . S
C2299 C2300 1.523 . S
C2300 C2281 1.368 . S
C2300 C2294 1.368 . S
C2300 C2299 1.523 . S
C2301 C2285 1.429 . S
C2301 C2297 1.429 . S
C2301 C2302 1.523 . S
C2302 C2286 1.368 . S
C2302 C2298 1.368 . S
C2302 C2301 1.523 . S
H2303 C2278 0.950 . S
H2304 C2280 0.950 . S
H2305 C2281 0.949 . S
H2306 C2283 0.950 . S
H2307 C2285 0.950 . S
C2308 C2309 1.349 . S
C2308 C2310 1.327 . S
C2308 H2333 0.950 1_455 S
C2309 C2308 1.349 . S
C2309 C2325 1.349 . S
C2310 C2308 1.327 . S
C2310 C2329 1.429 . S
C2310 H2334 0.950 . S
C2311 C2328 1.574 . S
C2311 C2330 1.368 . S
C2311 H2335 0.949 . S
H2312 C2316 0.949 . S
C2313 C2314 1.349 . S
C2313 C2315 1.327 . S
C2313 H2336 0.950 . S
C2314 C2313 1.349 . S
C2314 C2326 1.349 . S
C2315 C2313 1.327 . S
C2315 C2331 1.429 . S
C2315 H2337 0.950 . S
C2316 H2312 0.949 . S
C2316 C2324 1.574 . S
C2316 C2332 1.368 . S
H2317 C2325 0.950 . S
H2318 C2323 0.950 . S
H2319 C2324 0.949 . S
H2320 C2326 0.950 . S
H2321 C2327 0.950 . S
H2322 C2328 0.949 . S
C2323 H2318 0.950 . S
C2323 C2325 1.327 . S
C2323 C2329 1.429 . S
C2324 C2316 1.574 . S
C2324 H2319 0.949 . S
C2324 C2330 1.368 . S
C2325 C2309 1.349 . S
C2325 H2317 0.950 . S
C2325 C2323 1.327 . S
C2326 C2314 1.349 . S
C2326 H2320 0.950 . S
C2326 C2327 1.327 . S
C2327 H2321 0.950 . S
C2327 C2326 1.327 . S
C2327 C2331 1.429 . S
C2328 C2311 1.574 . S
C2328 H2322 0.949 . S
C2328 C2332 1.368 . S
C2329 C2310 1.429 . S
C2329 C2323 1.429 . S
C2329 C2330 1.523 . S
C2330 C2311 1.368 . S
C2330 C2324 1.368 . S
C2330 C2329 1.523 . S
C2331 C2315 1.429 . S
C2331 C2327 1.429 . S
C2331 C2332 1.523 . S
C2332 C2316 1.368 . S
C2332 C2328 1.368 . S
C2332 C2331 1.523 . S
H2333 C2308 0.950 1_655 S
H2334 C2310 0.950 . S
H2335 C2311 0.949 . S
H2336 C2313 0.950 . S
H2337 C2315 0.950 . S
C2338 C2339 1.349 . S
C2338 C2340 1.327 . S
C2338 H2363 0.950 . S
C2339 C2338 1.349 . S
C2339 C2355 1.349 . S
C2340 C2338 1.327 . S
C2340 C2359 1.429 . S
C2340 H2364 0.950 . S
C2341 C2358 1.574 . S
C2341 C2360 1.368 . S
C2341 H2365 0.949 . S
H2342 C2346 0.949 . S
C2343 C2344 1.349 . S
C2343 C2345 1.327 . S
C2343 H2366 0.950 . S
C2344 C2343 1.349 . S
C2344 C2356 1.349 . S
C2345 C2343 1.327 . S
C2345 C2361 1.429 . S
C2345 H2367 0.950 . S
C2346 H2342 0.949 . S
C2346 C2354 1.574 . S
C2346 C2362 1.368 . S
H2347 C2355 0.950 . S
H2348 C2353 0.950 . S
H2349 C2354 0.949 . S
H2350 C2356 0.950 . S
H2351 C2357 0.950 . S
H2352 C2358 0.949 . S
C2353 H2348 0.950 . S
C2353 C2355 1.327 . S
C2353 C2359 1.429 . S
C2354 C2346 1.574 . S
C2354 H2349 0.949 . S
C2354 C2360 1.368 . S
C2355 C2339 1.349 . S
C2355 H2347 0.950 . S
C2355 C2353 1.327 . S
C2356 C2344 1.349 . S
C2356 H2350 0.950 . S
C2356 C2357 1.327 . S
C2357 H2351 0.950 . S
C2357 C2356 1.327 . S
C2357 C2361 1.429 . S
C2358 C2341 1.574 . S
C2358 H2352 0.949 . S
C2358 C2362 1.368 . S
C2359 C2340 1.429 . S
C2359 C2353 1.429 . S
C2359 C2360 1.523 . S
C2360 C2341 1.368 . S
C2360 C2354 1.368 . S
C2360 C2359 1.523 . S
C2361 C2345 1.429 . S
C2361 C2357 1.429 . S
C2361 C2362 1.523 . S
C2362 C2346 1.368 . S
C2362 C2358 1.368 . S
C2362 C2361 1.523 . S
H2363 C2338 0.950 . S
H2364 C2340 0.950 . S
H2365 C2341 0.949 . S
H2366 C2343 0.950 . S
H2367 C2345 0.950 . S
C449 C46 0.463 . S
C454 C4 0.463 . S
C479 C32 0.463 . S
C484 C18 0.463 . S
C509 C102 0.463 . S
C514 C60 0.463 . S
C539 C88 0.463 . S
C544 C74 0.463 . S
C569 C116 0.463 . S
C574 C158 0.463 . S
C599 C130 0.463 . S
C604 C144 0.463 . S
C629 C214 0.463 . S
C634 C172 0.463 . S
C659 C186 0.463 . S
C664 C200 0.463 . S
C689 C228 0.463 . S
C694 C270 0.463 . S
C719 C242 0.463 . S
C724 C256 0.463 . S
C749 C326 0.463 . S
C754 C284 0.463 . S
C779 C312 0.463 . S
C784 C298 0.463 . S
C809 C382 0.463 . S
C814 C340 0.463 . S
C839 C354 0.463 . S
C844 C368 0.463 . S
C869 C396 0.463 . S
C874 C438 0.463 . S
C899 C410 0.463 . S
C904 C424 0.463 . S
C929 C285 1.101 . S
C934 C5 1.101 . S
C959 C187 1.101 . S
C964 C19 1.101 . S
C989 C33 1.101 . S
C994 C425 1.101 . S
C1019 C47 1.101 . S
C1024 C103 1.101 . S
C1049 C229 1.101 . S
C1054 C61 1.101 . S
C1079 C131 1.101 . S
C1084 C75 1.101 . S
C1109 C369 1.101 . S
C1114 C89 1.101 . S
C1139 C117 1.101 . S
C1144 C397 1.101 . S
C1169 C313 1.101 . S
C1174 C145 1.101 . S
C1199 C215 1.101 . S
C1204 C159 1.101 . S
C1229 C341 1.101 . S
C1234 C173 1.101 . S
C1259 C201 1.101 . S
C1264 C257 1.101 . S
C1289 C411 1.101 . S
C1294 C243 1.101 . S
C1319 C271 1.101 . S
C1324 C327 1.101 . S
C1349 C355 1.101 . S
C1354 C299 1.101 . S
C1379 C439 1.101 . S
C1384 C383 1.101 . S
C1409 C26 1.189 . S
C1414 C12 1.189 . S
C1439 C40 1.189 . S
C1444 C54 1.189 . S
C1469 C68 1.189 . S
C1474 C82 1.189 . S
C1499 C110 1.189 . S
C1504 C96 1.189 . S
C1529 C124 1.189 . S
C1534 C138 1.189 . S
C1559 C152 1.189 . S
C1564 C166 1.189 . S
C1589 C194 1.189 . S
C1594 C180 1.189 . S
C1619 C208 1.189 . S
C1624 C222 1.189 . S
C1649 C236 1.189 . S
C1654 C250 1.189 . S
C1679 C264 1.189 . S
C1684 C278 1.189 . S
C1709 C292 1.189 . S
C1714 C306 1.189 . S
C1739 C334 1.189 . S
C1744 C320 1.189 . S
C1769 C362 1.189 . S
C1774 C348 1.189 . S
C1799 C376 1.189 . S
C1804 C390 1.189 . S
C1829 C404 1.189 . S
C1834 C418 1.189 . S
C1859 C446 1.189 . S
C1864 C432 1.189 . S
C1889 C11 1.435 1_655 S
C1894 C277 1.435 . S
C1919 C25 1.435 . S
C1924 C263 1.435 . S
C1949 C249 1.435 . S
C1954 C39 1.435 1_655 S
C1979 C53 1.435 . S
C1984 C235 1.435 . S
C2009 C333 1.435 . S
C2014 C67 1.435 1_455 S
C2039 C81 1.435 . S
C2044 C319 1.435 . S
C2069 C305 1.435 . S
C2074 C95 1.435 1_455 S
C2099 C109 1.435 . S
C2104 C291 1.435 . S
C2129 C123 1.435 1_655 S
C2134 C389 1.435 . S
C2159 C137 1.435 . S
C2164 C375 1.435 . S
C2189 C151 1.435 1_655 S
C2194 C361 1.435 . S
C2219 C347 1.435 . S
C2224 C165 1.435 . S
C2249 C179 1.435 1_455 S
C2254 C445 1.435 . S
C2279 C193 1.435 . S
C2284 C431 1.435 . S
C2309 C207 1.435 1_455 S
C2314 C417 1.435 . S
C2339 C403 1.435 . S
C2344 C221 1.435 . S
