# Generated by pormake.
# Topology uox, (4)-cn, num edge types: 1
# Building blocks:
#     Node 0, Type 0, BuildingBlock: TATPOV_clean_sbu_0, # of connection points: 4
#     Node 1, Type 0, BuildingBlock: TATPOV_clean_sbu_0, # of connection points: 4
#     Node 2, Type 0, BuildingBlock: TATPOV_clean_sbu_0, # of connection points: 4
#     Node 3, Type 0, BuildingBlock: TATPOV_clean_sbu_0, # of connection points: 4
#     Node 4, Type 0, BuildingBlock: TATPOV_clean_sbu_0, # of connection points: 4
#     Node 5, Type 0, BuildingBlock: TATPOV_clean_sbu_0, # of connection points: 4
#     Node 6, Type 0, BuildingBlock: TATPOV_clean_sbu_0, # of connection points: 4
#     Node 7, Type 0, BuildingBlock: TATPOV_clean_sbu_0, # of connection points: 4
#     Node 8, Type 0, BuildingBlock: TATPOV_clean_sbu_0, # of connection points: 4
#     Node 9, Type 0, BuildingBlock: TATPOV_clean_sbu_0, # of connection points: 4
#     Node 10, Type 0, BuildingBlock: TATPOV_clean_sbu_0, # of connection points: 4
#     Node 11, Type 0, BuildingBlock: TATPOV_clean_sbu_0, # of connection points: 4
#     Node 12, Type 0, BuildingBlock: TATPOV_clean_sbu_0, # of connection points: 4
#     Node 13, Type 0, BuildingBlock: TATPOV_clean_sbu_0, # of connection points: 4
#     Node 14, Type 0, BuildingBlock: TATPOV_clean_sbu_0, # of connection points: 4
#     Node 15, Type 0, BuildingBlock: TATPOV_clean_sbu_0, # of connection points: 4
#     Node 16, Type 0, BuildingBlock: TATPOV_clean_sbu_0, # of connection points: 4
#     Node 17, Type 0, BuildingBlock: TATPOV_clean_sbu_0, # of connection points: 4
#     Node 18, Type 0, BuildingBlock: TATPOV_clean_sbu_0, # of connection points: 4
#     Node 19, Type 0, BuildingBlock: TATPOV_clean_sbu_0, # of connection points: 4
#     Node 20, Type 0, BuildingBlock: TATPOV_clean_sbu_0, # of connection points: 4
#     Node 21, Type 0, BuildingBlock: TATPOV_clean_sbu_0, # of connection points: 4
#     Node 22, Type 0, BuildingBlock: TATPOV_clean_sbu_0, # of connection points: 4
#     Node 23, Type 0, BuildingBlock: TATPOV_clean_sbu_0, # of connection points: 4
#     Node 24, Type 0, BuildingBlock: TATPOV_clean_sbu_0, # of connection points: 4
#     Node 25, Type 0, BuildingBlock: TATPOV_clean_sbu_0, # of connection points: 4
#     Node 26, Type 0, BuildingBlock: TATPOV_clean_sbu_0, # of connection points: 4
#     Node 27, Type 0, BuildingBlock: TATPOV_clean_sbu_0, # of connection points: 4
#     Node 28, Type 0, BuildingBlock: TATPOV_clean_sbu_0, # of connection points: 4
#     Node 29, Type 0, BuildingBlock: TATPOV_clean_sbu_0, # of connection points: 4
#     Node 30, Type 0, BuildingBlock: TATPOV_clean_sbu_0, # of connection points: 4
#     Node 31, Type 0, BuildingBlock: TATPOV_clean_sbu_0, # of connection points: 4
#     Edge 32, Type (0, 0), None
#     Edge 33, Type (0, 0), None
#     Edge 34, Type (0, 0), None
#     Edge 35, Type (0, 0), None
#     Edge 36, Type (0, 0), None
#     Edge 37, Type (0, 0), None
#     Edge 38, Type (0, 0), None
#     Edge 39, Type (0, 0), None
#     Edge 40, Type (0, 0), None
#     Edge 41, Type (0, 0), None
#     Edge 42, Type (0, 0), None
#     Edge 43, Type (0, 0), None
#     Edge 44, Type (0, 0), None
#     Edge 45, Type (0, 0), None
#     Edge 46, Type (0, 0), None
#     Edge 47, Type (0, 0), None
#     Edge 48, Type (0, 0), None
#     Edge 49, Type (0, 0), None
#     Edge 50, Type (0, 0), None
#     Edge 51, Type (0, 0), None
#     Edge 52, Type (0, 0), None
#     Edge 53, Type (0, 0), None
#     Edge 54, Type (0, 0), None
#     Edge 55, Type (0, 0), None
#     Edge 56, Type (0, 0), None
#     Edge 57, Type (0, 0), None
#     Edge 58, Type (0, 0), None
#     Edge 59, Type (0, 0), None
#     Edge 60, Type (0, 0), None
#     Edge 61, Type (0, 0), None
#     Edge 62, Type (0, 0), None
#     Edge 63, Type (0, 0), None
#     Edge 64, Type (0, 0), None
#     Edge 65, Type (0, 0), None
#     Edge 66, Type (0, 0), None
#     Edge 67, Type (0, 0), None
#     Edge 68, Type (0, 0), None
#     Edge 69, Type (0, 0), None
#     Edge 70, Type (0, 0), None
#     Edge 71, Type (0, 0), None
#     Edge 72, Type (0, 0), None
#     Edge 73, Type (0, 0), None
#     Edge 74, Type (0, 0), None
#     Edge 75, Type (0, 0), None
#     Edge 76, Type (0, 0), None
#     Edge 77, Type (0, 0), None
#     Edge 78, Type (0, 0), None
#     Edge 79, Type (0, 0), None
#     Edge 80, Type (0, 0), None
#     Edge 81, Type (0, 0), None
#     Edge 82, Type (0, 0), None
#     Edge 83, Type (0, 0), None
#     Edge 84, Type (0, 0), None
#     Edge 85, Type (0, 0), None
#     Edge 86, Type (0, 0), None
#     Edge 87, Type (0, 0), None
#     Edge 88, Type (0, 0), None
#     Edge 89, Type (0, 0), None
#     Edge 90, Type (0, 0), None
#     Edge 91, Type (0, 0), None
#     Edge 92, Type (0, 0), None
#     Edge 93, Type (0, 0), None
#     Edge 94, Type (0, 0), None
#     Edge 95, Type (0, 0), None
# Relax obj value: 0.083
# Max RMSD: 0.128
# Mean RMSD: 0.128
data_MOF--net-uox--node1-TATPOV_clean_sbu_0--edge1-none
_symmetry_space_group_name_H-M    P1
_symmetry_Int_Tables_number       1
_symmetry_cell_setting            triclinic
loop_
_symmetry_equiv_pos_as_xyz
'x, y, z'
_cell_length_a     19.623094
_cell_length_b     19.623723
_cell_length_c     39.548442
_cell_angle_alpha  89.999997
_cell_angle_beta   89.999984
_cell_angle_gamma 89.999937
loop_
_atom_site_label
_atom_site_type_symbol
_atom_site_fract_x
_atom_site_fract_y
_atom_site_fract_z
_atom_type_partial_charge
Zn0 Zn 0.44393 0.00449 0.07807 0.0
Zn1 Zn 0.44541 0.00745 0.14675 0.0
O2 O 0.53949 0.04219 0.13303 0.0
O3 O 0.54059 0.04 0.07726 0.0
O4 O 0.44882 0.00079 0.19751 0.0
O5 O 0.4185 0.9048 0.07824 0.0
O6 O 0.41168 0.91352 0.13352 0.0
C7 C 0.56925 0.05424 0.10505 0.0
C8 C 0.34766 0.09954 0.10897 0.0
O9 O 0.3736 0.07938 0.13673 0.0
O10 O 0.36777 0.07509 0.08101 0.0
C11 C 0.39321 -0.00644 0.21356 0.0
O12 O 0.33534 -0.00743 0.19689 0.0
C13 C 0.40264 0.8794 0.10659 0.0
Zn14 Zn 0.22494 0.19392 0.32806 0.0
Zn15 Zn 0.22198 0.1954 0.39675 0.0
O16 O 0.18725 0.28949 0.38303 0.0
O17 O 0.18944 0.29059 0.32726 0.0
O18 O 0.22863 0.19882 0.44751 0.0
O19 O 0.32464 0.1685 0.32824 0.0
O20 O 0.31591 0.16167 0.38352 0.0
C21 C 0.1752 0.31925 0.35505 0.0
C22 C 0.12989 0.09766 0.35897 0.0
O23 O 0.15005 0.1236 0.38673 0.0
O24 O 0.15434 0.11777 0.33101 0.0
C25 C 0.23585 0.14321 0.46356 0.0
O26 O 0.23684 0.08534 0.44689 0.0
C27 C 0.35003 0.15263 0.35659 0.0
Zn28 Zn 0.03549 0.97494 0.57807 0.0
Zn29 Zn 0.03401 0.97197 0.64675 0.0
O30 O 0.93992 0.93724 0.63303 0.0
O31 O 0.93882 0.93943 0.57726 0.0
O32 O 0.03059 0.97864 0.69751 0.0
O33 O 0.06091 0.07463 0.57824 0.0
O34 O 0.06773 0.06591 0.63352 0.0
C35 C 0.91016 0.92519 0.60505 0.0
C36 C 0.13176 0.87988 0.60897 0.0
O37 O 0.10581 0.90004 0.63673 0.0
O38 O 0.11164 0.90433 0.58101 0.0
C39 C 0.0862 0.98587 0.71356 0.0
O40 O 0.14407 0.98685 0.69689 0.0
C41 C 0.07677 0.10003 0.60659 0.0
Zn42 Zn 0.25446 0.7855 0.82806 0.0
Zn43 Zn 0.25743 0.78402 0.89675 0.0
O44 O 0.29216 0.68994 0.88303 0.0
O45 O 0.28997 0.68884 0.82726 0.0
O46 O 0.25077 0.78061 0.94751 0.0
O47 O 0.15476 0.81093 0.82824 0.0
O48 O 0.16349 0.81775 0.88352 0.0
C49 C 0.30421 0.66018 0.85505 0.0
C50 C 0.34952 0.88177 0.85897 0.0
O51 O 0.32936 0.85583 0.88673 0.0
O52 O 0.32506 0.86166 0.83101 0.0
C53 C 0.24355 0.83622 0.96356 0.0
O54 O 0.24257 0.89409 0.94689 0.0
C55 C 0.12937 0.82679 0.85659 0.0
Zn56 Zn 0.44396 0.97491 0.3859 0.0
Zn57 Zn 0.44543 0.97203 0.31719 0.0
O58 O 0.5395 0.93725 0.3309 0.0
O59 O 0.54064 0.93941 0.38667 0.0
O60 O 0.44884 0.97875 0.26643 0.0
O61 O 0.4185 0.0746 0.38575 0.0
O62 O 0.41175 0.06595 0.33045 0.0
C63 C 0.56928 0.92518 0.35887 0.0
C64 C 0.34767 0.87991 0.35494 0.0
O65 O 0.3736 0.90011 0.32718 0.0
O66 O 0.36781 0.9043 0.38291 0.0
C67 C 0.39323 0.98637 0.25042 0.0
O68 O 0.33541 0.98772 0.26713 0.0
C69 C 0.40271 0.10002 0.35739 0.0
Zn70 Zn 0.25449 0.19396 0.6359 0.0
Zn71 Zn 0.25737 0.19544 0.56719 0.0
O72 O 0.29215 0.2895 0.5809 0.0
O73 O 0.28999 0.29064 0.63667 0.0
O74 O 0.25065 0.19884 0.51643 0.0
O75 O 0.1548 0.1685 0.63575 0.0
O76 O 0.16345 0.16175 0.58045 0.0
C77 C 0.30422 0.31928 0.60887 0.0
C78 C 0.3495 0.09768 0.60494 0.0
O79 O 0.32929 0.12361 0.57718 0.0
O80 O 0.3251 0.11781 0.63291 0.0
C81 C 0.24303 0.14323 0.50042 0.0
O82 O 0.24168 0.08542 0.51713 0.0
C83 C 0.12937 0.1527 0.60739 0.0
Zn84 Zn 0.03545 0.00452 0.8859 0.0
Zn85 Zn 0.03397 0.0074 0.81719 0.0
O86 O 0.9399 0.04218 0.8309 0.0
O87 O 0.93877 0.04002 0.88667 0.0
O88 O 0.03057 0.00068 0.76643 0.0
O89 O 0.0609 0.90483 0.88575 0.0
O90 O 0.06765 0.91348 0.83045 0.0
C91 C 0.91012 0.05425 0.85887 0.0
C92 C 0.13173 0.09952 0.85494 0.0
O93 O 0.1058 0.07932 0.82718 0.0
O94 O 0.1116 0.07512 0.88291 0.0
C95 C 0.08618 -0.00695 0.75042 0.0
O96 O 0.14399 -0.0083 0.76713 0.0
C97 C 0.0767 0.8794 0.85739 0.0
Zn98 Zn 0.22492 0.78547 0.1359 0.0
Zn99 Zn 0.22204 0.78399 0.06719 0.0
O100 O 0.18726 0.68992 0.0809 0.0
O101 O 0.18942 0.68879 0.13667 0.0
O102 O 0.22875 0.78059 0.01643 0.0
O103 O 0.32461 0.81093 0.13575 0.0
O104 O 0.31597 0.81767 0.08045 0.0
C105 C 0.17519 0.66015 0.10887 0.0
C106 C 0.12991 0.88175 0.10494 0.0
O107 O 0.15012 0.85582 0.07718 0.0
O108 O 0.15431 0.86161 0.13291 0.0
C109 C 0.23638 0.83619 0.00042 0.0
O110 O 0.23774 0.89401 0.01713 0.0
C111 C 0.35004 0.82672 0.10739 0.0
Zn112 Zn 0.53548 0.97494 0.88585 0.0
Zn113 Zn 0.534 0.97197 0.81715 0.0
O114 O 0.43991 0.93724 0.83088 0.0
O115 O 0.43881 0.93943 0.88665 0.0
O116 O 0.53058 0.97864 0.7664 0.0
O117 O 0.5609 0.07463 0.88567 0.0
O118 O 0.56772 0.06591 0.83038 0.0
C119 C 0.41015 0.9252 0.85886 0.0
C120 C 0.63175 0.87988 0.85494 0.0
O121 O 0.6058 0.90004 0.82718 0.0
O122 O 0.61163 0.90433 0.8829 0.0
C123 C 0.5862 0.98587 0.75035 0.0
O124 O 0.64406 0.98686 0.76702 0.0
C125 C 0.57676 0.10003 0.85731 0.0
Zn126 Zn 0.75446 0.7855 0.63585 0.0
Zn127 Zn 0.75743 0.78402 0.56715 0.0
O128 O 0.79216 0.68994 0.58088 0.0
O129 O 0.78997 0.68884 0.63665 0.0
O130 O 0.75077 0.7806 0.5164 0.0
O131 O 0.65477 0.81093 0.63567 0.0
O132 O 0.66349 0.81775 0.58038 0.0
C133 C 0.80421 0.66018 0.60886 0.0
C134 C 0.84951 0.88177 0.60494 0.0
O135 O 0.82936 0.85582 0.57718 0.0
O136 O 0.82507 0.86166 0.6329 0.0
C137 C 0.74355 0.83622 0.50035 0.0
O138 O 0.74257 0.89408 0.51702 0.0
C139 C 0.62937 0.82679 0.60731 0.0
Zn140 Zn 0.94392 0.00449 0.38585 0.0
Zn141 Zn 0.9454 0.00745 0.31715 0.0
O142 O 0.03949 0.04218 0.33088 0.0
O143 O 0.04059 0.04 0.38665 0.0
O144 O 0.94882 0.00079 0.2664 0.0
O145 O 0.9185 0.9048 0.38567 0.0
O146 O 0.91168 0.91352 0.33038 0.0
C147 C 0.06925 0.05423 0.35886 0.0
C148 C 0.84766 0.09954 0.35494 0.0
O149 O 0.8736 0.07938 0.32717 0.0
O150 O 0.86777 0.07509 0.3829 0.0
C151 C 0.89321 -0.00644 0.25035 0.0
O152 O 0.83534 -0.00743 0.26702 0.0
C153 C 0.90264 0.8794 0.35731 0.0
Zn154 Zn 0.72495 0.19392 0.13585 0.0
Zn155 Zn 0.72198 0.1954 0.06715 0.0
O156 O 0.68725 0.28949 0.08088 0.0
O157 O 0.68944 0.29059 0.13665 0.0
O158 O 0.72864 0.19882 0.0164 0.0
O159 O 0.82465 0.16849 0.13567 0.0
O160 O 0.81592 0.16167 0.08038 0.0
C161 C 0.6752 0.31925 0.10886 0.0
C162 C 0.6299 0.09766 0.10494 0.0
O163 O 0.65005 0.1236 0.07718 0.0
O164 O 0.65434 0.11777 0.1329 0.0
C165 C 0.73585 0.14321 0.00035 0.0
O166 O 0.73683 0.08534 0.01702 0.0
C167 C 0.85004 0.15263 0.10731 0.0
Zn168 Zn 0.53545 0.00452 0.57801 0.0
Zn169 Zn 0.53397 0.0074 0.64672 0.0
O170 O 0.4399 0.04217 0.63301 0.0
O171 O 0.43877 0.04002 0.57724 0.0
O172 O 0.53057 0.00068 0.69747 0.0
O173 O 0.5609 0.90483 0.57816 0.0
O174 O 0.56765 0.91347 0.63346 0.0
C175 C 0.41012 0.05424 0.60503 0.0
C176 C 0.63173 0.09952 0.60896 0.0
O177 O 0.6058 0.07932 0.63672 0.0
O178 O 0.6116 0.07512 0.581 0.0
C179 C 0.58618 -0.00695 0.71348 0.0
O180 O 0.64399 -0.0083 0.69678 0.0
C181 C 0.5767 0.8794 0.60651 0.0
Zn182 Zn 0.72492 0.78547 0.32801 0.0
Zn183 Zn 0.72204 0.78399 0.39672 0.0
O184 O 0.68726 0.68992 0.38301 0.0
O185 O 0.68942 0.68879 0.32724 0.0
O186 O 0.72875 0.78059 0.44747 0.0
O187 O 0.82461 0.81093 0.32816 0.0
O188 O 0.81596 0.81768 0.38346 0.0
C189 C 0.67519 0.66015 0.35503 0.0
C190 C 0.62992 0.88175 0.35896 0.0
O191 O 0.65012 0.85582 0.38672 0.0
O192 O 0.65431 0.86162 0.33099 0.0
C193 C 0.73638 0.83619 0.46348 0.0
O194 O 0.73773 0.89401 0.44678 0.0
C195 C 0.85003 0.82672 0.35652 0.0
Zn196 Zn 0.94396 0.97491 0.07801 0.0
Zn197 Zn 0.94544 0.97203 0.14672 0.0
O198 O 0.03951 0.93725 0.13301 0.0
O199 O 0.04065 0.93941 0.07724 0.0
O200 O 0.94884 0.97875 0.19747 0.0
O201 O 0.91851 0.0746 0.07816 0.0
O202 O 0.91176 0.06595 0.13346 0.0
C203 C 0.06929 0.92519 0.10504 0.0
C204 C 0.84768 0.8799 0.10896 0.0
O205 O 0.87361 0.90011 0.13672 0.0
O206 O 0.86781 0.9043 0.081 0.0
C207 C 0.89323 0.98637 0.21348 0.0
O208 O 0.83542 0.98773 0.19678 0.0
C209 C 0.90271 0.10002 0.10651 0.0
Zn210 Zn 0.75448 0.19396 0.82801 0.0
Zn211 Zn 0.75737 0.19544 0.89672 0.0
O212 O 0.79214 0.28951 0.88301 0.0
O213 O 0.78998 0.29064 0.82724 0.0
O214 O 0.75065 0.19884 0.94747 0.0
O215 O 0.65479 0.1685 0.82816 0.0
O216 O 0.66344 0.16175 0.88346 0.0
C217 C 0.80421 0.31928 0.85503 0.0
C218 C 0.84948 0.09768 0.85896 0.0
O219 O 0.82929 0.12361 0.88672 0.0
O220 O 0.82509 0.11781 0.83099 0.0
C221 C 0.74303 0.14323 0.96348 0.0
O222 O 0.74167 0.08542 0.94678 0.0
C223 C 0.62937 0.1527 0.85652 0.0
Zn224 Zn 0.9439 0.50449 0.57806 0.0
Zn225 Zn 0.94538 0.50745 0.64675 0.0
O226 O 0.03946 0.54219 0.63303 0.0
O227 O 0.04056 0.54 0.57726 0.0
O228 O 0.9488 0.50079 0.69751 0.0
O229 O 0.91847 0.4048 0.57824 0.0
O230 O 0.91165 0.41352 0.63352 0.0
C231 C 0.06922 0.55424 0.60505 0.0
C232 C 0.84763 0.59953 0.60897 0.0
O233 O 0.87357 0.57938 0.63673 0.0
O234 O 0.86774 0.57509 0.58101 0.0
C235 C 0.89318 0.49356 0.71356 0.0
O236 O 0.83532 0.49257 0.69689 0.0
C237 C 0.90261 0.3794 0.60659 0.0
Zn238 Zn 0.72491 0.69392 0.82806 0.0
Zn239 Zn 0.72195 0.69541 0.89675 0.0
O240 O 0.68722 0.78949 0.88303 0.0
O241 O 0.68941 0.79059 0.82726 0.0
O242 O 0.72862 0.69882 0.94751 0.0
O243 O 0.82461 0.66849 0.82824 0.0
O244 O 0.81589 0.66168 0.88352 0.0
C245 C 0.67518 0.81925 0.85505 0.0
C246 C 0.62986 0.59766 0.85897 0.0
O247 O 0.65002 0.62361 0.88673 0.0
O248 O 0.65431 0.61777 0.83101 0.0
C249 C 0.73585 0.64321 0.96356 0.0
O250 O 0.73684 0.58535 0.94689 0.0
C251 C 0.85001 0.65263 0.85659 0.0
Zn252 Zn 0.53552 0.47493 0.07806 0.0
Zn253 Zn 0.53403 0.47197 0.14675 0.0
O254 O 0.43995 0.43723 0.13303 0.0
O255 O 0.43885 0.43942 0.07726 0.0
O256 O 0.53061 0.47863 0.19751 0.0
O257 O 0.56094 0.57463 0.07824 0.0
O258 O 0.56776 0.5659 0.13352 0.0
C259 C 0.41019 0.42518 0.10505 0.0
C260 C 0.63179 0.37989 0.10897 0.0
O261 O 0.60584 0.40004 0.13673 0.0
O262 O 0.61167 0.40433 0.08101 0.0
C263 C 0.58623 0.48586 0.21356 0.0
O264 O 0.64409 0.48685 0.19689 0.0
C265 C 0.5768 0.60002 0.10659 0.0
Zn266 Zn 0.75449 0.2855 0.32806 0.0
Zn267 Zn 0.75745 0.28402 0.39675 0.0
O268 O 0.79218 0.18994 0.38303 0.0
O269 O 0.78999 0.18884 0.32726 0.0
O270 O 0.75079 0.2806 0.44751 0.0
O271 O 0.65479 0.31093 0.32824 0.0
O272 O 0.66352 0.31775 0.38352 0.0
C273 C 0.80422 0.16018 0.35505 0.0
C274 C 0.84955 0.38176 0.35897 0.0
O275 O 0.82939 0.35582 0.38673 0.0
O276 O 0.8251 0.36165 0.33101 0.0
C277 C 0.74355 0.33622 0.46356 0.0
O278 O 0.74256 0.39408 0.44689 0.0
C279 C 0.6294 0.32679 0.35659 0.0
Zn280 Zn 0.94393 0.47491 0.8859 0.0
Zn281 Zn 0.94541 0.47203 0.81718 0.0
O282 O 0.03948 0.43725 0.8309 0.0
O283 O 0.04061 0.43941 0.88667 0.0
O284 O 0.94881 0.47875 0.76643 0.0
O285 O 0.91847 0.5746 0.88575 0.0
O286 O 0.91173 0.56595 0.83045 0.0
C287 C 0.06925 0.42517 0.85887 0.0
C288 C 0.84764 0.37992 0.85494 0.0
O289 O 0.87358 0.40011 0.82718 0.0
O290 O 0.86778 0.40431 0.88291 0.0
C291 C 0.89321 0.48638 0.75042 0.0
O292 O 0.83539 0.48773 0.76713 0.0
C293 C 0.90268 0.60002 0.85739 0.0
Zn294 Zn 0.75452 0.69396 0.1359 0.0
Zn295 Zn 0.7574 0.69544 0.06718 0.0
O296 O 0.79217 0.78951 0.0809 0.0
O297 O 0.79002 0.79064 0.13667 0.0
O298 O 0.75067 0.69884 0.01643 0.0
O299 O 0.65483 0.6685 0.13575 0.0
O300 O 0.66348 0.66175 0.08045 0.0
C301 C 0.80424 0.81928 0.10887 0.0
C302 C 0.84953 0.59768 0.10494 0.0
O303 O 0.82932 0.62361 0.07718 0.0
O304 O 0.82513 0.61781 0.13291 0.0
C305 C 0.74304 0.64323 0.00042 0.0
O306 O 0.74169 0.58542 0.01713 0.0
C307 C 0.6294 0.6527 0.10739 0.0
Zn308 Zn 0.53548 0.50452 0.3859 0.0
Zn309 Zn 0.534 0.5074 0.31718 0.0
O310 O 0.43993 0.54218 0.3309 0.0
O311 O 0.4388 0.54002 0.38667 0.0
O312 O 0.53059 0.50068 0.26643 0.0
O313 O 0.56093 0.40483 0.38575 0.0
O314 O 0.56768 0.41348 0.33045 0.0
C315 C 0.41015 0.55425 0.35887 0.0
C316 C 0.63176 0.59951 0.35494 0.0
O317 O 0.60583 0.57932 0.32718 0.0
O318 O 0.61163 0.57512 0.38291 0.0
C319 C 0.5862 0.49305 0.25042 0.0
O320 O 0.64401 0.49169 0.26713 0.0
C321 C 0.57672 0.3794 0.35739 0.0
Zn322 Zn 0.72489 0.28547 0.6359 0.0
Zn323 Zn 0.72201 0.28399 0.56718 0.0
O324 O 0.68724 0.18992 0.5809 0.0
O325 O 0.68939 0.18879 0.63667 0.0
O326 O 0.72874 0.28059 0.51643 0.0
O327 O 0.82459 0.31093 0.63575 0.0
O328 O 0.81594 0.31768 0.58045 0.0
C329 C 0.67518 0.16015 0.60887 0.0
C330 C 0.62988 0.38174 0.60494 0.0
O331 O 0.65009 0.35581 0.57718 0.0
O332 O 0.65428 0.36161 0.63291 0.0
C333 C 0.73636 0.33619 0.50042 0.0
O334 O 0.73771 0.39401 0.51713 0.0
C335 C 0.85001 0.32672 0.60739 0.0
Zn336 Zn 0.03551 0.47494 0.38585 0.0
Zn337 Zn 0.03403 0.47197 0.31715 0.0
O338 O 0.93994 0.43724 0.33088 0.0
O339 O 0.93884 0.43943 0.38665 0.0
O340 O 0.03061 0.47864 0.2664 0.0
O341 O 0.06093 0.57463 0.38567 0.0
O342 O 0.06775 0.56591 0.33039 0.0
C343 C 0.91018 0.4252 0.35886 0.0
C344 C 0.13178 0.37989 0.35494 0.0
O345 O 0.10583 0.40005 0.32717 0.0
O346 O 0.11166 0.40433 0.3829 0.0
C347 C 0.08622 0.48587 0.25035 0.0
O348 O 0.14409 0.48685 0.26702 0.0
C349 C 0.07679 0.60003 0.35731 0.0
Zn350 Zn 0.25449 0.2855 0.13585 0.0
Zn351 Zn 0.25745 0.28402 0.06715 0.0
O352 O 0.29218 0.18994 0.08088 0.0
O353 O 0.28999 0.18884 0.13665 0.0
O354 O 0.25079 0.2806 0.0164 0.0
O355 O 0.15479 0.31093 0.13567 0.0
O356 O 0.16352 0.31775 0.08039 0.0
C357 C 0.30422 0.16018 0.10886 0.0
C358 C 0.34954 0.38176 0.10494 0.0
O359 O 0.32939 0.35582 0.07717 0.0
O360 O 0.3251 0.36165 0.1329 0.0
C361 C 0.24355 0.33622 0.00035 0.0
O362 O 0.24257 0.39408 0.01702 0.0
C363 C 0.1294 0.32679 0.10732 0.0
Zn364 Zn 0.44389 0.50449 0.88585 0.0
Zn365 Zn 0.44538 0.50745 0.81715 0.0
O366 O 0.53946 0.54219 0.83088 0.0
O367 O 0.54056 0.54 0.88665 0.0
O368 O 0.4488 0.50079 0.7664 0.0
O369 O 0.41847 0.4048 0.88567 0.0
O370 O 0.41165 0.41352 0.83038 0.0
C371 C 0.56922 0.55423 0.85886 0.0
C372 C 0.34763 0.59954 0.85494 0.0
O373 O 0.37357 0.57938 0.82717 0.0
O374 O 0.36774 0.57509 0.8829 0.0
C375 C 0.39318 0.49356 0.75035 0.0
O376 O 0.33532 0.49258 0.76702 0.0
C377 C 0.40261 0.3794 0.85731 0.0
Zn378 Zn 0.22492 0.69392 0.63585 0.0
Zn379 Zn 0.22196 0.69541 0.56715 0.0
O380 O 0.18723 0.78949 0.58088 0.0
O381 O 0.18942 0.79059 0.63665 0.0
O382 O 0.22862 0.69882 0.5164 0.0
O383 O 0.32462 0.66849 0.63567 0.0
O384 O 0.31589 0.66168 0.58039 0.0
C385 C 0.17519 0.81925 0.60886 0.0
C386 C 0.12987 0.59766 0.60494 0.0
O387 O 0.15002 0.62361 0.57717 0.0
O388 O 0.15431 0.61777 0.6329 0.0
C389 C 0.23586 0.64321 0.50035 0.0
O390 O 0.23684 0.58535 0.51702 0.0
C391 C 0.35001 0.65263 0.60732 0.0
Zn392 Zn 0.03548 0.50452 0.078 0.0
Zn393 Zn 0.034 0.5074 0.14672 0.0
O394 O 0.93993 0.54218 0.13301 0.0
O395 O 0.9388 0.54002 0.07723 0.0
O396 O 0.03059 0.50068 0.19747 0.0
O397 O 0.06093 0.40482 0.07816 0.0
O398 O 0.06768 0.41347 0.13346 0.0
C399 C 0.91015 0.55424 0.10503 0.0
C400 C 0.13176 0.59951 0.10896 0.0
O401 O 0.10583 0.57931 0.13672 0.0
O402 O 0.11163 0.57512 0.08099 0.0
C403 C 0.0862 0.49305 0.21348 0.0
O404 O 0.14402 0.4917 0.19678 0.0
C405 C 0.07673 0.3794 0.10652 0.0
Zn406 Zn 0.22489 0.28547 0.828 0.0
Zn407 Zn 0.22201 0.28399 0.89672 0.0
O408 O 0.18724 0.18992 0.88301 0.0
O409 O 0.18939 0.18879 0.82723 0.0
O410 O 0.22874 0.28059 0.94747 0.0
O411 O 0.32458 0.31093 0.82816 0.0
O412 O 0.31593 0.31768 0.88346 0.0
C413 C 0.17517 0.16015 0.85503 0.0
C414 C 0.12989 0.38175 0.85896 0.0
O415 O 0.15009 0.35581 0.88673 0.0
O416 O 0.15428 0.36161 0.831 0.0
C417 C 0.23636 0.33619 0.96348 0.0
O418 O 0.23772 0.394 0.94678 0.0
C419 C 0.35001 0.32673 0.85652 0.0
Zn420 Zn 0.44393 0.47491 0.578 0.0
Zn421 Zn 0.44541 0.47203 0.64672 0.0
O422 O 0.53948 0.43725 0.63301 0.0
O423 O 0.54062 0.43941 0.57723 0.0
O424 O 0.44881 0.47875 0.69747 0.0
O425 O 0.41848 0.5746 0.57816 0.0
O426 O 0.41173 0.56595 0.63346 0.0
C427 C 0.56926 0.42519 0.60503 0.0
C428 C 0.34765 0.37992 0.60896 0.0
O429 O 0.37358 0.40011 0.63672 0.0
O430 O 0.36778 0.40431 0.58099 0.0
C431 C 0.39321 0.48638 0.71348 0.0
O432 O 0.33539 0.48773 0.69678 0.0
C433 C 0.40268 0.60002 0.60652 0.0
Zn434 Zn 0.25451 0.69396 0.328 0.0
Zn435 Zn 0.2574 0.69544 0.39672 0.0
O436 O 0.29217 0.78951 0.38301 0.0
O437 O 0.29001 0.79064 0.32723 0.0
O438 O 0.25067 0.69884 0.44747 0.0
O439 O 0.15482 0.6685 0.32816 0.0
O440 O 0.16347 0.66175 0.38346 0.0
C441 C 0.30423 0.81928 0.35503 0.0
C442 C 0.34951 0.59768 0.35896 0.0
O443 O 0.32932 0.62361 0.38672 0.0
O444 O 0.32512 0.61781 0.33099 0.0
C445 C 0.24304 0.64324 0.46348 0.0
O446 O 0.24169 0.58542 0.44678 0.0
C447 C 0.1294 0.6527 0.35652 0.0
loop_
_geom_bond_atom_site_label_1
_geom_bond_atom_site_label_2
_geom_bond_distance
_geom_bond_site_symmetry_2
_ccdc_geom_bond_type
Zn0 O3 2.031 . S
Zn0 O5 2.049 1_545 S
Zn0 O10 2.067 . S
Zn1 O2 1.962 . S
Zn1 O4 1.986 1_545 S
Zn1 O6 1.996 1_545 S
Zn1 O9 1.943 . S
O2 Zn1 1.962 . S
O2 C7 1.254 . S
O3 Zn0 2.031 . S
O3 C7 1.269 . S
O4 Zn1 1.986 1_565 S
O4 C11 1.262 1_565 S
O5 Zn0 2.049 1_565 S
O5 C13 1.260 . S
O6 Zn1 1.996 1_565 S
O6 C13 1.257 . S
C7 O2 1.254 . S
C7 O3 1.269 . S
C8 O9 1.249 . S
C8 O10 1.270 . S
O9 Zn1 1.943 . S
O9 C8 1.249 . S
O10 Zn0 2.067 . S
O10 C8 1.270 . S
C11 O4 1.262 1_545 S
C11 O12 1.232 . S
O12 C11 1.232 . S
C13 O5 1.260 . S
C13 O6 1.257 . S
Zn14 O17 2.031 . S
Zn14 O19 2.049 . S
Zn14 O24 2.067 . S
Zn15 O16 1.962 . S
Zn15 O18 1.986 . S
Zn15 O20 1.996 . S
Zn15 O23 1.943 . S
O16 Zn15 1.962 . S
O16 C21 1.254 . S
O17 Zn14 2.031 . S
O17 C21 1.269 . S
O18 Zn15 1.986 . S
O18 C25 1.262 . S
O19 Zn14 2.049 . S
O19 C27 1.260 . S
O20 Zn15 1.996 . S
O20 C27 1.257 . S
C21 O16 1.254 . S
C21 O17 1.269 . S
C22 O23 1.249 . S
C22 O24 1.270 . S
O23 Zn15 1.943 . S
O23 C22 1.249 . S
O24 Zn14 2.067 . S
O24 C22 1.270 . S
C25 O18 1.262 . S
C25 O26 1.232 . S
O26 C25 1.232 . S
C27 O19 1.260 . S
C27 O20 1.257 . S
Zn28 O31 2.031 1_455 S
Zn28 O33 2.049 1_565 S
Zn28 O38 2.067 . S
Zn29 O30 1.962 1_455 S
Zn29 O32 1.986 1_565 S
Zn29 O34 1.996 1_565 S
Zn29 O37 1.943 . S
O30 Zn29 1.962 1_655 S
O30 C35 1.254 . S
O31 Zn28 2.031 1_655 S
O31 C35 1.269 . S
O32 Zn29 1.986 1_545 S
O32 C39 1.262 1_545 S
O33 Zn28 2.049 1_545 S
O33 C41 1.260 . S
O34 Zn29 1.996 1_545 S
O34 C41 1.257 . S
C35 O30 1.254 . S
C35 O31 1.269 . S
C36 O37 1.249 . S
C36 O38 1.270 . S
O37 Zn29 1.943 . S
O37 C36 1.249 . S
O38 Zn28 2.067 . S
O38 C36 1.270 . S
C39 O32 1.262 1_565 S
C39 O40 1.232 . S
O40 C39 1.232 . S
C41 O33 1.260 . S
C41 O34 1.257 . S
Zn42 O45 2.031 . S
Zn42 O47 2.049 . S
Zn42 O52 2.067 . S
Zn43 O44 1.962 . S
Zn43 O46 1.986 . S
Zn43 O48 1.996 . S
Zn43 O51 1.943 . S
O44 Zn43 1.962 . S
O44 C49 1.254 . S
O45 Zn42 2.031 . S
O45 C49 1.269 . S
O46 Zn43 1.986 . S
O46 C53 1.262 . S
O47 Zn42 2.049 . S
O47 C55 1.260 . S
O48 Zn43 1.996 . S
O48 C55 1.257 . S
C49 O44 1.254 . S
C49 O45 1.269 . S
C50 O51 1.249 . S
C50 O52 1.270 . S
O51 Zn43 1.943 . S
O51 C50 1.249 . S
O52 Zn42 2.067 . S
O52 C50 1.270 . S
C53 O46 1.262 . S
C53 O54 1.232 . S
O54 C53 1.232 . S
C55 O47 1.260 . S
C55 O48 1.257 . S
Zn56 O59 2.031 . S
Zn56 O61 2.049 1_565 S
Zn56 O66 2.067 . S
Zn57 O58 1.962 . S
Zn57 O60 1.986 1_565 S
Zn57 O62 1.996 1_565 S
Zn57 O65 1.943 . S
O58 Zn57 1.962 . S
O58 C63 1.254 . S
O59 Zn56 2.031 . S
O59 C63 1.269 . S
O60 Zn57 1.986 1_545 S
O60 C67 1.262 1_545 S
O61 Zn56 2.049 1_545 S
O61 C69 1.260 . S
O62 Zn57 1.996 1_545 S
O62 C69 1.257 . S
C63 O58 1.254 . S
C63 O59 1.269 . S
C64 O65 1.249 . S
C64 O66 1.270 . S
O65 Zn57 1.943 . S
O65 C64 1.249 . S
O66 Zn56 2.067 . S
O66 C64 1.270 . S
C67 O60 1.262 1_565 S
C67 O68 1.232 . S
O68 C67 1.232 . S
C69 O61 1.260 . S
C69 O62 1.257 . S
Zn70 O73 2.031 . S
Zn70 O75 2.049 . S
Zn70 O80 2.067 . S
Zn71 O72 1.962 . S
Zn71 O74 1.986 . S
Zn71 O76 1.996 . S
Zn71 O79 1.943 . S
O72 Zn71 1.962 . S
O72 C77 1.254 . S
O73 Zn70 2.031 . S
O73 C77 1.269 . S
O74 Zn71 1.986 . S
O74 C81 1.262 . S
O75 Zn70 2.049 . S
O75 C83 1.260 . S
O76 Zn71 1.996 . S
O76 C83 1.257 . S
C77 O72 1.254 . S
C77 O73 1.269 . S
C78 O79 1.249 . S
C78 O80 1.270 . S
O79 Zn71 1.943 . S
O79 C78 1.249 . S
O80 Zn70 2.067 . S
O80 C78 1.270 . S
C81 O74 1.262 . S
C81 O82 1.232 . S
O82 C81 1.232 . S
C83 O75 1.260 . S
C83 O76 1.257 . S
Zn84 O87 2.031 1_455 S
Zn84 O89 2.049 1_545 S
Zn84 O94 2.067 . S
Zn85 O86 1.962 1_455 S
Zn85 O88 1.986 1_545 S
Zn85 O90 1.996 1_545 S
Zn85 O93 1.943 . S
O86 Zn85 1.962 1_655 S
O86 C91 1.254 . S
O87 Zn84 2.031 1_655 S
O87 C91 1.269 . S
O88 Zn85 1.986 1_565 S
O88 C95 1.262 1_565 S
O89 Zn84 2.049 1_565 S
O89 C97 1.260 . S
O90 Zn85 1.996 1_565 S
O90 C97 1.257 . S
C91 O86 1.254 . S
C91 O87 1.269 . S
C92 O93 1.249 . S
C92 O94 1.270 . S
O93 Zn85 1.943 . S
O93 C92 1.249 . S
O94 Zn84 2.067 . S
O94 C92 1.270 . S
C95 O88 1.262 1_545 S
C95 O96 1.232 . S
O96 C95 1.232 . S
C97 O89 1.260 . S
C97 O90 1.257 . S
Zn98 O101 2.031 . S
Zn98 O103 2.049 . S
Zn98 O108 2.067 . S
Zn99 O100 1.962 . S
Zn99 O102 1.986 . S
Zn99 O104 1.996 . S
Zn99 O107 1.943 . S
O100 Zn99 1.962 . S
O100 C105 1.254 . S
O101 Zn98 2.031 . S
O101 C105 1.269 . S
O102 Zn99 1.986 . S
O102 C109 1.262 . S
O103 Zn98 2.049 . S
O103 C111 1.260 . S
O104 Zn99 1.996 . S
O104 C111 1.257 . S
C105 O100 1.254 . S
C105 O101 1.269 . S
C106 O107 1.249 . S
C106 O108 1.270 . S
O107 Zn99 1.943 . S
O107 C106 1.249 . S
O108 Zn98 2.067 . S
O108 C106 1.270 . S
C109 O102 1.262 . S
C109 O110 1.232 . S
O110 C109 1.232 . S
C111 O103 1.260 . S
C111 O104 1.257 . S
Zn112 O115 2.031 . S
Zn112 O117 2.049 1_565 S
Zn112 O122 2.067 . S
Zn113 O114 1.962 . S
Zn113 O116 1.986 1_565 S
Zn113 O118 1.996 1_565 S
Zn113 O121 1.943 . S
O114 Zn113 1.962 . S
O114 C119 1.254 . S
O115 Zn112 2.031 . S
O115 C119 1.269 . S
O116 Zn113 1.986 1_545 S
O116 C123 1.262 1_545 S
O117 Zn112 2.049 1_545 S
O117 C125 1.260 . S
O118 Zn113 1.996 1_545 S
O118 C125 1.257 . S
C119 O114 1.254 . S
C119 O115 1.269 . S
C120 O121 1.249 . S
C120 O122 1.270 . S
O121 Zn113 1.943 . S
O121 C120 1.249 . S
O122 Zn112 2.067 . S
O122 C120 1.270 . S
C123 O116 1.262 1_565 S
C123 O124 1.232 . S
O124 C123 1.232 . S
C125 O117 1.260 . S
C125 O118 1.257 . S
Zn126 O129 2.031 . S
Zn126 O131 2.049 . S
Zn126 O136 2.067 . S
Zn127 O128 1.962 . S
Zn127 O130 1.986 . S
Zn127 O132 1.996 . S
Zn127 O135 1.943 . S
O128 Zn127 1.962 . S
O128 C133 1.254 . S
O129 Zn126 2.031 . S
O129 C133 1.269 . S
O130 Zn127 1.986 . S
O130 C137 1.262 . S
O131 Zn126 2.049 . S
O131 C139 1.260 . S
O132 Zn127 1.996 . S
O132 C139 1.257 . S
C133 O128 1.254 . S
C133 O129 1.269 . S
C134 O135 1.249 . S
C134 O136 1.270 . S
O135 Zn127 1.943 . S
O135 C134 1.249 . S
O136 Zn126 2.067 . S
O136 C134 1.270 . S
C137 O130 1.262 . S
C137 O138 1.232 . S
O138 C137 1.232 . S
C139 O131 1.260 . S
C139 O132 1.257 . S
Zn140 O143 2.031 1_655 S
Zn140 O145 2.049 1_545 S
Zn140 O150 2.067 . S
Zn141 O142 1.962 1_655 S
Zn141 O144 1.986 1_545 S
Zn141 O146 1.996 1_545 S
Zn141 O149 1.943 . S
O142 Zn141 1.962 1_455 S
O142 C147 1.254 . S
O143 Zn140 2.031 1_455 S
O143 C147 1.269 . S
O144 Zn141 1.986 1_565 S
O144 C151 1.262 1_565 S
O145 Zn140 2.049 1_565 S
O145 C153 1.260 . S
O146 Zn141 1.996 1_565 S
O146 C153 1.257 . S
C147 O142 1.254 . S
C147 O143 1.269 . S
C148 O149 1.249 . S
C148 O150 1.270 . S
O149 Zn141 1.943 . S
O149 C148 1.249 . S
O150 Zn140 2.067 . S
O150 C148 1.270 . S
C151 O144 1.262 1_545 S
C151 O152 1.232 . S
O152 C151 1.232 . S
C153 O145 1.260 . S
C153 O146 1.257 . S
Zn154 O157 2.031 . S
Zn154 O159 2.049 . S
Zn154 O164 2.067 . S
Zn155 O156 1.962 . S
Zn155 O158 1.986 . S
Zn155 O160 1.996 . S
Zn155 O163 1.943 . S
O156 Zn155 1.962 . S
O156 C161 1.254 . S
O157 Zn154 2.031 . S
O157 C161 1.269 . S
O158 Zn155 1.986 . S
O158 C165 1.262 . S
O159 Zn154 2.049 . S
O159 C167 1.260 . S
O160 Zn155 1.996 . S
O160 C167 1.257 . S
C161 O156 1.254 . S
C161 O157 1.269 . S
C162 O163 1.249 . S
C162 O164 1.270 . S
O163 Zn155 1.943 . S
O163 C162 1.249 . S
O164 Zn154 2.067 . S
O164 C162 1.270 . S
C165 O158 1.262 . S
C165 O166 1.232 . S
O166 C165 1.232 . S
C167 O159 1.260 . S
C167 O160 1.257 . S
Zn168 O171 2.031 . S
Zn168 O173 2.049 1_545 S
Zn168 O178 2.067 . S
Zn169 O170 1.962 . S
Zn169 O172 1.986 1_545 S
Zn169 O174 1.996 1_545 S
Zn169 O177 1.943 . S
O170 Zn169 1.962 . S
O170 C175 1.254 . S
O171 Zn168 2.031 . S
O171 C175 1.269 . S
O172 Zn169 1.986 1_565 S
O172 C179 1.262 1_565 S
O173 Zn168 2.049 1_565 S
O173 C181 1.260 . S
O174 Zn169 1.996 1_565 S
O174 C181 1.257 . S
C175 O170 1.254 . S
C175 O171 1.269 . S
C176 O177 1.249 . S
C176 O178 1.270 . S
O177 Zn169 1.943 . S
O177 C176 1.249 . S
O178 Zn168 2.067 . S
O178 C176 1.270 . S
C179 O172 1.262 1_545 S
C179 O180 1.232 . S
O180 C179 1.232 . S
C181 O173 1.260 . S
C181 O174 1.257 . S
Zn182 O185 2.031 . S
Zn182 O187 2.049 . S
Zn182 O192 2.067 . S
Zn183 O184 1.962 . S
Zn183 O186 1.986 . S
Zn183 O188 1.996 . S
Zn183 O191 1.943 . S
O184 Zn183 1.962 . S
O184 C189 1.254 . S
O185 Zn182 2.031 . S
O185 C189 1.269 . S
O186 Zn183 1.986 . S
O186 C193 1.262 . S
O187 Zn182 2.049 . S
O187 C195 1.260 . S
O188 Zn183 1.996 . S
O188 C195 1.257 . S
C189 O184 1.254 . S
C189 O185 1.269 . S
C190 O191 1.249 . S
C190 O192 1.270 . S
O191 Zn183 1.943 . S
O191 C190 1.249 . S
O192 Zn182 2.067 . S
O192 C190 1.270 . S
C193 O186 1.262 . S
C193 O194 1.232 . S
O194 C193 1.232 . S
C195 O187 1.260 . S
C195 O188 1.257 . S
Zn196 O199 2.031 1_655 S
Zn196 O201 2.049 1_565 S
Zn196 O206 2.067 . S
Zn197 O198 1.962 1_655 S
Zn197 O200 1.986 1_565 S
Zn197 O202 1.996 1_565 S
Zn197 O205 1.943 . S
O198 Zn197 1.962 1_455 S
O198 C203 1.254 . S
O199 Zn196 2.031 1_455 S
O199 C203 1.269 . S
O200 Zn197 1.986 1_545 S
O200 C207 1.262 1_545 S
O201 Zn196 2.049 1_545 S
O201 C209 1.260 . S
O202 Zn197 1.996 1_545 S
O202 C209 1.257 . S
C203 O198 1.254 . S
C203 O199 1.269 . S
C204 O205 1.249 . S
C204 O206 1.270 . S
O205 Zn197 1.943 . S
O205 C204 1.249 . S
O206 Zn196 2.067 . S
O206 C204 1.270 . S
C207 O200 1.262 1_565 S
C207 O208 1.232 . S
O208 C207 1.232 . S
C209 O201 1.260 . S
C209 O202 1.257 . S
Zn210 O213 2.031 . S
Zn210 O215 2.049 . S
Zn210 O220 2.067 . S
Zn211 O212 1.962 . S
Zn211 O214 1.986 . S
Zn211 O216 1.996 . S
Zn211 O219 1.943 . S
O212 Zn211 1.962 . S
O212 C217 1.254 . S
O213 Zn210 2.031 . S
O213 C217 1.269 . S
O214 Zn211 1.986 . S
O214 C221 1.262 . S
O215 Zn210 2.049 . S
O215 C223 1.260 . S
O216 Zn211 1.996 . S
O216 C223 1.257 . S
C217 O212 1.254 . S
C217 O213 1.269 . S
C218 O219 1.249 . S
C218 O220 1.270 . S
O219 Zn211 1.943 . S
O219 C218 1.249 . S
O220 Zn210 2.067 . S
O220 C218 1.270 . S
C221 O214 1.262 . S
C221 O222 1.232 . S
O222 C221 1.232 . S
C223 O215 1.260 . S
C223 O216 1.257 . S
Zn224 O227 2.031 1_655 S
Zn224 O229 2.049 . S
Zn224 O234 2.067 . S
Zn225 O226 1.962 1_655 S
Zn225 O228 1.986 . S
Zn225 O230 1.996 . S
Zn225 O233 1.943 . S
O226 Zn225 1.962 1_455 S
O226 C231 1.254 . S
O227 Zn224 2.031 1_455 S
O227 C231 1.269 . S
O228 Zn225 1.986 . S
O228 C235 1.262 . S
O229 Zn224 2.049 . S
O229 C237 1.260 . S
O230 Zn225 1.996 . S
O230 C237 1.257 . S
C231 O226 1.254 . S
C231 O227 1.269 . S
C232 O233 1.249 . S
C232 O234 1.270 . S
O233 Zn225 1.943 . S
O233 C232 1.249 . S
O234 Zn224 2.067 . S
O234 C232 1.270 . S
C235 O228 1.262 . S
C235 O236 1.232 . S
O236 C235 1.232 . S
C237 O229 1.260 . S
C237 O230 1.257 . S
Zn238 O241 2.031 . S
Zn238 O243 2.049 . S
Zn238 O248 2.067 . S
Zn239 O240 1.962 . S
Zn239 O242 1.986 . S
Zn239 O244 1.996 . S
Zn239 O247 1.943 . S
O240 Zn239 1.962 . S
O240 C245 1.254 . S
O241 Zn238 2.031 . S
O241 C245 1.269 . S
O242 Zn239 1.986 . S
O242 C249 1.262 . S
O243 Zn238 2.049 . S
O243 C251 1.260 . S
O244 Zn239 1.996 . S
O244 C251 1.257 . S
C245 O240 1.254 . S
C245 O241 1.269 . S
C246 O247 1.249 . S
C246 O248 1.270 . S
O247 Zn239 1.943 . S
O247 C246 1.249 . S
O248 Zn238 2.067 . S
O248 C246 1.270 . S
C249 O242 1.262 . S
C249 O250 1.232 . S
O250 C249 1.232 . S
C251 O243 1.260 . S
C251 O244 1.257 . S
Zn252 O255 2.031 . S
Zn252 O257 2.049 . S
Zn252 O262 2.067 . S
Zn253 O254 1.962 . S
Zn253 O256 1.986 . S
Zn253 O258 1.996 . S
Zn253 O261 1.943 . S
O254 Zn253 1.962 . S
O254 C259 1.254 . S
O255 Zn252 2.031 . S
O255 C259 1.269 . S
O256 Zn253 1.986 . S
O256 C263 1.262 . S
O257 Zn252 2.049 . S
O257 C265 1.260 . S
O258 Zn253 1.996 . S
O258 C265 1.257 . S
C259 O254 1.254 . S
C259 O255 1.269 . S
C260 O261 1.249 . S
C260 O262 1.270 . S
O261 Zn253 1.943 . S
O261 C260 1.249 . S
O262 Zn252 2.067 . S
O262 C260 1.270 . S
C263 O256 1.262 . S
C263 O264 1.232 . S
O264 C263 1.232 . S
C265 O257 1.260 . S
C265 O258 1.257 . S
Zn266 O269 2.031 . S
Zn266 O271 2.049 . S
Zn266 O276 2.067 . S
Zn267 O268 1.962 . S
Zn267 O270 1.986 . S
Zn267 O272 1.996 . S
Zn267 O275 1.943 . S
O268 Zn267 1.962 . S
O268 C273 1.254 . S
O269 Zn266 2.031 . S
O269 C273 1.269 . S
O270 Zn267 1.986 . S
O270 C277 1.262 . S
O271 Zn266 2.049 . S
O271 C279 1.260 . S
O272 Zn267 1.996 . S
O272 C279 1.257 . S
C273 O268 1.254 . S
C273 O269 1.269 . S
C274 O275 1.249 . S
C274 O276 1.270 . S
O275 Zn267 1.943 . S
O275 C274 1.249 . S
O276 Zn266 2.067 . S
O276 C274 1.270 . S
C277 O270 1.262 . S
C277 O278 1.232 . S
O278 C277 1.232 . S
C279 O271 1.260 . S
C279 O272 1.257 . S
Zn280 O283 2.031 1_655 S
Zn280 O285 2.049 . S
Zn280 O290 2.067 . S
Zn281 O282 1.962 1_655 S
Zn281 O284 1.986 . S
Zn281 O286 1.996 . S
Zn281 O289 1.943 . S
O282 Zn281 1.962 1_455 S
O282 C287 1.254 . S
O283 Zn280 2.031 1_455 S
O283 C287 1.269 . S
O284 Zn281 1.986 . S
O284 C291 1.262 . S
O285 Zn280 2.049 . S
O285 C293 1.260 . S
O286 Zn281 1.996 . S
O286 C293 1.257 . S
C287 O282 1.254 . S
C287 O283 1.269 . S
C288 O289 1.249 . S
C288 O290 1.270 . S
O289 Zn281 1.943 . S
O289 C288 1.249 . S
O290 Zn280 2.067 . S
O290 C288 1.270 . S
C291 O284 1.262 . S
C291 O292 1.232 . S
O292 C291 1.232 . S
C293 O285 1.260 . S
C293 O286 1.257 . S
Zn294 O297 2.031 . S
Zn294 O299 2.049 . S
Zn294 O304 2.067 . S
Zn295 O296 1.962 . S
Zn295 O298 1.986 . S
Zn295 O300 1.996 . S
Zn295 O303 1.943 . S
O296 Zn295 1.962 . S
O296 C301 1.254 . S
O297 Zn294 2.031 . S
O297 C301 1.269 . S
O298 Zn295 1.986 . S
O298 C305 1.262 . S
O299 Zn294 2.049 . S
O299 C307 1.260 . S
O300 Zn295 1.996 . S
O300 C307 1.257 . S
C301 O296 1.254 . S
C301 O297 1.269 . S
C302 O303 1.249 . S
C302 O304 1.270 . S
O303 Zn295 1.943 . S
O303 C302 1.249 . S
O304 Zn294 2.067 . S
O304 C302 1.270 . S
C305 O298 1.262 . S
C305 O306 1.232 . S
O306 C305 1.232 . S
C307 O299 1.260 . S
C307 O300 1.257 . S
Zn308 O311 2.031 . S
Zn308 O313 2.049 . S
Zn308 O318 2.067 . S
Zn309 O310 1.962 . S
Zn309 O312 1.986 . S
Zn309 O314 1.996 . S
Zn309 O317 1.943 . S
O310 Zn309 1.962 . S
O310 C315 1.254 . S
O311 Zn308 2.031 . S
O311 C315 1.269 . S
O312 Zn309 1.986 . S
O312 C319 1.262 . S
O313 Zn308 2.049 . S
O313 C321 1.260 . S
O314 Zn309 1.996 . S
O314 C321 1.257 . S
C315 O310 1.254 . S
C315 O311 1.269 . S
C316 O317 1.249 . S
C316 O318 1.270 . S
O317 Zn309 1.943 . S
O317 C316 1.249 . S
O318 Zn308 2.067 . S
O318 C316 1.270 . S
C319 O312 1.262 . S
C319 O320 1.232 . S
O320 C319 1.232 . S
C321 O313 1.260 . S
C321 O314 1.257 . S
Zn322 O325 2.031 . S
Zn322 O327 2.049 . S
Zn322 O332 2.067 . S
Zn323 O324 1.962 . S
Zn323 O326 1.986 . S
Zn323 O328 1.996 . S
Zn323 O331 1.943 . S
O324 Zn323 1.962 . S
O324 C329 1.254 . S
O325 Zn322 2.031 . S
O325 C329 1.269 . S
O326 Zn323 1.986 . S
O326 C333 1.262 . S
O327 Zn322 2.049 . S
O327 C335 1.260 . S
O328 Zn323 1.996 . S
O328 C335 1.257 . S
C329 O324 1.254 . S
C329 O325 1.269 . S
C330 O331 1.249 . S
C330 O332 1.270 . S
O331 Zn323 1.943 . S
O331 C330 1.249 . S
O332 Zn322 2.067 . S
O332 C330 1.270 . S
C333 O326 1.262 . S
C333 O334 1.232 . S
O334 C333 1.232 . S
C335 O327 1.260 . S
C335 O328 1.257 . S
Zn336 O339 2.031 1_455 S
Zn336 O341 2.049 . S
Zn336 O346 2.067 . S
Zn337 O338 1.962 1_455 S
Zn337 O340 1.986 . S
Zn337 O342 1.996 . S
Zn337 O345 1.943 . S
O338 Zn337 1.962 1_655 S
O338 C343 1.254 . S
O339 Zn336 2.031 1_655 S
O339 C343 1.269 . S
O340 Zn337 1.986 . S
O340 C347 1.262 . S
O341 Zn336 2.049 . S
O341 C349 1.260 . S
O342 Zn337 1.996 . S
O342 C349 1.257 . S
C343 O338 1.254 . S
C343 O339 1.269 . S
C344 O345 1.249 . S
C344 O346 1.270 . S
O345 Zn337 1.943 . S
O345 C344 1.249 . S
O346 Zn336 2.067 . S
O346 C344 1.270 . S
C347 O340 1.262 . S
C347 O348 1.232 . S
O348 C347 1.232 . S
C349 O341 1.260 . S
C349 O342 1.257 . S
Zn350 O353 2.031 . S
Zn350 O355 2.049 . S
Zn350 O360 2.067 . S
Zn351 O352 1.962 . S
Zn351 O354 1.986 . S
Zn351 O356 1.996 . S
Zn351 O359 1.943 . S
O352 Zn351 1.962 . S
O352 C357 1.254 . S
O353 Zn350 2.031 . S
O353 C357 1.269 . S
O354 Zn351 1.986 . S
O354 C361 1.262 . S
O355 Zn350 2.049 . S
O355 C363 1.260 . S
O356 Zn351 1.996 . S
O356 C363 1.257 . S
C357 O352 1.254 . S
C357 O353 1.269 . S
C358 O359 1.249 . S
C358 O360 1.270 . S
O359 Zn351 1.943 . S
O359 C358 1.249 . S
O360 Zn350 2.067 . S
O360 C358 1.270 . S
C361 O354 1.262 . S
C361 O362 1.232 . S
O362 C361 1.232 . S
C363 O355 1.260 . S
C363 O356 1.257 . S
Zn364 O367 2.031 . S
Zn364 O369 2.049 . S
Zn364 O374 2.067 . S
Zn365 O366 1.962 . S
Zn365 O368 1.986 . S
Zn365 O370 1.996 . S
Zn365 O373 1.943 . S
O366 Zn365 1.962 . S
O366 C371 1.254 . S
O367 Zn364 2.031 . S
O367 C371 1.269 . S
O368 Zn365 1.986 . S
O368 C375 1.262 . S
O369 Zn364 2.049 . S
O369 C377 1.260 . S
O370 Zn365 1.996 . S
O370 C377 1.257 . S
C371 O366 1.254 . S
C371 O367 1.269 . S
C372 O373 1.249 . S
C372 O374 1.270 . S
O373 Zn365 1.943 . S
O373 C372 1.249 . S
O374 Zn364 2.067 . S
O374 C372 1.270 . S
C375 O368 1.262 . S
C375 O376 1.232 . S
O376 C375 1.232 . S
C377 O369 1.260 . S
C377 O370 1.257 . S
Zn378 O381 2.031 . S
Zn378 O383 2.049 . S
Zn378 O388 2.067 . S
Zn379 O380 1.962 . S
Zn379 O382 1.986 . S
Zn379 O384 1.996 . S
Zn379 O387 1.943 . S
O380 Zn379 1.962 . S
O380 C385 1.254 . S
O381 Zn378 2.031 . S
O381 C385 1.269 . S
O382 Zn379 1.986 . S
O382 C389 1.262 . S
O383 Zn378 2.049 . S
O383 C391 1.260 . S
O384 Zn379 1.996 . S
O384 C391 1.257 . S
C385 O380 1.254 . S
C385 O381 1.269 . S
C386 O387 1.249 . S
C386 O388 1.270 . S
O387 Zn379 1.943 . S
O387 C386 1.249 . S
O388 Zn378 2.067 . S
O388 C386 1.270 . S
C389 O382 1.262 . S
C389 O390 1.232 . S
O390 C389 1.232 . S
C391 O383 1.260 . S
C391 O384 1.257 . S
Zn392 O395 2.031 1_455 S
Zn392 O397 2.049 . S
Zn392 O402 2.067 . S
Zn393 O394 1.962 1_455 S
Zn393 O396 1.986 . S
Zn393 O398 1.996 . S
Zn393 O401 1.943 . S
O394 Zn393 1.962 1_655 S
O394 C399 1.254 . S
O395 Zn392 2.031 1_655 S
O395 C399 1.269 . S
O396 Zn393 1.986 . S
O396 C403 1.262 . S
O397 Zn392 2.049 . S
O397 C405 1.260 . S
O398 Zn393 1.996 . S
O398 C405 1.257 . S
C399 O394 1.254 . S
C399 O395 1.269 . S
C400 O401 1.249 . S
C400 O402 1.270 . S
O401 Zn393 1.943 . S
O401 C400 1.249 . S
O402 Zn392 2.067 . S
O402 C400 1.270 . S
C403 O396 1.262 . S
C403 O404 1.232 . S
O404 C403 1.232 . S
C405 O397 1.260 . S
C405 O398 1.257 . S
Zn406 O409 2.031 . S
Zn406 O411 2.049 . S
Zn406 O416 2.067 . S
Zn407 O408 1.962 . S
Zn407 O410 1.986 . S
Zn407 O412 1.996 . S
Zn407 O415 1.943 . S
O408 Zn407 1.962 . S
O408 C413 1.254 . S
O409 Zn406 2.031 . S
O409 C413 1.269 . S
O410 Zn407 1.986 . S
O410 C417 1.262 . S
O411 Zn406 2.049 . S
O411 C419 1.260 . S
O412 Zn407 1.996 . S
O412 C419 1.257 . S
C413 O408 1.254 . S
C413 O409 1.269 . S
C414 O415 1.249 . S
C414 O416 1.270 . S
O415 Zn407 1.943 . S
O415 C414 1.249 . S
O416 Zn406 2.067 . S
O416 C414 1.270 . S
C417 O410 1.262 . S
C417 O418 1.232 . S
O418 C417 1.232 . S
C419 O411 1.260 . S
C419 O412 1.257 . S
Zn420 O423 2.031 . S
Zn420 O425 2.049 . S
Zn420 O430 2.067 . S
Zn421 O422 1.962 . S
Zn421 O424 1.986 . S
Zn421 O426 1.996 . S
Zn421 O429 1.943 . S
O422 Zn421 1.962 . S
O422 C427 1.254 . S
O423 Zn420 2.031 . S
O423 C427 1.269 . S
O424 Zn421 1.986 . S
O424 C431 1.262 . S
O425 Zn420 2.049 . S
O425 C433 1.260 . S
O426 Zn421 1.996 . S
O426 C433 1.257 . S
C427 O422 1.254 . S
C427 O423 1.269 . S
C428 O429 1.249 . S
C428 O430 1.270 . S
O429 Zn421 1.943 . S
O429 C428 1.249 . S
O430 Zn420 2.067 . S
O430 C428 1.270 . S
C431 O424 1.262 . S
C431 O432 1.232 . S
O432 C431 1.232 . S
C433 O425 1.260 . S
C433 O426 1.257 . S
Zn434 O437 2.031 . S
Zn434 O439 2.049 . S
Zn434 O444 2.067 . S
Zn435 O436 1.962 . S
Zn435 O438 1.986 . S
Zn435 O440 1.996 . S
Zn435 O443 1.943 . S
O436 Zn435 1.962 . S
O436 C441 1.254 . S
O437 Zn434 2.031 . S
O437 C441 1.269 . S
O438 Zn435 1.986 . S
O438 C445 1.262 . S
O439 Zn434 2.049 . S
O439 C447 1.260 . S
O440 Zn435 1.996 . S
O440 C447 1.257 . S
C441 O436 1.254 . S
C441 O437 1.269 . S
C442 O443 1.249 . S
C442 O444 1.270 . S
O443 Zn435 1.943 . S
O443 C442 1.249 . S
O444 Zn434 2.067 . S
O444 C442 1.270 . S
C445 O438 1.262 . S
C445 O446 1.232 . S
O446 C445 1.232 . S
C447 O439 1.260 . S
C447 O440 1.257 . S
C67 C11 1.525 1_565 S
C81 C25 1.525 . S
C95 C39 1.525 1_545 S
C53 C109 1.525 1_556 S
C123 C179 1.525 1_565 S
C193 C137 1.525 . S
C151 C207 1.525 1_545 S
C221 C165 1.525 1_556 S
C235 C291 1.525 . S
C305 C249 1.525 1_554 S
C319 C263 1.525 . S
C333 C277 1.525 . S
C347 C403 1.525 . S
C361 C417 1.525 1_554 S
C375 C431 1.525 . S
C389 C445 1.525 . S
C13 C111 1.709 . S
C27 C69 1.709 . S
C41 C83 1.709 . S
C97 C55 1.709 . S
C223 C125 1.709 . S
C181 C139 1.709 . S
C195 C153 1.709 . S
C167 C209 1.709 . S
C335 C237 1.709 . S
C293 C251 1.709 . S
C307 C265 1.709 . S
C279 C321 1.709 . S
C349 C447 1.709 . S
C363 C405 1.709 . S
C377 C419 1.709 . S
C433 C391 1.709 . S
C8 C357 1.483 . S
C22 C147 1.483 . S
C36 C385 1.483 . S
C119 C50 1.483 . S
C441 C64 1.483 . S
C78 C175 1.483 . S
C92 C413 1.483 . S
C106 C203 1.483 . S
C245 C120 1.483 . S
C35 C134 1.483 . S
C273 C148 1.483 . S
C162 C7 1.483 . S
C329 C176 1.483 . S
C63 C190 1.483 . S
C301 C204 1.483 . S
C91 C218 1.483 . S
C133 C232 1.484 . S
C246 C371 1.483 . S
C260 C161 1.484 . S
C274 C343 1.483 . S
C288 C217 1.484 . S
C399 C302 1.483 . S
C316 C189 1.484 . S
C330 C427 1.483 . S
C344 C21 1.484 . S
C358 C259 1.483 . S
C49 C372 1.484 . S
C231 C386 1.483 . S
C400 C105 1.484 . S
C414 C287 1.483 . S
C77 C428 1.484 . S
C315 C442 1.483 . S
