# Generated by pormake.
# Topology pbz, (3)-cn, num edge types: 1
# Building blocks:
#     Node 0, Type 0, BuildingBlock: OLANEW_clean_sbu_2, # of connection points: 3
#     Node 1, Type 0, BuildingBlock: OLANEW_clean_sbu_2, # of connection points: 3
#     Node 2, Type 0, BuildingBlock: OLANEW_clean_sbu_2, # of connection points: 3
#     Node 3, Type 0, BuildingBlock: OLANEW_clean_sbu_2, # of connection points: 3
#     Node 4, Type 0, BuildingBlock: OLANEW_clean_sbu_2, # of connection points: 3
#     Node 5, Type 0, BuildingBlock: OLANEW_clean_sbu_2, # of connection points: 3
#     Node 6, Type 0, BuildingBlock: OLANEW_clean_sbu_2, # of connection points: 3
#     Node 7, Type 0, BuildingBlock: OLANEW_clean_sbu_2, # of connection points: 3
#     Node 8, Type 0, BuildingBlock: OLANEW_clean_sbu_2, # of connection points: 3
#     Node 9, Type 0, BuildingBlock: OLANEW_clean_sbu_2, # of connection points: 3
#     Node 10, Type 0, BuildingBlock: OLANEW_clean_sbu_2, # of connection points: 3
#     Node 11, Type 0, BuildingBlock: OLANEW_clean_sbu_2, # of connection points: 3
#     Node 12, Type 0, BuildingBlock: OLANEW_clean_sbu_2, # of connection points: 3
#     Node 13, Type 0, BuildingBlock: OLANEW_clean_sbu_2, # of connection points: 3
#     Node 14, Type 0, BuildingBlock: OLANEW_clean_sbu_2, # of connection points: 3
#     Node 15, Type 0, BuildingBlock: OLANEW_clean_sbu_2, # of connection points: 3
#     Node 16, Type 0, BuildingBlock: OLANEW_clean_sbu_2, # of connection points: 3
#     Node 17, Type 0, BuildingBlock: OLANEW_clean_sbu_2, # of connection points: 3
#     Node 18, Type 0, BuildingBlock: OLANEW_clean_sbu_2, # of connection points: 3
#     Node 19, Type 0, BuildingBlock: OLANEW_clean_sbu_2, # of connection points: 3
#     Node 20, Type 0, BuildingBlock: OLANEW_clean_sbu_2, # of connection points: 3
#     Node 21, Type 0, BuildingBlock: OLANEW_clean_sbu_2, # of connection points: 3
#     Node 22, Type 0, BuildingBlock: OLANEW_clean_sbu_2, # of connection points: 3
#     Node 23, Type 0, BuildingBlock: OLANEW_clean_sbu_2, # of connection points: 3
#     Edge 24, Type (0, 0), BuildingBlock: KIFKEQ_clean_linker_1, # of connection points: 2
#     Edge 25, Type (0, 0), BuildingBlock: KIFKEQ_clean_linker_1, # of connection points: 2
#     Edge 26, Type (0, 0), BuildingBlock: KIFKEQ_clean_linker_1, # of connection points: 2
#     Edge 27, Type (0, 0), BuildingBlock: KIFKEQ_clean_linker_1, # of connection points: 2
#     Edge 28, Type (0, 0), BuildingBlock: KIFKEQ_clean_linker_1, # of connection points: 2
#     Edge 29, Type (0, 0), BuildingBlock: KIFKEQ_clean_linker_1, # of connection points: 2
#     Edge 30, Type (0, 0), BuildingBlock: KIFKEQ_clean_linker_1, # of connection points: 2
#     Edge 31, Type (0, 0), BuildingBlock: KIFKEQ_clean_linker_1, # of connection points: 2
#     Edge 32, Type (0, 0), BuildingBlock: KIFKEQ_clean_linker_1, # of connection points: 2
#     Edge 33, Type (0, 0), BuildingBlock: KIFKEQ_clean_linker_1, # of connection points: 2
#     Edge 34, Type (0, 0), BuildingBlock: KIFKEQ_clean_linker_1, # of connection points: 2
#     Edge 35, Type (0, 0), BuildingBlock: KIFKEQ_clean_linker_1, # of connection points: 2
#     Edge 36, Type (0, 0), BuildingBlock: KIFKEQ_clean_linker_1, # of connection points: 2
#     Edge 37, Type (0, 0), BuildingBlock: KIFKEQ_clean_linker_1, # of connection points: 2
#     Edge 38, Type (0, 0), BuildingBlock: KIFKEQ_clean_linker_1, # of connection points: 2
#     Edge 39, Type (0, 0), BuildingBlock: KIFKEQ_clean_linker_1, # of connection points: 2
#     Edge 40, Type (0, 0), BuildingBlock: KIFKEQ_clean_linker_1, # of connection points: 2
#     Edge 41, Type (0, 0), BuildingBlock: KIFKEQ_clean_linker_1, # of connection points: 2
#     Edge 42, Type (0, 0), BuildingBlock: KIFKEQ_clean_linker_1, # of connection points: 2
#     Edge 43, Type (0, 0), BuildingBlock: KIFKEQ_clean_linker_1, # of connection points: 2
#     Edge 44, Type (0, 0), BuildingBlock: KIFKEQ_clean_linker_1, # of connection points: 2
#     Edge 45, Type (0, 0), BuildingBlock: KIFKEQ_clean_linker_1, # of connection points: 2
#     Edge 46, Type (0, 0), BuildingBlock: KIFKEQ_clean_linker_1, # of connection points: 2
#     Edge 47, Type (0, 0), BuildingBlock: KIFKEQ_clean_linker_1, # of connection points: 2
#     Edge 48, Type (0, 0), BuildingBlock: KIFKEQ_clean_linker_1, # of connection points: 2
#     Edge 49, Type (0, 0), BuildingBlock: KIFKEQ_clean_linker_1, # of connection points: 2
#     Edge 50, Type (0, 0), BuildingBlock: KIFKEQ_clean_linker_1, # of connection points: 2
#     Edge 51, Type (0, 0), BuildingBlock: KIFKEQ_clean_linker_1, # of connection points: 2
#     Edge 52, Type (0, 0), BuildingBlock: KIFKEQ_clean_linker_1, # of connection points: 2
#     Edge 53, Type (0, 0), BuildingBlock: KIFKEQ_clean_linker_1, # of connection points: 2
#     Edge 54, Type (0, 0), BuildingBlock: KIFKEQ_clean_linker_1, # of connection points: 2
#     Edge 55, Type (0, 0), BuildingBlock: KIFKEQ_clean_linker_1, # of connection points: 2
#     Edge 56, Type (0, 0), BuildingBlock: KIFKEQ_clean_linker_1, # of connection points: 2
#     Edge 57, Type (0, 0), BuildingBlock: KIFKEQ_clean_linker_1, # of connection points: 2
#     Edge 58, Type (0, 0), BuildingBlock: KIFKEQ_clean_linker_1, # of connection points: 2
#     Edge 59, Type (0, 0), BuildingBlock: KIFKEQ_clean_linker_1, # of connection points: 2
# Relax obj value: 0.055
# Max RMSD: 0.148
# Mean RMSD: 0.110
data_MOF--net-pbz--node1-OLANEW_clean_sbu_2--edge1-KIFKEQ_clean_linker_1
_symmetry_space_group_name_H-M    P1
_symmetry_Int_Tables_number       1
_symmetry_cell_setting            triclinic
loop_
_symmetry_equiv_pos_as_xyz
'x, y, z'
_cell_length_a     67.747535
_cell_length_b     66.455436
_cell_length_c     65.061681
_cell_angle_alpha  90.910453
_cell_angle_beta   90.036534
_cell_angle_gamma 94.78296
loop_
_atom_site_label
_atom_site_type_symbol
_atom_site_fract_x
_atom_site_fract_y
_atom_site_fract_z
_atom_type_partial_charge
O0 O 0.04335 0.25202 0.76111 0.0
Cd1 Cd 0.04586 0.2217 0.73967 0.0
O2 O 0.01874 0.23849 0.77973 0.0
Cd3 Cd 0.01511 0.21054 0.76163 0.0
O4 O 0.99679 0.19218 0.73971 0.0
C5 C 0.97824 0.19197 0.74269 0.0
O6 O 0.97193 0.20145 0.75899 0.0
C7 C 0.031 0.25344 0.77567 0.0
C8 C 0.07107 0.1944 0.75517 0.0
O9 O 0.07778 0.20921 0.7441 0.0
O10 O 0.05248 0.19268 0.75917 0.0
O11 O 0.94094 0.53652 0.24615 0.0
Cd12 Cd 0.90866 0.51715 0.24767 0.0
O13 O 0.92842 0.56584 0.24345 0.0
Cd14 Cd 0.8986 0.55351 0.2511 0.0
O15 O 0.87778 0.55374 0.27663 0.0
C16 C 0.88488 0.56344 0.29233 0.0
O17 O 0.90318 0.57169 0.29154 0.0
C18 C 0.9434 0.55553 0.24383 0.0
C19 C 0.89532 0.50345 0.20891 0.0
O20 O 0.89003 0.52004 0.2166 0.0
O21 O 0.90693 0.4934 0.21952 0.0
O22 O 0.53109 0.31177 0.73264 0.0
Cd23 Cd 0.53068 0.32931 0.69996 0.0
O24 O 0.49998 0.31569 0.74027 0.0
Cd25 Cd 0.49421 0.33552 0.71491 0.0
O26 O 0.47913 0.36172 0.70557 0.0
C27 C 0.47357 0.37234 0.72057 0.0
O28 O 0.4777 0.36695 0.73934 0.0
C29 C 0.51635 0.30864 0.74456 0.0
C30 C 0.5681 0.33009 0.68191 0.0
O31 O 0.56333 0.34463 0.69358 0.0
O32 O 0.55506 0.31531 0.67852 0.0
O33 O 0.804 0.04475 0.23866 0.0
Cd34 Cd 0.77312 0.04385 0.21912 0.0
O35 O 0.8037 0.01168 0.23984 0.0
Cd36 Cd 0.77278 0.00701 0.23024 0.0
O37 O 0.74308 -0.00123 0.24205 0.0
C38 C 0.74257 0.98597 0.25639 0.0
O39 O 0.75915 0.97849 0.26174 0.0
C40 C 0.81241 0.02907 0.24347 0.0
C41 C 0.77856 0.06726 0.18405 0.0
O42 O 0.77201 0.07474 0.20073 0.0
O43 O 0.78231 0.04867 0.18391 0.0
O44 O 0.01473 0.40094 0.84337 0.0
Cd45 Cd 0.00682 0.43289 0.85928 0.0
O46 O 0.98499 0.39487 0.82993 0.0
Cd47 Cd 0.97315 0.4213 0.84413 0.0
O48 O 0.95378 0.4374 0.86419 0.0
C49 C 0.95795 0.43917 0.88321 0.0
O50 O 0.97449 0.43251 0.88985 0.0
C51 C 0.00247 0.38973 0.83259 0.0
C52 C 0.04066 0.45939 0.86405 0.0
O53 O 0.02991 0.45958 0.84784 0.0
O54 O 0.03529 0.44676 0.87807 0.0
O55 O 0.78946 0.57496 0.42445 0.0
Cd56 Cd 0.7697 0.58076 0.45505 0.0
O57 O 0.79895 0.60727 0.42173 0.0
Cd58 Cd 0.77568 0.6168 0.44193 0.0
O59 O 0.74744 0.6304 0.44168 0.0
C60 C 0.74738 0.647 0.43226 0.0
O61 O 0.7642 0.65526 0.425 0.0
C62 C 0.80018 0.58905 0.41591 0.0
C63 C 0.77498 0.55113 0.48397 0.0
O64 O 0.78738 0.56668 0.48253 0.0
O65 O 0.75995 0.54967 0.4719 0.0
O66 O 0.53547 0.22107 0.8806 0.0
Cd67 Cd 0.53797 0.2019 0.91209 0.0
O68 O 0.51893 0.24441 0.89544 0.0
Cd69 Cd 0.51499 0.22749 0.92384 0.0
O70 O 0.50022 0.2059 0.94492 0.0
C71 C 0.4908 0.21176 0.96049 0.0
O72 O 0.49105 0.2312 0.96461 0.0
C73 C 0.52737 0.23763 0.87963 0.0
C74 C 0.57685 0.20545 0.92658 0.0
O75 O 0.57071 0.19111 0.91416 0.0
O76 O 0.56453 0.21803 0.93231 0.0
O77 O 0.93786 0.06298 0.42901 0.0
Cd78 Cd 0.94281 0.04031 0.39978 0.0
O79 O 0.93988 0.09034 0.41026 0.0
Cd80 Cd 0.94203 0.07401 0.3811 0.0
O81 O 0.93013 0.06348 0.35129 0.0
C82 C 0.91752 0.04821 0.35075 0.0
O83 O 0.91326 0.03857 0.36787 0.0
C84 C 0.93761 0.08204 0.42768 0.0
C85 C 0.97443 0.0164 0.40453 0.0
O86 O 0.97672 0.0333 0.39524 0.0
O87 O 0.95727 0.01095 0.4118 0.0
O88 O 0.27732 0.69205 0.11392 0.0
Cd89 Cd 0.25357 0.66244 0.11688 0.0
O90 O 0.30319 0.67758 0.12523 0.0
Cd91 Cd 0.28475 0.65044 0.13345 0.0
O92 O 0.26321 0.63454 0.1536 0.0
C93 C 0.26652 0.63654 0.17278 0.0
O94 O 0.28298 0.64673 0.17896 0.0
C95 C 0.29572 0.69296 0.11807 0.0
C96 C 0.24981 0.64019 0.08018 0.0
O97 O 0.24011 0.65572 0.0832 0.0
O98 O 0.26132 0.63515 0.09452 0.0
O99 O 0.22909 0.83788 0.67809 0.0
Cd100 Cd 0.19759 0.85225 0.68454 0.0
O101 O 0.2281 0.85153 0.64792 0.0
Cd102 Cd 0.23396 0.85854 0.61568 0.0
O103 O 0.22687 0.86772 0.58469 0.0
C104 C 0.21073 0.87599 0.58271 0.0
O105 O 0.19998 0.8788 0.59915 0.0
C106 C 0.2368 0.84072 0.66047 0.0
C107 C 0.20178 0.8923 0.69821 0.0
O108 O 0.2004 0.87772 0.71093 0.0
O109 O 0.2014 0.88793 0.67894 0.0
O110 O 0.37917 0.68496 0.58276 0.0
Cd111 Cd 0.37093 0.71517 0.56479 0.0
O112 O 0.38481 0.70145 0.61203 0.0
Cd113 Cd 0.37372 0.72957 0.60179 0.0
O114 O 0.35405 0.75385 0.6052 0.0
C115 C 0.35176 0.76033 0.62346 0.0
O116 O 0.36189 0.75283 0.63833 0.0
C117 C 0.38461 0.68516 0.60147 0.0
C118 C 0.39827 0.72453 0.53365 0.0
O119 O 0.40092 0.732 0.55182 0.0
O120 O 0.3826 0.71278 0.53019 0.0
O121 O 0.3954 0.90372 0.18703 0.0
Cd122 Cd 0.3668 0.89943 0.16389 0.0
O123 O 0.40833 0.8764 0.17556 0.0
Cd124 Cd 0.38447 0.86665 0.15424 0.0
O125 O 0.36541 0.84198 0.14047 0.0
C126 C 0.37394 0.82739 0.13258 0.0
O127 O 0.39339 0.82863 0.13198 0.0
C128 C 0.40909 0.89175 0.18753 0.0
C129 C 0.36563 0.93058 0.13572 0.0
O130 O 0.35857 0.93229 0.15387 0.0
O131 O 0.37338 0.91419 0.13092 0.0
O132 O 0.13398 0.89808 0.44079 0.0
Cd133 Cd 0.11442 0.89631 0.40912 0.0
O134 O 0.14936 0.87133 0.43207 0.0
Cd135 Cd 0.132 0.86187 0.40487 0.0
O136 O 0.12322 0.83352 0.38869 0.0
C137 C 0.11861 0.81863 0.40027 0.0
O138 O 0.11817 0.82181 0.42025 0.0
C139 C 0.14699 0.88588 0.4445 0.0
C140 C 0.08451 0.92281 0.40994 0.0
O141 O 0.10216 0.92875 0.40439 0.0
O142 O 0.081 0.90434 0.41518 0.0
O143 O 0.25398 0.54035 0.88812 0.0
Cd144 Cd 0.22696 0.53413 0.91274 0.0
O145 O 0.23994 0.5638 0.87125 0.0
Cd146 Cd 0.21192 0.55844 0.88755 0.0
O147 O 0.18119 0.54592 0.88978 0.0
C148 C 0.17324 0.54 0.8728 0.0
O149 O 0.18374 0.54223 0.85588 0.0
C150 C 0.25461 0.55339 0.87398 0.0
C151 C 0.23261 0.55794 0.94833 0.0
O152 O 0.24088 0.54138 0.94617 0.0
O153 O 0.22168 0.5633 0.93365 0.0
O154 O 0.58437 0.73815 0.3549 0.0
Cd155 Cd 0.58552 0.70156 0.35633 0.0
O156 O 0.56166 0.73587 0.37877 0.0
Cd157 Cd 0.54137 0.74561 0.40236 0.0
O158 O 0.51952 0.74676 0.42691 0.0
C159 C 0.50125 0.74661 0.42244 0.0
O160 O 0.49596 0.74652 0.403 0.0
C161 C 0.57258 0.74674 0.36668 0.0
C162 C 0.62025 0.69134 0.37514 0.0
O163 O 0.6195 0.69433 0.35575 0.0
O164 O 0.6045 0.69312 0.3857 0.0
O165 O 0.38077 0.0967 0.00463 0.0
Cd166 Cd 0.35263 0.07113 0.00288 0.0
O167 O 0.36247 0.12247 0.00288 0.0
Cd168 Cd 0.33497 0.10409 -0.00381 0.0
O169 O 0.31134 0.09619 0.97394 0.0
C170 C 0.31691 0.09244 0.95573 0.0
O171 O 0.33598 0.09246 0.95199 0.0
C172 C 0.37938 0.11567 0.00468 0.0
C173 C 0.35576 0.04104 0.03192 0.0
O174 O 0.36423 0.04009 0.01436 0.0
O175 O 0.34579 0.05622 0.03577 0.0
O176 O 0.13881 0.64082 0.26394 0.0
Cd177 Cd 0.11126 0.6516 0.28434 0.0
O178 O 0.15701 0.63353 0.29036 0.0
Cd179 Cd 0.13688 0.64738 0.31145 0.0
O180 O 0.12452 0.67296 0.32676 0.0
C181 C 0.13086 0.67872 0.34445 0.0
O182 O 0.14384 0.66831 0.35367 0.0
C183 C 0.15437 0.63397 0.27102 0.0
C184 C 0.07603 0.62997 0.27236 0.0
O185 O 0.08678 0.62363 0.28672 0.0
O186 O 0.08188 0.64665 0.26379 0.0
O187 O 0.37285 0.54615 0.68057 0.0
Cd188 Cd 0.36284 0.51955 0.7049 0.0
O189 O 0.39341 0.56275 0.70226 0.0
Cd190 Cd 0.38281 0.54497 0.72852 0.0
O191 O 0.36462 0.54132 0.75613 0.0
C192 C 0.35991 0.55764 0.76453 0.0
O193 O 0.36663 0.5749 0.7565 0.0
C194 C 0.38579 0.56071 0.6844 0.0
C195 C 0.38882 0.48908 0.70532 0.0
O196 O 0.37386 0.48793 0.69316 0.0
O197 O 0.39151 0.50467 0.71716 0.0
O198 O 0.58763 0.90914 0.37666 0.0
Cd199 Cd 0.59142 0.94576 0.37298 0.0
O200 O 0.56678 0.90837 0.35102 0.0
Cd201 Cd 0.54732 0.8966 0.32602 0.0
O202 O 0.52665 0.89394 0.30018 0.0
C203 C 0.50974 0.90065 0.3024 0.0
O204 O 0.50511 0.90837 0.3203 0.0
C205 C 0.57614 0.89892 0.36424 0.0
C206 C 0.62304 0.95634 0.34678 0.0
O207 O 0.6256 0.95517 0.36624 0.0
O208 O 0.60541 0.95277 0.3397 0.0
O209 O 0.20546 0.06559 0.83748 0.0
Cd210 Cd 0.18231 0.05605 0.80938 0.0
O211 O 0.22969 0.07734 0.81736 0.0
Cd212 Cd 0.21409 0.06512 0.79001 0.0
O213 O 0.20506 0.03953 0.76976 0.0
C214 C 0.21677 0.03423 0.75581 0.0
O215 O 0.23351 0.04527 0.75289 0.0
C216 C 0.22282 0.07416 0.83532 0.0
C217 C 0.15926 0.08731 0.79895 0.0
O218 O 0.15396 0.07504 0.81332 0.0
O219 O 0.17551 0.08484 0.78953 0.0
O220 O 0.85341 0.44426 0.00507 0.0
Cd221 Cd 0.83008 0.43514 0.03271 0.0
O222 O 0.83542 0.42698 0.98163 0.0
Cd223 Cd 0.81597 0.41038 0.00338 0.0
O224 O 0.80738 0.37913 0.01171 0.0
C225 C 0.81333 0.36637 -0.00114 0.0
O226 O 0.82316 0.37311 0.98261 0.0
C227 C 0.85037 0.439 0.98639 0.0
C228 C 0.8443 0.45009 0.07071 0.0
O229 O 0.83478 0.46101 0.05876 0.0
O230 O 0.84705 0.43207 0.06472 0.0
O231 O 0.89035 0.18023 0.6081 0.0
Cd232 Cd 0.87068 0.18524 0.57749 0.0
O233 O 0.86508 0.17326 0.62873 0.0
Cd234 Cd 0.84455 0.18518 0.60703 0.0
O235 O 0.83002 0.21192 0.59812 0.0
C236 C 0.84134 0.22812 0.59708 0.0
O237 O 0.86043 0.22722 0.60005 0.0
C238 C 0.88366 0.1746 0.62552 0.0
C239 C 0.88596 0.16347 0.545 0.0
O240 O 0.89235 0.18186 0.54877 0.0
O241 O 0.87203 0.15553 0.55634 0.0
O242 O 0.80685 0.38115 0.60616 0.0
Cd243 Cd 0.797 0.414 0.61789 0.0
O244 O 0.77619 0.37083 0.61295 0.0
Cd245 Cd 0.74858 0.35154 0.61582 0.0
O246 O 0.71692 0.34684 0.6224 0.0
C247 C 0.70871 0.33108 0.63063 0.0
O248 O 0.71948 0.31615 0.63498 0.0
C249 C 0.79332 0.36675 0.60704 0.0
C250 C 0.79416 0.44217 0.58699 0.0
O251 O 0.80982 0.44225 0.59806 0.0
O252 O 0.78001 0.42857 0.59029 0.0
O253 O 0.81274 0.20602 0.02118 0.0
Cd254 Cd 0.80867 0.16915 0.01894 0.0
O255 O 0.78105 0.20527 0.01464 0.0
Cd256 Cd 0.75289 0.21651 0.00572 0.0
O257 O 0.72279 0.21972 0.995 0.0
C258 C 0.7186 0.21558 0.97628 0.0
O259 O 0.73268 0.2102 0.96397 0.0
C260 C 0.79751 0.21547 0.01795 0.0
C261 C 0.80272 0.15007 0.05652 0.0
O262 O 0.82015 0.15328 0.04895 0.0
O263 O 0.78815 0.1562 0.04646 0.0
H264 H 0.97824 0.35984 0.81428 0.0
H265 H 0.03929 0.3753 0.83169 0.0
H266 H 0.98679 0.32691 0.80197 0.0
H267 H 0.0478 0.34215 0.81926 0.0
H268 H 0.0545 0.28881 0.77123 0.0
H269 H 0.04876 0.32208 0.78552 0.0
H270 H 0.99789 0.29578 0.81841 0.0
H271 H 0.00351 0.26264 0.80424 0.0
C272 C 0.99351 0.35627 0.8154 0.0
C273 C 0.00807 0.3702 0.82404 0.0
C274 C 0.99837 0.33733 0.80848 0.0
C275 C 0.01792 0.3319 0.80987 0.0
C276 C 0.03262 0.34597 0.818 0.0
C277 C 0.02772 0.3649 0.82514 0.0
C278 C 0.04227 0.29007 0.78175 0.0
C279 C 0.02937 0.27306 0.78645 0.0
C280 C 0.03902 0.30912 0.78995 0.0
C281 C 0.02272 0.31154 0.80284 0.0
C282 C 0.01037 0.29441 0.80823 0.0
C283 C 0.0137 0.27539 0.8002 0.0
H284 H 0.82612 0.61536 0.3956 0.0
H285 H 0.80412 0.55243 0.39705 0.0
H286 H 0.84669 0.60832 0.36613 0.0
H287 H 0.82497 0.54539 0.36761 0.0
H288 H 0.84687 0.54776 0.29985 0.0
H289 H 0.82687 0.55324 0.33039 0.0
H290 H 0.87582 0.59024 0.35754 0.0
H291 H 0.89567 0.58501 0.32708 0.0
C292 C 0.82577 0.59999 0.38974 0.0
C293 C 0.81345 0.58447 0.39869 0.0
C294 C 0.83764 0.59595 0.37289 0.0
C295 C 0.83744 0.5763 0.36454 0.0
C296 C 0.82527 0.56072 0.37358 0.0
C297 C 0.81344 0.56474 0.39052 0.0
C298 C 0.85336 0.55701 0.31237 0.0
C299 C 0.87282 0.56602 0.31099 0.0
C300 C 0.84195 0.56005 0.3299 0.0
C301 C 0.84976 0.57224 0.34633 0.0
C302 C 0.8693 0.581 0.34502 0.0
C303 C 0.8807 0.5779 0.32758 0.0
H304 H 0.48778 0.29942 0.77331 0.0
H305 H 0.54936 0.29268 0.75969 0.0
H306 H 0.4912 0.28236 0.80576 0.0
H307 H 0.55282 0.27585 0.79242 0.0
H308 H 0.54416 0.22764 0.84296 0.0
H309 H 0.5418 0.24447 0.8101 0.0
H310 H 0.5076 0.28911 0.83891 0.0
H311 H 0.50966 0.27217 0.87166 0.0
C312 C 0.50206 0.2943 0.77722 0.0
C313 C 0.51831 0.29748 0.76389 0.0
C314 C 0.50404 0.28464 0.79591 0.0
C315 C 0.52232 0.2779 0.80175 0.0
C316 C 0.5385 0.28075 0.78829 0.0
C317 C 0.53653 0.29045 0.76957 0.0
C318 C 0.53621 0.2411 0.84231 0.0
C319 C 0.52702 0.2485 0.85994 0.0
C320 C 0.53494 0.25079 0.82349 0.0
C321 C 0.5244 0.26804 0.82187 0.0
C322 C 0.51555 0.27565 0.83958 0.0
C323 C 0.51685 0.26601 0.85839 0.0
H324 H 0.91947 0.06772 0.31392 0.0
H325 H 0.88887 0.01728 0.34498 0.0
H326 H 0.89708 0.06188 0.28462 0.0
H327 H 0.86636 0.01171 0.31596 0.0
H328 H 0.83381 -0.00126 0.25708 0.0
H329 H 0.86243 0.00185 0.27997 0.0
H330 H 0.86218 0.06683 0.2793 0.0
H331 H 0.83385 0.06377 0.25612 0.0
C332 C 0.90814 0.05523 0.3144 0.0
C333 C 0.90582 0.04309 0.33188 0.0
C334 C 0.89526 0.05196 0.29765 0.0
C335 C 0.87983 0.03644 0.29802 0.0
C336 C 0.87819 0.02367 0.31507 0.0
C337 C 0.89104 0.02695 0.3318 0.0
C338 C 0.84005 0.01371 0.26153 0.0
C339 C 0.83138 0.03101 0.25495 0.0
C340 C 0.8564 0.01547 0.27474 0.0
C341 C 0.86446 0.03457 0.28164 0.0
C342 C 0.85646 0.05189 0.27415 0.0
C343 C 0.84012 0.05013 0.26094 0.0
H344 H 0.33451 0.70149 0.12921 0.0
H345 H 0.28466 0.72844 0.10272 0.0
H346 H 0.35341 0.73429 0.12971 0.0
H347 H 0.30375 0.76118 0.10281 0.0
H348 H 0.33389 0.81832 0.1354 0.0
H349 H 0.31549 0.78578 0.12888 0.0
H350 H 0.36934 0.76089 0.10897 0.0
H351 H 0.38784 0.79333 0.11591 0.0
C352 C 0.32769 0.71433 0.12316 0.0
C353 C 0.30801 0.71234 0.11608 0.0
C354 C 0.33857 0.73315 0.12335 0.0
C355 C 0.33005 0.7504 0.11641 0.0
C356 C 0.31064 0.74826 0.10857 0.0
C357 C 0.29974 0.72945 0.10841 0.0
C358 C 0.34177 0.80599 0.12941 0.0
C359 C 0.36236 0.80838 0.12635 0.0
C360 C 0.3312 0.78734 0.12556 0.0
C361 C 0.34097 0.77068 0.11852 0.0
C362 C 0.36143 0.77332 0.1147 0.0
C363 C 0.372 0.79196 0.11857 0.0
H364 H 0.32689 0.77763 0.59685 0.0
H365 H 0.34244 0.77527 0.66116 0.0
H366 H 0.30002 0.79859 0.60564 0.0
H367 H 0.3158 0.79628 0.66983 0.0
H368 H 0.25061 0.80821 0.67868 0.0
H369 H 0.27942 0.79057 0.66943 0.0
H370 H 0.29269 0.83241 0.62026 0.0
H371 H 0.26398 0.8504 0.62981 0.0
C372 C 0.32474 0.78176 0.61281 0.0
C373 C 0.3367 0.77461 0.62832 0.0
C374 C 0.30941 0.79384 0.61783 0.0
C375 C 0.30568 0.79891 0.63844 0.0
C376 C 0.31809 0.79235 0.65383 0.0
C377 C 0.33343 0.78038 0.64884 0.0
C378 C 0.25969 0.81376 0.66594 0.0
C379 C 0.25469 0.83051 0.65472 0.0
C380 C 0.27626 0.80366 0.66069 0.0
C381 C 0.28831 0.81007 0.64409 0.0
C382 C 0.28349 0.82694 0.63293 0.0
C383 C 0.26691 0.83715 0.63829 0.0
H384 H 0.11029 0.78379 0.42138 0.0
H385 H 0.1217 0.80613 0.36013 0.0
H386 H 0.11007 0.74923 0.4083 0.0
H387 H 0.12175 0.77151 0.34712 0.0
H388 H 0.10779 0.70608 0.32747 0.0
H389 H 0.10155 0.7394 0.34109 0.0
H390 H 0.13576 0.72862 0.39528 0.0
H391 H 0.14178 0.69529 0.38185 0.0
C392 C 0.11257 0.78135 0.40509 0.0
C393 C 0.11619 0.79774 0.39183 0.0
C394 C 0.11254 0.76152 0.39763 0.0
C395 C 0.11608 0.75762 0.37672 0.0
C396 C 0.11882 0.77399 0.36329 0.0
C397 C 0.11889 0.79385 0.37076 0.0
C398 C 0.11377 0.71072 0.34241 0.0
C399 C 0.12538 0.69806 0.35353 0.0
C400 C 0.11029 0.72986 0.35014 0.0
C401 C 0.11824 0.73669 0.36921 0.0
C402 C 0.12924 0.72373 0.38064 0.0
C403 C 0.13279 0.70465 0.37288 0.0
H404 H 0.34656 0.59002 0.78492 0.0
H405 H 0.34222 0.52476 0.78426 0.0
H406 H 0.32269 0.58984 0.8129 0.0
H407 H 0.31806 0.52461 0.81209 0.0
H408 H 0.28734 0.53181 0.87366 0.0
H409 H 0.31419 0.53338 0.84861 0.0
H410 H 0.28727 0.58079 0.81692 0.0
H411 H 0.26064 0.57948 0.84208 0.0
C412 C 0.34057 0.57562 0.79078 0.0
C413 C 0.34623 0.55739 0.78228 0.0
C414 C 0.3268 0.57553 0.80676 0.0
C415 C 0.3184 0.55722 0.81465 0.0
C416 C 0.32442 0.53898 0.8065 0.0
C417 C 0.33817 0.53906 0.79047 0.0
C418 C 0.28725 0.54272 0.86148 0.0
C419 C 0.27179 0.55548 0.85985 0.0
C420 C 0.30257 0.54351 0.84704 0.0
C421 C 0.30282 0.55713 0.83072 0.0
C422 C 0.28765 0.57027 0.82944 0.0
C423 C 0.27231 0.56945 0.84382 0.0
H424 H 0.60378 0.87542 0.37863 0.0
H425 H 0.54517 0.87189 0.35201 0.0
H426 H 0.60226 0.83874 0.37965 0.0
H427 H 0.54396 0.83505 0.35223 0.0
H428 H 0.54173 0.76976 0.37581 0.0
H429 H 0.54213 0.80655 0.37588 0.0
H430 H 0.60298 0.81062 0.35544 0.0
H431 H 0.6028 0.77399 0.35621 0.0
C432 C 0.5906 0.8668 0.37285 0.0
C433 C 0.57477 0.87658 0.3648 0.0
C434 C 0.5898 0.84576 0.3733 0.0
C435 C 0.57309 0.83395 0.36579 0.0
C436 C 0.55705 0.84372 0.35813 0.0
C437 C 0.55788 0.86484 0.35765 0.0
C438 C 0.55532 0.77853 0.37184 0.0
C439 C 0.57239 0.76899 0.36656 0.0
C440 C 0.55544 0.7996 0.3715 0.0
C441 C 0.57264 0.81154 0.36583 0.0
C442 C 0.5896 0.80191 0.36025 0.0
C443 C 0.58945 0.78091 0.36055 0.0
H444 H 0.277 0.09661 0.95686 0.0
H445 H 0.32412 0.08196 0.91592 0.0
H446 H 0.25371 0.09381 0.92811 0.0
H447 H 0.30081 0.07865 0.88739 0.0
H448 H 0.25984 0.09403 0.83652 0.0
H449 H 0.28193 0.09912 0.86603 0.0
H450 H 0.23702 0.06946 0.9048 0.0
H451 H 0.21472 0.06487 0.87542 0.0
C452 C 0.28235 0.09261 0.94178 0.0
C453 C 0.30243 0.08956 0.93867 0.0
C454 C 0.26899 0.09096 0.9253 0.0
C455 C 0.27541 0.08616 0.90539 0.0
C456 C 0.29543 0.08279 0.90242 0.0
C457 C 0.30877 0.08452 0.91884 0.0
C458 C 0.25459 0.08878 0.85138 0.0
C459 C 0.23554 0.07896 0.85357 0.0
C460 C 0.26732 0.09155 0.86828 0.0
C461 C 0.26134 0.08448 0.88776 0.0
C462 C 0.24206 0.07524 0.89008 0.0
C463 C 0.22929 0.07254 0.87319 0.0
H464 H 0.76966 0.24215 0.02678 0.0
H465 H 0.83015 0.23924 0.00687 0.0
H466 H 0.77279 0.27873 0.02232 0.0
H467 H 0.83354 0.27578 0.00318 0.0
H468 H 0.82505 0.33613 0.9742 0.0
H469 H 0.82074 0.29997 0.97971 0.0
H470 H 0.79009 0.31027 0.03662 0.0
H471 H 0.79418 0.34672 0.03097 0.0
C472 C 0.78353 0.24927 0.02125 0.0
C473 C 0.79947 0.23775 0.0166 0.0
C474 C 0.78544 0.27027 0.01904 0.0
C475 C 0.80334 0.28013 0.01215 0.0
C476 C 0.81943 0.26861 0.00812 0.0
C477 C 0.81754 0.24769 0.01039 0.0
C478 C 0.81735 0.33076 0.9879 0.0
C479 C 0.81003 0.34435 0.0022 0.0
C480 C 0.81499 0.31 0.99111 0.0
C481 C 0.80524 0.30225 0.00869 0.0
C482 C 0.79758 0.31578 0.02286 0.0
C483 C 0.8 0.33665 0.01967 0.0
H484 H 0.8218 0.3551 0.58108 0.0
H485 H 0.77584 0.33132 0.62208 0.0
H486 H 0.83198 0.32116 0.57523 0.0
H487 H 0.78613 0.29741 0.6165 0.0
H488 H 0.80234 0.23611 0.59367 0.0
H489 H 0.78911 0.26921 0.5929 0.0
H490 H 0.8487 0.29795 0.59524 0.0
H491 H 0.86184 0.2651 0.59549 0.0
C492 C 0.81373 0.34257 0.58867 0.0
C493 C 0.79791 0.34588 0.6019 0.0
C494 C 0.81961 0.32313 0.5854 0.0
C495 C 0.80997 0.30653 0.5955 0.0
C496 C 0.7937 0.30977 0.60821 0.0
C497 C 0.78773 0.32924 0.61137 0.0
C498 C 0.8126 0.24951 0.59374 0.0
C499 C 0.83315 0.24795 0.59473 0.0
C500 C 0.80501 0.26848 0.59343 0.0
C501 C 0.81782 0.28628 0.59407 0.0
C502 C 0.83838 0.28462 0.59443 0.0
C503 C 0.84593 0.26572 0.59471 0.0
H504 H 0.16355 0.11215 0.76587 0.0
H505 H 0.12683 0.09944 0.81912 0.0
H506 H 0.14242 0.13827 0.75587 0.0
H507 H 0.1061 0.12603 0.80956 0.0
H508 H 0.06051 0.15866 0.77398 0.0
H509 H 0.08204 0.13324 0.78479 0.0
H510 H 0.13314 0.17107 0.76462 0.0
H511 H 0.11149 0.19618 0.75315 0.0
C512 C 0.15107 0.11507 0.77555 0.0
C513 C 0.14682 0.10366 0.79325 0.0
C514 C 0.13901 0.13015 0.76989 0.0
C515 C 0.1225 0.1343 0.78188 0.0
C516 C 0.11846 0.12304 0.79975 0.0
C517 C 0.13042 0.10786 0.80531 0.0
C518 C 0.07635 0.16158 0.77192 0.0
C519 C 0.08428 0.17942 0.76266 0.0
C520 C 0.08873 0.14704 0.77823 0.0
C521 C 0.10938 0.15005 0.77559 0.0
C522 C 0.11731 0.16807 0.76659 0.0
C523 C 0.1049 0.18254 0.76013 0.0
H524 H 0.05948 0.59459 0.28803 0.0
H525 H 0.05038 0.63921 0.24212 0.0
H526 H 0.02821 0.57617 0.27828 0.0
H527 H 0.01926 0.62052 0.23207 0.0
H528 H 0.95376 0.59608 0.24162 0.0
H529 H 0.98649 0.61348 0.24654 0.0
H530 H 0.01166 0.55605 0.25081 0.0
H531 H 0.9788 0.53858 0.24631 0.0
C532 C 0.05089 0.60039 0.27574 0.0
C533 C 0.05736 0.61843 0.26594 0.0
C534 C 0.03303 0.58973 0.27002 0.0
C535 C 0.02124 0.59686 0.25436 0.0
C536 C 0.02788 0.61475 0.24434 0.0
C537 C 0.04575 0.62542 0.25006 0.0
C538 C 0.96629 0.58713 0.24331 0.0
C539 C 0.96361 0.56592 0.24375 0.0
C540 C 0.9851 0.59712 0.24605 0.0
C541 C 0.00167 0.58616 0.24927 0.0
C542 C 0.99913 0.56494 0.24874 0.0
C543 C 0.98031 0.55493 0.24601 0.0
H544 H 0.46078 0.38699 0.68407 0.0
H545 H 0.46036 0.39776 0.74975 0.0
H546 H 0.44126 0.41592 0.67924 0.0
H547 H 0.44069 0.42625 0.74495 0.0
H548 H 0.4219 0.48764 0.72905 0.0
H549 H 0.44338 0.46016 0.73148 0.0
H550 H 0.40767 0.42579 0.68603 0.0
H551 H 0.38635 0.45349 0.68329 0.0
C552 C 0.45656 0.39553 0.69745 0.0
C553 C 0.46215 0.39008 0.71729 0.0
C554 C 0.44529 0.41202 0.6947 0.0
C555 C 0.43947 0.42343 0.71171 0.0
C556 C 0.44519 0.418 0.73149 0.0
C557 C 0.45638 0.40156 0.73425 0.0
C558 C 0.41868 0.47428 0.71948 0.0
C559 C 0.40234 0.47271 0.70606 0.0
C560 C 0.43094 0.45848 0.72095 0.0
C561 C 0.42716 0.44072 0.70906 0.0
C562 C 0.4111 0.43934 0.69527 0.0
C563 C 0.39881 0.45517 0.69379 0.0
H564 H 0.70618 0.00074 0.25173 0.0
H565 H 0.73738 0.95933 0.28769 0.0
H566 H 0.67679 0.99374 0.2731 0.0
H567 H 0.70807 0.95219 0.30872 0.0
H568 H 0.66199 0.96356 0.35731 0.0
H569 H 0.69017 0.97051 0.33458 0.0
H570 H 0.65091 0.96676 0.28207 0.0
H571 H 0.62256 0.96007 0.3049 0.0
C572 C 0.70671 0.99001 0.26403 0.0
C573 C 0.72417 0.9807 0.26809 0.0
C574 C 0.68986 0.98596 0.27623 0.0
C575 C 0.69018 0.97258 0.29274 0.0
C576 C 0.70747 0.96288 0.29638 0.0
C577 C 0.72424 0.96688 0.28421 0.0
C578 C 0.65933 0.96428 0.34093 0.0
C579 C 0.64003 0.9612 0.33292 0.0
C580 C 0.6755 0.96813 0.32788 0.0
C581 C 0.67279 0.96902 0.3065 0.0
C582 C 0.65347 0.96629 0.29848 0.0
C583 C 0.63725 0.96237 0.31156 0.0
H584 H 0.06798 0.46043 0.89506 0.0
H585 H 0.05488 0.48906 0.83803 0.0
H586 H 0.09922 0.48131 0.89759 0.0
H587 H 0.08588 0.51032 0.84085 0.0
H588 H 0.15332 0.52419 0.83907 0.0
H589 H 0.12066 0.50612 0.83767 0.0
H590 H 0.1141 0.51535 0.90313 0.0
H591 H 0.14715 0.53306 0.90463 0.0
C592 C 0.07166 0.47134 0.88318 0.0
C593 C 0.05901 0.47298 0.86626 0.0
C594 C 0.08952 0.48342 0.88471 0.0
C595 C 0.09511 0.49745 0.86939 0.0
C596 C 0.08218 0.49944 0.85275 0.0
C597 C 0.06436 0.48732 0.85118 0.0
C598 C 0.14491 0.52247 0.85318 0.0
C599 C 0.1529 0.52999 0.87199 0.0
C600 C 0.12608 0.51221 0.85234 0.0
C601 C 0.11473 0.50928 0.87028 0.0
C602 C 0.12257 0.51712 0.88906 0.0
C603 C 0.14146 0.52736 0.88991 0.0
H604 H 0.62593 0.68108 0.41522 0.0
H605 H 0.65646 0.68941 0.35729 0.0
H606 H 0.65657 0.67193 0.43116 0.0
H607 H 0.68689 0.68012 0.37314 0.0
H608 H 0.7425 0.68124 0.41094 0.0
H609 H 0.71164 0.69319 0.39875 0.0
H610 H 0.67863 0.64387 0.42919 0.0
H611 H 0.70956 0.63198 0.44164 0.0
C612 C 0.63916 0.68099 0.4059 0.0
C613 C 0.63876 0.68597 0.38498 0.0
C614 C 0.65667 0.67567 0.41502 0.0
C615 C 0.67416 0.67539 0.40344 0.0
C616 C 0.67374 0.6805 0.38256 0.0
C617 C 0.65626 0.68568 0.37344 0.0
C618 C 0.72868 0.67305 0.41526 0.0
C619 C 0.72852 0.65553 0.4271 0.0
C620 C 0.71099 0.67985 0.40816 0.0
C621 C 0.69272 0.66933 0.41278 0.0
C622 C 0.69248 0.65236 0.42544 0.0
C623 C 0.7102 0.64551 0.43251 0.0
H624 H 0.48478 0.17099 0.95395 0.0
H625 H 0.46682 0.21932 0.9931 0.0
H626 H 0.45964 0.14778 0.96938 0.0
H627 H 0.4419 0.19588 0.00895 0.0
H628 H 0.38159 0.15686 0.00335 0.0
H629 H 0.41073 0.17968 -0.00303 0.0
H630 H 0.44748 0.12965 -0.00068 0.0
H631 H 0.41814 0.10662 0.00524 0.0
C632 C 0.47573 0.17659 0.96615 0.0
C633 C 0.47763 0.19709 0.97208 0.0
C634 C 0.46139 0.16321 0.97514 0.0
C635 C 0.44862 0.16999 0.99031 0.0
C636 C 0.45128 0.19025 -0.00293 0.0
C637 C 0.46563 0.20366 0.98804 0.0
C638 C 0.3959 0.15073 0.00287 0.0
C639 C 0.39746 0.12985 0.00451 0.0
C640 C 0.41268 0.16387 -0.00066 0.0
C641 C 0.43145 0.15648 -0.00258 0.0
C642 C 0.43319 0.13577 0.00036 0.0
C643 C 0.41637 0.1226 0.00387 0.0
H644 H 0.97632 0.98339 0.42874 0.0
H645 H 0.00991 0.01978 0.38442 0.0
H646 H 0.0032 0.96138 0.43117 0.0
H647 H 0.03644 0.99732 0.38613 0.0
H648 H 0.08842 0.96389 0.40667 0.0
H649 H 0.06226 0.9869 0.40665 0.0
H650 H 0.01841 0.93621 0.41259 0.0
H651 H 0.04466 0.91336 0.4135 0.0
C652 C 0.98943 0.98664 0.41944 0.0
C653 C 0.99098 0.00333 0.40638 0.0
C654 C 0.00481 0.97393 0.42072 0.0
C655 C 0.02203 0.97745 0.40878 0.0
C656 C 0.02359 0.99427 0.39582 0.0
C657 C 0.0083 0.00711 0.39473 0.0
C658 C 0.07318 0.95769 0.40805 0.0
C659 C 0.06861 0.9368 0.41009 0.0
C660 C 0.05814 0.97087 0.4079 0.0
C661 C 0.03813 0.96348 0.40955 0.0
C662 C 0.03362 0.94254 0.41164 0.0
C663 C 0.04868 0.92939 0.41203 0.0
H664 H 0.76739 0.10528 0.17763 0.0
H665 H 0.79751 0.05753 0.14868 0.0
H666 H 0.77346 0.12601 0.14722 0.0
H667 H 0.80354 0.07826 0.11835 0.0
H668 H 0.82944 0.13005 0.07804 0.0
H669 H 0.8236 0.11045 0.10919 0.0
H670 H 0.76276 0.12531 0.11002 0.0
H671 H 0.76854 0.14494 0.07885 0.0
C672 C 0.77529 0.0992 0.16479 0.0
C673 C 0.78197 0.07976 0.16556 0.0
C674 C 0.77868 0.11104 0.14736 0.0
C675 C 0.78901 0.10376 0.13046 0.0
C676 C 0.79572 0.08435 0.13125 0.0
C677 C 0.79215 0.07243 0.14857 0.0
C678 C 0.81484 0.12924 0.08492 0.0
C679 C 0.79944 0.13901 0.07595 0.0
C680 C 0.81148 0.11791 0.10268 0.0
C681 C 0.79271 0.11629 0.11197 0.0
C682 C 0.77741 0.12641 0.10326 0.0
C683 C 0.78071 0.13757 0.08537 0.0
H684 H 0.93823 0.19403 0.74236 0.0
H685 H 0.98594 0.17145 0.70708 0.0
H686 H 0.91542 0.18524 0.71426 0.0
H687 H 0.96286 0.16194 0.67909 0.0
H688 H 0.92399 0.18077 0.62508 0.0
H689 H 0.9465 0.18036 0.65404 0.0
H690 H 0.89763 0.16019 0.69338 0.0
H691 H 0.8749 0.16129 0.6644 0.0
C692 C 0.94378 0.18677 0.72876 0.0
C693 C 0.96398 0.18372 0.72684 0.0
C694 C 0.93062 0.18157 0.71266 0.0
C695 C 0.9373 0.17302 0.69429 0.0
C696 C 0.95729 0.16885 0.69287 0.0
C697 C 0.97051 0.1742 0.70895 0.0
C698 C 0.91804 0.17597 0.63983 0.0
C699 C 0.89759 0.17135 0.64248 0.0
C700 C 0.93102 0.17558 0.65646 0.0
C701 C 0.92389 0.17041 0.67614 0.0
C702 C 0.90358 0.16463 0.67852 0.0
C703 C 0.89055 0.16515 0.66189 0.0
H704 H 0.86534 0.51689 0.18608 0.0
H705 H 0.90905 0.47315 0.18552 0.0
H706 H 0.85288 0.50394 0.15289 0.0
H707 H 0.89723 0.46075 0.15194 0.0
H708 H 0.85847 0.42892 0.10236 0.0
H709 H 0.87054 0.4419 0.13565 0.0
H710 H 0.86014 0.50244 0.11749 0.0
H711 H 0.84727 0.48926 0.08455 0.0
C712 C 0.87242 0.50463 0.17876 0.0
C713 C 0.88813 0.49599 0.18846 0.0
C714 C 0.86536 0.49727 0.15964 0.0
C715 C 0.874 0.48125 0.14965 0.0
C716 C 0.88992 0.47282 0.1593 0.0
C717 C 0.89681 0.48002 0.17852 0.0
C718 C 0.85875 0.445 0.1055 0.0
C719 C 0.85188 0.45805 0.09084 0.0
C720 C 0.86581 0.45249 0.12456 0.0
C721 C 0.8664 0.47327 0.12934 0.0
C722 C 0.85961 0.48632 0.11455 0.0
C723 C 0.85234 0.47879 0.09558 0.0
H724 H 0.58385 0.29998 0.65972 0.0
H725 H 0.59795 0.36033 0.68415 0.0
H726 H 0.61741 0.29983 0.64604 0.0
H727 H 0.63147 0.36007 0.67064 0.0
H728 H 0.6833 0.36057 0.62629 0.0
H729 H 0.64896 0.36005 0.63743 0.0
H730 H 0.65171 0.29938 0.65946 0.0
H731 H 0.68611 0.29977 0.64812 0.0
C732 C 0.59408 0.31323 0.66212 0.0
C733 C 0.58823 0.33018 0.67303 0.0
C734 C 0.61333 0.31308 0.65439 0.0
C735 C 0.62708 0.32993 0.65726 0.0
C736 C 0.62114 0.34694 0.66796 0.0
C737 C 0.60196 0.34705 0.67579 0.0
C738 C 0.67659 0.34705 0.63339 0.0
C739 C 0.6875 0.33023 0.63639 0.0
C740 C 0.65692 0.34681 0.63988 0.0
C741 C 0.64766 0.32973 0.64944 0.0
C742 C 0.6584 0.31271 0.65199 0.0
C743 C 0.67813 0.31298 0.64558 0.0
H744 H 0.74735 0.52309 0.49918 0.0
H745 H 0.80953 0.54319 0.50253 0.0
H746 H 0.75227 0.49698 0.52401 0.0
H747 H 0.81483 0.51634 0.52643 0.0
H748 H 0.81472 0.4791 0.58444 0.0
H749 H 0.81004 0.50551 0.55987 0.0
H750 H 0.76505 0.46614 0.52876 0.0
H751 H 0.769 0.44028 0.55416 0.0
C752 C 0.76213 0.52177 0.50509 0.0
C753 C 0.77804 0.5352 0.49897 0.0
C754 C 0.76502 0.50666 0.51923 0.0
C755 C 0.784 0.50436 0.52727 0.0
C756 C 0.79994 0.5178 0.52095 0.0
C757 C 0.79695 0.53315 0.50712 0.0
C758 C 0.80388 0.47612 0.5723 0.0
C759 C 0.79218 0.45767 0.57126 0.0
C760 C 0.80124 0.49123 0.55809 0.0
C761 C 0.78709 0.48811 0.54224 0.0
C762 C 0.77575 0.46937 0.54098 0.0
C763 C 0.77812 0.45443 0.55544 0.0
H764 H 0.59461 0.23469 0.95212 0.0
H765 H 0.60612 0.18085 0.91756 0.0
H766 H 0.629 0.23825 0.96373 0.0
H767 H 0.64033 0.18418 0.92949 0.0
H768 H 0.70487 0.20725 0.93733 0.0
H769 H 0.67075 0.20567 0.9252 0.0
H770 H 0.65144 0.22186 0.98608 0.0
H771 H 0.68564 0.22385 -0.00185 0.0
C772 C 0.60445 0.22357 0.94707 0.0
C773 C 0.59763 0.20749 0.93391 0.0
C774 C 0.62413 0.22556 0.9538 0.0
C775 C 0.63743 0.21153 0.9475 0.0
C776 C 0.63056 0.19544 0.93437 0.0
C777 C 0.6109 0.19345 0.92765 0.0
C778 C 0.69337 0.21059 0.94812 0.0
C779 C 0.69798 0.21561 0.96873 0.0
C780 C 0.67379 0.20955 0.94119 0.0
C781 C 0.65834 0.2135 0.9547 0.0
C782 C 0.663 0.21891 0.97522 0.0
C783 C 0.6826 0.21996 0.98216 0.0
H784 H 0.91659 0.1756 0.5195 0.0
H785 H 0.87506 0.12457 0.53282 0.0
H786 H 0.93116 0.15599 0.49231 0.0
H787 H 0.88932 0.10513 0.50534 0.0
H788 H 0.9301 0.06927 0.46697 0.0
H789 H 0.91901 0.08906 0.496 0.0
H790 H 0.92267 0.14232 0.45851 0.0
H791 H 0.93415 0.12271 0.42968 0.0
C792 C 0.91051 0.16022 0.51658 0.0
C793 C 0.89462 0.15167 0.52829 0.0
C794 C 0.91883 0.14901 0.50094 0.0
C795 C 0.91143 0.12898 0.49665 0.0
C796 C 0.89559 0.12041 0.50844 0.0
C797 C 0.88729 0.13162 0.52409 0.0
C798 C 0.92879 0.08526 0.465 0.0
C799 C 0.93294 0.09437 0.44595 0.0
C800 C 0.92227 0.09657 0.4816 0.0
C801 C 0.91977 0.11724 0.47954 0.0
C802 C 0.9246 0.12648 0.4607 0.0
C803 C 0.93112 0.11519 0.44413 0.0
H804 H 0.9605 0.44048 0.9251 0.0
H805 H 0.9216 0.45239 0.87486 0.0
H806 H 0.9341 0.44551 0.94944 0.0
H807 H 0.89526 0.45795 0.89933 0.0
H808 H 0.84853 0.42982 0.94535 0.0
H809 H 0.87476 0.43506 0.92016 0.0
H810 H 0.91196 0.46756 0.9657 0.0
H811 H 0.88575 0.46187 0.99119 0.0
C812 C 0.94645 0.44462 0.91926 0.0
C813 C 0.94306 0.44569 0.89802 0.0
C814 C 0.93132 0.44766 0.93326 0.0
C815 C 0.91247 0.45192 0.92633 0.0
C816 C 0.9095 0.45432 0.90514 0.0
C817 C 0.92463 0.45122 0.89113 0.0
C818 C 0.86216 0.43837 0.94996 0.0
C819 C 0.86512 0.44517 0.97039 0.0
C820 C 0.8772 0.44152 0.93543 0.0
C821 C 0.89556 0.4516 0.94093 0.0
C822 C 0.8981 0.45946 0.96105 0.0
C823 C 0.88304 0.45629 0.97563 0.0
H824 H 0.23065 0.61545 0.16543 0.0
H825 H 0.26718 0.64329 0.21425 0.0
H826 H 0.2034 0.60926 0.18962 0.0
H827 H 0.23986 0.63773 0.23819 0.0
H828 H 0.19018 0.61997 0.28052 0.0
H829 H 0.21757 0.61507 0.25712 0.0
H830 H 0.18155 0.63098 0.20596 0.0
H831 H 0.15414 0.63526 0.22913 0.0
C832 C 0.23294 0.62004 0.18136 0.0
C833 C 0.25099 0.63012 0.18785 0.0
C834 C 0.2173 0.61659 0.1952 0.0
C835 C 0.21933 0.62323 0.2158 0.0
C836 C 0.23778 0.63222 0.22251 0.0
C837 C 0.25344 0.63556 0.20871 0.0
C838 C 0.18801 0.62206 0.26423 0.0
C839 C 0.17005 0.62825 0.25674 0.0
C840 C 0.20374 0.61935 0.25082 0.0
C841 C 0.20186 0.62283 0.22967 0.0
C842 C 0.18351 0.62794 0.22209 0.0
C843 C 0.1678 0.63056 0.23546 0.0
H844 H 0.17526 0.86178 0.45687 0.0
H845 H 0.14522 0.91387 0.47584 0.0
H846 H 0.19219 0.86226 0.48973 0.0
H847 H 0.16271 0.91468 0.50873 0.0
H848 H 0.17491 0.88937 0.57317 0.0
H849 H 0.16142 0.89451 0.5392 0.0
H850 H 0.21653 0.87967 0.5117 0.0
H851 H 0.22984 0.87392 0.54575 0.0
C852 C 0.17248 0.87355 0.46794 0.0
C853 C 0.15872 0.88768 0.46377 0.0
C854 C 0.18235 0.87392 0.48678 0.0
C855 C 0.17879 0.88847 0.50193 0.0
C856 C 0.16558 0.90308 0.4975 0.0
C857 C 0.15563 0.90269 0.47861 0.0
C858 C 0.18423 0.88738 0.5599 0.0
C859 C 0.20337 0.881 0.56215 0.0
C860 C 0.17653 0.89049 0.5404 0.0
C861 C 0.18783 0.8874 0.52268 0.0
C862 C 0.2073 0.88184 0.525 0.0
C863 C 0.21496 0.87862 0.54452 0.0
H864 H 0.23561 0.65219 0.0435 0.0
H865 H 0.25921 0.60158 0.07295 0.0
H866 H 0.23227 0.63293 0.01139 0.0
H867 H 0.25486 0.58181 0.04122 0.0
H868 H 0.26199 0.5569 0.97688 0.0
H869 H 0.26681 0.57728 0.00816 0.0
H870 H 0.21379 0.60665 0.9945 0.0
H871 H 0.20972 0.58701 0.96266 0.0
C872 C 0.23991 0.63685 0.04314 0.0
C873 C 0.24769 0.6284 0.06072 0.0
C874 C 0.23786 0.62571 0.02474 0.0
C875 C 0.24322 0.6057 0.02358 0.0
C876 C 0.25093 0.59727 0.0413 0.0
C877 C 0.25331 0.60855 0.05959 0.0
C878 C 0.25142 0.56777 0.98056 0.0
C879 C 0.23549 0.57037 0.96732 0.0
C880 C 0.25408 0.57939 -0.00139 0.0
C881 C 0.24065 0.59364 0.00405 0.0
C882 C 0.22467 0.59615 0.99073 0.0
C883 C 0.22223 0.58478 0.9725 0.0
H884 H 0.43245 0.74948 0.53592 0.0
H885 H 0.39749 0.7097 0.49422 0.0
H886 H 0.45703 0.75632 0.50901 0.0
H887 H 0.42227 0.71617 0.46751 0.0
H888 H 0.46108 0.74628 0.41813 0.0
H889 H 0.43601 0.7423 0.44494 0.0
H890 H 0.48197 0.7392 0.49058 0.0
H891 H 0.50705 0.74364 0.46386 0.0
C892 C 0.43001 0.74219 0.52102 0.0
C893 C 0.41301 0.72904 0.51721 0.0
C894 C 0.44416 0.74602 0.50563 0.0
C895 C 0.44164 0.73679 0.4861 0.0
C896 C 0.42454 0.72377 0.48227 0.0
C897 C 0.41039 0.71996 0.49764 0.0
C898 C 0.46585 0.74489 0.43391 0.0
C899 C 0.48607 0.74523 0.43884 0.0
C900 C 0.45146 0.74248 0.44926 0.0
C901 C 0.45696 0.74033 0.4699 0.0
C902 C 0.47721 0.74105 0.47488 0.0
C903 C 0.4916 0.74349 0.45953 0.0
H904 H 0.38158 0.01161 0.03182 0.0
H905 H 0.33375 0.03434 0.06669 0.0
H906 H 0.38458 0.98546 0.05714 0.0
H907 H 0.33607 0.00764 0.09157 0.0
H908 H 0.37168 0.92854 0.09427 0.0
H909 H 0.36905 0.95509 0.06932 0.0
H910 H 0.35548 0.99642 0.11834 0.0
H911 H 0.35723 0.96953 0.14311 0.0
C912 C 0.37159 0.01091 0.04482 0.0
C913 C 0.35744 0.02505 0.04726 0.0
C914 C 0.37321 0.99581 0.05931 0.0
C915 C 0.36054 0.99431 0.07645 0.0
C916 C 0.34633 0.00848 0.0788 0.0
C917 C 0.34489 0.02374 0.06445 0.0
C918 C 0.36815 0.94331 0.09971 0.0
C919 C 0.36463 0.94693 0.12066 0.0
C920 C 0.36676 0.95861 0.0854 0.0
C921 C 0.36206 0.978 0.09173 0.0
C922 C 0.35876 0.98162 0.11278 0.0
C923 C 0.3599 0.96623 0.12704 0.0
H924 H 0.47146 0.91073 0.30299 0.0
H925 H 0.51611 0.88975 0.26238 0.0
H926 H 0.4481 0.90978 0.27445 0.0
H927 H 0.49294 0.88936 0.2337 0.0
H928 H 0.43888 0.86742 0.19438 0.0
H929 H 0.46353 0.87041 0.22161 0.0
H930 H 0.44087 0.92597 0.24278 0.0
H931 H 0.41573 0.92267 0.21579 0.0
C932 C 0.47634 0.90604 0.28794 0.0
C933 C 0.49562 0.90022 0.28498 0.0
C934 C 0.46299 0.90566 0.27152 0.0
C935 C 0.46863 0.89953 0.25174 0.0
C936 C 0.488 0.89389 0.24877 0.0
C937 C 0.50132 0.89418 0.26521 0.0
C938 C 0.43922 0.88039 0.20472 0.0
C939 C 0.42524 0.89476 0.20294 0.0
C940 C 0.45346 0.88215 0.2203 0.0
C941 C 0.45416 0.89839 0.23446 0.0
C942 C 0.44054 0.91309 0.23234 0.0
C943 C 0.42622 0.91129 0.21677 0.0
H944 H 0.23845 0.0184 0.72496 0.0
H945 H 0.18628 0.00542 0.76224 0.0
H946 H 0.23406 0.98441 0.70993 0.0
H947 H 0.18189 0.97155 0.74711 0.0
H948 H 0.1984 0.90617 0.73762 0.0
H949 H 0.20082 0.94112 0.74989 0.0
H950 H 0.21122 0.96155 0.68785 0.0
H951 H 0.20888 0.92648 0.6755 0.0
C952 C 0.22591 0.00841 0.72976 0.0
C953 C 0.21282 0.01457 0.74492 0.0
C954 C 0.22337 0.98897 0.72109 0.0
C955 C 0.20775 0.97527 0.72751 0.0
C956 C 0.19424 0.98169 0.7421 0.0
C957 C 0.1967 0.00114 0.75066 0.0
C958 C 0.2012 0.91809 0.72657 0.0
C959 C 0.20345 0.91355 0.70559 0.0
C960 C 0.20244 0.93812 0.73359 0.0
C961 C 0.20609 0.95407 0.71981 0.0
C962 C 0.20849 0.94956 0.69883 0.0
C963 C 0.20708 0.92949 0.69177 0.0
H964 H 0.41473 0.59195 0.68616 0.0
H965 H 0.36692 0.56558 0.64785 0.0
H966 H 0.41855 0.62102 0.66375 0.0
H967 H 0.37032 0.59491 0.62584 0.0
H968 H 0.38479 0.64723 0.58418 0.0
H969 H 0.38927 0.61571 0.60172 0.0
H970 H 0.39895 0.6489 0.65901 0.0
H971 H 0.39503 0.68025 0.64148 0.0
C972 C 0.40519 0.59223 0.67281 0.0
C973 C 0.39033 0.57657 0.66896 0.0
C974 C 0.40731 0.60896 0.66003 0.0
C975 C 0.39452 0.61049 0.64319 0.0
C976 C 0.38052 0.5942 0.63858 0.0
C977 C 0.37849 0.5774 0.65129 0.0
C978 C 0.38817 0.6478 0.60046 0.0
C979 C 0.38939 0.66626 0.61145 0.0
C980 C 0.39065 0.62973 0.61053 0.0
C981 C 0.39438 0.62972 0.6318 0.0
C982 C 0.39638 0.6483 0.64257 0.0
C983 C 0.39397 0.66633 0.63252 0.0
loop_
_geom_bond_atom_site_label_1
_geom_bond_atom_site_label_2
_geom_bond_distance
_geom_bond_site_symmetry_2
_ccdc_geom_bond_type
O0 Cd1 2.300 . S
O0 C7 1.325 . S
Cd1 O0 2.300 . S
Cd1 O9 2.381 . S
Cd1 O10 2.378 . S
O2 Cd3 2.385 . S
O2 C7 1.222 1_655 S
Cd3 O2 2.385 . S
Cd3 O4 2.317 . S
O4 Cd3 2.317 . S
O4 C5 1.232 . S
C5 O4 1.232 . S
C5 O6 1.218 . S
O6 C5 1.218 . S
C7 O0 1.325 . S
C7 O2 1.222 1_455 S
C8 O9 1.258 . S
C8 O10 1.256 . S
O9 Cd1 2.381 . S
O9 C8 1.258 . S
O10 Cd1 2.378 . S
O10 C8 1.256 . S
O11 Cd12 2.300 . S
O11 C18 1.275 . S
Cd12 O11 2.300 . S
Cd12 O20 2.381 . S
Cd12 O21 2.378 . S
O13 Cd14 2.385 . S
O13 C18 1.255 . S
Cd14 O13 2.385 . S
Cd14 O15 2.317 . S
O15 Cd14 2.317 . S
O15 C16 1.232 . S
C16 O15 1.232 . S
C16 O17 1.218 . S
O17 C16 1.218 . S
C18 O11 1.275 . S
C18 O13 1.255 . S
C19 O20 1.258 . S
C19 O21 1.256 . S
O20 Cd12 2.381 . S
O20 C19 1.258 . S
O21 Cd12 2.378 . S
O21 C19 1.256 . S
O22 Cd23 2.300 . S
O22 C29 1.275 . S
Cd23 O22 2.300 . S
Cd23 O31 2.381 . S
Cd23 O32 2.378 . S
O24 Cd25 2.385 . S
O24 C29 1.255 . S
Cd25 O24 2.385 . S
Cd25 O26 2.317 . S
O26 Cd25 2.317 . S
O26 C27 1.232 . S
C27 O26 1.232 . S
C27 O28 1.218 . S
O28 C27 1.218 . S
C29 O22 1.275 . S
C29 O24 1.255 . S
C30 O31 1.258 . S
C30 O32 1.256 . S
O31 Cd23 2.381 . S
O31 C30 1.258 . S
O32 Cd23 2.378 . S
O32 C30 1.256 . S
O33 Cd34 2.300 . S
O33 C40 1.275 . S
Cd34 O33 2.300 . S
Cd34 O42 2.381 . S
Cd34 O43 2.378 . S
O35 Cd36 2.385 1_545 S
O35 C40 1.255 . S
Cd36 O35 2.385 1_565 S
Cd36 O37 2.317 1_565 S
O37 Cd36 2.317 1_545 S
O37 C38 1.232 . S
C38 O37 1.232 . S
C38 O39 1.218 1_545 S
O39 C38 1.218 1_565 S
C40 O33 1.275 . S
C40 O35 1.255 . S
C41 O42 1.258 . S
C41 O43 1.256 . S
O42 Cd34 2.381 . S
O42 C41 1.258 . S
O43 Cd34 2.378 . S
O43 C41 1.256 . S
O44 Cd45 2.300 . S
O44 C51 1.275 1_455 S
Cd45 O44 2.300 . S
Cd45 O53 2.381 . S
Cd45 O54 2.378 . S
O46 Cd47 2.385 . S
O46 C51 1.255 . S
Cd47 O46 2.385 . S
Cd47 O48 2.317 . S
O48 Cd47 2.317 . S
O48 C49 1.232 . S
C49 O48 1.232 . S
C49 O50 1.218 . S
O50 C49 1.218 . S
C51 O44 1.275 1_655 S
C51 O46 1.255 . S
C52 O53 1.258 . S
C52 O54 1.256 . S
O53 Cd45 2.381 . S
O53 C52 1.258 . S
O54 Cd45 2.378 . S
O54 C52 1.256 . S
O55 Cd56 2.300 . S
O55 C62 1.275 . S
Cd56 O55 2.300 . S
Cd56 O64 2.381 . S
Cd56 O65 2.378 . S
O57 Cd58 2.385 . S
O57 C62 1.255 . S
Cd58 O57 2.385 . S
Cd58 O59 2.317 . S
O59 Cd58 2.317 . S
O59 C60 1.232 . S
C60 O59 1.232 . S
C60 O61 1.218 . S
O61 C60 1.218 . S
C62 O55 1.275 . S
C62 O57 1.255 . S
C63 O64 1.258 . S
C63 O65 1.256 . S
O64 Cd56 2.381 . S
O64 C63 1.258 . S
O65 Cd56 2.378 . S
O65 C63 1.256 . S
O66 Cd67 2.300 . S
O66 C73 1.275 . S
Cd67 O66 2.300 . S
Cd67 O75 2.381 . S
Cd67 O76 2.378 . S
O68 Cd69 2.385 . S
O68 C73 1.255 . S
Cd69 O68 2.385 . S
Cd69 O70 2.317 . S
O70 Cd69 2.317 . S
O70 C71 1.232 . S
C71 O70 1.232 . S
C71 O72 1.218 . S
O72 C71 1.218 . S
C73 O66 1.275 . S
C73 O68 1.255 . S
C74 O75 1.258 . S
C74 O76 1.256 . S
O75 Cd67 2.381 . S
O75 C74 1.258 . S
O76 Cd67 2.378 . S
O76 C74 1.256 . S
O77 Cd78 2.300 . S
O77 C84 1.275 . S
Cd78 O77 2.300 . S
Cd78 O86 2.381 . S
Cd78 O87 2.378 . S
O79 Cd80 2.385 . S
O79 C84 1.255 . S
Cd80 O79 2.385 . S
Cd80 O81 2.317 . S
O81 Cd80 2.317 . S
O81 C82 1.232 . S
C82 O81 1.232 . S
C82 O83 1.218 . S
O83 C82 1.218 . S
C84 O77 1.275 . S
C84 O79 1.255 . S
C85 O86 1.258 . S
C85 O87 1.256 . S
O86 Cd78 2.381 . S
O86 C85 1.258 . S
O87 Cd78 2.378 . S
O87 C85 1.256 . S
O88 Cd89 2.300 . S
O88 C95 1.275 . S
Cd89 O88 2.300 . S
Cd89 O97 2.381 . S
Cd89 O98 2.378 . S
O90 Cd91 2.385 . S
O90 C95 1.255 . S
Cd91 O90 2.385 . S
Cd91 O92 2.317 . S
O92 Cd91 2.317 . S
O92 C93 1.232 . S
C93 O92 1.232 . S
C93 O94 1.218 . S
O94 C93 1.218 . S
C95 O88 1.275 . S
C95 O90 1.255 . S
C96 O97 1.258 . S
C96 O98 1.256 . S
O97 Cd89 2.381 . S
O97 C96 1.258 . S
O98 Cd89 2.378 . S
O98 C96 1.256 . S
O99 Cd100 2.300 . S
O99 C106 1.275 . S
Cd100 O99 2.300 . S
Cd100 O108 2.381 . S
Cd100 O109 2.378 . S
O101 Cd102 2.385 . S
O101 C106 1.255 . S
Cd102 O101 2.385 . S
Cd102 O103 2.317 . S
O103 Cd102 2.317 . S
O103 C104 1.232 . S
C104 O103 1.232 . S
C104 O105 1.218 . S
O105 C104 1.218 . S
C106 O99 1.275 . S
C106 O101 1.255 . S
C107 O108 1.258 . S
C107 O109 1.256 . S
O108 Cd100 2.381 . S
O108 C107 1.258 . S
O109 Cd100 2.378 . S
O109 C107 1.256 . S
O110 Cd111 2.300 . S
O110 C117 1.275 . S
Cd111 O110 2.300 . S
Cd111 O119 2.381 . S
Cd111 O120 2.378 . S
O112 Cd113 2.385 . S
O112 C117 1.255 . S
Cd113 O112 2.385 . S
Cd113 O114 2.317 . S
O114 Cd113 2.317 . S
O114 C115 1.232 . S
C115 O114 1.232 . S
C115 O116 1.218 . S
O116 C115 1.218 . S
C117 O110 1.275 . S
C117 O112 1.255 . S
C118 O119 1.258 . S
C118 O120 1.256 . S
O119 Cd111 2.381 . S
O119 C118 1.258 . S
O120 Cd111 2.378 . S
O120 C118 1.256 . S
O121 Cd122 2.300 . S
O121 C128 1.275 . S
Cd122 O121 2.300 . S
Cd122 O130 2.381 . S
Cd122 O131 2.378 . S
O123 Cd124 2.385 . S
O123 C128 1.255 . S
Cd124 O123 2.385 . S
Cd124 O125 2.317 . S
O125 Cd124 2.317 . S
O125 C126 1.232 . S
C126 O125 1.232 . S
C126 O127 1.218 . S
O127 C126 1.218 . S
C128 O121 1.275 . S
C128 O123 1.255 . S
C129 O130 1.258 . S
C129 O131 1.256 . S
O130 Cd122 2.381 . S
O130 C129 1.258 . S
O131 Cd122 2.378 . S
O131 C129 1.256 . S
O132 Cd133 2.300 . S
O132 C139 1.275 . S
Cd133 O132 2.300 . S
Cd133 O141 2.381 . S
Cd133 O142 2.378 . S
O134 Cd135 2.385 . S
O134 C139 1.255 . S
Cd135 O134 2.385 . S
Cd135 O136 2.317 . S
O136 Cd135 2.317 . S
O136 C137 1.232 . S
C137 O136 1.232 . S
C137 O138 1.218 . S
O138 C137 1.218 . S
C139 O132 1.275 . S
C139 O134 1.255 . S
C140 O141 1.258 . S
C140 O142 1.256 . S
O141 Cd133 2.381 . S
O141 C140 1.258 . S
O142 Cd133 2.378 . S
O142 C140 1.256 . S
O143 Cd144 2.300 . S
O143 C150 1.275 . S
Cd144 O143 2.300 . S
Cd144 O152 2.381 . S
Cd144 O153 2.378 . S
O145 Cd146 2.385 . S
O145 C150 1.255 . S
Cd146 O145 2.385 . S
Cd146 O147 2.317 . S
O147 Cd146 2.317 . S
O147 C148 1.232 . S
C148 O147 1.232 . S
C148 O149 1.218 . S
O149 C148 1.218 . S
C150 O143 1.275 . S
C150 O145 1.255 . S
C151 O152 1.258 . S
C151 O153 1.256 . S
O152 Cd144 2.381 . S
O152 C151 1.258 . S
O153 Cd144 2.378 . S
O153 C151 1.256 . S
O154 Cd155 2.300 . S
O154 C161 1.275 . S
Cd155 O154 2.300 . S
Cd155 O163 2.381 . S
Cd155 O164 2.378 . S
O156 Cd157 2.385 . S
O156 C161 1.255 . S
Cd157 O156 2.385 . S
Cd157 O158 2.317 . S
O158 Cd157 2.317 . S
O158 C159 1.232 . S
C159 O158 1.232 . S
C159 O160 1.218 . S
O160 C159 1.218 . S
C161 O154 1.275 . S
C161 O156 1.255 . S
C162 O163 1.258 . S
C162 O164 1.256 . S
O163 Cd155 2.381 . S
O163 C162 1.258 . S
O164 Cd155 2.378 . S
O164 C162 1.256 . S
O165 Cd166 2.282 1_556 S
O165 C172 1.275 . S
Cd166 O165 2.282 1_554 S
Cd166 O174 2.397 . S
Cd166 O175 2.405 . S
O167 Cd168 2.385 . S
O167 C172 1.255 . S
Cd168 O167 2.385 . S
Cd168 O169 2.317 . S
O169 Cd168 2.317 . S
O169 C170 1.232 . S
C170 O169 1.232 . S
C170 O171 1.218 . S
O171 C170 1.218 . S
C172 O165 1.275 . S
C172 O167 1.255 . S
C173 O174 1.258 . S
C173 O175 1.256 . S
O174 Cd166 2.397 . S
O174 C173 1.258 . S
O175 Cd166 2.405 . S
O175 C173 1.256 . S
O176 Cd177 2.300 . S
O176 C183 1.275 . S
Cd177 O176 2.300 . S
Cd177 O185 2.381 . S
Cd177 O186 2.378 . S
O178 Cd179 2.385 . S
O178 C183 1.255 . S
Cd179 O178 2.385 . S
Cd179 O180 2.317 . S
O180 Cd179 2.317 . S
O180 C181 1.232 . S
C181 O180 1.232 . S
C181 O182 1.218 . S
O182 C181 1.218 . S
C183 O176 1.275 . S
C183 O178 1.255 . S
C184 O185 1.258 . S
C184 O186 1.256 . S
O185 Cd177 2.381 . S
O185 C184 1.258 . S
O186 Cd177 2.378 . S
O186 C184 1.256 . S
O187 Cd188 2.300 . S
O187 C194 1.275 . S
Cd188 O187 2.300 . S
Cd188 O196 2.381 . S
Cd188 O197 2.378 . S
O189 Cd190 2.385 . S
O189 C194 1.255 . S
Cd190 O189 2.385 . S
Cd190 O191 2.317 . S
O191 Cd190 2.317 . S
O191 C192 1.232 . S
C192 O191 1.232 . S
C192 O193 1.218 . S
O193 C192 1.218 . S
C194 O187 1.275 . S
C194 O189 1.255 . S
C195 O196 1.258 . S
C195 O197 1.256 . S
O196 Cd188 2.381 . S
O196 C195 1.258 . S
O197 Cd188 2.378 . S
O197 C195 1.256 . S
O198 Cd199 2.300 . S
O198 C205 1.275 . S
Cd199 O198 2.300 . S
Cd199 O207 2.381 . S
Cd199 O208 2.378 . S
O200 Cd201 2.385 . S
O200 C205 1.255 . S
Cd201 O200 2.385 . S
Cd201 O202 2.317 . S
O202 Cd201 2.317 . S
O202 C203 1.232 . S
C203 O202 1.232 . S
C203 O204 1.218 . S
O204 C203 1.218 . S
C205 O198 1.275 . S
C205 O200 1.255 . S
C206 O207 1.258 . S
C206 O208 1.256 . S
O207 Cd199 2.381 . S
O207 C206 1.258 . S
O208 Cd199 2.378 . S
O208 C206 1.256 . S
O209 Cd210 2.300 . S
O209 C216 1.275 . S
Cd210 O209 2.300 . S
Cd210 O218 2.381 . S
Cd210 O219 2.378 . S
O211 Cd212 2.385 . S
O211 C216 1.255 . S
Cd212 O211 2.385 . S
Cd212 O213 2.317 . S
O213 Cd212 2.317 . S
O213 C214 1.232 . S
C214 O213 1.232 . S
C214 O215 1.218 . S
O215 C214 1.218 . S
C216 O209 1.275 . S
C216 O211 1.255 . S
C217 O218 1.258 . S
C217 O219 1.256 . S
O218 Cd210 2.381 . S
O218 C217 1.258 . S
O219 Cd210 2.378 . S
O219 C217 1.256 . S
O220 Cd221 2.300 . S
O220 C227 1.275 1_554 S
Cd221 O220 2.300 . S
Cd221 O229 2.381 . S
Cd221 O230 2.378 . S
O222 Cd223 2.385 . S
O222 C227 1.255 . S
Cd223 O222 2.385 . S
Cd223 O224 2.317 1_556 S
O224 Cd223 2.317 1_554 S
O224 C225 1.232 1_554 S
C225 O224 1.232 1_556 S
C225 O226 1.218 . S
O226 C225 1.218 . S
C227 O220 1.275 1_556 S
C227 O222 1.255 . S
C228 O229 1.258 . S
C228 O230 1.256 . S
O229 Cd221 2.381 . S
O229 C228 1.258 . S
O230 Cd221 2.378 . S
O230 C228 1.256 . S
O231 Cd232 2.300 . S
O231 C238 1.275 . S
Cd232 O231 2.300 . S
Cd232 O240 2.381 . S
Cd232 O241 2.378 . S
O233 Cd234 2.385 . S
O233 C238 1.255 . S
Cd234 O233 2.385 . S
Cd234 O235 2.317 . S
O235 Cd234 2.317 . S
O235 C236 1.232 . S
C236 O235 1.232 . S
C236 O237 1.218 . S
O237 C236 1.218 . S
C238 O231 1.275 . S
C238 O233 1.255 . S
C239 O240 1.258 . S
C239 O241 1.256 . S
O240 Cd232 2.381 . S
O240 C239 1.258 . S
O241 Cd232 2.378 . S
O241 C239 1.256 . S
O242 Cd243 2.300 . S
O242 C249 1.275 . S
Cd243 O242 2.300 . S
Cd243 O251 2.381 . S
Cd243 O252 2.378 . S
O244 Cd245 2.385 . S
O244 C249 1.255 . S
Cd245 O244 2.385 . S
Cd245 O246 2.317 . S
O246 Cd245 2.317 . S
O246 C247 1.232 . S
C247 O246 1.232 . S
C247 O248 1.218 . S
O248 C247 1.218 . S
C249 O242 1.275 . S
C249 O244 1.255 . S
C250 O251 1.258 . S
C250 O252 1.256 . S
O251 Cd243 2.381 . S
O251 C250 1.258 . S
O252 Cd243 2.378 . S
O252 C250 1.256 . S
O253 Cd254 2.300 . S
O253 C260 1.276 1_554 S
Cd254 O253 2.300 . S
Cd254 O262 2.381 . S
Cd254 O263 2.378 . S
O255 Cd256 2.385 . S
O255 C260 1.256 1_554 S
Cd256 O255 2.385 . S
Cd256 O257 2.317 1_554 S
O257 Cd256 2.317 1_556 S
O257 C258 1.232 . S
C258 O257 1.232 . S
C258 O259 1.218 . S
O259 C258 1.218 . S
C260 O253 1.276 1_556 S
C260 O255 1.256 1_556 S
C261 O262 1.258 . S
C261 O263 1.256 . S
O262 Cd254 2.381 . S
O262 C261 1.258 . S
O263 Cd254 2.378 . S
O263 C261 1.256 . S
H264 C272 0.950 . S
H265 C277 0.950 . S
H266 C274 0.950 . S
H267 C276 0.950 . S
H268 C278 0.950 . S
H269 C280 0.950 . S
H270 C282 0.950 . S
H271 C283 0.950 . S
C272 H264 0.950 . S
C272 C273 1.386 . S
C272 C274 1.391 . S
C273 C272 1.386 . S
C273 C277 1.393 1_655 S
C274 H266 0.950 . S
C274 C272 1.391 . S
C274 C275 1.400 . S
C275 C274 1.400 . S
C275 C276 1.398 1_655 S
C275 C281 1.491 . S
C276 H267 0.950 . S
C276 C275 1.398 1_455 S
C276 C277 1.391 . S
C277 H265 0.950 . S
C277 C273 1.393 1_455 S
C277 C276 1.391 . S
C278 H268 0.950 . S
C278 C279 1.386 1_455 S
C278 C280 1.391 . S
C279 C278 1.386 1_655 S
C279 C283 1.393 . S
C280 H269 0.950 . S
C280 C278 1.391 . S
C280 C281 1.400 1_455 S
C281 C275 1.491 . S
C281 C280 1.400 1_655 S
C281 C282 1.398 . S
C282 H270 0.950 . S
C282 C281 1.398 . S
C282 C283 1.391 . S
C283 H271 0.950 . S
C283 C279 1.393 . S
C283 C282 1.391 . S
H284 C292 0.950 . S
H285 C297 0.950 . S
H286 C294 0.950 . S
H287 C296 0.950 . S
H288 C298 0.950 . S
H289 C300 0.950 . S
H290 C302 0.950 . S
H291 C303 0.950 . S
C292 H284 0.950 . S
C292 C293 1.386 . S
C292 C294 1.391 . S
C293 C292 1.386 . S
C293 C297 1.393 . S
C294 H286 0.950 . S
C294 C292 1.391 . S
C294 C295 1.400 . S
C295 C294 1.400 . S
C295 C296 1.398 . S
C295 C301 1.491 . S
C296 H287 0.950 . S
C296 C295 1.398 . S
C296 C297 1.391 . S
C297 H285 0.950 . S
C297 C293 1.393 . S
C297 C296 1.391 . S
C298 H288 0.950 . S
C298 C299 1.386 . S
C298 C300 1.391 . S
C299 C298 1.386 . S
C299 C303 1.393 . S
C300 H289 0.950 . S
C300 C298 1.391 . S
C300 C301 1.400 . S
C301 C295 1.491 . S
C301 C300 1.400 . S
C301 C302 1.398 . S
C302 H290 0.950 . S
C302 C301 1.398 . S
C302 C303 1.391 . S
C303 H291 0.950 . S
C303 C299 1.393 . S
C303 C302 1.391 . S
H304 C312 0.950 . S
H305 C317 0.950 . S
H306 C314 0.950 . S
H307 C316 0.950 . S
H308 C318 0.950 . S
H309 C320 0.950 . S
H310 C322 0.950 . S
H311 C323 0.950 . S
C312 H304 0.950 . S
C312 C313 1.386 . S
C312 C314 1.391 . S
C313 C312 1.386 . S
C313 C317 1.393 . S
C314 H306 0.950 . S
C314 C312 1.391 . S
C314 C315 1.400 . S
C315 C314 1.400 . S
C315 C316 1.398 . S
C315 C321 1.491 . S
C316 H307 0.950 . S
C316 C315 1.398 . S
C316 C317 1.391 . S
C317 H305 0.950 . S
C317 C313 1.393 . S
C317 C316 1.391 . S
C318 H308 0.950 . S
C318 C319 1.386 . S
C318 C320 1.391 . S
C319 C318 1.386 . S
C319 C323 1.393 . S
C320 H309 0.950 . S
C320 C318 1.391 . S
C320 C321 1.400 . S
C321 C315 1.491 . S
C321 C320 1.400 . S
C321 C322 1.398 . S
C322 H310 0.950 . S
C322 C321 1.398 . S
C322 C323 1.391 . S
C323 H311 0.950 . S
C323 C319 1.393 . S
C323 C322 1.391 . S
H324 C332 0.950 . S
H325 C337 0.950 . S
H326 C334 0.950 . S
H327 C336 0.950 . S
H328 C338 0.950 . S
H329 C340 0.950 . S
H330 C342 0.950 . S
H331 C343 0.950 . S
C332 H324 0.950 . S
C332 C333 1.386 . S
C332 C334 1.391 . S
C333 C332 1.386 . S
C333 C337 1.393 . S
C334 H326 0.950 . S
C334 C332 1.391 . S
C334 C335 1.400 . S
C335 C334 1.400 . S
C335 C336 1.398 . S
C335 C341 1.491 . S
C336 H327 0.950 . S
C336 C335 1.398 . S
C336 C337 1.391 . S
C337 H325 0.950 . S
C337 C333 1.393 . S
C337 C336 1.391 . S
C338 H328 0.950 . S
C338 C339 1.386 . S
C338 C340 1.391 . S
C339 C338 1.386 . S
C339 C343 1.393 . S
C340 H329 0.950 . S
C340 C338 1.391 . S
C340 C341 1.400 . S
C341 C335 1.491 . S
C341 C340 1.400 . S
C341 C342 1.398 . S
C342 H330 0.950 . S
C342 C341 1.398 . S
C342 C343 1.391 . S
C343 H331 0.950 . S
C343 C339 1.393 . S
C343 C342 1.391 . S
H344 C352 0.950 . S
H345 C357 0.950 . S
H346 C354 0.950 . S
H347 C356 0.950 . S
H348 C358 0.950 . S
H349 C360 0.950 . S
H350 C362 0.950 . S
H351 C363 0.950 . S
C352 H344 0.950 . S
C352 C353 1.386 . S
C352 C354 1.391 . S
C353 C352 1.386 . S
C353 C357 1.393 . S
C354 H346 0.950 . S
C354 C352 1.391 . S
C354 C355 1.400 . S
C355 C354 1.400 . S
C355 C356 1.398 . S
C355 C361 1.491 . S
C356 H347 0.950 . S
C356 C355 1.398 . S
C356 C357 1.391 . S
C357 H345 0.950 . S
C357 C353 1.393 . S
C357 C356 1.391 . S
C358 H348 0.950 . S
C358 C359 1.386 . S
C358 C360 1.391 . S
C359 C358 1.386 . S
C359 C363 1.393 . S
C360 H349 0.950 . S
C360 C358 1.391 . S
C360 C361 1.400 . S
C361 C355 1.491 . S
C361 C360 1.400 . S
C361 C362 1.398 . S
C362 H350 0.950 . S
C362 C361 1.398 . S
C362 C363 1.391 . S
C363 H351 0.950 . S
C363 C359 1.393 . S
C363 C362 1.391 . S
H364 C372 0.950 . S
H365 C377 0.950 . S
H366 C374 0.950 . S
H367 C376 0.950 . S
H368 C378 0.950 . S
H369 C380 0.950 . S
H370 C382 0.950 . S
H371 C383 0.950 . S
C372 H364 0.950 . S
C372 C373 1.386 . S
C372 C374 1.391 . S
C373 C372 1.386 . S
C373 C377 1.393 . S
C374 H366 0.950 . S
C374 C372 1.391 . S
C374 C375 1.400 . S
C375 C374 1.400 . S
C375 C376 1.398 . S
C375 C381 1.491 . S
C376 H367 0.950 . S
C376 C375 1.398 . S
C376 C377 1.391 . S
C377 H365 0.950 . S
C377 C373 1.393 . S
C377 C376 1.391 . S
C378 H368 0.950 . S
C378 C379 1.386 . S
C378 C380 1.391 . S
C379 C378 1.386 . S
C379 C383 1.393 . S
C380 H369 0.950 . S
C380 C378 1.391 . S
C380 C381 1.400 . S
C381 C375 1.491 . S
C381 C380 1.400 . S
C381 C382 1.398 . S
C382 H370 0.950 . S
C382 C381 1.398 . S
C382 C383 1.391 . S
C383 H371 0.950 . S
C383 C379 1.393 . S
C383 C382 1.391 . S
H384 C392 0.950 . S
H385 C397 0.950 . S
H386 C394 0.950 . S
H387 C396 0.950 . S
H388 C398 0.950 . S
H389 C400 0.950 . S
H390 C402 0.950 . S
H391 C403 0.950 . S
C392 H384 0.950 . S
C392 C393 1.386 . S
C392 C394 1.391 . S
C393 C392 1.386 . S
C393 C397 1.393 . S
C394 H386 0.950 . S
C394 C392 1.391 . S
C394 C395 1.400 . S
C395 C394 1.400 . S
C395 C396 1.398 . S
C395 C401 1.491 . S
C396 H387 0.950 . S
C396 C395 1.398 . S
C396 C397 1.391 . S
C397 H385 0.950 . S
C397 C393 1.393 . S
C397 C396 1.391 . S
C398 H388 0.950 . S
C398 C399 1.386 . S
C398 C400 1.391 . S
C399 C398 1.386 . S
C399 C403 1.393 . S
C400 H389 0.950 . S
C400 C398 1.391 . S
C400 C401 1.400 . S
C401 C395 1.491 . S
C401 C400 1.400 . S
C401 C402 1.398 . S
C402 H390 0.950 . S
C402 C401 1.398 . S
C402 C403 1.391 . S
C403 H391 0.950 . S
C403 C399 1.393 . S
C403 C402 1.391 . S
H404 C412 0.950 . S
H405 C417 0.950 . S
H406 C414 0.950 . S
H407 C416 0.950 . S
H408 C418 0.950 . S
H409 C420 0.950 . S
H410 C422 0.950 . S
H411 C423 0.950 . S
C412 H404 0.950 . S
C412 C413 1.386 . S
C412 C414 1.391 . S
C413 C412 1.386 . S
C413 C417 1.393 . S
C414 H406 0.950 . S
C414 C412 1.391 . S
C414 C415 1.400 . S
C415 C414 1.400 . S
C415 C416 1.398 . S
C415 C421 1.491 . S
C416 H407 0.950 . S
C416 C415 1.398 . S
C416 C417 1.391 . S
C417 H405 0.950 . S
C417 C413 1.393 . S
C417 C416 1.391 . S
C418 H408 0.950 . S
C418 C419 1.386 . S
C418 C420 1.391 . S
C419 C418 1.386 . S
C419 C423 1.393 . S
C420 H409 0.950 . S
C420 C418 1.391 . S
C420 C421 1.400 . S
C421 C415 1.491 . S
C421 C420 1.400 . S
C421 C422 1.398 . S
C422 H410 0.950 . S
C422 C421 1.398 . S
C422 C423 1.391 . S
C423 H411 0.950 . S
C423 C419 1.393 . S
C423 C422 1.391 . S
H424 C432 0.950 . S
H425 C437 0.950 . S
H426 C434 0.950 . S
H427 C436 0.950 . S
H428 C438 0.950 . S
H429 C440 0.950 . S
H430 C442 0.950 . S
H431 C443 0.950 . S
C432 H424 0.950 . S
C432 C433 1.386 . S
C432 C434 1.391 . S
C433 C432 1.386 . S
C433 C437 1.393 . S
C434 H426 0.950 . S
C434 C432 1.391 . S
C434 C435 1.400 . S
C435 C434 1.400 . S
C435 C436 1.398 . S
C435 C441 1.491 . S
C436 H427 0.950 . S
C436 C435 1.398 . S
C436 C437 1.391 . S
C437 H425 0.950 . S
C437 C433 1.393 . S
C437 C436 1.391 . S
C438 H428 0.950 . S
C438 C439 1.386 . S
C438 C440 1.391 . S
C439 C438 1.386 . S
C439 C443 1.393 . S
C440 H429 0.950 . S
C440 C438 1.391 . S
C440 C441 1.400 . S
C441 C435 1.491 . S
C441 C440 1.400 . S
C441 C442 1.398 . S
C442 H430 0.950 . S
C442 C441 1.398 . S
C442 C443 1.391 . S
C443 H431 0.950 . S
C443 C439 1.393 . S
C443 C442 1.391 . S
H444 C452 0.950 . S
H445 C457 0.950 . S
H446 C454 0.950 . S
H447 C456 0.950 . S
H448 C458 0.950 . S
H449 C460 0.950 . S
H450 C462 0.950 . S
H451 C463 0.950 . S
C452 H444 0.950 . S
C452 C453 1.386 . S
C452 C454 1.391 . S
C453 C452 1.386 . S
C453 C457 1.393 . S
C454 H446 0.950 . S
C454 C452 1.391 . S
C454 C455 1.400 . S
C455 C454 1.400 . S
C455 C456 1.398 . S
C455 C461 1.491 . S
C456 H447 0.950 . S
C456 C455 1.398 . S
C456 C457 1.391 . S
C457 H445 0.950 . S
C457 C453 1.393 . S
C457 C456 1.391 . S
C458 H448 0.950 . S
C458 C459 1.386 . S
C458 C460 1.391 . S
C459 C458 1.386 . S
C459 C463 1.393 . S
C460 H449 0.950 . S
C460 C458 1.391 . S
C460 C461 1.400 . S
C461 C455 1.491 . S
C461 C460 1.400 . S
C461 C462 1.398 . S
C462 H450 0.950 . S
C462 C461 1.398 . S
C462 C463 1.391 . S
C463 H451 0.950 . S
C463 C459 1.393 . S
C463 C462 1.391 . S
H464 C472 0.950 . S
H465 C477 0.950 . S
H466 C474 0.950 . S
H467 C476 0.950 . S
H468 C478 0.950 . S
H469 C480 0.950 . S
H470 C482 0.950 . S
H471 C483 0.950 . S
C472 H464 0.950 . S
C472 C473 1.386 1_554 S
C472 C474 1.391 . S
C473 C472 1.386 1_556 S
C473 C477 1.393 . S
C474 H466 0.950 . S
C474 C472 1.391 . S
C474 C475 1.400 1_554 S
C475 C474 1.400 1_556 S
C475 C476 1.398 . S
C475 C481 1.491 . S
C476 H467 0.950 . S
C476 C475 1.398 . S
C476 C477 1.391 . S
C477 H465 0.950 . S
C477 C473 1.393 . S
C477 C476 1.391 . S
C478 H468 0.950 . S
C478 C479 1.396 . S
C478 C480 1.391 . S
C479 C478 1.396 . S
C479 C483 1.383 1_556 S
C480 H469 0.950 . S
C480 C478 1.391 . S
C480 C481 1.400 . S
C481 C475 1.491 . S
C481 C480 1.400 . S
C481 C482 1.398 1_556 S
C482 H470 0.950 . S
C482 C481 1.398 1_554 S
C482 C483 1.391 . S
C483 H471 0.950 . S
C483 C479 1.383 1_554 S
C483 C482 1.391 . S
H484 C492 0.950 . S
H485 C497 0.950 . S
H486 C494 0.950 . S
H487 C496 0.950 . S
H488 C498 0.950 . S
H489 C500 0.950 . S
H490 C502 0.950 . S
H491 C503 0.950 . S
C492 H484 0.950 . S
C492 C493 1.386 . S
C492 C494 1.391 . S
C493 C492 1.386 . S
C493 C497 1.393 . S
C494 H486 0.950 . S
C494 C492 1.391 . S
C494 C495 1.400 . S
C495 C494 1.400 . S
C495 C496 1.398 . S
C495 C501 1.491 . S
C496 H487 0.950 . S
C496 C495 1.398 . S
C496 C497 1.391 . S
C497 H485 0.950 . S
C497 C493 1.393 . S
C497 C496 1.391 . S
C498 H488 0.950 . S
C498 C499 1.386 . S
C498 C500 1.391 . S
C499 C498 1.386 . S
C499 C503 1.393 . S
C500 H489 0.950 . S
C500 C498 1.391 . S
C500 C501 1.400 . S
C501 C495 1.491 . S
C501 C500 1.400 . S
C501 C502 1.398 . S
C502 H490 0.950 . S
C502 C501 1.398 . S
C502 C503 1.391 . S
C503 H491 0.950 . S
C503 C499 1.393 . S
C503 C502 1.391 . S
H504 C512 0.950 . S
H505 C517 0.950 . S
H506 C514 0.950 . S
H507 C516 0.950 . S
H508 C518 0.950 . S
H509 C520 0.950 . S
H510 C522 0.950 . S
H511 C523 0.950 . S
C512 H504 0.950 . S
C512 C513 1.386 . S
C512 C514 1.391 . S
C513 C512 1.386 . S
C513 C517 1.393 . S
C514 H506 0.950 . S
C514 C512 1.391 . S
C514 C515 1.400 . S
C515 C514 1.400 . S
C515 C516 1.398 . S
C515 C521 1.491 . S
C516 H507 0.950 . S
C516 C515 1.398 . S
C516 C517 1.391 . S
C517 H505 0.950 . S
C517 C513 1.393 . S
C517 C516 1.391 . S
C518 H508 0.950 . S
C518 C519 1.386 . S
C518 C520 1.391 . S
C519 C518 1.386 . S
C519 C523 1.393 . S
C520 H509 0.950 . S
C520 C518 1.391 . S
C520 C521 1.400 . S
C521 C515 1.491 . S
C521 C520 1.400 . S
C521 C522 1.398 . S
C522 H510 0.950 . S
C522 C521 1.398 . S
C522 C523 1.391 . S
C523 H511 0.950 . S
C523 C519 1.393 . S
C523 C522 1.391 . S
H524 C532 0.950 . S
H525 C537 0.950 . S
H526 C534 0.950 . S
H527 C536 0.954 . S
H528 C538 0.950 . S
H529 C540 0.950 . S
H530 C542 0.950 . S
H531 C543 0.950 . S
C532 H524 0.950 . S
C532 C533 1.386 . S
C532 C534 1.391 . S
C533 C532 1.386 . S
C533 C537 1.393 . S
C534 H526 0.950 . S
C534 C532 1.391 . S
C534 C535 1.400 . S
C535 C534 1.400 . S
C535 C536 1.398 . S
C535 C541 1.491 1_455 S
C536 H527 0.954 . S
C536 C535 1.398 . S
C536 C537 1.391 . S
C537 H525 0.950 . S
C537 C533 1.393 . S
C537 C536 1.391 . S
C538 H528 0.950 . S
C538 C539 1.386 . S
C538 C540 1.391 . S
C539 C538 1.386 . S
C539 C543 1.393 . S
C540 H529 0.950 . S
C540 C538 1.391 . S
C540 C541 1.400 . S
C541 C535 1.491 1_655 S
C541 C540 1.400 . S
C541 C542 1.398 . S
C542 H530 0.950 . S
C542 C541 1.398 . S
C542 C543 1.391 . S
C543 H531 0.950 . S
C543 C539 1.393 . S
C543 C542 1.391 . S
H544 C552 0.950 . S
H545 C557 0.950 . S
H546 C554 0.950 . S
H547 C556 0.950 . S
H548 C558 0.950 . S
H549 C560 0.950 . S
H550 C562 0.950 . S
H551 C563 0.950 . S
C552 H544 0.950 . S
C552 C553 1.386 . S
C552 C554 1.391 . S
C553 C552 1.386 . S
C553 C557 1.393 . S
C554 H546 0.950 . S
C554 C552 1.391 . S
C554 C555 1.400 . S
C555 C554 1.400 . S
C555 C556 1.398 . S
C555 C561 1.491 . S
C556 H547 0.950 . S
C556 C555 1.398 . S
C556 C557 1.391 . S
C557 H545 0.950 . S
C557 C553 1.393 . S
C557 C556 1.391 . S
C558 H548 0.950 . S
C558 C559 1.386 . S
C558 C560 1.391 . S
C559 C558 1.386 . S
C559 C563 1.393 . S
C560 H549 0.950 . S
C560 C558 1.391 . S
C560 C561 1.400 . S
C561 C555 1.491 . S
C561 C560 1.400 . S
C561 C562 1.398 . S
C562 H550 0.950 . S
C562 C561 1.398 . S
C562 C563 1.391 . S
C563 H551 0.950 . S
C563 C559 1.393 . S
C563 C562 1.391 . S
H564 C572 0.950 . S
H565 C577 0.950 . S
H566 C574 0.950 . S
H567 C576 0.957 . S
H568 C578 0.950 . S
H569 C580 0.950 . S
H570 C582 0.950 . S
H571 C583 0.950 . S
C572 H564 0.950 . S
C572 C573 1.386 1_565 S
C572 C574 1.391 . S
C573 C572 1.386 1_545 S
C573 C577 1.393 . S
C574 H566 0.950 . S
C574 C572 1.391 . S
C574 C575 1.400 . S
C575 C574 1.400 . S
C575 C576 1.383 1_565 S
C575 C581 1.491 . S
C576 H567 0.957 . S
C576 C575 1.383 1_545 S
C576 C577 1.399 . S
C577 H565 0.950 . S
C577 C573 1.393 . S
C577 C576 1.399 . S
C578 H568 0.950 . S
C578 C579 1.386 . S
C578 C580 1.391 . S
C579 C578 1.386 . S
C579 C583 1.393 . S
C580 H569 0.950 . S
C580 C578 1.391 . S
C580 C581 1.400 . S
C581 C575 1.491 . S
C581 C580 1.400 . S
C581 C582 1.398 . S
C582 H570 0.950 . S
C582 C581 1.398 . S
C582 C583 1.391 . S
C583 H571 0.950 . S
C583 C579 1.393 . S
C583 C582 1.391 . S
H584 C592 0.950 . S
H585 C597 0.950 . S
H586 C594 0.950 . S
H587 C596 0.950 . S
H588 C598 0.950 . S
H589 C600 0.950 . S
H590 C602 0.950 . S
H591 C603 0.950 . S
C592 H584 0.950 . S
C592 C593 1.386 . S
C592 C594 1.391 . S
C593 C592 1.386 . S
C593 C597 1.393 . S
C594 H586 0.950 . S
C594 C592 1.391 . S
C594 C595 1.400 . S
C595 C594 1.400 . S
C595 C596 1.398 . S
C595 C601 1.491 . S
C596 H587 0.950 . S
C596 C595 1.398 . S
C596 C597 1.391 . S
C597 H585 0.950 . S
C597 C593 1.393 . S
C597 C596 1.391 . S
C598 H588 0.950 . S
C598 C599 1.386 . S
C598 C600 1.391 . S
C599 C598 1.386 . S
C599 C603 1.393 . S
C600 H589 0.950 . S
C600 C598 1.391 . S
C600 C601 1.400 . S
C601 C595 1.491 . S
C601 C600 1.400 . S
C601 C602 1.398 . S
C602 H590 0.950 . S
C602 C601 1.398 . S
C602 C603 1.391 . S
C603 H591 0.950 . S
C603 C599 1.393 . S
C603 C602 1.391 . S
H604 C612 0.950 . S
H605 C617 0.950 . S
H606 C614 0.950 . S
H607 C616 0.950 . S
H608 C618 0.950 . S
H609 C620 0.950 . S
H610 C622 0.950 . S
H611 C623 0.950 . S
C612 H604 0.950 . S
C612 C613 1.386 . S
C612 C614 1.391 . S
C613 C612 1.386 . S
C613 C617 1.393 . S
C614 H606 0.950 . S
C614 C612 1.391 . S
C614 C615 1.400 . S
C615 C614 1.400 . S
C615 C616 1.398 . S
C615 C621 1.491 . S
C616 H607 0.950 . S
C616 C615 1.398 . S
C616 C617 1.391 . S
C617 H605 0.950 . S
C617 C613 1.393 . S
C617 C616 1.391 . S
C618 H608 0.950 . S
C618 C619 1.386 . S
C618 C620 1.391 . S
C619 C618 1.386 . S
C619 C623 1.393 . S
C620 H609 0.950 . S
C620 C618 1.391 . S
C620 C621 1.400 . S
C621 C615 1.491 . S
C621 C620 1.400 . S
C621 C622 1.398 . S
C622 H610 0.950 . S
C622 C621 1.398 . S
C622 C623 1.391 . S
C623 H611 0.950 . S
C623 C619 1.393 . S
C623 C622 1.391 . S
H624 C632 0.950 . S
H625 C637 0.950 . S
H626 C634 0.950 . S
H627 C636 0.950 . S
H628 C638 0.950 . S
H629 C640 0.950 . S
H630 C642 0.950 . S
H631 C643 0.950 . S
C632 H624 0.950 . S
C632 C633 1.386 . S
C632 C634 1.391 . S
C633 C632 1.386 . S
C633 C637 1.393 . S
C634 H626 0.950 . S
C634 C632 1.391 . S
C634 C635 1.400 . S
C635 C634 1.400 . S
C635 C636 1.398 . S
C635 C641 1.491 . S
C636 H627 0.950 . S
C636 C635 1.398 . S
C636 C637 1.391 . S
C637 H625 0.950 . S
C637 C633 1.393 . S
C637 C636 1.391 . S
C638 H628 0.950 . S
C638 C639 1.386 . S
C638 C640 1.391 . S
C639 C638 1.386 . S
C639 C643 1.393 . S
C640 H629 0.950 . S
C640 C638 1.391 . S
C640 C641 1.400 . S
C641 C635 1.491 . S
C641 C640 1.400 . S
C641 C642 1.398 . S
C642 H630 0.950 . S
C642 C641 1.398 . S
C642 C643 1.391 . S
C643 H631 0.950 . S
C643 C639 1.393 . S
C643 C642 1.391 . S
H644 C652 0.950 1_655 S
H645 C657 0.950 . S
H646 C654 0.950 . S
H647 C656 0.942 1_545 S
H648 C658 0.950 . S
H649 C660 0.950 . S
H650 C662 0.950 . S
H651 C663 0.950 . S
C652 H644 0.950 1_455 S
C652 C653 1.386 1_565 S
C652 C654 1.391 . S
C653 C652 1.386 1_545 S
C653 C657 1.393 . S
C654 H646 0.950 . S
C654 C652 1.391 . S
C654 C655 1.400 . S
C655 C654 1.400 . S
C655 C656 1.427 . S
C655 C661 1.491 . S
C656 H647 0.942 1_565 S
C656 C655 1.427 . S
C656 C657 1.370 1_565 S
C657 H645 0.950 . S
C657 C653 1.393 . S
C657 C656 1.370 1_545 S
C658 H648 0.950 . S
C658 C659 1.386 . S
C658 C660 1.391 . S
C659 C658 1.386 . S
C659 C663 1.393 . S
C660 H649 0.950 . S
C660 C658 1.391 . S
C660 C661 1.400 . S
C661 C655 1.491 . S
C661 C660 1.400 . S
C661 C662 1.398 . S
C662 H650 0.950 . S
C662 C661 1.398 . S
C662 C663 1.391 . S
C663 H651 0.950 . S
C663 C659 1.393 . S
C663 C662 1.391 . S
H664 C672 0.950 . S
H665 C677 0.950 . S
H666 C674 0.950 . S
H667 C676 0.950 . S
H668 C678 0.950 . S
H669 C680 0.950 . S
H670 C682 0.950 . S
H671 C683 0.950 . S
C672 H664 0.950 . S
C672 C673 1.386 . S
C672 C674 1.391 . S
C673 C672 1.386 . S
C673 C677 1.393 . S
C674 H666 0.950 . S
C674 C672 1.391 . S
C674 C675 1.400 . S
C675 C674 1.400 . S
C675 C676 1.398 . S
C675 C681 1.491 . S
C676 H667 0.950 . S
C676 C675 1.398 . S
C676 C677 1.391 . S
C677 H665 0.950 . S
C677 C673 1.393 . S
C677 C676 1.391 . S
C678 H668 0.950 . S
C678 C679 1.386 . S
C678 C680 1.391 . S
C679 C678 1.386 . S
C679 C683 1.393 . S
C680 H669 0.950 . S
C680 C678 1.391 . S
C680 C681 1.400 . S
C681 C675 1.491 . S
C681 C680 1.400 . S
C681 C682 1.398 . S
C682 H670 0.950 . S
C682 C681 1.398 . S
C682 C683 1.391 . S
C683 H671 0.950 . S
C683 C679 1.393 . S
C683 C682 1.391 . S
H684 C692 0.950 . S
H685 C697 0.950 . S
H686 C694 0.950 . S
H687 C696 0.950 . S
H688 C698 0.950 . S
H689 C700 0.950 . S
H690 C702 0.950 . S
H691 C703 0.950 . S
C692 H684 0.950 . S
C692 C693 1.386 . S
C692 C694 1.391 . S
C693 C692 1.386 . S
C693 C697 1.393 . S
C694 H686 0.950 . S
C694 C692 1.391 . S
C694 C695 1.400 . S
C695 C694 1.400 . S
C695 C696 1.398 . S
C695 C701 1.491 . S
C696 H687 0.950 . S
C696 C695 1.398 . S
C696 C697 1.391 . S
C697 H685 0.950 . S
C697 C693 1.393 . S
C697 C696 1.391 . S
C698 H688 0.950 . S
C698 C699 1.386 . S
C698 C700 1.391 . S
C699 C698 1.386 . S
C699 C703 1.393 . S
C700 H689 0.950 . S
C700 C698 1.391 . S
C700 C701 1.400 . S
C701 C695 1.491 . S
C701 C700 1.400 . S
C701 C702 1.398 . S
C702 H690 0.950 . S
C702 C701 1.398 . S
C702 C703 1.391 . S
C703 H691 0.950 . S
C703 C699 1.393 . S
C703 C702 1.391 . S
H704 C712 0.950 . S
H705 C717 0.950 . S
H706 C714 0.950 . S
H707 C716 0.950 . S
H708 C718 0.950 . S
H709 C720 0.950 . S
H710 C722 0.950 . S
H711 C723 0.950 . S
C712 H704 0.950 . S
C712 C713 1.386 . S
C712 C714 1.391 . S
C713 C712 1.386 . S
C713 C717 1.393 . S
C714 H706 0.950 . S
C714 C712 1.391 . S
C714 C715 1.400 . S
C715 C714 1.400 . S
C715 C716 1.398 . S
C715 C721 1.491 . S
C716 H707 0.950 . S
C716 C715 1.398 . S
C716 C717 1.391 . S
C717 H705 0.950 . S
C717 C713 1.393 . S
C717 C716 1.391 . S
C718 H708 0.950 . S
C718 C719 1.386 . S
C718 C720 1.391 . S
C719 C718 1.386 . S
C719 C723 1.393 . S
C720 H709 0.950 . S
C720 C718 1.391 . S
C720 C721 1.400 . S
C721 C715 1.491 . S
C721 C720 1.400 . S
C721 C722 1.398 . S
C722 H710 0.950 . S
C722 C721 1.398 . S
C722 C723 1.391 . S
C723 H711 0.950 . S
C723 C719 1.393 . S
C723 C722 1.391 . S
H724 C732 0.950 . S
H725 C737 0.950 . S
H726 C734 0.950 . S
H727 C736 0.950 . S
H728 C738 0.950 . S
H729 C740 0.950 . S
H730 C742 0.950 . S
H731 C743 0.950 . S
C732 H724 0.950 . S
C732 C733 1.386 . S
C732 C734 1.391 . S
C733 C732 1.386 . S
C733 C737 1.393 . S
C734 H726 0.950 . S
C734 C732 1.391 . S
C734 C735 1.400 . S
C735 C734 1.400 . S
C735 C736 1.398 . S
C735 C741 1.491 . S
C736 H727 0.950 . S
C736 C735 1.398 . S
C736 C737 1.391 . S
C737 H725 0.950 . S
C737 C733 1.393 . S
C737 C736 1.391 . S
C738 H728 0.950 . S
C738 C739 1.386 . S
C738 C740 1.391 . S
C739 C738 1.386 . S
C739 C743 1.393 . S
C740 H729 0.950 . S
C740 C738 1.391 . S
C740 C741 1.400 . S
C741 C735 1.491 . S
C741 C740 1.400 . S
C741 C742 1.398 . S
C742 H730 0.950 . S
C742 C741 1.398 . S
C742 C743 1.391 . S
C743 H731 0.950 . S
C743 C739 1.393 . S
C743 C742 1.391 . S
H744 C752 0.950 . S
H745 C757 0.950 . S
H746 C754 0.950 . S
H747 C756 0.950 . S
H748 C758 0.950 . S
H749 C760 0.950 . S
H750 C762 0.950 . S
H751 C763 0.950 . S
C752 H744 0.950 . S
C752 C753 1.386 . S
C752 C754 1.391 . S
C753 C752 1.386 . S
C753 C757 1.393 . S
C754 H746 0.950 . S
C754 C752 1.391 . S
C754 C755 1.400 . S
C755 C754 1.400 . S
C755 C756 1.398 . S
C755 C761 1.491 . S
C756 H747 0.950 . S
C756 C755 1.398 . S
C756 C757 1.391 . S
C757 H745 0.950 . S
C757 C753 1.393 . S
C757 C756 1.391 . S
C758 H748 0.950 . S
C758 C759 1.386 . S
C758 C760 1.391 . S
C759 C758 1.386 . S
C759 C763 1.393 . S
C760 H749 0.950 . S
C760 C758 1.391 . S
C760 C761 1.400 . S
C761 C755 1.491 . S
C761 C760 1.400 . S
C761 C762 1.398 . S
C762 H750 0.950 . S
C762 C761 1.398 . S
C762 C763 1.391 . S
C763 H751 0.950 . S
C763 C759 1.393 . S
C763 C762 1.391 . S
H764 C772 0.950 . S
H765 C777 0.950 . S
H766 C774 0.950 . S
H767 C776 0.950 . S
H768 C778 0.950 . S
H769 C780 0.950 . S
H770 C782 0.950 . S
H771 C783 0.950 . S
C772 H764 0.950 . S
C772 C773 1.386 . S
C772 C774 1.391 . S
C773 C772 1.386 . S
C773 C777 1.393 . S
C774 H766 0.950 . S
C774 C772 1.391 . S
C774 C775 1.400 . S
C775 C774 1.400 . S
C775 C776 1.398 . S
C775 C781 1.491 . S
C776 H767 0.950 . S
C776 C775 1.398 . S
C776 C777 1.391 . S
C777 H765 0.950 . S
C777 C773 1.393 . S
C777 C776 1.391 . S
C778 H768 0.950 . S
C778 C779 1.386 . S
C778 C780 1.391 . S
C779 C778 1.386 . S
C779 C783 1.393 . S
C780 H769 0.950 . S
C780 C778 1.391 . S
C780 C781 1.400 . S
C781 C775 1.491 . S
C781 C780 1.400 . S
C781 C782 1.398 . S
C782 H770 0.950 . S
C782 C781 1.398 . S
C782 C783 1.391 . S
C783 H771 0.950 . S
C783 C779 1.393 . S
C783 C782 1.391 . S
H784 C792 0.950 . S
H785 C797 0.950 . S
H786 C794 0.950 . S
H787 C796 0.950 . S
H788 C798 0.950 . S
H789 C800 0.950 . S
H790 C802 0.950 . S
H791 C803 0.950 . S
C792 H784 0.950 . S
C792 C793 1.386 . S
C792 C794 1.391 . S
C793 C792 1.386 . S
C793 C797 1.393 . S
C794 H786 0.950 . S
C794 C792 1.391 . S
C794 C795 1.400 . S
C795 C794 1.400 . S
C795 C796 1.398 . S
C795 C801 1.491 . S
C796 H787 0.950 . S
C796 C795 1.398 . S
C796 C797 1.391 . S
C797 H785 0.950 . S
C797 C793 1.393 . S
C797 C796 1.391 . S
C798 H788 0.950 . S
C798 C799 1.386 . S
C798 C800 1.391 . S
C799 C798 1.386 . S
C799 C803 1.393 . S
C800 H789 0.950 . S
C800 C798 1.391 . S
C800 C801 1.400 . S
C801 C795 1.491 . S
C801 C800 1.400 . S
C801 C802 1.398 . S
C802 H790 0.950 . S
C802 C801 1.398 . S
C802 C803 1.391 . S
C803 H791 0.950 . S
C803 C799 1.393 . S
C803 C802 1.391 . S
H804 C812 0.950 . S
H805 C817 0.950 . S
H806 C814 0.950 . S
H807 C816 0.950 . S
H808 C818 0.950 . S
H809 C820 0.950 . S
H810 C822 0.950 . S
H811 C823 0.950 . S
C812 H804 0.950 . S
C812 C813 1.386 . S
C812 C814 1.391 . S
C813 C812 1.386 . S
C813 C817 1.393 . S
C814 H806 0.950 . S
C814 C812 1.391 . S
C814 C815 1.400 . S
C815 C814 1.400 . S
C815 C816 1.398 . S
C815 C821 1.491 . S
C816 H807 0.950 . S
C816 C815 1.398 . S
C816 C817 1.391 . S
C817 H805 0.950 . S
C817 C813 1.393 . S
C817 C816 1.391 . S
C818 H808 0.950 . S
C818 C819 1.386 . S
C818 C820 1.391 . S
C819 C818 1.386 . S
C819 C823 1.393 . S
C820 H809 0.950 . S
C820 C818 1.391 . S
C820 C821 1.400 . S
C821 C815 1.491 . S
C821 C820 1.400 . S
C821 C822 1.398 . S
C822 H810 0.950 . S
C822 C821 1.398 . S
C822 C823 1.391 . S
C823 H811 0.950 . S
C823 C819 1.393 . S
C823 C822 1.391 . S
H824 C832 0.950 . S
H825 C837 0.950 . S
H826 C834 0.950 . S
H827 C836 0.950 . S
H828 C838 0.950 . S
H829 C840 0.950 . S
H830 C842 0.950 . S
H831 C843 0.950 . S
C832 H824 0.950 . S
C832 C833 1.386 . S
C832 C834 1.391 . S
C833 C832 1.386 . S
C833 C837 1.393 . S
C834 H826 0.950 . S
C834 C832 1.391 . S
C834 C835 1.400 . S
C835 C834 1.400 . S
C835 C836 1.398 . S
C835 C841 1.491 . S
C836 H827 0.950 . S
C836 C835 1.398 . S
C836 C837 1.391 . S
C837 H825 0.950 . S
C837 C833 1.393 . S
C837 C836 1.391 . S
C838 H828 0.950 . S
C838 C839 1.386 . S
C838 C840 1.391 . S
C839 C838 1.386 . S
C839 C843 1.393 . S
C840 H829 0.950 . S
C840 C838 1.391 . S
C840 C841 1.400 . S
C841 C835 1.491 . S
C841 C840 1.400 . S
C841 C842 1.398 . S
C842 H830 0.950 . S
C842 C841 1.398 . S
C842 C843 1.391 . S
C843 H831 0.950 . S
C843 C839 1.393 . S
C843 C842 1.391 . S
H844 C852 0.950 . S
H845 C857 0.950 . S
H846 C854 0.950 . S
H847 C856 0.950 . S
H848 C858 0.950 . S
H849 C860 0.950 . S
H850 C862 0.950 . S
H851 C863 0.950 . S
C852 H844 0.950 . S
C852 C853 1.386 . S
C852 C854 1.391 . S
C853 C852 1.386 . S
C853 C857 1.393 . S
C854 H846 0.950 . S
C854 C852 1.391 . S
C854 C855 1.400 . S
C855 C854 1.400 . S
C855 C856 1.398 . S
C855 C861 1.491 . S
C856 H847 0.950 . S
C856 C855 1.398 . S
C856 C857 1.391 . S
C857 H845 0.950 . S
C857 C853 1.393 . S
C857 C856 1.391 . S
C858 H848 0.950 . S
C858 C859 1.386 . S
C858 C860 1.391 . S
C859 C858 1.386 . S
C859 C863 1.393 . S
C860 H849 0.950 . S
C860 C858 1.391 . S
C860 C861 1.400 . S
C861 C855 1.491 . S
C861 C860 1.400 . S
C861 C862 1.398 . S
C862 H850 0.950 . S
C862 C861 1.398 . S
C862 C863 1.391 . S
C863 H851 0.950 . S
C863 C859 1.393 . S
C863 C862 1.391 . S
H864 C872 0.950 . S
H865 C877 0.950 . S
H866 C874 0.950 . S
H867 C876 0.950 . S
H868 C878 0.950 . S
H869 C880 0.950 . S
H870 C882 0.950 . S
H871 C883 0.950 . S
C872 H864 0.950 . S
C872 C873 1.386 . S
C872 C874 1.391 . S
C873 C872 1.386 . S
C873 C877 1.393 . S
C874 H866 0.950 . S
C874 C872 1.391 . S
C874 C875 1.400 . S
C875 C874 1.400 . S
C875 C876 1.398 . S
C875 C881 1.491 . S
C876 H867 0.950 . S
C876 C875 1.398 . S
C876 C877 1.391 . S
C877 H865 0.950 . S
C877 C873 1.393 . S
C877 C876 1.391 . S
C878 H868 0.950 . S
C878 C879 1.386 . S
C878 C880 1.391 1_556 S
C879 C878 1.386 . S
C879 C883 1.393 . S
C880 H869 0.950 . S
C880 C878 1.391 1_554 S
C880 C881 1.400 . S
C881 C875 1.491 . S
C881 C880 1.400 . S
C881 C882 1.398 . S
C882 H870 0.950 . S
C882 C881 1.398 . S
C882 C883 1.391 1_554 S
C883 H871 0.950 . S
C883 C879 1.393 . S
C883 C882 1.391 1_556 S
H884 C892 0.950 . S
H885 C897 0.950 . S
H886 C894 0.950 . S
H887 C896 0.950 . S
H888 C898 0.950 . S
H889 C900 0.950 . S
H890 C902 0.950 . S
H891 C903 0.950 . S
C892 H884 0.950 . S
C892 C893 1.386 . S
C892 C894 1.391 . S
C893 C892 1.386 . S
C893 C897 1.393 . S
C894 H886 0.950 . S
C894 C892 1.391 . S
C894 C895 1.400 . S
C895 C894 1.400 . S
C895 C896 1.398 . S
C895 C901 1.491 . S
C896 H887 0.950 . S
C896 C895 1.398 . S
C896 C897 1.391 . S
C897 H885 0.950 . S
C897 C893 1.393 . S
C897 C896 1.391 . S
C898 H888 0.950 . S
C898 C899 1.386 . S
C898 C900 1.391 . S
C899 C898 1.386 . S
C899 C903 1.393 . S
C900 H889 0.950 . S
C900 C898 1.391 . S
C900 C901 1.400 . S
C901 C895 1.491 . S
C901 C900 1.400 . S
C901 C902 1.398 . S
C902 H890 0.950 . S
C902 C901 1.398 . S
C902 C903 1.391 . S
C903 H891 0.950 . S
C903 C899 1.393 . S
C903 C902 1.391 . S
H904 C912 0.950 . S
H905 C917 0.950 . S
H906 C914 0.950 . S
H907 C916 0.950 1_565 S
H908 C918 0.950 . S
H909 C920 0.950 . S
H910 C922 0.950 . S
H911 C923 0.950 . S
C912 H904 0.950 . S
C912 C913 1.386 . S
C912 C914 1.391 . S
C913 C912 1.386 . S
C913 C917 1.393 . S
C914 H906 0.950 . S
C914 C912 1.391 . S
C914 C915 1.431 . S
C915 C914 1.431 . S
C915 C916 1.405 . S
C915 C921 1.456 1_545 S
C916 H907 0.950 1_545 S
C916 C915 1.405 . S
C916 C917 1.391 . S
C917 H905 0.950 . S
C917 C913 1.393 . S
C917 C916 1.391 . S
C918 H908 0.950 . S
C918 C919 1.386 . S
C918 C920 1.391 . S
C919 C918 1.386 . S
C919 C923 1.393 . S
C920 H909 0.950 . S
C920 C918 1.391 . S
C920 C921 1.400 . S
C921 C915 1.456 1_565 S
C921 C920 1.400 . S
C921 C922 1.398 . S
C922 H910 0.950 . S
C922 C921 1.398 . S
C922 C923 1.391 . S
C923 H911 0.950 . S
C923 C919 1.393 . S
C923 C922 1.391 . S
H924 C932 0.950 . S
H925 C937 0.950 . S
H926 C934 0.950 . S
H927 C936 0.950 . S
H928 C938 0.950 . S
H929 C940 0.950 . S
H930 C942 0.950 . S
H931 C943 0.950 . S
C932 H924 0.950 . S
C932 C933 1.386 . S
C932 C934 1.391 . S
C933 C932 1.386 . S
C933 C937 1.393 . S
C934 H926 0.950 . S
C934 C932 1.391 . S
C934 C935 1.400 . S
C935 C934 1.400 . S
C935 C936 1.398 . S
C935 C941 1.491 . S
C936 H927 0.950 . S
C936 C935 1.398 . S
C936 C937 1.391 . S
C937 H925 0.950 . S
C937 C933 1.393 . S
C937 C936 1.391 . S
C938 H928 0.950 . S
C938 C939 1.386 . S
C938 C940 1.391 . S
C939 C938 1.386 . S
C939 C943 1.393 . S
C940 H929 0.950 . S
C940 C938 1.391 . S
C940 C941 1.400 . S
C941 C935 1.491 . S
C941 C940 1.400 . S
C941 C942 1.398 . S
C942 H930 0.950 . S
C942 C941 1.398 . S
C942 C943 1.391 . S
C943 H931 0.950 . S
C943 C939 1.393 . S
C943 C942 1.391 . S
H944 C952 0.950 . S
H945 C957 0.950 . S
H946 C954 0.950 . S
H947 C956 0.950 . S
H948 C958 0.950 . S
H949 C960 0.950 . S
H950 C962 0.950 . S
H951 C963 0.950 . S
C952 H944 0.950 . S
C952 C953 1.386 . S
C952 C954 1.391 1_545 S
C953 C952 1.386 . S
C953 C957 1.393 . S
C954 H946 0.950 . S
C954 C952 1.391 1_565 S
C954 C955 1.400 . S
C955 C954 1.400 . S
C955 C956 1.398 . S
C955 C961 1.491 . S
C956 H947 0.950 . S
C956 C955 1.398 . S
C956 C957 1.391 1_565 S
C957 H945 0.950 . S
C957 C953 1.393 . S
C957 C956 1.391 1_545 S
C958 H948 0.950 . S
C958 C959 1.386 . S
C958 C960 1.391 . S
C959 C958 1.386 . S
C959 C963 1.393 . S
C960 H949 0.950 . S
C960 C958 1.391 . S
C960 C961 1.400 . S
C961 C955 1.491 . S
C961 C960 1.400 . S
C961 C962 1.398 . S
C962 H950 0.950 . S
C962 C961 1.398 . S
C962 C963 1.391 . S
C963 H951 0.950 . S
C963 C959 1.393 . S
C963 C962 1.391 . S
H964 C972 0.950 . S
H965 C977 0.950 . S
H966 C974 0.950 . S
H967 C976 0.950 . S
H968 C978 0.950 . S
H969 C980 0.950 . S
H970 C982 0.950 . S
H971 C983 0.950 . S
C972 H964 0.950 . S
C972 C973 1.386 . S
C972 C974 1.391 . S
C973 C972 1.386 . S
C973 C977 1.393 . S
C974 H966 0.950 . S
C974 C972 1.391 . S
C974 C975 1.400 . S
C975 C974 1.400 . S
C975 C976 1.398 . S
C975 C981 1.491 . S
C976 H967 0.950 . S
C976 C975 1.398 . S
C976 C977 1.391 . S
C977 H965 0.950 . S
C977 C973 1.393 . S
C977 C976 1.391 . S
C978 H968 0.950 . S
C978 C979 1.386 . S
C978 C980 1.391 . S
C979 C978 1.386 . S
C979 C983 1.393 . S
C980 H969 0.950 . S
C980 C978 1.391 . S
C980 C981 1.400 . S
C981 C975 1.491 . S
C981 C980 1.400 . S
C981 C982 1.398 . S
C982 H970 0.950 . S
C982 C981 1.398 . S
C982 C983 1.391 . S
C983 H971 0.950 . S
C983 C979 1.393 . S
C983 C982 1.391 . S
C273 C51 1.712 . S
C279 C7 1.697 1_655 S
C293 C62 1.487 . S
C299 C16 1.239 . S
C313 C29 1.673 . S
C319 C73 1.670 . S
C333 C82 1.231 . S
C339 C40 1.450 . S
C353 C95 1.864 . S
C359 C126 1.495 . S
C373 C115 1.389 . S
C379 C106 1.541 . S
C393 C137 1.644 . S
C399 C181 1.660 . S
C413 C192 1.167 . S
C419 C150 1.409 . S
C433 C205 1.437 . S
C439 C161 1.442 . S
C453 C170 1.164 . S
C459 C216 1.285 . S
C473 C260 1.456 . S
C479 C225 1.489 . S
C493 C249 1.373 . S
C499 C236 1.349 . S
C513 C217 1.677 . S
C519 C8 1.678 . S
C533 C184 1.958 . S
C539 C18 1.870 . S
C553 C27 1.894 . S
C559 C195 1.988 . S
C573 C38 1.562 . S
C579 C206 1.685 . S
C593 C52 1.814 . S
C599 C148 1.641 . S
C613 C162 1.845 . S
C619 C60 1.843 . S
C633 C71 1.731 . S
C639 C172 1.834 . S
C653 C85 1.826 1_455 S
C659 C140 1.829 . S
C673 C41 1.681 . S
C679 C261 1.610 . S
C693 C5 1.696 . S
C699 C238 1.790 . S
C713 C19 1.589 . S
C719 C228 1.609 . S
C733 C30 1.938 . S
C739 C247 1.550 . S
C753 C63 1.610 . S
C759 C250 1.589 . S
C773 C74 1.857 . S
C779 C258 1.356 . S
C793 C239 1.798 . S
C799 C84 1.712 . S
C813 C49 1.743 . S
C819 C227 1.817 . S
C833 C93 1.885 . S
C839 C183 1.968 . S
C853 C139 1.851 . S
C859 C104 1.470 . S
C873 C96 1.936 . S
C879 C151 1.945 . S
C893 C118 1.822 . S
C899 C159 1.487 . S
C913 C173 1.836 . S
C919 C129 1.789 . S
C933 C203 1.705 . S
C939 C128 1.936 . S
C953 C214 1.799 . S
C959 C107 1.789 . S
C973 C194 2.062 . S
C979 C117 2.074 . S
