# Generated by pormake.
# Topology wkf, (6)-cn, num edge types: 1
# Building blocks:
#     Node 0, Type 0, BuildingBlock: KUMBUR_clean_sbu_1, # of connection points: 6
#     Node 1, Type 0, BuildingBlock: KUMBUR_clean_sbu_1, # of connection points: 6
#     Node 2, Type 0, BuildingBlock: KUMBUR_clean_sbu_1, # of connection points: 6
#     Node 3, Type 0, BuildingBlock: KUMBUR_clean_sbu_1, # of connection points: 6
#     Node 4, Type 0, BuildingBlock: KUMBUR_clean_sbu_1, # of connection points: 6
#     Node 5, Type 0, BuildingBlock: KUMBUR_clean_sbu_1, # of connection points: 6
#     Node 6, Type 0, BuildingBlock: KUMBUR_clean_sbu_1, # of connection points: 6
#     Node 7, Type 0, BuildingBlock: KUMBUR_clean_sbu_1, # of connection points: 6
#     Node 8, Type 0, BuildingBlock: KUMBUR_clean_sbu_1, # of connection points: 6
#     Node 9, Type 0, BuildingBlock: KUMBUR_clean_sbu_1, # of connection points: 6
#     Node 10, Type 0, BuildingBlock: KUMBUR_clean_sbu_1, # of connection points: 6
#     Node 11, Type 0, BuildingBlock: KUMBUR_clean_sbu_1, # of connection points: 6
#     Edge 12, Type (0, 0), BuildingBlock: XIVTED_clean_linker_0, # of connection points: 2
#     Edge 13, Type (0, 0), BuildingBlock: XIVTED_clean_linker_0, # of connection points: 2
#     Edge 14, Type (0, 0), BuildingBlock: XIVTED_clean_linker_0, # of connection points: 2
#     Edge 15, Type (0, 0), BuildingBlock: XIVTED_clean_linker_0, # of connection points: 2
#     Edge 16, Type (0, 0), BuildingBlock: XIVTED_clean_linker_0, # of connection points: 2
#     Edge 17, Type (0, 0), BuildingBlock: XIVTED_clean_linker_0, # of connection points: 2
#     Edge 18, Type (0, 0), BuildingBlock: XIVTED_clean_linker_0, # of connection points: 2
#     Edge 19, Type (0, 0), BuildingBlock: XIVTED_clean_linker_0, # of connection points: 2
#     Edge 20, Type (0, 0), BuildingBlock: XIVTED_clean_linker_0, # of connection points: 2
#     Edge 21, Type (0, 0), BuildingBlock: XIVTED_clean_linker_0, # of connection points: 2
#     Edge 22, Type (0, 0), BuildingBlock: XIVTED_clean_linker_0, # of connection points: 2
#     Edge 23, Type (0, 0), BuildingBlock: XIVTED_clean_linker_0, # of connection points: 2
#     Edge 24, Type (0, 0), BuildingBlock: XIVTED_clean_linker_0, # of connection points: 2
#     Edge 25, Type (0, 0), BuildingBlock: XIVTED_clean_linker_0, # of connection points: 2
#     Edge 26, Type (0, 0), BuildingBlock: XIVTED_clean_linker_0, # of connection points: 2
#     Edge 27, Type (0, 0), BuildingBlock: XIVTED_clean_linker_0, # of connection points: 2
#     Edge 28, Type (0, 0), BuildingBlock: XIVTED_clean_linker_0, # of connection points: 2
#     Edge 29, Type (0, 0), BuildingBlock: XIVTED_clean_linker_0, # of connection points: 2
#     Edge 30, Type (0, 0), BuildingBlock: XIVTED_clean_linker_0, # of connection points: 2
#     Edge 31, Type (0, 0), BuildingBlock: XIVTED_clean_linker_0, # of connection points: 2
#     Edge 32, Type (0, 0), BuildingBlock: XIVTED_clean_linker_0, # of connection points: 2
#     Edge 33, Type (0, 0), BuildingBlock: XIVTED_clean_linker_0, # of connection points: 2
#     Edge 34, Type (0, 0), BuildingBlock: XIVTED_clean_linker_0, # of connection points: 2
#     Edge 35, Type (0, 0), BuildingBlock: XIVTED_clean_linker_0, # of connection points: 2
#     Edge 36, Type (0, 0), BuildingBlock: XIVTED_clean_linker_0, # of connection points: 2
#     Edge 37, Type (0, 0), BuildingBlock: XIVTED_clean_linker_0, # of connection points: 2
#     Edge 38, Type (0, 0), BuildingBlock: XIVTED_clean_linker_0, # of connection points: 2
#     Edge 39, Type (0, 0), BuildingBlock: XIVTED_clean_linker_0, # of connection points: 2
#     Edge 40, Type (0, 0), BuildingBlock: XIVTED_clean_linker_0, # of connection points: 2
#     Edge 41, Type (0, 0), BuildingBlock: XIVTED_clean_linker_0, # of connection points: 2
#     Edge 42, Type (0, 0), BuildingBlock: XIVTED_clean_linker_0, # of connection points: 2
#     Edge 43, Type (0, 0), BuildingBlock: XIVTED_clean_linker_0, # of connection points: 2
#     Edge 44, Type (0, 0), BuildingBlock: XIVTED_clean_linker_0, # of connection points: 2
#     Edge 45, Type (0, 0), BuildingBlock: XIVTED_clean_linker_0, # of connection points: 2
#     Edge 46, Type (0, 0), BuildingBlock: XIVTED_clean_linker_0, # of connection points: 2
#     Edge 47, Type (0, 0), BuildingBlock: XIVTED_clean_linker_0, # of connection points: 2
# Relax obj value: 0.238
# Max RMSD: 0.285
# Mean RMSD: 0.277
data_MOF--net-wkf--node1-KUMBUR_clean_sbu_1--edge1-XIVTED_clean_linker_0
_symmetry_space_group_name_H-M    P1
_symmetry_Int_Tables_number       1
_symmetry_cell_setting            triclinic
loop_
_symmetry_equiv_pos_as_xyz
'x, y, z'
_cell_length_a     30.002619
_cell_length_b     30.059889
_cell_length_c     87.675428
_cell_angle_alpha  90.091158
_cell_angle_beta   89.89904
_cell_angle_gamma 119.57354
loop_
_atom_site_label
_atom_site_type_symbol
_atom_site_fract_x
_atom_site_fract_y
_atom_site_fract_z
_atom_type_partial_charge
Tb0 Tb 0.42216 0.95236 0.3522 0.0
C1 C 0.63142 0.98753 0.38286 0.0
N2 N 0.58503 0.96672 0.38967 0.0
C3 C 0.60683 0.91541 0.40558 0.0
C4 C 0.66817 0.97384 0.38736 0.0
C5 C 0.57174 0.9302 0.40068 0.0
C6 C 0.65553 0.93774 0.399 0.0
C7 C 0.68764 0.04049 0.3628 0.0
C8 C 0.64064 1.02023 0.37079 0.0
C9 C 0.7254 1.02891 0.36761 0.0
C10 C 0.71565 0.99555 0.37987 0.0
Tb11 Tb 0.53078 0.99512 0.38233 0.0
N12 N 0.60238 1.02936 0.3663 0.0
C13 C 0.69471 0.07028 0.34989 0.0
C14 C 0.60869 0.05589 0.35301 0.0
C15 C 0.65471 0.07724 0.34484 0.0
H16 H 0.53398 0.91245 0.40573 0.0
H17 H 0.65887 0.09841 0.33446 0.0
H18 H 0.53602 0.96549 0.33861 0.0
H19 H 0.32763 0.05959 0.33728 0.0
H20 H 0.57861 0.06004 0.34803 0.0
H21 H 0.7301 0.08641 0.34342 0.0
H22 H 0.35117 1.00925 0.35455 0.0
H23 H 0.59626 0.88676 0.4144 0.0
H24 H 0.76174 0.04446 0.36167 0.0
H25 H 0.74457 0.98588 0.38322 0.0
H26 H 0.58398 0.99397 0.31491 0.0
H27 H 0.68263 0.9261 0.40276 0.0
H28 H 0.36627 0.08319 0.31154 0.0
N29 N 0.48069 0.9875 0.33261 0.0
C30 C 0.46654 1.01078 0.32173 0.0
C31 C 0.55074 0.99856 0.31664 0.0
C32 C 0.49417 1.02876 0.30797 0.0
C33 C 0.5225 0.98158 0.33016 0.0
C34 C 0.53628 1.02176 0.30544 0.0
N35 N 0.40201 1.00441 0.33855 0.0
C36 C 0.36866 1.02019 0.34339 0.0
C37 C 0.4134 0.04778 0.3146 0.0
C38 C 0.42584 1.01942 0.3248 0.0
C39 C 0.37674 0.06124 0.31905 0.0
C40 C 0.35502 0.04823 0.33361 0.0
H41 H 0.5585 0.03506 0.29502 0.0
H42 H 0.50025 0.06779 0.28665 0.0
H43 H 0.43013 0.08512 0.29256 0.0
O44 O 0.34825 0.92359 0.34192 0.0
O45 O 0.40258 0.98119 0.37357 0.0
O46 O 0.48213 1.02917 0.38532 0.0
O47 O 0.3852 0.87959 0.34169 0.0
O48 O 0.39246 0.91724 0.3749 0.0
O49 O 0.463 0.91857 0.38583 0.0
O50 O 0.58236 0.04285 0.39931 0.0
O51 O 0.52344 0.92807 0.36989 0.0
O52 O 0.46057 0.90345 0.35133 0.0
O53 O 0.50804 0.98013 0.40509 0.0
O54 O 0.53781 0.06537 0.37063 0.0
O55 O 0.47385 0.03858 0.35212 0.0
C56 C 0.43379 1.01626 0.38364 0.0
C57 C 0.34016 0.87601 0.31897 0.0
C58 C 0.28743 0.84475 0.29534 0.0
C59 C 0.33319 0.86332 0.28695 0.0
C60 C 0.38409 0.89221 0.30987 0.0
C61 C 0.38066 0.88652 0.29412 0.0
C62 C 0.29113 0.85114 0.31159 0.0
C63 C 0.41341 0.90272 0.3857 0.0
C64 C 0.34757 0.88388 0.336 0.0
C65 C 0.47967 0.05414 0.29732 0.0
C66 C 0.43957 0.06383 0.30065 0.0
C67 C 0.49643 0.89756 0.35862 0.0
C68 C 0.53975 0.05217 0.42114 0.0
C69 C 0.57389 0.12762 0.43743 0.0
C70 C 0.52458 0.11193 0.44306 0.0
C71 C 0.49054 0.03627 0.42714 0.0
C72 C 0.58119 0.09767 0.42647 0.0
C73 C 0.48325 0.06595 0.43808 0.0
C74 C 0.51384 0.07581 0.35947 0.0
C75 C 0.5488 1.02007 0.41016 0.0
H76 H 0.33234 0.85864 0.27468 0.0
H77 H 0.42165 0.90864 0.31497 0.0
H78 H 0.41521 0.89958 0.28741 0.0
H79 H 0.25657 0.83714 0.31836 0.0
H80 H 0.51831 0.13448 0.45156 0.0
H81 H 0.4577 1.00074 0.42354 0.0
H82 H 0.61937 0.10981 0.42212 0.0
H83 H 0.44546 0.0531 0.44277 0.0
Tb84 Tb 0.5083 0.40268 0.51822 0.0
C85 C 0.69011 0.6019 0.53869 0.0
N86 N 0.664 0.56661 0.54961 0.0
C87 C 0.7411 0.59566 0.5642 0.0
C88 C 0.7433 0.63559 0.5401 0.0
C89 C 0.68853 0.56282 0.56226 0.0
C90 C 0.76863 0.63222 0.55307 0.0
C91 C 0.69022 0.63957 0.51431 0.0
C92 C 0.66362 0.60323 0.52589 0.0
C93 C 0.74308 0.67341 0.51572 0.0
C94 C 0.76957 0.67132 0.52855 0.0
Tb95 Tb 0.57792 0.5183 0.54622 0.0
N96 N 0.61237 0.56903 0.52473 0.0
C97 C 0.66306 0.64116 0.50163 0.0
C98 C 0.58634 0.57067 0.51212 0.0
C99 C 0.61092 0.60674 0.50058 0.0
H100 H 0.66783 0.53381 0.57076 0.0
H101 H 0.58963 0.60706 0.49067 0.0
H102 H 0.61989 0.49956 0.50102 0.0
H103 H 0.31022 0.32495 0.50298 0.0
H104 H 0.54726 0.54338 0.51009 0.0
H105 H 0.68202 0.66854 0.49254 0.0
H106 H 0.38221 0.34259 0.52026 0.0
H107 H 0.76042 0.59241 0.57419 0.0
H108 H 0.76388 0.70134 0.5069 0.0
H109 H 0.81039 0.69752 0.52944 0.0
H110 H 0.64154 0.53977 0.47639 0.0
H111 H 0.80944 0.6574 0.55454 0.0
H112 H 0.32778 0.36306 0.47717 0.0
N113 N 0.53863 0.45582 0.49707 0.0
C114 C 0.50099 0.44648 0.48665 0.0
C115 C 0.60183 0.51331 0.47909 0.0
C116 C 0.51265 0.47073 0.47224 0.0
C117 C 0.58878 0.48894 0.49327 0.0
C118 C 0.56374 0.50427 0.46855 0.0
N119 N 0.43944 0.39062 0.50441 0.0
C120 C 0.39005 0.3598 0.50907 0.0
C121 C 0.4102 0.40325 0.48013 0.0
C122 C 0.45008 0.41261 0.49039 0.0
C123 C 0.35943 0.37104 0.48472 0.0
C124 C 0.34932 0.34963 0.4993 0.0
H125 H 0.57419 0.52357 0.45762 0.0
H126 H 0.48157 0.479 0.4508 0.0
H127 H 0.39195 0.42034 0.45778 0.0
O128 O 0.46598 0.32198 0.51907 0.0
O129 O 0.45802 0.39077 0.53854 0.0
O130 O 0.50101 0.46377 0.55378 0.0
O131 O 0.51226 0.35787 0.49981 0.0
O132 O 0.53374 0.38058 0.53933 0.0
O133 O 0.56979 0.44842 0.55672 0.0
O134 O 0.5866 0.58662 0.55567 0.0
O135 O 0.63218 0.49407 0.53779 0.0
O136 O 0.5945 0.43498 0.51816 0.0
O137 O 0.5838 0.52778 0.56996 0.0
O138 O 0.51252 0.52218 0.53548 0.0
O139 O 0.46972 0.45154 0.51948 0.0
C140 C 0.46148 0.41886 0.55074 0.0
C141 C 0.43751 0.27503 0.49546 0.0
C142 C 0.40745 0.21415 0.47351 0.0
C143 C 0.35681 0.19762 0.47825 0.0
C144 C 0.38613 0.25385 0.50009 0.0
C145 C 0.34645 0.2169 0.49138 0.0
C146 C 0.44812 0.25447 0.48203 0.0
C147 C 0.55332 0.40023 0.55289 0.0
C148 C 0.47904 0.3144 0.5056 0.0
C149 C 0.47308 0.4607 0.46189 0.0
C150 C 0.42204 0.42715 0.46583 0.0
C151 C 0.63554 0.46738 0.52631 0.0
C152 C 0.53981 0.56933 0.57872 0.0
C153 C 0.48863 0.60943 0.58508 0.0
C154 C 0.46054 0.57019 0.59561 0.0
C155 C 0.51146 0.53038 0.58937 0.0
C156 C 0.5276 0.6081 0.57655 0.0
C157 C 0.47189 0.5308 0.59768 0.0
C158 C 0.47391 0.49348 0.52617 0.0
C159 C 0.58116 0.5694 0.56953 0.0
H160 H 0.32457 0.16872 0.47188 0.0
H161 H 0.37611 0.26511 0.51068 0.0
H162 H 0.30716 0.20221 0.49502 0.0
H163 H 0.4875 0.26829 0.47861 0.0
H164 H 0.43078 0.57058 0.60252 0.0
H165 H 0.51959 0.4995 0.59127 0.0
H166 H 0.54868 0.63745 0.56811 0.0
H167 H 0.45034 0.50082 0.60587 0.0
Tb168 Tb 0.12689 0.48672 0.68503 0.0
C169 C 0.09745 0.66312 0.71683 0.0
N170 N 0.11837 0.63641 0.72292 0.0
C171 C 0.17448 0.70854 0.73833 0.0
C172 C 0.11378 0.71387 0.72143 0.0
C173 C 0.15698 0.65838 0.73338 0.0
C174 C 0.15249 0.73633 0.73241 0.0
C175 C 1.04026 0.66785 0.6984 0.0
C176 C 0.06134 0.64015 0.70548 0.0
C177 C 0.05501 0.7178 0.70326 0.0
C178 C 0.09178 0.74081 0.71474 0.0
Tb179 Tb 0.08646 0.5539 0.71544 0.0
N180 N 1.0489 0.59193 0.70092 0.0
C181 C 1.006 0.64522 0.68638 0.0
C182 C 1.01707 0.57128 0.68855 0.0
C183 C 0.99493 0.59704 0.68133 0.0
H184 H 0.17431 0.63713 0.73794 0.0
H185 H 0.96982 0.57982 0.67164 0.0
H186 H 0.10612 0.58506 0.6745 0.0
H187 H 1.02308 0.28821 0.66777 0.0
H188 H 1.00904 0.53581 0.68349 0.0
H189 H 0.98909 0.66521 0.68064 0.0
H190 H 0.07375 0.35979 0.68559 0.0
H191 H 0.2049 0.72572 0.74667 0.0
H192 H 1.03896 0.73934 0.69799 0.0
H193 H 0.10356 0.77971 0.71817 0.0
H194 H 0.07257 0.60644 0.65213 0.0
H195 H 0.16618 0.77526 0.73621 0.0
H196 H 0.99489 0.30527 0.64302 0.0
N197 N 0.08737 0.5106 0.66681 0.0
C198 C 0.06326 0.47469 0.65564 0.0
C199 C 0.07018 0.56938 0.6529 0.0
C200 C 1.04213 0.48516 0.64269 0.0
C201 C 0.09022 0.55724 0.66561 0.0
C202 C 1.04656 0.53348 0.64132 0.0
N203 N 0.07501 0.41634 0.67076 0.0
C204 C 0.06113 0.36723 0.67482 0.0
C205 C 1.02825 0.38656 0.6472 0.0
C206 C 0.05722 0.42606 0.65764 0.0
C207 C 1.01717 0.3367 0.65074 0.0
C208 C 1.03281 0.32686 0.66474 0.0
H209 H 1.0308 0.54302 0.63156 0.0
H210 H 1.0002 0.45437 0.62164 0.0
H211 H 0.98736 0.36789 0.62571 0.0
O212 O 0.15707 0.44267 0.67459 0.0
O213 O 0.09809 0.43843 0.70644 0.0
O214 O 0.05176 0.47181 0.71865 0.0
O215 O 0.19889 0.52295 0.67388 0.0
O216 O 0.16128 0.49047 0.70772 0.0
O217 O 0.16404 0.56246 0.71766 0.0
O218 O 1.04179 0.5601 0.73307 0.0
O219 O 0.15207 0.61275 0.70233 0.0
O220 O 0.17633 0.57353 0.68388 0.0
O221 O 0.10308 0.54454 0.73796 0.0
O222 O 1.0153 0.49101 0.70389 0.0
O223 O 1.0406 0.45123 0.68568 0.0
C224 C 0.06372 0.43564 0.71678 0.0
C225 C 0.20236 0.48081 0.65126 0.0
C226 C 0.23905 0.46692 0.62732 0.0
C227 C 0.20885 0.4826 0.61912 0.0
C228 C 0.17778 0.50083 0.64229 0.0
C229 C 0.1794 0.49998 0.6265 0.0
C230 C 0.23414 0.46423 0.64366 0.0
C231 C 0.17789 0.52716 0.71811 0.0
C232 C 0.19588 0.48143 0.66836 0.0
C233 C 1.01626 0.4468 0.63171 0.0
C234 C 1.00913 0.39757 0.63399 0.0
C235 C 0.18255 0.61558 0.69104 0.0
C236 C 1.03139 0.50618 0.75431 0.0
C237 C 0.95218 0.46161 0.76898 0.0
C238 C 0.96923 0.42992 0.77536 0.0
C239 C 1.04839 0.47469 0.76105 0.0
C240 C 0.98341 0.49957 0.75846 0.0
C241 C 1.01747 0.43698 0.77153 0.0
C242 C 1.00393 0.45573 0.69291 0.0
C243 C 0.06426 0.54721 0.74351 0.0
H244 H 0.20909 0.48298 0.60676 0.0
H245 H 0.15789 0.51842 0.64752 0.0
H246 H 0.15857 0.51417 0.61989 0.0
H247 H 0.25594 0.45134 0.65033 0.0
H248 H 0.94579 0.40057 0.78353 0.0
H249 H 0.08561 0.4792 0.7583 0.0
H250 H 0.97016 0.52394 0.75347 0.0
H251 H 1.03097 0.41314 0.7767 0.0
Tb252 Tb 0.67747 0.11801 0.85165 0.0
C253 C 0.47785 0.10733 0.87056 0.0
N254 N 0.51024 0.11247 0.882 0.0
C255 C 0.47822 0.15727 0.89712 0.0
C256 C 0.44376 0.12676 0.87198 0.0
C257 C 0.51154 0.1377 0.89512 0.0
C258 C 0.44391 0.15149 0.88554 0.0
C259 C 0.44944 0.08123 0.84466 0.0
C260 C 0.48095 0.08497 0.85712 0.0
C261 C 0.41429 0.09906 0.84614 0.0
C262 C 0.41152 0.12188 0.85977 0.0
Tb263 Tb 0.56038 0.07612 0.87845 0.0
N264 N 0.51656 0.06945 0.85602 0.0
C265 C 0.45495 0.0608 0.83096 0.0
C266 C 0.52349 0.05211 0.8423 0.0
C267 C 0.49242 0.04654 0.82975 0.0
H268 H 0.53868 0.14335 0.90402 0.0
H269 H 0.49806 1.03201 0.81905 0.0
H270 H 0.6065 0.14004 0.82487 0.0
H271 H 0.75606 0.99031 0.85114 0.0
H272 H 0.55345 0.04355 0.84055 0.0
H273 H 0.43147 0.05713 0.82114 0.0
H274 H 0.7331 0.05053 0.86284 0.0
H275 H 0.47929 0.17711 0.90755 0.0
H276 H 0.38976 0.09627 0.8367 0.0
H277 H 0.38493 0.13636 0.86065 0.0
H278 H 0.58059 0.11523 0.79872 0.0
H279 H 0.41841 0.16704 0.88705 0.0
H280 H 0.73577 0.96581 0.82406 0.0
N281 N 0.6422 0.09369 0.82764 0.0
C282 C 0.6566 0.06279 0.82016 0.0
C283 C 0.60165 0.0999 0.80465 0.0
C284 C 0.64263 0.04832 0.80481 0.0
C285 C 0.61646 0.11359 0.81981 0.0
C286 C 0.6145 0.06698 0.79714 0.0
N287 N 0.69676 0.05801 0.84285 0.0
C288 C 0.72199 0.03884 0.85119 0.0
C289 C 0.69904 1.01154 0.8207 0.0
C290 C 0.68529 0.04504 0.82791 0.0
C291 C 0.72476 0.99179 0.82919 0.0
C292 C 0.73593 1.00521 0.84452 0.0
H293 H 0.60305 0.0567 0.78537 0.0
H294 H 0.64696 1.00463 0.78573 0.0
H295 H 0.69579 0.97204 0.79969 0.0
O296 O 0.75839 0.1541 0.85196 0.0
O297 O 0.68761 0.08831 0.87424 0.0
O298 O 0.60472 0.03875 0.8834 0.0
O299 O 0.72187 0.1724 0.83444 0.0
O300 O 0.69831 0.1689 0.87208 0.0
O301 O 0.63112 0.13429 0.88969 0.0
O302 O 0.49037 1.02204 0.88837 0.0
O303 O 0.59271 0.15676 0.8718 0.0
O304 O 0.63347 0.1618 0.8491 0.0
O305 O 0.55492 0.07133 0.90226 0.0
O306 O 0.55028 1.00591 0.86623 0.0
O307 O 0.62343 1.03139 0.85139 0.0
C308 C 0.65349 0.05271 0.88356 0.0
C309 C 0.80157 0.17564 0.82761 0.0
C310 C 0.8607 0.20834 0.80522 0.0
C311 C 0.87208 0.16876 0.80761 0.0
C312 C 0.81722 0.13907 0.82976 0.0
C313 C 0.85082 0.13489 0.81971 0.0
C314 C 0.82386 0.21082 0.81514 0.0
C315 C 0.67895 0.16742 0.88586 0.0
C316 C 0.76539 0.17845 0.83917 0.0
C317 C 0.65736 1.01595 0.79751 0.0
C318 C 0.6854 0.99758 0.80543 0.0
C319 C 0.60856 0.17782 0.85831 0.0
C320 C 0.50716 0.98596 0.91018 0.0
C321 C 0.46524 0.89364 0.91396 0.0
C322 C 0.50249 0.90073 0.92487 0.0
C323 C 0.54372 0.99238 0.92129 0.0
C324 C 0.46852 0.93649 0.90651 0.0
C325 C 0.5415 0.94992 0.92848 0.0
C326 C 0.57866 0.99465 0.85694 0.0
C327 C 0.51037 1.03034 0.90197 0.0
H328 H 0.89841 0.16426 0.80015 0.0
H329 H 0.80442 0.1139 0.83946 0.0
H330 H 0.86137 0.10566 0.82153 0.0
H331 H 0.81408 0.24067 0.81351 0.0
H332 H 0.50068 0.86854 0.93095 0.0
H333 H 0.57433 1.03011 0.92435 0.0
H334 H 0.44083 0.93133 0.89779 0.0
H335 H 0.56983 0.95518 0.93697 0.0
Tb336 Tb 0.59174 0.66743 0.01873 0.0
C337 C 0.41007 0.46491 0.03896 0.0
N338 N 0.43621 0.50095 0.0497 0.0
C339 C 0.35932 0.47196 0.06447 0.0
C340 C 0.35704 0.43073 0.04058 0.0
C341 C 0.41168 0.50533 0.06231 0.0
C342 C 0.33188 0.43439 0.05358 0.0
C343 C 0.40952 0.42685 0.01456 0.0
C344 C 0.43625 0.46357 0.02605 0.0
C345 C 0.3569 0.39234 0.01623 0.0
C346 C 0.33072 0.39435 0.02918 0.0
Tb347 Tb 0.52235 0.54919 0.0461 0.0
N348 N 0.48725 0.49836 0.02465 0.0
C349 C 0.43628 0.42566 1.00169 0.0
C350 C 0.51287 0.4972 1.01183 0.0
C351 C 0.48813 0.46089 1.00036 0.0
H352 H 0.43227 0.5351 0.07063 0.0
H353 H 0.50909 0.46086 0.99029 0.0
H354 H 0.48323 0.5703 1.00064 0.0
H355 H 0.79151 0.7545 1.00446 0.0
H356 H 0.5518 0.52492 1.00966 0.0
H357 H 0.4172 0.39803 0.99266 0.0
H358 H 0.71748 0.7328 0.0214 0.0
H359 H 0.34008 0.47556 0.07446 0.0
H360 H 0.33602 0.36405 1.0075 0.0
H361 H 0.29004 0.36773 0.03025 0.0
H362 H 0.46477 0.53042 0.97591 0.0
H363 H 0.29121 0.40882 0.05522 0.0
H364 H 0.77733 0.71668 0.97863 0.0
N365 N 0.56473 0.61528 0.99734 0.0
C366 C 0.60356 0.62621 0.98718 0.0
C367 C 0.50401 0.55749 0.97891 0.0
C368 C 0.59381 0.60241 0.97271 0.0
C369 C 0.51519 0.58151 0.99315 0.0
C370 C 0.54336 0.56778 0.96867 0.0
N371 N 0.66252 0.68324 1.00527 0.0
C372 C 0.71115 0.71578 1.01019 0.0
C373 C 0.69482 0.67277 0.98121 0.0
C374 C 0.65375 0.66149 0.99122 0.0
C375 C 0.74481 0.707 0.98601 0.0
C376 C 0.75301 0.72829 1.00061 0.0
H377 H 0.53436 0.54879 0.95768 0.0
H378 H 0.62757 0.59614 0.9515 0.0
H379 H 0.71593 0.65738 0.95899 0.0
O380 O 0.63227 0.74827 0.01957 0.0
O381 O 0.6413 0.67913 0.03919 0.0
O382 O 0.59956 0.60383 0.05352 0.0
O383 O 0.58504 0.71127 1.00058 0.0
O384 O 0.56455 0.6872 0.04002 0.0
O385 O 0.5319 0.61887 0.05726 0.0
O386 O 0.51798 0.48179 0.05494 0.0
O387 O 0.46746 0.57261 0.03765 0.0
O388 O 0.5055 0.6329 0.01837 0.0
O389 O 0.51384 0.53632 0.06965 0.0
O390 O 0.58701 0.54621 0.03452 0.0
O391 O 0.63161 0.61967 0.01972 0.0
C392 C 0.63852 0.64959 0.05091 0.0
C393 C 0.65714 0.79578 0.99594 0.0
C394 C 0.68289 0.85732 0.97419 0.0
C395 C 0.73429 0.87585 0.97844 0.0
C396 C 0.70908 0.81886 1.00007 0.0
C397 C 0.74703 0.85714 0.99121 0.0
C398 C 0.64404 0.81569 0.98285 0.0
C399 C 0.54655 0.66685 0.05365 0.0
C400 C 0.61752 0.75519 1.0063 0.0
C401 C 0.63458 0.61411 0.96263 0.0
C402 C 0.6849 0.64911 0.96686 0.0
C403 C 0.46427 0.59958 0.02626 0.0
C404 C 0.56089 0.4985 0.07867 0.0
C405 C 0.61011 0.4587 0.08733 0.0
C406 C 0.63956 0.50118 0.09669 0.0
C407 C 0.59082 0.54086 0.08813 0.0
C408 C 0.57094 0.45775 0.07833 0.0
C409 C 0.62976 0.54195 0.09709 0.0
C410 C 0.62633 0.57624 0.02559 0.0
C411 C 0.5198 0.49663 0.06896 0.0
H412 H 0.76524 0.90591 0.97196 0.0
H413 H 0.72087 0.8082 1.01042 0.0
H414 H 0.78684 0.87336 0.99448 0.0
H415 H 0.60414 0.80037 0.97982 0.0
H416 H 0.66929 0.5023 0.10394 0.0
H417 H 0.58429 0.57319 0.08866 0.0
H418 H 0.54832 0.4253 0.07095 0.0
H419 H 0.65216 0.57432 0.10447 0.0
Tb420 Tb 0.97136 0.57886 0.18493 0.0
C421 C 0.97974 0.3994 0.20136 0.0
N422 N 0.97403 0.42289 0.21378 0.0
C423 C 0.91841 0.34143 0.22529 0.0
C424 C 0.95335 0.34556 0.20016 0.0
C425 C 0.94464 0.39489 0.22584 0.0
C426 C 0.92216 0.31662 0.21228 0.0
C427 C 1.02344 0.40585 0.17765 0.0
C428 C 1.01372 0.42952 0.19019 0.0
C429 C 0.99493 0.35249 0.17586 0.0
C430 C 0.95989 0.32237 0.1871 0.0
Tb431 Tb 1.01503 0.51001 0.21361 0.0
N432 N 1.04094 0.48121 0.19243 0.0
C433 C 0.06382 0.4359 0.16784 0.0
C434 C 0.08448 0.50895 0.18384 0.0
C435 C 0.0956 0.48724 0.17131 0.0
H436 H 0.93988 0.41373 0.2357 0.0
H437 H 0.12929 0.51018 0.16443 0.0
H438 H 0.99347 0.4892 0.16745 0.0
H439 H 0.06225 0.78329 0.17652 0.0
H440 H 0.11296 0.54719 0.1865 0.0
H441 H 0.07279 0.41922 0.15817 0.0
H442 H 1.01321 0.70272 0.19097 0.0
H443 H 0.89458 0.31944 0.23476 0.0
H444 H 1.00139 0.33397 0.16617 0.0
H445 H 0.9394 0.28114 0.18585 0.0
H446 H 1.03087 0.48332 0.14341 0.0
H447 H 0.90138 0.2752 0.2118 0.0
H448 H 0.0966 0.78195 0.15095 0.0
N449 N 1.01486 0.56805 0.16485 0.0
C450 C 1.0383 0.6098 0.15544 0.0
C451 C 1.03358 0.51925 0.14675 0.0
C452 C 0.06124 0.60785 0.14158 0.0
C453 C 1.01215 0.52301 0.16054 0.0
C454 C 0.05832 0.56175 0.13727 0.0
N455 N 1.01998 0.6566 0.17368 0.0
C456 C 1.02891 0.70202 0.17993 0.0
C457 C 0.06847 0.70032 0.15132 0.0
C458 C 1.04077 0.65541 0.16 0.0
C459 C 0.07533 0.74657 0.15725 0.0
C460 C 0.05621 0.74754 0.17172 0.0
H461 H 0.0751 0.55858 0.12665 0.0
H462 H 0.10401 0.65091 0.12177 0.0
H463 H 0.1113 0.73204 0.13046 0.0
O464 O 0.93684 0.61999 0.17523 0.0
O465 O 0.99812 0.62463 0.20675 0.0
O466 O 1.0397 0.58838 0.22028 0.0
O467 O 0.9015 0.54019 0.17276 0.0
O468 O 0.92763 0.56345 0.20683 0.0
O469 O 0.94947 0.51527 0.22306 0.0
O470 O 0.06964 0.4963 0.22467 0.0
O471 O 0.93397 0.46174 0.20594 0.0
O472 O 0.93259 0.49261 0.18223 0.0
O473 O 1.0121 0.50198 0.23737 0.0
O474 O 0.08437 0.58109 0.20468 0.0
O475 O 0.05808 0.61713 0.18578 0.0
C476 C 1.02813 0.62478 0.21809 0.0
C477 C 0.89619 0.58503 0.15105 0.0
C478 C 0.86033 0.60202 0.1275 0.0
C479 C 0.89245 0.58965 0.11892 0.0
C480 C 0.92289 0.56838 0.14161 0.0
C481 C 0.92262 0.57246 0.12587 0.0
C482 C 0.86373 0.60147 0.14385 0.0
C483 C 0.92198 0.53754 0.21971 0.0
C484 C 0.9011 0.58099 0.16812 0.0
C485 C 0.08644 0.65189 0.13248 0.0
C486 C 0.09032 0.69805 0.13738 0.0
C487 C 0.91356 0.45426 0.1922 0.0
C488 C 0.09296 0.5387 0.24875 0.0
C489 C 0.18216 0.59636 0.25599 0.0
C490 C 0.1648 0.60946 0.26929 0.0
C491 C 0.07677 0.55208 0.2622 0.0
C492 C 0.1456 0.56189 0.24557 0.0
C493 C 0.1125 0.58777 0.27225 0.0
C494 C 0.0952 0.61671 0.19398 0.0
C495 C 0.05452 0.50095 0.23816 0.0
H496 H 0.89291 0.59148 0.10657 0.0
H497 H 0.94337 0.5508 0.14637 0.0
H498 H 0.94498 0.56075 0.11895 0.0
H499 H 0.84023 0.61164 0.15079 0.0
H500 H 0.19136 0.63502 0.27774 0.0
H501 H 1.0364 0.53501 0.26494 0.0
H502 H 0.15799 0.55263 0.23503 0.0
H503 H 0.09962 0.59783 0.28257 0.0
Tb504 Tb 0.13967 0.66884 0.50604 0.0
C505 C 0.13613 0.47584 0.49007 0.0
N506 N 0.13975 0.50566 0.47803 0.0
C507 C 0.19089 0.47761 0.46438 0.0
C508 C 0.16057 0.44598 0.48978 0.0
C509 C 0.16644 0.50687 0.46521 0.0
C510 C 0.1881 0.44714 0.47674 0.0
C511 C 0.10362 0.44439 0.51537 0.0
C512 C 0.10849 0.47591 0.50278 0.0
C513 C 0.12827 0.415 0.51518 0.0
C514 C 0.15682 0.41594 0.50245 0.0
Tb515 Tb 0.096 0.54932 0.47996 0.0
N516 N 0.08585 0.50584 0.50273 0.0
C517 C 0.07329 0.44235 0.5277 0.0
C518 C 0.05554 0.50281 0.51485 0.0
C519 C 1.04858 0.47105 0.52731 0.0
H520 H 0.17 0.53139 0.45575 0.0
H521 H 1.02491 0.46973 0.53683 0.0
H522 H 0.15406 0.57714 0.52676 0.0
H523 H 1.02089 0.75345 0.51636 0.0
H524 H 1.03759 0.52556 0.51576 0.0
H525 H 0.06834 0.41843 0.5375 0.0
H526 H 0.07546 0.73063 0.50082 0.0
H527 H 0.21232 0.47901 0.45428 0.0
H528 H 0.12509 0.391 0.5248 0.0
H529 H 0.17548 0.39292 0.50246 0.0
H530 H 0.13459 0.54389 0.55232 0.0
H531 H 0.20742 0.4248 0.47611 0.0
H532 H 0.99949 0.72261 0.54294 0.0
N533 N 0.11574 0.62157 0.52841 0.0
C534 C 0.0877 0.63449 0.53795 0.0
C535 C 0.12128 0.56949 0.54843 0.0
C536 C 0.0748 0.61448 0.5529 0.0
C537 C 0.13289 0.58968 0.53369 0.0
C538 C 0.09202 0.58172 0.55805 0.0
N539 N 0.08325 0.68598 0.5183 0.0
C540 C 0.06525 0.71596 0.51229 0.0
C541 C 1.04105 0.68074 0.54213 0.0
C542 C 0.07143 0.66796 0.53279 0.0
C543 C 1.02303 0.71208 0.53613 0.0
C544 C 1.03477 0.72934 0.5211 0.0
H545 H 0.08298 0.56567 0.56944 0.0
H546 H 1.03538 0.61293 0.57381 0.0
H547 H 1.00537 0.67041 0.56431 0.0
O548 O 0.17775 0.74961 0.50477 0.0
O549 O 0.10166 0.67751 0.48497 0.0
O550 O 0.07029 0.60062 0.4715 0.0
O551 O 0.19032 0.71444 0.52386 0.0
O552 O 0.18715 0.68792 0.48487 0.0
O553 O 0.15266 0.61888 0.46781 0.0
O554 O 1.0382 0.47669 0.47265 0.0
O555 O 0.17733 0.58207 0.48647 0.0
O556 O 0.19063 0.63292 0.50765 0.0
O557 O 0.08877 0.53187 0.45661 0.0
O558 O 1.02657 0.54624 0.49045 0.0
O559 O 0.0529 0.61926 0.50533 0.0
C560 C 0.07544 0.64627 0.47348 0.0
C561 C 0.19826 0.7975 0.52834 0.0
C562 C 0.22997 0.85835 0.55034 0.0
C563 C 0.19577 0.87528 0.54589 0.0
C564 C 0.16796 0.81908 0.52403 0.0
C565 C 0.16565 0.85622 0.53291 0.0
C566 C 0.22993 0.81782 0.54165 0.0
C567 C 0.18505 0.66739 0.47124 0.0
C568 C 0.19965 0.7577 0.51803 0.0
C569 C 1.04545 0.62799 0.56233 0.0
C570 C 1.02854 0.66091 0.55695 0.0
C571 C 0.20275 0.60368 0.49906 0.0
C572 C 1.00291 0.482 0.44902 0.0
C573 C 0.91071 0.4377 0.44429 0.0
C574 C 0.91893 0.46966 0.43166 0.0
C575 C 1.01034 0.51279 0.43613 0.0
C576 C 0.95296 0.44478 0.45303 0.0
C577 C 0.9685 0.50698 0.42766 0.0
C578 C 1.0159 0.57602 0.49919 0.0
C579 C 1.0469 0.48882 0.45832 0.0
H580 H 0.19274 0.90436 0.55239 0.0
H581 H 0.14632 0.80806 0.51354 0.0
H582 H 0.14098 0.87123 0.5295 0.0
H583 H 0.25549 0.80363 0.54484 0.0
H584 H 0.88735 0.46474 0.42454 0.0
H585 H 1.04844 0.54146 0.4326 0.0
H586 H 0.94702 0.42108 0.46297 0.0
H587 H 0.9746 0.53092 0.41779 0.0
Tb588 Tb 0.49807 0.11873 0.67281 0.0
C589 C 0.67449 0.07893 0.65174 0.0
N590 N 0.65303 0.09846 0.64223 0.0
C591 C 0.73299 0.14565 0.62885 0.0
C592 C 0.72611 0.09121 0.64997 0.0
C593 C 0.68184 0.13264 0.6311 0.0
C594 C 0.75509 0.12437 0.63821 0.0
C595 C 0.66776 1.03065 0.67448 0.0
C596 C 0.64554 0.04927 0.66384 0.0
C597 C 0.7184 0.0409 0.67243 0.0
C598 C 0.74755 0.07121 0.66021 0.0
Tb599 Tb 0.5673 0.06892 0.64524 0.0
N600 N 0.59691 0.04118 0.66563 0.0
C601 C 0.63905 1.0034 0.68712 0.0
C602 C 0.57023 1.01675 0.67854 0.0
C603 C 0.59035 0.99703 0.68924 0.0
H604 H 0.66558 0.15037 0.624 0.0
H605 H 0.56846 0.97774 0.69932 0.0
H606 H 0.60681 0.12384 0.6888 0.0
H607 H 0.29963 1.00862 0.68859 0.0
H608 H 0.53427 1.01366 0.68134 0.0
H609 H 0.65472 0.98858 0.69555 0.0
H610 H 0.37204 0.05913 0.67101 0.0
H611 H 0.75542 0.17236 0.61996 0.0
H612 H 0.73577 1.02658 0.68044 0.0
H613 H 0.78698 0.07986 0.65897 0.0
H614 H 0.6282 0.10114 0.71298 0.0
H615 H 0.79486 0.13478 0.63652 0.0
H616 H 0.3164 0.98569 0.71421 0.0
N617 N 0.52668 0.09176 0.69341 0.0
C618 C 0.48906 0.0651 0.70395 0.0
C619 C 0.58891 0.0911 0.71063 0.0
C620 C 0.50021 0.05036 0.7181 0.0
C621 C 0.57628 0.10489 0.69675 0.0
C622 C 0.55085 0.06387 0.72136 0.0
N623 N 0.42848 0.06435 0.68663 0.0
C624 C 0.37939 0.04873 0.68214 0.0
C625 C 0.39859 1.02267 0.71086 0.0
C626 C 0.43862 0.0515 0.70051 0.0
C627 C 0.34817 1.00777 0.70656 0.0
C628 C 0.33849 1.02042 0.69208 0.0
H629 H 0.56092 0.05318 0.73207 0.0
H630 H 0.46866 1.01118 0.73949 0.0
H631 H 0.37976 0.98678 0.73311 0.0
O632 O 0.45494 0.15702 0.67289 0.0
O633 O 0.44945 0.08498 0.65196 0.0
O634 O 0.48977 0.0478 0.63844 0.0
O635 O 0.50647 0.16976 0.69098 0.0
O636 O 0.52319 0.16471 0.65163 0.0
O637 O 0.56431 0.13464 0.63543 0.0
O638 O 0.5633 1.00598 0.63302 0.0
O639 O 0.6238 0.1417 0.6562 0.0
O640 O 0.58433 0.17266 0.67263 0.0
O641 O 0.58174 0.07605 0.62185 0.0
O642 O 0.50004 1.00119 0.6559 0.0
O643 O 0.45779 1.03161 0.67151 0.0
C644 C 0.45144 0.05643 0.64061 0.0
C645 C 0.43281 0.17887 0.69715 0.0
C646 C 0.40951 0.20914 0.72069 0.0
C647 C 0.35765 0.17682 0.71714 0.0
C648 C 0.38027 0.15033 0.6937 0.0
C649 C 0.34332 0.14825 0.70375 0.0
C650 C 0.4474 0.20982 0.71063 0.0
C651 C 0.5464 0.16583 0.63864 0.0
C652 C 0.47146 0.1793 0.68599 0.0
C653 C 0.46058 1.02257 0.72858 0.0
C654 C 0.40994 1.00877 0.72497 0.0
C655 C 0.62634 0.17669 0.66589 0.0
C656 C 0.52723 1.00183 0.6085 0.0
C657 C 0.47813 0.92855 0.59203 0.0
C658 C 0.45057 0.95124 0.58635 0.0
C659 C 0.49954 1.02464 0.60258 0.0
C660 C 0.51638 0.95383 0.60307 0.0
C661 C 0.46187 0.99959 0.59149 0.0
C662 C 0.46135 0.9929 0.66515 0.0
C663 C 0.56808 1.02846 0.61996 0.0
H664 H 0.32783 0.1754 0.72446 0.0
H665 H 0.36722 0.12995 0.68303 0.0
H666 H 0.3031 0.12519 0.70094 0.0
H667 H 0.48762 0.23449 0.71316 0.0
H668 H 0.42136 0.93215 0.57772 0.0
H669 H 0.50701 0.06197 0.6064 0.0
H670 H 0.53788 0.93619 0.60736 0.0
H671 H 0.44155 1.01783 0.58684 0.0
Tb672 Tb 0.41075 0.48734 0.83915 0.0
C673 C 0.61042 0.67006 0.82216 0.0
N674 N 0.57766 0.64565 0.81052 0.0
C675 C 0.60828 0.72501 0.7971 0.0
C676 C 0.64334 0.72353 0.82176 0.0
C677 C 0.57624 0.67207 0.79801 0.0
C678 C 0.64189 0.75091 0.80905 0.0
C679 C 0.64496 0.66609 0.84672 0.0
C680 C 0.61035 0.64139 0.83457 0.0
C681 C 0.67766 0.7193 0.84639 0.0
C682 C 0.67669 0.74797 0.83398 0.0
Tb683 Tb 0.52929 0.55924 0.81246 0.0
N684 N 0.57725 0.58976 0.83468 0.0
C685 C 0.64648 0.63669 0.85876 0.0
C686 C 0.57945 0.56136 0.84659 0.0
C687 C 0.61401 0.58411 0.8586 0.0
H688 H 0.54946 0.6525 0.78887 0.0
H689 H 0.61456 0.56096 0.86796 0.0
H690 H 0.50811 0.59926 0.85582 0.0
H691 H 0.33093 0.29043 0.85548 0.0
H692 H 0.55372 0.52155 0.84775 0.0
H693 H 0.67263 0.65415 0.86823 0.0
H694 H 0.34928 0.36158 0.83775 0.0
H695 H 0.60671 0.74586 0.78726 0.0
H696 H 0.70411 0.73866 0.85567 0.0
H697 H 0.7022 0.78898 0.83389 0.0
H698 H 0.54822 0.62225 0.88047 0.0
H699 H 0.66651 0.79199 0.80836 0.0
H700 H 0.37011 0.30911 0.88116 0.0
N701 N 0.46467 0.51844 0.8601 0.0
C702 C 0.45532 0.4814 0.87071 0.0
C703 C 0.52191 0.58245 0.87791 0.0
C704 C 0.47971 0.49374 0.8851 0.0
C705 C 0.49761 0.56869 0.86373 0.0
C706 C 0.51315 0.54493 0.88861 0.0
N707 N 0.39839 0.41923 0.8533 0.0
C708 C 0.36674 0.36978 0.84893 0.0
C709 C 0.41143 0.39117 0.87771 0.0
C710 C 0.42098 0.43047 0.86724 0.0
C711 C 0.37832 0.34033 0.87343 0.0
C712 C 0.35626 0.32959 0.85892 0.0
H713 H 0.53249 0.55591 0.89953 0.0
H714 H 0.48816 0.46375 0.90672 0.0
H715 H 0.42884 0.37401 0.90017 0.0
O716 O 0.32988 0.44449 0.83821 0.0
O717 O 0.40067 0.43815 0.81869 0.0
O718 O 0.47381 0.48464 0.80367 0.0
O719 O 0.36525 0.49195 0.85726 0.0
O720 O 0.38963 0.50971 0.81731 0.0
O721 O 0.46123 0.55616 0.8016 0.0
O722 O 0.59984 0.56986 0.80409 0.0
O723 O 0.50355 0.61252 0.8206 0.0
O724 O 0.44085 0.57325 0.83923 0.0
O725 O 0.54342 0.56789 0.78892 0.0
O726 O 0.52987 0.4908 0.82231 0.0
O727 O 0.45829 0.44736 0.83794 0.0
C728 C 0.42925 0.44393 0.80638 0.0
C729 C 0.28214 0.4176 0.86177 0.0
C730 C 0.22071 0.38932 0.88361 0.0
C731 C 0.20289 0.33849 0.87899 0.0
C732 C 0.26011 0.36606 0.85733 0.0
C733 C 0.22219 0.32715 0.86604 0.0
C734 C 0.26181 0.4292 0.87509 0.0
C735 C 0.41146 0.53492 0.80454 0.0
C736 C 0.3219 0.45832 0.8515 0.0
C737 C 0.4697 0.45475 0.89565 0.0
C738 C 0.43577 0.40364 0.89196 0.0
C739 C 0.47407 0.6148 0.8314 0.0
C740 C 0.58958 0.52816 0.78035 0.0
C741 C 0.63152 0.47829 0.77434 0.0
C742 C 0.596 0.4537 0.76255 0.0
C743 C 0.55513 0.50387 0.76827 0.0
C744 C 0.62764 0.51511 0.78329 0.0
C745 C 0.5582 0.46665 0.75953 0.0
C746 C 0.50021 0.45134 0.83126 0.0
C747 C 0.58579 0.56666 0.78995 0.0
H748 H 0.17281 0.30698 0.8853 0.0
H749 H 0.27132 0.35533 0.84685 0.0
H750 H 0.20663 0.28773 0.86249 0.0
H751 H 0.27626 0.4687 0.8784 0.0
H752 H 0.59849 0.42576 0.75532 0.0
H753 H 0.52574 0.51352 0.76554 0.0
H754 H 0.6544 0.53376 0.79255 0.0
H755 H 0.53169 0.44841 0.75023 0.0
Tb756 Tb 0.95892 0.39958 1.00583 0.0
C757 C 0.99649 0.61257 0.98272 0.0
N758 N 0.97753 0.57131 0.9734 0.0
C759 C 0.93057 0.60336 0.95936 0.0
C760 C 0.98408 0.65171 0.98051 0.0
C761 C 0.94363 0.5654 0.96207 0.0
C762 C 0.95143 0.64707 0.96849 0.0
C763 C 1.04256 0.6543 1.00573 0.0
C764 C 1.02518 0.61353 0.99515 0.0
C765 C 1.03252 0.69464 1.00319 0.0
C766 C 1.00326 0.69332 0.99061 0.0
Tb767 Tb 1.00782 0.51575 0.97713 0.0
N768 N 1.03298 0.573 0.99742 0.0
C769 C 0.06807 0.65264 0.01881 0.0
C770 C 0.05514 0.57032 1.01078 0.0
C771 C 0.07363 0.61006 0.02145 0.0
H772 H 0.92621 0.53119 0.95515 0.0
H773 H 0.09136 0.60725 0.03187 0.0
H774 H 0.94892 0.50036 0.02229 0.0
H775 H 0.07463 0.31607 0.02142 0.0
H776 H 0.05744 0.53731 1.01388 0.0
H777 H 0.0819 0.68307 0.0272 0.0
H778 H 1.02245 0.33626 1.00391 0.0
H779 H 0.90415 0.59869 0.9503 0.0
H780 H 1.04598 0.72634 1.01112 0.0
H781 H 0.99456 0.72397 0.98902 0.0
H782 H 0.97035 0.54361 0.04653 0.0
H783 H 0.94094 0.67626 0.96645 0.0
H784 H 0.09555 0.35454 0.0472 0.0
N785 N 0.9834 0.4539 0.02669 0.0
C786 C 1.01085 0.44362 0.0372 0.0
C787 C 0.98166 0.51525 0.0441 0.0
C788 C 1.0246 0.46895 0.05144 0.0
C789 C 0.96872 0.48933 0.03016 0.0
C790 C 1.00951 0.50497 0.0548 0.0
N791 N 1.01456 0.38573 0.01966 0.0
C792 C 1.03201 0.35361 0.01509 0.0
C793 C 0.05579 0.39752 0.04399 0.0
C794 C 1.02625 0.40804 0.03364 0.0
C795 C 0.07276 0.36355 0.03957 0.0
C796 C 0.06127 0.34195 0.02499 0.0
H797 H 1.01945 0.52529 0.06558 0.0
H798 H 0.06369 0.47677 0.07289 0.0
H799 H 0.09113 0.41446 0.06633 0.0
O800 O 0.91968 0.31886 1.00541 0.0
O801 O 0.9944 0.3842 0.98542 0.0
O802 O 1.02987 0.45927 0.97101 0.0
O803 O 0.90993 0.35663 0.02438 0.0
O804 O 0.91201 0.37784 0.98472 0.0
O805 O 0.94315 0.44626 0.96764 0.0
O806 O 0.07078 0.57376 0.96486 0.0
O807 O 0.93502 0.5004 0.98794 0.0
O808 O 0.90543 0.43289 1.00525 0.0
O809 O 1.00108 0.52154 0.95366 0.0
O810 O 0.07591 0.51814 0.98828 0.0
O811 O 1.04621 0.44784 1.00465 0.0
C812 C 1.02216 0.41315 0.97379 0.0
C813 C 0.89974 0.2725 0.02913 0.0
C814 C 0.86627 0.21084 0.05085 0.0
C815 C 0.89954 0.19283 0.04633 0.0
C816 C 0.92921 0.24997 0.02473 0.0
C817 C 0.93024 0.21193 0.03345 0.0
C818 C 0.86759 0.25224 0.04236 0.0
C819 C 0.91152 0.39817 0.97134 0.0
C820 C 0.89896 0.31248 0.01881 0.0
C821 C 0.05307 0.45773 0.06191 0.0
C822 C 0.06859 0.42213 0.05821 0.0
C823 C 0.90106 0.46996 0.9981 0.0
C824 C 0.07595 0.54256 0.94028 0.0
C825 C 0.14707 0.56908 0.92259 0.0
C826 C 0.12708 0.51855 0.91756 0.0
C827 C 0.05578 0.49188 0.93497 0.0
C828 C 0.12147 0.58094 0.93395 0.0
C829 C 0.08104 0.48027 0.92359 0.0
C830 C 0.08461 0.48931 0.99802 0.0
C831 C 1.04846 0.55588 0.9518 0.0
H832 H 0.90115 0.16272 0.05266 0.0
H833 H 0.951 0.26077 0.01426 0.0
H834 H 0.95416 0.19609 0.02995 0.0
H835 H 0.84248 0.26697 0.0456 0.0
H836 H 0.14635 0.50905 0.90874 0.0
H837 H 1.02015 0.46121 0.93943 0.0
H838 H 0.13696 0.62013 0.9378 0.0
H839 H 0.06461 0.44157 0.91933 0.0
Tb840 Tb 0.60152 0.95207 0.17344 0.0
C841 C 0.42675 0.995 0.14891 0.0
N842 N 0.44917 0.97602 0.13961 0.0
C843 C 0.37453 0.93897 0.12361 0.0
C844 C 0.37773 0.98824 0.14578 0.0
C845 C 0.42309 0.94647 0.12737 0.0
C846 C 0.35203 0.96068 0.13274 0.0
C847 C 0.42753 1.03284 0.17321 0.0
C848 C 0.45127 1.01683 0.16227 0.0
C849 C 0.38023 1.0296 0.16982 0.0
C850 C 0.35527 1.00722 0.15609 0.0
Tb851 Tb 0.53058 0.99336 0.14522 0.0
N852 N 0.49575 1.01703 0.16519 0.0
C853 C 0.45053 0.0487 0.1875 0.0
C854 C 0.51507 1.02773 0.17961 0.0
C855 C 0.49395 0.04495 0.19083 0.0
H856 H 0.44006 0.9291 0.12037 0.0
H857 H 0.51061 0.05425 0.20213 0.0
H858 H 0.54363 0.975 0.20257 0.0
H859 H 0.7985 0.99946 0.16426 0.0
H860 H 0.54591 1.02189 0.18264 0.0
H861 H 0.4336 0.06116 0.19627 0.0
H862 H 0.70629 0.95752 0.15825 0.0
H863 H 0.35443 0.9163 0.11374 0.0
H864 H 0.36167 0.04222 0.178 0.0
H865 H 0.31788 1.003 0.15384 0.0
H866 H 0.56898 1.02081 0.22708 0.0
H867 H 0.31424 0.95447 0.12991 0.0
H868 H 0.83149 0.05052 0.18786 0.0
N869 N 0.61987 0.99612 0.196 0.0
C870 C 0.66975 1.01787 0.20058 0.0
C871 C 0.59781 1.02087 0.21964 0.0
C872 C 0.68584 0.04401 0.2146 0.0
C873 C 0.58366 0.99557 0.20558 0.0
C874 C 0.64915 0.0456 0.22411 0.0
N875 N 0.68754 0.98737 0.17779 0.0
C876 C 0.72041 0.98122 0.16833 0.0
C877 C 0.75706 0.03805 0.19502 0.0
C878 C 0.7049 1.01471 0.19095 0.0
C879 C 0.79108 1.03305 0.18516 0.0
C880 C 0.77262 1.00432 0.1718 0.0
H881 H 0.65994 0.06522 0.23499 0.0
H882 H 0.75105 0.08833 0.22933 0.0
H883 H 0.81339 0.0833 0.21216 0.0
O884 O 0.63356 0.91166 0.18485 0.0
O885 O 0.64138 0.97899 0.15059 0.0
O886 O 0.61289 1.03348 0.14252 0.0
O887 O 0.55337 0.87702 0.18165 0.0
O888 O 0.5921 0.91521 0.15073 0.0
O889 O 0.52233 0.91726 0.14031 0.0
O890 O 0.52293 0.04001 0.12859 0.0
O891 O 0.47966 0.91711 0.15479 0.0
O892 O 0.51608 0.92384 0.17823 0.0
O893 O 0.53909 0.98004 0.12233 0.0
O894 O 0.59388 0.06446 0.15705 0.0
O895 O 0.62948 0.03737 0.17607 0.0
C896 C 0.64561 1.0169 0.14173 0.0
C897 C 0.58138 0.86175 0.20571 0.0
C898 C 0.59499 0.82791 0.23023 0.0
C899 C 0.56644 0.84768 0.2375 0.0
C900 C 0.54979 0.8762 0.21361 0.0
C901 C 0.54358 0.8705 0.22929 0.0
C902 C 0.60387 0.83679 0.21413 0.0
C903 C 0.55533 0.90016 0.14032 0.0
C904 C 0.5897 0.87388 0.18889 0.0
C905 C 0.73789 0.06777 0.21864 0.0
C906 C 0.77342 0.06498 0.20885 0.0
C907 C 0.47472 0.90227 0.16909 0.0
C908 C 0.576 0.0531 0.10674 0.0
C909 C 0.6215 0.13451 0.09338 0.0
C910 C 0.64989 0.11668 0.08529 0.0
C911 C 0.60388 0.03518 0.09824 0.0
C912 C 0.5849 0.10272 0.10413 0.0
C913 C 0.6405 0.06686 0.0876 0.0
C914 C 0.62733 0.07508 0.16858 0.0
C915 C 0.53576 1.01919 0.11757 0.0
H916 H 0.56103 0.8452 0.24974 0.0
H917 H 0.52978 0.89249 0.20765 0.0
H918 H 0.52048 0.88372 0.23515 0.0
H919 H 0.6269 0.82366 0.20818 0.0
H920 H 0.67806 0.14065 0.07689 0.0
H921 H 0.59724 0.99661 0.09973 0.0
H922 H 0.56296 0.11663 0.11036 0.0
H923 H 0.66149 0.05263 0.08108 0.0
Tb924 Tb 0.68333 0.5803 0.33937 0.0
C925 C 0.47451 0.40533 0.31629 0.0
N926 N 0.51541 0.42861 0.30682 0.0
C927 C 0.48605 0.35052 0.29267 0.0
C928 C 0.4371 0.35353 0.31415 0.0
C929 C 0.52239 0.40172 0.29532 0.0
C930 C 0.44295 0.32643 0.30205 0.0
C931 C 0.43068 0.40859 0.3391 0.0
C932 C 0.47177 0.43272 0.32865 0.0
C933 C 0.39248 0.35758 0.33674 0.0
C934 C 0.39572 0.33009 0.32432 0.0
Tb935 Tb 0.56771 0.51424 0.31058 0.0
N936 N 0.51013 0.48192 0.33075 0.0
C937 C 0.42941 0.43602 0.35178 0.0
C938 C 0.50935 0.50777 0.34355 0.0
C939 C 0.46912 0.48564 0.35405 0.0
H940 H 0.55621 0.41966 0.28819 0.0
H941 H 0.46938 0.50675 0.3641 0.0
H942 H 0.57843 0.47038 0.3541 0.0
H943 H 0.76949 0.77638 0.35723 0.0
H944 H 0.54015 0.54461 0.34646 0.0
H945 H 0.39861 0.41887 0.36005 0.0
H946 H 0.75012 0.70595 0.33906 0.0
H947 H 0.49155 0.32959 0.28349 0.0
H948 H 0.36067 0.33874 0.34463 0.0
H949 H 0.36647 0.29047 0.32281 0.0
H950 H 0.53191 0.44689 0.37781 0.0
H951 H 0.41505 0.28662 0.30006 0.0
H952 H 0.72606 0.75729 0.38233 0.0
N953 N 0.62562 0.54983 0.35947 0.0
C954 C 0.63491 0.58632 0.37028 0.0
C955 C 0.56112 0.48624 0.3759 0.0
C956 C 0.60733 0.57391 0.38417 0.0
C957 C 0.58904 0.50011 0.36228 0.0
C958 C 0.57028 0.52317 0.38689 0.0
N959 N 0.69688 0.64823 0.35387 0.0
C960 C 0.73095 0.69755 0.34999 0.0
C961 C 0.68154 0.67577 0.3781 0.0
C962 C 0.6719 0.63686 0.36744 0.0
C963 C 0.71755 0.72637 0.37442 0.0
C964 C 0.74202 0.73735 0.36024 0.0
H965 H 0.54829 0.51215 0.39738 0.0
H966 H 0.59671 0.60336 0.40564 0.0
H967 H 0.66144 0.69249 0.40028 0.0
O968 O 0.76439 0.62129 0.33946 0.0
O969 O 0.69751 0.63251 0.31948 0.0
O970 O 0.62714 0.58933 0.30325 0.0
O971 O 0.72492 0.57227 0.35793 0.0
O972 O 0.70569 0.55565 0.31814 0.0
O973 O 0.63763 0.51932 0.30081 0.0
O974 O 0.50846 0.52144 0.29963 0.0
O975 O 0.58419 0.45682 0.32119 0.0
O976 O 0.65109 0.49432 0.3387 0.0
O977 O 0.55624 0.50034 0.2872 0.0
O978 O 0.56671 0.58074 0.32164 0.0
O979 O 0.63748 0.62179 0.33776 0.0
C980 C 0.67142 0.62896 0.30681 0.0
C981 C 0.80828 0.64433 0.36371 0.0
C982 C 0.8623 0.66815 0.38714 0.0
C983 C 0.8828 0.71977 0.38306 0.0
C984 C 0.83294 0.6965 0.35984 0.0
C985 C 0.86862 0.73362 0.36955 0.0
C986 C 0.82443 0.63013 0.37736 0.0
C987 C 0.68577 0.53527 0.30468 0.0
C988 C 0.76958 0.60554 0.35278 0.0
C989 C 0.61751 0.61242 0.39494 0.0
C990 C 0.65446 0.66317 0.39192 0.0
C991 C 0.6149 0.45326 0.33136 0.0
C992 C 0.53474 0.55558 0.27455 0.0
C993 C 0.51239 0.61294 0.26119 0.0
C994 C 0.55421 0.6275 0.25134 0.0
C995 C 0.57714 0.57144 0.26468 0.0
C996 C 0.50289 0.57711 0.27282 0.0
C997 C 0.58661 0.60707 0.25319 0.0
C998 C 0.59601 0.61875 0.33108 0.0
C999 C 0.52291 0.51542 0.28616 0.0
H1000 H 0.91181 0.74979 0.39007 0.0
H1001 H 0.82541 0.7091 0.34911 0.0
H1002 H 0.88638 0.77357 0.36639 0.0
H1003 H 0.8081 0.59007 0.38026 0.0
H1004 H 0.56163 0.65452 0.24221 0.0
H1005 H 0.60285 0.55598 0.26567 0.0
H1006 H 0.46964 0.56459 0.28013 0.0
H1007 H 0.61892 0.6185 0.24559 0.0
H1008 H 0.09562 0.72878 0.21477 0.0
H1009 H 0.20105 0.74979 0.30033 0.0
H1010 H 1.01843 0.61202 0.2487 0.0
H1011 H 0.26167 0.87714 0.26919 0.0
H1012 H 0.13051 0.70083 0.28229 0.0
H1013 H 0.15279 0.78613 0.23484 0.0
C1014 C 0.08917 0.71594 0.22651 0.0
C1015 C 0.05103 0.66579 0.23003 0.0
C1016 C 0.15881 0.7398 0.27949 0.0
C1017 C 0.11837 0.73045 0.25312 0.0
C1018 C 0.19893 0.76802 0.28992 0.0
C1019 C 0.23779 0.81794 0.28641 0.0
C1020 C 0.15731 0.7613 0.2653 0.0
C1021 C 0.23302 0.83878 0.27246 0.0
C1022 C 0.12248 0.74839 0.23799 0.0
C1023 C 1.04646 0.65066 0.24546 0.0
N1024 N 0.19432 0.81045 0.26245 0.0
N1025 N 0.07977 0.68229 0.25628 0.0
H1026 H 0.47453 0.25337 0.44861 0.0
H1027 H 0.35417 0.98075 0.40466 0.0
H1028 H 0.3562 0.11106 0.46725 0.0
H1029 H 0.48151 0.11921 0.38736 0.0
H1030 H 0.34778 1.03006 0.42625 0.0
H1031 H 0.47526 0.20676 0.42547 0.0
C1032 C 0.44905 0.21246 0.44796 0.0
C1033 C 0.41479 0.18668 0.45999 0.0
C1034 C 0.37643 0.04995 0.41754 0.0
C1035 C 0.41433 0.13282 0.43318 0.0
C1036 C 0.37939 1.02177 0.40503 0.0
C1037 C 0.41766 0.04581 0.3939 0.0
C1038 C 0.41233 0.10263 0.41909 0.0
C1039 C 0.45081 0.09902 0.39549 0.0
C1040 C 0.44898 0.18581 0.43463 0.0
C1041 C 0.38258 0.13328 0.45826 0.0
N1042 N 0.4477 0.12529 0.40779 0.0
N1043 N 0.38292 0.10855 0.44522 0.0
H1044 H 0.29983 0.52362 0.60361 0.0
H1045 H 0.44845 0.38112 0.57992 0.0
H1046 H 0.2635 0.38746 0.62922 0.0
H1047 H 0.37961 0.43348 0.54667 0.0
H1048 H 0.39396 0.38825 0.59987 0.0
H1049 H 0.34544 0.50083 0.58501 0.0
C1050 C 0.30149 0.48883 0.60545 0.0
C1051 C 0.27601 0.45682 0.618 0.0
C1052 C 0.38964 0.39662 0.58813 0.0
C1053 C 0.33078 0.43118 0.59649 0.0
C1054 C 0.42023 0.39186 0.57667 0.0
C1055 C 0.41737 0.40476 0.56138 0.0
C1056 C 0.35751 0.41676 0.58445 0.0
C1057 C 0.38216 0.4215 0.55811 0.0
C1058 C 0.32767 0.47585 0.59469 0.0
C1059 C 0.28195 0.41334 0.61979 0.0
N1060 N 0.35461 0.42789 0.5695 0.0
N1061 N 0.30868 0.40181 0.60918 0.0
H1062 H 0.09783 0.38905 0.73757 0.0
H1063 H 0.82472 0.24542 0.78178 0.0
H1064 H 0.96067 0.38396 0.7208 0.0
H1065 H 0.96383 0.25599 0.79919 0.0
H1066 H 0.87281 0.29442 0.75911 0.0
H1067 H 1.04795 0.33438 0.75913 0.0
C1068 C 0.05697 0.37488 0.73804 0.0
C1069 C 1.0335 0.39043 0.72703 0.0
C1070 C 0.89283 0.28605 0.76792 0.0
C1071 C 0.97601 0.32942 0.75223 0.0
C1072 C 0.86537 0.25858 0.781 0.0
C1073 C 0.88979 0.24593 0.79252 0.0
C1074 C 0.9453 0.30114 0.76622 0.0
C1075 C 0.94284 0.26401 0.79062 0.0
C1076 C 1.02846 0.3443 0.75054 0.0
C1077 C 0.98046 0.37236 0.72879 0.0
N1078 N 0.96839 0.29007 0.77783 0.0
N1079 N 0.9539 0.34348 0.74107 0.0
H1080 H 0.72886 0.08993 0.90597 0.0
H1081 H 0.61589 0.8168 0.94932 0.0
H1082 H 0.60449 0.94994 0.88832 0.0
H1083 H 0.72844 0.96064 0.96872 0.0
H1084 H 0.61209 0.86341 0.92661 0.0
H1085 H 0.73371 0.04189 0.92812 0.0
C1086 C 0.70378 0.0489 0.90646 0.0
C1087 C 0.66701 1.024 0.895 0.0
C1088 C 0.63763 0.88475 0.93586 0.0
C1089 C 0.67095 0.96848 0.92073 0.0
C1090 C 0.63934 0.85805 0.94895 0.0
C1091 C 0.67296 0.88431 0.96106 0.0
C1092 C 0.66988 0.93831 0.93473 0.0
C1093 C 0.70258 0.93813 0.95967 0.0
C1094 C 0.70587 1.02144 0.91927 0.0
C1095 C 0.63408 0.97079 0.8967 0.0
N1096 N 0.70064 0.96292 0.94686 0.0
N1097 N 0.63676 0.94509 0.9092 0.0
H1098 H 0.79878 0.54423 0.10424 0.0
H1099 H 0.65675 0.69383 0.07948 0.0
H1100 H 0.83614 0.68165 0.12936 0.0
H1101 H 0.71564 0.62785 0.0472 0.0
H1102 H 0.71083 0.68655 0.09949 0.0
H1103 H 0.75322 0.56653 0.08555 0.0
C1104 C 0.797 0.57901 0.10599 0.0
C1105 C 0.82264 0.61143 0.11843 0.0
C1106 C 0.71307 0.67515 0.08792 0.0
C1107 C 0.76846 0.63693 0.09676 0.0
C1108 C 0.68271 0.67995 0.07641 0.0
C1109 C 0.68286 0.66322 0.06138 0.0
C1110 C 0.74218 0.65126 0.08458 0.0
C1111 C 0.7152 0.64274 0.05841 0.0
C1112 C 0.77105 0.59185 0.09516 0.0
C1113 C 0.81728 0.65532 0.12004 0.0
N1114 N 0.74256 0.63658 0.06985 0.0
N1115 N 0.79082 0.66678 0.10936 0.0
H1116 H 0.40798 0.09164 0.61918 0.0
H1117 H 0.25821 0.81886 0.57518 0.0
H1118 H 0.39976 0.95363 0.63622 0.0
H1119 H 0.28227 0.96153 0.55643 0.0
H1120 H 0.30583 0.86554 0.5982 0.0
H1121 H 0.35377 0.04243 0.59744 0.0
C1122 C 0.39319 0.05071 0.6187 0.0
C1123 C 0.4075 1.02673 0.62988 0.0
C1124 C 0.30052 0.88657 0.58904 0.0
C1125 C 0.34689 0.96996 0.60453 0.0
C1126 C 0.27377 0.85987 0.57577 0.0
C1127 C 0.2652 0.88572 0.56374 0.0
C1128 C 0.31894 0.93972 0.59044 0.0
C1129 C 0.28654 0.93926 0.56541 0.0
C1130 C 0.36284 1.02259 0.60612 0.0
C1131 C 0.38887 0.9737 0.62814 0.0
N1132 N 0.31173 0.96403 0.57839 0.0
N1133 N 0.36003 0.94742 0.6158 0.0
H1134 H 0.45985 0.31427 0.72159 0.0
H1135 H 0.395 0.33962 0.80961 0.0
H1136 H 0.38079 0.1825 0.75061 0.0
H1137 H 0.4349 0.45701 0.77577 0.0
H1138 H 0.39376 0.28161 0.78932 0.0
H1139 H 0.45936 0.36842 0.74252 0.0
C1140 C 0.44393 0.29691 0.73252 0.0
C1141 C 0.4211 0.24371 0.73433 0.0
C1142 C 0.40207 0.31988 0.78632 0.0
C1143 C 0.41958 0.30579 0.75853 0.0
C1144 C 0.40189 0.35271 0.79789 0.0
C1145 C 0.41434 0.40322 0.79442 0.0
C1146 C 0.4155 0.33784 0.7712 0.0
C1147 C 0.42481 0.41842 0.77903 0.0
C1148 C 0.44301 0.32781 0.74447 0.0
C1149 C 0.39947 0.22338 0.74872 0.0
N1150 N 0.4256 0.38637 0.76814 0.0
N1151 N 0.39926 0.25422 0.7602 0.0
H1152 H 0.12558 0.45569 0.9719 0.0
H1153 H 0.1173 0.34808 0.88745 0.0
H1154 H 0.98709 0.34198 0.9504 0.0
H1155 H 0.25939 0.44697 0.91037 0.0
H1156 H 0.07014 0.34719 0.91027 0.0
H1157 H 0.17546 0.45173 0.9503 0.0
C1158 C 0.10573 0.42824 0.96291 0.0
C1159 C 0.05192 0.39781 0.96334 0.0
C1160 C 0.11159 0.36926 0.9104 0.0
C1161 C 0.10925 0.39471 0.93792 0.0
C1162 C 0.13878 0.37016 0.89726 0.0
C1163 C 0.19285 0.39751 0.89683 0.0
C1164 C 0.13804 0.39607 0.92352 0.0
C1165 C 0.21795 0.42559 0.91 0.0
C1166 C 0.13436 0.42653 0.95043 0.0
C1167 C 1.02845 0.36477 0.95093 0.0
N1168 N 0.19048 0.42398 0.92275 0.0
N1169 N 0.05708 0.36435 0.93877 0.0
H1170 H 0.70224 0.11973 0.13836 0.0
H1171 H 0.80721 0.10742 0.05511 0.0
H1172 H 0.68329 0.98033 0.11863 0.0
H1173 H 0.84362 0.24976 0.07703 0.0
H1174 H 0.76091 0.06109 0.07794 0.0
H1175 H 0.75491 0.16776 0.1166 0.0
C1176 C 0.71044 0.09927 0.12965 0.0
C1177 C 0.68873 0.0457 0.13062 0.0
C1178 C 0.77885 0.1024 0.07783 0.0
C1179 C 0.74874 0.10112 0.10504 0.0
C1180 C 0.80522 0.12915 0.0647 0.0
C1181 C 0.83015 0.1831 0.064 0.0
C1182 C 0.77642 0.12917 0.09065 0.0
C1183 C 0.82511 0.20843 0.07686 0.0
C1184 C 0.74036 0.12689 0.1171 0.0
C1185 C 0.70007 1.02153 0.11869 0.0
N1186 N 0.79913 0.18138 0.08959 0.0
N1187 N 0.72876 0.04924 0.1064 0.0
H1188 H 0.71006 0.64387 0.27763 0.0
H1189 H 0.54491 0.76446 0.25448 0.0
H1190 H 0.65628 0.71007 0.31145 0.0
H1191 H 0.68549 0.82057 0.22886 0.0
H1192 H 0.57774 0.72892 0.27328 0.0
H1193 H 0.69946 0.69656 0.25791 0.0
C1194 C 0.69833 0.67122 0.28106 0.0
C1195 C 0.68567 0.67354 0.29643 0.0
C1196 C 0.60159 0.74911 0.26358 0.0
C1197 C 0.66906 0.73065 0.2736 0.0
C1198 C 0.58303 0.76996 0.25274 0.0
C1199 C 0.61308 0.79815 0.24012 0.0
C1200 C 0.64988 0.75338 0.26171 0.0
C1201 C 0.66085 0.80006 0.23836 0.0
C1202 C 0.6915 0.70069 0.26972 0.0
C1203 C 0.66779 0.70768 0.29993 0.0
N1204 N 0.67766 0.77788 0.24897 0.0
N1205 N 0.6588 0.7336 0.28864 0.0
H1206 H 1.01266 0.69092 0.47581 0.0
H1207 H 0.90684 0.60701 0.38973 0.0
H1208 H 0.07469 0.62863 0.44321 0.0
H1209 H 0.87242 0.70706 0.41622 0.0
H1210 H 0.9598 0.6055 0.41088 0.0
H1211 H 0.95603 0.6927 0.45554 0.0
C1212 C 1.01546 0.67894 0.46436 0.0
C1213 C 1.04915 0.66008 0.46127 0.0
C1214 C 0.94016 0.62732 0.41218 0.0
C1215 C 0.98263 0.6597 0.43812 0.0
C1216 C 0.90919 0.62752 0.40013 0.0
C1217 C 0.88456 0.65686 0.40111 0.0
C1218 C 0.94664 0.65637 0.42551 0.0
C1219 C 0.89041 0.68368 0.4149 0.0
C1220 C 0.98251 0.67916 0.45282 0.0
C1221 C 0.04956 0.64354 0.44622 0.0
N1222 N 0.92068 0.68291 0.42645 0.0
N1223 N 1.01688 0.6433 0.43539 0.0
H1224 H 0.5178 0.6327 0.31835 0.0
H1225 H 0.57138 0.87864 0.3704 0.0
H1226 H 0.63629 0.69975 0.35223 0.0
H1227 H 0.45336 0.81882 0.33611 0.0
H1228 H 0.59391 0.81334 0.36372 0.0
H1229 H 0.49294 0.6978 0.32429 0.0
C1230 C 0.53886 0.66078 0.32709 0.0
C1231 C 0.57983 0.65941 0.33474 0.0
C1232 C 0.563 0.81408 0.35758 0.0
C1233 C 0.55065 0.73612 0.34175 0.0
C1234 C 0.54976 0.85194 0.36143 0.0
C1235 C 0.50977 0.85558 0.35397 0.0
C1236 C 0.53655 0.77788 0.34601 0.0
C1237 C 0.48429 0.81857 0.34236 0.0
C1238 C 0.52443 0.69842 0.33047 0.0
C1239 C 0.60486 0.69809 0.34588 0.0
N1240 N 0.49791 0.78186 0.33883 0.0
N1241 N 0.59008 0.73398 0.34898 0.0
H1242 H 0.72489 0.51654 0.54339 0.0
H1243 H 0.92658 0.50371 0.48415 0.0
H1244 H 0.67499 0.4438 0.49968 0.0
H1245 H 0.9716 0.60623 0.52245 0.0
H1246 H 0.8359 0.47568 0.48999 0.0
H1247 H 0.81336 0.54298 0.53656 0.0
C1248 C 0.732 0.5061 0.53226 0.0
C1249 C 0.69049 0.47815 0.52218 0.0
C1250 C 0.86551 0.5044 0.49715 0.0
C1251 C 0.79563 0.50798 0.51414 0.0
C1252 C 0.91797 0.5206 0.49383 0.0
C1253 C 0.95872 0.55822 0.50272 0.0
C1254 C 0.85202 0.52486 0.50973 0.0
C1255 C 0.94311 0.57785 0.51507 0.0
C1256 C 0.78343 0.52122 0.52836 0.0
C1257 C 0.70439 0.46502 0.50806 0.0
N1258 N 0.89209 0.56099 0.51818 0.0
N1259 N 0.75495 0.47977 0.50455 0.0
H1260 H 0.37853 0.95401 0.68563 0.0
H1261 H 0.26227 0.64907 0.66887 0.0
H1262 H 0.44832 0.8999 0.65319 0.0
H1263 H 0.20142 0.71009 0.70225 0.0
H1264 H 0.32882 0.73775 0.66246 0.0
H1265 H 0.31381 0.86543 0.69123 0.0
C1266 C 0.38065 0.92398 0.67959 0.0
C1267 C 0.42028 0.93656 0.66882 0.0
C1268 C 0.3009 0.7318 0.6712 0.0
C1269 C 0.34366 0.83105 0.67536 0.0
C1270 C 0.2624 0.68059 0.67491 0.0
C1271 C 0.22484 0.67024 0.68628 0.0
C1272 C 0.30284 0.77445 0.67879 0.0
C1273 C 0.22857 0.71439 0.69347 0.0
C1274 C 0.34311 0.87248 0.68285 0.0
C1275 C 0.41939 0.89367 0.66161 0.0
N1276 N 0.26595 0.76327 0.68967 0.0
N1277 N 0.38236 0.84384 0.66494 0.0
H1278 H 0.56716 0.42814 0.815 0.0
H1279 H 0.56255 0.22163 0.87558 0.0
H1280 H 0.47306 0.38036 0.85525 0.0
H1281 H 0.6238 0.23343 0.83043 0.0
H1282 H 0.53589 0.28362 0.86872 0.0
H1283 H 0.59377 0.36401 0.82058 0.0
C1284 C 0.5518 0.40445 0.82505 0.0
C1285 C 0.51694 0.41078 0.83456 0.0
C1286 C 0.55511 0.27299 0.8602 0.0
C1287 C 0.54875 0.33565 0.84128 0.0
C1288 C 0.57043 0.2367 0.86412 0.0
C1289 C 0.59534 0.22009 0.85366 0.0
C1290 C 0.56519 0.2955 0.8456 0.0
C1291 C 0.60485 0.24381 0.83909 0.0
C1292 C 0.56717 0.3673 0.82822 0.0
C1293 C 0.49921 0.37771 0.84736 0.0
N1294 N 0.59018 0.27984 0.8356 0.0
N1295 N 0.51529 0.34269 0.85031 0.0
H1296 H 0.1252 0.45612 0.02141 0.0
H1297 H 0.42824 0.62732 0.99997 0.0
H1298 H 0.17636 0.56256 0.98411 0.0
H1299 H 0.37218 0.5452 0.0421 0.0
H1300 H 0.33885 0.60226 0.99296 0.0
H1301 H 0.21472 0.48412 0.02786 0.0
C1302 C 0.15478 0.48519 0.01447 0.0
C1303 C 0.14121 0.5063 1.00212 0.0
C1304 C 0.34604 0.58959 1.00377 0.0
C1305 C 0.24749 0.53968 1.00956 0.0
C1306 C 0.39768 0.60424 1.00786 0.0
C1307 C 0.40953 0.5884 0.02178 0.0
C1308 C 0.30448 0.55806 1.01349 0.0
C1309 C 0.36654 0.55797 0.03119 0.0
C1310 C 0.20674 0.50158 0.01823 0.0
C1311 C 0.18345 0.54461 0.99378 0.0
N1312 N 0.31714 0.54391 0.02691 0.0
N1313 N 0.23369 0.55956 0.99755 0.0
H1314 H 0.8693 0.40941 0.16356 0.0
H1315 H 0.68851 0.11836 0.19471 0.0
H1316 H 0.85243 0.37128 0.21122 0.0
H1317 H 0.66026 0.16534 0.15121 0.0
H1318 H 0.7545 0.20743 0.19993 0.0
H1319 H 0.80069 0.32092 0.15786 0.0
C1320 C 0.85174 0.3829 0.17292 0.0
C1321 C 0.86895 0.39952 0.18803 0.0
C1322 C 0.73406 0.19862 0.1892 0.0
C1323 C 0.78861 0.29479 0.18135 0.0
C1324 C 0.69583 0.14689 0.18614 0.0
C1325 C 0.66725 0.13213 0.17239 0.0
C1326 C 0.74618 0.23795 0.17838 0.0
C1327 C 0.68005 0.17319 0.16203 0.0
C1328 C 0.81211 0.33165 0.1696 0.0
C1329 C 0.84298 0.36147 0.19937 0.0
N1330 N 0.71809 0.22296 0.16512 0.0
N1331 N 0.80553 0.31207 0.19585 0.0
H1332 H 0.25556 0.57 0.48068 0.0
H1333 H 0.44697 0.55557 0.54329 0.0
H1334 H 0.25314 0.61247 0.5274 0.0
H1335 H 0.40902 0.47322 0.50086 0.0
H1336 H 0.38404 0.58361 0.53752 0.0
H1337 H 0.31711 0.54223 0.48742 0.0
C1338 C 0.26737 0.57331 0.49244 0.0
C1339 C 0.24682 0.59296 0.50339 0.0
C1340 C 0.38927 0.55931 0.52943 0.0
C1341 C 0.32161 0.56213 0.51135 0.0
C1342 C 0.42573 0.54319 0.5327 0.0
C1343 C 0.43429 0.51112 0.52264 0.0
C1344 C 0.3608 0.54464 0.51572 0.0
C1345 C 0.40435 0.497 0.50917 0.0
C1346 C 0.3034 0.55756 0.49629 0.0
C1347 C 0.26683 0.59774 0.51835 0.0
N1348 N 0.36999 0.51388 0.50614 0.0
N1349 N 0.30258 0.58272 0.52181 0.0
H1350 H 0.72112 0.18921 0.65723 0.0
H1351 H 0.91199 0.44987 0.7036 0.0
H1352 H 0.66085 0.26513 0.68508 0.0
H1353 H 0.96231 0.36953 0.67384 0.0
H1354 H 0.82202 0.38573 0.69767 0.0
H1355 H 0.8078 0.25511 0.66356 0.0
C1356 C 0.72539 0.21977 0.66458 0.0
C1357 C 0.68131 0.2202 0.67025 0.0
C1358 C 0.85267 0.3821 0.69236 0.0
C1359 C 0.78518 0.29894 0.67811 0.0
C1360 C 0.90474 0.41916 0.69577 0.0
C1361 C 0.94681 0.41669 0.68921 0.0
C1362 C 0.84093 0.34092 0.68226 0.0
C1363 C 0.93282 0.37474 0.67919 0.0
C1364 C 0.77603 0.25802 0.66832 0.0
C1365 C 0.69225 0.26198 0.68014 0.0
N1366 N 0.88231 0.33946 0.67613 0.0
N1367 N 0.74222 0.29898 0.68367 0.0
H1368 H 0.51287 0.9063 0.87346 0.0
H1369 H 0.51603 0.70162 0.81323 0.0
H1370 H 0.60003 0.94938 0.83184 0.0
H1371 H 0.45371 0.65563 0.85832 0.0
H1372 H 0.54116 0.7902 0.81947 0.0
H1373 H 0.48556 0.81579 0.86793 0.0
C1374 C 0.5265 0.89726 0.8631 0.0
C1375 C 0.56 0.93747 0.85326 0.0
C1376 C 0.52196 0.76111 0.8281 0.0
C1377 C 0.52751 0.83084 0.84664 0.0
C1378 C 0.50769 0.70969 0.82454 0.0
C1379 C 0.48306 0.66927 0.83519 0.0
C1380 C 0.5113 0.77438 0.84255 0.0
C1381 C 0.47224 0.68414 0.84951 0.0
C1382 C 0.5108 0.8449 0.85997 0.0
C1383 C 0.57557 0.92135 0.84008 0.0
N1384 N 0.48624 0.73465 0.85269 0.0
N1385 N 0.5593 0.87036 0.83721 0.0
H1386 H 0.63261 0.49142 0.03624 0.0
H1387 H 0.88748 0.55013 0.9881 0.0
H1388 H 0.71265 0.62001 1.00623 0.0
H1389 H 0.81543 0.42142 0.01847 0.0
H1390 H 0.82322 0.57379 0.9946 0.0
H1391 H 0.69589 0.46417 0.0302 0.0
C1392 C 0.66318 0.51423 0.02832 0.0
C1393 C 0.66593 0.55871 0.02177 0.0
C1394 C 0.82085 0.54016 0.99988 0.0
C1395 C 0.74057 0.52666 0.01464 0.0
C1396 C 0.85813 0.5261 0.99606 0.0
C1397 C 0.85824 0.48281 1.00241 0.0
C1398 C 0.78149 0.51127 1.01039 0.0
C1399 C 0.818 0.45484 1.01299 0.0
C1400 C 0.69976 0.49836 0.02487 0.0
C1401 C 0.70764 0.58574 1.01166 0.0
N1402 N 0.78184 0.46933 0.01655 0.0
N1403 N 0.74245 0.56952 1.00848 0.0
H1404 H 0.38223 0.87281 0.15461 0.0
H1405 H 0.18606 0.63882 0.20993 0.0
H1406 H 0.4368 0.83522 0.19527 0.0
H1407 H 0.13865 0.69367 0.17146 0.0
H1408 H 0.27573 0.7062 0.20517 0.0
H1409 H 0.29495 0.80677 0.16085 0.0
C1410 C 0.3765 0.851 0.16495 0.0
C1411 C 0.41928 0.8614 0.17428 0.0
C1412 C 0.24585 0.70369 0.19772 0.0
C1413 C 0.31469 0.78181 0.18168 0.0
C1414 C 0.19382 0.6646 0.20043 0.0
C1415 C 0.15244 0.65887 0.19115 0.0
C1416 C 0.25858 0.73861 0.18545 0.0
C1417 C 0.16739 0.69503 0.17909 0.0
C1418 C 0.32557 0.81254 0.16853 0.0
C1419 C 0.40654 0.83016 0.18755 0.0
N1420 N 0.21791 0.73217 0.17667 0.0
N1421 N 0.35639 0.79237 0.19072 0.0
H1422 H 0.5395 0.35946 0.32012 0.0
H1423 H 0.5953 0.1669 0.37137 0.0
H1424 H 0.66174 0.41752 0.35289 0.0
H1425 H 0.47383 0.11752 0.33847 0.0
H1426 H 0.62155 0.25672 0.36514 0.0
H1427 H 0.51749 0.27251 0.32674 0.0
C1428 C 0.56237 0.35465 0.32866 0.0
C1429 C 0.60328 0.39815 0.33564 0.0
C1430 C 0.58921 0.22634 0.35921 0.0
C1431 C 0.57698 0.29409 0.34376 0.0
C1432 C 0.57397 0.17435 0.36277 0.0
C1433 C 0.53185 0.13263 0.35546 0.0
C1434 C 0.56255 0.23834 0.34813 0.0
C1435 C 0.50652 0.14681 0.34447 0.0
C1436 C 0.54936 0.30388 0.33254 0.0
C1437 C 0.63013 0.38656 0.3469 0.0
N1438 N 0.52201 0.19733 0.34124 0.0
N1439 N 0.61669 0.3365 0.35052 0.0
H1440 H 0.16977 0.65572 0.44012 0.0
H1441 H 0.4421 0.88669 0.41428 0.0
H1442 H 0.27891 0.75769 0.47308 0.0
H1443 H 0.30783 0.83681 0.38627 0.0
H1444 H 0.38776 0.83139 0.43491 0.0
H1445 H 0.22369 0.71221 0.41956 0.0
C1446 C 0.20521 0.68976 0.4431 0.0
C1447 C 0.21937 0.70146 0.45855 0.0
C1448 C 0.37012 0.83244 0.42426 0.0
C1449 C 0.28247 0.76667 0.43468 0.0
C1450 C 0.40128 0.86406 0.41235 0.0
C1451 C 0.38004 0.86706 0.39829 0.0
C1452 C 0.3169 0.8019 0.42218 0.0
C1453 C 0.32641 0.83626 0.39678 0.0
C1454 C 0.23596 0.72225 0.43128 0.0
C1455 C 0.26597 0.74672 0.46146 0.0
N1456 N 0.29705 0.80486 0.40842 0.0
N1457 N 0.29583 0.7771 0.44972 0.0
H1458 H 0.54485 0.30393 0.55028 0.0
H1459 H 0.53411 0.25145 0.64076 0.0
H1460 H 0.56287 0.41614 0.58401 0.0
H1461 H 0.56514 0.16353 0.60782 0.0
H1462 H 0.53687 0.30799 0.62009 0.0
H1463 H 0.54452 0.24819 0.5709 0.0
C1464 C 0.54886 0.31707 0.56196 0.0
C1465 C 0.55433 0.36544 0.56522 0.0
C1466 C 0.54325 0.27642 0.61738 0.0
C1467 C 0.55307 0.30077 0.58914 0.0
C1468 C 0.54164 0.24394 0.62924 0.0
C1469 C 0.54975 0.2024 0.62624 0.0
C1470 C 0.55206 0.26721 0.6022 0.0
C1471 C 0.5591 0.19505 0.61088 0.0
C1472 C 0.54873 0.28511 0.57378 0.0
C1473 C 0.55913 0.3797 0.58075 0.0
N1474 N 0.55964 0.22663 0.59955 0.0
N1475 N 0.55805 0.34768 0.59201 0.0
H1476 H 0.43123 0.61129 0.78347 0.0
H1477 H 0.18846 0.44783 0.73006 0.0
H1478 H 0.31332 0.46072 0.79672 0.0
H1479 H 0.24893 0.61015 0.73508 0.0
H1480 H 0.24349 0.45023 0.75121 0.0
H1481 H 0.37524 0.61062 0.76275 0.0
C1482 C 0.3936 0.57809 0.78208 0.0
C1483 C 0.3771 0.53622 0.7921 0.0
C1484 C 0.24485 0.48537 0.74766 0.0
C1485 C 0.31298 0.53457 0.76787 0.0
C1486 C 0.21347 0.48411 0.7355 0.0
C1487 C 0.21352 0.52881 0.73064 0.0
C1488 C 0.27826 0.53199 0.7549 0.0
C1489 C 0.24713 0.57458 0.73834 0.0
C1490 C 0.36156 0.5778 0.77022 0.0
C1491 C 0.32774 0.49424 0.78951 0.0
N1492 N 0.27831 0.57507 0.74986 0.0
N1493 N 0.298 0.49423 0.77764 0.0
H1494 H 0.77432 0.25541 0.88326 0.0
H1495 H 0.8258 0.30109 0.97384 0.0
H1496 H 0.66318 0.16116 0.91704 0.0
H1497 H 0.91425 0.41629 0.94035 0.0
H1498 H 0.76963 0.24626 0.95329 0.0
H1499 H 0.82943 0.31118 0.90383 0.0
C1500 C 0.76127 0.24632 0.89495 0.0
C1501 C 0.71338 0.20326 0.89822 0.0
C1502 C 0.80124 0.28363 0.95044 0.0
C1503 C 0.7774 0.26725 0.92212 0.0
C1504 C 0.83351 0.31512 0.96222 0.0
C1505 C 0.87509 0.36406 0.95904 0.0
C1506 C 0.81067 0.30035 0.93514 0.0
C1507 C 0.88268 0.37937 0.94357 0.0
C1508 C 0.7929 0.27837 0.90675 0.0
C1509 C 0.69927 0.19392 0.91377 0.0
N1510 N 0.85129 0.34782 0.93233 0.0
N1511 N 0.73095 0.22517 0.92501 0.0
H1512 H 0.50859 0.88463 0.11213 0.0
H1513 H 0.55382 0.65601 0.08455 0.0
H1514 H 0.59579 0.83455 0.13899 0.0
H1515 H 0.54008 0.75632 0.05218 0.0
H1516 H 0.55647 0.71199 0.10533 0.0
H1517 H 0.50712 0.82992 0.0911 0.0
C1518 C 0.52726 0.86202 0.11372 0.0
C1519 C 0.55242 0.86471 0.12756 0.0
C1520 C 0.55274 0.72178 0.0937 0.0
C1521 C 0.54996 0.80049 0.10324 0.0
C1522 C 0.55087 0.68955 0.08175 0.0
C1523 C 0.54648 0.70092 0.0664 0.0
C1524 C 0.54892 0.76564 0.09055 0.0
C1525 C 0.5435 0.74565 0.06372 0.0
C1526 C 0.52653 0.83081 0.10159 0.0
C1527 C 0.57591 0.83413 0.12865 0.0
N1528 N 0.54422 0.77584 0.07561 0.0
N1529 N 0.57366 0.80318 0.11681 0.0
H1530 H 0.78123 0.54174 0.30751 0.0
H1531 H 0.83989 0.55592 0.21726 0.0
H1532 H 0.67123 0.52703 0.27347 0.0
H1533 H 0.92164 0.51814 0.2505 0.0
H1534 H 0.78273 0.55455 0.2377 0.0
H1535 H 0.83764 0.54197 0.28704 0.0
C1536 C 0.7687 0.53842 0.29578 0.0
C1537 C 0.72072 0.53388 0.2924 0.0
C1538 C 0.81313 0.54646 0.24051 0.0
C1539 C 0.7863 0.53516 0.26863 0.0
C1540 C 0.846 0.54736 0.2288 0.0
C1541 C 0.88587 0.53678 0.23196 0.0
C1542 C 0.8204 0.53593 0.2557 0.0
C1543 C 0.89141 0.52606 0.24731 0.0
C1544 C 0.80106 0.53852 0.28404 0.0
C1545 C 0.70731 0.53 0.27681 0.0
N1546 N 0.85957 0.52625 0.25849 0.0
N1547 N 0.73977 0.53108 0.26563 0.0
H1548 H 0.88567 0.3416 0.45375 0.0
H1549 H 0.58718 0.22447 0.43872 0.0
H1550 H 0.81743 0.43455 0.44228 0.0
H1551 H 0.66175 0.13675 0.44889 0.0
H1552 H 0.66754 0.30332 0.44447 0.0
H1553 H 0.80089 0.26842 0.45676 0.0
C1554 C 0.85287 0.34699 0.45213 0.0
C1555 C 0.85888 0.39442 0.44763 0.0
C1556 C 0.66602 0.26674 0.44566 0.0
C1557 C 0.761 0.30969 0.45056 0.0
C1558 C 0.62027 0.22193 0.44244 0.0
C1559 C 0.61856 0.17453 0.4431 0.0
C1560 C 0.70981 0.26361 0.44958 0.0
C1561 C 0.66207 0.17284 0.44798 0.0
C1562 C 0.80425 0.30487 0.45373 0.0
C1563 C 0.81462 0.39845 0.44543 0.0
N1564 N 0.70606 0.21678 0.45089 0.0
N1565 N 0.76744 0.3564 0.44673 0.0
H1566 H 0.54268 0.91346 0.57433 0.0
H1567 H 0.39715 0.6108 0.58572 0.0
H1568 H 0.39557 0.83375 0.59656 0.0
H1569 H 0.56082 0.7092 0.58103 0.0
H1570 H 0.38639 0.68657 0.58351 0.0
H1571 H 0.538 0.83161 0.56889 0.0
C1572 C 0.50892 0.87835 0.57776 0.0
C1573 C 0.46975 0.87965 0.58602 0.0
C1574 C 0.4244 0.691 0.58276 0.0
C1575 C 0.46464 0.78658 0.58031 0.0
C1576 C 0.43067 0.64807 0.58416 0.0
C1577 C 0.47997 0.65357 0.58345 0.0
C1578 C 0.46767 0.73923 0.58049 0.0
C1579 C 0.52198 0.70265 0.58125 0.0
C1580 C 0.50629 0.83183 0.57475 0.0
C1581 C 0.42653 0.83363 0.59022 0.0
N1582 N 0.5148 0.74339 0.57984 0.0
N1583 N 0.42542 0.78852 0.58756 0.0
H1584 H 0.63087 0.38639 0.7734 0.0
H1585 H 0.85828 0.37447 0.7699 0.0
H1586 H 0.73111 0.54822 0.7803 0.0
H1587 H 0.93323 0.53706 0.77794 0.0
H1588 H 0.77543 0.36946 0.77401 0.0
H1589 H 0.70466 0.37333 0.77497 0.0
C1590 C 0.66846 0.41913 0.77531 0.0
C1591 C 0.67483 0.4685 0.77662 0.0
C1592 C 0.80967 0.40627 0.77502 0.0
C1593 C 0.75993 0.45412 0.77849 0.0
C1594 C 0.85709 0.40896 0.77275 0.0
C1595 C 0.90231 0.45637 0.77332 0.0
C1596 C 0.80791 0.4515 0.77791 0.0
C1597 C 0.89906 0.49994 0.77707 0.0
C1598 C 0.71082 0.41168 0.77628 0.0
C1599 C 0.72414 0.5094 0.77937 0.0
N1600 N 0.85272 0.49647 0.77909 0.0
N1601 N 0.76462 0.50127 0.7801 0.0
H1602 H 0.46208 0.80031 0.91253 0.0
H1603 H 0.15708 0.65219 0.90781 0.0
H1604 H 0.36632 0.87001 0.90906 0.0
H1605 H 0.24273 0.57941 0.92231 0.0
H1606 H 0.23705 0.72837 0.9009 0.0
H1607 H 0.3852 0.71591 0.90997 0.0
C1608 C 0.42514 0.79798 0.91111 0.0
C1609 C 0.4207 0.84238 0.91109 0.0
C1610 C 0.23853 0.69559 0.90541 0.0
C1611 C 0.33342 0.74663 0.90783 0.0
C1612 C 0.19297 0.65226 0.9093 0.0
C1613 C 0.19396 0.61041 0.91585 0.0
C1614 C 0.28533 0.69732 0.90839 0.0
C1615 C 0.24096 0.61153 0.9174 0.0
C1616 C 0.38149 0.74994 0.90952 0.0
C1617 C 0.37203 0.83717 0.90891 0.0
N1618 N 0.28523 0.65497 0.91397 0.0
N1619 N 0.33044 0.79026 0.90746 0.0
H1620 H 0.70933 0.2279 0.09346 0.0
H1621 H 0.70126 0.45777 0.08628 0.0
H1622 H 0.54621 0.1552 0.08618 0.0
H1623 H 0.53743 0.35843 0.08848 0.0
H1624 H 0.71245 0.38253 0.08594 0.0
H1625 H 0.71474 0.31159 0.09103 0.0
C1626 C 0.67489 0.22984 0.09108 0.0
C1627 C 0.6272 0.18506 0.09018 0.0
C1628 C 0.67407 0.37699 0.0866 0.0
C1629 C 0.63266 0.27992 0.08727 0.0
C1630 C 0.66773 0.42004 0.0868 0.0
C1631 C 0.61834 0.41418 0.08735 0.0
C1632 C 0.63055 0.32796 0.08709 0.0
C1633 C 0.57615 0.3647 0.08781 0.0
C1634 C 0.67786 0.27757 0.08969 0.0
C1635 C 0.58357 0.18904 0.08717 0.0
N1636 N 0.58329 0.32368 0.08767 0.0
N1637 N 0.58735 0.23559 0.08593 0.0
H1638 H 0.47769 0.65823 0.28142 0.0
H1639 H 0.26586 0.68791 0.26517 0.0
H1640 H 0.4626 0.60675 0.23482 0.0
H1641 H 0.22658 0.54659 0.2416 0.0
H1642 H 0.35593 0.70919 0.26482 0.0
H1643 H 0.4044 0.67218 0.27769 0.0
C1644 C 0.4596 0.65109 0.27032 0.0
C1645 C 0.4755 0.6309 0.25843 0.0
C1646 C 0.32726 0.674 0.25956 0.0
C1647 C 0.39229 0.64626 0.25414 0.0
C1648 C 0.2758 0.66148 0.25983 0.0
C1649 C 0.2378 0.61469 0.25369 0.0
C1650 C 0.34076 0.64003 0.2528 0.0
C1651 C 0.25379 0.58324 0.24638 0.0
C1652 C 0.4183 0.65951 0.26815 0.0
C1653 C 0.45124 0.62231 0.24424 0.0
N1654 N 0.30395 0.59645 0.24621 0.0
N1655 N 0.40979 0.62865 0.2426 0.0
loop_
_geom_bond_atom_site_label_1
_geom_bond_atom_site_label_2
_geom_bond_distance
_geom_bond_site_symmetry_2
_ccdc_geom_bond_type
Tb0 N29 2.617 1_565 S
Tb0 N35 2.572 . S
Tb0 O44 2.465 . S
Tb0 O45 2.387 1_565 S
Tb0 O47 2.428 . S
Tb0 O48 2.308 . S
Tb0 O52 2.349 . S
Tb0 O55 2.393 1_565 S
Tb0 C64 2.802 . S
C1 N2 1.379 . S
C1 C4 1.416 . S
C1 C8 1.424 . S
N2 C1 1.379 . S
N2 C5 1.334 . S
N2 Tb11 2.617 1_565 S
C3 C5 1.390 . S
C3 C6 1.339 . S
C3 H23 0.930 . S
C4 C1 1.416 . S
C4 C6 1.416 . S
C4 C10 1.448 . S
C5 N2 1.334 . S
C5 C3 1.390 . S
C5 H16 0.930 . S
C6 C3 1.339 . S
C6 C4 1.416 . S
C6 H27 0.930 . S
C7 C8 1.413 . S
C7 C9 1.427 . S
C7 C13 1.416 1_565 S
C8 C1 1.424 . S
C8 C7 1.413 . S
C8 N12 1.361 1_565 S
C9 C7 1.427 . S
C9 C10 1.328 . S
C9 H24 0.929 . S
C10 C4 1.448 . S
C10 C9 1.328 . S
C10 H25 0.930 . S
Tb11 N2 2.617 1_545 S
Tb11 N12 2.572 . S
Tb11 O46 2.349 . S
Tb11 O49 2.393 1_545 S
Tb11 O50 2.465 . S
Tb11 O51 2.387 1_545 S
Tb11 O53 2.428 . S
Tb11 O54 2.308 . S
Tb11 C75 2.802 . S
N12 C8 1.361 1_545 S
N12 Tb11 2.572 . S
N12 C14 1.340 . S
C13 C7 1.416 1_545 S
C13 C15 1.332 . S
C13 H21 0.931 . S
C14 N12 1.340 . S
C14 C15 1.407 . S
C14 H20 0.930 . S
C15 C13 1.332 . S
C15 C14 1.407 . S
C15 H17 0.929 . S
H16 C5 0.930 . S
H17 C15 0.929 . S
H18 C33 0.930 . S
H19 C40 0.929 . S
H20 C14 0.930 . S
H21 C13 0.931 . S
H22 C36 0.930 . S
H23 C3 0.930 . S
H24 C9 0.929 . S
H25 C10 0.930 . S
H26 C31 0.930 . S
H27 C6 0.930 . S
H28 C39 0.931 . S
N29 Tb0 2.617 1_545 S
N29 C30 1.379 . S
N29 C33 1.334 . S
C30 N29 1.379 . S
C30 C32 1.416 . S
C30 C38 1.424 . S
C31 H26 0.930 . S
C31 C33 1.390 . S
C31 C34 1.339 . S
C32 C30 1.416 . S
C32 C34 1.416 . S
C32 C65 1.448 . S
C33 H18 0.930 . S
C33 N29 1.334 . S
C33 C31 1.390 . S
C34 C31 1.339 . S
C34 C32 1.416 . S
C34 H41 0.930 . S
N35 Tb0 2.572 . S
N35 C36 1.340 . S
N35 C38 1.361 1_565 S
C36 H22 0.930 . S
C36 N35 1.340 . S
C36 C40 1.407 . S
C37 C38 1.413 . S
C37 C39 1.416 1_545 S
C37 C66 1.427 . S
C38 C30 1.424 . S
C38 N35 1.361 1_545 S
C38 C37 1.413 . S
C39 H28 0.931 . S
C39 C37 1.416 1_565 S
C39 C40 1.332 . S
C40 H19 0.929 . S
C40 C36 1.407 . S
C40 C39 1.332 . S
H41 C34 0.930 . S
H42 C65 0.930 . S
H43 C66 0.929 . S
O44 Tb0 2.465 . S
O44 C64 1.264 . S
O45 Tb0 2.387 1_545 S
O45 C56 1.264 . S
O46 Tb11 2.349 . S
O46 C56 1.243 . S
O47 Tb0 2.428 . S
O47 C64 1.256 . S
O48 Tb0 2.308 . S
O48 C63 1.266 . S
O49 Tb11 2.393 1_565 S
O49 C63 1.248 . S
O50 Tb11 2.465 . S
O50 C75 1.264 . S
O51 Tb11 2.387 1_565 S
O51 C67 1.264 . S
O52 Tb0 2.349 . S
O52 C67 1.243 . S
O53 Tb11 2.428 . S
O53 C75 1.256 . S
O54 Tb11 2.308 . S
O54 C74 1.266 . S
O55 Tb0 2.393 1_545 S
O55 C74 1.248 . S
C56 O45 1.264 . S
C56 O46 1.243 . S
C57 C60 1.399 . S
C57 C62 1.383 . S
C57 C64 1.496 . S
C58 C59 1.399 . S
C58 C62 1.389 . S
C59 C58 1.399 . S
C59 C61 1.380 . S
C59 H76 0.929 . S
C60 C57 1.399 . S
C60 C61 1.392 . S
C60 H77 0.929 . S
C61 C59 1.380 . S
C61 C60 1.392 . S
C61 H78 0.929 . S
C62 C57 1.383 . S
C62 C58 1.389 . S
C62 H79 0.931 . S
C63 O48 1.266 . S
C63 O49 1.248 . S
C64 Tb0 2.802 . S
C64 O44 1.264 . S
C64 O47 1.256 . S
C64 C57 1.496 . S
C65 C32 1.448 . S
C65 H42 0.930 . S
C65 C66 1.328 . S
C66 C37 1.427 . S
C66 H43 0.929 . S
C66 C65 1.328 . S
C67 O51 1.264 . S
C67 O52 1.243 . S
C68 C71 1.399 . S
C68 C72 1.383 . S
C68 C75 1.496 . S
C69 C70 1.399 . S
C69 C72 1.389 . S
C70 C69 1.399 . S
C70 C73 1.380 . S
C70 H80 0.929 . S
C71 C68 1.399 . S
C71 C73 1.392 . S
C71 H81 0.929 . S
C72 C68 1.383 . S
C72 C69 1.389 . S
C72 H82 0.931 . S
C73 C70 1.380 . S
C73 C71 1.392 . S
C73 H83 0.929 . S
C74 O54 1.266 . S
C74 O55 1.248 . S
C75 Tb11 2.802 . S
C75 O50 1.264 . S
C75 O53 1.256 . S
C75 C68 1.496 . S
H76 C59 0.929 . S
H77 C60 0.929 . S
H78 C61 0.929 . S
H79 C62 0.931 . S
H80 C70 0.929 . S
H81 C71 0.929 . S
H82 C72 0.931 . S
H83 C73 0.929 . S
Tb84 N113 2.617 . S
Tb84 N119 2.572 . S
Tb84 O128 2.465 . S
Tb84 O129 2.387 . S
Tb84 O131 2.428 . S
Tb84 O132 2.308 . S
Tb84 O136 2.349 . S
Tb84 O139 2.393 . S
Tb84 C148 2.802 . S
C85 N86 1.379 . S
C85 C88 1.416 . S
C85 C92 1.424 . S
N86 C85 1.379 . S
N86 C89 1.334 . S
N86 Tb95 2.617 . S
C87 C89 1.390 . S
C87 C90 1.339 . S
C87 H107 0.930 . S
C88 C85 1.416 . S
C88 C90 1.416 . S
C88 C94 1.448 . S
C89 N86 1.334 . S
C89 C87 1.390 . S
C89 H100 0.930 . S
C90 C87 1.339 . S
C90 C88 1.416 . S
C90 H111 0.930 . S
C91 C92 1.413 . S
C91 C93 1.427 . S
C91 C97 1.416 . S
C92 C85 1.424 . S
C92 C91 1.413 . S
C92 N96 1.361 . S
C93 C91 1.427 . S
C93 C94 1.328 . S
C93 H108 0.929 . S
C94 C88 1.448 . S
C94 C93 1.328 . S
C94 H109 0.930 . S
Tb95 N86 2.617 . S
Tb95 N96 2.572 . S
Tb95 O130 2.349 . S
Tb95 O133 2.393 . S
Tb95 O134 2.465 . S
Tb95 O135 2.387 . S
Tb95 O137 2.428 . S
Tb95 O138 2.308 . S
Tb95 C159 2.802 . S
N96 C92 1.361 . S
N96 Tb95 2.572 . S
N96 C98 1.340 . S
C97 C91 1.416 . S
C97 C99 1.332 . S
C97 H105 0.931 . S
C98 N96 1.340 . S
C98 C99 1.407 . S
C98 H104 0.930 . S
C99 C97 1.332 . S
C99 C98 1.407 . S
C99 H101 0.929 . S
H100 C89 0.930 . S
H101 C99 0.929 . S
H102 C117 0.930 . S
H103 C124 0.929 . S
H104 C98 0.930 . S
H105 C97 0.931 . S
H106 C120 0.930 . S
H107 C87 0.930 . S
H108 C93 0.929 . S
H109 C94 0.930 . S
H110 C115 0.930 . S
H111 C90 0.930 . S
H112 C123 0.931 . S
N113 Tb84 2.617 . S
N113 C114 1.379 . S
N113 C117 1.334 . S
C114 N113 1.379 . S
C114 C116 1.416 . S
C114 C122 1.424 . S
C115 H110 0.930 . S
C115 C117 1.390 . S
C115 C118 1.339 . S
C116 C114 1.416 . S
C116 C118 1.416 . S
C116 C149 1.448 . S
C117 H102 0.930 . S
C117 N113 1.334 . S
C117 C115 1.390 . S
C118 C115 1.339 . S
C118 C116 1.416 . S
C118 H125 0.930 . S
N119 Tb84 2.572 . S
N119 C120 1.340 . S
N119 C122 1.361 . S
C120 H106 0.930 . S
C120 N119 1.340 . S
C120 C124 1.407 . S
C121 C122 1.413 . S
C121 C123 1.416 . S
C121 C150 1.427 . S
C122 C114 1.424 . S
C122 N119 1.361 . S
C122 C121 1.413 . S
C123 H112 0.931 . S
C123 C121 1.416 . S
C123 C124 1.332 . S
C124 H103 0.929 . S
C124 C120 1.407 . S
C124 C123 1.332 . S
H125 C118 0.930 . S
H126 C149 0.930 . S
H127 C150 0.929 . S
O128 Tb84 2.465 . S
O128 C148 1.264 . S
O129 Tb84 2.387 . S
O129 C140 1.264 . S
O130 Tb95 2.349 . S
O130 C140 1.243 . S
O131 Tb84 2.428 . S
O131 C148 1.256 . S
O132 Tb84 2.308 . S
O132 C147 1.266 . S
O133 Tb95 2.393 . S
O133 C147 1.248 . S
O134 Tb95 2.465 . S
O134 C159 1.264 . S
O135 Tb95 2.387 . S
O135 C151 1.264 . S
O136 Tb84 2.349 . S
O136 C151 1.243 . S
O137 Tb95 2.428 . S
O137 C159 1.256 . S
O138 Tb95 2.308 . S
O138 C158 1.266 . S
O139 Tb84 2.393 . S
O139 C158 1.248 . S
C140 O129 1.264 . S
C140 O130 1.243 . S
C141 C144 1.399 . S
C141 C146 1.383 . S
C141 C148 1.496 . S
C142 C143 1.399 . S
C142 C146 1.389 . S
C143 C142 1.399 . S
C143 C145 1.380 . S
C143 H160 0.929 . S
C144 C141 1.399 . S
C144 C145 1.392 . S
C144 H161 0.929 . S
C145 C143 1.380 . S
C145 C144 1.392 . S
C145 H162 0.929 . S
C146 C141 1.383 . S
C146 C142 1.389 . S
C146 H163 0.931 . S
C147 O132 1.266 . S
C147 O133 1.248 . S
C148 Tb84 2.802 . S
C148 O128 1.264 . S
C148 O131 1.256 . S
C148 C141 1.496 . S
C149 C116 1.448 . S
C149 H126 0.930 . S
C149 C150 1.328 . S
C150 C121 1.427 . S
C150 H127 0.929 . S
C150 C149 1.328 . S
C151 O135 1.264 . S
C151 O136 1.243 . S
C152 C155 1.399 . S
C152 C156 1.383 . S
C152 C159 1.496 . S
C153 C154 1.399 . S
C153 C156 1.389 . S
C154 C153 1.399 . S
C154 C157 1.380 . S
C154 H164 0.929 . S
C155 C152 1.399 . S
C155 C157 1.392 . S
C155 H165 0.929 . S
C156 C152 1.383 . S
C156 C153 1.389 . S
C156 H166 0.931 . S
C157 C154 1.380 . S
C157 C155 1.392 . S
C157 H167 0.929 . S
C158 O138 1.266 . S
C158 O139 1.248 . S
C159 Tb95 2.802 . S
C159 O134 1.264 . S
C159 O137 1.256 . S
C159 C152 1.496 . S
H160 C143 0.929 . S
H161 C144 0.929 . S
H162 C145 0.929 . S
H163 C146 0.931 . S
H164 C154 0.929 . S
H165 C155 0.929 . S
H166 C156 0.931 . S
H167 C157 0.929 . S
Tb168 N197 2.617 1_455 S
Tb168 N203 2.572 . S
Tb168 O212 2.465 . S
Tb168 O213 2.387 1_455 S
Tb168 O215 2.428 . S
Tb168 O216 2.308 . S
Tb168 O220 2.349 . S
Tb168 O223 2.393 1_455 S
Tb168 C232 2.802 . S
C169 N170 1.379 . S
C169 C172 1.416 . S
C169 C176 1.424 . S
N170 C169 1.379 . S
N170 C173 1.334 . S
N170 Tb179 2.617 1_455 S
C171 C173 1.390 . S
C171 C174 1.339 . S
C171 H191 0.930 . S
C172 C169 1.416 . S
C172 C174 1.416 . S
C172 C178 1.448 . S
C173 N170 1.334 . S
C173 C171 1.390 . S
C173 H184 0.930 . S
C174 C171 1.339 . S
C174 C172 1.416 . S
C174 H195 0.930 . S
C175 C176 1.413 . S
C175 C177 1.427 . S
C175 C181 1.416 1_455 S
C176 C169 1.424 . S
C176 C175 1.413 . S
C176 N180 1.361 1_455 S
C177 C175 1.427 . S
C177 C178 1.328 . S
C177 H192 0.929 . S
C178 C172 1.448 . S
C178 C177 1.328 . S
C178 H193 0.930 . S
Tb179 N170 2.617 1_655 S
Tb179 N180 2.572 . S
Tb179 O214 2.349 . S
Tb179 O217 2.393 1_655 S
Tb179 O218 2.465 . S
Tb179 O219 2.387 1_655 S
Tb179 O221 2.428 . S
Tb179 O222 2.308 . S
Tb179 C243 2.802 . S
N180 C176 1.361 1_655 S
N180 Tb179 2.572 . S
N180 C182 1.340 . S
C181 C175 1.416 1_655 S
C181 C183 1.332 . S
C181 H189 0.931 . S
C182 N180 1.340 . S
C182 C183 1.407 . S
C182 H188 0.930 . S
C183 C181 1.332 . S
C183 C182 1.407 . S
C183 H185 0.929 . S
H184 C173 0.930 . S
H185 C183 0.929 . S
H186 C201 0.930 . S
H187 C208 0.929 . S
H188 C182 0.930 . S
H189 C181 0.931 . S
H190 C204 0.930 . S
H191 C171 0.930 . S
H192 C177 0.929 . S
H193 C178 0.930 . S
H194 C199 0.930 . S
H195 C174 0.930 . S
H196 C207 0.931 . S
N197 Tb168 2.617 1_655 S
N197 C198 1.379 . S
N197 C201 1.334 . S
C198 N197 1.379 . S
C198 C200 1.416 . S
C198 C206 1.424 . S
C199 H194 0.930 . S
C199 C201 1.390 . S
C199 C202 1.339 . S
C200 C198 1.416 . S
C200 C202 1.416 . S
C200 C233 1.448 . S
C201 H186 0.930 . S
C201 N197 1.334 . S
C201 C199 1.390 . S
C202 C199 1.339 . S
C202 C200 1.416 . S
C202 H209 0.930 . S
N203 Tb168 2.572 . S
N203 C204 1.340 . S
N203 C206 1.361 1_455 S
C204 H190 0.930 . S
C204 N203 1.340 . S
C204 C208 1.407 . S
C205 C206 1.413 . S
C205 C207 1.416 1_655 S
C205 C234 1.427 . S
C206 C198 1.424 . S
C206 N203 1.361 1_655 S
C206 C205 1.413 . S
C207 H196 0.931 . S
C207 C205 1.416 1_455 S
C207 C208 1.332 . S
C208 H187 0.929 . S
C208 C204 1.407 . S
C208 C207 1.332 . S
H209 C202 0.930 . S
H210 C233 0.930 . S
H211 C234 0.929 . S
O212 Tb168 2.465 . S
O212 C232 1.264 . S
O213 Tb168 2.387 1_655 S
O213 C224 1.264 . S
O214 Tb179 2.349 . S
O214 C224 1.243 . S
O215 Tb168 2.428 . S
O215 C232 1.256 . S
O216 Tb168 2.308 . S
O216 C231 1.266 . S
O217 Tb179 2.393 1_455 S
O217 C231 1.248 . S
O218 Tb179 2.465 . S
O218 C243 1.264 . S
O219 Tb179 2.387 1_455 S
O219 C235 1.264 . S
O220 Tb168 2.349 . S
O220 C235 1.243 . S
O221 Tb179 2.428 . S
O221 C243 1.256 . S
O222 Tb179 2.308 . S
O222 C242 1.266 . S
O223 Tb168 2.393 1_655 S
O223 C242 1.248 . S
C224 O213 1.264 . S
C224 O214 1.243 . S
C225 C228 1.399 . S
C225 C230 1.383 . S
C225 C232 1.496 . S
C226 C227 1.399 . S
C226 C230 1.389 . S
C227 C226 1.399 . S
C227 C229 1.380 . S
C227 H244 0.929 . S
C228 C225 1.399 . S
C228 C229 1.392 . S
C228 H245 0.929 . S
C229 C227 1.380 . S
C229 C228 1.392 . S
C229 H246 0.929 . S
C230 C225 1.383 . S
C230 C226 1.389 . S
C230 H247 0.931 . S
C231 O216 1.266 . S
C231 O217 1.248 . S
C232 Tb168 2.802 . S
C232 O212 1.264 . S
C232 O215 1.256 . S
C232 C225 1.496 . S
C233 C200 1.448 . S
C233 H210 0.930 . S
C233 C234 1.328 . S
C234 C205 1.427 . S
C234 H211 0.929 . S
C234 C233 1.328 . S
C235 O219 1.264 . S
C235 O220 1.243 . S
C236 C239 1.399 . S
C236 C240 1.383 . S
C236 C243 1.496 . S
C237 C238 1.399 . S
C237 C240 1.389 . S
C238 C237 1.399 . S
C238 C241 1.380 . S
C238 H248 0.929 . S
C239 C236 1.399 . S
C239 C241 1.392 . S
C239 H249 0.929 . S
C240 C236 1.383 . S
C240 C237 1.389 . S
C240 H250 0.931 . S
C241 C238 1.380 . S
C241 C239 1.392 . S
C241 H251 0.929 . S
C242 O222 1.266 . S
C242 O223 1.248 . S
C243 Tb179 2.802 . S
C243 O218 1.264 . S
C243 O221 1.256 . S
C243 C236 1.496 . S
H244 C227 0.929 . S
H245 C228 0.929 . S
H246 C229 0.929 . S
H247 C230 0.931 . S
H248 C238 0.929 . S
H249 C239 0.929 . S
H250 C240 0.931 . S
H251 C241 0.929 . S
Tb252 N281 2.617 1_545 S
Tb252 N287 2.572 . S
Tb252 O296 2.465 . S
Tb252 O297 2.387 1_545 S
Tb252 O299 2.428 . S
Tb252 O300 2.308 . S
Tb252 O304 2.349 . S
Tb252 O307 2.393 1_545 S
Tb252 C316 2.802 . S
C253 N254 1.379 . S
C253 C256 1.416 . S
C253 C260 1.424 . S
N254 C253 1.379 . S
N254 C257 1.334 . S
N254 Tb263 2.617 1_545 S
C255 C257 1.390 . S
C255 C258 1.339 . S
C255 H275 0.930 . S
C256 C253 1.416 . S
C256 C258 1.416 . S
C256 C262 1.448 . S
C257 N254 1.334 . S
C257 C255 1.390 . S
C257 H268 0.930 . S
C258 C255 1.339 . S
C258 C256 1.416 . S
C258 H279 0.930 . S
C259 C260 1.413 . S
C259 C261 1.427 . S
C259 C265 1.416 1_545 S
C260 C253 1.424 . S
C260 C259 1.413 . S
C260 N264 1.361 1_545 S
C261 C259 1.427 . S
C261 C262 1.328 . S
C261 H276 0.929 . S
C262 C256 1.448 . S
C262 C261 1.328 . S
C262 H277 0.930 . S
Tb263 N254 2.617 1_565 S
Tb263 N264 2.572 . S
Tb263 O298 2.349 . S
Tb263 O301 2.393 1_565 S
Tb263 O302 2.465 . S
Tb263 O303 2.387 1_565 S
Tb263 O305 2.428 . S
Tb263 O306 2.308 . S
Tb263 C327 2.802 . S
N264 C260 1.361 1_565 S
N264 Tb263 2.572 . S
N264 C266 1.340 . S
C265 C259 1.416 1_565 S
C265 C267 1.332 . S
C265 H273 0.931 . S
C266 N264 1.340 . S
C266 C267 1.407 . S
C266 H272 0.930 . S
C267 C265 1.332 . S
C267 C266 1.407 . S
C267 H269 0.929 . S
H268 C257 0.930 . S
H269 C267 0.929 . S
H270 C285 0.930 . S
H271 C292 0.929 . S
H272 C266 0.930 . S
H273 C265 0.931 . S
H274 C288 0.930 . S
H275 C255 0.930 . S
H276 C261 0.929 . S
H277 C262 0.930 . S
H278 C283 0.930 . S
H279 C258 0.930 . S
H280 C291 0.931 . S
N281 Tb252 2.617 1_565 S
N281 C282 1.379 . S
N281 C285 1.334 . S
C282 N281 1.379 . S
C282 C284 1.416 . S
C282 C290 1.424 . S
C283 H278 0.930 . S
C283 C285 1.390 . S
C283 C286 1.339 . S
C284 C282 1.416 . S
C284 C286 1.416 . S
C284 C317 1.448 . S
C285 H270 0.930 . S
C285 N281 1.334 . S
C285 C283 1.390 . S
C286 C283 1.339 . S
C286 C284 1.416 . S
C286 H293 0.930 . S
N287 Tb252 2.572 . S
N287 C288 1.340 . S
N287 C290 1.361 1_545 S
C288 H274 0.930 . S
C288 N287 1.340 . S
C288 C292 1.407 . S
C289 C290 1.413 . S
C289 C291 1.416 1_565 S
C289 C318 1.427 . S
C290 C282 1.424 . S
C290 N287 1.361 1_565 S
C290 C289 1.413 . S
C291 H280 0.931 . S
C291 C289 1.416 1_545 S
C291 C292 1.332 . S
C292 H271 0.929 . S
C292 C288 1.407 . S
C292 C291 1.332 . S
H293 C286 0.930 . S
H294 C317 0.930 . S
H295 C318 0.929 . S
O296 Tb252 2.465 . S
O296 C316 1.264 . S
O297 Tb252 2.387 1_565 S
O297 C308 1.264 . S
O298 Tb263 2.349 . S
O298 C308 1.243 . S
O299 Tb252 2.428 . S
O299 C316 1.256 . S
O300 Tb252 2.308 . S
O300 C315 1.266 . S
O301 Tb263 2.393 1_545 S
O301 C315 1.248 . S
O302 Tb263 2.465 . S
O302 C327 1.264 . S
O303 Tb263 2.387 1_545 S
O303 C319 1.264 . S
O304 Tb252 2.349 . S
O304 C319 1.243 . S
O305 Tb263 2.428 . S
O305 C327 1.256 . S
O306 Tb263 2.308 . S
O306 C326 1.266 . S
O307 Tb252 2.393 1_565 S
O307 C326 1.248 . S
C308 O297 1.264 . S
C308 O298 1.243 . S
C309 C312 1.399 . S
C309 C314 1.383 . S
C309 C316 1.496 . S
C310 C311 1.399 . S
C310 C314 1.389 . S
C311 C310 1.399 . S
C311 C313 1.380 . S
C311 H328 0.929 . S
C312 C309 1.399 . S
C312 C313 1.392 . S
C312 H329 0.929 . S
C313 C311 1.380 . S
C313 C312 1.392 . S
C313 H330 0.929 . S
C314 C309 1.383 . S
C314 C310 1.389 . S
C314 H331 0.931 . S
C315 O300 1.266 . S
C315 O301 1.248 . S
C316 Tb252 2.802 . S
C316 O296 1.264 . S
C316 O299 1.256 . S
C316 C309 1.496 . S
C317 C284 1.448 . S
C317 H294 0.930 . S
C317 C318 1.328 . S
C318 C289 1.427 . S
C318 H295 0.929 . S
C318 C317 1.328 . S
C319 O303 1.264 . S
C319 O304 1.243 . S
C320 C323 1.399 . S
C320 C324 1.383 . S
C320 C327 1.496 . S
C321 C322 1.399 . S
C321 C324 1.389 . S
C322 C321 1.399 . S
C322 C325 1.380 . S
C322 H332 0.929 . S
C323 C320 1.399 . S
C323 C325 1.392 . S
C323 H333 0.929 . S
C324 C320 1.383 . S
C324 C321 1.389 . S
C324 H334 0.931 . S
C325 C322 1.380 . S
C325 C323 1.392 . S
C325 H335 0.929 . S
C326 O306 1.266 . S
C326 O307 1.248 . S
C327 Tb263 2.802 . S
C327 O302 1.264 . S
C327 O305 1.256 . S
C327 C320 1.496 . S
H328 C311 0.929 . S
H329 C312 0.929 . S
H330 C313 0.929 . S
H331 C314 0.931 . S
H332 C322 0.929 . S
H333 C323 0.929 . S
H334 C324 0.931 . S
H335 C325 0.929 . S
Tb336 N365 2.617 . S
Tb336 N371 2.572 . S
Tb336 O380 2.465 . S
Tb336 O381 2.387 . S
Tb336 O383 2.428 1_554 S
Tb336 O384 2.308 . S
Tb336 O388 2.349 . S
Tb336 O391 2.393 . S
Tb336 C400 2.802 1_554 S
C337 N338 1.379 . S
C337 C340 1.416 . S
C337 C344 1.424 . S
N338 C337 1.379 . S
N338 C341 1.334 . S
N338 Tb347 2.617 . S
C339 C341 1.390 . S
C339 C342 1.339 . S
C339 H359 0.930 . S
C340 C337 1.416 . S
C340 C342 1.416 . S
C340 C346 1.448 . S
C341 N338 1.334 . S
C341 C339 1.390 . S
C341 H352 0.930 . S
C342 C339 1.339 . S
C342 C340 1.416 . S
C342 H363 0.930 . S
C343 C344 1.413 . S
C343 C345 1.427 . S
C343 C349 1.416 . S
C344 C337 1.424 . S
C344 C343 1.413 . S
C344 N348 1.361 . S
C345 C343 1.427 . S
C345 C346 1.328 . S
C345 H360 0.929 . S
C346 C340 1.448 . S
C346 C345 1.328 . S
C346 H361 0.930 . S
Tb347 N338 2.617 . S
Tb347 N348 2.572 . S
Tb347 O382 2.349 . S
Tb347 O385 2.393 . S
Tb347 O386 2.465 . S
Tb347 O387 2.387 . S
Tb347 O389 2.428 . S
Tb347 O390 2.308 . S
Tb347 C411 2.802 . S
N348 C344 1.361 . S
N348 Tb347 2.572 . S
N348 C350 1.340 . S
C349 C343 1.416 . S
C349 C351 1.332 . S
C349 H357 0.931 . S
C350 N348 1.340 . S
C350 C351 1.407 . S
C350 H356 0.930 . S
C351 C349 1.332 . S
C351 C350 1.407 . S
C351 H353 0.929 . S
H352 C341 0.930 . S
H353 C351 0.929 . S
H354 C369 0.930 . S
H355 C376 0.929 . S
H356 C350 0.930 . S
H357 C349 0.931 . S
H358 C372 0.930 . S
H359 C339 0.930 . S
H360 C345 0.929 . S
H361 C346 0.930 . S
H362 C367 0.930 . S
H363 C342 0.930 . S
H364 C375 0.931 . S
N365 Tb336 2.617 . S
N365 C366 1.379 . S
N365 C369 1.334 1_554 S
C366 N365 1.379 . S
C366 C368 1.416 . S
C366 C374 1.424 . S
C367 H362 0.930 . S
C367 C369 1.390 . S
C367 C370 1.339 1_556 S
C368 C366 1.416 . S
C368 C370 1.416 . S
C368 C401 1.448 . S
C369 H354 0.930 . S
C369 N365 1.334 1_556 S
C369 C367 1.390 . S
C370 C367 1.339 1_554 S
C370 C368 1.416 . S
C370 H377 0.930 1_554 S
N371 Tb336 2.572 . S
N371 C372 1.340 . S
N371 C374 1.361 . S
C372 H358 0.930 . S
C372 N371 1.340 . S
C372 C376 1.407 . S
C373 C374 1.413 . S
C373 C375 1.416 . S
C373 C402 1.427 . S
C374 C366 1.424 . S
C374 N371 1.361 . S
C374 C373 1.413 . S
C375 H364 0.931 . S
C375 C373 1.416 . S
C375 C376 1.332 . S
C376 H355 0.929 . S
C376 C372 1.407 . S
C376 C375 1.332 . S
H377 C370 0.930 1_556 S
H378 C401 0.930 . S
H379 C402 0.929 . S
O380 Tb336 2.465 . S
O380 C400 1.264 1_554 S
O381 Tb336 2.387 . S
O381 C392 1.264 . S
O382 Tb347 2.349 . S
O382 C392 1.243 . S
O383 Tb336 2.428 1_556 S
O383 C400 1.256 . S
O384 Tb336 2.308 . S
O384 C399 1.266 . S
O385 Tb347 2.393 . S
O385 C399 1.248 . S
O386 Tb347 2.465 . S
O386 C411 1.264 . S
O387 Tb347 2.387 . S
O387 C403 1.264 . S
O388 Tb336 2.349 . S
O388 C403 1.243 . S
O389 Tb347 2.428 . S
O389 C411 1.256 . S
O390 Tb347 2.308 . S
O390 C410 1.266 . S
O391 Tb336 2.393 . S
O391 C410 1.248 . S
C392 O381 1.264 . S
C392 O382 1.243 . S
C393 C396 1.399 . S
C393 C398 1.383 . S
C393 C400 1.496 . S
C394 C395 1.399 . S
C394 C398 1.389 . S
C395 C394 1.399 . S
C395 C397 1.380 . S
C395 H412 0.929 . S
C396 C393 1.399 . S
C396 C397 1.392 . S
C396 H413 0.929 . S
C397 C395 1.380 . S
C397 C396 1.392 . S
C397 H414 0.929 . S
C398 C393 1.383 . S
C398 C394 1.389 . S
C398 H415 0.963 . S
C399 O384 1.266 . S
C399 O385 1.248 . S
C400 Tb336 2.802 1_556 S
C400 O380 1.264 1_556 S
C400 O383 1.256 . S
C400 C393 1.496 . S
C401 C368 1.448 . S
C401 H378 0.930 . S
C401 C402 1.328 . S
C402 C373 1.427 . S
C402 H379 0.929 . S
C402 C401 1.328 . S
C403 O387 1.264 . S
C403 O388 1.243 . S
C404 C407 1.399 . S
C404 C408 1.383 . S
C404 C411 1.496 . S
C405 C406 1.399 . S
C405 C408 1.389 . S
C406 C405 1.399 . S
C406 C409 1.380 . S
C406 H416 0.929 . S
C407 C404 1.399 . S
C407 C409 1.392 . S
C407 H417 0.929 . S
C408 C404 1.383 . S
C408 C405 1.389 . S
C408 H418 0.931 . S
C409 C406 1.380 . S
C409 C407 1.392 . S
C409 H419 0.929 . S
C410 O390 1.266 . S
C410 O391 1.248 . S
C411 Tb347 2.802 . S
C411 O386 1.264 . S
C411 O389 1.256 . S
C411 C404 1.496 . S
H412 C395 0.929 . S
H413 C396 0.929 . S
H414 C397 0.929 . S
H415 C398 0.963 . S
H416 C406 0.929 . S
H417 C407 0.929 . S
H418 C408 0.931 . S
H419 C409 0.929 . S
Tb420 N449 2.617 1_655 S
Tb420 N455 2.572 . S
Tb420 O464 2.465 . S
Tb420 O465 2.387 1_655 S
Tb420 O467 2.428 . S
Tb420 O468 2.308 . S
Tb420 O472 2.349 . S
Tb420 O475 2.393 1_655 S
Tb420 C484 2.802 . S
C421 N422 1.379 . S
C421 C424 1.416 . S
C421 C428 1.424 . S
N422 C421 1.379 . S
N422 C425 1.334 . S
N422 Tb431 2.617 1_655 S
C423 C425 1.390 . S
C423 C426 1.339 . S
C423 H443 0.930 . S
C424 C421 1.416 . S
C424 C426 1.416 . S
C424 C430 1.448 . S
C425 N422 1.334 . S
C425 C423 1.390 . S
C425 H436 0.930 . S
C426 C423 1.339 . S
C426 C424 1.416 . S
C426 H447 0.930 . S
C427 C428 1.413 . S
C427 C429 1.427 . S
C427 C433 1.416 1_655 S
C428 C421 1.424 . S
C428 C427 1.413 . S
C428 N432 1.361 1_655 S
C429 C427 1.427 . S
C429 C430 1.328 . S
C429 H444 0.929 . S
C430 C424 1.448 . S
C430 C429 1.328 . S
C430 H445 0.930 . S
Tb431 N422 2.617 1_455 S
Tb431 N432 2.572 . S
Tb431 O466 2.349 . S
Tb431 O469 2.393 1_455 S
Tb431 O470 2.465 . S
Tb431 O471 2.387 1_455 S
Tb431 O473 2.428 . S
Tb431 O474 2.308 . S
Tb431 C495 2.802 . S
N432 C428 1.361 1_455 S
N432 Tb431 2.572 . S
N432 C434 1.340 . S
C433 C427 1.416 1_455 S
C433 C435 1.332 . S
C433 H441 0.931 . S
C434 N432 1.340 . S
C434 C435 1.407 . S
C434 H440 0.930 . S
C435 C433 1.332 . S
C435 C434 1.407 . S
C435 H437 0.929 . S
H436 C425 0.930 . S
H437 C435 0.929 . S
H438 C453 0.930 . S
H439 C460 0.929 . S
H440 C434 0.930 . S
H441 C433 0.931 . S
H442 C456 0.930 . S
H443 C423 0.930 . S
H444 C429 0.929 . S
H445 C430 0.930 . S
H446 C451 0.930 . S
H447 C426 0.930 . S
H448 C459 0.931 . S
N449 Tb420 2.617 1_455 S
N449 C450 1.379 . S
N449 C453 1.334 . S
C450 N449 1.379 . S
C450 C452 1.416 . S
C450 C458 1.424 . S
C451 H446 0.930 . S
C451 C453 1.390 . S
C451 C454 1.339 . S
C452 C450 1.416 . S
C452 C454 1.416 . S
C452 C485 1.448 . S
C453 H438 0.930 . S
C453 N449 1.334 . S
C453 C451 1.390 . S
C454 C451 1.339 . S
C454 C452 1.416 . S
C454 H461 0.930 . S
N455 Tb420 2.572 . S
N455 C456 1.340 . S
N455 C458 1.361 1_655 S
C456 H442 0.930 . S
C456 N455 1.340 . S
C456 C460 1.407 . S
C457 C458 1.413 . S
C457 C459 1.416 1_455 S
C457 C486 1.427 . S
C458 C450 1.424 . S
C458 N455 1.361 1_455 S
C458 C457 1.413 . S
C459 H448 0.931 . S
C459 C457 1.416 1_655 S
C459 C460 1.332 . S
C460 H439 0.929 . S
C460 C456 1.407 . S
C460 C459 1.332 . S
H461 C454 0.930 . S
H462 C485 0.930 . S
H463 C486 0.929 . S
O464 Tb420 2.465 . S
O464 C484 1.264 . S
O465 Tb420 2.387 1_455 S
O465 C476 1.264 . S
O466 Tb431 2.349 . S
O466 C476 1.243 . S
O467 Tb420 2.428 . S
O467 C484 1.256 . S
O468 Tb420 2.308 . S
O468 C483 1.266 . S
O469 Tb431 2.393 1_655 S
O469 C483 1.248 . S
O470 Tb431 2.465 . S
O470 C495 1.264 . S
O471 Tb431 2.387 1_655 S
O471 C487 1.264 . S
O472 Tb420 2.349 . S
O472 C487 1.243 . S
O473 Tb431 2.428 . S
O473 C495 1.256 . S
O474 Tb431 2.308 . S
O474 C494 1.266 . S
O475 Tb420 2.393 1_455 S
O475 C494 1.248 . S
C476 O465 1.264 . S
C476 O466 1.243 . S
C477 C480 1.399 . S
C477 C482 1.383 . S
C477 C484 1.496 . S
C478 C479 1.399 . S
C478 C482 1.389 . S
C479 C478 1.399 . S
C479 C481 1.380 . S
C479 H496 0.929 . S
C480 C477 1.399 . S
C480 C481 1.392 . S
C480 H497 0.929 . S
C481 C479 1.380 . S
C481 C480 1.392 . S
C481 H498 0.929 . S
C482 C477 1.383 . S
C482 C478 1.389 . S
C482 H499 0.931 . S
C483 O468 1.266 . S
C483 O469 1.248 . S
C484 Tb420 2.802 . S
C484 O464 1.264 . S
C484 O467 1.256 . S
C484 C477 1.496 . S
C485 C452 1.448 . S
C485 H462 0.930 . S
C485 C486 1.328 . S
C486 C457 1.427 . S
C486 H463 0.929 . S
C486 C485 1.328 . S
C487 O471 1.264 . S
C487 O472 1.243 . S
C488 C491 1.399 . S
C488 C492 1.383 . S
C488 C495 1.496 . S
C489 C490 1.399 . S
C489 C492 1.389 . S
C490 C489 1.399 . S
C490 C493 1.380 . S
C490 H500 0.929 . S
C491 C488 1.399 . S
C491 C493 1.392 . S
C491 H501 0.929 . S
C492 C488 1.383 . S
C492 C489 1.389 . S
C492 H502 0.931 . S
C493 C490 1.380 . S
C493 C491 1.392 . S
C493 H503 0.929 . S
C494 O474 1.266 . S
C494 O475 1.248 . S
C495 Tb431 2.802 . S
C495 O470 1.264 . S
C495 O473 1.256 . S
C495 C488 1.496 . S
H496 C479 0.929 . S
H497 C480 0.929 . S
H498 C481 0.929 . S
H499 C482 0.931 . S
H500 C490 0.929 . S
H501 C491 0.929 . S
H502 C492 0.931 . S
H503 C493 0.929 . S
Tb504 N533 2.617 1_455 S
Tb504 N539 2.572 . S
Tb504 O548 2.465 . S
Tb504 O549 2.387 1_455 S
Tb504 O551 2.428 . S
Tb504 O552 2.308 . S
Tb504 O556 2.349 . S
Tb504 O559 2.393 1_455 S
Tb504 C568 2.802 . S
C505 N506 1.379 . S
C505 C508 1.416 . S
C505 C512 1.424 . S
N506 C505 1.379 . S
N506 C509 1.334 . S
N506 Tb515 2.617 1_455 S
C507 C509 1.390 . S
C507 C510 1.339 . S
C507 H527 0.930 . S
C508 C505 1.416 . S
C508 C510 1.416 . S
C508 C514 1.448 . S
C509 N506 1.334 . S
C509 C507 1.390 . S
C509 H520 0.930 . S
C510 C507 1.339 . S
C510 C508 1.416 . S
C510 H531 0.930 . S
C511 C512 1.413 . S
C511 C513 1.427 . S
C511 C517 1.416 1_455 S
C512 C505 1.424 . S
C512 C511 1.413 . S
C512 N516 1.361 1_455 S
C513 C511 1.427 . S
C513 C514 1.328 . S
C513 H528 0.929 . S
C514 C508 1.448 . S
C514 C513 1.328 . S
C514 H529 0.930 . S
Tb515 N506 2.617 1_655 S
Tb515 N516 2.572 . S
Tb515 O550 2.349 . S
Tb515 O553 2.393 1_655 S
Tb515 O554 2.465 . S
Tb515 O555 2.387 1_655 S
Tb515 O557 2.428 . S
Tb515 O558 2.308 . S
Tb515 C579 2.802 . S
N516 C512 1.361 1_655 S
N516 Tb515 2.572 . S
N516 C518 1.340 . S
C517 C511 1.416 1_655 S
C517 C519 1.332 . S
C517 H525 0.931 . S
C518 N516 1.340 . S
C518 C519 1.407 . S
C518 H524 0.930 . S
C519 C517 1.332 . S
C519 C518 1.407 . S
C519 H521 0.929 . S
H520 C509 0.930 . S
H521 C519 0.929 . S
H522 C537 0.930 . S
H523 C544 0.929 . S
H524 C518 0.930 . S
H525 C517 0.931 . S
H526 C540 0.930 . S
H527 C507 0.930 . S
H528 C513 0.929 . S
H529 C514 0.930 . S
H530 C535 0.930 . S
H531 C510 0.930 . S
H532 C543 0.931 . S
N533 Tb504 2.617 1_655 S
N533 C534 1.379 . S
N533 C537 1.334 . S
C534 N533 1.379 . S
C534 C536 1.416 . S
C534 C542 1.424 . S
C535 H530 0.930 . S
C535 C537 1.390 . S
C535 C538 1.339 . S
C536 C534 1.416 . S
C536 C538 1.416 . S
C536 C569 1.448 . S
C537 H522 0.930 . S
C537 N533 1.334 . S
C537 C535 1.390 . S
C538 C535 1.339 . S
C538 C536 1.416 . S
C538 H545 0.930 . S
N539 Tb504 2.572 . S
N539 C540 1.340 . S
N539 C542 1.361 1_455 S
C540 H526 0.930 . S
C540 N539 1.340 . S
C540 C544 1.407 . S
C541 C542 1.413 . S
C541 C543 1.416 1_655 S
C541 C570 1.427 . S
C542 C534 1.424 . S
C542 N539 1.361 1_655 S
C542 C541 1.413 . S
C543 H532 0.931 . S
C543 C541 1.416 1_455 S
C543 C544 1.332 . S
C544 H523 0.929 . S
C544 C540 1.407 . S
C544 C543 1.332 . S
H545 C538 0.930 . S
H546 C569 0.930 . S
H547 C570 0.929 . S
O548 Tb504 2.465 . S
O548 C568 1.264 . S
O549 Tb504 2.387 1_655 S
O549 C560 1.264 . S
O550 Tb515 2.349 . S
O550 C560 1.243 . S
O551 Tb504 2.428 . S
O551 C568 1.256 . S
O552 Tb504 2.308 . S
O552 C567 1.266 . S
O553 Tb515 2.393 1_455 S
O553 C567 1.248 . S
O554 Tb515 2.465 . S
O554 C579 1.264 . S
O555 Tb515 2.387 1_455 S
O555 C571 1.264 . S
O556 Tb504 2.349 . S
O556 C571 1.243 . S
O557 Tb515 2.428 . S
O557 C579 1.256 . S
O558 Tb515 2.308 . S
O558 C578 1.266 . S
O559 Tb504 2.393 1_655 S
O559 C578 1.248 . S
C560 O549 1.264 . S
C560 O550 1.243 . S
C561 C564 1.399 . S
C561 C566 1.383 . S
C561 C568 1.496 . S
C562 C563 1.399 . S
C562 C566 1.389 . S
C563 C562 1.399 . S
C563 C565 1.380 . S
C563 H580 0.929 . S
C564 C561 1.399 . S
C564 C565 1.392 . S
C564 H581 0.929 . S
C565 C563 1.380 . S
C565 C564 1.392 . S
C565 H582 0.929 . S
C566 C561 1.383 . S
C566 C562 1.389 . S
C566 H583 0.931 . S
C567 O552 1.266 . S
C567 O553 1.248 . S
C568 Tb504 2.802 . S
C568 O548 1.264 . S
C568 O551 1.256 . S
C568 C561 1.496 . S
C569 C536 1.448 . S
C569 H546 0.930 . S
C569 C570 1.328 . S
C570 C541 1.427 . S
C570 H547 0.929 . S
C570 C569 1.328 . S
C571 O555 1.264 . S
C571 O556 1.243 . S
C572 C575 1.399 . S
C572 C576 1.383 . S
C572 C579 1.496 . S
C573 C574 1.399 . S
C573 C576 1.389 . S
C574 C573 1.399 . S
C574 C577 1.380 . S
C574 H584 0.929 . S
C575 C572 1.399 . S
C575 C577 1.392 . S
C575 H585 0.929 . S
C576 C572 1.383 . S
C576 C573 1.389 . S
C576 H586 0.931 . S
C577 C574 1.380 . S
C577 C575 1.392 . S
C577 H587 0.929 . S
C578 O558 1.266 . S
C578 O559 1.248 . S
C579 Tb515 2.802 . S
C579 O554 1.264 . S
C579 O557 1.256 . S
C579 C572 1.496 . S
H580 C563 0.929 . S
H581 C564 0.929 . S
H582 C565 0.929 . S
H583 C566 0.931 . S
H584 C574 0.929 . S
H585 C575 0.929 . S
H586 C576 0.931 . S
H587 C577 0.929 . S
Tb588 N617 2.617 1_545 S
Tb588 N623 2.572 . S
Tb588 O632 2.465 . S
Tb588 O633 2.387 1_545 S
Tb588 O635 2.428 . S
Tb588 O636 2.308 . S
Tb588 O640 2.349 . S
Tb588 O643 2.393 1_545 S
Tb588 C652 2.802 . S
C589 N590 1.379 . S
C589 C592 1.416 . S
C589 C596 1.424 . S
N590 C589 1.379 . S
N590 C593 1.334 . S
N590 Tb599 2.617 1_545 S
C591 C593 1.390 . S
C591 C594 1.339 . S
C591 H611 0.930 . S
C592 C589 1.416 . S
C592 C594 1.416 . S
C592 C598 1.448 . S
C593 N590 1.334 . S
C593 C591 1.390 . S
C593 H604 0.930 . S
C594 C591 1.339 . S
C594 C592 1.416 . S
C594 H615 0.930 . S
C595 C596 1.413 . S
C595 C597 1.427 . S
C595 C601 1.416 1_545 S
C596 C589 1.424 . S
C596 C595 1.413 . S
C596 N600 1.361 1_545 S
C597 C595 1.427 . S
C597 C598 1.328 . S
C597 H612 0.929 . S
C598 C592 1.448 . S
C598 C597 1.328 . S
C598 H613 0.930 . S
Tb599 N590 2.617 1_565 S
Tb599 N600 2.572 . S
Tb599 O634 2.349 . S
Tb599 O637 2.393 1_565 S
Tb599 O638 2.465 . S
Tb599 O639 2.387 1_565 S
Tb599 O641 2.428 . S
Tb599 O642 2.308 . S
Tb599 C663 2.802 . S
N600 C596 1.361 1_565 S
N600 Tb599 2.572 . S
N600 C602 1.340 . S
C601 C595 1.416 1_565 S
C601 C603 1.332 . S
C601 H609 0.931 . S
C602 N600 1.340 . S
C602 C603 1.407 . S
C602 H608 0.930 . S
C603 C601 1.332 . S
C603 C602 1.407 . S
C603 H605 0.929 . S
H604 C593 0.930 . S
H605 C603 0.929 . S
H606 C621 0.930 . S
H607 C628 0.929 . S
H608 C602 0.930 . S
H609 C601 0.931 . S
H610 C624 0.930 . S
H611 C591 0.930 . S
H612 C597 0.929 . S
H613 C598 0.930 . S
H614 C619 0.930 . S
H615 C594 0.930 . S
H616 C627 0.931 . S
N617 Tb588 2.617 1_565 S
N617 C618 1.379 . S
N617 C621 1.334 . S
C618 N617 1.379 . S
C618 C620 1.416 . S
C618 C626 1.424 . S
C619 H614 0.930 . S
C619 C621 1.390 . S
C619 C622 1.339 . S
C620 C618 1.416 . S
C620 C622 1.416 . S
C620 C653 1.448 . S
C621 H606 0.930 . S
C621 N617 1.334 . S
C621 C619 1.390 . S
C622 C619 1.339 . S
C622 C620 1.416 . S
C622 H629 0.930 . S
N623 Tb588 2.572 . S
N623 C624 1.340 . S
N623 C626 1.361 1_545 S
C624 H610 0.930 . S
C624 N623 1.340 . S
C624 C628 1.407 . S
C625 C626 1.413 . S
C625 C627 1.416 1_565 S
C625 C654 1.427 . S
C626 C618 1.424 . S
C626 N623 1.361 1_565 S
C626 C625 1.413 . S
C627 H616 0.931 . S
C627 C625 1.416 1_545 S
C627 C628 1.332 . S
C628 H607 0.929 . S
C628 C624 1.407 . S
C628 C627 1.332 . S
H629 C622 0.930 . S
H630 C653 0.930 . S
H631 C654 0.929 . S
O632 Tb588 2.465 . S
O632 C652 1.264 . S
O633 Tb588 2.387 1_565 S
O633 C644 1.264 . S
O634 Tb599 2.349 . S
O634 C644 1.243 . S
O635 Tb588 2.428 . S
O635 C652 1.256 . S
O636 Tb588 2.308 . S
O636 C651 1.266 . S
O637 Tb599 2.393 1_545 S
O637 C651 1.248 . S
O638 Tb599 2.465 . S
O638 C663 1.264 . S
O639 Tb599 2.387 1_545 S
O639 C655 1.264 . S
O640 Tb588 2.349 . S
O640 C655 1.243 . S
O641 Tb599 2.428 . S
O641 C663 1.256 . S
O642 Tb599 2.308 . S
O642 C662 1.266 . S
O643 Tb588 2.393 1_565 S
O643 C662 1.248 . S
C644 O633 1.264 . S
C644 O634 1.243 . S
C645 C648 1.399 . S
C645 C650 1.383 . S
C645 C652 1.496 . S
C646 C647 1.399 . S
C646 C650 1.389 . S
C647 C646 1.399 . S
C647 C649 1.380 . S
C647 H664 0.929 . S
C648 C645 1.399 . S
C648 C649 1.392 . S
C648 H665 0.929 . S
C649 C647 1.380 . S
C649 C648 1.392 . S
C649 H666 0.929 . S
C650 C645 1.383 . S
C650 C646 1.389 . S
C650 H667 0.931 . S
C651 O636 1.266 . S
C651 O637 1.248 . S
C652 Tb588 2.802 . S
C652 O632 1.264 . S
C652 O635 1.256 . S
C652 C645 1.496 . S
C653 C620 1.448 . S
C653 H630 0.930 . S
C653 C654 1.328 . S
C654 C625 1.427 . S
C654 H631 0.929 . S
C654 C653 1.328 . S
C655 O639 1.264 . S
C655 O640 1.243 . S
C656 C659 1.399 . S
C656 C660 1.383 . S
C656 C663 1.496 . S
C657 C658 1.399 . S
C657 C660 1.389 . S
C658 C657 1.399 . S
C658 C661 1.380 . S
C658 H668 0.929 . S
C659 C656 1.399 . S
C659 C661 1.392 . S
C659 H669 0.929 . S
C660 C656 1.383 . S
C660 C657 1.389 . S
C660 H670 0.931 . S
C661 C658 1.380 . S
C661 C659 1.392 . S
C661 H671 0.929 . S
C662 O642 1.266 . S
C662 O643 1.248 . S
C663 Tb599 2.802 . S
C663 O638 1.264 . S
C663 O641 1.256 . S
C663 C656 1.496 . S
H664 C647 0.929 . S
H665 C648 0.929 . S
H666 C649 0.929 . S
H667 C650 0.931 . S
H668 C658 0.929 . S
H669 C659 0.929 . S
H670 C660 0.931 . S
H671 C661 0.929 . S
Tb672 N701 2.617 . S
Tb672 N707 2.572 . S
Tb672 O716 2.465 . S
Tb672 O717 2.387 . S
Tb672 O719 2.428 . S
Tb672 O720 2.308 . S
Tb672 O724 2.349 . S
Tb672 O727 2.393 . S
Tb672 C736 2.802 . S
C673 N674 1.379 . S
C673 C676 1.416 . S
C673 C680 1.424 . S
N674 C673 1.379 . S
N674 C677 1.334 . S
N674 Tb683 2.617 . S
C675 C677 1.390 . S
C675 C678 1.339 . S
C675 H695 0.930 . S
C676 C673 1.416 . S
C676 C678 1.416 . S
C676 C682 1.448 . S
C677 N674 1.334 . S
C677 C675 1.390 . S
C677 H688 0.930 . S
C678 C675 1.339 . S
C678 C676 1.416 . S
C678 H699 0.930 . S
C679 C680 1.413 . S
C679 C681 1.427 . S
C679 C685 1.416 . S
C680 C673 1.424 . S
C680 C679 1.413 . S
C680 N684 1.361 . S
C681 C679 1.427 . S
C681 C682 1.328 . S
C681 H696 0.929 . S
C682 C676 1.448 . S
C682 C681 1.328 . S
C682 H697 0.930 . S
Tb683 N674 2.617 . S
Tb683 N684 2.572 . S
Tb683 O718 2.349 . S
Tb683 O721 2.393 . S
Tb683 O722 2.465 . S
Tb683 O723 2.387 . S
Tb683 O725 2.428 . S
Tb683 O726 2.308 . S
Tb683 C747 2.802 . S
N684 C680 1.361 . S
N684 Tb683 2.572 . S
N684 C686 1.340 . S
C685 C679 1.416 . S
C685 C687 1.332 . S
C685 H693 0.931 . S
C686 N684 1.340 . S
C686 C687 1.407 . S
C686 H692 0.930 . S
C687 C685 1.332 . S
C687 C686 1.407 . S
C687 H689 0.929 . S
H688 C677 0.930 . S
H689 C687 0.929 . S
H690 C705 0.930 . S
H691 C712 0.929 . S
H692 C686 0.930 . S
H693 C685 0.931 . S
H694 C708 0.930 . S
H695 C675 0.930 . S
H696 C681 0.929 . S
H697 C682 0.930 . S
H698 C703 0.930 . S
H699 C678 0.930 . S
H700 C711 0.931 . S
N701 Tb672 2.617 . S
N701 C702 1.379 . S
N701 C705 1.334 . S
C702 N701 1.379 . S
C702 C704 1.416 . S
C702 C710 1.424 . S
C703 H698 0.930 . S
C703 C705 1.390 . S
C703 C706 1.339 . S
C704 C702 1.416 . S
C704 C706 1.416 . S
C704 C737 1.448 . S
C705 H690 0.930 . S
C705 N701 1.334 . S
C705 C703 1.390 . S
C706 C703 1.339 . S
C706 C704 1.416 . S
C706 H713 0.930 . S
N707 Tb672 2.572 . S
N707 C708 1.340 . S
N707 C710 1.361 . S
C708 H694 0.930 . S
C708 N707 1.340 . S
C708 C712 1.407 . S
C709 C710 1.413 . S
C709 C711 1.416 . S
C709 C738 1.427 . S
C710 C702 1.424 . S
C710 N707 1.361 . S
C710 C709 1.413 . S
C711 H700 0.931 . S
C711 C709 1.416 . S
C711 C712 1.332 . S
C712 H691 0.929 . S
C712 C708 1.407 . S
C712 C711 1.332 . S
H713 C706 0.930 . S
H714 C737 0.930 . S
H715 C738 0.929 . S
O716 Tb672 2.465 . S
O716 C736 1.264 . S
O717 Tb672 2.387 . S
O717 C728 1.264 . S
O718 Tb683 2.349 . S
O718 C728 1.243 . S
O719 Tb672 2.428 . S
O719 C736 1.256 . S
O720 Tb672 2.308 . S
O720 C735 1.266 . S
O721 Tb683 2.393 . S
O721 C735 1.248 . S
O722 Tb683 2.465 . S
O722 C747 1.264 . S
O723 Tb683 2.387 . S
O723 C739 1.264 . S
O724 Tb672 2.349 . S
O724 C739 1.243 . S
O725 Tb683 2.428 . S
O725 C747 1.256 . S
O726 Tb683 2.308 . S
O726 C746 1.266 . S
O727 Tb672 2.393 . S
O727 C746 1.248 . S
C728 O717 1.264 . S
C728 O718 1.243 . S
C729 C732 1.399 . S
C729 C734 1.383 . S
C729 C736 1.496 . S
C730 C731 1.399 . S
C730 C734 1.389 . S
C731 C730 1.399 . S
C731 C733 1.380 . S
C731 H748 0.929 . S
C732 C729 1.399 . S
C732 C733 1.392 . S
C732 H749 0.929 . S
C733 C731 1.380 . S
C733 C732 1.392 . S
C733 H750 0.929 . S
C734 C729 1.383 . S
C734 C730 1.389 . S
C734 H751 0.931 . S
C735 O720 1.266 . S
C735 O721 1.248 . S
C736 Tb672 2.802 . S
C736 O716 1.264 . S
C736 O719 1.256 . S
C736 C729 1.496 . S
C737 C704 1.448 . S
C737 H714 0.930 . S
C737 C738 1.328 . S
C738 C709 1.427 . S
C738 H715 0.929 . S
C738 C737 1.328 . S
C739 O723 1.264 . S
C739 O724 1.243 . S
C740 C743 1.399 . S
C740 C744 1.383 . S
C740 C747 1.496 . S
C741 C742 1.399 . S
C741 C744 1.389 . S
C742 C741 1.399 . S
C742 C745 1.380 . S
C742 H752 0.929 . S
C743 C740 1.399 . S
C743 C745 1.392 . S
C743 H753 0.929 . S
C744 C740 1.383 . S
C744 C741 1.389 . S
C744 H754 0.931 . S
C745 C742 1.380 . S
C745 C743 1.392 . S
C745 H755 0.929 . S
C746 O726 1.266 . S
C746 O727 1.248 . S
C747 Tb683 2.802 . S
C747 O722 1.264 . S
C747 O725 1.256 . S
C747 C740 1.496 . S
H748 C731 0.929 . S
H749 C732 0.929 . S
H750 C733 0.929 . S
H751 C734 0.931 . S
H752 C742 0.929 . S
H753 C743 0.929 . S
H754 C744 0.931 . S
H755 C745 0.929 . S
Tb756 N785 2.617 1_655 S
Tb756 N791 2.572 . S
Tb756 O800 2.465 . S
Tb756 O801 2.387 1_655 S
Tb756 O803 2.428 1_556 S
Tb756 O804 2.308 . S
Tb756 O808 2.349 . S
Tb756 O811 2.393 1_655 S
Tb756 C820 2.802 1_556 S
C757 N758 1.379 . S
C757 C760 1.416 . S
C757 C764 1.424 . S
N758 C757 1.379 . S
N758 C761 1.334 . S
N758 Tb767 2.617 1_655 S
C759 C761 1.390 . S
C759 C762 1.339 . S
C759 H779 0.930 . S
C760 C757 1.416 . S
C760 C762 1.416 . S
C760 C766 1.448 . S
C761 N758 1.334 . S
C761 C759 1.390 . S
C761 H772 0.930 . S
C762 C759 1.339 . S
C762 C760 1.416 . S
C762 H783 0.930 . S
C763 C764 1.413 . S
C763 C765 1.427 . S
C763 C769 1.416 1_655 S
C764 C757 1.424 . S
C764 C763 1.413 . S
C764 N768 1.361 1_655 S
C765 C763 1.427 . S
C765 C766 1.328 . S
C765 H780 0.929 . S
C766 C760 1.448 . S
C766 C765 1.328 . S
C766 H781 0.930 . S
Tb767 N758 2.617 1_455 S
Tb767 N768 2.572 . S
Tb767 O802 2.349 . S
Tb767 O805 2.393 1_455 S
Tb767 O806 2.465 . S
Tb767 O807 2.387 1_455 S
Tb767 O809 2.428 . S
Tb767 O810 2.308 . S
Tb767 C831 2.802 . S
N768 C764 1.361 1_455 S
N768 Tb767 2.572 . S
N768 C770 1.340 . S
C769 C763 1.416 1_455 S
C769 C771 1.332 . S
C769 H777 0.931 . S
C770 N768 1.340 . S
C770 C771 1.407 . S
C770 H776 0.930 . S
C771 C769 1.332 . S
C771 C770 1.407 . S
C771 H773 0.929 . S
H772 C761 0.930 . S
H773 C771 0.929 . S
H774 C789 0.930 . S
H775 C796 0.929 . S
H776 C770 0.930 . S
H777 C769 0.931 . S
H778 C792 0.930 . S
H779 C759 0.930 . S
H780 C765 0.929 . S
H781 C766 0.930 . S
H782 C787 0.930 . S
H783 C762 0.930 . S
H784 C795 0.931 . S
N785 Tb756 2.617 1_455 S
N785 C786 1.379 . S
N785 C789 1.334 1_556 S
C786 N785 1.379 . S
C786 C788 1.416 . S
C786 C794 1.424 . S
C787 H782 0.930 . S
C787 C789 1.390 . S
C787 C790 1.339 1_554 S
C788 C786 1.416 . S
C788 C790 1.416 . S
C788 C821 1.448 . S
C789 H774 0.930 . S
C789 N785 1.334 1_554 S
C789 C787 1.390 . S
C790 C787 1.339 1_556 S
C790 C788 1.416 . S
C790 H797 0.930 1_556 S
N791 Tb756 2.572 . S
N791 C792 1.340 . S
N791 C794 1.361 1_655 S
C792 H778 0.930 . S
C792 N791 1.340 . S
C792 C796 1.407 . S
C793 C794 1.413 . S
C793 C795 1.416 1_455 S
C793 C822 1.427 . S
C794 C786 1.424 . S
C794 N791 1.361 1_455 S
C794 C793 1.413 . S
C795 H784 0.931 . S
C795 C793 1.416 1_655 S
C795 C796 1.332 . S
C796 H775 0.929 . S
C796 C792 1.407 . S
C796 C795 1.332 . S
H797 C790 0.930 1_554 S
H798 C821 0.930 . S
H799 C822 0.929 . S
O800 Tb756 2.465 . S
O800 C820 1.264 1_556 S
O801 Tb756 2.387 1_455 S
O801 C812 1.264 . S
O802 Tb767 2.349 . S
O802 C812 1.243 . S
O803 Tb756 2.428 1_554 S
O803 C820 1.256 . S
O804 Tb756 2.308 . S
O804 C819 1.266 . S
O805 Tb767 2.393 1_655 S
O805 C819 1.248 . S
O806 Tb767 2.465 . S
O806 C831 1.264 . S
O807 Tb767 2.387 1_655 S
O807 C823 1.264 . S
O808 Tb756 2.349 . S
O808 C823 1.243 . S
O809 Tb767 2.428 . S
O809 C831 1.256 . S
O810 Tb767 2.308 . S
O810 C830 1.266 . S
O811 Tb756 2.393 1_455 S
O811 C830 1.248 . S
C812 O801 1.264 . S
C812 O802 1.243 . S
C813 C816 1.399 . S
C813 C818 1.383 . S
C813 C820 1.496 . S
C814 C815 1.399 . S
C814 C818 1.389 . S
C815 C814 1.399 . S
C815 C817 1.380 . S
C815 H832 0.929 . S
C816 C813 1.399 . S
C816 C817 1.392 . S
C816 H833 0.929 . S
C817 C815 1.380 . S
C817 C816 1.392 . S
C817 H834 0.929 . S
C818 C813 1.383 . S
C818 C814 1.389 . S
C818 H835 0.931 . S
C819 O804 1.266 . S
C819 O805 1.248 . S
C820 Tb756 2.802 1_554 S
C820 O800 1.264 1_554 S
C820 O803 1.256 . S
C820 C813 1.496 . S
C821 C788 1.448 . S
C821 H798 0.930 . S
C821 C822 1.328 . S
C822 C793 1.427 . S
C822 H799 0.929 . S
C822 C821 1.328 . S
C823 O807 1.264 . S
C823 O808 1.243 . S
C824 C827 1.399 . S
C824 C828 1.383 . S
C824 C831 1.496 . S
C825 C826 1.399 . S
C825 C828 1.389 . S
C826 C825 1.399 . S
C826 C829 1.380 . S
C826 H836 0.929 . S
C827 C824 1.399 . S
C827 C829 1.392 . S
C827 H837 0.929 . S
C828 C824 1.383 . S
C828 C825 1.389 . S
C828 H838 0.931 . S
C829 C826 1.380 . S
C829 C827 1.392 . S
C829 H839 0.929 . S
C830 O810 1.266 . S
C830 O811 1.248 . S
C831 Tb767 2.802 . S
C831 O806 1.264 . S
C831 O809 1.256 . S
C831 C824 1.496 . S
H832 C815 0.929 . S
H833 C816 0.929 . S
H834 C817 0.929 . S
H835 C818 0.931 . S
H836 C826 0.929 . S
H837 C827 0.929 . S
H838 C828 0.931 . S
H839 C829 0.929 . S
Tb840 N869 2.617 1_565 S
Tb840 N875 2.572 . S
Tb840 O884 2.465 . S
Tb840 O885 2.387 1_565 S
Tb840 O887 2.428 . S
Tb840 O888 2.308 . S
Tb840 O892 2.349 . S
Tb840 O895 2.393 1_565 S
Tb840 C904 2.802 . S
C841 N842 1.379 . S
C841 C844 1.416 . S
C841 C848 1.424 . S
N842 C841 1.379 . S
N842 C845 1.334 . S
N842 Tb851 2.617 1_565 S
C843 C845 1.390 . S
C843 C846 1.339 . S
C843 H863 0.930 . S
C844 C841 1.416 . S
C844 C846 1.416 . S
C844 C850 1.448 . S
C845 N842 1.334 . S
C845 C843 1.390 . S
C845 H856 0.930 . S
C846 C843 1.339 . S
C846 C844 1.416 . S
C846 H867 0.930 . S
C847 C848 1.413 . S
C847 C849 1.427 . S
C847 C853 1.416 1_565 S
C848 C841 1.424 . S
C848 C847 1.413 . S
C848 N852 1.361 1_565 S
C849 C847 1.427 . S
C849 C850 1.328 . S
C849 H864 0.929 . S
C850 C844 1.448 . S
C850 C849 1.328 . S
C850 H865 0.930 . S
Tb851 N842 2.617 1_545 S
Tb851 N852 2.572 . S
Tb851 O886 2.349 . S
Tb851 O889 2.393 1_545 S
Tb851 O890 2.465 . S
Tb851 O891 2.387 1_545 S
Tb851 O893 2.428 . S
Tb851 O894 2.308 . S
Tb851 C915 2.802 . S
N852 C848 1.361 1_545 S
N852 Tb851 2.572 . S
N852 C854 1.340 . S
C853 C847 1.416 1_545 S
C853 C855 1.332 . S
C853 H861 0.931 . S
C854 N852 1.340 . S
C854 C855 1.407 . S
C854 H860 0.930 . S
C855 C853 1.332 . S
C855 C854 1.407 . S
C855 H857 0.929 . S
H856 C845 0.930 . S
H857 C855 0.929 . S
H858 C873 0.930 . S
H859 C880 0.929 . S
H860 C854 0.930 . S
H861 C853 0.931 . S
H862 C876 0.930 . S
H863 C843 0.930 . S
H864 C849 0.929 . S
H865 C850 0.930 . S
H866 C871 0.930 . S
H867 C846 0.930 . S
H868 C879 0.931 . S
N869 Tb840 2.617 1_545 S
N869 C870 1.379 . S
N869 C873 1.334 . S
C870 N869 1.379 . S
C870 C872 1.416 . S
C870 C878 1.424 . S
C871 H866 0.930 . S
C871 C873 1.390 . S
C871 C874 1.339 . S
C872 C870 1.416 . S
C872 C874 1.416 . S
C872 C905 1.448 . S
C873 H858 0.930 . S
C873 N869 1.334 . S
C873 C871 1.390 . S
C874 C871 1.339 . S
C874 C872 1.416 . S
C874 H881 0.930 . S
N875 Tb840 2.572 . S
N875 C876 1.340 . S
N875 C878 1.361 1_565 S
C876 H862 0.930 . S
C876 N875 1.340 . S
C876 C880 1.407 . S
C877 C878 1.413 . S
C877 C879 1.416 1_545 S
C877 C906 1.427 . S
C878 C870 1.424 . S
C878 N875 1.361 1_545 S
C878 C877 1.413 . S
C879 H868 0.931 . S
C879 C877 1.416 1_565 S
C879 C880 1.332 . S
C880 H859 0.929 . S
C880 C876 1.407 . S
C880 C879 1.332 . S
H881 C874 0.930 . S
H882 C905 0.930 . S
H883 C906 0.929 . S
O884 Tb840 2.465 . S
O884 C904 1.264 . S
O885 Tb840 2.387 1_545 S
O885 C896 1.264 . S
O886 Tb851 2.349 . S
O886 C896 1.243 . S
O887 Tb840 2.428 . S
O887 C904 1.256 . S
O888 Tb840 2.308 . S
O888 C903 1.266 . S
O889 Tb851 2.393 1_565 S
O889 C903 1.248 . S
O890 Tb851 2.465 . S
O890 C915 1.264 . S
O891 Tb851 2.387 1_565 S
O891 C907 1.264 . S
O892 Tb840 2.349 . S
O892 C907 1.243 . S
O893 Tb851 2.428 . S
O893 C915 1.256 . S
O894 Tb851 2.308 . S
O894 C914 1.266 . S
O895 Tb840 2.393 1_545 S
O895 C914 1.248 . S
C896 O885 1.264 . S
C896 O886 1.243 . S
C897 C900 1.399 . S
C897 C902 1.383 . S
C897 C904 1.496 . S
C898 C899 1.399 . S
C898 C902 1.389 . S
C899 C898 1.399 . S
C899 C901 1.380 . S
C899 H916 0.929 . S
C900 C897 1.399 . S
C900 C901 1.392 . S
C900 H917 0.929 . S
C901 C899 1.380 . S
C901 C900 1.392 . S
C901 H918 0.929 . S
C902 C897 1.383 . S
C902 C898 1.389 . S
C902 H919 0.931 . S
C903 O888 1.266 . S
C903 O889 1.248 . S
C904 Tb840 2.802 . S
C904 O884 1.264 . S
C904 O887 1.256 . S
C904 C897 1.496 . S
C905 C872 1.448 . S
C905 H882 0.930 . S
C905 C906 1.328 . S
C906 C877 1.427 . S
C906 H883 0.929 . S
C906 C905 1.328 . S
C907 O891 1.264 . S
C907 O892 1.243 . S
C908 C911 1.399 . S
C908 C912 1.383 . S
C908 C915 1.496 . S
C909 C910 1.399 . S
C909 C912 1.389 . S
C910 C909 1.399 . S
C910 C913 1.380 . S
C910 H920 0.929 . S
C911 C908 1.399 . S
C911 C913 1.392 . S
C911 H921 0.929 . S
C912 C908 1.383 . S
C912 C909 1.389 . S
C912 H922 0.931 . S
C913 C910 1.380 . S
C913 C911 1.392 . S
C913 H923 0.929 . S
C914 O894 1.266 . S
C914 O895 1.248 . S
C915 Tb851 2.802 . S
C915 O890 1.264 . S
C915 O893 1.256 . S
C915 C908 1.496 . S
H916 C899 0.929 . S
H917 C900 0.929 . S
H918 C901 0.929 . S
H919 C902 0.931 . S
H920 C910 0.929 . S
H921 C911 0.929 . S
H922 C912 0.931 . S
H923 C913 0.929 . S
Tb924 N953 2.617 . S
Tb924 N959 2.572 . S
Tb924 O968 2.465 . S
Tb924 O969 2.387 . S
Tb924 O971 2.428 . S
Tb924 O972 2.308 . S
Tb924 O976 2.349 . S
Tb924 O979 2.393 . S
Tb924 C988 2.802 . S
C925 N926 1.379 . S
C925 C928 1.416 . S
C925 C932 1.424 . S
N926 C925 1.379 . S
N926 C929 1.334 . S
N926 Tb935 2.617 . S
C927 C929 1.390 . S
C927 C930 1.339 . S
C927 H947 0.930 . S
C928 C925 1.416 . S
C928 C930 1.416 . S
C928 C934 1.448 . S
C929 N926 1.334 . S
C929 C927 1.390 . S
C929 H940 0.930 . S
C930 C927 1.339 . S
C930 C928 1.416 . S
C930 H951 0.930 . S
C931 C932 1.413 . S
C931 C933 1.427 . S
C931 C937 1.416 . S
C932 C925 1.424 . S
C932 C931 1.413 . S
C932 N936 1.361 . S
C933 C931 1.427 . S
C933 C934 1.328 . S
C933 H948 0.929 . S
C934 C928 1.448 . S
C934 C933 1.328 . S
C934 H949 0.930 . S
Tb935 N926 2.617 . S
Tb935 N936 2.572 . S
Tb935 O970 2.349 . S
Tb935 O973 2.393 . S
Tb935 O974 2.465 . S
Tb935 O975 2.387 . S
Tb935 O977 2.428 . S
Tb935 O978 2.308 . S
Tb935 C999 2.802 . S
N936 C932 1.361 . S
N936 Tb935 2.572 . S
N936 C938 1.340 . S
C937 C931 1.416 . S
C937 C939 1.332 . S
C937 H945 0.931 . S
C938 N936 1.340 . S
C938 C939 1.407 . S
C938 H944 0.930 . S
C939 C937 1.332 . S
C939 C938 1.407 . S
C939 H941 0.929 . S
H940 C929 0.930 . S
H941 C939 0.929 . S
H942 C957 0.930 . S
H943 C964 0.929 . S
H944 C938 0.930 . S
H945 C937 0.931 . S
H946 C960 0.930 . S
H947 C927 0.930 . S
H948 C933 0.929 . S
H949 C934 0.930 . S
H950 C955 0.930 . S
H951 C930 0.930 . S
H952 C963 0.931 . S
N953 Tb924 2.617 . S
N953 C954 1.379 . S
N953 C957 1.334 . S
C954 N953 1.379 . S
C954 C956 1.416 . S
C954 C962 1.424 . S
C955 H950 0.930 . S
C955 C957 1.390 . S
C955 C958 1.339 . S
C956 C954 1.416 . S
C956 C958 1.416 . S
C956 C989 1.448 . S
C957 H942 0.930 . S
C957 N953 1.334 . S
C957 C955 1.390 . S
C958 C955 1.339 . S
C958 C956 1.416 . S
C958 H965 0.930 . S
N959 Tb924 2.572 . S
N959 C960 1.340 . S
N959 C962 1.361 . S
C960 H946 0.930 . S
C960 N959 1.340 . S
C960 C964 1.407 . S
C961 C962 1.413 . S
C961 C963 1.416 . S
C961 C990 1.427 . S
C962 C954 1.424 . S
C962 N959 1.361 . S
C962 C961 1.413 . S
C963 H952 0.931 . S
C963 C961 1.416 . S
C963 C964 1.332 . S
C964 H943 0.929 . S
C964 C960 1.407 . S
C964 C963 1.332 . S
H965 C958 0.930 . S
H966 C989 0.930 . S
H967 C990 0.929 . S
O968 Tb924 2.465 . S
O968 C988 1.264 . S
O969 Tb924 2.387 . S
O969 C980 1.264 . S
O970 Tb935 2.349 . S
O970 C980 1.243 . S
O971 Tb924 2.428 . S
O971 C988 1.256 . S
O972 Tb924 2.308 . S
O972 C987 1.266 . S
O973 Tb935 2.393 . S
O973 C987 1.248 . S
O974 Tb935 2.465 . S
O974 C999 1.264 . S
O975 Tb935 2.387 . S
O975 C991 1.264 . S
O976 Tb924 2.349 . S
O976 C991 1.243 . S
O977 Tb935 2.428 . S
O977 C999 1.256 . S
O978 Tb935 2.308 . S
O978 C998 1.266 . S
O979 Tb924 2.393 . S
O979 C998 1.248 . S
C980 O969 1.264 . S
C980 O970 1.243 . S
C981 C984 1.399 . S
C981 C986 1.383 . S
C981 C988 1.496 . S
C982 C983 1.399 . S
C982 C986 1.389 . S
C983 C982 1.399 . S
C983 C985 1.380 . S
C983 H1000 0.929 . S
C984 C981 1.399 . S
C984 C985 1.392 . S
C984 H1001 0.929 . S
C985 C983 1.380 . S
C985 C984 1.392 . S
C985 H1002 0.929 . S
C986 C981 1.383 . S
C986 C982 1.389 . S
C986 H1003 0.931 . S
C987 O972 1.266 . S
C987 O973 1.248 . S
C988 Tb924 2.802 . S
C988 O968 1.264 . S
C988 O971 1.256 . S
C988 C981 1.496 . S
C989 C956 1.448 . S
C989 H966 0.930 . S
C989 C990 1.328 . S
C990 C961 1.427 . S
C990 H967 0.929 . S
C990 C989 1.328 . S
C991 O975 1.264 . S
C991 O976 1.243 . S
C992 C995 1.399 . S
C992 C996 1.383 . S
C992 C999 1.496 . S
C993 C994 1.399 . S
C993 C996 1.389 . S
C994 C993 1.399 . S
C994 C997 1.380 . S
C994 H1004 0.929 . S
C995 C992 1.399 . S
C995 C997 1.392 . S
C995 H1005 0.929 . S
C996 C992 1.383 . S
C996 C993 1.389 . S
C996 H1006 0.931 . S
C997 C994 1.380 . S
C997 C995 1.392 . S
C997 H1007 0.929 . S
C998 O978 1.266 . S
C998 O979 1.248 . S
C999 Tb935 2.802 . S
C999 O974 1.264 . S
C999 O977 1.256 . S
C999 C992 1.496 . S
H1000 C983 0.929 . S
H1001 C984 0.929 . S
H1002 C985 0.929 . S
H1003 C986 0.931 . S
H1004 C994 0.929 . S
H1005 C995 0.929 . S
H1006 C996 0.931 . S
H1007 C997 0.929 . S
H1008 C1014 0.930 . S
H1009 C1018 0.930 . S
H1010 C1023 0.929 . S
H1011 C1021 0.929 . S
H1012 C1016 0.929 . S
H1013 C1022 0.929 . S
C1014 H1008 0.930 . S
C1014 C1015 1.367 . S
C1014 C1022 1.378 . S
C1015 C1014 1.367 . S
C1015 C1023 1.433 . S
C1016 H1012 0.929 . S
C1016 C1018 1.378 . S
C1016 C1020 1.350 . S
C1017 C1020 1.463 . S
C1017 C1022 1.350 . S
C1017 N1025 1.427 . S
C1018 H1009 0.930 . S
C1018 C1016 1.378 . S
C1018 C1019 1.367 . S
C1019 C1018 1.367 . S
C1019 C1021 1.433 . S
C1020 C1016 1.350 . S
C1020 C1017 1.463 . S
C1020 N1024 1.427 . S
C1021 H1011 0.929 . S
C1021 C1019 1.433 . S
C1021 N1024 1.384 . S
C1022 H1013 0.929 . S
C1022 C1014 1.378 . S
C1022 C1017 1.350 . S
C1023 H1010 0.929 . S
C1023 C1015 1.433 . S
C1023 N1025 1.384 . S
N1024 C1020 1.427 . S
N1024 C1021 1.384 . S
N1025 C1017 1.427 . S
N1025 C1023 1.384 . S
H1026 C1032 0.930 . S
H1027 C1036 0.930 . S
H1028 C1041 0.929 . S
H1029 C1039 0.929 . S
H1030 C1034 0.929 . S
H1031 C1040 0.929 . S
C1032 H1026 0.930 . S
C1032 C1033 1.367 . S
C1032 C1040 1.378 . S
C1033 C1032 1.367 . S
C1033 C1041 1.433 . S
C1034 H1030 0.929 . S
C1034 C1036 1.378 . S
C1034 C1038 1.350 . S
C1035 C1038 1.463 . S
C1035 C1040 1.350 . S
C1035 N1043 1.427 . S
C1036 H1027 0.930 . S
C1036 C1034 1.378 . S
C1036 C1037 1.367 . S
C1037 C1036 1.367 . S
C1037 C1039 1.433 . S
C1038 C1034 1.350 . S
C1038 C1035 1.463 . S
C1038 N1042 1.427 . S
C1039 H1029 0.929 . S
C1039 C1037 1.433 . S
C1039 N1042 1.384 . S
C1040 H1031 0.929 . S
C1040 C1032 1.378 . S
C1040 C1035 1.350 . S
C1041 H1028 0.929 . S
C1041 C1033 1.433 . S
C1041 N1043 1.384 . S
N1042 C1038 1.427 . S
N1042 C1039 1.384 . S
N1043 C1035 1.427 . S
N1043 C1041 1.384 . S
H1044 C1050 0.930 . S
H1045 C1054 0.930 . S
H1046 C1059 0.929 . S
H1047 C1057 0.929 . S
H1048 C1052 0.929 . S
H1049 C1058 0.929 . S
C1050 H1044 0.930 . S
C1050 C1051 1.367 . S
C1050 C1058 1.378 . S
C1051 C1050 1.367 . S
C1051 C1059 1.433 . S
C1052 H1048 0.929 . S
C1052 C1054 1.378 . S
C1052 C1056 1.350 . S
C1053 C1056 1.463 . S
C1053 C1058 1.350 . S
C1053 N1061 1.427 . S
C1054 H1045 0.930 . S
C1054 C1052 1.378 . S
C1054 C1055 1.367 . S
C1055 C1054 1.367 . S
C1055 C1057 1.433 . S
C1056 C1052 1.350 . S
C1056 C1053 1.463 . S
C1056 N1060 1.427 . S
C1057 H1047 0.929 . S
C1057 C1055 1.433 . S
C1057 N1060 1.384 . S
C1058 H1049 0.929 . S
C1058 C1050 1.378 . S
C1058 C1053 1.350 . S
C1059 H1046 0.929 . S
C1059 C1051 1.433 . S
C1059 N1061 1.384 . S
N1060 C1056 1.427 . S
N1060 C1057 1.384 . S
N1061 C1053 1.427 . S
N1061 C1059 1.384 . S
H1062 C1068 0.930 . S
H1063 C1072 0.930 . S
H1064 C1077 0.929 . S
H1065 C1075 0.929 . S
H1066 C1070 0.929 . S
H1067 C1076 0.929 . S
C1068 H1062 0.930 . S
C1068 C1069 1.367 . S
C1068 C1076 1.378 . S
C1069 C1068 1.367 . S
C1069 C1077 1.433 . S
C1070 H1066 0.929 . S
C1070 C1072 1.378 . S
C1070 C1074 1.350 . S
C1071 C1074 1.463 . S
C1071 C1076 1.350 . S
C1071 N1079 1.427 . S
C1072 H1063 0.930 . S
C1072 C1070 1.378 . S
C1072 C1073 1.367 . S
C1073 C1072 1.367 . S
C1073 C1075 1.433 . S
C1074 C1070 1.350 . S
C1074 C1071 1.463 . S
C1074 N1078 1.427 . S
C1075 H1065 0.929 . S
C1075 C1073 1.433 . S
C1075 N1078 1.384 . S
C1076 H1067 0.929 . S
C1076 C1068 1.378 . S
C1076 C1071 1.350 . S
C1077 H1064 0.929 . S
C1077 C1069 1.433 . S
C1077 N1079 1.384 . S
N1078 C1074 1.427 . S
N1078 C1075 1.384 . S
N1079 C1071 1.427 . S
N1079 C1077 1.384 . S
H1080 C1086 0.930 . S
H1081 C1090 0.930 . S
H1082 C1095 0.929 . S
H1083 C1093 0.929 . S
H1084 C1088 0.929 . S
H1085 C1094 0.929 . S
C1086 H1080 0.930 . S
C1086 C1087 1.367 . S
C1086 C1094 1.378 . S
C1087 C1086 1.367 . S
C1087 C1095 1.433 . S
C1088 H1084 0.929 . S
C1088 C1090 1.378 . S
C1088 C1092 1.350 . S
C1089 C1092 1.463 . S
C1089 C1094 1.350 . S
C1089 N1097 1.427 . S
C1090 H1081 0.930 . S
C1090 C1088 1.378 . S
C1090 C1091 1.367 . S
C1091 C1090 1.367 . S
C1091 C1093 1.433 . S
C1092 C1088 1.350 . S
C1092 C1089 1.463 . S
C1092 N1096 1.427 . S
C1093 H1083 0.929 . S
C1093 C1091 1.433 . S
C1093 N1096 1.384 . S
C1094 H1085 0.929 . S
C1094 C1086 1.378 . S
C1094 C1089 1.350 . S
C1095 H1082 0.929 . S
C1095 C1087 1.433 . S
C1095 N1097 1.384 . S
N1096 C1092 1.427 . S
N1096 C1093 1.384 . S
N1097 C1089 1.427 . S
N1097 C1095 1.384 . S
H1098 C1104 0.930 . S
H1099 C1108 0.930 . S
H1100 C1113 0.929 . S
H1101 C1111 0.929 . S
H1102 C1106 0.929 . S
H1103 C1112 0.929 . S
C1104 H1098 0.930 . S
C1104 C1105 1.367 . S
C1104 C1112 1.378 . S
C1105 C1104 1.367 . S
C1105 C1113 1.433 . S
C1106 H1102 0.929 . S
C1106 C1108 1.378 . S
C1106 C1110 1.350 . S
C1107 C1110 1.463 . S
C1107 C1112 1.350 . S
C1107 N1115 1.427 . S
C1108 H1099 0.930 . S
C1108 C1106 1.378 . S
C1108 C1109 1.367 . S
C1109 C1108 1.367 . S
C1109 C1111 1.433 . S
C1110 C1106 1.350 . S
C1110 C1107 1.463 . S
C1110 N1114 1.427 . S
C1111 H1101 0.929 . S
C1111 C1109 1.433 . S
C1111 N1114 1.384 . S
C1112 H1103 0.929 . S
C1112 C1104 1.378 . S
C1112 C1107 1.350 . S
C1113 H1100 0.929 . S
C1113 C1105 1.433 . S
C1113 N1115 1.384 . S
N1114 C1110 1.427 . S
N1114 C1111 1.384 . S
N1115 C1107 1.427 . S
N1115 C1113 1.384 . S
H1116 C1122 0.930 . S
H1117 C1126 0.930 . S
H1118 C1131 0.929 . S
H1119 C1129 0.929 . S
H1120 C1124 0.929 . S
H1121 C1130 0.929 . S
C1122 H1116 0.930 . S
C1122 C1123 1.367 . S
C1122 C1130 1.378 . S
C1123 C1122 1.367 . S
C1123 C1131 1.433 . S
C1124 H1120 0.929 . S
C1124 C1126 1.378 . S
C1124 C1128 1.350 . S
C1125 C1128 1.463 . S
C1125 C1130 1.350 . S
C1125 N1133 1.427 . S
C1126 H1117 0.930 . S
C1126 C1124 1.378 . S
C1126 C1127 1.367 . S
C1127 C1126 1.367 . S
C1127 C1129 1.433 . S
C1128 C1124 1.350 . S
C1128 C1125 1.463 . S
C1128 N1132 1.427 . S
C1129 H1119 0.929 . S
C1129 C1127 1.433 . S
C1129 N1132 1.384 . S
C1130 H1121 0.929 . S
C1130 C1122 1.378 . S
C1130 C1125 1.350 . S
C1131 H1118 0.929 . S
C1131 C1123 1.433 . S
C1131 N1133 1.384 . S
N1132 C1128 1.427 . S
N1132 C1129 1.384 . S
N1133 C1125 1.427 . S
N1133 C1131 1.384 . S
H1134 C1140 0.930 . S
H1135 C1144 0.930 . S
H1136 C1149 0.929 . S
H1137 C1147 0.929 . S
H1138 C1142 0.929 . S
H1139 C1148 0.929 . S
C1140 H1134 0.930 . S
C1140 C1141 1.367 . S
C1140 C1148 1.378 . S
C1141 C1140 1.367 . S
C1141 C1149 1.433 . S
C1142 H1138 0.929 . S
C1142 C1144 1.378 . S
C1142 C1146 1.350 . S
C1143 C1146 1.463 . S
C1143 C1148 1.350 . S
C1143 N1151 1.427 . S
C1144 H1135 0.930 . S
C1144 C1142 1.378 . S
C1144 C1145 1.367 . S
C1145 C1144 1.367 . S
C1145 C1147 1.433 . S
C1146 C1142 1.350 . S
C1146 C1143 1.463 . S
C1146 N1150 1.427 . S
C1147 H1137 0.929 . S
C1147 C1145 1.433 . S
C1147 N1150 1.384 . S
C1148 H1139 0.929 . S
C1148 C1140 1.378 . S
C1148 C1143 1.350 . S
C1149 H1136 0.929 . S
C1149 C1141 1.433 . S
C1149 N1151 1.384 . S
N1150 C1146 1.427 . S
N1150 C1147 1.384 . S
N1151 C1143 1.427 . S
N1151 C1149 1.384 . S
H1152 C1158 0.930 . S
H1153 C1162 0.930 . S
H1154 C1167 0.929 . S
H1155 C1165 0.929 . S
H1156 C1160 0.929 . S
H1157 C1166 0.929 . S
C1158 H1152 0.930 . S
C1158 C1159 1.367 . S
C1158 C1166 1.378 . S
C1159 C1158 1.367 . S
C1159 C1167 1.433 . S
C1160 H1156 0.929 . S
C1160 C1162 1.378 . S
C1160 C1164 1.350 . S
C1161 C1164 1.463 . S
C1161 C1166 1.350 . S
C1161 N1169 1.427 . S
C1162 H1153 0.930 . S
C1162 C1160 1.378 . S
C1162 C1163 1.367 . S
C1163 C1162 1.367 . S
C1163 C1165 1.433 . S
C1164 C1160 1.350 . S
C1164 C1161 1.463 . S
C1164 N1168 1.427 . S
C1165 H1155 0.929 . S
C1165 C1163 1.433 . S
C1165 N1168 1.384 . S
C1166 H1157 0.929 . S
C1166 C1158 1.378 . S
C1166 C1161 1.350 . S
C1167 H1154 0.929 . S
C1167 C1159 1.433 . S
C1167 N1169 1.384 . S
N1168 C1164 1.427 . S
N1168 C1165 1.384 . S
N1169 C1161 1.427 . S
N1169 C1167 1.384 . S
H1170 C1176 0.930 . S
H1171 C1180 0.930 . S
H1172 C1185 0.929 . S
H1173 C1183 0.929 . S
H1174 C1178 0.929 . S
H1175 C1184 0.929 . S
C1176 H1170 0.930 . S
C1176 C1177 1.367 . S
C1176 C1184 1.378 . S
C1177 C1176 1.367 . S
C1177 C1185 1.433 . S
C1178 H1174 0.929 . S
C1178 C1180 1.378 . S
C1178 C1182 1.350 . S
C1179 C1182 1.463 . S
C1179 C1184 1.350 . S
C1179 N1187 1.427 . S
C1180 H1171 0.930 . S
C1180 C1178 1.378 . S
C1180 C1181 1.367 . S
C1181 C1180 1.367 . S
C1181 C1183 1.433 . S
C1182 C1178 1.350 . S
C1182 C1179 1.463 . S
C1182 N1186 1.427 . S
C1183 H1173 0.929 . S
C1183 C1181 1.433 . S
C1183 N1186 1.384 . S
C1184 H1175 0.929 . S
C1184 C1176 1.378 . S
C1184 C1179 1.350 . S
C1185 H1172 0.929 . S
C1185 C1177 1.433 . S
C1185 N1187 1.384 . S
N1186 C1182 1.427 . S
N1186 C1183 1.384 . S
N1187 C1179 1.427 . S
N1187 C1185 1.384 . S
H1188 C1194 0.930 . S
H1189 C1198 0.930 . S
H1190 C1203 0.929 . S
H1191 C1201 0.929 . S
H1192 C1196 0.929 . S
H1193 C1202 0.929 . S
C1194 H1188 0.930 . S
C1194 C1195 1.367 . S
C1194 C1202 1.378 . S
C1195 C1194 1.367 . S
C1195 C1203 1.433 . S
C1196 H1192 0.929 . S
C1196 C1198 1.378 . S
C1196 C1200 1.350 . S
C1197 C1200 1.463 . S
C1197 C1202 1.350 . S
C1197 N1205 1.427 . S
C1198 H1189 0.930 . S
C1198 C1196 1.378 . S
C1198 C1199 1.367 . S
C1199 C1198 1.367 . S
C1199 C1201 1.433 . S
C1200 C1196 1.350 . S
C1200 C1197 1.463 . S
C1200 N1204 1.427 . S
C1201 H1191 0.929 . S
C1201 C1199 1.433 . S
C1201 N1204 1.384 . S
C1202 H1193 0.929 . S
C1202 C1194 1.378 . S
C1202 C1197 1.350 . S
C1203 H1190 0.929 . S
C1203 C1195 1.433 . S
C1203 N1205 1.384 . S
N1204 C1200 1.427 . S
N1204 C1201 1.384 . S
N1205 C1197 1.427 . S
N1205 C1203 1.384 . S
H1206 C1212 0.930 . S
H1207 C1216 0.930 . S
H1208 C1221 0.929 . S
H1209 C1219 0.929 . S
H1210 C1214 0.929 . S
H1211 C1220 0.929 . S
C1212 H1206 0.930 . S
C1212 C1213 1.367 . S
C1212 C1220 1.378 . S
C1213 C1212 1.367 . S
C1213 C1221 1.433 . S
C1214 H1210 0.929 . S
C1214 C1216 1.378 . S
C1214 C1218 1.350 . S
C1215 C1218 1.463 . S
C1215 C1220 1.350 . S
C1215 N1223 1.427 . S
C1216 H1207 0.930 . S
C1216 C1214 1.378 . S
C1216 C1217 1.367 . S
C1217 C1216 1.367 . S
C1217 C1219 1.433 . S
C1218 C1214 1.350 . S
C1218 C1215 1.463 . S
C1218 N1222 1.427 . S
C1219 H1209 0.929 . S
C1219 C1217 1.433 . S
C1219 N1222 1.384 . S
C1220 H1211 0.929 . S
C1220 C1212 1.378 . S
C1220 C1215 1.350 . S
C1221 H1208 0.929 . S
C1221 C1213 1.433 . S
C1221 N1223 1.384 . S
N1222 C1218 1.427 . S
N1222 C1219 1.384 . S
N1223 C1215 1.427 . S
N1223 C1221 1.384 . S
H1224 C1230 0.930 . S
H1225 C1234 0.930 . S
H1226 C1239 0.929 . S
H1227 C1237 0.929 . S
H1228 C1232 0.929 . S
H1229 C1238 0.929 . S
C1230 H1224 0.930 . S
C1230 C1231 1.367 . S
C1230 C1238 1.378 . S
C1231 C1230 1.367 . S
C1231 C1239 1.433 . S
C1232 H1228 0.929 . S
C1232 C1234 1.378 . S
C1232 C1236 1.350 . S
C1233 C1236 1.463 . S
C1233 C1238 1.350 . S
C1233 N1241 1.427 . S
C1234 H1225 0.930 . S
C1234 C1232 1.378 . S
C1234 C1235 1.367 . S
C1235 C1234 1.367 . S
C1235 C1237 1.433 . S
C1236 C1232 1.350 . S
C1236 C1233 1.463 . S
C1236 N1240 1.427 . S
C1237 H1227 0.929 . S
C1237 C1235 1.433 . S
C1237 N1240 1.384 . S
C1238 H1229 0.929 . S
C1238 C1230 1.378 . S
C1238 C1233 1.350 . S
C1239 H1226 0.929 . S
C1239 C1231 1.433 . S
C1239 N1241 1.384 . S
N1240 C1236 1.427 . S
N1240 C1237 1.384 . S
N1241 C1233 1.427 . S
N1241 C1239 1.384 . S
H1242 C1248 0.930 . S
H1243 C1252 0.930 . S
H1244 C1257 0.929 . S
H1245 C1255 0.929 . S
H1246 C1250 0.929 . S
H1247 C1256 0.929 . S
C1248 H1242 0.930 . S
C1248 C1249 1.367 . S
C1248 C1256 1.378 . S
C1249 C1248 1.367 . S
C1249 C1257 1.433 . S
C1250 H1246 0.929 . S
C1250 C1252 1.378 . S
C1250 C1254 1.350 . S
C1251 C1254 1.463 . S
C1251 C1256 1.350 . S
C1251 N1259 1.427 . S
C1252 H1243 0.930 . S
C1252 C1250 1.378 . S
C1252 C1253 1.367 . S
C1253 C1252 1.367 . S
C1253 C1255 1.433 . S
C1254 C1250 1.350 . S
C1254 C1251 1.463 . S
C1254 N1258 1.427 . S
C1255 H1245 0.929 . S
C1255 C1253 1.433 . S
C1255 N1258 1.384 . S
C1256 H1247 0.929 . S
C1256 C1248 1.378 . S
C1256 C1251 1.350 . S
C1257 H1244 0.929 . S
C1257 C1249 1.433 . S
C1257 N1259 1.384 . S
N1258 C1254 1.427 . S
N1258 C1255 1.384 . S
N1259 C1251 1.427 . S
N1259 C1257 1.384 . S
H1260 C1266 0.930 . S
H1261 C1270 0.930 . S
H1262 C1275 0.929 . S
H1263 C1273 0.929 . S
H1264 C1268 0.929 . S
H1265 C1274 0.929 . S
C1266 H1260 0.930 . S
C1266 C1267 1.367 . S
C1266 C1274 1.378 . S
C1267 C1266 1.367 . S
C1267 C1275 1.433 . S
C1268 H1264 0.929 . S
C1268 C1270 1.378 . S
C1268 C1272 1.350 . S
C1269 C1272 1.463 . S
C1269 C1274 1.350 . S
C1269 N1277 1.427 . S
C1270 H1261 0.930 . S
C1270 C1268 1.378 . S
C1270 C1271 1.367 . S
C1271 C1270 1.367 . S
C1271 C1273 1.433 . S
C1272 C1268 1.350 . S
C1272 C1269 1.463 . S
C1272 N1276 1.427 . S
C1273 H1263 0.929 . S
C1273 C1271 1.433 . S
C1273 N1276 1.384 . S
C1274 H1265 0.929 . S
C1274 C1266 1.378 . S
C1274 C1269 1.350 . S
C1275 H1262 0.929 . S
C1275 C1267 1.433 . S
C1275 N1277 1.384 . S
N1276 C1272 1.427 . S
N1276 C1273 1.384 . S
N1277 C1269 1.427 . S
N1277 C1275 1.384 . S
H1278 C1284 0.930 . S
H1279 C1288 0.930 . S
H1280 C1293 0.929 . S
H1281 C1291 0.929 . S
H1282 C1286 0.929 . S
H1283 C1292 0.929 . S
C1284 H1278 0.930 . S
C1284 C1285 1.367 . S
C1284 C1292 1.378 . S
C1285 C1284 1.367 . S
C1285 C1293 1.433 . S
C1286 H1282 0.929 . S
C1286 C1288 1.378 . S
C1286 C1290 1.350 . S
C1287 C1290 1.463 . S
C1287 C1292 1.350 . S
C1287 N1295 1.427 . S
C1288 H1279 0.930 . S
C1288 C1286 1.378 . S
C1288 C1289 1.367 . S
C1289 C1288 1.367 . S
C1289 C1291 1.433 . S
C1290 C1286 1.350 . S
C1290 C1287 1.463 . S
C1290 N1294 1.427 . S
C1291 H1281 0.929 . S
C1291 C1289 1.433 . S
C1291 N1294 1.384 . S
C1292 H1283 0.929 . S
C1292 C1284 1.378 . S
C1292 C1287 1.350 . S
C1293 H1280 0.929 . S
C1293 C1285 1.433 . S
C1293 N1295 1.384 . S
N1294 C1290 1.427 . S
N1294 C1291 1.384 . S
N1295 C1287 1.427 . S
N1295 C1293 1.384 . S
H1296 C1302 0.930 . S
H1297 C1306 0.925 1_556 S
H1298 C1311 0.929 . S
H1299 C1309 0.929 . S
H1300 C1304 0.929 . S
H1301 C1310 0.929 1_554 S
C1302 H1296 0.930 . S
C1302 C1303 1.367 . S
C1302 C1310 1.378 . S
C1303 C1302 1.367 . S
C1303 C1311 1.433 . S
C1304 H1300 0.929 . S
C1304 C1306 1.374 1_556 S
C1304 C1308 1.357 . S
C1305 C1308 1.472 . S
C1305 C1310 1.350 . S
C1305 N1313 1.427 . S
C1306 H1297 0.925 1_554 S
C1306 C1304 1.374 1_554 S
C1306 C1307 1.373 . S
C1307 C1306 1.373 . S
C1307 C1309 1.433 . S
C1308 C1304 1.357 . S
C1308 C1305 1.472 . S
C1308 N1312 1.413 1_556 S
C1309 H1299 0.929 . S
C1309 C1307 1.433 . S
C1309 N1312 1.384 . S
C1310 H1301 0.929 1_556 S
C1310 C1302 1.378 . S
C1310 C1305 1.350 . S
C1311 H1298 0.929 . S
C1311 C1303 1.433 . S
C1311 N1313 1.384 . S
N1312 C1308 1.413 1_554 S
N1312 C1309 1.384 . S
N1313 C1305 1.427 . S
N1313 C1311 1.384 . S
H1314 C1320 0.930 . S
H1315 C1324 0.930 . S
H1316 C1329 0.929 . S
H1317 C1327 0.929 . S
H1318 C1322 0.929 . S
H1319 C1328 0.929 . S
C1320 H1314 0.930 . S
C1320 C1321 1.367 . S
C1320 C1328 1.378 . S
C1321 C1320 1.367 . S
C1321 C1329 1.433 . S
C1322 H1318 0.929 . S
C1322 C1324 1.378 . S
C1322 C1326 1.350 . S
C1323 C1326 1.463 . S
C1323 C1328 1.350 . S
C1323 N1331 1.427 . S
C1324 H1315 0.930 . S
C1324 C1322 1.378 . S
C1324 C1325 1.367 . S
C1325 C1324 1.367 . S
C1325 C1327 1.433 . S
C1326 C1322 1.350 . S
C1326 C1323 1.463 . S
C1326 N1330 1.427 . S
C1327 H1317 0.929 . S
C1327 C1325 1.433 . S
C1327 N1330 1.384 . S
C1328 H1319 0.929 . S
C1328 C1320 1.378 . S
C1328 C1323 1.350 . S
C1329 H1316 0.929 . S
C1329 C1321 1.433 . S
C1329 N1331 1.384 . S
N1330 C1326 1.427 . S
N1330 C1327 1.384 . S
N1331 C1323 1.427 . S
N1331 C1329 1.384 . S
H1332 C1338 0.930 . S
H1333 C1342 0.930 . S
H1334 C1347 0.929 . S
H1335 C1345 0.929 . S
H1336 C1340 0.929 . S
H1337 C1346 0.929 . S
C1338 H1332 0.930 . S
C1338 C1339 1.367 . S
C1338 C1346 1.378 . S
C1339 C1338 1.367 . S
C1339 C1347 1.433 . S
C1340 H1336 0.929 . S
C1340 C1342 1.378 . S
C1340 C1344 1.350 . S
C1341 C1344 1.463 . S
C1341 C1346 1.350 . S
C1341 N1349 1.427 . S
C1342 H1333 0.930 . S
C1342 C1340 1.378 . S
C1342 C1343 1.367 . S
C1343 C1342 1.367 . S
C1343 C1345 1.433 . S
C1344 C1340 1.350 . S
C1344 C1341 1.463 . S
C1344 N1348 1.427 . S
C1345 H1335 0.929 . S
C1345 C1343 1.433 . S
C1345 N1348 1.384 . S
C1346 H1337 0.929 . S
C1346 C1338 1.378 . S
C1346 C1341 1.350 . S
C1347 H1334 0.929 . S
C1347 C1339 1.433 . S
C1347 N1349 1.384 . S
N1348 C1344 1.427 . S
N1348 C1345 1.384 . S
N1349 C1341 1.427 . S
N1349 C1347 1.384 . S
H1350 C1356 0.930 . S
H1351 C1360 0.930 . S
H1352 C1365 0.929 . S
H1353 C1363 0.929 . S
H1354 C1358 0.929 . S
H1355 C1364 0.929 . S
C1356 H1350 0.930 . S
C1356 C1357 1.367 . S
C1356 C1364 1.378 . S
C1357 C1356 1.367 . S
C1357 C1365 1.433 . S
C1358 H1354 0.929 . S
C1358 C1360 1.378 . S
C1358 C1362 1.350 . S
C1359 C1362 1.463 . S
C1359 C1364 1.350 . S
C1359 N1367 1.427 . S
C1360 H1351 0.930 . S
C1360 C1358 1.378 . S
C1360 C1361 1.367 . S
C1361 C1360 1.367 . S
C1361 C1363 1.433 . S
C1362 C1358 1.350 . S
C1362 C1359 1.463 . S
C1362 N1366 1.427 . S
C1363 H1353 0.929 . S
C1363 C1361 1.433 . S
C1363 N1366 1.384 . S
C1364 H1355 0.929 . S
C1364 C1356 1.378 . S
C1364 C1359 1.350 . S
C1365 H1352 0.929 . S
C1365 C1357 1.433 . S
C1365 N1367 1.384 . S
N1366 C1362 1.427 . S
N1366 C1363 1.384 . S
N1367 C1359 1.427 . S
N1367 C1365 1.384 . S
H1368 C1374 0.930 . S
H1369 C1378 0.930 . S
H1370 C1383 0.929 . S
H1371 C1381 0.929 . S
H1372 C1376 0.929 . S
H1373 C1382 0.929 . S
C1374 H1368 0.930 . S
C1374 C1375 1.367 . S
C1374 C1382 1.378 . S
C1375 C1374 1.367 . S
C1375 C1383 1.433 . S
C1376 H1372 0.929 . S
C1376 C1378 1.378 . S
C1376 C1380 1.350 . S
C1377 C1380 1.463 . S
C1377 C1382 1.350 . S
C1377 N1385 1.427 . S
C1378 H1369 0.930 . S
C1378 C1376 1.378 . S
C1378 C1379 1.367 . S
C1379 C1378 1.367 . S
C1379 C1381 1.433 . S
C1380 C1376 1.350 . S
C1380 C1377 1.463 . S
C1380 N1384 1.427 . S
C1381 H1371 0.929 . S
C1381 C1379 1.433 . S
C1381 N1384 1.384 . S
C1382 H1373 0.929 . S
C1382 C1374 1.378 . S
C1382 C1377 1.350 . S
C1383 H1370 0.929 . S
C1383 C1375 1.433 . S
C1383 N1385 1.384 . S
N1384 C1380 1.427 . S
N1384 C1381 1.384 . S
N1385 C1377 1.427 . S
N1385 C1383 1.384 . S
H1386 C1392 0.930 . S
H1387 C1396 0.930 . S
H1388 C1401 0.929 . S
H1389 C1399 0.929 . S
H1390 C1394 0.929 . S
H1391 C1400 0.929 . S
C1392 H1386 0.930 . S
C1392 C1393 1.367 . S
C1392 C1400 1.378 . S
C1393 C1392 1.367 . S
C1393 C1401 1.433 1_554 S
C1394 H1390 0.929 . S
C1394 C1396 1.378 . S
C1394 C1398 1.350 1_556 S
C1395 C1398 1.463 . S
C1395 C1400 1.350 . S
C1395 N1403 1.427 1_554 S
C1396 H1387 0.930 . S
C1396 C1394 1.378 . S
C1396 C1397 1.367 . S
C1397 C1396 1.367 . S
C1397 C1399 1.433 1_556 S
C1398 C1394 1.350 1_554 S
C1398 C1395 1.463 . S
C1398 N1402 1.427 . S
C1399 H1389 0.929 . S
C1399 C1397 1.433 1_554 S
C1399 N1402 1.384 . S
C1400 H1391 0.929 . S
C1400 C1392 1.378 . S
C1400 C1395 1.350 . S
C1401 H1388 0.929 . S
C1401 C1393 1.433 1_556 S
C1401 N1403 1.384 . S
N1402 C1398 1.427 . S
N1402 C1399 1.384 . S
N1403 C1395 1.427 1_556 S
N1403 C1401 1.384 . S
H1404 C1410 0.930 . S
H1405 C1414 0.930 . S
H1406 C1419 0.929 . S
H1407 C1417 0.929 . S
H1408 C1412 0.929 . S
H1409 C1418 0.929 . S
C1410 H1404 0.930 . S
C1410 C1411 1.367 . S
C1410 C1418 1.378 . S
C1411 C1410 1.367 . S
C1411 C1419 1.433 . S
C1412 H1408 0.929 . S
C1412 C1414 1.378 . S
C1412 C1416 1.350 . S
C1413 C1416 1.463 . S
C1413 C1418 1.350 . S
C1413 N1421 1.427 . S
C1414 H1405 0.930 . S
C1414 C1412 1.378 . S
C1414 C1415 1.367 . S
C1415 C1414 1.367 . S
C1415 C1417 1.433 . S
C1416 C1412 1.350 . S
C1416 C1413 1.463 . S
C1416 N1420 1.427 . S
C1417 H1407 0.929 . S
C1417 C1415 1.433 . S
C1417 N1420 1.384 . S
C1418 H1409 0.929 . S
C1418 C1410 1.378 . S
C1418 C1413 1.350 . S
C1419 H1406 0.929 . S
C1419 C1411 1.433 . S
C1419 N1421 1.384 . S
N1420 C1416 1.427 . S
N1420 C1417 1.384 . S
N1421 C1413 1.427 . S
N1421 C1419 1.384 . S
H1422 C1428 0.930 . S
H1423 C1432 0.930 . S
H1424 C1437 0.929 . S
H1425 C1435 0.929 . S
H1426 C1430 0.929 . S
H1427 C1436 0.929 . S
C1428 H1422 0.930 . S
C1428 C1429 1.367 . S
C1428 C1436 1.378 . S
C1429 C1428 1.367 . S
C1429 C1437 1.433 . S
C1430 H1426 0.929 . S
C1430 C1432 1.378 . S
C1430 C1434 1.350 . S
C1431 C1434 1.463 . S
C1431 C1436 1.350 . S
C1431 N1439 1.427 . S
C1432 H1423 0.930 . S
C1432 C1430 1.378 . S
C1432 C1433 1.367 . S
C1433 C1432 1.367 . S
C1433 C1435 1.433 . S
C1434 C1430 1.350 . S
C1434 C1431 1.463 . S
C1434 N1438 1.427 . S
C1435 H1425 0.929 . S
C1435 C1433 1.433 . S
C1435 N1438 1.384 . S
C1436 H1427 0.929 . S
C1436 C1428 1.378 . S
C1436 C1431 1.350 . S
C1437 H1424 0.929 . S
C1437 C1429 1.433 . S
C1437 N1439 1.384 . S
N1438 C1434 1.427 . S
N1438 C1435 1.384 . S
N1439 C1431 1.427 . S
N1439 C1437 1.384 . S
H1440 C1446 0.930 . S
H1441 C1450 0.930 . S
H1442 C1455 0.929 . S
H1443 C1453 0.929 . S
H1444 C1448 0.929 . S
H1445 C1454 0.929 . S
C1446 H1440 0.930 . S
C1446 C1447 1.367 . S
C1446 C1454 1.378 . S
C1447 C1446 1.367 . S
C1447 C1455 1.433 . S
C1448 H1444 0.929 . S
C1448 C1450 1.378 . S
C1448 C1452 1.350 . S
C1449 C1452 1.463 . S
C1449 C1454 1.350 . S
C1449 N1457 1.427 . S
C1450 H1441 0.930 . S
C1450 C1448 1.378 . S
C1450 C1451 1.367 . S
C1451 C1450 1.367 . S
C1451 C1453 1.433 . S
C1452 C1448 1.350 . S
C1452 C1449 1.463 . S
C1452 N1456 1.427 . S
C1453 H1443 0.929 . S
C1453 C1451 1.433 . S
C1453 N1456 1.384 . S
C1454 H1445 0.929 . S
C1454 C1446 1.378 . S
C1454 C1449 1.350 . S
C1455 H1442 0.929 . S
C1455 C1447 1.433 . S
C1455 N1457 1.384 . S
N1456 C1452 1.427 . S
N1456 C1453 1.384 . S
N1457 C1449 1.427 . S
N1457 C1455 1.384 . S
H1458 C1464 0.930 . S
H1459 C1468 0.930 . S
H1460 C1473 0.929 . S
H1461 C1471 0.929 . S
H1462 C1466 0.929 . S
H1463 C1472 0.929 . S
C1464 H1458 0.930 . S
C1464 C1465 1.367 . S
C1464 C1472 1.378 . S
C1465 C1464 1.367 . S
C1465 C1473 1.433 . S
C1466 H1462 0.929 . S
C1466 C1468 1.378 . S
C1466 C1470 1.350 . S
C1467 C1470 1.463 . S
C1467 C1472 1.350 . S
C1467 N1475 1.427 . S
C1468 H1459 0.930 . S
C1468 C1466 1.378 . S
C1468 C1469 1.367 . S
C1469 C1468 1.367 . S
C1469 C1471 1.433 . S
C1470 C1466 1.350 . S
C1470 C1467 1.463 . S
C1470 N1474 1.427 . S
C1471 H1461 0.929 . S
C1471 C1469 1.433 . S
C1471 N1474 1.384 . S
C1472 H1463 0.929 . S
C1472 C1464 1.378 . S
C1472 C1467 1.350 . S
C1473 H1460 0.929 . S
C1473 C1465 1.433 . S
C1473 N1475 1.384 . S
N1474 C1470 1.427 . S
N1474 C1471 1.384 . S
N1475 C1467 1.427 . S
N1475 C1473 1.384 . S
H1476 C1482 0.930 . S
H1477 C1486 0.930 . S
H1478 C1491 0.929 . S
H1479 C1489 0.929 . S
H1480 C1484 0.929 . S
H1481 C1490 0.929 . S
C1482 H1476 0.930 . S
C1482 C1483 1.367 . S
C1482 C1490 1.378 . S
C1483 C1482 1.367 . S
C1483 C1491 1.433 . S
C1484 H1480 0.929 . S
C1484 C1486 1.378 . S
C1484 C1488 1.350 . S
C1485 C1488 1.463 . S
C1485 C1490 1.350 . S
C1485 N1493 1.427 . S
C1486 H1477 0.930 . S
C1486 C1484 1.378 . S
C1486 C1487 1.367 . S
C1487 C1486 1.367 . S
C1487 C1489 1.433 . S
C1488 C1484 1.350 . S
C1488 C1485 1.463 . S
C1488 N1492 1.427 . S
C1489 H1479 0.929 . S
C1489 C1487 1.433 . S
C1489 N1492 1.384 . S
C1490 H1481 0.929 . S
C1490 C1482 1.378 . S
C1490 C1485 1.350 . S
C1491 H1478 0.929 . S
C1491 C1483 1.433 . S
C1491 N1493 1.384 . S
N1492 C1488 1.427 . S
N1492 C1489 1.384 . S
N1493 C1485 1.427 . S
N1493 C1491 1.384 . S
H1494 C1500 0.930 . S
H1495 C1504 0.930 . S
H1496 C1509 0.929 . S
H1497 C1507 0.929 . S
H1498 C1502 0.929 . S
H1499 C1508 0.929 . S
C1500 H1494 0.930 . S
C1500 C1501 1.367 . S
C1500 C1508 1.378 . S
C1501 C1500 1.367 . S
C1501 C1509 1.433 . S
C1502 H1498 0.929 . S
C1502 C1504 1.378 . S
C1502 C1506 1.350 . S
C1503 C1506 1.463 . S
C1503 C1508 1.350 . S
C1503 N1511 1.427 . S
C1504 H1495 0.930 . S
C1504 C1502 1.378 . S
C1504 C1505 1.367 . S
C1505 C1504 1.367 . S
C1505 C1507 1.433 . S
C1506 C1502 1.350 . S
C1506 C1503 1.463 . S
C1506 N1510 1.427 . S
C1507 H1497 0.929 . S
C1507 C1505 1.433 . S
C1507 N1510 1.384 . S
C1508 H1499 0.929 . S
C1508 C1500 1.378 . S
C1508 C1503 1.350 . S
C1509 H1496 0.929 . S
C1509 C1501 1.433 . S
C1509 N1511 1.384 . S
N1510 C1506 1.427 . S
N1510 C1507 1.384 . S
N1511 C1503 1.427 . S
N1511 C1509 1.384 . S
H1512 C1518 0.930 . S
H1513 C1522 0.930 . S
H1514 C1527 0.929 . S
H1515 C1525 0.929 . S
H1516 C1520 0.929 . S
H1517 C1526 0.929 . S
C1518 H1512 0.930 . S
C1518 C1519 1.367 . S
C1518 C1526 1.378 . S
C1519 C1518 1.367 . S
C1519 C1527 1.433 . S
C1520 H1516 0.929 . S
C1520 C1522 1.378 . S
C1520 C1524 1.350 . S
C1521 C1524 1.463 . S
C1521 C1526 1.350 . S
C1521 N1529 1.427 . S
C1522 H1513 0.930 . S
C1522 C1520 1.378 . S
C1522 C1523 1.367 . S
C1523 C1522 1.367 . S
C1523 C1525 1.433 . S
C1524 C1520 1.350 . S
C1524 C1521 1.463 . S
C1524 N1528 1.427 . S
C1525 H1515 0.929 . S
C1525 C1523 1.433 . S
C1525 N1528 1.384 . S
C1526 H1517 0.929 . S
C1526 C1518 1.378 . S
C1526 C1521 1.350 . S
C1527 H1514 0.929 . S
C1527 C1519 1.433 . S
C1527 N1529 1.384 . S
N1528 C1524 1.427 . S
N1528 C1525 1.384 . S
N1529 C1521 1.427 . S
N1529 C1527 1.384 . S
H1530 C1536 0.930 . S
H1531 C1540 0.930 . S
H1532 C1545 0.929 . S
H1533 C1543 0.929 . S
H1534 C1538 0.929 . S
H1535 C1544 0.929 . S
C1536 H1530 0.930 . S
C1536 C1537 1.367 . S
C1536 C1544 1.378 . S
C1537 C1536 1.367 . S
C1537 C1545 1.433 . S
C1538 H1534 0.929 . S
C1538 C1540 1.378 . S
C1538 C1542 1.350 . S
C1539 C1542 1.463 . S
C1539 C1544 1.350 . S
C1539 N1547 1.427 . S
C1540 H1531 0.930 . S
C1540 C1538 1.378 . S
C1540 C1541 1.367 . S
C1541 C1540 1.367 . S
C1541 C1543 1.433 . S
C1542 C1538 1.350 . S
C1542 C1539 1.463 . S
C1542 N1546 1.427 . S
C1543 H1533 0.929 . S
C1543 C1541 1.433 . S
C1543 N1546 1.384 . S
C1544 H1535 0.929 . S
C1544 C1536 1.378 . S
C1544 C1539 1.350 . S
C1545 H1532 0.929 . S
C1545 C1537 1.433 . S
C1545 N1547 1.384 . S
N1546 C1542 1.427 . S
N1546 C1543 1.384 . S
N1547 C1539 1.427 . S
N1547 C1545 1.384 . S
H1548 C1554 0.930 . S
H1549 C1558 0.930 . S
H1550 C1563 0.929 . S
H1551 C1561 0.929 . S
H1552 C1556 0.929 . S
H1553 C1562 0.929 . S
C1554 H1548 0.930 . S
C1554 C1555 1.367 . S
C1554 C1562 1.378 . S
C1555 C1554 1.367 . S
C1555 C1563 1.433 . S
C1556 H1552 0.929 . S
C1556 C1558 1.378 . S
C1556 C1560 1.350 . S
C1557 C1560 1.463 . S
C1557 C1562 1.350 . S
C1557 N1565 1.427 . S
C1558 H1549 0.930 . S
C1558 C1556 1.378 . S
C1558 C1559 1.367 . S
C1559 C1558 1.367 . S
C1559 C1561 1.433 . S
C1560 C1556 1.350 . S
C1560 C1557 1.463 . S
C1560 N1564 1.427 . S
C1561 H1551 0.929 . S
C1561 C1559 1.433 . S
C1561 N1564 1.384 . S
C1562 H1553 0.929 . S
C1562 C1554 1.378 . S
C1562 C1557 1.350 . S
C1563 H1550 0.929 . S
C1563 C1555 1.433 . S
C1563 N1565 1.384 . S
N1564 C1560 1.427 . S
N1564 C1561 1.384 . S
N1565 C1557 1.427 . S
N1565 C1563 1.384 . S
H1566 C1572 0.930 . S
H1567 C1576 0.930 . S
H1568 C1581 0.929 . S
H1569 C1579 0.929 . S
H1570 C1574 0.929 . S
H1571 C1580 0.929 . S
C1572 H1566 0.930 . S
C1572 C1573 1.367 . S
C1572 C1580 1.378 . S
C1573 C1572 1.367 . S
C1573 C1581 1.433 . S
C1574 H1570 0.929 . S
C1574 C1576 1.378 . S
C1574 C1578 1.350 . S
C1575 C1578 1.463 . S
C1575 C1580 1.350 . S
C1575 N1583 1.427 . S
C1576 H1567 0.930 . S
C1576 C1574 1.378 . S
C1576 C1577 1.367 . S
C1577 C1576 1.367 . S
C1577 C1579 1.433 . S
C1578 C1574 1.350 . S
C1578 C1575 1.463 . S
C1578 N1582 1.427 . S
C1579 H1569 0.929 . S
C1579 C1577 1.433 . S
C1579 N1582 1.384 . S
C1580 H1571 0.929 . S
C1580 C1572 1.378 . S
C1580 C1575 1.350 . S
C1581 H1568 0.929 . S
C1581 C1573 1.433 . S
C1581 N1583 1.384 . S
N1582 C1578 1.427 . S
N1582 C1579 1.384 . S
N1583 C1575 1.427 . S
N1583 C1581 1.384 . S
H1584 C1590 0.930 . S
H1585 C1594 0.930 . S
H1586 C1599 0.929 . S
H1587 C1597 0.929 . S
H1588 C1592 0.929 . S
H1589 C1598 0.929 . S
C1590 H1584 0.930 . S
C1590 C1591 1.367 . S
C1590 C1598 1.378 . S
C1591 C1590 1.367 . S
C1591 C1599 1.433 . S
C1592 H1588 0.929 . S
C1592 C1594 1.378 . S
C1592 C1596 1.350 . S
C1593 C1596 1.463 . S
C1593 C1598 1.350 . S
C1593 N1601 1.427 . S
C1594 H1585 0.930 . S
C1594 C1592 1.378 . S
C1594 C1595 1.367 . S
C1595 C1594 1.367 . S
C1595 C1597 1.433 . S
C1596 C1592 1.350 . S
C1596 C1593 1.463 . S
C1596 N1600 1.427 . S
C1597 H1587 0.929 . S
C1597 C1595 1.433 . S
C1597 N1600 1.384 . S
C1598 H1589 0.929 . S
C1598 C1590 1.378 . S
C1598 C1593 1.350 . S
C1599 H1586 0.929 . S
C1599 C1591 1.433 . S
C1599 N1601 1.384 . S
N1600 C1596 1.427 . S
N1600 C1597 1.384 . S
N1601 C1593 1.427 . S
N1601 C1599 1.384 . S
H1602 C1608 0.930 . S
H1603 C1612 0.930 . S
H1604 C1617 0.929 . S
H1605 C1615 0.929 . S
H1606 C1610 0.929 . S
H1607 C1616 0.929 . S
C1608 H1602 0.930 . S
C1608 C1609 1.367 . S
C1608 C1616 1.378 . S
C1609 C1608 1.367 . S
C1609 C1617 1.433 . S
C1610 H1606 0.929 . S
C1610 C1612 1.378 . S
C1610 C1614 1.350 . S
C1611 C1614 1.463 . S
C1611 C1616 1.350 . S
C1611 N1619 1.427 . S
C1612 H1603 0.930 . S
C1612 C1610 1.378 . S
C1612 C1613 1.367 . S
C1613 C1612 1.367 . S
C1613 C1615 1.433 . S
C1614 C1610 1.350 . S
C1614 C1611 1.463 . S
C1614 N1618 1.427 . S
C1615 H1605 0.929 . S
C1615 C1613 1.433 . S
C1615 N1618 1.384 . S
C1616 H1607 0.929 . S
C1616 C1608 1.378 . S
C1616 C1611 1.350 . S
C1617 H1604 0.929 . S
C1617 C1609 1.433 . S
C1617 N1619 1.384 . S
N1618 C1614 1.427 . S
N1618 C1615 1.384 . S
N1619 C1611 1.427 . S
N1619 C1617 1.384 . S
H1620 C1626 0.930 . S
H1621 C1630 0.930 . S
H1622 C1635 0.929 . S
H1623 C1633 0.929 . S
H1624 C1628 0.929 . S
H1625 C1634 0.929 . S
C1626 H1620 0.930 . S
C1626 C1627 1.367 . S
C1626 C1634 1.378 . S
C1627 C1626 1.367 . S
C1627 C1635 1.433 . S
C1628 H1624 0.929 . S
C1628 C1630 1.378 . S
C1628 C1632 1.350 . S
C1629 C1632 1.463 . S
C1629 C1634 1.350 . S
C1629 N1637 1.427 . S
C1630 H1621 0.930 . S
C1630 C1628 1.378 . S
C1630 C1631 1.367 . S
C1631 C1630 1.367 . S
C1631 C1633 1.433 . S
C1632 C1628 1.350 . S
C1632 C1629 1.463 . S
C1632 N1636 1.427 . S
C1633 H1623 0.929 . S
C1633 C1631 1.433 . S
C1633 N1636 1.384 . S
C1634 H1625 0.929 . S
C1634 C1626 1.378 . S
C1634 C1629 1.350 . S
C1635 H1622 0.929 . S
C1635 C1627 1.433 . S
C1635 N1637 1.384 . S
N1636 C1632 1.427 . S
N1636 C1633 1.384 . S
N1637 C1629 1.427 . S
N1637 C1635 1.384 . S
H1638 C1644 0.930 . S
H1639 C1648 0.930 . S
H1640 C1653 0.929 . S
H1641 C1651 0.929 . S
H1642 C1646 0.929 . S
H1643 C1652 0.929 . S
C1644 H1638 0.930 . S
C1644 C1645 1.367 . S
C1644 C1652 1.378 . S
C1645 C1644 1.367 . S
C1645 C1653 1.433 . S
C1646 H1642 0.929 . S
C1646 C1648 1.378 . S
C1646 C1650 1.350 . S
C1647 C1650 1.463 . S
C1647 C1652 1.350 . S
C1647 N1655 1.427 . S
C1648 H1639 0.930 . S
C1648 C1646 1.378 . S
C1648 C1649 1.367 . S
C1649 C1648 1.367 . S
C1649 C1651 1.433 . S
C1650 C1646 1.350 . S
C1650 C1647 1.463 . S
C1650 N1654 1.427 . S
C1651 H1641 0.929 . S
C1651 C1649 1.433 . S
C1651 N1654 1.384 . S
C1652 H1643 0.929 . S
C1652 C1644 1.378 . S
C1652 C1647 1.350 . S
C1653 H1640 0.929 . S
C1653 C1645 1.433 . S
C1653 N1655 1.384 . S
N1654 C1650 1.427 . S
N1654 C1651 1.384 . S
N1655 C1647 1.427 . S
N1655 C1653 1.384 . S
C1015 C476 1.604 . S
C1019 C58 1.261 . S
C1033 C142 1.273 . S
C1037 C56 1.709 . S
C1051 C226 1.339 . S
C1055 C140 1.708 . S
C1069 C224 1.594 . S
C1073 C310 1.230 . S
C1087 C308 1.701 . S
C1091 C394 1.257 . S
C1105 C478 1.342 . S
C1109 C392 1.708 . S
C1123 C644 1.592 . S
C1127 C562 1.228 . S
C1141 C646 1.341 . S
C1145 C728 1.704 . S
C1159 C812 1.708 . S
C1163 C730 1.278 . S
C1177 C896 1.603 . S
C1181 C814 1.262 . S
C1195 C980 1.706 . S
C1199 C898 1.341 . S
C1213 C560 1.710 . S
C1217 C982 1.282 . S
C1231 C998 3.463 . S
C1235 C67 3.411 . S
C1249 C151 2.959 . S
C1253 C578 3.007 . S
C1267 C662 3.247 . S
C1271 C235 3.193 . S
C1285 C746 3.466 . S
C1289 C319 3.416 . S
C1303 C830 3.004 . S
C1307 C403 2.957 . S
C1321 C487 3.196 . S
C1325 C914 3.250 . S
C1339 C571 3.414 . S
C1343 C158 3.469 . S
C1357 C655 3.190 . S
C1361 C242 3.249 . S
C1375 C326 3.009 . S
C1379 C739 2.955 . S
C1393 C410 3.463 . S
C1397 C823 3.411 . S
C1411 C907 3.194 . S
C1415 C494 3.250 . S
C1429 C991 2.957 . S
C1433 C74 3.005 . S
C1447 C567 2.209 . S
C1451 C63 2.210 . S
C1465 C147 1.493 . S
C1469 C651 1.500 . S
C1483 C735 1.489 . S
C1487 C231 1.496 . S
C1501 C315 2.217 . S
C1505 C819 2.218 . S
C1519 C903 1.491 . S
C1523 C399 1.486 . S
C1537 C987 1.493 . S
C1541 C483 1.500 . S
C1555 C573 0.476 . S
C1559 C69 0.496 . S
C1573 C657 0.294 . S
C1577 C153 0.306 . S
C1591 C741 0.278 . S
C1595 C237 0.312 . S
C1609 C321 0.512 . S
C1613 C825 0.496 . S
C1627 C909 0.301 . S
C1631 C405 0.290 . S
C1645 C993 0.279 . S
C1649 C489 0.312 . S
