# Generated by pormake.
# Topology snp, (6)-cn, num edge types: 1
# Building blocks:
#     Node 0, Type 0, BuildingBlock: BETFAJ_clean_sbu_0, # of connection points: 6
#     Node 1, Type 0, BuildingBlock: BETFAJ_clean_sbu_0, # of connection points: 6
#     Node 2, Type 0, BuildingBlock: BETFAJ_clean_sbu_0, # of connection points: 6
#     Node 3, Type 0, BuildingBlock: BETFAJ_clean_sbu_0, # of connection points: 6
#     Edge 4, Type (0, 0), BuildingBlock: FUNLAD_clean_linker_0, # of connection points: 2
#     Edge 5, Type (0, 0), BuildingBlock: FUNLAD_clean_linker_0, # of connection points: 2
#     Edge 6, Type (0, 0), BuildingBlock: FUNLAD_clean_linker_0, # of connection points: 2
#     Edge 7, Type (0, 0), BuildingBlock: FUNLAD_clean_linker_0, # of connection points: 2
#     Edge 8, Type (0, 0), BuildingBlock: FUNLAD_clean_linker_0, # of connection points: 2
#     Edge 9, Type (0, 0), BuildingBlock: FUNLAD_clean_linker_0, # of connection points: 2
#     Edge 10, Type (0, 0), BuildingBlock: FUNLAD_clean_linker_0, # of connection points: 2
#     Edge 11, Type (0, 0), BuildingBlock: FUNLAD_clean_linker_0, # of connection points: 2
#     Edge 12, Type (0, 0), BuildingBlock: FUNLAD_clean_linker_0, # of connection points: 2
#     Edge 13, Type (0, 0), BuildingBlock: FUNLAD_clean_linker_0, # of connection points: 2
#     Edge 14, Type (0, 0), BuildingBlock: FUNLAD_clean_linker_0, # of connection points: 2
#     Edge 15, Type (0, 0), BuildingBlock: FUNLAD_clean_linker_0, # of connection points: 2
# Relax obj value: 0.202
# Max RMSD: 0.210
# Mean RMSD: 0.204
data_MOF--net-snp--node1-BETFAJ_clean_sbu_0--edge1-FUNLAD_clean_linker_0
_symmetry_space_group_name_H-M    P1
_symmetry_Int_Tables_number       1
_symmetry_cell_setting            triclinic
loop_
_symmetry_equiv_pos_as_xyz
'x, y, z'
_cell_length_a     29.549049
_cell_length_b     29.172121
_cell_length_c     40.746364
_cell_angle_alpha  84.727853
_cell_angle_beta   102.07163
_cell_angle_gamma 95.659084
loop_
_atom_site_label
_atom_site_type_symbol
_atom_site_fract_x
_atom_site_fract_y
_atom_site_fract_z
_atom_type_partial_charge
Sm0 Sm 0.20494 0.06443 0.11742 0.0
Sm1 Sm 0.23349 0.9874 0.08298 0.0
C2 C 0.16709 0.11689 0.15276 0.0
C3 C 0.16859 0.12668 0.18816 0.0
C4 C 0.1272 0.12317 0.20037 0.0
C5 C 0.12729 0.13468 0.23306 0.0
C6 C 0.16881 0.15031 0.25434 0.0
C7 C 0.21038 0.15311 0.24221 0.0
C8 C 0.2103 0.14139 0.20958 0.0
C9 C 0.2993 0.05556 0.12925 0.0
C10 C 0.21283 0.96106 0.15683 0.0
C11 C 0.27044 0.93522 0.04727 0.0
C12 C 0.26222 0.92877 1.0109 0.0
C13 C 0.24536 0.96416 0.98711 0.0
C14 C 0.23287 0.95646 0.9529 0.0
C15 C 0.23627 0.91291 0.94167 0.0
C16 C 0.25434 0.87785 0.96556 0.0
C17 C 0.26714 0.88574 0.99984 0.0
C18 C 0.13929 -0.00827 0.07133 0.0
C19 C 0.22076 0.09125 0.04255 0.0
O20 O 0.14797 0.07663 0.14316 0.0
O21 O 0.2036 0.1307 0.13989 0.0
O22 O 0.26791 0.02347 0.12854 0.0
O23 O 0.282 0.09527 0.12559 0.0
O24 O 0.19005 -0.00134 0.15097 0.0
O25 O 0.24026 0.95222 0.13674 0.0
O26 O 0.28991 0.97542 0.05693 0.0
O27 O 0.23585 0.9203 0.06188 0.0
O28 O 0.16847 0.02641 0.07166 0.0
O29 O 0.15946 0.95358 0.07632 0.0
O30 O 0.24307 0.05318 0.04697 0.0
O31 O 0.19635 0.10043 0.06446 0.0
H32 H 0.09453 0.11217 0.18437 0.0
H33 H 0.09456 0.13249 0.24132 0.0
H34 H 0.24312 0.16431 0.258 0.0
H35 H 0.24289 0.14429 0.20107 0.0
H36 H 0.2407 -0.00252 0.99504 0.0
H37 H 0.21986 0.98455 0.93529 0.0
H38 H 0.25694 0.84374 0.95801 0.0
H39 H 0.27956 0.85778 1.01783 0.0
Sm40 Sm -0.00041 0.21949 0.71381 0.0
Sm41 Sm 0.08574 0.25372 0.68497 0.0
C42 C 0.93105 0.17388 0.739 0.0
C43 C 0.91216 0.17214 0.76974 0.0
C44 C 0.87588 0.13905 0.77418 0.0
C45 C 0.85979 0.13432 0.80431 0.0
C46 C 0.87977 0.16263 0.83062 0.0
C47 C 0.91539 0.19671 0.82569 0.0
C48 C 0.93159 0.20131 0.7955 0.0
C49 C 0.00832 0.31285 0.6966 0.0
C50 C 0.09147 0.26244 0.76377 0.0
C51 C 0.14194 0.28482 0.6435 0.0
C52 C 0.14251 0.27292 0.60894 0.0
C53 C 0.15552 0.30659 0.58501 0.0
C54 C 0.15529 0.29514 0.55221 0.0
C55 C 0.14162 0.24981 0.54261 0.0
C56 C 0.12871 0.21623 0.56675 0.0
C57 C 0.12932 0.22759 0.59947 0.0
C58 C 0.08992 0.16666 0.71687 0.0
C59 C 0.99641 0.20055 0.63571 0.0
O60 O 0.97236 0.15899 0.7429 0.0
O61 O 0.92561 0.21126 0.71864 0.0
O62 O 0.01652 0.28129 0.68026 0.0
O63 O 0.99354 0.29566 0.72337 0.0
O64 O 0.05571 0.23114 0.76082 0.0
O65 O 0.10603 0.28368 0.73717 0.0
O66 O 0.10726 0.30734 0.64705 0.0
O67 O 0.15153 0.25193 0.66725 0.0
O68 O 0.05456 0.18287 0.69807 0.0
O69 O 0.12369 0.199 0.72148 0.0
O70 O 0.04055 0.21636 0.64056 0.0
O71 O 0.9719 0.19982 0.6594 0.0
H72 H 0.86052 0.11626 0.75455 0.0
H73 H 0.83187 0.10822 0.8071 0.0
H74 H 0.93174 0.21877 0.84555 0.0
H75 H 0.9599 0.2269 0.79251 0.0
H76 H 0.16572 0.34178 0.59165 0.0
H77 H 0.16511 0.32195 0.53422 0.0
H78 H 0.11865 0.18087 0.5605 0.0
H79 H 0.1194 0.20074 0.61742 0.0
Sm80 Sm 0.79976 0.06443 0.18534 0.0
Sm81 Sm 0.78773 0.97515 0.14501 0.0
C82 C 0.7929 0.12308 0.22955 0.0
C83 C 0.81122 0.12551 0.26585 0.0
C84 C 0.79485 0.15676 0.28386 0.0
C85 C 0.81299 0.15973 0.31828 0.0
C86 C 0.8479 0.1315 0.33522 0.0
C87 C 0.86369 0.09976 0.31703 0.0
C88 C 0.84549 0.09679 0.28269 0.0
C89 C 0.87454 0.05056 0.1589 0.0
C90 C 0.82045 0.96046 0.22562 0.0
C91 C 0.79072 0.91411 0.10124 0.0
C92 C 0.80503 0.91404 0.06866 0.0
C93 C 0.80381 0.95364 0.04621 0.0
C94 C 0.81649 0.95247 1.01506 0.0
C95 C 0.83074 0.91167 1.00578 0.0
C96 C 0.83277 0.87242 0.02873 0.0
C97 C 0.82003 0.87365 0.05982 0.0
C98 C 0.7115 -0.00446 0.16789 0.0
C99 C 0.77681 0.07864 0.10464 0.0
O100 O 0.76145 0.08907 0.22096 0.0
O101 O 0.82393 0.12915 0.21051 0.0
O102 O 0.84873 0.01931 0.17118 0.0
O103 O 0.86575 0.09084 0.16613 0.0
O104 O 0.81405 0.00456 0.22683 0.0
O105 O 0.81567 0.941 0.19696 0.0
O106 O 0.82391 0.92156 0.12741 0.0
O107 O 0.75377 0.9354 0.1013 0.0
O108 O 0.73916 0.02409 0.15549 0.0
O109 O 0.72185 0.95345 0.16672 0.0
O110 O 0.78816 0.03586 0.1051 0.0
O111 O 0.77225 0.09731 0.13211 0.0
H112 H 0.76838 0.17916 0.27124 0.0
H113 H 0.80041 0.18485 0.33145 0.0
H114 H 0.89002 0.07708 0.32938 0.0
H115 H 0.85843 0.07227 0.2692 0.0
H116 H 0.79302 0.98543 0.0527 0.0
H117 H 0.81534 0.98359 0.99832 0.0
H118 H 0.84304 0.84029 1.02234 0.0
H119 H 0.82136 0.84278 0.07684 0.0
Sm120 Sm 0.97709 0.80971 0.59188 0.0
Sm121 Sm 0.06615 0.79386 0.56722 0.0
C122 C 0.90902 0.8116 0.62496 0.0
C123 C 0.9039 0.81305 0.66007 0.0
C124 C 0.93631 0.7948 0.6872 0.0
C125 C 0.93345 0.80118 0.72038 0.0
C126 C 0.89825 0.82614 0.72697 0.0
C127 C 0.8653 0.84332 0.69964 0.0
C128 C 0.86817 0.83687 0.66658 0.0
C129 C 0.01788 0.88608 0.56102 0.0
C130 C 0.07714 0.81172 0.64693 0.0
C131 C 0.14252 0.79891 0.54207 0.0
C132 C 0.14913 0.7997 0.50709 0.0
C133 C 0.1126 0.81091 0.48042 0.0
C134 C 0.11873 0.81461 0.44723 0.0
C135 C 0.16165 0.80705 0.43975 0.0
C136 C 0.19823 0.79528 0.46655 0.0
C137 C 0.19196 0.7916 0.49996 0.0
C138 C 0.01141 0.71516 0.58058 0.0
C139 C 0.96763 0.79839 0.51339 0.0
O140 O 0.92117 0.77326 0.61602 0.0
O141 O 0.9302 0.84859 0.61268 0.0
O142 O 0.03838 0.85604 0.5813 0.0
O143 O 0.97322 0.87719 0.55722 0.0
O144 O 0.03205 0.81664 0.64054 0.0
O145 O 0.09894 0.80182 0.62344 0.0
O146 O 0.12408 0.83496 0.54882 0.0
O147 O 0.12452 0.76016 0.55469 0.0
O148 O 0.02092 0.74952 0.59801 0.0
O149 O 0.03177 0.72133 0.55501 0.0
O150 O 0.01283 0.80986 0.51866 0.0
O151 O 0.94606 0.78704 0.5387 0.0
H152 H 0.96441 0.7766 0.6827 0.0
H153 H 0.95961 0.78782 0.7408 0.0
H154 H 0.83735 0.86204 0.70378 0.0
H155 H 0.84295 0.85141 0.64598 0.0
H156 H 0.07949 0.81794 0.48533 0.0
H157 H 0.09004 0.82474 0.4275 0.0
H158 H 0.23164 0.78892 0.4617 0.0
H159 H 0.22066 0.78302 0.5202 0.0
C160 C 0.89965 0.00276 0.11921 0.0
C161 C 0.89125 0.04597 0.12786 0.0
C162 C 0.9088 -0.00224 0.08751 0.0
C163 C 0.90972 0.03621 0.06379 0.0
C164 C 0.90184 0.07949 0.07288 0.0
C165 C 0.89338 0.08446 0.10467 0.0
C166 C 0.92576 0.03438 0.03173 0.0
C167 C 0.94287 -0.00363 0.02469 0.0
C168 C 0.99397 -0.00508 0.02975 0.0
C169 C 0.01292 0.9531 0.04256 0.0
C170 C 0.06032 0.95216 0.05575 0.0
C171 C 0.08973 -0.007 0.0562 0.0
H172 H 0.01137 0.06799 1.01736 0.0
C173 C 0.0716 0.0343 0.04133 0.0
C174 C 0.02418 0.03524 0.02789 0.0
H175 H 0.09388 0.06603 0.04056 0.0
H176 H 0.89929 0.97292 0.13703 0.0
H177 H 0.91592 0.96387 0.0822 0.0
H178 H 0.90313 0.10987 0.05555 0.0
H179 H 0.88714 0.11839 0.11066 0.0
H180 H 0.93818 0.06757 1.02114 0.0
H181 H 0.92385 0.96342 0.02931 0.0
H182 H 0.99068 0.92149 0.04426 0.0
H183 H 0.07367 0.91964 0.06656 0.0
C184 C 0.08863 0.93967 0.56637 0.0
C185 C 0.04004 0.93303 0.55743 0.0
C186 C 0.10967 0.98147 0.57806 0.0
C187 C 0.08201 0.01656 0.58115 0.0
C188 C 0.0347 0.01311 0.5659 0.0
C189 C 0.01358 0.97118 0.55409 0.0
C190 C 0.09773 0.04944 0.60732 0.0
C191 C 0.12082 0.03492 0.6381 0.0
C192 C 0.11577 0.05772 0.66753 0.0
C193 C 0.15381 0.08203 0.68668 0.0
C194 C 0.14632 0.1132 0.70865 0.0
C195 C 0.10064 0.12038 0.71095 0.0
H196 H 0.04175 0.03923 0.66022 0.0
C197 C 0.06381 0.08991 0.69623 0.0
C198 C 0.07128 0.05908 0.67422 0.0
H199 H 0.02842 0.09419 0.69808 0.0
H200 H 0.10992 0.91106 0.5685 0.0
H201 H 0.1466 0.98414 0.58853 0.0
H202 H 0.01294 0.04038 0.56737 0.0
H203 H 0.97609 0.96716 0.5466 0.0
H204 H 0.08055 0.08136 0.6044 0.0
H205 H 0.13669 0.0023 0.6426 0.0
H206 H 0.1885 0.08026 0.68229 0.0
H207 H 0.17557 0.13563 0.72027 0.0
C208 C 0.63242 0.97335 0.17976 0.0
C209 C 0.66674 0.00783 0.17352 0.0
C210 C 0.58793 0.98499 0.18049 0.0
C211 C 0.57707 0.03139 0.17484 0.0
C212 C 0.61235 0.06601 0.17098 0.0
C213 C 0.65675 0.05435 0.17009 0.0
C214 C 0.52896 0.04449 0.17131 0.0
C215 C 0.49203 0.01707 0.15724 0.0
C216 C 0.44319 0.0291 0.15094 0.0
C217 C 0.40811 -0.007 0.1456 0.0
C218 C 0.36157 0.002 0.13857 0.0
C219 C 0.3489 0.04747 0.13642 0.0
H220 H 0.45657 0.10384 0.15159 0.0
C221 C 0.38371 0.08394 0.14137 0.0
C222 C 0.43061 0.07488 0.14859 0.0
H223 H 0.37472 0.11931 0.13962 0.0
H224 H 0.63946 0.93728 0.18295 0.0
H225 H 0.56197 0.95755 0.1849 0.0
H226 H 0.60502 0.102 0.16707 0.0
H227 H 0.68278 0.08169 0.16552 0.0
H228 H 0.52444 0.07838 0.1785 0.0
H229 H 0.49759 0.9837 0.14958 0.0
H230 H 0.4167 0.95751 0.14693 0.0
H231 H 0.33547 0.97315 0.13468 0.0
C232 C 0.988 0.3941 0.69841 0.0
C233 C 0.00234 0.36022 0.68135 0.0
C234 C 0.97973 0.43796 0.68233 0.0
C235 C 0.98551 0.44827 0.64891 0.0
C236 C -0.00015 0.41423 0.63212 0.0
C237 C 0.00853 0.37089 0.64819 0.0
C238 C 0.97704 0.49369 0.63024 0.0
C239 C 0.98295 0.53384 0.64501 0.0
C240 C 0.98332 0.57978 0.6258 0.0
C241 C 0.97907 0.61906 0.64208 0.0
C242 C 0.98546 0.66329 0.62652 0.0
C243 C 0.99659 0.66904 0.59444 0.0
H244 H -0.00268 0.5569 0.57962 0.0
C245 C -0.00136 0.62992 0.57743 0.0
C246 C 0.9924 0.58576 0.59296 0.0
H247 H 0.00739 0.6334 0.55275 0.0
H248 H 0.98261 0.38652 0.7239 0.0
H249 H 0.96785 0.46312 0.69584 0.0
H250 H 0.00461 0.42124 0.60642 0.0
H251 H 0.01927 0.34541 0.63428 0.0
H252 H 0.96892 0.49386 0.60302 0.0
H253 H 0.99054 0.5335 0.67228 0.0
H254 H 0.9723 0.6156 0.66736 0.0
H255 H 0.98369 0.69297 0.64023 0.0
C256 C 0.17716 0.25363 0.49105 0.0
C257 C 0.14093 0.23726 0.5077 0.0
C258 C 0.17726 0.2405 0.45877 0.0
C259 C 0.14073 0.21083 0.44205 0.0
C260 C 0.10436 0.19494 0.45873 0.0
C261 C 0.10444 0.20785 0.49102 0.0
C262 C 0.13902 0.19473 0.40777 0.0
C263 C 0.16976 0.2093 0.38783 0.0
C264 C 0.16794 0.19301 0.35364 0.0
C265 C 0.19588 0.2178 0.33292 0.0
C266 C 0.19622 0.20394 0.30096 0.0
C267 C 0.16865 0.16467 0.28867 0.0
H268 H 0.11938 0.13224 0.3566 0.0
C269 C 0.14079 0.13959 0.30937 0.0
C270 C 0.14055 0.15336 0.34146 0.0
H271 H 0.11967 0.10873 0.301 0.0
H272 H 0.20613 0.27584 0.5033 0.0
H273 H 0.20647 0.25345 0.44757 0.0
H274 H 0.07561 0.17219 0.44677 0.0
H275 H 0.07562 0.19497 0.50285 0.0
H276 H 0.11023 0.17014 0.39855 0.0
H277 H 0.19739 0.23542 0.39621 0.0
H278 H 0.21751 0.24834 0.34141 0.0
H279 H 0.21769 0.22452 0.28567 0.0
C280 C 0.85747 0.19233 0.88083 0.0
C281 C 0.86464 0.15505 0.86345 0.0
C282 C 0.84234 0.18455 0.91145 0.0
C283 C 0.83448 0.13916 0.92543 0.0
C284 C 0.84235 0.10215 0.90813 0.0
C285 C 0.85716 0.10992 0.87761 0.0
C286 C 0.81742 0.12787 0.95742 0.0
C287 C 0.80914 0.1586 0.97791 0.0
C288 C 0.79255 0.14295 1.00952 0.0
C289 C 0.80774 0.16774 0.03839 0.0
C290 C 0.79836 0.14931 0.06958 0.0
C291 C 0.77371 0.10589 0.07209 0.0
H292 H 0.74929 0.08308 0.98971 0.0
C293 C 0.75468 0.08355 0.04266 0.0
C294 C 0.76359 0.10201 1.01169 0.0
H295 H 0.73509 0.05022 0.04391 0.0
H296 H 0.86271 0.22752 0.87044 0.0
H297 H 0.8366 0.21419 0.92365 0.0
H298 H 0.83686 0.06679 0.91819 0.0
H299 H 0.86313 0.08042 0.86522 0.0
H300 H 0.81218 0.09129 0.96484 0.0
H301 H 0.8171 0.19531 0.97288 0.0
H302 H 0.82943 0.19979 0.03728 0.0
H303 H 0.81371 0.167 0.09199 0.0
C304 C 0.96317 0.8093 0.45127 0.0
C305 C 0.94049 0.80526 0.47861 0.0
C306 C 0.94008 0.82378 0.41901 0.0
C307 C 0.89352 0.83449 0.41326 0.0
C308 C 0.87025 0.82844 0.44031 0.0
C309 C 0.89334 0.81363 0.47262 0.0
C310 C 0.87006 0.85649 0.38046 0.0
C311 C 0.88294 0.85271 0.35103 0.0
C312 C 0.86371 0.87962 0.31918 0.0
C313 C 0.86463 0.8623 0.28831 0.0
C314 C 0.8498 0.88809 0.25793 0.0
C315 C 0.83445 0.93226 0.25774 0.0
H316 H 0.84797 0.9388 0.34229 0.0
C317 C 0.83351 0.94962 0.28866 0.0
C318 C 0.84791 0.92362 0.31902 0.0
H319 H 0.82204 0.98356 0.28952 0.0
H320 H -0.00056 0.80298 0.45498 0.0
H321 H 0.95975 0.82884 0.39919 0.0
H322 H 0.83447 0.83662 0.43667 0.0
H323 H 0.87494 0.81116 0.49316 0.0
H324 H 0.8414 0.87697 0.3808 0.0
H325 H 0.9084 0.82878 0.34991 0.0
H326 H 0.87715 0.82877 0.2877 0.0
H327 H 0.85122 0.87369 0.23463 0.0
C328 C 0.07891 0.82481 0.70705 0.0
C329 C 0.10329 0.81901 0.68171 0.0
C330 C 0.10243 0.83397 0.7395 0.0
C331 C 0.15126 0.83833 0.74761 0.0
C332 C 0.17578 0.83115 0.72264 0.0
C333 C 0.15209 0.82173 0.68998 0.0
C334 C 0.17713 0.84924 0.78201 0.0
C335 C 0.15904 0.87291 0.80256 0.0
C336 C 0.18172 0.8836 0.83771 0.0
C337 C 0.15971 0.91243 0.85417 0.0
C338 C 0.17769 0.9222 0.88753 0.0
C339 C 0.21848 0.90349 0.90559 0.0
H340 H 0.24078 0.84212 0.84431 0.0
C341 C 0.24089 0.87483 0.88915 0.0
C342 C 0.22276 0.86491 0.85563 0.0
H343 H 0.27255 0.86005 0.90217 0.0
H344 H 0.04134 0.82242 0.70193 0.0
H345 H 0.08195 0.83712 0.75818 0.0
H346 H 0.21339 0.8336 0.72824 0.0
H347 H 0.17201 0.81731 0.67117 0.0
H348 H 0.21215 0.83865 0.78981 0.0
H349 H 0.12535 0.88616 0.79301 0.0
H350 H 0.1279 0.92713 0.8413 0.0
H351 H 0.15879 0.9436 0.8994 0.0
C352 C 0.87858 0.88453 0.9679 0.0
C353 C 0.84182 0.90933 0.97192 0.0
C354 C 0.88687 0.87967 0.93582 0.0
C355 C 0.85836 0.89937 0.90688 0.0
C356 C 0.82281 0.92558 0.91107 0.0
C357 C 0.81451 0.9304 0.9431 0.0
C358 C 0.86447 0.89385 0.872 0.0
C359 C 0.88652 0.85952 0.86363 0.0
C360 C 0.8901 0.85242 0.8284 0.0
C361 C 0.90117 0.80912 0.82118 0.0
C362 C 0.90418 0.80058 0.78846 0.0
C363 C 0.89624 0.83523 0.76205 0.0
H364 H 0.87649 0.92188 0.80648 0.0
C365 C 0.88616 0.87887 0.76936 0.0
C366 C 0.88336 0.88749 0.80208 0.0
H367 H 0.881 0.90671 0.7498 0.0
H368 H 0.90107 0.86887 0.98962 0.0
H369 H 0.9158 0.86073 0.934 0.0
H370 H 0.80057 0.94162 0.88937 0.0
H371 H 0.78575 0.94955 0.94514 0.0
H372 H 0.84732 0.91754 0.85229 0.0
H373 H 0.90041 0.83367 0.88302 0.0
H374 H 0.90695 0.78148 0.84087 0.0
H375 H 0.91187 0.76654 0.78373 0.0
C376 C 0.17475 0.93619 0.2055 0.0
C377 C 0.21055 0.93189 0.18833 0.0
C378 C 0.17447 0.91289 0.23696 0.0
C379 C 0.21011 0.88459 0.2522 0.0
C380 C 0.24561 0.87971 0.23486 0.0
C381 C 0.24561 0.90274 0.20305 0.0
C382 C 0.21264 0.86299 0.28709 0.0
C383 C 0.17446 0.85061 0.30013 0.0
C384 C 0.17515 0.83454 0.33601 0.0
C385 C 0.13506 0.81044 0.34426 0.0
C386 C 0.13163 0.79966 0.37782 0.0
C387 C 0.16804 0.81329 0.40417 0.0
H388 H 0.24365 0.86598 0.35706 0.0
C389 C 0.20898 0.83591 0.39598 0.0
C390 C 0.21253 0.84649 0.36227 0.0
H391 H 0.23749 0.84745 0.41557 0.0
H392 H 0.1473 0.95853 0.19497 0.0
H393 H 0.14722 0.91872 0.24981 0.0
H394 H 0.27373 0.8585 0.24614 0.0
H395 H 0.27394 0.89908 0.19063 0.0
H396 H 0.24677 0.85722 0.3022 0.0
H397 H 0.1405 0.85247 0.28371 0.0
H398 H 0.10571 0.80079 0.32463 0.0
H399 H 0.0999 0.78144 0.3831 0.0
C400 C 0.16361 0.25508 0.80776 0.0
C401 C 0.11794 0.26814 0.79825 0.0
C402 C 0.18348 0.24579 0.84189 0.0
C403 C 0.15801 0.24993 0.86697 0.0
C404 C 0.11395 0.2669 0.85735 0.0
C405 C 0.09382 0.27516 0.82336 0.0
C406 C 0.17436 0.23418 0.90301 0.0
C407 C 0.19941 0.19717 0.91289 0.0
C408 C 0.20809 0.17407 0.94781 0.0
C409 C 0.23653 0.13698 0.95481 0.0
C410 C 0.24204 0.11107 0.9859 0.0
C411 C 0.21902 0.12142 1.01087 0.0
H412 H 0.16383 0.21318 0.96957 0.0
C413 C 0.19185 0.15945 1.00442 0.0
C414 C 0.18637 0.1854 0.97338 0.0
H415 H 0.17361 0.16855 1.02304 0.0
H416 H 0.18253 0.24858 0.7888 0.0
H417 H 0.21802 0.23392 0.84846 0.0
H418 H 0.09367 0.27078 0.87607 0.0
H419 H 0.05826 0.28446 0.8166 0.0
H420 H 0.16075 0.25071 0.92121 0.0
H421 H 0.21167 0.18067 0.89392 0.0
H422 H 0.25378 0.1272 0.93582 0.0
H423 H 0.26352 0.08227 0.98999 0.0
C424 C 0.84053 0.14146 0.39455 0.0
C425 C 0.86857 0.13589 0.37148 0.0
C426 C 0.86024 0.14672 0.42849 0.0
C427 C 0.90861 0.14645 0.44015 0.0
C428 C 0.93653 0.14096 0.41703 0.0
C429 C 0.9168 0.13551 0.38318 0.0
C430 C 0.93166 0.15428 0.4756 0.0
C431 C 0.90997 0.14756 0.50191 0.0
C432 C 0.93299 0.15815 0.53688 0.0
C433 C 0.90539 0.16717 0.55939 0.0
C434 C 0.92576 0.17977 0.59186 0.0
C435 C 0.97426 0.18351 0.60251 0.0
H436 H 0.00406 0.1509 0.53239 0.0
C437 C 0.00178 0.17239 0.58057 0.0
C438 C 0.98148 0.15965 0.54821 0.0
H439 H 0.03915 0.17353 0.58835 0.0
H440 H 0.80323 0.14173 0.38637 0.0
H441 H 0.83745 0.15212 0.44511 0.0
H442 H 0.97389 0.14113 0.42515 0.0
H443 H 0.93951 0.13203 0.36601 0.0
H444 H 0.96814 0.16658 0.47979 0.0
H445 H 0.87346 0.13545 0.49779 0.0
H446 H 0.86793 0.16565 0.55156 0.0
H447 H 0.90355 0.18782 0.60824 0.0
loop_
_geom_bond_atom_site_label_1
_geom_bond_atom_site_label_2
_geom_bond_distance
_geom_bond_site_symmetry_2
_ccdc_geom_bond_type
Sm0 C2 2.846 . S
Sm0 O20 2.543 . S
Sm0 O21 2.450 . S
Sm0 O22 2.681 . S
Sm0 O23 2.464 . S
Sm0 O24 2.396 . S
Sm0 O28 2.386 . S
Sm0 O31 2.408 . S
Sm1 C11 2.846 1_544 S
Sm1 O22 2.386 . S
Sm1 O25 2.408 1_545 S
Sm1 O26 2.542 . S
Sm1 O27 2.450 1_545 S
Sm1 O28 2.681 . S
Sm1 O29 2.464 . S
Sm1 O30 2.396 . S
C2 Sm0 2.846 . S
C2 C3 1.506 . S
C2 O20 1.261 . S
C2 O21 1.242 . S
C3 C2 1.506 . S
C3 C4 1.358 . S
C3 C8 1.382 . S
C4 C3 1.358 . S
C4 C5 1.385 . S
C4 H32 0.930 . S
C5 C4 1.385 . S
C5 C6 1.395 . S
C5 H33 0.929 . S
C6 C5 1.395 . S
C6 C7 1.335 . S
C7 C6 1.335 . S
C7 C8 1.398 . S
C7 H34 0.930 . S
C8 C3 1.382 . S
C8 C7 1.398 . S
C8 H35 0.929 . S
C9 O22 1.271 . S
C9 O23 1.251 . S
C10 O24 1.252 . S
C10 O25 1.272 1_545 S
C11 Sm1 2.846 1_566 S
C11 C12 1.506 . S
C11 O26 1.262 1_566 S
C11 O27 1.242 1_556 S
C12 C11 1.506 . S
C12 C13 1.358 . S
C12 C17 1.382 . S
C13 C12 1.358 . S
C13 C14 1.385 . S
C13 H36 0.930 . S
C14 C13 1.385 . S
C14 C15 1.395 . S
C14 H37 0.929 . S
C15 C14 1.395 . S
C15 C16 1.335 . S
C16 C15 1.335 . S
C16 C17 1.398 . S
C16 H38 0.930 . S
C17 C12 1.382 . S
C17 C16 1.398 . S
C17 H39 0.929 . S
C18 O28 1.271 . S
C18 O29 1.251 . S
C19 O30 1.252 . S
C19 O31 1.272 . S
O20 Sm0 2.543 . S
O20 C2 1.261 . S
O21 Sm0 2.450 . S
O21 C2 1.242 . S
O22 Sm0 2.681 . S
O22 Sm1 2.386 . S
O22 C9 1.271 . S
O23 Sm0 2.464 . S
O23 C9 1.251 . S
O24 Sm0 2.396 . S
O24 C10 1.252 . S
O25 Sm1 2.408 1_565 S
O25 C10 1.272 1_565 S
O26 Sm1 2.542 . S
O26 C11 1.262 1_544 S
O27 Sm1 2.450 1_565 S
O27 C11 1.242 1_554 S
O28 Sm0 2.386 . S
O28 Sm1 2.681 . S
O28 C18 1.271 . S
O29 Sm1 2.464 . S
O29 C18 1.251 . S
O30 Sm1 2.396 . S
O30 C19 1.252 . S
O31 Sm0 2.408 . S
O31 C19 1.272 . S
H32 C4 0.930 . S
H33 C5 0.929 . S
H34 C7 0.930 . S
H35 C8 0.929 . S
H36 C13 0.930 . S
H37 C14 0.929 . S
H38 C16 0.930 . S
H39 C17 0.929 . S
Sm40 C42 2.846 . S
Sm40 O60 2.543 . S
Sm40 O61 2.450 . S
Sm40 O62 2.681 1_655 S
Sm40 O63 2.464 . S
Sm40 O64 2.396 1_655 S
Sm40 O68 2.386 1_655 S
Sm40 O71 2.408 . S
Sm41 C51 2.846 . S
Sm41 O62 2.386 . S
Sm41 O65 2.408 . S
Sm41 O66 2.543 . S
Sm41 O67 2.450 . S
Sm41 O68 2.681 . S
Sm41 O69 2.464 . S
Sm41 O70 2.396 . S
C42 Sm40 2.846 . S
C42 C43 1.506 . S
C42 O60 1.261 . S
C42 O61 1.242 . S
C43 C42 1.506 . S
C43 C44 1.358 . S
C43 C48 1.382 . S
C44 C43 1.358 . S
C44 C45 1.385 . S
C44 H72 0.930 . S
C45 C44 1.385 . S
C45 C46 1.395 . S
C45 H73 0.929 . S
C46 C45 1.395 . S
C46 C47 1.335 . S
C47 C46 1.335 . S
C47 C48 1.398 . S
C47 H74 0.930 . S
C48 C43 1.382 . S
C48 C47 1.398 . S
C48 H75 0.929 . S
C49 O62 1.271 . S
C49 O63 1.251 1_455 S
C50 O64 1.252 . S
C50 O65 1.272 . S
C51 Sm41 2.846 . S
C51 C52 1.506 . S
C51 O66 1.261 . S
C51 O67 1.242 . S
C52 C51 1.506 . S
C52 C53 1.358 . S
C52 C57 1.382 . S
C53 C52 1.358 . S
C53 C54 1.385 . S
C53 H76 0.930 . S
C54 C53 1.385 . S
C54 C55 1.395 . S
C54 H77 0.929 . S
C55 C54 1.395 . S
C55 C56 1.335 . S
C56 C55 1.335 . S
C56 C57 1.398 . S
C56 H78 0.930 . S
C57 C52 1.382 . S
C57 C56 1.398 . S
C57 H79 0.929 . S
C58 O68 1.271 . S
C58 O69 1.251 . S
C59 O70 1.252 1_655 S
C59 O71 1.272 . S
O60 Sm40 2.543 . S
O60 C42 1.261 . S
O61 Sm40 2.450 . S
O61 C42 1.242 . S
O62 Sm40 2.681 1_455 S
O62 Sm41 2.386 . S
O62 C49 1.271 . S
O63 Sm40 2.464 . S
O63 C49 1.251 1_655 S
O64 Sm40 2.396 1_455 S
O64 C50 1.252 . S
O65 Sm41 2.408 . S
O65 C50 1.272 . S
O66 Sm41 2.543 . S
O66 C51 1.261 . S
O67 Sm41 2.450 . S
O67 C51 1.242 . S
O68 Sm40 2.386 1_455 S
O68 Sm41 2.681 . S
O68 C58 1.271 . S
O69 Sm41 2.464 . S
O69 C58 1.251 . S
O70 Sm41 2.396 . S
O70 C59 1.252 1_455 S
O71 Sm40 2.408 . S
O71 C59 1.272 . S
H72 C44 0.930 . S
H73 C45 0.929 . S
H74 C47 0.930 . S
H75 C48 0.929 . S
H76 C53 0.930 . S
H77 C54 0.929 . S
H78 C56 0.930 . S
H79 C57 0.929 . S
Sm80 C82 2.846 . S
Sm80 O100 2.543 . S
Sm80 O101 2.450 . S
Sm80 O102 2.681 1_545 S
Sm80 O103 2.464 . S
Sm80 O104 2.396 1_545 S
Sm80 O108 2.386 . S
Sm80 O111 2.408 . S
Sm81 C91 2.846 . S
Sm81 O102 2.386 . S
Sm81 O105 2.408 . S
Sm81 O106 2.543 . S
Sm81 O107 2.450 . S
Sm81 O108 2.681 1_565 S
Sm81 O109 2.464 . S
Sm81 O110 2.396 1_565 S
C82 Sm80 2.846 . S
C82 C83 1.506 . S
C82 O100 1.261 . S
C82 O101 1.242 . S
C83 C82 1.506 . S
C83 C84 1.358 . S
C83 C88 1.382 . S
C84 C83 1.358 . S
C84 C85 1.385 . S
C84 H112 0.930 . S
C85 C84 1.385 . S
C85 C86 1.395 . S
C85 H113 0.929 . S
C86 C85 1.395 . S
C86 C87 1.335 . S
C87 C86 1.335 . S
C87 C88 1.398 . S
C87 H114 0.930 . S
C88 C83 1.382 . S
C88 C87 1.398 . S
C88 H115 0.929 . S
C89 O102 1.271 1_545 S
C89 O103 1.251 . S
C90 O104 1.252 . S
C90 O105 1.272 . S
C91 Sm81 2.846 . S
C91 C92 1.506 . S
C91 O106 1.261 . S
C91 O107 1.242 . S
C92 C91 1.506 . S
C92 C93 1.358 . S
C92 C97 1.382 . S
C93 C92 1.358 . S
C93 C94 1.385 1_554 S
C93 H116 0.930 . S
C94 C93 1.385 1_556 S
C94 C95 1.395 . S
C94 H117 0.929 . S
C95 C94 1.395 . S
C95 C96 1.335 . S
C96 C95 1.335 . S
C96 C97 1.398 1_556 S
C96 H118 0.930 . S
C97 C92 1.382 . S
C97 C96 1.398 1_554 S
C97 H119 0.929 . S
C98 O108 1.271 1_565 S
C98 O109 1.251 . S
C99 O110 1.252 . S
C99 O111 1.272 . S
O100 Sm80 2.543 . S
O100 C82 1.261 . S
O101 Sm80 2.450 . S
O101 C82 1.242 . S
O102 Sm80 2.681 1_565 S
O102 Sm81 2.386 . S
O102 C89 1.271 1_565 S
O103 Sm80 2.464 . S
O103 C89 1.251 . S
O104 Sm80 2.396 1_565 S
O104 C90 1.252 . S
O105 Sm81 2.408 . S
O105 C90 1.272 . S
O106 Sm81 2.543 . S
O106 C91 1.261 . S
O107 Sm81 2.450 . S
O107 C91 1.242 . S
O108 Sm80 2.386 . S
O108 Sm81 2.681 1_545 S
O108 C98 1.271 1_545 S
O109 Sm81 2.464 . S
O109 C98 1.251 . S
O110 Sm81 2.396 1_545 S
O110 C99 1.252 . S
O111 Sm80 2.408 . S
O111 C99 1.272 . S
H112 C84 0.930 . S
H113 C85 0.929 . S
H114 C87 0.930 . S
H115 C88 0.929 . S
H116 C93 0.930 . S
H117 C94 0.929 . S
H118 C96 0.930 . S
H119 C97 0.929 . S
Sm120 C122 2.846 . S
Sm120 O140 2.543 . S
Sm120 O141 2.450 . S
Sm120 O142 2.681 1_655 S
Sm120 O143 2.464 . S
Sm120 O144 2.396 1_655 S
Sm120 O148 2.386 1_655 S
Sm120 O151 2.408 . S
Sm121 C131 2.846 . S
Sm121 O142 2.386 . S
Sm121 O145 2.408 . S
Sm121 O146 2.543 . S
Sm121 O147 2.450 . S
Sm121 O148 2.681 . S
Sm121 O149 2.464 . S
Sm121 O150 2.396 . S
C122 Sm120 2.846 . S
C122 C123 1.506 . S
C122 O140 1.261 . S
C122 O141 1.242 . S
C123 C122 1.506 . S
C123 C124 1.358 . S
C123 C128 1.382 . S
C124 C123 1.358 . S
C124 C125 1.385 . S
C124 H152 0.930 . S
C125 C124 1.385 . S
C125 C126 1.395 . S
C125 H153 0.929 . S
C126 C125 1.395 . S
C126 C127 1.335 . S
C127 C126 1.335 . S
C127 C128 1.398 . S
C127 H154 0.930 . S
C128 C123 1.382 . S
C128 C127 1.398 . S
C128 H155 0.929 . S
C129 O142 1.271 . S
C129 O143 1.251 1_455 S
C130 O144 1.252 . S
C130 O145 1.272 . S
C131 Sm121 2.846 . S
C131 C132 1.506 . S
C131 O146 1.261 . S
C131 O147 1.242 . S
C132 C131 1.506 . S
C132 C133 1.358 . S
C132 C137 1.382 . S
C133 C132 1.358 . S
C133 C134 1.385 . S
C133 H156 0.930 . S
C134 C133 1.385 . S
C134 C135 1.395 . S
C134 H157 0.929 . S
C135 C134 1.395 . S
C135 C136 1.335 . S
C136 C135 1.335 . S
C136 C137 1.398 . S
C136 H158 0.930 . S
C137 C132 1.382 . S
C137 C136 1.398 . S
C137 H159 0.929 . S
C138 O148 1.271 . S
C138 O149 1.251 . S
C139 O150 1.252 1_655 S
C139 O151 1.272 . S
O140 Sm120 2.543 . S
O140 C122 1.261 . S
O141 Sm120 2.450 . S
O141 C122 1.242 . S
O142 Sm120 2.681 1_455 S
O142 Sm121 2.386 . S
O142 C129 1.271 . S
O143 Sm120 2.464 . S
O143 C129 1.251 1_655 S
O144 Sm120 2.396 1_455 S
O144 C130 1.252 . S
O145 Sm121 2.408 . S
O145 C130 1.272 . S
O146 Sm121 2.543 . S
O146 C131 1.261 . S
O147 Sm121 2.450 . S
O147 C131 1.242 . S
O148 Sm120 2.386 1_455 S
O148 Sm121 2.681 . S
O148 C138 1.271 . S
O149 Sm121 2.464 . S
O149 C138 1.251 . S
O150 Sm121 2.396 . S
O150 C139 1.252 1_455 S
O151 Sm120 2.408 . S
O151 C139 1.272 . S
H152 C124 0.930 . S
H153 C125 0.929 . S
H154 C127 0.930 . S
H155 C128 0.929 . S
H156 C133 0.930 . S
H157 C134 0.929 . S
H158 C136 0.930 . S
H159 C137 0.929 . S
C160 C161 1.386 . S
C160 C162 1.383 . S
C160 H176 0.951 . S
C161 C160 1.386 . S
C161 C165 1.383 1_565 S
C162 C160 1.383 . S
C162 C163 1.402 1_565 S
C162 H177 0.951 . S
C163 C162 1.402 1_545 S
C163 C164 1.375 . S
C163 C166 1.481 . S
C164 C163 1.375 . S
C164 C165 1.367 . S
C164 H178 0.951 . S
C165 C161 1.383 1_545 S
C165 C164 1.367 . S
C165 H179 0.950 . S
C166 C163 1.481 . S
C166 C167 1.297 1_655 S
C166 H180 0.950 . S
C167 C166 1.297 1_455 S
C167 C168 1.479 . S
C167 H181 0.950 1_545 S
C168 C167 1.479 . S
C168 C169 1.375 . S
C168 C174 1.404 . S
C169 C168 1.375 . S
C169 C170 1.369 . S
C169 H182 0.950 1_545 S
C170 C169 1.369 . S
C170 C171 1.392 . S
C170 H183 0.951 . S
C171 C170 1.392 . S
C171 C173 1.384 . S
H172 C174 0.949 . S
C173 C171 1.384 . S
C173 C174 1.385 . S
C173 H175 0.950 . S
C174 C168 1.404 . S
C174 H172 0.949 . S
C174 C173 1.385 . S
H175 C173 0.950 . S
H176 C160 0.951 . S
H177 C162 0.951 . S
H178 C164 0.951 . S
H179 C165 0.950 . S
H180 C166 0.950 . S
H181 C167 0.950 1_565 S
H182 C169 0.950 1_565 S
H183 C170 0.951 . S
C184 C185 1.386 . S
C184 C186 1.383 . S
C184 H200 0.951 . S
C185 C184 1.386 . S
C185 C189 1.383 1_455 S
C186 C184 1.383 . S
C186 C187 1.402 . S
C186 H201 0.951 . S
C187 C186 1.402 . S
C187 C188 1.375 1_455 S
C187 C190 1.481 1_565 S
C188 C187 1.375 1_655 S
C188 C189 1.367 . S
C188 H202 0.951 . S
C189 C185 1.383 1_655 S
C189 C188 1.367 . S
C189 H203 0.950 . S
C190 C187 1.481 1_545 S
C190 C191 1.297 . S
C190 H204 0.950 1_455 S
C191 C190 1.297 . S
C191 C192 1.479 . S
C191 H205 0.950 . S
C192 C191 1.479 . S
C192 C193 1.375 . S
C192 C198 1.404 . S
C193 C192 1.375 . S
C193 C194 1.369 . S
C193 H206 0.950 . S
C194 C193 1.369 . S
C194 C195 1.392 . S
C194 H207 0.951 . S
C195 C194 1.392 . S
C195 C197 1.389 . S
H196 C198 0.949 1_655 S
C197 C195 1.389 . S
C197 C198 1.388 . S
C197 H199 0.943 1_455 S
C198 C192 1.404 . S
C198 H196 0.949 1_455 S
C198 C197 1.388 . S
H199 C197 0.943 1_655 S
H200 C184 0.951 . S
H201 C186 0.951 . S
H202 C188 0.951 . S
H203 C189 0.950 . S
H204 C190 0.950 1_655 S
H205 C191 0.950 . S
H206 C193 0.950 . S
H207 C194 0.951 . S
C208 C209 1.387 1_565 S
C208 C210 1.383 . S
C208 H224 0.951 . S
C209 C208 1.387 1_545 S
C209 C213 1.381 . S
C210 C208 1.383 . S
C210 C211 1.402 1_565 S
C210 H225 0.951 . S
C211 C210 1.402 1_545 S
C211 C212 1.375 . S
C211 C214 1.481 . S
C212 C211 1.375 . S
C212 C213 1.367 . S
C212 H226 0.951 . S
C213 C209 1.381 . S
C213 C212 1.367 . S
C213 H227 0.950 . S
C214 C211 1.481 . S
C214 C215 1.297 . S
C214 H228 0.950 . S
C215 C214 1.297 . S
C215 C216 1.479 . S
C215 H229 0.950 1_545 S
C216 C215 1.479 . S
C216 C217 1.375 . S
C216 C222 1.404 . S
C217 C216 1.375 . S
C217 C218 1.369 . S
C217 H230 0.950 1_545 S
C218 C217 1.369 . S
C218 C219 1.392 . S
C218 H231 0.951 . S
C219 C218 1.392 . S
C219 C221 1.384 . S
H220 C222 0.949 . S
C221 C219 1.384 . S
C221 C222 1.385 . S
C221 H223 0.950 . S
C222 C216 1.404 . S
C222 H220 0.949 . S
C222 C221 1.385 . S
H223 C221 0.950 . S
H224 C208 0.951 . S
H225 C210 0.951 . S
H226 C212 0.951 . S
H227 C213 0.950 . S
H228 C214 0.950 . S
H229 C215 0.950 1_565 S
H230 C217 0.950 1_565 S
H231 C218 0.951 . S
C232 C233 1.386 . S
C232 C234 1.383 . S
C232 H248 0.951 . S
C233 C232 1.386 . S
C233 C237 1.383 1_455 S
C234 C232 1.383 . S
C234 C235 1.402 . S
C234 H249 0.951 . S
C235 C234 1.402 . S
C235 C236 1.375 1_455 S
C235 C238 1.481 . S
C236 C235 1.375 1_655 S
C236 C237 1.367 . S
C236 H250 0.951 . S
C237 C233 1.383 1_655 S
C237 C236 1.367 . S
C237 H251 0.950 . S
C238 C235 1.481 . S
C238 C239 1.297 . S
C238 H252 0.950 1_455 S
C239 C238 1.297 . S
C239 C240 1.479 . S
C239 H253 0.950 . S
C240 C239 1.479 . S
C240 C241 1.375 . S
C240 C246 1.404 1_455 S
C241 C240 1.375 . S
C241 C242 1.369 . S
C241 H254 0.950 . S
C242 C241 1.369 . S
C242 C243 1.392 . S
C242 H255 0.951 . S
C243 C242 1.392 . S
C243 C245 1.384 1_455 S
H244 C246 0.949 . S
C245 C243 1.384 1_655 S
C245 C246 1.385 . S
C245 H247 0.950 . S
C246 C240 1.404 1_655 S
C246 H244 0.949 . S
C246 C245 1.385 . S
H247 C245 0.950 . S
H248 C232 0.951 . S
H249 C234 0.951 . S
H250 C236 0.951 . S
H251 C237 0.950 . S
H252 C238 0.950 1_655 S
H253 C239 0.950 . S
H254 C241 0.950 . S
H255 C242 0.951 . S
C256 C257 1.386 . S
C256 C258 1.383 . S
C256 H272 0.951 . S
C257 C256 1.386 . S
C257 C261 1.383 . S
C258 C256 1.383 . S
C258 C259 1.402 . S
C258 H273 0.951 . S
C259 C258 1.402 . S
C259 C260 1.375 . S
C259 C262 1.481 . S
C260 C259 1.375 . S
C260 C261 1.367 . S
C260 H274 0.951 . S
C261 C257 1.383 . S
C261 C260 1.367 . S
C261 H275 0.950 . S
C262 C259 1.481 . S
C262 C263 1.297 . S
C262 H276 0.950 . S
C263 C262 1.297 . S
C263 C264 1.479 . S
C263 H277 0.950 . S
C264 C263 1.479 . S
C264 C265 1.375 . S
C264 C270 1.404 . S
C265 C264 1.375 . S
C265 C266 1.369 . S
C265 H278 0.950 . S
C266 C265 1.369 . S
C266 C267 1.392 . S
C266 H279 0.951 . S
C267 C266 1.392 . S
C267 C269 1.384 . S
H268 C270 0.949 . S
C269 C267 1.384 . S
C269 C270 1.385 . S
C269 H271 0.950 . S
C270 C264 1.404 . S
C270 H268 0.949 . S
C270 C269 1.385 . S
H271 C269 0.950 . S
H272 C256 0.951 . S
H273 C258 0.951 . S
H274 C260 0.951 . S
H275 C261 0.950 . S
H276 C262 0.950 . S
H277 C263 0.950 . S
H278 C265 0.950 . S
H279 C266 0.951 . S
C280 C281 1.386 . S
C280 C282 1.383 . S
C280 H296 0.951 . S
C281 C280 1.386 . S
C281 C285 1.383 . S
C282 C280 1.383 . S
C282 C283 1.402 . S
C282 H297 0.951 . S
C283 C282 1.402 . S
C283 C284 1.375 . S
C283 C286 1.481 . S
C284 C283 1.375 . S
C284 C285 1.367 . S
C284 H298 0.951 . S
C285 C281 1.383 . S
C285 C284 1.367 . S
C285 H299 0.950 . S
C286 C283 1.481 . S
C286 C287 1.297 . S
C286 H300 0.950 . S
C287 C286 1.297 . S
C287 C288 1.479 . S
C287 H301 0.950 . S
C288 C287 1.479 . S
C288 C289 1.375 . S
C288 C294 1.404 . S
C289 C288 1.375 . S
C289 C290 1.369 1_556 S
C289 H302 0.950 . S
C290 C289 1.369 1_554 S
C290 C291 1.392 . S
C290 H303 0.951 . S
C291 C290 1.392 . S
C291 C293 1.384 . S
H292 C294 0.949 . S
C293 C291 1.384 . S
C293 C294 1.385 1_554 S
C293 H295 0.950 . S
C294 C288 1.404 . S
C294 H292 0.949 . S
C294 C293 1.385 1_556 S
H295 C293 0.950 . S
H296 C280 0.951 . S
H297 C282 0.951 . S
H298 C284 0.951 . S
H299 C285 0.950 . S
H300 C286 0.950 . S
H301 C287 0.950 . S
H302 C289 0.950 . S
H303 C290 0.951 . S
C304 C305 1.386 . S
C304 C306 1.383 . S
C304 H320 0.951 . S
C305 C304 1.386 . S
C305 C309 1.383 . S
C306 C304 1.383 . S
C306 C307 1.402 . S
C306 H321 0.951 . S
C307 C306 1.402 . S
C307 C308 1.375 . S
C307 C310 1.481 . S
C308 C307 1.375 . S
C308 C309 1.367 . S
C308 H322 0.951 . S
C309 C305 1.383 . S
C309 C308 1.367 . S
C309 H323 0.950 . S
C310 C307 1.481 . S
C310 C311 1.297 . S
C310 H324 0.950 . S
C311 C310 1.297 . S
C311 C312 1.479 . S
C311 H325 0.950 . S
C312 C311 1.479 . S
C312 C313 1.375 . S
C312 C318 1.404 . S
C313 C312 1.375 . S
C313 C314 1.369 . S
C313 H326 0.950 . S
C314 C313 1.369 . S
C314 C315 1.392 . S
C314 H327 0.951 . S
C315 C314 1.392 . S
C315 C317 1.384 . S
H316 C318 0.949 . S
C317 C315 1.384 . S
C317 C318 1.385 . S
C317 H319 0.950 . S
C318 C312 1.404 . S
C318 H316 0.949 . S
C318 C317 1.385 . S
H319 C317 0.950 . S
H320 C304 0.951 . S
H321 C306 0.951 . S
H322 C308 0.951 . S
H323 C309 0.950 . S
H324 C310 0.950 . S
H325 C311 0.950 . S
H326 C313 0.950 . S
H327 C314 0.951 . S
C328 C329 1.386 . S
C328 C330 1.383 . S
C328 H344 0.951 . S
C329 C328 1.386 . S
C329 C333 1.383 . S
C330 C328 1.383 . S
C330 C331 1.402 . S
C330 H345 0.951 . S
C331 C330 1.402 . S
C331 C332 1.375 . S
C331 C334 1.481 . S
C332 C331 1.375 . S
C332 C333 1.367 . S
C332 H346 0.951 . S
C333 C329 1.383 . S
C333 C332 1.367 . S
C333 H347 0.950 . S
C334 C331 1.481 . S
C334 C335 1.297 . S
C334 H348 0.950 . S
C335 C334 1.297 . S
C335 C336 1.479 . S
C335 H349 0.950 . S
C336 C335 1.479 . S
C336 C337 1.375 . S
C336 C342 1.404 . S
C337 C336 1.375 . S
C337 C338 1.369 . S
C337 H350 0.950 . S
C338 C337 1.369 . S
C338 C339 1.392 . S
C338 H351 0.951 . S
C339 C338 1.392 . S
C339 C341 1.384 . S
H340 C342 0.949 . S
C341 C339 1.384 . S
C341 C342 1.385 . S
C341 H343 0.950 . S
C342 C336 1.404 . S
C342 H340 0.949 . S
C342 C341 1.385 . S
H343 C341 0.950 . S
H344 C328 0.951 . S
H345 C330 0.951 . S
H346 C332 0.951 . S
H347 C333 0.950 . S
H348 C334 0.950 . S
H349 C335 0.950 . S
H350 C337 0.950 . S
H351 C338 0.951 . S
C352 C353 1.386 . S
C352 C354 1.383 . S
C352 H368 0.951 . S
C353 C352 1.386 . S
C353 C357 1.383 . S
C354 C352 1.383 . S
C354 C355 1.402 . S
C354 H369 0.951 . S
C355 C354 1.402 . S
C355 C356 1.375 . S
C355 C358 1.481 . S
C356 C355 1.375 . S
C356 C357 1.367 . S
C356 H370 0.951 . S
C357 C353 1.383 . S
C357 C356 1.367 . S
C357 H371 0.950 . S
C358 C355 1.481 . S
C358 C359 1.297 . S
C358 H372 0.950 . S
C359 C358 1.297 . S
C359 C360 1.479 . S
C359 H373 0.950 . S
C360 C359 1.479 . S
C360 C361 1.375 . S
C360 C366 1.404 . S
C361 C360 1.375 . S
C361 C362 1.369 . S
C361 H374 0.950 . S
C362 C361 1.369 . S
C362 C363 1.392 . S
C362 H375 0.951 . S
C363 C362 1.392 . S
C363 C365 1.384 . S
H364 C366 0.949 . S
C365 C363 1.384 . S
C365 C366 1.385 . S
C365 H367 0.950 . S
C366 C360 1.404 . S
C366 H364 0.949 . S
C366 C365 1.385 . S
H367 C365 0.950 . S
H368 C352 0.951 . S
H369 C354 0.951 . S
H370 C356 0.951 . S
H371 C357 0.950 . S
H372 C358 0.950 . S
H373 C359 0.950 . S
H374 C361 0.950 . S
H375 C362 0.951 . S
C376 C377 1.386 . S
C376 C378 1.383 . S
C376 H392 0.951 . S
C377 C376 1.386 . S
C377 C381 1.383 . S
C378 C376 1.383 . S
C378 C379 1.402 . S
C378 H393 0.951 . S
C379 C378 1.402 . S
C379 C380 1.375 . S
C379 C382 1.481 . S
C380 C379 1.375 . S
C380 C381 1.367 . S
C380 H394 0.951 . S
C381 C377 1.383 . S
C381 C380 1.367 . S
C381 H395 0.946 1_565 S
C382 C379 1.481 . S
C382 C383 1.297 . S
C382 H396 0.950 . S
C383 C382 1.297 . S
C383 C384 1.479 . S
C383 H397 0.950 . S
C384 C383 1.479 . S
C384 C385 1.375 . S
C384 C390 1.404 . S
C385 C384 1.375 . S
C385 C386 1.369 . S
C385 H398 0.950 . S
C386 C385 1.369 . S
C386 C387 1.392 . S
C386 H399 0.951 . S
C387 C386 1.392 . S
C387 C389 1.384 . S
H388 C390 0.949 . S
C389 C387 1.384 . S
C389 C390 1.385 . S
C389 H391 0.950 . S
C390 C384 1.404 . S
C390 H388 0.949 . S
C390 C389 1.385 . S
H391 C389 0.950 . S
H392 C376 0.951 . S
H393 C378 0.951 . S
H394 C380 0.951 . S
H395 C381 0.946 1_545 S
H396 C382 0.950 . S
H397 C383 0.950 . S
H398 C385 0.950 . S
H399 C386 0.951 . S
C400 C401 1.386 . S
C400 C402 1.383 . S
C400 H416 0.951 . S
C401 C400 1.386 . S
C401 C405 1.383 . S
C402 C400 1.383 . S
C402 C403 1.402 . S
C402 H417 0.951 . S
C403 C402 1.402 . S
C403 C404 1.375 . S
C403 C406 1.481 . S
C404 C403 1.375 . S
C404 C405 1.367 . S
C404 H418 0.951 . S
C405 C401 1.383 . S
C405 C404 1.367 . S
C405 H419 0.950 . S
C406 C403 1.481 . S
C406 C407 1.297 . S
C406 H420 0.950 . S
C407 C406 1.297 . S
C407 C408 1.479 . S
C407 H421 0.950 . S
C408 C407 1.479 . S
C408 C409 1.375 . S
C408 C414 1.404 . S
C409 C408 1.375 . S
C409 C410 1.369 . S
C409 H422 0.950 . S
C410 C409 1.369 . S
C410 C411 1.392 . S
C410 H423 0.951 . S
C411 C410 1.392 . S
C411 C413 1.384 . S
H412 C414 0.949 . S
C413 C411 1.384 . S
C413 C414 1.385 . S
C413 H415 0.950 . S
C414 C408 1.404 . S
C414 H412 0.949 . S
C414 C413 1.385 . S
H415 C413 0.950 . S
H416 C400 0.951 . S
H417 C402 0.951 . S
H418 C404 0.951 . S
H419 C405 0.950 . S
H420 C406 0.950 . S
H421 C407 0.950 . S
H422 C409 0.950 . S
H423 C410 0.951 . S
C424 C425 1.386 . S
C424 C426 1.383 . S
C424 H440 0.951 . S
C425 C424 1.386 . S
C425 C429 1.383 . S
C426 C424 1.383 . S
C426 C427 1.402 . S
C426 H441 0.951 . S
C427 C426 1.402 . S
C427 C428 1.375 . S
C427 C430 1.481 . S
C428 C427 1.375 . S
C428 C429 1.367 . S
C428 H442 0.951 . S
C429 C425 1.383 . S
C429 C428 1.367 . S
C429 H443 0.950 . S
C430 C427 1.481 . S
C430 C431 1.297 . S
C430 H444 0.950 . S
C431 C430 1.297 . S
C431 C432 1.479 . S
C431 H445 0.950 . S
C432 C431 1.479 . S
C432 C433 1.375 . S
C432 C438 1.404 . S
C433 C432 1.375 . S
C433 C434 1.369 . S
C433 H446 0.950 . S
C434 C433 1.369 . S
C434 C435 1.392 . S
C434 H447 0.951 . S
C435 C434 1.392 . S
C435 C437 1.384 . S
H436 C438 0.949 . S
C437 C435 1.384 . S
C437 C438 1.385 . S
C437 H439 0.950 . S
C438 C432 1.404 . S
C438 H436 0.949 . S
C438 C437 1.385 . S
H439 C437 0.950 . S
H440 C424 0.951 . S
H441 C426 0.951 . S
H442 C428 0.951 . S
H443 C429 0.950 . S
H444 C430 0.950 . S
H445 C431 0.950 . S
H446 C433 0.950 . S
H447 C434 0.951 . S
C161 C89 0.583 1_565 S
C171 C18 0.567 . S
C185 C129 0.880 . S
C195 C58 0.704 . S
C209 C98 1.040 1_545 S
C219 C9 0.994 . S
C233 C49 0.961 . S
C243 C138 0.934 . S
C257 C55 0.983 . S
C267 C6 1.046 . S
C281 C46 1.684 . S
C291 C99 1.706 . S
C305 C139 2.139 . S
C315 C90 2.089 . S
C329 C130 1.375 . S
C339 C15 1.335 . S
C353 C95 1.028 . S
C363 C126 1.032 . S
C377 C10 1.714 1_565 S
C387 C135 1.706 . S
C401 C50 2.145 . S
C411 C19 2.097 1_556 S
C425 C86 1.364 . S
C435 C59 1.325 . S
