# Generated by pormake.
# Topology uon, (4)-cn, num edge types: 1
# Building blocks:
#     Node 0, Type 0, BuildingBlock: QUQFOY_clean_sbu_1, # of connection points: 4
#     Node 1, Type 0, BuildingBlock: QUQFOY_clean_sbu_1, # of connection points: 4
#     Node 2, Type 0, BuildingBlock: QUQFOY_clean_sbu_1, # of connection points: 4
#     Node 3, Type 0, BuildingBlock: QUQFOY_clean_sbu_1, # of connection points: 4
#     Node 4, Type 0, BuildingBlock: QUQFOY_clean_sbu_1, # of connection points: 4
#     Node 5, Type 0, BuildingBlock: QUQFOY_clean_sbu_1, # of connection points: 4
#     Edge 6, Type (0, 0), BuildingBlock: ZUJKAS_clean_linker_0, # of connection points: 2
#     Edge 7, Type (0, 0), BuildingBlock: ZUJKAS_clean_linker_0, # of connection points: 2
#     Edge 8, Type (0, 0), BuildingBlock: ZUJKAS_clean_linker_0, # of connection points: 2
#     Edge 9, Type (0, 0), BuildingBlock: ZUJKAS_clean_linker_0, # of connection points: 2
#     Edge 10, Type (0, 0), BuildingBlock: ZUJKAS_clean_linker_0, # of connection points: 2
#     Edge 11, Type (0, 0), BuildingBlock: ZUJKAS_clean_linker_0, # of connection points: 2
#     Edge 12, Type (0, 0), BuildingBlock: ZUJKAS_clean_linker_0, # of connection points: 2
#     Edge 13, Type (0, 0), BuildingBlock: ZUJKAS_clean_linker_0, # of connection points: 2
#     Edge 14, Type (0, 0), BuildingBlock: ZUJKAS_clean_linker_0, # of connection points: 2
#     Edge 15, Type (0, 0), BuildingBlock: ZUJKAS_clean_linker_0, # of connection points: 2
#     Edge 16, Type (0, 0), BuildingBlock: ZUJKAS_clean_linker_0, # of connection points: 2
#     Edge 17, Type (0, 0), BuildingBlock: ZUJKAS_clean_linker_0, # of connection points: 2
# Relax obj value: 0.076
# Max RMSD: 0.264
# Mean RMSD: 0.264
data_MOF--net-uon--node1-QUQFOY_clean_sbu_1--edge1-ZUJKAS_clean_linker_0
_symmetry_space_group_name_H-M    P1
_symmetry_Int_Tables_number       1
_symmetry_cell_setting            triclinic
loop_
_symmetry_equiv_pos_as_xyz
'x, y, z'
_cell_length_a     51.433863
_cell_length_b     51.303616
_cell_length_c     15.75526
_cell_angle_alpha  89.998179
_cell_angle_beta   89.444373
_cell_angle_gamma 120.12476
loop_
_atom_site_label
_atom_site_type_symbol
_atom_site_fract_x
_atom_site_fract_y
_atom_site_fract_z
_atom_type_partial_charge
O0 O 0.2753 0.49136 0.95007 0.0
Cd1 Cd 0.25813 0.45795 0.03949 0.0
Cd2 Cd 0.2091 0.45924 0.00264 0.0
O3 O 0.23339 0.48729 0.90138 0.0
O4 O 0.28868 0.4449 0.0496 0.0
O5 O 0.24269 0.41493 0.00279 0.0
C6 C 0.26924 0.41935 0.01795 0.0
C7 C 0.15942 0.41931 0.00753 0.0
C8 C 0.262 0.5006 0.90163 0.0
C9 C 0.24116 0.48943 0.16364 0.0
O10 O 0.2208 0.4844 0.11049 0.0
O11 O 0.25733 0.47725 0.15439 0.0
O12 O 0.1657 0.44628 0.98787 0.0
O13 O 0.18153 0.41441 0.01731 0.0
O14 O 0.80266 0.28043 0.25019 0.0
Cd15 Cd 0.81286 0.26442 0.3555 0.0
Cd16 Cd 0.7613 0.21579 0.31716 0.0
O17 O 0.76242 0.23897 0.20775 0.0
O18 O 0.85665 0.29332 0.3726 0.0
O19 O 0.83886 0.24565 0.33734 0.0
C20 C 0.86174 0.2721 0.35034 0.0
C21 C 0.74989 0.1656 0.32669 0.0
C22 C 0.78116 0.26699 0.19857 0.0
C23 C 0.76137 0.25186 0.46796 0.0
O24 O 0.74646 0.2299 0.41842 0.0
O25 O 0.78985 0.26785 0.46014 0.0
O26 O 0.73003 0.17248 0.30412 0.0
O27 O 0.77703 0.18741 0.33829 0.0
O28 O 0.53076 0.79767 0.54332 0.0
Cd29 Cd 0.5576 0.81361 0.64739 0.0
Cd30 Cd 0.55581 0.76025 0.63136 0.0
O31 O 0.52953 0.75441 0.52665 0.0
O32 O 0.56849 0.85688 0.64922 0.0
O33 O 0.60228 0.84277 0.63284 0.0
C34 C 0.59605 0.86422 0.63529 0.0
C35 C 0.58969 0.74226 0.63575 0.0
C36 C 0.52045 0.77247 0.50613 0.0
C37 C 0.52212 0.76752 0.77894 0.0
O38 O 0.53075 0.75145 0.7402 0.0
O39 O 0.5319 0.79472 0.75628 0.0
O40 O 0.56129 0.72446 0.6267 0.0
O41 O 0.59939 0.77084 0.63793 0.0
O42 O 0.77047 0.53891 0.94713 0.0
Cd43 Cd 0.73853 0.54519 0.01064 0.0
Cd44 Cd 0.81293 0.54198 0.04721 0.0
O45 O 0.79495 0.51483 0.94122 0.0
O46 O 0.7065 0.54729 0.94666 0.0
O47 O 0.74547 0.58691 0.00563 0.0
C48 C 0.72119 0.57601 0.96116 0.0
C49 C 0.86323 0.57125 0.08144 0.0
C50 C 0.77104 0.51529 0.92427 0.0
C51 C 0.75505 0.524 0.143 0.0
O52 O 0.77959 0.54572 0.1132 0.0
O53 O 0.73126 0.52504 0.12882 0.0
O54 O 0.84732 0.5439 0.10955 0.0
O55 O 0.85064 0.58146 0.03093 0.0
O56 O 0.22833 0.74282 0.30462 0.0
Cd57 Cd 0.21367 0.75588 0.4084 0.0
Cd58 Cd 0.26588 0.80671 0.37858 0.0
O59 O 0.27027 0.78486 0.27317 0.0
O60 O 0.17201 0.72104 0.42043 0.0
O61 O 0.18138 0.76712 0.3932 0.0
C62 C 0.162 0.73884 0.40264 0.0
C63 C 0.27656 0.85678 0.38245 0.0
C64 C 0.25201 0.75706 0.25962 0.0
C65 C 0.26201 0.7694 0.53088 0.0
O66 O 0.27765 0.79271 0.48546 0.0
O67 O 0.23416 0.75236 0.51644 0.0
O68 O 0.29727 0.85014 0.36807 0.0
O69 O 0.24918 0.8348 0.3895 0.0
O70 O 0.4907 0.22677 0.5942 0.0
Cd71 Cd 0.46236 0.20804 0.6963 0.0
Cd72 Cd 0.46178 0.26004 0.69311 0.0
O73 O 0.49103 0.26991 0.59054 0.0
O74 O 0.45199 0.16497 0.69246 0.0
O75 O 0.418 0.17886 0.67887 0.0
C76 C 0.42451 0.1576 0.67862 0.0
C77 C 0.42347 0.27223 0.69988 0.0
C78 C 0.50109 0.25316 0.56416 0.0
C79 C 0.49399 0.25094 0.83739 0.0
O80 O 0.4848 0.26731 0.80375 0.0
O81 O 0.48603 0.22494 0.80774 0.0
O82 O 0.45128 0.2927 0.69118 0.0
O83 O 0.41696 0.24443 0.70031 0.0
H84 H 0.31254 0.41073 0.08843 0.0
H85 H 0.33294 0.38004 0.03313 0.0
H86 H 0.26885 0.34955 0.82969 0.0
H87 H 0.24717 0.37883 0.88814 0.0
H88 H 0.27766 0.30572 0.87352 0.0
H89 H 0.38936 0.40795 0.83746 0.0
H90 H 0.37735 0.40185 0.94631 0.0
H91 H 0.35655 0.40974 0.86893 0.0
C92 C 0.30247 0.39704 0.03278 0.0
C93 C 0.27842 0.39734 0.99222 0.0
C94 C 0.31437 0.37976 0.00057 0.0
C95 C 0.30326 0.36332 0.92521 0.0
C96 C 0.2781 0.36227 0.88733 0.0
H97 H 0.42114 0.32004 0.6344 0.0
H98 H 0.38824 0.33919 0.67928 0.0
C99 C 0.26565 0.37896 0.92089 0.0
C100 C 0.31866 0.34839 0.88416 0.0
H101 H 0.38764 0.36112 0.81958 0.0
C102 C 0.30169 0.31789 0.86109 0.0
C103 C 0.34991 0.36435 0.86557 0.0
C104 C 0.36926 0.39784 0.87996 0.0
C105 C 0.31515 0.30283 0.82186 0.0
C106 C 0.34672 0.31834 0.80824 0.0
C107 C 0.36351 0.34895 0.83026 0.0
C108 C 0.36318 0.30373 0.7717 0.0
C109 C 0.29514 0.27075 0.7936 0.0
C110 C 0.35962 0.27679 0.80614 0.0
C111 C 0.37777 0.26523 0.77802 0.0
C112 C 0.40055 0.28096 0.71713 0.0
C113 C 0.40368 0.30743 0.68125 0.0
C114 C 0.38496 0.31846 0.70736 0.0
H115 H 0.27207 0.26619 0.78007 0.0
H116 H 0.30422 0.26559 0.73582 0.0
H117 H 0.2933 0.2552 0.84529 0.0
H118 H 0.34381 0.26538 0.8576 0.0
H119 H 0.37527 0.24507 0.80791 0.0
H120 H 0.87964 0.24669 0.22811 0.0
H121 H 0.93063 0.26606 0.17262 0.0
H122 H 0.96508 0.33298 0.3704 0.0
H123 H 0.91382 0.3149 0.42211 0.0
H124 H 0.98684 0.35946 0.23266 0.0
H125 H 1.00181 0.26027 0.22727 0.0
H126 H 0.96919 0.25293 0.16862 0.0
H127 H 0.97047 0.2597 0.28128 0.0
C128 C 0.89821 0.265 0.26109 0.0
C129 C 0.89278 0.27924 0.32959 0.0
C130 C 0.92748 0.27602 0.2295 0.0
C131 C 0.95206 0.30088 0.26756 0.0
C132 C 0.94666 0.31387 0.3394 0.0
H133 H 0.14064 0.37318 0.12189 0.0
H134 H 0.09 0.3429 0.18244 0.0
C135 C 0.91735 0.30342 0.3694 0.0
C136 C 0.9827 0.31554 0.22741 0.0
H137 H 0.03584 0.30212 0.13863 0.0
C138 C 0.99759 0.34683 0.21317 0.0
C139 C 0.99719 0.2994 0.20228 0.0
C140 C 0.98394 0.26629 0.22155 0.0
C141 C 0.02612 0.3623 0.17435 0.0
C142 C 0.03976 0.34591 0.1443 0.0
C143 C 0.0252 0.31469 0.15972 0.0
C144 C 0.06956 0.36109 0.0996 0.0
C145 C 0.04159 0.39624 0.16854 0.0
C146 C 0.07482 0.38029 0.02984 0.0
C147 C 0.10387 0.3981 -0.00353 0.0
C148 C 0.1281 0.39623 0.02996 0.0
C149 C 0.12239 0.375 0.09445 0.0
C150 C 0.09342 0.35774 0.12935 0.0
H151 H 0.03294 0.4056 0.21769 0.0
H152 H 0.06626 0.40677 0.17629 0.0
H153 H 0.03712 0.40282 0.10563 0.0
H154 H 0.05665 0.38244 0.00329 0.0
H155 H 0.10756 0.41406 0.94626 0.0
H156 H 0.6958 0.11521 0.29705 0.0
H157 H 0.67799 0.06418 0.34981 0.0
H158 H 0.76501 0.09278 0.45682 0.0
H159 H 0.78308 0.14419 0.40451 0.0
H160 H 0.69893 0.02248 0.32659 0.0
H161 H 0.70586 0.0592 0.66221 0.0
H162 H 0.70789 0.08258 0.5739 0.0
H163 H 0.7397 0.07864 0.59917 0.0
C164 C 0.71135 0.11064 0.33072 0.0
C165 C 0.74083 0.13388 0.34704 0.0
C166 C 0.70111 0.0814 0.36084 0.0
C167 C 0.72001 0.07478 0.40842 0.0
C168 C 0.74991 0.09752 0.42134 0.0
H169 H 0.65322 0.88632 0.57083 0.0
H170 H 0.68768 0.9378 0.51993 0.0
C171 C 0.76026 0.12683 0.39084 0.0
C172 C 0.70761 0.04444 0.44778 0.0
H173 H 0.68593 0.00742 0.63853 0.0
C174 C 0.69646 0.01916 0.39482 0.0
C175 C 0.70413 0.04019 0.53685 0.0
C176 C 0.71479 0.06649 0.5967 0.0
C177 C 0.68131 0.98972 0.42837 0.0
C178 C 0.67742 0.98547 0.51736 0.0
C179 C 0.6892 0.01076 0.57042 0.0
C180 C 0.65847 0.95508 0.55572 0.0
C181 C 0.66829 0.96338 0.36821 0.0
C182 C 0.63121 0.94805 0.59567 0.0
C183 C 0.61159 0.91881 0.62487 0.0
C184 C 0.61889 0.89595 0.61531 0.0
C185 C 0.64692 0.90339 0.57913 0.0
C186 C 0.66654 0.93273 0.54946 0.0
H187 H 0.66902 0.97056 0.30128 0.0
H188 H 0.68135 0.95158 0.37228 0.0
H189 H 0.6446 0.94701 0.38589 0.0
H190 H 0.62459 0.96497 0.6015 0.0
H191 H 0.59026 0.91392 0.65269 0.0
H192 H 0.74832 0.63741 0.97372 0.0
H193 H 0.73198 0.67042 0.91116 0.0
H194 H 0.65457 0.59309 0.8063 0.0
H195 H 0.67093 0.55995 0.86747 0.0
H196 H 0.68517 0.64038 0.68969 0.0
H197 H 0.66228 0.68137 0.99238 0.0
H198 H 0.6993 0.68632 0.9818 0.0
H199 H 0.66722 0.64897 0.98775 0.0
C200 C 0.72772 0.62739 0.93776 0.0
C201 C 0.71085 0.59601 0.92591 0.0
C202 C 0.71837 0.6463 0.90231 0.0
C203 C 0.69188 0.63418 0.85493 0.0
C204 C 0.67506 0.6029 0.84282 0.0
H205 H 0.57665 0.68443 0.61211 0.0
H206 H 0.60581 0.66149 0.65763 0.0
C207 C 0.6844 0.58399 0.87807 0.0
C208 C 0.68176 0.65398 0.8167 0.0
H209 H 0.65601 0.70198 0.86575 0.0
C210 C 0.67893 0.65396 0.72814 0.0
C211 C 0.67384 0.67186 0.86694 0.0
C212 C 0.67554 0.67207 0.96254 0.0
C213 C 0.66794 0.67097 0.68854 0.0
C214 C 0.65916 0.68811 0.73894 0.0
C215 C 0.66289 0.68891 0.82724 0.0
C216 C 0.64347 0.70307 0.70251 0.0
C217 C 0.66568 0.67033 0.59309 0.0
C218 C 0.65497 0.73417 0.71236 0.0
C219 C 0.63829 0.74745 0.68616 0.0
C220 C 0.60963 0.7297 0.65093 0.0
C221 C 0.59868 0.69876 0.63878 0.0
C222 C 0.6154 0.6856 0.66439 0.0
H223 H 0.68152 0.66423 0.56298 0.0
H224 H 0.64255 0.6531 0.57473 0.0
H225 H 0.6704 0.69248 0.56757 0.0
H226 H 0.67652 0.748 0.74222 0.0
H227 H 0.64723 0.77128 0.69696 0.0
H228 H 0.89621 0.55556 0.18194 0.0
H229 H 0.94677 0.58832 0.23611 0.0
H230 H 0.95184 0.66377 0.10057 0.0
H231 H 0.90107 0.63117 0.04626 0.0
H232 H 1.00097 0.6235 0.14129 0.0
H233 H 0.97313 0.69423 0.34827 0.0
H234 H 0.9447 0.65833 0.30733 0.0
H235 H 0.96185 0.69089 0.23927 0.0
C236 C 0.90806 0.5791 0.16336 0.0
C237 C 0.89456 0.59076 0.10991 0.0
C238 C 0.93694 0.59779 0.19451 0.0
C239 C 0.95283 0.62855 0.17344 0.0
C240 C 0.93971 0.64021 0.11885 0.0
H241 H 0.13504 0.76615 0.3206 0.0
H242 H 0.08359 0.7413 0.26564 0.0
C243 C 0.91081 0.62148 0.08735 0.0
C244 C 0.98336 0.64807 0.20765 0.0
H245 H 0.02393 0.7064 0.34328 0.0
C246 C 1.00602 0.64168 0.18523 0.0
C247 C 0.9899 0.67191 0.2645 0.0
C248 C 0.96614 0.67925 0.29201 0.0
C249 C 0.03499 0.65827 0.21874 0.0
C250 C 0.04131 0.68148 0.27768 0.0
C251 C 0.01893 0.68848 0.29844 0.0
C252 C 0.07078 0.69775 0.32034 0.0
C253 C 0.05865 0.65084 0.19059 0.0
C254 C 0.08003 0.68184 0.37249 0.0
C255 C 0.10924 0.69588 0.40373 0.0
C256 C 0.12973 0.72622 0.38402 0.0
C257 C 0.11976 0.74277 0.33692 0.0
C258 C 0.09044 0.72859 0.30524 0.0
H259 H 0.05275 0.63844 0.12951 0.0
H260 H 0.08092 0.6716 0.1832 0.0
H261 H 0.06062 0.63631 0.23928 0.0
H262 H 0.06498 0.65818 0.38634 0.0
H263 H 0.11612 0.68256 0.44048 0.0
H264 H 0.43041 0.10793 0.69356 0.0
H265 H 0.39651 0.05717 0.64188 0.0
H266 H 0.33406 0.08475 0.56094 0.0
H267 H 0.36808 0.13595 0.61262 0.0
H268 H 0.33402 0.0151 0.68126 0.0
H269 H 0.35453 0.05179 0.3425 0.0
H270 H 0.37876 0.07501 0.42639 0.0
H271 H 0.34243 0.07126 0.41328 0.0
C272 C 0.40933 0.10321 0.66567 0.0
C273 C 0.40204 0.12607 0.65681 0.0
C274 C 0.38995 0.07413 0.63621 0.0
C275 C 0.36297 0.06728 0.5966 0.0
C276 C 0.35498 0.08968 0.5904 0.0
H277 H 0.2411 0.87782 0.44953 0.0
H278 H 0.25748 0.92934 0.49687 0.0
C279 C 0.37433 0.11885 0.62047 0.0
C280 C 0.34415 0.03695 0.55912 0.0
H281 H 0.32517 0.99982 0.36961 0.0
C282 C 0.33159 0.01171 0.6132 0.0
C283 C 0.34134 0.03266 0.47023 0.0
C284 C 0.35507 0.059 0.40926 0.0
C285 C 0.31707 0.98227 0.58074 0.0
C286 C 0.31488 0.97797 0.49178 0.0
C287 C 0.32667 1.0032 0.43773 0.0
C288 C 0.30352 0.94766 0.45407 0.0
C289 C 0.30556 0.956 0.6417 0.0
C290 C 0.32364 0.94119 0.41127 0.0
C291 C 0.31439 0.9119 0.38418 0.0
C292 C 0.28472 0.88847 0.39876 0.0
C293 C 0.2641 0.89535 0.43732 0.0
C294 C 0.27346 0.92472 0.46491 0.0
H295 H 0.31303 0.96334 0.70773 0.0
H296 H 0.28062 0.94343 0.64147 0.0
H297 H 0.31332 0.94025 0.62173 0.0
H298 H 0.34691 0.95857 0.40198 0.0
H299 H 0.33082 0.90744 0.35441 0.0
H300 H 0.21587 0.7046 0.17847 0.0
H301 H 0.22744 0.66449 0.15692 0.0
H302 H 0.32056 0.72612 0.21269 0.0
H303 H 0.3089 0.76641 0.23657 0.0
H304 H 0.26467 0.65109 0.0673 0.0
H305 H 0.29519 0.66678 0.40945 0.0
H306 H 0.28007 0.68761 0.35795 0.0
H307 H 0.31853 0.69751 0.3395 0.0
C308 C 0.23907 0.70999 0.18264 0.0
C309 C 0.26136 0.73854 0.2104 0.0
C310 C 0.24565 0.68695 0.17091 0.0
C311 C 0.27465 0.69202 0.18642 0.0
C312 C 0.29783 0.72152 0.20295 0.0
H313 H 0.2989 0.53407 0.18571 0.0
H314 H 0.31355 0.58717 0.20165 0.0
C315 C 0.29123 0.74469 0.2149 0.0
C316 C 0.27904 0.66562 0.1951 0.0
H317 H 0.2898 0.62334 0.34398 0.0
C318 C 0.27076 0.64535 0.12729 0.0
C319 C 0.28674 0.65792 0.27386 0.0
C320 C 0.2954 0.67842 0.34975 0.0
C321 C 0.26863 0.61716 0.13715 0.0
C322 C 0.27508 0.60905 0.21668 0.0
C323 C 0.28488 0.62976 0.28327 0.0
C324 C 0.26869 0.57796 0.23263 0.0
C325 C 0.2579 0.59542 0.0639 0.0
C326 C 0.23908 0.55535 0.25078 0.0
C327 C 0.23065 0.52503 0.24199 0.0
C328 C 0.25176 0.51695 0.21484 0.0
C329 C 0.28222 0.53952 0.20806 0.0
C330 C 0.29059 0.56995 0.21601 0.0
H331 H 0.25745 0.60634 0.00349 0.0
H332 H 0.2726 0.58556 0.0555 0.0
H333 H 0.23484 0.57663 0.07799 0.0
H334 H 0.22191 0.56119 0.2639 0.0
H335 H 0.20702 0.50816 0.24683 0.0
H336 H 0.54785 0.31047 0.57971 0.0
H337 H 0.60082 0.32549 0.56112 0.0
H338 H 0.57507 0.24084 0.43928 0.0
H339 H 0.52208 0.22543 0.45911 0.0
H340 H 0.61857 0.28652 0.64531 0.0
H341 H 0.6517 0.30403 0.3051 0.0
H342 H 0.62102 0.30799 0.34701 0.0
H343 H 0.61571 0.2712 0.32592 0.0
C344 C 0.55342 0.29569 0.54486 0.0
C345 C 0.53074 0.2667 0.52086 0.0
C346 C 0.58377 0.30422 0.53517 0.0
C347 C 0.59187 0.28425 0.49915 0.0
C348 C 0.56934 0.25673 0.46651 0.0
H349 H 0.70873 0.21904 0.5549 0.0
H350 H 0.67142 0.23457 0.57922 0.0
C351 C 0.53902 0.24798 0.47748 0.0
C352 C 0.62276 0.28938 0.50887 0.0
H353 H 0.68067 0.291 0.39692 0.0
C354 C 0.63253 0.28825 0.59111 0.0
C355 C 0.64095 0.29171 0.43829 0.0
C356 C 0.632 0.29408 0.34905 0.0
C357 C 0.65906 0.28733 0.60412 0.0
C358 C 0.67618 0.28761 0.5332 0.0
C359 C 0.66747 0.29078 0.45132 0.0
C360 C 0.70094 0.28091 0.54107 0.0
C361 C 0.66802 0.28492 0.6933 0.0
C362 C 0.73036 0.30222 0.51593 0.0
C363 C 0.752 0.29354 0.5043 0.0
C364 C 0.7442 0.26324 0.51521 0.0
C365 C 0.71547 0.24261 0.54733 0.0
C366 C 0.69408 0.25143 0.56064 0.0
H367 H 0.65696 0.29224 0.74095 0.0
H368 H 0.66121 0.26109 0.70691 0.0
H369 H 0.69278 0.29873 0.70052 0.0
H370 H 0.736 0.32501 0.49988 0.0
H371 H 0.77371 0.30978 0.47773 0.0
H372 H 0.5045 0.71831 0.87992 0.0
H373 H 0.45217 0.67885 0.90032 0.0
H374 H 0.42273 0.73824 0.80351 0.0
H375 H 0.4751 0.77795 0.78361 0.0
H376 H 0.38145 0.6955 0.91945 0.0
H377 H 0.41451 0.64194 0.66964 0.0
H378 H 0.43769 0.65036 0.76151 0.0
H379 H 0.43835 0.68057 0.70141 0.0
C380 C 0.48692 0.72348 0.86696 0.0
C381 C 0.49392 0.75104 0.82882 0.0
C382 C 0.457 0.70076 0.87743 0.0
C383 C 0.43366 0.70517 0.84936 0.0
C384 C 0.44044 0.7341 0.82341 0.0
H385 H 0.27532 0.52811 0.7421 0.0
H386 H 0.31154 0.58194 0.71309 0.0
C387 C 0.47047 0.75699 0.81335 0.0
C388 C 0.40322 0.67873 0.83667 0.0
H389 H 0.36835 0.60936 0.74438 0.0
C390 C 0.37844 0.67678 0.88046 0.0
C391 C 0.39883 0.65499 0.78185 0.0
C392 C 0.42368 0.65718 0.72508 0.0
C393 C 0.35007 0.65046 0.87725 0.0
C394 C 0.34672 0.62518 0.83122 0.0
C395 C 0.37083 0.62835 0.78104 0.0
C396 C 0.32082 0.59423 0.84572 0.0
C397 C 0.32415 0.64986 0.92467 0.0
C398 C 0.31382 0.58329 0.92918 0.0
C399 C 0.29337 0.55312 0.94522 0.0
C400 C 0.27963 0.53277 0.87842 0.0
C401 C 0.28552 0.54349 0.79452 0.0
C402 C 0.30618 0.57414 0.77822 0.0
H403 H 0.3259 0.67233 0.92232 0.0
H404 H 0.30216 0.63289 0.89817 0.0
H405 H 0.3249 0.64444 0.99248 0.0
H406 H 0.32538 0.59771 0.98243 0.0
H407 H 0.28917 0.54533 0.0106 0.0
H408 H 0.7991 0.51216 0.18824 0.0
H409 H 0.79736 0.46362 0.17999 0.0
H410 H 0.70232 0.41937 0.13074 0.0
H411 H 0.70442 0.468 0.13296 0.0
H412 H 0.72249 0.38796 0.24636 0.0
H413 H 0.78211 0.42204 0.93809 0.0
H414 H 0.80566 0.44554 0.02179 0.0
H415 H 0.77194 0.44595 -0.00373 0.0
C416 C 0.77802 0.49215 0.17428 0.0
C417 C 0.75237 0.49416 0.15695 0.0
C418 C 0.77693 0.46441 0.17062 0.0
C419 C 0.74993 0.43808 0.15171 0.0
C420 C 0.72358 0.43953 0.14294 0.0
H421 H 0.72597 0.25561 0.14347 0.0
H422 H 0.71342 0.29468 0.11083 0.0
C423 C 0.7248 0.46738 0.14494 0.0
C424 C 0.74981 0.40954 0.13602 0.0
H425 H 0.77925 0.37784 0.00444 0.0
C426 C 0.73459 0.38548 0.19312 0.0
C427 C 0.76549 0.40645 0.06606 0.0
C428 C 0.78197 0.43134 0.00169 0.0
C429 C 0.73629 0.35907 0.18539 0.0
C430 C 0.75267 0.35624 0.11634 0.0
C431 C 0.76654 0.37982 0.0569 0.0
C432 C 0.75955 0.33135 0.11196 0.0
C433 C 0.72226 0.33544 0.25447 0.0
C434 C 0.7897 0.33849 0.11337 0.0
C435 C 0.79694 0.31615 0.12911 0.0
C436 C 0.77415 0.28628 0.14491 0.0
C437 C 0.74406 0.27844 0.13203 0.0
C438 C 0.73682 0.30088 0.11522 0.0
H439 H 0.71576 0.34386 0.31114 0.0
H440 H 0.70165 0.31565 0.23002 0.0
H441 H 0.73797 0.32779 0.27483 0.0
H442 H 0.80773 0.36173 0.10947 0.0
H443 H 0.82035 0.32286 0.13772 0.0
H444 H 0.31539 0.80096 0.61235 0.0
H445 H 0.35337 0.78575 0.60905 0.0
H446 H 0.28604 0.6959 0.53778 0.0
H447 H 0.2478 0.71077 0.54193 0.0
H448 H 0.34984 0.71432 0.65119 0.0
H449 H 0.35406 0.76212 0.33084 0.0
H450 H 0.35163 0.78229 0.42117 0.0
H451 H 0.32054 0.7459 0.39657 0.0
C452 C 0.30828 0.77747 0.60145 0.0
C453 C 0.27876 0.75727 0.5757 0.0
C454 C 0.33007 0.76886 0.59887 0.0
C455 C 0.3225 0.73995 0.57115 0.0
C456 C 0.29224 0.71836 0.55887 0.0
H457 H 0.4766 0.7136 0.47981 0.0
H458 H 0.42299 0.69682 0.4722 0.0
C459 C 0.27033 0.72689 0.5622 0.0
C460 C 0.34649 0.73502 0.53673 0.0
H461 H 0.39391 0.75395 0.36595 0.0
C462 C 0.35933 0.72243 0.58841 0.0
C463 C 0.35844 0.74555 0.45455 0.0
C464 C 0.34545 0.7596 0.39703 0.0
C465 C 0.38543 0.72214 0.56236 0.0
C466 C 0.39849 0.73424 0.48147 0.0
C467 C 0.38403 0.74469 0.42764 0.0
C468 C 0.42969 0.7418 0.45867 0.0
C469 C 0.39982 0.71091 0.62446 0.0
C470 C 0.45121 0.77204 0.44165 0.0
C471 C 0.48178 0.78151 0.44229 0.0
C472 C 0.49145 0.76104 0.4621 0.0
C473 C 0.46994 0.73008 0.46571 0.0
C474 C 0.43919 0.7205 0.46344 0.0
H475 H 0.38907 0.70656 0.68831 0.0
H476 H 0.3974 0.68939 0.60141 0.0
H477 H 0.42414 0.72747 0.63085 0.0
H478 H 0.44459 0.78895 0.43573 0.0
H479 H 0.49775 0.80544 0.43763 0.0
H480 H 0.50717 0.29447 0.9557 0.0
H481 H 0.55819 0.3353 0.98384 0.0
H482 H 0.59436 0.28631 0.85406 0.0
H483 H 0.54346 0.24489 0.82891 0.0
H484 H 0.63335 0.32568 0.97917 0.0
H485 H 0.59327 0.38225 0.76062 0.0
H486 H 0.57089 0.36881 0.8558 0.0
H487 H 0.57202 0.34238 0.78287 0.0
C488 C 0.52598 0.29163 0.93762 0.0
C489 C 0.52132 0.26669 0.88922 0.0
C490 C 0.55514 0.31516 0.95263 0.0
C491 C 0.57995 0.31428 0.91799 0.0
C492 C 0.57549 0.28758 0.88041 0.0
H493 H 0.76681 0.46527 0.85021 0.0
H494 H 0.72229 0.41488 0.8407 0.0
C495 C 0.54629 0.26374 0.86683 0.0
C496 C 0.60928 0.34254 0.90832 0.0
H497 H 0.64083 0.41322 0.82289 0.0
C498 C 0.6351 0.34488 0.9451 0.0
C499 C 0.61175 0.36708 0.86054 0.0
C500 C 0.5856 0.36498 0.81183 0.0
C501 C 0.66294 0.3719 0.94027 0.0
C502 C 0.66482 0.39717 0.89761 0.0
C503 C 0.63927 0.39413 0.85719 0.0
C504 C 0.69207 0.42766 0.89901 0.0
C505 C 0.68973 0.37302 0.98206 0.0
C506 C 0.68971 0.45193 0.93085 0.0
C507 C 0.71489 0.48073 0.93484 0.0
C508 C 0.74327 0.486 0.90832 0.0
C509 C 0.74536 0.46193 0.87262 0.0
C510 C 0.72 0.43304 0.86776 0.0
H511 H 0.68283 0.35653 0.03516 0.0
H512 H 0.70205 0.36725 0.93442 0.0
H513 H 0.70546 0.39574 0.00653 0.0
H514 H 0.66835 0.44848 0.95459 0.0
H515 H 0.71193 0.49825 0.96192 0.0
loop_
_geom_bond_atom_site_label_1
_geom_bond_atom_site_label_2
_geom_bond_distance
_geom_bond_site_symmetry_2
_ccdc_geom_bond_type
O0 Cd1 2.223 . S
O0 C8 1.315 1_554 S
Cd1 O0 2.223 . S
Cd1 O4 2.297 . S
Cd1 O5 2.439 . S
Cd1 O11 2.240 . S
Cd2 O3 2.240 . S
Cd2 O10 2.223 1_556 S
Cd2 O12 2.297 . S
Cd2 O13 2.439 1_556 S
O3 Cd2 2.240 . S
O3 C8 1.279 . S
O4 Cd1 2.297 . S
O4 C6 1.247 . S
O5 Cd1 2.439 . S
O5 C6 1.208 . S
C6 O4 1.247 . S
C6 O5 1.208 . S
C7 O12 1.247 1_554 S
C7 O13 1.208 . S
C8 O0 1.315 1_556 S
C8 O3 1.279 . S
C9 O10 1.315 . S
C9 O11 1.279 . S
O10 Cd2 2.223 1_554 S
O10 C9 1.315 . S
O11 Cd1 2.240 . S
O11 C9 1.279 . S
O12 Cd2 2.297 . S
O12 C7 1.247 1_556 S
O13 Cd2 2.439 1_554 S
O13 C7 1.208 . S
O14 Cd15 2.223 . S
O14 C22 1.315 . S
Cd15 O14 2.223 . S
Cd15 O18 2.297 . S
Cd15 O19 2.439 . S
Cd15 O25 2.240 . S
Cd16 O17 2.240 . S
Cd16 O24 2.223 . S
Cd16 O26 2.297 . S
Cd16 O27 2.439 . S
O17 Cd16 2.240 . S
O17 C22 1.279 . S
O18 Cd15 2.297 . S
O18 C20 1.247 . S
O19 Cd15 2.439 . S
O19 C20 1.208 . S
C20 O18 1.247 . S
C20 O19 1.208 . S
C21 O26 1.247 . S
C21 O27 1.208 . S
C22 O14 1.315 . S
C22 O17 1.279 . S
C23 O24 1.315 . S
C23 O25 1.279 . S
O24 Cd16 2.223 . S
O24 C23 1.315 . S
O25 Cd15 2.240 . S
O25 C23 1.279 . S
O26 Cd16 2.297 . S
O26 C21 1.247 . S
O27 Cd16 2.439 . S
O27 C21 1.208 . S
O28 Cd29 2.223 . S
O28 C36 1.315 . S
Cd29 O28 2.223 . S
Cd29 O32 2.297 . S
Cd29 O33 2.439 . S
Cd29 O39 2.240 . S
Cd30 O31 2.240 . S
Cd30 O38 2.223 . S
Cd30 O40 2.297 . S
Cd30 O41 2.439 . S
O31 Cd30 2.240 . S
O31 C36 1.279 . S
O32 Cd29 2.297 . S
O32 C34 1.247 . S
O33 Cd29 2.439 . S
O33 C34 1.208 . S
C34 O32 1.247 . S
C34 O33 1.208 . S
C35 O40 1.247 . S
C35 O41 1.208 . S
C36 O28 1.315 . S
C36 O31 1.279 . S
C37 O38 1.315 . S
C37 O39 1.279 . S
O38 Cd30 2.223 . S
O38 C37 1.315 . S
O39 Cd29 2.240 . S
O39 C37 1.279 . S
O40 Cd30 2.297 . S
O40 C35 1.247 . S
O41 Cd30 2.439 . S
O41 C35 1.208 . S
O42 Cd43 2.223 . S
O42 C50 1.315 1_554 S
Cd43 O42 2.223 . S
Cd43 O46 2.297 . S
Cd43 O47 2.439 . S
Cd43 O53 2.240 . S
Cd44 O45 2.240 . S
Cd44 O52 2.223 1_556 S
Cd44 O54 2.297 . S
Cd44 O55 2.439 1_556 S
O45 Cd44 2.240 . S
O45 C50 1.279 . S
O46 Cd43 2.297 . S
O46 C48 1.247 . S
O47 Cd43 2.439 . S
O47 C48 1.208 . S
C48 O46 1.247 . S
C48 O47 1.208 . S
C49 O54 1.247 1_554 S
C49 O55 1.208 . S
C50 O42 1.315 1_556 S
C50 O45 1.279 . S
C51 O52 1.315 . S
C51 O53 1.279 . S
O52 Cd44 2.223 1_554 S
O52 C51 1.315 . S
O53 Cd43 2.240 . S
O53 C51 1.279 . S
O54 Cd44 2.297 . S
O54 C49 1.247 1_556 S
O55 Cd44 2.439 1_554 S
O55 C49 1.208 . S
O56 Cd57 2.223 . S
O56 C64 1.315 . S
Cd57 O56 2.223 . S
Cd57 O60 2.297 . S
Cd57 O61 2.439 . S
Cd57 O67 2.240 . S
Cd58 O59 2.240 . S
Cd58 O66 2.223 . S
Cd58 O68 2.297 . S
Cd58 O69 2.439 . S
O59 Cd58 2.240 . S
O59 C64 1.279 . S
O60 Cd57 2.297 . S
O60 C62 1.247 . S
O61 Cd57 2.439 . S
O61 C62 1.208 . S
C62 O60 1.247 . S
C62 O61 1.208 . S
C63 O68 1.247 . S
C63 O69 1.208 . S
C64 O56 1.315 . S
C64 O59 1.279 . S
C65 O66 1.315 . S
C65 O67 1.279 . S
O66 Cd58 2.223 . S
O66 C65 1.315 . S
O67 Cd57 2.240 . S
O67 C65 1.279 . S
O68 Cd58 2.297 . S
O68 C63 1.247 . S
O69 Cd58 2.439 . S
O69 C63 1.208 . S
O70 Cd71 2.223 . S
O70 C78 1.315 . S
Cd71 O70 2.223 . S
Cd71 O74 2.297 . S
Cd71 O75 2.439 . S
Cd71 O81 2.240 . S
Cd72 O73 2.240 . S
Cd72 O80 2.223 . S
Cd72 O82 2.297 . S
Cd72 O83 2.439 . S
O73 Cd72 2.240 . S
O73 C78 1.279 . S
O74 Cd71 2.297 . S
O74 C76 1.247 . S
O75 Cd71 2.439 . S
O75 C76 1.208 . S
C76 O74 1.247 . S
C76 O75 1.208 . S
C77 O82 1.247 . S
C77 O83 1.208 . S
C78 O70 1.315 . S
C78 O73 1.279 . S
C79 O80 1.315 . S
C79 O81 1.279 . S
O80 Cd72 2.223 . S
O80 C79 1.315 . S
O81 Cd71 2.240 . S
O81 C79 1.279 . S
O82 Cd72 2.297 . S
O82 C77 1.247 . S
O83 Cd72 2.439 . S
O83 C77 1.208 . S
H84 C92 0.929 . S
H85 C94 0.930 . S
H86 C96 0.930 . S
H87 C99 0.929 . S
H88 C102 0.930 . S
H89 C104 0.960 . S
H90 C104 0.960 . S
H91 C104 0.960 . S
C92 H84 0.929 . S
C92 C93 1.381 . S
C92 C94 1.384 . S
C93 C92 1.381 . S
C93 C99 1.383 1_554 S
C94 H85 0.930 . S
C94 C92 1.384 . S
C94 C95 1.372 1_554 S
C95 C94 1.372 1_556 S
C95 C96 1.400 . S
C95 C100 1.490 . S
C96 H86 0.930 . S
C96 C95 1.400 . S
C96 C99 1.386 . S
H97 C113 0.930 . S
H98 C114 0.931 . S
C99 H87 0.929 . S
C99 C93 1.383 1_556 S
C99 C96 1.386 . S
C100 C95 1.490 . S
C100 C102 1.395 . S
C100 C103 1.403 . S
H101 C107 0.930 . S
C102 H88 0.930 . S
C102 C100 1.395 . S
C102 C105 1.403 . S
C103 C100 1.403 . S
C103 C104 1.524 . S
C103 C107 1.400 . S
C104 H89 0.960 . S
C104 H90 0.960 . S
C104 H91 0.960 . S
C104 C103 1.524 . S
C105 C102 1.403 . S
C105 C106 1.392 . S
C105 C109 1.495 . S
C106 C105 1.392 . S
C106 C107 1.385 . S
C106 C108 1.478 . S
C107 H101 0.930 . S
C107 C103 1.400 . S
C107 C106 1.385 . S
C108 C106 1.478 . S
C108 C110 1.381 . S
C108 C114 1.383 . S
C109 C105 1.495 . S
C109 H115 0.959 . S
C109 H116 0.961 . S
C109 H117 0.960 . S
C110 C108 1.381 . S
C110 C111 1.394 . S
C110 H118 0.930 . S
C111 C110 1.394 . S
C111 C112 1.383 . S
C111 H119 0.929 . S
C112 C111 1.383 . S
C112 C113 1.377 . S
C113 H97 0.930 . S
C113 C112 1.377 . S
C113 C114 1.379 . S
C114 H98 0.931 . S
C114 C108 1.383 . S
C114 C113 1.379 . S
H115 C109 0.959 . S
H116 C109 0.961 . S
H117 C109 0.960 . S
H118 C110 0.930 . S
H119 C111 0.929 . S
H120 C128 0.929 . S
H121 C130 0.930 . S
H122 C132 0.930 . S
H123 C135 0.929 . S
H124 C138 0.930 . S
H125 C140 0.960 . S
H126 C140 0.960 . S
H127 C140 0.960 . S
C128 H120 0.929 . S
C128 C129 1.377 . S
C128 C130 1.384 . S
C129 C128 1.377 . S
C129 C135 1.390 . S
C130 H121 0.930 . S
C130 C128 1.384 . S
C130 C131 1.372 . S
C131 C130 1.372 . S
C131 C132 1.400 . S
C131 C136 1.490 . S
C132 H122 0.930 . S
C132 C131 1.400 . S
C132 C135 1.386 . S
H133 C149 0.930 . S
H134 C150 0.931 . S
C135 H123 0.929 . S
C135 C129 1.390 . S
C135 C132 1.386 . S
C136 C131 1.490 . S
C136 C138 1.395 . S
C136 C139 1.403 . S
H137 C143 0.930 . S
C138 H124 0.930 . S
C138 C136 1.395 . S
C138 C141 1.403 1_655 S
C139 C136 1.403 . S
C139 C140 1.524 . S
C139 C143 1.400 1_655 S
C140 H125 0.960 . S
C140 H126 0.960 . S
C140 H127 0.960 . S
C140 C139 1.524 . S
C141 C138 1.403 1_455 S
C141 C142 1.392 . S
C141 C145 1.495 . S
C142 C141 1.392 . S
C142 C143 1.385 . S
C142 C144 1.478 . S
C143 H137 0.930 . S
C143 C139 1.400 1_455 S
C143 C142 1.385 . S
C144 C142 1.478 . S
C144 C146 1.381 . S
C144 C150 1.383 . S
C145 C141 1.495 . S
C145 H151 0.959 . S
C145 H152 0.961 . S
C145 H153 0.960 . S
C146 C144 1.381 . S
C146 C147 1.394 1_554 S
C146 H154 0.930 1_554 S
C147 C146 1.394 1_556 S
C147 C148 1.383 1_556 S
C147 H155 0.929 . S
C148 C147 1.383 1_554 S
C148 C149 1.377 . S
C149 H133 0.930 . S
C149 C148 1.377 . S
C149 C150 1.379 . S
C150 H134 0.931 . S
C150 C144 1.383 . S
C150 C149 1.379 . S
H151 C145 0.959 . S
H152 C145 0.961 . S
H153 C145 0.960 . S
H154 C146 0.930 1_556 S
H155 C147 0.929 . S
H156 C164 0.929 . S
H157 C166 0.930 . S
H158 C168 0.930 . S
H159 C171 0.929 . S
H160 C174 0.930 . S
H161 C176 0.960 . S
H162 C176 0.960 . S
H163 C176 0.960 . S
C164 H156 0.929 . S
C164 C165 1.377 . S
C164 C166 1.384 . S
C165 C164 1.377 . S
C165 C171 1.390 . S
C166 H157 0.930 . S
C166 C164 1.384 . S
C166 C167 1.372 . S
C167 C166 1.372 . S
C167 C168 1.400 . S
C167 C172 1.490 . S
C168 H158 0.930 . S
C168 C167 1.400 . S
C168 C171 1.386 . S
H169 C185 0.930 . S
H170 C186 0.931 . S
C171 H159 0.929 . S
C171 C165 1.390 . S
C171 C168 1.386 . S
C172 C167 1.490 . S
C172 C174 1.395 . S
C172 C175 1.403 . S
H173 C179 0.930 . S
C174 H160 0.930 . S
C174 C172 1.395 . S
C174 C177 1.403 1_545 S
C175 C172 1.403 . S
C175 C176 1.524 . S
C175 C179 1.400 1_545 S
C176 H161 0.960 . S
C176 H162 0.960 . S
C176 H163 0.960 . S
C176 C175 1.524 . S
C177 C174 1.403 1_565 S
C177 C178 1.392 . S
C177 C181 1.495 . S
C178 C177 1.392 . S
C178 C179 1.385 . S
C178 C180 1.478 . S
C179 H173 0.930 . S
C179 C175 1.400 1_565 S
C179 C178 1.385 . S
C180 C178 1.478 . S
C180 C182 1.381 . S
C180 C186 1.383 . S
C181 C177 1.495 . S
C181 H187 0.959 . S
C181 H188 0.961 . S
C181 H189 0.960 . S
C182 C180 1.381 . S
C182 C183 1.394 . S
C182 H190 0.930 . S
C183 C182 1.394 . S
C183 C184 1.383 . S
C183 H191 0.929 . S
C184 C183 1.383 . S
C184 C185 1.377 . S
C185 H169 0.930 . S
C185 C184 1.377 . S
C185 C186 1.379 . S
C186 H170 0.931 . S
C186 C180 1.383 . S
C186 C185 1.379 . S
H187 C181 0.959 . S
H188 C181 0.961 . S
H189 C181 0.960 . S
H190 C182 0.930 . S
H191 C183 0.929 . S
H192 C200 0.929 . S
H193 C202 0.930 . S
H194 C204 0.930 . S
H195 C207 0.929 1_554 S
H196 C210 0.930 . S
H197 C212 0.960 . S
H198 C212 0.960 . S
H199 C212 0.960 . S
C200 H192 0.929 . S
C200 C201 1.375 1_556 S
C200 C202 1.384 . S
C201 C200 1.375 1_554 S
C201 C207 1.389 1_554 S
C202 H193 0.930 . S
C202 C200 1.384 . S
C202 C203 1.372 . S
C203 C202 1.372 . S
C203 C204 1.400 . S
C203 C208 1.490 . S
C204 H194 0.930 . S
C204 C203 1.400 . S
C204 C207 1.386 . S
H205 C221 0.930 . S
H206 C222 0.931 . S
C207 H195 0.929 1_556 S
C207 C201 1.389 1_556 S
C207 C204 1.386 . S
C208 C203 1.490 . S
C208 C210 1.395 . S
C208 C211 1.403 . S
H209 C215 0.930 . S
C210 H196 0.930 . S
C210 C208 1.395 . S
C210 C213 1.403 . S
C211 C208 1.403 . S
C211 C212 1.524 1_556 S
C211 C215 1.400 . S
C212 H197 0.960 . S
C212 H198 0.960 . S
C212 H199 0.960 . S
C212 C211 1.524 1_554 S
C213 C210 1.403 . S
C213 C214 1.392 . S
C213 C217 1.495 . S
C214 C213 1.392 . S
C214 C215 1.385 . S
C214 C216 1.478 . S
C215 H209 0.930 . S
C215 C211 1.400 . S
C215 C214 1.385 . S
C216 C214 1.478 . S
C216 C218 1.381 . S
C216 C222 1.383 . S
C217 C213 1.495 . S
C217 H223 0.959 . S
C217 H224 0.961 . S
C217 H225 0.960 . S
C218 C216 1.381 . S
C218 C219 1.394 . S
C218 H226 0.930 . S
C219 C218 1.394 . S
C219 C220 1.383 . S
C219 H227 0.929 . S
C220 C219 1.383 . S
C220 C221 1.377 . S
C221 H205 0.930 . S
C221 C220 1.377 . S
C221 C222 1.379 . S
C222 H206 0.931 . S
C222 C216 1.383 . S
C222 C221 1.379 . S
H223 C217 0.959 . S
H224 C217 0.961 . S
H225 C217 0.960 . S
H226 C218 0.930 . S
H227 C219 0.929 . S
H228 C236 0.929 . S
H229 C238 0.930 . S
H230 C240 0.930 . S
H231 C243 0.929 1_556 S
H232 C246 0.930 . S
H233 C248 0.960 . S
H234 C248 0.960 . S
H235 C248 0.960 . S
C236 H228 0.929 . S
C236 C237 1.377 . S
C236 C238 1.384 . S
C237 C236 1.377 . S
C237 C243 1.390 . S
C238 H229 0.930 . S
C238 C236 1.384 . S
C238 C239 1.372 . S
C239 C238 1.372 . S
C239 C240 1.400 . S
C239 C244 1.490 . S
C240 H230 0.930 . S
C240 C239 1.400 . S
C240 C243 1.386 . S
H241 C257 0.930 . S
H242 C258 0.931 . S
C243 H231 0.929 1_554 S
C243 C237 1.390 . S
C243 C240 1.386 . S
C244 C239 1.490 . S
C244 C246 1.395 . S
C244 C247 1.403 . S
H245 C251 0.930 . S
C246 H232 0.930 . S
C246 C244 1.395 . S
C246 C249 1.403 1_655 S
C247 C244 1.403 . S
C247 C248 1.524 . S
C247 C251 1.400 1_655 S
C248 H233 0.960 . S
C248 H234 0.960 . S
C248 H235 0.960 . S
C248 C247 1.524 . S
C249 C246 1.403 1_455 S
C249 C250 1.392 . S
C249 C253 1.495 . S
C250 C249 1.392 . S
C250 C251 1.385 . S
C250 C252 1.478 . S
C251 H245 0.930 . S
C251 C247 1.400 1_455 S
C251 C250 1.385 . S
C252 C250 1.478 . S
C252 C254 1.381 . S
C252 C258 1.383 . S
C253 C249 1.495 . S
C253 H259 0.959 . S
C253 H260 0.961 . S
C253 H261 0.960 . S
C254 C252 1.381 . S
C254 C255 1.394 . S
C254 H262 0.930 . S
C255 C254 1.394 . S
C255 C256 1.383 . S
C255 H263 0.929 . S
C256 C255 1.383 . S
C256 C257 1.377 . S
C257 H241 0.930 . S
C257 C256 1.377 . S
C257 C258 1.379 . S
C258 H242 0.931 . S
C258 C252 1.383 . S
C258 C257 1.379 . S
H259 C253 0.959 . S
H260 C253 0.961 . S
H261 C253 0.960 . S
H262 C254 0.930 . S
H263 C255 0.929 . S
H264 C272 0.929 . S
H265 C274 0.930 . S
H266 C276 0.930 . S
H267 C279 0.929 . S
H268 C282 0.930 . S
H269 C284 0.960 . S
H270 C284 0.960 . S
H271 C284 0.960 . S
C272 H264 0.929 . S
C272 C273 1.377 . S
C272 C274 1.384 . S
C273 C272 1.377 . S
C273 C279 1.390 . S
C274 H265 0.930 . S
C274 C272 1.384 . S
C274 C275 1.372 . S
C275 C274 1.372 . S
C275 C276 1.400 . S
C275 C280 1.490 . S
C276 H266 0.930 . S
C276 C275 1.400 . S
C276 C279 1.386 . S
H277 C293 0.930 . S
H278 C294 0.931 . S
C279 H267 0.929 . S
C279 C273 1.390 . S
C279 C276 1.386 . S
C280 C275 1.490 . S
C280 C282 1.395 . S
C280 C283 1.403 . S
H281 C287 0.930 . S
C282 H268 0.930 . S
C282 C280 1.395 . S
C282 C285 1.403 1_545 S
C283 C280 1.403 . S
C283 C284 1.524 . S
C283 C287 1.400 1_545 S
C284 H269 0.960 . S
C284 H270 0.960 . S
C284 H271 0.960 . S
C284 C283 1.524 . S
C285 C282 1.403 1_565 S
C285 C286 1.392 . S
C285 C289 1.495 . S
C286 C285 1.392 . S
C286 C287 1.385 . S
C286 C288 1.478 . S
C287 H281 0.930 . S
C287 C283 1.400 1_565 S
C287 C286 1.385 . S
C288 C286 1.478 . S
C288 C290 1.381 . S
C288 C294 1.383 . S
C289 C285 1.495 . S
C289 H295 0.959 . S
C289 H296 0.961 . S
C289 H297 0.960 . S
C290 C288 1.381 . S
C290 C291 1.394 . S
C290 H298 0.930 . S
C291 C290 1.394 . S
C291 C292 1.383 . S
C291 H299 0.929 . S
C292 C291 1.383 . S
C292 C293 1.377 . S
C293 H277 0.930 . S
C293 C292 1.377 . S
C293 C294 1.379 . S
C294 H278 0.931 . S
C294 C288 1.383 . S
C294 C293 1.379 . S
H295 C289 0.959 . S
H296 C289 0.961 . S
H297 C289 0.960 . S
H298 C290 0.930 . S
H299 C291 0.929 . S
H300 C308 0.929 . S
H301 C310 0.930 . S
H302 C312 0.930 . S
H303 C315 0.929 . S
H304 C318 0.930 . S
H305 C320 0.960 . S
H306 C320 0.960 . S
H307 C320 0.960 . S
C308 H300 0.929 . S
C308 C309 1.377 . S
C308 C310 1.384 . S
C309 C308 1.377 . S
C309 C315 1.390 . S
C310 H301 0.930 . S
C310 C308 1.384 . S
C310 C311 1.372 . S
C311 C310 1.372 . S
C311 C312 1.400 . S
C311 C316 1.490 . S
C312 H302 0.930 . S
C312 C311 1.400 . S
C312 C315 1.386 . S
H313 C329 0.930 . S
H314 C330 0.931 . S
C315 H303 0.929 . S
C315 C309 1.390 . S
C315 C312 1.386 . S
C316 C311 1.490 . S
C316 C318 1.395 . S
C316 C319 1.403 . S
H317 C323 0.930 . S
C318 H304 0.930 . S
C318 C316 1.395 . S
C318 C321 1.403 . S
C319 C316 1.403 . S
C319 C320 1.524 . S
C319 C323 1.400 . S
C320 H305 0.960 . S
C320 H306 0.960 . S
C320 H307 0.960 . S
C320 C319 1.524 . S
C321 C318 1.403 . S
C321 C322 1.392 . S
C321 C325 1.495 . S
C322 C321 1.392 . S
C322 C323 1.385 . S
C322 C324 1.478 . S
C323 H317 0.930 . S
C323 C319 1.400 . S
C323 C322 1.385 . S
C324 C322 1.478 . S
C324 C326 1.381 . S
C324 C330 1.383 . S
C325 C321 1.495 . S
C325 H331 0.959 . S
C325 H332 0.961 . S
C325 H333 0.960 . S
C326 C324 1.381 . S
C326 C327 1.394 . S
C326 H334 0.930 . S
C327 C326 1.394 . S
C327 C328 1.383 . S
C327 H335 0.929 . S
C328 C327 1.383 . S
C328 C329 1.377 . S
C329 H313 0.930 . S
C329 C328 1.377 . S
C329 C330 1.379 . S
C330 H314 0.931 . S
C330 C324 1.383 . S
C330 C329 1.379 . S
H331 C325 0.959 . S
H332 C325 0.961 . S
H333 C325 0.960 . S
H334 C326 0.930 . S
H335 C327 0.929 . S
H336 C344 0.929 . S
H337 C346 0.930 . S
H338 C348 0.930 . S
H339 C351 0.929 . S
H340 C354 0.930 . S
H341 C356 0.960 . S
H342 C356 0.960 . S
H343 C356 0.960 . S
C344 H336 0.929 . S
C344 C345 1.377 . S
C344 C346 1.384 . S
C345 C344 1.377 . S
C345 C351 1.390 . S
C346 H337 0.930 . S
C346 C344 1.384 . S
C346 C347 1.372 . S
C347 C346 1.372 . S
C347 C348 1.400 . S
C347 C352 1.490 . S
C348 H338 0.930 . S
C348 C347 1.400 . S
C348 C351 1.386 . S
H349 C365 0.930 . S
H350 C366 0.931 . S
C351 H339 0.929 . S
C351 C345 1.390 . S
C351 C348 1.386 . S
C352 C347 1.490 . S
C352 C354 1.395 . S
C352 C355 1.403 . S
H353 C359 0.930 . S
C354 H340 0.930 . S
C354 C352 1.395 . S
C354 C357 1.403 . S
C355 C352 1.403 . S
C355 C356 1.524 . S
C355 C359 1.400 . S
C356 H341 0.960 . S
C356 H342 0.960 . S
C356 H343 0.960 . S
C356 C355 1.524 . S
C357 C354 1.403 . S
C357 C358 1.392 . S
C357 C361 1.495 . S
C358 C357 1.392 . S
C358 C359 1.385 . S
C358 C360 1.478 . S
C359 H353 0.930 . S
C359 C355 1.400 . S
C359 C358 1.385 . S
C360 C358 1.478 . S
C360 C362 1.381 . S
C360 C366 1.383 . S
C361 C357 1.495 . S
C361 H367 0.959 . S
C361 H368 0.961 . S
C361 H369 0.960 . S
C362 C360 1.381 . S
C362 C363 1.394 . S
C362 H370 0.930 . S
C363 C362 1.394 . S
C363 C364 1.383 . S
C363 H371 0.929 . S
C364 C363 1.383 . S
C364 C365 1.377 . S
C365 H349 0.930 . S
C365 C364 1.377 . S
C365 C366 1.379 . S
C366 H350 0.931 . S
C366 C360 1.383 . S
C366 C365 1.379 . S
H367 C361 0.959 . S
H368 C361 0.961 . S
H369 C361 0.960 . S
H370 C362 0.930 . S
H371 C363 0.929 . S
H372 C380 0.929 . S
H373 C382 0.930 . S
H374 C384 0.930 . S
H375 C387 0.929 . S
H376 C390 0.930 . S
H377 C392 0.960 . S
H378 C392 0.960 . S
H379 C392 0.960 . S
C380 H372 0.929 . S
C380 C381 1.377 . S
C380 C382 1.384 . S
C381 C380 1.377 . S
C381 C387 1.390 . S
C382 H373 0.930 . S
C382 C380 1.384 . S
C382 C383 1.372 . S
C383 C382 1.372 . S
C383 C384 1.400 . S
C383 C388 1.490 . S
C384 H374 0.930 . S
C384 C383 1.400 . S
C384 C387 1.386 . S
H385 C401 0.930 . S
H386 C402 0.931 . S
C387 H375 0.929 . S
C387 C381 1.390 . S
C387 C384 1.386 . S
C388 C383 1.490 . S
C388 C390 1.395 . S
C388 C391 1.403 . S
H389 C395 0.930 . S
C390 H376 0.930 . S
C390 C388 1.395 . S
C390 C393 1.403 . S
C391 C388 1.403 . S
C391 C392 1.524 . S
C391 C395 1.400 . S
C392 H377 0.960 . S
C392 H378 0.960 . S
C392 H379 0.960 . S
C392 C391 1.524 . S
C393 C390 1.403 . S
C393 C394 1.392 . S
C393 C397 1.495 . S
C394 C393 1.392 . S
C394 C395 1.385 . S
C394 C396 1.478 . S
C395 H389 0.930 . S
C395 C391 1.400 . S
C395 C394 1.385 . S
C396 C394 1.478 . S
C396 C398 1.381 . S
C396 C402 1.383 . S
C397 C393 1.495 . S
C397 H403 0.959 . S
C397 H404 0.961 . S
C397 H405 0.960 . S
C398 C396 1.381 . S
C398 C399 1.394 . S
C398 H406 0.930 1_556 S
C399 C398 1.394 . S
C399 C400 1.383 . S
C399 H407 0.929 1_556 S
C400 C399 1.383 . S
C400 C401 1.377 . S
C401 H385 0.930 . S
C401 C400 1.377 . S
C401 C402 1.379 . S
C402 H386 0.931 . S
C402 C396 1.383 . S
C402 C401 1.379 . S
H403 C397 0.959 . S
H404 C397 0.961 . S
H405 C397 0.960 . S
H406 C398 0.930 1_554 S
H407 C399 0.929 1_554 S
H408 C416 0.929 . S
H409 C418 0.930 . S
H410 C420 0.930 . S
H411 C423 0.929 . S
H412 C426 0.930 . S
H413 C428 0.960 . S
H414 C428 0.960 . S
H415 C428 0.960 . S
C416 H408 0.929 . S
C416 C417 1.377 . S
C416 C418 1.384 . S
C417 C416 1.377 . S
C417 C423 1.390 . S
C418 H409 0.930 . S
C418 C416 1.384 . S
C418 C419 1.372 . S
C419 C418 1.372 . S
C419 C420 1.400 . S
C419 C424 1.490 . S
C420 H410 0.930 . S
C420 C419 1.400 . S
C420 C423 1.386 . S
H421 C437 0.930 . S
H422 C438 0.931 . S
C423 H411 0.929 . S
C423 C417 1.390 . S
C423 C420 1.386 . S
C424 C419 1.490 . S
C424 C426 1.395 . S
C424 C427 1.403 . S
H425 C431 0.930 . S
C426 H412 0.930 . S
C426 C424 1.395 . S
C426 C429 1.403 . S
C427 C424 1.403 . S
C427 C428 1.524 . S
C427 C431 1.400 . S
C428 H413 0.960 . S
C428 H414 0.960 . S
C428 H415 0.960 . S
C428 C427 1.524 . S
C429 C426 1.403 . S
C429 C430 1.392 . S
C429 C433 1.495 . S
C430 C429 1.392 . S
C430 C431 1.385 . S
C430 C432 1.478 . S
C431 H425 0.930 . S
C431 C427 1.400 . S
C431 C430 1.385 . S
C432 C430 1.478 . S
C432 C434 1.381 . S
C432 C438 1.383 . S
C433 C429 1.495 . S
C433 H439 0.959 . S
C433 H440 0.961 . S
C433 H441 0.960 . S
C434 C432 1.381 . S
C434 C435 1.394 . S
C434 H442 0.930 . S
C435 C434 1.394 . S
C435 C436 1.383 . S
C435 H443 0.929 . S
C436 C435 1.383 . S
C436 C437 1.377 . S
C437 H421 0.930 . S
C437 C436 1.377 . S
C437 C438 1.379 . S
C438 H422 0.931 . S
C438 C432 1.383 . S
C438 C437 1.379 . S
H439 C433 0.959 . S
H440 C433 0.961 . S
H441 C433 0.960 . S
H442 C434 0.930 . S
H443 C435 0.929 . S
H444 C452 0.929 . S
H445 C454 0.930 . S
H446 C456 0.930 . S
H447 C459 0.929 . S
H448 C462 0.930 . S
H449 C464 0.960 . S
H450 C464 0.960 . S
H451 C464 0.960 . S
C452 H444 0.929 . S
C452 C453 1.377 . S
C452 C454 1.384 . S
C453 C452 1.377 . S
C453 C459 1.390 . S
C454 H445 0.930 . S
C454 C452 1.384 . S
C454 C455 1.372 . S
C455 C454 1.372 . S
C455 C456 1.400 . S
C455 C460 1.490 . S
C456 H446 0.930 . S
C456 C455 1.400 . S
C456 C459 1.386 . S
H457 C473 0.930 . S
H458 C474 0.931 . S
C459 H447 0.929 . S
C459 C453 1.390 . S
C459 C456 1.386 . S
C460 C455 1.490 . S
C460 C462 1.395 . S
C460 C463 1.403 . S
H461 C467 0.930 . S
C462 H448 0.930 . S
C462 C460 1.395 . S
C462 C465 1.403 . S
C463 C460 1.403 . S
C463 C464 1.524 . S
C463 C467 1.400 . S
C464 H449 0.960 . S
C464 H450 0.960 . S
C464 H451 0.960 . S
C464 C463 1.524 . S
C465 C462 1.403 . S
C465 C466 1.392 . S
C465 C469 1.495 . S
C466 C465 1.392 . S
C466 C467 1.385 . S
C466 C468 1.478 . S
C467 H461 0.930 . S
C467 C463 1.400 . S
C467 C466 1.385 . S
C468 C466 1.478 . S
C468 C470 1.381 . S
C468 C474 1.383 . S
C469 C465 1.495 . S
C469 H475 0.959 . S
C469 H476 0.961 . S
C469 H477 0.960 . S
C470 C468 1.381 . S
C470 C471 1.394 . S
C470 H478 0.930 . S
C471 C470 1.394 . S
C471 C472 1.383 . S
C471 H479 0.929 . S
C472 C471 1.383 . S
C472 C473 1.377 . S
C473 H457 0.930 . S
C473 C472 1.377 . S
C473 C474 1.379 . S
C474 H458 0.931 . S
C474 C468 1.383 . S
C474 C473 1.379 . S
H475 C469 0.959 . S
H476 C469 0.961 . S
H477 C469 0.960 . S
H478 C470 0.930 . S
H479 C471 0.929 . S
H480 C488 0.929 . S
H481 C490 0.930 . S
H482 C492 0.930 . S
H483 C495 0.929 . S
H484 C498 0.930 . S
H485 C500 0.960 . S
H486 C500 0.960 . S
H487 C500 0.960 . S
C488 H480 0.929 . S
C488 C489 1.377 . S
C488 C490 1.384 . S
C489 C488 1.377 . S
C489 C495 1.390 . S
C490 H481 0.930 . S
C490 C488 1.384 . S
C490 C491 1.372 . S
C491 C490 1.372 . S
C491 C492 1.400 . S
C491 C496 1.490 . S
C492 H482 0.930 . S
C492 C491 1.400 . S
C492 C495 1.386 . S
H493 C509 0.930 . S
H494 C510 0.931 . S
C495 H483 0.929 . S
C495 C489 1.390 . S
C495 C492 1.386 . S
C496 C491 1.490 . S
C496 C498 1.395 . S
C496 C499 1.403 . S
H497 C503 0.930 . S
C498 H484 0.930 . S
C498 C496 1.395 . S
C498 C501 1.403 . S
C499 C496 1.403 . S
C499 C500 1.524 . S
C499 C503 1.400 . S
C500 H485 0.960 . S
C500 H486 0.960 . S
C500 H487 0.960 . S
C500 C499 1.524 . S
C501 C498 1.403 . S
C501 C502 1.392 . S
C501 C505 1.495 . S
C502 C501 1.392 . S
C502 C503 1.385 . S
C502 C504 1.478 . S
C503 H497 0.930 . S
C503 C499 1.400 . S
C503 C502 1.385 . S
C504 C502 1.478 . S
C504 C506 1.381 . S
C504 C510 1.383 . S
C505 C501 1.495 . S
C505 H511 0.959 . S
C505 H512 0.961 . S
C505 H513 0.960 . S
C506 C504 1.381 . S
C506 C507 1.394 . S
C506 H514 0.930 1_556 S
C507 C506 1.394 . S
C507 C508 1.383 . S
C507 H515 0.929 1_556 S
C508 C507 1.383 . S
C508 C509 1.377 . S
C509 H493 0.930 . S
C509 C508 1.377 . S
C509 C510 1.379 . S
C510 H494 0.931 . S
C510 C504 1.383 . S
C510 C509 1.379 . S
H511 C505 0.959 . S
H512 C505 0.961 . S
H513 C505 0.960 . S
H514 C506 0.930 1_554 S
H515 C507 0.929 1_554 S
C93 C6 1.382 . S
C112 C77 1.396 . S
C129 C20 1.384 . S
C148 C7 1.362 . S
C165 C21 1.378 . S
C184 C34 1.384 . S
C201 C48 1.389 . S
C220 C35 1.393 . S
C237 C49 1.382 . S
C256 C62 1.359 . S
C273 C76 1.382 . S
C292 C63 1.358 . S
C309 C64 1.110 . S
C328 C9 1.081 . S
C345 C78 1.122 . S
C364 C23 1.141 . S
C381 C37 1.123 . S
C400 C8 1.130 . S
C417 C51 1.119 . S
C436 C22 1.110 . S
C453 C65 1.109 . S
C472 C36 1.070 . S
C489 C79 1.123 . S
C508 C50 1.129 . S
