# Generated by pormake.
# Topology reo, (8)-cn, num edge types: 1
# Building blocks:
#     Node 0, Type 0, BuildingBlock: GIZVER_clean_sbu_0, # of connection points: 8
#     Node 1, Type 0, BuildingBlock: GIZVER_clean_sbu_0, # of connection points: 8
#     Node 2, Type 0, BuildingBlock: GIZVER_clean_sbu_0, # of connection points: 8
#     Edge 3, Type (0, 0), BuildingBlock: TEMPAE_clean_linker_10, # of connection points: 2
#     Edge 4, Type (0, 0), BuildingBlock: TEMPAE_clean_linker_10, # of connection points: 2
#     Edge 5, Type (0, 0), BuildingBlock: TEMPAE_clean_linker_10, # of connection points: 2
#     Edge 6, Type (0, 0), BuildingBlock: TEMPAE_clean_linker_10, # of connection points: 2
#     Edge 7, Type (0, 0), BuildingBlock: TEMPAE_clean_linker_10, # of connection points: 2
#     Edge 8, Type (0, 0), BuildingBlock: TEMPAE_clean_linker_10, # of connection points: 2
#     Edge 9, Type (0, 0), BuildingBlock: TEMPAE_clean_linker_10, # of connection points: 2
#     Edge 10, Type (0, 0), BuildingBlock: TEMPAE_clean_linker_10, # of connection points: 2
#     Edge 11, Type (0, 0), BuildingBlock: TEMPAE_clean_linker_10, # of connection points: 2
#     Edge 12, Type (0, 0), BuildingBlock: TEMPAE_clean_linker_10, # of connection points: 2
#     Edge 13, Type (0, 0), BuildingBlock: TEMPAE_clean_linker_10, # of connection points: 2
#     Edge 14, Type (0, 0), BuildingBlock: TEMPAE_clean_linker_10, # of connection points: 2
# Relax obj value: 0.091
# Max RMSD: 0.198
# Mean RMSD: 0.142
data_MOF--net-reo--node1-GIZVER_clean_sbu_0--edge1-TEMPAE_clean_linker_10
_symmetry_space_group_name_H-M    P1
_symmetry_Int_Tables_number       1
_symmetry_cell_setting            triclinic
loop_
_symmetry_equiv_pos_as_xyz
'x, y, z'
_cell_length_a     24.518865
_cell_length_b     25.291745
_cell_length_c     25.858542
_cell_angle_alpha  107.53408
_cell_angle_beta   94.454476
_cell_angle_gamma 79.03047
loop_
_atom_site_label
_atom_site_type_symbol
_atom_site_fract_x
_atom_site_fract_y
_atom_site_fract_z
_atom_type_partial_charge
Co0 Co 0.05638 0.97129 0.60796 0.0
Co1 Co 0.13013 1.00936 0.56712 0.0
Co2 Co 0.01793 1.03114 0.50427 0.0
O3 O 0.06923 0.97663 0.53606 0.0
H4 H 0.08082 0.94045 0.5099 0.0
O5 O 0.9663 0.08711 0.47511 0.0
Co6 Co 0.97701 0.09952 0.40715 0.0
Co7 Co 0.90627 0.05585 0.44274 0.0
H8 H 0.95375 0.12184 0.50291 0.0
O9 O 0.19562 0.96441 0.57656 0.0
O10 O 0.12566 1.00194 0.63592 0.0
O11 O 0.12816 0.08872 0.57476 0.0
O12 O 0.03704 0.10034 0.55969 0.0
O13 O 0.07784 1.03053 0.45408 0.0
O14 O 0.98461 0.11593 0.34633 0.0
O15 O 0.941 0.1728 0.42155 0.0
O16 O 0.01935 1.02587 0.38392 0.0
O17 O 0.99921 0.96107 0.44841 0.0
O18 O 0.91043 0.97569 0.42287 0.0
O19 O 0.90558 0.07369 0.37898 0.0
O20 O 0.84034 0.10203 0.44403 0.0
C21 C 0.07535 0.91114 0.64915 0.0
C22 C 0.96286 0.04523 0.60456 0.0
C23 C 0.08095 0.1203 0.57814 0.0
C24 C 0.17606 0.9742 0.62448 0.0
C25 C 0.95731 0.16496 0.37234 0.0
C26 C 0.06914 1.02196 0.40276 0.0
C27 C 0.95649 0.94306 0.42297 0.0
C28 C 0.85599 0.09978 0.39639 0.0
O29 O 0.04768 0.96104 0.67171 0.0
O30 O 0.09341 0.89911 0.59984 0.0
O31 O 0.95713 1.03227 0.5529 0.0
O32 O 1.01166 0.04397 0.62573 0.0
Co33 Co 0.61975 1.01961 0.90663 0.0
Co34 Co 0.62393 0.06383 0.99857 0.0
Co35 Co 0.51409 0.03998 0.00726 0.0
O36 O 0.55996 0.06209 0.95797 0.0
H37 H 0.54508 0.09896 0.95409 0.0
O38 O 0.47137 1.01901 0.05849 0.0
Co39 Co 0.39478 0.04591 0.07653 0.0
Co40 Co 0.45207 0.94949 0.0226 0.0
H41 H 0.49358 1.01568 0.09027 0.0
O42 O 0.6409 0.13172 0.01798 0.0
O43 O 0.68137 0.05071 0.95648 0.0
O44 O 0.63752 1.03049 0.05703 0.0
O45 O 0.55422 0.07957 0.07484 0.0
O46 O 0.45896 0.11279 0.01434 0.0
O47 O 0.32413 0.06773 0.10041 0.0
O48 O 0.39653 1.01876 0.13467 0.0
O49 O 0.38226 0.07936 0.01871 0.0
O50 O 0.47066 1.00414 0.94082 0.0
O51 O 0.46596 0.91939 0.94615 0.0
O52 O 0.37637 0.97542 0.02698 0.0
O53 O 0.42496 0.90417 0.05575 0.0
C54 C 0.66085 1.03169 0.84458 0.0
C55 C 0.60943 0.93895 0.97007 0.0
C56 C 0.60116 0.05845 0.09119 0.0
C57 C 0.68253 0.10221 0.98776 0.0
C58 C 0.3441 0.04218 0.13655 0.0
C59 C 0.40581 0.11719 0.01126 0.0
C60 C 0.45892 0.95495 0.91964 0.0
C61 C 0.37806 0.93063 0.04188 0.0
O62 O 0.67121 0.98462 0.85704 0.0
O63 O 0.62157 0.07176 0.8704 0.0
O64 O 0.56753 0.96515 1.00025 0.0
O65 O 0.62714 0.95966 0.93686 0.0
Co66 Co 0.9938 0.45086 0.09519 0.0
Co67 Co 0.97303 0.42102 1.00258 0.0
Co68 Co 1.00657 0.52992 1.00226 0.0
O69 O 0.96523 0.49311 0.04302 0.0
H70 H 0.92649 0.51019 0.04773 0.0
O71 O 0.04689 0.56473 0.96066 0.0
Co72 Co 0.01977 0.63541 0.94708 0.0
Co73 Co 0.102 0.59732 1.00398 0.0
H74 H 0.06377 0.53719 0.92876 0.0
O75 O 0.90993 0.39708 0.98354 0.0
O76 O 0.97668 0.37668 0.04526 0.0
O77 O 0.02592 0.39442 0.94699 0.0
O78 O 0.99657 0.47425 0.92804 0.0
O79 O 0.93321 0.58071 0.99262 0.0
O80 O 0.99867 0.6993 0.92814 0.0
O81 O 0.06232 0.62382 0.88861 0.0
O82 O 0.97113 0.65653 1.00595 0.0
O83 O 1.01595 0.58616 0.07569 0.0
O84 O 0.10069 0.60684 0.08032 0.0
O85 O 0.07755 0.66834 0.99652 0.0
O86 O 0.16144 0.6137 0.97545 0.0
C87 C 0.96384 0.43109 0.1584 0.0
C88 C 0.09718 0.44499 0.03663 0.0
C89 C 0.02195 0.4231 0.91413 0.0
C90 C 0.93392 0.36469 0.01255 0.0
C91 C 0.03502 0.67401 0.89037 0.0
C92 C 0.92813 0.63443 1.00299 0.0
C93 C 0.0558 0.60888 0.10262 0.0
C94 C 0.1287 0.66208 0.98289 0.0
O95 O 1.01568 0.4166 0.14524 0.0
O96 O 0.9292 0.45992 0.13134 0.0
O97 O 0.08138 0.48137 0.01077 0.0
O98 O 0.06444 0.43439 0.06623 0.0
C99 C 0.98459 0.40277 0.24276 0.0
C100 C 0.9463 0.40978 0.20105 0.0
C101 C 0.97747 0.36964 0.27575 0.0
C102 C 0.93075 0.34241 0.26707 0.0
C103 C 0.88952 0.35295 0.22786 0.0
C104 C 0.89779 0.38655 0.19519 0.0
C105 C 0.02268 0.35984 0.31667 0.0
C106 C 0.83917 0.32476 0.21716 0.0
C107 C 0.96496 0.19904 0.29231 0.0
C108 C 0.9454 0.21025 0.34486 0.0
C109 C 0.95807 0.24097 0.26593 0.0
C110 C 0.93062 0.29617 0.29232 0.0
C111 C 0.90871 0.30746 0.34454 0.0
C112 C 0.91646 0.26443 0.37028 0.0
C113 C 0.98352 0.2265 0.21097 0.0
C114 C 0.87891 0.3655 0.37403 0.0
H115 H 0.02217 0.42067 0.24756 0.0
H116 H 0.86843 0.39103 0.16255 0.0
H117 H 1.00456 0.36436 0.35608 0.0
H118 H 0.04611 0.31622 0.30194 0.0
H119 H 0.05245 0.38948 0.32348 0.0
H120 H 0.80682 0.34418 0.19263 0.0
H121 H 0.85177 0.27955 0.19481 0.0
H122 H 0.82089 0.32695 0.25585 0.0
H123 H 0.98726 0.15746 0.27187 0.0
H124 H 0.90081 0.27358 0.41067 0.0
H125 H 0.02464 0.23992 0.21623 0.0
H126 H 0.95743 0.24874 0.18439 0.0
H127 H 0.98979 0.18048 0.19019 0.0
H128 H 0.90906 0.39492 0.38611 0.0
H129 H 0.85844 0.36595 0.41104 0.0
H130 H 0.84712 0.38164 0.34694 0.0
C131 C 0.7585 0.13788 0.37501 0.0
C132 C 0.81409 0.11949 0.35921 0.0
C133 C 0.71596 0.14327 0.33673 0.0
C134 C 0.72971 0.13045 0.28181 0.0
C135 C 0.78607 0.11977 0.26707 0.0
C136 C 0.82784 0.11397 0.30607 0.0
C137 C 0.65631 0.15626 0.3541 0.0
C138 C 0.80223 0.10832 0.20905 0.0
C139 C 0.64744 0.0409 0.17315 0.0
C140 C 0.62058 0.07968 0.14689 0.0
C141 C 0.68021 0.05805 0.21961 0.0
C142 C 0.68705 0.11518 0.23911 0.0
C143 C 0.657 0.15525 0.21462 0.0
C144 C 0.62361 0.13688 0.16854 0.0
C145 C 0.71073 1.01413 0.24529 0.0
C146 C 0.66358 0.2163 0.23387 0.0
H147 H 0.74757 0.14393 0.41648 0.0
H148 H 0.87086 0.10146 0.29397 0.0
H149 H 0.6302 0.18425 0.33258 0.0
H150 H 0.63953 0.11646 0.34361 0.0
H151 H 0.65257 0.17649 0.39853 0.0
H152 H 0.84643 0.11143 0.20615 0.0
H153 H 0.79615 0.06517 0.18545 0.0
H154 H 0.77563 0.1383 0.18999 0.0
H155 H 0.64523 0.9966 0.1555 0.0
H156 H 0.60356 0.16641 0.14703 0.0
H157 H 0.70427 1.0283 0.28969 0.0
H158 H 0.756 1.00796 0.2388 0.0
H159 H 0.69694 0.97283 0.22799 0.0
H160 H 0.66875 0.23128 0.27862 0.0
H161 H 0.62739 0.2437 0.22112 0.0
H162 H 0.7013 0.22106 0.21581 0.0
C163 C 1.0067 0.84314 0.39337 0.0
C164 C 0.96397 0.88536 0.38478 0.0
C165 C 0.02037 0.7915 0.35289 0.0
C166 C 0.99193 0.78273 0.30201 0.0
C167 C 0.947 0.82418 0.29414 0.0
C168 C 0.93307 0.8746 0.33591 0.0
C169 C 0.06722 0.74764 0.36357 0.0
C170 C 0.91635 0.81727 0.24017 0.0
C171 C 0.07084 0.69597 0.17493 0.0
C172 C 0.04516 0.6483 0.15777 0.0
C173 C 0.05483 0.73921 0.22252 0.0
C174 C 1.01326 0.73402 0.25489 0.0
C175 C 0.98961 0.68441 0.23961 0.0
C176 C 1.0051 0.64253 0.19064 0.0
C177 C 0.08022 0.79192 0.23639 0.0
C178 C 0.94656 0.67645 0.27393 0.0
H179 H 0.03053 0.85113 0.43119 0.0
H180 H 0.90036 0.90722 0.32874 0.0
H181 H 0.05577 0.70513 0.3486 0.0
H182 H 0.1045 0.74677 0.34141 0.0
H183 H 0.07845 0.75649 0.40744 0.0
H184 H 0.88 0.85147 0.24182 0.0
H185 H 0.94501 0.81744 0.20905 0.0
H186 H 0.90172 0.77629 0.22658 0.0
H187 H 0.10129 0.70117 0.14943 0.0
H188 H 0.9852 0.60574 0.1776 0.0
H189 H 0.09891 0.80047 0.27787 0.0
H190 H 0.04739 0.82864 0.23586 0.0
H191 H 0.11282 0.78882 0.20754 0.0
H192 H 0.95997 0.68751 0.31728 0.0
H193 H 0.93866 0.63247 0.26106 0.0
H194 H 0.90689 0.70496 0.27068 0.0
C195 C 0.25737 0.07633 0.19204 0.0
C196 C 0.30673 0.03734 0.17739 0.0
C197 C 0.22124 0.072 0.22993 0.0
C198 C 0.23373 1.02669 0.25305 0.0
C199 C 0.28317 0.98671 0.23777 0.0
C200 C 0.3193 0.99292 0.20083 0.0
C201 C 0.16953 0.11607 0.24521 0.0
C202 C 0.29742 0.93668 0.25967 0.0
C203 C 0.16148 0.04329 0.38508 0.0
C204 C 0.11483 1.01779 0.36577 0.0
C205 C 0.20091 0.04569 0.3491 0.0
C206 C 0.19446 1.0209 0.29235 0.0
C207 C 0.14878 0.9928 0.273 0.0
C208 C 0.10935 0.99226 0.30968 0.0
C209 C 0.24836 0.07671 0.37169 0.0
C210 C 0.1407 0.96438 0.21324 0.0
H211 H 0.24719 0.11081 0.17427 0.0
H212 H 0.35687 0.9621 0.18927 0.0
H213 H 0.13205 0.09618 0.23331 0.0
H214 H 0.16875 0.13543 0.28984 0.0
H215 H 0.16679 0.14992 0.22547 0.0
H216 H 0.33735 0.90939 0.24403 0.0
H217 H 0.30022 0.95112 0.30462 0.0
H218 H 0.26396 0.91101 0.2483 0.0
H219 H 0.16594 0.06357 0.42818 0.0
H220 H 0.07365 0.97219 0.29428 0.0
H221 H 0.24495 0.11348 0.35591 0.0
H222 H 0.28859 0.04897 0.35814 0.0
H223 H 0.24893 0.09188 0.41673 0.0
H224 H 0.13071 0.99658 0.1912 0.0
H225 H 0.10663 0.93942 0.20525 0.0
H226 H 0.17956 0.93602 0.19618 0.0
C227 C 0.07618 0.8139 0.65627 0.0
C228 C 0.08445 0.86944 0.6804 0.0
C229 C 0.07324 0.77803 0.68822 0.0
C230 C 0.08002 0.79775 0.7455 0.0
C231 C 0.09258 0.85248 0.76936 0.0
C232 C 0.09375 0.8878 0.73672 0.0
C233 C 0.05936 0.72031 0.661 0.0
C234 C 0.10162 0.87526 0.82982 0.0
C235 C 1.00453 0.74288 0.83708 0.0
C236 C 0.04654 0.70347 0.85151 0.0
C237 C 1.01462 0.77244 0.80157 0.0
C238 C 0.06858 0.76377 0.78091 0.0
C239 C 0.11143 0.72445 0.79591 0.0
C240 C 0.09969 0.69417 0.83031 0.0
C241 C 0.96747 0.81353 0.78662 0.0
C242 C 0.17006 0.71573 0.77706 0.0
H243 H 0.0684 0.79971 0.61286 0.0
H244 H 0.10043 0.93066 0.75563 0.0
H245 H 0.08907 0.68788 0.67448 0.0
H246 H 0.01729 0.71886 0.67297 0.0
H247 H 0.06007 0.70927 0.61607 0.0
H248 H 0.12393 0.91158 0.84022 0.0
H249 H 0.06078 0.88966 0.8498 0.0
H250 H 0.12559 0.84222 0.84677 0.0
H251 H 0.96337 0.75032 0.8533 0.0
H252 H 0.13261 0.66447 0.842 0.0
H253 H 0.9629 0.80362 0.74185 0.0
H254 H 0.97677 0.85686 0.80233 0.0
H255 H 0.92726 0.81289 0.80328 0.0
H256 H 0.17058 0.70396 0.73214 0.0
H257 H 0.19833 0.68254 0.7909 0.0
H258 H 0.1865 0.7557 0.79289 0.0
C259 C 0.41538 0.98349 0.83952 0.0
C260 C 0.4232 0.94516 0.86999 0.0
C261 C 0.37376 0.98186 0.79905 0.0
C262 C 0.33915 0.94071 0.78857 0.0
C263 C 0.34815 0.9004 0.81759 0.0
C264 C 0.39024 0.90297 0.85788 0.0
C265 C 0.36544 1.02563 0.76892 0.0
C266 C 0.31202 0.85597 0.80757 0.0
C267 C 0.2011 0.98267 0.72208 0.0
C268 C 0.21353 0.95829 0.66706 0.0
C269 C 0.24059 0.97456 0.76259 0.0
C270 C 0.29333 0.9409 0.74748 0.0
C271 C 0.30429 0.91264 0.69219 0.0
C272 C 0.26435 0.92187 0.65263 0.0
C273 C 0.22718 1.00507 0.82125 0.0
C274 C 0.35951 0.87536 0.67456 0.0
H275 H 0.44052 1.01625 0.84867 0.0
H276 H 0.39542 0.87353 0.88163 0.0
H277 H 0.36829 1.00483 0.7246 0.0
H278 H 0.32331 0.05154 0.77662 0.0
H279 H 0.39655 0.05409 0.78125 0.0
H280 H 0.26862 0.87629 0.81881 0.0
H281 H 0.3113 0.83226 0.76384 0.0
H282 H 0.32652 0.8257 0.8313 0.0
H283 H 0.16167 1.01039 0.73351 0.0
H284 H 0.27382 0.90196 0.61016 0.0
H285 H 0.25186 0.03939 0.83656 0.0
H286 H 0.23865 0.9761 0.84664 0.0
H287 H 0.18241 1.02376 0.82665 0.0
H288 H 0.39227 0.90169 0.68127 0.0
H289 H 0.35884 0.85085 0.63098 0.0
H290 H 0.37133 0.84558 0.69911 0.0
C291 C 0.07706 0.34067 0.8499 0.0
C292 C 0.04234 0.39341 0.85869 0.0
C293 C 0.08884 0.30534 0.79759 0.0
C294 C 0.06678 0.3238 0.75255 0.0
C295 C 0.03753 0.3797 0.76106 0.0
C296 C 0.02492 0.41388 0.81432 0.0
C297 C 0.12056 0.24629 0.79092 0.0
C298 C 0.01664 0.4022 0.71406 0.0
C299 C 0.11781 0.20945 0.62518 0.0
C300 C 0.07426 0.17863 0.61457 0.0
C301 C 0.1134 0.2613 0.66616 0.0
C302 C 0.06562 0.2809 0.69875 0.0
C303 C 0.02022 0.25164 0.68563 0.0
C304 C 0.02476 0.20154 0.64308 0.0
C305 C 0.16137 0.29292 0.67653 0.0
C306 C 0.96888 0.26993 0.71986 0.0
H307 H 0.09263 0.32536 0.88411 0.0
H308 H 0.99936 0.45522 0.82089 0.0
H309 H 0.0932 0.21521 0.77133 0.0
H310 H 0.15652 0.23759 0.76436 0.0
H311 H 0.13625 0.23938 0.83028 0.0
H312 H 1.0107 0.44894 0.72637 0.0
H313 H 0.04585 0.38486 0.67985 0.0
H314 H 0.97595 0.38969 0.6993 0.0
H315 H 0.15577 0.19243 0.60251 0.0
H316 H 0.9908 0.17806 0.63504 0.0
H317 H 0.19172 0.27749 0.7051 0.0
H318 H 0.14734 0.33887 0.69453 0.0
H319 H 0.18333 0.28572 0.63836 0.0
H320 H 0.9802 0.26633 0.76124 0.0
H321 H 0.9363 0.24403 0.70252 0.0
H322 H 0.95094 0.31461 0.72398 0.0
C323 C 0.70181 0.09312 0.80168 0.0
C324 C 0.69766 0.03956 0.80488 0.0
C325 C 0.74175 0.09996 0.76856 0.0
C326 C 0.77837 0.05216 0.73773 0.0
C327 C 0.77331 0.99805 0.73999 0.0
C328 C 0.73329 0.9925 0.77323 0.0
C329 C 0.74564 0.15842 0.76748 0.0
C330 C 0.81146 0.94582 0.7085 0.0
C331 C 0.86037 0.05038 0.61677 0.0
C332 C 0.91414 0.05316 0.63942 0.0
C333 C 0.81521 0.05289 0.64871 0.0
C334 C 0.82372 0.05802 0.70479 0.0
C335 C 0.87743 0.06308 0.72821 0.0
C336 C 0.9217 0.06077 0.69548 0.0
C337 C 0.75878 0.04781 0.62192 0.0
C338 C 0.88883 0.06843 0.78757 0.0
H339 H 0.67506 0.12984 0.82629 0.0
H340 H 0.73074 0.95083 0.77519 0.0
H341 H 0.78775 0.16763 0.78114 0.0
H342 H 0.73926 0.16108 0.72533 0.0
H343 H 0.71453 0.19129 0.79379 0.0
H344 H 0.80103 0.90664 0.71313 0.0
H345 H 0.80923 0.94294 0.66475 0.0
H346 H 0.85508 0.94821 0.72262 0.0
H347 H 0.85369 0.04489 0.57368 0.0
H348 H 0.96276 0.06338 0.71379 0.0
H349 H 0.72657 0.08173 0.6454 0.0
H350 H 0.74784 1.00703 0.62133 0.0
H351 H 0.75744 0.05002 0.57957 0.0
H352 H 0.8573 0.10174 0.81266 0.0
H353 H 0.93077 0.07848 0.80108 0.0
H354 H 0.88578 1.02823 0.79523 0.0
C355 C 0.17739 0.38744 0.07169 0.0
C356 C 0.15346 0.40875 0.02928 0.0
C357 C 0.2241 0.34415 0.06377 0.0
C358 C 0.24803 0.3207 0.01185 0.0
C359 C 0.22612 0.34423 0.96947 0.0
C360 C 0.17919 0.38806 0.9787 0.0
C361 C 0.24547 0.32094 0.11038 0.0
C362 C 0.24981 0.32084 0.91339 0.0
C363 C 0.38659 0.22011 0.01276 0.0
C364 C 0.3687 0.16818 1.00205 0.0
C365 C 0.3485 0.26979 0.01254 0.0
C366 C 0.29114 0.26769 1.00143 0.0
C367 C 0.27378 0.21471 0.987 0.0
C368 C 0.31248 0.16602 0.98747 0.0
C369 C 0.36918 0.32501 0.02701 0.0
C370 C 0.21345 0.20974 0.97431 0.0
H371 H 0.15794 0.40316 0.11096 0.0
H372 H 0.1607 0.40361 0.94544 0.0
H373 H 0.2372 0.27739 0.10139 0.0
H374 H 0.29107 0.31889 0.11567 0.0
H375 H 0.22551 0.34674 0.14923 0.0
H376 H 0.23701 0.35063 0.88888 0.0
H377 H 0.29586 0.31097 0.91541 0.0
H378 H 0.23455 0.28111 0.89208 0.0
H379 H 0.42978 0.22252 0.02386 0.0
H380 H 0.29801 0.12619 0.97822 0.0
H381 H 0.35507 0.35095 0.06813 0.0
H382 H 0.35163 0.34906 0.99825 0.0
H383 H 0.41525 0.3189 0.02676 0.0
H384 H 0.18889 0.23044 0.01158 0.0
H385 H 0.20742 0.16518 0.95882 0.0
H386 H 0.19642 0.23154 0.94368 0.0
C387 C 0.20058 0.704 0.95479 0.0
C388 C 0.15089 0.71132 0.98118 0.0
C389 C 0.2278 0.74943 0.96162 0.0
C390 C 0.20489 0.80282 0.99635 0.0
C391 C 0.15201 0.81159 0.0187 0.0
C392 C 0.1253 0.76547 0.01055 0.0
C393 C 0.28342 0.73907 0.93557 0.0
C394 C 0.12601 0.86823 0.05515 0.0
C395 C 0.32143 0.87341 0.07021 0.0
C396 C 0.3274 0.90714 0.03784 0.0
C397 C 0.27782 0.84306 0.06018 0.0
C398 C 0.24065 0.84579 0.0159 0.0
C399 C 0.24394 0.88339 0.98593 0.0
C400 C 0.28734 0.91413 0.99761 0.0
C401 C 0.27434 0.80468 0.09421 0.0
C402 C 0.20487 0.88762 0.93871 0.0
H403 H 0.21949 0.66229 0.93086 0.0
H404 H 0.08632 0.77128 0.0304 0.0
H405 H 0.28546 0.77212 0.91605 0.0
H406 H 0.31689 0.74089 0.9672 0.0
H407 H 0.29181 0.69729 0.90455 0.0
H408 H 0.08061 0.8712 0.05887 0.0
H409 H 0.14546 0.87455 0.09626 0.0
H410 H 0.13307 0.90292 0.03994 0.0
H411 H 0.35202 0.86913 0.10199 0.0
H412 H 0.29205 0.94055 0.97266 0.0
H413 H 0.28668 0.76016 0.06963 0.0
H414 H 0.23109 0.81003 0.10726 0.0
H415 H 0.30191 0.81282 0.13089 0.0
H416 H 0.1618 0.88613 0.94777 0.0
H417 H 0.21819 0.85134 0.90279 0.0
H418 H 0.20489 0.92691 0.92785 0.0
C419 C 0.73302 0.18154 0.02839 0.0
C420 C 0.73269 0.12772 0.99207 0.0
C421 C 0.77789 0.20901 0.03199 0.0
C422 C 0.82412 0.18197 0.99862 0.0
C423 C 0.82603 0.1261 0.9645 0.0
C424 C 0.77992 0.09953 0.96138 0.0
C425 C 0.77383 0.26873 0.06886 0.0
C426 C 0.87632 0.09478 0.93112 0.0
C427 C 0.8757 0.29493 0.96169 0.0
C428 C 0.91352 0.31142 1.00458 0.0
C429 C 0.8508 0.24816 0.95552 0.0
C430 C 0.86413 0.21684 0.9931 0.0
C431 C 0.90684 0.22915 0.03262 0.0
C432 C 0.93073 0.27703 0.03851 0.0
C433 C 0.80645 0.23556 0.91175 0.0
C434 C 0.92453 0.19408 0.07087 0.0
H435 H 0.69731 0.20336 0.05327 0.0
H436 H 0.78052 0.05732 0.93434 0.0
H437 H 0.81176 0.27338 0.09484 0.0
H438 H 0.77036 0.29819 0.04399 0.0
H439 H 0.7373 0.28168 0.09556 0.0
H440 H 0.86778 0.05569 0.90032 0.0
H441 H 0.89126 0.1217 0.9104 0.0
H442 H 0.91055 0.08303 0.95843 0.0
H443 H 0.86362 0.31985 0.93381 0.0
H444 H 0.96116 0.28849 0.07075 0.0
H445 H 0.76504 0.24692 0.93062 0.0
H446 H 0.81288 0.18997 0.88958 0.0
H447 H 0.80587 0.25944 0.88195 0.0
H448 H 0.96755 0.19747 0.08665 0.0
H449 H 0.9224 0.14909 0.05056 0.0
H450 H 0.89616 0.20904 0.10571 0.0
C451 C 0.82292 0.65403 0.98813 0.0
C452 C 0.8728 0.67316 0.00823 0.0
C453 C 0.77303 0.69251 0.98607 0.0
C454 C 0.77286 0.75153 1.00424 0.0
C455 C 0.82237 0.77073 0.0275 0.0
C456 C 0.87116 0.73167 0.02935 0.0
C457 C 0.72112 0.66993 0.96201 0.0
C458 C 0.82495 0.83285 0.04749 0.0
C459 C 0.68208 0.85283 0.93622 0.0
C460 C 0.64392 0.88532 0.97658 0.0
C461 C 0.72193 0.80762 0.94374 0.0
C462 C 0.72409 0.79327 0.99285 0.0
C463 C 0.68356 0.82353 0.03259 0.0
C464 C 0.64413 0.86924 0.02412 0.0
C465 C 0.76406 0.77742 0.90014 0.0
C466 C 0.68355 0.80955 0.08529 0.0
H467 H 0.82331 0.60915 0.97184 0.0
H468 H 0.90896 0.7474 0.0458 0.0
H469 H 0.68481 0.69332 0.98746 0.0
H470 H 0.71247 0.676 0.92123 0.0
H471 H 0.72521 0.62434 0.95783 0.0
H472 H 0.86501 0.84117 0.06867 0.0
H473 H 0.81975 0.85046 0.01258 0.0
H474 H 0.79064 0.8558 0.07565 0.0
H475 H 0.6823 0.86408 0.89897 0.0
H476 H 0.6152 0.89385 0.05576 0.0
H477 H 0.76595 0.73124 0.88935 0.0
H478 H 0.80595 0.78616 0.91556 0.0
H479 H 0.75444 0.79073 0.86275 0.0
H480 H 0.69024 0.76327 0.07806 0.0
H481 H 0.64403 0.82888 0.10709 0.0
H482 H 0.71814 0.82558 0.11194 0.0
loop_
_geom_bond_atom_site_label_1
_geom_bond_atom_site_label_2
_geom_bond_distance
_geom_bond_site_symmetry_2
_ccdc_geom_bond_type
Co0 O3 2.042 . S
Co0 O10 2.264 . S
Co0 O29 2.286 . S
Co0 O30 2.069 . S
Co0 O32 2.015 1_455 S
Co1 O3 2.122 1_545 S
Co1 O9 2.073 1_545 S
Co1 O10 2.327 1_545 S
Co1 O11 1.976 . S
Co2 O3 2.087 1_545 S
Co2 O5 2.087 1_455 S
Co2 O12 2.111 . S
Co2 O13 2.143 . S
Co2 O17 2.111 1_445 S
Co2 O31 2.143 1_445 S
O3 Co0 2.042 . S
O3 Co1 2.122 1_565 S
O3 Co2 2.087 1_565 S
O3 H4 0.980 . S
H4 O3 0.980 . S
O5 Co2 2.087 1_655 S
O5 Co6 2.042 . S
O5 Co7 2.122 1_545 S
O5 H8 0.980 . S
Co6 O5 2.042 . S
Co6 O14 2.286 . S
Co6 O15 2.069 . S
Co6 O16 2.015 1_655 S
Co6 O19 2.264 . S
Co7 O5 2.122 1_565 S
Co7 O18 1.976 . S
Co7 O19 2.327 1_565 S
Co7 O20 2.073 1_565 S
H8 O5 0.980 . S
O9 Co1 2.073 1_565 S
O9 C24 1.245 . S
O10 Co0 2.264 . S
O10 Co1 2.327 1_565 S
O10 C24 1.257 . S
O11 Co1 1.976 . S
O11 C23 1.251 . S
O12 Co2 2.111 . S
O12 C23 1.274 . S
O13 Co2 2.143 . S
O13 C26 1.246 1_545 S
O14 Co6 2.286 . S
O14 C25 1.259 . S
O15 Co6 2.069 . S
O15 C25 1.289 . S
O16 Co6 2.015 1_455 S
O16 C26 1.257 1_545 S
O17 Co2 2.111 1_665 S
O17 C27 1.274 . S
O18 Co7 1.976 . S
O18 C27 1.251 . S
O19 Co6 2.264 . S
O19 Co7 2.327 1_545 S
O19 C28 1.257 . S
O20 Co7 2.073 1_545 S
O20 C28 1.245 . S
C21 O29 1.259 . S
C21 O30 1.289 . S
C22 O31 1.246 1_545 S
C22 O32 1.257 1_545 S
C23 O11 1.251 . S
C23 O12 1.274 . S
C24 O9 1.245 . S
C24 O10 1.257 . S
C25 O14 1.259 . S
C25 O15 1.289 . S
C26 O13 1.246 1_565 S
C26 O16 1.257 1_565 S
C27 O17 1.274 . S
C27 O18 1.251 . S
C28 O19 1.257 . S
C28 O20 1.245 . S
O29 Co0 2.286 . S
O29 C21 1.259 . S
O30 Co0 2.069 . S
O30 C21 1.289 . S
O31 Co2 2.143 1_665 S
O31 C22 1.246 1_565 S
O32 Co0 2.015 1_655 S
O32 C22 1.257 1_565 S
Co33 O36 2.042 . S
Co33 O43 2.264 . S
Co33 O62 2.286 1_545 S
Co33 O63 2.069 . S
Co33 O65 2.015 1_545 S
Co34 O36 2.122 1_554 S
Co34 O42 2.073 . S
Co34 O43 2.327 1_554 S
Co34 O44 1.976 . S
Co35 O36 2.087 1_554 S
Co35 O38 2.087 1_545 S
Co35 O45 2.111 . S
Co35 O46 2.143 . S
Co35 O50 2.111 1_544 S
Co35 O64 2.143 1_544 S
O36 Co33 2.042 . S
O36 Co34 2.122 1_556 S
O36 Co35 2.087 1_556 S
O36 H37 0.980 . S
H37 O36 0.980 . S
O38 Co35 2.087 1_565 S
O38 Co39 2.042 . S
O38 Co40 2.122 1_554 S
O38 H41 0.980 . S
Co39 O38 2.042 . S
Co39 O47 2.286 1_565 S
Co39 O48 2.069 . S
Co39 O49 2.015 1_565 S
Co39 O52 2.264 . S
Co40 O38 2.122 1_556 S
Co40 O51 1.976 . S
Co40 O52 2.327 1_556 S
Co40 O53 2.073 . S
H41 O38 0.980 . S
O42 Co34 2.073 . S
O42 C57 1.245 1_554 S
O43 Co33 2.264 . S
O43 Co34 2.327 1_556 S
O43 C57 1.257 . S
O44 Co34 1.976 . S
O44 C56 1.251 . S
O45 Co35 2.111 . S
O45 C56 1.274 . S
O46 Co35 2.143 . S
O46 C59 1.246 . S
O47 Co39 2.286 1_545 S
O47 C58 1.259 1_545 S
O48 Co39 2.069 . S
O48 C58 1.289 . S
O49 Co39 2.015 1_545 S
O49 C59 1.257 . S
O50 Co35 2.111 1_566 S
O50 C60 1.274 . S
O51 Co40 1.976 . S
O51 C60 1.251 . S
O52 Co39 2.264 . S
O52 Co40 2.327 1_554 S
O52 C61 1.257 . S
O53 Co40 2.073 . S
O53 C61 1.245 1_556 S
C54 O62 1.259 1_545 S
C54 O63 1.289 . S
C55 O64 1.246 . S
C55 O65 1.257 . S
C56 O44 1.251 . S
C56 O45 1.274 . S
C57 O42 1.245 1_556 S
C57 O43 1.257 . S
C58 O47 1.259 1_565 S
C58 O48 1.289 . S
C59 O46 1.246 . S
C59 O49 1.257 . S
C60 O50 1.274 . S
C60 O51 1.251 . S
C61 O52 1.257 . S
C61 O53 1.245 1_554 S
O62 Co33 2.286 1_565 S
O62 C54 1.259 1_565 S
O63 Co33 2.069 . S
O63 C54 1.289 . S
O64 Co35 2.143 1_566 S
O64 C55 1.246 . S
O65 Co33 2.015 1_565 S
O65 C55 1.257 . S
Co66 O69 2.042 . S
Co66 O76 2.264 . S
Co66 O95 2.286 1_655 S
Co66 O96 2.069 . S
Co66 O98 2.015 1_655 S
Co67 O69 2.122 1_556 S
Co67 O75 2.073 1_556 S
Co67 O76 2.327 1_556 S
Co67 O77 1.976 . S
Co68 O69 2.087 1_455 S
Co68 O71 2.087 1_554 S
Co68 O78 2.111 1_454 S
Co68 O79 2.143 1_454 S
Co68 O83 2.111 . S
Co68 O97 2.143 . S
O69 Co66 2.042 . S
O69 Co67 2.122 1_554 S
O69 Co68 2.087 1_655 S
O69 H70 0.980 . S
H70 O69 0.980 . S
O71 Co68 2.087 1_556 S
O71 Co72 2.042 . S
O71 Co73 2.122 1_556 S
O71 H74 0.980 . S
Co72 O71 2.042 . S
Co72 O80 2.286 1_455 S
Co72 O81 2.069 . S
Co72 O82 2.015 1_455 S
Co72 O85 2.264 . S
Co73 O71 2.122 1_554 S
Co73 O84 1.976 . S
Co73 O85 2.327 1_554 S
Co73 O86 2.073 1_554 S
H74 O71 0.980 . S
O75 Co67 2.073 1_554 S
O75 C90 1.245 . S
O76 Co66 2.264 . S
O76 Co67 2.327 1_554 S
O76 C90 1.257 . S
O77 Co67 1.976 . S
O77 C89 1.251 . S
O78 Co68 2.111 1_656 S
O78 C89 1.274 . S
O79 Co68 2.143 1_656 S
O79 C92 1.249 1_556 S
O80 Co72 2.286 1_655 S
O80 C91 1.259 1_655 S
O81 Co72 2.069 . S
O81 C91 1.289 . S
O82 Co72 2.015 1_655 S
O82 C92 1.248 1_556 S
O83 Co68 2.111 . S
O83 C93 1.274 . S
O84 Co73 1.976 . S
O84 C93 1.251 . S
O85 Co72 2.264 . S
O85 Co73 2.327 1_556 S
O85 C94 1.257 . S
O86 Co73 2.073 1_556 S
O86 C94 1.245 . S
C87 O95 1.259 1_655 S
C87 O96 1.289 . S
C88 O97 1.248 1_556 S
C88 O98 1.251 1_556 S
C89 O77 1.251 . S
C89 O78 1.274 . S
C90 O75 1.245 . S
C90 O76 1.257 . S
C91 O80 1.259 1_455 S
C91 O81 1.289 . S
C92 O79 1.249 1_554 S
C92 O82 1.248 1_554 S
C93 O83 1.274 . S
C93 O84 1.251 . S
C94 O85 1.257 . S
C94 O86 1.245 . S
O95 Co66 2.286 1_455 S
O95 C87 1.259 1_455 S
O96 Co66 2.069 . S
O96 C87 1.289 . S
O97 Co68 2.143 . S
O97 C88 1.248 1_554 S
O98 Co66 2.015 1_455 S
O98 C88 1.251 1_554 S
C99 C100 1.391 . S
C99 C101 1.394 . S
C99 H115 0.931 . S
C100 C99 1.391 . S
C100 C104 1.376 . S
C101 C99 1.394 . S
C101 C102 1.369 . S
C101 C105 1.531 . S
C102 C101 1.369 . S
C102 C103 1.410 . S
C102 C110 1.503 . S
C103 C102 1.410 . S
C103 C104 1.392 . S
C103 C106 1.511 1_655 S
C104 C100 1.376 . S
C104 C103 1.392 . S
C104 H116 0.929 1_655 S
C105 C101 1.531 . S
C105 H117 0.960 . S
C105 H118 0.962 . S
C105 H119 0.960 . S
C106 C103 1.511 1_455 S
C106 H120 0.961 . S
C106 H121 0.961 . S
C106 H122 0.961 . S
C107 C108 1.370 . S
C107 C109 1.363 . S
C107 H123 0.931 . S
C108 C107 1.370 . S
C108 C112 1.408 . S
C109 C107 1.363 . S
C109 C110 1.370 . S
C109 C113 1.524 . S
C110 C102 1.503 . S
C110 C109 1.370 . S
C110 C111 1.403 . S
C111 C110 1.403 . S
C111 C112 1.404 . S
C111 C114 1.539 1_655 S
C112 C108 1.408 . S
C112 C111 1.404 . S
C112 H124 0.930 . S
C113 C109 1.524 . S
C113 H125 0.956 . S
C113 H126 0.961 . S
C113 H127 0.961 . S
C114 C111 1.539 1_455 S
C114 H128 0.958 . S
C114 H129 0.961 . S
C114 H130 0.960 . S
H115 C99 0.931 . S
H116 C104 0.929 1_455 S
H117 C105 0.960 . S
H118 C105 0.962 . S
H119 C105 0.960 . S
H120 C106 0.961 . S
H121 C106 0.961 . S
H122 C106 0.961 . S
H123 C107 0.931 . S
H124 C112 0.930 . S
H125 C113 0.956 . S
H126 C113 0.961 . S
H127 C113 0.961 . S
H128 C114 0.958 . S
H129 C114 0.961 . S
H130 C114 0.960 . S
C131 C132 1.391 . S
C131 C133 1.394 . S
C131 H147 0.931 . S
C132 C131 1.391 . S
C132 C136 1.376 . S
C133 C131 1.394 . S
C133 C134 1.369 . S
C133 C137 1.531 . S
C134 C133 1.369 . S
C134 C135 1.410 . S
C134 C142 1.503 . S
C135 C134 1.410 . S
C135 C136 1.392 . S
C135 C138 1.511 1_545 S
C136 C132 1.376 . S
C136 C135 1.392 . S
C136 H148 0.929 . S
C137 C133 1.531 . S
C137 H149 0.960 . S
C137 H150 0.962 . S
C137 H151 0.960 . S
C138 C135 1.511 1_565 S
C138 H152 0.961 . S
C138 H153 0.961 . S
C138 H154 0.961 1_565 S
C139 C140 1.370 1_565 S
C139 C141 1.363 . S
C139 H155 0.931 . S
C140 C139 1.370 1_545 S
C140 C144 1.408 . S
C141 C139 1.363 . S
C141 C142 1.370 1_565 S
C141 C145 1.524 . S
C142 C134 1.503 . S
C142 C141 1.370 1_545 S
C142 C143 1.403 . S
C143 C142 1.403 . S
C143 C144 1.404 . S
C143 C146 1.539 . S
C144 C140 1.408 . S
C144 C143 1.404 . S
C144 H156 0.930 . S
C145 C141 1.524 . S
C145 H157 0.956 . S
C145 H158 0.961 . S
C145 H159 0.961 . S
C146 C143 1.539 . S
C146 H160 0.958 . S
C146 H161 0.961 . S
C146 H162 0.960 . S
H147 C131 0.931 . S
H148 C136 0.929 . S
H149 C137 0.960 . S
H150 C137 0.962 . S
H151 C137 0.960 . S
H152 C138 0.961 . S
H153 C138 0.961 . S
H154 C138 0.961 1_545 S
H155 C139 0.931 . S
H156 C144 0.930 . S
H157 C145 0.956 . S
H158 C145 0.961 . S
H159 C145 0.961 . S
H160 C146 0.958 . S
H161 C146 0.961 . S
H162 C146 0.960 . S
C163 C164 1.391 . S
C163 C165 1.394 . S
C163 H179 0.931 . S
C164 C163 1.391 . S
C164 C168 1.376 1_455 S
C165 C163 1.394 . S
C165 C166 1.369 1_455 S
C165 C169 1.531 . S
C166 C165 1.369 1_655 S
C166 C167 1.410 . S
C166 C174 1.503 . S
C167 C166 1.410 . S
C167 C168 1.392 . S
C167 C170 1.511 . S
C168 C164 1.376 1_655 S
C168 C167 1.392 . S
C168 H180 0.929 . S
C169 C165 1.531 . S
C169 H181 0.960 . S
C169 H182 0.962 . S
C169 H183 0.960 . S
C170 C167 1.511 . S
C170 H184 0.961 . S
C170 H185 0.961 . S
C170 H186 0.961 . S
C171 C172 1.370 1_455 S
C171 C173 1.363 . S
C171 H187 0.931 . S
C172 C171 1.370 1_655 S
C172 C176 1.408 . S
C173 C171 1.363 . S
C173 C174 1.370 1_455 S
C173 C177 1.524 . S
C174 C166 1.503 . S
C174 C173 1.370 1_655 S
C174 C175 1.403 . S
C175 C174 1.403 . S
C175 C176 1.404 . S
C175 C178 1.539 . S
C176 C172 1.408 . S
C176 C175 1.404 . S
C176 H188 0.930 . S
C177 C173 1.524 . S
C177 H189 0.956 . S
C177 H190 0.961 . S
C177 H191 0.961 . S
C178 C175 1.539 . S
C178 H192 0.958 . S
C178 H193 0.961 . S
C178 H194 0.960 . S
H179 C163 0.931 . S
H180 C168 0.929 . S
H181 C169 0.960 . S
H182 C169 0.962 . S
H183 C169 0.960 . S
H184 C170 0.961 . S
H185 C170 0.961 . S
H186 C170 0.961 . S
H187 C171 0.931 . S
H188 C176 0.930 . S
H189 C177 0.956 . S
H190 C177 0.961 . S
H191 C177 0.961 . S
H192 C178 0.958 . S
H193 C178 0.961 . S
H194 C178 0.960 . S
C195 C196 1.391 1_545 S
C195 C197 1.394 . S
C195 H211 0.931 . S
C196 C195 1.391 1_565 S
C196 C200 1.376 . S
C197 C195 1.394 . S
C197 C198 1.369 1_545 S
C197 C201 1.531 . S
C198 C197 1.369 1_565 S
C198 C199 1.410 . S
C198 C206 1.503 . S
C199 C198 1.410 . S
C199 C200 1.392 . S
C199 C202 1.511 . S
C200 C196 1.376 . S
C200 C199 1.392 . S
C200 H212 0.929 . S
C201 C197 1.531 . S
C201 H213 0.960 . S
C201 H214 0.962 . S
C201 H215 0.960 . S
C202 C199 1.511 . S
C202 H216 0.961 . S
C202 H217 0.961 . S
C202 H218 0.961 . S
C203 C204 1.370 . S
C203 C205 1.363 . S
C203 H219 0.931 . S
C204 C203 1.370 . S
C204 C208 1.408 . S
C205 C203 1.363 . S
C205 C206 1.370 . S
C205 C209 1.524 . S
C206 C198 1.503 . S
C206 C205 1.370 . S
C206 C207 1.403 1_565 S
C207 C206 1.403 1_545 S
C207 C208 1.404 1_545 S
C207 C210 1.539 . S
C208 C204 1.408 . S
C208 C207 1.404 1_565 S
C208 H220 0.930 1_565 S
C209 C205 1.524 . S
C209 H221 0.956 . S
C209 H222 0.961 . S
C209 H223 0.961 . S
C210 C207 1.539 . S
C210 H224 0.958 . S
C210 H225 0.961 . S
C210 H226 0.960 . S
H211 C195 0.931 . S
H212 C200 0.929 . S
H213 C201 0.960 . S
H214 C201 0.962 . S
H215 C201 0.960 . S
H216 C202 0.961 . S
H217 C202 0.961 . S
H218 C202 0.961 . S
H219 C203 0.931 . S
H220 C208 0.930 1_545 S
H221 C209 0.956 . S
H222 C209 0.961 . S
H223 C209 0.961 . S
H224 C210 0.958 . S
H225 C210 0.961 . S
H226 C210 0.960 . S
C227 C228 1.391 . S
C227 C229 1.394 . S
C227 H243 0.931 . S
C228 C227 1.391 . S
C228 C232 1.376 . S
C229 C227 1.394 . S
C229 C230 1.369 . S
C229 C233 1.531 1_455 S
C230 C229 1.369 . S
C230 C231 1.410 . S
C230 C238 1.503 . S
C231 C230 1.410 . S
C231 C232 1.392 . S
C231 C234 1.511 . S
C232 C228 1.376 . S
C232 C231 1.392 . S
C232 H244 0.929 . S
C233 C229 1.531 1_655 S
C233 H245 0.960 1_655 S
C233 H246 0.962 . S
C233 H247 0.960 . S
C234 C231 1.511 . S
C234 H248 0.961 . S
C234 H249 0.961 . S
C234 H250 0.961 . S
C235 C236 1.370 . S
C235 C237 1.363 . S
C235 H251 0.931 1_455 S
C236 C235 1.370 . S
C236 C240 1.408 . S
C237 C235 1.363 . S
C237 C238 1.370 . S
C237 C241 1.524 1_455 S
C238 C230 1.503 . S
C238 C237 1.370 . S
C238 C239 1.403 . S
C239 C238 1.403 . S
C239 C240 1.404 . S
C239 C242 1.539 . S
C240 C236 1.408 . S
C240 C239 1.404 . S
C240 H252 0.930 . S
C241 C237 1.524 1_655 S
C241 H253 0.956 . S
C241 H254 0.961 1_655 S
C241 H255 0.961 . S
C242 C239 1.539 . S
C242 H256 0.958 . S
C242 H257 0.961 . S
C242 H258 0.960 . S
H243 C227 0.931 . S
H244 C232 0.929 . S
H245 C233 0.960 1_455 S
H246 C233 0.962 . S
H247 C233 0.960 . S
H248 C234 0.961 . S
H249 C234 0.961 . S
H250 C234 0.961 . S
H251 C235 0.931 1_655 S
H252 C240 0.930 . S
H253 C241 0.956 . S
H254 C241 0.961 1_455 S
H255 C241 0.961 . S
H256 C242 0.958 . S
H257 C242 0.961 . S
H258 C242 0.960 . S
C259 C260 1.391 1_545 S
C259 C261 1.394 1_545 S
C259 H275 0.931 . S
C260 C259 1.391 1_565 S
C260 C264 1.376 . S
C261 C259 1.394 1_565 S
C261 C262 1.369 . S
C261 C265 1.531 1_565 S
C262 C261 1.369 . S
C262 C263 1.410 . S
C262 C270 1.503 . S
C263 C262 1.410 . S
C263 C264 1.392 . S
C263 C266 1.511 . S
C264 C260 1.376 . S
C264 C263 1.392 . S
C264 H276 0.929 . S
C265 C261 1.531 1_545 S
C265 H277 0.960 1_545 S
C265 H278 0.962 . S
C265 H279 0.960 . S
C266 C263 1.511 . S
C266 H280 0.961 . S
C266 H281 0.961 . S
C266 H282 0.961 . S
C267 C268 1.370 . S
C267 C269 1.363 1_565 S
C267 H283 0.931 1_565 S
C268 C267 1.370 . S
C268 C272 1.408 . S
C269 C267 1.363 1_545 S
C269 C270 1.370 1_545 S
C269 C273 1.524 . S
C270 C262 1.503 . S
C270 C269 1.370 1_565 S
C270 C271 1.403 . S
C271 C270 1.403 . S
C271 C272 1.404 . S
C271 C274 1.539 . S
C272 C268 1.408 . S
C272 C271 1.404 . S
C272 H284 0.930 . S
C273 C269 1.524 . S
C273 H285 0.956 . S
C273 H286 0.961 . S
C273 H287 0.961 . S
C274 C271 1.539 . S
C274 H288 0.958 . S
C274 H289 0.961 . S
C274 H290 0.960 . S
H275 C259 0.931 . S
H276 C264 0.929 . S
H277 C265 0.960 1_565 S
H278 C265 0.962 . S
H279 C265 0.960 . S
H280 C266 0.961 . S
H281 C266 0.961 . S
H282 C266 0.961 . S
H283 C267 0.931 1_545 S
H284 C272 0.930 . S
H285 C273 0.956 . S
H286 C273 0.961 . S
H287 C273 0.961 . S
H288 C274 0.958 . S
H289 C274 0.961 . S
H290 C274 0.960 . S
C291 C292 1.391 . S
C291 C293 1.394 . S
C291 H307 0.931 . S
C292 C291 1.391 . S
C292 C296 1.376 1_455 S
C293 C291 1.394 . S
C293 C294 1.369 1_455 S
C293 C297 1.531 . S
C294 C293 1.369 1_655 S
C294 C295 1.410 . S
C294 C302 1.503 . S
C295 C294 1.410 . S
C295 C296 1.392 . S
C295 C298 1.511 . S
C296 C292 1.376 1_655 S
C296 C295 1.392 . S
C296 H308 0.929 . S
C297 C293 1.531 . S
C297 H309 0.960 . S
C297 H310 0.962 . S
C297 H311 0.960 . S
C298 C295 1.511 . S
C298 H312 0.961 . S
C298 H313 0.961 . S
C298 H314 0.961 . S
C299 C300 1.370 1_455 S
C299 C301 1.363 . S
C299 H315 0.931 . S
C300 C299 1.370 1_655 S
C300 C304 1.408 . S
C301 C299 1.363 . S
C301 C302 1.370 1_455 S
C301 C305 1.524 . S
C302 C294 1.503 . S
C302 C301 1.370 1_655 S
C302 C303 1.403 . S
C303 C302 1.403 . S
C303 C304 1.404 . S
C303 C306 1.539 . S
C304 C300 1.408 . S
C304 C303 1.404 . S
C304 H316 0.930 . S
C305 C301 1.524 . S
C305 H317 0.956 . S
C305 H318 0.961 . S
C305 H319 0.961 . S
C306 C303 1.539 . S
C306 H320 0.958 . S
C306 H321 0.961 . S
C306 H322 0.960 . S
H307 C291 0.931 . S
H308 C296 0.929 . S
H309 C297 0.960 . S
H310 C297 0.962 . S
H311 C297 0.960 . S
H312 C298 0.961 . S
H313 C298 0.961 . S
H314 C298 0.961 . S
H315 C299 0.931 . S
H316 C304 0.930 . S
H317 C305 0.956 . S
H318 C305 0.961 . S
H319 C305 0.961 . S
H320 C306 0.958 . S
H321 C306 0.961 . S
H322 C306 0.960 . S
C323 C324 1.391 . S
C323 C325 1.394 . S
C323 H339 0.931 . S
C324 C323 1.391 . S
C324 C328 1.376 1_545 S
C325 C323 1.394 . S
C325 C326 1.369 . S
C325 C329 1.531 . S
C326 C325 1.369 . S
C326 C327 1.410 1_545 S
C326 C334 1.503 . S
C327 C326 1.410 1_565 S
C327 C328 1.392 . S
C327 C330 1.511 . S
C328 C324 1.376 1_565 S
C328 C327 1.392 . S
C328 H340 0.929 . S
C329 C325 1.531 . S
C329 H341 0.960 . S
C329 H342 0.962 . S
C329 H343 0.960 . S
C330 C327 1.511 . S
C330 H344 0.961 . S
C330 H345 0.961 . S
C330 H346 0.961 . S
C331 C332 1.370 1_565 S
C331 C333 1.363 . S
C331 H347 0.931 . S
C332 C331 1.370 1_545 S
C332 C336 1.408 . S
C333 C331 1.363 . S
C333 C334 1.370 1_565 S
C333 C337 1.524 . S
C334 C326 1.503 . S
C334 C333 1.370 1_545 S
C334 C335 1.403 . S
C335 C334 1.403 . S
C335 C336 1.404 . S
C335 C338 1.539 . S
C336 C332 1.408 . S
C336 C335 1.404 . S
C336 H348 0.930 . S
C337 C333 1.524 . S
C337 H349 0.956 . S
C337 H350 0.961 . S
C337 H351 0.961 . S
C338 C335 1.539 . S
C338 H352 0.958 . S
C338 H353 0.961 . S
C338 H354 0.960 . S
H339 C323 0.931 . S
H340 C328 0.929 . S
H341 C329 0.960 . S
H342 C329 0.962 . S
H343 C329 0.960 . S
H344 C330 0.961 . S
H345 C330 0.961 . S
H346 C330 0.961 . S
H347 C331 0.931 . S
H348 C336 0.930 . S
H349 C337 0.956 . S
H350 C337 0.961 . S
H351 C337 0.961 . S
H352 C338 0.958 . S
H353 C338 0.961 . S
H354 C338 0.960 . S
C355 C356 1.391 1_554 S
C355 C357 1.394 . S
C355 H371 0.931 . S
C356 C355 1.391 1_556 S
C356 C360 1.376 . S
C357 C355 1.394 . S
C357 C358 1.369 1_554 S
C357 C361 1.531 . S
C358 C357 1.369 1_556 S
C358 C359 1.410 . S
C358 C366 1.503 . S
C359 C358 1.410 . S
C359 C360 1.392 . S
C359 C362 1.511 . S
C360 C356 1.376 . S
C360 C359 1.392 . S
C360 H372 0.929 . S
C361 C357 1.531 . S
C361 H373 0.960 . S
C361 H374 0.962 . S
C361 H375 0.960 . S
C362 C359 1.511 . S
C362 H376 0.961 . S
C362 H377 0.961 . S
C362 H378 0.961 . S
C363 C364 1.370 . S
C363 C365 1.363 . S
C363 H379 0.931 . S
C364 C363 1.370 . S
C364 C368 1.408 1_554 S
C365 C363 1.363 . S
C365 C366 1.370 1_554 S
C365 C369 1.524 . S
C366 C358 1.503 . S
C366 C365 1.370 1_556 S
C366 C367 1.403 . S
C367 C366 1.403 . S
C367 C368 1.404 . S
C367 C370 1.539 . S
C368 C364 1.408 1_556 S
C368 C367 1.404 . S
C368 H380 0.930 . S
C369 C365 1.524 . S
C369 H381 0.956 . S
C369 H382 0.961 1_554 S
C369 H383 0.961 . S
C370 C367 1.539 . S
C370 H384 0.958 1_556 S
C370 H385 0.961 . S
C370 H386 0.960 . S
H371 C355 0.931 . S
H372 C360 0.929 . S
H373 C361 0.960 . S
H374 C361 0.962 . S
H375 C361 0.960 . S
H376 C362 0.961 . S
H377 C362 0.961 . S
H378 C362 0.961 . S
H379 C363 0.931 . S
H380 C368 0.930 . S
H381 C369 0.956 . S
H382 C369 0.961 1_556 S
H383 C369 0.961 . S
H384 C370 0.958 1_554 S
H385 C370 0.961 . S
H386 C370 0.960 . S
C387 C388 1.391 . S
C387 C389 1.394 . S
C387 H403 0.931 . S
C388 C387 1.391 . S
C388 C392 1.376 . S
C389 C387 1.394 . S
C389 C390 1.369 . S
C389 C393 1.531 . S
C390 C389 1.369 . S
C390 C391 1.410 . S
C390 C398 1.503 . S
C391 C390 1.410 . S
C391 C392 1.392 . S
C391 C394 1.511 . S
C392 C388 1.376 . S
C392 C391 1.392 . S
C392 H404 0.929 . S
C393 C389 1.531 . S
C393 H405 0.960 . S
C393 H406 0.962 1_556 S
C393 H407 0.960 . S
C394 C391 1.511 . S
C394 H408 0.961 . S
C394 H409 0.961 . S
C394 H410 0.961 . S
C395 C396 1.370 . S
C395 C397 1.363 . S
C395 H411 0.931 . S
C396 C395 1.370 . S
C396 C400 1.408 1_554 S
C397 C395 1.363 . S
C397 C398 1.370 1_554 S
C397 C401 1.524 . S
C398 C390 1.503 . S
C398 C397 1.370 1_556 S
C398 C399 1.403 . S
C399 C398 1.403 . S
C399 C400 1.404 . S
C399 C402 1.539 . S
C400 C396 1.408 1_556 S
C400 C399 1.404 . S
C400 H412 0.930 . S
C401 C397 1.524 . S
C401 H413 0.956 . S
C401 H414 0.961 . S
C401 H415 0.961 . S
C402 C399 1.539 . S
C402 H416 0.958 . S
C402 H417 0.961 . S
C402 H418 0.960 . S
H403 C387 0.931 . S
H404 C392 0.929 . S
H405 C393 0.960 . S
H406 C393 0.962 1_554 S
H407 C393 0.960 . S
H408 C394 0.961 . S
H409 C394 0.961 . S
H410 C394 0.961 . S
H411 C395 0.931 . S
H412 C400 0.930 . S
H413 C401 0.956 . S
H414 C401 0.961 . S
H415 C401 0.961 . S
H416 C402 0.958 . S
H417 C402 0.961 . S
H418 C402 0.960 . S
C419 C420 1.391 1_554 S
C419 C421 1.394 . S
C419 H435 0.931 . S
C420 C419 1.391 1_556 S
C420 C424 1.376 . S
C421 C419 1.394 . S
C421 C422 1.369 . S
C421 C425 1.531 . S
C422 C421 1.369 . S
C422 C423 1.410 1_554 S
C422 C430 1.503 . S
C423 C422 1.410 1_556 S
C423 C424 1.392 . S
C423 C426 1.511 . S
C424 C420 1.376 . S
C424 C423 1.392 . S
C424 H436 0.929 . S
C425 C421 1.531 . S
C425 H437 0.960 . S
C425 H438 0.962 . S
C425 H439 0.960 . S
C426 C423 1.511 . S
C426 H440 0.961 . S
C426 H441 0.961 . S
C426 H442 0.961 . S
C427 C428 1.370 1_556 S
C427 C429 1.363 . S
C427 H443 0.931 . S
C428 C427 1.370 1_554 S
C428 C432 1.408 . S
C429 C427 1.363 . S
C429 C430 1.370 1_556 S
C429 C433 1.524 . S
C430 C422 1.503 . S
C430 C429 1.370 1_554 S
C430 C431 1.403 . S
C431 C430 1.403 . S
C431 C432 1.404 . S
C431 C434 1.539 . S
C432 C428 1.408 . S
C432 C431 1.404 . S
C432 H444 0.930 . S
C433 C429 1.524 . S
C433 H445 0.956 . S
C433 H446 0.961 . S
C433 H447 0.961 . S
C434 C431 1.539 . S
C434 H448 0.958 . S
C434 H449 0.961 . S
C434 H450 0.960 . S
H435 C419 0.931 . S
H436 C424 0.929 . S
H437 C425 0.960 . S
H438 C425 0.962 . S
H439 C425 0.960 . S
H440 C426 0.961 . S
H441 C426 0.961 . S
H442 C426 0.961 . S
H443 C427 0.931 . S
H444 C432 0.930 . S
H445 C433 0.956 . S
H446 C433 0.961 . S
H447 C433 0.961 . S
H448 C434 0.958 . S
H449 C434 0.961 . S
H450 C434 0.960 . S
C451 C452 1.391 . S
C451 C453 1.394 . S
C451 H467 0.931 . S
C452 C451 1.391 . S
C452 C456 1.376 . S
C453 C451 1.394 . S
C453 C454 1.369 . S
C453 C457 1.531 . S
C454 C453 1.369 . S
C454 C455 1.410 . S
C454 C462 1.503 . S
C455 C454 1.410 . S
C455 C456 1.392 . S
C455 C458 1.501 1_554 S
C456 C452 1.376 . S
C456 C455 1.392 . S
C456 H468 0.929 . S
C457 C453 1.531 . S
C457 H469 0.960 . S
C457 H470 0.962 . S
C457 H471 0.960 . S
C458 C455 1.501 1_556 S
C458 H472 0.973 . S
C458 H473 0.972 . S
C458 H474 0.948 1_556 S
C459 C460 1.370 . S
C459 C461 1.363 . S
C459 H475 0.931 . S
C460 C459 1.370 . S
C460 C464 1.408 1_556 S
C461 C459 1.363 . S
C461 C462 1.370 1_556 S
C461 C465 1.524 . S
C462 C454 1.503 . S
C462 C461 1.370 1_554 S
C462 C463 1.403 . S
C463 C462 1.403 . S
C463 C464 1.404 . S
C463 C466 1.539 . S
C464 C460 1.408 1_554 S
C464 C463 1.404 . S
C464 H476 0.930 . S
C465 C461 1.524 . S
C465 H477 0.956 . S
C465 H478 0.961 . S
C465 H479 0.961 . S
C466 C463 1.539 . S
C466 H480 0.958 . S
C466 H481 0.961 . S
C466 H482 0.960 . S
H467 C451 0.931 . S
H468 C456 0.929 . S
H469 C457 0.960 . S
H470 C457 0.962 . S
H471 C457 0.960 . S
H472 C458 0.973 . S
H473 C458 0.972 . S
H474 C458 0.948 1_554 S
H475 C459 0.931 . S
H476 C464 0.930 . S
H477 C465 0.956 . S
H478 C465 0.961 . S
H479 C465 0.961 . S
H480 C466 0.958 . S
H481 C466 0.961 . S
H482 C466 0.960 . S
C100 C87 1.725 . S
C108 C25 1.684 . S
C132 C28 1.228 . S
C140 C56 1.139 . S
C164 C27 1.086 1_455 S
C172 C93 1.148 1_655 S
C196 C58 1.956 . S
C204 C26 1.826 . S
C228 C21 1.718 . S
C236 C91 1.752 . S
C260 C60 1.128 . S
C268 C24 1.191 . S
C292 C89 1.075 1_455 S
C300 C23 1.134 1_655 S
C324 C54 1.964 . S
C332 C22 1.837 . S
C356 C88 2.051 . S
C364 C59 2.134 . S
C388 C94 1.162 . S
C396 C61 1.091 . S
C420 C57 1.072 . S
C428 C90 1.129 . S
C452 C92 2.082 . S
C460 C55 2.142 . S
