# Generated by pormake.
# Topology qtz-e, (6)-cn, num edge types: 1
# Building blocks:
#     Node 0, Type 0, BuildingBlock: CIFDUS_clean_sbu_1, # of connection points: 6
#     Node 1, Type 0, BuildingBlock: CIFDUS_clean_sbu_1, # of connection points: 6
#     Node 2, Type 0, BuildingBlock: CIFDUS_clean_sbu_1, # of connection points: 6
#     Node 3, Type 0, BuildingBlock: CIFDUS_clean_sbu_1, # of connection points: 6
#     Node 4, Type 0, BuildingBlock: CIFDUS_clean_sbu_1, # of connection points: 6
#     Node 5, Type 0, BuildingBlock: CIFDUS_clean_sbu_1, # of connection points: 6
#     Edge 6, Type (0, 0), BuildingBlock: XIVTED_clean_linker_0, # of connection points: 2
#     Edge 7, Type (0, 0), BuildingBlock: XIVTED_clean_linker_0, # of connection points: 2
#     Edge 8, Type (0, 0), BuildingBlock: XIVTED_clean_linker_0, # of connection points: 2
#     Edge 9, Type (0, 0), BuildingBlock: XIVTED_clean_linker_0, # of connection points: 2
#     Edge 10, Type (0, 0), BuildingBlock: XIVTED_clean_linker_0, # of connection points: 2
#     Edge 11, Type (0, 0), BuildingBlock: XIVTED_clean_linker_0, # of connection points: 2
#     Edge 12, Type (0, 0), BuildingBlock: XIVTED_clean_linker_0, # of connection points: 2
#     Edge 13, Type (0, 0), BuildingBlock: XIVTED_clean_linker_0, # of connection points: 2
#     Edge 14, Type (0, 0), BuildingBlock: XIVTED_clean_linker_0, # of connection points: 2
#     Edge 15, Type (0, 0), BuildingBlock: XIVTED_clean_linker_0, # of connection points: 2
#     Edge 16, Type (0, 0), BuildingBlock: XIVTED_clean_linker_0, # of connection points: 2
#     Edge 17, Type (0, 0), BuildingBlock: XIVTED_clean_linker_0, # of connection points: 2
#     Edge 18, Type (0, 0), BuildingBlock: XIVTED_clean_linker_0, # of connection points: 2
#     Edge 19, Type (0, 0), BuildingBlock: XIVTED_clean_linker_0, # of connection points: 2
#     Edge 20, Type (0, 0), BuildingBlock: XIVTED_clean_linker_0, # of connection points: 2
#     Edge 21, Type (0, 0), BuildingBlock: XIVTED_clean_linker_0, # of connection points: 2
#     Edge 22, Type (0, 0), BuildingBlock: XIVTED_clean_linker_0, # of connection points: 2
#     Edge 23, Type (0, 0), BuildingBlock: XIVTED_clean_linker_0, # of connection points: 2
# Relax obj value: 0.337
# Max RMSD: 0.227
# Mean RMSD: 0.227
data_MOF--net-qtz-e--node1-CIFDUS_clean_sbu_1--edge1-XIVTED_clean_linker_0
_symmetry_space_group_name_H-M    P1
_symmetry_Int_Tables_number       1
_symmetry_cell_setting            triclinic
loop_
_symmetry_equiv_pos_as_xyz
'x, y, z'
_cell_length_a     27.986016
_cell_length_b     27.952156
_cell_length_c     30.897927
_cell_angle_alpha  89.98527
_cell_angle_beta   90.066697
_cell_angle_gamma 120.09222
loop_
_atom_site_label
_atom_site_type_symbol
_atom_site_fract_x
_atom_site_fract_y
_atom_site_fract_z
_atom_type_partial_charge
O0 O 0.27576 0.42298 0.03804 0.0
Mn1 Mn 0.21674 0.4326 0.00315 0.0
O2 O 0.32512 0.50208 0.07554 0.0
Mn3 Mn 0.31178 0.54507 0.03774 0.0
O4 O 0.16109 0.4458 0.96855 0.0
O5 O 0.19283 0.36025 0.97231 0.0
Mn6 Mn 0.11969 0.32442 0.96759 0.0
O7 O 0.15767 0.39219 0.0521 0.0
O8 O 0.09969 0.36799 0.93514 0.0
O9 O 0.27474 0.47252 0.95494 0.0
O10 O 0.34224 0.55241 0.98302 0.0
O11 O 0.14324 0.28006 0.94214 0.0
O12 O 0.09214 0.3116 0.0235 0.0
C13 C 0.23585 0.54549 0.04685 0.0
C14 C 0.31257 0.45264 0.06651 0.0
C15 C 0.1202 0.41944 0.94286 0.0
C16 C 0.19238 0.31944 0.95199 0.0
C17 C 0.11174 0.34599 0.05478 0.0
C18 C 0.32169 0.51718 0.95232 0.0
O19 O 0.24018 0.50534 0.03105 0.0
O20 O 0.28286 0.58831 0.05649 0.0
O21 O 0.79549 0.28637 0.34535 0.0
Mn22 Mn 0.75001 0.20697 0.31858 0.0
O23 O 0.75423 0.33167 0.31763 0.0
Mn24 Mn 0.70056 0.27584 0.28365 0.0
O25 O 0.70225 0.1307 0.29146 0.0
O26 O 0.81389 0.1937 0.32047 0.0
Mn27 Mn 0.79562 0.12787 0.34138 0.0
O28 O 0.72593 0.17243 0.3819 0.0
O29 O 0.73438 0.07436 0.30966 0.0
O30 O 0.77881 0.24095 0.25724 0.0
O31 O 0.72268 0.26794 0.22931 0.0
O32 O 0.86733 0.15932 0.31961 0.0
O33 O 0.77872 0.1343 0.39787 0.0
C34 C 0.63351 0.2094 0.31697 0.0
C35 C 0.79058 0.32981 0.34162 0.0
C36 C 0.69892 0.08351 0.29098 0.0
C37 C 0.86021 0.19956 0.30749 0.0
C38 C 0.74385 0.14894 0.40847 0.0
C39 C 0.76226 0.25845 0.22559 0.0
O40 O 0.68245 0.2155 0.31343 0.0
O41 O 0.62727 0.24653 0.29679 0.0
O42 O 0.55623 0.84597 0.69677 0.0
Mn43 Mn 0.57161 0.78972 0.66319 0.0
O44 O 0.46292 0.80456 0.70018 0.0
Mn45 Mn 0.44514 0.74794 0.66146 0.0
O46 O 0.58155 0.73127 0.63075 0.0
O47 O 0.64928 0.84935 0.64805 0.0
Mn48 Mn 0.69429 0.82234 0.65663 0.0
O49 O 0.59889 0.77145 0.7213 0.0
O50 O 0.67096 0.75913 0.622 0.0
O51 O 0.54755 0.8085 0.60514 0.0
O52 O 0.45519 0.76958 0.60413 0.0
O53 O 0.73701 0.89336 0.63544 0.0
O54 O 0.69113 0.80896 0.7155 0.0
C55 C 0.45467 0.68201 0.68748 0.0
C56 C 0.51126 0.84324 0.71049 0.0
C57 C 0.61995 0.72379 0.61626 0.0
C58 C 0.69144 0.8947 0.63423 0.0
C59 C 0.6464 0.78383 0.73708 0.0
C60 C 0.50248 0.79826 0.58674 0.0
O61 O 0.49431 0.72901 0.67454 0.0
O62 O 0.40612 0.67529 0.68035 0.0
O63 O 0.72303 0.56867 0.03011 0.0
Mn64 Mn 0.79143 0.5715 -0.00083 0.0
O65 O 0.66956 0.48005 0.05088 0.0
Mn66 Mn 0.69152 0.45201 0.00627 0.0
O67 O 0.85693 0.57125 0.96873 0.0
O68 O 0.82082 0.65191 0.98342 0.0
Mn69 Mn 0.89285 0.68828 0.99494 0.0
O70 O 0.83412 0.59281 0.05878 0.0
O71 O 0.92684 0.65801 0.96152 0.0
O72 O 0.7486 0.54992 0.94107 0.0
O73 O 0.67412 0.46548 0.95111 0.0
O74 O 0.8765 0.73951 0.97272 0.0
O75 O 0.89885 0.68297 0.05411 0.0
C76 C 0.76481 0.44692 0.01717 0.0
C77 C 0.68276 0.53072 0.05223 0.0
C78 C 0.90543 0.60609 0.95548 0.0
C79 C 0.82649 0.69835 0.96957 0.0
C80 C 0.87258 0.63815 0.07543 0.0
C81 C 0.70255 0.5089 0.92836 0.0
O82 O 0.76342 0.49166 0.01095 0.0
O83 O 0.71658 0.40288 0.01602 0.0
O84 O 0.12993 0.7077 0.38333 0.0
Mn85 Mn 0.20483 0.76352 0.35287 0.0
O86 O 0.14501 0.64421 0.41577 0.0
Mn87 Mn 0.19763 0.65107 0.37648 0.0
O88 O 0.27904 0.81642 0.32274 0.0
O89 O 0.17005 0.80422 0.32719 0.0
Mn90 Mn 0.2136 0.87659 0.32998 0.0
O91 O 0.22899 0.81547 0.40799 0.0
O92 O 0.27781 0.89198 0.29973 0.0
O93 O 0.18051 0.71266 0.29876 0.0
O94 O 0.17158 0.63135 0.31997 0.0
O95 O 0.14835 0.86252 0.30221 0.0
O96 O 0.22448 0.8913 0.38894 0.0
C97 C 0.28237 0.71735 0.38361 0.0
C98 C 0.11501 0.66593 0.40886 0.0
C99 C 0.30125 0.86285 0.3028 0.0
C100 C 0.1336 0.81103 0.30722 0.0
C101 C 0.23316 0.86264 0.41671 0.0
C102 C 0.16748 0.66229 0.2915 0.0
O103 O 0.24047 0.72293 0.37596 0.0
O104 O 0.26901 0.6664 0.3898 0.0
O105 O 0.46882 0.17303 0.70102 0.0
Mn106 Mn 0.46954 0.23848 0.66674 0.0
O107 O 0.55837 0.20346 0.71694 0.0
Mn108 Mn 0.58752 0.25357 0.67242 0.0
O109 O 0.47503 0.30557 0.63421 0.0
O110 O 0.38864 0.19018 0.65021 0.0
Mn111 Mn 0.35725 0.23159 0.65798 0.0
O112 O 0.44857 0.2626 0.72527 0.0
O113 O 0.39136 0.2942 0.62256 0.0
O114 O 0.48857 0.21249 0.60991 0.0
O115 O 0.57318 0.22279 0.61732 0.0
O116 O 0.30259 0.16449 0.63764 0.0
O117 O 0.36192 0.24699 0.71648 0.0
C118 C 0.59619 0.33368 0.68407 0.0
C119 C 0.50693 0.16954 0.72201 0.0
C120 C 0.44371 0.32228 0.61861 0.0
C121 C 0.34073 0.15116 0.63667 0.0
C122 C 0.40479 0.2616 0.73953 0.0
C123 C 0.52858 0.20677 0.59606 0.0
O124 O 0.5503 0.28828 0.67799 0.0
O125 O 0.63883 0.32727 0.68232 0.0
H126 H 0.18943 0.71811 0.21464 0.0
H127 H 0.15272 0.46551 0.09432 0.0
H128 H 0.10395 0.55359 0.26858 0.0
H129 H 0.2059 0.62254 0.03347 0.0
H130 H 0.10264 0.48658 0.1479 0.0
H131 H 0.16827 0.6785 0.14236 0.0
C132 C 0.16486 0.67362 0.2113 0.0
C133 C 0.14891 0.63914 0.24772 0.0
C134 C 0.12313 0.51567 0.1218 0.0
C135 C 0.12654 0.59315 0.16477 0.0
C136 C 0.15081 0.50284 0.09046 0.0
C137 C 0.18434 0.54279 0.06016 0.0
C138 C 0.13076 0.56937 0.12304 0.0
C139 C 0.18144 0.59125 0.05723 0.0
C140 C 0.15284 0.65086 0.16988 0.0
C141 C 0.11813 0.58171 0.24132 0.0
N142 N 0.15688 0.6042 0.08933 0.0
N143 N 0.10897 0.56048 0.20065 0.0
H144 H 0.45346 0.18797 0.53176 0.0
H145 H 0.62868 0.12377 0.36602 0.0
H146 H 0.58895 0.16221 0.5646 0.0
H147 H 0.53689 0.2053 0.33589 0.0
H148 H 0.57945 0.09419 0.43564 0.0
H149 H 0.45233 0.15331 0.45885 0.0
C150 C 0.48251 0.17442 0.52384 0.0
C151 C 0.52284 0.18005 0.55369 0.0
C152 C 0.56978 0.11779 0.4132 0.0
C153 C 0.52109 0.1397 0.47085 0.0
C154 C 0.59841 0.1354 0.37406 0.0
C155 C 0.59081 0.17163 0.34759 0.0
C156 C 0.53321 0.13618 0.42494 0.0
C157 C 0.5465 0.18016 0.35679 0.0
C158 C 0.4815 0.15423 0.48239 0.0
C159 C 0.5585 0.16052 0.54206 0.0
N160 N 0.52048 0.16415 0.39545 0.0
N161 N 0.55741 0.14208 0.50129 0.0
H162 H 0.43166 0.5897 0.94126 0.0
H163 H 0.40018 0.56975 0.68722 0.0
H164 H 0.28673 0.46821 0.87261 0.0
H165 H 0.51602 0.71242 0.76008 0.0
H166 H 0.38048 0.51336 0.75272 0.0
H167 H 0.48303 0.61471 0.87351 0.0
C168 C 0.41064 0.5681 0.91195 0.0
C169 C 0.35423 0.52831 0.91225 0.0
C170 C 0.41247 0.55649 0.75365 0.0
C171 C 0.413 0.55656 0.83473 0.0
C172 C 0.42407 0.58849 0.71626 0.0
C173 C 0.46111 0.64559 0.71799 0.0
C174 C 0.43771 0.58231 0.79281 0.0
C175 C 0.48989 0.66835 0.75651 0.0
C176 C 0.44019 0.582 0.87339 0.0
C177 C 0.32978 0.50021 0.87361 0.0
N178 N 0.47687 0.63684 0.79262 0.0
N179 N 0.35906 0.5157 0.83614 0.0
H180 H 0.86745 0.34398 0.22254 0.0
H181 H 0.84056 0.50422 0.08009 0.0
H182 H 0.73447 0.2269 0.14189 0.0
H183 H 0.79564 0.37691 0.98436 0.0
H184 H 0.87744 0.45928 0.12551 0.0
H185 H 0.90964 0.40351 0.1591 0.0
C186 C 0.84853 0.32975 0.19103 0.0
C187 C 0.79713 0.28114 0.18714 0.0
C188 C 0.86261 0.44263 0.09351 0.0
C189 C 0.84405 0.34892 0.11534 0.0
C190 C 0.84191 0.46889 0.06728 0.0
C191 C 0.81352 0.44309 0.02922 0.0
C192 C 0.85348 0.39006 0.08148 0.0
C193 C 0.81593 0.39702 0.0143 0.0
C194 C 0.87233 0.3639 0.15503 0.0
C195 C 0.77389 0.26442 0.14602 0.0
N196 N 0.83321 0.37046 0.0413 0.0
N197 N 0.79713 0.29873 0.11174 0.0
H198 H 0.54903 0.78859 0.51194 0.0
H199 H 0.32142 0.82557 0.40734 0.0
H200 H 0.46214 0.86501 0.56655 0.0
H201 H 0.37478 0.71214 0.36781 0.0
H202 H 0.41199 0.88518 0.43926 0.0
H203 H 0.52663 0.80698 0.43914 0.0
C204 C 0.52687 0.81092 0.50841 0.0
C205 C 0.50483 0.82302 0.54458 0.0
C206 C 0.40465 0.84829 0.42211 0.0
C207 C 0.47924 0.84394 0.46257 0.0
C208 C 0.3527 0.81414 0.40398 0.0
C209 C 0.33983 0.76251 0.3873 0.0
C210 C 0.44258 0.8293 0.42453 0.0
C211 C 0.38249 0.75051 0.38256 0.0
C212 C 0.51436 0.82171 0.46704 0.0
C213 C 0.4776 0.85302 0.53895 0.0
N214 N 0.43168 0.78287 0.4023 0.0
N215 N 0.46447 0.86147 0.49859 0.0
H216 H 0.76085 0.57028 0.85792 0.0
H217 H 0.51695 0.35721 0.71429 0.0
H218 H 0.59581 0.45329 0.90044 0.0
H219 H 0.68973 0.43407 0.68353 0.0
H220 H 0.53794 0.43003 0.76721 0.0
H221 H 0.72701 0.55698 0.78321 0.0
C222 C 0.71732 0.54272 0.85165 0.0
C223 C 0.68152 0.51072 0.88496 0.0
C224 C 0.57104 0.4319 0.74781 0.0
C225 C 0.64265 0.49602 0.80015 0.0
C226 C 0.55901 0.38989 0.71788 0.0
C227 C 0.60215 0.38704 0.69755 0.0
C228 C 0.62652 0.47093 0.75669 0.0
C229 C 0.65553 0.43305 0.70071 0.0
C230 C 0.69798 0.53547 0.80911 0.0
C231 C 0.62527 0.47687 0.87533 0.0
N232 N 0.66665 0.47232 0.73102 0.0
N233 N 0.60774 0.46953 0.83367 0.0
H234 H 0.35862 0.41007 0.01369 0.0
H235 H 0.63608 0.50487 0.13225 0.0
H236 H 0.36777 0.47142 0.14333 0.0
H237 H 0.62644 0.56909 0.00777 0.0
H238 H 0.53793 0.474 0.14434 0.0
H239 H 0.45638 0.43829 0.01805 0.0
C240 C 0.38028 0.42655 0.04399 0.0
C241 C 0.35549 0.43935 0.07797 0.0
C242 C 0.558 0.49636 0.11505 0.0
C243 C 0.46689 0.47258 0.08262 0.0
C244 C 0.61399 0.51499 0.10852 0.0
C245 C 0.63913 0.53975 0.06905 0.0
C246 C 0.52741 0.50125 0.08127 0.0
C247 C 0.60864 0.55073 0.03878 0.0
C248 C 0.43633 0.44392 0.04598 0.0
C249 C 0.38583 0.46138 0.11634 0.0
N250 N 0.5537 0.52971 0.04488 0.0
N251 N 0.44065 0.47849 0.11744 0.0
H252 H 0.07147 0.58781 0.47253 0.0
H253 H 0.79294 0.42862 0.33823 0.0
H254 H 0.02448 0.66186 0.37069 0.0
H255 H 0.87501 0.34967 0.39856 0.0
H256 H 0.86014 0.51592 0.37067 0.0
H257 H 0.98052 0.50483 0.468 0.0
C258 C 0.04127 0.58757 0.45042 0.0
C259 C 0.05628 0.63105 0.42079 0.0
C260 C 0.86295 0.47934 0.37728 0.0
C261 C 0.95262 0.53628 0.41548 0.0
C262 C 0.82475 0.42927 0.35863 0.0
C263 C 0.82886 0.38154 0.36487 0.0
C264 C 0.90564 0.48208 0.40266 0.0
C265 C 0.87068 0.38541 0.39226 0.0
C266 C 0.98962 0.53991 0.4476 0.0
C267 C 0.01514 0.62897 0.39358 0.0
N268 N 0.90787 0.43505 0.40982 0.0
N269 N 0.96548 0.58158 0.39076 0.0
H270 H 0.56699 0.1621 0.78811 0.0
H271 H 0.59931 0.94811 0.72458 0.0
H272 H 0.41887 0.06421 0.71322 0.0
H273 H 0.4268 0.84145 0.75542 0.0
H274 H 0.59262 0.02687 0.75174 0.0
H275 H 0.5686 0.07806 0.80698 0.0
C276 C 0.53359 0.12264 0.77696 0.0
C277 C 0.49389 0.12007 0.7476 0.0
C278 C 0.55682 0.98579 0.7539 0.0
C279 C 0.49568 0.02473 0.76927 0.0
C280 C 0.56062 0.94095 0.7382 0.0
C281 C 0.51322 0.88852 0.73646 0.0
C282 C 0.50521 0.97779 0.76715 0.0
C283 C 0.46406 0.88155 0.75479 0.0
C284 C 0.53488 0.075 0.7876 0.0
C285 C 0.45081 0.06804 0.73516 0.0
N286 N 0.46081 0.926 0.76798 0.0
N287 N 0.45355 0.02217 0.74528 0.0
H288 H 0.67679 0.66692 0.61302 0.0
H289 H 0.39551 0.38217 0.59107 0.0
H290 H 0.52136 0.65396 0.57821 0.0
H291 H 0.55426 0.3935 0.60666 0.0
H292 H 0.44282 0.48132 0.57579 0.0
H293 H 0.63589 0.56744 0.59982 0.0
C294 C 0.63466 0.64356 0.60137 0.0
C295 C 0.60225 0.66865 0.59736 0.0
C296 C 0.46733 0.46191 0.58185 0.0
C297 C 0.55477 0.55477 0.58314 0.0
C298 C 0.44023 0.40515 0.59048 0.0
C299 C 0.47074 0.37936 0.60086 0.0
C300 C 0.52536 0.49329 0.58404 0.0
C301 C 0.52878 0.41153 0.59946 0.0
C302 C 0.6111 0.58663 0.59417 0.0
C303 C 0.54767 0.63618 0.58242 0.0
N304 N 0.5541 0.46682 0.592 0.0
N305 N 0.52543 0.58092 0.5766 0.0
H306 H 0.01553 0.37554 0.90903 0.0
H307 H 0.01758 0.65997 0.94115 0.0
H308 H 0.1607 0.53098 0.94091 0.0
H309 H 0.86977 0.5005 0.92793 0.0
H310 H 0.0728 0.61706 0.92339 0.0
H311 H 0.96456 0.42455 0.89788 0.0
C312 C 0.03707 0.42007 0.91268 0.0
C313 C 0.09224 0.44901 0.92662 0.0
C314 C 0.02821 0.59168 0.9237 0.0
C315 C 0.03403 0.50524 0.9144 0.0
C316 C 0.99664 0.61623 0.93366 0.0
C317 C 0.93897 0.58371 0.93675 0.0
C318 C 0.00192 0.53427 0.91676 0.0
C319 C 0.91416 0.52716 0.92659 0.0
C320 C 0.00785 0.44802 0.90657 0.0
C321 C 0.11797 0.50678 0.93083 0.0
N322 N 0.94577 0.50417 0.91761 0.0
N323 N 0.08849 0.53285 0.92534 0.0
H324 H 0.36599 0.81479 0.30617 0.0
H325 H 0.63517 0.08842 0.22678 0.0
H326 H 0.3679 0.96227 0.26202 0.0
H327 H 0.64105 0.97565 0.31906 0.0
H328 H 0.53615 0.02573 0.2181 0.0
H329 H 0.46488 0.8588 0.29151 0.0
C330 C 0.38693 0.85623 0.29308 0.0
C331 C 0.35861 0.88542 0.2866 0.0
C332 C 0.55932 0.01402 0.23943 0.0
C333 C 0.47164 0.93515 0.26824 0.0
C334 C 0.61595 0.04947 0.24412 0.0
C335 C 0.6463 0.03759 0.27418 0.0
C336 C 0.53271 0.96613 0.26481 0.0
C337 C 0.61927 0.98644 0.29558 0.0
C338 C 0.44339 0.88112 0.28451 0.0
C339 C 0.38791 0.93837 0.26818 0.0
N340 N 0.56363 0.95294 0.29111 0.0
N341 N 0.44287 0.96164 0.25995 0.0
H342 H 0.36534 0.194 0.8091 0.0
H343 H 0.29797 0.40452 0.93216 0.0
H344 H 0.43026 0.36313 0.7697 0.0
H345 H 0.19839 0.22721 0.93694 0.0
H346 H 0.36788 0.39588 0.89074 0.0
H347 H 0.32764 0.21244 0.87447 0.0
C348 C 0.37379 0.23569 0.8153 0.0
C349 C 0.40153 0.27733 0.78445 0.0
C350 C 0.3312 0.3589 0.90169 0.0
C351 C 0.35669 0.29831 0.85811 0.0
C352 C 0.29125 0.36394 0.92547 0.0
C353 C 0.24154 0.31676 0.93719 0.0
C354 C 0.32168 0.3061 0.89039 0.0
C355 C 0.23564 0.26487 0.92793 0.0
C356 C 0.35166 0.24607 0.85227 0.0
C357 C 0.40987 0.33025 0.79321 0.0
N358 N 0.27479 0.26093 0.9048 0.0
N359 N 0.38683 0.33911 0.82895 0.0
H360 H 0.83094 0.19534 0.2238 0.0
H361 H 0.14134 0.38534 0.1389 0.0
H362 H 0.96839 0.28113 0.3109 0.0
H363 H 0.00094 0.27727 0.05967 0.0
H364 H 0.07912 0.36064 0.20176 0.0
H365 H 0.89234 0.24026 0.1627 0.0
C366 C 0.87375 0.2257 0.23008 0.0
C367 C 0.89424 0.23656 0.27241 0.0
C368 C 0.06218 0.34263 0.17048 0.0
C369 C 0.96611 0.28526 0.2024 0.0
C370 C 0.09763 0.35668 0.13466 0.0
C371 C 0.07657 0.33287 0.09398 0.0
C372 C 0.00536 0.30498 0.16534 0.0
C373 C 0.01948 0.29604 0.09039 0.0
C374 C 0.90921 0.25045 0.19514 0.0
C375 C 0.9509 0.27313 0.27864 0.0
N376 N 0.98617 0.28333 0.12542 0.0
N377 N 0.98507 0.29606 0.24397 0.0
H378 H 0.77953 0.99493 0.61596 0.0
H379 H 0.64323 0.06147 0.42748 0.0
H380 H 0.60205 0.90652 0.60709 0.0
H381 H 0.79359 0.18711 0.48618 0.0
H382 H 0.62131 0.00666 0.49409 0.0
H383 H 0.78265 0.06778 0.57107 0.0
C384 C 0.74089 0.99064 0.60472 0.0
C385 C 0.69039 0.94269 0.61389 0.0
C386 C 0.65786 0.04732 0.49319 0.0
C387 C 0.6939 0.02655 0.56132 0.0
C388 C 0.66982 0.07918 0.45542 0.0
C389 C 0.7194 0.12982 0.45179 0.0
C390 C 0.69688 0.06542 0.52688 0.0
C391 C 0.75434 0.14894 0.488 0.0
C392 C 0.74278 0.03262 0.57909 0.0
C393 C 0.64193 0.94074 0.59907 0.0
N394 N 0.74309 0.11626 0.52356 0.0
N395 N 0.64485 0.98124 0.57247 0.0
H396 H 0.60091 0.67946 0.77156 0.0
H397 H 0.8297 0.79542 0.9565 0.0
H398 H 0.70755 0.85162 0.80194 0.0
H399 H 0.7246 0.62103 0.93367 0.0
H400 H 0.77168 0.81397 0.90929 0.0
H401 H 0.63173 0.65452 0.83825 0.0
C402 C 0.62912 0.71192 0.79317 0.0
C403 C 0.65143 0.76768 0.78162 0.0
C404 C 0.7608 0.77139 0.91458 0.0
C405 C 0.68798 0.73975 0.85696 0.0
C406 C 0.79406 0.76067 0.94174 0.0
C407 C 0.78342 0.70643 0.94796 0.0
C408 C 0.71656 0.72769 0.89255 0.0
C409 C 0.73572 0.66336 0.92868 0.0
C410 C 0.6472 0.69772 0.83094 0.0
C411 C 0.68917 0.80818 0.80989 0.0
N412 N 0.70466 0.67488 0.90103 0.0
N413 N 0.70655 0.79344 0.8459 0.0
H414 H 0.02771 0.7881 0.31864 0.0
H415 H 0.85702 0.69236 0.14119 0.0
H416 H 0.12617 0.73812 0.24642 0.0
H417 H 0.93191 0.59453 0.11063 0.0
H418 H 0.90934 0.72137 0.20839 0.0
H419 H 0.94809 0.72842 0.27308 0.0
C420 C 0.03206 0.76329 0.29371 0.0
C421 C 0.08311 0.76669 0.28673 0.0
C422 C 0.91298 0.6917 0.1883 0.0
C423 C 0.99341 0.701 0.23243 0.0
C424 C 0.88282 0.67508 0.14979 0.0
C425 C 0.88952 0.64034 0.12087 0.0
C426 C 0.95119 0.67433 0.19762 0.0
C427 C 0.92486 0.62052 0.13262 0.0
C428 C 0.98684 0.72981 0.26719 0.0
C429 C 0.08694 0.73451 0.25379 0.0
N430 N 0.95525 0.6387 0.1697 0.0
N431 N 0.043 0.70351 0.22749 0.0
H432 H 0.23989 0.06098 0.62596 0.0
H433 H 0.33736 0.91831 0.4507 0.0
H434 H 0.41164 0.1172 0.60235 0.0
H435 H 0.16811 0.86818 0.47904 0.0
H436 H 0.3668 0.981 0.51356 0.0
H437 H 0.21459 0.98018 0.58154 0.0
C438 C 0.27262 0.05625 0.61168 0.0
C439 C 0.32822 0.09732 0.61699 0.0
C440 C 0.32314 0.95518 0.50677 0.0
C441 C 0.2991 0.00413 0.56476 0.0
C442 C 0.30633 0.91897 0.47121 0.0
C443 C 0.25014 0.88735 0.46028 0.0
C444 C 0.28338 0.95999 0.53126 0.0
C445 C 0.2117 0.89115 0.48685 0.0
C446 C 0.258 0.00985 0.58608 0.0
C447 C 0.36844 0.0878 0.59826 0.0
N448 N 0.22901 0.927 0.52078 0.0
N449 N 0.35315 0.04277 0.57225 0.0
loop_
_geom_bond_atom_site_label_1
_geom_bond_atom_site_label_2
_geom_bond_distance
_geom_bond_site_symmetry_2
_ccdc_geom_bond_type
O0 Mn1 2.163 1_554 S
O0 C14 1.244 . S
Mn1 O0 2.163 1_556 S
Mn1 O4 2.160 . S
Mn1 O5 2.221 . S
Mn1 O7 2.163 1_556 S
Mn1 O9 2.160 . S
Mn1 O19 2.221 1_556 S
O2 Mn3 2.087 . S
O2 C14 1.256 . S
Mn3 O2 2.087 . S
Mn3 O10 2.089 1_554 S
Mn3 O19 2.290 . S
Mn3 O20 2.251 . S
O4 Mn1 2.160 . S
O4 C15 1.239 . S
O5 Mn1 2.221 . S
O5 Mn6 2.290 . S
O5 C16 1.278 . S
Mn6 O5 2.290 . S
Mn6 O8 2.089 . S
Mn6 O11 2.251 . S
Mn6 O12 2.087 1_556 S
O7 Mn1 2.163 1_554 S
O7 C17 1.244 . S
O8 Mn6 2.089 . S
O8 C15 1.256 . S
O9 Mn1 2.160 . S
O9 C18 1.239 . S
O10 Mn3 2.089 1_556 S
O10 C18 1.256 . S
O11 Mn6 2.251 . S
O11 C16 1.241 . S
O12 Mn6 2.087 1_554 S
O12 C17 1.256 . S
C13 O19 1.278 . S
C13 O20 1.241 . S
C14 O0 1.244 . S
C14 O2 1.256 . S
C15 O4 1.239 . S
C15 O8 1.256 . S
C16 O5 1.278 . S
C16 O11 1.241 . S
C17 O7 1.244 . S
C17 O12 1.256 . S
C18 O9 1.239 . S
C18 O10 1.256 . S
O19 Mn1 2.221 1_554 S
O19 Mn3 2.290 . S
O19 C13 1.278 . S
O20 Mn3 2.251 . S
O20 C13 1.241 . S
O21 Mn22 2.163 . S
O21 C35 1.244 . S
Mn22 O21 2.163 . S
Mn22 O25 2.160 . S
Mn22 O26 2.221 . S
Mn22 O28 2.163 . S
Mn22 O30 2.160 . S
Mn22 O40 2.221 . S
O23 Mn24 2.087 . S
O23 C35 1.256 . S
Mn24 O23 2.087 . S
Mn24 O31 2.089 . S
Mn24 O40 2.290 . S
Mn24 O41 2.251 . S
O25 Mn22 2.160 . S
O25 C36 1.239 . S
O26 Mn22 2.221 . S
O26 Mn27 2.290 . S
O26 C37 1.278 . S
Mn27 O26 2.290 . S
Mn27 O29 2.089 . S
Mn27 O32 2.251 . S
Mn27 O33 2.087 . S
O28 Mn22 2.163 . S
O28 C38 1.244 . S
O29 Mn27 2.089 . S
O29 C36 1.256 . S
O30 Mn22 2.160 . S
O30 C39 1.239 . S
O31 Mn24 2.089 . S
O31 C39 1.256 . S
O32 Mn27 2.251 . S
O32 C37 1.241 . S
O33 Mn27 2.087 . S
O33 C38 1.256 . S
C34 O40 1.278 . S
C34 O41 1.241 . S
C35 O21 1.244 . S
C35 O23 1.256 . S
C36 O25 1.239 . S
C36 O29 1.256 . S
C37 O26 1.278 . S
C37 O32 1.241 . S
C38 O28 1.244 . S
C38 O33 1.256 . S
C39 O30 1.239 . S
C39 O31 1.256 . S
O40 Mn22 2.221 . S
O40 Mn24 2.290 . S
O40 C34 1.278 . S
O41 Mn24 2.251 . S
O41 C34 1.241 . S
O42 Mn43 2.163 . S
O42 C56 1.244 . S
Mn43 O42 2.163 . S
Mn43 O46 2.160 . S
Mn43 O47 2.221 . S
Mn43 O49 2.163 . S
Mn43 O51 2.160 . S
Mn43 O61 2.221 . S
O44 Mn45 2.087 . S
O44 C56 1.256 . S
Mn45 O44 2.087 . S
Mn45 O52 2.089 . S
Mn45 O61 2.290 . S
Mn45 O62 2.251 . S
O46 Mn43 2.160 . S
O46 C57 1.239 . S
O47 Mn43 2.221 . S
O47 Mn48 2.290 . S
O47 C58 1.278 . S
Mn48 O47 2.290 . S
Mn48 O50 2.089 . S
Mn48 O53 2.251 . S
Mn48 O54 2.087 . S
O49 Mn43 2.163 . S
O49 C59 1.244 . S
O50 Mn48 2.089 . S
O50 C57 1.256 . S
O51 Mn43 2.160 . S
O51 C60 1.239 . S
O52 Mn45 2.089 . S
O52 C60 1.256 . S
O53 Mn48 2.251 . S
O53 C58 1.241 . S
O54 Mn48 2.087 . S
O54 C59 1.256 . S
C55 O61 1.278 . S
C55 O62 1.241 . S
C56 O42 1.244 . S
C56 O44 1.256 . S
C57 O46 1.239 . S
C57 O50 1.256 . S
C58 O47 1.278 . S
C58 O53 1.241 . S
C59 O49 1.244 . S
C59 O54 1.256 . S
C60 O51 1.239 . S
C60 O52 1.256 . S
O61 Mn43 2.221 . S
O61 Mn45 2.290 . S
O61 C55 1.278 . S
O62 Mn45 2.251 . S
O62 C55 1.241 . S
O63 Mn64 2.163 1_554 S
O63 C77 1.244 . S
Mn64 O63 2.163 1_556 S
Mn64 O67 2.160 . S
Mn64 O68 2.221 . S
Mn64 O70 2.163 1_556 S
Mn64 O72 2.160 . S
Mn64 O82 2.221 1_556 S
O65 Mn66 2.087 . S
O65 C77 1.256 . S
Mn66 O65 2.087 . S
Mn66 O73 2.089 1_554 S
Mn66 O82 2.290 . S
Mn66 O83 2.251 . S
O67 Mn64 2.160 . S
O67 C78 1.239 . S
O68 Mn64 2.221 . S
O68 Mn69 2.290 . S
O68 C79 1.278 . S
Mn69 O68 2.290 . S
Mn69 O71 2.089 . S
Mn69 O74 2.251 . S
Mn69 O75 2.087 1_556 S
O70 Mn64 2.163 1_554 S
O70 C80 1.244 . S
O71 Mn69 2.089 . S
O71 C78 1.256 . S
O72 Mn64 2.160 . S
O72 C81 1.239 . S
O73 Mn66 2.089 1_556 S
O73 C81 1.256 . S
O74 Mn69 2.251 . S
O74 C79 1.241 . S
O75 Mn69 2.087 1_554 S
O75 C80 1.256 . S
C76 O82 1.278 . S
C76 O83 1.241 . S
C77 O63 1.244 . S
C77 O65 1.256 . S
C78 O67 1.239 . S
C78 O71 1.256 . S
C79 O68 1.278 . S
C79 O74 1.241 . S
C80 O70 1.244 . S
C80 O75 1.256 . S
C81 O72 1.239 . S
C81 O73 1.256 . S
O82 Mn64 2.221 1_554 S
O82 Mn66 2.290 . S
O82 C76 1.278 . S
O83 Mn66 2.251 . S
O83 C76 1.241 . S
O84 Mn85 2.163 . S
O84 C98 1.244 . S
Mn85 O84 2.163 . S
Mn85 O88 2.160 . S
Mn85 O89 2.221 . S
Mn85 O91 2.163 . S
Mn85 O93 2.160 . S
Mn85 O103 2.221 . S
O86 Mn87 2.087 . S
O86 C98 1.256 . S
Mn87 O86 2.087 . S
Mn87 O94 2.089 . S
Mn87 O103 2.290 . S
Mn87 O104 2.251 . S
O88 Mn85 2.160 . S
O88 C99 1.239 . S
O89 Mn85 2.221 . S
O89 Mn90 2.290 . S
O89 C100 1.278 . S
Mn90 O89 2.290 . S
Mn90 O92 2.089 . S
Mn90 O95 2.251 . S
Mn90 O96 2.087 . S
O91 Mn85 2.163 . S
O91 C101 1.244 . S
O92 Mn90 2.089 . S
O92 C99 1.256 . S
O93 Mn85 2.160 . S
O93 C102 1.239 . S
O94 Mn87 2.089 . S
O94 C102 1.256 . S
O95 Mn90 2.251 . S
O95 C100 1.241 . S
O96 Mn90 2.087 . S
O96 C101 1.256 . S
C97 O103 1.278 . S
C97 O104 1.241 . S
C98 O84 1.244 . S
C98 O86 1.256 . S
C99 O88 1.239 . S
C99 O92 1.256 . S
C100 O89 1.278 . S
C100 O95 1.241 . S
C101 O91 1.244 . S
C101 O96 1.256 . S
C102 O93 1.239 . S
C102 O94 1.256 . S
O103 Mn85 2.221 . S
O103 Mn87 2.290 . S
O103 C97 1.278 . S
O104 Mn87 2.251 . S
O104 C97 1.241 . S
O105 Mn106 2.163 . S
O105 C119 1.244 . S
Mn106 O105 2.163 . S
Mn106 O109 2.160 . S
Mn106 O110 2.221 . S
Mn106 O112 2.163 . S
Mn106 O114 2.160 . S
Mn106 O124 2.221 . S
O107 Mn108 2.087 . S
O107 C119 1.256 . S
Mn108 O107 2.087 . S
Mn108 O115 2.089 . S
Mn108 O124 2.290 . S
Mn108 O125 2.251 . S
O109 Mn106 2.160 . S
O109 C120 1.239 . S
O110 Mn106 2.221 . S
O110 Mn111 2.290 . S
O110 C121 1.278 . S
Mn111 O110 2.290 . S
Mn111 O113 2.089 . S
Mn111 O116 2.251 . S
Mn111 O117 2.087 . S
O112 Mn106 2.163 . S
O112 C122 1.244 . S
O113 Mn111 2.089 . S
O113 C120 1.256 . S
O114 Mn106 2.160 . S
O114 C123 1.239 . S
O115 Mn108 2.089 . S
O115 C123 1.256 . S
O116 Mn111 2.251 . S
O116 C121 1.241 . S
O117 Mn111 2.087 . S
O117 C122 1.256 . S
C118 O124 1.278 . S
C118 O125 1.241 . S
C119 O105 1.244 . S
C119 O107 1.256 . S
C120 O109 1.239 . S
C120 O113 1.256 . S
C121 O110 1.278 . S
C121 O116 1.241 . S
C122 O112 1.244 . S
C122 O117 1.256 . S
C123 O114 1.239 . S
C123 O115 1.256 . S
O124 Mn106 2.221 . S
O124 Mn108 2.290 . S
O124 C118 1.278 . S
O125 Mn108 2.251 . S
O125 C118 1.241 . S
H126 C132 0.930 . S
H127 C136 0.930 . S
H128 C141 0.929 . S
H129 C139 0.929 . S
H130 C134 0.929 . S
H131 C140 0.929 . S
C132 H126 0.930 . S
C132 C133 1.367 . S
C132 C140 1.378 . S
C133 C132 1.367 . S
C133 C141 1.433 . S
C134 H130 0.929 . S
C134 C136 1.378 . S
C134 C138 1.350 . S
C135 C138 1.463 . S
C135 C140 1.350 . S
C135 N143 1.427 . S
C136 H127 0.930 . S
C136 C134 1.378 . S
C136 C137 1.367 . S
C137 C136 1.367 . S
C137 C139 1.433 . S
C138 C134 1.350 . S
C138 C135 1.463 . S
C138 N142 1.427 . S
C139 H129 0.929 . S
C139 C137 1.433 . S
C139 N142 1.384 . S
C140 H131 0.929 . S
C140 C132 1.378 . S
C140 C135 1.350 . S
C141 H128 0.929 . S
C141 C133 1.433 . S
C141 N143 1.384 . S
N142 C138 1.427 . S
N142 C139 1.384 . S
N143 C135 1.427 . S
N143 C141 1.384 . S
H144 C150 0.930 . S
H145 C154 0.930 . S
H146 C159 0.929 . S
H147 C157 0.929 . S
H148 C152 0.929 . S
H149 C158 0.929 . S
C150 H144 0.930 . S
C150 C151 1.367 . S
C150 C158 1.378 . S
C151 C150 1.367 . S
C151 C159 1.433 . S
C152 H148 0.929 . S
C152 C154 1.378 . S
C152 C156 1.350 . S
C153 C156 1.463 . S
C153 C158 1.350 . S
C153 N161 1.427 . S
C154 H145 0.930 . S
C154 C152 1.378 . S
C154 C155 1.367 . S
C155 C154 1.367 . S
C155 C157 1.433 . S
C156 C152 1.350 . S
C156 C153 1.463 . S
C156 N160 1.427 . S
C157 H147 0.929 . S
C157 C155 1.433 . S
C157 N160 1.384 . S
C158 H149 0.929 . S
C158 C150 1.378 . S
C158 C153 1.350 . S
C159 H146 0.929 . S
C159 C151 1.433 . S
C159 N161 1.384 . S
N160 C156 1.427 . S
N160 C157 1.384 . S
N161 C153 1.427 . S
N161 C159 1.384 . S
H162 C168 0.930 . S
H163 C172 0.930 . S
H164 C177 0.929 . S
H165 C175 0.929 . S
H166 C170 0.929 . S
H167 C176 0.929 . S
C168 H162 0.930 . S
C168 C169 1.367 . S
C168 C176 1.378 . S
C169 C168 1.367 . S
C169 C177 1.433 . S
C170 H166 0.929 . S
C170 C172 1.378 . S
C170 C174 1.350 . S
C171 C174 1.463 . S
C171 C176 1.350 . S
C171 N179 1.427 . S
C172 H163 0.930 . S
C172 C170 1.378 . S
C172 C173 1.367 . S
C173 C172 1.367 . S
C173 C175 1.433 . S
C174 C170 1.350 . S
C174 C171 1.463 . S
C174 N178 1.427 . S
C175 H165 0.929 . S
C175 C173 1.433 . S
C175 N178 1.384 . S
C176 H167 0.929 . S
C176 C168 1.378 . S
C176 C171 1.350 . S
C177 H164 0.929 . S
C177 C169 1.433 . S
C177 N179 1.384 . S
N178 C174 1.427 . S
N178 C175 1.384 . S
N179 C171 1.427 . S
N179 C177 1.384 . S
H180 C186 0.930 . S
H181 C190 0.930 . S
H182 C195 0.929 . S
H183 C193 0.929 . S
H184 C188 0.929 . S
H185 C194 0.929 . S
C186 H180 0.930 . S
C186 C187 1.367 . S
C186 C194 1.378 . S
C187 C186 1.367 . S
C187 C195 1.433 . S
C188 H184 0.929 . S
C188 C190 1.378 . S
C188 C192 1.350 . S
C189 C192 1.463 . S
C189 C194 1.350 . S
C189 N197 1.427 . S
C190 H181 0.930 . S
C190 C188 1.378 . S
C190 C191 1.367 . S
C191 C190 1.367 . S
C191 C193 1.433 . S
C192 C188 1.350 . S
C192 C189 1.463 . S
C192 N196 1.427 . S
C193 H183 0.929 . S
C193 C191 1.433 . S
C193 N196 1.384 . S
C194 H185 0.929 . S
C194 C186 1.378 . S
C194 C189 1.350 . S
C195 H182 0.929 . S
C195 C187 1.433 . S
C195 N197 1.384 . S
N196 C192 1.427 . S
N196 C193 1.384 . S
N197 C189 1.427 . S
N197 C195 1.384 . S
H198 C204 0.930 . S
H199 C208 0.930 . S
H200 C213 0.929 . S
H201 C211 0.929 . S
H202 C206 0.929 . S
H203 C212 0.929 . S
C204 H198 0.930 . S
C204 C205 1.367 . S
C204 C212 1.378 . S
C205 C204 1.367 . S
C205 C213 1.433 . S
C206 H202 0.929 . S
C206 C208 1.378 . S
C206 C210 1.350 . S
C207 C210 1.463 . S
C207 C212 1.350 . S
C207 N215 1.427 . S
C208 H199 0.930 . S
C208 C206 1.378 . S
C208 C209 1.367 . S
C209 C208 1.367 . S
C209 C211 1.433 . S
C210 C206 1.350 . S
C210 C207 1.463 . S
C210 N214 1.427 . S
C211 H201 0.929 . S
C211 C209 1.433 . S
C211 N214 1.384 . S
C212 H203 0.929 . S
C212 C204 1.378 . S
C212 C207 1.350 . S
C213 H200 0.929 . S
C213 C205 1.433 . S
C213 N215 1.384 . S
N214 C210 1.427 . S
N214 C211 1.384 . S
N215 C207 1.427 . S
N215 C213 1.384 . S
H216 C222 0.930 . S
H217 C226 0.930 . S
H218 C231 0.929 . S
H219 C229 0.929 . S
H220 C224 0.929 . S
H221 C230 0.929 . S
C222 H216 0.930 . S
C222 C223 1.367 . S
C222 C230 1.378 . S
C223 C222 1.367 . S
C223 C231 1.433 . S
C224 H220 0.929 . S
C224 C226 1.378 . S
C224 C228 1.350 . S
C225 C228 1.463 . S
C225 C230 1.350 . S
C225 N233 1.427 . S
C226 H217 0.930 . S
C226 C224 1.378 . S
C226 C227 1.367 . S
C227 C226 1.367 . S
C227 C229 1.433 . S
C228 C224 1.350 . S
C228 C225 1.463 . S
C228 N232 1.427 . S
C229 H219 0.929 . S
C229 C227 1.433 . S
C229 N232 1.384 . S
C230 H221 0.929 . S
C230 C222 1.378 . S
C230 C225 1.350 . S
C231 H218 0.929 . S
C231 C223 1.433 . S
C231 N233 1.384 . S
N232 C228 1.427 . S
N232 C229 1.384 . S
N233 C225 1.427 . S
N233 C231 1.384 . S
H234 C240 0.930 . S
H235 C244 0.930 . S
H236 C249 0.929 . S
H237 C247 0.929 . S
H238 C242 0.929 . S
H239 C248 0.929 . S
C240 H234 0.930 . S
C240 C241 1.367 1_556 S
C240 C248 1.378 . S
C241 C240 1.367 1_554 S
C241 C249 1.433 . S
C242 H238 0.929 . S
C242 C244 1.378 . S
C242 C246 1.350 . S
C243 C246 1.463 . S
C243 C248 1.350 1_554 S
C243 N251 1.427 . S
C244 H235 0.930 . S
C244 C242 1.378 . S
C244 C245 1.367 . S
C245 C244 1.367 . S
C245 C247 1.433 1_554 S
C246 C242 1.350 . S
C246 C243 1.463 . S
C246 N250 1.427 1_554 S
C247 H237 0.929 . S
C247 C245 1.433 1_556 S
C247 N250 1.384 . S
C248 H239 0.929 . S
C248 C240 1.378 . S
C248 C243 1.350 1_556 S
C249 H236 0.929 . S
C249 C241 1.433 . S
C249 N251 1.384 . S
N250 C246 1.427 1_556 S
N250 C247 1.384 . S
N251 C243 1.427 . S
N251 C249 1.384 . S
H252 C258 0.930 . S
H253 C262 0.930 . S
H254 C267 0.929 . S
H255 C265 0.929 . S
H256 C260 0.929 1_455 S
H257 C266 0.929 1_655 S
C258 H252 0.930 . S
C258 C259 1.367 . S
C258 C266 1.378 . S
C259 C258 1.367 . S
C259 C267 1.433 . S
C260 H256 0.929 1_655 S
C260 C262 1.378 . S
C260 C264 1.350 . S
C261 C264 1.463 1_455 S
C261 C266 1.350 . S
C261 N269 1.427 . S
C262 H253 0.930 . S
C262 C260 1.378 . S
C262 C263 1.367 . S
C263 C262 1.367 . S
C263 C265 1.433 . S
C264 C260 1.350 . S
C264 C261 1.463 1_655 S
C264 N268 1.427 . S
C265 H255 0.929 . S
C265 C263 1.433 . S
C265 N268 1.384 . S
C266 H257 0.929 1_455 S
C266 C258 1.378 . S
C266 C261 1.350 . S
C267 H254 0.929 . S
C267 C259 1.433 . S
C267 N269 1.384 . S
N268 C264 1.427 . S
N268 C265 1.384 . S
N269 C261 1.427 . S
N269 C267 1.384 . S
H270 C276 0.930 . S
H271 C280 0.930 . S
H272 C285 0.929 . S
H273 C283 0.929 . S
H274 C278 0.929 . S
H275 C284 0.929 . S
C276 H270 0.930 . S
C276 C277 1.367 . S
C276 C284 1.378 . S
C277 C276 1.367 . S
C277 C285 1.433 . S
C278 H274 0.929 . S
C278 C280 1.378 . S
C278 C282 1.350 . S
C279 C282 1.463 1_545 S
C279 C284 1.350 . S
C279 N287 1.427 1_545 S
C280 H271 0.930 . S
C280 C278 1.378 . S
C280 C281 1.367 . S
C281 C280 1.367 . S
C281 C283 1.433 . S
C282 C278 1.350 . S
C282 C279 1.463 1_565 S
C282 N286 1.427 1_565 S
C283 H273 0.929 . S
C283 C281 1.433 . S
C283 N286 1.384 1_565 S
C284 H275 0.929 . S
C284 C276 1.378 . S
C284 C279 1.350 . S
C285 H272 0.929 . S
C285 C277 1.433 . S
C285 N287 1.384 1_545 S
N286 C282 1.427 1_545 S
N286 C283 1.384 1_545 S
N287 C279 1.427 1_565 S
N287 C285 1.384 1_565 S
H288 C294 0.930 . S
H289 C298 0.930 . S
H290 C303 0.929 . S
H291 C301 0.929 . S
H292 C296 0.929 . S
H293 C302 0.929 . S
C294 H288 0.930 . S
C294 C295 1.367 . S
C294 C302 1.378 . S
C295 C294 1.367 . S
C295 C303 1.433 . S
C296 H292 0.929 . S
C296 C298 1.378 . S
C296 C300 1.350 . S
C297 C300 1.463 . S
C297 C302 1.350 . S
C297 N305 1.427 . S
C298 H289 0.930 . S
C298 C296 1.378 . S
C298 C299 1.367 . S
C299 C298 1.367 . S
C299 C301 1.433 . S
C300 C296 1.350 . S
C300 C297 1.463 . S
C300 N304 1.427 . S
C301 H291 0.929 . S
C301 C299 1.433 . S
C301 N304 1.384 . S
C302 H293 0.929 . S
C302 C294 1.378 . S
C302 C297 1.350 . S
C303 H290 0.929 . S
C303 C295 1.433 . S
C303 N305 1.384 . S
N304 C300 1.427 . S
N304 C301 1.384 . S
N305 C297 1.427 . S
N305 C303 1.384 . S
H306 C312 0.930 1_655 S
H307 C316 0.930 1_455 S
H308 C321 0.929 . S
H309 C319 0.929 . S
H310 C314 0.929 . S
H311 C320 0.929 . S
C312 H306 0.930 1_455 S
C312 C313 1.367 . S
C312 C320 1.378 1_455 S
C313 C312 1.367 . S
C313 C321 1.433 . S
C314 H310 0.929 . S
C314 C316 1.378 1_455 S
C314 C318 1.350 1_455 S
C315 C318 1.463 1_455 S
C315 C320 1.350 1_455 S
C315 N323 1.427 . S
C316 H307 0.930 1_655 S
C316 C314 1.378 1_655 S
C316 C317 1.367 . S
C317 C316 1.367 . S
C317 C319 1.433 . S
C318 C314 1.350 1_655 S
C318 C315 1.463 1_655 S
C318 N322 1.427 . S
C319 H309 0.929 . S
C319 C317 1.433 . S
C319 N322 1.384 . S
C320 H311 0.929 . S
C320 C312 1.378 1_655 S
C320 C315 1.350 1_655 S
C321 H308 0.929 . S
C321 C313 1.433 . S
C321 N323 1.384 . S
N322 C318 1.427 . S
N322 C319 1.384 . S
N323 C315 1.427 . S
N323 C321 1.384 . S
H324 C330 0.930 . S
H325 C334 0.930 . S
H326 C339 0.929 . S
H327 C337 0.929 . S
H328 C332 0.929 . S
H329 C338 0.929 . S
C330 H324 0.930 . S
C330 C331 1.367 . S
C330 C338 1.378 . S
C331 C330 1.367 . S
C331 C339 1.433 . S
C332 H328 0.929 . S
C332 C334 1.378 . S
C332 C336 1.350 . S
C333 C336 1.463 1_565 S
C333 C338 1.350 . S
C333 N341 1.427 . S
C334 H325 0.930 . S
C334 C332 1.378 . S
C334 C335 1.367 . S
C335 C334 1.367 . S
C335 C337 1.433 . S
C336 C332 1.350 . S
C336 C333 1.463 1_545 S
C336 N340 1.427 . S
C337 H327 0.929 . S
C337 C335 1.433 . S
C337 N340 1.384 . S
C338 H329 0.929 . S
C338 C330 1.378 . S
C338 C333 1.350 . S
C339 H326 0.929 . S
C339 C331 1.433 . S
C339 N341 1.384 . S
N340 C336 1.427 . S
N340 C337 1.384 . S
N341 C333 1.427 . S
N341 C339 1.384 . S
H342 C348 0.930 . S
H343 C352 0.930 . S
H344 C357 0.929 . S
H345 C355 0.929 . S
H346 C350 0.929 . S
H347 C356 0.929 . S
C348 H342 0.930 . S
C348 C349 1.367 . S
C348 C356 1.378 . S
C349 C348 1.367 . S
C349 C357 1.433 . S
C350 H346 0.929 . S
C350 C352 1.378 . S
C350 C354 1.350 . S
C351 C354 1.463 . S
C351 C356 1.350 . S
C351 N359 1.427 . S
C352 H343 0.930 . S
C352 C350 1.378 . S
C352 C353 1.367 . S
C353 C352 1.367 . S
C353 C355 1.433 . S
C354 C350 1.350 . S
C354 C351 1.463 . S
C354 N358 1.427 . S
C355 H345 0.929 . S
C355 C353 1.433 . S
C355 N358 1.384 . S
C356 H347 0.929 . S
C356 C348 1.378 . S
C356 C351 1.350 . S
C357 H344 0.929 . S
C357 C349 1.433 . S
C357 N359 1.384 . S
N358 C354 1.427 . S
N358 C355 1.384 . S
N359 C351 1.427 . S
N359 C357 1.384 . S
H360 C366 0.930 . S
H361 C370 0.930 . S
H362 C375 0.929 . S
H363 C373 0.929 . S
H364 C368 0.929 . S
H365 C374 0.929 . S
C366 H360 0.930 . S
C366 C367 1.367 . S
C366 C374 1.378 . S
C367 C366 1.367 . S
C367 C375 1.433 . S
C368 H364 0.929 . S
C368 C370 1.378 . S
C368 C372 1.350 . S
C369 C372 1.463 1_655 S
C369 C374 1.350 . S
C369 N377 1.429 . S
C370 H361 0.930 . S
C370 C368 1.378 . S
C370 C371 1.367 . S
C371 C370 1.367 . S
C371 C373 1.433 . S
C372 C368 1.350 . S
C372 C369 1.463 1_455 S
C372 N376 1.427 . S
C373 H363 0.929 . S
C373 C371 1.433 . S
C373 N376 1.384 . S
C374 H365 0.929 . S
C374 C366 1.378 . S
C374 C369 1.350 . S
C375 H362 0.929 . S
C375 C367 1.433 . S
C375 N377 1.387 . S
N376 C372 1.427 . S
N376 C373 1.384 . S
N377 C369 1.429 . S
N377 C375 1.387 . S
H378 C384 0.930 . S
H379 C388 0.930 . S
H380 C393 0.929 . S
H381 C391 0.929 . S
H382 C386 0.929 1_565 S
H383 C392 0.929 1_545 S
C384 H378 0.930 . S
C384 C385 1.367 . S
C384 C392 1.378 . S
C385 C384 1.367 . S
C385 C393 1.433 . S
C386 H382 0.929 1_545 S
C386 C388 1.378 . S
C386 C390 1.350 . S
C387 C390 1.463 1_565 S
C387 C392 1.350 . S
C387 N395 1.427 . S
C388 H379 0.930 . S
C388 C386 1.378 . S
C388 C389 1.367 . S
C389 C388 1.367 . S
C389 C391 1.433 . S
C390 C386 1.350 . S
C390 C387 1.463 1_545 S
C390 N394 1.427 . S
C391 H381 0.929 . S
C391 C389 1.433 . S
C391 N394 1.384 . S
C392 H383 0.929 1_565 S
C392 C384 1.378 . S
C392 C387 1.350 . S
C393 H380 0.929 . S
C393 C385 1.433 . S
C393 N395 1.384 . S
N394 C390 1.427 . S
N394 C391 1.384 . S
N395 C387 1.427 . S
N395 C393 1.384 . S
H396 C402 0.930 . S
H397 C406 0.930 . S
H398 C411 0.929 . S
H399 C409 0.929 . S
H400 C404 0.929 . S
H401 C410 0.929 . S
C402 H396 0.930 . S
C402 C403 1.367 . S
C402 C410 1.378 . S
C403 C402 1.367 . S
C403 C411 1.433 . S
C404 H400 0.929 . S
C404 C406 1.378 . S
C404 C408 1.350 . S
C405 C408 1.463 . S
C405 C410 1.350 . S
C405 N413 1.427 . S
C406 H397 0.930 . S
C406 C404 1.378 . S
C406 C407 1.367 . S
C407 C406 1.367 . S
C407 C409 1.433 . S
C408 C404 1.350 . S
C408 C405 1.463 . S
C408 N412 1.427 . S
C409 H399 0.929 . S
C409 C407 1.433 . S
C409 N412 1.384 . S
C410 H401 0.929 . S
C410 C402 1.378 . S
C410 C405 1.350 . S
C411 H398 0.929 . S
C411 C403 1.433 . S
C411 N413 1.384 . S
N412 C408 1.427 . S
N412 C409 1.384 . S
N413 C405 1.427 . S
N413 C411 1.384 . S
H414 C420 0.930 . S
H415 C424 0.930 . S
H416 C429 0.929 . S
H417 C427 0.929 . S
H418 C422 0.929 1_455 S
H419 C428 0.929 1_655 S
C420 H414 0.930 . S
C420 C421 1.367 . S
C420 C428 1.378 . S
C421 C420 1.367 . S
C421 C429 1.433 . S
C422 H418 0.929 1_655 S
C422 C424 1.378 . S
C422 C426 1.350 . S
C423 C426 1.463 1_455 S
C423 C428 1.350 . S
C423 N431 1.427 . S
C424 H415 0.930 . S
C424 C422 1.378 . S
C424 C425 1.367 . S
C425 C424 1.367 . S
C425 C427 1.433 . S
C426 C422 1.350 . S
C426 C423 1.463 1_655 S
C426 N430 1.427 . S
C427 H417 0.929 . S
C427 C425 1.433 . S
C427 N430 1.384 . S
C428 H419 0.929 1_455 S
C428 C420 1.378 . S
C428 C423 1.350 . S
C429 H416 0.929 . S
C429 C421 1.433 . S
C429 N431 1.384 . S
N430 C426 1.427 . S
N430 C427 1.384 . S
N431 C423 1.427 . S
N431 C429 1.384 . S
H432 C438 0.930 . S
H433 C442 0.930 . S
H434 C447 0.929 . S
H435 C445 0.929 . S
H436 C440 0.929 1_545 S
H437 C446 0.929 1_565 S
C438 H432 0.930 . S
C438 C439 1.367 . S
C438 C446 1.378 . S
C439 C438 1.367 . S
C439 C447 1.433 . S
C440 H436 0.929 1_565 S
C440 C442 1.378 . S
C440 C444 1.350 . S
C441 C444 1.463 1_545 S
C441 C446 1.350 . S
C441 N449 1.427 . S
C442 H433 0.930 . S
C442 C440 1.378 . S
C442 C443 1.367 . S
C443 C442 1.367 . S
C443 C445 1.433 . S
C444 C440 1.350 . S
C444 C441 1.463 1_565 S
C444 N448 1.427 . S
C445 H435 0.929 . S
C445 C443 1.433 . S
C445 N448 1.384 . S
C446 H437 0.929 1_545 S
C446 C438 1.378 . S
C446 C441 1.350 . S
C447 H434 0.929 . S
C447 C439 1.433 . S
C447 N449 1.384 . S
N448 C444 1.427 . S
N448 C445 1.384 . S
N449 C441 1.427 . S
N449 C447 1.384 . S
C133 C102 0.918 . S
C137 C13 0.876 . S
C151 C123 0.907 . S
C155 C34 0.882 . S
C169 C18 0.895 . S
C173 C55 0.855 . S
C187 C39 0.908 . S
C191 C76 0.844 . S
C205 C60 0.912 . S
C209 C97 0.847 . S
C223 C81 0.918 . S
C227 C118 0.876 . S
C241 C14 1.059 . S
C245 C77 1.056 . S
C259 C98 1.062 . S
C263 C35 1.063 . S
C277 C119 1.040 . S
C281 C56 1.042 . S
C295 C57 1.144 . S
C299 C120 1.140 . S
C313 C15 1.143 . S
C317 C78 1.143 . S
C331 C99 1.139 . S
C335 C36 1.142 . S
C349 C122 1.121 . S
C353 C16 1.094 . S
C367 C37 1.091 . S
C371 C17 1.121 . S
C385 C58 1.088 . S
C389 C38 1.106 . S
C403 C59 1.111 . S
C407 C79 1.082 . S
C421 C100 1.099 . S
C425 C80 1.107 . S
C439 C121 1.089 . S
C443 C101 1.106 . S
