# Generated by pormake.
# Topology wgl, (5)-cn, num edge types: 1
# Building blocks:
#     Node 0, Type 0, BuildingBlock: XOMCOT_clean_sbu_1, # of connection points: 5
#     Node 1, Type 0, BuildingBlock: XOMCOT_clean_sbu_1, # of connection points: 5
#     Node 2, Type 0, BuildingBlock: XOMCOT_clean_sbu_1, # of connection points: 5
#     Node 3, Type 0, BuildingBlock: XOMCOT_clean_sbu_1, # of connection points: 5
#     Node 4, Type 0, BuildingBlock: XOMCOT_clean_sbu_1, # of connection points: 5
#     Node 5, Type 0, BuildingBlock: XOMCOT_clean_sbu_1, # of connection points: 5
#     Node 6, Type 0, BuildingBlock: XOMCOT_clean_sbu_1, # of connection points: 5
#     Node 7, Type 0, BuildingBlock: XOMCOT_clean_sbu_1, # of connection points: 5
#     Node 8, Type 0, BuildingBlock: XOMCOT_clean_sbu_1, # of connection points: 5
#     Node 9, Type 0, BuildingBlock: XOMCOT_clean_sbu_1, # of connection points: 5
#     Node 10, Type 0, BuildingBlock: XOMCOT_clean_sbu_1, # of connection points: 5
#     Node 11, Type 0, BuildingBlock: XOMCOT_clean_sbu_1, # of connection points: 5
#     Node 12, Type 0, BuildingBlock: XOMCOT_clean_sbu_1, # of connection points: 5
#     Node 13, Type 0, BuildingBlock: XOMCOT_clean_sbu_1, # of connection points: 5
#     Node 14, Type 0, BuildingBlock: XOMCOT_clean_sbu_1, # of connection points: 5
#     Node 15, Type 0, BuildingBlock: XOMCOT_clean_sbu_1, # of connection points: 5
#     Node 16, Type 0, BuildingBlock: XOMCOT_clean_sbu_1, # of connection points: 5
#     Node 17, Type 0, BuildingBlock: XOMCOT_clean_sbu_1, # of connection points: 5
#     Node 18, Type 0, BuildingBlock: XOMCOT_clean_sbu_1, # of connection points: 5
#     Node 19, Type 0, BuildingBlock: XOMCOT_clean_sbu_1, # of connection points: 5
#     Node 20, Type 0, BuildingBlock: XOMCOT_clean_sbu_1, # of connection points: 5
#     Node 21, Type 0, BuildingBlock: XOMCOT_clean_sbu_1, # of connection points: 5
#     Node 22, Type 0, BuildingBlock: XOMCOT_clean_sbu_1, # of connection points: 5
#     Node 23, Type 0, BuildingBlock: XOMCOT_clean_sbu_1, # of connection points: 5
#     Node 24, Type 0, BuildingBlock: XOMCOT_clean_sbu_1, # of connection points: 5
#     Node 25, Type 0, BuildingBlock: XOMCOT_clean_sbu_1, # of connection points: 5
#     Node 26, Type 0, BuildingBlock: XOMCOT_clean_sbu_1, # of connection points: 5
#     Node 27, Type 0, BuildingBlock: XOMCOT_clean_sbu_1, # of connection points: 5
#     Node 28, Type 0, BuildingBlock: XOMCOT_clean_sbu_1, # of connection points: 5
#     Node 29, Type 0, BuildingBlock: XOMCOT_clean_sbu_1, # of connection points: 5
#     Node 30, Type 0, BuildingBlock: XOMCOT_clean_sbu_1, # of connection points: 5
#     Node 31, Type 0, BuildingBlock: XOMCOT_clean_sbu_1, # of connection points: 5
#     Edge 32, Type (0, 0), BuildingBlock: TEMPAE_clean_linker_10, # of connection points: 2
#     Edge 33, Type (0, 0), BuildingBlock: TEMPAE_clean_linker_10, # of connection points: 2
#     Edge 34, Type (0, 0), BuildingBlock: TEMPAE_clean_linker_10, # of connection points: 2
#     Edge 35, Type (0, 0), BuildingBlock: TEMPAE_clean_linker_10, # of connection points: 2
#     Edge 36, Type (0, 0), BuildingBlock: TEMPAE_clean_linker_10, # of connection points: 2
#     Edge 37, Type (0, 0), BuildingBlock: TEMPAE_clean_linker_10, # of connection points: 2
#     Edge 38, Type (0, 0), BuildingBlock: TEMPAE_clean_linker_10, # of connection points: 2
#     Edge 39, Type (0, 0), BuildingBlock: TEMPAE_clean_linker_10, # of connection points: 2
#     Edge 40, Type (0, 0), BuildingBlock: TEMPAE_clean_linker_10, # of connection points: 2
#     Edge 41, Type (0, 0), BuildingBlock: TEMPAE_clean_linker_10, # of connection points: 2
#     Edge 42, Type (0, 0), BuildingBlock: TEMPAE_clean_linker_10, # of connection points: 2
#     Edge 43, Type (0, 0), BuildingBlock: TEMPAE_clean_linker_10, # of connection points: 2
#     Edge 44, Type (0, 0), BuildingBlock: TEMPAE_clean_linker_10, # of connection points: 2
#     Edge 45, Type (0, 0), BuildingBlock: TEMPAE_clean_linker_10, # of connection points: 2
#     Edge 46, Type (0, 0), BuildingBlock: TEMPAE_clean_linker_10, # of connection points: 2
#     Edge 47, Type (0, 0), BuildingBlock: TEMPAE_clean_linker_10, # of connection points: 2
#     Edge 48, Type (0, 0), BuildingBlock: TEMPAE_clean_linker_10, # of connection points: 2
#     Edge 49, Type (0, 0), BuildingBlock: TEMPAE_clean_linker_10, # of connection points: 2
#     Edge 50, Type (0, 0), BuildingBlock: TEMPAE_clean_linker_10, # of connection points: 2
#     Edge 51, Type (0, 0), BuildingBlock: TEMPAE_clean_linker_10, # of connection points: 2
#     Edge 52, Type (0, 0), BuildingBlock: TEMPAE_clean_linker_10, # of connection points: 2
#     Edge 53, Type (0, 0), BuildingBlock: TEMPAE_clean_linker_10, # of connection points: 2
#     Edge 54, Type (0, 0), BuildingBlock: TEMPAE_clean_linker_10, # of connection points: 2
#     Edge 55, Type (0, 0), BuildingBlock: TEMPAE_clean_linker_10, # of connection points: 2
#     Edge 56, Type (0, 0), BuildingBlock: TEMPAE_clean_linker_10, # of connection points: 2
#     Edge 57, Type (0, 0), BuildingBlock: TEMPAE_clean_linker_10, # of connection points: 2
#     Edge 58, Type (0, 0), BuildingBlock: TEMPAE_clean_linker_10, # of connection points: 2
#     Edge 59, Type (0, 0), BuildingBlock: TEMPAE_clean_linker_10, # of connection points: 2
#     Edge 60, Type (0, 0), BuildingBlock: TEMPAE_clean_linker_10, # of connection points: 2
#     Edge 61, Type (0, 0), BuildingBlock: TEMPAE_clean_linker_10, # of connection points: 2
#     Edge 62, Type (0, 0), BuildingBlock: TEMPAE_clean_linker_10, # of connection points: 2
#     Edge 63, Type (0, 0), BuildingBlock: TEMPAE_clean_linker_10, # of connection points: 2
#     Edge 64, Type (0, 0), BuildingBlock: TEMPAE_clean_linker_10, # of connection points: 2
#     Edge 65, Type (0, 0), BuildingBlock: TEMPAE_clean_linker_10, # of connection points: 2
#     Edge 66, Type (0, 0), BuildingBlock: TEMPAE_clean_linker_10, # of connection points: 2
#     Edge 67, Type (0, 0), BuildingBlock: TEMPAE_clean_linker_10, # of connection points: 2
#     Edge 68, Type (0, 0), BuildingBlock: TEMPAE_clean_linker_10, # of connection points: 2
#     Edge 69, Type (0, 0), BuildingBlock: TEMPAE_clean_linker_10, # of connection points: 2
#     Edge 70, Type (0, 0), BuildingBlock: TEMPAE_clean_linker_10, # of connection points: 2
#     Edge 71, Type (0, 0), BuildingBlock: TEMPAE_clean_linker_10, # of connection points: 2
#     Edge 72, Type (0, 0), BuildingBlock: TEMPAE_clean_linker_10, # of connection points: 2
#     Edge 73, Type (0, 0), BuildingBlock: TEMPAE_clean_linker_10, # of connection points: 2
#     Edge 74, Type (0, 0), BuildingBlock: TEMPAE_clean_linker_10, # of connection points: 2
#     Edge 75, Type (0, 0), BuildingBlock: TEMPAE_clean_linker_10, # of connection points: 2
#     Edge 76, Type (0, 0), BuildingBlock: TEMPAE_clean_linker_10, # of connection points: 2
#     Edge 77, Type (0, 0), BuildingBlock: TEMPAE_clean_linker_10, # of connection points: 2
#     Edge 78, Type (0, 0), BuildingBlock: TEMPAE_clean_linker_10, # of connection points: 2
#     Edge 79, Type (0, 0), BuildingBlock: TEMPAE_clean_linker_10, # of connection points: 2
#     Edge 80, Type (0, 0), BuildingBlock: TEMPAE_clean_linker_10, # of connection points: 2
#     Edge 81, Type (0, 0), BuildingBlock: TEMPAE_clean_linker_10, # of connection points: 2
#     Edge 82, Type (0, 0), BuildingBlock: TEMPAE_clean_linker_10, # of connection points: 2
#     Edge 83, Type (0, 0), BuildingBlock: TEMPAE_clean_linker_10, # of connection points: 2
#     Edge 84, Type (0, 0), BuildingBlock: TEMPAE_clean_linker_10, # of connection points: 2
#     Edge 85, Type (0, 0), BuildingBlock: TEMPAE_clean_linker_10, # of connection points: 2
#     Edge 86, Type (0, 0), BuildingBlock: TEMPAE_clean_linker_10, # of connection points: 2
#     Edge 87, Type (0, 0), BuildingBlock: TEMPAE_clean_linker_10, # of connection points: 2
#     Edge 88, Type (0, 0), BuildingBlock: TEMPAE_clean_linker_10, # of connection points: 2
#     Edge 89, Type (0, 0), BuildingBlock: TEMPAE_clean_linker_10, # of connection points: 2
#     Edge 90, Type (0, 0), BuildingBlock: TEMPAE_clean_linker_10, # of connection points: 2
#     Edge 91, Type (0, 0), BuildingBlock: TEMPAE_clean_linker_10, # of connection points: 2
#     Edge 92, Type (0, 0), BuildingBlock: TEMPAE_clean_linker_10, # of connection points: 2
#     Edge 93, Type (0, 0), BuildingBlock: TEMPAE_clean_linker_10, # of connection points: 2
#     Edge 94, Type (0, 0), BuildingBlock: TEMPAE_clean_linker_10, # of connection points: 2
#     Edge 95, Type (0, 0), BuildingBlock: TEMPAE_clean_linker_10, # of connection points: 2
#     Edge 96, Type (0, 0), BuildingBlock: TEMPAE_clean_linker_10, # of connection points: 2
#     Edge 97, Type (0, 0), BuildingBlock: TEMPAE_clean_linker_10, # of connection points: 2
#     Edge 98, Type (0, 0), BuildingBlock: TEMPAE_clean_linker_10, # of connection points: 2
#     Edge 99, Type (0, 0), BuildingBlock: TEMPAE_clean_linker_10, # of connection points: 2
#     Edge 100, Type (0, 0), BuildingBlock: TEMPAE_clean_linker_10, # of connection points: 2
#     Edge 101, Type (0, 0), BuildingBlock: TEMPAE_clean_linker_10, # of connection points: 2
#     Edge 102, Type (0, 0), BuildingBlock: TEMPAE_clean_linker_10, # of connection points: 2
#     Edge 103, Type (0, 0), BuildingBlock: TEMPAE_clean_linker_10, # of connection points: 2
#     Edge 104, Type (0, 0), BuildingBlock: TEMPAE_clean_linker_10, # of connection points: 2
#     Edge 105, Type (0, 0), BuildingBlock: TEMPAE_clean_linker_10, # of connection points: 2
#     Edge 106, Type (0, 0), BuildingBlock: TEMPAE_clean_linker_10, # of connection points: 2
#     Edge 107, Type (0, 0), BuildingBlock: TEMPAE_clean_linker_10, # of connection points: 2
#     Edge 108, Type (0, 0), BuildingBlock: TEMPAE_clean_linker_10, # of connection points: 2
#     Edge 109, Type (0, 0), BuildingBlock: TEMPAE_clean_linker_10, # of connection points: 2
#     Edge 110, Type (0, 0), BuildingBlock: TEMPAE_clean_linker_10, # of connection points: 2
#     Edge 111, Type (0, 0), BuildingBlock: TEMPAE_clean_linker_10, # of connection points: 2
# Relax obj value: 0.053
# Max RMSD: 0.091
# Mean RMSD: 0.091
data_MOF--net-wgl--node1-XOMCOT_clean_sbu_1--edge1-TEMPAE_clean_linker_10
_symmetry_space_group_name_H-M    P1
_symmetry_Int_Tables_number       1
_symmetry_cell_setting            triclinic
loop_
_symmetry_equiv_pos_as_xyz
'x, y, z'
_cell_length_a     57.861719
_cell_length_b     57.9052
_cell_length_c     52.967783
_cell_angle_alpha  90.004832
_cell_angle_beta   89.940849
_cell_angle_gamma 89.995621
loop_
_atom_site_label
_atom_site_type_symbol
_atom_site_fract_x
_atom_site_fract_y
_atom_site_fract_z
_atom_type_partial_charge
C0 C 0.27597 0.36811 0.19482 0.0
C1 C 0.25912 0.3846 0.19241 0.0
N2 N 0.25171 0.38463 0.16831 0.0
N3 N 0.27927 0.35763 0.17241 0.0
C4 C 0.26417 0.36801 0.15651 0.0
H5 H 0.28555 0.36425 0.21181 0.0
Co6 Co 0.30199 0.3353 0.16817 0.0
C7 C 0.29996 0.31937 0.11448 0.0
O8 O 0.32231 0.31567 0.11593 0.0
N9 N 0.32528 0.31235 0.16511 0.0
C10 C 0.35839 0.29269 0.16474 0.0
C11 C 0.34857 0.31427 0.16607 0.0
C12 C 0.32151 0.2893 0.16344 0.0
N13 N 0.34131 0.27701 0.16322 0.0
O14 O 0.28275 0.31308 0.18595 0.0
H15 H 0.35816 0.33012 0.16794 0.0
H16 H 0.30449 0.28162 0.16224 0.0
O17 O 0.28915 0.32693 0.13407 0.0
C18 C 0.29123 0.31156 0.20824 0.0
O19 O 0.309 0.3247 0.21391 0.0
N20 N 0.32165 0.35812 0.15471 0.0
C21 C 0.35773 0.38859 0.14414 0.0
C22 C 0.34276 0.38117 0.12488 0.0
C23 C 0.32435 0.36632 0.13069 0.0
C24 C 0.33431 0.3673 0.1739 0.0
C25 C 0.35261 0.38226 0.16906 0.0
H26 H 0.31277 0.36136 0.11576 0.0
H27 H 0.33123 0.36157 0.19304 0.0
H28 H 0.26284 0.36405 0.1366 0.0
H29 H 0.25282 0.39578 0.20728 0.0
H30 H 0.37667 0.2888 0.16552 0.0
H31 H 0.34553 0.38643 0.10549 0.0
H32 H 0.36351 0.38757 0.18463 0.0
C33 C 0.89336 0.03885 0.43177 0.0
C34 C 0.8765 0.02251 0.43522 0.0
N35 N 0.88068 1.00463 0.41952 0.0
N36 N 0.90818 0.03159 0.41384 0.0
C37 C 0.90009 0.01065 0.40672 0.0
H38 H 0.89462 0.05518 0.44156 0.0
Co39 Co 0.93364 0.04885 0.40329 0.0
C40 C 0.95171 0.02437 0.35868 0.0
O41 O 0.97209 0.0242 0.36961 0.0
N42 N 0.95925 0.06666 0.39277 0.0
C43 C 0.98222 0.08901 0.36961 0.0
C44 C 0.96086 0.0788 0.37108 0.0
C45 C 0.97997 0.06981 0.40409 0.0
N46 N 0.9944 0.08324 0.39036 0.0
O47 O 0.95403 0.02715 0.42008 0.0
H48 H 0.94748 0.07993 0.35691 0.0
H49 H 0.98469 0.06198 0.42177 0.0
O50 O 0.93434 0.03245 0.37073 0.0
C51 C 0.95514 0.03416 0.443 0.0
O52 O 0.94272 0.05223 0.44941 0.0
N53 N 0.9137 0.07127 0.39048 0.0
C54 C 0.8858 0.10911 0.37945 0.0
C55 C 0.88695 0.09028 0.36275 0.0
C56 C 0.90084 0.07116 0.36885 0.0
C57 C 0.91269 0.08942 0.40674 0.0
C58 C 0.8988 0.10842 0.4017 0.0
H59 H 0.90139 0.05655 0.35618 0.0
H60 H 0.92291 0.08909 0.42382 0.0
H61 H 0.90834 1.00002 0.39254 0.0
H62 H 0.86192 0.02408 0.44791 0.0
H63 H 0.98812 0.09991 0.35433 0.0
H64 H 0.87712 0.09031 0.34536 0.0
H65 H 0.89861 0.12273 0.41488 0.0
C66 C 0.23927 0.64443 0.68581 0.0
C67 C 0.25748 0.62944 0.68399 0.0
N68 N 0.2693 0.63422 0.66271 0.0
N69 N 0.23932 0.65878 0.6658 0.0
C70 C 0.2578 0.65206 0.65183 0.0
H71 H 0.22662 0.64472 0.70082 0.0
Co72 Co 0.21696 0.68192 0.66311 0.0
C73 C 0.21947 0.70087 0.61049 0.0
O74 O 0.19743 0.706 0.61229 0.0
N75 N 0.19414 0.7054 0.66208 0.0
C76 C 0.16135 0.7251 0.6667 0.0
C77 C 0.17104 0.70351 0.66537 0.0
C78 C 0.19795 0.72853 0.66156 0.0
N79 N 0.17829 0.74085 0.66446 0.0
O80 O 0.23682 0.70297 0.68151 0.0
H81 H 0.16149 0.68766 0.66736 0.0
H82 H 0.21493 0.7362 0.65981 0.0
O83 O 0.22972 0.69155 0.62947 0.0
C84 C 0.23126 0.70164 0.70488 0.0
O85 O 0.21504 0.68694 0.71142 0.0
N86 N 0.19658 0.66018 0.64843 0.0
C87 C 0.16018 0.63062 0.63589 0.0
C88 C 0.17485 0.63944 0.61708 0.0
C89 C 0.19341 0.65378 0.62382 0.0
C90 C 0.18393 0.64986 0.66697 0.0
C91 C 0.16554 0.6353 0.66117 0.0
H92 H 0.2048 0.65969 0.60912 0.0
H93 H 0.18709 0.65436 0.68647 0.0
H94 H 0.26289 0.66017 0.63428 0.0
H95 H 0.26139 0.61568 0.69714 0.0
H96 H 0.14317 0.72889 0.66923 0.0
H97 H 0.17184 0.63554 0.59735 0.0
H98 H 0.1548 0.62891 0.67641 0.0
C99 C 0.61167 0.98891 0.93562 0.0
C100 C 0.62885 1.00517 0.93544 0.0
N101 N 0.63142 0.01297 0.91167 0.0
N102 N 0.60318 0.98632 0.91212 0.0
C103 C 0.61554 1.00131 0.89779 0.0
H104 H 0.60599 0.97922 0.95191 0.0
Co105 Co 0.58044 0.96414 0.90604 0.0
C106 C 0.56261 0.97041 0.85282 0.0
O107 O 0.55408 0.94943 0.85354 0.0
N108 N 0.55726 0.94109 0.90174 0.0
C109 C 0.53869 0.90736 0.90114 0.0
C110 C 0.55996 0.9179 0.90059 0.0
C111 C 0.534 0.94403 0.90302 0.0
N112 N 0.52235 0.92381 0.90286 0.0
O113 O 0.55818 0.98335 0.92368 0.0
H114 H 0.57623 0.90885 0.90023 0.0
H115 H 0.52571 0.96073 0.90429 0.0
O116 O 0.57331 0.97846 0.87225 0.0
C117 C 0.55514 0.97484 0.94576 0.0
O118 O 0.56683 0.95623 0.95197 0.0
N119 N 0.60311 0.94458 0.89222 0.0
C120 C 0.63314 0.90816 0.88127 0.0
C121 C 0.62359 0.92159 0.86179 0.0
C122 C 0.60877 0.93999 0.86767 0.0
C123 C 0.61373 0.93296 0.91131 0.0
C124 C 0.62863 0.91464 0.90631 0.0
H125 H 0.60162 0.94986 0.85238 0.0
H126 H 0.60929 0.93695 0.93066 0.0
H127 H 0.61347 1.00312 0.87759 0.0
H128 H 0.63874 0.01082 0.95164 0.0
H129 H 0.5356 0.88893 0.90136 0.0
H130 H 0.62709 0.91757 0.84218 0.0
H131 H 0.63537 0.90478 0.92204 0.0
C132 C 0.28504 0.64747 0.35658 0.0
C133 C 0.26818 0.63076 0.35613 0.0
N134 N 0.25473 0.63358 0.3766 0.0
N135 N 0.28205 0.66107 0.37702 0.0
C136 C 0.2635 0.65196 0.38907 0.0
H137 H 0.29874 0.64949 0.34287 0.0
Co138 Co 0.30071 0.68661 0.38448 0.0
C139 C 0.27934 0.707 0.43016 0.0
O140 O 0.27979 0.72729 0.41906 0.0
N141 N 0.3198 0.71211 0.39173 0.0
C142 C 0.34358 0.73603 0.41179 0.0
C143 C 0.33254 0.71507 0.41283 0.0
C144 C 0.32353 0.73155 0.37809 0.0
N145 N 0.33787 0.74644 0.38994 0.0
O146 O 0.27827 0.70686 0.36877 0.0
H147 H 0.33326 0.70308 0.42844 0.0
H148 H 0.31585 0.73487 0.35988 0.0
O149 O 0.28644 0.68922 0.41812 0.0
C150 C 0.28182 0.70634 0.34492 0.0
O151 O 0.2988 0.69353 0.33628 0.0
N152 N 0.32351 0.66671 0.39648 0.0
C153 C 0.36209 0.63942 0.40647 0.0
C154 C 0.34495 0.64265 0.42499 0.0
C155 C 0.32545 0.65619 0.41947 0.0
C156 C 0.33978 0.66342 0.37829 0.0
C157 C 0.35913 0.64982 0.38282 0.0
H158 H 0.31232 0.65854 0.43376 0.0
H159 H 0.33782 0.67183 0.36019 0.0
H160 H 0.25632 0.65874 0.40642 0.0
H161 H 0.26619 0.61728 0.34213 0.0
H162 H 0.3543 0.74339 0.42647 0.0
H163 H 0.34664 0.63482 0.44346 0.0
H164 H 0.37206 0.64808 0.36814 0.0
C165 C 0.61505 0.02577 0.59515 0.0
C166 C 0.63231 0.00958 0.59552 0.0
N167 N 0.63434 1.00149 0.61925 0.0
N168 N 0.60601 0.02799 0.61847 0.0
C169 C 0.6181 0.0129 0.63288 0.0
H170 H 0.60972 0.03569 0.57889 0.0
Co171 Co 0.58324 0.04992 0.62494 0.0
C172 C 0.56638 0.04353 0.67823 0.0
O173 O 0.5609 0.06552 0.67855 0.0
N174 N 0.55998 0.07256 0.62998 0.0
C175 C 0.54017 0.10544 0.63313 0.0
C176 C 0.56184 0.09582 0.63142 0.0
C177 C 0.5369 0.06862 0.63061 0.0
N178 N 0.52453 0.08828 0.63245 0.0
O179 O 0.56109 0.03137 0.60608 0.0
H180 H 0.57775 0.1055 0.63091 0.0
H181 H 0.52923 0.05159 0.62988 0.0
O182 O 0.57552 0.03474 0.65821 0.0
C183 C 0.55869 0.04103 0.58446 0.0
O184 O 0.57107 0.05955 0.57964 0.0
N185 N 0.60576 0.06907 0.63962 0.0
C186 C 0.63586 0.105 0.65192 0.0
C187 C 0.62758 0.08996 0.67069 0.0
C188 C 0.61286 0.0717 0.66406 0.0
C189 C 0.61539 0.08213 0.62101 0.0
C190 C 0.63025 0.10028 0.6267 0.0
H191 H 0.60708 0.0602 0.67871 0.0
H192 H 0.61018 0.07939 0.60163 0.0
H193 H 0.61563 0.01088 0.65301 0.0
H194 H 0.64265 1.00421 0.57952 0.0
H195 H 0.5362 0.12369 0.63404 0.0
H196 H 0.63211 0.09255 0.69033 0.0
H197 H 0.63612 0.11135 0.61151 0.0
C198 C 0.22731 0.37541 0.8651 0.0
C199 C 0.24358 0.39247 0.8626 0.0
N200 N 0.26224 0.38675 0.8765 0.0
N201 N 0.23539 0.3589 0.88067 0.0
C202 C 0.25675 0.36623 0.88735 0.0
H203 H 0.21059 0.37505 0.85603 0.0
Co204 Co 0.21877 0.33216 0.88875 0.0
C205 C 0.24264 0.31343 0.93354 0.0
O206 O 0.24366 0.29331 0.92212 0.0
N207 N 0.20175 0.30557 0.89654 0.0
C208 C 0.18025 0.27997 0.91708 0.0
C209 C 0.19057 0.30126 0.9184 0.0
C210 C 0.19775 0.28672 0.8821 0.0
N211 N 0.18475 0.27078 0.89421 0.0
O212 O 0.24202 0.31337 0.87253 0.0
H213 H 0.19027 0.31271 0.93453 0.0
H214 H 0.2041 0.28477 0.86302 0.0
O215 O 0.23402 0.33074 0.92189 0.0
C216 C 0.23964 0.3147 0.84857 0.0
O217 O 0.22387 0.32871 0.83945 0.0
N218 N 0.1949 0.35033 0.90162 0.0
C219 C 0.15526 0.37549 0.91302 0.0
C220 C 0.1736 0.37435 0.93034 0.0
C221 C 0.1936 0.36183 0.9241 0.0
C222 C 0.17721 0.35127 0.88475 0.0
C223 C 0.15732 0.36383 0.88998 0.0
H224 H 0.2078 0.3613 0.93732 0.0
H225 H 0.17867 0.34208 0.86704 0.0
H226 H 0.2681 0.35657 0.89966 0.0
H227 H 0.2415 0.40813 0.85171 0.0
H228 H 0.1707 0.27166 0.93212 0.0
H229 H 0.17252 0.38316 0.94834 0.0
H230 H 0.14343 0.36404 0.87627 0.0
C231 C 0.89736 0.98715 0.09488 0.0
C232 C 0.88079 1.00406 0.09509 0.0
N233 N 0.88312 0.01631 0.11651 0.0
N234 N 0.91001 0.98849 0.11617 0.0
C235 C 0.90105 1.00663 0.12903 0.0
H236 H 0.89979 0.97431 0.0803 0.0
Co237 Co 0.93297 0.96684 0.12229 0.0
C238 C 0.94516 0.96885 0.17683 0.0
O239 O 0.94816 0.94642 0.17529 0.0
N240 N 0.95673 0.94442 0.12699 0.0
C241 C 0.97746 0.91202 0.1292 0.0
C242 C 0.95562 0.92105 0.12692 0.0
C243 C 0.97964 0.94898 0.12921 0.0
N244 N 0.99255 0.9296 0.13047 0.0
O245 O 0.9552 0.98682 0.10588 0.0
H246 H 0.9402 0.9108 0.12513 0.0
H247 H 0.98679 0.96623 0.12985 0.0
O248 O 0.93917 0.98009 0.15688 0.0
C249 C 0.95785 0.9788 0.08353 0.0
O250 O 0.9457 0.96061 0.07694 0.0
N251 N 0.91005 0.9466 0.13463 0.0
C252 C 0.87771 0.91207 0.14471 0.0
C253 C 0.88329 0.92856 0.16318 0.0
C254 C 0.89902 0.94623 0.15747 0.0
C255 C 0.90295 0.93222 0.11582 0.0
C256 C 0.88712 0.91464 0.1205 0.0
H257 H 0.9022 0.95934 0.17147 0.0
H258 H 0.91073 0.9336 0.09731 0.0
H259 H 0.90696 0.01214 0.14745 0.0
H260 H 0.86783 1.00705 0.08072 0.0
H261 H 0.98194 0.89386 0.12913 0.0
H262 H 0.87567 0.92771 0.18184 0.0
H263 H 0.88324 0.90246 0.10557 0.0
C264 C 0.73184 0.6449 0.85665 0.0
C265 C 0.74724 0.62696 0.85487 0.0
N266 N 0.76305 0.62917 0.8734 0.0
N267 N 0.73781 0.65867 0.87607 0.0
C268 C 0.75695 0.64867 0.88596 0.0
H269 H 0.71702 0.64762 0.8446 0.0
Co270 Co 0.72071 0.68484 0.88526 0.0
C271 C 0.74472 0.70297 0.9303 0.0
O272 O 0.746 0.72312 0.91897 0.0
N273 N 0.70316 0.71087 0.89425 0.0
C274 C 0.68188 0.73541 0.91659 0.0
C275 C 0.69217 0.71408 0.91646 0.0
C276 C 0.69902 0.73045 0.88106 0.0
N277 N 0.68618 0.74579 0.89429 0.0
O278 O 0.74351 0.70456 0.86929 0.0
H279 H 0.69216 0.70194 0.93196 0.0
H280 H 0.70531 0.73346 0.86213 0.0
O281 O 0.73606 0.6858 0.91843 0.0
C282 C 0.73967 0.70468 0.84549 0.0
O283 O 0.72249 0.69221 0.83674 0.0
N284 N 0.6974 0.66568 0.89762 0.0
C285 C 0.65848 0.6391 0.90821 0.0
C286 C 0.67639 0.64105 0.92598 0.0
C287 C 0.69605 0.65424 0.92014 0.0
C288 C 0.6802 0.66385 0.88025 0.0
C289 C 0.66068 0.65058 0.88507 0.0
H290 H 0.70986 0.65544 0.93377 0.0
H291 H 0.68168 0.67299 0.86251 0.0
H292 H 0.76588 0.65525 0.90238 0.0
H293 H 0.74676 0.61338 0.84086 0.0
H294 H 0.6726 0.74295 0.9323 0.0
H295 H 0.67523 0.63239 0.94406 0.0
H296 H 0.64711 0.64977 0.87102 0.0
C297 C 0.12392 0.98613 0.59844 0.0
C298 C 0.14074 1.00264 0.6009 0.0
N299 N 0.13605 0.01521 0.62159 0.0
N300 N 0.10872 0.98793 0.61768 0.0
C301 C 0.11647 1.0061 0.63144 0.0
H302 H 0.1231 0.97335 0.58361 0.0
Co303 Co 0.08415 0.96706 0.62147 0.0
C304 C 0.06664 0.9713 0.67496 0.0
O305 O 0.05895 0.95 0.67373 0.0
N306 N 0.05927 0.94573 0.62391 0.0
C307 C 0.03797 0.91371 0.62589 0.0
C308 C 0.06 0.92237 0.62465 0.0
C309 C 0.03633 0.95069 0.62428 0.0
N310 N 0.02309 0.93153 0.62565 0.0
O311 O 0.06371 0.98838 0.60448 0.0
H312 H 0.07537 0.91188 0.62447 0.0
H313 H 0.02942 0.96806 0.62422 0.0
O314 O 0.07691 0.98016 0.6557 0.0
C315 C 0.06458 0.98347 0.58093 0.0
O316 O 0.0788 0.96712 0.57358 0.0
N317 N 0.10504 0.9452 0.63464 0.0
C318 C 0.13146 0.90588 0.6444 0.0
C319 C 0.12433 0.92037 0.66424 0.0
C320 C 0.11137 0.94029 0.65891 0.0
C321 C 0.11388 0.93259 0.61516 0.0
C322 C 0.12713 0.91298 0.61957 0.0
H323 H 0.10605 0.95109 0.67438 0.0
H324 H 0.10911 0.93681 0.596 0.0
H325 H 0.1084 0.01216 0.64863 0.0
H326 H 0.15543 1.00519 0.58851 0.0
H327 H 0.03323 0.89564 0.62663 0.0
H328 H 0.12774 0.91583 0.68371 0.0
H329 H 0.13295 0.90284 0.6036 0.0
C330 C 0.77782 0.36475 0.33965 0.0
C331 C 0.76141 0.38179 0.34004 0.0
N332 N 0.7532 0.38369 0.36375 0.0
N333 N 0.7801 0.35571 0.36293 0.0
C334 C 0.76478 0.36756 0.37735 0.0
H335 H 0.78779 0.35946 0.32338 0.0
Co336 Co 0.80214 0.33288 0.36862 0.0
C337 C 0.79937 0.31844 0.42286 0.0
O338 O 0.82149 0.31355 0.42144 0.0
N339 N 0.82496 0.3094 0.37268 0.0
C340 C 0.85808 0.28975 0.37294 0.0
C341 C 0.84827 0.3113 0.3721 0.0
C342 C 0.8212 0.28628 0.37385 0.0
N343 N 0.84104 0.27398 0.37388 0.0
O344 O 0.78215 0.31056 0.35227 0.0
H345 H 0.85794 0.32712 0.3706 0.0
H346 H 0.80419 0.27856 0.37445 0.0
O347 O 0.78893 0.32622 0.40314 0.0
C348 C 0.79009 0.30705 0.33001 0.0
O349 O 0.80867 0.31843 0.32296 0.0
N350 N 0.82244 0.35568 0.38102 0.0
C351 C 0.86014 0.38427 0.39097 0.0
C352 C 0.84489 0.37783 0.41041 0.0
C353 C 0.82572 0.36392 0.40492 0.0
C354 C 0.83533 0.36416 0.36158 0.0
C355 C 0.85445 0.3782 0.36612 0.0
H356 H 0.81408 0.3596 0.42004 0.0
H357 H 0.8319 0.35833 0.34255 0.0
H358 H 0.76262 0.36489 0.39744 0.0
H359 H 0.7559 0.39199 0.32401 0.0
H360 H 0.87638 0.28598 0.37195 0.0
H361 H 0.84806 0.38305 0.42974 0.0
H362 H 0.86551 0.38286 0.35043 0.0
C363 C 0.3881 0.03345 0.10239 0.0
C364 C 0.37171 0.01652 0.10467 0.0
N365 N 0.37809 1.00234 0.12349 0.0
N366 N 0.40471 0.03027 0.1199 0.0
C367 C 0.39826 0.0109 0.13243 0.0
H368 H 0.38778 0.04744 0.08889 0.0
Co369 Co 0.4292 0.05105 0.12287 0.0
C370 C 0.44507 0.04992 0.17645 0.0
O371 O 0.4499 0.07196 0.174 0.0
N372 N 0.45422 0.07243 0.12443 0.0
C373 C 0.47601 0.10419 0.12465 0.0
C374 C 0.45388 0.09583 0.12425 0.0
C375 C 0.4771 0.06718 0.12473 0.0
N376 N 0.49063 0.08619 0.12491 0.0
O377 O 0.44944 0.02937 0.10621 0.0
H378 H 0.4388 0.10667 0.12401 0.0
H379 H 0.48378 0.04973 0.12519 0.0
O380 O 0.43694 0.03881 0.15737 0.0
C381 C 0.44779 0.03285 0.08243 0.0
O382 O 0.43297 0.04841 0.07447 0.0
N383 N 0.40822 0.07297 0.13596 0.0
C384 C 0.3794 0.11011 0.14761 0.0
C385 C 0.38507 0.09365 0.16608 0.0
C386 C 0.39905 0.07476 0.15968 0.0
C387 C 0.40069 0.08729 0.1173 0.0
C388 C 0.38666 0.10617 0.12272 0.0
H389 H 0.40244 0.06187 0.17387 0.0
H390 H 0.40704 0.08494 0.09825 0.0
H391 H 0.40774 1.00357 0.14811 0.0
H392 H 0.3562 0.01474 0.09341 0.0
H393 H 0.48096 0.12222 0.12434 0.0
H394 H 0.37896 0.09549 0.18531 0.0
H395 H 0.38268 0.11825 0.10774 0.0
C396 C 0.72914 0.37099 0.6751 0.0
C397 C 0.74495 0.38864 0.67593 0.0
N398 N 0.76113 0.38486 0.65807 0.0
N399 N 0.73521 0.35591 0.6569 0.0
C400 C 0.75486 0.36476 0.64687 0.0
H401 H 0.71402 0.36934 0.68698 0.0
Co402 Co 0.7179 0.32957 0.64889 0.0
C403 C 0.74154 0.31054 0.60378 0.0
O404 O 0.74236 0.29028 0.6149 0.0
N405 N 0.70027 0.30333 0.64092 0.0
C406 C 0.67883 0.27823 0.61958 0.0
C407 C 0.68889 0.29967 0.61906 0.0
C408 C 0.69664 0.28389 0.65455 0.0
N409 N 0.68372 0.26823 0.64192 0.0
O410 O 0.74069 0.31021 0.66548 0.0
H411 H 0.68852 0.31152 0.6033 0.0
H412 H 0.70342 0.28116 0.67331 0.0
O413 O 0.73311 0.32778 0.61571 0.0
C414 C 0.7367 0.31115 0.68927 0.0
O415 O 0.71973 0.32434 0.69723 0.0
N416 N 0.69451 0.34843 0.63609 0.0
C417 C 0.65549 0.3748 0.62534 0.0
C418 C 0.67304 0.37217 0.60722 0.0
C419 C 0.69278 0.3591 0.61314 0.0
C420 C 0.67757 0.35084 0.65372 0.0
C421 C 0.65802 0.36405 0.64883 0.0
H422 H 0.70636 0.35738 0.59926 0.0
H423 H 0.6793 0.34228 0.67176 0.0
H424 H 0.7641 0.35692 0.63132 0.0
H425 H 0.74452 0.40309 0.68887 0.0
H426 H 0.6694 0.27031 0.60422 0.0
H427 H 0.67158 0.38028 0.58887 0.0
H428 H 0.64474 0.36551 0.66319 0.0
C429 C 0.39072 0.98247 0.4286 0.0
C430 C 0.37355 0.99876 0.43021 0.0
N431 N 0.37856 0.01614 0.41419 0.0
N432 N 0.40666 0.98936 0.41164 0.0
C433 C 0.39877 0.00997 0.40308 0.0
H434 H 0.3915 0.96649 0.43913 0.0
Co435 Co 0.43318 0.97218 0.4038 0.0
C436 C 0.4523 0.99584 0.35883 0.0
O437 O 0.47248 0.99681 0.37014 0.0
N438 N 0.45957 0.95467 0.39606 0.0
C439 C 0.48489 0.93309 0.37517 0.0
C440 C 0.46364 0.94353 0.37412 0.0
C441 C 0.47855 0.95049 0.41027 0.0
N442 N 0.49433 0.93745 0.39793 0.0
O443 O 0.45239 0.99502 0.42039 0.0
H444 H 0.45211 0.94345 0.35807 0.0
H445 H 0.48076 0.95683 0.4293 0.0
O446 O 0.435 0.98731 0.37061 0.0
C447 C 0.45112 0.99146 0.44422 0.0
O448 O 0.43724 0.97513 0.45237 0.0
N449 N 0.4146 0.94863 0.39096 0.0
C450 C 0.3891 0.90905 0.38005 0.0
C451 C 0.39083 0.92701 0.36227 0.0
C452 C 0.40351 0.94699 0.36826 0.0
C453 C 0.41306 0.93134 0.40826 0.0
C454 C 0.40037 0.91151 0.40327 0.0
H455 H 0.40457 0.96085 0.35466 0.0
H456 H 0.42197 0.93303 0.42611 0.0
H457 H 0.40774 0.02031 0.38917 0.0
H458 H 0.35825 0.99759 0.44191 0.0
H459 H 0.49303 0.92362 0.35995 0.0
H460 H 0.38232 0.92568 0.34412 0.0
H461 H 0.39977 0.89794 0.41735 0.0
C462 C 0.78038 0.65184 0.19648 0.0
C463 C 0.76415 0.63468 0.19706 0.0
N464 N 0.7532 0.63422 0.17464 0.0
N465 N 0.77976 0.66255 0.17393 0.0
C466 C 0.76295 0.65145 0.16088 0.0
H467 H 0.79218 0.65604 0.21158 0.0
Co468 Co 0.80045 0.68648 0.16746 0.0
C469 C 0.7981 0.69796 0.11278 0.0
O470 O 0.82037 0.70203 0.11438 0.0
N471 N 0.82182 0.71114 0.16261 0.0
C472 C 0.85348 0.73294 0.16006 0.0
C473 C 0.84523 0.71092 0.16288 0.0
C474 C 0.81644 0.73381 0.1598 0.0
N475 N 0.83538 0.74737 0.15818 0.0
O476 O 0.77941 0.70802 0.18344 0.0
H477 H 0.85612 0.69602 0.16508 0.0
H478 H 0.79892 0.7403 0.15884 0.0
O479 O 0.78701 0.69173 0.13277 0.0
C480 C 0.78566 0.70981 0.20654 0.0
O481 O 0.80394 0.69827 0.21405 0.0
N482 N 0.82171 0.6644 0.15539 0.0
C483 C 0.85913 0.63589 0.14476 0.0
C484 C 0.8418 0.6393 0.12666 0.0
C485 C 0.82278 0.65334 0.13259 0.0
C486 C 0.83657 0.65834 0.17417 0.0
C487 C 0.85575 0.6446 0.16913 0.0
H488 H 0.80935 0.65543 0.1187 0.0
H489 H 0.83451 0.66581 0.19276 0.0
H490 H 0.75836 0.65552 0.14159 0.0
H491 H 0.76069 0.62345 0.21295 0.0
H492 H 0.87149 0.73802 0.16007 0.0
H493 H 0.84337 0.63195 0.10793 0.0
H494 H 0.86832 0.64156 0.18392 0.0
C495 C 0.12079 0.03461 0.92659 0.0
C496 C 0.13663 0.01709 0.92691 0.0
N497 N 0.13176 1.00238 0.90795 0.0
N498 N 0.10586 0.03139 0.90742 0.0
C499 C 0.11299 0.01152 0.89625 0.0
H500 H 0.12018 0.04884 0.93977 0.0
Co501 Co 0.08118 0.05182 0.90237 0.0
C502 C 0.06411 0.04541 0.84915 0.0
O503 O 0.05574 0.06647 0.84962 0.0
N504 N 0.05607 0.0729 0.89883 0.0
C505 C 0.0347 0.10477 0.89515 0.0
C506 C 0.05674 0.09611 0.89568 0.0
C507 C 0.03313 0.06809 0.9004 0.0
N508 N 0.01983 0.08716 0.89816 0.0
O509 O 0.06091 0.03082 0.92011 0.0
H510 H 0.07207 0.10651 0.8937 0.0
H511 H 0.0262 0.05088 0.90273 0.0
O512 O 0.07449 0.03739 0.86875 0.0
C513 C 0.06182 0.036 0.94358 0.0
O514 O 0.07557 0.05285 0.9506 0.0
N515 N 0.10201 0.07326 0.88834 0.0
C516 C 0.13136 0.11008 0.8769 0.0
C517 C 0.12392 0.09491 0.85786 0.0
C518 C 0.10955 0.0762 0.86408 0.0
C519 C 0.11015 0.08714 0.90711 0.0
C520 C 0.12469 0.10562 0.90184 0.0
H521 H 0.10454 0.06445 0.84932 0.0
H522 H 0.10417 0.08458 0.92624 0.0
H523 H 0.1044 1.00371 0.88027 0.0
H524 H 0.1509 0.01555 0.93999 0.0
H525 H 0.03 0.12278 0.89314 0.0
H526 H 0.12908 0.09755 0.83841 0.0
H527 H 0.12974 0.11698 0.91712 0.0
C528 C 0.77752 0.86593 0.69704 0.0
C529 C 0.76062 0.88251 0.69674 0.0
N530 N 0.7533 0.88517 0.6728 0.0
N531 N 0.78092 0.85793 0.67344 0.0
C532 C 0.76586 0.86998 0.65895 0.0
H533 H 0.78709 0.86038 0.71345 0.0
Co534 Co 0.80403 0.83639 0.66678 0.0
C535 C 0.79713 0.81819 0.61385 0.0
O536 O 0.81887 0.81176 0.61338 0.0
N537 N 0.82802 0.81443 0.66162 0.0
C538 C 0.8624 0.79727 0.65888 0.0
C539 C 0.85104 0.81809 0.65966 0.0
C540 C 0.826 0.79109 0.66214 0.0
N541 N 0.84663 0.78028 0.66058 0.0
O542 O 0.78658 0.81333 0.68548 0.0
H543 H 0.85945 0.83469 0.6594 0.0
H544 H 0.80965 0.78214 0.66364 0.0
O545 O 0.78895 0.8281 0.63373 0.0
C546 C 0.79594 0.81086 0.70722 0.0
O547 O 0.81424 0.82342 0.71252 0.0
N548 N 0.82191 0.85989 0.65196 0.0
C549 C 0.85697 0.89077 0.6388 0.0
C550 C 0.84251 0.88119 0.62022 0.0
C551 C 0.8248 0.86595 0.62722 0.0
C552 C 0.83414 0.8709 0.67033 0.0
C553 C 0.85187 0.88619 0.66421 0.0
H554 H 0.81411 0.85878 0.61261 0.0
H555 H 0.83127 0.86634 0.68988 0.0
H556 H 0.7647 0.86827 0.63865 0.0
H557 H 0.75426 0.89196 0.71295 0.0
H558 H 0.88094 0.79489 0.65807 0.0
H559 H 0.84529 0.88488 0.60041 0.0
H560 H 0.86247 0.89302 0.6793 0.0
C561 C 0.40251 0.52722 0.94118 0.0
C562 C 0.38546 0.51084 0.94005 0.0
N563 N 0.38498 0.50219 0.91649 0.0
N564 N 0.41279 0.52912 0.91843 0.0
C565 C 0.40179 0.51348 0.90366 0.0
H566 H 0.40682 0.53754 0.95751 0.0
Co567 Co 0.43561 0.55132 0.91311 0.0
C568 C 0.45592 0.54361 0.86088 0.0
O569 O 0.46799 0.56268 0.86277 0.0
N570 N 0.45877 0.57451 0.90954 0.0
C571 C 0.47682 0.6085 0.90828 0.0
C572 C 0.45577 0.59761 0.90749 0.0
C573 C 0.48201 0.57201 0.91193 0.0
N574 N 0.49336 0.59239 0.9111 0.0
O575 O 0.45734 0.53212 0.93121 0.0
H576 H 0.43939 0.6064 0.90616 0.0
H577 H 0.49051 0.55548 0.91388 0.0
O578 O 0.44328 0.53704 0.87955 0.0
C579 C 0.45945 0.54039 0.9535 0.0
O580 O 0.44745 0.55889 0.95945 0.0
N581 N 0.41335 0.57082 0.89855 0.0
C582 C 0.38422 0.60755 0.8862 0.0
C583 C 0.39521 0.59464 0.86719 0.0
C584 C 0.40964 0.57616 0.87375 0.0
C585 C 0.40142 0.58201 0.91705 0.0
C586 C 0.38687 0.60043 0.91135 0.0
H587 H 0.41832 0.56704 0.85884 0.0
H588 H 0.40458 0.57768 0.9366 0.0
H589 H 0.40539 0.51098 0.8838 0.0
H590 H 0.37413 0.50573 0.95535 0.0
H591 H 0.47959 0.62697 0.9076 0.0
H592 H 0.39327 0.59925 0.84749 0.0
H593 H 0.37905 0.60994 0.92675 0.0
C594 C 0.72922 0.14147 0.17667 0.0
C595 C 0.74723 0.12621 0.17751 0.0
N596 N 0.7628 0.13225 0.15978 0.0
N597 N 0.733 0.15712 0.15832 0.0
C598 C 0.75368 0.15108 0.14823 0.0
H599 H 0.71434 0.14129 0.189 0.0
Co600 Co 0.71245 0.18153 0.15329 0.0
C601 C 0.71677 0.19692 0.09943 0.0
O602 O 0.69501 0.20325 0.10032 0.0
N603 N 0.69121 0.20651 0.14979 0.0
C604 C 0.65941 0.22811 0.14672 0.0
C605 C 0.66794 0.20602 0.14696 0.0
C606 C 0.6962 0.22939 0.15129 0.0
N607 N 0.67718 0.24281 0.14955 0.0
O608 O 0.73368 0.20204 0.1703 0.0
H609 H 0.6574 0.19081 0.14496 0.0
H610 H 0.71348 0.23621 0.15341 0.0
O611 O 0.72621 0.18801 0.11915 0.0
C612 C 0.7292 0.20105 0.19393 0.0
O613 O 0.71284 0.18693 0.20154 0.0
N614 N 0.69096 0.16035 0.14004 0.0
C615 C 0.65533 0.1294 0.12928 0.0
C616 C 0.67132 0.1357 0.11053 0.0
C617 C 0.68946 0.15083 0.11648 0.0
C618 C 0.67643 0.1532 0.15873 0.0
C619 C 0.65845 0.13794 0.15377 0.0
H620 H 0.70209 0.15468 0.10213 0.0
H621 H 0.67822 0.16034 0.1775 0.0
H622 H 0.76208 0.16057 0.13321 0.0
H623 H 0.74855 0.11157 0.19012 0.0
H624 H 0.6414 0.23294 0.14514 0.0
H625 H 0.6698 0.12899 0.09152 0.0
H626 H 0.64649 0.13371 0.16882 0.0
C627 C 0.10612 0.50282 0.44908 0.0
C628 C 0.12196 0.52049 0.44831 0.0
N629 N 0.12977 0.52236 0.42449 0.0
N630 N 0.1036 0.49381 0.42574 0.0
C631 C 0.11855 0.50593 0.41116 0.0
H632 H 0.09691 0.49711 0.46569 0.0
Co633 Co 0.08256 0.47058 0.41702 0.0
C634 C 0.05985 0.496 0.37334 0.0
O635 O 0.03958 0.4984 0.38417 0.0
N636 N 0.06105 0.44705 0.40856 0.0
C637 C 0.04424 0.41288 0.40229 0.0
C638 C 0.06494 0.42418 0.40561 0.0
C639 C 0.03775 0.44901 0.40735 0.0
N640 N 0.02712 0.42856 0.40358 0.0
O641 O 0.05856 0.48671 0.43573 0.0
H642 H 0.08163 0.41589 0.4068 0.0
H643 H 0.02854 0.465 0.41019 0.0
O644 O 0.07643 0.48638 0.38518 0.0
C645 C 0.0556 0.47583 0.45655 0.0
O646 O 0.06833 0.45741 0.46074 0.0
N647 N 0.10639 0.45376 0.40157 0.0
C648 C 0.13712 0.41925 0.38619 0.0
C649 C 0.12368 0.43132 0.36842 0.0
C650 C 0.10827 0.44848 0.3765 0.0
C651 C 0.12046 0.44351 0.41881 0.0
C652 C 0.13585 0.42621 0.41159 0.0
H653 H 0.09686 0.45623 0.36279 0.0
H654 H 0.11846 0.44764 0.43862 0.0
H655 H 0.12083 0.5031 0.39111 0.0
H656 H 0.12747 0.53108 0.46404 0.0
H657 H 0.04193 0.39442 0.40031 0.0
H658 H 0.12424 0.42684 0.34858 0.0
H659 H 0.14539 0.41729 0.42621 0.0
C660 C 0.77453 0.15199 0.84043 0.0
C661 C 0.75817 0.1349 0.83995 0.0
N662 N 0.75001 0.13192 0.86354 0.0
N663 N 0.7768 0.16003 0.86416 0.0
C664 C 0.76156 0.14747 0.87795 0.0
H665 H 0.78448 0.15794 0.82443 0.0
Co666 Co 0.79884 0.18254 0.87167 0.0
C667 C 0.79103 0.19885 0.92521 0.0
O668 O 0.81263 0.2057 0.926 0.0
N669 N 0.82163 0.20552 0.87775 0.0
C670 C 0.85486 0.22441 0.88286 0.0
C671 C 0.84476 0.20305 0.88033 0.0
C672 C 0.81828 0.22871 0.8784 0.0
N673 N 0.83817 0.24052 0.88153 0.0
O674 O 0.78056 0.20519 0.8532 0.0
H675 H 0.85403 0.18689 0.88014 0.0
H676 H 0.8015 0.23683 0.87691 0.0
O677 O 0.78315 0.18932 0.90497 0.0
C678 C 0.79042 0.20804 0.83172 0.0
O679 O 0.80924 0.19609 0.82697 0.0
N680 N 0.81778 0.15954 0.88588 0.0
C681 C 0.85374 0.1291 0.89723 0.0
C682 C 0.83953 0.13798 0.91647 0.0
C683 C 0.82129 0.15295 0.91035 0.0
C684 C 0.83017 0.14954 0.86692 0.0
C685 C 0.84824 0.13441 0.87213 0.0
H686 H 0.81067 0.15944 0.92542 0.0
H687 H 0.82694 0.1546 0.8476 0.0
H688 H 0.75949 0.14916 0.89817 0.0
H689 H 0.7527 0.12536 0.82343 0.0
H690 H 0.87316 0.22785 0.88484 0.0
H691 H 0.84282 0.13383 0.93607 0.0
H692 H 0.85873 0.12815 0.85662 0.0
C693 C 0.12859 0.54147 0.11995 0.0
C694 C 0.14536 0.52527 0.11529 0.0
N695 N 0.13687 0.50428 0.12114 0.0
N696 N 0.10955 0.53099 0.12922 0.0
C697 C 0.11491 0.50821 0.12893 0.0
H698 H 0.13042 0.55983 0.11693 0.0
Co699 Co 0.08166 0.546 0.13807 0.0
C700 C 0.09185 0.51832 0.18696 0.0
O701 O 0.11254 0.51107 0.18065 0.0
N702 N 0.05394 0.56087 0.14664 0.0
C703 C 0.02742 0.57846 0.17014 0.0
C704 C 0.05001 0.5715 0.16893 0.0
C705 C 0.03344 0.56199 0.13436 0.0
N706 N 0.01697 0.57237 0.14848 0.0
O707 O 0.06424 0.52183 0.1217 0.0
H708 H 0.06272 0.57379 0.18363 0.0
H709 H 0.03036 0.55468 0.11588 0.0
O710 O 0.08013 0.53097 0.17178 0.0
C711 C 0.06567 0.52573 0.09795 0.0
O712 O 0.07869 0.54297 0.09031 0.0
N713 N 0.09831 0.57119 0.15074 0.0
C714 C 0.1229 0.61181 0.15927 0.0
C715 C 0.1243 0.59338 0.17646 0.0
C716 C 0.11199 0.57294 0.17167 0.0
C717 C 0.09642 0.58916 0.13431 0.0
C718 C 0.10858 0.60955 0.13814 0.0
H719 H 0.11382 0.55863 0.18451 0.0
H720 H 0.08568 0.58737 0.11772 0.0
H721 H 0.10308 0.49482 0.13493 0.0
H722 H 0.16282 0.52885 0.10908 0.0
H723 H 0.01925 0.58732 0.18578 0.0
H724 H 0.13521 0.59458 0.193 0.0
H725 H 0.10678 0.62348 0.12463 0.0
C726 C 0.7331 0.86936 0.36042 0.0
C727 C 0.74935 0.88657 0.36096 0.0
N728 N 0.7606 0.8854 0.38314 0.0
N729 N 0.73385 0.85738 0.38222 0.0
C730 C 0.75098 0.86746 0.39573 0.0
H731 H 0.72122 0.86595 0.34514 0.0
Co732 Co 0.71305 0.83345 0.38811 0.0
C733 C 0.72002 0.81633 0.44132 0.0
O734 O 0.69872 0.80857 0.44123 0.0
N735 N 0.69146 0.80901 0.39252 0.0
C736 C 0.65917 0.78821 0.39575 0.0
C737 C 0.6682 0.81014 0.39507 0.0
C738 C 0.69597 0.78604 0.39151 0.0
N739 N 0.67666 0.77309 0.39335 0.0
O740 O 0.73321 0.81261 0.36969 0.0
H741 H 0.65807 0.82573 0.39609 0.0
H742 H 0.71313 0.77883 0.38952 0.0
O743 O 0.72806 0.82651 0.42155 0.0
C744 C 0.72462 0.81035 0.34754 0.0
O745 O 0.7057 0.82188 0.34213 0.0
N746 N 0.69243 0.85487 0.40249 0.0
C747 C 0.65572 0.88438 0.41396 0.0
C748 C 0.67033 0.87612 0.43313 0.0
C749 C 0.68897 0.86165 0.42693 0.0
C750 C 0.67933 0.86401 0.38362 0.0
C751 C 0.66089 0.87864 0.38889 0.0
H752 H 0.70015 0.85588 0.44186 0.0
H753 H 0.68242 0.85876 0.36433 0.0
H754 H 0.75592 0.86222 0.41456 0.0
H755 H 0.75271 0.89901 0.34614 0.0
H756 H 0.64104 0.78375 0.39712 0.0
H757 H 0.66722 0.88059 0.45269 0.0
H758 H 0.65005 0.88438 0.37346 0.0
C759 C 0.38949 0.47367 0.61063 0.0
C760 C 0.37265 0.48998 0.60681 0.0
N761 N 0.37984 0.5101 0.61681 0.0
N762 N 0.40726 0.48314 0.62348 0.0
C763 C 0.40122 0.50568 0.62603 0.0
H764 H 0.38857 0.45599 0.60433 0.0
Co765 Co 0.43438 0.46732 0.63356 0.0
C766 C 0.42129 0.49321 0.68152 0.0
O767 O 0.39913 0.49215 0.67627 0.0
N768 N 0.46142 0.45157 0.64296 0.0
C769 C 0.48773 0.43309 0.66591 0.0
C770 C 0.46654 0.44375 0.6663 0.0
C771 C 0.47984 0.44537 0.62868 0.0
N772 N 0.49612 0.43417 0.64223 0.0
O773 O 0.45283 0.4901 0.61602 0.0
H774 H 0.45563 0.44569 0.68272 0.0
H775 H 0.48129 0.44873 0.6087 0.0
O776 O 0.43605 0.48448 0.66613 0.0
C777 C 0.45348 0.48346 0.59298 0.0
O778 O 0.44115 0.46532 0.58659 0.0
N779 N 0.41674 0.44298 0.6475 0.0
C780 C 0.39332 0.4019 0.65829 0.0
C781 C 0.39687 0.41853 0.67717 0.0
C782 C 0.40876 0.43897 0.67144 0.0
C783 C 0.41421 0.42649 0.62937 0.0
C784 C 0.40232 0.40608 0.63418 0.0
H785 H 0.41215 0.45078 0.68662 0.0
H786 H 0.42155 0.4293 0.61085 0.0
H787 H 0.4118 0.51833 0.63564 0.0
H788 H 0.3562 0.48713 0.59762 0.0
H789 H 0.49652 0.42557 0.68196 0.0
H790 H 0.39068 0.41568 0.69622 0.0
H791 H 0.40071 0.39339 0.61926 0.0
C792 C 0.22532 0.15087 0.36463 0.0
C793 C 0.24042 0.13263 0.36288 0.0
N794 N 0.25778 0.136 0.37944 0.0
N795 N 0.23296 0.1658 0.38227 0.0
C796 C 0.2529 0.15638 0.39085 0.0
H797 H 0.20955 0.15302 0.35395 0.0
Co798 Co 0.21739 0.19306 0.39142 0.0
C799 C 0.22721 0.18871 0.44789 0.0
O800 O 0.20631 0.18124 0.45264 0.0
N801 N 0.20208 0.22107 0.40043 0.0
C802 C 0.18207 0.24763 0.42155 0.0
C803 C 0.19052 0.22561 0.42203 0.0
C804 C 0.19998 0.2409 0.3869 0.0
N805 N 0.18785 0.25737 0.39937 0.0
O806 O 0.24153 0.21106 0.37552 0.0
H807 H 0.18736 0.21364 0.43706 0.0
H808 H 0.20677 0.24308 0.36806 0.0
O809 O 0.23355 0.1935 0.42516 0.0
C810 C 0.23725 0.21053 0.35179 0.0
O811 O 0.21929 0.19865 0.34398 0.0
N812 N 0.19194 0.1751 0.40283 0.0
C813 C 0.15156 0.1497 0.41146 0.0
C814 C 0.17307 0.14127 0.41953 0.0
C815 C 0.19318 0.15404 0.41453 0.0
C816 C 0.17135 0.18241 0.39318 0.0
C817 C 0.15101 0.17035 0.39774 0.0
H818 H 0.20971 0.14714 0.42034 0.0
H819 H 0.1706 0.19751 0.38123 0.0
H820 H 0.26334 0.16403 0.40558 0.0
H821 H 0.23873 0.11803 0.35026 0.0
H822 H 0.17242 0.25574 0.43663 0.0
H823 H 0.17437 0.12502 0.42953 0.0
H824 H 0.13503 0.17684 0.38979 0.0
C825 C 0.61776 0.48835 0.10363 0.0
C826 C 0.63454 0.50496 0.10345 0.0
N827 N 0.6356 0.51459 0.12657 0.0
N828 N 0.60787 0.48738 0.12663 0.0
C829 C 0.61911 0.50364 0.14035 0.0
H830 H 0.61322 0.47747 0.08785 0.0
Co831 Co 0.58434 0.46606 0.13283 0.0
C832 C 0.56854 0.47131 0.18672 0.0
O833 O 0.56149 0.44977 0.18623 0.0
N834 N 0.56034 0.44406 0.13728 0.0
C835 C 0.54005 0.41142 0.13985 0.0
C836 C 0.56184 0.42076 0.13863 0.0
C837 C 0.53727 0.44828 0.13746 0.0
N838 N 0.52461 0.42875 0.13899 0.0
O839 O 0.56267 0.48639 0.1162 0.0
H840 H 0.5776 0.41084 0.13846 0.0
H841 H 0.52981 0.4654 0.13663 0.0
O842 O 0.57812 0.48008 0.16696 0.0
C843 C 0.56105 0.47981 0.09321 0.0
O844 O 0.57273 0.46149 0.08602 0.0
N845 N 0.60649 0.44544 0.14563 0.0
C846 C 0.63662 0.40881 0.15504 0.0
C847 C 0.62872 0.42286 0.17489 0.0
C848 C 0.61393 0.44148 0.16973 0.0
C849 C 0.61546 0.43308 0.12606 0.0
C850 C 0.6304 0.41466 0.1303 0.0
H851 H 0.6084 0.45218 0.18519 0.0
H852 H 0.6098 0.43671 0.10702 0.0
H853 H 0.61563 0.50705 0.16007 0.0
H854 H 0.64506 0.50966 0.08735 0.0
H855 H 0.53589 0.39321 0.14056 0.0
H856 H 0.6336 0.41926 0.19423 0.0
H857 H 0.6359 0.40429 0.11438 0.0
C858 C 0.28583 0.87082 0.8564 0.0
C859 C 0.26988 0.88821 0.85382 0.0
N860 N 0.2526 0.88447 0.87037 0.0
N861 N 0.27884 0.85615 0.87463 0.0
C862 C 0.25836 0.8648 0.88268 0.0
H863 H 0.30173 0.86911 0.84582 0.0
Co864 Co 0.29616 0.83059 0.88504 0.0
C865 C 0.27109 0.81286 0.9296 0.0
O866 O 0.27043 0.79259 0.91847 0.0
N867 N 0.31394 0.80504 0.89542 0.0
C868 C 0.3345 0.78117 0.9194 0.0
C869 C 0.32394 0.80237 0.91826 0.0
C870 C 0.3191 0.78534 0.88289 0.0
N871 N 0.33143 0.77038 0.89712 0.0
O872 O 0.2743 0.81017 0.8684 0.0
H873 H 0.32301 0.81475 0.9335 0.0
H874 H 0.31394 0.78191 0.86372 0.0
O875 O 0.2798 0.83005 0.91777 0.0
C876 C 0.2812 0.80888 0.84544 0.0
O877 O 0.29917 0.82134 0.83876 0.0
N878 N 0.31886 0.85035 0.89763 0.0
C879 C 0.35745 0.87754 0.90777 0.0
C880 C 0.33937 0.87591 0.92544 0.0
C881 C 0.31985 0.86236 0.91981 0.0
C882 C 0.33634 0.85174 0.88051 0.0
C883 C 0.35566 0.86532 0.88509 0.0
H884 H 0.30586 0.86135 0.93329 0.0
H885 H 0.33524 0.84205 0.86311 0.0
H886 H 0.24818 0.85725 0.89772 0.0
H887 H 0.27095 0.90259 0.8408 0.0
H888 H 0.34306 0.77402 0.93578 0.0
H889 H 0.34028 0.88509 0.94323 0.0
H890 H 0.36938 0.86584 0.87116 0.0
C891 C 0.89004 0.5405 0.61741 0.0
C892 C 0.87386 0.52356 0.61341 0.0
N893 N 0.88166 0.50379 0.62369 0.0
N894 N 0.90803 0.53172 0.6305 0.0
C895 C 0.90261 0.50908 0.63345 0.0
H896 H 0.88859 0.5581 0.61093 0.0
Co897 Co 0.93532 0.54771 0.63982 0.0
C898 C 0.92132 0.52386 0.68857 0.0
O899 O 0.89928 0.52531 0.68288 0.0
N900 N 0.96242 0.56335 0.6486 0.0
C901 C 0.98907 0.58159 0.6712 0.0
C902 C 0.96748 0.57186 0.67166 0.0
C903 C 0.98129 0.56815 0.63439 0.0
N904 N 0.99781 0.57928 0.64776 0.0
O905 O 0.95368 0.52413 0.62347 0.0
H906 H 0.95636 0.57078 0.68799 0.0
H907 H 0.9829 0.56359 0.61467 0.0
O908 O 0.93653 0.53176 0.67317 0.0
C909 C 0.95239 0.52753 0.59962 0.0
O910 O 0.93883 0.54408 0.59135 0.0
N911 N 0.9179 0.57275 0.65239 0.0
C912 C 0.89496 0.61459 0.66051 0.0
C913 C 0.89829 0.59894 0.68043 0.0
C914 C 0.90992 0.57806 0.67601 0.0
C915 C 0.91558 0.58826 0.63324 0.0
C916 C 0.90391 0.60903 0.63672 0.0
H917 H 0.9131 0.56693 0.69187 0.0
H918 H 0.92288 0.58435 0.61493 0.0
H919 H 0.91367 0.49677 0.64296 0.0
H920 H 0.85727 0.52582 0.60432 0.0
H921 H 0.99791 0.58918 0.68717 0.0
H922 H 0.89209 0.60287 0.69925 0.0
H923 H 0.90244 0.62091 0.62101 0.0
C924 C 0.23619 0.86716 0.19309 0.0
C925 C 0.25471 0.88184 0.19341 0.0
N926 N 0.2664 0.8795 0.17153 0.0
N927 N 0.23586 0.85552 0.17112 0.0
C928 C 0.25446 0.86342 0.15818 0.0
H929 H 0.22355 0.86518 0.20798 0.0
Co930 Co 0.21275 0.83386 0.16555 0.0
C931 C 0.21472 0.81928 0.11139 0.0
O932 O 0.19232 0.81595 0.11291 0.0
N933 N 0.18881 0.81154 0.16167 0.0
C934 C 0.15494 0.79329 0.16261 0.0
C935 C 0.16565 0.8144 0.16315 0.0
C936 C 0.19157 0.78829 0.16026 0.0
N937 N 0.17123 0.77679 0.16093 0.0
O938 O 0.23136 0.8108 0.18261 0.0
H939 H 0.15668 0.83056 0.16526 0.0
H940 H 0.20826 0.77995 0.1591 0.0
O941 O 0.22574 0.82614 0.13114 0.0
C942 C 0.22316 0.80904 0.20501 0.0
O943 O 0.20553 0.8222 0.2112 0.0
N944 N 0.19382 0.85758 0.15255 0.0
C945 C 0.15884 0.88917 0.14156 0.0
C946 C 0.17433 0.88195 0.12269 0.0
C947 C 0.19219 0.86655 0.12874 0.0
C948 C 0.18078 0.86666 0.17154 0.0
C949 C 0.16299 0.88216 0.16647 0.0
H950 H 0.20422 0.86178 0.11413 0.0
H951 H 0.18299 0.86031 0.19059 0.0
H952 H 0.25923 0.85742 0.13954 0.0
H953 H 0.25883 0.89378 0.20845 0.0
H954 H 0.13654 0.79036 0.16445 0.0
H955 H 0.17236 0.88777 0.10338 0.0
H956 H 0.15167 0.88732 0.18176 0.0
C957 C 0.90432 0.49127 0.94929 0.0
C958 C 0.88779 0.50818 0.94828 0.0
N959 N 0.88389 0.51351 0.92389 0.0
N960 N 0.91119 0.48591 0.92571 0.0
C961 C 0.89841 0.49974 0.9105 0.0
H962 H 0.91077 0.4832 0.96626 0.0
Co963 Co 0.93303 0.46283 0.91997 0.0
C964 C 0.95201 0.46938 0.86712 0.0
O965 O 0.96129 0.44873 0.86799 0.0
N966 N 0.95533 0.43894 0.91577 0.0
C967 C 0.9729 0.40468 0.91497 0.0
C968 C 0.95195 0.41584 0.91457 0.0
C969 C 0.97865 0.44119 0.91701 0.0
N970 N 0.9897 0.42066 0.91667 0.0
O971 O 0.95588 0.48108 0.93784 0.0
H972 H 0.93541 0.40728 0.9142 0.0
H973 H 0.98743 0.45764 0.9181 0.0
O974 O 0.94089 0.47705 0.88644 0.0
C975 C 0.95873 0.47225 0.95979 0.0
O976 O 0.94635 0.45408 0.96599 0.0
N977 N 0.90985 0.44416 0.90578 0.0
C978 C 0.88079 0.40732 0.89363 0.0
C979 C 0.89063 0.42108 0.87457 0.0
C980 C 0.90503 0.43959 0.88104 0.0
C981 C 0.89848 0.43261 0.92444 0.0
C982 C 0.88406 0.41402 0.91884 0.0
H983 H 0.91276 0.44941 0.86603 0.0
H984 H 0.90221 0.43665 0.94395 0.0
H985 H 0.89928 0.49929 0.8901 0.0
H986 H 0.87938 0.516 0.9644 0.0
H987 H 0.97548 0.38617 0.91497 0.0
H988 H 0.88793 0.41707 0.85482 0.0
H989 H 0.87698 0.40402 0.93429 0.0
C990 C 0.28022 0.14615 0.7003 0.0
C991 C 0.26201 0.13107 0.69992 0.0
N992 N 0.25062 0.13353 0.67787 0.0
N993 N 0.28071 0.15818 0.67859 0.0
C994 C 0.26247 0.15014 0.66517 0.0
H995 H 0.29263 0.14802 0.71539 0.0
Co996 Co 0.30394 0.1799 0.67332 0.0
C997 C 0.29975 0.19819 0.62038 0.0
O998 O 0.32183 0.20338 0.62083 0.0
N999 N 0.328 0.20206 0.66966 0.0
C1000 C 0.3622 0.21971 0.66809 0.0
C1001 C 0.35115 0.19876 0.66894 0.0
C1002 C 0.3256 0.22537 0.66949 0.0
N1003 N 0.34612 0.23646 0.6685 0.0
O1004 O 0.28582 0.20257 0.69145 0.0
H1005 H 0.35988 0.18235 0.66929 0.0
H1006 H 0.30907 0.23409 0.6698 0.0
O1007 O 0.29031 0.18878 0.63986 0.0
C1008 C 0.29418 0.20424 0.71373 0.0
O1009 O 0.3117 0.19089 0.71978 0.0
N1010 N 0.32236 0.15667 0.6588 0.0
C1011 C 0.35766 0.1263 0.64531 0.0
C1012 C 0.34241 0.13499 0.62698 0.0
C1013 C 0.32451 0.14989 0.6342 0.0
C1014 C 0.33521 0.14623 0.67705 0.0
C1015 C 0.35312 0.13123 0.67076 0.0
H1016 H 0.31299 0.15617 0.61983 0.0
H1017 H 0.33283 0.15118 0.69657 0.0
H1018 H 0.258 0.15634 0.64656 0.0
H1019 H 0.258 0.11874 0.71463 0.0
H1020 H 0.38071 0.22238 0.66785 0.0
H1021 H 0.34473 0.13087 0.6072 0.0
H1022 H 0.36431 0.125 0.68565 0.0
C1023 C 0.61597 0.52432 0.44338 0.0
C1024 C 0.63294 0.50789 0.44235 0.0
N1025 N 0.63501 0.50067 0.41831 0.0
N1026 N 0.60702 0.52757 0.42016 0.0
C1027 C 0.619 0.51283 0.40514 0.0
H1028 H 0.61092 0.53374 0.46008 0.0
Co1029 Co 0.58457 0.55029 0.41458 0.0
C1030 C 0.56647 0.54463 0.36132 0.0
O1031 O 0.55822 0.56573 0.36206 0.0
N1032 N 0.56185 0.57372 0.41071 0.0
C1033 C 0.54385 0.60772 0.40952 0.0
C1034 C 0.56494 0.59686 0.40971 0.0
C1035 C 0.53853 0.57113 0.41139 0.0
N1036 N 0.52721 0.59153 0.41066 0.0
O1037 O 0.56197 0.53138 0.43191 0.0
H1038 H 0.58136 0.60565 0.40969 0.0
H1039 H 0.52997 0.55455 0.41223 0.0
O1040 O 0.57708 0.53644 0.38071 0.0
C1041 C 0.56072 0.53839 0.4548 0.0
O1042 O 0.57361 0.55598 0.46167 0.0
N1043 N 0.60753 0.56957 0.40098 0.0
C1044 C 0.6373 0.60622 0.39039 0.0
C1045 C 0.62768 0.59302 0.37077 0.0
C1046 C 0.61296 0.5745 0.37646 0.0
C1047 C 0.61847 0.58076 0.42017 0.0
C1048 C 0.63327 0.5992 0.41535 0.0
H1049 H 0.60558 0.56493 0.36108 0.0
H1050 H 0.61424 0.57646 0.4395 0.0
H1051 H 0.61667 0.51164 0.38492 0.0
H1052 H 0.6431 0.5018 0.45815 0.0
H1053 H 0.54105 0.6262 0.40939 0.0
H1054 H 0.63087 0.59742 0.3512 0.0
H1055 H 0.64011 0.60885 0.43118 0.0
C1056 C 0.26016 0.28928 0.23134 0.0
C1057 C 0.28351 0.29449 0.22738 0.0
C1058 C 0.25326 0.27561 0.25213 0.0
C1059 C 0.27015 0.26669 0.26899 0.0
C1060 C 0.29378 0.27125 0.26435 0.0
C1061 C 0.30011 0.28515 0.2438 0.0
C1062 C 0.22787 0.27119 0.25645 0.0
C1063 C 0.31245 0.26168 0.28132 0.0
C1064 C 0.25283 0.24826 0.33584 0.0
C1065 C 0.24976 0.22444 0.33274 0.0
C1066 C 0.25938 0.2623 0.31524 0.0
C1067 C 0.26334 0.25215 0.29118 0.0
C1068 C 0.26126 0.22793 0.28841 0.0
C1069 C 0.25424 0.21448 0.30909 0.0
C1070 C 0.26122 0.28806 0.31898 0.0
C1071 C 0.26579 0.21626 0.26338 0.0
H1072 H 0.24728 0.29665 0.21886 0.0
H1073 H 0.31824 0.28897 0.24071 0.0
H1074 H 0.22446 0.25234 0.25675 0.0
H1075 H 0.22265 0.27815 0.27513 0.0
H1076 H 0.21689 0.27923 0.24166 0.0
H1077 H 0.33007 0.26636 0.27474 0.0
H1078 H 0.31011 0.26831 0.3008 0.0
H1079 H 0.31115 0.24258 0.28221 0.0
H1080 H 0.2488 0.25608 0.35391 0.0
H1081 H 0.25157 0.19608 0.30659 0.0
H1082 H 0.24912 0.29706 0.30606 0.0
H1083 H 0.27892 0.29398 0.31418 0.0
H1084 H 0.25724 0.29332 0.33868 0.0
H1085 H 0.25322 0.22249 0.24912 0.0
H1086 H 0.26442 0.19716 0.26465 0.0
H1087 H 0.28331 0.22076 0.25639 0.0
C1088 C 0.05711 0.99586 0.53682 0.0
C1089 C 0.04908 0.99381 0.56173 0.0
C1090 C 0.04228 1.00215 0.51703 0.0
C1091 C 0.0186 1.00613 0.52208 0.0
C1092 C 0.01041 1.00448 0.54732 0.0
C1093 C 0.0258 0.9985 0.56692 0.0
C1094 C 0.05196 1.00428 0.49063 0.0
C1095 C 0.98525 0.00841 0.5535 0.0
C1096 C 0.98456 0.04278 0.4756 0.0
C1097 C 0.97289 0.02614 0.46116 0.0
C1098 C 0.99959 0.03648 0.49517 0.0
C1099 C 1.00274 0.01286 0.50099 0.0
C1100 C 0.99126 0.99586 0.48622 0.0
C1101 C 0.97661 1.00271 0.46624 0.0
C1102 C 0.01191 0.0552 0.50978 0.0
C1103 C 0.99409 0.9705 0.49192 0.0
H1104 H 0.0751 0.99218 0.53272 0.0
H1105 H 0.01943 0.99649 0.58604 0.0
H1106 H 0.04323 0.99183 0.4779 0.0
H1107 H 0.04858 0.02184 0.48309 0.0
H1108 H 0.07087 1.00101 0.48994 0.0
H1109 H 0.98176 1.00726 0.57408 0.0
H1110 H 0.97969 0.02565 0.54668 0.0
H1111 H 0.97453 0.99535 0.54362 0.0
H1112 H 0.9818 0.06095 0.47165 0.0
H1113 H 0.96739 0.98985 0.45532 0.0
H1114 H 0.03086 0.0524 0.509 0.0
H1115 H 1.00671 0.05451 0.52994 0.0
H1116 H 1.00809 0.07274 0.50238 0.0
H1117 H 0.01258 0.96558 0.4906 0.0
H1118 H 0.98398 0.95945 0.47881 0.0
H1119 H 0.98839 0.96691 0.51154 0.0
C1120 C 0.28959 0.77937 0.81282 0.0
C1121 C 0.27302 0.79113 0.82733 0.0
C1122 C 0.2832 0.76459 0.79305 0.0
C1123 C 0.25956 0.76181 0.78703 0.0
C1124 C 0.24263 0.77332 0.8019 0.0
C1125 C 0.24956 0.7877 0.82211 0.0
C1126 C 0.30186 0.75218 0.77839 0.0
C1127 C 0.21724 0.77091 0.79602 0.0
C1128 C 0.24591 0.74016 0.7203 0.0
C1129 C 0.24097 0.71683 0.72481 0.0
C1130 C 0.25161 0.75513 0.74042 0.0
C1131 C 0.25278 0.74645 0.76549 0.0
C1132 C 0.24848 0.72274 0.76987 0.0
C1133 C 0.24242 0.70835 0.74959 0.0
C1134 C 0.25594 0.78033 0.73494 0.0
C1135 C 0.25013 0.71253 0.79606 0.0
H1136 H 0.30779 0.78195 0.81678 0.0
H1137 H 0.23674 0.79701 0.83303 0.0
H1138 H 0.29876 0.73328 0.77881 0.0
H1139 H 0.30143 0.75766 0.75832 0.0
H1140 H 0.31941 0.75562 0.78601 0.0
H1141 H 0.20623 0.78085 0.80933 0.0
H1142 H 0.21383 0.77707 0.77653 0.0
H1143 H 0.21209 0.75247 0.7968 0.0
H1144 H 0.24439 0.74689 0.70128 0.0
H1145 H 0.23858 0.69032 0.75318 0.0
H1146 H 0.27372 0.78508 0.74077 0.0
H1147 H 0.24383 0.79115 0.74609 0.0
H1148 H 0.25379 0.78452 0.71461 0.0
H1149 H 0.26768 0.71543 0.80388 0.0
H1150 H 0.2465 0.69369 0.79626 0.0
H1151 H 0.2377 0.72124 0.80885 0.0
C1152 C 0.48625 0.01686 0.06861 0.0
C1153 C 0.46297 0.02159 0.06351 0.0
C1154 C 0.50131 0.0096 0.04919 0.0
C1155 C 0.49277 1.0067 0.02425 0.0
C1156 C 0.46907 0.01071 1.01934 0.0
C1157 C 0.45458 0.01829 0.03892 0.0
C1158 C 0.52649 1.0057 0.0552 0.0
C1159 C 0.45904 1.00726 0.99329 0.0
C1160 C 0.53414 1.00727 0.96776 0.0
C1161 C 0.53769 0.98362 0.96387 0.0
C1162 C 0.51973 0.0151 0.98752 0.0
C1163 C 0.50833 0.99887 1.00334 0.0
C1164 C 0.51129 0.97499 0.99876 0.0
C1165 C 0.52604 0.9677 0.97929 0.0
C1166 C 0.51709 0.04072 0.99185 0.0
C1167 C 0.49907 0.95706 1.01461 0.0
H1168 H 0.49289 0.01979 0.08747 0.0
H1169 H 0.43658 0.02194 0.03489 0.0
H1170 H 0.53194 0.98826 0.0489 0.0
H1171 H 0.53719 0.01844 0.04478 0.0
H1172 H 0.53015 1.00742 0.0757 0.0
H1173 H 0.44016 0.0107 0.9927 0.0
H1174 H 0.46774 0.01888 0.97962 0.0
H1175 H 0.46213 0.98928 0.98686 0.0
H1176 H 0.54331 0.01959 0.95604 0.0
H1177 H 0.5286 0.94936 0.9762 0.0
H1178 H 0.52299 0.04518 1.01117 0.0
H1179 H 0.49861 0.04568 0.9905 0.0
H1180 H 0.52713 0.0511 0.97802 0.0
H1181 H 0.50434 0.95881 0.03465 0.0
H1182 H 0.50289 0.93916 1.00829 0.0
H1183 H 0.48011 0.9598 1.01379 0.0
C1184 C 0.21565 0.78324 0.24152 0.0
C1185 C 0.23151 0.7921 0.22393 0.0
C1186 C 0.22279 0.76923 0.26166 0.0
C1187 C 0.24652 0.76412 0.26467 0.0
C1188 C 0.26266 0.77267 0.24671 0.0
C1189 C 0.25493 0.78642 0.22636 0.0
C1190 C 0.20489 0.76008 0.27987 0.0
C1191 C 0.28814 0.76769 0.24932 0.0
C1192 C 0.26696 0.74473 0.33007 0.0
C1193 C 0.26925 0.72088 0.32654 0.0
C1194 C 0.25966 0.7591 0.31008 0.0
C1195 C 0.25419 0.74927 0.28623 0.0
C1196 C 0.25559 0.72504 0.28307 0.0
C1197 C 0.26336 0.71124 0.30313 0.0
C1198 C 0.25863 0.78486 0.31418 0.0
C1199 C 0.24941 0.7137 0.25829 0.0
H1200 H 0.19747 0.78743 0.23964 0.0
H1201 H 0.26726 0.79342 0.21298 0.0
H1202 H 0.2057 0.74094 0.28055 0.0
H1203 H 0.20853 0.7665 0.29919 0.0
H1204 H 0.18705 0.76528 0.2746 0.0
H1205 H 0.29849 0.7757 0.23396 0.0
H1206 H 0.29447 0.7743 0.26772 0.0
H1207 H 0.29116 0.74878 0.24913 0.0
H1208 H 0.27208 0.75227 0.34795 0.0
H1209 H 0.26538 0.69279 0.30032 0.0
H1210 H 0.2412 0.79151 0.30936 0.0
H1211 H 0.27117 0.79354 0.30147 0.0
H1212 H 0.26267 0.78974 0.33398 0.0
H1213 H 0.23161 0.71857 0.25264 0.0
H1214 H 0.25051 0.69457 0.25926 0.0
H1215 H 0.26124 0.71984 0.24322 0.0
C1216 C 0.45773 1.00715 0.48719 0.0
C1217 C 0.46649 1.0026 0.46298 0.0
C1218 C 0.47233 0.01343 0.50722 0.0
C1219 C 0.49648 0.01474 0.50318 0.0
C1220 C 0.50543 0.0106 0.4786 0.0
C1221 C 0.49029 1.00479 0.45869 0.0
C1222 C 0.4619 0.01821 0.53286 0.0
C1223 C 0.53106 0.01171 0.47349 0.0
C1224 C 0.53211 0.05051 0.54914 0.0
C1225 C 0.54144 0.03368 0.5653 0.0
C1226 C 0.51749 0.04457 0.52905 0.0
C1227 C 0.51215 0.02109 0.52461 0.0
C1228 C 0.52121 1.00396 0.54108 0.0
C1229 C 0.53561 0.01047 0.56142 0.0
C1230 C 0.50784 0.06349 0.5125 0.0
C1231 C 0.51601 0.97872 0.53691 0.0
H1232 H 0.43935 1.00525 0.49062 0.0
H1233 H 0.49717 1.00076 0.44016 0.0
H1234 H 0.46858 1.00559 0.54682 0.0
H1235 H 0.467 0.03566 0.53948 0.0
H1236 H 0.44273 0.01716 0.53268 0.0
H1237 H 0.53541 1.00679 0.45377 0.0
H1238 H 0.53748 0.02947 0.47702 0.0
H1239 H 0.54041 1.00003 0.48659 0.0
H1240 H 0.53635 0.06854 0.55215 0.0
H1241 H 0.54292 0.9974 0.57369 0.0
H1242 H 0.48867 0.0629 0.51271 0.0
H1243 H 0.51345 0.06084 0.49268 0.0
H1244 H 0.51345 0.08095 0.51866 0.0
H1245 H 0.49708 0.97575 0.5377 0.0
H1246 H 0.52449 0.96749 0.55117 0.0
H1247 H 0.52195 0.97344 0.51783 0.0
C1248 C 0.26331 0.22848 0.73445 0.0
C1249 C 0.28649 0.22182 0.73226 0.0
C1250 C 0.25616 0.24342 0.75402 0.0
C1251 C 0.27268 0.25224 0.77135 0.0
C1252 C 0.29619 0.24608 0.76859 0.0
C1253 C 0.30273 0.23083 0.74929 0.0
C1254 C 0.23088 0.24939 0.7565 0.0
C1255 C 0.3145 0.25555 0.78608 0.0
C1256 C 0.25754 0.30738 0.80675 0.0
C1257 C 0.25148 0.29902 0.83071 0.0
C1258 C 0.26488 0.29242 0.78749 0.0
C1259 C 0.2656 0.26834 0.79204 0.0
C1260 C 0.2599 0.2598 0.8164 0.0
C1261 C 0.25317 0.27531 0.83559 0.0
C1262 C 0.27137 0.30237 0.76209 0.0
C1263 C 0.26024 0.23425 0.82197 0.0
H1264 H 0.2507 0.22141 0.72145 0.0
H1265 H 0.32075 0.22592 0.74752 0.0
H1266 H 0.22444 0.24399 0.77535 0.0
H1267 H 0.22849 0.26835 0.75512 0.0
H1268 H 0.22017 0.24094 0.74176 0.0
H1269 H 0.33211 0.24946 0.78103 0.0
H1270 H 0.31434 0.2747 0.78555 0.0
H1271 H 0.31074 0.25028 0.8058 0.0
H1272 H 0.25606 0.32572 0.80291 0.0
H1273 H 0.24802 0.26877 0.85393 0.0
H1274 H 0.25929 0.29594 0.74743 0.0
H1275 H 0.28898 0.29662 0.75664 0.0
H1276 H 0.27094 0.32155 0.76199 0.0
H1277 H 0.24922 0.22491 0.80821 0.0
H1278 H 0.25405 0.23028 0.84136 0.0
H1279 H 0.27807 0.22749 0.81984 0.0
C1280 C 0.02401 0.0196 0.95881 0.0
C1281 C 0.04729 0.02487 0.96315 0.0
C1282 C 0.0095 0.01263 0.97885 0.0
C1283 C 0.01865 0.01047 1.00363 0.0
C1284 C 0.04236 0.01504 1.00779 0.0
C1285 C 0.05627 0.0224 0.98761 0.0
C1286 C 0.98426 1.00818 0.97366 0.0
C1287 C 0.05304 0.01239 0.03365 0.0
C1288 C 0.97834 0.01126 0.06106 0.0
C1289 C 0.97524 0.98761 0.0654 0.0
C1290 C 0.99232 0.01902 0.04089 0.0
C1291 C 1.00372 1.00274 0.02513 0.0
C1292 C 1.00128 0.97889 0.03022 0.0
C1293 C 0.98695 0.97166 0.05008 0.0
C1294 C 0.99439 0.04461 0.03601 0.0
C1295 C 0.01354 0.96092 1.01446 0.0
H1296 H 0.01692 0.02192 0.94005 0.0
H1297 H 0.07427 0.02653 0.99104 0.0
H1298 H 0.97951 0.99048 0.97975 0.0
H1299 H 0.97353 0.0204 0.98476 0.0
H1300 H 0.97991 0.01017 0.95335 0.0
H1301 H 0.07189 0.01604 0.03359 0.0
H1302 H 0.04454 0.02431 0.04716 0.0
H1303 H 0.05029 0.99457 0.04076 0.0
H1304 H 0.96908 0.02359 0.07267 0.0
H1305 H 0.98467 0.95333 0.05349 0.0
H1306 H 0.98789 0.04864 1.0168 0.0
H1307 H 0.0128 0.04991 0.03665 0.0
H1308 H 0.98455 0.05503 0.04996 0.0
H1309 H 1.00768 0.96207 0.99457 0.0
H1310 H 0.01037 0.94308 0.02138 0.0
H1311 H 0.03244 0.96416 1.01456 0.0
C1312 C 0.75781 0.71075 0.80363 0.0
C1313 C 0.75205 0.71973 0.82741 0.0
C1314 C 0.76532 0.72513 0.78392 0.0
C1315 C 0.76653 0.74929 0.7878 0.0
C1316 C 0.76115 0.75845 0.812 0.0
C1317 C 0.75418 0.7435 0.83163 0.0
C1318 C 0.77139 0.71449 0.75872 0.0
C1319 C 0.76197 0.78411 0.81687 0.0
C1320 C 0.80415 0.78477 0.74341 0.0
C1321 C 0.78799 0.7938 0.72628 0.0
C1322 C 0.79741 0.77026 0.76332 0.0
C1323 C 0.77378 0.76479 0.76658 0.0
C1324 C 0.75733 0.77357 0.74913 0.0
C1325 C 0.76466 0.78782 0.72901 0.0
C1326 C 0.81564 0.76087 0.78094 0.0
C1327 C 0.73194 0.76824 0.75202 0.0
H1328 H 0.75589 0.69237 0.80027 0.0
H1329 H 0.74914 0.75054 0.8498 0.0
H1330 H 0.75932 0.72084 0.74402 0.0
H1331 H 0.78907 0.71974 0.75296 0.0
H1332 H 0.77056 0.69533 0.75914 0.0
H1333 H 0.75731 0.78851 0.83665 0.0
H1334 H 0.77954 0.79085 0.81286 0.0
H1335 H 0.74984 0.79311 0.80397 0.0
H1336 H 0.82228 0.78914 0.74129 0.0
H1337 H 0.75209 0.7949 0.71598 0.0
H1338 H 0.81514 0.74171 0.78093 0.0
H1339 H 0.81209 0.76664 0.80054 0.0
H1340 H 0.83334 0.76651 0.77562 0.0
H1341 H 0.72912 0.74931 0.75117 0.0
H1342 H 0.7213 0.7766 0.73716 0.0
H1343 H 0.72579 0.77419 0.77078 0.0
C1344 C 0.79615 0.27672 0.29767 0.0
C1345 C 0.78065 0.2895 0.31251 0.0
C1346 C 0.78835 0.26209 0.27836 0.0
C1347 C 0.7644 0.26045 0.27333 0.0
C1348 C 0.74857 0.27297 0.28864 0.0
C1349 C 0.75688 0.28722 0.30826 0.0
C1350 C 0.80584 0.24864 0.2631 0.0
C1351 C 0.7229 0.27177 0.28381 0.0
C1352 C 0.74664 0.23882 0.20786 0.0
C1353 C 0.74055 0.2159 0.21307 0.0
C1354 C 0.75419 0.25365 0.22733 0.0
C1355 C 0.75606 0.2452 0.25243 0.0
C1356 C 0.75061 0.22184 0.25749 0.0
C1357 C 0.74273 0.20761 0.23785 0.0
C1358 C 0.75966 0.2785 0.22118 0.0
C1359 C 0.75287 0.21189 0.28375 0.0
H1360 H 0.81456 0.27837 0.30102 0.0
H1361 H 0.74491 0.29731 0.31951 0.0
H1362 H 0.80186 0.22991 0.26397 0.0
H1363 H 0.80491 0.25389 0.24298 0.0
H1364 H 0.8238 0.25134 0.26989 0.0
H1365 H 0.71286 0.28243 0.29739 0.0
H1366 H 0.71912 0.27783 0.26438 0.0
H1367 H 0.71687 0.25362 0.28514 0.0
H1368 H 0.74462 0.24541 0.18883 0.0
H1369 H 0.73803 0.18987 0.24197 0.0
H1370 H 0.77772 0.28254 0.22662 0.0
H1371 H 0.74822 0.29008 0.23225 0.0
H1372 H 0.75742 0.2824 0.20079 0.0
H1373 H 0.77083 0.21407 0.29068 0.0
H1374 H 0.74839 0.19324 0.28443 0.0
H1375 H 0.74137 0.22132 0.29696 0.0
C1376 C 0.75137 0.27271 0.70454 0.0
C1377 C 0.74849 0.29649 0.70824 0.0
C1378 C 0.75783 0.25818 0.72477 0.0
C1379 C 0.76185 0.26775 0.74909 0.0
C1380 C 0.75984 0.29191 0.7525 0.0
C1381 C 0.75295 0.30587 0.73217 0.0
C1382 C 0.75962 0.23251 0.72033 0.0
C1383 C 0.76445 0.30302 0.77782 0.0
C1384 C 0.75908 0.22984 0.80843 0.0
C1385 C 0.78249 0.2248 0.8123 0.0
C1386 C 0.75202 0.24358 0.78776 0.0
C1387 C 0.7688 0.25275 0.77088 0.0
C1388 C 0.79246 0.24822 0.77529 0.0
C1389 C 0.79895 0.23427 0.79575 0.0
C1390 C 0.72659 0.24794 0.78368 0.0
C1391 C 0.81101 0.25802 0.7583 0.0
H1392 H 0.74737 0.26533 0.68625 0.0
H1393 H 0.75051 0.32425 0.73515 0.0
H1394 H 0.77723 0.22639 0.72517 0.0
H1395 H 0.74732 0.22328 0.73287 0.0
H1396 H 0.75584 0.22773 0.70044 0.0
H1397 H 0.76289 0.32213 0.77712 0.0
H1398 H 0.75207 0.29632 0.79204 0.0
H1399 H 0.78207 0.29852 0.78444 0.0
H1400 H 0.74628 0.2224 0.82098 0.0
H1401 H 0.81713 0.23062 0.79872 0.0
H1402 H 0.72138 0.24144 0.76481 0.0
H1403 H 0.72308 0.26677 0.78399 0.0
H1404 H 0.7157 0.23945 0.79825 0.0
H1405 H 0.80841 0.25187 0.73867 0.0
H1406 H 0.82868 0.25306 0.76446 0.0
H1407 H 0.80985 0.27714 0.75796 0.0
C1408 C 0.71798 0.78331 0.31188 0.0
C1409 C 0.73369 0.79399 0.32836 0.0
C1410 C 0.72552 0.76957 0.29167 0.0
C1411 C 0.74948 0.76665 0.28741 0.0
C1412 C 0.7655 0.7771 0.30422 0.0
C1413 C 0.7574 0.79049 0.3247 0.0
C1414 C 0.70779 0.75829 0.27478 0.0
C1415 C 0.79119 0.77449 0.30026 0.0
C1416 C 0.76953 0.71449 0.24954 0.0
C1417 C 0.77329 0.72393 0.2255 0.0
C1418 C 0.76145 0.72809 0.26963 0.0
C1419 C 0.75758 0.75198 0.26585 0.0
C1420 C 0.76098 0.76157 0.24142 0.0
C1421 C 0.76861 0.74735 0.22142 0.0
C1422 C 0.75745 0.71693 0.29505 0.0
C1423 C 0.75729 0.78698 0.23663 0.0
H1424 H 0.69959 0.7858 0.31475 0.0
H1425 H 0.76958 0.79889 0.33724 0.0
H1426 H 0.70999 0.76442 0.25509 0.0
H1427 H 0.71034 0.7393 0.27467 0.0
H1428 H 0.68979 0.762 0.2809 0.0
H1429 H 0.80139 0.78393 0.31471 0.0
H1430 H 0.79603 0.75596 0.3009 0.0
H1431 H 0.79601 0.78106 0.28129 0.0
H1432 H 0.77332 0.69638 0.25273 0.0
H1433 H 0.77203 0.75476 0.20299 0.0
H1434 H 0.73947 0.72013 0.30145 0.0
H1435 H 0.76914 0.7247 0.3093 0.0
H1436 H 0.76047 0.69799 0.29461 0.0
H1437 H 0.7395 0.79205 0.24216 0.0
H1438 H 0.76005 0.79166 0.21651 0.0
H1439 H 0.7694 0.79719 0.24843 0.0
C1440 C 0.4876 0.54717 0.98796 0.0
C1441 C 0.47616 0.53142 0.97221 0.0
C1442 C 0.50161 0.53967 1.00794 0.0
C1443 C 0.50392 0.51575 1.0127 0.0
C1444 C 0.49267 0.49968 0.99659 0.0
C1445 C 0.47908 0.50772 0.9763 0.0
C1446 C 0.51378 0.5574 0.02408 0.0
C1447 C 0.49458 0.47403 1.00116 0.0
C1448 C 0.55604 0.49475 0.0498 0.0
C1449 C 0.54689 0.49184 0.07411 0.0
C1450 C 0.54236 0.50288 0.02984 0.0
C1451 C 0.5187 0.50767 0.03409 0.0
C1452 C 0.5094 0.5051 0.05878 0.0
C1453 C 0.52371 0.49741 0.07862 0.0
C1454 C 0.55319 0.50599 1.00409 0.0
C1455 C 0.48419 0.50973 0.06402 0.0
H1456 H 0.48547 0.56555 0.98472 0.0
H1457 H 0.47003 0.49554 0.96432 0.0
H1458 H 0.50784 0.55593 0.04393 0.0
H1459 H 0.53268 0.55417 0.02395 0.0
H1460 H 0.51061 0.57534 1.01748 0.0
H1461 H 0.4846 0.46381 0.98716 0.0
H1462 H 0.51295 0.46861 1.00029 0.0
H1463 H 0.48815 0.46984 1.02037 0.0
H1464 H 0.57398 0.49033 0.04631 0.0
H1465 H 0.51653 0.49469 0.0973 0.0
H1466 H 0.55043 0.52391 0.99731 0.0
H1467 H 0.54481 0.49425 0.99031 0.0
H1468 H 0.57205 0.50238 1.00419 0.0
H1469 H 0.47949 0.52739 0.05778 0.0
H1470 H 0.47987 0.50791 0.08437 0.0
H1471 H 0.47341 0.49744 0.05309 0.0
C1472 C 0.95755 0.50994 0.55734 0.0
C1473 C 0.96711 0.51556 0.58088 0.0
C1474 C 0.97152 0.50308 0.53699 0.0
C1475 C 0.99582 0.50232 0.53998 0.0
C1476 C 1.00557 0.50746 0.56394 0.0
C1477 C 0.99106 0.51384 0.58421 0.0
C1478 C 0.96028 0.49727 0.51205 0.0
C1479 C 0.03139 0.50707 0.56789 0.0
C1480 C 0.03065 0.46635 0.49339 0.0
C1481 C 0.03888 0.48303 0.47635 0.0
C1482 C 0.01666 0.47239 0.51401 0.0
C1483 C 0.01084 0.49582 0.51805 0.0
C1484 C 0.0188 0.51279 0.50072 0.0
C1485 C 0.0326 0.50617 0.47992 0.0
C1486 C 1.00819 0.45365 0.53157 0.0
C1487 C 0.01306 0.53798 0.50441 0.0
H1488 H 0.93904 0.51153 0.55466 0.0
H1489 H 0.99853 0.51876 0.60219 0.0
H1490 H 0.96594 0.50976 0.49742 0.0
H1491 H 0.96574 0.47985 0.50569 0.0
H1492 H 0.94111 0.49767 0.51317 0.0
H1493 H 0.03627 0.51148 0.58759 0.0
H1494 H 0.03835 0.48972 0.56329 0.0
H1495 H 0.03979 0.51957 0.55492 0.0
H1496 H 0.03528 0.44837 0.49067 0.0
H1497 H 0.03908 0.51915 0.46698 0.0
H1498 H 0.98902 0.45373 0.53229 0.0
H1499 H 0.01449 0.45695 0.55101 0.0
H1500 H 0.01404 0.4362 0.52564 0.0
H1501 H 0.99405 0.54043 0.50433 0.0
H1502 H 0.02076 0.54908 0.48951 0.0
H1503 H 0.01947 0.54386 0.52308 0.0
C1504 C 0.06 0.512 0.054 0.0
C1505 C 0.05149 0.51366 0.07877 0.0
C1506 C 0.04586 0.50473 0.034 0.0
C1507 C 0.02243 0.49928 0.03873 0.0
C1508 C 0.01389 0.50015 0.06387 0.0
C1509 C 0.0286 0.50719 0.08367 0.0
C1510 C 0.05587 0.50356 1.00768 0.0
C1511 C 0.989 0.4945 0.06969 0.0
C1512 C 0.97995 0.50327 0.98357 0.0
C1513 C 0.97688 0.47994 0.97755 0.0
C1514 C 0.99471 0.50986 1.00351 0.0
C1515 C 1.00694 0.49271 1.01729 0.0
C1516 C 1.00458 0.46923 1.01039 0.0
C1517 C 0.98943 0.46315 0.99083 0.0
C1518 C 0.99673 0.53508 1.0103 0.0
C1519 C 0.01774 0.45044 0.02395 0.0
H1520 H 0.07771 0.517 0.05012 0.0
H1521 H 0.02185 0.50881 0.10269 0.0
H1522 H 0.05291 0.48621 0.99941 0.0
H1523 H 0.04705 0.51627 0.99533 0.0
H1524 H 0.07472 0.50721 1.00739 0.0
H1525 H 0.98517 0.49542 0.09023 0.0
H1526 H 0.97749 0.50675 0.05963 0.0
H1527 H 0.98477 0.4769 0.06283 0.0
H1528 H 0.97005 0.51621 0.97351 0.0
H1529 H 0.98715 0.44508 0.98605 0.0
H1530 H 0.01505 0.54064 1.00922 0.0
H1531 H 0.99092 0.53777 0.03006 0.0
H1532 H 0.98627 0.54628 0.99769 0.0
H1533 H 0.03656 0.4541 0.02334 0.0
H1534 H 0.01466 0.43312 1.0156 0.0
H1535 H 0.01255 0.45 0.04412 0.0
C1536 C 0.55355 0.5256 0.49876 0.0
C1537 C 0.54535 0.52793 0.47398 0.0
C1538 C 0.53893 0.51871 0.51851 0.0
C1539 C 0.51525 0.51461 0.51358 0.0
C1540 C 0.50687 0.51673 0.48847 0.0
C1541 C 0.52211 0.52316 0.46887 0.0
C1542 C 0.54884 0.51591 0.54472 0.0
C1543 C 0.48169 0.51282 0.48246 0.0
C1544 C 0.48195 0.47617 0.55895 0.0
C1545 C 0.47051 0.49222 0.5744 0.0
C1546 C 0.49667 0.48324 0.53941 0.0
C1547 C 0.49964 0.50707 0.53456 0.0
C1548 C 0.48827 0.52347 0.55023 0.0
C1549 C 0.47402 0.51583 0.57024 0.0
C1550 C 0.50898 0.46514 0.52385 0.0
C1551 C 0.49078 0.54903 0.54548 0.0
H1552 H 0.57155 0.52938 0.50273 0.0
H1553 H 0.51564 0.52543 0.44983 0.0
H1554 H 0.54013 0.52794 0.55796 0.0
H1555 H 0.54564 0.49812 0.55169 0.0
H1556 H 0.56773 0.5193 0.54528 0.0
H1557 H 0.4781 0.51413 0.46191 0.0
H1558 H 0.47614 0.49553 0.48915 0.0
H1559 H 0.47102 0.52581 0.49254 0.0
H1560 H 0.47933 0.45786 0.56215 0.0
H1561 H 0.46498 0.52825 0.58195 0.0
H1562 H 0.52793 0.46796 0.52467 0.0
H1563 H 0.50373 0.46658 0.50378 0.0
H1564 H 0.50523 0.44732 0.53046 0.0
H1565 H 0.50922 0.55412 0.5469 0.0
H1566 H 0.48058 0.55955 0.55904 0.0
H1567 H 0.48501 0.55317 0.52602 0.0
C1568 C 0.36269 0.24242 0.14974 0.0
C1569 C 0.34384 0.25229 0.16235 0.0
C1570 C 0.36582 0.21843 0.14911 0.0
C1571 C 0.3498 0.20389 0.16163 0.0
C1572 C 0.33068 0.21373 0.17443 0.0
C1573 C 0.32785 0.23785 0.17451 0.0
C1574 C 0.38632 0.20865 0.13502 0.0
C1575 C 0.31341 0.19882 0.18825 0.0
C1576 C 0.35184 0.14231 0.13763 0.0
C1577 C 0.36788 0.13228 0.15421 0.0
C1578 C 0.34454 0.16524 0.14078 0.0
C1579 C 0.35336 0.17842 0.16111 0.0
C1580 C 0.36803 0.16782 0.17908 0.0
C1581 C 0.37517 0.14488 0.17538 0.0
C1582 C 0.32875 0.17583 0.12128 0.0
C1583 C 0.37762 0.1812 0.20117 0.0
H1584 H 0.3749 0.25354 0.14011 0.0
H1585 H 0.31343 0.24547 0.18456 0.0
H1586 H 0.39741 0.19865 0.14813 0.0
H1587 H 0.38032 0.19659 0.12012 0.0
H1588 H 0.39701 0.22232 0.12604 0.0
H1589 H 0.29958 0.20917 0.19742 0.0
H1590 H 0.30529 0.18646 0.17494 0.0
H1591 H 0.32233 0.18848 0.20294 0.0
H1592 H 0.34577 0.13252 0.1215 0.0
H1593 H 0.38764 0.13735 0.18822 0.0
H1594 H 0.33868 0.18828 0.10961 0.0
H1595 H 0.31456 0.18555 0.13052 0.0
H1596 H 0.32111 0.16262 0.10857 0.0
H1597 H 0.39076 0.19367 0.1943 0.0
H1598 H 0.38589 0.16971 0.21533 0.0
H1599 H 0.36377 0.19126 0.2106 0.0
C1600 C 0.03256 0.09851 0.37741 0.0
C1601 C 0.01796 0.0897 0.39629 0.0
C1602 C 0.05501 0.10601 0.38296 0.0
C1603 C 0.06344 0.10425 0.40795 0.0
C1604 C 0.04932 0.09443 0.42695 0.0
C1605 C 0.02667 0.08752 0.42097 0.0
C1606 C 0.06947 0.11648 0.36212 0.0
C1607 C 0.05783 0.09182 0.45373 0.0
C1608 C 0.12839 0.11295 0.41102 0.0
C1609 C 0.12968 0.13678 0.4156 0.0
C1610 C 0.10691 0.10158 0.41042 0.0
C1611 C 0.08635 0.11443 0.4142 0.0
C1612 C 0.08775 0.13809 0.42071 0.0
C1613 C 0.10939 0.1489 0.42152 0.0
C1614 C 0.10615 0.07619 0.40405 0.0
C1615 C 0.0663 0.15246 0.42492 0.0
H1616 H 0.02648 0.09978 0.35817 0.0
H1617 H 0.01575 0.08089 0.43588 0.0
H1618 H 0.07355 0.13472 0.36677 0.0
H1619 H 0.08612 0.10712 0.36037 0.0
H1620 H 0.06059 0.11605 0.34354 0.0
H1621 H 0.04631 0.08056 0.46517 0.0
H1622 H 0.07554 0.08448 0.45399 0.0
H1623 H 0.05863 0.10903 0.46287 0.0
H1624 H 0.14398 0.10345 0.40646 0.0
H1625 H 0.11034 0.16721 0.42568 0.0
H1626 H 0.10026 0.07398 0.38427 0.0
H1627 H 0.09365 0.06704 0.4164 0.0
H1628 H 0.12338 0.06792 0.40601 0.0
H1629 H 0.05683 0.15432 0.40682 0.0
H1630 H 0.0704 0.16998 0.43218 0.0
H1631 H 0.05452 0.1438 0.43847 0.0
C1632 C 0.15769 0.87864 0.66829 0.0
C1633 C 0.14139 0.88254 0.64914 0.0
C1634 C 0.16652 0.85633 0.67277 0.0
C1635 C 0.15879 0.83757 0.65781 0.0
C1636 C 0.14246 0.84148 0.63841 0.0
C1637 C 0.13392 0.8638 0.63444 0.0
C1638 C 0.18388 0.85277 0.69365 0.0
C1639 C 0.13359 0.82198 0.62211 0.0
C1640 C 0.18977 0.78006 0.65084 0.0
C1641 C 0.1756 0.76559 0.66538 0.0
C1642 C 0.18544 0.80393 0.64941 0.0
C1643 C 0.16659 0.8135 0.66295 0.0
C1644 C 0.15319 0.79916 0.6789 0.0
C1645 C 0.15784 0.77542 0.67988 0.0
C1646 C 0.20014 0.81863 0.6322 0.0
C1647 C 0.13305 0.80864 0.69381 0.0
H1648 H 0.16361 0.89302 0.67966 0.0
H1649 H 0.1209 0.86647 0.62003 0.0
H1650 H 0.17656 0.84107 0.70818 0.0
H1651 H 0.19965 0.84435 0.68608 0.0
H1652 H 0.18888 0.86926 0.70287 0.0
H1653 H 0.12164 0.8281 0.60713 0.0
H1654 H 0.14825 0.81285 0.613 0.0
H1655 H 0.1243 0.80921 0.63399 0.0
H1656 H 0.2035 0.77256 0.63961 0.0
H1657 H 0.14722 0.7644 0.69165 0.0
H1658 H 0.20539 0.83479 0.64187 0.0
H1659 H 0.18992 0.82359 0.61534 0.0
H1660 H 0.21591 0.80938 0.62578 0.0
H1661 H 0.13823 0.82441 0.70425 0.0
H1662 H 0.12612 0.79586 0.70751 0.0
H1663 H 0.11895 0.81358 0.68069 0.0
C1664 C 0.48734 0.90059 0.89526 0.0
C1665 C 0.49779 0.92021 0.90572 0.0
C1666 C 0.46366 0.8963 0.8984 0.0
C1667 C 0.44992 0.91207 0.91232 0.0
C1668 C 0.46031 0.93196 0.92297 0.0
C1669 C 0.48414 0.9358 0.91954 0.0
C1670 C 0.45332 0.8749 0.88662 0.0
C1671 C 0.44629 0.94914 0.93798 0.0
C1672 C 0.38689 0.9065 0.89443 0.0
C1673 C 0.37887 0.89087 0.91266 0.0
C1674 C 0.40952 0.91514 0.89531 0.0
C1675 C 0.42459 0.90778 0.91475 0.0
C1676 C 0.41597 0.89346 0.93435 0.0
C1677 C 0.39311 0.88522 0.9331 0.0
C1678 C 0.41783 0.93062 0.87423 0.0
C1679 C 0.43142 0.88524 0.95544 0.0
H1680 H 0.4977 0.88863 0.88434 0.0
H1681 H 0.49214 0.9508 0.92806 0.0
H1682 H 0.44472 0.86428 0.90131 0.0
H1683 H 0.43994 0.87987 0.87265 0.0
H1684 H 0.46649 0.86409 0.87695 0.0
H1685 H 0.45693 0.96382 0.94486 0.0
H1686 H 0.43203 0.95605 0.92622 0.0
H1687 H 0.43828 0.94046 0.95448 0.0
H1688 H 0.3758 0.91096 0.87867 0.0
H1689 H 0.38697 0.87301 0.94711 0.0
H1690 H 0.42951 0.92071 0.86161 0.0
H1691 H 0.42784 0.94538 0.88189 0.0
H1692 H 0.40329 0.93744 0.86275 0.0
H1693 H 0.44359 0.87207 0.94801 0.0
H1694 H 0.42137 0.87739 0.97114 0.0
H1695 H 0.44189 0.8997 0.96303 0.0
C1696 C 0.38183 0.87383 0.35363 0.0
C1697 C 0.37642 0.8873 0.37481 0.0
C1698 C 0.37367 0.85099 0.35153 0.0
C1699 C 0.35979 0.84157 0.37105 0.0
C1700 C 0.35276 0.85583 0.39138 0.0
C1701 C 0.36119 0.87848 0.39301 0.0
C1702 C 0.3813 0.83647 0.32939 0.0
C1703 C 0.33777 0.84665 0.41247 0.0
C1704 C 0.32945 0.78324 0.36785 0.0
C1705 C 0.34445 0.76945 0.38223 0.0
C1706 C 0.33469 0.80653 0.3628 0.0
C1707 C 0.35537 0.81622 0.37243 0.0
C1708 C 0.37109 0.802 0.38578 0.0
C1709 C 0.36545 0.77886 0.39046 0.0
C1710 C 0.31753 0.82099 0.34833 0.0
C1711 C 0.39344 0.81151 0.39623 0.0
H1712 H 0.39365 0.88058 0.33956 0.0
H1713 H 0.35676 0.889 0.40926 0.0
H1714 H 0.39473 0.82408 0.3357 0.0
H1715 H 0.36662 0.82626 0.32185 0.0
H1716 H 0.38863 0.84718 0.31394 0.0
H1717 H 0.33173 0.86058 0.4253 0.0
H1718 H 0.32248 0.83756 0.4047 0.0
H1719 H 0.34775 0.83394 0.42374 0.0
H1720 H 0.31314 0.77616 0.36149 0.0
H1721 H 0.37734 0.76817 0.40107 0.0
H1722 H 0.32647 0.83237 0.33458 0.0
H1723 H 0.30797 0.83225 0.36168 0.0
H1724 H 0.30481 0.81014 0.33805 0.0
H1725 H 0.40336 0.82036 0.38113 0.0
H1726 H 0.40451 0.79783 0.40459 0.0
H1727 H 0.38961 0.82451 0.41105 0.0
C1728 C 0.39322 0.12367 0.61848 0.0
C1729 C 0.37968 0.1147 0.63818 0.0
C1730 C 0.41617 0.11647 0.61499 0.0
C1731 C 0.42586 0.10004 0.6317 0.0
C1732 C 0.41173 0.08955 0.65029 0.0
C1733 C 0.38878 0.09694 0.65323 0.0
C1734 C 0.43055 0.12787 0.59473 0.0
C1735 C 0.42134 0.07186 0.66838 0.0
C1736 C 0.48584 0.07583 0.61825 0.0
C1737 C 0.49977 0.09063 0.63267 0.0
C1738 C 0.4617 0.07857 0.61767 0.0
C1739 C 0.45132 0.09636 0.6321 0.0
C1740 C 0.46534 0.11112 0.64696 0.0
C1741 C 0.48937 0.10814 0.64693 0.0
C1742 C 0.44738 0.06272 0.60133 0.0
C1743 C 0.45496 0.13017 0.66283 0.0
H1744 H 0.38645 0.13749 0.60684 0.0
H1745 H 0.37829 0.08958 0.66816 0.0
H1746 H 0.44274 0.14023 0.60359 0.0
H1747 H 0.44099 0.11487 0.58439 0.0
H1748 H 0.41972 0.13745 0.58095 0.0
H1749 H 0.4075 0.0631 0.67934 0.0
H1750 H 0.43151 0.05861 0.65811 0.0
H1751 H 0.4332 0.0805 0.68186 0.0
H1752 H 0.4939 0.06247 0.60693 0.0
H1753 H 0.50011 0.1194 0.65828 0.0
H1754 H 0.43809 0.07296 0.58684 0.0
H1755 H 0.43412 0.05386 0.61295 0.0
H1756 H 0.45807 0.04946 0.59163 0.0
H1757 H 0.44559 0.14255 0.65057 0.0
H1758 H 0.46824 0.13981 0.67371 0.0
H1759 H 0.44222 0.12284 0.6763 0.0
C1760 C 0.15819 0.23754 0.89565 0.0
C1761 C 0.17788 0.24817 0.88547 0.0
C1762 C 0.15245 0.21471 0.8896 0.0
C1763 C 0.16656 0.2021 0.87263 0.0
C1764 C 0.18574 0.2131 0.86111 0.0
C1765 C 0.19127 0.23598 0.8678 0.0
C1766 C 0.13173 0.20377 0.90225 0.0
C1767 C 0.20114 0.20053 0.84266 0.0
C1768 C 0.1626 0.13839 0.88713 0.0
C1769 C 0.14448 0.13154 0.87123 0.0
C1770 C 0.17144 0.16092 0.88624 0.0
C1771 C 0.16199 0.17699 0.86897 0.0
C1772 C 0.14539 0.16949 0.85112 0.0
C1773 C 0.13674 0.14682 0.8525 0.0
C1774 C 0.18948 0.16804 0.90529 0.0
C1775 C 0.13544 0.18592 0.83189 0.0
H1776 H 0.14739 0.24699 0.90877 0.0
H1777 H 0.20657 0.24396 0.85986 0.0
H1778 H 0.11983 0.19657 0.88786 0.0
H1779 H 0.13747 0.18925 0.91439 0.0
H1780 H 0.12198 0.21623 0.91413 0.0
H1781 H 0.21011 0.2128 0.82986 0.0
H1782 H 0.2145 0.19082 0.85327 0.0
H1783 H 0.19125 0.18801 0.83107 0.0
H1784 H 0.16897 0.12646 0.90129 0.0
H1785 H 0.12278 0.14163 0.84011 0.0
H1786 H 0.18156 0.17983 0.91939 0.0
H1787 H 0.2037 0.17758 0.89588 0.0
H1788 H 0.1969 0.15298 0.91545 0.0
H1789 H 0.12337 0.19802 0.84139 0.0
H1790 H 0.12584 0.17666 0.81681 0.0
H1791 H 0.14935 0.19639 0.82309 0.0
C1792 C 0.12341 0.89432 0.11505 0.0
C1793 C 0.13709 0.90169 0.13537 0.0
C1794 C 0.10061 0.90219 0.1122 0.0
C1795 C 0.09124 0.91776 0.13013 0.0
C1796 C 0.10558 0.92674 0.14941 0.0
C1797 C 0.12835 0.91862 0.15177 0.0
C1798 C 0.08598 0.89234 0.09122 0.0
C1799 C 0.09637 0.94351 0.16878 0.0
C1800 C 0.03147 0.9433 0.11828 0.0
C1801 C 0.01735 0.92772 0.13148 0.0
C1802 C 0.05562 0.9405 0.11775 0.0
C1803 C 0.06582 0.92183 0.13096 0.0
C1804 C 0.05162 0.90642 0.1448 0.0
C1805 C 0.0276 0.90952 0.14478 0.0
C1806 C 0.07015 0.95715 0.10261 0.0
C1807 C 0.06175 0.88641 0.15936 0.0
H1808 H 0.12993 0.88115 0.10237 0.0
H1809 H 0.13897 0.92473 0.16725 0.0
H1810 H 0.07349 0.87977 0.09925 0.0
H1811 H 0.07585 0.90615 0.08185 0.0
H1812 H 0.09659 0.88333 0.07677 0.0
H1813 H 0.11043 0.95142 0.18013 0.0
H1814 H 0.08633 0.95746 0.15954 0.0
H1815 H 0.08449 0.93429 0.18179 0.0
H1816 H 0.02354 0.95723 0.10772 0.0
H1817 H 0.01673 0.89764 0.15522 0.0
H1818 H 0.07911 0.94775 0.0872 0.0
H1819 H 0.08369 0.96492 0.11475 0.0
H1820 H 0.05966 0.97124 0.09416 0.0
H1821 H 0.07091 0.87457 0.14626 0.0
H1822 H 0.04837 0.87639 0.16967 0.0
H1823 H 0.07464 0.8928 0.1732 0.0
C1824 C 0.66029 0.77939 0.8987 0.0
C1825 C 0.67943 0.76892 0.88715 0.0
C1826 C 0.65459 0.80249 0.89395 0.0
C1827 C 0.66813 0.81554 0.87684 0.0
C1828 C 0.68686 0.80485 0.86414 0.0
C1829 C 0.69239 0.7817 0.86958 0.0
C1830 C 0.63442 0.81313 0.90789 0.0
C1831 C 0.70155 0.81802 0.8455 0.0
C1832 C 0.6373 0.87064 0.85791 0.0
C1833 C 0.64572 0.8862 0.87602 0.0
C1834 C 0.64589 0.84796 0.85641 0.0
C1835 C 0.66311 0.84063 0.87361 0.0
C1836 C 0.673 0.85681 0.89048 0.0
C1837 C 0.66428 0.87942 0.89137 0.0
C1838 C 0.63527 0.8314 0.83774 0.0
C1839 C 0.6915 0.84979 0.90903 0.0
H1840 H 0.6498 0.76956 0.91178 0.0
H1841 H 0.7073 0.77389 0.86062 0.0
H1842 H 0.64058 0.82762 0.91983 0.0
H1843 H 0.62179 0.82034 0.89426 0.0
H1844 H 0.62534 0.80049 0.92016 0.0
H1845 H 0.71236 0.8063 0.83381 0.0
H1846 H 0.69063 0.82866 0.83282 0.0
H1847 H 0.71318 0.82992 0.85587 0.0
H1848 H 0.62294 0.87563 0.84597 0.0
H1849 H 0.67128 0.8915 0.905 0.0
H1850 H 0.6235 0.81941 0.84783 0.0
H1851 H 0.64883 0.82081 0.82847 0.0
H1852 H 0.62519 0.84055 0.82297 0.0
H1853 H 0.6839 0.83817 0.92349 0.0
H1854 H 0.69924 0.86491 0.9188 0.0
H1855 H 0.70544 0.84009 0.89934 0.0
C1856 C 0.98797 0.9127 0.64164 0.0
C1857 C 0.99828 0.92995 0.6269 0.0
C1858 C 0.96395 0.90967 0.64195 0.0
C1859 C 0.94979 0.92411 0.62692 0.0
C1860 C 0.96003 0.94194 0.61237 0.0
C1861 C 0.98421 0.94475 0.61267 0.0
C1862 C 0.9538 0.89065 0.65805 0.0
C1863 C 0.94555 0.95753 0.59594 0.0
C1864 C 0.89291 0.89459 0.61261 0.0
C1865 C 0.87876 0.90309 0.63205 0.0
C1866 C 0.91558 0.90273 0.60935 0.0
C1867 C 0.92442 0.91967 0.62604 0.0
C1868 C 0.90965 0.92965 0.64436 0.0
C1869 C 0.88698 0.92131 0.64707 0.0
C1870 C 0.93064 0.8918 0.58936 0.0
C1871 C 0.91832 0.94782 0.66246 0.0
H1872 H 0.9988 0.9015 0.65295 0.0
H1873 H 0.9922 0.95799 0.60112 0.0
H1874 H 0.9406 0.89785 0.67107 0.0
H1875 H 0.94502 0.87779 0.64585 0.0
H1876 H 0.96712 0.88158 0.66942 0.0
H1877 H 0.95596 0.97142 0.587 0.0
H1878 H 0.93721 0.9472 0.58083 0.0
H1879 H 0.93152 0.96556 0.60722 0.0
H1880 H 0.88687 0.88043 0.60097 0.0
H1881 H 0.87602 0.92836 0.66179 0.0
H1882 H 0.94325 0.88002 0.59849 0.0
H1883 H 0.94063 0.90515 0.57904 0.0
H1884 H 0.92037 0.88167 0.57554 0.0
H1885 H 0.93002 0.93966 0.67644 0.0
H1886 H 0.90396 0.95633 0.67284 0.0
H1887 H 0.9284 0.96121 0.65231 0.0
C1888 C 0.87691 0.14319 0.35217 0.0
C1889 C 0.87219 0.13017 0.37385 0.0
C1890 C 0.86849 0.16587 0.34975 0.0
C1891 C 0.85494 0.17555 0.36941 0.0
C1892 C 0.84842 0.16164 0.3902 0.0
C1893 C 0.85724 0.13916 0.39224 0.0
C1894 C 0.87583 0.18009 0.32726 0.0
C1895 C 0.83377 0.17111 0.41141 0.0
C1896 C 0.86361 0.23912 0.38385 0.0
C1897 C 0.84383 0.24922 0.37334 0.0
C1898 C 0.86738 0.21525 0.3825 0.0
C1899 C 0.8509 0.20096 0.37039 0.0
C1900 C 0.83074 0.21097 0.35988 0.0
C1901 C 0.82743 0.23502 0.36151 0.0
C1902 C 0.88909 0.20534 0.39407 0.0
C1903 C 0.81278 0.19632 0.34685 0.0
H1904 H 0.88857 0.13629 0.33802 0.0
H1905 H 0.85348 0.12899 0.40894 0.0
H1906 H 0.86106 0.19014 0.31971 0.0
H1907 H 0.88928 0.19262 0.3332 0.0
H1908 H 0.88305 0.16919 0.3119 0.0
H1909 H 0.82724 0.15721 0.424 0.0
H1910 H 0.84423 0.18324 0.4229 0.0
H1911 H 0.81882 0.18089 0.40384 0.0
H1912 H 0.87618 0.24995 0.3933 0.0
H1913 H 0.81226 0.24275 0.35303 0.0
H1914 H 0.89914 0.19585 0.37954 0.0
H1915 H 0.88449 0.1928 0.4091 0.0
H1916 H 0.90035 0.21887 0.40241 0.0
H1917 H 0.82079 0.18667 0.33101 0.0
H1918 H 0.79823 0.20679 0.33934 0.0
H1919 H 0.80576 0.18336 0.36024 0.0
C1920 C 0.52896 0.07171 0.11141 0.0
C1921 C 0.51548 0.08759 0.12498 0.0
C1922 C 0.55311 0.07441 0.10967 0.0
C1923 C 0.56388 0.09333 0.12189 0.0
C1924 C 0.55033 0.10893 0.13624 0.0
C1925 C 0.52638 0.10585 0.13757 0.0
C1926 C 0.56696 0.05745 0.0942 0.0
C1927 C 0.56108 0.12919 0.14986 0.0
C1928 C 0.62669 0.0986 0.14035 0.0
C1929 C 0.63432 0.11565 0.12347 0.0
C1930 C 0.60431 0.0894 0.13862 0.0
C1931 C 0.58919 0.09754 0.1196 0.0
C1932 C 0.59758 0.11308 0.10106 0.0
C1933 C 0.62009 0.12195 0.10321 0.0
C1934 C 0.59621 0.07262 0.15856 0.0
C1935 C 0.5821 0.12206 0.08036 0.0
H1936 H 0.52055 0.05768 0.10149 0.0
H1937 H 0.51603 0.1179 0.14841 0.0
H1938 H 0.57401 0.06627 0.07727 0.0
H1939 H 0.58188 0.05093 0.10523 0.0
H1940 H 0.55638 0.04253 0.0879 0.0
H1941 H 0.54814 0.13943 0.1606 0.0
H1942 H 0.5745 0.12304 0.1632 0.0
H1943 H 0.56968 0.14078 0.13606 0.0
H1944 H 0.6378 0.09337 0.1558 0.0
H1945 H 0.62587 0.13515 0.09013 0.0
H1946 H 0.58587 0.05851 0.15002 0.0
H1947 H 0.58492 0.08179 0.17223 0.0
H1948 H 0.61091 0.06493 0.1691 0.0
H1949 H 0.57196 0.10781 0.07183 0.0
H1950 H 0.59209 0.13087 0.06524 0.0
H1951 H 0.56965 0.13462 0.08847 0.0
C1952 C 0.65839 0.23414 0.63874 0.0
C1953 C 0.67768 0.24502 0.64945 0.0
C1954 C 0.65354 0.21085 0.64348 0.0
C1955 C 0.66814 0.19802 0.65971 0.0
C1956 C 0.68692 0.20917 0.67178 0.0
C1957 C 0.69158 0.23251 0.66637 0.0
C1958 C 0.63323 0.19974 0.63028 0.0
C1959 C 0.70272 0.1963 0.68953 0.0
C1960 C 0.64003 0.14122 0.67751 0.0
C1961 C 0.64828 0.12676 0.65823 0.0
C1962 C 0.64797 0.16408 0.6798 0.0
C1963 C 0.66434 0.17267 0.66227 0.0
C1964 C 0.67428 0.15748 0.64435 0.0
C1965 C 0.66621 0.13469 0.64263 0.0
C1966 C 0.63744 0.17953 0.69967 0.0
C1967 C 0.692 0.16583 0.6255 0.0
H1968 H 0.64721 0.24378 0.62621 0.0
H1969 H 0.70659 0.24066 0.6747 0.0
H1970 H 0.63947 0.18584 0.61755 0.0
H1971 H 0.6215 0.19168 0.6443 0.0
H1972 H 0.62315 0.21231 0.6189 0.0
H1973 H 0.71246 0.20831 0.70194 0.0
H1974 H 0.69288 0.18403 0.70152 0.0
H1975 H 0.71539 0.18617 0.67836 0.0
H1976 H 0.62619 0.13527 0.68968 0.0
H1977 H 0.67307 0.12343 0.62809 0.0
H1978 H 0.62481 0.19136 0.69067 0.0
H1979 H 0.65093 0.19033 0.70874 0.0
H1980 H 0.62832 0.16945 0.71448 0.0
H1981 H 0.6836 0.1777 0.61185 0.0
H1982 H 0.69996 0.15136 0.61479 0.0
H1983 H 0.70587 0.17563 0.63516 0.0
C1984 C 0.6272 0.91559 0.404 0.0
C1985 C 0.63405 0.89725 0.41959 0.0
C1986 C 0.6046 0.92432 0.40493 0.0
C1987 C 0.58847 0.91458 0.42199 0.0
C1988 C 0.59595 0.89771 0.43954 0.0
C1989 C 0.61867 0.88915 0.43808 0.0
C1990 C 0.59749 0.9426 0.38616 0.0
C1991 C 0.57947 0.88742 0.45855 0.0
C1992 C 0.52938 0.94373 0.42405 0.0
C1993 C 0.51708 0.93056 0.40629 0.0
C1994 C 0.55234 0.93818 0.43042 0.0
C1995 C 0.56334 0.91924 0.41846 0.0
C1996 C 0.55066 0.90537 0.40134 0.0
C1997 C 0.52773 0.9111 0.39565 0.0
C1998 C 0.565 0.95328 0.44905 0.0
C1999 C 0.5616 0.88492 0.38821 0.0
H2000 H 0.63918 0.92228 0.39005 0.0
H2001 H 0.62383 0.87501 0.45025 0.0
H2002 H 0.58571 0.93488 0.37194 0.0
H2003 H 0.58791 0.95667 0.39579 0.0
H2004 H 0.61256 0.95017 0.37613 0.0
H2005 H 0.58871 0.87758 0.47345 0.0
H2006 H 0.56896 0.90115 0.4676 0.0
H2007 H 0.5674 0.87551 0.44879 0.0
H2008 H 0.52141 0.95886 0.43234 0.0
H2009 H 0.51822 0.90045 0.38246 0.0
H2010 H 0.57503 0.96652 0.4386 0.0
H2011 H 0.57729 0.94312 0.46065 0.0
H2012 H 0.55278 0.96236 0.46183 0.0
H2013 H 0.57614 0.89089 0.37618 0.0
H2014 H 0.54913 0.87541 0.37614 0.0
H2015 H 0.56881 0.87275 0.40232 0.0
C2016 C 0.86969 0.87782 0.17206 0.0
C2017 C 0.86403 0.89108 0.15081 0.0
C2018 C 0.86096 0.85535 0.17503 0.0
C2019 C 0.84618 0.846 0.15632 0.0
C2020 C 0.83869 0.86013 0.13611 0.0
C2021 C 0.84777 0.88249 0.13355 0.0
C2022 C 0.86929 0.84092 0.19694 0.0
C2023 C 0.82266 0.85099 0.116 0.0
C2024 C 0.85514 0.78233 0.14319 0.0
C2025 C 0.8366 0.77214 0.15606 0.0
C2026 C 0.85806 0.80632 0.14275 0.0
C2027 C 0.84199 0.82063 0.15551 0.0
C2028 C 0.82275 0.81055 0.16788 0.0
C2029 C 0.82026 0.78636 0.16799 0.0
C2030 C 0.87872 0.8163 0.1291 0.0
C2031 C 0.80525 0.8252 0.18165 0.0
H2032 H 0.8823 0.88431 0.18542 0.0
H2033 H 0.84303 0.89285 0.11731 0.0
H2034 H 0.85473 0.83132 0.20562 0.0
H2035 H 0.88198 0.82801 0.19002 0.0
H2036 H 0.87775 0.8516 0.2117 0.0
H2037 H 0.81539 0.86509 0.1042 0.0
H2038 H 0.83231 0.839 0.10351 0.0
H2039 H 0.80821 0.84114 0.12459 0.0
H2040 H 0.86756 0.77142 0.13358 0.0
H2041 H 0.80602 0.77853 0.17815 0.0
H2042 H 0.88991 0.82569 0.14267 0.0
H2043 H 0.87296 0.82893 0.11467 0.0
H2044 H 0.88927 0.80281 0.11962 0.0
H2045 H 0.81336 0.83286 0.19867 0.0
H2046 H 0.78992 0.81504 0.18767 0.0
H2047 H 0.7994 0.83969 0.16953 0.0
C2048 C 0.9837 0.10591 0.88485 0.0
C2049 C 0.99498 0.08892 0.89909 0.0
C2050 C 0.95978 0.10921 0.8867 0.0
C2051 C 0.94665 0.09521 0.9033 0.0
C2052 C 0.95782 0.07761 0.91735 0.0
C2053 C 0.98189 0.0746 0.91499 0.0
C2054 C 0.94861 0.12803 0.87114 0.0
C2055 C 0.94445 0.06238 0.93527 0.0
C2056 C 0.8908 0.12516 0.9213 0.0
C2057 C 0.87562 0.11657 0.90291 0.0
C2058 C 0.91359 0.11692 0.92309 0.0
C2059 C 0.92139 0.09971 0.90607 0.0
C2060 C 0.90555 0.08958 0.88899 0.0
C2061 C 0.88286 0.09813 0.88762 0.0
C2062 C 0.92984 0.1281 0.94172 0.0
C2063 C 0.91304 0.07105 0.87068 0.0
H2064 H 0.99369 0.11673 0.87223 0.0
H2065 H 0.99057 0.06157 0.92618 0.0
H2066 H 0.93472 0.12064 0.85921 0.0
H2067 H 0.94052 0.141 0.88378 0.0
H2068 H 0.96119 0.13702 0.8587 0.0
H2069 H 0.95547 0.0488 0.94389 0.0
H2070 H 0.93689 0.07304 0.9506 0.0
H2071 H 0.92988 0.05396 0.92525 0.0
H2072 H 0.88543 0.13947 0.93311 0.0
H2073 H 0.8711 0.09112 0.87367 0.0
H2074 H 0.94187 0.13971 0.93147 0.0
H2075 H 0.94041 0.11487 0.9515 0.0
H2076 H 0.92043 0.13844 0.9561 0.0
H2077 H 0.92384 0.07891 0.85564 0.0
H2078 H 0.89804 0.0624 0.86164 0.0
H2079 H 0.92372 0.05782 0.88033 0.0
C2080 C 0.86743 0.64533 0.64655 0.0
C2081 C 0.88345 0.63725 0.66434 0.0
C2082 C 0.85896 0.66801 0.6476 0.0
C2083 C 0.86681 0.68305 0.66684 0.0
C2084 C 0.88193 0.67458 0.68572 0.0
C2085 C 0.89004 0.65173 0.68429 0.0
C2086 C 0.84266 0.67624 0.62726 0.0
C2087 C 0.8907 0.69007 0.70654 0.0
C2088 C 0.8707 0.74658 0.64979 0.0
C2089 C 0.85121 0.75582 0.66184 0.0
C2090 C 0.87595 0.723 0.65142 0.0
C2091 C 0.86132 0.70816 0.66545 0.0
C2092 C 0.84153 0.7173 0.67762 0.0
C2093 C 0.83668 0.74104 0.67564 0.0
C2094 C 0.89719 0.71395 0.63806 0.0
C2095 C 0.82554 0.70205 0.69278 0.0
H2096 H 0.86205 0.63406 0.6313 0.0
H2097 H 0.90251 0.64561 0.698 0.0
H2098 H 0.82765 0.6853 0.63574 0.0
H2099 H 0.85171 0.68878 0.61487 0.0
H2100 H 0.83621 0.66181 0.61538 0.0
H2101 H 0.90008 0.68024 0.72134 0.0
H2102 H 0.90264 0.70312 0.69845 0.0
H2103 H 0.87619 0.69955 0.71548 0.0
H2104 H 0.88181 0.75783 0.63884 0.0
H2105 H 0.82178 0.74811 0.68532 0.0
H2106 H 0.89214 0.70073 0.62395 0.0
H2107 H 0.90888 0.70547 0.65182 0.0
H2108 H 0.90694 0.72783 0.62824 0.0
H2109 H 0.8183 0.68832 0.68052 0.0
H2110 H 0.81103 0.71189 0.70135 0.0
H2111 H 0.83532 0.69335 0.70807 0.0
C2112 C 0.62344 0.63191 0.93479 0.0
C2113 C 0.63686 0.62627 0.91365 0.0
C2114 C 0.60068 0.62366 0.93718 0.0
C2115 C 0.59132 0.6093 0.91807 0.0
C2116 C 0.60555 0.60202 0.89782 0.0
C2117 C 0.6281 0.61071 0.89578 0.0
C2118 C 0.58609 0.63185 0.95905 0.0
C2119 C 0.59643 0.58647 0.87723 0.0
C2120 C 0.53225 0.58099 0.92632 0.0
C2121 C 0.51794 0.59638 0.91308 0.0
C2122 C 0.55617 0.58499 0.92843 0.0
C2123 C 0.56596 0.60485 0.91706 0.0
C2124 C 0.55156 0.62047 0.90382 0.0
C2125 C 0.52782 0.616 0.90194 0.0
C2126 C 0.57096 0.56791 0.94265 0.0
C2127 C 0.56124 0.64188 0.89138 0.0
H2128 H 0.63015 0.64404 0.94855 0.0
H2129 H 0.63858 0.60618 0.87953 0.0
H2130 H 0.57346 0.64484 0.95221 0.0
H2131 H 0.57612 0.61733 0.9673 0.0
H2132 H 0.59673 0.6399 0.97413 0.0
H2133 H 0.61048 0.57973 0.86497 0.0
H2134 H 0.58687 0.57166 0.88544 0.0
H2135 H 0.58414 0.59629 0.86526 0.0
H2136 H 0.52474 0.56596 0.93531 0.0
H2137 H 0.51702 0.62779 0.89136 0.0
H2138 H 0.58071 0.57685 0.95779 0.0
H2139 H 0.58386 0.56015 0.92966 0.0
H2140 H 0.56058 0.55382 0.95127 0.0
H2141 H 0.57055 0.65254 0.9055 0.0
H2142 H 0.54759 0.65266 0.88253 0.0
H2143 H 0.5739 0.63692 0.8766 0.0
C2144 C 0.66714 0.37985 0.14366 0.0
C2145 C 0.64917 0.38681 0.15977 0.0
C2146 C 0.67553 0.3571 0.14407 0.0
C2147 C 0.66569 0.34093 0.16099 0.0
C2148 C 0.64902 0.34841 0.17883 0.0
C2149 C 0.64096 0.37128 0.178 0.0
C2150 C 0.6935 0.34995 0.12493 0.0
C2151 C 0.63819 0.33178 0.19732 0.0
C2152 C 0.65835 0.27938 0.13799 0.0
C2153 C 0.67562 0.2676 0.1513 0.0
C2154 C 0.65529 0.30324 0.14073 0.0
C2155 C 0.66986 0.31576 0.15729 0.0
C2156 C 0.68773 0.3041 0.17039 0.0
C2157 C 0.69046 0.28012 0.16717 0.0
C2158 C 0.63616 0.31498 0.12617 0.0
C2159 C 0.70355 0.31684 0.18823 0.0
H2160 H 0.67385 0.39191 0.12981 0.0
H2161 H 0.62701 0.37648 0.19044 0.0
H2162 H 0.70687 0.33887 0.13379 0.0
H2163 H 0.68512 0.33967 0.10981 0.0
H2164 H 0.70208 0.36509 0.1161 0.0
H2165 H 0.62833 0.34089 0.21233 0.0
H2166 H 0.62615 0.32016 0.1871 0.0
H2167 H 0.65157 0.32082 0.2063 0.0
H2168 H 0.64712 0.26983 0.12541 0.0
H2169 H 0.7037 0.27105 0.17768 0.0
H2170 H 0.64337 0.32911 0.11441 0.0
H2171 H 0.62362 0.32285 0.13949 0.0
H2172 H 0.6267 0.30283 0.11366 0.0
H2173 H 0.71191 0.33154 0.17836 0.0
H2174 H 0.71721 0.30547 0.19612 0.0
H2175 H 0.69336 0.32414 0.20408 0.0
C2176 C 0.98718 0.43797 0.41685 0.0
C2177 C 1.00257 0.42413 0.40299 0.0
C2178 C 0.96328 0.43358 0.4167 0.0
C2179 C 0.95454 0.41495 0.40227 0.0
C2180 C 0.96999 0.40097 0.3882 0.0
C2181 C 0.99378 0.40571 0.38878 0.0
C2182 C 0.94742 0.44876 0.43212 0.0
C2183 C 0.96139 0.38098 0.37249 0.0
C2184 C 0.89668 0.38662 0.41621 0.0
C2185 C 0.88292 0.39513 0.39648 0.0
C2186 C 0.91973 0.39378 0.41908 0.0
C2187 C 0.92929 0.40983 0.40181 0.0
C2188 C 0.9151 0.41949 0.38277 0.0
C2189 C 0.89211 0.41203 0.38034 0.0
C2190 C 0.93423 0.38312 0.43971 0.0
C2191 C 0.92455 0.43682 0.36413 0.0
H2192 H 0.99386 0.45199 0.42824 0.0
H2193 H 1.00554 0.39512 0.37785 0.0
H2194 H 0.93435 0.45691 0.41967 0.0
H2195 H 0.93792 0.43815 0.44614 0.0
H2196 H 0.95694 0.46257 0.44229 0.0
H2197 H 0.97564 0.37182 0.3626 0.0
H2198 H 0.95215 0.36842 0.38469 0.0
H2199 H 0.94888 0.38725 0.35819 0.0
H2200 H 0.88985 0.37337 0.4286 0.0
H2201 H 0.88149 0.41894 0.36528 0.0
H2202 H 0.94358 0.3967 0.45036 0.0
H2203 H 0.94741 0.37158 0.43118 0.0
H2204 H 0.92366 0.37286 0.45317 0.0
H2205 H 0.93343 0.45108 0.37418 0.0
H2206 H 0.9108 0.44427 0.35198 0.0
H2207 H 0.93754 0.42832 0.35183 0.0
C2208 C 0.85112 0.37648 0.90237 0.0
C2209 C 0.8696 0.38474 0.8877 0.0
C2210 C 0.8433 0.3536 0.90004 0.0
C2211 C 0.85405 0.33865 0.88244 0.0
C2212 C 0.87155 0.34733 0.86633 0.0
C2213 C 0.87918 0.37019 0.86924 0.0
C2214 C 0.82455 0.34506 0.91753 0.0
C2215 C 0.88331 0.33203 0.84713 0.0
C2216 C 0.85841 0.27477 0.8979 0.0
C2217 C 0.84124 0.2652 0.88249 0.0
C2218 C 0.86235 0.29866 0.8984 0.0
C2219 C 0.84897 0.3134 0.88284 0.0
C2220 C 0.83142 0.30388 0.86739 0.0
C2221 C 0.82766 0.27987 0.86753 0.0
C2222 C 0.88106 0.3081 0.91538 0.0
C2223 C 0.817 0.31895 0.85031 0.0
H2224 H 0.84328 0.38769 0.91635 0.0
H2225 H 0.89362 0.37619 0.85796 0.0
H2226 H 0.81112 0.33558 0.90679 0.0
H2227 H 0.83208 0.33281 0.93137 0.0
H2228 H 0.81617 0.35938 0.92808 0.0
H2229 H 0.89436 0.34206 0.83392 0.0
H2230 H 0.89433 0.31922 0.857 0.0
H2231 H 0.87033 0.32229 0.83601 0.0
H2232 H 0.86872 0.26349 0.90969 0.0
H2233 H 0.81455 0.27247 0.85538 0.0
H2234 H 0.87375 0.32135 0.92825 0.0
H2235 H 0.8946 0.31664 0.90385 0.0
H2236 H 0.88935 0.29441 0.92696 0.0
H2237 H 0.80841 0.33272 0.86146 0.0
H2238 H 0.80357 0.30896 0.84005 0.0
H2239 H 0.8283 0.32761 0.83628 0.0
C2240 C 0.90197 0.63665 0.14382 0.0
C2241 C 0.88146 0.62484 0.13838 0.0
C2242 C 0.9235 0.626 0.1409 0.0
C2243 C 0.9246 0.6028 0.13252 0.0
C2244 C 0.90398 0.59118 0.12558 0.0
C2245 C 0.88255 0.60242 0.12851 0.0
C2246 C 0.94501 0.63919 0.14824 0.0
C2247 C 0.90444 0.56649 0.11652 0.0
C2248 C 0.98616 0.58374 0.11871 0.0
C2249 C 0.99297 0.57596 0.14262 0.0
C2250 C 0.96328 0.59102 0.11436 0.0
C2251 C 0.947 0.59026 0.13437 0.0
C2252 C 0.95345 0.58055 0.15786 0.0
C2253 C 0.97636 0.57365 0.1617 0.0
C2254 C 0.95707 0.60112 0.08902 0.0
C2255 C 0.93662 0.57904 0.17962 0.0
H2256 H 0.90109 0.65416 0.15106 0.0
H2257 H 0.86665 0.59333 0.12422 0.0
H2258 H 0.95257 0.63148 0.16554 0.0
H2259 H 0.9582 0.638 0.13309 0.0
H2260 H 0.94138 0.65772 0.15199 0.0
H2261 H 0.88775 0.5613 0.10787 0.0
H2262 H 0.91849 0.56387 0.10253 0.0
H2263 H 0.90796 0.55488 0.13273 0.0
H2264 H 0.99901 0.58545 0.10394 0.0
H2265 H 0.98157 0.56715 0.18002 0.0
H2266 H 0.9564 0.62022 0.09054 0.0
H2267 H 0.93975 0.59514 0.08288 0.0
H2268 H 0.96995 0.59649 0.07429 0.0
H2269 H 0.93292 0.59666 0.18682 0.0
H2270 H 0.94348 0.56849 0.19544 0.0
H2271 H 0.92001 0.57145 0.1733 0.0
C2272 C 0.65779 0.73682 0.40586 0.0
C2273 C 0.6747 0.74835 0.39177 0.0
C2274 C 0.65468 0.7129 0.40366 0.0
C2275 C 0.66871 0.70016 0.3867 0.0
C2276 C 0.68607 0.71165 0.3726 0.0
C2277 C 0.68895 0.73564 0.37542 0.0
C2278 C 0.63614 0.70133 0.41927 0.0
C2279 C 0.70117 0.69873 0.35413 0.0
C2280 C 0.66751 0.63599 0.40059 0.0
C2281 C 0.64902 0.62868 0.38541 0.0
C2282 C 0.67532 0.65894 0.39993 0.0
C2283 C 0.6645 0.67494 0.38355 0.0
C2284 C 0.64723 0.66719 0.36662 0.0
C2285 C 0.63964 0.64419 0.36781 0.0
C2286 C 0.69389 0.66644 0.41817 0.0
C2287 C 0.63543 0.68362 0.34864 0.0
H2288 H 0.64697 0.74659 0.4187 0.0
H2289 H 0.70185 0.74459 0.36426 0.0
H2290 H 0.62305 0.6934 0.40668 0.0
H2291 H 0.64379 0.68726 0.43077 0.0
H2292 H 0.62723 0.71361 0.43214 0.0
H2293 H 0.71467 0.70996 0.34565 0.0
H2294 H 0.7097 0.68395 0.36363 0.0
H2295 H 0.69036 0.69155 0.33873 0.0
H2296 H 0.67518 0.62401 0.41388 0.0
H2297 H 0.62526 0.63883 0.3561 0.0
H2298 H 0.686 0.67703 0.43337 0.0
H2299 H 0.70694 0.67734 0.40851 0.0
H2300 H 0.70278 0.65148 0.427 0.0
H2301 H 0.62376 0.69521 0.35943 0.0
H2302 H 0.62502 0.67435 0.33424 0.0
H2303 H 0.64831 0.69465 0.33887 0.0
C2304 C 0.6186 0.38069 0.60158 0.0
C2305 C 0.63407 0.38801 0.62027 0.0
C2306 C 0.59599 0.38962 0.60056 0.0
C2307 C 0.58889 0.40633 0.61853 0.0
C2308 C 0.60518 0.41512 0.63602 0.0
C2309 C 0.6275 0.40571 0.6368 0.0
C2310 C 0.57922 0.3798 0.5816 0.0
C2311 C 0.59852 0.43319 0.65525 0.0
C2312 C 0.53115 0.438 0.61567 0.0
C2313 C 0.51834 0.42586 0.63386 0.0
C2314 C 0.5539 0.43137 0.60956 0.0
C2315 C 0.56393 0.41206 0.62181 0.0
C2316 C 0.55056 0.39908 0.63918 0.0
C2317 C 0.52803 0.4062 0.64503 0.0
C2318 C 0.56751 0.44571 0.59099 0.0
C2319 C 0.56037 0.37814 0.65241 0.0
H2320 H 0.62366 0.36686 0.58891 0.0
H2321 H 0.63953 0.4114 0.65121 0.0
H2322 H 0.56706 0.36796 0.59137 0.0
H2323 H 0.5688 0.39373 0.57283 0.0
H2324 H 0.58818 0.36998 0.56646 0.0
H2325 H 0.61383 0.44038 0.66517 0.0
H2326 H 0.58902 0.44756 0.64609 0.0
H2327 H 0.58684 0.4254 0.66953 0.0
H2328 H 0.52376 0.45328 0.60705 0.0
H2329 H 0.51802 0.39653 0.65872 0.0
H2330 H 0.57692 0.4345 0.57746 0.0
H2331 H 0.58061 0.45602 0.60134 0.0
H2332 H 0.55627 0.45776 0.58023 0.0
H2333 H 0.5677 0.3659 0.63842 0.0
H2334 H 0.54716 0.36893 0.66384 0.0
H2335 H 0.57463 0.38351 0.66511 0.0
C2336 C 0.14056 0.38196 0.36196 0.0
C2337 C 0.14999 0.39774 0.37931 0.0
C2338 C 0.14953 0.3595 0.35957 0.0
C2339 C 0.16793 0.35241 0.37536 0.0
C2340 C 0.17895 0.36887 0.39101 0.0
C2341 C 0.17004 0.39139 0.39254 0.0
C2342 C 0.13797 0.34277 0.34176 0.0
C2343 C 0.19877 0.36215 0.40799 0.0
C2344 C 0.16358 0.29226 0.40297 0.0
C2345 C 0.182 0.28056 0.39136 0.0
C2346 C 0.15884 0.31544 0.39763 0.0
C2347 C 0.17233 0.3273 0.37948 0.0
C2348 C 0.19013 0.31533 0.36651 0.0
C2349 C 0.19495 0.29216 0.37283 0.0
C2350 C 0.1397 0.32741 0.41205 0.0
C2351 C 0.20457 0.32703 0.34653 0.0
H2352 H 0.12515 0.38648 0.35148 0.0
H2353 H 0.17803 0.40364 0.4053 0.0
H2354 H 0.15102 0.33184 0.33209 0.0
H2355 H 0.12639 0.33116 0.35261 0.0
H2356 H 0.12746 0.35186 0.3273 0.0
H2357 H 0.20718 0.37742 0.41674 0.0
H2358 H 0.19226 0.35076 0.42329 0.0
H2359 H 0.21195 0.35229 0.39727 0.0
H2360 H 0.15287 0.28341 0.41662 0.0
H2361 H 0.20921 0.28341 0.36366 0.0
H2362 H 0.1264 0.33391 0.39877 0.0
H2363 H 0.14675 0.34253 0.42237 0.0
H2364 H 0.13113 0.31581 0.4259 0.0
H2365 H 0.19417 0.33946 0.33535 0.0
H2366 H 0.21246 0.31424 0.33347 0.0
H2367 H 0.21877 0.33674 0.35574 0.0
C2368 C 0.4861 0.44172 0.12446 0.0
C2369 C 0.4998 0.42652 0.13866 0.0
C2370 C 0.462 0.43877 0.12296 0.0
C2371 C 0.45139 0.42032 0.13618 0.0
C2372 C 0.46514 0.40525 0.15094 0.0
C2373 C 0.48913 0.40849 0.15191 0.0
C2374 C 0.44796 0.45508 0.10689 0.0
C2375 C 0.45455 0.38549 0.16556 0.0
C2376 C 0.38819 0.41791 0.15478 0.0
C2377 C 0.37984 0.4007 0.13849 0.0
C2378 C 0.4111 0.42577 0.1531 0.0
C2379 C 0.426 0.41628 0.13459 0.0
C2380 C 0.4171 0.40039 0.11673 0.0
C2381 C 0.39414 0.39276 0.11892 0.0
C2382 C 0.4198 0.44286 0.17239 0.0
C2383 C 0.43233 0.39001 0.09655 0.0
H2384 H 0.49431 0.45552 0.11396 0.0
H2385 H 0.49962 0.39692 0.16316 0.0
H2386 H 0.43915 0.44531 0.09167 0.0
H2387 H 0.43431 0.46339 0.11847 0.0
H2388 H 0.45877 0.46877 0.09814 0.0
H2389 H 0.4676 0.37564 0.17652 0.0
H2390 H 0.44127 0.39215 0.17883 0.0
H2391 H 0.44576 0.37345 0.15241 0.0
H2392 H 0.37711 0.42445 0.16966 0.0
H2393 H 0.38792 0.37938 0.10632 0.0
H2394 H 0.43014 0.45662 0.16318 0.0
H2395 H 0.43128 0.43386 0.18597 0.0
H2396 H 0.40545 0.45102 0.18311 0.0
H2397 H 0.4428 0.40358 0.08717 0.0
H2398 H 0.42214 0.38072 0.08197 0.0
H2399 H 0.44451 0.37759 0.10533 0.0
C2400 C 0.35656 0.73651 0.90397 0.0
C2401 C 0.33849 0.74715 0.89071 0.0
C2402 C 0.3625 0.71339 0.89957 0.0
C2403 C 0.35033 0.70054 0.88113 0.0
C2404 C 0.33272 0.71138 0.86685 0.0
C2405 C 0.3269 0.7345 0.87193 0.0
C2406 C 0.38145 0.70254 0.9152 0.0
C2407 C 0.31957 0.6984 0.84675 0.0
C2408 C 0.3822 0.64563 0.86371 0.0
C2409 C 0.37229 0.62975 0.88057 0.0
C2410 C 0.37397 0.66841 0.86212 0.0
C2411 C 0.35557 0.67553 0.87795 0.0
C2412 C 0.34433 0.6591 0.89349 0.0
C2413 C 0.35273 0.63639 0.89449 0.0
C2414 C 0.38612 0.68527 0.8449 0.0
C2415 C 0.32458 0.66592 0.91059 0.0
H2416 H 0.36603 0.74619 0.91804 0.0
H2417 H 0.31281 0.74239 0.86164 0.0
H2418 H 0.37434 0.68793 0.92631 0.0
H2419 H 0.39512 0.69547 0.9027 0.0
H2420 H 0.38952 0.71503 0.92846 0.0
H2421 H 0.30881 0.71008 0.83498 0.0
H2422 H 0.33165 0.68884 0.83426 0.0
H2423 H 0.30807 0.68549 0.85579 0.0
H2424 H 0.39737 0.64077 0.85294 0.0
H2425 H 0.34464 0.62408 0.90714 0.0
H2426 H 0.39717 0.69692 0.85633 0.0
H2427 H 0.37342 0.6962 0.83474 0.0
H2428 H 0.39723 0.67635 0.83084 0.0
H2429 H 0.33119 0.67718 0.92593 0.0
H2430 H 0.31604 0.65069 0.91929 0.0
H2431 H 0.31146 0.67594 0.89999 0.0
C2432 C 0.13092 0.59964 0.64445 0.0
C2433 C 0.13828 0.61835 0.62966 0.0
C2434 C 0.10821 0.59125 0.64279 0.0
C2435 C 0.09247 0.60175 0.62585 0.0
C2436 C 0.10044 0.61914 0.60917 0.0
C2437 C 0.12326 0.62729 0.61131 0.0
C2438 C 0.10057 0.57246 0.66071 0.0
C2439 C 0.08437 0.63044 0.59047 0.0
C2440 C 0.03288 0.57373 0.62143 0.0
C2441 C 0.02061 0.5863 0.63974 0.0
C2442 C 0.05606 0.5791 0.61574 0.0
C2443 C 0.0672 0.59734 0.6288 0.0
C2444 C 0.0545 0.6107 0.6464 0.0
C2445 C 0.03143 0.60508 0.65152 0.0
C2446 C 0.06883 0.56457 0.59663 0.0
C2447 C 0.06555 0.63044 0.66065 0.0
H2448 H 0.1426 0.5923 0.65828 0.0
H2449 H 0.12877 0.64175 0.59979 0.0
H2450 H 0.08894 0.57995 0.67525 0.0
H2451 H 0.09069 0.55899 0.65048 0.0
H2452 H 0.11542 0.56417 0.67042 0.0
H2453 H 0.09397 0.64051 0.57601 0.0
H2454 H 0.07356 0.6173 0.58082 0.0
H2455 H 0.07255 0.64235 0.60061 0.0
H2456 H 0.02469 0.55914 0.61228 0.0
H2457 H 0.0219 0.61521 0.66521 0.0
H2458 H 0.07984 0.55187 0.60667 0.0
H2459 H 0.0803 0.57537 0.5847 0.0
H2460 H 0.05674 0.55492 0.58422 0.0
H2461 H 0.07973 0.62375 0.67271 0.0
H2462 H 0.05301 0.63973 0.67288 0.0
H2463 H 0.07325 0.64298 0.64725 0.0
C2464 C 0.14864 0.64284 0.14267 0.0
C2465 C 0.13597 0.63359 0.16286 0.0
C2466 C 0.15769 0.66528 0.14382 0.0
C2467 C 0.15377 0.67889 0.1656 0.0
C2468 C 0.14238 0.66904 0.18674 0.0
C2469 C 0.13367 0.6464 0.18515 0.0
C2470 C 0.17 0.67493 0.12099 0.0
C2471 C 0.13783 0.68297 0.2103 0.0
C2472 C 0.18428 0.73706 0.17117 0.0
C2473 C 0.16741 0.75214 0.1616 0.0
C2474 C 0.18015 0.71315 0.17279 0.0
C2475 C 0.15861 0.70415 0.16477 0.0
C2476 C 0.14157 0.71929 0.15508 0.0
C2477 C 0.14624 0.74299 0.15348 0.0
C2478 C 0.19878 0.69753 0.18307 0.0
C2479 C 0.11835 0.71046 0.1463 0.0
H2480 H 0.15067 0.6328 0.12553 0.0
H2481 H 0.12382 0.63928 0.20073 0.0
H2482 H 0.15875 0.68783 0.11157 0.0
H2483 H 0.1861 0.68392 0.12669 0.0
H2484 H 0.17442 0.66128 0.10707 0.0
H2485 H 0.13181 0.67198 0.22619 0.0
H2486 H 0.15364 0.69234 0.21625 0.0
H2487 H 0.12434 0.6961 0.20631 0.0
H2488 H 0.20056 0.74396 0.17782 0.0
H2489 H 0.13324 0.75439 0.14569 0.0
H2490 H 0.20378 0.68464 0.16855 0.0
H2491 H 0.19215 0.6878 0.1996 0.0
H2492 H 0.21445 0.70726 0.18887 0.0
H2493 H 0.12073 0.69824 0.13038 0.0
H2494 H 0.10673 0.7246 0.14002 0.0
H2495 H 0.1097 0.70087 0.1618 0.0
C2496 C 0.02402 0.39676 0.90786 0.0
C2497 C 0.01421 0.41652 0.91877 0.0
C2498 C 0.04777 0.39231 0.90973 0.0
C2499 C 0.0622 0.40804 0.92282 0.0
C2500 C 0.05242 0.42792 0.93414 0.0
C2501 C 0.02853 0.43194 0.93197 0.0
C2502 C 0.05747 0.37088 0.89735 0.0
C2503 C 0.06719 0.44505 0.94831 0.0
C2504 C 0.12029 0.38191 0.93994 0.0
C2505 C 0.13344 0.38785 0.91869 0.0
C2506 C 0.09738 0.38969 0.94252 0.0
C2507 C 0.0876 0.40385 0.92348 0.0
C2508 C 0.10152 0.4114 0.9031 0.0
C2509 C 0.12423 0.4032 0.90089 0.0
C2510 C 0.08314 0.38126 0.96455 0.0
C2511 C 0.09192 0.42675 0.88259 0.0
H2512 H 0.01314 0.38492 0.89744 0.0
H2513 H 0.02102 0.44703 0.94085 0.0
H2514 H 0.06997 0.37584 0.8824 0.0
H2515 H 0.06698 0.36036 0.91143 0.0
H2516 H 0.0438 0.35998 0.88872 0.0
H2517 H 0.05676 0.45901 0.95712 0.0
H2518 H 0.07715 0.43612 0.96331 0.0
H2519 H 0.0799 0.45299 0.93524 0.0
H2520 H 0.12737 0.36993 0.95364 0.0
H2521 H 0.1345 0.40794 0.88455 0.0
H2522 H 0.07067 0.36805 0.95785 0.0
H2523 H 0.07298 0.39561 0.97289 0.0
H2524 H 0.09404 0.37342 0.97952 0.0
H2525 H 0.07951 0.41677 0.87094 0.0
H2526 H 0.10571 0.43354 0.87 0.0
H2527 H 0.08239 0.44153 0.8909 0.0
C2528 C 0.3657 0.37055 0.64626 0.0
C2529 C 0.38161 0.3796 0.66361 0.0
C2530 C 0.35716 0.348 0.6488 0.0
C2531 C 0.36479 0.3341 0.66913 0.0
C2532 C 0.37969 0.34365 0.68761 0.0
C2533 C 0.38791 0.36633 0.68465 0.0
C2534 C 0.34113 0.33859 0.62881 0.0
C2535 C 0.38821 0.32941 0.70958 0.0
C2536 C 0.33529 0.27623 0.68094 0.0
C2537 C 0.35029 0.26101 0.66839 0.0
C2538 C 0.33976 0.30011 0.68154 0.0
C2539 C 0.35963 0.30891 0.66919 0.0
C2540 C 0.3747 0.2936 0.65638 0.0
C2541 C 0.36984 0.2699 0.65615 0.0
C2542 C 0.32334 0.31588 0.69545 0.0
C2543 C 0.39601 0.30225 0.64284 0.0
H2544 H 0.36051 0.3809 0.63018 0.0
H2545 H 0.40028 0.37319 0.69805 0.0
H2546 H 0.35044 0.32557 0.61727 0.0
H2547 H 0.32614 0.32979 0.63765 0.0
H2548 H 0.33463 0.35235 0.61604 0.0
H2549 H 0.39717 0.34013 0.72394 0.0
H2550 H 0.37363 0.32024 0.71878 0.0
H2551 H 0.40046 0.31611 0.70262 0.0
H2552 H 0.32032 0.26942 0.69071 0.0
H2553 H 0.38129 0.25828 0.64613 0.0
H2554 H 0.31611 0.32887 0.68224 0.0
H2555 H 0.33275 0.32548 0.71037 0.0
H2556 H 0.30882 0.30628 0.70434 0.0
H2557 H 0.391 0.31469 0.62789 0.0
H2558 H 0.40607 0.28804 0.63401 0.0
H2559 H 0.4074 0.31155 0.65627 0.0
C2560 C 0.3974 0.6322 0.43265 0.0
C2561 C 0.38379 0.62657 0.41166 0.0
C2562 C 0.42011 0.62379 0.43489 0.0
C2563 C 0.4293 0.60934 0.41574 0.0
C2564 C 0.41494 0.60214 0.3956 0.0
C2565 C 0.39239 0.6109 0.39377 0.0
C2566 C 0.4348 0.63182 0.45671 0.0
C2567 C 0.4239 0.58656 0.37494 0.0
C2568 C 0.49311 0.61525 0.40042 0.0
C2569 C 0.50259 0.59552 0.41171 0.0
C2570 C 0.46937 0.61992 0.4018 0.0
C2571 C 0.45459 0.60445 0.41478 0.0
C2572 C 0.46397 0.58441 0.42618 0.0
C2573 C 0.48787 0.58015 0.42447 0.0
C2574 C 0.46011 0.64145 0.38925 0.0
C2575 C 0.44878 0.56753 0.44019 0.0
H2576 H 0.39085 0.64439 0.44645 0.0
H2577 H 0.38178 0.60629 0.37767 0.0
H2578 H 0.44447 0.61714 0.46503 0.0
H2579 H 0.4477 0.64452 0.4498 0.0
H2580 H 0.42431 0.64013 0.47175 0.0
H2581 H 0.40979 0.58007 0.36262 0.0
H2582 H 0.43637 0.59624 0.36304 0.0
H2583 H 0.43323 0.57158 0.38308 0.0
H2584 H 0.50428 0.62701 0.39022 0.0
H2585 H 0.49509 0.56502 0.43353 0.0
H2586 H 0.45106 0.65238 0.40334 0.0
H2587 H 0.44731 0.63667 0.37456 0.0
H2588 H 0.47397 0.65189 0.38026 0.0
H2589 H 0.4394 0.57652 0.45559 0.0
H2590 H 0.45881 0.55303 0.44844 0.0
H2591 H 0.43558 0.56034 0.42721 0.0
C2592 C 0.30322 0.31479 0.06765 0.0
C2593 C 0.28908 0.31862 0.08888 0.0
C2594 C 0.2943 0.31496 0.04303 0.0
C2595 C 0.2704 0.31866 0.03915 0.0
C2596 C 0.25586 0.32238 0.0604 0.0
C2597 C 0.26539 0.3225 0.08502 0.0
C2598 C 0.3106 0.3112 0.02109 0.0
C2599 C 0.23024 0.32605 0.05714 0.0
C2600 C 0.25381 0.3366 0.97201 0.0
C2601 C 0.2489 0.31519 0.96078 0.0
C2602 C 0.26007 0.33814 0.9977 0.0
C2603 C 0.26095 0.31788 1.01276 0.0
C2604 C 0.25513 0.29637 1.00169 0.0
C2605 C 0.24946 0.29527 0.97588 0.0
C2606 C 0.26658 0.36136 1.0085 0.0
C2607 C 0.25546 0.27436 1.01697 0.0
H2608 H 0.32158 0.3119 0.07014 0.0
H2609 H 0.2543 0.32556 0.10118 0.0
H2610 H 0.30572 0.29528 1.01074 0.0
H2611 H 0.30932 0.32581 1.00761 0.0
H2612 H 0.32889 0.30955 0.02721 0.0
H2613 H 0.22129 0.32903 0.07542 0.0
H2614 H 0.22706 0.34109 0.04464 0.0
H2615 H 0.22246 0.31074 0.04785 0.0
H2616 H 0.25334 0.35209 0.96053 0.0
H2617 H 0.24531 0.27868 0.96755 0.0
H2618 H 0.28516 0.36132 1.01368 0.0
H2619 H 0.25661 0.36482 0.02599 0.0
H2620 H 0.26349 0.37566 0.99493 0.0
H2621 H 0.27349 0.27015 0.02238 0.0
H2622 H 0.2482 0.25949 1.00636 0.0
H2623 H 0.24544 0.27663 0.03467 0.0
C2624 C 0.94358 1.00332 0.20672 0.0
C2625 C 0.94531 0.97942 0.20263 0.0
C2626 C 0.94376 0.01254 0.2315 0.0
C2627 C 0.94538 0.99752 0.25267 0.0
C2628 C 0.94673 0.97344 0.24853 0.0
C2629 C 0.94683 0.96479 0.22379 0.0
C2630 C 0.94252 0.03835 0.23505 0.0
C2631 C 0.94826 0.95665 0.27033 0.0
C2632 C 0.96973 0.01572 0.31655 0.0
C2633 C 0.94973 0.01802 0.33142 0.0
C2634 C 0.96846 0.01026 0.29069 0.0
C2635 C 0.94665 1.00661 0.27922 0.0
C2636 C 0.92634 0.00923 0.29401 0.0
C2637 C 0.92811 0.01504 0.31983 0.0
C2638 C 0.99058 1.00783 0.27577 0.0
C2639 C 0.90275 1.00517 0.28275 0.0
H2640 H 0.94232 0.01479 0.19062 0.0
H2641 H 0.94797 0.94627 0.22114 0.0
H2642 H 0.92771 0.04285 0.24742 0.0
H2643 H 0.95842 0.04452 0.24461 0.0
H2644 H 0.94064 0.04768 0.21685 0.0
H2645 H 0.94815 0.93836 0.26399 0.0
H2646 H 0.96437 0.95976 0.28113 0.0
H2647 H 0.93356 0.95932 0.28346 0.0
H2648 H 0.98654 0.0183 0.3251 0.0
H2649 H 0.91254 0.01688 0.33105 0.0
H2650 H 0.98966 0.01828 0.25824 0.0
H2651 H 0.99296 0.98955 0.27006 0.0
H2652 H 1.00597 0.01333 0.28675 0.0
H2653 H 0.9006 0.01556 0.26532 0.0
H2654 H 0.8886 0.00959 0.2961 0.0
H2655 H 0.90099 0.98674 0.27734 0.0
C2656 C 0.21666 0.70685 0.56376 0.0
C2657 C 0.23046 0.70184 0.58492 0.0
C2658 C 0.22573 0.70675 0.53915 0.0
C2659 C 0.24944 0.70193 0.53526 0.0
C2660 C 0.26364 0.69709 0.55648 0.0
C2661 C 0.25396 0.69691 0.58103 0.0
C2662 C 0.20978 0.71172 0.51724 0.0
C2663 C 0.28908 0.69222 0.55324 0.0
C2664 C 0.2662 0.68403 0.46807 0.0
C2665 C 0.27252 0.70526 0.45728 0.0
C2666 C 0.25928 0.68252 0.49359 0.0
C2667 C 0.25914 0.70262 0.50894 0.0
C2668 C 0.26631 0.72392 0.49832 0.0
C2669 C 0.27264 0.72502 0.47267 0.0
C2670 C 0.25136 0.65954 0.50388 0.0
C2671 C 0.26682 0.74573 0.51394 0.0
H2672 H 0.19845 0.71054 0.56629 0.0
H2673 H 0.2648 0.69296 0.59714 0.0
H2674 H 0.21558 0.72748 0.50718 0.0
H2675 H 0.21035 0.69725 0.50351 0.0
H2676 H 0.19158 0.71427 0.52333 0.0
H2677 H 0.29782 0.68879 0.57153 0.0
H2678 H 0.29157 0.67706 0.54073 0.0
H2679 H 0.29762 0.70715 0.54399 0.0
H2680 H 0.26611 0.66865 0.4564 0.0
H2681 H 0.27782 0.74146 0.46469 0.0
H2682 H 0.2328 0.66059 0.50908 0.0
H2683 H 0.26107 0.6552 0.52129 0.0
H2684 H 0.25364 0.64532 0.49002 0.0
H2685 H 0.24895 0.75069 0.51927 0.0
H2686 H 0.27485 0.76039 0.50364 0.0
H2687 H 0.27656 0.74277 0.53168 0.0
C2688 C 0.57837 1.00029 0.82225 0.0
C2689 C 0.56281 0.9824 0.82783 0.0
C2690 C 0.57982 0.00967 0.79764 0.0
C2691 C 0.5653 1.00108 0.77815 0.0
C2692 C 0.54937 0.98329 0.78386 0.0
C2693 C 0.54834 0.97424 0.80845 0.0
C2694 C 0.59699 0.02869 0.79244 0.0
C2695 C 0.53331 0.97375 0.76395 0.0
C2696 C 0.55085 0.03965 0.72202 0.0
C2697 C 0.5651 0.03086 0.70275 0.0
C2698 C 0.55093 0.03024 0.74646 0.0
C2699 C 0.56567 0.01145 0.75214 0.0
C2700 C 0.57984 1.00214 0.7327 0.0
C2701 C 0.57934 0.01189 0.70821 0.0
C2702 C 0.53526 0.04059 0.76631 0.0
C2703 C 0.59576 0.98207 0.73788 0.0
H2704 H 0.58976 1.0066 0.83692 0.0
H2705 H 0.53616 0.96049 0.81244 0.0
H2706 H 0.6089 0.02336 0.77707 0.0
H2707 H 0.5878 0.0444 0.7859 0.0
H2708 H 0.60737 0.03317 0.80938 0.0
H2709 H 0.52223 0.95958 0.77127 0.0
H2710 H 0.52198 0.9877 0.75669 0.0
H2711 H 0.54346 0.9671 0.74772 0.0
H2712 H 0.53968 0.05423 0.71806 0.0
H2713 H 0.59058 1.00512 0.69361 0.0
H2714 H 0.54565 0.04676 0.78254 0.0
H2715 H 0.52321 0.02724 0.77357 0.0
H2716 H 0.52493 0.05528 0.75892 0.0
H2717 H 0.60802 0.98668 0.75316 0.0
H2718 H 0.60579 0.97689 0.7209 0.0
H2719 H 0.58561 0.967 0.74454 0.0
C2720 C 0.76378 0.69677 0.08269 0.0
C2721 C 0.78772 0.69718 0.08693 0.0
C2722 C 0.75476 0.69674 0.05783 0.0
C2723 C 0.77001 0.69677 0.03676 0.0
C2724 C 0.79412 0.69653 0.04108 0.0
C2725 C 0.80259 0.69687 0.06588 0.0
C2726 C 0.72893 0.69718 0.05408 0.0
C2727 C 0.81115 0.69627 1.01941 0.0
C2728 C 0.75193 0.67955 0.96981 0.0
C2729 C 0.75058 0.70109 0.9577 0.0
C2730 C 0.75733 0.67785 0.99574 0.0
C2731 C 0.76124 0.69818 1.0101 0.0
C2732 C 0.75924 0.71996 0.99809 0.0
C2733 C 0.75411 0.72114 0.97215 0.0
C2734 C 0.75957 0.65426 1.00758 0.0
C2735 C 0.76312 0.7421 1.01253 0.0
H2736 H 0.75213 0.69692 0.09873 0.0
H2737 H 0.82113 0.69684 0.0687 0.0
H2738 H 0.7239 0.71343 0.04444 0.0
H2739 H 0.72355 0.68269 0.04171 0.0
H2740 H 0.71936 0.69596 0.07222 0.0
H2741 H 0.82934 0.69488 0.02593 0.0
H2742 H 0.80745 0.68155 1.00663 0.0
H2743 H 0.80937 0.71233 1.00816 0.0
H2744 H 0.74915 0.66395 0.95893 0.0
H2745 H 0.75282 0.73791 0.96319 0.0
H2746 H 0.74899 0.65324 0.02503 0.0
H2747 H 0.77781 0.65123 1.01309 0.0
H2748 H 0.75412 0.64025 0.99455 0.0
H2749 H 0.75247 0.74228 0.02996 0.0
H2750 H 0.75885 0.75764 1.00115 0.0
H2751 H 0.78149 0.74327 1.01839 0.0
C2752 C 0.04946 0.04061 0.80504 0.0
C2753 C 0.06415 0.03297 0.82445 0.0
C2754 C 0.05027 0.03093 0.78073 0.0
C2755 C 0.06626 0.01308 0.77535 0.0
C2756 C 0.081 1.00503 0.7949 0.0
C2757 C 0.07972 0.015 0.81923 0.0
C2758 C 0.03399 0.0399 0.76072 0.0
C2759 C 0.0983 0.98605 0.79004 0.0
C2760 C 0.05216 0.97403 0.71944 0.0
C2761 C 0.06608 0.9831 0.70006 0.0
C2762 C 0.0523 0.98341 0.74392 0.0
C2763 C 0.06679 1.00243 0.74949 0.0
C2764 C 0.08083 0.01183 0.73002 0.0
C2765 C 0.08025 1.00212 0.70554 0.0
C2766 C 0.0368 0.97297 0.76385 0.0
C2767 C 0.09654 0.03209 0.73509 0.0
H2768 H 0.03728 0.05442 0.8088 0.0
H2769 H 0.09131 0.00912 0.83395 0.0
H2770 H 0.04399 0.04659 0.74441 0.0
H2771 H 0.02294 0.02565 0.75364 0.0
H2772 H 0.02263 0.05392 0.76788 0.0
H2773 H 0.1087 0.98187 0.80706 0.0
H2774 H 0.08923 0.97019 0.78374 0.0
H2775 H 0.11019 0.99124 0.7746 0.0
H2776 H 0.04105 0.95939 0.71553 0.0
H2777 H 0.09123 0.00917 0.69087 0.0
H2778 H 0.02444 0.98615 0.77085 0.0
H2779 H 0.04726 0.96724 0.78023 0.0
H2780 H 0.02683 0.95797 0.75664 0.0
H2781 H 0.08617 0.04721 0.74119 0.0
H2782 H 0.10682 0.03704 0.71821 0.0
H2783 H 0.10858 0.02787 0.75072 0.0
C2784 C 0.75108 0.33442 0.56524 0.0
C2785 C 0.74803 0.3127 0.57657 0.0
C2786 C 0.75729 0.33645 0.53956 0.0
C2787 C 0.76021 0.31631 0.52462 0.0
C2788 C 0.75643 0.2944 0.5358 0.0
C2789 C 0.7506 0.29286 0.56157 0.0
C2790 C 0.7615 0.36015 0.52863 0.0
C2791 C 0.75911 0.27245 0.52069 0.0
C2792 C 0.76455 0.32027 0.45225 0.0
C2793 C 0.7885 0.31844 0.44851 0.0
C2794 C 0.75496 0.31982 0.47687 0.0
C2795 C 0.76969 0.31788 0.49824 0.0
C2796 C 0.79385 0.31659 0.49447 0.0
C2797 C 0.80286 0.31672 0.46987 0.0
C2798 C 0.72909 0.321 0.48001 0.0
C2799 C 0.81034 0.31485 0.51651 0.0
H2800 H 0.74907 0.34988 0.57659 0.0
H2801 H 0.74797 0.27598 0.56995 0.0
H2802 H 0.78004 0.36199 0.52362 0.0
H2803 H 0.75141 0.36245 0.51102 0.0
H2804 H 0.75681 0.37414 0.54205 0.0
H2805 H 0.75344 0.25695 0.5314 0.0
H2806 H 0.74895 0.27354 0.50298 0.0
H2807 H 0.7775 0.27013 0.51529 0.0
H2808 H 0.7533 0.32168 0.43597 0.0
H2809 H 0.82142 0.31559 0.46746 0.0
H2810 H 0.72439 0.33554 0.49266 0.0
H2811 H 0.72277 0.30492 0.48908 0.0
H2812 H 0.72002 0.32326 0.4617 0.0
H2813 H 0.80743 0.32937 0.52981 0.0
H2814 H 0.82873 0.3151 0.51047 0.0
H2815 H 0.80713 0.2986 0.52705 0.0
C2816 C 0.47034 1.00399 0.31659 0.0
C2817 C 0.45038 1.00212 0.33157 0.0
C2818 C 0.46903 0.00949 0.29074 0.0
C2819 C 0.44724 0.01368 0.27944 0.0
C2820 C 0.42697 0.01157 0.29438 0.0
C2821 C 0.42876 1.00562 0.32015 0.0
C2822 C 0.49109 0.01127 0.27561 0.0
C2823 C 0.40341 0.01628 0.28334 0.0
C2824 C 0.44785 0.05475 0.22329 0.0
C2825 C 0.44548 0.03985 0.20246 0.0
C2826 C 0.44793 0.04645 0.24819 0.0
C2827 C 0.44596 0.02247 0.25278 0.0
C2828 C 0.44353 1.00721 0.23192 0.0
C2829 C 0.44311 0.01608 0.20702 0.0
C2830 C 0.45022 0.06349 0.26966 0.0
C2831 C 0.44168 0.98149 0.23593 0.0
H2832 H 0.48713 1.00101 0.32505 0.0
H2833 H 0.41323 1.00415 0.33149 0.0
H2834 H 0.48979 1.00069 0.2582 0.0
H2835 H 0.49387 0.02943 0.26967 0.0
H2836 H 0.50644 1.0055 0.28651 0.0
H2837 H 0.38926 0.01259 0.29695 0.0
H2838 H 0.40225 0.03467 0.27758 0.0
H2839 H 0.40071 1.00568 0.26615 0.0
H2840 H 0.44944 0.07319 0.22023 0.0
H2841 H 0.4412 1.00442 0.19116 0.0
H2842 H 0.46637 0.06008 0.28029 0.0
H2843 H 0.43561 0.06142 0.28306 0.0
H2844 H 0.45054 0.08168 0.26301 0.0
H2845 H 0.45748 0.97506 0.2455 0.0
H2846 H 0.43947 0.97194 0.21791 0.0
H2847 H 0.42683 0.97754 0.24846 0.0
C2848 C 0.79214 0.80267 0.57016 0.0
C2849 C 0.78408 0.81718 0.58956 0.0
C2850 C 0.78219 0.80287 0.54597 0.0
C2851 C 0.76362 0.81802 0.5407 0.0
C2852 C 0.75507 0.83249 0.56028 0.0
C2853 C 0.76533 0.83184 0.5845 0.0
C2854 C 0.7917 0.78687 0.52597 0.0
C2855 C 0.73528 0.84888 0.55553 0.0
C2856 C 0.75116 0.83105 0.47094 0.0
C2857 C 0.73263 0.8161 0.46593 0.0
C2858 C 0.76122 0.83215 0.49524 0.0
C2859 C 0.75269 0.81787 0.51498 0.0
C2860 C 0.73427 0.80251 0.50982 0.0
C2861 C 0.72453 0.80184 0.48554 0.0
C2862 C 0.78086 0.84875 0.49986 0.0
C2863 C 0.72477 0.7867 0.53002 0.0
H2864 H 0.80655 0.79119 0.57381 0.0
H2865 H 0.7591 0.84326 0.5992 0.0
H2866 H 0.77787 0.77518 0.51911 0.0
H2867 H 0.79784 0.79703 0.50952 0.0
H2868 H 0.80626 0.77617 0.53304 0.0
H2869 H 0.73071 0.8591 0.57258 0.0
H2870 H 0.73987 0.86095 0.54006 0.0
H2871 H 0.71981 0.8391 0.54934 0.0
H2872 H 0.75745 0.84227 0.4561 0.0
H2873 H 0.7103 0.79012 0.48197 0.0
H2874 H 0.79645 0.83912 0.506 0.0
H2875 H 0.77622 0.86082 0.51532 0.0
H2876 H 0.78528 0.85896 0.48276 0.0
H2877 H 0.73861 0.77507 0.53697 0.0
H2878 H 0.7102 0.77595 0.52308 0.0
H2879 H 0.71867 0.79702 0.54637 0.0
C2880 C 0.46315 0.54457 0.81428 0.0
C2881 C 0.45331 0.53323 0.83519 0.0
C2882 C 0.45895 0.53724 0.78944 0.0
C2883 C 0.4449 0.51766 0.78508 0.0
C2884 C 0.43572 0.50542 0.80606 0.0
C2885 C 0.43985 0.51346 0.83085 0.0
C2886 C 0.46877 0.55114 0.7678 0.0
C2887 C 0.42108 0.48415 0.80229 0.0
C2888 C 0.41367 0.51468 0.72174 0.0
C2889 C 0.42831 0.50047 0.70739 0.0
C2890 C 0.41882 0.52028 0.74696 0.0
C2891 C 0.43887 0.51102 0.75851 0.0
C2892 C 0.45371 0.49659 0.74416 0.0
C2893 C 0.44845 0.49178 0.7187 0.0
C2894 C 0.40285 0.53631 0.76119 0.0
C2895 C 0.47504 0.48603 0.75579 0.0
H2896 H 0.4736 0.55987 0.81717 0.0
H2897 H 0.43225 0.50447 0.84675 0.0
H2898 H 0.47907 0.53988 0.75512 0.0
H2899 H 0.45446 0.55849 0.75641 0.0
H2900 H 0.47996 0.56554 0.77435 0.0
H2901 H 0.41693 0.47542 0.82042 0.0
H2902 H 0.40464 0.48894 0.79288 0.0
H2903 H 0.43012 0.47172 0.78975 0.0
H2904 H 0.39809 0.52151 0.71317 0.0
H2905 H 0.45981 0.48067 0.7079 0.0
H2906 H 0.41257 0.55171 0.76771 0.0
H2907 H 0.39599 0.52751 0.77822 0.0
H2908 H 0.38806 0.54217 0.74948 0.0
H2909 H 0.4872 0.49983 0.76163 0.0
H2910 H 0.48414 0.47423 0.74256 0.0
H2911 H 0.47027 0.47623 0.77303 0.0
C2912 C 0.74801 0.18386 0.06893 0.0
C2913 C 0.72856 0.19749 0.0743 0.0
C2914 C 0.75756 0.18316 0.04434 0.0
C2915 C 0.74756 0.19653 0.02466 0.0
C2916 C 0.72812 0.21049 0.03016 0.0
C2917 C 0.71891 0.21076 0.05473 0.0
C2918 C 0.7783 0.16804 0.03937 0.0
C2919 C 0.71704 0.22531 1.01006 0.0
C2920 C 0.78499 0.21443 0.96867 0.0
C2921 C 0.77789 0.19922 0.9495 0.0
C2922 C 0.77535 0.21363 0.99302 0.0
C2923 C 0.75809 0.19711 0.9987 0.0
C2924 C 0.75043 0.18195 0.97932 0.0
C2925 C 0.76035 0.18323 0.95492 0.0
C2926 C 0.78384 0.23044 1.01276 0.0
C2927 C 0.73205 0.16409 0.9845 0.0
H2928 H 0.75548 0.17336 0.08378 0.0
H2929 H 0.70393 0.22144 0.05857 0.0
H2930 H 0.77441 0.15571 0.02391 0.0
H2931 H 0.79308 0.1788 0.03306 0.0
H2932 H 0.78363 0.15813 0.05636 0.0
H2933 H 0.7017 0.23484 1.01722 0.0
H2934 H 0.72975 0.23803 1.00279 0.0
H2935 H 0.71161 0.21444 0.99388 0.0
H2936 H 0.79847 0.22693 0.96473 0.0
H2937 H 0.75492 0.17123 0.94039 0.0
H2938 H 0.79106 0.22087 0.02909 0.0
H2939 H 0.76921 0.24098 1.0199 0.0
H2940 H 0.79735 0.24226 1.00534 0.0
H2941 H 0.73788 0.15236 0.99979 0.0
H2942 H 0.72793 0.1536 0.96752 0.0
H2943 H 0.71601 0.17264 0.99116 0.0
C2944 C 0.04451 0.4982 0.3291 0.0
C2945 C 0.06282 0.50142 0.34609 0.0
C2946 C 0.04776 0.50087 0.30289 0.0
C2947 C 0.06966 0.50768 0.29344 0.0
C2948 C 0.08797 0.51177 0.31066 0.0
C2949 C 0.08445 0.50818 0.33667 0.0
C2950 C 0.02797 0.49561 0.28525 0.0
C2951 C 0.1114 0.51972 0.3016 0.0
C2952 C 0.08854 0.49405 0.22593 0.0
C2953 C 0.08399 0.51489 0.21341 0.0
C2954 C 0.08311 0.49117 0.25167 0.0
C2955 C 0.07369 0.5099 0.26555 0.0
C2956 C 0.06894 0.53095 0.25292 0.0
C2957 C 0.07383 0.53306 0.22695 0.0
C2958 C 0.08778 0.46818 0.26409 0.0
C2959 C 0.05962 0.5516 0.26703 0.0
H2960 H 0.02785 0.49263 0.33622 0.0
H2961 H 0.09865 0.51072 0.3497 0.0
H2962 H 0.02421 0.51079 0.27319 0.0
H2963 H 0.03285 0.48119 0.27251 0.0
H2964 H 0.01196 0.49074 0.29556 0.0
H2965 H 0.1232 0.52393 0.31748 0.0
H2966 H 0.11954 0.50603 0.28996 0.0
H2967 H 0.10954 0.53523 0.28946 0.0
H2968 H 0.09643 0.47996 0.21554 0.0
H2969 H 0.07076 0.54936 0.21757 0.0
H2970 H 0.07207 0.46202 0.27406 0.0
H2971 H 0.10161 0.47011 0.27842 0.0
H2972 H 0.09323 0.45481 0.25026 0.0
H2973 H 0.04332 0.54704 0.27687 0.0
H2974 H 0.05626 0.56652 0.25437 0.0
H2975 H 0.0722 0.55698 0.2817 0.0
C2976 C 0.26917 0.18504 0.58955 0.0
C2977 C 0.2878 0.19952 0.59553 0.0
C2978 C 0.26022 0.18417 0.56478 0.0
C2979 C 0.26999 0.19827 0.54558 0.0
C2980 C 0.28831 0.21341 0.55177 0.0
C2981 C 0.29698 0.2138 0.57654 0.0
C2982 C 0.24064 0.16779 0.55902 0.0
C2983 C 0.29905 0.22898 0.53212 0.0
C2984 C 0.26055 0.18064 0.47665 0.0
C2985 C 0.24155 0.19434 0.47009 0.0
C2986 C 0.27033 0.18203 0.50102 0.0
C2987 C 0.26086 0.1975 0.51911 0.0
C2988 C 0.24234 0.21209 0.512 0.0
C2989 C 0.23282 0.21017 0.48771 0.0
C2990 C 0.29006 0.16618 0.50778 0.0
C2991 C 0.23188 0.22906 0.53041 0.0
H2992 H 0.26213 0.17376 0.60395 0.0
H2993 H 0.31133 0.22513 0.58095 0.0
H2994 H 0.22569 0.1775 0.55132 0.0
H2995 H 0.24613 0.15526 0.54435 0.0
H2996 H 0.23487 0.15807 0.57598 0.0
H2997 H 0.31284 0.24015 0.54009 0.0
H2998 H 0.30659 0.21841 0.5167 0.0
H2999 H 0.28561 0.24018 0.52355 0.0
H3000 H 0.26688 0.16795 0.46327 0.0
H3001 H 0.21782 0.22045 0.48275 0.0
H3002 H 0.28446 0.15403 0.52279 0.0
H3003 H 0.30475 0.1763 0.51542 0.0
H3004 H 0.29622 0.156 0.49131 0.0
H3005 H 0.22374 0.21957 0.54629 0.0
H3006 H 0.21857 0.24019 0.52144 0.0
H3007 H 0.24552 0.24028 0.53853 0.0
C3008 C 0.55211 0.54081 0.31696 0.0
C3009 C 0.56647 0.53256 0.33638 0.0
C3010 C 0.55296 0.53154 0.29245 0.0
C3011 C 0.56863 0.51347 0.28687 0.0
C3012 C 0.58305 0.50482 0.30641 0.0
C3013 C 0.58175 0.51439 0.33093 0.0
C3014 C 0.53699 0.54112 0.27249 0.0
C3015 C 0.59999 0.48555 0.30134 0.0
C3016 C 0.55375 0.47484 0.23091 0.0
C3017 C 0.56796 0.48352 0.21156 0.0
C3018 C 0.55399 0.48427 0.25535 0.0
C3019 C 0.5689 0.50296 0.26093 0.0
C3020 C 0.58315 0.51206 0.24145 0.0
C3021 C 0.58245 0.50231 0.21698 0.0
C3022 C 0.53822 0.47418 0.27524 0.0
C3023 C 0.59929 0.53198 0.24655 0.0
H3024 H 0.54015 0.55478 0.32086 0.0
H3025 H 0.59305 0.50799 0.34564 0.0
H3026 H 0.54719 0.54762 0.25624 0.0
H3027 H 0.52553 0.52724 0.26529 0.0
H3028 H 0.52603 0.55542 0.27974 0.0
H3029 H 0.61032 0.48105 0.31831 0.0
H3030 H 0.5906 0.46991 0.29493 0.0
H3031 H 0.61195 0.49063 0.28593 0.0
H3032 H 0.54237 0.4604 0.22701 0.0
H3033 H 0.59364 0.50903 0.2023 0.0
H3034 H 0.52625 0.48767 0.28236 0.0
H3035 H 0.54854 0.46805 0.29156 0.0
H3036 H 0.52781 0.45951 0.26796 0.0
H3037 H 0.58928 0.54724 0.25295 0.0
H3038 H 0.6095 0.53688 0.2296 0.0
H3039 H 0.61139 0.52736 0.26199 0.0
C3040 C 0.26163 0.83638 0.96854 0.0
C3041 C 0.2647 0.81481 0.95688 0.0
C3042 C 0.25562 0.83809 0.99433 0.0
C3043 C 0.25297 0.81776 1.00906 0.0
C3044 C 0.25679 0.79601 0.99753 0.0
C3045 C 0.26237 0.7948 0.97168 0.0
C3046 C 0.25137 0.86163 1.00563 0.0
C3047 C 0.25443 0.77387 1.01238 0.0
C3048 C 0.24932 0.82091 0.08158 0.0
C3049 C 0.22541 0.81896 0.0856 0.0
C3050 C 0.25866 0.82074 0.05684 0.0
C3051 C 0.24375 0.81896 0.0356 0.0
C3052 C 0.21964 0.81739 0.03966 0.0
C3053 C 0.21088 0.81723 0.06438 0.0
C3054 C 0.2845 0.82215 0.0534 0.0
C3055 C 0.20294 0.81575 1.0178 0.0
H3056 H 0.26349 0.85196 0.95737 0.0
H3057 H 0.26504 0.77802 0.96309 0.0
H3058 H 0.23289 0.86325 1.01097 0.0
H3059 H 0.26168 0.86383 0.0231 0.0
H3060 H 0.25575 0.8758 0.99232 0.0
H3061 H 0.26011 0.75854 1.00141 0.0
H3062 H 0.26476 0.77485 0.02998 0.0
H3063 H 0.23612 0.77135 1.01797 0.0
H3064 H 0.26073 0.82235 0.09772 0.0
H3065 H 0.19234 0.81594 0.06697 0.0
H3066 H 0.28896 0.83703 0.04114 0.0
H3067 H 0.29082 0.80634 0.04377 0.0
H3068 H 0.29375 0.82401 0.07165 0.0
H3069 H 0.20558 0.83045 1.00468 0.0
H3070 H 0.18461 0.81576 0.02407 0.0
H3071 H 0.20619 0.79966 1.007 0.0
C3072 C 0.94761 0.52525 0.72649 0.0
C3073 C 0.9278 0.51651 0.71456 0.0
C3074 C 0.95246 0.52006 0.75197 0.0
C3075 C 0.93751 0.50523 0.7657 0.0
C3076 C 0.91774 0.49602 0.75353 0.0
C3077 C 0.913 0.502 0.72831 0.0
C3078 C 0.97348 0.5306 0.76426 0.0
C3079 C 0.90168 0.4796 0.76706 0.0
C3080 C 0.96086 0.47023 0.82087 0.0
C3081 C 0.95044 0.48085 0.84189 0.0
C3082 C 0.95727 0.47836 0.79621 0.0
C3083 C 0.94322 0.49801 0.79218 0.0
C3084 C 0.93357 0.50961 0.81335 0.0
C3085 C 0.93714 0.50081 0.83794 0.0
C3086 C 0.96764 0.46515 0.77435 0.0
C3087 C 0.91887 0.5309 0.80997 0.0
H3088 H 0.95903 0.53667 0.71613 0.0
H3089 H 0.89768 0.49513 0.71924 0.0
H3090 H 0.96833 0.53997 0.78166 0.0
H3091 H 0.9857 0.51681 0.76998 0.0
H3092 H 0.98265 0.54278 0.75151 0.0
H3093 H 0.88707 0.47393 0.75497 0.0
H3094 H 0.9114 0.4641 0.7733 0.0
H3095 H 0.89455 0.48796 0.78423 0.0
H3096 H 0.9713 0.45488 0.8235 0.0
H3097 H 0.92904 0.50922 0.85394 0.0
H3098 H 0.97798 0.47686 0.76223 0.0
H3099 H 0.95362 0.45791 0.76247 0.0
H3100 H 0.97891 0.45074 0.78069 0.0
H3101 H 0.92797 0.54365 0.79788 0.0
H3102 H 0.91449 0.53919 0.82828 0.0
H3103 H 0.90255 0.52624 0.80024 0.0
C3104 C 0.21932 0.39275 0.139 0.0
C3105 C 0.23473 0.40013 0.15778 0.0
C3106 C 0.2017 0.40747 0.13012 0.0
C3107 C 0.19967 0.43012 0.14008 0.0
C3108 C 0.21563 0.43776 0.15853 0.0
C3109 C 0.23285 0.4227 0.16714 0.0
C3110 C 0.18496 0.39865 0.11055 0.0
C3111 C 0.21443 0.46187 0.1694 0.0
C3112 C 0.16979 0.48014 0.10744 0.0
C3113 C 0.15008 0.48312 0.1226 0.0
C3114 C 0.18532 0.46192 0.11174 0.0
C3115 C 0.18101 0.44613 0.13158 0.0
C3116 C 0.16021 0.44793 0.14561 0.0
C3117 C 0.14502 0.46642 0.14099 0.0
C3118 C 0.2072 0.46065 0.09623 0.0
C3119 C 0.1548 0.43132 0.16676 0.0
H3120 H 0.22064 0.37528 0.13184 0.0
H3121 H 0.24498 0.42863 0.18129 0.0
H3122 H 0.1673 0.398 0.11871 0.0
H3123 H 0.18435 0.4106 0.09419 0.0
H3124 H 0.18963 0.38113 0.10368 0.0
H3125 H 0.22842 0.46525 0.18326 0.0
H3126 H 0.21569 0.47483 0.15403 0.0
H3127 H 0.19755 0.4645 0.17894 0.0
H3128 H 0.17357 0.49262 0.09279 0.0
H3129 H 0.12992 0.46853 0.15285 0.0
H3130 H 0.21045 0.4427 0.08984 0.0
H3131 H 0.22211 0.46593 0.10806 0.0
H3132 H 0.20652 0.47212 0.07944 0.0
H3133 H 0.15792 0.41326 0.16067 0.0
H3134 H 0.13662 0.43292 0.17332 0.0
H3135 H 0.1664 0.43486 0.18299 0.0
C3136 C 0.85089 0.97765 0.43558 0.0
C3137 C 0.86634 0.98432 0.41641 0.0
C3138 C 0.83485 0.95978 0.43189 0.0
C3139 C 0.83442 0.94785 0.40859 0.0
C3140 C 0.8509 0.95343 0.38973 0.0
C3141 C 0.86655 0.97167 0.39379 0.0
C3142 C 0.81753 0.95455 0.45246 0.0
C3143 C 0.85128 0.94087 0.36476 0.0
C3144 C 0.7984 0.89272 0.40343 0.0
C3145 C 0.77854 0.90096 0.39129 0.0
C3146 C 0.81689 0.90769 0.40913 0.0
C3147 C 0.81517 0.93148 0.40297 0.0
C3148 C 0.79477 0.9399 0.39143 0.0
C3149 C 0.77686 0.92452 0.38557 0.0
C3150 C 0.83845 0.898 0.4211 0.0
C3151 C 0.79191 0.96517 0.38507 0.0
H3152 H 0.85092 0.98675 0.45342 0.0
H3153 H 0.87831 0.97655 0.37881 0.0
H3154 H 0.79997 0.95954 0.44604 0.0
H3155 H 0.81715 0.93577 0.45654 0.0
H3156 H 0.82138 0.96397 0.47024 0.0
H3157 H 0.86686 0.94518 0.35343 0.0
H3158 H 0.85076 0.92192 0.36781 0.0
H3159 H 0.83573 0.9456 0.35367 0.0
H3160 H 0.79977 0.87446 0.40762 0.0
H3161 H 0.76138 0.93092 0.37644 0.0
H3162 H 0.84241 0.90735 0.43885 0.0
H3163 H 0.85337 0.90053 0.40822 0.0
H3164 H 0.83682 0.87928 0.42538 0.0
H3165 H 0.79417 0.97582 0.40231 0.0
H3166 H 0.77469 0.96902 0.37682 0.0
H3167 H 0.8054 0.97055 0.37138 0.0
C3168 C 0.30399 0.61078 0.6712 0.0
C3169 C 0.28928 0.62161 0.65377 0.0
C3170 C 0.32104 0.59512 0.6634 0.0
C3171 C 0.32381 0.5903 0.63738 0.0
C3172 C 0.31033 0.60261 0.6195 0.0
C3173 C 0.29314 0.61809 0.62791 0.0
C3174 C 0.33491 0.58248 0.68322 0.0
C3175 C 0.31305 0.59835 0.59156 0.0
C3176 C 0.37599 0.55266 0.62098 0.0
C3177 C 0.36595 0.53061 0.62028 0.0
C3178 C 0.36239 0.57251 0.62531 0.0
C3179 C 0.33829 0.57016 0.62952 0.0
C3180 C 0.3281 0.54795 0.62845 0.0
C3181 C 0.34198 0.52858 0.62375 0.0
C3182 C 0.37386 0.59589 0.62589 0.0
C3183 C 0.30259 0.54448 0.63327 0.0
H3184 H 0.30158 0.61392 0.69119 0.0
H3185 H 0.28195 0.62644 0.6143 0.0
H3186 H 0.32968 0.56404 0.68357 0.0
H3187 H 0.3536 0.58306 0.67864 0.0
H3188 H 0.33231 0.58981 0.7024 0.0
H3189 H 0.30442 0.61192 0.58013 0.0
H3190 H 0.33161 0.59764 0.58629 0.0
H3191 H 0.30529 0.58142 0.58666 0.0
H3192 H 0.39445 0.55437 0.61812 0.0
H3193 H 0.3341 0.51162 0.62371 0.0
H3194 H 0.37345 0.60287 0.64538 0.0
H3195 H 0.36431 0.60822 0.61371 0.0
H3196 H 0.39214 0.59512 0.6195 0.0
H3197 H 0.29834 0.5498 0.65287 0.0
H3198 H 0.29718 0.52623 0.6307 0.0
H3199 H 0.29227 0.55547 0.62036 0.0
C3200 C 0.64328 0.04585 0.8846 0.0
C3201 C 0.64836 0.02973 0.90355 0.0
C3202 C 0.65925 0.06328 0.87811 0.0
C3203 C 0.68089 0.06439 0.89065 0.0
C3204 C 0.68621 0.04784 0.90942 0.0
C3205 C 0.66992 0.03083 0.91564 0.0
C3206 C 0.65289 0.08063 0.85804 0.0
C3207 C 0.70921 0.04803 0.92292 0.0
C3208 C 0.73168 0.09376 0.85828 0.0
C3209 C 0.73305 0.11494 0.87111 0.0
C3210 C 0.71469 0.07736 0.86427 0.0
C3211 C 0.69846 0.08218 0.88356 0.0
C3212 C 0.69978 0.10349 0.89674 0.0
C3213 C 0.71717 0.11956 0.89046 0.0
C3214 C 0.71428 0.05473 0.85008 0.0
C3215 C 0.68277 0.10932 0.91739 0.0
H3216 H 0.6266 0.04518 0.87536 0.0
H3217 H 0.67412 0.01819 0.92999 0.0
H3218 H 0.65363 0.09834 0.86599 0.0
H3219 H 0.66555 0.07986 0.84232 0.0
H3220 H 0.63532 0.07761 0.85029 0.0
H3221 H 0.7106 0.03402 0.93716 0.0
H3222 H 0.72346 0.04602 0.90906 0.0
H3223 H 0.71177 0.06484 0.93255 0.0
H3224 H 0.74414 0.08987 0.84362 0.0
H3225 H 0.71802 0.13595 0.90028 0.0
H3226 H 0.69721 0.05226 0.84096 0.0
H3227 H 0.71678 0.04018 0.86343 0.0
H3228 H 0.7279 0.05379 0.83532 0.0
H3229 H 0.66488 0.10853 0.90989 0.0
H3230 H 0.68578 0.12678 0.92544 0.0
H3231 H 0.684 0.09642 0.93281 0.0
C3232 C 0.16619 0.5316 0.40262 0.0
C3233 C 0.14643 0.53889 0.41561 0.0
C3234 C 0.18372 0.5474 0.39618 0.0
C3235 C 0.18098 0.57113 0.40216 0.0
C3236 C 0.16055 0.57862 0.41445 0.0
C3237 C 0.14373 0.56233 0.42142 0.0
C3238 C 0.20546 0.5386 0.38369 0.0
C3239 C 0.15652 0.60381 0.42037 0.0
C3240 C 0.2342 0.60963 0.40783 0.0
C3241 C 0.23548 0.61924 0.38363 0.0
C3242 C 0.21666 0.59379 0.41408 0.0
C3243 C 0.19959 0.58807 0.39591 0.0
C3244 C 0.20041 0.59845 0.37171 0.0
C3245 C 0.21859 0.61359 0.36573 0.0
C3246 C 0.21678 0.5827 0.43987 0.0
C3247 C 0.18214 0.59353 0.3521 0.0
H3248 H 0.16829 0.5134 0.39845 0.0
H3249 H 0.12833 0.56786 0.43139 0.0
H3250 H 0.20803 0.54728 0.36524 0.0
H3251 H 0.22066 0.54279 0.39561 0.0
H3252 H 0.205 0.51963 0.38054 0.0
H3253 H 0.13908 0.60696 0.42847 0.0
H3254 H 0.16965 0.60996 0.43405 0.0
H3255 H 0.15846 0.61433 0.40299 0.0
H3256 H 0.24747 0.61386 0.42149 0.0
H3257 H 0.21963 0.62117 0.34706 0.0
H3258 H 0.21794 0.56365 0.43788 0.0
H3259 H 0.2004 0.58655 0.44991 0.0
H3260 H 0.23144 0.58874 0.45168 0.0
H3261 H 0.18258 0.57501 0.34679 0.0
H3262 H 0.18453 0.60405 0.33475 0.0
H3263 H 0.16473 0.59712 0.35998 0.0
C3264 C 0.67308 0.98398 0.61627 0.0
C3265 C 0.6512 0.98483 0.62772 0.0
C3266 C 0.68947 0.9673 0.62319 0.0
C3267 C 0.68388 0.95085 0.64198 0.0
C3268 C 0.66186 0.95164 0.65376 0.0
C3269 C 0.64582 0.96875 0.64661 0.0
C3270 C 0.71287 0.96743 0.61051 0.0
C3271 C 0.65521 0.93434 0.67379 0.0
C3272 C 0.72122 0.8965 0.64442 0.0
C3273 C 0.73627 0.90168 0.66435 0.0
C3274 C 0.70377 0.91213 0.63719 0.0
C3275 C 0.70156 0.93355 0.64998 0.0
C3276 C 0.71696 0.93895 0.66985 0.0
C3277 C 0.73402 0.92296 0.67681 0.0
C3278 C 0.68762 0.90569 0.61597 0.0
C3279 C 0.71558 0.96174 0.68366 0.0
H3280 H 0.67749 0.9966 0.60197 0.0
H3281 H 0.62889 0.96923 0.65535 0.0
H3282 H 0.72662 0.96999 0.62483 0.0
H3283 H 0.71613 0.95054 0.60129 0.0
H3284 H 0.7144 0.98125 0.59606 0.0
H3285 H 0.63728 0.93698 0.68075 0.0
H3286 H 0.65671 0.91656 0.66614 0.0
H3287 H 0.66723 0.93563 0.69003 0.0
H3288 H 0.72278 0.88002 0.63489 0.0
H3289 H 0.74585 0.92725 0.69193 0.0
H3290 H 0.68906 0.91846 0.60045 0.0
H3291 H 0.66948 0.90611 0.62277 0.0
H3292 H 0.69133 0.88823 0.60825 0.0
H3293 H 0.71818 0.97618 0.67018 0.0
H3294 H 0.72871 0.96318 0.69887 0.0
H3295 H 0.69818 0.96392 0.69214 0.0
C3296 C 0.34556 0.48658 0.91492 0.0
C3297 C 0.36875 0.48526 0.90742 0.0
C3298 C 0.32967 0.46934 0.90837 0.0
C3299 C 0.33719 0.44994 0.8943 0.0
C3300 C 0.36058 0.44863 0.88632 0.0
C3301 C 0.37606 0.46648 0.89277 0.0
C3302 C 0.30481 0.47182 0.91672 0.0
C3303 C 0.36935 0.4281 0.87162 0.0
C3304 C 0.29684 0.39835 0.90118 0.0
C3305 C 0.28294 0.40054 0.8796 0.0
C3306 C 0.31552 0.41344 0.90547 0.0
C3307 C 0.32028 0.43134 0.88794 0.0
C3308 C 0.30706 0.43291 0.86557 0.0
C3309 C 0.28877 0.41741 0.86158 0.0
C3310 C 0.32946 0.41092 0.92938 0.0
C3311 C 0.31137 0.45178 0.84645 0.0
H3312 H 0.33989 0.50123 0.92605 0.0
H3313 H 0.39406 0.46538 0.88721 0.0
H3314 H 0.29317 0.47099 0.90011 0.0
H3315 H 0.30008 0.45733 0.92942 0.0
H3316 H 0.30162 0.48832 0.92683 0.0
H3317 H 0.38777 0.43006 0.86606 0.0
H3318 H 0.36757 0.41225 0.88323 0.0
H3319 H 0.35884 0.42553 0.85435 0.0
H3320 H 0.29262 0.38546 0.91524 0.0
H3321 H 0.27869 0.41891 0.84447 0.0
H3322 H 0.32557 0.42552 0.94227 0.0
H3323 H 0.34822 0.41154 0.92508 0.0
H3324 H 0.32559 0.39452 0.93941 0.0
H3325 H 0.30696 0.46876 0.85489 0.0
H3326 H 0.30093 0.44946 0.82904 0.0
H3327 H 0.3299 0.45235 0.84114 0.0
C3328 C 0.84412 0.03206 0.12196 0.0
C3329 C 0.86805 0.03466 0.1245 0.0
C3330 C 0.82894 0.0501 0.12795 0.0
C3331 C 0.83793 0.07157 0.13617 0.0
C3332 C 0.86217 0.07435 0.13875 0.0
C3333 C 0.87698 0.05569 0.13317 0.0
C3334 C 0.80322 0.04609 0.1256 0.0
C3335 C 0.87243 0.09709 0.14696 0.0
C3336 C 0.79366 0.11987 0.13014 0.0
C3337 C 0.78411 0.12012 0.15449 0.0
C3338 C 0.81242 0.10531 0.12425 0.0
C3339 C 0.82161 0.0905 0.14307 0.0
C3340 C 0.813 0.09183 0.16802 0.0
C3341 C 0.7946 0.10678 0.17344 0.0
C3342 C 0.8215 0.10481 0.09754 0.0
C3343 C 0.82208 0.07629 0.18866 0.0
H3344 H 0.8373 0.01571 0.11536 0.0
H3345 H 0.89554 0.05772 0.13478 0.0
H3346 H 0.79469 0.04915 0.14408 0.0
H3347 H 0.79569 0.05847 0.11191 0.0
H3348 H 0.79907 0.02828 0.11927 0.0
H3349 H 0.89161 0.09651 0.14778 0.0
H3350 H 0.86716 0.1109 0.13364 0.0
H3351 H 0.86573 0.10195 0.16585 0.0
H3352 H 0.7858 0.13017 0.1154 0.0
H3353 H 0.7879 0.1074 0.19252 0.0
H3354 H 0.81586 0.08864 0.08817 0.0
H3355 H 0.84068 0.10497 0.09747 0.0
H3356 H 0.81513 0.11968 0.08626 0.0
H3357 H 0.81721 0.05815 0.18452 0.0
H3358 H 0.81508 0.08097 0.20752 0.0
H3359 H 0.84121 0.07703 0.18946 0.0
C3360 C 0.84752 0.53525 0.92937 0.0
C3361 C 0.86715 0.5301 0.91479 0.0
C3362 C 0.83153 0.55205 0.92177 0.0
C3363 C 0.83499 0.56404 0.89881 0.0
C3364 C 0.85457 0.55877 0.88372 0.0
C3365 C 0.87042 0.54184 0.89188 0.0
C3366 C 0.81081 0.55689 0.93836 0.0
C3367 C 0.8588 0.57108 0.85904 0.0
C3368 C 0.7804 0.59011 0.87096 0.0
C3369 C 0.78169 0.61323 0.87897 0.0
C3370 C 0.79804 0.57424 0.8764 0.0
C3371 C 0.81753 0.58145 0.89044 0.0
C3372 C 0.8192 0.6048 0.89829 0.0
C3373 C 0.80129 0.6204 0.89246 0.0
C3374 C 0.79543 0.54951 0.86777 0.0
C3375 C 0.83967 0.61317 0.91336 0.0
H3376 H 0.84448 0.52595 0.94678 0.0
H3377 H 0.88557 0.53811 0.88057 0.0
H3378 H 0.8104 0.57543 0.94362 0.0
H3379 H 0.79466 0.55314 0.92787 0.0
H3380 H 0.8109 0.54642 0.95593 0.0
H3381 H 0.87476 0.56496 0.84946 0.0
H3382 H 0.84392 0.56842 0.84618 0.0
H3383 H 0.86031 0.58993 0.86239 0.0
H3384 H 0.76526 0.58414 0.86092 0.0
H3385 H 0.80268 0.63821 0.89847 0.0
H3386 H 0.79354 0.53804 0.88443 0.0
H3387 H 0.81111 0.54386 0.8574 0.0
H3388 H 0.78017 0.54706 0.85535 0.0
H3389 H 0.84003 0.60433 0.93194 0.0
H3390 H 0.83917 0.63212 0.91663 0.0
H3391 H 0.856 0.60879 0.90346 0.0
C3392 C 0.17425 0.02999 0.63341 0.0
C3393 C 0.15037 0.03343 0.63141 0.0
C3394 C 0.18902 0.0479 0.64097 0.0
C3395 C 0.17977 0.07007 0.64605 0.0
C3396 C 0.15558 0.07366 0.64407 0.0
C3397 C 0.14109 0.05515 0.63708 0.0
C3398 C 0.21456 0.04304 0.64355 0.0
C3399 C 0.1451 0.09713 0.64875 0.0
C3400 C 0.21756 0.10782 0.68757 0.0
C3401 C 0.23087 0.12 0.66975 0.0
C3402 C 0.2003 0.09223 0.68015 0.0
C3403 C 0.19558 0.08907 0.6542 0.0
C3404 C 0.20773 0.10247 0.63611 0.0
C3405 C 0.22536 0.11761 0.64406 0.0
C3406 C 0.18802 0.07818 0.70011 0.0
C3407 C 0.20281 0.10007 0.60826 0.0
H3408 H 0.18133 0.01312 0.62906 0.0
H3409 H 0.12264 0.05781 0.63514 0.0
H3410 H 0.22449 0.05414 0.63036 0.0
H3411 H 0.22039 0.04726 0.66296 0.0
H3412 H 0.21888 0.0247 0.63955 0.0
H3413 H 0.12603 0.0971 0.64637 0.0
H3414 H 0.14923 0.10309 0.66813 0.0
H3415 H 0.15268 0.10988 0.63547 0.0
H3416 H 0.22094 0.11 0.70751 0.0
H3417 H 0.2353 0.1269 0.63004 0.0
H3418 H 0.19272 0.05969 0.69799 0.0
H3419 H 0.16902 0.07947 0.69777 0.0
H3420 H 0.19255 0.08376 0.71955 0.0
H3421 H 0.20923 0.08311 0.60148 0.0
H3422 H 0.21127 0.11388 0.59699 0.0
H3423 H 0.18392 0.1006 0.60473 0.0
C3424 C 0.64646 0.46881 0.38959 0.0
C3425 C 0.65177 0.48411 0.40926 0.0
C3426 C 0.6623 0.45162 0.38208 0.0
C3427 C 0.68403 0.44989 0.39435 0.0
C3428 C 0.68957 0.46561 0.41388 0.0
C3429 C 0.67342 0.48243 0.42107 0.0
C3430 C 0.65573 0.43517 0.36119 0.0
C3431 C 0.71266 0.46475 0.42715 0.0
C3432 C 0.72027 0.39479 0.39121 0.0
C3433 C 0.73616 0.40026 0.37213 0.0
C3434 C 0.70285 0.41055 0.39829 0.0
C3435 C 0.70149 0.43238 0.38621 0.0
C3436 C 0.71767 0.43803 0.36715 0.0
C3437 C 0.73471 0.42195 0.36036 0.0
C3438 C 0.68589 0.40384 0.41867 0.0
C3439 C 0.71718 0.46122 0.35409 0.0
H3440 H 0.62971 0.46993 0.38054 0.0
H3441 H 0.67783 0.49446 0.43595 0.0
H3442 H 0.66832 0.43652 0.34544 0.0
H3443 H 0.65639 0.41714 0.36823 0.0
H3444 H 0.63814 0.43864 0.3537 0.0
H3445 H 0.71419 0.47809 0.44213 0.0
H3446 H 0.71525 0.44752 0.43584 0.0
H3447 H 0.72682 0.46736 0.4133 0.0
H3448 H 0.72117 0.37801 0.4002 0.0
H3449 H 0.74717 0.42649 0.34591 0.0
H3450 H 0.66797 0.40516 0.41136 0.0
H3451 H 0.68733 0.41595 0.43482 0.0
H3452 H 0.6888 0.38599 0.42566 0.0
H3453 H 0.70003 0.46411 0.3453 0.0
H3454 H 0.73066 0.46273 0.33923 0.0
H3455 H 0.71987 0.4752 0.36811 0.0
C3456 C 0.34103 0.98573 0.13653 0.0
C3457 C 0.36478 0.98304 0.13245 0.0
C3458 C 0.32701 0.96686 0.14281 0.0
C3459 C 0.33688 0.94454 0.14451 0.0
C3460 C 0.36098 0.9417 0.14062 0.0
C3461 C 0.37474 0.96111 0.13489 0.0
C3462 C 0.30155 0.97085 0.14745 0.0
C3463 C 0.37207 0.91815 0.14181 0.0
C3464 C 0.30061 0.90281 0.18282 0.0
C3465 C 0.28652 0.89277 0.16421 0.0
C3466 C 0.31794 0.91875 0.17657 0.0
C3467 C 0.32176 0.9245 0.15096 0.0
C3468 C 0.30892 0.91305 0.1319 0.0
C3469 C 0.29134 0.89742 0.13875 0.0
C3470 C 0.33105 0.9306 0.19755 0.0
C3471 C 0.31284 0.91829 0.10432 0.0
H3472 H 0.33345 1.00276 0.13466 0.0
H3473 H 0.39307 0.95907 0.13134 0.0
H3474 H 0.29119 0.96103 0.1335 0.0
H3475 H 0.29672 0.96446 0.16649 0.0
H3476 H 0.29675 0.98939 0.1461 0.0
H3477 H 0.39108 0.91893 0.13895 0.0
H3478 H 0.3685 0.90992 0.16031 0.0
H3479 H 0.36448 0.90685 0.12707 0.0
H3480 H 0.29763 0.89879 0.20251 0.0
H3481 H 0.2807 0.88972 0.1242 0.0
H3482 H 0.32583 0.94903 0.19846 0.0
H3483 H 0.3499 0.93014 0.19382 0.0
H3484 H 0.32769 0.92258 0.21625 0.0
H3485 H 0.30597 0.93572 0.09992 0.0
H3486 H 0.30413 0.90556 0.09185 0.0
H3487 H 0.33159 0.91841 0.09993 0.0
C3488 C 0.80058 0.3912 0.64071 0.0
C3489 C 0.78037 0.39987 0.65196 0.0
C3490 C 0.81941 0.40582 0.63516 0.0
C3491 C 0.81799 0.42968 0.64098 0.0
C3492 C 0.79764 0.43849 0.65227 0.0
C3493 C 0.77915 0.42356 0.6575 0.0
C3494 C 0.84079 0.39578 0.62308 0.0
C3495 C 0.79525 0.46381 0.65866 0.0
C3496 C 0.86984 0.46958 0.64853 0.0
C3497 C 0.8686 0.48267 0.62629 0.0
C3498 C 0.85435 0.45128 0.65299 0.0
C3499 C 0.8373 0.44585 0.6347 0.0
C3500 C 0.83704 0.45803 0.61152 0.0
C3501 C 0.85261 0.47629 0.60765 0.0
C3502 C 0.85525 0.43879 0.67798 0.0
C3503 C 0.81937 0.45273 0.59138 0.0
H3504 H 0.80182 0.37294 0.63654 0.0
H3505 H 0.76352 0.43062 0.66568 0.0
H3506 H 0.84407 0.40433 0.60468 0.0
H3507 H 0.85605 0.3991 0.6352 0.0
H3508 H 0.83927 0.37687 0.61991 0.0
H3509 H 0.77852 0.46781 0.668 0.0
H3510 H 0.80948 0.46923 0.67137 0.0
H3511 H 0.7966 0.47433 0.64122 0.0
H3512 H 0.88203 0.47451 0.66308 0.0
H3513 H 0.85183 0.48613 0.59027 0.0
H3514 H 0.85446 0.41984 0.67506 0.0
H3515 H 0.84003 0.44373 0.68954 0.0
H3516 H 0.87115 0.443 0.68878 0.0
H3517 H 0.8186 0.43389 0.58771 0.0
H3518 H 0.82319 0.46177 0.57335 0.0
H3519 H 0.802 0.45819 0.59797 0.0
C3520 C 0.29822 0.12862 0.39298 0.0
C3521 C 0.2768 0.12039 0.38437 0.0
C3522 C 0.3168 0.11342 0.39751 0.0
C3523 C 0.31386 0.08937 0.39356 0.0
C3524 C 0.29229 0.08102 0.38486 0.0
C3525 C 0.27413 0.09656 0.38038 0.0
C3526 C 0.33953 0.12305 0.40665 0.0
C3527 C 0.28823 0.05553 0.38068 0.0
C3528 C 0.36399 0.04704 0.38586 0.0
C3529 C 0.36441 0.03634 0.40963 0.0
C3530 C 0.34836 0.0651 0.38064 0.0
C3531 C 0.33277 0.07264 0.39962 0.0
C3532 C 0.33391 0.06262 0.42396 0.0
C3533 C 0.3497 0.04471 0.42865 0.0
C3534 C 0.34783 0.07539 0.35447 0.0
C3535 C 0.31773 0.0701 0.44481 0.0
H3536 H 0.30054 0.14699 0.39587 0.0
H3537 H 0.25759 0.08993 0.37418 0.0
H3538 H 0.34365 0.1159 0.42555 0.0
H3539 H 0.35366 0.11774 0.39371 0.0
H3540 H 0.33933 0.14219 0.40793 0.0
H3541 H 0.27068 0.05187 0.37318 0.0
H3542 H 0.30119 0.04858 0.36724 0.0
H3543 H 0.29038 0.04607 0.39874 0.0
H3544 H 0.37519 0.04068 0.37101 0.0
H3545 H 0.35025 0.03696 0.44724 0.0
H3546 H 0.34819 0.09453 0.35553 0.0
H3547 H 0.33151 0.07042 0.34493 0.0
H3548 H 0.36258 0.06946 0.3427 0.0
H3549 H 0.31836 0.08912 0.44721 0.0
H3550 H 0.32196 0.06184 0.46317 0.0
H3551 H 0.29972 0.06549 0.43972 0.0
C3552 C 0.71863 0.62357 0.14943 0.0
C3553 C 0.73547 0.61789 0.16742 0.0
C3554 C 0.70098 0.60782 0.1431 0.0
C3555 C 0.70021 0.58589 0.15501 0.0
C3556 C 0.71715 0.58013 0.17317 0.0
C3557 C 0.73455 0.59608 0.17901 0.0
C3558 C 0.6833 0.61452 0.1235 0.0
C3559 C 0.71717 0.55689 0.18616 0.0
C3560 C 0.64615 0.54804 0.15356 0.0
C3561 C 0.65165 0.5324 0.13424 0.0
C3562 C 0.66153 0.56592 0.16023 0.0
C3563 C 0.68288 0.56816 0.14727 0.0
C3564 C 0.68849 0.55239 0.12782 0.0
C3565 C 0.67294 0.53472 0.1217 0.0
C3566 C 0.65502 0.5823 0.18121 0.0
C3567 C 0.71114 0.55394 0.11368 0.0
H3568 H 0.71907 0.64041 0.14054 0.0
H3569 H 0.74772 0.59123 0.19249 0.0
H3570 H 0.68451 0.60268 0.10709 0.0
H3571 H 0.66562 0.61276 0.13141 0.0
H3572 H 0.68569 0.63252 0.11674 0.0
H3573 H 0.73079 0.55559 0.20086 0.0
H3574 H 0.70015 0.55362 0.19511 0.0
H3575 H 0.72006 0.54302 0.17205 0.0
H3576 H 0.62972 0.54651 0.16323 0.0
H3577 H 0.67768 0.52246 0.10716 0.0
H3578 H 0.65543 0.60036 0.17421 0.0
H3579 H 0.6678 0.58104 0.19675 0.0
H3580 H 0.63755 0.57865 0.18898 0.0
H3581 H 0.71327 0.57144 0.10547 0.0
H3582 H 0.71238 0.54103 0.09822 0.0
H3583 H 0.72573 0.55111 0.12689 0.0
C3584 C 0.14654 0.97371 0.87695 0.0
C3585 C 0.14481 0.98178 0.90187 0.0
C3586 C 0.16183 0.95561 0.87068 0.0
C3587 C 0.17583 0.94554 0.88971 0.0
C3588 C 0.17311 0.95274 0.91506 0.0
C3589 C 0.15752 0.97053 0.92081 0.0
C3590 C 0.16382 0.94808 0.8435 0.0
C3591 C 0.18769 0.94267 0.93599 0.0
C3592 C 0.2112 0.89044 0.88054 0.0
C3593 C 0.23307 0.89946 0.87478 0.0
C3594 C 0.19209 0.90513 0.88441 0.0
C3595 C 0.19508 0.92941 0.88307 0.0
C3596 C 0.21717 0.93853 0.87723 0.0
C3597 C 0.23577 0.92347 0.87297 0.0
C3598 C 0.16876 0.89471 0.89012 0.0
C3599 C 0.22135 0.96426 0.87617 0.0
H3600 H 0.13676 0.98219 0.8622 0.0
H3601 H 0.1558 0.97609 0.94023 0.0
H3602 H 0.18044 0.95428 0.83556 0.0
H3603 H 0.1638 0.92895 0.84215 0.0
H3604 H 0.14952 0.95501 0.83174 0.0
H3605 H 0.18234 0.94898 0.95493 0.0
H3606 H 0.18663 0.92355 0.93587 0.0
H3607 H 0.20607 0.94738 0.93295 0.0
H3608 H 0.20902 0.87188 0.88165 0.0
H3609 H 0.25269 0.93053 0.86883 0.0
H3610 H 0.15558 0.90174 0.877 0.0
H3611 H 0.16334 0.89945 0.90953 0.0
H3612 H 0.16889 0.87558 0.88853 0.0
H3613 H 0.20944 0.97242 0.86241 0.0
H3614 H 0.23939 0.96856 0.87073 0.0
H3615 H 0.21773 0.97205 0.89492 0.0
loop_
_geom_bond_atom_site_label_1
_geom_bond_atom_site_label_2
_geom_bond_distance
_geom_bond_site_symmetry_2
_ccdc_geom_bond_type
C0 C1 1.351 . S
C0 N3 1.368 . S
C0 H5 0.931 . S
C1 C0 1.351 . S
C1 N2 1.373 . S
C1 H29 0.930 . S
N2 C1 1.373 . S
N2 C4 1.340 . S
N3 C0 1.368 . S
N3 C4 1.321 . S
N3 Co6 2.135 . S
C4 N2 1.340 . S
C4 N3 1.321 . S
C4 H28 0.930 . S
H5 C0 0.931 . S
Co6 N3 2.135 . S
Co6 N9 2.121 . S
Co6 O14 2.055 . S
Co6 O17 2.039 . S
Co6 N20 2.140 . S
C7 O8 1.227 . S
C7 O17 1.265 . S
O8 C7 1.227 . S
N9 Co6 2.121 . S
N9 C11 1.375 . S
N9 C12 1.313 . S
C10 C11 1.338 . S
C10 N13 1.377 . S
C10 H30 0.930 . S
C11 N9 1.375 . S
C11 C10 1.338 . S
C11 H15 0.931 . S
C12 N9 1.313 . S
C12 N13 1.344 . S
C12 H16 0.930 . S
N13 C10 1.377 . S
N13 C12 1.344 . S
O14 Co6 2.055 . S
O14 C18 1.253 . S
H15 C11 0.931 . S
H16 C12 0.930 . S
O17 Co6 2.039 . S
O17 C7 1.265 . S
C18 O14 1.253 . S
C18 O19 1.227 . S
O19 C18 1.227 . S
N20 Co6 2.140 . S
N20 C23 1.346 . S
N20 C24 1.345 . S
C21 C22 1.387 . S
C21 C25 1.391 . S
C22 C21 1.387 . S
C22 C23 1.369 . S
C22 H31 0.929 . S
C23 N20 1.346 . S
C23 C22 1.369 . S
C23 H26 0.928 . S
C24 N20 1.345 . S
C24 C25 1.371 . S
C24 H27 0.931 . S
C25 C21 1.391 . S
C25 C24 1.371 . S
C25 H32 0.930 . S
H26 C23 0.928 . S
H27 C24 0.931 . S
H28 C4 0.930 . S
H29 C1 0.930 . S
H30 C10 0.930 . S
H31 C22 0.929 . S
H32 C25 0.930 . S
C33 C34 1.351 1_545 S
C33 N36 1.368 . S
C33 H38 0.931 . S
C34 C33 1.351 1_565 S
C34 N35 1.373 . S
C34 H62 0.930 . S
N35 C34 1.373 . S
N35 C37 1.342 . S
N36 C33 1.368 . S
N36 C37 1.318 1_545 S
N36 Co39 2.135 . S
C37 N35 1.342 . S
C37 N36 1.318 1_565 S
C37 H61 0.931 . S
H38 C33 0.931 . S
Co39 N36 2.135 . S
Co39 N42 2.121 . S
Co39 O47 2.055 . S
Co39 O50 2.039 . S
Co39 N53 2.140 . S
C40 O41 1.227 . S
C40 O50 1.265 . S
O41 C40 1.227 . S
N42 Co39 2.121 . S
N42 C44 1.375 . S
N42 C45 1.313 . S
C43 C44 1.338 . S
C43 N46 1.377 1_655 S
C43 H63 0.930 . S
C44 N42 1.375 . S
C44 C43 1.338 . S
C44 H48 0.931 . S
C45 N42 1.313 . S
C45 N46 1.344 1_655 S
C45 H49 0.930 . S
N46 C43 1.377 1_455 S
N46 C45 1.344 1_455 S
O47 Co39 2.055 . S
O47 C51 1.253 . S
H48 C44 0.931 . S
H49 C45 0.930 . S
O50 Co39 2.039 . S
O50 C40 1.265 . S
C51 O47 1.253 . S
C51 O52 1.227 . S
O52 C51 1.227 . S
N53 Co39 2.140 . S
N53 C56 1.346 . S
N53 C57 1.345 . S
C54 C55 1.387 . S
C54 C58 1.391 . S
C55 C54 1.387 . S
C55 C56 1.369 . S
C55 H64 0.929 . S
C56 N53 1.346 . S
C56 C55 1.369 . S
C56 H59 0.928 . S
C57 N53 1.345 . S
C57 C58 1.371 . S
C57 H60 0.931 . S
C58 C54 1.391 . S
C58 C57 1.371 . S
C58 H65 0.930 . S
H59 C56 0.928 . S
H60 C57 0.931 . S
H61 C37 0.931 . S
H62 C34 0.930 . S
H63 C43 0.930 . S
H64 C55 0.929 . S
H65 C58 0.930 . S
C66 C67 1.351 . S
C66 N69 1.368 . S
C66 H71 0.931 . S
C67 C66 1.351 . S
C67 N68 1.373 . S
C67 H95 0.930 . S
N68 C67 1.373 . S
N68 C70 1.340 . S
N69 C66 1.368 . S
N69 C70 1.321 . S
N69 Co72 2.135 . S
C70 N68 1.340 . S
C70 N69 1.321 . S
C70 H94 0.930 . S
H71 C66 0.931 . S
Co72 N69 2.135 . S
Co72 N75 2.121 . S
Co72 O80 2.055 . S
Co72 O83 2.039 . S
Co72 N86 2.140 . S
C73 O74 1.227 . S
C73 O83 1.265 . S
O74 C73 1.227 . S
N75 Co72 2.121 . S
N75 C77 1.375 . S
N75 C78 1.313 . S
C76 C77 1.338 . S
C76 N79 1.377 . S
C76 H96 0.930 . S
C77 N75 1.375 . S
C77 C76 1.338 . S
C77 H81 0.931 . S
C78 N75 1.313 . S
C78 N79 1.344 . S
C78 H82 0.930 . S
N79 C76 1.377 . S
N79 C78 1.344 . S
O80 Co72 2.055 . S
O80 C84 1.253 . S
H81 C77 0.931 . S
H82 C78 0.930 . S
O83 Co72 2.039 . S
O83 C73 1.265 . S
C84 O80 1.253 . S
C84 O85 1.227 . S
O85 C84 1.227 . S
N86 Co72 2.140 . S
N86 C89 1.346 . S
N86 C90 1.345 . S
C87 C88 1.387 . S
C87 C91 1.391 . S
C88 C87 1.387 . S
C88 C89 1.369 . S
C88 H97 0.929 . S
C89 N86 1.346 . S
C89 C88 1.369 . S
C89 H92 0.928 . S
C90 N86 1.345 . S
C90 C91 1.371 . S
C90 H93 0.931 . S
C91 C87 1.391 . S
C91 C90 1.371 . S
C91 H98 0.930 . S
H92 C89 0.928 . S
H93 C90 0.931 . S
H94 C70 0.930 . S
H95 C67 0.930 . S
H96 C76 0.930 . S
H97 C88 0.929 . S
H98 C91 0.930 . S
C99 C100 1.351 1_565 S
C99 N102 1.368 . S
C99 H104 0.931 . S
C100 C99 1.351 1_545 S
C100 N101 1.373 . S
C100 H128 0.930 . S
N101 C100 1.373 . S
N101 C103 1.342 . S
N102 C99 1.368 . S
N102 C103 1.319 1_565 S
N102 Co105 2.135 . S
C103 N101 1.342 . S
C103 N102 1.319 1_545 S
C103 H127 0.931 . S
H104 C99 0.931 . S
Co105 N102 2.135 . S
Co105 N108 2.121 . S
Co105 O113 2.055 . S
Co105 O116 2.039 . S
Co105 N119 2.140 . S
C106 O107 1.227 . S
C106 O116 1.265 . S
O107 C106 1.227 . S
N108 Co105 2.121 . S
N108 C110 1.375 . S
N108 C111 1.313 . S
C109 C110 1.338 . S
C109 N112 1.377 . S
C109 H129 0.930 . S
C110 N108 1.375 . S
C110 C109 1.338 . S
C110 H114 0.931 . S
C111 N108 1.313 . S
C111 N112 1.344 . S
C111 H115 0.930 . S
N112 C109 1.377 . S
N112 C111 1.344 . S
O113 Co105 2.055 . S
O113 C117 1.253 . S
H114 C110 0.931 . S
H115 C111 0.930 . S
O116 Co105 2.039 . S
O116 C106 1.265 . S
C117 O113 1.253 . S
C117 O118 1.227 . S
O118 C117 1.227 . S
N119 Co105 2.140 . S
N119 C122 1.346 . S
N119 C123 1.345 . S
C120 C121 1.387 . S
C120 C124 1.391 . S
C121 C120 1.387 . S
C121 C122 1.369 . S
C121 H130 0.929 . S
C122 N119 1.346 . S
C122 C121 1.369 . S
C122 H125 0.928 . S
C123 N119 1.345 . S
C123 C124 1.371 . S
C123 H126 0.931 . S
C124 C120 1.391 . S
C124 C123 1.371 . S
C124 H131 0.930 . S
H125 C122 0.928 . S
H126 C123 0.931 . S
H127 C103 0.931 . S
H128 C100 0.930 . S
H129 C109 0.930 . S
H130 C121 0.929 . S
H131 C124 0.930 . S
C132 C133 1.351 . S
C132 N135 1.368 . S
C132 H137 0.931 . S
C133 C132 1.351 . S
C133 N134 1.373 . S
C133 H161 0.930 . S
N134 C133 1.373 . S
N134 C136 1.340 . S
N135 C132 1.368 . S
N135 C136 1.321 . S
N135 Co138 2.135 . S
C136 N134 1.340 . S
C136 N135 1.321 . S
C136 H160 0.930 . S
H137 C132 0.931 . S
Co138 N135 2.135 . S
Co138 N141 2.121 . S
Co138 O146 2.055 . S
Co138 O149 2.039 . S
Co138 N152 2.140 . S
C139 O140 1.227 . S
C139 O149 1.265 . S
O140 C139 1.227 . S
N141 Co138 2.121 . S
N141 C143 1.375 . S
N141 C144 1.313 . S
C142 C143 1.338 . S
C142 N145 1.377 . S
C142 H162 0.930 . S
C143 N141 1.375 . S
C143 C142 1.338 . S
C143 H147 0.931 . S
C144 N141 1.313 . S
C144 N145 1.344 . S
C144 H148 0.930 . S
N145 C142 1.377 . S
N145 C144 1.344 . S
O146 Co138 2.055 . S
O146 C150 1.253 . S
H147 C143 0.931 . S
H148 C144 0.930 . S
O149 Co138 2.039 . S
O149 C139 1.265 . S
C150 O146 1.253 . S
C150 O151 1.227 . S
O151 C150 1.227 . S
N152 Co138 2.140 . S
N152 C155 1.346 . S
N152 C156 1.345 . S
C153 C154 1.387 . S
C153 C157 1.391 . S
C154 C153 1.387 . S
C154 C155 1.369 . S
C154 H163 0.929 . S
C155 N152 1.346 . S
C155 C154 1.369 . S
C155 H158 0.928 . S
C156 N152 1.345 . S
C156 C157 1.371 . S
C156 H159 0.931 . S
C157 C153 1.391 . S
C157 C156 1.371 . S
C157 H164 0.930 . S
H158 C155 0.928 . S
H159 C156 0.931 . S
H160 C136 0.930 . S
H161 C133 0.930 . S
H162 C142 0.930 . S
H163 C154 0.929 . S
H164 C157 0.930 . S
C165 C166 1.351 1_545 S
C165 N168 1.368 . S
C165 H170 0.931 . S
C166 C165 1.351 1_565 S
C166 N167 1.373 . S
C166 H194 0.930 . S
N167 C166 1.373 . S
N167 C169 1.342 . S
N168 C165 1.368 . S
N168 C169 1.319 1_545 S
N168 Co171 2.135 . S
C169 N167 1.342 . S
C169 N168 1.319 1_565 S
C169 H193 0.931 . S
H170 C165 0.931 . S
Co171 N168 2.135 . S
Co171 N174 2.121 . S
Co171 O179 2.055 . S
Co171 O182 2.039 . S
Co171 N185 2.140 . S
C172 O173 1.227 . S
C172 O182 1.265 . S
O173 C172 1.227 . S
N174 Co171 2.121 . S
N174 C176 1.375 . S
N174 C177 1.313 . S
C175 C176 1.338 . S
C175 N178 1.377 . S
C175 H195 0.930 . S
C176 N174 1.375 . S
C176 C175 1.338 . S
C176 H180 0.931 . S
C177 N174 1.313 . S
C177 N178 1.344 . S
C177 H181 0.930 . S
N178 C175 1.377 . S
N178 C177 1.344 . S
O179 Co171 2.055 . S
O179 C183 1.253 . S
H180 C176 0.931 . S
H181 C177 0.930 . S
O182 Co171 2.039 . S
O182 C172 1.265 . S
C183 O179 1.253 . S
C183 O184 1.227 . S
O184 C183 1.227 . S
N185 Co171 2.140 . S
N185 C188 1.346 . S
N185 C189 1.345 . S
C186 C187 1.387 . S
C186 C190 1.391 . S
C187 C186 1.387 . S
C187 C188 1.369 . S
C187 H196 0.929 . S
C188 N185 1.346 . S
C188 C187 1.369 . S
C188 H191 0.928 . S
C189 N185 1.345 . S
C189 C190 1.371 . S
C189 H192 0.931 . S
C190 C186 1.391 . S
C190 C189 1.371 . S
C190 H197 0.930 . S
H191 C188 0.928 . S
H192 C189 0.931 . S
H193 C169 0.931 . S
H194 C166 0.930 . S
H195 C175 0.930 . S
H196 C187 0.929 . S
H197 C190 0.930 . S
C198 C199 1.351 . S
C198 N201 1.368 . S
C198 H203 0.931 . S
C199 C198 1.351 . S
C199 N200 1.373 . S
C199 H227 0.930 . S
N200 C199 1.373 . S
N200 C202 1.340 . S
N201 C198 1.368 . S
N201 C202 1.321 . S
N201 Co204 2.135 . S
C202 N200 1.340 . S
C202 N201 1.321 . S
C202 H226 0.930 . S
H203 C198 0.931 . S
Co204 N201 2.135 . S
Co204 N207 2.121 . S
Co204 O212 2.055 . S
Co204 O215 2.039 . S
Co204 N218 2.140 . S
C205 O206 1.227 . S
C205 O215 1.265 . S
O206 C205 1.227 . S
N207 Co204 2.121 . S
N207 C209 1.375 . S
N207 C210 1.313 . S
C208 C209 1.338 . S
C208 N211 1.377 . S
C208 H228 0.930 . S
C209 N207 1.375 . S
C209 C208 1.338 . S
C209 H213 0.931 . S
C210 N207 1.313 . S
C210 N211 1.344 . S
C210 H214 0.930 . S
N211 C208 1.377 . S
N211 C210 1.344 . S
O212 Co204 2.055 . S
O212 C216 1.253 . S
H213 C209 0.931 . S
H214 C210 0.930 . S
O215 Co204 2.039 . S
O215 C205 1.265 . S
C216 O212 1.253 . S
C216 O217 1.227 . S
O217 C216 1.227 . S
N218 Co204 2.140 . S
N218 C221 1.346 . S
N218 C222 1.345 . S
C219 C220 1.387 . S
C219 C223 1.391 . S
C220 C219 1.387 . S
C220 C221 1.369 . S
C220 H229 0.929 . S
C221 N218 1.346 . S
C221 C220 1.369 . S
C221 H224 0.928 . S
C222 N218 1.345 . S
C222 C223 1.371 . S
C222 H225 0.931 . S
C223 C219 1.391 . S
C223 C222 1.371 . S
C223 H230 0.930 . S
H224 C221 0.928 . S
H225 C222 0.931 . S
H226 C202 0.930 . S
H227 C199 0.930 . S
H228 C208 0.930 . S
H229 C220 0.929 . S
H230 C223 0.930 . S
C231 C232 1.351 1_565 S
C231 N234 1.368 . S
C231 H236 0.931 . S
C232 C231 1.351 1_545 S
C232 N233 1.373 . S
C232 H260 0.930 . S
N233 C232 1.373 . S
N233 C235 1.342 . S
N234 C231 1.368 . S
N234 C235 1.318 1_565 S
N234 Co237 2.135 . S
C235 N233 1.342 . S
C235 N234 1.318 1_545 S
C235 H259 0.931 . S
H236 C231 0.931 . S
Co237 N234 2.135 . S
Co237 N240 2.121 . S
Co237 O245 2.055 . S
Co237 O248 2.039 . S
Co237 N251 2.140 . S
C238 O239 1.227 . S
C238 O248 1.265 . S
O239 C238 1.227 . S
N240 Co237 2.121 . S
N240 C242 1.375 . S
N240 C243 1.313 . S
C241 C242 1.338 . S
C241 N244 1.377 1_655 S
C241 H261 0.930 . S
C242 N240 1.375 . S
C242 C241 1.338 . S
C242 H246 0.931 . S
C243 N240 1.313 . S
C243 N244 1.344 1_655 S
C243 H247 0.930 . S
N244 C241 1.377 1_455 S
N244 C243 1.344 1_455 S
O245 Co237 2.055 . S
O245 C249 1.253 . S
H246 C242 0.931 . S
H247 C243 0.930 . S
O248 Co237 2.039 . S
O248 C238 1.265 . S
C249 O245 1.253 . S
C249 O250 1.227 . S
O250 C249 1.227 . S
N251 Co237 2.140 . S
N251 C254 1.346 . S
N251 C255 1.345 . S
C252 C253 1.387 . S
C252 C256 1.391 . S
C253 C252 1.387 . S
C253 C254 1.369 . S
C253 H262 0.929 . S
C254 N251 1.346 . S
C254 C253 1.369 . S
C254 H257 0.928 . S
C255 N251 1.345 . S
C255 C256 1.371 . S
C255 H258 0.931 . S
C256 C252 1.391 . S
C256 C255 1.371 . S
C256 H263 0.930 . S
H257 C254 0.928 . S
H258 C255 0.931 . S
H259 C235 0.931 . S
H260 C232 0.930 . S
H261 C241 0.930 . S
H262 C253 0.929 . S
H263 C256 0.930 . S
C264 C265 1.351 . S
C264 N267 1.368 . S
C264 H269 0.931 . S
C265 C264 1.351 . S
C265 N266 1.373 . S
C265 H293 0.930 . S
N266 C265 1.373 . S
N266 C268 1.340 . S
N267 C264 1.368 . S
N267 C268 1.321 . S
N267 Co270 2.135 . S
C268 N266 1.340 . S
C268 N267 1.321 . S
C268 H292 0.930 . S
H269 C264 0.931 . S
Co270 N267 2.135 . S
Co270 N273 2.121 . S
Co270 O278 2.055 . S
Co270 O281 2.039 . S
Co270 N284 2.140 . S
C271 O272 1.227 . S
C271 O281 1.265 . S
O272 C271 1.227 . S
N273 Co270 2.121 . S
N273 C275 1.375 . S
N273 C276 1.313 . S
C274 C275 1.338 . S
C274 N277 1.377 . S
C274 H294 0.930 . S
C275 N273 1.375 . S
C275 C274 1.338 . S
C275 H279 0.931 . S
C276 N273 1.313 . S
C276 N277 1.344 . S
C276 H280 0.930 . S
N277 C274 1.377 . S
N277 C276 1.344 . S
O278 Co270 2.055 . S
O278 C282 1.253 . S
H279 C275 0.931 . S
H280 C276 0.930 . S
O281 Co270 2.039 . S
O281 C271 1.265 . S
C282 O278 1.253 . S
C282 O283 1.227 . S
O283 C282 1.227 . S
N284 Co270 2.140 . S
N284 C287 1.346 . S
N284 C288 1.345 . S
C285 C286 1.387 . S
C285 C289 1.391 . S
C286 C285 1.387 . S
C286 C287 1.369 . S
C286 H295 0.929 . S
C287 N284 1.346 . S
C287 C286 1.369 . S
C287 H290 0.928 . S
C288 N284 1.345 . S
C288 C289 1.371 . S
C288 H291 0.931 . S
C289 C285 1.391 . S
C289 C288 1.371 . S
C289 H296 0.930 . S
H290 C287 0.928 . S
H291 C288 0.931 . S
H292 C268 0.930 . S
H293 C265 0.930 . S
H294 C274 0.930 . S
H295 C286 0.929 . S
H296 C289 0.930 . S
C297 C298 1.351 1_565 S
C297 N300 1.368 . S
C297 H302 0.931 . S
C298 C297 1.351 1_545 S
C298 N299 1.373 . S
C298 H326 0.930 . S
N299 C298 1.373 . S
N299 C301 1.342 . S
N300 C297 1.368 . S
N300 C301 1.318 1_565 S
N300 Co303 2.135 . S
C301 N299 1.342 . S
C301 N300 1.318 1_545 S
C301 H325 0.931 . S
H302 C297 0.931 . S
Co303 N300 2.135 . S
Co303 N306 2.121 . S
Co303 O311 2.055 . S
Co303 O314 2.039 . S
Co303 N317 2.140 . S
C304 O305 1.227 . S
C304 O314 1.265 . S
O305 C304 1.227 . S
N306 Co303 2.121 . S
N306 C308 1.375 . S
N306 C309 1.313 . S
C307 C308 1.338 . S
C307 N310 1.377 1_455 S
C307 H327 0.930 . S
C308 N306 1.375 . S
C308 C307 1.338 . S
C308 H312 0.931 . S
C309 N306 1.313 . S
C309 N310 1.344 1_455 S
C309 H313 0.930 . S
N310 C307 1.377 1_655 S
N310 C309 1.344 1_655 S
O311 Co303 2.055 . S
O311 C315 1.253 . S
H312 C308 0.931 . S
H313 C309 0.930 . S
O314 Co303 2.039 . S
O314 C304 1.265 . S
C315 O311 1.253 . S
C315 O316 1.227 . S
O316 C315 1.227 . S
N317 Co303 2.140 . S
N317 C320 1.346 . S
N317 C321 1.345 . S
C318 C319 1.387 . S
C318 C322 1.391 . S
C319 C318 1.387 . S
C319 C320 1.369 . S
C319 H328 0.929 . S
C320 N317 1.346 . S
C320 C319 1.369 . S
C320 H323 0.928 . S
C321 N317 1.345 . S
C321 C322 1.371 . S
C321 H324 0.931 . S
C322 C318 1.391 . S
C322 C321 1.371 . S
C322 H329 0.930 . S
H323 C320 0.928 . S
H324 C321 0.931 . S
H325 C301 0.931 . S
H326 C298 0.930 . S
H327 C307 0.930 . S
H328 C319 0.929 . S
H329 C322 0.930 . S
C330 C331 1.351 . S
C330 N333 1.368 . S
C330 H335 0.931 . S
C331 C330 1.351 . S
C331 N332 1.373 . S
C331 H359 0.930 . S
N332 C331 1.373 . S
N332 C334 1.340 . S
N333 C330 1.368 . S
N333 C334 1.321 . S
N333 Co336 2.135 . S
C334 N332 1.340 . S
C334 N333 1.321 . S
C334 H358 0.930 . S
H335 C330 0.931 . S
Co336 N333 2.135 . S
Co336 N339 2.121 . S
Co336 O344 2.055 . S
Co336 O347 2.039 . S
Co336 N350 2.140 . S
C337 O338 1.227 . S
C337 O347 1.265 . S
O338 C337 1.227 . S
N339 Co336 2.121 . S
N339 C341 1.375 . S
N339 C342 1.313 . S
C340 C341 1.338 . S
C340 N343 1.377 . S
C340 H360 0.930 . S
C341 N339 1.375 . S
C341 C340 1.338 . S
C341 H345 0.931 . S
C342 N339 1.313 . S
C342 N343 1.344 . S
C342 H346 0.930 . S
N343 C340 1.377 . S
N343 C342 1.344 . S
O344 Co336 2.055 . S
O344 C348 1.253 . S
H345 C341 0.931 . S
H346 C342 0.930 . S
O347 Co336 2.039 . S
O347 C337 1.265 . S
C348 O344 1.253 . S
C348 O349 1.227 . S
O349 C348 1.227 . S
N350 Co336 2.140 . S
N350 C353 1.346 . S
N350 C354 1.345 . S
C351 C352 1.387 . S
C351 C355 1.391 . S
C352 C351 1.387 . S
C352 C353 1.369 . S
C352 H361 0.929 . S
C353 N350 1.346 . S
C353 C352 1.369 . S
C353 H356 0.928 . S
C354 N350 1.345 . S
C354 C355 1.371 . S
C354 H357 0.931 . S
C355 C351 1.391 . S
C355 C354 1.371 . S
C355 H362 0.930 . S
H356 C353 0.928 . S
H357 C354 0.931 . S
H358 C334 0.930 . S
H359 C331 0.930 . S
H360 C340 0.930 . S
H361 C352 0.929 . S
H362 C355 0.930 . S
C363 C364 1.351 1_545 S
C363 N366 1.368 . S
C363 H368 0.931 . S
C364 C363 1.351 1_565 S
C364 N365 1.373 . S
C364 H392 0.930 . S
N365 C364 1.373 . S
N365 C367 1.342 . S
N366 C363 1.368 . S
N366 C367 1.319 1_545 S
N366 Co369 2.135 . S
C367 N365 1.342 . S
C367 N366 1.319 1_565 S
C367 H391 0.931 . S
H368 C363 0.931 . S
Co369 N366 2.135 . S
Co369 N372 2.121 . S
Co369 O377 2.055 . S
Co369 O380 2.039 . S
Co369 N383 2.140 . S
C370 O371 1.227 . S
C370 O380 1.265 . S
O371 C370 1.227 . S
N372 Co369 2.121 . S
N372 C374 1.375 . S
N372 C375 1.313 . S
C373 C374 1.338 . S
C373 N376 1.377 . S
C373 H393 0.930 . S
C374 N372 1.375 . S
C374 C373 1.338 . S
C374 H378 0.931 . S
C375 N372 1.313 . S
C375 N376 1.344 . S
C375 H379 0.930 . S
N376 C373 1.377 . S
N376 C375 1.344 . S
O377 Co369 2.055 . S
O377 C381 1.253 . S
H378 C374 0.931 . S
H379 C375 0.930 . S
O380 Co369 2.039 . S
O380 C370 1.265 . S
C381 O377 1.253 . S
C381 O382 1.227 . S
O382 C381 1.227 . S
N383 Co369 2.140 . S
N383 C386 1.346 . S
N383 C387 1.345 . S
C384 C385 1.387 . S
C384 C388 1.391 . S
C385 C384 1.387 . S
C385 C386 1.369 . S
C385 H394 0.929 . S
C386 N383 1.346 . S
C386 C385 1.369 . S
C386 H389 0.928 . S
C387 N383 1.345 . S
C387 C388 1.371 . S
C387 H390 0.931 . S
C388 C384 1.391 . S
C388 C387 1.371 . S
C388 H395 0.930 . S
H389 C386 0.928 . S
H390 C387 0.931 . S
H391 C367 0.931 . S
H392 C364 0.930 . S
H393 C373 0.930 . S
H394 C385 0.929 . S
H395 C388 0.930 . S
C396 C397 1.351 . S
C396 N399 1.368 . S
C396 H401 0.931 . S
C397 C396 1.351 . S
C397 N398 1.373 . S
C397 H425 0.930 . S
N398 C397 1.373 . S
N398 C400 1.340 . S
N399 C396 1.368 . S
N399 C400 1.321 . S
N399 Co402 2.135 . S
C400 N398 1.340 . S
C400 N399 1.321 . S
C400 H424 0.930 . S
H401 C396 0.931 . S
Co402 N399 2.135 . S
Co402 N405 2.121 . S
Co402 O410 2.055 . S
Co402 O413 2.039 . S
Co402 N416 2.140 . S
C403 O404 1.227 . S
C403 O413 1.265 . S
O404 C403 1.227 . S
N405 Co402 2.121 . S
N405 C407 1.375 . S
N405 C408 1.313 . S
C406 C407 1.338 . S
C406 N409 1.377 . S
C406 H426 0.930 . S
C407 N405 1.375 . S
C407 C406 1.338 . S
C407 H411 0.931 . S
C408 N405 1.313 . S
C408 N409 1.344 . S
C408 H412 0.930 . S
N409 C406 1.377 . S
N409 C408 1.344 . S
O410 Co402 2.055 . S
O410 C414 1.253 . S
H411 C407 0.931 . S
H412 C408 0.930 . S
O413 Co402 2.039 . S
O413 C403 1.265 . S
C414 O410 1.253 . S
C414 O415 1.227 . S
O415 C414 1.227 . S
N416 Co402 2.140 . S
N416 C419 1.346 . S
N416 C420 1.345 . S
C417 C418 1.387 . S
C417 C421 1.391 . S
C418 C417 1.387 . S
C418 C419 1.369 . S
C418 H427 0.929 . S
C419 N416 1.346 . S
C419 C418 1.369 . S
C419 H422 0.928 . S
C420 N416 1.345 . S
C420 C421 1.371 . S
C420 H423 0.931 . S
C421 C417 1.391 . S
C421 C420 1.371 . S
C421 H428 0.930 . S
H422 C419 0.928 . S
H423 C420 0.931 . S
H424 C400 0.930 . S
H425 C397 0.930 . S
H426 C406 0.930 . S
H427 C418 0.929 . S
H428 C421 0.930 . S
C429 C430 1.351 1_565 S
C429 N432 1.368 . S
C429 H434 0.931 . S
C430 C429 1.351 1_545 S
C430 N431 1.373 . S
C430 H458 0.930 . S
N431 C430 1.373 . S
N431 C433 1.342 . S
N432 C429 1.368 . S
N432 C433 1.319 1_565 S
N432 Co435 2.135 . S
C433 N431 1.342 . S
C433 N432 1.319 1_545 S
C433 H457 0.931 . S
H434 C429 0.931 . S
Co435 N432 2.135 . S
Co435 N438 2.121 . S
Co435 O443 2.055 . S
Co435 O446 2.039 . S
Co435 N449 2.140 . S
C436 O437 1.227 . S
C436 O446 1.265 . S
O437 C436 1.227 . S
N438 Co435 2.121 . S
N438 C440 1.375 . S
N438 C441 1.313 . S
C439 C440 1.338 . S
C439 N442 1.377 . S
C439 H459 0.930 . S
C440 N438 1.375 . S
C440 C439 1.338 . S
C440 H444 0.931 . S
C441 N438 1.313 . S
C441 N442 1.344 . S
C441 H445 0.930 . S
N442 C439 1.377 . S
N442 C441 1.344 . S
O443 Co435 2.055 . S
O443 C447 1.253 . S
H444 C440 0.931 . S
H445 C441 0.930 . S
O446 Co435 2.039 . S
O446 C436 1.265 . S
C447 O443 1.253 . S
C447 O448 1.227 . S
O448 C447 1.227 . S
N449 Co435 2.140 . S
N449 C452 1.346 . S
N449 C453 1.345 . S
C450 C451 1.387 . S
C450 C454 1.391 . S
C451 C450 1.387 . S
C451 C452 1.369 . S
C451 H460 0.929 . S
C452 N449 1.346 . S
C452 C451 1.369 . S
C452 H455 0.928 . S
C453 N449 1.345 . S
C453 C454 1.371 . S
C453 H456 0.931 . S
C454 C450 1.391 . S
C454 C453 1.371 . S
C454 H461 0.930 . S
H455 C452 0.928 . S
H456 C453 0.931 . S
H457 C433 0.931 . S
H458 C430 0.930 . S
H459 C439 0.930 . S
H460 C451 0.929 . S
H461 C454 0.930 . S
C462 C463 1.351 . S
C462 N465 1.368 . S
C462 H467 0.931 . S
C463 C462 1.351 . S
C463 N464 1.373 . S
C463 H491 0.930 . S
N464 C463 1.373 . S
N464 C466 1.340 . S
N465 C462 1.368 . S
N465 C466 1.321 . S
N465 Co468 2.135 . S
C466 N464 1.340 . S
C466 N465 1.321 . S
C466 H490 0.930 . S
H467 C462 0.931 . S
Co468 N465 2.135 . S
Co468 N471 2.121 . S
Co468 O476 2.055 . S
Co468 O479 2.039 . S
Co468 N482 2.140 . S
C469 O470 1.227 . S
C469 O479 1.265 . S
O470 C469 1.227 . S
N471 Co468 2.121 . S
N471 C473 1.375 . S
N471 C474 1.313 . S
C472 C473 1.338 . S
C472 N475 1.377 . S
C472 H492 0.930 . S
C473 N471 1.375 . S
C473 C472 1.338 . S
C473 H477 0.931 . S
C474 N471 1.313 . S
C474 N475 1.344 . S
C474 H478 0.930 . S
N475 C472 1.377 . S
N475 C474 1.344 . S
O476 Co468 2.055 . S
O476 C480 1.253 . S
H477 C473 0.931 . S
H478 C474 0.930 . S
O479 Co468 2.039 . S
O479 C469 1.265 . S
C480 O476 1.253 . S
C480 O481 1.227 . S
O481 C480 1.227 . S
N482 Co468 2.140 . S
N482 C485 1.346 . S
N482 C486 1.345 . S
C483 C484 1.387 . S
C483 C487 1.391 . S
C484 C483 1.387 . S
C484 C485 1.369 . S
C484 H493 0.929 . S
C485 N482 1.346 . S
C485 C484 1.369 . S
C485 H488 0.928 . S
C486 N482 1.345 . S
C486 C487 1.371 . S
C486 H489 0.931 . S
C487 C483 1.391 . S
C487 C486 1.371 . S
C487 H494 0.930 . S
H488 C485 0.928 . S
H489 C486 0.931 . S
H490 C466 0.930 . S
H491 C463 0.930 . S
H492 C472 0.930 . S
H493 C484 0.929 . S
H494 C487 0.930 . S
C495 C496 1.351 1_545 S
C495 N498 1.368 . S
C495 H500 0.931 . S
C496 C495 1.351 1_565 S
C496 N497 1.373 . S
C496 H524 0.930 . S
N497 C496 1.373 . S
N497 C499 1.342 . S
N498 C495 1.368 . S
N498 C499 1.318 1_545 S
N498 Co501 2.135 . S
C499 N497 1.342 . S
C499 N498 1.318 1_565 S
C499 H523 0.931 . S
H500 C495 0.931 . S
Co501 N498 2.135 . S
Co501 N504 2.121 . S
Co501 O509 2.055 . S
Co501 O512 2.039 . S
Co501 N515 2.140 . S
C502 O503 1.227 . S
C502 O512 1.265 . S
O503 C502 1.227 . S
N504 Co501 2.121 . S
N504 C506 1.375 . S
N504 C507 1.313 . S
C505 C506 1.338 . S
C505 N508 1.377 1_455 S
C505 H525 0.930 . S
C506 N504 1.375 . S
C506 C505 1.338 . S
C506 H510 0.931 . S
C507 N504 1.313 . S
C507 N508 1.344 1_455 S
C507 H511 0.930 . S
N508 C505 1.377 1_655 S
N508 C507 1.344 1_655 S
O509 Co501 2.055 . S
O509 C513 1.253 . S
H510 C506 0.931 . S
H511 C507 0.930 . S
O512 Co501 2.039 . S
O512 C502 1.265 . S
C513 O509 1.253 . S
C513 O514 1.227 . S
O514 C513 1.227 . S
N515 Co501 2.140 . S
N515 C518 1.346 . S
N515 C519 1.345 . S
C516 C517 1.387 . S
C516 C520 1.391 . S
C517 C516 1.387 . S
C517 C518 1.369 . S
C517 H526 0.929 . S
C518 N515 1.346 . S
C518 C517 1.369 . S
C518 H521 0.928 . S
C519 N515 1.345 . S
C519 C520 1.371 . S
C519 H522 0.931 . S
C520 C516 1.391 . S
C520 C519 1.371 . S
C520 H527 0.930 . S
H521 C518 0.928 . S
H522 C519 0.931 . S
H523 C499 0.931 . S
H524 C496 0.930 . S
H525 C505 0.930 . S
H526 C517 0.929 . S
H527 C520 0.930 . S
C528 C529 1.351 . S
C528 N531 1.368 . S
C528 H533 0.931 . S
C529 C528 1.351 . S
C529 N530 1.373 . S
C529 H557 0.930 . S
N530 C529 1.373 . S
N530 C532 1.340 . S
N531 C528 1.368 . S
N531 C532 1.321 . S
N531 Co534 2.135 . S
C532 N530 1.340 . S
C532 N531 1.321 . S
C532 H556 0.930 . S
H533 C528 0.931 . S
Co534 N531 2.135 . S
Co534 N537 2.121 . S
Co534 O542 2.055 . S
Co534 O545 2.039 . S
Co534 N548 2.140 . S
C535 O536 1.227 . S
C535 O545 1.265 . S
O536 C535 1.227 . S
N537 Co534 2.121 . S
N537 C539 1.375 . S
N537 C540 1.313 . S
C538 C539 1.338 . S
C538 N541 1.377 . S
C538 H558 0.930 . S
C539 N537 1.375 . S
C539 C538 1.338 . S
C539 H543 0.931 . S
C540 N537 1.313 . S
C540 N541 1.344 . S
C540 H544 0.930 . S
N541 C538 1.377 . S
N541 C540 1.344 . S
O542 Co534 2.055 . S
O542 C546 1.253 . S
H543 C539 0.931 . S
H544 C540 0.930 . S
O545 Co534 2.039 . S
O545 C535 1.265 . S
C546 O542 1.253 . S
C546 O547 1.227 . S
O547 C546 1.227 . S
N548 Co534 2.140 . S
N548 C551 1.346 . S
N548 C552 1.345 . S
C549 C550 1.387 . S
C549 C553 1.391 . S
C550 C549 1.387 . S
C550 C551 1.369 . S
C550 H559 0.929 . S
C551 N548 1.346 . S
C551 C550 1.369 . S
C551 H554 0.928 . S
C552 N548 1.345 . S
C552 C553 1.371 . S
C552 H555 0.931 . S
C553 C549 1.391 . S
C553 C552 1.371 . S
C553 H560 0.930 . S
H554 C551 0.928 . S
H555 C552 0.931 . S
H556 C532 0.930 . S
H557 C529 0.930 . S
H558 C538 0.930 . S
H559 C550 0.929 . S
H560 C553 0.930 . S
C561 C562 1.351 . S
C561 N564 1.368 . S
C561 H566 0.931 . S
C562 C561 1.351 . S
C562 N563 1.373 . S
C562 H590 0.930 . S
N563 C562 1.373 . S
N563 C565 1.340 . S
N564 C561 1.368 . S
N564 C565 1.321 . S
N564 Co567 2.135 . S
C565 N563 1.340 . S
C565 N564 1.321 . S
C565 H589 0.930 . S
H566 C561 0.931 . S
Co567 N564 2.135 . S
Co567 N570 2.121 . S
Co567 O575 2.055 . S
Co567 O578 2.039 . S
Co567 N581 2.140 . S
C568 O569 1.227 . S
C568 O578 1.265 . S
O569 C568 1.227 . S
N570 Co567 2.121 . S
N570 C572 1.375 . S
N570 C573 1.313 . S
C571 C572 1.338 . S
C571 N574 1.377 . S
C571 H591 0.930 . S
C572 N570 1.375 . S
C572 C571 1.338 . S
C572 H576 0.931 . S
C573 N570 1.313 . S
C573 N574 1.344 . S
C573 H577 0.930 . S
N574 C571 1.377 . S
N574 C573 1.344 . S
O575 Co567 2.055 . S
O575 C579 1.253 . S
H576 C572 0.931 . S
H577 C573 0.930 . S
O578 Co567 2.039 . S
O578 C568 1.265 . S
C579 O575 1.253 . S
C579 O580 1.227 . S
O580 C579 1.227 . S
N581 Co567 2.140 . S
N581 C584 1.346 . S
N581 C585 1.345 . S
C582 C583 1.387 . S
C582 C586 1.391 . S
C583 C582 1.387 . S
C583 C584 1.369 . S
C583 H592 0.929 . S
C584 N581 1.346 . S
C584 C583 1.369 . S
C584 H587 0.928 . S
C585 N581 1.345 . S
C585 C586 1.371 . S
C585 H588 0.931 . S
C586 C582 1.391 . S
C586 C585 1.371 . S
C586 H593 0.930 . S
H587 C584 0.928 . S
H588 C585 0.931 . S
H589 C565 0.930 . S
H590 C562 0.930 . S
H591 C571 0.930 . S
H592 C583 0.929 . S
H593 C586 0.930 . S
C594 C595 1.351 . S
C594 N597 1.368 . S
C594 H599 0.931 . S
C595 C594 1.351 . S
C595 N596 1.373 . S
C595 H623 0.930 . S
N596 C595 1.373 . S
N596 C598 1.340 . S
N597 C594 1.368 . S
N597 C598 1.321 . S
N597 Co600 2.135 . S
C598 N596 1.340 . S
C598 N597 1.321 . S
C598 H622 0.930 . S
H599 C594 0.931 . S
Co600 N597 2.135 . S
Co600 N603 2.121 . S
Co600 O608 2.055 . S
Co600 O611 2.039 . S
Co600 N614 2.140 . S
C601 O602 1.227 . S
C601 O611 1.265 . S
O602 C601 1.227 . S
N603 Co600 2.121 . S
N603 C605 1.375 . S
N603 C606 1.313 . S
C604 C605 1.338 . S
C604 N607 1.377 . S
C604 H624 0.930 . S
C605 N603 1.375 . S
C605 C604 1.338 . S
C605 H609 0.931 . S
C606 N603 1.313 . S
C606 N607 1.344 . S
C606 H610 0.930 . S
N607 C604 1.377 . S
N607 C606 1.344 . S
O608 Co600 2.055 . S
O608 C612 1.253 . S
H609 C605 0.931 . S
H610 C606 0.930 . S
O611 Co600 2.039 . S
O611 C601 1.265 . S
C612 O608 1.253 . S
C612 O613 1.227 . S
O613 C612 1.227 . S
N614 Co600 2.140 . S
N614 C617 1.346 . S
N614 C618 1.345 . S
C615 C616 1.387 . S
C615 C619 1.391 . S
C616 C615 1.387 . S
C616 C617 1.369 . S
C616 H625 0.929 . S
C617 N614 1.346 . S
C617 C616 1.369 . S
C617 H620 0.928 . S
C618 N614 1.345 . S
C618 C619 1.371 . S
C618 H621 0.931 . S
C619 C615 1.391 . S
C619 C618 1.371 . S
C619 H626 0.930 . S
H620 C617 0.928 . S
H621 C618 0.931 . S
H622 C598 0.930 . S
H623 C595 0.930 . S
H624 C604 0.930 . S
H625 C616 0.929 . S
H626 C619 0.930 . S
C627 C628 1.351 . S
C627 N630 1.368 . S
C627 H632 0.931 . S
C628 C627 1.351 . S
C628 N629 1.373 . S
C628 H656 0.930 . S
N629 C628 1.373 . S
N629 C631 1.340 . S
N630 C627 1.368 . S
N630 C631 1.321 . S
N630 Co633 2.135 . S
C631 N629 1.340 . S
C631 N630 1.321 . S
C631 H655 0.930 . S
H632 C627 0.931 . S
Co633 N630 2.135 . S
Co633 N636 2.121 . S
Co633 O641 2.055 . S
Co633 O644 2.039 . S
Co633 N647 2.140 . S
C634 O635 1.227 . S
C634 O644 1.265 . S
O635 C634 1.227 . S
N636 Co633 2.121 . S
N636 C638 1.375 . S
N636 C639 1.313 . S
C637 C638 1.338 . S
C637 N640 1.377 1_455 S
C637 H657 0.930 . S
C638 N636 1.375 . S
C638 C637 1.338 . S
C638 H642 0.931 . S
C639 N636 1.313 . S
C639 N640 1.344 1_455 S
C639 H643 0.930 . S
N640 C637 1.377 1_655 S
N640 C639 1.344 1_655 S
O641 Co633 2.055 . S
O641 C645 1.253 . S
H642 C638 0.931 . S
H643 C639 0.930 . S
O644 Co633 2.039 . S
O644 C634 1.265 . S
C645 O641 1.253 . S
C645 O646 1.227 . S
O646 C645 1.227 . S
N647 Co633 2.140 . S
N647 C650 1.346 . S
N647 C651 1.345 . S
C648 C649 1.387 . S
C648 C652 1.391 . S
C649 C648 1.387 . S
C649 C650 1.369 . S
C649 H658 0.929 . S
C650 N647 1.346 . S
C650 C649 1.369 . S
C650 H653 0.928 . S
C651 N647 1.345 . S
C651 C652 1.371 . S
C651 H654 0.931 . S
C652 C648 1.391 . S
C652 C651 1.371 . S
C652 H659 0.930 . S
H653 C650 0.928 . S
H654 C651 0.931 . S
H655 C631 0.930 . S
H656 C628 0.930 . S
H657 C637 0.930 . S
H658 C649 0.929 . S
H659 C652 0.930 . S
C660 C661 1.351 . S
C660 N663 1.368 . S
C660 H665 0.931 . S
C661 C660 1.351 . S
C661 N662 1.373 . S
C661 H689 0.930 . S
N662 C661 1.373 . S
N662 C664 1.340 . S
N663 C660 1.368 . S
N663 C664 1.321 . S
N663 Co666 2.135 . S
C664 N662 1.340 . S
C664 N663 1.321 . S
C664 H688 0.930 . S
H665 C660 0.931 . S
Co666 N663 2.135 . S
Co666 N669 2.121 . S
Co666 O674 2.055 . S
Co666 O677 2.039 . S
Co666 N680 2.140 . S
C667 O668 1.227 . S
C667 O677 1.265 . S
O668 C667 1.227 . S
N669 Co666 2.121 . S
N669 C671 1.375 . S
N669 C672 1.313 . S
C670 C671 1.338 . S
C670 N673 1.377 . S
C670 H690 0.930 . S
C671 N669 1.375 . S
C671 C670 1.338 . S
C671 H675 0.931 . S
C672 N669 1.313 . S
C672 N673 1.344 . S
C672 H676 0.930 . S
N673 C670 1.377 . S
N673 C672 1.344 . S
O674 Co666 2.055 . S
O674 C678 1.253 . S
H675 C671 0.931 . S
H676 C672 0.930 . S
O677 Co666 2.039 . S
O677 C667 1.265 . S
C678 O674 1.253 . S
C678 O679 1.227 . S
O679 C678 1.227 . S
N680 Co666 2.140 . S
N680 C683 1.346 . S
N680 C684 1.345 . S
C681 C682 1.387 . S
C681 C685 1.391 . S
C682 C681 1.387 . S
C682 C683 1.369 . S
C682 H691 0.929 . S
C683 N680 1.346 . S
C683 C682 1.369 . S
C683 H686 0.928 . S
C684 N680 1.345 . S
C684 C685 1.371 . S
C684 H687 0.931 . S
C685 C681 1.391 . S
C685 C684 1.371 . S
C685 H692 0.930 . S
H686 C683 0.928 . S
H687 C684 0.931 . S
H688 C664 0.930 . S
H689 C661 0.930 . S
H690 C670 0.930 . S
H691 C682 0.929 . S
H692 C685 0.930 . S
C693 C694 1.351 . S
C693 N696 1.368 . S
C693 H698 0.931 . S
C694 C693 1.351 . S
C694 N695 1.373 . S
C694 H722 0.930 . S
N695 C694 1.373 . S
N695 C697 1.340 . S
N696 C693 1.368 . S
N696 C697 1.321 . S
N696 Co699 2.135 . S
C697 N695 1.340 . S
C697 N696 1.321 . S
C697 H721 0.930 . S
H698 C693 0.931 . S
Co699 N696 2.135 . S
Co699 N702 2.121 . S
Co699 O707 2.055 . S
Co699 O710 2.039 . S
Co699 N713 2.140 . S
C700 O701 1.227 . S
C700 O710 1.265 . S
O701 C700 1.227 . S
N702 Co699 2.121 . S
N702 C704 1.375 . S
N702 C705 1.313 . S
C703 C704 1.338 . S
C703 N706 1.377 1_455 S
C703 H723 0.930 . S
C704 N702 1.375 . S
C704 C703 1.338 . S
C704 H708 0.931 . S
C705 N702 1.313 . S
C705 N706 1.344 1_455 S
C705 H709 0.930 . S
N706 C703 1.377 1_655 S
N706 C705 1.344 1_655 S
O707 Co699 2.055 . S
O707 C711 1.253 . S
H708 C704 0.931 . S
H709 C705 0.930 . S
O710 Co699 2.039 . S
O710 C700 1.265 . S
C711 O707 1.253 . S
C711 O712 1.227 . S
O712 C711 1.227 . S
N713 Co699 2.140 . S
N713 C716 1.346 . S
N713 C717 1.345 . S
C714 C715 1.387 . S
C714 C718 1.391 . S
C715 C714 1.387 . S
C715 C716 1.369 . S
C715 H724 0.929 . S
C716 N713 1.346 . S
C716 C715 1.369 . S
C716 H719 0.928 . S
C717 N713 1.345 . S
C717 C718 1.371 . S
C717 H720 0.931 . S
C718 C714 1.391 . S
C718 C717 1.371 . S
C718 H725 0.930 . S
H719 C716 0.928 . S
H720 C717 0.931 . S
H721 C697 0.930 . S
H722 C694 0.930 . S
H723 C703 0.930 . S
H724 C715 0.929 . S
H725 C718 0.930 . S
C726 C727 1.351 . S
C726 N729 1.368 . S
C726 H731 0.931 . S
C727 C726 1.351 . S
C727 N728 1.373 . S
C727 H755 0.930 . S
N728 C727 1.373 . S
N728 C730 1.340 . S
N729 C726 1.368 . S
N729 C730 1.321 . S
N729 Co732 2.135 . S
C730 N728 1.340 . S
C730 N729 1.321 . S
C730 H754 0.930 . S
H731 C726 0.931 . S
Co732 N729 2.135 . S
Co732 N735 2.121 . S
Co732 O740 2.055 . S
Co732 O743 2.039 . S
Co732 N746 2.140 . S
C733 O734 1.227 . S
C733 O743 1.265 . S
O734 C733 1.227 . S
N735 Co732 2.121 . S
N735 C737 1.375 . S
N735 C738 1.313 . S
C736 C737 1.338 . S
C736 N739 1.377 . S
C736 H756 0.930 . S
C737 N735 1.375 . S
C737 C736 1.338 . S
C737 H741 0.931 . S
C738 N735 1.313 . S
C738 N739 1.344 . S
C738 H742 0.930 . S
N739 C736 1.377 . S
N739 C738 1.344 . S
O740 Co732 2.055 . S
O740 C744 1.253 . S
H741 C737 0.931 . S
H742 C738 0.930 . S
O743 Co732 2.039 . S
O743 C733 1.265 . S
C744 O740 1.253 . S
C744 O745 1.227 . S
O745 C744 1.227 . S
N746 Co732 2.140 . S
N746 C749 1.346 . S
N746 C750 1.345 . S
C747 C748 1.387 . S
C747 C751 1.391 . S
C748 C747 1.387 . S
C748 C749 1.369 . S
C748 H757 0.929 . S
C749 N746 1.346 . S
C749 C748 1.369 . S
C749 H752 0.928 . S
C750 N746 1.345 . S
C750 C751 1.371 . S
C750 H753 0.931 . S
C751 C747 1.391 . S
C751 C750 1.371 . S
C751 H758 0.930 . S
H752 C749 0.928 . S
H753 C750 0.931 . S
H754 C730 0.930 . S
H755 C727 0.930 . S
H756 C736 0.930 . S
H757 C748 0.929 . S
H758 C751 0.930 . S
C759 C760 1.351 . S
C759 N762 1.368 . S
C759 H764 0.931 . S
C760 C759 1.351 . S
C760 N761 1.373 . S
C760 H788 0.930 . S
N761 C760 1.373 . S
N761 C763 1.340 . S
N762 C759 1.368 . S
N762 C763 1.321 . S
N762 Co765 2.135 . S
C763 N761 1.340 . S
C763 N762 1.321 . S
C763 H787 0.930 . S
H764 C759 0.931 . S
Co765 N762 2.135 . S
Co765 N768 2.121 . S
Co765 O773 2.055 . S
Co765 O776 2.039 . S
Co765 N779 2.140 . S
C766 O767 1.227 . S
C766 O776 1.265 . S
O767 C766 1.227 . S
N768 Co765 2.121 . S
N768 C770 1.375 . S
N768 C771 1.313 . S
C769 C770 1.338 . S
C769 N772 1.377 . S
C769 H789 0.930 . S
C770 N768 1.375 . S
C770 C769 1.338 . S
C770 H774 0.931 . S
C771 N768 1.313 . S
C771 N772 1.344 . S
C771 H775 0.930 . S
N772 C769 1.377 . S
N772 C771 1.344 . S
O773 Co765 2.055 . S
O773 C777 1.253 . S
H774 C770 0.931 . S
H775 C771 0.930 . S
O776 Co765 2.039 . S
O776 C766 1.265 . S
C777 O773 1.253 . S
C777 O778 1.227 . S
O778 C777 1.227 . S
N779 Co765 2.140 . S
N779 C782 1.346 . S
N779 C783 1.345 . S
C780 C781 1.387 . S
C780 C784 1.391 . S
C781 C780 1.387 . S
C781 C782 1.369 . S
C781 H790 0.929 . S
C782 N779 1.346 . S
C782 C781 1.369 . S
C782 H785 0.928 . S
C783 N779 1.345 . S
C783 C784 1.371 . S
C783 H786 0.931 . S
C784 C780 1.391 . S
C784 C783 1.371 . S
C784 H791 0.930 . S
H785 C782 0.928 . S
H786 C783 0.931 . S
H787 C763 0.930 . S
H788 C760 0.930 . S
H789 C769 0.930 . S
H790 C781 0.929 . S
H791 C784 0.930 . S
C792 C793 1.351 . S
C792 N795 1.368 . S
C792 H797 0.931 . S
C793 C792 1.351 . S
C793 N794 1.373 . S
C793 H821 0.930 . S
N794 C793 1.373 . S
N794 C796 1.340 . S
N795 C792 1.368 . S
N795 C796 1.321 . S
N795 Co798 2.135 . S
C796 N794 1.340 . S
C796 N795 1.321 . S
C796 H820 0.930 . S
H797 C792 0.931 . S
Co798 N795 2.135 . S
Co798 N801 2.121 . S
Co798 O806 2.055 . S
Co798 O809 2.039 . S
Co798 N812 2.140 . S
C799 O800 1.227 . S
C799 O809 1.265 . S
O800 C799 1.227 . S
N801 Co798 2.121 . S
N801 C803 1.375 . S
N801 C804 1.313 . S
C802 C803 1.338 . S
C802 N805 1.377 . S
C802 H822 0.930 . S
C803 N801 1.375 . S
C803 C802 1.338 . S
C803 H807 0.931 . S
C804 N801 1.313 . S
C804 N805 1.344 . S
C804 H808 0.930 . S
N805 C802 1.377 . S
N805 C804 1.344 . S
O806 Co798 2.055 . S
O806 C810 1.253 . S
H807 C803 0.931 . S
H808 C804 0.930 . S
O809 Co798 2.039 . S
O809 C799 1.265 . S
C810 O806 1.253 . S
C810 O811 1.227 . S
O811 C810 1.227 . S
N812 Co798 2.140 . S
N812 C815 1.346 . S
N812 C816 1.345 . S
C813 C814 1.387 . S
C813 C817 1.391 . S
C814 C813 1.387 . S
C814 C815 1.369 . S
C814 H823 0.929 . S
C815 N812 1.346 . S
C815 C814 1.369 . S
C815 H818 0.928 . S
C816 N812 1.345 . S
C816 C817 1.371 . S
C816 H819 0.931 . S
C817 C813 1.391 . S
C817 C816 1.371 . S
C817 H824 0.930 . S
H818 C815 0.928 . S
H819 C816 0.931 . S
H820 C796 0.930 . S
H821 C793 0.930 . S
H822 C802 0.930 . S
H823 C814 0.929 . S
H824 C817 0.930 . S
C825 C826 1.351 . S
C825 N828 1.368 . S
C825 H830 0.931 . S
C826 C825 1.351 . S
C826 N827 1.373 . S
C826 H854 0.930 . S
N827 C826 1.373 . S
N827 C829 1.340 . S
N828 C825 1.368 . S
N828 C829 1.321 . S
N828 Co831 2.135 . S
C829 N827 1.340 . S
C829 N828 1.321 . S
C829 H853 0.930 . S
H830 C825 0.931 . S
Co831 N828 2.135 . S
Co831 N834 2.121 . S
Co831 O839 2.055 . S
Co831 O842 2.039 . S
Co831 N845 2.140 . S
C832 O833 1.227 . S
C832 O842 1.265 . S
O833 C832 1.227 . S
N834 Co831 2.121 . S
N834 C836 1.375 . S
N834 C837 1.313 . S
C835 C836 1.338 . S
C835 N838 1.377 . S
C835 H855 0.930 . S
C836 N834 1.375 . S
C836 C835 1.338 . S
C836 H840 0.931 . S
C837 N834 1.313 . S
C837 N838 1.344 . S
C837 H841 0.930 . S
N838 C835 1.377 . S
N838 C837 1.344 . S
O839 Co831 2.055 . S
O839 C843 1.253 . S
H840 C836 0.931 . S
H841 C837 0.930 . S
O842 Co831 2.039 . S
O842 C832 1.265 . S
C843 O839 1.253 . S
C843 O844 1.227 . S
O844 C843 1.227 . S
N845 Co831 2.140 . S
N845 C848 1.346 . S
N845 C849 1.345 . S
C846 C847 1.387 . S
C846 C850 1.391 . S
C847 C846 1.387 . S
C847 C848 1.369 . S
C847 H856 0.929 . S
C848 N845 1.346 . S
C848 C847 1.369 . S
C848 H851 0.928 . S
C849 N845 1.345 . S
C849 C850 1.371 . S
C849 H852 0.931 . S
C850 C846 1.391 . S
C850 C849 1.371 . S
C850 H857 0.930 . S
H851 C848 0.928 . S
H852 C849 0.931 . S
H853 C829 0.930 . S
H854 C826 0.930 . S
H855 C835 0.930 . S
H856 C847 0.929 . S
H857 C850 0.930 . S
C858 C859 1.351 . S
C858 N861 1.368 . S
C858 H863 0.931 . S
C859 C858 1.351 . S
C859 N860 1.373 . S
C859 H887 0.930 . S
N860 C859 1.373 . S
N860 C862 1.340 . S
N861 C858 1.368 . S
N861 C862 1.321 . S
N861 Co864 2.135 . S
C862 N860 1.340 . S
C862 N861 1.321 . S
C862 H886 0.930 . S
H863 C858 0.931 . S
Co864 N861 2.135 . S
Co864 N867 2.121 . S
Co864 O872 2.055 . S
Co864 O875 2.039 . S
Co864 N878 2.140 . S
C865 O866 1.227 . S
C865 O875 1.265 . S
O866 C865 1.227 . S
N867 Co864 2.121 . S
N867 C869 1.375 . S
N867 C870 1.313 . S
C868 C869 1.338 . S
C868 N871 1.377 . S
C868 H888 0.930 . S
C869 N867 1.375 . S
C869 C868 1.338 . S
C869 H873 0.931 . S
C870 N867 1.313 . S
C870 N871 1.344 . S
C870 H874 0.930 . S
N871 C868 1.377 . S
N871 C870 1.344 . S
O872 Co864 2.055 . S
O872 C876 1.253 . S
H873 C869 0.931 . S
H874 C870 0.930 . S
O875 Co864 2.039 . S
O875 C865 1.265 . S
C876 O872 1.253 . S
C876 O877 1.227 . S
O877 C876 1.227 . S
N878 Co864 2.140 . S
N878 C881 1.346 . S
N878 C882 1.345 . S
C879 C880 1.387 . S
C879 C883 1.391 . S
C880 C879 1.387 . S
C880 C881 1.369 . S
C880 H889 0.929 . S
C881 N878 1.346 . S
C881 C880 1.369 . S
C881 H884 0.928 . S
C882 N878 1.345 . S
C882 C883 1.371 . S
C882 H885 0.931 . S
C883 C879 1.391 . S
C883 C882 1.371 . S
C883 H890 0.930 . S
H884 C881 0.928 . S
H885 C882 0.931 . S
H886 C862 0.930 . S
H887 C859 0.930 . S
H888 C868 0.930 . S
H889 C880 0.929 . S
H890 C883 0.930 . S
C891 C892 1.351 . S
C891 N894 1.368 . S
C891 H896 0.931 . S
C892 C891 1.351 . S
C892 N893 1.373 . S
C892 H920 0.930 . S
N893 C892 1.373 . S
N893 C895 1.340 . S
N894 C891 1.368 . S
N894 C895 1.321 . S
N894 Co897 2.135 . S
C895 N893 1.340 . S
C895 N894 1.321 . S
C895 H919 0.930 . S
H896 C891 0.931 . S
Co897 N894 2.135 . S
Co897 N900 2.121 . S
Co897 O905 2.055 . S
Co897 O908 2.039 . S
Co897 N911 2.140 . S
C898 O899 1.227 . S
C898 O908 1.265 . S
O899 C898 1.227 . S
N900 Co897 2.121 . S
N900 C902 1.375 . S
N900 C903 1.313 . S
C901 C902 1.338 . S
C901 N904 1.377 1_655 S
C901 H921 0.930 . S
C902 N900 1.375 . S
C902 C901 1.338 . S
C902 H906 0.931 . S
C903 N900 1.313 . S
C903 N904 1.344 1_655 S
C903 H907 0.930 . S
N904 C901 1.377 1_455 S
N904 C903 1.344 1_455 S
O905 Co897 2.055 . S
O905 C909 1.253 . S
H906 C902 0.931 . S
H907 C903 0.930 . S
O908 Co897 2.039 . S
O908 C898 1.265 . S
C909 O905 1.253 . S
C909 O910 1.227 . S
O910 C909 1.227 . S
N911 Co897 2.140 . S
N911 C914 1.346 . S
N911 C915 1.345 . S
C912 C913 1.387 . S
C912 C916 1.391 . S
C913 C912 1.387 . S
C913 C914 1.369 . S
C913 H922 0.929 . S
C914 N911 1.346 . S
C914 C913 1.369 . S
C914 H917 0.928 . S
C915 N911 1.345 . S
C915 C916 1.371 . S
C915 H918 0.931 . S
C916 C912 1.391 . S
C916 C915 1.371 . S
C916 H923 0.930 . S
H917 C914 0.928 . S
H918 C915 0.931 . S
H919 C895 0.930 . S
H920 C892 0.930 . S
H921 C901 0.930 . S
H922 C913 0.929 . S
H923 C916 0.930 . S
C924 C925 1.351 . S
C924 N927 1.368 . S
C924 H929 0.931 . S
C925 C924 1.351 . S
C925 N926 1.373 . S
C925 H953 0.930 . S
N926 C925 1.373 . S
N926 C928 1.340 . S
N927 C924 1.368 . S
N927 C928 1.321 . S
N927 Co930 2.135 . S
C928 N926 1.340 . S
C928 N927 1.321 . S
C928 H952 0.930 . S
H929 C924 0.931 . S
Co930 N927 2.135 . S
Co930 N933 2.121 . S
Co930 O938 2.055 . S
Co930 O941 2.039 . S
Co930 N944 2.140 . S
C931 O932 1.227 . S
C931 O941 1.265 . S
O932 C931 1.227 . S
N933 Co930 2.121 . S
N933 C935 1.375 . S
N933 C936 1.313 . S
C934 C935 1.338 . S
C934 N937 1.377 . S
C934 H954 0.930 . S
C935 N933 1.375 . S
C935 C934 1.338 . S
C935 H939 0.931 . S
C936 N933 1.313 . S
C936 N937 1.344 . S
C936 H940 0.930 . S
N937 C934 1.377 . S
N937 C936 1.344 . S
O938 Co930 2.055 . S
O938 C942 1.253 . S
H939 C935 0.931 . S
H940 C936 0.930 . S
O941 Co930 2.039 . S
O941 C931 1.265 . S
C942 O938 1.253 . S
C942 O943 1.227 . S
O943 C942 1.227 . S
N944 Co930 2.140 . S
N944 C947 1.346 . S
N944 C948 1.345 . S
C945 C946 1.387 . S
C945 C949 1.391 . S
C946 C945 1.387 . S
C946 C947 1.369 . S
C946 H955 0.929 . S
C947 N944 1.346 . S
C947 C946 1.369 . S
C947 H950 0.928 . S
C948 N944 1.345 . S
C948 C949 1.371 . S
C948 H951 0.931 . S
C949 C945 1.391 . S
C949 C948 1.371 . S
C949 H956 0.930 . S
H950 C947 0.928 . S
H951 C948 0.931 . S
H952 C928 0.930 . S
H953 C925 0.930 . S
H954 C934 0.930 . S
H955 C946 0.929 . S
H956 C949 0.930 . S
C957 C958 1.351 . S
C957 N960 1.368 . S
C957 H962 0.931 . S
C958 C957 1.351 . S
C958 N959 1.373 . S
C958 H986 0.930 . S
N959 C958 1.373 . S
N959 C961 1.340 . S
N960 C957 1.368 . S
N960 C961 1.321 . S
N960 Co963 2.135 . S
C961 N959 1.340 . S
C961 N960 1.321 . S
C961 H985 0.930 . S
H962 C957 0.931 . S
Co963 N960 2.135 . S
Co963 N966 2.121 . S
Co963 O971 2.055 . S
Co963 O974 2.039 . S
Co963 N977 2.140 . S
C964 O965 1.227 . S
C964 O974 1.265 . S
O965 C964 1.227 . S
N966 Co963 2.121 . S
N966 C968 1.375 . S
N966 C969 1.313 . S
C967 C968 1.338 . S
C967 N970 1.377 1_655 S
C967 H987 0.930 . S
C968 N966 1.375 . S
C968 C967 1.338 . S
C968 H972 0.931 . S
C969 N966 1.313 . S
C969 N970 1.344 1_655 S
C969 H973 0.930 . S
N970 C967 1.377 1_455 S
N970 C969 1.344 1_455 S
O971 Co963 2.055 . S
O971 C975 1.253 . S
H972 C968 0.931 . S
H973 C969 0.930 . S
O974 Co963 2.039 . S
O974 C964 1.265 . S
C975 O971 1.253 . S
C975 O976 1.227 . S
O976 C975 1.227 . S
N977 Co963 2.140 . S
N977 C980 1.346 . S
N977 C981 1.345 . S
C978 C979 1.387 . S
C978 C982 1.391 . S
C979 C978 1.387 . S
C979 C980 1.369 . S
C979 H988 0.929 . S
C980 N977 1.346 . S
C980 C979 1.369 . S
C980 H983 0.928 . S
C981 N977 1.345 . S
C981 C982 1.371 . S
C981 H984 0.931 . S
C982 C978 1.391 . S
C982 C981 1.371 . S
C982 H989 0.930 . S
H983 C980 0.928 . S
H984 C981 0.931 . S
H985 C961 0.930 . S
H986 C958 0.930 . S
H987 C967 0.930 . S
H988 C979 0.929 . S
H989 C982 0.930 . S
C990 C991 1.351 . S
C990 N993 1.368 . S
C990 H995 0.931 . S
C991 C990 1.351 . S
C991 N992 1.373 . S
C991 H1019 0.930 . S
N992 C991 1.373 . S
N992 C994 1.340 . S
N993 C990 1.368 . S
N993 C994 1.321 . S
N993 Co996 2.135 . S
C994 N992 1.340 . S
C994 N993 1.321 . S
C994 H1018 0.930 . S
H995 C990 0.931 . S
Co996 N993 2.135 . S
Co996 N999 2.121 . S
Co996 O1004 2.055 . S
Co996 O1007 2.039 . S
Co996 N1010 2.140 . S
C997 O998 1.227 . S
C997 O1007 1.265 . S
O998 C997 1.227 . S
N999 Co996 2.121 . S
N999 C1001 1.375 . S
N999 C1002 1.313 . S
C1000 C1001 1.338 . S
C1000 N1003 1.377 . S
C1000 H1020 0.930 . S
C1001 N999 1.375 . S
C1001 C1000 1.338 . S
C1001 H1005 0.931 . S
C1002 N999 1.313 . S
C1002 N1003 1.344 . S
C1002 H1006 0.930 . S
N1003 C1000 1.377 . S
N1003 C1002 1.344 . S
O1004 Co996 2.055 . S
O1004 C1008 1.253 . S
H1005 C1001 0.931 . S
H1006 C1002 0.930 . S
O1007 Co996 2.039 . S
O1007 C997 1.265 . S
C1008 O1004 1.253 . S
C1008 O1009 1.227 . S
O1009 C1008 1.227 . S
N1010 Co996 2.140 . S
N1010 C1013 1.346 . S
N1010 C1014 1.345 . S
C1011 C1012 1.387 . S
C1011 C1015 1.391 . S
C1012 C1011 1.387 . S
C1012 C1013 1.369 . S
C1012 H1021 0.929 . S
C1013 N1010 1.346 . S
C1013 C1012 1.369 . S
C1013 H1016 0.928 . S
C1014 N1010 1.345 . S
C1014 C1015 1.371 . S
C1014 H1017 0.931 . S
C1015 C1011 1.391 . S
C1015 C1014 1.371 . S
C1015 H1022 0.930 . S
H1016 C1013 0.928 . S
H1017 C1014 0.931 . S
H1018 C994 0.930 . S
H1019 C991 0.930 . S
H1020 C1000 0.930 . S
H1021 C1012 0.929 . S
H1022 C1015 0.930 . S
C1023 C1024 1.351 . S
C1023 N1026 1.368 . S
C1023 H1028 0.931 . S
C1024 C1023 1.351 . S
C1024 N1025 1.373 . S
C1024 H1052 0.930 . S
N1025 C1024 1.373 . S
N1025 C1027 1.340 . S
N1026 C1023 1.368 . S
N1026 C1027 1.321 . S
N1026 Co1029 2.135 . S
C1027 N1025 1.340 . S
C1027 N1026 1.321 . S
C1027 H1051 0.930 . S
H1028 C1023 0.931 . S
Co1029 N1026 2.135 . S
Co1029 N1032 2.121 . S
Co1029 O1037 2.055 . S
Co1029 O1040 2.039 . S
Co1029 N1043 2.140 . S
C1030 O1031 1.227 . S
C1030 O1040 1.265 . S
O1031 C1030 1.227 . S
N1032 Co1029 2.121 . S
N1032 C1034 1.375 . S
N1032 C1035 1.313 . S
C1033 C1034 1.338 . S
C1033 N1036 1.377 . S
C1033 H1053 0.930 . S
C1034 N1032 1.375 . S
C1034 C1033 1.338 . S
C1034 H1038 0.931 . S
C1035 N1032 1.313 . S
C1035 N1036 1.344 . S
C1035 H1039 0.930 . S
N1036 C1033 1.377 . S
N1036 C1035 1.344 . S
O1037 Co1029 2.055 . S
O1037 C1041 1.253 . S
H1038 C1034 0.931 . S
H1039 C1035 0.930 . S
O1040 Co1029 2.039 . S
O1040 C1030 1.265 . S
C1041 O1037 1.253 . S
C1041 O1042 1.227 . S
O1042 C1041 1.227 . S
N1043 Co1029 2.140 . S
N1043 C1046 1.346 . S
N1043 C1047 1.345 . S
C1044 C1045 1.387 . S
C1044 C1048 1.391 . S
C1045 C1044 1.387 . S
C1045 C1046 1.369 . S
C1045 H1054 0.929 . S
C1046 N1043 1.346 . S
C1046 C1045 1.369 . S
C1046 H1049 0.928 . S
C1047 N1043 1.345 . S
C1047 C1048 1.371 . S
C1047 H1050 0.931 . S
C1048 C1044 1.391 . S
C1048 C1047 1.371 . S
C1048 H1055 0.930 . S
H1049 C1046 0.928 . S
H1050 C1047 0.931 . S
H1051 C1027 0.930 . S
H1052 C1024 0.930 . S
H1053 C1033 0.930 . S
H1054 C1045 0.929 . S
H1055 C1048 0.930 . S
C1056 C1057 1.391 . S
C1056 C1058 1.394 . S
C1056 H1072 0.931 . S
C1057 C1056 1.391 . S
C1057 C1061 1.376 . S
C1058 C1056 1.394 . S
C1058 C1059 1.369 . S
C1058 C1062 1.531 . S
C1059 C1058 1.369 . S
C1059 C1060 1.410 . S
C1059 C1067 1.503 . S
C1060 C1059 1.410 . S
C1060 C1061 1.392 . S
C1060 C1063 1.511 . S
C1061 C1057 1.376 . S
C1061 C1060 1.392 . S
C1061 H1073 0.929 . S
C1062 C1058 1.531 . S
C1062 H1074 0.960 . S
C1062 H1075 0.962 . S
C1062 H1076 0.960 . S
C1063 C1060 1.511 . S
C1063 H1077 0.961 . S
C1063 H1078 0.961 . S
C1063 H1079 0.961 . S
C1064 C1065 1.370 . S
C1064 C1066 1.363 . S
C1064 H1080 0.931 . S
C1065 C1064 1.370 . S
C1065 C1069 1.408 . S
C1066 C1064 1.363 . S
C1066 C1067 1.370 . S
C1066 C1070 1.524 . S
C1067 C1059 1.503 . S
C1067 C1066 1.370 . S
C1067 C1068 1.403 . S
C1068 C1067 1.403 . S
C1068 C1069 1.404 . S
C1068 C1071 1.539 . S
C1069 C1065 1.408 . S
C1069 C1068 1.404 . S
C1069 H1081 0.930 . S
C1070 C1066 1.524 . S
C1070 H1082 0.956 . S
C1070 H1083 0.961 . S
C1070 H1084 0.961 . S
C1071 C1068 1.539 . S
C1071 H1085 0.958 . S
C1071 H1086 0.961 . S
C1071 H1087 0.960 . S
H1072 C1056 0.931 . S
H1073 C1061 0.929 . S
H1074 C1062 0.960 . S
H1075 C1062 0.962 . S
H1076 C1062 0.960 . S
H1077 C1063 0.961 . S
H1078 C1063 0.961 . S
H1079 C1063 0.961 . S
H1080 C1064 0.931 . S
H1081 C1069 0.930 . S
H1082 C1070 0.956 . S
H1083 C1070 0.961 . S
H1084 C1070 0.961 . S
H1085 C1071 0.958 . S
H1086 C1071 0.961 . S
H1087 C1071 0.960 . S
C1088 C1089 1.391 . S
C1088 C1090 1.394 . S
C1088 H1104 0.931 . S
C1089 C1088 1.391 . S
C1089 C1093 1.376 . S
C1090 C1088 1.394 . S
C1090 C1091 1.369 . S
C1090 C1094 1.531 . S
C1091 C1090 1.369 . S
C1091 C1092 1.410 1_455 S
C1091 C1099 1.514 1_455 S
C1092 C1091 1.410 1_655 S
C1092 C1093 1.392 1_655 S
C1092 C1095 1.511 . S
C1093 C1089 1.376 . S
C1093 C1092 1.392 1_455 S
C1093 H1105 0.929 1_455 S
C1094 C1090 1.531 . S
C1094 H1106 0.960 . S
C1094 H1107 0.962 1_565 S
C1094 H1108 0.960 . S
C1095 C1092 1.511 . S
C1095 H1109 0.961 . S
C1095 H1110 0.970 . S
C1095 H1111 0.961 . S
C1096 C1097 1.370 . S
C1096 C1098 1.363 . S
C1096 H1112 0.931 . S
C1097 C1096 1.370 . S
C1097 C1101 1.408 1_545 S
C1098 C1096 1.363 . S
C1098 C1099 1.337 1_545 S
C1098 C1102 1.524 . S
C1099 C1091 1.514 1_655 S
C1099 C1098 1.337 1_565 S
C1099 C1100 1.426 . S
C1100 C1099 1.426 . S
C1100 C1101 1.404 . S
C1100 C1103 1.539 . S
C1101 C1097 1.408 1_565 S
C1101 C1100 1.404 . S
C1101 H1113 0.930 . S
C1102 C1098 1.524 . S
C1102 H1114 0.956 1_655 S
C1102 H1115 0.961 . S
C1102 H1116 0.961 . S
C1103 C1100 1.539 . S
C1103 H1117 0.958 1_655 S
C1103 H1118 0.961 . S
C1103 H1119 0.960 . S
H1104 C1088 0.931 . S
H1105 C1093 0.929 1_655 S
H1106 C1094 0.960 . S
H1107 C1094 0.962 1_545 S
H1108 C1094 0.960 . S
H1109 C1095 0.961 . S
H1110 C1095 0.970 . S
H1111 C1095 0.961 . S
H1112 C1096 0.931 . S
H1113 C1101 0.930 . S
H1114 C1102 0.956 1_455 S
H1115 C1102 0.961 . S
H1116 C1102 0.961 . S
H1117 C1103 0.958 1_455 S
H1118 C1103 0.961 . S
H1119 C1103 0.960 . S
C1120 C1121 1.391 . S
C1120 C1122 1.394 . S
C1120 H1136 0.931 . S
C1121 C1120 1.391 . S
C1121 C1125 1.376 . S
C1122 C1120 1.394 . S
C1122 C1123 1.369 . S
C1122 C1126 1.531 . S
C1123 C1122 1.369 . S
C1123 C1124 1.410 . S
C1123 C1131 1.503 . S
C1124 C1123 1.410 . S
C1124 C1125 1.392 . S
C1124 C1127 1.511 . S
C1125 C1121 1.376 . S
C1125 C1124 1.392 . S
C1125 H1137 0.929 . S
C1126 C1122 1.531 . S
C1126 H1138 0.960 . S
C1126 H1139 0.962 . S
C1126 H1140 0.960 . S
C1127 C1124 1.511 . S
C1127 H1141 0.961 . S
C1127 H1142 0.961 . S
C1127 H1143 0.961 . S
C1128 C1129 1.370 . S
C1128 C1130 1.363 . S
C1128 H1144 0.931 . S
C1129 C1128 1.370 . S
C1129 C1133 1.408 . S
C1130 C1128 1.363 . S
C1130 C1131 1.370 . S
C1130 C1134 1.524 . S
C1131 C1123 1.503 . S
C1131 C1130 1.370 . S
C1131 C1132 1.403 . S
C1132 C1131 1.403 . S
C1132 C1133 1.404 . S
C1132 C1135 1.539 . S
C1133 C1129 1.408 . S
C1133 C1132 1.404 . S
C1133 H1145 0.930 . S
C1134 C1130 1.524 . S
C1134 H1146 0.956 . S
C1134 H1147 0.961 . S
C1134 H1148 0.961 . S
C1135 C1132 1.539 . S
C1135 H1149 0.958 . S
C1135 H1150 0.961 . S
C1135 H1151 0.960 . S
H1136 C1120 0.931 . S
H1137 C1125 0.929 . S
H1138 C1126 0.960 . S
H1139 C1126 0.962 . S
H1140 C1126 0.960 . S
H1141 C1127 0.961 . S
H1142 C1127 0.961 . S
H1143 C1127 0.961 . S
H1144 C1128 0.931 . S
H1145 C1133 0.930 . S
H1146 C1134 0.956 . S
H1147 C1134 0.961 . S
H1148 C1134 0.961 . S
H1149 C1135 0.958 . S
H1150 C1135 0.961 . S
H1151 C1135 0.960 . S
C1152 C1153 1.391 1_565 S
C1152 C1154 1.394 . S
C1152 H1168 0.931 . S
C1153 C1152 1.391 1_545 S
C1153 C1157 1.376 . S
C1154 C1152 1.394 . S
C1154 C1155 1.390 . S
C1154 C1158 1.531 . S
C1155 C1154 1.390 . S
C1155 C1156 1.377 1_565 S
C1155 C1163 1.513 1_554 S
C1156 C1155 1.377 1_545 S
C1156 C1157 1.392 . S
C1156 C1159 1.511 1_554 S
C1157 C1153 1.376 . S
C1157 C1156 1.392 . S
C1157 H1169 0.929 . S
C1158 C1154 1.531 . S
C1158 H1170 0.960 . S
C1158 H1171 0.962 . S
C1158 H1172 0.960 . S
C1159 C1156 1.511 1_556 S
C1159 H1173 0.961 . S
C1159 H1174 0.961 . S
C1159 H1175 0.961 . S
C1160 C1161 1.370 1_545 S
C1160 C1162 1.363 . S
C1160 H1176 0.931 . S
C1161 C1160 1.370 1_565 S
C1161 C1165 1.408 . S
C1162 C1160 1.363 . S
C1162 C1163 1.370 1_545 S
C1162 C1166 1.551 . S
C1163 C1155 1.513 1_556 S
C1163 C1162 1.370 1_565 S
C1163 C1164 1.403 . S
C1164 C1163 1.403 . S
C1164 C1165 1.404 . S
C1164 C1167 1.539 . S
C1165 C1161 1.408 . S
C1165 C1164 1.404 . S
C1165 H1177 0.930 . S
C1166 C1162 1.551 . S
C1166 H1178 0.919 1_556 S
C1166 H1179 0.954 1_556 S
C1166 H1180 0.980 . S
C1167 C1164 1.539 . S
C1167 H1181 0.958 . S
C1167 H1182 0.961 . S
C1167 H1183 0.960 . S
H1168 C1152 0.931 . S
H1169 C1157 0.929 . S
H1170 C1158 0.960 . S
H1171 C1158 0.962 . S
H1172 C1158 0.960 . S
H1173 C1159 0.961 . S
H1174 C1159 0.961 . S
H1175 C1159 0.961 . S
H1176 C1160 0.931 . S
H1177 C1165 0.930 . S
H1178 C1166 0.919 1_554 S
H1179 C1166 0.954 1_554 S
H1180 C1166 0.980 . S
H1181 C1167 0.958 . S
H1182 C1167 0.961 . S
H1183 C1167 0.960 . S
C1184 C1185 1.391 . S
C1184 C1186 1.394 . S
C1184 H1200 0.931 . S
C1185 C1184 1.391 . S
C1185 C1189 1.376 . S
C1186 C1184 1.394 . S
C1186 C1187 1.369 . S
C1186 C1190 1.531 . S
C1187 C1186 1.369 . S
C1187 C1188 1.410 . S
C1187 C1195 1.503 . S
C1188 C1187 1.410 . S
C1188 C1189 1.392 . S
C1188 C1191 1.511 . S
C1189 C1185 1.376 . S
C1189 C1188 1.392 . S
C1189 H1201 0.929 . S
C1190 C1186 1.531 . S
C1190 H1202 0.960 . S
C1190 H1203 0.962 . S
C1190 H1204 0.960 . S
C1191 C1188 1.511 . S
C1191 H1205 0.961 . S
C1191 H1206 0.961 . S
C1191 H1207 0.961 . S
C1192 C1193 1.370 . S
C1192 C1194 1.363 . S
C1192 H1208 0.931 . S
C1193 C1192 1.370 . S
C1193 C1197 1.408 . S
C1194 C1192 1.363 . S
C1194 C1195 1.370 . S
C1194 C1198 1.524 . S
C1195 C1187 1.503 . S
C1195 C1194 1.370 . S
C1195 C1196 1.403 . S
C1196 C1195 1.403 . S
C1196 C1197 1.404 . S
C1196 C1199 1.539 . S
C1197 C1193 1.408 . S
C1197 C1196 1.404 . S
C1197 H1209 0.930 . S
C1198 C1194 1.524 . S
C1198 H1210 0.956 . S
C1198 H1211 0.961 . S
C1198 H1212 0.961 . S
C1199 C1196 1.539 . S
C1199 H1213 0.958 . S
C1199 H1214 0.961 . S
C1199 H1215 0.960 . S
H1200 C1184 0.931 . S
H1201 C1189 0.929 . S
H1202 C1190 0.960 . S
H1203 C1190 0.962 . S
H1204 C1190 0.960 . S
H1205 C1191 0.961 . S
H1206 C1191 0.961 . S
H1207 C1191 0.961 . S
H1208 C1192 0.931 . S
H1209 C1197 0.930 . S
H1210 C1198 0.956 . S
H1211 C1198 0.961 . S
H1212 C1198 0.961 . S
H1213 C1199 0.958 . S
H1214 C1199 0.961 . S
H1215 C1199 0.960 . S
C1216 C1217 1.391 . S
C1216 C1218 1.394 . S
C1216 H1232 0.931 . S
C1217 C1216 1.391 . S
C1217 C1221 1.376 . S
C1218 C1216 1.394 . S
C1218 C1219 1.369 . S
C1218 C1222 1.531 . S
C1219 C1218 1.369 . S
C1219 C1220 1.410 . S
C1219 C1227 1.511 . S
C1220 C1219 1.410 . S
C1220 C1221 1.392 . S
C1220 C1223 1.511 1_565 S
C1221 C1217 1.376 . S
C1221 C1220 1.392 . S
C1221 H1233 0.929 . S
C1222 C1218 1.531 . S
C1222 H1234 0.960 . S
C1222 H1235 0.962 . S
C1222 H1236 0.960 . S
C1223 C1220 1.511 1_545 S
C1223 H1237 0.961 . S
C1223 H1238 0.961 . S
C1223 H1239 0.961 1_545 S
C1224 C1225 1.370 . S
C1224 C1226 1.363 . S
C1224 H1240 0.931 . S
C1225 C1224 1.370 . S
C1225 C1229 1.408 1_545 S
C1226 C1224 1.363 . S
C1226 C1227 1.346 1_545 S
C1226 C1230 1.524 . S
C1227 C1219 1.511 . S
C1227 C1226 1.346 1_565 S
C1227 C1228 1.419 . S
C1228 C1227 1.419 . S
C1228 C1229 1.404 . S
C1228 C1231 1.539 . S
C1229 C1225 1.408 1_565 S
C1229 C1228 1.404 . S
C1229 H1241 0.930 . S
C1230 C1226 1.524 . S
C1230 H1242 0.956 . S
C1230 H1243 0.961 . S
C1230 H1244 0.961 . S
C1231 C1228 1.539 . S
C1231 H1245 0.958 . S
C1231 H1246 0.961 . S
C1231 H1247 0.960 . S
H1232 C1216 0.931 . S
H1233 C1221 0.929 . S
H1234 C1222 0.960 . S
H1235 C1222 0.962 . S
H1236 C1222 0.960 . S
H1237 C1223 0.961 . S
H1238 C1223 0.961 . S
H1239 C1223 0.961 1_565 S
H1240 C1224 0.931 . S
H1241 C1229 0.930 . S
H1242 C1230 0.956 . S
H1243 C1230 0.961 . S
H1244 C1230 0.961 . S
H1245 C1231 0.958 . S
H1246 C1231 0.961 . S
H1247 C1231 0.960 . S
C1248 C1249 1.391 . S
C1248 C1250 1.394 . S
C1248 H1264 0.931 . S
C1249 C1248 1.391 . S
C1249 C1253 1.376 . S
C1250 C1248 1.394 . S
C1250 C1251 1.369 . S
C1250 C1254 1.531 . S
C1251 C1250 1.369 . S
C1251 C1252 1.410 . S
C1251 C1259 1.503 . S
C1252 C1251 1.410 . S
C1252 C1253 1.392 . S
C1252 C1255 1.511 . S
C1253 C1249 1.376 . S
C1253 C1252 1.392 . S
C1253 H1265 0.929 . S
C1254 C1250 1.531 . S
C1254 H1266 0.960 . S
C1254 H1267 0.962 . S
C1254 H1268 0.960 . S
C1255 C1252 1.511 . S
C1255 H1269 0.961 . S
C1255 H1270 0.961 . S
C1255 H1271 0.961 . S
C1256 C1257 1.370 . S
C1256 C1258 1.363 . S
C1256 H1272 0.931 . S
C1257 C1256 1.370 . S
C1257 C1261 1.408 . S
C1258 C1256 1.363 . S
C1258 C1259 1.370 . S
C1258 C1262 1.524 . S
C1259 C1251 1.503 . S
C1259 C1258 1.370 . S
C1259 C1260 1.403 . S
C1260 C1259 1.403 . S
C1260 C1261 1.404 . S
C1260 C1263 1.539 . S
C1261 C1257 1.408 . S
C1261 C1260 1.404 . S
C1261 H1273 0.930 . S
C1262 C1258 1.524 . S
C1262 H1274 0.956 . S
C1262 H1275 0.961 . S
C1262 H1276 0.961 . S
C1263 C1260 1.539 . S
C1263 H1277 0.958 . S
C1263 H1278 0.961 . S
C1263 H1279 0.960 . S
H1264 C1248 0.931 . S
H1265 C1253 0.929 . S
H1266 C1254 0.960 . S
H1267 C1254 0.962 . S
H1268 C1254 0.960 . S
H1269 C1255 0.961 . S
H1270 C1255 0.961 . S
H1271 C1255 0.961 . S
H1272 C1256 0.931 . S
H1273 C1261 0.930 . S
H1274 C1262 0.956 . S
H1275 C1262 0.961 . S
H1276 C1262 0.961 . S
H1277 C1263 0.958 . S
H1278 C1263 0.961 . S
H1279 C1263 0.960 . S
C1280 C1281 1.391 . S
C1280 C1282 1.394 1_455 S
C1280 H1296 0.931 1_455 S
C1281 C1280 1.391 . S
C1281 C1285 1.376 . S
C1282 C1280 1.394 1_655 S
C1282 C1283 1.369 1_645 S
C1282 C1286 1.531 . S
C1283 C1282 1.369 1_465 S
C1283 C1284 1.412 . S
C1283 C1291 1.503 1_456 S
C1284 C1283 1.412 . S
C1284 C1285 1.380 1_565 S
C1284 C1287 1.521 1_556 S
C1285 C1281 1.376 . S
C1285 C1284 1.380 1_545 S
C1285 H1297 0.929 . S
C1286 C1282 1.531 . S
C1286 H1298 0.960 1_545 S
C1286 H1299 0.962 . S
C1286 H1300 0.960 1_545 S
C1287 C1284 1.521 1_554 S
C1287 H1301 0.961 1_565 S
C1287 H1302 0.961 . S
C1287 H1303 0.961 . S
C1288 C1289 1.370 1_545 S
C1288 C1290 1.363 . S
C1288 H1304 0.931 . S
C1289 C1288 1.370 1_565 S
C1289 C1293 1.408 . S
C1290 C1288 1.363 . S
C1290 C1291 1.370 1_545 S
C1290 C1294 1.524 . S
C1291 C1283 1.503 1_654 S
C1291 C1290 1.370 1_565 S
C1291 C1292 1.403 . S
C1292 C1291 1.403 . S
C1292 C1293 1.404 . S
C1292 C1295 1.567 . S
C1293 C1289 1.408 . S
C1293 C1292 1.404 . S
C1293 H1305 0.930 . S
C1294 C1290 1.524 . S
C1294 H1306 0.956 . S
C1294 H1307 0.961 1_655 S
C1294 H1308 0.961 . S
C1295 C1292 1.567 . S
C1295 H1309 0.928 1_554 S
C1295 H1310 1.003 . S
C1295 H1311 0.935 1_654 S
H1296 C1280 0.931 1_655 S
H1297 C1285 0.929 . S
H1298 C1286 0.960 1_565 S
H1299 C1286 0.962 . S
H1300 C1286 0.960 1_565 S
H1301 C1287 0.961 1_545 S
H1302 C1287 0.961 . S
H1303 C1287 0.961 . S
H1304 C1288 0.931 . S
H1305 C1293 0.930 . S
H1306 C1294 0.956 . S
H1307 C1294 0.961 1_455 S
H1308 C1294 0.961 . S
H1309 C1295 0.928 1_556 S
H1310 C1295 1.003 . S
H1311 C1295 0.935 1_456 S
C1312 C1313 1.391 . S
C1312 C1314 1.394 . S
C1312 H1328 0.931 . S
C1313 C1312 1.391 . S
C1313 C1317 1.376 . S
C1314 C1312 1.394 . S
C1314 C1315 1.369 . S
C1314 C1318 1.531 . S
C1315 C1314 1.369 . S
C1315 C1316 1.410 . S
C1315 C1323 1.503 . S
C1316 C1315 1.410 . S
C1316 C1317 1.392 . S
C1316 C1319 1.511 . S
C1317 C1313 1.376 . S
C1317 C1316 1.392 . S
C1317 H1329 0.929 . S
C1318 C1314 1.531 . S
C1318 H1330 0.960 . S
C1318 H1331 0.962 . S
C1318 H1332 0.960 . S
C1319 C1316 1.511 . S
C1319 H1333 0.961 . S
C1319 H1334 0.961 . S
C1319 H1335 0.961 . S
C1320 C1321 1.370 . S
C1320 C1322 1.363 . S
C1320 H1336 0.931 . S
C1321 C1320 1.370 . S
C1321 C1325 1.408 . S
C1322 C1320 1.363 . S
C1322 C1323 1.370 . S
C1322 C1326 1.524 . S
C1323 C1315 1.503 . S
C1323 C1322 1.370 . S
C1323 C1324 1.403 . S
C1324 C1323 1.403 . S
C1324 C1325 1.404 . S
C1324 C1327 1.539 . S
C1325 C1321 1.408 . S
C1325 C1324 1.404 . S
C1325 H1337 0.930 . S
C1326 C1322 1.524 . S
C1326 H1338 0.956 . S
C1326 H1339 0.961 . S
C1326 H1340 0.961 . S
C1327 C1324 1.539 . S
C1327 H1341 0.958 . S
C1327 H1342 0.961 . S
C1327 H1343 0.960 . S
H1328 C1312 0.931 . S
H1329 C1317 0.929 . S
H1330 C1318 0.960 . S
H1331 C1318 0.962 . S
H1332 C1318 0.960 . S
H1333 C1319 0.961 . S
H1334 C1319 0.961 . S
H1335 C1319 0.961 . S
H1336 C1320 0.931 . S
H1337 C1325 0.930 . S
H1338 C1326 0.956 . S
H1339 C1326 0.961 . S
H1340 C1326 0.961 . S
H1341 C1327 0.958 . S
H1342 C1327 0.961 . S
H1343 C1327 0.960 . S
C1344 C1345 1.391 . S
C1344 C1346 1.394 . S
C1344 H1360 0.931 . S
C1345 C1344 1.391 . S
C1345 C1349 1.376 . S
C1346 C1344 1.394 . S
C1346 C1347 1.369 . S
C1346 C1350 1.531 . S
C1347 C1346 1.369 . S
C1347 C1348 1.410 . S
C1347 C1355 1.503 . S
C1348 C1347 1.410 . S
C1348 C1349 1.392 . S
C1348 C1351 1.511 . S
C1349 C1345 1.376 . S
C1349 C1348 1.392 . S
C1349 H1361 0.929 . S
C1350 C1346 1.531 . S
C1350 H1362 0.960 . S
C1350 H1363 0.962 . S
C1350 H1364 0.960 . S
C1351 C1348 1.511 . S
C1351 H1365 0.961 . S
C1351 H1366 0.961 . S
C1351 H1367 0.961 . S
C1352 C1353 1.370 . S
C1352 C1354 1.363 . S
C1352 H1368 0.931 . S
C1353 C1352 1.370 . S
C1353 C1357 1.408 . S
C1354 C1352 1.363 . S
C1354 C1355 1.370 . S
C1354 C1358 1.524 . S
C1355 C1347 1.503 . S
C1355 C1354 1.370 . S
C1355 C1356 1.403 . S
C1356 C1355 1.403 . S
C1356 C1357 1.404 . S
C1356 C1359 1.539 . S
C1357 C1353 1.408 . S
C1357 C1356 1.404 . S
C1357 H1369 0.930 . S
C1358 C1354 1.524 . S
C1358 H1370 0.956 . S
C1358 H1371 0.961 . S
C1358 H1372 0.961 . S
C1359 C1356 1.539 . S
C1359 H1373 0.958 . S
C1359 H1374 0.961 . S
C1359 H1375 0.960 . S
H1360 C1344 0.931 . S
H1361 C1349 0.929 . S
H1362 C1350 0.960 . S
H1363 C1350 0.962 . S
H1364 C1350 0.960 . S
H1365 C1351 0.961 . S
H1366 C1351 0.961 . S
H1367 C1351 0.961 . S
H1368 C1352 0.931 . S
H1369 C1357 0.930 . S
H1370 C1358 0.956 . S
H1371 C1358 0.961 . S
H1372 C1358 0.961 . S
H1373 C1359 0.958 . S
H1374 C1359 0.961 . S
H1375 C1359 0.960 . S
C1376 C1377 1.391 . S
C1376 C1378 1.394 . S
C1376 H1392 0.931 . S
C1377 C1376 1.391 . S
C1377 C1381 1.376 . S
C1378 C1376 1.394 . S
C1378 C1379 1.369 . S
C1378 C1382 1.531 . S
C1379 C1378 1.369 . S
C1379 C1380 1.410 . S
C1379 C1387 1.503 . S
C1380 C1379 1.410 . S
C1380 C1381 1.392 . S
C1380 C1383 1.511 . S
C1381 C1377 1.376 . S
C1381 C1380 1.392 . S
C1381 H1393 0.929 . S
C1382 C1378 1.531 . S
C1382 H1394 0.960 . S
C1382 H1395 0.962 . S
C1382 H1396 0.960 . S
C1383 C1380 1.511 . S
C1383 H1397 0.961 . S
C1383 H1398 0.961 . S
C1383 H1399 0.961 . S
C1384 C1385 1.370 . S
C1384 C1386 1.363 . S
C1384 H1400 0.931 . S
C1385 C1384 1.370 . S
C1385 C1389 1.408 . S
C1386 C1384 1.363 . S
C1386 C1387 1.370 . S
C1386 C1390 1.524 . S
C1387 C1379 1.503 . S
C1387 C1386 1.370 . S
C1387 C1388 1.403 . S
C1388 C1387 1.403 . S
C1388 C1389 1.404 . S
C1388 C1391 1.539 . S
C1389 C1385 1.408 . S
C1389 C1388 1.404 . S
C1389 H1401 0.930 . S
C1390 C1386 1.524 . S
C1390 H1402 0.956 . S
C1390 H1403 0.961 . S
C1390 H1404 0.961 . S
C1391 C1388 1.539 . S
C1391 H1405 0.958 . S
C1391 H1406 0.961 . S
C1391 H1407 0.960 . S
H1392 C1376 0.931 . S
H1393 C1381 0.929 . S
H1394 C1382 0.960 . S
H1395 C1382 0.962 . S
H1396 C1382 0.960 . S
H1397 C1383 0.961 . S
H1398 C1383 0.961 . S
H1399 C1383 0.961 . S
H1400 C1384 0.931 . S
H1401 C1389 0.930 . S
H1402 C1390 0.956 . S
H1403 C1390 0.961 . S
H1404 C1390 0.961 . S
H1405 C1391 0.958 . S
H1406 C1391 0.961 . S
H1407 C1391 0.960 . S
C1408 C1409 1.391 . S
C1408 C1410 1.394 . S
C1408 H1424 0.931 . S
C1409 C1408 1.391 . S
C1409 C1413 1.376 . S
C1410 C1408 1.394 . S
C1410 C1411 1.369 . S
C1410 C1414 1.531 . S
C1411 C1410 1.369 . S
C1411 C1412 1.410 . S
C1411 C1419 1.503 . S
C1412 C1411 1.410 . S
C1412 C1413 1.392 . S
C1412 C1415 1.511 . S
C1413 C1409 1.376 . S
C1413 C1412 1.392 . S
C1413 H1425 0.929 . S
C1414 C1410 1.531 . S
C1414 H1426 0.960 . S
C1414 H1427 0.962 . S
C1414 H1428 0.960 . S
C1415 C1412 1.511 . S
C1415 H1429 0.961 . S
C1415 H1430 0.961 . S
C1415 H1431 0.961 . S
C1416 C1417 1.370 . S
C1416 C1418 1.363 . S
C1416 H1432 0.931 . S
C1417 C1416 1.370 . S
C1417 C1421 1.408 . S
C1418 C1416 1.363 . S
C1418 C1419 1.370 . S
C1418 C1422 1.524 . S
C1419 C1411 1.503 . S
C1419 C1418 1.370 . S
C1419 C1420 1.403 . S
C1420 C1419 1.403 . S
C1420 C1421 1.404 . S
C1420 C1423 1.539 . S
C1421 C1417 1.408 . S
C1421 C1420 1.404 . S
C1421 H1433 0.930 . S
C1422 C1418 1.524 . S
C1422 H1434 0.956 . S
C1422 H1435 0.961 . S
C1422 H1436 0.961 . S
C1423 C1420 1.539 . S
C1423 H1437 0.958 . S
C1423 H1438 0.961 . S
C1423 H1439 0.960 . S
H1424 C1408 0.931 . S
H1425 C1413 0.929 . S
H1426 C1414 0.960 . S
H1427 C1414 0.962 . S
H1428 C1414 0.960 . S
H1429 C1415 0.961 . S
H1430 C1415 0.961 . S
H1431 C1415 0.961 . S
H1432 C1416 0.931 . S
H1433 C1421 0.930 . S
H1434 C1422 0.956 . S
H1435 C1422 0.961 . S
H1436 C1422 0.961 . S
H1437 C1423 0.958 . S
H1438 C1423 0.961 . S
H1439 C1423 0.960 . S
C1440 C1441 1.391 . S
C1440 C1442 1.394 . S
C1440 H1456 0.931 . S
C1441 C1440 1.391 . S
C1441 C1445 1.376 . S
C1442 C1440 1.394 . S
C1442 C1443 1.369 . S
C1442 C1446 1.531 . S
C1443 C1442 1.369 . S
C1443 C1444 1.410 . S
C1443 C1451 1.503 1_556 S
C1444 C1443 1.410 . S
C1444 C1445 1.392 . S
C1444 C1447 1.511 . S
C1445 C1441 1.376 . S
C1445 C1444 1.392 . S
C1445 H1457 0.929 . S
C1446 C1442 1.531 . S
C1446 H1458 0.960 1_556 S
C1446 H1459 0.962 . S
C1446 H1460 0.960 . S
C1447 C1444 1.511 . S
C1447 H1461 0.961 . S
C1447 H1462 0.961 1_556 S
C1447 H1463 0.961 1_556 S
C1448 C1449 1.370 . S
C1448 C1450 1.363 . S
C1448 H1464 0.931 . S
C1449 C1448 1.370 . S
C1449 C1453 1.408 . S
C1450 C1448 1.363 . S
C1450 C1451 1.370 . S
C1450 C1454 1.524 1_554 S
C1451 C1443 1.503 1_554 S
C1451 C1450 1.370 . S
C1451 C1452 1.403 . S
C1452 C1451 1.403 . S
C1452 C1453 1.404 . S
C1452 C1455 1.539 . S
C1453 C1449 1.408 . S
C1453 C1452 1.404 . S
C1453 H1465 0.930 . S
C1454 C1450 1.524 1_556 S
C1454 H1466 0.956 . S
C1454 H1467 0.961 . S
C1454 H1468 0.961 . S
C1455 C1452 1.539 . S
C1455 H1469 0.958 . S
C1455 H1470 0.961 . S
C1455 H1471 0.960 . S
H1456 C1440 0.931 . S
H1457 C1445 0.929 . S
H1458 C1446 0.960 1_554 S
H1459 C1446 0.962 . S
H1460 C1446 0.960 . S
H1461 C1447 0.961 . S
H1462 C1447 0.961 1_554 S
H1463 C1447 0.961 1_554 S
H1464 C1448 0.931 . S
H1465 C1453 0.930 . S
H1466 C1454 0.956 . S
H1467 C1454 0.961 . S
H1468 C1454 0.961 . S
H1469 C1455 0.958 . S
H1470 C1455 0.961 . S
H1471 C1455 0.960 . S
C1472 C1473 1.391 . S
C1472 C1474 1.394 . S
C1472 H1488 0.931 . S
C1473 C1472 1.391 . S
C1473 C1477 1.376 . S
C1474 C1472 1.394 . S
C1474 C1475 1.369 . S
C1474 C1478 1.531 . S
C1475 C1474 1.369 . S
C1475 C1476 1.410 . S
C1475 C1483 1.503 1_655 S
C1476 C1475 1.410 . S
C1476 C1477 1.392 . S
C1476 C1479 1.511 1_655 S
C1477 C1473 1.376 . S
C1477 C1476 1.392 . S
C1477 H1489 0.929 . S
C1478 C1474 1.531 . S
C1478 H1490 0.960 . S
C1478 H1491 0.962 . S
C1478 H1492 0.960 . S
C1479 C1476 1.511 1_455 S
C1479 H1493 0.961 . S
C1479 H1494 0.961 . S
C1479 H1495 0.961 . S
C1480 C1481 1.370 . S
C1480 C1482 1.363 . S
C1480 H1496 0.931 . S
C1481 C1480 1.370 . S
C1481 C1485 1.408 . S
C1482 C1480 1.363 . S
C1482 C1483 1.370 . S
C1482 C1486 1.524 . S
C1483 C1475 1.503 1_455 S
C1483 C1482 1.370 . S
C1483 C1484 1.403 1_455 S
C1484 C1483 1.403 1_655 S
C1484 C1485 1.404 1_655 S
C1484 C1487 1.539 . S
C1485 C1481 1.408 . S
C1485 C1484 1.404 1_455 S
C1485 H1497 0.930 . S
C1486 C1482 1.524 . S
C1486 H1498 0.956 . S
C1486 H1499 0.961 . S
C1486 H1500 0.961 . S
C1487 C1484 1.539 . S
C1487 H1501 0.958 . S
C1487 H1502 0.961 . S
C1487 H1503 0.960 . S
H1488 C1472 0.931 . S
H1489 C1477 0.929 . S
H1490 C1478 0.960 . S
H1491 C1478 0.962 . S
H1492 C1478 0.960 . S
H1493 C1479 0.961 . S
H1494 C1479 0.961 . S
H1495 C1479 0.961 . S
H1496 C1480 0.931 . S
H1497 C1485 0.930 . S
H1498 C1486 0.956 . S
H1499 C1486 0.961 . S
H1500 C1486 0.961 . S
H1501 C1487 0.958 . S
H1502 C1487 0.961 . S
H1503 C1487 0.960 . S
C1504 C1505 1.391 . S
C1504 C1506 1.394 . S
C1504 H1520 0.931 . S
C1505 C1504 1.391 . S
C1505 C1509 1.376 . S
C1506 C1504 1.394 . S
C1506 C1507 1.369 . S
C1506 C1510 1.531 1_554 S
C1507 C1506 1.369 . S
C1507 C1508 1.410 . S
C1507 C1515 1.503 1_454 S
C1508 C1507 1.410 . S
C1508 C1509 1.392 . S
C1508 C1511 1.511 1_455 S
C1509 C1505 1.376 . S
C1509 C1508 1.392 . S
C1509 H1521 0.929 . S
C1510 C1506 1.531 1_556 S
C1510 H1522 0.960 . S
C1510 H1523 0.962 . S
C1510 H1524 0.960 . S
C1511 C1508 1.511 1_655 S
C1511 H1525 0.961 . S
C1511 H1526 0.961 . S
C1511 H1527 0.961 1_655 S
C1512 C1513 1.370 . S
C1512 C1514 1.363 . S
C1512 H1528 0.931 . S
C1513 C1512 1.370 . S
C1513 C1517 1.408 . S
C1514 C1512 1.363 . S
C1514 C1515 1.370 . S
C1514 C1518 1.524 1_556 S
C1515 C1507 1.503 1_656 S
C1515 C1514 1.370 . S
C1515 C1516 1.403 1_655 S
C1516 C1515 1.403 1_455 S
C1516 C1517 1.404 1_455 S
C1516 C1519 1.539 . S
C1517 C1513 1.408 . S
C1517 C1516 1.404 1_655 S
C1517 H1529 0.930 1_655 S
C1518 C1514 1.524 1_554 S
C1518 H1530 0.956 . S
C1518 H1531 0.961 . S
C1518 H1532 0.970 . S
C1519 C1516 1.539 . S
C1519 H1533 0.958 . S
C1519 H1534 0.961 . S
C1519 H1535 0.960 . S
H1520 C1504 0.931 . S
H1521 C1509 0.929 . S
H1522 C1510 0.960 . S
H1523 C1510 0.962 . S
H1524 C1510 0.960 . S
H1525 C1511 0.961 . S
H1526 C1511 0.961 . S
H1527 C1511 0.961 1_455 S
H1528 C1512 0.931 . S
H1529 C1517 0.930 1_455 S
H1530 C1518 0.956 . S
H1531 C1518 0.961 . S
H1532 C1518 0.970 . S
H1533 C1519 0.958 . S
H1534 C1519 0.961 . S
H1535 C1519 0.960 . S
C1536 C1537 1.391 . S
C1536 C1538 1.394 . S
C1536 H1552 0.931 . S
C1537 C1536 1.391 . S
C1537 C1541 1.376 . S
C1538 C1536 1.394 . S
C1538 C1539 1.369 . S
C1538 C1542 1.531 . S
C1539 C1538 1.369 . S
C1539 C1540 1.410 . S
C1539 C1547 1.503 . S
C1540 C1539 1.410 . S
C1540 C1541 1.392 . S
C1540 C1543 1.511 . S
C1541 C1537 1.376 . S
C1541 C1540 1.392 . S
C1541 H1553 0.929 . S
C1542 C1538 1.531 . S
C1542 H1554 0.960 . S
C1542 H1555 0.962 . S
C1542 H1556 0.960 . S
C1543 C1540 1.511 . S
C1543 H1557 0.961 . S
C1543 H1558 0.961 . S
C1543 H1559 0.961 . S
C1544 C1545 1.370 . S
C1544 C1546 1.363 . S
C1544 H1560 0.931 . S
C1545 C1544 1.370 . S
C1545 C1549 1.408 . S
C1546 C1544 1.363 . S
C1546 C1547 1.370 . S
C1546 C1550 1.524 . S
C1547 C1539 1.503 . S
C1547 C1546 1.370 . S
C1547 C1548 1.403 . S
C1548 C1547 1.403 . S
C1548 C1549 1.404 . S
C1548 C1551 1.539 . S
C1549 C1545 1.408 . S
C1549 C1548 1.404 . S
C1549 H1561 0.930 . S
C1550 C1546 1.524 . S
C1550 H1562 0.956 . S
C1550 H1563 0.961 . S
C1550 H1564 0.961 . S
C1551 C1548 1.539 . S
C1551 H1565 0.958 . S
C1551 H1566 0.961 . S
C1551 H1567 0.960 . S
H1552 C1536 0.931 . S
H1553 C1541 0.929 . S
H1554 C1542 0.960 . S
H1555 C1542 0.962 . S
H1556 C1542 0.960 . S
H1557 C1543 0.961 . S
H1558 C1543 0.961 . S
H1559 C1543 0.961 . S
H1560 C1544 0.931 . S
H1561 C1549 0.930 . S
H1562 C1550 0.956 . S
H1563 C1550 0.961 . S
H1564 C1550 0.961 . S
H1565 C1551 0.958 . S
H1566 C1551 0.961 . S
H1567 C1551 0.960 . S
C1568 C1569 1.391 . S
C1568 C1570 1.394 . S
C1568 H1584 0.931 . S
C1569 C1568 1.391 . S
C1569 C1573 1.376 . S
C1570 C1568 1.394 . S
C1570 C1571 1.369 . S
C1570 C1574 1.531 . S
C1571 C1570 1.369 . S
C1571 C1572 1.410 . S
C1571 C1579 1.503 . S
C1572 C1571 1.410 . S
C1572 C1573 1.392 . S
C1572 C1575 1.511 . S
C1573 C1569 1.376 . S
C1573 C1572 1.392 . S
C1573 H1585 0.929 . S
C1574 C1570 1.531 . S
C1574 H1586 0.960 . S
C1574 H1587 0.962 . S
C1574 H1588 0.960 . S
C1575 C1572 1.511 . S
C1575 H1589 0.961 . S
C1575 H1590 0.961 . S
C1575 H1591 0.961 . S
C1576 C1577 1.370 . S
C1576 C1578 1.363 . S
C1576 H1592 0.931 . S
C1577 C1576 1.370 . S
C1577 C1581 1.408 . S
C1578 C1576 1.363 . S
C1578 C1579 1.370 . S
C1578 C1582 1.524 . S
C1579 C1571 1.503 . S
C1579 C1578 1.370 . S
C1579 C1580 1.403 . S
C1580 C1579 1.403 . S
C1580 C1581 1.404 . S
C1580 C1583 1.539 . S
C1581 C1577 1.408 . S
C1581 C1580 1.404 . S
C1581 H1593 0.930 . S
C1582 C1578 1.524 . S
C1582 H1594 0.956 . S
C1582 H1595 0.961 . S
C1582 H1596 0.961 . S
C1583 C1580 1.539 . S
C1583 H1597 0.958 . S
C1583 H1598 0.961 . S
C1583 H1599 0.960 . S
H1584 C1568 0.931 . S
H1585 C1573 0.929 . S
H1586 C1574 0.960 . S
H1587 C1574 0.962 . S
H1588 C1574 0.960 . S
H1589 C1575 0.961 . S
H1590 C1575 0.961 . S
H1591 C1575 0.961 . S
H1592 C1576 0.931 . S
H1593 C1581 0.930 . S
H1594 C1582 0.956 . S
H1595 C1582 0.961 . S
H1596 C1582 0.961 . S
H1597 C1583 0.958 . S
H1598 C1583 0.961 . S
H1599 C1583 0.960 . S
C1600 C1601 1.391 . S
C1600 C1602 1.394 . S
C1600 H1616 0.931 . S
C1601 C1600 1.391 . S
C1601 C1605 1.376 . S
C1602 C1600 1.394 . S
C1602 C1603 1.369 . S
C1602 C1606 1.531 . S
C1603 C1602 1.369 . S
C1603 C1604 1.410 . S
C1603 C1611 1.503 . S
C1604 C1603 1.410 . S
C1604 C1605 1.392 . S
C1604 C1607 1.511 . S
C1605 C1601 1.376 . S
C1605 C1604 1.392 . S
C1605 H1617 0.929 . S
C1606 C1602 1.531 . S
C1606 H1618 0.960 . S
C1606 H1619 0.962 . S
C1606 H1620 0.960 . S
C1607 C1604 1.511 . S
C1607 H1621 0.961 . S
C1607 H1622 0.961 . S
C1607 H1623 0.961 . S
C1608 C1609 1.370 . S
C1608 C1610 1.363 . S
C1608 H1624 0.931 . S
C1609 C1608 1.370 . S
C1609 C1613 1.408 . S
C1610 C1608 1.363 . S
C1610 C1611 1.370 . S
C1610 C1614 1.524 . S
C1611 C1603 1.503 . S
C1611 C1610 1.370 . S
C1611 C1612 1.403 . S
C1612 C1611 1.403 . S
C1612 C1613 1.404 . S
C1612 C1615 1.539 . S
C1613 C1609 1.408 . S
C1613 C1612 1.404 . S
C1613 H1625 0.930 . S
C1614 C1610 1.524 . S
C1614 H1626 0.956 . S
C1614 H1627 0.961 . S
C1614 H1628 0.961 . S
C1615 C1612 1.539 . S
C1615 H1629 0.958 . S
C1615 H1630 0.961 . S
C1615 H1631 0.960 . S
H1616 C1600 0.931 . S
H1617 C1605 0.929 . S
H1618 C1606 0.960 . S
H1619 C1606 0.962 . S
H1620 C1606 0.960 . S
H1621 C1607 0.961 . S
H1622 C1607 0.961 . S
H1623 C1607 0.961 . S
H1624 C1608 0.931 . S
H1625 C1613 0.930 . S
H1626 C1614 0.956 . S
H1627 C1614 0.961 . S
H1628 C1614 0.961 . S
H1629 C1615 0.958 . S
H1630 C1615 0.961 . S
H1631 C1615 0.960 . S
C1632 C1633 1.391 . S
C1632 C1634 1.394 . S
C1632 H1648 0.931 . S
C1633 C1632 1.391 . S
C1633 C1637 1.376 . S
C1634 C1632 1.394 . S
C1634 C1635 1.369 . S
C1634 C1638 1.531 . S
C1635 C1634 1.369 . S
C1635 C1636 1.410 . S
C1635 C1643 1.503 . S
C1636 C1635 1.410 . S
C1636 C1637 1.392 . S
C1636 C1639 1.511 . S
C1637 C1633 1.376 . S
C1637 C1636 1.392 . S
C1637 H1649 0.929 . S
C1638 C1634 1.531 . S
C1638 H1650 0.960 . S
C1638 H1651 0.962 . S
C1638 H1652 0.960 . S
C1639 C1636 1.511 . S
C1639 H1653 0.961 . S
C1639 H1654 0.961 . S
C1639 H1655 0.961 . S
C1640 C1641 1.370 . S
C1640 C1642 1.363 . S
C1640 H1656 0.931 . S
C1641 C1640 1.370 . S
C1641 C1645 1.408 . S
C1642 C1640 1.363 . S
C1642 C1643 1.370 . S
C1642 C1646 1.524 . S
C1643 C1635 1.503 . S
C1643 C1642 1.370 . S
C1643 C1644 1.403 . S
C1644 C1643 1.403 . S
C1644 C1645 1.404 . S
C1644 C1647 1.539 . S
C1645 C1641 1.408 . S
C1645 C1644 1.404 . S
C1645 H1657 0.930 . S
C1646 C1642 1.524 . S
C1646 H1658 0.956 . S
C1646 H1659 0.961 . S
C1646 H1660 0.961 . S
C1647 C1644 1.539 . S
C1647 H1661 0.958 . S
C1647 H1662 0.961 . S
C1647 H1663 0.960 . S
H1648 C1632 0.931 . S
H1649 C1637 0.929 . S
H1650 C1638 0.960 . S
H1651 C1638 0.962 . S
H1652 C1638 0.960 . S
H1653 C1639 0.961 . S
H1654 C1639 0.961 . S
H1655 C1639 0.961 . S
H1656 C1640 0.931 . S
H1657 C1645 0.930 . S
H1658 C1646 0.956 . S
H1659 C1646 0.961 . S
H1660 C1646 0.961 . S
H1661 C1647 0.958 . S
H1662 C1647 0.961 . S
H1663 C1647 0.960 . S
C1664 C1665 1.391 . S
C1664 C1666 1.394 . S
C1664 H1680 0.931 . S
C1665 C1664 1.391 . S
C1665 C1669 1.376 . S
C1666 C1664 1.394 . S
C1666 C1667 1.369 . S
C1666 C1670 1.531 . S
C1667 C1666 1.369 . S
C1667 C1668 1.410 . S
C1667 C1675 1.503 . S
C1668 C1667 1.410 . S
C1668 C1669 1.392 . S
C1668 C1671 1.511 . S
C1669 C1665 1.376 . S
C1669 C1668 1.392 . S
C1669 H1681 0.929 . S
C1670 C1666 1.531 . S
C1670 H1682 0.960 . S
C1670 H1683 0.962 . S
C1670 H1684 0.960 . S
C1671 C1668 1.511 . S
C1671 H1685 0.961 . S
C1671 H1686 0.961 . S
C1671 H1687 0.961 . S
C1672 C1673 1.370 . S
C1672 C1674 1.363 . S
C1672 H1688 0.931 . S
C1673 C1672 1.370 . S
C1673 C1677 1.408 . S
C1674 C1672 1.363 . S
C1674 C1675 1.370 . S
C1674 C1678 1.524 . S
C1675 C1667 1.503 . S
C1675 C1674 1.370 . S
C1675 C1676 1.403 . S
C1676 C1675 1.403 . S
C1676 C1677 1.404 . S
C1676 C1679 1.539 . S
C1677 C1673 1.408 . S
C1677 C1676 1.404 . S
C1677 H1689 0.930 . S
C1678 C1674 1.524 . S
C1678 H1690 0.956 . S
C1678 H1691 0.961 . S
C1678 H1692 0.961 . S
C1679 C1676 1.539 . S
C1679 H1693 0.958 . S
C1679 H1694 0.961 . S
C1679 H1695 0.960 . S
H1680 C1664 0.931 . S
H1681 C1669 0.929 . S
H1682 C1670 0.960 . S
H1683 C1670 0.962 . S
H1684 C1670 0.960 . S
H1685 C1671 0.961 . S
H1686 C1671 0.961 . S
H1687 C1671 0.961 . S
H1688 C1672 0.931 . S
H1689 C1677 0.930 . S
H1690 C1678 0.956 . S
H1691 C1678 0.961 . S
H1692 C1678 0.961 . S
H1693 C1679 0.958 . S
H1694 C1679 0.961 . S
H1695 C1679 0.960 . S
C1696 C1697 1.391 . S
C1696 C1698 1.394 . S
C1696 H1712 0.931 . S
C1697 C1696 1.391 . S
C1697 C1701 1.376 . S
C1698 C1696 1.394 . S
C1698 C1699 1.369 . S
C1698 C1702 1.531 . S
C1699 C1698 1.369 . S
C1699 C1700 1.410 . S
C1699 C1707 1.503 . S
C1700 C1699 1.410 . S
C1700 C1701 1.392 . S
C1700 C1703 1.511 . S
C1701 C1697 1.376 . S
C1701 C1700 1.392 . S
C1701 H1713 0.929 . S
C1702 C1698 1.531 . S
C1702 H1714 0.960 . S
C1702 H1715 0.962 . S
C1702 H1716 0.960 . S
C1703 C1700 1.511 . S
C1703 H1717 0.961 . S
C1703 H1718 0.961 . S
C1703 H1719 0.961 . S
C1704 C1705 1.370 . S
C1704 C1706 1.363 . S
C1704 H1720 0.931 . S
C1705 C1704 1.370 . S
C1705 C1709 1.408 . S
C1706 C1704 1.363 . S
C1706 C1707 1.370 . S
C1706 C1710 1.524 . S
C1707 C1699 1.503 . S
C1707 C1706 1.370 . S
C1707 C1708 1.403 . S
C1708 C1707 1.403 . S
C1708 C1709 1.404 . S
C1708 C1711 1.539 . S
C1709 C1705 1.408 . S
C1709 C1708 1.404 . S
C1709 H1721 0.930 . S
C1710 C1706 1.524 . S
C1710 H1722 0.956 . S
C1710 H1723 0.961 . S
C1710 H1724 0.961 . S
C1711 C1708 1.539 . S
C1711 H1725 0.958 . S
C1711 H1726 0.961 . S
C1711 H1727 0.960 . S
H1712 C1696 0.931 . S
H1713 C1701 0.929 . S
H1714 C1702 0.960 . S
H1715 C1702 0.962 . S
H1716 C1702 0.960 . S
H1717 C1703 0.961 . S
H1718 C1703 0.961 . S
H1719 C1703 0.961 . S
H1720 C1704 0.931 . S
H1721 C1709 0.930 . S
H1722 C1710 0.956 . S
H1723 C1710 0.961 . S
H1724 C1710 0.961 . S
H1725 C1711 0.958 . S
H1726 C1711 0.961 . S
H1727 C1711 0.960 . S
C1728 C1729 1.391 . S
C1728 C1730 1.394 . S
C1728 H1744 0.931 . S
C1729 C1728 1.391 . S
C1729 C1733 1.376 . S
C1730 C1728 1.394 . S
C1730 C1731 1.369 . S
C1730 C1734 1.531 . S
C1731 C1730 1.369 . S
C1731 C1732 1.410 . S
C1731 C1739 1.503 . S
C1732 C1731 1.410 . S
C1732 C1733 1.392 . S
C1732 C1735 1.511 . S
C1733 C1729 1.376 . S
C1733 C1732 1.392 . S
C1733 H1745 0.929 . S
C1734 C1730 1.531 . S
C1734 H1746 0.960 . S
C1734 H1747 0.962 . S
C1734 H1748 0.960 . S
C1735 C1732 1.511 . S
C1735 H1749 0.961 . S
C1735 H1750 0.961 . S
C1735 H1751 0.961 . S
C1736 C1737 1.370 . S
C1736 C1738 1.363 . S
C1736 H1752 0.931 . S
C1737 C1736 1.370 . S
C1737 C1741 1.408 . S
C1738 C1736 1.363 . S
C1738 C1739 1.370 . S
C1738 C1742 1.524 . S
C1739 C1731 1.503 . S
C1739 C1738 1.370 . S
C1739 C1740 1.403 . S
C1740 C1739 1.403 . S
C1740 C1741 1.404 . S
C1740 C1743 1.539 . S
C1741 C1737 1.408 . S
C1741 C1740 1.404 . S
C1741 H1753 0.930 . S
C1742 C1738 1.524 . S
C1742 H1754 0.956 . S
C1742 H1755 0.961 . S
C1742 H1756 0.961 . S
C1743 C1740 1.539 . S
C1743 H1757 0.958 . S
C1743 H1758 0.961 . S
C1743 H1759 0.960 . S
H1744 C1728 0.931 . S
H1745 C1733 0.929 . S
H1746 C1734 0.960 . S
H1747 C1734 0.962 . S
H1748 C1734 0.960 . S
H1749 C1735 0.961 . S
H1750 C1735 0.961 . S
H1751 C1735 0.961 . S
H1752 C1736 0.931 . S
H1753 C1741 0.930 . S
H1754 C1742 0.956 . S
H1755 C1742 0.961 . S
H1756 C1742 0.961 . S
H1757 C1743 0.958 . S
H1758 C1743 0.961 . S
H1759 C1743 0.960 . S
C1760 C1761 1.391 . S
C1760 C1762 1.394 . S
C1760 H1776 0.931 . S
C1761 C1760 1.391 . S
C1761 C1765 1.376 . S
C1762 C1760 1.394 . S
C1762 C1763 1.369 . S
C1762 C1766 1.531 . S
C1763 C1762 1.369 . S
C1763 C1764 1.410 . S
C1763 C1771 1.503 . S
C1764 C1763 1.410 . S
C1764 C1765 1.392 . S
C1764 C1767 1.511 . S
C1765 C1761 1.376 . S
C1765 C1764 1.392 . S
C1765 H1777 0.929 . S
C1766 C1762 1.531 . S
C1766 H1778 0.960 . S
C1766 H1779 0.962 . S
C1766 H1780 0.960 . S
C1767 C1764 1.511 . S
C1767 H1781 0.961 . S
C1767 H1782 0.961 . S
C1767 H1783 0.961 . S
C1768 C1769 1.370 . S
C1768 C1770 1.363 . S
C1768 H1784 0.931 . S
C1769 C1768 1.370 . S
C1769 C1773 1.408 . S
C1770 C1768 1.363 . S
C1770 C1771 1.370 . S
C1770 C1774 1.524 . S
C1771 C1763 1.503 . S
C1771 C1770 1.370 . S
C1771 C1772 1.403 . S
C1772 C1771 1.403 . S
C1772 C1773 1.404 . S
C1772 C1775 1.539 . S
C1773 C1769 1.408 . S
C1773 C1772 1.404 . S
C1773 H1785 0.930 . S
C1774 C1770 1.524 . S
C1774 H1786 0.956 . S
C1774 H1787 0.961 . S
C1774 H1788 0.961 . S
C1775 C1772 1.539 . S
C1775 H1789 0.958 . S
C1775 H1790 0.961 . S
C1775 H1791 0.960 . S
H1776 C1760 0.931 . S
H1777 C1765 0.929 . S
H1778 C1766 0.960 . S
H1779 C1766 0.962 . S
H1780 C1766 0.960 . S
H1781 C1767 0.961 . S
H1782 C1767 0.961 . S
H1783 C1767 0.961 . S
H1784 C1768 0.931 . S
H1785 C1773 0.930 . S
H1786 C1774 0.956 . S
H1787 C1774 0.961 . S
H1788 C1774 0.961 . S
H1789 C1775 0.958 . S
H1790 C1775 0.961 . S
H1791 C1775 0.960 . S
C1792 C1793 1.391 . S
C1792 C1794 1.394 . S
C1792 H1808 0.931 . S
C1793 C1792 1.391 . S
C1793 C1797 1.376 . S
C1794 C1792 1.394 . S
C1794 C1795 1.369 . S
C1794 C1798 1.531 . S
C1795 C1794 1.369 . S
C1795 C1796 1.410 . S
C1795 C1803 1.503 . S
C1796 C1795 1.410 . S
C1796 C1797 1.392 . S
C1796 C1799 1.511 . S
C1797 C1793 1.376 . S
C1797 C1796 1.392 . S
C1797 H1809 0.929 . S
C1798 C1794 1.531 . S
C1798 H1810 0.960 . S
C1798 H1811 0.962 . S
C1798 H1812 0.960 . S
C1799 C1796 1.511 . S
C1799 H1813 0.961 . S
C1799 H1814 0.961 . S
C1799 H1815 0.961 . S
C1800 C1801 1.370 . S
C1800 C1802 1.363 . S
C1800 H1816 0.931 . S
C1801 C1800 1.370 . S
C1801 C1805 1.408 . S
C1802 C1800 1.363 . S
C1802 C1803 1.370 . S
C1802 C1806 1.524 . S
C1803 C1795 1.503 . S
C1803 C1802 1.370 . S
C1803 C1804 1.403 . S
C1804 C1803 1.403 . S
C1804 C1805 1.404 . S
C1804 C1807 1.539 . S
C1805 C1801 1.408 . S
C1805 C1804 1.404 . S
C1805 H1817 0.930 . S
C1806 C1802 1.524 . S
C1806 H1818 0.956 . S
C1806 H1819 0.961 . S
C1806 H1820 0.961 . S
C1807 C1804 1.539 . S
C1807 H1821 0.958 . S
C1807 H1822 0.961 . S
C1807 H1823 0.960 . S
H1808 C1792 0.931 . S
H1809 C1797 0.929 . S
H1810 C1798 0.960 . S
H1811 C1798 0.962 . S
H1812 C1798 0.960 . S
H1813 C1799 0.961 . S
H1814 C1799 0.961 . S
H1815 C1799 0.961 . S
H1816 C1800 0.931 . S
H1817 C1805 0.930 . S
H1818 C1806 0.956 . S
H1819 C1806 0.961 . S
H1820 C1806 0.961 . S
H1821 C1807 0.958 . S
H1822 C1807 0.961 . S
H1823 C1807 0.960 . S
C1824 C1825 1.391 . S
C1824 C1826 1.394 . S
C1824 H1840 0.931 . S
C1825 C1824 1.391 . S
C1825 C1829 1.376 . S
C1826 C1824 1.394 . S
C1826 C1827 1.369 . S
C1826 C1830 1.531 . S
C1827 C1826 1.369 . S
C1827 C1828 1.410 . S
C1827 C1835 1.503 . S
C1828 C1827 1.410 . S
C1828 C1829 1.392 . S
C1828 C1831 1.511 . S
C1829 C1825 1.376 . S
C1829 C1828 1.392 . S
C1829 H1841 0.929 . S
C1830 C1826 1.531 . S
C1830 H1842 0.960 . S
C1830 H1843 0.962 . S
C1830 H1844 0.960 . S
C1831 C1828 1.511 . S
C1831 H1845 0.961 . S
C1831 H1846 0.961 . S
C1831 H1847 0.961 . S
C1832 C1833 1.370 . S
C1832 C1834 1.363 . S
C1832 H1848 0.931 . S
C1833 C1832 1.370 . S
C1833 C1837 1.408 . S
C1834 C1832 1.363 . S
C1834 C1835 1.370 . S
C1834 C1838 1.524 . S
C1835 C1827 1.503 . S
C1835 C1834 1.370 . S
C1835 C1836 1.403 . S
C1836 C1835 1.403 . S
C1836 C1837 1.404 . S
C1836 C1839 1.539 . S
C1837 C1833 1.408 . S
C1837 C1836 1.404 . S
C1837 H1849 0.930 . S
C1838 C1834 1.524 . S
C1838 H1850 0.956 . S
C1838 H1851 0.961 . S
C1838 H1852 0.961 . S
C1839 C1836 1.539 . S
C1839 H1853 0.958 . S
C1839 H1854 0.961 . S
C1839 H1855 0.960 . S
H1840 C1824 0.931 . S
H1841 C1829 0.929 . S
H1842 C1830 0.960 . S
H1843 C1830 0.962 . S
H1844 C1830 0.960 . S
H1845 C1831 0.961 . S
H1846 C1831 0.961 . S
H1847 C1831 0.961 . S
H1848 C1832 0.931 . S
H1849 C1837 0.930 . S
H1850 C1838 0.956 . S
H1851 C1838 0.961 . S
H1852 C1838 0.961 . S
H1853 C1839 0.958 . S
H1854 C1839 0.961 . S
H1855 C1839 0.960 . S
C1856 C1857 1.391 . S
C1856 C1858 1.394 . S
C1856 H1872 0.931 . S
C1857 C1856 1.391 . S
C1857 C1861 1.376 . S
C1858 C1856 1.394 . S
C1858 C1859 1.369 . S
C1858 C1862 1.531 . S
C1859 C1858 1.369 . S
C1859 C1860 1.410 . S
C1859 C1867 1.503 . S
C1860 C1859 1.410 . S
C1860 C1861 1.392 . S
C1860 C1863 1.511 . S
C1861 C1857 1.376 . S
C1861 C1860 1.392 . S
C1861 H1873 0.929 . S
C1862 C1858 1.531 . S
C1862 H1874 0.960 . S
C1862 H1875 0.962 . S
C1862 H1876 0.960 . S
C1863 C1860 1.511 . S
C1863 H1877 0.961 . S
C1863 H1878 0.961 . S
C1863 H1879 0.961 . S
C1864 C1865 1.370 . S
C1864 C1866 1.363 . S
C1864 H1880 0.931 . S
C1865 C1864 1.370 . S
C1865 C1869 1.408 . S
C1866 C1864 1.363 . S
C1866 C1867 1.370 . S
C1866 C1870 1.524 . S
C1867 C1859 1.503 . S
C1867 C1866 1.370 . S
C1867 C1868 1.403 . S
C1868 C1867 1.403 . S
C1868 C1869 1.404 . S
C1868 C1871 1.539 . S
C1869 C1865 1.408 . S
C1869 C1868 1.404 . S
C1869 H1881 0.930 . S
C1870 C1866 1.524 . S
C1870 H1882 0.956 . S
C1870 H1883 0.961 . S
C1870 H1884 0.961 . S
C1871 C1868 1.539 . S
C1871 H1885 0.958 . S
C1871 H1886 0.961 . S
C1871 H1887 0.960 . S
H1872 C1856 0.931 . S
H1873 C1861 0.929 . S
H1874 C1862 0.960 . S
H1875 C1862 0.962 . S
H1876 C1862 0.960 . S
H1877 C1863 0.961 . S
H1878 C1863 0.961 . S
H1879 C1863 0.961 . S
H1880 C1864 0.931 . S
H1881 C1869 0.930 . S
H1882 C1870 0.956 . S
H1883 C1870 0.961 . S
H1884 C1870 0.961 . S
H1885 C1871 0.958 . S
H1886 C1871 0.961 . S
H1887 C1871 0.960 . S
C1888 C1889 1.391 . S
C1888 C1890 1.394 . S
C1888 H1904 0.931 . S
C1889 C1888 1.391 . S
C1889 C1893 1.376 . S
C1890 C1888 1.394 . S
C1890 C1891 1.369 . S
C1890 C1894 1.531 . S
C1891 C1890 1.369 . S
C1891 C1892 1.410 . S
C1891 C1899 1.503 . S
C1892 C1891 1.410 . S
C1892 C1893 1.392 . S
C1892 C1895 1.511 . S
C1893 C1889 1.376 . S
C1893 C1892 1.392 . S
C1893 H1905 0.929 . S
C1894 C1890 1.531 . S
C1894 H1906 0.960 . S
C1894 H1907 0.962 . S
C1894 H1908 0.960 . S
C1895 C1892 1.511 . S
C1895 H1909 0.961 . S
C1895 H1910 0.961 . S
C1895 H1911 0.961 . S
C1896 C1897 1.370 . S
C1896 C1898 1.363 . S
C1896 H1912 0.931 . S
C1897 C1896 1.370 . S
C1897 C1901 1.408 . S
C1898 C1896 1.363 . S
C1898 C1899 1.370 . S
C1898 C1902 1.524 . S
C1899 C1891 1.503 . S
C1899 C1898 1.370 . S
C1899 C1900 1.403 . S
C1900 C1899 1.403 . S
C1900 C1901 1.404 . S
C1900 C1903 1.539 . S
C1901 C1897 1.408 . S
C1901 C1900 1.404 . S
C1901 H1913 0.930 . S
C1902 C1898 1.524 . S
C1902 H1914 0.956 . S
C1902 H1915 0.961 . S
C1902 H1916 0.961 . S
C1903 C1900 1.539 . S
C1903 H1917 0.958 . S
C1903 H1918 0.961 . S
C1903 H1919 0.960 . S
H1904 C1888 0.931 . S
H1905 C1893 0.929 . S
H1906 C1894 0.960 . S
H1907 C1894 0.962 . S
H1908 C1894 0.960 . S
H1909 C1895 0.961 . S
H1910 C1895 0.961 . S
H1911 C1895 0.961 . S
H1912 C1896 0.931 . S
H1913 C1901 0.930 . S
H1914 C1902 0.956 . S
H1915 C1902 0.961 . S
H1916 C1902 0.961 . S
H1917 C1903 0.958 . S
H1918 C1903 0.961 . S
H1919 C1903 0.960 . S
C1920 C1921 1.391 . S
C1920 C1922 1.394 . S
C1920 H1936 0.931 . S
C1921 C1920 1.391 . S
C1921 C1925 1.376 . S
C1922 C1920 1.394 . S
C1922 C1923 1.369 . S
C1922 C1926 1.531 . S
C1923 C1922 1.369 . S
C1923 C1924 1.410 . S
C1923 C1931 1.503 . S
C1924 C1923 1.410 . S
C1924 C1925 1.392 . S
C1924 C1927 1.511 . S
C1925 C1921 1.376 . S
C1925 C1924 1.392 . S
C1925 H1937 0.929 . S
C1926 C1922 1.531 . S
C1926 H1938 0.960 . S
C1926 H1939 0.962 . S
C1926 H1940 0.960 . S
C1927 C1924 1.511 . S
C1927 H1941 0.961 . S
C1927 H1942 0.961 . S
C1927 H1943 0.961 . S
C1928 C1929 1.370 . S
C1928 C1930 1.363 . S
C1928 H1944 0.931 . S
C1929 C1928 1.370 . S
C1929 C1933 1.408 . S
C1930 C1928 1.363 . S
C1930 C1931 1.370 . S
C1930 C1934 1.524 . S
C1931 C1923 1.503 . S
C1931 C1930 1.370 . S
C1931 C1932 1.403 . S
C1932 C1931 1.403 . S
C1932 C1933 1.404 . S
C1932 C1935 1.539 . S
C1933 C1929 1.408 . S
C1933 C1932 1.404 . S
C1933 H1945 0.930 . S
C1934 C1930 1.524 . S
C1934 H1946 0.956 . S
C1934 H1947 0.961 . S
C1934 H1948 0.961 . S
C1935 C1932 1.539 . S
C1935 H1949 0.958 . S
C1935 H1950 0.961 . S
C1935 H1951 0.960 . S
H1936 C1920 0.931 . S
H1937 C1925 0.929 . S
H1938 C1926 0.960 . S
H1939 C1926 0.962 . S
H1940 C1926 0.960 . S
H1941 C1927 0.961 . S
H1942 C1927 0.961 . S
H1943 C1927 0.961 . S
H1944 C1928 0.931 . S
H1945 C1933 0.930 . S
H1946 C1934 0.956 . S
H1947 C1934 0.961 . S
H1948 C1934 0.961 . S
H1949 C1935 0.958 . S
H1950 C1935 0.961 . S
H1951 C1935 0.960 . S
C1952 C1953 1.391 . S
C1952 C1954 1.394 . S
C1952 H1968 0.931 . S
C1953 C1952 1.391 . S
C1953 C1957 1.376 . S
C1954 C1952 1.394 . S
C1954 C1955 1.369 . S
C1954 C1958 1.531 . S
C1955 C1954 1.369 . S
C1955 C1956 1.410 . S
C1955 C1963 1.503 . S
C1956 C1955 1.410 . S
C1956 C1957 1.392 . S
C1956 C1959 1.511 . S
C1957 C1953 1.376 . S
C1957 C1956 1.392 . S
C1957 H1969 0.929 . S
C1958 C1954 1.531 . S
C1958 H1970 0.960 . S
C1958 H1971 0.962 . S
C1958 H1972 0.960 . S
C1959 C1956 1.511 . S
C1959 H1973 0.961 . S
C1959 H1974 0.961 . S
C1959 H1975 0.961 . S
C1960 C1961 1.370 . S
C1960 C1962 1.363 . S
C1960 H1976 0.931 . S
C1961 C1960 1.370 . S
C1961 C1965 1.408 . S
C1962 C1960 1.363 . S
C1962 C1963 1.370 . S
C1962 C1966 1.524 . S
C1963 C1955 1.503 . S
C1963 C1962 1.370 . S
C1963 C1964 1.403 . S
C1964 C1963 1.403 . S
C1964 C1965 1.404 . S
C1964 C1967 1.539 . S
C1965 C1961 1.408 . S
C1965 C1964 1.404 . S
C1965 H1977 0.930 . S
C1966 C1962 1.524 . S
C1966 H1978 0.956 . S
C1966 H1979 0.961 . S
C1966 H1980 0.961 . S
C1967 C1964 1.539 . S
C1967 H1981 0.958 . S
C1967 H1982 0.961 . S
C1967 H1983 0.960 . S
H1968 C1952 0.931 . S
H1969 C1957 0.929 . S
H1970 C1958 0.960 . S
H1971 C1958 0.962 . S
H1972 C1958 0.960 . S
H1973 C1959 0.961 . S
H1974 C1959 0.961 . S
H1975 C1959 0.961 . S
H1976 C1960 0.931 . S
H1977 C1965 0.930 . S
H1978 C1966 0.956 . S
H1979 C1966 0.961 . S
H1980 C1966 0.961 . S
H1981 C1967 0.958 . S
H1982 C1967 0.961 . S
H1983 C1967 0.960 . S
C1984 C1985 1.391 . S
C1984 C1986 1.394 . S
C1984 H2000 0.931 . S
C1985 C1984 1.391 . S
C1985 C1989 1.376 . S
C1986 C1984 1.394 . S
C1986 C1987 1.369 . S
C1986 C1990 1.531 . S
C1987 C1986 1.369 . S
C1987 C1988 1.410 . S
C1987 C1995 1.503 . S
C1988 C1987 1.410 . S
C1988 C1989 1.392 . S
C1988 C1991 1.511 . S
C1989 C1985 1.376 . S
C1989 C1988 1.392 . S
C1989 H2001 0.929 . S
C1990 C1986 1.531 . S
C1990 H2002 0.960 . S
C1990 H2003 0.962 . S
C1990 H2004 0.960 . S
C1991 C1988 1.511 . S
C1991 H2005 0.961 . S
C1991 H2006 0.961 . S
C1991 H2007 0.961 . S
C1992 C1993 1.370 . S
C1992 C1994 1.363 . S
C1992 H2008 0.931 . S
C1993 C1992 1.370 . S
C1993 C1997 1.408 . S
C1994 C1992 1.363 . S
C1994 C1995 1.370 . S
C1994 C1998 1.524 . S
C1995 C1987 1.503 . S
C1995 C1994 1.370 . S
C1995 C1996 1.403 . S
C1996 C1995 1.403 . S
C1996 C1997 1.404 . S
C1996 C1999 1.539 . S
C1997 C1993 1.408 . S
C1997 C1996 1.404 . S
C1997 H2009 0.930 . S
C1998 C1994 1.524 . S
C1998 H2010 0.956 . S
C1998 H2011 0.961 . S
C1998 H2012 0.961 . S
C1999 C1996 1.539 . S
C1999 H2013 0.958 . S
C1999 H2014 0.961 . S
C1999 H2015 0.960 . S
H2000 C1984 0.931 . S
H2001 C1989 0.929 . S
H2002 C1990 0.960 . S
H2003 C1990 0.962 . S
H2004 C1990 0.960 . S
H2005 C1991 0.961 . S
H2006 C1991 0.961 . S
H2007 C1991 0.961 . S
H2008 C1992 0.931 . S
H2009 C1997 0.930 . S
H2010 C1998 0.956 . S
H2011 C1998 0.961 . S
H2012 C1998 0.961 . S
H2013 C1999 0.958 . S
H2014 C1999 0.961 . S
H2015 C1999 0.960 . S
C2016 C2017 1.391 . S
C2016 C2018 1.394 . S
C2016 H2032 0.931 . S
C2017 C2016 1.391 . S
C2017 C2021 1.376 . S
C2018 C2016 1.394 . S
C2018 C2019 1.369 . S
C2018 C2022 1.531 . S
C2019 C2018 1.369 . S
C2019 C2020 1.410 . S
C2019 C2027 1.503 . S
C2020 C2019 1.410 . S
C2020 C2021 1.392 . S
C2020 C2023 1.511 . S
C2021 C2017 1.376 . S
C2021 C2020 1.392 . S
C2021 H2033 0.929 . S
C2022 C2018 1.531 . S
C2022 H2034 0.960 . S
C2022 H2035 0.962 . S
C2022 H2036 0.960 . S
C2023 C2020 1.511 . S
C2023 H2037 0.961 . S
C2023 H2038 0.961 . S
C2023 H2039 0.961 . S
C2024 C2025 1.370 . S
C2024 C2026 1.363 . S
C2024 H2040 0.931 . S
C2025 C2024 1.370 . S
C2025 C2029 1.408 . S
C2026 C2024 1.363 . S
C2026 C2027 1.370 . S
C2026 C2030 1.524 . S
C2027 C2019 1.503 . S
C2027 C2026 1.370 . S
C2027 C2028 1.403 . S
C2028 C2027 1.403 . S
C2028 C2029 1.404 . S
C2028 C2031 1.539 . S
C2029 C2025 1.408 . S
C2029 C2028 1.404 . S
C2029 H2041 0.930 . S
C2030 C2026 1.524 . S
C2030 H2042 0.956 . S
C2030 H2043 0.961 . S
C2030 H2044 0.961 . S
C2031 C2028 1.539 . S
C2031 H2045 0.958 . S
C2031 H2046 0.961 . S
C2031 H2047 0.960 . S
H2032 C2016 0.931 . S
H2033 C2021 0.929 . S
H2034 C2022 0.960 . S
H2035 C2022 0.962 . S
H2036 C2022 0.960 . S
H2037 C2023 0.961 . S
H2038 C2023 0.961 . S
H2039 C2023 0.961 . S
H2040 C2024 0.931 . S
H2041 C2029 0.930 . S
H2042 C2030 0.956 . S
H2043 C2030 0.961 . S
H2044 C2030 0.961 . S
H2045 C2031 0.958 . S
H2046 C2031 0.961 . S
H2047 C2031 0.960 . S
C2048 C2049 1.391 . S
C2048 C2050 1.394 . S
C2048 H2064 0.931 . S
C2049 C2048 1.391 . S
C2049 C2053 1.376 . S
C2050 C2048 1.394 . S
C2050 C2051 1.369 . S
C2050 C2054 1.531 . S
C2051 C2050 1.369 . S
C2051 C2052 1.410 . S
C2051 C2059 1.503 . S
C2052 C2051 1.410 . S
C2052 C2053 1.392 . S
C2052 C2055 1.511 . S
C2053 C2049 1.376 . S
C2053 C2052 1.392 . S
C2053 H2065 0.929 . S
C2054 C2050 1.531 . S
C2054 H2066 0.960 . S
C2054 H2067 0.962 . S
C2054 H2068 0.960 . S
C2055 C2052 1.511 . S
C2055 H2069 0.961 . S
C2055 H2070 0.961 . S
C2055 H2071 0.961 . S
C2056 C2057 1.370 . S
C2056 C2058 1.363 . S
C2056 H2072 0.931 . S
C2057 C2056 1.370 . S
C2057 C2061 1.408 . S
C2058 C2056 1.363 . S
C2058 C2059 1.370 . S
C2058 C2062 1.524 . S
C2059 C2051 1.503 . S
C2059 C2058 1.370 . S
C2059 C2060 1.403 . S
C2060 C2059 1.403 . S
C2060 C2061 1.404 . S
C2060 C2063 1.539 . S
C2061 C2057 1.408 . S
C2061 C2060 1.404 . S
C2061 H2073 0.930 . S
C2062 C2058 1.524 . S
C2062 H2074 0.956 . S
C2062 H2075 0.961 . S
C2062 H2076 0.961 . S
C2063 C2060 1.539 . S
C2063 H2077 0.958 . S
C2063 H2078 0.961 . S
C2063 H2079 0.960 . S
H2064 C2048 0.931 . S
H2065 C2053 0.929 . S
H2066 C2054 0.960 . S
H2067 C2054 0.962 . S
H2068 C2054 0.960 . S
H2069 C2055 0.961 . S
H2070 C2055 0.961 . S
H2071 C2055 0.961 . S
H2072 C2056 0.931 . S
H2073 C2061 0.930 . S
H2074 C2062 0.956 . S
H2075 C2062 0.961 . S
H2076 C2062 0.961 . S
H2077 C2063 0.958 . S
H2078 C2063 0.961 . S
H2079 C2063 0.960 . S
C2080 C2081 1.391 . S
C2080 C2082 1.394 . S
C2080 H2096 0.931 . S
C2081 C2080 1.391 . S
C2081 C2085 1.376 . S
C2082 C2080 1.394 . S
C2082 C2083 1.369 . S
C2082 C2086 1.531 . S
C2083 C2082 1.369 . S
C2083 C2084 1.410 . S
C2083 C2091 1.503 . S
C2084 C2083 1.410 . S
C2084 C2085 1.392 . S
C2084 C2087 1.511 . S
C2085 C2081 1.376 . S
C2085 C2084 1.392 . S
C2085 H2097 0.929 . S
C2086 C2082 1.531 . S
C2086 H2098 0.960 . S
C2086 H2099 0.962 . S
C2086 H2100 0.960 . S
C2087 C2084 1.511 . S
C2087 H2101 0.961 . S
C2087 H2102 0.961 . S
C2087 H2103 0.961 . S
C2088 C2089 1.370 . S
C2088 C2090 1.363 . S
C2088 H2104 0.931 . S
C2089 C2088 1.370 . S
C2089 C2093 1.408 . S
C2090 C2088 1.363 . S
C2090 C2091 1.370 . S
C2090 C2094 1.524 . S
C2091 C2083 1.503 . S
C2091 C2090 1.370 . S
C2091 C2092 1.403 . S
C2092 C2091 1.403 . S
C2092 C2093 1.404 . S
C2092 C2095 1.539 . S
C2093 C2089 1.408 . S
C2093 C2092 1.404 . S
C2093 H2105 0.930 . S
C2094 C2090 1.524 . S
C2094 H2106 0.956 . S
C2094 H2107 0.961 . S
C2094 H2108 0.961 . S
C2095 C2092 1.539 . S
C2095 H2109 0.958 . S
C2095 H2110 0.961 . S
C2095 H2111 0.960 . S
H2096 C2080 0.931 . S
H2097 C2085 0.929 . S
H2098 C2086 0.960 . S
H2099 C2086 0.962 . S
H2100 C2086 0.960 . S
H2101 C2087 0.961 . S
H2102 C2087 0.961 . S
H2103 C2087 0.961 . S
H2104 C2088 0.931 . S
H2105 C2093 0.930 . S
H2106 C2094 0.956 . S
H2107 C2094 0.961 . S
H2108 C2094 0.961 . S
H2109 C2095 0.958 . S
H2110 C2095 0.961 . S
H2111 C2095 0.960 . S
C2112 C2113 1.391 . S
C2112 C2114 1.394 . S
C2112 H2128 0.931 . S
C2113 C2112 1.391 . S
C2113 C2117 1.376 . S
C2114 C2112 1.394 . S
C2114 C2115 1.369 . S
C2114 C2118 1.531 . S
C2115 C2114 1.369 . S
C2115 C2116 1.410 . S
C2115 C2123 1.503 . S
C2116 C2115 1.410 . S
C2116 C2117 1.392 . S
C2116 C2119 1.511 . S
C2117 C2113 1.376 . S
C2117 C2116 1.392 . S
C2117 H2129 0.929 . S
C2118 C2114 1.531 . S
C2118 H2130 0.960 . S
C2118 H2131 0.962 . S
C2118 H2132 0.960 . S
C2119 C2116 1.511 . S
C2119 H2133 0.961 . S
C2119 H2134 0.961 . S
C2119 H2135 0.961 . S
C2120 C2121 1.370 . S
C2120 C2122 1.363 . S
C2120 H2136 0.931 . S
C2121 C2120 1.370 . S
C2121 C2125 1.408 . S
C2122 C2120 1.363 . S
C2122 C2123 1.370 . S
C2122 C2126 1.524 . S
C2123 C2115 1.503 . S
C2123 C2122 1.370 . S
C2123 C2124 1.403 . S
C2124 C2123 1.403 . S
C2124 C2125 1.404 . S
C2124 C2127 1.539 . S
C2125 C2121 1.408 . S
C2125 C2124 1.404 . S
C2125 H2137 0.930 . S
C2126 C2122 1.524 . S
C2126 H2138 0.956 . S
C2126 H2139 0.961 . S
C2126 H2140 0.961 . S
C2127 C2124 1.539 . S
C2127 H2141 0.958 . S
C2127 H2142 0.961 . S
C2127 H2143 0.960 . S
H2128 C2112 0.931 . S
H2129 C2117 0.929 . S
H2130 C2118 0.960 . S
H2131 C2118 0.962 . S
H2132 C2118 0.960 . S
H2133 C2119 0.961 . S
H2134 C2119 0.961 . S
H2135 C2119 0.961 . S
H2136 C2120 0.931 . S
H2137 C2125 0.930 . S
H2138 C2126 0.956 . S
H2139 C2126 0.961 . S
H2140 C2126 0.961 . S
H2141 C2127 0.958 . S
H2142 C2127 0.961 . S
H2143 C2127 0.960 . S
C2144 C2145 1.391 . S
C2144 C2146 1.394 . S
C2144 H2160 0.931 . S
C2145 C2144 1.391 . S
C2145 C2149 1.376 . S
C2146 C2144 1.394 . S
C2146 C2147 1.369 . S
C2146 C2150 1.531 . S
C2147 C2146 1.369 . S
C2147 C2148 1.410 . S
C2147 C2155 1.503 . S
C2148 C2147 1.410 . S
C2148 C2149 1.392 . S
C2148 C2151 1.511 . S
C2149 C2145 1.376 . S
C2149 C2148 1.392 . S
C2149 H2161 0.929 . S
C2150 C2146 1.531 . S
C2150 H2162 0.960 . S
C2150 H2163 0.962 . S
C2150 H2164 0.960 . S
C2151 C2148 1.511 . S
C2151 H2165 0.961 . S
C2151 H2166 0.961 . S
C2151 H2167 0.961 . S
C2152 C2153 1.370 . S
C2152 C2154 1.363 . S
C2152 H2168 0.931 . S
C2153 C2152 1.370 . S
C2153 C2157 1.408 . S
C2154 C2152 1.363 . S
C2154 C2155 1.370 . S
C2154 C2158 1.524 . S
C2155 C2147 1.503 . S
C2155 C2154 1.370 . S
C2155 C2156 1.403 . S
C2156 C2155 1.403 . S
C2156 C2157 1.404 . S
C2156 C2159 1.539 . S
C2157 C2153 1.408 . S
C2157 C2156 1.404 . S
C2157 H2169 0.930 . S
C2158 C2154 1.524 . S
C2158 H2170 0.956 . S
C2158 H2171 0.961 . S
C2158 H2172 0.961 . S
C2159 C2156 1.539 . S
C2159 H2173 0.958 . S
C2159 H2174 0.961 . S
C2159 H2175 0.960 . S
H2160 C2144 0.931 . S
H2161 C2149 0.929 . S
H2162 C2150 0.960 . S
H2163 C2150 0.962 . S
H2164 C2150 0.960 . S
H2165 C2151 0.961 . S
H2166 C2151 0.961 . S
H2167 C2151 0.961 . S
H2168 C2152 0.931 . S
H2169 C2157 0.930 . S
H2170 C2158 0.956 . S
H2171 C2158 0.961 . S
H2172 C2158 0.961 . S
H2173 C2159 0.958 . S
H2174 C2159 0.961 . S
H2175 C2159 0.960 . S
C2176 C2177 1.391 . S
C2176 C2178 1.394 . S
C2176 H2192 0.931 . S
C2177 C2176 1.391 . S
C2177 C2181 1.376 . S
C2178 C2176 1.394 . S
C2178 C2179 1.369 . S
C2178 C2182 1.531 . S
C2179 C2178 1.369 . S
C2179 C2180 1.410 . S
C2179 C2187 1.503 . S
C2180 C2179 1.410 . S
C2180 C2181 1.392 . S
C2180 C2183 1.511 . S
C2181 C2177 1.376 . S
C2181 C2180 1.392 . S
C2181 H2193 0.929 . S
C2182 C2178 1.531 . S
C2182 H2194 0.960 . S
C2182 H2195 0.962 . S
C2182 H2196 0.960 . S
C2183 C2180 1.511 . S
C2183 H2197 0.961 . S
C2183 H2198 0.961 . S
C2183 H2199 0.961 . S
C2184 C2185 1.370 . S
C2184 C2186 1.363 . S
C2184 H2200 0.931 . S
C2185 C2184 1.370 . S
C2185 C2189 1.408 . S
C2186 C2184 1.363 . S
C2186 C2187 1.370 . S
C2186 C2190 1.524 . S
C2187 C2179 1.503 . S
C2187 C2186 1.370 . S
C2187 C2188 1.403 . S
C2188 C2187 1.403 . S
C2188 C2189 1.404 . S
C2188 C2191 1.539 . S
C2189 C2185 1.408 . S
C2189 C2188 1.404 . S
C2189 H2201 0.930 . S
C2190 C2186 1.524 . S
C2190 H2202 0.956 . S
C2190 H2203 0.961 . S
C2190 H2204 0.961 . S
C2191 C2188 1.539 . S
C2191 H2205 0.958 . S
C2191 H2206 0.961 . S
C2191 H2207 0.960 . S
H2192 C2176 0.931 . S
H2193 C2181 0.929 . S
H2194 C2182 0.960 . S
H2195 C2182 0.962 . S
H2196 C2182 0.960 . S
H2197 C2183 0.961 . S
H2198 C2183 0.961 . S
H2199 C2183 0.961 . S
H2200 C2184 0.931 . S
H2201 C2189 0.930 . S
H2202 C2190 0.956 . S
H2203 C2190 0.961 . S
H2204 C2190 0.961 . S
H2205 C2191 0.958 . S
H2206 C2191 0.961 . S
H2207 C2191 0.960 . S
C2208 C2209 1.391 . S
C2208 C2210 1.394 . S
C2208 H2224 0.931 . S
C2209 C2208 1.391 . S
C2209 C2213 1.376 . S
C2210 C2208 1.394 . S
C2210 C2211 1.369 . S
C2210 C2214 1.531 . S
C2211 C2210 1.369 . S
C2211 C2212 1.410 . S
C2211 C2219 1.503 . S
C2212 C2211 1.410 . S
C2212 C2213 1.392 . S
C2212 C2215 1.511 . S
C2213 C2209 1.376 . S
C2213 C2212 1.392 . S
C2213 H2225 0.929 . S
C2214 C2210 1.531 . S
C2214 H2226 0.960 . S
C2214 H2227 0.962 . S
C2214 H2228 0.960 . S
C2215 C2212 1.511 . S
C2215 H2229 0.961 . S
C2215 H2230 0.961 . S
C2215 H2231 0.961 . S
C2216 C2217 1.370 . S
C2216 C2218 1.363 . S
C2216 H2232 0.931 . S
C2217 C2216 1.370 . S
C2217 C2221 1.408 . S
C2218 C2216 1.363 . S
C2218 C2219 1.370 . S
C2218 C2222 1.524 . S
C2219 C2211 1.503 . S
C2219 C2218 1.370 . S
C2219 C2220 1.403 . S
C2220 C2219 1.403 . S
C2220 C2221 1.404 . S
C2220 C2223 1.539 . S
C2221 C2217 1.408 . S
C2221 C2220 1.404 . S
C2221 H2233 0.930 . S
C2222 C2218 1.524 . S
C2222 H2234 0.956 . S
C2222 H2235 0.961 . S
C2222 H2236 0.961 . S
C2223 C2220 1.539 . S
C2223 H2237 0.958 . S
C2223 H2238 0.961 . S
C2223 H2239 0.960 . S
H2224 C2208 0.931 . S
H2225 C2213 0.929 . S
H2226 C2214 0.960 . S
H2227 C2214 0.962 . S
H2228 C2214 0.960 . S
H2229 C2215 0.961 . S
H2230 C2215 0.961 . S
H2231 C2215 0.961 . S
H2232 C2216 0.931 . S
H2233 C2221 0.930 . S
H2234 C2222 0.956 . S
H2235 C2222 0.961 . S
H2236 C2222 0.961 . S
H2237 C2223 0.958 . S
H2238 C2223 0.961 . S
H2239 C2223 0.960 . S
C2240 C2241 1.391 . S
C2240 C2242 1.394 . S
C2240 H2256 0.931 . S
C2241 C2240 1.391 . S
C2241 C2245 1.376 . S
C2242 C2240 1.394 . S
C2242 C2243 1.369 . S
C2242 C2246 1.531 . S
C2243 C2242 1.369 . S
C2243 C2244 1.410 . S
C2243 C2251 1.503 . S
C2244 C2243 1.410 . S
C2244 C2245 1.392 . S
C2244 C2247 1.511 . S
C2245 C2241 1.376 . S
C2245 C2244 1.392 . S
C2245 H2257 0.929 . S
C2246 C2242 1.531 . S
C2246 H2258 0.960 . S
C2246 H2259 0.962 . S
C2246 H2260 0.960 . S
C2247 C2244 1.511 . S
C2247 H2261 0.961 . S
C2247 H2262 0.961 . S
C2247 H2263 0.961 . S
C2248 C2249 1.370 . S
C2248 C2250 1.363 . S
C2248 H2264 0.931 . S
C2249 C2248 1.370 . S
C2249 C2253 1.408 . S
C2250 C2248 1.363 . S
C2250 C2251 1.370 . S
C2250 C2254 1.524 . S
C2251 C2243 1.503 . S
C2251 C2250 1.370 . S
C2251 C2252 1.403 . S
C2252 C2251 1.403 . S
C2252 C2253 1.404 . S
C2252 C2255 1.539 . S
C2253 C2249 1.408 . S
C2253 C2252 1.404 . S
C2253 H2265 0.930 . S
C2254 C2250 1.524 . S
C2254 H2266 0.956 . S
C2254 H2267 0.961 . S
C2254 H2268 0.961 . S
C2255 C2252 1.539 . S
C2255 H2269 0.958 . S
C2255 H2270 0.961 . S
C2255 H2271 0.960 . S
H2256 C2240 0.931 . S
H2257 C2245 0.929 . S
H2258 C2246 0.960 . S
H2259 C2246 0.962 . S
H2260 C2246 0.960 . S
H2261 C2247 0.961 . S
H2262 C2247 0.961 . S
H2263 C2247 0.961 . S
H2264 C2248 0.931 . S
H2265 C2253 0.930 . S
H2266 C2254 0.956 . S
H2267 C2254 0.961 . S
H2268 C2254 0.961 . S
H2269 C2255 0.958 . S
H2270 C2255 0.961 . S
H2271 C2255 0.960 . S
C2272 C2273 1.391 . S
C2272 C2274 1.394 . S
C2272 H2288 0.931 . S
C2273 C2272 1.391 . S
C2273 C2277 1.376 . S
C2274 C2272 1.394 . S
C2274 C2275 1.369 . S
C2274 C2278 1.531 . S
C2275 C2274 1.369 . S
C2275 C2276 1.410 . S
C2275 C2283 1.503 . S
C2276 C2275 1.410 . S
C2276 C2277 1.392 . S
C2276 C2279 1.511 . S
C2277 C2273 1.376 . S
C2277 C2276 1.392 . S
C2277 H2289 0.929 . S
C2278 C2274 1.531 . S
C2278 H2290 0.960 . S
C2278 H2291 0.962 . S
C2278 H2292 0.960 . S
C2279 C2276 1.511 . S
C2279 H2293 0.961 . S
C2279 H2294 0.961 . S
C2279 H2295 0.961 . S
C2280 C2281 1.370 . S
C2280 C2282 1.363 . S
C2280 H2296 0.931 . S
C2281 C2280 1.370 . S
C2281 C2285 1.408 . S
C2282 C2280 1.363 . S
C2282 C2283 1.370 . S
C2282 C2286 1.524 . S
C2283 C2275 1.503 . S
C2283 C2282 1.370 . S
C2283 C2284 1.403 . S
C2284 C2283 1.403 . S
C2284 C2285 1.404 . S
C2284 C2287 1.539 . S
C2285 C2281 1.408 . S
C2285 C2284 1.404 . S
C2285 H2297 0.930 . S
C2286 C2282 1.524 . S
C2286 H2298 0.956 . S
C2286 H2299 0.961 . S
C2286 H2300 0.961 . S
C2287 C2284 1.539 . S
C2287 H2301 0.958 . S
C2287 H2302 0.961 . S
C2287 H2303 0.960 . S
H2288 C2272 0.931 . S
H2289 C2277 0.929 . S
H2290 C2278 0.960 . S
H2291 C2278 0.962 . S
H2292 C2278 0.960 . S
H2293 C2279 0.961 . S
H2294 C2279 0.961 . S
H2295 C2279 0.961 . S
H2296 C2280 0.931 . S
H2297 C2285 0.930 . S
H2298 C2286 0.956 . S
H2299 C2286 0.961 . S
H2300 C2286 0.961 . S
H2301 C2287 0.958 . S
H2302 C2287 0.961 . S
H2303 C2287 0.960 . S
C2304 C2305 1.391 . S
C2304 C2306 1.394 . S
C2304 H2320 0.931 . S
C2305 C2304 1.391 . S
C2305 C2309 1.376 . S
C2306 C2304 1.394 . S
C2306 C2307 1.369 . S
C2306 C2310 1.531 . S
C2307 C2306 1.369 . S
C2307 C2308 1.410 . S
C2307 C2315 1.503 . S
C2308 C2307 1.410 . S
C2308 C2309 1.392 . S
C2308 C2311 1.511 . S
C2309 C2305 1.376 . S
C2309 C2308 1.392 . S
C2309 H2321 0.929 . S
C2310 C2306 1.531 . S
C2310 H2322 0.960 . S
C2310 H2323 0.962 . S
C2310 H2324 0.960 . S
C2311 C2308 1.511 . S
C2311 H2325 0.961 . S
C2311 H2326 0.961 . S
C2311 H2327 0.961 . S
C2312 C2313 1.370 . S
C2312 C2314 1.363 . S
C2312 H2328 0.931 . S
C2313 C2312 1.370 . S
C2313 C2317 1.408 . S
C2314 C2312 1.363 . S
C2314 C2315 1.370 . S
C2314 C2318 1.524 . S
C2315 C2307 1.503 . S
C2315 C2314 1.370 . S
C2315 C2316 1.403 . S
C2316 C2315 1.403 . S
C2316 C2317 1.404 . S
C2316 C2319 1.539 . S
C2317 C2313 1.408 . S
C2317 C2316 1.404 . S
C2317 H2329 0.930 . S
C2318 C2314 1.524 . S
C2318 H2330 0.956 . S
C2318 H2331 0.961 . S
C2318 H2332 0.961 . S
C2319 C2316 1.539 . S
C2319 H2333 0.958 . S
C2319 H2334 0.961 . S
C2319 H2335 0.960 . S
H2320 C2304 0.931 . S
H2321 C2309 0.929 . S
H2322 C2310 0.960 . S
H2323 C2310 0.962 . S
H2324 C2310 0.960 . S
H2325 C2311 0.961 . S
H2326 C2311 0.961 . S
H2327 C2311 0.961 . S
H2328 C2312 0.931 . S
H2329 C2317 0.930 . S
H2330 C2318 0.956 . S
H2331 C2318 0.961 . S
H2332 C2318 0.961 . S
H2333 C2319 0.958 . S
H2334 C2319 0.961 . S
H2335 C2319 0.960 . S
C2336 C2337 1.391 . S
C2336 C2338 1.394 . S
C2336 H2352 0.931 . S
C2337 C2336 1.391 . S
C2337 C2341 1.376 . S
C2338 C2336 1.394 . S
C2338 C2339 1.369 . S
C2338 C2342 1.531 . S
C2339 C2338 1.369 . S
C2339 C2340 1.410 . S
C2339 C2347 1.503 . S
C2340 C2339 1.410 . S
C2340 C2341 1.392 . S
C2340 C2343 1.511 . S
C2341 C2337 1.376 . S
C2341 C2340 1.392 . S
C2341 H2353 0.929 . S
C2342 C2338 1.531 . S
C2342 H2354 0.960 . S
C2342 H2355 0.962 . S
C2342 H2356 0.960 . S
C2343 C2340 1.511 . S
C2343 H2357 0.961 . S
C2343 H2358 0.961 . S
C2343 H2359 0.961 . S
C2344 C2345 1.370 . S
C2344 C2346 1.363 . S
C2344 H2360 0.931 . S
C2345 C2344 1.370 . S
C2345 C2349 1.408 . S
C2346 C2344 1.363 . S
C2346 C2347 1.370 . S
C2346 C2350 1.524 . S
C2347 C2339 1.503 . S
C2347 C2346 1.370 . S
C2347 C2348 1.403 . S
C2348 C2347 1.403 . S
C2348 C2349 1.404 . S
C2348 C2351 1.539 . S
C2349 C2345 1.408 . S
C2349 C2348 1.404 . S
C2349 H2361 0.930 . S
C2350 C2346 1.524 . S
C2350 H2362 0.956 . S
C2350 H2363 0.961 . S
C2350 H2364 0.961 . S
C2351 C2348 1.539 . S
C2351 H2365 0.958 . S
C2351 H2366 0.961 . S
C2351 H2367 0.960 . S
H2352 C2336 0.931 . S
H2353 C2341 0.929 . S
H2354 C2342 0.960 . S
H2355 C2342 0.962 . S
H2356 C2342 0.960 . S
H2357 C2343 0.961 . S
H2358 C2343 0.961 . S
H2359 C2343 0.961 . S
H2360 C2344 0.931 . S
H2361 C2349 0.930 . S
H2362 C2350 0.956 . S
H2363 C2350 0.961 . S
H2364 C2350 0.961 . S
H2365 C2351 0.958 . S
H2366 C2351 0.961 . S
H2367 C2351 0.960 . S
C2368 C2369 1.391 . S
C2368 C2370 1.394 . S
C2368 H2384 0.931 . S
C2369 C2368 1.391 . S
C2369 C2373 1.376 . S
C2370 C2368 1.394 . S
C2370 C2371 1.369 . S
C2370 C2374 1.531 . S
C2371 C2370 1.369 . S
C2371 C2372 1.410 . S
C2371 C2379 1.503 . S
C2372 C2371 1.410 . S
C2372 C2373 1.392 . S
C2372 C2375 1.511 . S
C2373 C2369 1.376 . S
C2373 C2372 1.392 . S
C2373 H2385 0.929 . S
C2374 C2370 1.531 . S
C2374 H2386 0.960 . S
C2374 H2387 0.962 . S
C2374 H2388 0.960 . S
C2375 C2372 1.511 . S
C2375 H2389 0.961 . S
C2375 H2390 0.961 . S
C2375 H2391 0.961 . S
C2376 C2377 1.370 . S
C2376 C2378 1.363 . S
C2376 H2392 0.931 . S
C2377 C2376 1.370 . S
C2377 C2381 1.408 . S
C2378 C2376 1.363 . S
C2378 C2379 1.370 . S
C2378 C2382 1.524 . S
C2379 C2371 1.503 . S
C2379 C2378 1.370 . S
C2379 C2380 1.403 . S
C2380 C2379 1.403 . S
C2380 C2381 1.404 . S
C2380 C2383 1.539 . S
C2381 C2377 1.408 . S
C2381 C2380 1.404 . S
C2381 H2393 0.930 . S
C2382 C2378 1.524 . S
C2382 H2394 0.956 . S
C2382 H2395 0.961 . S
C2382 H2396 0.961 . S
C2383 C2380 1.539 . S
C2383 H2397 0.958 . S
C2383 H2398 0.961 . S
C2383 H2399 0.960 . S
H2384 C2368 0.931 . S
H2385 C2373 0.929 . S
H2386 C2374 0.960 . S
H2387 C2374 0.962 . S
H2388 C2374 0.960 . S
H2389 C2375 0.961 . S
H2390 C2375 0.961 . S
H2391 C2375 0.961 . S
H2392 C2376 0.931 . S
H2393 C2381 0.930 . S
H2394 C2382 0.956 . S
H2395 C2382 0.961 . S
H2396 C2382 0.961 . S
H2397 C2383 0.958 . S
H2398 C2383 0.961 . S
H2399 C2383 0.960 . S
C2400 C2401 1.391 . S
C2400 C2402 1.394 . S
C2400 H2416 0.931 . S
C2401 C2400 1.391 . S
C2401 C2405 1.376 . S
C2402 C2400 1.394 . S
C2402 C2403 1.369 . S
C2402 C2406 1.531 . S
C2403 C2402 1.369 . S
C2403 C2404 1.410 . S
C2403 C2411 1.503 . S
C2404 C2403 1.410 . S
C2404 C2405 1.392 . S
C2404 C2407 1.511 . S
C2405 C2401 1.376 . S
C2405 C2404 1.392 . S
C2405 H2417 0.929 . S
C2406 C2402 1.531 . S
C2406 H2418 0.960 . S
C2406 H2419 0.962 . S
C2406 H2420 0.960 . S
C2407 C2404 1.511 . S
C2407 H2421 0.961 . S
C2407 H2422 0.961 . S
C2407 H2423 0.961 . S
C2408 C2409 1.370 . S
C2408 C2410 1.363 . S
C2408 H2424 0.931 . S
C2409 C2408 1.370 . S
C2409 C2413 1.408 . S
C2410 C2408 1.363 . S
C2410 C2411 1.370 . S
C2410 C2414 1.524 . S
C2411 C2403 1.503 . S
C2411 C2410 1.370 . S
C2411 C2412 1.403 . S
C2412 C2411 1.403 . S
C2412 C2413 1.404 . S
C2412 C2415 1.539 . S
C2413 C2409 1.408 . S
C2413 C2412 1.404 . S
C2413 H2425 0.930 . S
C2414 C2410 1.524 . S
C2414 H2426 0.956 . S
C2414 H2427 0.961 . S
C2414 H2428 0.961 . S
C2415 C2412 1.539 . S
C2415 H2429 0.958 . S
C2415 H2430 0.961 . S
C2415 H2431 0.960 . S
H2416 C2400 0.931 . S
H2417 C2405 0.929 . S
H2418 C2406 0.960 . S
H2419 C2406 0.962 . S
H2420 C2406 0.960 . S
H2421 C2407 0.961 . S
H2422 C2407 0.961 . S
H2423 C2407 0.961 . S
H2424 C2408 0.931 . S
H2425 C2413 0.930 . S
H2426 C2414 0.956 . S
H2427 C2414 0.961 . S
H2428 C2414 0.961 . S
H2429 C2415 0.958 . S
H2430 C2415 0.961 . S
H2431 C2415 0.960 . S
C2432 C2433 1.391 . S
C2432 C2434 1.394 . S
C2432 H2448 0.931 . S
C2433 C2432 1.391 . S
C2433 C2437 1.376 . S
C2434 C2432 1.394 . S
C2434 C2435 1.369 . S
C2434 C2438 1.531 . S
C2435 C2434 1.369 . S
C2435 C2436 1.410 . S
C2435 C2443 1.503 . S
C2436 C2435 1.410 . S
C2436 C2437 1.392 . S
C2436 C2439 1.511 . S
C2437 C2433 1.376 . S
C2437 C2436 1.392 . S
C2437 H2449 0.929 . S
C2438 C2434 1.531 . S
C2438 H2450 0.960 . S
C2438 H2451 0.962 . S
C2438 H2452 0.960 . S
C2439 C2436 1.511 . S
C2439 H2453 0.961 . S
C2439 H2454 0.961 . S
C2439 H2455 0.961 . S
C2440 C2441 1.370 . S
C2440 C2442 1.363 . S
C2440 H2456 0.931 . S
C2441 C2440 1.370 . S
C2441 C2445 1.408 . S
C2442 C2440 1.363 . S
C2442 C2443 1.370 . S
C2442 C2446 1.524 . S
C2443 C2435 1.503 . S
C2443 C2442 1.370 . S
C2443 C2444 1.403 . S
C2444 C2443 1.403 . S
C2444 C2445 1.404 . S
C2444 C2447 1.539 . S
C2445 C2441 1.408 . S
C2445 C2444 1.404 . S
C2445 H2457 0.930 . S
C2446 C2442 1.524 . S
C2446 H2458 0.956 . S
C2446 H2459 0.961 . S
C2446 H2460 0.961 . S
C2447 C2444 1.539 . S
C2447 H2461 0.958 . S
C2447 H2462 0.961 . S
C2447 H2463 0.960 . S
H2448 C2432 0.931 . S
H2449 C2437 0.929 . S
H2450 C2438 0.960 . S
H2451 C2438 0.962 . S
H2452 C2438 0.960 . S
H2453 C2439 0.961 . S
H2454 C2439 0.961 . S
H2455 C2439 0.961 . S
H2456 C2440 0.931 . S
H2457 C2445 0.930 . S
H2458 C2446 0.956 . S
H2459 C2446 0.961 . S
H2460 C2446 0.961 . S
H2461 C2447 0.958 . S
H2462 C2447 0.961 . S
H2463 C2447 0.960 . S
C2464 C2465 1.391 . S
C2464 C2466 1.394 . S
C2464 H2480 0.931 . S
C2465 C2464 1.391 . S
C2465 C2469 1.376 . S
C2466 C2464 1.394 . S
C2466 C2467 1.369 . S
C2466 C2470 1.531 . S
C2467 C2466 1.369 . S
C2467 C2468 1.410 . S
C2467 C2475 1.503 . S
C2468 C2467 1.410 . S
C2468 C2469 1.392 . S
C2468 C2471 1.511 . S
C2469 C2465 1.376 . S
C2469 C2468 1.392 . S
C2469 H2481 0.929 . S
C2470 C2466 1.531 . S
C2470 H2482 0.960 . S
C2470 H2483 0.962 . S
C2470 H2484 0.960 . S
C2471 C2468 1.511 . S
C2471 H2485 0.961 . S
C2471 H2486 0.961 . S
C2471 H2487 0.961 . S
C2472 C2473 1.370 . S
C2472 C2474 1.363 . S
C2472 H2488 0.931 . S
C2473 C2472 1.370 . S
C2473 C2477 1.408 . S
C2474 C2472 1.363 . S
C2474 C2475 1.370 . S
C2474 C2478 1.524 . S
C2475 C2467 1.503 . S
C2475 C2474 1.370 . S
C2475 C2476 1.403 . S
C2476 C2475 1.403 . S
C2476 C2477 1.404 . S
C2476 C2479 1.539 . S
C2477 C2473 1.408 . S
C2477 C2476 1.404 . S
C2477 H2489 0.930 . S
C2478 C2474 1.524 . S
C2478 H2490 0.956 . S
C2478 H2491 0.961 . S
C2478 H2492 0.961 . S
C2479 C2476 1.539 . S
C2479 H2493 0.958 . S
C2479 H2494 0.961 . S
C2479 H2495 0.960 . S
H2480 C2464 0.931 . S
H2481 C2469 0.929 . S
H2482 C2470 0.960 . S
H2483 C2470 0.962 . S
H2484 C2470 0.960 . S
H2485 C2471 0.961 . S
H2486 C2471 0.961 . S
H2487 C2471 0.961 . S
H2488 C2472 0.931 . S
H2489 C2477 0.930 . S
H2490 C2478 0.956 . S
H2491 C2478 0.961 . S
H2492 C2478 0.961 . S
H2493 C2479 0.958 . S
H2494 C2479 0.961 . S
H2495 C2479 0.960 . S
C2496 C2497 1.391 . S
C2496 C2498 1.394 . S
C2496 H2512 0.931 . S
C2497 C2496 1.391 . S
C2497 C2501 1.376 . S
C2498 C2496 1.394 . S
C2498 C2499 1.369 . S
C2498 C2502 1.531 . S
C2499 C2498 1.369 . S
C2499 C2500 1.410 . S
C2499 C2507 1.503 . S
C2500 C2499 1.410 . S
C2500 C2501 1.392 . S
C2500 C2503 1.511 . S
C2501 C2497 1.376 . S
C2501 C2500 1.392 . S
C2501 H2513 0.929 . S
C2502 C2498 1.531 . S
C2502 H2514 0.960 . S
C2502 H2515 0.962 . S
C2502 H2516 0.960 . S
C2503 C2500 1.511 . S
C2503 H2517 0.961 . S
C2503 H2518 0.961 . S
C2503 H2519 0.961 . S
C2504 C2505 1.370 . S
C2504 C2506 1.363 . S
C2504 H2520 0.931 . S
C2505 C2504 1.370 . S
C2505 C2509 1.408 . S
C2506 C2504 1.363 . S
C2506 C2507 1.370 . S
C2506 C2510 1.524 . S
C2507 C2499 1.503 . S
C2507 C2506 1.370 . S
C2507 C2508 1.403 . S
C2508 C2507 1.403 . S
C2508 C2509 1.404 . S
C2508 C2511 1.539 . S
C2509 C2505 1.408 . S
C2509 C2508 1.404 . S
C2509 H2521 0.930 . S
C2510 C2506 1.524 . S
C2510 H2522 0.956 . S
C2510 H2523 0.961 . S
C2510 H2524 0.961 . S
C2511 C2508 1.539 . S
C2511 H2525 0.958 . S
C2511 H2526 0.961 . S
C2511 H2527 0.960 . S
H2512 C2496 0.931 . S
H2513 C2501 0.929 . S
H2514 C2502 0.960 . S
H2515 C2502 0.962 . S
H2516 C2502 0.960 . S
H2517 C2503 0.961 . S
H2518 C2503 0.961 . S
H2519 C2503 0.961 . S
H2520 C2504 0.931 . S
H2521 C2509 0.930 . S
H2522 C2510 0.956 . S
H2523 C2510 0.961 . S
H2524 C2510 0.961 . S
H2525 C2511 0.958 . S
H2526 C2511 0.961 . S
H2527 C2511 0.960 . S
C2528 C2529 1.391 . S
C2528 C2530 1.394 . S
C2528 H2544 0.931 . S
C2529 C2528 1.391 . S
C2529 C2533 1.376 . S
C2530 C2528 1.394 . S
C2530 C2531 1.369 . S
C2530 C2534 1.531 . S
C2531 C2530 1.369 . S
C2531 C2532 1.410 . S
C2531 C2539 1.503 . S
C2532 C2531 1.410 . S
C2532 C2533 1.392 . S
C2532 C2535 1.511 . S
C2533 C2529 1.376 . S
C2533 C2532 1.392 . S
C2533 H2545 0.929 . S
C2534 C2530 1.531 . S
C2534 H2546 0.960 . S
C2534 H2547 0.962 . S
C2534 H2548 0.960 . S
C2535 C2532 1.511 . S
C2535 H2549 0.961 . S
C2535 H2550 0.961 . S
C2535 H2551 0.961 . S
C2536 C2537 1.370 . S
C2536 C2538 1.363 . S
C2536 H2552 0.931 . S
C2537 C2536 1.370 . S
C2537 C2541 1.408 . S
C2538 C2536 1.363 . S
C2538 C2539 1.370 . S
C2538 C2542 1.524 . S
C2539 C2531 1.503 . S
C2539 C2538 1.370 . S
C2539 C2540 1.403 . S
C2540 C2539 1.403 . S
C2540 C2541 1.404 . S
C2540 C2543 1.539 . S
C2541 C2537 1.408 . S
C2541 C2540 1.404 . S
C2541 H2553 0.930 . S
C2542 C2538 1.524 . S
C2542 H2554 0.956 . S
C2542 H2555 0.961 . S
C2542 H2556 0.961 . S
C2543 C2540 1.539 . S
C2543 H2557 0.958 . S
C2543 H2558 0.961 . S
C2543 H2559 0.960 . S
H2544 C2528 0.931 . S
H2545 C2533 0.929 . S
H2546 C2534 0.960 . S
H2547 C2534 0.962 . S
H2548 C2534 0.960 . S
H2549 C2535 0.961 . S
H2550 C2535 0.961 . S
H2551 C2535 0.961 . S
H2552 C2536 0.931 . S
H2553 C2541 0.930 . S
H2554 C2542 0.956 . S
H2555 C2542 0.961 . S
H2556 C2542 0.961 . S
H2557 C2543 0.958 . S
H2558 C2543 0.961 . S
H2559 C2543 0.960 . S
C2560 C2561 1.391 . S
C2560 C2562 1.394 . S
C2560 H2576 0.931 . S
C2561 C2560 1.391 . S
C2561 C2565 1.376 . S
C2562 C2560 1.394 . S
C2562 C2563 1.369 . S
C2562 C2566 1.531 . S
C2563 C2562 1.369 . S
C2563 C2564 1.410 . S
C2563 C2571 1.503 . S
C2564 C2563 1.410 . S
C2564 C2565 1.392 . S
C2564 C2567 1.511 . S
C2565 C2561 1.376 . S
C2565 C2564 1.392 . S
C2565 H2577 0.929 . S
C2566 C2562 1.531 . S
C2566 H2578 0.960 . S
C2566 H2579 0.962 . S
C2566 H2580 0.960 . S
C2567 C2564 1.511 . S
C2567 H2581 0.961 . S
C2567 H2582 0.961 . S
C2567 H2583 0.961 . S
C2568 C2569 1.370 . S
C2568 C2570 1.363 . S
C2568 H2584 0.931 . S
C2569 C2568 1.370 . S
C2569 C2573 1.408 . S
C2570 C2568 1.363 . S
C2570 C2571 1.370 . S
C2570 C2574 1.524 . S
C2571 C2563 1.503 . S
C2571 C2570 1.370 . S
C2571 C2572 1.403 . S
C2572 C2571 1.403 . S
C2572 C2573 1.404 . S
C2572 C2575 1.539 . S
C2573 C2569 1.408 . S
C2573 C2572 1.404 . S
C2573 H2585 0.930 . S
C2574 C2570 1.524 . S
C2574 H2586 0.956 . S
C2574 H2587 0.961 . S
C2574 H2588 0.961 . S
C2575 C2572 1.539 . S
C2575 H2589 0.958 . S
C2575 H2590 0.961 . S
C2575 H2591 0.960 . S
H2576 C2560 0.931 . S
H2577 C2565 0.929 . S
H2578 C2566 0.960 . S
H2579 C2566 0.962 . S
H2580 C2566 0.960 . S
H2581 C2567 0.961 . S
H2582 C2567 0.961 . S
H2583 C2567 0.961 . S
H2584 C2568 0.931 . S
H2585 C2573 0.930 . S
H2586 C2574 0.956 . S
H2587 C2574 0.961 . S
H2588 C2574 0.961 . S
H2589 C2575 0.958 . S
H2590 C2575 0.961 . S
H2591 C2575 0.960 . S
C2592 C2593 1.391 . S
C2592 C2594 1.394 . S
C2592 H2608 0.931 . S
C2593 C2592 1.391 . S
C2593 C2597 1.376 . S
C2594 C2592 1.394 . S
C2594 C2595 1.369 . S
C2594 C2598 1.531 . S
C2595 C2594 1.369 . S
C2595 C2596 1.410 . S
C2595 C2603 1.503 1_554 S
C2596 C2595 1.410 . S
C2596 C2597 1.392 . S
C2596 C2599 1.511 . S
C2597 C2593 1.376 . S
C2597 C2596 1.392 . S
C2597 H2609 0.929 . S
C2598 C2594 1.531 . S
C2598 H2610 0.960 1_554 S
C2598 H2611 0.962 1_554 S
C2598 H2612 0.960 . S
C2599 C2596 1.511 . S
C2599 H2613 0.961 . S
C2599 H2614 0.961 . S
C2599 H2615 0.961 . S
C2600 C2601 1.370 . S
C2600 C2602 1.363 . S
C2600 H2616 0.931 . S
C2601 C2600 1.370 . S
C2601 C2605 1.408 . S
C2602 C2600 1.363 . S
C2602 C2603 1.370 . S
C2602 C2606 1.524 . S
C2603 C2595 1.503 1_556 S
C2603 C2602 1.370 . S
C2603 C2604 1.403 . S
C2604 C2603 1.403 . S
C2604 C2605 1.404 . S
C2604 C2607 1.539 . S
C2605 C2601 1.408 . S
C2605 C2604 1.404 . S
C2605 H2617 0.930 . S
C2606 C2602 1.524 . S
C2606 H2618 0.956 . S
C2606 H2619 0.961 . S
C2606 H2620 0.961 . S
C2607 C2604 1.539 . S
C2607 H2621 0.958 . S
C2607 H2622 0.961 . S
C2607 H2623 0.960 1_556 S
H2608 C2592 0.931 . S
H2609 C2597 0.929 . S
H2610 C2598 0.960 1_556 S
H2611 C2598 0.962 1_556 S
H2612 C2598 0.960 . S
H2613 C2599 0.961 . S
H2614 C2599 0.961 . S
H2615 C2599 0.961 . S
H2616 C2600 0.931 . S
H2617 C2605 0.930 . S
H2618 C2606 0.956 . S
H2619 C2606 0.961 . S
H2620 C2606 0.961 . S
H2621 C2607 0.958 . S
H2622 C2607 0.961 . S
H2623 C2607 0.960 1_554 S
C2624 C2625 1.391 1_545 S
C2624 C2626 1.394 . S
C2624 H2640 0.931 . S
C2625 C2624 1.391 1_565 S
C2625 C2629 1.376 . S
C2626 C2624 1.394 . S
C2626 C2627 1.387 . S
C2626 C2630 1.531 . S
C2627 C2626 1.387 . S
C2627 C2628 1.381 1_545 S
C2627 C2635 1.511 . S
C2628 C2627 1.381 1_565 S
C2628 C2629 1.392 . S
C2628 C2631 1.511 . S
C2629 C2625 1.376 . S
C2629 C2628 1.392 . S
C2629 H2641 0.929 . S
C2630 C2626 1.531 . S
C2630 H2642 0.960 . S
C2630 H2643 0.962 . S
C2630 H2644 0.960 . S
C2631 C2628 1.511 . S
C2631 H2645 0.961 . S
C2631 H2646 0.961 . S
C2631 H2647 0.961 . S
C2632 C2633 1.345 1_565 S
C2632 C2634 1.372 . S
C2632 H2648 0.949 . S
C2633 C2632 1.345 1_545 S
C2633 C2637 1.408 . S
C2634 C2632 1.372 . S
C2634 C2635 1.370 1_565 S
C2634 C2638 1.524 . S
C2635 C2627 1.511 . S
C2635 C2634 1.370 1_545 S
C2635 C2636 1.403 . S
C2636 C2635 1.403 . S
C2636 C2637 1.404 . S
C2636 C2639 1.539 . S
C2637 C2633 1.408 . S
C2637 C2636 1.404 . S
C2637 H2649 0.930 . S
C2638 C2634 1.524 . S
C2638 H2650 0.956 . S
C2638 H2651 0.961 . S
C2638 H2652 0.961 . S
C2639 C2636 1.539 . S
C2639 H2653 0.958 . S
C2639 H2654 0.961 . S
C2639 H2655 0.960 . S
H2640 C2624 0.931 . S
H2641 C2629 0.929 . S
H2642 C2630 0.960 . S
H2643 C2630 0.962 . S
H2644 C2630 0.960 . S
H2645 C2631 0.961 . S
H2646 C2631 0.961 . S
H2647 C2631 0.961 . S
H2648 C2632 0.949 . S
H2649 C2637 0.930 . S
H2650 C2638 0.956 . S
H2651 C2638 0.961 . S
H2652 C2638 0.961 . S
H2653 C2639 0.958 . S
H2654 C2639 0.961 . S
H2655 C2639 0.960 . S
C2656 C2657 1.391 . S
C2656 C2658 1.394 . S
C2656 H2672 0.931 . S
C2657 C2656 1.391 . S
C2657 C2661 1.376 . S
C2658 C2656 1.394 . S
C2658 C2659 1.369 . S
C2658 C2662 1.531 . S
C2659 C2658 1.369 . S
C2659 C2660 1.410 . S
C2659 C2667 1.503 . S
C2660 C2659 1.410 . S
C2660 C2661 1.392 . S
C2660 C2663 1.511 . S
C2661 C2657 1.376 . S
C2661 C2660 1.392 . S
C2661 H2673 0.929 . S
C2662 C2658 1.531 . S
C2662 H2674 0.960 . S
C2662 H2675 0.962 . S
C2662 H2676 0.960 . S
C2663 C2660 1.511 . S
C2663 H2677 0.961 . S
C2663 H2678 0.961 . S
C2663 H2679 0.961 . S
C2664 C2665 1.370 . S
C2664 C2666 1.363 . S
C2664 H2680 0.931 . S
C2665 C2664 1.370 . S
C2665 C2669 1.408 . S
C2666 C2664 1.363 . S
C2666 C2667 1.370 . S
C2666 C2670 1.524 . S
C2667 C2659 1.503 . S
C2667 C2666 1.370 . S
C2667 C2668 1.403 . S
C2668 C2667 1.403 . S
C2668 C2669 1.404 . S
C2668 C2671 1.539 . S
C2669 C2665 1.408 . S
C2669 C2668 1.404 . S
C2669 H2681 0.930 . S
C2670 C2666 1.524 . S
C2670 H2682 0.956 . S
C2670 H2683 0.961 . S
C2670 H2684 0.961 . S
C2671 C2668 1.539 . S
C2671 H2685 0.958 . S
C2671 H2686 0.961 . S
C2671 H2687 0.960 . S
H2672 C2656 0.931 . S
H2673 C2661 0.929 . S
H2674 C2662 0.960 . S
H2675 C2662 0.962 . S
H2676 C2662 0.960 . S
H2677 C2663 0.961 . S
H2678 C2663 0.961 . S
H2679 C2663 0.961 . S
H2680 C2664 0.931 . S
H2681 C2669 0.930 . S
H2682 C2670 0.956 . S
H2683 C2670 0.961 . S
H2684 C2670 0.961 . S
H2685 C2671 0.958 . S
H2686 C2671 0.961 . S
H2687 C2671 0.960 . S
C2688 C2689 1.391 . S
C2688 C2690 1.392 1_565 S
C2688 H2704 0.931 1_565 S
C2689 C2688 1.391 . S
C2689 C2693 1.376 . S
C2690 C2688 1.392 1_545 S
C2690 C2691 1.365 1_545 S
C2690 C2694 1.536 . S
C2691 C2690 1.365 1_565 S
C2691 C2692 1.410 . S
C2691 C2699 1.505 . S
C2692 C2691 1.410 . S
C2692 C2693 1.392 . S
C2692 C2695 1.511 . S
C2693 C2689 1.376 . S
C2693 C2692 1.392 . S
C2693 H2705 0.929 . S
C2694 C2690 1.536 . S
C2694 H2706 0.960 . S
C2694 H2707 0.962 . S
C2694 H2708 0.960 . S
C2695 C2692 1.511 . S
C2695 H2709 0.961 . S
C2695 H2710 0.961 . S
C2695 H2711 0.961 . S
C2696 C2697 1.370 . S
C2696 C2698 1.363 . S
C2696 H2712 0.931 . S
C2697 C2696 1.370 . S
C2697 C2701 1.408 1_545 S
C2698 C2696 1.363 . S
C2698 C2699 1.366 1_545 S
C2698 C2702 1.524 . S
C2699 C2691 1.505 . S
C2699 C2698 1.366 1_565 S
C2699 C2700 1.405 . S
C2700 C2699 1.405 . S
C2700 C2701 1.404 . S
C2700 C2703 1.539 . S
C2701 C2697 1.408 1_565 S
C2701 C2700 1.404 . S
C2701 H2713 0.930 . S
C2702 C2698 1.524 . S
C2702 H2714 0.956 . S
C2702 H2715 0.961 . S
C2702 H2716 0.961 . S
C2703 C2700 1.539 . S
C2703 H2717 0.958 . S
C2703 H2718 0.961 . S
C2703 H2719 0.960 . S
H2704 C2688 0.931 1_545 S
H2705 C2693 0.929 . S
H2706 C2694 0.960 . S
H2707 C2694 0.962 . S
H2708 C2694 0.960 . S
H2709 C2695 0.961 . S
H2710 C2695 0.961 . S
H2711 C2695 0.961 . S
H2712 C2696 0.931 . S
H2713 C2701 0.930 . S
H2714 C2702 0.956 . S
H2715 C2702 0.961 . S
H2716 C2702 0.961 . S
H2717 C2703 0.958 . S
H2718 C2703 0.961 . S
H2719 C2703 0.960 . S
C2720 C2721 1.391 . S
C2720 C2722 1.394 . S
C2720 H2736 0.931 . S
C2721 C2720 1.391 . S
C2721 C2725 1.376 . S
C2722 C2720 1.394 . S
C2722 C2723 1.369 . S
C2722 C2726 1.531 . S
C2723 C2722 1.369 . S
C2723 C2724 1.410 . S
C2723 C2731 1.503 1_554 S
C2724 C2723 1.410 . S
C2724 C2725 1.392 . S
C2724 C2727 1.511 . S
C2725 C2721 1.376 . S
C2725 C2724 1.392 . S
C2725 H2737 0.929 . S
C2726 C2722 1.531 . S
C2726 H2738 0.960 . S
C2726 H2739 0.962 . S
C2726 H2740 0.960 . S
C2727 C2724 1.511 . S
C2727 H2741 0.961 . S
C2727 H2742 0.961 1_554 S
C2727 H2743 0.961 1_554 S
C2728 C2729 1.370 . S
C2728 C2730 1.363 . S
C2728 H2744 0.931 . S
C2729 C2728 1.370 . S
C2729 C2733 1.408 . S
C2730 C2728 1.363 . S
C2730 C2731 1.370 . S
C2730 C2734 1.524 . S
C2731 C2723 1.503 1_556 S
C2731 C2730 1.370 . S
C2731 C2732 1.403 . S
C2732 C2731 1.403 . S
C2732 C2733 1.404 . S
C2732 C2735 1.539 . S
C2733 C2729 1.408 . S
C2733 C2732 1.404 . S
C2733 H2745 0.930 . S
C2734 C2730 1.524 . S
C2734 H2746 0.956 1_556 S
C2734 H2747 0.961 1_556 S
C2734 H2748 0.961 . S
C2735 C2732 1.539 . S
C2735 H2749 0.958 . S
C2735 H2750 0.961 . S
C2735 H2751 0.960 . S
H2736 C2720 0.931 . S
H2737 C2725 0.929 . S
H2738 C2726 0.960 . S
H2739 C2726 0.962 . S
H2740 C2726 0.960 . S
H2741 C2727 0.961 . S
H2742 C2727 0.961 1_556 S
H2743 C2727 0.961 1_556 S
H2744 C2728 0.931 . S
H2745 C2733 0.930 . S
H2746 C2734 0.956 1_554 S
H2747 C2734 0.961 1_554 S
H2748 C2734 0.961 . S
H2749 C2735 0.958 . S
H2750 C2735 0.961 . S
H2751 C2735 0.960 . S
C2752 C2753 1.391 . S
C2752 C2754 1.394 . S
C2752 H2768 0.931 . S
C2753 C2752 1.391 . S
C2753 C2757 1.376 . S
C2754 C2752 1.394 . S
C2754 C2755 1.369 . S
C2754 C2758 1.531 . S
C2755 C2754 1.369 . S
C2755 C2756 1.419 . S
C2755 C2763 1.509 . S
C2756 C2755 1.419 . S
C2756 C2757 1.398 . S
C2756 C2759 1.496 1_545 S
C2757 C2753 1.376 . S
C2757 C2756 1.398 . S
C2757 H2769 0.928 . S
C2758 C2754 1.531 . S
C2758 H2770 0.960 . S
C2758 H2771 0.962 . S
C2758 H2772 0.960 . S
C2759 C2756 1.496 1_565 S
C2759 H2773 0.961 . S
C2759 H2774 0.961 . S
C2759 H2775 0.973 . S
C2760 C2761 1.370 . S
C2760 C2762 1.363 . S
C2760 H2776 0.931 . S
C2761 C2760 1.370 . S
C2761 C2765 1.408 1_565 S
C2762 C2760 1.363 . S
C2762 C2763 1.355 1_565 S
C2762 C2766 1.524 . S
C2763 C2755 1.509 . S
C2763 C2762 1.355 1_545 S
C2763 C2764 1.414 . S
C2764 C2763 1.414 . S
C2764 C2765 1.404 . S
C2764 C2767 1.539 . S
C2765 C2761 1.408 1_545 S
C2765 C2764 1.404 . S
C2765 H2777 0.930 . S
C2766 C2762 1.524 . S
C2766 H2778 0.956 . S
C2766 H2779 0.961 . S
C2766 H2780 0.961 . S
C2767 C2764 1.539 . S
C2767 H2781 0.958 . S
C2767 H2782 0.961 . S
C2767 H2783 0.960 . S
H2768 C2752 0.931 . S
H2769 C2757 0.928 . S
H2770 C2758 0.960 . S
H2771 C2758 0.962 . S
H2772 C2758 0.960 . S
H2773 C2759 0.961 . S
H2774 C2759 0.961 . S
H2775 C2759 0.973 . S
H2776 C2760 0.931 . S
H2777 C2765 0.930 . S
H2778 C2766 0.956 . S
H2779 C2766 0.961 . S
H2780 C2766 0.961 . S
H2781 C2767 0.958 . S
H2782 C2767 0.961 . S
H2783 C2767 0.960 . S
C2784 C2785 1.391 . S
C2784 C2786 1.394 . S
C2784 H2800 0.931 . S
C2785 C2784 1.391 . S
C2785 C2789 1.376 . S
C2786 C2784 1.394 . S
C2786 C2787 1.369 . S
C2786 C2790 1.531 . S
C2787 C2786 1.369 . S
C2787 C2788 1.410 . S
C2787 C2795 1.503 . S
C2788 C2787 1.410 . S
C2788 C2789 1.392 . S
C2788 C2791 1.511 . S
C2789 C2785 1.376 . S
C2789 C2788 1.392 . S
C2789 H2801 0.929 . S
C2790 C2786 1.531 . S
C2790 H2802 0.960 . S
C2790 H2803 0.962 . S
C2790 H2804 0.960 . S
C2791 C2788 1.511 . S
C2791 H2805 0.961 . S
C2791 H2806 0.961 . S
C2791 H2807 0.961 . S
C2792 C2793 1.370 . S
C2792 C2794 1.363 . S
C2792 H2808 0.931 . S
C2793 C2792 1.370 . S
C2793 C2797 1.408 . S
C2794 C2792 1.363 . S
C2794 C2795 1.370 . S
C2794 C2798 1.524 . S
C2795 C2787 1.503 . S
C2795 C2794 1.370 . S
C2795 C2796 1.403 . S
C2796 C2795 1.403 . S
C2796 C2797 1.404 . S
C2796 C2799 1.539 . S
C2797 C2793 1.408 . S
C2797 C2796 1.404 . S
C2797 H2809 0.930 . S
C2798 C2794 1.524 . S
C2798 H2810 0.956 . S
C2798 H2811 0.961 . S
C2798 H2812 0.961 . S
C2799 C2796 1.539 . S
C2799 H2813 0.958 . S
C2799 H2814 0.961 . S
C2799 H2815 0.960 . S
H2800 C2784 0.931 . S
H2801 C2789 0.929 . S
H2802 C2790 0.960 . S
H2803 C2790 0.962 . S
H2804 C2790 0.960 . S
H2805 C2791 0.961 . S
H2806 C2791 0.961 . S
H2807 C2791 0.961 . S
H2808 C2792 0.931 . S
H2809 C2797 0.930 . S
H2810 C2798 0.956 . S
H2811 C2798 0.961 . S
H2812 C2798 0.961 . S
H2813 C2799 0.958 . S
H2814 C2799 0.961 . S
H2815 C2799 0.960 . S
C2816 C2817 1.391 . S
C2816 C2818 1.394 . S
C2816 H2832 0.931 . S
C2817 C2816 1.391 . S
C2817 C2821 1.376 . S
C2818 C2816 1.394 . S
C2818 C2819 1.369 . S
C2818 C2822 1.531 1_565 S
C2819 C2818 1.369 . S
C2819 C2820 1.410 . S
C2819 C2827 1.510 . S
C2820 C2819 1.410 . S
C2820 C2821 1.392 . S
C2820 C2823 1.511 . S
C2821 C2817 1.376 . S
C2821 C2820 1.392 . S
C2821 H2833 0.929 . S
C2822 C2818 1.531 1_545 S
C2822 H2834 0.960 . S
C2822 H2835 0.962 . S
C2822 H2836 0.960 . S
C2823 C2820 1.511 . S
C2823 H2837 0.961 . S
C2823 H2838 0.961 . S
C2823 H2839 0.961 . S
C2824 C2825 1.370 . S
C2824 C2826 1.363 . S
C2824 H2840 0.931 . S
C2825 C2824 1.370 . S
C2825 C2829 1.408 1_545 S
C2826 C2824 1.363 . S
C2826 C2827 1.349 1_545 S
C2826 C2830 1.524 . S
C2827 C2819 1.510 . S
C2827 C2826 1.349 1_565 S
C2827 C2828 1.417 . S
C2828 C2827 1.417 . S
C2828 C2829 1.404 . S
C2828 C2831 1.539 . S
C2829 C2825 1.408 1_565 S
C2829 C2828 1.404 . S
C2829 H2841 0.930 . S
C2830 C2826 1.524 . S
C2830 H2842 0.956 . S
C2830 H2843 0.961 . S
C2830 H2844 0.961 . S
C2831 C2828 1.539 . S
C2831 H2845 0.958 . S
C2831 H2846 0.961 . S
C2831 H2847 0.960 . S
H2832 C2816 0.931 . S
H2833 C2821 0.929 . S
H2834 C2822 0.960 . S
H2835 C2822 0.962 . S
H2836 C2822 0.960 . S
H2837 C2823 0.961 . S
H2838 C2823 0.961 . S
H2839 C2823 0.961 . S
H2840 C2824 0.931 . S
H2841 C2829 0.930 . S
H2842 C2830 0.956 . S
H2843 C2830 0.961 . S
H2844 C2830 0.961 . S
H2845 C2831 0.958 . S
H2846 C2831 0.961 . S
H2847 C2831 0.960 . S
C2848 C2849 1.391 . S
C2848 C2850 1.394 . S
C2848 H2864 0.931 . S
C2849 C2848 1.391 . S
C2849 C2853 1.376 . S
C2850 C2848 1.394 . S
C2850 C2851 1.369 . S
C2850 C2854 1.531 . S
C2851 C2850 1.369 . S
C2851 C2852 1.410 . S
C2851 C2859 1.503 . S
C2852 C2851 1.410 . S
C2852 C2853 1.392 . S
C2852 C2855 1.511 . S
C2853 C2849 1.376 . S
C2853 C2852 1.392 . S
C2853 H2865 0.929 . S
C2854 C2850 1.531 . S
C2854 H2866 0.960 . S
C2854 H2867 0.962 . S
C2854 H2868 0.960 . S
C2855 C2852 1.511 . S
C2855 H2869 0.961 . S
C2855 H2870 0.961 . S
C2855 H2871 0.961 . S
C2856 C2857 1.370 . S
C2856 C2858 1.363 . S
C2856 H2872 0.931 . S
C2857 C2856 1.370 . S
C2857 C2861 1.408 . S
C2858 C2856 1.363 . S
C2858 C2859 1.370 . S
C2858 C2862 1.524 . S
C2859 C2851 1.503 . S
C2859 C2858 1.370 . S
C2859 C2860 1.403 . S
C2860 C2859 1.403 . S
C2860 C2861 1.404 . S
C2860 C2863 1.539 . S
C2861 C2857 1.408 . S
C2861 C2860 1.404 . S
C2861 H2873 0.930 . S
C2862 C2858 1.524 . S
C2862 H2874 0.956 . S
C2862 H2875 0.961 . S
C2862 H2876 0.961 . S
C2863 C2860 1.539 . S
C2863 H2877 0.958 . S
C2863 H2878 0.961 . S
C2863 H2879 0.960 . S
H2864 C2848 0.931 . S
H2865 C2853 0.929 . S
H2866 C2854 0.960 . S
H2867 C2854 0.962 . S
H2868 C2854 0.960 . S
H2869 C2855 0.961 . S
H2870 C2855 0.961 . S
H2871 C2855 0.961 . S
H2872 C2856 0.931 . S
H2873 C2861 0.930 . S
H2874 C2862 0.956 . S
H2875 C2862 0.961 . S
H2876 C2862 0.961 . S
H2877 C2863 0.958 . S
H2878 C2863 0.961 . S
H2879 C2863 0.960 . S
C2880 C2881 1.391 . S
C2880 C2882 1.394 . S
C2880 H2896 0.931 . S
C2881 C2880 1.391 . S
C2881 C2885 1.376 . S
C2882 C2880 1.394 . S
C2882 C2883 1.369 . S
C2882 C2886 1.531 . S
C2883 C2882 1.369 . S
C2883 C2884 1.410 . S
C2883 C2891 1.503 . S
C2884 C2883 1.410 . S
C2884 C2885 1.392 . S
C2884 C2887 1.511 . S
C2885 C2881 1.376 . S
C2885 C2884 1.392 . S
C2885 H2897 0.929 . S
C2886 C2882 1.531 . S
C2886 H2898 0.960 . S
C2886 H2899 0.962 . S
C2886 H2900 0.960 . S
C2887 C2884 1.511 . S
C2887 H2901 0.961 . S
C2887 H2902 0.961 . S
C2887 H2903 0.961 . S
C2888 C2889 1.370 . S
C2888 C2890 1.363 . S
C2888 H2904 0.931 . S
C2889 C2888 1.370 . S
C2889 C2893 1.408 . S
C2890 C2888 1.363 . S
C2890 C2891 1.370 . S
C2890 C2894 1.524 . S
C2891 C2883 1.503 . S
C2891 C2890 1.370 . S
C2891 C2892 1.403 . S
C2892 C2891 1.403 . S
C2892 C2893 1.404 . S
C2892 C2895 1.539 . S
C2893 C2889 1.408 . S
C2893 C2892 1.404 . S
C2893 H2905 0.930 . S
C2894 C2890 1.524 . S
C2894 H2906 0.956 . S
C2894 H2907 0.961 . S
C2894 H2908 0.961 . S
C2895 C2892 1.539 . S
C2895 H2909 0.958 . S
C2895 H2910 0.961 . S
C2895 H2911 0.960 . S
H2896 C2880 0.931 . S
H2897 C2885 0.929 . S
H2898 C2886 0.960 . S
H2899 C2886 0.962 . S
H2900 C2886 0.960 . S
H2901 C2887 0.961 . S
H2902 C2887 0.961 . S
H2903 C2887 0.961 . S
H2904 C2888 0.931 . S
H2905 C2893 0.930 . S
H2906 C2894 0.956 . S
H2907 C2894 0.961 . S
H2908 C2894 0.961 . S
H2909 C2895 0.958 . S
H2910 C2895 0.961 . S
H2911 C2895 0.960 . S
C2912 C2913 1.391 . S
C2912 C2914 1.394 . S
C2912 H2928 0.931 . S
C2913 C2912 1.391 . S
C2913 C2917 1.376 . S
C2914 C2912 1.394 . S
C2914 C2915 1.369 . S
C2914 C2918 1.531 . S
C2915 C2914 1.369 . S
C2915 C2916 1.410 . S
C2915 C2923 1.503 1_554 S
C2916 C2915 1.410 . S
C2916 C2917 1.392 . S
C2916 C2919 1.511 . S
C2917 C2913 1.376 . S
C2917 C2916 1.392 . S
C2917 H2929 0.929 . S
C2918 C2914 1.531 . S
C2918 H2930 0.960 . S
C2918 H2931 0.962 . S
C2918 H2932 0.960 . S
C2919 C2916 1.511 . S
C2919 H2933 0.961 . S
C2919 H2934 0.961 1_554 S
C2919 H2935 0.961 1_554 S
C2920 C2921 1.370 . S
C2920 C2922 1.363 . S
C2920 H2936 0.931 . S
C2921 C2920 1.370 . S
C2921 C2925 1.408 . S
C2922 C2920 1.363 . S
C2922 C2923 1.370 . S
C2922 C2926 1.524 . S
C2923 C2915 1.503 1_556 S
C2923 C2922 1.370 . S
C2923 C2924 1.403 . S
C2924 C2923 1.403 . S
C2924 C2925 1.404 . S
C2924 C2927 1.539 . S
C2925 C2921 1.408 . S
C2925 C2924 1.404 . S
C2925 H2937 0.930 . S
C2926 C2922 1.524 . S
C2926 H2938 0.956 1_556 S
C2926 H2939 0.941 1_556 S
C2926 H2940 0.961 . S
C2927 C2924 1.539 . S
C2927 H2941 0.958 . S
C2927 H2942 0.961 . S
C2927 H2943 0.960 . S
H2928 C2912 0.931 . S
H2929 C2917 0.929 . S
H2930 C2918 0.960 . S
H2931 C2918 0.962 . S
H2932 C2918 0.960 . S
H2933 C2919 0.961 . S
H2934 C2919 0.961 1_556 S
H2935 C2919 0.961 1_556 S
H2936 C2920 0.931 . S
H2937 C2925 0.930 . S
H2938 C2926 0.956 1_554 S
H2939 C2926 0.941 1_554 S
H2940 C2926 0.961 . S
H2941 C2927 0.958 . S
H2942 C2927 0.961 . S
H2943 C2927 0.960 . S
C2944 C2945 1.391 . S
C2944 C2946 1.394 . S
C2944 H2960 0.931 . S
C2945 C2944 1.391 . S
C2945 C2949 1.376 . S
C2946 C2944 1.394 . S
C2946 C2947 1.369 . S
C2946 C2950 1.531 . S
C2947 C2946 1.369 . S
C2947 C2948 1.410 . S
C2947 C2955 1.503 . S
C2948 C2947 1.410 . S
C2948 C2949 1.392 . S
C2948 C2951 1.511 . S
C2949 C2945 1.376 . S
C2949 C2948 1.392 . S
C2949 H2961 0.929 . S
C2950 C2946 1.531 . S
C2950 H2962 0.960 . S
C2950 H2963 0.962 . S
C2950 H2964 0.960 . S
C2951 C2948 1.511 . S
C2951 H2965 0.961 . S
C2951 H2966 0.961 . S
C2951 H2967 0.961 . S
C2952 C2953 1.370 . S
C2952 C2954 1.363 . S
C2952 H2968 0.931 . S
C2953 C2952 1.370 . S
C2953 C2957 1.408 . S
C2954 C2952 1.363 . S
C2954 C2955 1.370 . S
C2954 C2958 1.524 . S
C2955 C2947 1.503 . S
C2955 C2954 1.370 . S
C2955 C2956 1.403 . S
C2956 C2955 1.403 . S
C2956 C2957 1.404 . S
C2956 C2959 1.539 . S
C2957 C2953 1.408 . S
C2957 C2956 1.404 . S
C2957 H2969 0.930 . S
C2958 C2954 1.524 . S
C2958 H2970 0.956 . S
C2958 H2971 0.961 . S
C2958 H2972 0.961 . S
C2959 C2956 1.539 . S
C2959 H2973 0.958 . S
C2959 H2974 0.961 . S
C2959 H2975 0.960 . S
H2960 C2944 0.931 . S
H2961 C2949 0.929 . S
H2962 C2950 0.960 . S
H2963 C2950 0.962 . S
H2964 C2950 0.960 . S
H2965 C2951 0.961 . S
H2966 C2951 0.961 . S
H2967 C2951 0.961 . S
H2968 C2952 0.931 . S
H2969 C2957 0.930 . S
H2970 C2958 0.956 . S
H2971 C2958 0.961 . S
H2972 C2958 0.961 . S
H2973 C2959 0.958 . S
H2974 C2959 0.961 . S
H2975 C2959 0.960 . S
C2976 C2977 1.391 . S
C2976 C2978 1.394 . S
C2976 H2992 0.931 . S
C2977 C2976 1.391 . S
C2977 C2981 1.376 . S
C2978 C2976 1.394 . S
C2978 C2979 1.369 . S
C2978 C2982 1.531 . S
C2979 C2978 1.369 . S
C2979 C2980 1.410 . S
C2979 C2987 1.503 . S
C2980 C2979 1.410 . S
C2980 C2981 1.392 . S
C2980 C2983 1.511 . S
C2981 C2977 1.376 . S
C2981 C2980 1.392 . S
C2981 H2993 0.929 . S
C2982 C2978 1.531 . S
C2982 H2994 0.960 . S
C2982 H2995 0.962 . S
C2982 H2996 0.960 . S
C2983 C2980 1.511 . S
C2983 H2997 0.961 . S
C2983 H2998 0.961 . S
C2983 H2999 0.961 . S
C2984 C2985 1.370 . S
C2984 C2986 1.363 . S
C2984 H3000 0.931 . S
C2985 C2984 1.370 . S
C2985 C2989 1.408 . S
C2986 C2984 1.363 . S
C2986 C2987 1.370 . S
C2986 C2990 1.524 . S
C2987 C2979 1.503 . S
C2987 C2986 1.370 . S
C2987 C2988 1.403 . S
C2988 C2987 1.403 . S
C2988 C2989 1.404 . S
C2988 C2991 1.539 . S
C2989 C2985 1.408 . S
C2989 C2988 1.404 . S
C2989 H3001 0.930 . S
C2990 C2986 1.524 . S
C2990 H3002 0.956 . S
C2990 H3003 0.961 . S
C2990 H3004 0.961 . S
C2991 C2988 1.539 . S
C2991 H3005 0.958 . S
C2991 H3006 0.961 . S
C2991 H3007 0.960 . S
H2992 C2976 0.931 . S
H2993 C2981 0.929 . S
H2994 C2982 0.960 . S
H2995 C2982 0.962 . S
H2996 C2982 0.960 . S
H2997 C2983 0.961 . S
H2998 C2983 0.961 . S
H2999 C2983 0.961 . S
H3000 C2984 0.931 . S
H3001 C2989 0.930 . S
H3002 C2990 0.956 . S
H3003 C2990 0.961 . S
H3004 C2990 0.961 . S
H3005 C2991 0.958 . S
H3006 C2991 0.961 . S
H3007 C2991 0.960 . S
C3008 C3009 1.391 . S
C3008 C3010 1.394 . S
C3008 H3024 0.931 . S
C3009 C3008 1.391 . S
C3009 C3013 1.376 . S
C3010 C3008 1.394 . S
C3010 C3011 1.369 . S
C3010 C3014 1.531 . S
C3011 C3010 1.369 . S
C3011 C3012 1.410 . S
C3011 C3019 1.503 . S
C3012 C3011 1.410 . S
C3012 C3013 1.392 . S
C3012 C3015 1.511 . S
C3013 C3009 1.376 . S
C3013 C3012 1.392 . S
C3013 H3025 0.929 . S
C3014 C3010 1.531 . S
C3014 H3026 0.960 . S
C3014 H3027 0.962 . S
C3014 H3028 0.960 . S
C3015 C3012 1.511 . S
C3015 H3029 0.961 . S
C3015 H3030 0.961 . S
C3015 H3031 0.961 . S
C3016 C3017 1.370 . S
C3016 C3018 1.363 . S
C3016 H3032 0.931 . S
C3017 C3016 1.370 . S
C3017 C3021 1.408 . S
C3018 C3016 1.363 . S
C3018 C3019 1.370 . S
C3018 C3022 1.524 . S
C3019 C3011 1.503 . S
C3019 C3018 1.370 . S
C3019 C3020 1.403 . S
C3020 C3019 1.403 . S
C3020 C3021 1.404 . S
C3020 C3023 1.539 . S
C3021 C3017 1.408 . S
C3021 C3020 1.404 . S
C3021 H3033 0.930 . S
C3022 C3018 1.524 . S
C3022 H3034 0.956 . S
C3022 H3035 0.961 . S
C3022 H3036 0.961 . S
C3023 C3020 1.539 . S
C3023 H3037 0.958 . S
C3023 H3038 0.961 . S
C3023 H3039 0.960 . S
H3024 C3008 0.931 . S
H3025 C3013 0.929 . S
H3026 C3014 0.960 . S
H3027 C3014 0.962 . S
H3028 C3014 0.960 . S
H3029 C3015 0.961 . S
H3030 C3015 0.961 . S
H3031 C3015 0.961 . S
H3032 C3016 0.931 . S
H3033 C3021 0.930 . S
H3034 C3022 0.956 . S
H3035 C3022 0.961 . S
H3036 C3022 0.961 . S
H3037 C3023 0.958 . S
H3038 C3023 0.961 . S
H3039 C3023 0.960 . S
C3040 C3041 1.391 . S
C3040 C3042 1.394 . S
C3040 H3056 0.931 . S
C3041 C3040 1.391 . S
C3041 C3045 1.376 . S
C3042 C3040 1.394 . S
C3042 C3043 1.369 . S
C3042 C3046 1.531 . S
C3043 C3042 1.369 . S
C3043 C3044 1.410 . S
C3043 C3051 1.503 1_556 S
C3044 C3043 1.410 . S
C3044 C3045 1.392 . S
C3044 C3047 1.511 . S
C3045 C3041 1.376 . S
C3045 C3044 1.392 . S
C3045 H3057 0.929 . S
C3046 C3042 1.531 . S
C3046 H3058 0.962 . S
C3046 H3059 0.962 . S
C3046 H3060 0.960 . S
C3047 C3044 1.511 . S
C3047 H3061 0.961 . S
C3047 H3062 0.961 1_556 S
C3047 H3063 0.961 . S
C3048 C3049 1.370 . S
C3048 C3050 1.363 . S
C3048 H3064 0.931 . S
C3049 C3048 1.370 . S
C3049 C3053 1.408 . S
C3050 C3048 1.363 . S
C3050 C3051 1.370 . S
C3050 C3054 1.524 . S
C3051 C3043 1.503 1_554 S
C3051 C3050 1.370 . S
C3051 C3052 1.403 . S
C3052 C3051 1.403 . S
C3052 C3053 1.404 . S
C3052 C3055 1.539 . S
C3053 C3049 1.408 . S
C3053 C3052 1.404 . S
C3053 H3065 0.930 . S
C3054 C3050 1.524 . S
C3054 H3066 0.956 . S
C3054 H3067 0.961 . S
C3054 H3068 0.961 . S
C3055 C3052 1.539 . S
C3055 H3069 0.961 . S
C3055 H3070 0.961 . S
C3055 H3071 0.960 1_554 S
H3056 C3040 0.931 . S
H3057 C3045 0.929 . S
H3058 C3046 0.962 . S
H3059 C3046 0.962 . S
H3060 C3046 0.960 . S
H3061 C3047 0.961 . S
H3062 C3047 0.961 1_554 S
H3063 C3047 0.961 . S
H3064 C3048 0.931 . S
H3065 C3053 0.930 . S
H3066 C3054 0.956 . S
H3067 C3054 0.961 . S
H3068 C3054 0.961 . S
H3069 C3055 0.961 . S
H3070 C3055 0.961 . S
H3071 C3055 0.960 1_556 S
C3072 C3073 1.391 . S
C3072 C3074 1.394 . S
C3072 H3088 0.931 . S
C3073 C3072 1.391 . S
C3073 C3077 1.376 . S
C3074 C3072 1.394 . S
C3074 C3075 1.369 . S
C3074 C3078 1.531 . S
C3075 C3074 1.369 . S
C3075 C3076 1.410 . S
C3075 C3083 1.503 . S
C3076 C3075 1.410 . S
C3076 C3077 1.392 . S
C3076 C3079 1.511 . S
C3077 C3073 1.376 . S
C3077 C3076 1.392 . S
C3077 H3089 0.929 . S
C3078 C3074 1.531 . S
C3078 H3090 0.960 . S
C3078 H3091 0.962 . S
C3078 H3092 0.960 . S
C3079 C3076 1.511 . S
C3079 H3093 0.961 . S
C3079 H3094 0.961 . S
C3079 H3095 0.961 . S
C3080 C3081 1.370 . S
C3080 C3082 1.363 . S
C3080 H3096 0.931 . S
C3081 C3080 1.370 . S
C3081 C3085 1.408 . S
C3082 C3080 1.363 . S
C3082 C3083 1.370 . S
C3082 C3086 1.524 . S
C3083 C3075 1.503 . S
C3083 C3082 1.370 . S
C3083 C3084 1.403 . S
C3084 C3083 1.403 . S
C3084 C3085 1.404 . S
C3084 C3087 1.539 . S
C3085 C3081 1.408 . S
C3085 C3084 1.404 . S
C3085 H3097 0.930 . S
C3086 C3082 1.524 . S
C3086 H3098 0.956 . S
C3086 H3099 0.961 . S
C3086 H3100 0.961 . S
C3087 C3084 1.539 . S
C3087 H3101 0.958 . S
C3087 H3102 0.961 . S
C3087 H3103 0.960 . S
H3088 C3072 0.931 . S
H3089 C3077 0.929 . S
H3090 C3078 0.960 . S
H3091 C3078 0.962 . S
H3092 C3078 0.960 . S
H3093 C3079 0.961 . S
H3094 C3079 0.961 . S
H3095 C3079 0.961 . S
H3096 C3080 0.931 . S
H3097 C3085 0.930 . S
H3098 C3086 0.956 . S
H3099 C3086 0.961 . S
H3100 C3086 0.961 . S
H3101 C3087 0.958 . S
H3102 C3087 0.961 . S
H3103 C3087 0.960 . S
C3104 C3105 1.391 . S
C3104 C3106 1.394 . S
C3104 H3120 0.931 . S
C3105 C3104 1.391 . S
C3105 C3109 1.376 . S
C3106 C3104 1.394 . S
C3106 C3107 1.369 . S
C3106 C3110 1.531 . S
C3107 C3106 1.369 . S
C3107 C3108 1.410 . S
C3107 C3115 1.503 . S
C3108 C3107 1.410 . S
C3108 C3109 1.392 . S
C3108 C3111 1.511 . S
C3109 C3105 1.376 . S
C3109 C3108 1.392 . S
C3109 H3121 0.929 . S
C3110 C3106 1.531 . S
C3110 H3122 0.960 . S
C3110 H3123 0.962 . S
C3110 H3124 0.960 . S
C3111 C3108 1.511 . S
C3111 H3125 0.961 . S
C3111 H3126 0.961 . S
C3111 H3127 0.961 . S
C3112 C3113 1.370 . S
C3112 C3114 1.363 . S
C3112 H3128 0.931 . S
C3113 C3112 1.370 . S
C3113 C3117 1.408 . S
C3114 C3112 1.363 . S
C3114 C3115 1.370 . S
C3114 C3118 1.524 . S
C3115 C3107 1.503 . S
C3115 C3114 1.370 . S
C3115 C3116 1.403 . S
C3116 C3115 1.403 . S
C3116 C3117 1.404 . S
C3116 C3119 1.539 . S
C3117 C3113 1.408 . S
C3117 C3116 1.404 . S
C3117 H3129 0.930 . S
C3118 C3114 1.524 . S
C3118 H3130 0.956 . S
C3118 H3131 0.961 . S
C3118 H3132 0.961 . S
C3119 C3116 1.539 . S
C3119 H3133 0.958 . S
C3119 H3134 0.961 . S
C3119 H3135 0.960 . S
H3120 C3104 0.931 . S
H3121 C3109 0.929 . S
H3122 C3110 0.960 . S
H3123 C3110 0.962 . S
H3124 C3110 0.960 . S
H3125 C3111 0.961 . S
H3126 C3111 0.961 . S
H3127 C3111 0.961 . S
H3128 C3112 0.931 . S
H3129 C3117 0.930 . S
H3130 C3118 0.956 . S
H3131 C3118 0.961 . S
H3132 C3118 0.961 . S
H3133 C3119 0.958 . S
H3134 C3119 0.961 . S
H3135 C3119 0.960 . S
C3136 C3137 1.391 . S
C3136 C3138 1.394 . S
C3136 H3152 0.931 . S
C3137 C3136 1.391 . S
C3137 C3141 1.376 . S
C3138 C3136 1.394 . S
C3138 C3139 1.369 . S
C3138 C3142 1.531 . S
C3139 C3138 1.369 . S
C3139 C3140 1.410 . S
C3139 C3147 1.503 . S
C3140 C3139 1.410 . S
C3140 C3141 1.392 . S
C3140 C3143 1.511 . S
C3141 C3137 1.376 . S
C3141 C3140 1.392 . S
C3141 H3153 0.929 . S
C3142 C3138 1.531 . S
C3142 H3154 0.960 . S
C3142 H3155 0.962 . S
C3142 H3156 0.960 . S
C3143 C3140 1.511 . S
C3143 H3157 0.961 . S
C3143 H3158 0.961 . S
C3143 H3159 0.961 . S
C3144 C3145 1.370 . S
C3144 C3146 1.363 . S
C3144 H3160 0.931 . S
C3145 C3144 1.370 . S
C3145 C3149 1.408 . S
C3146 C3144 1.363 . S
C3146 C3147 1.370 . S
C3146 C3150 1.524 . S
C3147 C3139 1.503 . S
C3147 C3146 1.370 . S
C3147 C3148 1.403 . S
C3148 C3147 1.403 . S
C3148 C3149 1.404 . S
C3148 C3151 1.539 . S
C3149 C3145 1.408 . S
C3149 C3148 1.404 . S
C3149 H3161 0.930 . S
C3150 C3146 1.524 . S
C3150 H3162 0.956 . S
C3150 H3163 0.961 . S
C3150 H3164 0.961 . S
C3151 C3148 1.539 . S
C3151 H3165 0.958 . S
C3151 H3166 0.961 . S
C3151 H3167 0.960 . S
H3152 C3136 0.931 . S
H3153 C3141 0.929 . S
H3154 C3142 0.960 . S
H3155 C3142 0.962 . S
H3156 C3142 0.960 . S
H3157 C3143 0.961 . S
H3158 C3143 0.961 . S
H3159 C3143 0.961 . S
H3160 C3144 0.931 . S
H3161 C3149 0.930 . S
H3162 C3150 0.956 . S
H3163 C3150 0.961 . S
H3164 C3150 0.961 . S
H3165 C3151 0.958 . S
H3166 C3151 0.961 . S
H3167 C3151 0.960 . S
C3168 C3169 1.391 . S
C3168 C3170 1.394 . S
C3168 H3184 0.931 . S
C3169 C3168 1.391 . S
C3169 C3173 1.376 . S
C3170 C3168 1.394 . S
C3170 C3171 1.369 . S
C3170 C3174 1.531 . S
C3171 C3170 1.369 . S
C3171 C3172 1.410 . S
C3171 C3179 1.503 . S
C3172 C3171 1.410 . S
C3172 C3173 1.392 . S
C3172 C3175 1.511 . S
C3173 C3169 1.376 . S
C3173 C3172 1.392 . S
C3173 H3185 0.929 . S
C3174 C3170 1.531 . S
C3174 H3186 0.960 . S
C3174 H3187 0.962 . S
C3174 H3188 0.960 . S
C3175 C3172 1.511 . S
C3175 H3189 0.961 . S
C3175 H3190 0.961 . S
C3175 H3191 0.961 . S
C3176 C3177 1.370 . S
C3176 C3178 1.363 . S
C3176 H3192 0.931 . S
C3177 C3176 1.370 . S
C3177 C3181 1.408 . S
C3178 C3176 1.363 . S
C3178 C3179 1.370 . S
C3178 C3182 1.524 . S
C3179 C3171 1.503 . S
C3179 C3178 1.370 . S
C3179 C3180 1.403 . S
C3180 C3179 1.403 . S
C3180 C3181 1.404 . S
C3180 C3183 1.539 . S
C3181 C3177 1.408 . S
C3181 C3180 1.404 . S
C3181 H3193 0.930 . S
C3182 C3178 1.524 . S
C3182 H3194 0.956 . S
C3182 H3195 0.961 . S
C3182 H3196 0.961 . S
C3183 C3180 1.539 . S
C3183 H3197 0.958 . S
C3183 H3198 0.961 . S
C3183 H3199 0.960 . S
H3184 C3168 0.931 . S
H3185 C3173 0.929 . S
H3186 C3174 0.960 . S
H3187 C3174 0.962 . S
H3188 C3174 0.960 . S
H3189 C3175 0.961 . S
H3190 C3175 0.961 . S
H3191 C3175 0.961 . S
H3192 C3176 0.931 . S
H3193 C3181 0.930 . S
H3194 C3182 0.956 . S
H3195 C3182 0.961 . S
H3196 C3182 0.961 . S
H3197 C3183 0.958 . S
H3198 C3183 0.961 . S
H3199 C3183 0.960 . S
C3200 C3201 1.391 . S
C3200 C3202 1.394 . S
C3200 H3216 0.931 . S
C3201 C3200 1.391 . S
C3201 C3205 1.376 . S
C3202 C3200 1.394 . S
C3202 C3203 1.369 . S
C3202 C3206 1.531 . S
C3203 C3202 1.369 . S
C3203 C3204 1.410 . S
C3203 C3211 1.503 . S
C3204 C3203 1.410 . S
C3204 C3205 1.392 . S
C3204 C3207 1.511 . S
C3205 C3201 1.376 . S
C3205 C3204 1.392 . S
C3205 H3217 0.929 . S
C3206 C3202 1.531 . S
C3206 H3218 0.960 . S
C3206 H3219 0.962 . S
C3206 H3220 0.960 . S
C3207 C3204 1.511 . S
C3207 H3221 0.961 . S
C3207 H3222 0.961 . S
C3207 H3223 0.961 . S
C3208 C3209 1.370 . S
C3208 C3210 1.363 . S
C3208 H3224 0.931 . S
C3209 C3208 1.370 . S
C3209 C3213 1.408 . S
C3210 C3208 1.363 . S
C3210 C3211 1.370 . S
C3210 C3214 1.524 . S
C3211 C3203 1.503 . S
C3211 C3210 1.370 . S
C3211 C3212 1.403 . S
C3212 C3211 1.403 . S
C3212 C3213 1.404 . S
C3212 C3215 1.539 . S
C3213 C3209 1.408 . S
C3213 C3212 1.404 . S
C3213 H3225 0.930 . S
C3214 C3210 1.524 . S
C3214 H3226 0.956 . S
C3214 H3227 0.961 . S
C3214 H3228 0.961 . S
C3215 C3212 1.539 . S
C3215 H3229 0.958 . S
C3215 H3230 0.961 . S
C3215 H3231 0.960 . S
H3216 C3200 0.931 . S
H3217 C3205 0.929 . S
H3218 C3206 0.960 . S
H3219 C3206 0.962 . S
H3220 C3206 0.960 . S
H3221 C3207 0.961 . S
H3222 C3207 0.961 . S
H3223 C3207 0.961 . S
H3224 C3208 0.931 . S
H3225 C3213 0.930 . S
H3226 C3214 0.956 . S
H3227 C3214 0.961 . S
H3228 C3214 0.961 . S
H3229 C3215 0.958 . S
H3230 C3215 0.961 . S
H3231 C3215 0.960 . S
C3232 C3233 1.391 . S
C3232 C3234 1.394 . S
C3232 H3248 0.931 . S
C3233 C3232 1.391 . S
C3233 C3237 1.376 . S
C3234 C3232 1.394 . S
C3234 C3235 1.369 . S
C3234 C3238 1.531 . S
C3235 C3234 1.369 . S
C3235 C3236 1.410 . S
C3235 C3243 1.503 . S
C3236 C3235 1.410 . S
C3236 C3237 1.392 . S
C3236 C3239 1.511 . S
C3237 C3233 1.376 . S
C3237 C3236 1.392 . S
C3237 H3249 0.929 . S
C3238 C3234 1.531 . S
C3238 H3250 0.960 . S
C3238 H3251 0.962 . S
C3238 H3252 0.960 . S
C3239 C3236 1.511 . S
C3239 H3253 0.961 . S
C3239 H3254 0.961 . S
C3239 H3255 0.961 . S
C3240 C3241 1.370 . S
C3240 C3242 1.363 . S
C3240 H3256 0.931 . S
C3241 C3240 1.370 . S
C3241 C3245 1.408 . S
C3242 C3240 1.363 . S
C3242 C3243 1.370 . S
C3242 C3246 1.524 . S
C3243 C3235 1.503 . S
C3243 C3242 1.370 . S
C3243 C3244 1.403 . S
C3244 C3243 1.403 . S
C3244 C3245 1.404 . S
C3244 C3247 1.539 . S
C3245 C3241 1.408 . S
C3245 C3244 1.404 . S
C3245 H3257 0.930 . S
C3246 C3242 1.524 . S
C3246 H3258 0.956 . S
C3246 H3259 0.961 . S
C3246 H3260 0.961 . S
C3247 C3244 1.539 . S
C3247 H3261 0.958 . S
C3247 H3262 0.961 . S
C3247 H3263 0.960 . S
H3248 C3232 0.931 . S
H3249 C3237 0.929 . S
H3250 C3238 0.960 . S
H3251 C3238 0.962 . S
H3252 C3238 0.960 . S
H3253 C3239 0.961 . S
H3254 C3239 0.961 . S
H3255 C3239 0.961 . S
H3256 C3240 0.931 . S
H3257 C3245 0.930 . S
H3258 C3246 0.956 . S
H3259 C3246 0.961 . S
H3260 C3246 0.961 . S
H3261 C3247 0.958 . S
H3262 C3247 0.961 . S
H3263 C3247 0.960 . S
C3264 C3265 1.391 . S
C3264 C3266 1.394 . S
C3264 H3280 0.931 . S
C3265 C3264 1.391 . S
C3265 C3269 1.376 . S
C3266 C3264 1.394 . S
C3266 C3267 1.369 . S
C3266 C3270 1.531 . S
C3267 C3266 1.369 . S
C3267 C3268 1.410 . S
C3267 C3275 1.503 . S
C3268 C3267 1.410 . S
C3268 C3269 1.392 . S
C3268 C3271 1.511 . S
C3269 C3265 1.376 . S
C3269 C3268 1.392 . S
C3269 H3281 0.929 . S
C3270 C3266 1.531 . S
C3270 H3282 0.960 . S
C3270 H3283 0.962 . S
C3270 H3284 0.960 . S
C3271 C3268 1.511 . S
C3271 H3285 0.961 . S
C3271 H3286 0.961 . S
C3271 H3287 0.961 . S
C3272 C3273 1.370 . S
C3272 C3274 1.363 . S
C3272 H3288 0.931 . S
C3273 C3272 1.370 . S
C3273 C3277 1.408 . S
C3274 C3272 1.363 . S
C3274 C3275 1.370 . S
C3274 C3278 1.524 . S
C3275 C3267 1.503 . S
C3275 C3274 1.370 . S
C3275 C3276 1.403 . S
C3276 C3275 1.403 . S
C3276 C3277 1.404 . S
C3276 C3279 1.539 . S
C3277 C3273 1.408 . S
C3277 C3276 1.404 . S
C3277 H3289 0.930 . S
C3278 C3274 1.524 . S
C3278 H3290 0.956 . S
C3278 H3291 0.961 . S
C3278 H3292 0.961 . S
C3279 C3276 1.539 . S
C3279 H3293 0.958 . S
C3279 H3294 0.961 . S
C3279 H3295 0.960 . S
H3280 C3264 0.931 . S
H3281 C3269 0.929 . S
H3282 C3270 0.960 . S
H3283 C3270 0.962 . S
H3284 C3270 0.960 . S
H3285 C3271 0.961 . S
H3286 C3271 0.961 . S
H3287 C3271 0.961 . S
H3288 C3272 0.931 . S
H3289 C3277 0.930 . S
H3290 C3278 0.956 . S
H3291 C3278 0.961 . S
H3292 C3278 0.961 . S
H3293 C3279 0.958 . S
H3294 C3279 0.961 . S
H3295 C3279 0.960 . S
C3296 C3297 1.391 . S
C3296 C3298 1.394 . S
C3296 H3312 0.931 . S
C3297 C3296 1.391 . S
C3297 C3301 1.376 . S
C3298 C3296 1.394 . S
C3298 C3299 1.369 . S
C3298 C3302 1.531 . S
C3299 C3298 1.369 . S
C3299 C3300 1.410 . S
C3299 C3307 1.503 . S
C3300 C3299 1.410 . S
C3300 C3301 1.392 . S
C3300 C3303 1.511 . S
C3301 C3297 1.376 . S
C3301 C3300 1.392 . S
C3301 H3313 0.929 . S
C3302 C3298 1.531 . S
C3302 H3314 0.960 . S
C3302 H3315 0.962 . S
C3302 H3316 0.960 . S
C3303 C3300 1.511 . S
C3303 H3317 0.961 . S
C3303 H3318 0.961 . S
C3303 H3319 0.961 . S
C3304 C3305 1.370 . S
C3304 C3306 1.363 . S
C3304 H3320 0.931 . S
C3305 C3304 1.370 . S
C3305 C3309 1.408 . S
C3306 C3304 1.363 . S
C3306 C3307 1.370 . S
C3306 C3310 1.524 . S
C3307 C3299 1.503 . S
C3307 C3306 1.370 . S
C3307 C3308 1.403 . S
C3308 C3307 1.403 . S
C3308 C3309 1.404 . S
C3308 C3311 1.539 . S
C3309 C3305 1.408 . S
C3309 C3308 1.404 . S
C3309 H3321 0.930 . S
C3310 C3306 1.524 . S
C3310 H3322 0.956 . S
C3310 H3323 0.961 . S
C3310 H3324 0.961 . S
C3311 C3308 1.539 . S
C3311 H3325 0.958 . S
C3311 H3326 0.961 . S
C3311 H3327 0.960 . S
H3312 C3296 0.931 . S
H3313 C3301 0.929 . S
H3314 C3302 0.960 . S
H3315 C3302 0.962 . S
H3316 C3302 0.960 . S
H3317 C3303 0.961 . S
H3318 C3303 0.961 . S
H3319 C3303 0.961 . S
H3320 C3304 0.931 . S
H3321 C3309 0.930 . S
H3322 C3310 0.956 . S
H3323 C3310 0.961 . S
H3324 C3310 0.961 . S
H3325 C3311 0.958 . S
H3326 C3311 0.961 . S
H3327 C3311 0.960 . S
C3328 C3329 1.391 . S
C3328 C3330 1.394 . S
C3328 H3344 0.931 . S
C3329 C3328 1.391 . S
C3329 C3333 1.376 . S
C3330 C3328 1.394 . S
C3330 C3331 1.369 . S
C3330 C3334 1.531 . S
C3331 C3330 1.369 . S
C3331 C3332 1.410 . S
C3331 C3339 1.503 . S
C3332 C3331 1.410 . S
C3332 C3333 1.392 . S
C3332 C3335 1.511 . S
C3333 C3329 1.376 . S
C3333 C3332 1.392 . S
C3333 H3345 0.929 . S
C3334 C3330 1.531 . S
C3334 H3346 0.960 . S
C3334 H3347 0.962 . S
C3334 H3348 0.960 . S
C3335 C3332 1.511 . S
C3335 H3349 0.961 . S
C3335 H3350 0.961 . S
C3335 H3351 0.961 . S
C3336 C3337 1.370 . S
C3336 C3338 1.363 . S
C3336 H3352 0.931 . S
C3337 C3336 1.370 . S
C3337 C3341 1.408 . S
C3338 C3336 1.363 . S
C3338 C3339 1.370 . S
C3338 C3342 1.524 . S
C3339 C3331 1.503 . S
C3339 C3338 1.370 . S
C3339 C3340 1.403 . S
C3340 C3339 1.403 . S
C3340 C3341 1.404 . S
C3340 C3343 1.539 . S
C3341 C3337 1.408 . S
C3341 C3340 1.404 . S
C3341 H3353 0.930 . S
C3342 C3338 1.524 . S
C3342 H3354 0.956 . S
C3342 H3355 0.961 . S
C3342 H3356 0.961 . S
C3343 C3340 1.539 . S
C3343 H3357 0.958 . S
C3343 H3358 0.961 . S
C3343 H3359 0.960 . S
H3344 C3328 0.931 . S
H3345 C3333 0.929 . S
H3346 C3334 0.960 . S
H3347 C3334 0.962 . S
H3348 C3334 0.960 . S
H3349 C3335 0.961 . S
H3350 C3335 0.961 . S
H3351 C3335 0.961 . S
H3352 C3336 0.931 . S
H3353 C3341 0.930 . S
H3354 C3342 0.956 . S
H3355 C3342 0.961 . S
H3356 C3342 0.961 . S
H3357 C3343 0.958 . S
H3358 C3343 0.961 . S
H3359 C3343 0.960 . S
C3360 C3361 1.391 . S
C3360 C3362 1.394 . S
C3360 H3376 0.931 . S
C3361 C3360 1.391 . S
C3361 C3365 1.376 . S
C3362 C3360 1.394 . S
C3362 C3363 1.369 . S
C3362 C3366 1.531 . S
C3363 C3362 1.369 . S
C3363 C3364 1.410 . S
C3363 C3371 1.503 . S
C3364 C3363 1.410 . S
C3364 C3365 1.392 . S
C3364 C3367 1.511 . S
C3365 C3361 1.376 . S
C3365 C3364 1.392 . S
C3365 H3377 0.929 . S
C3366 C3362 1.531 . S
C3366 H3378 0.960 . S
C3366 H3379 0.962 . S
C3366 H3380 0.960 . S
C3367 C3364 1.511 . S
C3367 H3381 0.961 . S
C3367 H3382 0.961 . S
C3367 H3383 0.961 . S
C3368 C3369 1.370 . S
C3368 C3370 1.363 . S
C3368 H3384 0.931 . S
C3369 C3368 1.370 . S
C3369 C3373 1.408 . S
C3370 C3368 1.363 . S
C3370 C3371 1.370 . S
C3370 C3374 1.524 . S
C3371 C3363 1.503 . S
C3371 C3370 1.370 . S
C3371 C3372 1.403 . S
C3372 C3371 1.403 . S
C3372 C3373 1.404 . S
C3372 C3375 1.539 . S
C3373 C3369 1.408 . S
C3373 C3372 1.404 . S
C3373 H3385 0.930 . S
C3374 C3370 1.524 . S
C3374 H3386 0.956 . S
C3374 H3387 0.961 . S
C3374 H3388 0.961 . S
C3375 C3372 1.539 . S
C3375 H3389 0.958 . S
C3375 H3390 0.961 . S
C3375 H3391 0.960 . S
H3376 C3360 0.931 . S
H3377 C3365 0.929 . S
H3378 C3366 0.960 . S
H3379 C3366 0.962 . S
H3380 C3366 0.960 . S
H3381 C3367 0.961 . S
H3382 C3367 0.961 . S
H3383 C3367 0.961 . S
H3384 C3368 0.931 . S
H3385 C3373 0.930 . S
H3386 C3374 0.956 . S
H3387 C3374 0.961 . S
H3388 C3374 0.961 . S
H3389 C3375 0.958 . S
H3390 C3375 0.961 . S
H3391 C3375 0.960 . S
C3392 C3393 1.391 . S
C3392 C3394 1.394 . S
C3392 H3408 0.931 . S
C3393 C3392 1.391 . S
C3393 C3397 1.376 . S
C3394 C3392 1.394 . S
C3394 C3395 1.369 . S
C3394 C3398 1.531 . S
C3395 C3394 1.369 . S
C3395 C3396 1.410 . S
C3395 C3403 1.503 . S
C3396 C3395 1.410 . S
C3396 C3397 1.392 . S
C3396 C3399 1.511 . S
C3397 C3393 1.376 . S
C3397 C3396 1.392 . S
C3397 H3409 0.929 . S
C3398 C3394 1.531 . S
C3398 H3410 0.960 . S
C3398 H3411 0.962 . S
C3398 H3412 0.960 . S
C3399 C3396 1.511 . S
C3399 H3413 0.961 . S
C3399 H3414 0.961 . S
C3399 H3415 0.961 . S
C3400 C3401 1.370 . S
C3400 C3402 1.363 . S
C3400 H3416 0.931 . S
C3401 C3400 1.370 . S
C3401 C3405 1.408 . S
C3402 C3400 1.363 . S
C3402 C3403 1.370 . S
C3402 C3406 1.524 . S
C3403 C3395 1.503 . S
C3403 C3402 1.370 . S
C3403 C3404 1.403 . S
C3404 C3403 1.403 . S
C3404 C3405 1.404 . S
C3404 C3407 1.539 . S
C3405 C3401 1.408 . S
C3405 C3404 1.404 . S
C3405 H3417 0.930 . S
C3406 C3402 1.524 . S
C3406 H3418 0.956 . S
C3406 H3419 0.961 . S
C3406 H3420 0.961 . S
C3407 C3404 1.539 . S
C3407 H3421 0.958 . S
C3407 H3422 0.961 . S
C3407 H3423 0.960 . S
H3408 C3392 0.931 . S
H3409 C3397 0.929 . S
H3410 C3398 0.960 . S
H3411 C3398 0.962 . S
H3412 C3398 0.960 . S
H3413 C3399 0.961 . S
H3414 C3399 0.961 . S
H3415 C3399 0.961 . S
H3416 C3400 0.931 . S
H3417 C3405 0.930 . S
H3418 C3406 0.956 . S
H3419 C3406 0.961 . S
H3420 C3406 0.961 . S
H3421 C3407 0.958 . S
H3422 C3407 0.961 . S
H3423 C3407 0.960 . S
C3424 C3425 1.391 . S
C3424 C3426 1.394 . S
C3424 H3440 0.931 . S
C3425 C3424 1.391 . S
C3425 C3429 1.376 . S
C3426 C3424 1.394 . S
C3426 C3427 1.369 . S
C3426 C3430 1.531 . S
C3427 C3426 1.369 . S
C3427 C3428 1.410 . S
C3427 C3435 1.503 . S
C3428 C3427 1.410 . S
C3428 C3429 1.392 . S
C3428 C3431 1.511 . S
C3429 C3425 1.376 . S
C3429 C3428 1.392 . S
C3429 H3441 0.929 . S
C3430 C3426 1.531 . S
C3430 H3442 0.960 . S
C3430 H3443 0.962 . S
C3430 H3444 0.960 . S
C3431 C3428 1.511 . S
C3431 H3445 0.961 . S
C3431 H3446 0.961 . S
C3431 H3447 0.961 . S
C3432 C3433 1.370 . S
C3432 C3434 1.363 . S
C3432 H3448 0.931 . S
C3433 C3432 1.370 . S
C3433 C3437 1.408 . S
C3434 C3432 1.363 . S
C3434 C3435 1.370 . S
C3434 C3438 1.524 . S
C3435 C3427 1.503 . S
C3435 C3434 1.370 . S
C3435 C3436 1.403 . S
C3436 C3435 1.403 . S
C3436 C3437 1.404 . S
C3436 C3439 1.539 . S
C3437 C3433 1.408 . S
C3437 C3436 1.404 . S
C3437 H3449 0.930 . S
C3438 C3434 1.524 . S
C3438 H3450 0.956 . S
C3438 H3451 0.961 . S
C3438 H3452 0.961 . S
C3439 C3436 1.539 . S
C3439 H3453 0.958 . S
C3439 H3454 0.961 . S
C3439 H3455 0.960 . S
H3440 C3424 0.931 . S
H3441 C3429 0.929 . S
H3442 C3430 0.960 . S
H3443 C3430 0.962 . S
H3444 C3430 0.960 . S
H3445 C3431 0.961 . S
H3446 C3431 0.961 . S
H3447 C3431 0.961 . S
H3448 C3432 0.931 . S
H3449 C3437 0.930 . S
H3450 C3438 0.956 . S
H3451 C3438 0.961 . S
H3452 C3438 0.961 . S
H3453 C3439 0.958 . S
H3454 C3439 0.961 . S
H3455 C3439 0.960 . S
C3456 C3457 1.391 . S
C3456 C3458 1.394 . S
C3456 H3472 0.931 . S
C3457 C3456 1.391 . S
C3457 C3461 1.376 . S
C3458 C3456 1.394 . S
C3458 C3459 1.369 . S
C3458 C3462 1.531 . S
C3459 C3458 1.369 . S
C3459 C3460 1.410 . S
C3459 C3467 1.503 . S
C3460 C3459 1.410 . S
C3460 C3461 1.392 . S
C3460 C3463 1.511 . S
C3461 C3457 1.376 . S
C3461 C3460 1.392 . S
C3461 H3473 0.929 . S
C3462 C3458 1.531 . S
C3462 H3474 0.960 . S
C3462 H3475 0.962 . S
C3462 H3476 0.960 . S
C3463 C3460 1.511 . S
C3463 H3477 0.961 . S
C3463 H3478 0.961 . S
C3463 H3479 0.961 . S
C3464 C3465 1.370 . S
C3464 C3466 1.363 . S
C3464 H3480 0.931 . S
C3465 C3464 1.370 . S
C3465 C3469 1.408 . S
C3466 C3464 1.363 . S
C3466 C3467 1.370 . S
C3466 C3470 1.524 . S
C3467 C3459 1.503 . S
C3467 C3466 1.370 . S
C3467 C3468 1.403 . S
C3468 C3467 1.403 . S
C3468 C3469 1.404 . S
C3468 C3471 1.539 . S
C3469 C3465 1.408 . S
C3469 C3468 1.404 . S
C3469 H3481 0.930 . S
C3470 C3466 1.524 . S
C3470 H3482 0.956 . S
C3470 H3483 0.961 . S
C3470 H3484 0.961 . S
C3471 C3468 1.539 . S
C3471 H3485 0.958 . S
C3471 H3486 0.961 . S
C3471 H3487 0.960 . S
H3472 C3456 0.931 . S
H3473 C3461 0.929 . S
H3474 C3462 0.960 . S
H3475 C3462 0.962 . S
H3476 C3462 0.960 . S
H3477 C3463 0.961 . S
H3478 C3463 0.961 . S
H3479 C3463 0.961 . S
H3480 C3464 0.931 . S
H3481 C3469 0.930 . S
H3482 C3470 0.956 . S
H3483 C3470 0.961 . S
H3484 C3470 0.961 . S
H3485 C3471 0.958 . S
H3486 C3471 0.961 . S
H3487 C3471 0.960 . S
C3488 C3489 1.391 . S
C3488 C3490 1.394 . S
C3488 H3504 0.931 . S
C3489 C3488 1.391 . S
C3489 C3493 1.376 . S
C3490 C3488 1.394 . S
C3490 C3491 1.369 . S
C3490 C3494 1.531 . S
C3491 C3490 1.369 . S
C3491 C3492 1.410 . S
C3491 C3499 1.503 . S
C3492 C3491 1.410 . S
C3492 C3493 1.392 . S
C3492 C3495 1.511 . S
C3493 C3489 1.376 . S
C3493 C3492 1.392 . S
C3493 H3505 0.929 . S
C3494 C3490 1.531 . S
C3494 H3506 0.960 . S
C3494 H3507 0.962 . S
C3494 H3508 0.960 . S
C3495 C3492 1.511 . S
C3495 H3509 0.961 . S
C3495 H3510 0.961 . S
C3495 H3511 0.961 . S
C3496 C3497 1.370 . S
C3496 C3498 1.363 . S
C3496 H3512 0.931 . S
C3497 C3496 1.370 . S
C3497 C3501 1.408 . S
C3498 C3496 1.363 . S
C3498 C3499 1.370 . S
C3498 C3502 1.524 . S
C3499 C3491 1.503 . S
C3499 C3498 1.370 . S
C3499 C3500 1.403 . S
C3500 C3499 1.403 . S
C3500 C3501 1.404 . S
C3500 C3503 1.539 . S
C3501 C3497 1.408 . S
C3501 C3500 1.404 . S
C3501 H3513 0.930 . S
C3502 C3498 1.524 . S
C3502 H3514 0.956 . S
C3502 H3515 0.961 . S
C3502 H3516 0.961 . S
C3503 C3500 1.539 . S
C3503 H3517 0.958 . S
C3503 H3518 0.961 . S
C3503 H3519 0.960 . S
H3504 C3488 0.931 . S
H3505 C3493 0.929 . S
H3506 C3494 0.960 . S
H3507 C3494 0.962 . S
H3508 C3494 0.960 . S
H3509 C3495 0.961 . S
H3510 C3495 0.961 . S
H3511 C3495 0.961 . S
H3512 C3496 0.931 . S
H3513 C3501 0.930 . S
H3514 C3502 0.956 . S
H3515 C3502 0.961 . S
H3516 C3502 0.961 . S
H3517 C3503 0.958 . S
H3518 C3503 0.961 . S
H3519 C3503 0.960 . S
C3520 C3521 1.391 . S
C3520 C3522 1.394 . S
C3520 H3536 0.931 . S
C3521 C3520 1.391 . S
C3521 C3525 1.376 . S
C3522 C3520 1.394 . S
C3522 C3523 1.369 . S
C3522 C3526 1.531 . S
C3523 C3522 1.369 . S
C3523 C3524 1.410 . S
C3523 C3531 1.503 . S
C3524 C3523 1.410 . S
C3524 C3525 1.392 . S
C3524 C3527 1.511 . S
C3525 C3521 1.376 . S
C3525 C3524 1.392 . S
C3525 H3537 0.929 . S
C3526 C3522 1.531 . S
C3526 H3538 0.960 . S
C3526 H3539 0.962 . S
C3526 H3540 0.960 . S
C3527 C3524 1.511 . S
C3527 H3541 0.961 . S
C3527 H3542 0.961 . S
C3527 H3543 0.961 . S
C3528 C3529 1.370 . S
C3528 C3530 1.363 . S
C3528 H3544 0.931 . S
C3529 C3528 1.370 . S
C3529 C3533 1.408 . S
C3530 C3528 1.363 . S
C3530 C3531 1.370 . S
C3530 C3534 1.524 . S
C3531 C3523 1.503 . S
C3531 C3530 1.370 . S
C3531 C3532 1.403 . S
C3532 C3531 1.403 . S
C3532 C3533 1.404 . S
C3532 C3535 1.539 . S
C3533 C3529 1.408 . S
C3533 C3532 1.404 . S
C3533 H3545 0.930 . S
C3534 C3530 1.524 . S
C3534 H3546 0.956 . S
C3534 H3547 0.961 . S
C3534 H3548 0.961 . S
C3535 C3532 1.539 . S
C3535 H3549 0.958 . S
C3535 H3550 0.961 . S
C3535 H3551 0.960 . S
H3536 C3520 0.931 . S
H3537 C3525 0.929 . S
H3538 C3526 0.960 . S
H3539 C3526 0.962 . S
H3540 C3526 0.960 . S
H3541 C3527 0.961 . S
H3542 C3527 0.961 . S
H3543 C3527 0.961 . S
H3544 C3528 0.931 . S
H3545 C3533 0.930 . S
H3546 C3534 0.956 . S
H3547 C3534 0.961 . S
H3548 C3534 0.961 . S
H3549 C3535 0.958 . S
H3550 C3535 0.961 . S
H3551 C3535 0.960 . S
C3552 C3553 1.391 . S
C3552 C3554 1.394 . S
C3552 H3568 0.931 . S
C3553 C3552 1.391 . S
C3553 C3557 1.376 . S
C3554 C3552 1.394 . S
C3554 C3555 1.369 . S
C3554 C3558 1.531 . S
C3555 C3554 1.369 . S
C3555 C3556 1.410 . S
C3555 C3563 1.503 . S
C3556 C3555 1.410 . S
C3556 C3557 1.392 . S
C3556 C3559 1.511 . S
C3557 C3553 1.376 . S
C3557 C3556 1.392 . S
C3557 H3569 0.929 . S
C3558 C3554 1.531 . S
C3558 H3570 0.960 . S
C3558 H3571 0.962 . S
C3558 H3572 0.960 . S
C3559 C3556 1.511 . S
C3559 H3573 0.961 . S
C3559 H3574 0.961 . S
C3559 H3575 0.961 . S
C3560 C3561 1.370 . S
C3560 C3562 1.363 . S
C3560 H3576 0.931 . S
C3561 C3560 1.370 . S
C3561 C3565 1.408 . S
C3562 C3560 1.363 . S
C3562 C3563 1.370 . S
C3562 C3566 1.524 . S
C3563 C3555 1.503 . S
C3563 C3562 1.370 . S
C3563 C3564 1.403 . S
C3564 C3563 1.403 . S
C3564 C3565 1.404 . S
C3564 C3567 1.539 . S
C3565 C3561 1.408 . S
C3565 C3564 1.404 . S
C3565 H3577 0.930 . S
C3566 C3562 1.524 . S
C3566 H3578 0.956 . S
C3566 H3579 0.961 . S
C3566 H3580 0.961 . S
C3567 C3564 1.539 . S
C3567 H3581 0.958 . S
C3567 H3582 0.961 . S
C3567 H3583 0.960 . S
H3568 C3552 0.931 . S
H3569 C3557 0.929 . S
H3570 C3558 0.960 . S
H3571 C3558 0.962 . S
H3572 C3558 0.960 . S
H3573 C3559 0.961 . S
H3574 C3559 0.961 . S
H3575 C3559 0.961 . S
H3576 C3560 0.931 . S
H3577 C3565 0.930 . S
H3578 C3566 0.956 . S
H3579 C3566 0.961 . S
H3580 C3566 0.961 . S
H3581 C3567 0.958 . S
H3582 C3567 0.961 . S
H3583 C3567 0.960 . S
C3584 C3585 1.391 . S
C3584 C3586 1.394 . S
C3584 H3600 0.931 . S
C3585 C3584 1.391 . S
C3585 C3589 1.376 . S
C3586 C3584 1.394 . S
C3586 C3587 1.369 . S
C3586 C3590 1.531 . S
C3587 C3586 1.369 . S
C3587 C3588 1.410 . S
C3587 C3595 1.503 . S
C3588 C3587 1.410 . S
C3588 C3589 1.392 . S
C3588 C3591 1.511 . S
C3589 C3585 1.376 . S
C3589 C3588 1.392 . S
C3589 H3601 0.929 . S
C3590 C3586 1.531 . S
C3590 H3602 0.960 . S
C3590 H3603 0.962 . S
C3590 H3604 0.960 . S
C3591 C3588 1.511 . S
C3591 H3605 0.961 . S
C3591 H3606 0.961 . S
C3591 H3607 0.961 . S
C3592 C3593 1.370 . S
C3592 C3594 1.363 . S
C3592 H3608 0.931 . S
C3593 C3592 1.370 . S
C3593 C3597 1.408 . S
C3594 C3592 1.363 . S
C3594 C3595 1.370 . S
C3594 C3598 1.524 . S
C3595 C3587 1.503 . S
C3595 C3594 1.370 . S
C3595 C3596 1.403 . S
C3596 C3595 1.403 . S
C3596 C3597 1.404 . S
C3596 C3599 1.539 . S
C3597 C3593 1.408 . S
C3597 C3596 1.404 . S
C3597 H3609 0.930 . S
C3598 C3594 1.524 . S
C3598 H3610 0.956 . S
C3598 H3611 0.961 . S
C3598 H3612 0.961 . S
C3599 C3596 1.539 . S
C3599 H3613 0.958 . S
C3599 H3614 0.961 . S
C3599 H3615 0.960 . S
H3600 C3584 0.931 . S
H3601 C3589 0.929 . S
H3602 C3590 0.960 . S
H3603 C3590 0.962 . S
H3604 C3590 0.960 . S
H3605 C3591 0.961 . S
H3606 C3591 0.961 . S
H3607 C3591 0.961 . S
H3608 C3592 0.931 . S
H3609 C3597 0.930 . S
H3610 C3598 0.956 . S
H3611 C3598 0.961 . S
H3612 C3598 0.961 . S
H3613 C3599 0.958 . S
H3614 C3599 0.961 . S
H3615 C3599 0.960 . S
C1057 C18 1.530 . S
C1065 C810 1.536 . S
C1089 C315 1.521 . S
C1097 C51 1.539 . S
C1121 C876 1.530 . S
C1129 C84 1.534 . S
C1153 C381 1.538 . S
C1161 C117 1.532 . S
C1185 C942 1.535 . S
C1193 C150 1.533 . S
C1217 C447 1.521 . S
C1225 C183 1.538 . S
C1249 C1008 1.529 . S
C1257 C216 1.536 . S
C1281 C513 1.540 . S
C1289 C249 1.531 . S
C1313 C282 1.521 . S
C1321 C546 1.539 . S
C1345 C348 1.536 . S
C1353 C612 1.532 . S
C1377 C414 1.538 . S
C1385 C678 1.531 . S
C1409 C744 1.535 . S
C1417 C480 1.532 . S
C1441 C579 1.526 . S
C1449 C843 1.536 . S
C1473 C909 1.525 . S
C1481 C645 1.537 . S
C1505 C711 1.536 . S
C1513 C975 1.532 . S
C1537 C1041 1.521 . S
C1545 C777 1.539 . S
C1569 N13 1.370 . S
C1577 C384 1.375 . S
C1601 N46 1.360 . S
C1609 C813 1.370 . S
C1633 C318 1.362 . S
C1641 N79 1.359 . S
C1665 N112 1.362 . S
C1673 C879 1.370 . S
C1697 C450 1.360 . S
C1705 N145 1.349 . S
C1729 C1011 1.362 . S
C1737 N178 1.346 . S
C1761 N211 1.365 . S
C1769 C516 1.377 . S
C1793 C945 1.360 . S
C1801 N244 1.357 . S
C1825 N277 1.338 . S
C1833 C120 1.380 . S
C1857 N310 1.325 . S
C1865 C549 1.381 . S
C1889 C54 1.381 . S
C1897 N343 1.347 . S
C1921 N376 1.351 . S
C1929 C615 1.371 . S
C1953 N409 1.316 . S
C1961 C186 1.379 . S
C1985 C747 1.366 . S
C1993 N442 1.345 . S
C2017 C252 1.378 . S
C2025 N475 1.350 . S
C2049 N508 1.356 . S
C2057 C681 1.377 . S
C2081 C912 1.384 . S
C2089 N541 1.340 . S
C2113 C285 1.359 . S
C2121 N574 1.355 . S
C2145 C846 1.384 . S
C2153 N607 1.343 . S
C2177 N640 1.318 . S
C2185 C351 1.376 . S
C2209 C978 1.365 . S
C2217 N673 1.360 . S
C2241 C483 1.381 . S
C2249 N706 1.336 . S
C2273 N739 1.372 . S
C2281 C1044 1.374 . S
C2305 C417 1.365 . S
C2313 N772 1.342 . S
C2337 C648 1.377 . S
C2345 N805 1.351 . S
C2369 N838 1.372 . S
C2377 C21 1.371 . S
C2401 N871 1.317 . S
C2409 C582 1.379 . S
C2433 C87 1.369 . S
C2441 N904 1.343 . S
C2465 C714 1.360 . S
C2473 N937 1.353 . S
C2497 N970 1.316 . S
C2505 C219 1.380 . S
C2529 C780 1.359 . S
C2537 N1003 1.357 . S
C2561 C153 1.380 . S
C2569 N1036 1.348 . S
C2593 C7 1.077 . S
C2601 C205 1.055 . S
C2625 C238 1.047 . S
C2633 C40 1.045 . S
C2657 C73 1.069 . S
C2665 C139 1.065 . S
C2689 C106 1.030 . S
C2697 C172 1.058 . S
C2721 C469 1.056 . S
C2729 C271 1.065 . S
C2753 C502 1.031 . S
C2761 C304 1.055 . S
C2785 C403 1.056 . S
C2793 C337 1.047 . S
C2817 C436 1.048 . S
C2825 C370 1.063 . S
C2849 C535 1.078 . S
C2857 C733 1.056 . S
C2881 C568 1.052 . S
C2889 C766 1.065 . S
C2913 C601 1.029 . S
C2921 C667 1.050 . S
C2945 C634 1.059 . S
C2953 C700 1.046 . S
C2977 C997 1.072 . S
C2985 C799 1.066 . S
C3009 C1030 1.032 . S
C3017 C832 1.056 . S
C3041 C865 1.065 . S
C3049 C931 1.050 . S
C3073 C898 1.039 . S
C3081 C964 1.060 . S
C3105 N2 1.669 . S
C3113 N695 1.699 . S
C3137 N35 1.699 . S
C3145 N728 1.705 . S
C3169 N68 1.713 . S
C3177 N761 1.699 . S
C3201 N101 1.670 . S
C3209 N662 1.701 . S
C3233 N629 1.692 . S
C3241 N134 1.687 . S
C3265 N167 1.715 . S
C3273 N530 1.695 . S
C3297 N563 1.706 . S
C3305 N200 1.688 . S
C3329 N233 1.711 . S
C3337 N596 1.689 . S
C3361 N959 1.670 . S
C3369 N266 1.698 . S
C3393 N299 1.673 . S
C3401 N992 1.701 . S
C3425 N1025 1.715 . S
C3433 N332 1.698 . S
C3457 N365 1.671 . S
C3465 N926 1.699 . S
C3489 N398 1.704 . S
C3497 N893 1.689 . S
C3521 N794 1.700 . S
C3529 N431 1.688 . S
C3553 N464 1.715 . S
C3561 N827 1.698 . S
C3585 N497 1.701 . S
C3593 N860 1.705 . S
