# Generated by pormake.
# Topology yfb, (5)-cn, num edge types: 1
# Building blocks:
#     Node 0, Type 0, BuildingBlock: XOMCOT_clean_sbu_1, # of connection points: 5
#     Node 1, Type 0, BuildingBlock: XOMCOT_clean_sbu_1, # of connection points: 5
#     Node 2, Type 0, BuildingBlock: XOMCOT_clean_sbu_1, # of connection points: 5
#     Node 3, Type 0, BuildingBlock: XOMCOT_clean_sbu_1, # of connection points: 5
#     Node 4, Type 0, BuildingBlock: XOMCOT_clean_sbu_1, # of connection points: 5
#     Node 5, Type 0, BuildingBlock: XOMCOT_clean_sbu_1, # of connection points: 5
#     Node 6, Type 0, BuildingBlock: XOMCOT_clean_sbu_1, # of connection points: 5
#     Node 7, Type 0, BuildingBlock: XOMCOT_clean_sbu_1, # of connection points: 5
#     Node 8, Type 0, BuildingBlock: XOMCOT_clean_sbu_1, # of connection points: 5
#     Node 9, Type 0, BuildingBlock: XOMCOT_clean_sbu_1, # of connection points: 5
#     Node 10, Type 0, BuildingBlock: XOMCOT_clean_sbu_1, # of connection points: 5
#     Node 11, Type 0, BuildingBlock: XOMCOT_clean_sbu_1, # of connection points: 5
#     Node 12, Type 0, BuildingBlock: XOMCOT_clean_sbu_1, # of connection points: 5
#     Node 13, Type 0, BuildingBlock: XOMCOT_clean_sbu_1, # of connection points: 5
#     Node 14, Type 0, BuildingBlock: XOMCOT_clean_sbu_1, # of connection points: 5
#     Node 15, Type 0, BuildingBlock: XOMCOT_clean_sbu_1, # of connection points: 5
#     Edge 16, Type (0, 0), None
#     Edge 17, Type (0, 0), None
#     Edge 18, Type (0, 0), None
#     Edge 19, Type (0, 0), None
#     Edge 20, Type (0, 0), None
#     Edge 21, Type (0, 0), None
#     Edge 22, Type (0, 0), None
#     Edge 23, Type (0, 0), None
#     Edge 24, Type (0, 0), None
#     Edge 25, Type (0, 0), None
#     Edge 26, Type (0, 0), None
#     Edge 27, Type (0, 0), None
#     Edge 28, Type (0, 0), None
#     Edge 29, Type (0, 0), None
#     Edge 30, Type (0, 0), None
#     Edge 31, Type (0, 0), None
#     Edge 32, Type (0, 0), None
#     Edge 33, Type (0, 0), None
#     Edge 34, Type (0, 0), None
#     Edge 35, Type (0, 0), None
#     Edge 36, Type (0, 0), None
#     Edge 37, Type (0, 0), None
#     Edge 38, Type (0, 0), None
#     Edge 39, Type (0, 0), None
#     Edge 40, Type (0, 0), None
#     Edge 41, Type (0, 0), None
#     Edge 42, Type (0, 0), None
#     Edge 43, Type (0, 0), None
#     Edge 44, Type (0, 0), None
#     Edge 45, Type (0, 0), None
#     Edge 46, Type (0, 0), None
#     Edge 47, Type (0, 0), None
#     Edge 48, Type (0, 0), None
#     Edge 49, Type (0, 0), None
#     Edge 50, Type (0, 0), None
#     Edge 51, Type (0, 0), None
#     Edge 52, Type (0, 0), None
#     Edge 53, Type (0, 0), None
#     Edge 54, Type (0, 0), None
#     Edge 55, Type (0, 0), None
# Relax obj value: 0.771
# Max RMSD: 0.281
# Mean RMSD: 0.281
data_MOF--net-yfb--node1-XOMCOT_clean_sbu_1--edge1-none
_symmetry_space_group_name_H-M    P1
_symmetry_Int_Tables_number       1
_symmetry_cell_setting            triclinic
loop_
_symmetry_equiv_pos_as_xyz
'x, y, z'
_cell_length_a     23.329931
_cell_length_b     23.333479
_cell_length_c     15.8028
_cell_angle_alpha  89.993779
_cell_angle_beta   90.000232
_cell_angle_gamma 90.000308
loop_
_atom_site_label
_atom_site_type_symbol
_atom_site_fract_x
_atom_site_fract_y
_atom_site_fract_z
_atom_type_partial_charge
C0 C 0.61488 0.96843 1.15989 0.0
C1 C 0.56118 0.96376 1.12436 0.0
N2 N 0.52317 0.98487 0.17959 0.0
N3 N 0.61231 -0.00388 0.23561 0.0
C4 C 0.55448 -0.00274 0.2498 0.0
H5 H 0.65348 0.95958 1.12484 0.0
Co6 Co 0.65567 0.06785 0.24692 0.0
C7 C 0.55576 0.121 0.25174 0.0
O8 O 0.56352 0.10117 0.1745 0.0
N9 N 0.69176 0.14073 0.25468 0.0
C10 C 0.67847 0.23464 0.26191 0.0
C11 C 0.66223 0.18533 0.22347 0.0
C12 C 0.7296 0.16653 0.30833 0.0
N13 N 0.72271 0.22482 0.31238 0.0
O14 O 0.70163 0.04727 0.35196 0.0
H15 H 0.63076 0.18265 0.17375 0.0
H16 H 0.76308 0.1436 0.34149 0.0
O17 O 0.59188 0.10472 0.30839 0.0
C18 C 0.71729 0.00334 0.39503 0.0
O19 O 0.69158 0.9541 0.38139 0.0
N20 N 0.71608 0.03686 0.17681 0.0
C21 C 0.81478 0.02292 1.08251 0.0
C22 C 0.7666 0.0482 1.04494 0.0
C23 C 0.71662 0.0544 1.0943 0.0
C24 C 0.75523 -0.00382 0.20011 0.0
C25 C 0.80429 0.98682 1.15162 0.0
H26 H 0.68033 0.0778 1.06945 0.0
H27 H 0.75062 0.97139 0.25623 0.0
H28 H 0.53572 0.01698 0.30509 0.0
H29 H 0.55192 0.95121 1.0599 0.0
H30 H 0.6639 0.27664 0.24738 0.0
H31 H 0.77065 0.07223 0.98667 0.0
H32 H 0.83841 0.96091 0.17819 0.0
C33 C 0.52178 0.61477 1.15984 0.0
C34 C 0.52642 0.56107 1.12431 0.0
N35 N 0.50533 0.52308 0.17958 0.0
N36 N 0.49411 0.61222 0.23558 0.0
C37 C 0.49296 0.55439 0.24979 0.0
H38 H 0.53063 0.65336 1.12477 0.0
Co39 Co 0.42238 0.65558 0.24692 0.0
C40 C 0.36921 0.5557 0.25174 0.0
O41 O 0.38904 0.56348 0.17449 0.0
N42 N 0.3495 0.69168 0.2547 0.0
C43 C 0.25557 0.6784 0.26199 0.0
C44 C 0.30487 0.66217 0.22351 0.0
C45 C 0.32371 0.72951 0.30836 0.0
N46 N 0.26541 0.72263 0.31245 0.0
O47 O 0.44297 0.70155 0.35195 0.0
H48 H 0.30754 0.6307 0.17379 0.0
H49 H 0.34666 0.76298 0.3415 0.0
O50 O 0.3855 0.59181 0.30839 0.0
C51 C 0.48691 0.71721 0.39501 0.0
O52 O 0.53616 0.6915 0.38138 0.0
N53 N 0.45338 0.71598 0.17679 0.0
C54 C 0.46728 0.81469 1.08252 0.0
C55 C 0.442 0.76653 1.04494 0.0
C56 C 0.43581 0.71654 1.09428 0.0
C57 C 0.49406 0.75513 0.20008 0.0
C58 C 0.5034 0.8042 1.15161 0.0
H59 H 0.41242 0.68026 1.06944 0.0
H60 H 0.51887 0.75051 0.25618 0.0
H61 H 0.47325 0.53564 0.3051 0.0
H62 H 0.53896 0.55181 1.05984 0.0
H63 H 0.21356 0.66381 0.24753 0.0
H64 H 0.41796 0.77058 0.98668 0.0
H65 H 0.5293 0.83832 0.17818 0.0
C66 C 0.8754 0.52169 1.15985 0.0
C67 C 0.92911 0.52635 1.12433 0.0
N68 N 0.9671 0.50524 0.17958 0.0
N69 N 0.87795 0.49399 0.23558 0.0
C70 C 0.93578 0.49284 0.24979 0.0
H71 H 0.8368 0.53054 1.12479 0.0
Co72 Co 0.83459 0.42228 0.24689 0.0
C73 C 0.93449 0.3691 0.25171 0.0
O74 O 0.92675 0.38896 0.17447 0.0
N75 N 0.79849 0.34941 0.25464 0.0
C76 C 0.81172 0.25546 0.26173 0.0
C77 C 0.828 0.3048 0.22336 0.0
C78 C 0.76063 0.32362 0.30827 0.0
N79 N 0.7675 0.26534 0.31216 0.0
O80 O 0.78862 0.44285 0.35192 0.0
H81 H 0.85948 0.3075 0.17366 0.0
H82 H 0.72717 0.34654 0.34146 0.0
O83 O 0.89837 0.38538 0.30835 0.0
C84 C 0.77297 0.48678 0.39497 0.0
O85 O 0.79868 0.53602 0.38131 0.0
N86 N 0.77419 0.45328 0.17677 0.0
C87 C 0.67547 0.46717 1.0825 0.0
C88 C 0.72364 0.44189 1.04492 0.0
C89 C 0.77363 0.43572 1.09427 0.0
C90 C 0.73502 0.49395 0.20006 0.0
C91 C 0.68595 0.50328 1.15158 0.0
H92 H 0.80992 0.41232 1.06943 0.0
H93 H 0.73963 0.51874 0.25616 0.0
H94 H 0.95453 0.47312 0.30509 0.0
H95 H 0.93838 0.5389 1.05987 0.0
H96 H 0.82628 0.21345 0.24724 0.0
H97 H 0.71959 0.41786 0.98667 0.0
H98 H 0.65182 0.52918 0.17815 0.0
C99 C 0.96854 0.87533 1.15982 0.0
C100 C 0.96387 0.92902 1.1243 0.0
N101 N 0.98495 0.96701 0.17957 0.0
N102 N -0.0038 0.87787 0.23557 0.0
C103 C -0.00267 0.9357 0.24979 0.0
H104 H 0.95971 0.83673 1.12475 0.0
Co105 Co 0.06794 0.83453 0.24693 0.0
C106 C 0.12108 0.93442 0.25175 0.0
O107 O 0.10125 0.92665 0.1745 0.0
N108 N 0.14083 0.79845 0.25474 0.0
C109 C 0.2348 0.81168 0.26193 0.0
C110 C 0.18546 0.82797 0.22355 0.0
C111 C 0.1666 0.76056 0.30834 0.0
N112 N 0.22489 0.76741 0.31228 0.0
O113 O 0.04734 0.78856 0.35197 0.0
H114 H 0.18279 0.85946 0.17385 0.0
H115 H 0.14366 0.72707 0.34146 0.0
O116 O 0.1048 0.89831 0.3084 0.0
C117 C 0.0034 0.77289 0.39501 0.0
O118 O 0.95415 0.7986 0.38136 0.0
N119 N 0.03696 0.77413 0.1768 0.0
C120 C 0.02306 0.67542 1.08255 0.0
C121 C 0.04836 0.72358 1.04497 0.0
C122 C 0.05454 0.77357 1.09431 0.0
C123 C -0.00373 0.73498 0.20009 0.0
C124 C 0.98693 0.68592 1.15163 0.0
H125 H 0.07796 0.80984 1.06947 0.0
H126 H 0.97145 0.73961 0.25617 0.0
H127 H 0.01704 0.95444 0.3051 0.0
H128 H 0.95134 0.93829 1.05983 0.0
H129 H 0.27682 0.82624 0.24747 0.0
H130 H 0.07242 0.71953 0.98673 0.0
H131 H 0.96101 0.6518 0.17819 0.0
C132 C 0.61487 0.52169 0.67923 0.0
C133 C 0.56117 0.52635 0.71477 0.0
N134 N 0.52317 0.50524 0.65953 0.0
N135 N 0.61231 0.494 0.60352 0.0
C136 C 0.55448 0.49284 0.58932 0.0
H137 H 0.65348 0.53055 0.71428 0.0
Co138 Co 0.65568 0.42228 0.59222 0.0
C139 C 0.55578 0.3691 0.58741 0.0
O140 O 0.56352 0.38895 0.66465 0.0
N141 N 0.69178 0.34941 0.58448 0.0
C142 C 0.67849 0.25549 0.57728 0.0
C143 C 0.66226 0.3048 0.61573 0.0
C144 C 0.72959 0.3236 0.5308 0.0
N145 N 0.7227 0.26531 0.52677 0.0
O146 O 0.70164 0.44285 0.48717 0.0
H147 H 0.63079 0.30749 0.66545 0.0
H148 H 0.76306 0.34653 0.49762 0.0
O149 O 0.59189 0.38539 0.53077 0.0
C150 C 0.71729 0.48678 0.44411 0.0
O151 O 0.69159 0.53603 0.45773 0.0
N152 N 0.71608 0.45328 0.66233 0.0
C153 C 0.8148 0.46719 0.7566 0.0
C154 C 0.76662 0.44192 0.79419 0.0
C155 C 0.71663 0.43574 0.74484 0.0
C156 C 0.75525 0.49395 0.63901 0.0
C157 C 0.80431 0.50329 0.68749 0.0
H158 H 0.68034 0.41235 0.76969 0.0
H159 H 0.75064 0.51874 0.5829 0.0
H160 H 0.53573 0.47312 0.53404 0.0
H161 H 0.55191 0.5389 0.77923 0.0
H162 H 0.66391 0.21349 0.5918 0.0
H163 H 0.77066 0.4179 0.85246 0.0
H164 H 0.83844 0.52919 0.66092 0.0
C165 C 0.96853 0.61477 0.67932 0.0
C166 C 0.96387 0.56107 0.71483 0.0
N167 N 0.98495 0.52308 0.65956 0.0
N168 N -0.0038 0.61223 0.60358 0.0
C169 C -0.00267 0.55441 0.58935 0.0
H170 H 0.9597 0.65336 0.7144 0.0
Co171 Co 0.06793 0.65558 0.59222 0.0
C172 C 0.12108 0.55569 0.58741 0.0
O173 O 0.10125 0.56347 0.66465 0.0
N174 N 0.14083 0.69166 0.58442 0.0
C175 C 0.23476 0.67838 0.57711 0.0
C176 C 0.18545 0.66214 0.61558 0.0
C177 C 0.16661 0.72951 0.53077 0.0
N178 N 0.22491 0.72263 0.52668 0.0
O179 O 0.04734 0.70155 0.48719 0.0
H180 H 0.18279 0.63066 0.6653 0.0
H181 H 0.14367 0.763 0.49765 0.0
O182 O 0.1048 0.5918 0.53075 0.0
C183 C 0.0034 0.71721 0.44414 0.0
O184 O 0.95414 0.69151 0.45777 0.0
N185 N 0.03695 0.71598 0.66235 0.0
C186 C 0.02302 0.81467 0.75662 0.0
C187 C 0.04833 0.76651 0.7942 0.0
C188 C 0.05452 0.71653 0.74485 0.0
C189 C -0.00374 0.75512 0.63906 0.0
C190 C 0.98691 0.80418 0.68753 0.0
H191 H 0.07793 0.68025 0.7697 0.0
H192 H 0.97145 0.7505 0.58297 0.0
H193 H 0.01703 0.53567 0.53404 0.0
H194 H 0.95134 0.5518 0.7793 0.0
H195 H 0.27677 0.6638 0.59159 0.0
H196 H 0.07237 0.77056 0.85245 0.0
H197 H 0.96099 0.83829 0.66097 0.0
C198 C 0.8754 0.96844 0.67929 0.0
C199 C 0.9291 0.96377 0.71481 0.0
N200 N 0.9671 0.98487 0.65955 0.0
N201 N 0.87795 -0.00387 0.60356 0.0
C202 C 0.93578 -0.00274 0.58934 0.0
H203 H 0.8368 0.9596 0.71436 0.0
Co204 Co 0.8346 0.06785 0.59223 0.0
C205 C 0.9345 0.12101 0.58739 0.0
O206 O 0.92676 0.10116 0.66463 0.0
N207 N 0.79851 0.14072 0.58445 0.0
C208 C 0.81174 0.23468 0.57733 0.0
C209 C 0.82803 0.18534 0.61569 0.0
C210 C 0.76063 0.16651 0.53085 0.0
N211 N 0.76749 0.22479 0.52694 0.0
O212 O 0.78863 0.04727 0.4872 0.0
H213 H 0.85952 0.18265 0.66538 0.0
H214 H 0.72714 0.14359 0.49769 0.0
O215 O 0.89838 0.10472 0.53075 0.0
C216 C 0.77296 0.00333 0.44416 0.0
O217 O 0.79867 0.95408 0.4578 0.0
N218 N 0.77419 0.03686 0.66236 0.0
C219 C 0.67548 0.02295 0.75665 0.0
C220 C 0.72366 0.04824 0.79422 0.0
C221 C 0.77364 0.05443 0.74486 0.0
C222 C 0.73504 -0.00382 0.63909 0.0
C223 C 0.68598 0.98683 0.68757 0.0
H224 H 0.80992 0.07783 0.76969 0.0
H225 H 0.73966 0.97138 0.58299 0.0
H226 H 0.95453 0.01698 0.53404 0.0
H227 H 0.93837 0.95122 0.77927 0.0
H228 H 0.8263 0.27669 0.59182 0.0
H229 H 0.7196 0.07228 0.85246 0.0
H230 H 0.65185 0.96092 0.66102 0.0
C231 C 0.52178 0.87533 0.67928 0.0
C232 C 0.52643 0.92902 0.71481 0.0
N233 N 0.50533 0.96702 0.65955 0.0
N234 N 0.49411 0.87788 0.60354 0.0
C235 C 0.49296 0.93571 0.58933 0.0
H236 H 0.53063 0.83673 0.71434 0.0
Co237 Co 0.42239 0.83452 0.5922 0.0
C238 C 0.36921 0.9344 0.58736 0.0
O239 O 0.38904 0.92664 0.66461 0.0
N240 N 0.3495 0.79843 0.58442 0.0
C241 C 0.25553 0.81166 0.57726 0.0
C242 C 0.30487 0.82793 0.61564 0.0
C243 C 0.32373 0.76056 0.5308 0.0
N244 N 0.26544 0.76742 0.52688 0.0
O245 O 0.44298 0.78855 0.48717 0.0
H246 H 0.30755 0.85941 0.66534 0.0
H247 H 0.34667 0.72708 0.49766 0.0
O248 O 0.3855 0.89829 0.53072 0.0
C249 C 0.48692 0.77289 0.44412 0.0
O250 O 0.53617 0.79859 0.45774 0.0
N251 N 0.45337 0.77412 0.66233 0.0
C252 C 0.46725 0.6754 0.75658 0.0
C253 C 0.44197 0.72357 0.79417 0.0
C254 C 0.4358 0.77356 0.74483 0.0
C255 C 0.49406 0.73497 0.63905 0.0
C256 C 0.50338 0.6859 0.68751 0.0
H257 H 0.41239 0.80983 0.76967 0.0
H258 H 0.51888 0.7396 0.58296 0.0
H259 H 0.47325 0.95446 0.53403 0.0
H260 H 0.53896 0.93828 0.77928 0.0
H261 H 0.21351 0.82622 0.59171 0.0
H262 H 0.41792 0.71951 0.85242 0.0
H263 H 0.52929 0.65178 0.66094 0.0
C264 C 0.37537 0.0217 0.17926 0.0
C265 C 0.42906 0.02627 0.21488 0.0
N266 N 0.46705 0.00508 1.15971 0.0
N267 N 0.37794 0.99401 1.10353 0.0
C268 C 0.43578 0.99281 1.08941 0.0
H269 H 0.33676 0.03062 0.21424 0.0
Co270 Co 0.33457 0.92228 1.09224 0.0
C271 C 0.43446 0.86909 1.08745 0.0
O272 O 0.42674 0.88891 1.16471 0.0
N273 N 0.29848 0.84939 1.08451 0.0
C274 C 0.31177 0.75548 1.07735 0.0
C275 C 0.32799 0.8048 1.11578 0.0
C276 C 0.26067 0.82357 1.03084 0.0
N277 N 0.26756 0.76528 1.02683 0.0
O278 O 0.28862 0.94284 0.98719 0.0
H279 H 0.35945 0.80749 1.16551 0.0
H280 H 0.2272 0.84649 0.99764 0.0
O281 O 0.39836 0.88539 1.03079 0.0
C282 C 0.27298 0.98677 0.9441 0.0
O283 O 0.2987 0.03601 0.95774 0.0
N284 N 0.27416 0.95329 1.16235 0.0
C285 C 0.17549 0.96725 0.25663 0.0
C286 C 0.22364 0.94194 0.29423 0.0
C287 C 0.27362 0.93575 0.24487 0.0
C288 C 0.235 0.99395 1.13901 0.0
C289 C 0.18593 0.00331 0.18748 0.0
H290 H 0.30992 0.91237 0.26972 0.0
H291 H 0.2396 0.01871 1.08287 0.0
H292 H 0.45455 0.97311 1.03411 0.0
H293 H 0.4383 0.03881 0.27935 0.0
H294 H 0.32634 0.71348 1.09194 0.0
H295 H 0.21959 0.91792 0.35251 0.0
H296 H 0.15179 0.0292 1.16089 0.0
C297 C 0.46846 0.37531 0.17931 0.0
C298 C 0.46391 0.42899 0.21493 0.0
N299 N 0.4851 0.46696 1.15972 0.0
N300 N 0.49613 0.37786 1.10357 0.0
C301 C 0.49734 0.43569 1.08942 0.0
H302 H 0.45955 0.3367 0.21431 0.0
Co303 Co 0.56786 0.33448 1.09225 0.0
C304 C 0.62107 0.43434 1.08745 0.0
O305 O 0.60126 0.4266 1.16472 0.0
N306 N 0.64075 0.29838 1.0845 0.0
C307 C 0.73468 0.31167 1.07727 0.0
C308 C 0.68537 0.32789 1.11574 0.0
C309 C 0.66656 0.26058 1.03081 0.0
N310 N 0.72486 0.26747 1.02676 0.0
O311 O 0.54729 0.28853 0.9872 0.0
H312 H 0.68269 0.35934 1.16547 0.0
H313 H 0.64363 0.22712 0.99762 0.0
O314 O 0.60476 0.39825 1.03078 0.0
C315 C 0.50335 0.27289 0.94413 0.0
O316 O 0.4541 0.2986 0.95776 0.0
N317 N 0.53685 0.27408 1.16237 0.0
C318 C 0.52292 0.1754 0.25663 0.0
C319 C 0.54823 0.22354 0.29423 0.0
C320 C 0.5544 0.27353 0.24488 0.0
C321 C 0.49618 0.23492 1.13904 0.0
C322 C 0.48684 0.18584 0.18749 0.0
H323 H 0.57779 0.30981 0.26973 0.0
H324 H 0.4714 0.23953 1.08292 0.0
H325 H 0.51703 0.45445 1.0341 0.0
H326 H 0.45139 0.43824 0.2794 0.0
H327 H 0.77669 0.32625 1.09179 0.0
H328 H 0.57226 0.21948 0.3525 0.0
H329 H 0.46096 0.15171 1.1609 0.0
C330 C 0.11489 0.46838 0.1793 0.0
C331 C 0.0612 0.46381 0.21491 0.0
N332 N 0.02322 0.48501 1.15971 0.0
N333 N 0.11234 0.49607 1.10357 0.0
C334 C 0.0545 0.49728 1.08942 0.0
H335 H 0.15351 0.45946 0.2143 0.0
Co336 Co 0.15572 0.56779 1.09228 0.0
C337 C 0.05585 0.621 1.08748 0.0
O338 O 0.06355 0.60117 1.16474 0.0
N339 N 0.19182 0.64066 1.08456 0.0
C340 C 0.17858 0.73462 1.07754 0.0
C341 C 0.16232 0.68527 1.11588 0.0
C342 C 0.22965 0.66647 1.0309 0.0
N343 N 0.22278 0.72475 1.02704 0.0
O344 O 0.20167 0.54724 0.98723 0.0
H345 H 0.13086 0.68256 1.1656 0.0
H346 H 0.26311 0.64356 0.99766 0.0
O347 O 0.09195 0.6047 1.03082 0.0
C348 C 0.21731 0.50331 0.94416 0.0
O349 O 0.1916 0.45406 0.95782 0.0
N350 N 0.21612 0.53677 1.16239 0.0
C351 C 0.31481 0.52286 0.25665 0.0
C352 C 0.26666 0.54816 0.29425 0.0
C353 C 0.21667 0.55432 0.2449 0.0
C354 C 0.2553 0.49612 1.13906 0.0
C355 C 0.30438 0.48678 0.18751 0.0
H356 H 0.18038 0.57771 0.26974 0.0
H357 H 0.2507 0.47135 1.08294 0.0
H358 H 0.03575 0.51699 1.03412 0.0
H359 H 0.05195 0.45127 0.27938 0.0
H360 H 0.16403 0.77662 1.09208 0.0
H361 H 0.27072 0.57218 0.35251 0.0
H362 H 0.33852 0.46091 1.16093 0.0
C363 C 0.02177 0.1148 0.17932 0.0
C364 C 0.02634 0.06111 0.21493 0.0
N365 N 0.00517 0.02314 1.15972 0.0
N366 N 0.9941 0.11224 1.10357 0.0
C367 C 0.99291 0.05441 1.08943 0.0
H368 H 0.03066 0.1534 0.21433 0.0
Co369 Co 0.92237 0.1556 1.09223 0.0
C370 C 0.86919 0.05574 1.08744 0.0
O371 O 0.889 0.06347 1.16471 0.0
N372 N 0.84947 0.19169 1.08445 0.0
C373 C 0.7555 0.17845 1.07733 0.0
C374 C 0.80484 0.16217 1.1157 0.0
C375 C 0.82368 0.22955 1.03083 0.0
N376 N 0.76539 0.22269 1.02693 0.0
O377 O 0.94295 0.20156 0.98719 0.0
H378 H 0.80753 0.1307 1.16541 0.0
H379 H 0.84661 0.26303 0.99767 0.0
O380 O 0.88549 0.09183 1.03077 0.0
C381 C 0.98688 0.21721 0.94412 0.0
O382 O 0.03613 0.1915 0.95777 0.0
N383 N 0.95336 0.216 1.16235 0.0
C384 C 0.96729 0.31468 0.2566 0.0
C385 C 0.94196 0.26655 0.29419 0.0
C386 C 0.93579 0.21656 0.24485 0.0
C387 C 0.99404 0.25516 1.13903 0.0
C388 C 0.00338 0.30423 0.18747 0.0
H389 H 0.91238 0.18028 0.2697 0.0
H390 H 0.01883 0.25054 1.08292 0.0
H391 H 0.97323 0.03566 1.0341 0.0
H392 H 0.03886 0.05186 0.27941 0.0
H393 H 0.71348 0.1639 1.09185 0.0
H394 H 0.91792 0.27061 0.35245 0.0
H395 H 0.02927 0.33836 1.16089 0.0
C396 C 0.37538 0.46838 0.65988 0.0
C397 C 0.42906 0.46381 0.62425 0.0
N398 N 0.46705 0.48502 0.67942 0.0
N399 N 0.37794 0.49607 0.7356 0.0
C400 C 0.43578 0.49728 0.74972 0.0
H401 H 0.33676 0.45945 0.6249 0.0
Co402 Co 0.33457 0.56779 0.74687 0.0
C403 C 0.43444 0.621 0.75166 0.0
O404 O 0.42673 0.60118 0.6744 0.0
N405 N 0.29846 0.64067 0.75459 0.0
C406 C 0.31176 0.73458 0.76172 0.0
C407 C 0.32796 0.68526 0.72329 0.0
C408 C 0.26067 0.66649 0.80829 0.0
N409 N 0.26757 0.72478 0.81228 0.0
O410 O 0.28862 0.54723 0.85193 0.0
H411 H 0.35942 0.68257 0.67355 0.0
H412 H 0.22721 0.64357 0.84152 0.0
O413 O 0.39834 0.6047 0.80832 0.0
C414 C 0.27298 0.5033 0.89502 0.0
O415 O 0.29869 0.45406 0.88139 0.0
N416 N 0.27416 0.53677 0.67678 0.0
C417 C 0.17548 0.52284 0.58252 0.0
C418 C 0.22363 0.54813 0.5449 0.0
C419 C 0.27362 0.55431 0.59426 0.0
C420 C 0.23498 0.49612 0.70013 0.0
C421 C 0.18591 0.48677 0.65167 0.0
H422 H 0.30991 0.57768 0.5694 0.0
H423 H 0.23958 0.47136 0.75626 0.0
H424 H 0.45454 0.51699 0.80502 0.0
H425 H 0.43831 0.45127 0.55978 0.0
H426 H 0.32633 0.77658 0.74715 0.0
H427 H 0.21957 0.57214 0.48662 0.0
H428 H 0.15176 0.4609 0.67826 0.0
C429 C 0.02177 0.3753 0.65979 0.0
C430 C 0.02634 0.42899 0.62418 0.0
N431 N 0.00517 0.46696 0.6794 0.0
N432 N 0.99411 0.37785 0.73554 0.0
C433 C 0.99292 0.43568 0.74969 0.0
H434 H 0.03067 0.3367 0.62477 0.0
Co435 Co 0.92237 0.33449 0.74687 0.0
C436 C 0.86919 0.43435 0.75166 0.0
O437 O 0.889 0.42661 0.67439 0.0
N438 N 0.84947 0.2984 0.75465 0.0
C439 C 0.75554 0.31169 0.76189 0.0
C440 C 0.80486 0.32792 0.72343 0.0
C441 C 0.82366 0.26058 0.80832 0.0
N442 N 0.76536 0.26747 0.81237 0.0
O443 O 0.94295 0.28853 0.85192 0.0
H444 H 0.80753 0.35938 0.6737 0.0
H445 H 0.8466 0.2271 0.84149 0.0
O446 O 0.88549 0.39826 0.80834 0.0
C447 C 0.98689 0.27288 0.89498 0.0
O448 O 0.03614 0.29859 0.88136 0.0
N449 N 0.95337 0.27409 0.67675 0.0
C450 C 0.96732 0.17542 0.5825 0.0
C451 C 0.94199 0.22356 0.5449 0.0
C452 C 0.93581 0.27354 0.59424 0.0
C453 C 0.99405 0.23493 0.70008 0.0
C454 C 0.0034 0.18587 0.65163 0.0
H455 H 0.91241 0.30982 0.56939 0.0
H456 H 0.01883 0.23955 0.75619 0.0
H457 H 0.97323 0.45442 0.80502 0.0
H458 H 0.03886 0.43825 0.55971 0.0
H459 H 0.71353 0.32626 0.74736 0.0
H460 H 0.91796 0.2195 0.48663 0.0
H461 H 0.02929 0.15174 0.67821 0.0
C462 C 0.1149 0.02169 0.65982 0.0
C463 C 0.06121 0.02627 0.62421 0.0
N464 N 0.02323 0.00508 0.67941 0.0
N465 N 0.11234 0.994 0.73555 0.0
C466 C 0.0545 0.99281 0.7497 0.0
H467 H 0.15351 0.0306 0.62481 0.0
Co468 Co 0.15571 0.92228 0.74686 0.0
C469 C 0.05583 0.86909 0.75168 0.0
O470 O 0.06354 0.88891 0.67442 0.0
N471 N 0.1918 0.8494 0.75461 0.0
C472 C 0.17856 0.75544 0.76167 0.0
C473 C 0.16229 0.80479 0.72333 0.0
C474 C 0.22966 0.82359 0.80824 0.0
N475 N 0.22278 0.76531 0.81212 0.0
O476 O 0.20166 0.94284 0.8519 0.0
H477 H 0.13081 0.80749 0.67362 0.0
H478 H 0.26313 0.8465 0.84144 0.0
O479 O 0.09193 0.88539 0.80834 0.0
C480 C 0.21731 0.98677 0.89496 0.0
O481 O 0.19161 0.03602 0.88132 0.0
N482 N 0.21611 0.95328 0.67674 0.0
C483 C 0.31479 0.96722 0.58246 0.0
C484 C 0.26665 0.9419 0.54488 0.0
C485 C 0.21666 0.93572 0.59424 0.0
C486 C 0.25528 0.99395 0.70006 0.0
C487 C 0.30435 0.0033 0.65159 0.0
H488 H 0.18037 0.91233 0.5694 0.0
H489 H 0.25067 0.01873 0.75617 0.0
H490 H 0.03575 0.97311 0.80501 0.0
H491 H 0.05196 0.0388 0.55974 0.0
H492 H 0.16401 0.71344 0.74713 0.0
H493 H 0.27071 0.91787 0.48662 0.0
H494 H 0.33849 0.02918 0.67816 0.0
C495 C 0.46846 0.11479 0.65983 0.0
C496 C 0.46391 0.06111 0.62421 0.0
N497 N 0.4851 0.02313 0.67941 0.0
N498 N 0.49613 0.11223 0.73558 0.0
C499 C 0.49734 0.0544 0.74971 0.0
H500 H 0.45955 0.1534 0.62483 0.0
Co501 Co 0.56786 0.15561 0.74689 0.0
C502 C 0.62107 0.05576 0.75171 0.0
O503 O 0.60126 0.06348 0.67444 0.0
N504 N 0.64075 0.19171 0.75465 0.0
C505 C 0.73472 0.17847 0.76174 0.0
C506 C 0.68537 0.16221 0.72337 0.0
C507 C 0.66654 0.22955 0.80829 0.0
N508 N 0.72483 0.22268 0.81218 0.0
O509 O 0.54728 0.20156 0.85194 0.0
H510 H 0.68269 0.13074 0.67366 0.0
H511 H 0.64361 0.26301 0.84147 0.0
O512 O 0.60476 0.09184 0.80837 0.0
C513 C 0.50335 0.21721 0.895 0.0
O514 O 0.45409 0.19151 0.88139 0.0
N515 N 0.53685 0.21601 0.67677 0.0
C516 C 0.52295 0.3147 0.58253 0.0
C517 C 0.54826 0.26656 0.54493 0.0
C518 C 0.55442 0.21657 0.59427 0.0
C519 C 0.49619 0.25517 0.70009 0.0
C520 C 0.48686 0.30425 0.65166 0.0
H521 H 0.57782 0.18029 0.56942 0.0
H522 H 0.47139 0.25055 0.7562 0.0
H523 H 0.51703 0.03564 0.80503 0.0
H524 H 0.45139 0.05187 0.55973 0.0
H525 H 0.77673 0.16392 0.74724 0.0
H526 H 0.5723 0.27063 0.48667 0.0
H527 H 0.46098 0.33839 0.67824 0.0
loop_
_geom_bond_atom_site_label_1
_geom_bond_atom_site_label_2
_geom_bond_distance
_geom_bond_site_symmetry_2
_ccdc_geom_bond_type
C0 C1 1.351 . S
C0 N3 1.368 1_565 S
C0 H5 0.931 . S
C1 C0 1.351 . S
C1 N2 1.373 . S
C1 H29 0.930 . S
N2 C1 1.373 . S
N2 C4 1.340 1_565 S
N3 C0 1.368 1_545 S
N3 C4 1.321 . S
N3 Co6 2.135 . S
C4 N2 1.340 1_545 S
C4 N3 1.321 . S
C4 H28 0.930 . S
H5 C0 0.931 . S
Co6 N3 2.135 . S
Co6 N9 2.121 . S
Co6 O14 2.055 . S
Co6 O17 2.039 . S
Co6 N20 2.140 . S
C7 O8 1.227 . S
C7 O17 1.265 . S
O8 C7 1.227 . S
N9 Co6 2.121 . S
N9 C11 1.375 . S
N9 C12 1.313 . S
C10 C11 1.338 . S
C10 N13 1.377 . S
C10 H30 0.930 . S
C11 N9 1.375 . S
C11 C10 1.338 . S
C11 H15 0.931 . S
C12 N9 1.313 . S
C12 N13 1.344 . S
C12 H16 0.930 . S
N13 C10 1.377 . S
N13 C12 1.344 . S
O14 Co6 2.055 . S
O14 C18 1.253 . S
H15 C11 0.931 . S
H16 C12 0.930 . S
O17 Co6 2.039 . S
O17 C7 1.265 . S
C18 O14 1.253 . S
C18 O19 1.227 . S
O19 C18 1.227 . S
N20 Co6 2.140 . S
N20 C23 1.346 . S
N20 C24 1.345 . S
C21 C22 1.387 . S
C21 C25 1.391 1_556 S
C22 C21 1.387 . S
C22 C23 1.369 1_556 S
C22 H31 0.929 . S
C23 N20 1.346 . S
C23 C22 1.369 1_554 S
C23 H26 0.928 . S
C24 N20 1.345 . S
C24 C25 1.371 . S
C24 H27 0.931 . S
C25 C21 1.391 1_554 S
C25 C24 1.371 . S
C25 H32 0.930 . S
H26 C23 0.928 . S
H27 C24 0.931 . S
H28 C4 0.930 . S
H29 C1 0.930 . S
H30 C10 0.930 . S
H31 C22 0.929 . S
H32 C25 0.930 . S
C33 C34 1.351 . S
C33 N36 1.368 . S
C33 H38 0.931 . S
C34 C33 1.351 . S
C34 N35 1.373 . S
C34 H62 0.930 . S
N35 C34 1.373 . S
N35 C37 1.340 . S
N36 C33 1.368 . S
N36 C37 1.321 . S
N36 Co39 2.135 . S
C37 N35 1.340 . S
C37 N36 1.321 . S
C37 H61 0.930 . S
H38 C33 0.931 . S
Co39 N36 2.135 . S
Co39 N42 2.121 . S
Co39 O47 2.055 . S
Co39 O50 2.039 . S
Co39 N53 2.140 . S
C40 O41 1.227 . S
C40 O50 1.265 . S
O41 C40 1.227 . S
N42 Co39 2.121 . S
N42 C44 1.375 . S
N42 C45 1.313 . S
C43 C44 1.338 . S
C43 N46 1.377 . S
C43 H63 0.930 . S
C44 N42 1.375 . S
C44 C43 1.338 . S
C44 H48 0.931 . S
C45 N42 1.313 . S
C45 N46 1.344 . S
C45 H49 0.930 . S
N46 C43 1.377 . S
N46 C45 1.344 . S
O47 Co39 2.055 . S
O47 C51 1.253 . S
H48 C44 0.931 . S
H49 C45 0.930 . S
O50 Co39 2.039 . S
O50 C40 1.265 . S
C51 O47 1.253 . S
C51 O52 1.227 . S
O52 C51 1.227 . S
N53 Co39 2.140 . S
N53 C56 1.346 . S
N53 C57 1.345 . S
C54 C55 1.387 . S
C54 C58 1.391 1_556 S
C55 C54 1.387 . S
C55 C56 1.369 1_556 S
C55 H64 0.929 . S
C56 N53 1.346 . S
C56 C55 1.369 1_554 S
C56 H59 0.928 . S
C57 N53 1.345 . S
C57 C58 1.371 . S
C57 H60 0.931 . S
C58 C54 1.391 1_554 S
C58 C57 1.371 . S
C58 H65 0.930 . S
H59 C56 0.928 . S
H60 C57 0.931 . S
H61 C37 0.930 . S
H62 C34 0.930 . S
H63 C43 0.930 . S
H64 C55 0.929 . S
H65 C58 0.930 . S
C66 C67 1.351 . S
C66 N69 1.368 . S
C66 H71 0.931 . S
C67 C66 1.351 . S
C67 N68 1.373 . S
C67 H95 0.930 . S
N68 C67 1.373 . S
N68 C70 1.340 . S
N69 C66 1.368 . S
N69 C70 1.321 . S
N69 Co72 2.135 . S
C70 N68 1.340 . S
C70 N69 1.321 . S
C70 H94 0.930 . S
H71 C66 0.931 . S
Co72 N69 2.135 . S
Co72 N75 2.121 . S
Co72 O80 2.055 . S
Co72 O83 2.039 . S
Co72 N86 2.140 . S
C73 O74 1.227 . S
C73 O83 1.265 . S
O74 C73 1.227 . S
N75 Co72 2.121 . S
N75 C77 1.375 . S
N75 C78 1.313 . S
C76 C77 1.338 . S
C76 N79 1.377 . S
C76 H96 0.930 . S
C77 N75 1.375 . S
C77 C76 1.338 . S
C77 H81 0.931 . S
C78 N75 1.313 . S
C78 N79 1.344 . S
C78 H82 0.930 . S
N79 C76 1.377 . S
N79 C78 1.344 . S
O80 Co72 2.055 . S
O80 C84 1.253 . S
H81 C77 0.931 . S
H82 C78 0.930 . S
O83 Co72 2.039 . S
O83 C73 1.265 . S
C84 O80 1.253 . S
C84 O85 1.227 . S
O85 C84 1.227 . S
N86 Co72 2.140 . S
N86 C89 1.346 . S
N86 C90 1.345 . S
C87 C88 1.387 . S
C87 C91 1.391 1_556 S
C88 C87 1.387 . S
C88 C89 1.369 1_556 S
C88 H97 0.929 . S
C89 N86 1.346 . S
C89 C88 1.369 1_554 S
C89 H92 0.928 . S
C90 N86 1.345 . S
C90 C91 1.371 . S
C90 H93 0.931 . S
C91 C87 1.391 1_554 S
C91 C90 1.371 . S
C91 H98 0.930 . S
H92 C89 0.928 . S
H93 C90 0.931 . S
H94 C70 0.930 . S
H95 C67 0.930 . S
H96 C76 0.930 . S
H97 C88 0.929 . S
H98 C91 0.930 . S
C99 C100 1.351 . S
C99 N102 1.368 1_655 S
C99 H104 0.931 . S
C100 C99 1.351 . S
C100 N101 1.373 . S
C100 H128 0.930 . S
N101 C100 1.373 . S
N101 C103 1.340 1_655 S
N102 C99 1.368 1_455 S
N102 C103 1.321 . S
N102 Co105 2.135 . S
C103 N101 1.340 1_455 S
C103 N102 1.321 . S
C103 H127 0.930 . S
H104 C99 0.931 . S
Co105 N102 2.135 . S
Co105 N108 2.121 . S
Co105 O113 2.055 . S
Co105 O116 2.039 . S
Co105 N119 2.140 . S
C106 O107 1.227 . S
C106 O116 1.265 . S
O107 C106 1.227 . S
N108 Co105 2.121 . S
N108 C110 1.375 . S
N108 C111 1.313 . S
C109 C110 1.338 . S
C109 N112 1.377 . S
C109 H129 0.930 . S
C110 N108 1.375 . S
C110 C109 1.338 . S
C110 H114 0.931 . S
C111 N108 1.313 . S
C111 N112 1.344 . S
C111 H115 0.930 . S
N112 C109 1.377 . S
N112 C111 1.344 . S
O113 Co105 2.055 . S
O113 C117 1.253 . S
H114 C110 0.931 . S
H115 C111 0.930 . S
O116 Co105 2.039 . S
O116 C106 1.265 . S
C117 O113 1.253 . S
C117 O118 1.227 . S
O118 C117 1.227 . S
N119 Co105 2.140 . S
N119 C122 1.346 . S
N119 C123 1.345 . S
C120 C121 1.387 . S
C120 C124 1.391 1_556 S
C121 C120 1.387 . S
C121 C122 1.369 1_556 S
C121 H130 0.929 . S
C122 N119 1.346 . S
C122 C121 1.369 1_554 S
C122 H125 0.928 . S
C123 N119 1.345 . S
C123 C124 1.371 . S
C123 H126 0.931 . S
C124 C120 1.391 1_554 S
C124 C123 1.371 . S
C124 H131 0.930 . S
H125 C122 0.928 . S
H126 C123 0.931 . S
H127 C103 0.930 . S
H128 C100 0.930 . S
H129 C109 0.930 . S
H130 C121 0.929 . S
H131 C124 0.930 . S
C132 C133 1.351 . S
C132 N135 1.368 . S
C132 H137 0.931 . S
C133 C132 1.351 . S
C133 N134 1.373 . S
C133 H161 0.930 . S
N134 C133 1.373 . S
N134 C136 1.340 . S
N135 C132 1.368 . S
N135 C136 1.321 . S
N135 Co138 2.135 . S
C136 N134 1.340 . S
C136 N135 1.321 . S
C136 H160 0.930 . S
H137 C132 0.931 . S
Co138 N135 2.135 . S
Co138 N141 2.121 . S
Co138 O146 2.055 . S
Co138 O149 2.039 . S
Co138 N152 2.140 . S
C139 O140 1.227 . S
C139 O149 1.265 . S
O140 C139 1.227 . S
N141 Co138 2.121 . S
N141 C143 1.375 . S
N141 C144 1.313 . S
C142 C143 1.338 . S
C142 N145 1.377 . S
C142 H162 0.930 . S
C143 N141 1.375 . S
C143 C142 1.338 . S
C143 H147 0.931 . S
C144 N141 1.313 . S
C144 N145 1.344 . S
C144 H148 0.930 . S
N145 C142 1.377 . S
N145 C144 1.344 . S
O146 Co138 2.055 . S
O146 C150 1.253 . S
H147 C143 0.931 . S
H148 C144 0.930 . S
O149 Co138 2.039 . S
O149 C139 1.265 . S
C150 O146 1.253 . S
C150 O151 1.227 . S
O151 C150 1.227 . S
N152 Co138 2.140 . S
N152 C155 1.346 . S
N152 C156 1.345 . S
C153 C154 1.387 . S
C153 C157 1.391 . S
C154 C153 1.387 . S
C154 C155 1.369 . S
C154 H163 0.929 . S
C155 N152 1.346 . S
C155 C154 1.369 . S
C155 H158 0.928 . S
C156 N152 1.345 . S
C156 C157 1.371 . S
C156 H159 0.931 . S
C157 C153 1.391 . S
C157 C156 1.371 . S
C157 H164 0.930 . S
H158 C155 0.928 . S
H159 C156 0.931 . S
H160 C136 0.930 . S
H161 C133 0.930 . S
H162 C142 0.930 . S
H163 C154 0.929 . S
H164 C157 0.930 . S
C165 C166 1.351 . S
C165 N168 1.368 1_655 S
C165 H170 0.931 . S
C166 C165 1.351 . S
C166 N167 1.373 . S
C166 H194 0.930 . S
N167 C166 1.373 . S
N167 C169 1.340 1_655 S
N168 C165 1.368 1_455 S
N168 C169 1.321 . S
N168 Co171 2.135 . S
C169 N167 1.340 1_455 S
C169 N168 1.321 . S
C169 H193 0.930 . S
H170 C165 0.931 . S
Co171 N168 2.135 . S
Co171 N174 2.121 . S
Co171 O179 2.055 . S
Co171 O182 2.039 . S
Co171 N185 2.140 . S
C172 O173 1.227 . S
C172 O182 1.265 . S
O173 C172 1.227 . S
N174 Co171 2.121 . S
N174 C176 1.375 . S
N174 C177 1.313 . S
C175 C176 1.338 . S
C175 N178 1.377 . S
C175 H195 0.930 . S
C176 N174 1.375 . S
C176 C175 1.338 . S
C176 H180 0.931 . S
C177 N174 1.313 . S
C177 N178 1.344 . S
C177 H181 0.930 . S
N178 C175 1.377 . S
N178 C177 1.344 . S
O179 Co171 2.055 . S
O179 C183 1.253 . S
H180 C176 0.931 . S
H181 C177 0.930 . S
O182 Co171 2.039 . S
O182 C172 1.265 . S
C183 O179 1.253 . S
C183 O184 1.227 . S
O184 C183 1.227 . S
N185 Co171 2.140 . S
N185 C188 1.346 . S
N185 C189 1.345 . S
C186 C187 1.387 . S
C186 C190 1.391 . S
C187 C186 1.387 . S
C187 C188 1.369 . S
C187 H196 0.929 . S
C188 N185 1.346 . S
C188 C187 1.369 . S
C188 H191 0.928 . S
C189 N185 1.345 . S
C189 C190 1.371 . S
C189 H192 0.931 . S
C190 C186 1.391 . S
C190 C189 1.371 . S
C190 H197 0.930 . S
H191 C188 0.928 . S
H192 C189 0.931 . S
H193 C169 0.930 . S
H194 C166 0.930 . S
H195 C175 0.930 . S
H196 C187 0.929 . S
H197 C190 0.930 . S
C198 C199 1.351 . S
C198 N201 1.368 1_565 S
C198 H203 0.931 . S
C199 C198 1.351 . S
C199 N200 1.373 . S
C199 H227 0.930 . S
N200 C199 1.373 . S
N200 C202 1.340 1_565 S
N201 C198 1.368 1_545 S
N201 C202 1.321 . S
N201 Co204 2.135 . S
C202 N200 1.340 1_545 S
C202 N201 1.321 . S
C202 H226 0.930 . S
H203 C198 0.931 . S
Co204 N201 2.135 . S
Co204 N207 2.121 . S
Co204 O212 2.055 . S
Co204 O215 2.039 . S
Co204 N218 2.140 . S
C205 O206 1.227 . S
C205 O215 1.265 . S
O206 C205 1.227 . S
N207 Co204 2.121 . S
N207 C209 1.375 . S
N207 C210 1.313 . S
C208 C209 1.338 . S
C208 N211 1.377 . S
C208 H228 0.930 . S
C209 N207 1.375 . S
C209 C208 1.338 . S
C209 H213 0.931 . S
C210 N207 1.313 . S
C210 N211 1.344 . S
C210 H214 0.930 . S
N211 C208 1.377 . S
N211 C210 1.344 . S
O212 Co204 2.055 . S
O212 C216 1.253 . S
H213 C209 0.931 . S
H214 C210 0.930 . S
O215 Co204 2.039 . S
O215 C205 1.265 . S
C216 O212 1.253 . S
C216 O217 1.227 . S
O217 C216 1.227 . S
N218 Co204 2.140 . S
N218 C221 1.346 . S
N218 C222 1.345 . S
C219 C220 1.387 . S
C219 C223 1.391 . S
C220 C219 1.387 . S
C220 C221 1.369 . S
C220 H229 0.929 . S
C221 N218 1.346 . S
C221 C220 1.369 . S
C221 H224 0.928 . S
C222 N218 1.345 . S
C222 C223 1.371 . S
C222 H225 0.931 . S
C223 C219 1.391 . S
C223 C222 1.371 . S
C223 H230 0.930 . S
H224 C221 0.928 . S
H225 C222 0.931 . S
H226 C202 0.930 . S
H227 C199 0.930 . S
H228 C208 0.930 . S
H229 C220 0.929 . S
H230 C223 0.930 . S
C231 C232 1.351 . S
C231 N234 1.368 . S
C231 H236 0.931 . S
C232 C231 1.351 . S
C232 N233 1.373 . S
C232 H260 0.930 . S
N233 C232 1.373 . S
N233 C235 1.340 . S
N234 C231 1.368 . S
N234 C235 1.321 . S
N234 Co237 2.135 . S
C235 N233 1.340 . S
C235 N234 1.321 . S
C235 H259 0.930 . S
H236 C231 0.931 . S
Co237 N234 2.135 . S
Co237 N240 2.121 . S
Co237 O245 2.055 . S
Co237 O248 2.039 . S
Co237 N251 2.140 . S
C238 O239 1.227 . S
C238 O248 1.265 . S
O239 C238 1.227 . S
N240 Co237 2.121 . S
N240 C242 1.375 . S
N240 C243 1.313 . S
C241 C242 1.338 . S
C241 N244 1.377 . S
C241 H261 0.930 . S
C242 N240 1.375 . S
C242 C241 1.338 . S
C242 H246 0.931 . S
C243 N240 1.313 . S
C243 N244 1.344 . S
C243 H247 0.930 . S
N244 C241 1.377 . S
N244 C243 1.344 . S
O245 Co237 2.055 . S
O245 C249 1.253 . S
H246 C242 0.931 . S
H247 C243 0.930 . S
O248 Co237 2.039 . S
O248 C238 1.265 . S
C249 O245 1.253 . S
C249 O250 1.227 . S
O250 C249 1.227 . S
N251 Co237 2.140 . S
N251 C254 1.346 . S
N251 C255 1.345 . S
C252 C253 1.387 . S
C252 C256 1.391 . S
C253 C252 1.387 . S
C253 C254 1.369 . S
C253 H262 0.929 . S
C254 N251 1.346 . S
C254 C253 1.369 . S
C254 H257 0.928 . S
C255 N251 1.345 . S
C255 C256 1.371 . S
C255 H258 0.931 . S
C256 C252 1.391 . S
C256 C255 1.371 . S
C256 H263 0.930 . S
H257 C254 0.928 . S
H258 C255 0.931 . S
H259 C235 0.930 . S
H260 C232 0.930 . S
H261 C241 0.930 . S
H262 C253 0.929 . S
H263 C256 0.930 . S
C264 C265 1.351 . S
C264 N267 1.368 1_545 S
C264 H269 0.931 . S
C265 C264 1.351 . S
C265 N266 1.373 . S
C265 H293 0.930 . S
N266 C265 1.373 . S
N266 C268 1.340 1_545 S
N267 C264 1.368 1_565 S
N267 C268 1.321 . S
N267 Co270 2.135 . S
C268 N266 1.340 1_565 S
C268 N267 1.321 . S
C268 H292 0.930 . S
H269 C264 0.931 . S
Co270 N267 2.135 . S
Co270 N273 2.121 . S
Co270 O278 2.055 . S
Co270 O281 2.039 . S
Co270 N284 2.140 . S
C271 O272 1.227 . S
C271 O281 1.265 . S
O272 C271 1.227 . S
N273 Co270 2.121 . S
N273 C275 1.375 . S
N273 C276 1.313 . S
C274 C275 1.338 . S
C274 N277 1.377 . S
C274 H294 0.930 . S
C275 N273 1.375 . S
C275 C274 1.338 . S
C275 H279 0.931 . S
C276 N273 1.313 . S
C276 N277 1.344 . S
C276 H280 0.930 . S
N277 C274 1.377 . S
N277 C276 1.344 . S
O278 Co270 2.055 . S
O278 C282 1.253 . S
H279 C275 0.931 . S
H280 C276 0.930 . S
O281 Co270 2.039 . S
O281 C271 1.265 . S
C282 O278 1.253 . S
C282 O283 1.227 . S
O283 C282 1.227 . S
N284 Co270 2.140 . S
N284 C287 1.346 . S
N284 C288 1.345 . S
C285 C286 1.387 . S
C285 C289 1.391 1_554 S
C286 C285 1.387 . S
C286 C287 1.369 1_554 S
C286 H295 0.929 . S
C287 N284 1.346 . S
C287 C286 1.369 1_556 S
C287 H290 0.928 . S
C288 N284 1.345 . S
C288 C289 1.371 . S
C288 H291 0.931 . S
C289 C285 1.391 1_556 S
C289 C288 1.371 . S
C289 H296 0.930 . S
H290 C287 0.928 . S
H291 C288 0.931 . S
H292 C268 0.930 . S
H293 C265 0.930 . S
H294 C274 0.930 . S
H295 C286 0.929 . S
H296 C289 0.930 . S
C297 C298 1.351 . S
C297 N300 1.368 . S
C297 H302 0.931 . S
C298 C297 1.351 . S
C298 N299 1.373 . S
C298 H326 0.930 . S
N299 C298 1.373 . S
N299 C301 1.340 . S
N300 C297 1.368 . S
N300 C301 1.321 . S
N300 Co303 2.135 . S
C301 N299 1.340 . S
C301 N300 1.321 . S
C301 H325 0.930 . S
H302 C297 0.931 . S
Co303 N300 2.135 . S
Co303 N306 2.121 . S
Co303 O311 2.055 . S
Co303 O314 2.039 . S
Co303 N317 2.140 . S
C304 O305 1.227 . S
C304 O314 1.265 . S
O305 C304 1.227 . S
N306 Co303 2.121 . S
N306 C308 1.375 . S
N306 C309 1.313 . S
C307 C308 1.338 . S
C307 N310 1.377 . S
C307 H327 0.930 . S
C308 N306 1.375 . S
C308 C307 1.338 . S
C308 H312 0.931 . S
C309 N306 1.313 . S
C309 N310 1.344 . S
C309 H313 0.930 . S
N310 C307 1.377 . S
N310 C309 1.344 . S
O311 Co303 2.055 . S
O311 C315 1.253 . S
H312 C308 0.931 . S
H313 C309 0.930 . S
O314 Co303 2.039 . S
O314 C304 1.265 . S
C315 O311 1.253 . S
C315 O316 1.227 . S
O316 C315 1.227 . S
N317 Co303 2.140 . S
N317 C320 1.346 . S
N317 C321 1.345 . S
C318 C319 1.387 . S
C318 C322 1.391 1_554 S
C319 C318 1.387 . S
C319 C320 1.369 1_554 S
C319 H328 0.929 . S
C320 N317 1.346 . S
C320 C319 1.369 1_556 S
C320 H323 0.928 . S
C321 N317 1.345 . S
C321 C322 1.371 . S
C321 H324 0.931 . S
C322 C318 1.391 1_556 S
C322 C321 1.371 . S
C322 H329 0.930 . S
H323 C320 0.928 . S
H324 C321 0.931 . S
H325 C301 0.930 . S
H326 C298 0.930 . S
H327 C307 0.930 . S
H328 C319 0.929 . S
H329 C322 0.930 . S
C330 C331 1.351 . S
C330 N333 1.368 . S
C330 H335 0.931 . S
C331 C330 1.351 . S
C331 N332 1.373 . S
C331 H359 0.930 . S
N332 C331 1.373 . S
N332 C334 1.340 . S
N333 C330 1.368 . S
N333 C334 1.321 . S
N333 Co336 2.135 . S
C334 N332 1.340 . S
C334 N333 1.321 . S
C334 H358 0.930 . S
H335 C330 0.931 . S
Co336 N333 2.135 . S
Co336 N339 2.121 . S
Co336 O344 2.055 . S
Co336 O347 2.039 . S
Co336 N350 2.140 . S
C337 O338 1.227 . S
C337 O347 1.265 . S
O338 C337 1.227 . S
N339 Co336 2.121 . S
N339 C341 1.375 . S
N339 C342 1.313 . S
C340 C341 1.338 . S
C340 N343 1.377 . S
C340 H360 0.930 . S
C341 N339 1.375 . S
C341 C340 1.338 . S
C341 H345 0.931 . S
C342 N339 1.313 . S
C342 N343 1.344 . S
C342 H346 0.930 . S
N343 C340 1.377 . S
N343 C342 1.344 . S
O344 Co336 2.055 . S
O344 C348 1.253 . S
H345 C341 0.931 . S
H346 C342 0.930 . S
O347 Co336 2.039 . S
O347 C337 1.265 . S
C348 O344 1.253 . S
C348 O349 1.227 . S
O349 C348 1.227 . S
N350 Co336 2.140 . S
N350 C353 1.346 . S
N350 C354 1.345 . S
C351 C352 1.387 . S
C351 C355 1.391 1_554 S
C352 C351 1.387 . S
C352 C353 1.369 1_554 S
C352 H361 0.929 . S
C353 N350 1.346 . S
C353 C352 1.369 1_556 S
C353 H356 0.928 . S
C354 N350 1.345 . S
C354 C355 1.371 . S
C354 H357 0.931 . S
C355 C351 1.391 1_556 S
C355 C354 1.371 . S
C355 H362 0.930 . S
H356 C353 0.928 . S
H357 C354 0.931 . S
H358 C334 0.930 . S
H359 C331 0.930 . S
H360 C340 0.930 . S
H361 C352 0.929 . S
H362 C355 0.930 . S
C363 C364 1.351 . S
C363 N366 1.368 1_455 S
C363 H368 0.931 . S
C364 C363 1.351 . S
C364 N365 1.373 . S
C364 H392 0.930 . S
N365 C364 1.373 . S
N365 C367 1.340 1_455 S
N366 C363 1.368 1_655 S
N366 C367 1.321 . S
N366 Co369 2.135 . S
C367 N365 1.340 1_655 S
C367 N366 1.321 . S
C367 H391 0.930 . S
H368 C363 0.931 . S
Co369 N366 2.135 . S
Co369 N372 2.121 . S
Co369 O377 2.055 . S
Co369 O380 2.039 . S
Co369 N383 2.140 . S
C370 O371 1.227 . S
C370 O380 1.265 . S
O371 C370 1.227 . S
N372 Co369 2.121 . S
N372 C374 1.375 . S
N372 C375 1.313 . S
C373 C374 1.338 . S
C373 N376 1.377 . S
C373 H393 0.930 . S
C374 N372 1.375 . S
C374 C373 1.338 . S
C374 H378 0.931 . S
C375 N372 1.313 . S
C375 N376 1.344 . S
C375 H379 0.930 . S
N376 C373 1.377 . S
N376 C375 1.344 . S
O377 Co369 2.055 . S
O377 C381 1.253 . S
H378 C374 0.931 . S
H379 C375 0.930 . S
O380 Co369 2.039 . S
O380 C370 1.265 . S
C381 O377 1.253 . S
C381 O382 1.227 . S
O382 C381 1.227 . S
N383 Co369 2.140 . S
N383 C386 1.346 . S
N383 C387 1.345 . S
C384 C385 1.387 . S
C384 C388 1.391 1_554 S
C385 C384 1.387 . S
C385 C386 1.369 1_554 S
C385 H394 0.929 . S
C386 N383 1.346 . S
C386 C385 1.369 1_556 S
C386 H389 0.928 . S
C387 N383 1.345 . S
C387 C388 1.371 . S
C387 H390 0.931 . S
C388 C384 1.391 1_556 S
C388 C387 1.371 . S
C388 H395 0.930 . S
H389 C386 0.928 . S
H390 C387 0.931 . S
H391 C367 0.930 . S
H392 C364 0.930 . S
H393 C373 0.930 . S
H394 C385 0.929 . S
H395 C388 0.930 . S
C396 C397 1.351 . S
C396 N399 1.368 . S
C396 H401 0.931 . S
C397 C396 1.351 . S
C397 N398 1.373 . S
C397 H425 0.930 . S
N398 C397 1.373 . S
N398 C400 1.340 . S
N399 C396 1.368 . S
N399 C400 1.321 . S
N399 Co402 2.135 . S
C400 N398 1.340 . S
C400 N399 1.321 . S
C400 H424 0.930 . S
H401 C396 0.931 . S
Co402 N399 2.135 . S
Co402 N405 2.121 . S
Co402 O410 2.055 . S
Co402 O413 2.039 . S
Co402 N416 2.140 . S
C403 O404 1.227 . S
C403 O413 1.265 . S
O404 C403 1.227 . S
N405 Co402 2.121 . S
N405 C407 1.375 . S
N405 C408 1.313 . S
C406 C407 1.338 . S
C406 N409 1.377 . S
C406 H426 0.930 . S
C407 N405 1.375 . S
C407 C406 1.338 . S
C407 H411 0.931 . S
C408 N405 1.313 . S
C408 N409 1.344 . S
C408 H412 0.930 . S
N409 C406 1.377 . S
N409 C408 1.344 . S
O410 Co402 2.055 . S
O410 C414 1.253 . S
H411 C407 0.931 . S
H412 C408 0.930 . S
O413 Co402 2.039 . S
O413 C403 1.265 . S
C414 O410 1.253 . S
C414 O415 1.227 . S
O415 C414 1.227 . S
N416 Co402 2.140 . S
N416 C419 1.346 . S
N416 C420 1.345 . S
C417 C418 1.387 . S
C417 C421 1.391 . S
C418 C417 1.387 . S
C418 C419 1.369 . S
C418 H427 0.929 . S
C419 N416 1.346 . S
C419 C418 1.369 . S
C419 H422 0.928 . S
C420 N416 1.345 . S
C420 C421 1.371 . S
C420 H423 0.931 . S
C421 C417 1.391 . S
C421 C420 1.371 . S
C421 H428 0.930 . S
H422 C419 0.928 . S
H423 C420 0.931 . S
H424 C400 0.930 . S
H425 C397 0.930 . S
H426 C406 0.930 . S
H427 C418 0.929 . S
H428 C421 0.930 . S
C429 C430 1.351 . S
C429 N432 1.368 1_455 S
C429 H434 0.931 . S
C430 C429 1.351 . S
C430 N431 1.373 . S
C430 H458 0.930 . S
N431 C430 1.373 . S
N431 C433 1.340 1_455 S
N432 C429 1.368 1_655 S
N432 C433 1.321 . S
N432 Co435 2.135 . S
C433 N431 1.340 1_655 S
C433 N432 1.321 . S
C433 H457 0.930 . S
H434 C429 0.931 . S
Co435 N432 2.135 . S
Co435 N438 2.121 . S
Co435 O443 2.055 . S
Co435 O446 2.039 . S
Co435 N449 2.140 . S
C436 O437 1.227 . S
C436 O446 1.265 . S
O437 C436 1.227 . S
N438 Co435 2.121 . S
N438 C440 1.375 . S
N438 C441 1.313 . S
C439 C440 1.338 . S
C439 N442 1.377 . S
C439 H459 0.930 . S
C440 N438 1.375 . S
C440 C439 1.338 . S
C440 H444 0.931 . S
C441 N438 1.313 . S
C441 N442 1.344 . S
C441 H445 0.930 . S
N442 C439 1.377 . S
N442 C441 1.344 . S
O443 Co435 2.055 . S
O443 C447 1.253 . S
H444 C440 0.931 . S
H445 C441 0.930 . S
O446 Co435 2.039 . S
O446 C436 1.265 . S
C447 O443 1.253 . S
C447 O448 1.227 . S
O448 C447 1.227 . S
N449 Co435 2.140 . S
N449 C452 1.346 . S
N449 C453 1.345 . S
C450 C451 1.387 . S
C450 C454 1.391 . S
C451 C450 1.387 . S
C451 C452 1.369 . S
C451 H460 0.929 . S
C452 N449 1.346 . S
C452 C451 1.369 . S
C452 H455 0.928 . S
C453 N449 1.345 . S
C453 C454 1.371 . S
C453 H456 0.931 . S
C454 C450 1.391 . S
C454 C453 1.371 . S
C454 H461 0.930 . S
H455 C452 0.928 . S
H456 C453 0.931 . S
H457 C433 0.930 . S
H458 C430 0.930 . S
H459 C439 0.930 . S
H460 C451 0.929 . S
H461 C454 0.930 . S
C462 C463 1.351 . S
C462 N465 1.368 1_545 S
C462 H467 0.931 . S
C463 C462 1.351 . S
C463 N464 1.373 . S
C463 H491 0.930 . S
N464 C463 1.373 . S
N464 C466 1.340 1_545 S
N465 C462 1.368 1_565 S
N465 C466 1.321 . S
N465 Co468 2.135 . S
C466 N464 1.340 1_565 S
C466 N465 1.321 . S
C466 H490 0.930 . S
H467 C462 0.931 . S
Co468 N465 2.135 . S
Co468 N471 2.121 . S
Co468 O476 2.055 . S
Co468 O479 2.039 . S
Co468 N482 2.140 . S
C469 O470 1.227 . S
C469 O479 1.265 . S
O470 C469 1.227 . S
N471 Co468 2.121 . S
N471 C473 1.375 . S
N471 C474 1.313 . S
C472 C473 1.338 . S
C472 N475 1.377 . S
C472 H492 0.930 . S
C473 N471 1.375 . S
C473 C472 1.338 . S
C473 H477 0.931 . S
C474 N471 1.313 . S
C474 N475 1.344 . S
C474 H478 0.930 . S
N475 C472 1.377 . S
N475 C474 1.344 . S
O476 Co468 2.055 . S
O476 C480 1.253 . S
H477 C473 0.931 . S
H478 C474 0.930 . S
O479 Co468 2.039 . S
O479 C469 1.265 . S
C480 O476 1.253 . S
C480 O481 1.227 . S
O481 C480 1.227 . S
N482 Co468 2.140 . S
N482 C485 1.346 . S
N482 C486 1.345 . S
C483 C484 1.387 . S
C483 C487 1.391 . S
C484 C483 1.387 . S
C484 C485 1.369 . S
C484 H493 0.929 . S
C485 N482 1.346 . S
C485 C484 1.369 . S
C485 H488 0.928 . S
C486 N482 1.345 . S
C486 C487 1.371 . S
C486 H489 0.931 . S
C487 C483 1.391 . S
C487 C486 1.371 . S
C487 H494 0.930 . S
H488 C485 0.928 . S
H489 C486 0.931 . S
H490 C466 0.930 . S
H491 C463 0.930 . S
H492 C472 0.930 . S
H493 C484 0.929 . S
H494 C487 0.930 . S
C495 C496 1.351 . S
C495 N498 1.368 . S
C495 H500 0.931 . S
C496 C495 1.351 . S
C496 N497 1.373 . S
C496 H524 0.930 . S
N497 C496 1.373 . S
N497 C499 1.340 . S
N498 C495 1.368 . S
N498 C499 1.321 . S
N498 Co501 2.135 . S
C499 N497 1.340 . S
C499 N498 1.321 . S
C499 H523 0.930 . S
H500 C495 0.931 . S
Co501 N498 2.135 . S
Co501 N504 2.121 . S
Co501 O509 2.055 . S
Co501 O512 2.039 . S
Co501 N515 2.140 . S
C502 O503 1.227 . S
C502 O512 1.265 . S
O503 C502 1.227 . S
N504 Co501 2.121 . S
N504 C506 1.375 . S
N504 C507 1.313 . S
C505 C506 1.338 . S
C505 N508 1.377 . S
C505 H525 0.930 . S
C506 N504 1.375 . S
C506 C505 1.338 . S
C506 H510 0.931 . S
C507 N504 1.313 . S
C507 N508 1.344 . S
C507 H511 0.930 . S
N508 C505 1.377 . S
N508 C507 1.344 . S
O509 Co501 2.055 . S
O509 C513 1.253 . S
H510 C506 0.931 . S
H511 C507 0.930 . S
O512 Co501 2.039 . S
O512 C502 1.265 . S
C513 O509 1.253 . S
C513 O514 1.227 . S
O514 C513 1.227 . S
N515 Co501 2.140 . S
N515 C518 1.346 . S
N515 C519 1.345 . S
C516 C517 1.387 . S
C516 C520 1.391 . S
C517 C516 1.387 . S
C517 C518 1.369 . S
C517 H526 0.929 . S
C518 N515 1.346 . S
C518 C517 1.369 . S
C518 H521 0.928 . S
C519 N515 1.345 . S
C519 C520 1.371 . S
C519 H522 0.931 . S
C520 C516 1.391 . S
C520 C519 1.371 . S
C520 H527 0.930 . S
H521 C518 0.928 . S
H522 C519 0.931 . S
H523 C499 0.930 . S
H524 C496 0.930 . S
H525 C505 0.930 . S
H526 C517 0.929 . S
H527 C520 0.930 . S
C18 C216 3.494 . S
C249 C51 3.494 . S
C150 C84 3.494 . S
C183 C117 3.494 . S
C282 C480 3.494 . S
C315 C513 3.494 . S
C414 C348 3.494 . S
C381 C447 3.494 . S
N266 N2 4.223 1_546 S
N299 N35 4.223 1_556 S
N332 N68 4.223 1_456 S
N365 N101 4.223 1_446 S
N398 N134 4.223 . S
N431 N167 4.223 1_455 S
N200 N464 4.223 1_665 S
N233 N497 4.223 1_565 S
C318 C7 1.450 . S
C351 C40 1.450 . S
C384 C73 1.450 . S
C285 C106 1.450 . S
C139 C516 1.450 . S
C172 C417 1.450 . S
C205 C450 1.450 . S
C238 C483 1.450 . S
C54 C271 1.450 . S
C87 C304 1.450 . S
C120 C337 1.450 . S
C21 C370 1.450 . S
C252 C403 1.450 . S
C153 C436 1.450 . S
C186 C469 1.450 . S
C502 C219 1.450 . S
N79 N13 0.380 . S
N112 N46 0.380 . S
N145 N211 0.380 . S
N244 N178 0.380 . S
N277 N343 0.380 . S
N376 N310 0.380 . S
N409 N475 0.380 . S
N442 N508 0.380 . S
