# Generated by pormake.
# Topology vbj, (5)-cn, num edge types: 1
# Building blocks:
#     Node 0, Type 0, BuildingBlock: XOMCOT_clean_sbu_1, # of connection points: 5
#     Node 1, Type 0, BuildingBlock: XOMCOT_clean_sbu_1, # of connection points: 5
#     Node 2, Type 0, BuildingBlock: XOMCOT_clean_sbu_1, # of connection points: 5
#     Node 3, Type 0, BuildingBlock: XOMCOT_clean_sbu_1, # of connection points: 5
#     Node 4, Type 0, BuildingBlock: XOMCOT_clean_sbu_1, # of connection points: 5
#     Node 5, Type 0, BuildingBlock: XOMCOT_clean_sbu_1, # of connection points: 5
#     Node 6, Type 0, BuildingBlock: XOMCOT_clean_sbu_1, # of connection points: 5
#     Node 7, Type 0, BuildingBlock: XOMCOT_clean_sbu_1, # of connection points: 5
#     Node 8, Type 0, BuildingBlock: XOMCOT_clean_sbu_1, # of connection points: 5
#     Node 9, Type 0, BuildingBlock: XOMCOT_clean_sbu_1, # of connection points: 5
#     Node 10, Type 0, BuildingBlock: XOMCOT_clean_sbu_1, # of connection points: 5
#     Node 11, Type 0, BuildingBlock: XOMCOT_clean_sbu_1, # of connection points: 5
#     Node 12, Type 0, BuildingBlock: XOMCOT_clean_sbu_1, # of connection points: 5
#     Node 13, Type 0, BuildingBlock: XOMCOT_clean_sbu_1, # of connection points: 5
#     Node 14, Type 0, BuildingBlock: XOMCOT_clean_sbu_1, # of connection points: 5
#     Node 15, Type 0, BuildingBlock: XOMCOT_clean_sbu_1, # of connection points: 5
#     Edge 16, Type (0, 0), BuildingBlock: XIVTED_clean_linker_0, # of connection points: 2
#     Edge 17, Type (0, 0), BuildingBlock: XIVTED_clean_linker_0, # of connection points: 2
#     Edge 18, Type (0, 0), BuildingBlock: XIVTED_clean_linker_0, # of connection points: 2
#     Edge 19, Type (0, 0), BuildingBlock: XIVTED_clean_linker_0, # of connection points: 2
#     Edge 20, Type (0, 0), BuildingBlock: XIVTED_clean_linker_0, # of connection points: 2
#     Edge 21, Type (0, 0), BuildingBlock: XIVTED_clean_linker_0, # of connection points: 2
#     Edge 22, Type (0, 0), BuildingBlock: XIVTED_clean_linker_0, # of connection points: 2
#     Edge 23, Type (0, 0), BuildingBlock: XIVTED_clean_linker_0, # of connection points: 2
#     Edge 24, Type (0, 0), BuildingBlock: XIVTED_clean_linker_0, # of connection points: 2
#     Edge 25, Type (0, 0), BuildingBlock: XIVTED_clean_linker_0, # of connection points: 2
#     Edge 26, Type (0, 0), BuildingBlock: XIVTED_clean_linker_0, # of connection points: 2
#     Edge 27, Type (0, 0), BuildingBlock: XIVTED_clean_linker_0, # of connection points: 2
#     Edge 28, Type (0, 0), BuildingBlock: XIVTED_clean_linker_0, # of connection points: 2
#     Edge 29, Type (0, 0), BuildingBlock: XIVTED_clean_linker_0, # of connection points: 2
#     Edge 30, Type (0, 0), BuildingBlock: XIVTED_clean_linker_0, # of connection points: 2
#     Edge 31, Type (0, 0), BuildingBlock: XIVTED_clean_linker_0, # of connection points: 2
#     Edge 32, Type (0, 0), BuildingBlock: XIVTED_clean_linker_0, # of connection points: 2
#     Edge 33, Type (0, 0), BuildingBlock: XIVTED_clean_linker_0, # of connection points: 2
#     Edge 34, Type (0, 0), BuildingBlock: XIVTED_clean_linker_0, # of connection points: 2
#     Edge 35, Type (0, 0), BuildingBlock: XIVTED_clean_linker_0, # of connection points: 2
#     Edge 36, Type (0, 0), BuildingBlock: XIVTED_clean_linker_0, # of connection points: 2
#     Edge 37, Type (0, 0), BuildingBlock: XIVTED_clean_linker_0, # of connection points: 2
#     Edge 38, Type (0, 0), BuildingBlock: XIVTED_clean_linker_0, # of connection points: 2
#     Edge 39, Type (0, 0), BuildingBlock: XIVTED_clean_linker_0, # of connection points: 2
#     Edge 40, Type (0, 0), BuildingBlock: XIVTED_clean_linker_0, # of connection points: 2
#     Edge 41, Type (0, 0), BuildingBlock: XIVTED_clean_linker_0, # of connection points: 2
#     Edge 42, Type (0, 0), BuildingBlock: XIVTED_clean_linker_0, # of connection points: 2
#     Edge 43, Type (0, 0), BuildingBlock: XIVTED_clean_linker_0, # of connection points: 2
#     Edge 44, Type (0, 0), BuildingBlock: XIVTED_clean_linker_0, # of connection points: 2
#     Edge 45, Type (0, 0), BuildingBlock: XIVTED_clean_linker_0, # of connection points: 2
#     Edge 46, Type (0, 0), BuildingBlock: XIVTED_clean_linker_0, # of connection points: 2
#     Edge 47, Type (0, 0), BuildingBlock: XIVTED_clean_linker_0, # of connection points: 2
#     Edge 48, Type (0, 0), BuildingBlock: XIVTED_clean_linker_0, # of connection points: 2
#     Edge 49, Type (0, 0), BuildingBlock: XIVTED_clean_linker_0, # of connection points: 2
#     Edge 50, Type (0, 0), BuildingBlock: XIVTED_clean_linker_0, # of connection points: 2
#     Edge 51, Type (0, 0), BuildingBlock: XIVTED_clean_linker_0, # of connection points: 2
#     Edge 52, Type (0, 0), BuildingBlock: XIVTED_clean_linker_0, # of connection points: 2
#     Edge 53, Type (0, 0), BuildingBlock: XIVTED_clean_linker_0, # of connection points: 2
#     Edge 54, Type (0, 0), BuildingBlock: XIVTED_clean_linker_0, # of connection points: 2
#     Edge 55, Type (0, 0), BuildingBlock: XIVTED_clean_linker_0, # of connection points: 2
# Relax obj value: 0.100
# Max RMSD: 0.144
# Mean RMSD: 0.144
data_MOF--net-vbj--node1-XOMCOT_clean_sbu_1--edge1-XIVTED_clean_linker_0
_symmetry_space_group_name_H-M    P1
_symmetry_Int_Tables_number       1
_symmetry_cell_setting            triclinic
loop_
_symmetry_equiv_pos_as_xyz
'x, y, z'
_cell_length_a     27.287637
_cell_length_b     64.278484
_cell_length_c     47.369186
_cell_angle_alpha  90.213435
_cell_angle_beta   90.173013
_cell_angle_gamma 90.045193
loop_
_atom_site_label
_atom_site_type_symbol
_atom_site_fract_x
_atom_site_fract_y
_atom_site_fract_z
_atom_type_partial_charge
C0 C 0.06172 0.17467 0.06969 0.0
C1 C 0.04777 0.19496 0.066 0.0
N2 N 0.03858 0.20334 0.09153 0.0
N3 N 0.06125 0.17009 0.09745 0.0
C4 C 0.04773 0.18805 0.11037 0.0
H5 H 0.06901 0.16357 0.05303 0.0
Co6 Co 0.07076 0.14276 0.11041 0.0
C7 C 0.00628 0.1478 0.16233 0.0
O8 O 0.96881 0.13811 0.15087 0.0
N9 N 0.08211 0.11503 0.12303 0.0
C10 C 0.07752 0.08432 0.1447 0.0
C11 C 0.05455 0.10306 0.14023 0.0
C12 C 0.12121 0.10279 0.11684 0.0
N13 N 0.11945 0.08418 0.12992 0.0
O14 O 0.13566 0.1504 0.12146 0.0
H15 H 0.01965 0.10729 0.14895 0.0
H16 H 0.15108 0.10742 0.10335 0.0
O17 O 0.04613 0.15025 0.14845 0.0
C18 C 0.15999 0.14885 0.09863 0.0
O19 O 0.13818 0.14128 0.07606 0.0
N20 N 0.00886 0.13546 0.09539 0.0
C21 C 0.93896 0.13366 0.05228 0.0
C22 C 0.93469 0.14822 0.07421 0.0
C23 C 0.97024 0.14903 0.09535 0.0
C24 C 0.01129 0.12013 0.0754 0.0
C25 C 0.97648 0.11884 0.05378 0.0
H26 H 0.96913 0.16195 0.10996 0.0
H27 H 0.0432 0.11023 0.07417 0.0
H28 H 0.04123 0.18947 0.13282 0.0
H29 H 0.04288 0.20274 0.04596 0.0
H30 H 0.0641 0.07165 0.15755 0.0
H31 H 0.9059 0.15981 0.07406 0.0
H32 H 0.98148 0.10748 0.03709 0.0
C33 C 0.39431 0.87584 0.0669 0.0
C34 C 0.40499 0.8554 0.06172 0.0
N35 N 0.41995 0.84656 0.086 0.0
N36 N 0.40168 0.88011 0.09446 0.0
C37 C 0.41676 0.86181 0.10576 0.0
H38 H 0.38461 0.88719 0.05108 0.0
Co39 Co 0.3978 0.90761 0.10811 0.0
C40 C 0.46363 0.90045 0.15943 0.0
O41 O 0.50206 0.90905 0.14766 0.0
N42 N 0.39215 0.93564 0.12131 0.0
C43 C 0.40202 0.96591 0.14393 0.0
C44 C 0.42174 0.94655 0.13891 0.0
C45 C 0.35531 0.94915 0.1154 0.0
N46 N 0.3602 0.9675 0.12908 0.0
O47 O 0.33198 0.90219 0.11993 0.0
H48 H 0.45571 0.94114 0.1477 0.0
H49 H 0.32466 0.94565 0.10177 0.0
O50 O 0.42295 0.89914 0.14586 0.0
C51 C 0.30624 0.90508 0.09777 0.0
O52 O 0.32777 0.91197 0.07488 0.0
N53 N 0.45989 0.91295 0.09226 0.0
C54 C 0.5282 0.91312 0.04834 0.0
C55 C 0.53173 0.89863 0.07032 0.0
C56 C 0.49679 0.89856 0.09174 0.0
C57 C 0.45818 0.92811 0.07218 0.0
C58 C 0.49203 0.92855 0.05014 0.0
H59 H 0.49716 0.88574 0.10638 0.0
H60 H 0.42734 0.93862 0.07129 0.0
H61 H 0.42883 0.86011 0.1274 0.0
H62 H 0.40379 0.84787 0.04126 0.0
H63 H 0.41742 0.97793 0.15734 0.0
H64 H 0.55951 0.88661 0.07015 0.0
H65 H 0.48723 0.93987 0.03349 0.0
C66 C 0.57313 0.87831 0.45965 0.0
C67 C 0.55978 0.85818 0.465 0.0
N68 N 0.54098 0.84982 0.44118 0.0
N69 N 0.56345 0.88283 0.43246 0.0
C70 C 0.5442 0.86505 0.42156 0.0
H71 H 0.58741 0.88925 0.47499 0.0
Co72 Co 0.57203 0.90987 0.41853 0.0
C73 C 0.50766 0.90785 0.36714 0.0
O74 O 0.47755 0.92157 0.37803 0.0
N75 N 0.58186 0.93777 0.40472 0.0
C76 C 0.571 0.97131 0.39401 0.0
C77 C 0.54814 0.95294 0.4008 0.0
C78 C 0.62507 0.94758 0.39968 0.0
N79 N 0.61962 0.96799 0.39355 0.0
O80 O 0.6366 0.90206 0.40713 0.0
H81 H 0.5093 0.95141 0.40444 0.0
H82 H 0.66037 0.94017 0.40099 0.0
O83 O 0.54507 0.90176 0.38128 0.0
C84 C 0.66197 0.90601 0.4292 0.0
O85 O 0.64136 0.91616 0.45015 0.0
N86 N 0.51169 0.91704 0.43459 0.0
C87 C 0.44243 0.91993 0.47758 0.0
C88 C 0.43498 0.90641 0.4546 0.0
C89 C 0.47032 0.90507 0.43334 0.0
C90 C 0.51837 0.93077 0.45629 0.0
C91 C 0.48387 0.93275 0.47769 0.0
H92 H 0.46637 0.89317 0.41733 0.0
H93 H 0.55274 0.93903 0.45835 0.0
H94 H 0.53034 0.86365 0.40021 0.0
H95 H 0.56284 0.85045 0.48518 0.0
H96 H 0.5532 0.98621 0.39137 0.0
H97 H 0.40344 0.89618 0.45382 0.0
H98 H 0.49165 0.94302 0.49532 0.0
C99 C 0.87729 0.17856 0.45392 0.0
C100 C 0.88422 0.19967 0.4555 0.0
N101 N 0.9071 0.20595 0.43184 0.0
N102 N 0.89529 0.17139 0.42929 0.0
C103 C 0.9134 0.18847 0.41624 0.0
H104 H 0.86159 0.16893 0.47022 0.0
Co105 Co 0.89647 0.14308 0.42001 0.0
C106 C 0.96187 0.14273 0.36967 0.0
O107 O -0.00786 0.12977 0.38202 0.0
N108 N 0.89692 0.11375 0.41082 0.0
C109 C 0.9176 0.08017 0.40759 0.0
C110 C 0.93408 0.09993 0.41346 0.0
C111 C 0.85842 0.10167 0.40269 0.0
N112 N 0.86969 0.08122 0.40106 0.0
O113 O 0.83151 0.14576 0.40546 0.0
H114 H 0.97094 0.10361 0.42018 0.0
H115 H 0.82199 0.10749 0.399 0.0
O116 O 0.92396 0.14927 0.3828 0.0
C117 C 0.80476 0.1415 0.4267 0.0
O118 O 0.82575 0.1348 0.44993 0.0
N119 N 0.95663 0.14118 0.43852 0.0
C120 C 0.02709 0.14409 0.48113 0.0
C121 C 0.03325 0.15473 0.45547 0.0
C122 C -0.00294 0.15333 0.43451 0.0
C123 C 0.9504 0.13073 0.46321 0.0
C124 C -0.01474 0.13174 0.48458 0.0
H125 H 0.00018 0.16298 0.41597 0.0
H126 H 0.91664 0.12237 0.46694 0.0
H127 H 0.93179 0.18807 0.39605 0.0
H128 H 0.87506 0.2095 0.47332 0.0
H129 H 0.93923 0.0661 0.4087 0.0
H130 H 0.06486 0.16457 0.45197 0.0
H131 H 0.97798 0.1238 0.50424 0.0
C132 C 0.87809 0.87591 0.9477 0.0
C133 C 0.88457 0.8548 0.94723 0.0
N134 N 0.90516 0.84951 0.92245 0.0
N135 N 0.89394 0.88408 0.92321 0.0
C136 C 0.91085 0.86758 0.90821 0.0
H137 H 0.86339 0.88483 0.96509 0.0
Co138 Co 0.89015 0.91268 0.91696 0.0
C139 C 0.95189 0.92049 0.86704 0.0
O140 O 0.97557 0.93456 0.88186 0.0
N141 N 0.88466 0.94243 0.91139 0.0
C142 C 0.89565 0.97696 0.91329 0.0
C143 C 0.91639 0.95786 0.91853 0.0
C144 C 0.84491 0.95297 0.90166 0.0
N145 N 0.85038 0.97384 0.90297 0.0
O146 O 0.82544 0.90861 0.90231 0.0
H147 H 0.95246 0.95569 0.92747 0.0
H148 H 0.8118 0.94566 0.89402 0.0
O149 O 0.91832 0.90963 0.87876 0.0
C150 C 0.79793 0.91088 0.92381 0.0
O151 O 0.8176 0.91713 0.94772 0.0
N152 N 0.95042 0.91544 0.93533 0.0
C153 C 0.02384 0.91183 0.97618 0.0
C154 C 0.03045 0.90356 0.94891 0.0
C155 C -0.00712 0.9053 0.92879 0.0
C156 C 0.94351 0.92341 0.96172 0.0
C157 C 0.9799 0.92213 0.98223 0.0
H158 H -0.00329 0.89738 0.90876 0.0
H159 H 0.90838 0.93001 0.96726 0.0
H160 H 0.92695 0.86874 0.88743 0.0
H161 H 0.87607 0.84417 0.96421 0.0
H162 H 0.91178 0.99197 0.91801 0.0
H163 H 0.06362 0.89525 0.94345 0.0
H164 H 0.97242 0.92814 1.00317 0.0
C165 C 0.59074 0.18105 0.95559 0.0
C166 C 0.58613 0.20222 0.95799 0.0
N167 N 0.56891 0.20972 0.93335 0.0
N168 N 0.57682 0.17503 0.92952 0.0
C169 C 0.56376 0.19287 0.91633 0.0
H170 H 0.60158 0.17058 0.97228 0.0
Co171 Co 0.57326 0.14697 0.9191 0.0
C172 C 0.5107 0.1485 0.86785 0.0
O173 O 0.47795 0.13679 0.88034 0.0
N174 N 0.57084 0.11785 0.90866 0.0
C175 C 0.54944 0.08447 0.90317 0.0
C176 C 0.53308 0.10417 0.90955 0.0
C177 C 0.60934 0.1058 0.90073 0.0
N178 N 0.59778 0.08547 0.89787 0.0
O179 O 0.63966 0.14871 0.90679 0.0
H180 H 0.49589 0.10789 0.91543 0.0
H181 H 0.64602 0.11152 0.89796 0.0
O182 O 0.54943 0.15411 0.88116 0.0
C183 C 0.6642 0.14359 0.92865 0.0
O184 O 0.64055 0.13722 0.95114 0.0
N185 N 0.51101 0.1459 0.93566 0.0
C186 C 0.43855 0.15114 0.97677 0.0
C187 C 0.43845 0.16322 0.95203 0.0
C188 C 0.475 0.16037 0.93173 0.0
C189 C 0.51128 0.13391 0.95931 0.0
C190 C 0.47471 0.13576 0.97957 0.0
H191 H 0.47644 0.1709 0.91405 0.0
H192 H 0.54165 0.12351 0.96326 0.0
H193 H 0.54922 0.19344 0.89508 0.0
H194 H 0.59249 0.21124 0.97699 0.0
H195 H 0.52745 0.07046 0.90316 0.0
H196 H 0.41229 0.17566 0.94899 0.0
H197 H 0.47618 0.12567 0.99777 0.0
C198 C 0.39853 0.1763 0.57124 0.0
C199 C 0.40456 0.19738 0.56901 0.0
N200 N 0.41461 0.2051 0.59484 0.0
N201 N 0.4043 0.17061 0.5984 0.0
C202 C 0.41446 0.18854 0.61239 0.0
H203 H 0.39114 0.16566 0.55401 0.0
Co204 Co 0.39836 0.14279 0.6094 0.0
C205 C 0.46476 0.14325 0.66011 0.0
O206 O 0.49634 0.13076 0.64795 0.0
N207 N 0.39094 0.11412 0.61998 0.0
C208 C 0.40349 0.08025 0.62772 0.0
C209 C 0.42551 0.09923 0.62325 0.0
C210 C 0.34819 0.10352 0.62275 0.0
N211 N 0.35463 0.08294 0.6272 0.0
O212 O 0.33418 0.14895 0.62311 0.0
H213 H 0.46441 0.10148 0.62066 0.0
H214 H 0.31259 0.11054 0.62102 0.0
O215 O 0.42629 0.14908 0.64681 0.0
C216 C 0.30732 0.14787 0.6011 0.0
O217 O 0.32669 0.1411 0.57744 0.0
N218 N 0.45862 0.13746 0.59201 0.0
C219 C 0.52885 0.13769 0.54932 0.0
C220 C 0.53455 0.15028 0.57341 0.0
C221 C 0.49864 0.15015 0.59439 0.0
C222 C 0.45347 0.12465 0.56918 0.0
C223 C 0.48841 0.12429 0.54783 0.0
H224 H 0.501 0.16147 0.61126 0.0
H225 H 0.41998 0.11587 0.56632 0.0
H226 H 0.42151 0.18947 0.63485 0.0
H227 H 0.40296 0.20631 0.54969 0.0
H228 H 0.42213 0.06546 0.62954 0.0
H229 H 0.56522 0.16089 0.5754 0.0
H230 H 0.48179 0.11471 0.52935 0.0
C231 C 0.12052 0.86383 0.60721 0.0
C232 C 0.1068 0.84356 0.61164 0.0
N233 N 0.06024 0.84344 0.62087 0.0
N234 N 0.08305 0.8766 0.61394 0.0
C235 C 0.04665 0.86364 0.62212 0.0
H236 H 0.1552 0.86871 0.59862 0.0
Co237 Co 0.08226 0.9056 0.60974 0.0
C238 C 0.02844 0.92229 0.6597 0.0
O239 O 0.01398 0.93853 0.64514 0.0
N240 N 0.08278 0.93508 0.60507 0.0
C241 C 0.07926 0.96666 0.58602 0.0
C242 C 0.06258 0.94649 0.58419 0.0
C243 C 0.11119 0.94888 0.61944 0.0
N244 N 0.1104 0.96816 0.60807 0.0
O245 O 0.14761 0.90716 0.62471 0.0
H246 H 0.03924 0.94051 0.56761 0.0
H247 H 0.13356 0.94462 0.63737 0.0
O248 O 0.05407 0.90811 0.6478 0.0
C249 C 0.17418 0.90932 0.6028 0.0
O250 O 0.15303 0.90934 0.57786 0.0
N251 N 0.02177 0.9034 0.59135 0.0
C252 C 0.94599 0.89875 0.55227 0.0
C253 C 0.93565 0.90233 0.58097 0.0
C254 C 0.97436 0.90464 0.60037 0.0
C255 C 0.03195 0.89897 0.56386 0.0
C256 C -0.00515 0.89681 0.54397 0.0
H257 H 0.96594 0.90713 0.62232 0.0
H258 H 0.06961 0.89744 0.55722 0.0
H259 H 0.01056 0.86884 0.62836 0.0
H260 H 0.12853 0.82988 0.60701 0.0
H261 H 0.07137 0.97889 0.57104 0.0
H262 H 0.89817 0.90365 0.58821 0.0
H263 H 0.00441 0.89356 0.52221 0.0
C264 C 0.60428 0.67636 0.07483 0.0
C265 C 0.59583 0.69712 0.07061 0.0
N266 N 0.56496 0.70401 0.09075 0.0
N267 N 0.57946 0.66999 0.09774 0.0
C268 C 0.55601 0.68724 0.1072 0.0
H269 H 0.62602 0.66637 0.06143 0.0
Co270 Co 0.57766 0.64204 0.10821 0.0
C271 C 0.51635 0.64115 0.15941 0.0
O272 O 0.49054 0.62599 0.14814 0.0
N273 N 0.57702 0.6129 0.11846 0.0
C274 C 0.56231 0.57868 0.1186 0.0
C275 C 0.54435 0.59791 0.11128 0.0
C276 C 0.61374 0.60209 0.13113 0.0
N277 N 0.60656 0.58125 0.13073 0.0
O278 O 0.64332 0.64495 0.12175 0.0
H279 H 0.51 0.60041 0.10046 0.0
H280 H 0.64626 0.60926 0.13977 0.0
O281 O 0.55139 0.64937 0.14544 0.0
C282 C 0.67024 0.63802 0.10188 0.0
O283 O 0.64929 0.62893 0.08009 0.0
N284 N 0.5167 0.64002 0.09049 0.0
C285 C 0.44566 0.64453 0.0485 0.0
C286 C 0.4387 0.65325 0.07547 0.0
C287 C 0.47507 0.65103 0.09618 0.0
C288 C 0.52345 0.63123 0.06458 0.0
C289 C 0.48827 0.63301 0.04347 0.0
H290 H 0.47113 0.65943 0.11581 0.0
H291 H 0.55787 0.62371 0.05978 0.0
H292 H 0.53103 0.68727 0.12489 0.0
H293 H 0.61074 0.70631 0.05357 0.0
H294 H 0.54519 0.56392 0.11367 0.0
H295 H 0.4064 0.66238 0.08019 0.0
H296 H 0.49595 0.62649 0.02284 0.0
C297 C 0.89824 0.37726 0.07145 0.0
C298 C 0.90405 0.35622 0.0681 0.0
N299 N 0.91499 0.34792 0.09341 0.0
N300 N 0.90515 0.38236 0.09879 0.0
C301 C 0.91556 0.36412 0.11176 0.0
H302 H 0.89018 0.38828 0.05489 0.0
Co303 Co 0.90024 0.40989 0.11147 0.0
C304 C 0.96654 0.40756 0.16209 0.0
O305 O -0.00098 0.41988 0.15049 0.0
N306 N 0.89383 0.43827 0.12397 0.0
C307 C 0.90893 0.47145 0.13514 0.0
C308 C 0.92946 0.45254 0.12855 0.0
C309 C 0.85183 0.44922 0.12802 0.0
N310 N 0.85984 0.46944 0.13464 0.0
O311 O 0.8359 0.40364 0.12449 0.0
H312 H 0.96818 0.44995 0.12578 0.0
H313 H 0.8157 0.44282 0.12509 0.0
O314 O 0.92769 0.40243 0.14853 0.0
C315 C 0.8097 0.40638 0.10251 0.0
O316 O 0.82991 0.41475 0.08011 0.0
N317 N 0.96082 0.41532 0.09454 0.0
C318 C 0.03122 0.41564 0.05196 0.0
C319 C 0.03606 0.40231 0.07522 0.0
C320 C 7e-05 0.40218 0.09612 0.0
C321 C 0.95656 0.42886 0.07258 0.0
C322 C -0.00838 0.42949 0.05129 0.0
H323 H 0.00172 0.39034 0.11223 0.0
H324 H 0.92363 0.43806 0.07027 0.0
H325 H 0.92339 0.36271 0.13407 0.0
H326 H 0.90168 0.34774 0.04836 0.0
H327 H 0.929 0.48566 0.13926 0.0
H328 H 0.06611 0.39136 0.07658 0.0
H329 H -0.0143 0.43968 0.03345 0.0
C330 C 0.07753 0.37444 0.45884 0.0
C331 C 0.06662 0.3537 0.46115 0.0
N332 N 0.05621 0.34624 0.43524 0.0
N333 N 0.07364 0.38025 0.4316 0.0
C334 C 0.06138 0.36255 0.41755 0.0
H335 H 0.08368 0.38504 0.47628 0.0
Co336 Co 0.0745 0.40845 0.42093 0.0
C337 C 0.00816 0.40267 0.36981 0.0
O338 O 0.9696 0.41057 0.38239 0.0
N339 N 0.07746 0.43704 0.41065 0.0
C340 C 0.06791 0.46786 0.38985 0.0
C341 C 0.04793 0.44842 0.39373 0.0
C342 C 0.11428 0.45036 0.41747 0.0
N343 N 0.10987 0.46902 0.40472 0.0
O344 O 0.14015 0.40495 0.40768 0.0
H345 H 0.01435 0.44314 0.38423 0.0
H346 H 0.14485 0.44633 0.43083 0.0
O347 O 0.0492 0.40136 0.38292 0.0
C348 C 0.1677 0.40608 0.42937 0.0
O349 O 0.14776 0.40983 0.45406 0.0
N350 N 0.01177 0.41185 0.43738 0.0
C351 C 0.93728 0.41049 0.47797 0.0
C352 C 0.94002 0.39546 0.45646 0.0
C353 C 0.97716 0.39646 0.43645 0.0
C354 C 0.00866 0.42707 0.45747 0.0
C355 C 0.97127 0.42691 0.4776 0.0
H356 H 0.97978 0.38393 0.42134 0.0
H357 H 0.03725 0.43863 0.45938 0.0
H358 H 0.05125 0.36207 0.39546 0.0
H359 H 0.06271 0.3451 0.48063 0.0
H360 H 0.05298 0.48011 0.37679 0.0
H361 H 0.91573 0.38215 0.45591 0.0
H362 H 0.97049 0.4391 0.49341 0.0
C363 C 0.39083 0.67406 0.45784 0.0
C364 C 0.3984 0.69468 0.4636 0.0
N365 N 0.41172 0.7044 0.4396 0.0
N366 N 0.39836 0.67046 0.43019 0.0
C367 C 0.41048 0.68933 0.41944 0.0
H368 H 0.38226 0.66223 0.4732 0.0
Co369 Co 0.39539 0.6432 0.41552 0.0
C370 C 0.46114 0.6513 0.3652 0.0
O371 O 0.49845 0.64164 0.37678 0.0
N372 N 0.3898 0.61538 0.40139 0.0
C373 C 0.39161 0.58638 0.37528 0.0
C374 C 0.41207 0.60573 0.37947 0.0
C375 C 0.35666 0.60112 0.41044 0.0
N376 N 0.35659 0.58353 0.39476 0.0
O377 O 0.32969 0.64861 0.40357 0.0
H378 H 0.44042 0.61219 0.36649 0.0
H379 H 0.33148 0.60372 0.42758 0.0
O380 O 0.42024 0.65263 0.37837 0.0
C381 C 0.3028 0.64507 0.42494 0.0
O382 O 0.32331 0.63815 0.44819 0.0
N383 N 0.45827 0.63789 0.43098 0.0
C384 C 0.53189 0.63661 0.47238 0.0
C385 C 0.52999 0.6528 0.45259 0.0
C386 C 0.4933 0.6531 0.43213 0.0
C387 C 0.46099 0.62143 0.44904 0.0
C388 C 0.49794 0.62029 0.46952 0.0
H389 H 0.49108 0.66652 0.4186 0.0
H390 H 0.43221 0.6099 0.44936 0.0
H391 H 0.42098 0.69165 0.39769 0.0
H392 H 0.39529 0.70169 0.48429 0.0
H393 H 0.40123 0.57541 0.35882 0.0
H394 H 0.55431 0.66607 0.4539 0.0
H395 H 0.49815 0.60721 0.48383 0.0
C396 C 0.39004 0.37746 0.95731 0.0
C397 C 0.40144 0.35679 0.96015 0.0
N398 N 0.41877 0.34979 0.9353 0.0
N399 N 0.40029 0.38362 0.93081 0.0
C400 C 0.41708 0.36627 0.91767 0.0
H401 H 0.37849 0.38773 0.97414 0.0
Co402 Co 0.40085 0.4118 0.92076 0.0
C403 C 0.46278 0.41106 0.86918 0.0
O404 O 0.49459 0.42364 0.88113 0.0
N405 N 0.40039 0.44096 0.91093 0.0
C406 C 0.4201 0.47455 0.90605 0.0
C407 C 0.43763 0.45492 0.91152 0.0
C408 C 0.36076 0.45282 0.90439 0.0
N409 N 0.37146 0.47326 0.90178 0.0
O410 O 0.33485 0.40885 0.9081 0.0
H411 H 0.4753 0.45145 0.91669 0.0
H412 H 0.32402 0.44688 0.90254 0.0
O413 O 0.42509 0.405 0.88289 0.0
C414 C 0.30952 0.41281 0.93003 0.0
O415 O 0.33198 0.41942 0.95294 0.0
N416 N 0.46307 0.41393 0.93735 0.0
C417 C 0.53485 0.40867 0.97898 0.0
C418 C 0.5365 0.39723 0.95359 0.0
C419 C 0.50042 0.40016 0.93299 0.0
C420 C 0.46171 0.42557 0.96143 0.0
C421 C 0.49791 0.42369 0.98201 0.0
H422 H 0.50022 0.39001 0.91479 0.0
H423 H 0.43056 0.43551 0.96552 0.0
H424 H 0.43216 0.36613 0.89657 0.0
H425 H 0.39997 0.34788 0.97949 0.0
H426 H 0.44155 0.48871 0.9059 0.0
H427 H 0.56336 0.38511 0.95023 0.0
H428 H 0.49537 0.43337 1.00068 0.0
C429 C 0.07381 0.6838 0.95277 0.0
C430 C 0.05955 0.70426 0.953 0.0
N431 N 0.04795 0.70973 0.92644 0.0
N432 N 0.07075 0.67625 0.92622 0.0
C433 C 0.0551 0.69254 0.91049 0.0
H434 H 0.08283 0.67461 0.97114 0.0
Co435 Co 0.07865 0.6479 0.91797 0.0
C436 C 0.01368 0.6441 0.86714 0.0
O437 O 0.9847 0.63093 0.88003 0.0
N438 N 0.08741 0.61874 0.90992 0.0
C439 C 0.07591 0.58445 0.90522 0.0
C440 C 0.05358 0.6033 0.90989 0.0
C441 C 0.13012 0.60853 0.90504 0.0
N442 N 0.12428 0.58772 0.90232 0.0
O443 O 0.14293 0.6538 0.90417 0.0
H444 H 0.01507 0.60522 0.91432 0.0
H445 H 0.16524 0.61607 0.90367 0.0
O446 O 0.05068 0.65183 0.88011 0.0
C447 C 0.16846 0.65378 0.92677 0.0
O448 O 0.14736 0.64844 0.95055 0.0
N449 N 0.01873 0.64294 0.93573 0.0
C450 C 0.94715 0.64293 0.97763 0.0
C451 C 0.93991 0.654 0.95243 0.0
C452 C 0.97655 0.65402 0.93178 0.0
C453 C 0.02597 0.63206 0.96001 0.0
C454 C -0.00949 0.63156 0.98097 0.0
H455 H 0.97246 0.66405 0.91367 0.0
H456 H 0.061 0.62474 0.96394 0.0
H457 H 0.0457 0.69148 0.88833 0.0
H458 H 0.05548 0.7141 0.97145 0.0
H459 H 0.05804 0.56942 0.90532 0.0
H460 H 0.9071 0.66315 0.94912 0.0
H461 H -0.00153 0.62336 1.00037 0.0
C462 C 0.88606 0.68016 0.57338 0.0
C463 C 0.89043 0.70147 0.57423 0.0
N464 N 0.9002 0.70723 0.60102 0.0
N465 N 0.89286 0.67245 0.59954 0.0
C466 C 0.90087 0.68938 0.61601 0.0
H467 H 0.88056 0.6708 0.55462 0.0
Co468 Co 0.89423 0.64394 0.6083 0.0
C469 C 0.96143 0.64949 0.65902 0.0
O470 O 0.00062 0.64342 0.64529 0.0
N471 N 0.89349 0.61509 0.6172 0.0
C472 C 0.90713 0.58393 0.63629 0.0
C473 C 0.92502 0.60381 0.63304 0.0
C474 C 0.85755 0.60136 0.61042 0.0
N475 N 0.86462 0.58247 0.62202 0.0
O476 O 0.82842 0.64636 0.62164 0.0
H477 H 0.95866 0.60947 0.64212 0.0
H478 H 0.82558 0.60518 0.59804 0.0
O479 O 0.91968 0.65004 0.64657 0.0
C480 C 0.80283 0.64497 0.59917 0.0
O481 O 0.82507 0.64125 0.57511 0.0
N482 N 0.95687 0.64173 0.5912 0.0
C483 C 0.02906 0.64418 0.54927 0.0
C484 C 0.02576 0.65936 0.57057 0.0
C485 C -0.01024 0.65781 0.5913 0.0
C486 C 0.96083 0.62639 0.57132 0.0
C487 C -0.00278 0.62704 0.55069 0.0
H488 H -0.01356 0.6704 0.6063 0.0
H489 H 0.93353 0.61426 0.56984 0.0
H490 H 0.90909 0.68863 0.63833 0.0
H491 H 0.88957 0.71178 0.55622 0.0
H492 H 0.92381 0.57157 0.64844 0.0
H493 H 0.04862 0.67312 0.57044 0.0
H494 H -0.00133 0.61461 0.53525 0.0
C495 C 0.56594 0.37672 0.57095 0.0
C496 C 0.55263 0.35628 0.5678 0.0
N497 N 0.54259 0.3485 0.59348 0.0
N498 N 0.56418 0.38198 0.59852 0.0
C499 C 0.55054 0.36429 0.61188 0.0
H500 H 0.57326 0.38749 0.55399 0.0
Co501 Co 0.57118 0.40969 0.61074 0.0
C502 C 0.50409 0.40497 0.6615 0.0
O503 O 0.46698 0.41437 0.64935 0.0
N504 N 0.58003 0.43775 0.62261 0.0
C505 C 0.57655 0.46837 0.64485 0.0
C506 C 0.5539 0.44945 0.64097 0.0
C507 C 0.61772 0.45032 0.61512 0.0
N508 N 0.61673 0.46886 0.62856 0.0
O509 O 0.63593 0.40334 0.62353 0.0
H510 H 0.52072 0.4448 0.65133 0.0
H511 H 0.64638 0.44589 0.60065 0.0
O512 O 0.54468 0.40266 0.64831 0.0
C513 C 0.66188 0.40454 0.60129 0.0
O514 O 0.64086 0.41019 0.57755 0.0
N515 N 0.50985 0.41591 0.59426 0.0
C516 C 0.44155 0.41647 0.55025 0.0
C517 C 0.43696 0.40226 0.57245 0.0
C518 C 0.47175 0.40205 0.59404 0.0
C519 C 0.51259 0.43085 0.57391 0.0
C520 C 0.47859 0.43153 0.55184 0.0
H521 H 0.47045 0.38945 0.60902 0.0
H522 H 0.54418 0.44095 0.57284 0.0
H523 H 0.54274 0.36341 0.63423 0.0
H524 H 0.5483 0.34803 0.54798 0.0
H525 H 0.5645 0.4808 0.65866 0.0
H526 H 0.40849 0.39051 0.57225 0.0
H527 H 0.48388 0.44262 0.53496 0.0
H528 H 0.45162 0.14567 0.03427 0.0
H529 H 0.18342 0.1843 0.07254 0.0
H530 H 0.34392 0.16618 0.9732 0.0
H531 H 0.24672 0.13075 0.11296 0.0
H532 H 0.25958 0.18934 0.04628 0.0
H533 H 0.3909 0.15015 0.07153 0.0
C534 C 0.41541 0.15104 0.02847 0.0
C535 C 0.40293 0.15509 1.00009 0.0
C536 C 0.25747 0.17699 0.06174 0.0
C537 C 0.33453 0.16143 0.04325 0.0
C538 C 0.21448 0.17432 0.07705 0.0
C539 C 0.20932 0.15723 0.09504 0.0
C540 C 0.29538 0.16245 0.06457 0.0
C541 C 0.24985 0.1443 0.09957 0.0
C542 C 0.38114 0.15387 0.04995 0.0
C543 C 0.35584 0.16294 0.99452 0.0
N544 N 0.29121 0.14696 0.084 0.0
N545 N 0.32343 0.16581 0.01588 0.0
H546 H 0.07733 0.87672 0.98799 0.0
H547 H 0.23333 0.93234 0.10881 0.0
H548 H 0.05324 0.93964 0.01687 0.0
H549 H 0.26203 0.87035 0.07855 0.0
H550 H 0.15537 0.93219 0.08319 0.0
H551 H 0.1361 0.87178 0.02647 0.0
C552 C 0.08462 0.88954 1.00229 0.0
C553 C 0.06069 0.90871 0.99896 0.0
C554 C 0.17782 0.91831 0.08288 0.0
C555 C 0.12713 0.903 0.0435 0.0
C556 C 0.22182 0.91826 0.09802 0.0
C557 C 0.25355 0.90122 0.09602 0.0
C558 C 0.16622 0.90133 0.06526 0.0
C559 C 0.23796 0.88363 0.08094 0.0
C560 C 0.11769 0.88662 0.0245 0.0
C561 C 0.07067 0.92458 0.01863 0.0
N562 N 0.19583 0.88428 0.06561 0.0
N563 N 0.10331 0.92142 0.0399 0.0
H564 H 0.74679 0.92605 0.41714 0.0
H565 H 0.86133 0.87574 0.55393 0.0
H566 H 0.6883 0.87074 0.45538 0.0
H567 H 0.94222 0.91808 0.50116 0.0
H568 H 0.79864 0.87289 0.51689 0.0
H569 H 0.82236 0.9216 0.44446 0.0
C570 C 0.75102 0.91235 0.43019 0.0
C571 C 0.71192 0.89851 0.43371 0.0
C572 C 0.83034 0.88266 0.51332 0.0
C573 C 0.79648 0.89403 0.46636 0.0
C574 C 0.86572 0.88448 0.53459 0.0
C575 C 0.90678 0.89723 0.53063 0.0
C576 C 0.83573 0.89394 0.48811 0.0
C577 C 0.91114 0.90801 0.505 0.0
C578 C 0.79374 0.91 0.44619 0.0
C579 C 0.71821 0.88149 0.45175 0.0
N580 N 0.87587 0.90627 0.48484 0.0
N581 N 0.75926 0.87995 0.4679 0.0
H582 H 0.73789 0.11085 0.42061 0.0
H583 H 0.56843 0.1733 0.52716 0.0
H584 H 0.75312 0.17638 0.43747 0.0
H585 H 0.56428 0.10673 0.51495 0.0
H586 H 0.62368 0.17621 0.48688 0.0
H587 H 0.65908 0.11103 0.44487 0.0
C588 C 0.72324 0.12552 0.4281 0.0
C589 C 0.75152 0.14367 0.4269 0.0
C590 C 0.61034 0.16098 0.49287 0.0
C591 C 0.66318 0.14381 0.4562 0.0
C592 C 0.57934 0.15927 0.51613 0.0
C593 C 0.56238 0.13968 0.52482 0.0
C594 C 0.62466 0.14298 0.47818 0.0
C595 C 0.57647 0.12214 0.50909 0.0
C596 C 0.67871 0.12556 0.44247 0.0
C597 C 0.73182 0.16215 0.43768 0.0
N598 N 0.6071 0.12419 0.48672 0.0
N599 N 0.68929 0.16168 0.45253 0.0
H600 H 0.72406 0.93738 0.91102 0.0
H601 H 0.55827 0.87718 0.02211 0.0
H602 H 0.75394 0.87538 0.93999 0.0
H603 H 0.56716 0.94407 0.01505 0.0
H604 H 0.61158 0.87385 0.98108 0.0
H605 H 0.64562 0.93673 0.93603 0.0
C606 C 0.71291 0.92327 0.92151 0.0
C607 C 0.74536 0.90652 0.92375 0.0
C608 C 0.60139 0.88923 0.98839 0.0
C609 C 0.65689 0.90571 0.95285 0.0
C610 C 0.57154 0.8912 1.01208 0.0
C611 C 0.55912 0.91098 0.02264 0.0
C612 C 0.61867 0.90714 0.97486 0.0
C613 C 0.57583 0.92851 1.00786 0.0
C614 C 0.66853 0.92298 0.93608 0.0
C615 C 0.72956 0.88856 0.93767 0.0
N616 N 0.60509 0.92617 0.98489 0.0
N617 N 0.68678 0.88875 0.95226 0.0
H618 H 0.72107 0.10932 0.92728 0.0
H619 H 0.91215 0.16903 0.02439 0.0
H620 H 0.72644 0.17597 0.93599 0.0
H621 H 0.89612 0.10226 0.02123 0.0
H622 H 0.8578 0.17199 0.98364 0.0
H623 H 0.80051 0.1068 0.9508 0.0
C624 C 0.74031 0.12351 0.93287 0.0
C625 C 0.71769 0.1429 0.92954 0.0
C626 C 0.86645 0.15667 0.99169 0.0
C627 C 0.80695 0.14012 0.95794 0.0
C628 C 0.897 0.15497 0.01519 0.0
C629 C 0.90762 0.13538 0.02673 0.0
C630 C 0.84615 0.13866 0.97958 0.0
C631 C 0.88851 0.11768 1.01323 0.0
C632 C 0.78526 0.12205 0.94676 0.0
C633 C 0.74324 0.16077 0.93788 0.0
N634 N 0.85819 0.11975 0.99059 0.0
N635 N 0.78614 0.15894 0.95232 0.0
H636 H 0.05763 0.11451 0.51881 0.0
H637 H 0.26691 0.18376 0.58376 0.0
H638 H 0.07575 0.17947 0.49832 0.0
H639 H 0.23104 0.1225 0.61373 0.0
H640 H 0.1878 0.18532 0.55956 0.0
H641 H 0.1133 0.11898 0.55854 0.0
C642 C 0.07301 0.12979 0.52276 0.0
C643 C 0.0622 0.1466 0.50495 0.0
C644 C 0.19633 0.17181 0.57225 0.0
C645 C 0.12671 0.15179 0.5505 0.0
C646 C 0.24111 0.17111 0.5865 0.0
C647 C 0.25522 0.153 0.60071 0.0
C648 C 0.16628 0.15405 0.57182 0.0
C649 C 0.22133 0.13676 0.60303 0.0
C650 C 0.1048 0.13234 0.54556 0.0
C651 C 0.08387 0.16594 0.51103 0.0
N652 N 0.17884 0.13743 0.58808 0.0
N653 N 0.11544 0.16796 0.53313 0.0
H654 H 0.24329 0.87918 0.60478 0.0
H655 H 0.40714 0.95267 0.50874 0.0
H656 H 0.22334 0.94536 0.59798 0.0
H657 H 0.40637 0.8856 0.50439 0.0
H658 H 0.35549 0.95099 0.55082 0.0
H659 H 0.32118 0.8823 0.57969 0.0
C660 C 0.25678 0.89452 0.59947 0.0
C661 C 0.22727 0.91208 0.60355 0.0
C662 C 0.36692 0.93664 0.54077 0.0
C663 C 0.31459 0.9157 0.57369 0.0
C664 C 0.39619 0.93759 0.51669 0.0
C665 C 0.41021 0.91926 0.50272 0.0
C666 C 0.35171 0.91721 0.55102 0.0
C667 C 0.39525 0.90014 0.51404 0.0
C668 C 0.30072 0.89627 0.58463 0.0
C669 C 0.2456 0.93154 0.5956 0.0
N670 N 0.36657 0.89962 0.53741 0.0
N671 N 0.28761 0.93281 0.58044 0.0
H672 H 0.74259 0.60972 0.1053 0.0
H673 H 0.89636 0.67703 0.99699 0.0
H674 H 0.71487 0.67463 0.09034 0.0
H675 H 0.91805 0.61156 1.01266 0.0
H676 H 0.8395 0.67844 0.03687 0.0
H677 H 0.82006 0.61266 0.08027 0.0
C678 C 0.75419 0.62486 0.09798 0.0
C679 C 0.72284 0.64199 0.1001 0.0
C680 C 0.85709 0.66382 0.03171 0.0
C681 C 0.80952 0.64525 0.06955 0.0
C682 C 0.88899 0.66293 1.0087 0.0
C683 C 0.9116 0.64408 1.00125 0.0
C684 C 0.84766 0.64572 0.04732 0.0
C685 C 0.90166 0.62645 0.01766 0.0
C686 C 0.79795 0.62649 0.08313 0.0
C687 C 0.73859 0.66115 0.08941 0.0
N688 N 0.87029 0.62768 0.03975 0.0
N689 N 0.78038 0.66217 0.07389 0.0
H690 H 0.78265 0.37065 0.07791 0.0
H691 H 0.51918 0.41285 0.03649 0.0
H692 H 0.72513 0.42613 0.11672 0.0
H693 H 0.62969 0.39373 0.9764 0.0
H694 H 0.57797 0.40715 0.07463 0.0
H695 H 0.70623 0.36674 0.05121 0.0
C696 C 0.75268 0.38129 0.08205 0.0
C697 C 0.75968 0.39864 0.09957 0.0
C698 C 0.58869 0.40398 0.05304 0.0
C699 C 0.67342 0.39462 0.06874 0.0
C700 C 0.55558 0.40754 0.03107 0.0
C701 C 0.56942 0.40422 1.00273 0.0
C702 C 0.63538 0.39637 0.04681 0.0
C703 C 0.61668 0.39639 0.99763 0.0
C704 C 0.70957 0.37925 0.0665 0.0
C705 C 0.72057 0.4124 0.10365 0.0
N706 N 0.64786 0.39275 0.01944 0.0
N707 N 0.6791 0.41033 0.08787 0.0
H708 H 0.22982 0.43829 0.42075 0.0
H709 H 0.41573 0.38052 0.52303 0.0
H710 H 0.22513 0.37279 0.43913 0.0
H711 H 0.39962 0.4472 0.51786 0.0
H712 H 0.36234 0.37668 0.48196 0.0
H713 H 0.31008 0.44053 0.44369 0.0
C714 C 0.24696 0.42416 0.42828 0.0
C715 C 0.22113 0.40531 0.42814 0.0
C716 C 0.37082 0.39217 0.48964 0.0
C717 C 0.31152 0.40788 0.45536 0.0
C718 C 0.40078 0.39438 0.51332 0.0
C719 C 0.41101 0.41421 0.52442 0.0
C720 C 0.35076 0.4099 0.47688 0.0
C721 C 0.39227 0.43162 0.51022 0.0
C722 C 0.29238 0.4255 0.4418 0.0
C723 C 0.24431 0.38754 0.43867 0.0
N724 N 0.36249 0.42904 0.4874 0.0
N725 N 0.28782 0.38932 0.45244 0.0
H726 H 0.26793 0.68158 0.44354 0.0
H727 H 0.0177 0.63062 0.49405 0.0
H728 H 0.22323 0.62095 0.41436 0.0
H729 H 0.11852 0.6643 0.54815 0.0
H730 H 0.07505 0.63481 0.45496 0.0
H731 H 0.19118 0.68458 0.46989 0.0
C732 C 0.24051 0.66946 0.4413 0.0
C733 C 0.25134 0.65109 0.42663 0.0
C734 C 0.08394 0.64145 0.47539 0.0
C735 C 0.16489 0.65406 0.45731 0.0
C736 C 0.0517 0.63882 0.49795 0.0
C737 C 0.06318 0.64686 0.52492 0.0
C738 C 0.12729 0.6527 0.47952 0.0
C739 C 0.10726 0.65802 0.52794 0.0
C740 C 0.19728 0.671 0.45674 0.0
C741 C 0.21558 0.63547 0.42513 0.0
N742 N 0.13756 0.66061 0.50556 0.0
N743 N 0.17405 0.63712 0.44079 0.0
H744 H 0.24378 0.44403 0.92607 0.0
H745 H 0.06877 0.3803 0.02772 0.0
H746 H 0.25667 0.37813 0.94013 0.0
H747 H 0.06883 0.44718 0.01965 0.0
H748 H 0.12489 0.37796 0.98776 0.0
H749 H 0.16449 0.44379 0.94978 0.0
C750 C 0.2286 0.42931 0.93289 0.0
C751 C 0.25623 0.41102 0.93098 0.0
C752 C 0.11228 0.39313 0.99459 0.0
C753 C 0.16729 0.41079 0.95961 0.0
C754 C 0.08076 0.39451 0.01765 0.0
C755 C 0.06482 0.41401 0.02745 0.0
C756 C 0.1281 0.41138 0.9812 0.0
C757 C 0.08025 0.43183 1.01292 0.0
C758 C 0.18376 0.42922 0.94691 0.0
C759 C 0.23586 0.39246 0.9409 0.0
N760 N 0.11137 0.43009 0.99072 0.0
N761 N 0.19297 0.39287 0.9554 0.0
H762 H 0.24454 0.62893 0.91099 0.0
H763 H 0.39821 0.68094 0.03568 0.0
H764 H 0.20989 0.68817 0.94859 0.0
H765 H 0.41521 0.61752 1.00701 0.0
H766 H 0.3421 0.68729 0.99633 0.0
H767 H 0.32284 0.62899 0.93615 0.0
C768 C 0.25451 0.64245 0.9234 0.0
C769 C 0.22083 0.65854 0.9279 0.0
C770 C 0.35845 0.67203 0.99854 0.0
C771 C 0.30906 0.65837 0.95762 0.0
C772 C 0.38993 0.66831 0.02124 0.0
C773 C 0.41088 0.64856 0.02496 0.0
C774 C 0.34771 0.65591 0.97939 0.0
C775 C 0.39998 0.63299 1.00501 0.0
C776 C 0.29888 0.64234 0.93818 0.0
C777 C 0.23522 0.67555 0.94454 0.0
N778 N 0.36889 0.63695 0.98324 0.0
N779 N 0.27783 0.67483 0.95935 0.0
H780 H 0.51983 0.62125 0.5266 0.0
H781 H 0.75539 0.67962 0.58412 0.0
H782 H 0.62311 0.65502 0.47488 0.0
H783 H 0.73242 0.61574 0.60768 0.0
H784 H 0.67881 0.67876 0.55716 0.0
H785 H 0.57556 0.62546 0.56692 0.0
C786 C 0.55402 0.62943 0.52346 0.0
C787 C 0.56632 0.63784 0.49694 0.0
C788 C 0.68947 0.66523 0.56929 0.0
C789 C 0.62824 0.64371 0.54357 0.0
C790 C 0.73256 0.66583 0.58508 0.0
C791 C 0.74977 0.64777 0.59818 0.0
C792 C 0.6636 0.64646 0.56681 0.0
C793 C 0.7198 0.63004 0.59807 0.0
C794 C 0.58529 0.63206 0.54668 0.0
C795 C 0.61088 0.64871 0.49478 0.0
N796 N 0.67837 0.62963 0.58199 0.0
N797 N 0.63986 0.65147 0.51779 0.0
H798 H 0.84526 0.39295 0.47591 0.0
H799 H 0.73742 0.43038 0.6143 0.0
H800 H 0.9465 0.42246 0.53404 0.0
H801 H 0.7028 0.36946 0.58186 0.0
H802 H 0.81492 0.42959 0.58807 0.0
H803 H 0.78973 0.38675 0.51488 0.0
C804 C 0.85632 0.39798 0.4968 0.0
C805 C 0.90131 0.40809 0.50144 0.0
C806 C 0.79139 0.41602 0.58777 0.0
C807 C 0.8365 0.40149 0.54623 0.0
C808 C 0.74762 0.41632 0.60307 0.0
C809 C 0.71418 0.39986 0.6003 0.0
C810 C 0.80043 0.39941 0.56919 0.0
C811 C 0.72806 0.38232 0.58469 0.0
C812 C 0.8244 0.3944 0.51909 0.0
C813 C 0.91209 0.4149 0.52913 0.0
N814 N 0.76947 0.3828 0.56895 0.0
N815 N 0.87961 0.4117 0.55046 0.0
H816 H 0.17288 0.07136 0.08484 0.0
H817 H 0.33652 0.99224 0.17329 0.0
H818 H 0.14787 0.05953 0.1731 0.0
H819 H 0.30675 0.98206 0.08492 0.0
H820 H 0.27809 1.02122 0.17323 0.0
H821 H 0.2328 0.04273 0.08398 0.0
C822 C 0.18026 0.0628 0.10403 0.0
C823 C 0.15534 0.06773 0.12906 0.0
C824 C 0.2844 1.01265 0.15385 0.0
C825 C 0.22391 0.03528 0.12833 0.0
C826 C 0.31791 0.99623 0.15383 0.0
C827 C 0.32643 0.98476 0.12907 0.0
C828 C 0.25991 1.01796 0.12878 0.0
C829 C 0.30091 0.99043 0.10448 0.0
C830 C 0.21411 0.04644 0.10349 0.0
C831 C 0.16593 0.05608 0.15333 0.0
N832 N 0.26905 1.00675 0.10487 0.0
N833 N 0.19966 0.04052 0.15243 0.0
H834 H 0.61342 1.00564 0.3676 0.0
H835 H 0.88123 0.04107 0.41815 0.0
H836 H 0.71309 0.96636 0.41407 0.0
H837 H 0.78061 0.08173 0.37459 0.0
H838 H 0.82233 1.01281 0.41345 0.0
H839 H 0.67589 0.03292 0.36701 0.0
C840 C 0.64839 1.00268 0.37762 0.0
C841 C 0.65764 0.98359 0.39101 0.0
C842 C 0.81318 0.02789 0.40479 0.0
C843 C 0.72971 1.01484 0.39026 0.0
C844 C 0.84708 0.04409 0.40728 0.0
C845 C 0.83613 0.064 0.39683 0.0
C846 C 0.7677 0.03149 0.39175 0.0
C847 C 0.7906 0.06682 0.38336 0.0
C848 C 0.68417 1.01827 0.37718 0.0
C849 C 0.70415 0.98063 0.40322 0.0
N850 N 0.75808 0.0508 0.38131 0.0
N851 N 0.7382 0.99609 0.40267 0.0
H852 H 0.58412 0.04478 0.91207 0.0
H853 H 0.86341 1.01323 0.88374 0.0
H854 H 0.69001 0.0867 0.87553 0.0
H855 H 0.75304 0.97049 0.91261 0.0
H856 H 0.80027 0.04019 0.87907 0.0
H857 H 0.64459 1.017 0.91006 0.0
C858 C 0.61975 0.04819 0.90328 0.0
C859 C 0.63173 0.06835 0.89422 0.0
C860 C 0.78974 1.02482 0.88611 0.0
C861 C 0.70196 0.03642 0.89235 0.0
C862 C 0.8258 1.00947 0.88885 0.0
C863 C 0.81332 0.98948 0.89826 0.0
C864 C 0.74089 1.02021 0.89314 0.0
C865 C 0.76403 0.98544 0.90457 0.0
C866 C 0.65453 0.03226 0.90233 0.0
C867 C 0.67909 0.07163 0.88335 0.0
N868 N 0.72974 1.00065 0.90206 0.0
N869 N 0.71247 0.05591 0.88293 0.0
H870 H 0.09687 1.00885 0.59406 0.0
H871 H 0.3611 0.04445 0.65082 0.0
H872 H 0.19656 0.96791 0.63787 0.0
H873 H 0.26243 0.08447 0.60483 0.0
H874 H 0.29925 1.0169 0.6492 0.0
H875 H 0.15452 0.03741 0.60116 0.0
C876 C 0.13077 1.00578 0.60517 0.0
C877 C 0.14187 0.98568 0.61489 0.0
C878 C 0.29104 0.03177 0.63963 0.0
C879 C 0.20836 1.0186 0.62331 0.0
C880 C 0.3265 0.04751 0.64043 0.0
C881 C 0.31729 0.06692 0.62791 0.0
C882 C 0.24591 0.03536 0.62613 0.0
C883 C 0.27127 0.06997 0.61512 0.0
C884 C 0.16371 1.02218 0.60932 0.0
C885 C 0.1861 0.98298 0.62982 0.0
N886 N 0.23756 0.05437 0.61445 0.0
N887 N 0.21779 0.99916 0.63333 0.0
H888 H 0.87445 0.51142 0.13135 0.0
H889 H 0.58976 0.53978 0.13909 0.0
H890 H 0.76155 0.46538 0.14489 0.0
H891 H 0.70589 0.58535 0.13593 0.0
H892 H 0.65143 0.51236 0.14283 0.0
H893 H 0.8129 0.53857 0.1345 0.0
C894 C 0.83694 0.50689 0.13526 0.0
C895 C 0.82365 0.48583 0.13772 0.0
C896 C 0.66332 0.5284 0.14148 0.0
C897 C 0.75214 0.51726 0.14095 0.0
C898 C 0.62805 0.54413 0.13923 0.0
C899 C 0.64224 0.56509 0.13664 0.0
C900 C 0.71334 0.53358 0.14105 0.0
C901 C 0.69269 0.56959 0.13766 0.0
C902 C 0.80157 0.52253 0.13694 0.0
C903 C 0.77384 0.48125 0.14237 0.0
N904 N 0.72621 0.55401 0.13948 0.0
N905 N 0.73998 0.49679 0.14367 0.0
H906 H 0.31916 0.56097 0.35135 0.0
H907 H 0.1704 0.48126 0.44739 0.0
H908 H 0.31542 0.56717 0.44196 0.0
H909 H 0.13107 0.49465 0.36115 0.0
H910 H 0.232 0.5092 0.44565 0.0
H911 H 0.25897 0.53282 0.35428 0.0
C912 C 0.30602 0.55626 0.37189 0.0
C913 C 0.3224 0.56642 0.39645 0.0
C914 C 0.20967 0.50604 0.42719 0.0
C915 C 0.25336 0.53418 0.39998 0.0
C916 C 0.17473 0.49007 0.42813 0.0
C917 C 0.14533 0.48571 0.40444 0.0
C918 C 0.21598 0.51741 0.40218 0.0
C919 C 0.15238 0.49766 0.38002 0.0
C920 C 0.27135 0.54032 0.37354 0.0
C921 C 0.3035 0.55985 0.42251 0.0
N922 N 0.18715 0.51282 0.37945 0.0
N923 N 0.27019 0.54406 0.42363 0.0
H924 H 0.27958 0.47188 0.87895 0.0
H925 H 0.2201 0.59056 0.91837 0.0
H926 H 0.38395 0.51374 0.91769 0.0
H927 H 0.11501 0.54875 0.88026 0.0
H928 H 0.28193 0.56322 0.91568 0.0
H929 H 0.22015 0.50022 0.87712 0.0
C930 C 0.29017 0.48698 0.88707 0.0
C931 C 0.33707 0.49026 0.89864 0.0
C932 C 0.24541 0.56004 0.90777 0.0
C933 C 0.2689 0.52299 0.89638 0.0
C934 C 0.21005 0.57575 0.9091 0.0
C935 C 0.16201 0.57204 0.89954 0.0
C936 C 0.23284 0.54039 0.89681 0.0
C937 C 0.15124 0.55229 0.88825 0.0
C938 C 0.25617 0.50323 0.88589 0.0
C939 C 0.34863 0.51039 0.90833 0.0
N940 N 0.18625 0.53724 0.88727 0.0
N941 N 0.31479 0.5259 0.90711 0.0
H942 H 0.80763 0.56944 0.57844 0.0
H943 H 0.64935 0.49257 0.67195 0.0
H944 H 0.84391 0.55653 0.66523 0.0
H945 H 0.66703 0.48206 0.58266 0.0
H946 H 0.71184 0.51994 0.66991 0.0
H947 H 0.74732 0.54097 0.57935 0.0
C948 C 0.80292 0.56056 0.59763 0.0
C949 C 0.83085 0.56523 0.62176 0.0
C950 C 0.70206 0.51163 0.65077 0.0
C951 C 0.76171 0.53306 0.6231 0.0
C952 C 0.66622 0.49615 0.65189 0.0
C953 C 0.65303 0.48511 0.62742 0.0
C954 C 0.72418 0.51642 0.62488 0.0
C955 C 0.67644 0.49017 0.60199 0.0
C956 C 0.76877 0.54433 0.5981 0.0
C957 C 0.82352 0.55325 0.6461 0.0
N958 N 0.71061 0.50561 0.6013 0.0
N959 N 0.78929 0.53787 0.64625 0.0
H960 H 0.87355 0.31485 0.06767 0.0
H961 H 0.05743 0.23079 0.1342 0.0
H962 H 0.98109 0.33161 0.13058 0.0
H963 H 0.96816 0.2213 0.06009 0.0
H964 H 0.02223 0.26602 0.13926 0.0
H965 H 0.89912 0.27869 0.07117 0.0
C966 C 0.90249 0.31085 0.08236 0.0
C967 C 0.92574 0.32629 0.09852 0.0
C968 C 0.01025 0.25613 0.12202 0.0
C969 C 0.95568 0.28473 0.10262 0.0
C970 C 0.03014 0.23607 0.11922 0.0
C971 C 0.01616 0.22331 0.09646 0.0
C972 C 0.97567 0.26319 0.10214 0.0
C973 C 0.9807 0.2308 0.07759 0.0
C974 C 0.91712 0.29017 0.08439 0.0
C975 C 0.9623 0.32015 0.11772 0.0
N976 N 0.96186 0.25016 0.08082 0.0
N977 N 0.97664 0.29983 0.11902 0.0
H978 H 0.47045 0.82604 0.04565 0.0
H979 H 0.52692 0.72413 0.13684 0.0
H980 H 0.42197 0.8208 0.13192 0.0
H981 H 0.55112 0.73066 0.04731 0.0
H982 H 0.49132 0.75938 0.13765 0.0
H983 H 0.50461 0.79145 0.04821 0.0
C984 C 0.46646 0.81751 0.06515 0.0
C985 C 0.44224 0.82626 0.08841 0.0
C986 C 0.5046 0.753 0.11791 0.0
C987 C 0.48252 0.7862 0.09172 0.0
C988 C 0.52475 0.73288 0.11741 0.0
C989 C 0.54282 0.72443 0.09204 0.0
C990 C 0.50256 0.76466 0.09287 0.0
C991 C 0.53906 0.73654 0.06753 0.0
C992 C 0.48638 0.79767 0.06668 0.0
C993 C 0.44012 0.81459 0.11345 0.0
N994 N 0.51959 0.7559 0.06863 0.0
N995 N 0.45981 0.79506 0.11444 0.0
H996 H 0.49594 0.82852 0.48279 0.0
H997 H 0.42569 0.7278 0.39172 0.0
H998 H 0.53222 0.8249 0.39433 0.0
H999 H 0.43855 0.7303 0.48264 0.0
H1000 H 0.45518 0.764 0.38976 0.0
H1001 H 0.46294 0.79361 0.48046 0.0
C1002 C 0.49738 0.82032 0.46283 0.0
C1003 C 0.51808 0.82958 0.43888 0.0
C1004 C 0.45123 0.75647 0.41004 0.0
C1005 C 0.47926 0.78919 0.43593 0.0
C1006 C 0.43447 0.73578 0.41122 0.0
C1007 C 0.42874 0.72574 0.43743 0.0
C1008 C 0.4619 0.76721 0.43523 0.0
C1009 C 0.44081 0.73712 0.46191 0.0
C1010 C 0.4782 0.80031 0.46147 0.0
C1011 C 0.5169 0.81831 0.41334 0.0
N1012 N 0.45648 0.75707 0.46014 0.0
N1013 N 0.49809 0.79859 0.41253 0.0
H1014 H 0.97266 0.33397 0.45954 0.0
H1015 H -0.0126 0.21749 0.40136 0.0
H1016 H 0.08125 0.31523 0.39891 0.0
H1017 H 0.86705 0.24204 0.44994 0.0
H1018 H 0.02109 0.25286 0.39756 0.0
H1019 H 0.93224 0.3003 0.4542 0.0
C1020 C -0.01231 0.32266 0.44495 0.0
C1021 C 0.03034 0.32716 0.4298 0.0
C1022 C -0.01297 0.25049 0.40878 0.0
C1023 C 0.98478 0.2884 0.42365 0.0
C1024 C 0.96767 0.23032 0.41084 0.0
C1025 C 0.92464 0.22674 0.42634 0.0
C1026 C 0.96319 0.26712 0.42236 0.0
C1027 C 0.90083 0.24396 0.43834 0.0
C1028 C 0.96466 0.30346 0.4418 0.0
C1029 C 0.04835 0.31219 0.41091 0.0
N1030 N 0.92058 0.26328 0.4363 0.0
N1031 N 0.02581 0.29328 0.4086 0.0
H1032 H 0.85616 0.81414 0.93327 0.0
H1033 H 0.07698 0.73881 0.88865 0.0
H1034 H -0.01245 0.83747 0.89435 0.0
H1035 H 0.96278 0.72335 0.94737 0.0
H1036 H 0.03788 0.77306 0.881 0.0
H1037 H 0.887 0.77876 0.92813 0.0
C1038 C 0.8914 0.81173 0.92333 0.0
C1039 C 0.9197 0.82873 0.91464 0.0
C1040 C 0.0211 0.76203 0.89525 0.0
C1041 C 0.95572 0.78818 0.90889 0.0
C1042 C 0.04319 0.74257 0.89945 0.0
C1043 C 0.02288 0.7285 0.9187 0.0
C1044 C 0.9782 0.76713 0.91015 0.0
C1045 C 0.97944 0.73393 0.93248 0.0
C1046 C 0.90906 0.79154 0.92043 0.0
C1047 C 0.96471 0.82475 0.90137 0.0
N1048 N 0.95864 0.7528 0.928 0.0
N1049 N 0.98177 0.80484 0.89925 0.0
H1050 H 0.6064 0.24445 0.95751 0.0
H1051 H 0.41172 0.32343 0.89044 0.0
H1052 H 0.49693 0.22365 0.89786 0.0
H1053 H 0.4842 0.3323 0.97047 0.0
H1054 H 0.45306 0.28936 0.88561 0.0
H1055 H 0.57339 0.27957 0.95458 0.0
C1056 C 0.57551 0.24728 0.94368 0.0
C1057 C 0.55388 0.23094 0.92835 0.0
C1058 C 0.45994 0.29886 0.90413 0.0
C1059 C 0.51594 0.27135 0.9247 0.0
C1060 C 0.43659 0.31822 0.90681 0.0
C1061 C 0.4442 0.33043 0.93105 0.0
C1062 C 0.49186 0.29206 0.92556 0.0
C1063 C 0.47675 0.32315 0.95171 0.0
C1064 C 0.55671 0.26737 0.94197 0.0
C1065 C 0.51473 0.23574 0.9101 0.0
N1066 N 0.49936 0.30452 0.94848 0.0
N1067 N 0.49665 0.2555 0.90897 0.0
H1068 H 0.3711 0.2385 0.5718 0.0
H1069 H 0.56128 0.32134 0.63616 0.0
H1070 H 0.48258 0.22071 0.63157 0.0
H1071 H 0.47045 0.33094 0.56284 0.0
H1072 H 0.52446 0.28643 0.64177 0.0
H1073 H 0.39736 0.27459 0.576 0.0
C1074 C 0.40096 0.24229 0.58602 0.0
C1075 C 0.42519 0.22661 0.60102 0.0
C1076 C 0.51248 0.29629 0.62461 0.0
C1077 C 0.45608 0.268 0.60581 0.0
C1078 C 0.53329 0.31614 0.62149 0.0
C1079 C 0.5193 0.3288 0.59877 0.0
C1080 C 0.47694 0.28938 0.60512 0.0
C1081 C 0.48292 0.32148 0.5803 0.0
C1082 C 0.41603 0.2629 0.58842 0.0
C1083 C 0.46305 0.2324 0.61962 0.0
N1084 N 0.46316 0.30232 0.58385 0.0
N1085 N 0.47788 0.25266 0.62124 0.0
H1086 H 0.96831 0.71659 0.64095 0.0
H1087 H 0.96448 0.83857 0.6067 0.0
H1088 H 0.86814 0.7444 0.58152 0.0
H1089 H 0.08829 0.80665 0.64291 0.0
H1090 H 0.9183 0.80573 0.60692 0.0
H1091 H 0.00177 0.75111 0.65146 0.0
C1092 C 0.95267 0.73001 0.63054 0.0
C1093 C 0.9156 0.72763 0.61018 0.0
C1094 C 0.95536 0.806 0.61515 0.0
C1095 C 0.95399 0.76713 0.62192 0.0
C1096 C 0.98151 0.82474 0.61523 0.0
C1097 C 0.03032 0.82522 0.62461 0.0
C1098 C 0.97807 0.78774 0.62485 0.0
C1099 C 0.05093 0.80683 0.63518 0.0
C1100 C 0.97205 0.74968 0.63637 0.0
C1101 C 0.89715 0.74556 0.59707 0.0
N1102 N 0.02481 0.78883 0.63491 0.0
N1103 N 0.91669 0.76455 0.60304 0.0
H1104 H 0.08143 0.1513 0.20089 0.0
H1105 H 0.89824 0.16126 0.33242 0.0
H1106 H 0.92433 0.15606 0.1929 0.0
H1107 H 0.04596 0.1378 0.33913 0.0
H1108 H 0.91165 0.1674 0.28199 0.0
H1109 H 0.07312 0.15448 0.25237 0.0
C1110 C 0.04534 0.15344 0.20991 0.0
C1111 C 0.00346 0.1532 0.19267 0.0
C1112 C 0.94125 0.16109 0.2946 0.0
C1113 C -0.00631 0.15679 0.25131 0.0
C1114 C 0.93367 0.15764 0.32339 0.0
C1115 C 0.9708 0.14874 0.33995 0.0
C1116 C -0.01356 0.1558 0.28234 0.0
C1117 C 0.01605 0.14443 0.3271 0.0
C1118 C 0.04058 0.15511 0.23926 0.0
C1119 C 0.95754 0.15592 0.20546 0.0
N1120 N 0.02251 0.14789 0.29906 0.0
N1121 N 0.95385 0.15748 0.23398 0.0
H1122 H 0.3888 0.89748 0.19813 0.0
H1123 H 0.57315 0.88983 0.33025 0.0
H1124 H 0.54576 0.89217 0.19027 0.0
H1125 H 0.4231 0.91042 0.33648 0.0
H1126 H 0.56026 0.88314 0.27969 0.0
H1127 H 0.39748 0.89463 0.24959 0.0
C1128 C 0.42495 0.89531 0.20716 0.0
C1129 C 0.46664 0.89528 0.1899 0.0
C1130 C 0.53004 0.88891 0.29224 0.0
C1131 C 0.47691 0.89212 0.24868 0.0
C1132 C 0.53733 0.89263 0.32112 0.0
C1133 C 0.49935 0.90093 0.33757 0.0
C1134 C 0.48432 0.89333 0.2798 0.0
C1135 C 0.45366 0.90428 0.32456 0.0
C1136 C 0.42994 0.89382 0.23653 0.0
C1137 C 0.51264 0.89252 0.2028 0.0
N1138 N 0.44752 0.90059 0.29649 0.0
N1139 N 0.51657 0.8912 0.23135 0.0
H1140 H 0.93503 0.88749 0.83034 0.0
H1141 H 0.00089 0.95391 0.69438 0.0
H1142 H -0.008 0.9501 0.83379 0.0
H1143 H 0.02578 0.88762 0.69408 0.0
H1144 H 0.98089 0.95223 0.74443 0.0
H1145 H 0.95305 0.88657 0.77919 0.0
C1146 C 0.95121 0.90098 0.82039 0.0
C1147 C 0.96218 0.91887 0.83637 0.0
C1148 C -0.00935 0.93802 0.73343 0.0
C1149 C 0.98185 0.91804 0.77828 0.0
C1150 C 0.0019 0.93895 0.7048 0.0
C1151 C 0.0153 0.9209 0.69001 0.0
C1152 C -0.0081 0.91886 0.74751 0.0
C1153 C 0.01602 0.90194 0.70477 0.0
C1154 C 0.96163 0.90041 0.79135 0.0
C1155 C 0.98322 0.93591 0.82245 0.0
N1156 N 0.00423 0.90137 0.73276 0.0
N1157 N -0.0081 0.93514 0.79429 0.0
H1158 H 0.42462 0.15031 0.83874 0.0
H1159 H 0.551 0.14298 0.68937 0.0
H1160 H 0.58059 0.15769 0.82813 0.0
H1161 H 0.39739 0.15712 0.69888 0.0
H1162 H 0.56295 0.14901 0.73987 0.0
H1163 H 0.4137 0.15362 0.78775 0.0
C1164 C 0.45656 0.15288 0.82567 0.0
C1165 C 0.50365 0.15357 0.83766 0.0
C1166 C 0.52674 0.15107 0.73088 0.0
C1167 C 0.49143 0.15704 0.77915 0.0
C1168 C 0.51982 0.14755 0.70205 0.0
C1169 C 0.473 0.14936 0.68992 0.0
C1170 C 0.4864 0.15607 0.74791 0.0
C1171 C 0.43408 0.15551 0.70735 0.0
C1172 C 0.45026 0.15482 0.79656 0.0
C1173 C 0.54366 0.15707 0.81976 0.0
N1174 N 0.44149 0.15832 0.73556 0.0
N1175 N 0.53673 0.15833 0.79132 0.0
H1176 H 0.3875 0.65233 0.32552 0.0
H1177 H 0.57454 0.66352 0.19604 0.0
H1178 H 0.54313 0.66152 0.33577 0.0
H1179 H 0.43245 0.63439 0.1893 0.0
H1180 H 0.55781 0.67118 0.2459 0.0
H1181 H 0.39789 0.65438 0.27412 0.0
C1182 C 0.42362 0.65529 0.317 0.0
C1183 C 0.46459 0.65659 0.33489 0.0
C1184 C 0.53014 0.66331 0.23337 0.0
C1185 C 0.47676 0.65883 0.27628 0.0
C1186 C 0.53961 0.65899 0.20491 0.0
C1187 C 0.50512 0.64806 0.18858 0.0
C1188 C 0.48564 0.65688 0.24544 0.0
C1189 C 0.46039 0.6426 0.20119 0.0
C1190 C 0.4296 0.65628 0.28769 0.0
C1191 C 0.51065 0.66024 0.3227 0.0
N1192 N 0.45204 0.64697 0.22886 0.0
N1193 N 0.51555 0.66109 0.29418 0.0
H1194 H 0.08273 0.39815 0.33133 0.0
H1195 H 0.89881 0.39172 0.19915 0.0
H1196 H 0.92522 0.39604 0.33881 0.0
H1197 H 0.05125 0.40898 0.19277 0.0
H1198 H 0.91055 0.38574 0.24982 0.0
H1199 H 0.07418 0.3946 0.27998 0.0
C1200 C 0.04643 0.39662 0.32224 0.0
C1201 C 0.00461 0.39767 0.33933 0.0
C1202 C 0.94152 0.39062 0.23723 0.0
C1203 C -0.00544 0.39363 0.28072 0.0
C1204 C 0.93487 0.39396 0.2083 0.0
C1205 C 0.97393 0.40114 0.19178 0.0
C1206 C -0.01238 0.39434 0.24963 0.0
C1207 C 0.01991 0.40374 0.20476 0.0
C1208 C 0.04155 0.39469 0.29293 0.0
C1209 C 0.95846 0.3956 0.32639 0.0
N1210 N 0.0254 0.40048 0.23291 0.0
N1211 N 0.95465 0.39382 0.29789 0.0
H1212 H 0.39557 0.39445 0.83207 0.0
H1213 H 0.57852 0.39978 0.70006 0.0
H1214 H 0.5468 0.41368 0.83829 0.0
H1215 H 0.42094 0.39915 0.69222 0.0
H1216 H 0.56999 0.39679 0.75143 0.0
H1217 H 0.40712 0.38819 0.78141 0.0
C1218 C 0.43133 0.39709 0.82288 0.0
C1219 C 0.47009 0.40486 0.83936 0.0
C1220 C 0.53733 0.39705 0.73839 0.0
C1221 C 0.4836 0.39766 0.78155 0.0
C1222 C 0.54219 0.39864 0.70908 0.0
C1223 C 0.50036 0.39997 0.69189 0.0
C1224 C 0.49035 0.39657 0.7505 0.0
C1225 C 0.45416 0.39845 0.70473 0.0
C1226 C 0.43786 0.39358 0.79397 0.0
C1227 C 0.51569 0.40797 0.82633 0.0
N1228 N 0.45038 0.39696 0.73324 0.0
N1229 N 0.52112 0.40446 0.7982 0.0
H1230 H 0.07498 0.66295 0.82901 0.0
H1231 H 0.88842 0.64925 0.69894 0.0
H1232 H 0.93005 0.6367 0.83687 0.0
H1233 H 0.04418 0.65825 0.68922 0.0
H1234 H 0.89888 0.65148 0.75033 0.0
H1235 H 0.05989 0.66806 0.77844 0.0
C1236 C 0.03984 0.65847 0.82019 0.0
C1237 C 0.00395 0.64917 0.83715 0.0
C1238 C 0.93066 0.65316 0.73689 0.0
C1239 C -0.01361 0.65504 0.7794 0.0
C1240 C 0.92467 0.65199 0.70757 0.0
C1241 C 0.96556 0.65334 0.68978 0.0
C1242 C 0.97778 0.65592 0.74844 0.0
C1243 C 0.01171 0.65687 0.70215 0.0
C1244 C 0.0313 0.66133 0.79132 0.0
C1245 C 0.95902 0.6437 0.82456 0.0
N1246 N 0.01659 0.65794 0.73068 0.0
N1247 N 0.95159 0.64665 0.79647 0.0
loop_
_geom_bond_atom_site_label_1
_geom_bond_atom_site_label_2
_geom_bond_distance
_geom_bond_site_symmetry_2
_ccdc_geom_bond_type
C0 C1 1.351 . S
C0 N3 1.368 . S
C0 H5 0.931 . S
C1 C0 1.351 . S
C1 N2 1.373 . S
C1 H29 0.930 . S
N2 C1 1.373 . S
N2 C4 1.340 . S
N3 C0 1.368 . S
N3 C4 1.321 . S
N3 Co6 2.135 . S
C4 N2 1.340 . S
C4 N3 1.321 . S
C4 H28 0.930 . S
H5 C0 0.931 . S
Co6 N3 2.135 . S
Co6 N9 2.121 . S
Co6 O14 2.055 . S
Co6 O17 2.039 . S
Co6 N20 2.140 . S
C7 O8 1.227 . S
C7 O17 1.265 . S
O8 C7 1.227 . S
N9 Co6 2.121 . S
N9 C11 1.375 . S
N9 C12 1.313 . S
C10 C11 1.338 . S
C10 N13 1.377 . S
C10 H30 0.930 . S
C11 N9 1.375 . S
C11 C10 1.338 . S
C11 H15 0.931 . S
C12 N9 1.313 . S
C12 N13 1.344 . S
C12 H16 0.930 . S
N13 C10 1.377 . S
N13 C12 1.344 . S
O14 Co6 2.055 . S
O14 C18 1.253 . S
H15 C11 0.931 . S
H16 C12 0.930 . S
O17 Co6 2.039 . S
O17 C7 1.265 . S
C18 O14 1.253 . S
C18 O19 1.227 . S
O19 C18 1.227 . S
N20 Co6 2.140 . S
N20 C23 1.346 1_455 S
N20 C24 1.345 . S
C21 C22 1.387 . S
C21 C25 1.391 . S
C22 C21 1.387 . S
C22 C23 1.369 . S
C22 H31 0.929 . S
C23 N20 1.346 1_655 S
C23 C22 1.369 . S
C23 H26 0.928 . S
C24 N20 1.345 . S
C24 C25 1.371 1_455 S
C24 H27 0.931 . S
C25 C21 1.391 . S
C25 C24 1.371 1_655 S
C25 H32 0.930 . S
H26 C23 0.928 . S
H27 C24 0.931 . S
H28 C4 0.930 . S
H29 C1 0.930 . S
H30 C10 0.930 . S
H31 C22 0.929 . S
H32 C25 0.930 . S
C33 C34 1.351 . S
C33 N36 1.368 . S
C33 H38 0.931 . S
C34 C33 1.351 . S
C34 N35 1.373 . S
C34 H62 0.930 . S
N35 C34 1.373 . S
N35 C37 1.340 . S
N36 C33 1.368 . S
N36 C37 1.321 . S
N36 Co39 2.135 . S
C37 N35 1.340 . S
C37 N36 1.321 . S
C37 H61 0.930 . S
H38 C33 0.931 . S
Co39 N36 2.135 . S
Co39 N42 2.121 . S
Co39 O47 2.055 . S
Co39 O50 2.039 . S
Co39 N53 2.140 . S
C40 O41 1.227 . S
C40 O50 1.265 . S
O41 C40 1.227 . S
N42 Co39 2.121 . S
N42 C44 1.375 . S
N42 C45 1.313 . S
C43 C44 1.338 . S
C43 N46 1.377 . S
C43 H63 0.930 . S
C44 N42 1.375 . S
C44 C43 1.338 . S
C44 H48 0.931 . S
C45 N42 1.313 . S
C45 N46 1.344 . S
C45 H49 0.930 . S
N46 C43 1.377 . S
N46 C45 1.344 . S
O47 Co39 2.055 . S
O47 C51 1.253 . S
H48 C44 0.931 . S
H49 C45 0.930 . S
O50 Co39 2.039 . S
O50 C40 1.265 . S
C51 O47 1.253 . S
C51 O52 1.227 . S
O52 C51 1.227 . S
N53 Co39 2.140 . S
N53 C56 1.346 . S
N53 C57 1.345 . S
C54 C55 1.387 . S
C54 C58 1.391 . S
C55 C54 1.387 . S
C55 C56 1.369 . S
C55 H64 0.929 . S
C56 N53 1.346 . S
C56 C55 1.369 . S
C56 H59 0.928 . S
C57 N53 1.345 . S
C57 C58 1.371 . S
C57 H60 0.931 . S
C58 C54 1.391 . S
C58 C57 1.371 . S
C58 H65 0.930 . S
H59 C56 0.928 . S
H60 C57 0.931 . S
H61 C37 0.930 . S
H62 C34 0.930 . S
H63 C43 0.930 . S
H64 C55 0.929 . S
H65 C58 0.930 . S
C66 C67 1.351 . S
C66 N69 1.368 . S
C66 H71 0.931 . S
C67 C66 1.351 . S
C67 N68 1.373 . S
C67 H95 0.930 . S
N68 C67 1.373 . S
N68 C70 1.340 . S
N69 C66 1.368 . S
N69 C70 1.321 . S
N69 Co72 2.135 . S
C70 N68 1.340 . S
C70 N69 1.321 . S
C70 H94 0.930 . S
H71 C66 0.931 . S
Co72 N69 2.135 . S
Co72 N75 2.121 . S
Co72 O80 2.055 . S
Co72 O83 2.039 . S
Co72 N86 2.140 . S
C73 O74 1.227 . S
C73 O83 1.265 . S
O74 C73 1.227 . S
N75 Co72 2.121 . S
N75 C77 1.375 . S
N75 C78 1.313 . S
C76 C77 1.338 . S
C76 N79 1.377 . S
C76 H96 0.930 . S
C77 N75 1.375 . S
C77 C76 1.338 . S
C77 H81 0.931 . S
C78 N75 1.313 . S
C78 N79 1.344 . S
C78 H82 0.930 . S
N79 C76 1.377 . S
N79 C78 1.344 . S
O80 Co72 2.055 . S
O80 C84 1.253 . S
H81 C77 0.931 . S
H82 C78 0.930 . S
O83 Co72 2.039 . S
O83 C73 1.265 . S
C84 O80 1.253 . S
C84 O85 1.227 . S
O85 C84 1.227 . S
N86 Co72 2.140 . S
N86 C89 1.346 . S
N86 C90 1.345 . S
C87 C88 1.387 . S
C87 C91 1.391 . S
C88 C87 1.387 . S
C88 C89 1.369 . S
C88 H97 0.929 . S
C89 N86 1.346 . S
C89 C88 1.369 . S
C89 H92 0.928 . S
C90 N86 1.345 . S
C90 C91 1.371 . S
C90 H93 0.931 . S
C91 C87 1.391 . S
C91 C90 1.371 . S
C91 H98 0.930 . S
H92 C89 0.928 . S
H93 C90 0.931 . S
H94 C70 0.930 . S
H95 C67 0.930 . S
H96 C76 0.930 . S
H97 C88 0.929 . S
H98 C91 0.930 . S
C99 C100 1.351 . S
C99 N102 1.368 . S
C99 H104 0.931 . S
C100 C99 1.351 . S
C100 N101 1.373 . S
C100 H128 0.930 . S
N101 C100 1.373 . S
N101 C103 1.340 . S
N102 C99 1.368 . S
N102 C103 1.321 . S
N102 Co105 2.135 . S
C103 N101 1.340 . S
C103 N102 1.321 . S
C103 H127 0.930 . S
H104 C99 0.931 . S
Co105 N102 2.135 . S
Co105 N108 2.121 . S
Co105 O113 2.055 . S
Co105 O116 2.039 . S
Co105 N119 2.140 . S
C106 O107 1.227 . S
C106 O116 1.265 . S
O107 C106 1.227 . S
N108 Co105 2.121 . S
N108 C110 1.375 . S
N108 C111 1.313 . S
C109 C110 1.338 . S
C109 N112 1.377 . S
C109 H129 0.930 . S
C110 N108 1.375 . S
C110 C109 1.338 . S
C110 H114 0.931 . S
C111 N108 1.313 . S
C111 N112 1.344 . S
C111 H115 0.930 . S
N112 C109 1.377 . S
N112 C111 1.344 . S
O113 Co105 2.055 . S
O113 C117 1.253 . S
H114 C110 0.931 . S
H115 C111 0.930 . S
O116 Co105 2.039 . S
O116 C106 1.265 . S
C117 O113 1.253 . S
C117 O118 1.227 . S
O118 C117 1.227 . S
N119 Co105 2.140 . S
N119 C122 1.346 1_655 S
N119 C123 1.345 . S
C120 C121 1.387 . S
C120 C124 1.391 . S
C121 C120 1.387 . S
C121 C122 1.369 . S
C121 H130 0.929 . S
C122 N119 1.346 1_455 S
C122 C121 1.369 . S
C122 H125 0.928 . S
C123 N119 1.345 . S
C123 C124 1.371 1_655 S
C123 H126 0.931 . S
C124 C120 1.391 . S
C124 C123 1.371 1_455 S
C124 H131 0.930 . S
H125 C122 0.928 . S
H126 C123 0.931 . S
H127 C103 0.930 . S
H128 C100 0.930 . S
H129 C109 0.930 . S
H130 C121 0.929 . S
H131 C124 0.930 . S
C132 C133 1.351 . S
C132 N135 1.368 . S
C132 H137 0.931 . S
C133 C132 1.351 . S
C133 N134 1.373 . S
C133 H161 0.930 . S
N134 C133 1.373 . S
N134 C136 1.340 . S
N135 C132 1.368 . S
N135 C136 1.321 . S
N135 Co138 2.135 . S
C136 N134 1.340 . S
C136 N135 1.321 . S
C136 H160 0.930 . S
H137 C132 0.931 . S
Co138 N135 2.135 . S
Co138 N141 2.121 . S
Co138 O146 2.055 . S
Co138 O149 2.039 . S
Co138 N152 2.140 . S
C139 O140 1.227 . S
C139 O149 1.265 . S
O140 C139 1.227 . S
N141 Co138 2.121 . S
N141 C143 1.375 . S
N141 C144 1.313 . S
C142 C143 1.338 . S
C142 N145 1.377 . S
C142 H162 0.930 . S
C143 N141 1.375 . S
C143 C142 1.338 . S
C143 H147 0.931 . S
C144 N141 1.313 . S
C144 N145 1.344 . S
C144 H148 0.930 . S
N145 C142 1.377 . S
N145 C144 1.344 . S
O146 Co138 2.055 . S
O146 C150 1.253 . S
H147 C143 0.931 . S
H148 C144 0.930 . S
O149 Co138 2.039 . S
O149 C139 1.265 . S
C150 O146 1.253 . S
C150 O151 1.227 . S
O151 C150 1.227 . S
N152 Co138 2.140 . S
N152 C155 1.346 1_655 S
N152 C156 1.345 . S
C153 C154 1.387 . S
C153 C157 1.391 . S
C154 C153 1.387 . S
C154 C155 1.369 . S
C154 H163 0.929 . S
C155 N152 1.346 1_455 S
C155 C154 1.369 . S
C155 H158 0.928 . S
C156 N152 1.345 . S
C156 C157 1.371 1_655 S
C156 H159 0.931 . S
C157 C153 1.391 . S
C157 C156 1.371 1_455 S
C157 H164 0.930 . S
H158 C155 0.928 . S
H159 C156 0.931 . S
H160 C136 0.930 . S
H161 C133 0.930 . S
H162 C142 0.930 . S
H163 C154 0.929 . S
H164 C157 0.930 . S
C165 C166 1.351 . S
C165 N168 1.368 . S
C165 H170 0.931 . S
C166 C165 1.351 . S
C166 N167 1.373 . S
C166 H194 0.930 . S
N167 C166 1.373 . S
N167 C169 1.340 . S
N168 C165 1.368 . S
N168 C169 1.321 . S
N168 Co171 2.135 . S
C169 N167 1.340 . S
C169 N168 1.321 . S
C169 H193 0.930 . S
H170 C165 0.931 . S
Co171 N168 2.135 . S
Co171 N174 2.121 . S
Co171 O179 2.055 . S
Co171 O182 2.039 . S
Co171 N185 2.140 . S
C172 O173 1.227 . S
C172 O182 1.265 . S
O173 C172 1.227 . S
N174 Co171 2.121 . S
N174 C176 1.375 . S
N174 C177 1.313 . S
C175 C176 1.338 . S
C175 N178 1.377 . S
C175 H195 0.930 . S
C176 N174 1.375 . S
C176 C175 1.338 . S
C176 H180 0.931 . S
C177 N174 1.313 . S
C177 N178 1.344 . S
C177 H181 0.930 . S
N178 C175 1.377 . S
N178 C177 1.344 . S
O179 Co171 2.055 . S
O179 C183 1.253 . S
H180 C176 0.931 . S
H181 C177 0.930 . S
O182 Co171 2.039 . S
O182 C172 1.265 . S
C183 O179 1.253 . S
C183 O184 1.227 . S
O184 C183 1.227 . S
N185 Co171 2.140 . S
N185 C188 1.346 . S
N185 C189 1.345 . S
C186 C187 1.387 . S
C186 C190 1.391 . S
C187 C186 1.387 . S
C187 C188 1.369 . S
C187 H196 0.929 . S
C188 N185 1.346 . S
C188 C187 1.369 . S
C188 H191 0.928 . S
C189 N185 1.345 . S
C189 C190 1.371 . S
C189 H192 0.931 . S
C190 C186 1.391 . S
C190 C189 1.371 . S
C190 H197 0.930 . S
H191 C188 0.928 . S
H192 C189 0.931 . S
H193 C169 0.930 . S
H194 C166 0.930 . S
H195 C175 0.930 . S
H196 C187 0.929 . S
H197 C190 0.930 . S
C198 C199 1.351 . S
C198 N201 1.368 . S
C198 H203 0.931 . S
C199 C198 1.351 . S
C199 N200 1.373 . S
C199 H227 0.930 . S
N200 C199 1.373 . S
N200 C202 1.340 . S
N201 C198 1.368 . S
N201 C202 1.321 . S
N201 Co204 2.135 . S
C202 N200 1.340 . S
C202 N201 1.321 . S
C202 H226 0.930 . S
H203 C198 0.931 . S
Co204 N201 2.135 . S
Co204 N207 2.121 . S
Co204 O212 2.055 . S
Co204 O215 2.039 . S
Co204 N218 2.140 . S
C205 O206 1.227 . S
C205 O215 1.265 . S
O206 C205 1.227 . S
N207 Co204 2.121 . S
N207 C209 1.375 . S
N207 C210 1.313 . S
C208 C209 1.338 . S
C208 N211 1.377 . S
C208 H228 0.930 . S
C209 N207 1.375 . S
C209 C208 1.338 . S
C209 H213 0.931 . S
C210 N207 1.313 . S
C210 N211 1.344 . S
C210 H214 0.930 . S
N211 C208 1.377 . S
N211 C210 1.344 . S
O212 Co204 2.055 . S
O212 C216 1.253 . S
H213 C209 0.931 . S
H214 C210 0.930 . S
O215 Co204 2.039 . S
O215 C205 1.265 . S
C216 O212 1.253 . S
C216 O217 1.227 . S
O217 C216 1.227 . S
N218 Co204 2.140 . S
N218 C221 1.346 . S
N218 C222 1.345 . S
C219 C220 1.387 . S
C219 C223 1.391 . S
C220 C219 1.387 . S
C220 C221 1.369 . S
C220 H229 0.929 . S
C221 N218 1.346 . S
C221 C220 1.369 . S
C221 H224 0.928 . S
C222 N218 1.345 . S
C222 C223 1.371 . S
C222 H225 0.931 . S
C223 C219 1.391 . S
C223 C222 1.371 . S
C223 H230 0.930 . S
H224 C221 0.928 . S
H225 C222 0.931 . S
H226 C202 0.930 . S
H227 C199 0.930 . S
H228 C208 0.930 . S
H229 C220 0.929 . S
H230 C223 0.930 . S
C231 C232 1.351 . S
C231 N234 1.368 . S
C231 H236 0.931 . S
C232 C231 1.351 . S
C232 N233 1.373 . S
C232 H260 0.930 . S
N233 C232 1.373 . S
N233 C235 1.340 . S
N234 C231 1.368 . S
N234 C235 1.321 . S
N234 Co237 2.135 . S
C235 N233 1.340 . S
C235 N234 1.321 . S
C235 H259 0.930 . S
H236 C231 0.931 . S
Co237 N234 2.135 . S
Co237 N240 2.121 . S
Co237 O245 2.055 . S
Co237 O248 2.039 . S
Co237 N251 2.140 . S
C238 O239 1.227 . S
C238 O248 1.265 . S
O239 C238 1.227 . S
N240 Co237 2.121 . S
N240 C242 1.375 . S
N240 C243 1.313 . S
C241 C242 1.338 . S
C241 N244 1.377 . S
C241 H261 0.930 . S
C242 N240 1.375 . S
C242 C241 1.338 . S
C242 H246 0.931 . S
C243 N240 1.313 . S
C243 N244 1.344 . S
C243 H247 0.930 . S
N244 C241 1.377 . S
N244 C243 1.344 . S
O245 Co237 2.055 . S
O245 C249 1.253 . S
H246 C242 0.931 . S
H247 C243 0.930 . S
O248 Co237 2.039 . S
O248 C238 1.265 . S
C249 O245 1.253 . S
C249 O250 1.227 . S
O250 C249 1.227 . S
N251 Co237 2.140 . S
N251 C254 1.346 1_455 S
N251 C255 1.345 . S
C252 C253 1.387 . S
C252 C256 1.391 . S
C253 C252 1.387 . S
C253 C254 1.369 . S
C253 H262 0.929 . S
C254 N251 1.346 1_655 S
C254 C253 1.369 . S
C254 H257 0.928 . S
C255 N251 1.345 . S
C255 C256 1.371 1_455 S
C255 H258 0.931 . S
C256 C252 1.391 . S
C256 C255 1.371 1_655 S
C256 H263 0.930 . S
H257 C254 0.928 . S
H258 C255 0.931 . S
H259 C235 0.930 . S
H260 C232 0.930 . S
H261 C241 0.930 . S
H262 C253 0.929 . S
H263 C256 0.930 . S
C264 C265 1.351 . S
C264 N267 1.368 . S
C264 H269 0.931 . S
C265 C264 1.351 . S
C265 N266 1.373 . S
C265 H293 0.930 . S
N266 C265 1.373 . S
N266 C268 1.340 . S
N267 C264 1.368 . S
N267 C268 1.321 . S
N267 Co270 2.135 . S
C268 N266 1.340 . S
C268 N267 1.321 . S
C268 H292 0.930 . S
H269 C264 0.931 . S
Co270 N267 2.135 . S
Co270 N273 2.121 . S
Co270 O278 2.055 . S
Co270 O281 2.039 . S
Co270 N284 2.140 . S
C271 O272 1.227 . S
C271 O281 1.265 . S
O272 C271 1.227 . S
N273 Co270 2.121 . S
N273 C275 1.375 . S
N273 C276 1.313 . S
C274 C275 1.338 . S
C274 N277 1.377 . S
C274 H294 0.930 . S
C275 N273 1.375 . S
C275 C274 1.338 . S
C275 H279 0.931 . S
C276 N273 1.313 . S
C276 N277 1.344 . S
C276 H280 0.930 . S
N277 C274 1.377 . S
N277 C276 1.344 . S
O278 Co270 2.055 . S
O278 C282 1.253 . S
H279 C275 0.931 . S
H280 C276 0.930 . S
O281 Co270 2.039 . S
O281 C271 1.265 . S
C282 O278 1.253 . S
C282 O283 1.227 . S
O283 C282 1.227 . S
N284 Co270 2.140 . S
N284 C287 1.346 . S
N284 C288 1.345 . S
C285 C286 1.387 . S
C285 C289 1.391 . S
C286 C285 1.387 . S
C286 C287 1.369 . S
C286 H295 0.929 . S
C287 N284 1.346 . S
C287 C286 1.369 . S
C287 H290 0.928 . S
C288 N284 1.345 . S
C288 C289 1.371 . S
C288 H291 0.931 . S
C289 C285 1.391 . S
C289 C288 1.371 . S
C289 H296 0.930 . S
H290 C287 0.928 . S
H291 C288 0.931 . S
H292 C268 0.930 . S
H293 C265 0.930 . S
H294 C274 0.930 . S
H295 C286 0.929 . S
H296 C289 0.930 . S
C297 C298 1.351 . S
C297 N300 1.368 . S
C297 H302 0.931 . S
C298 C297 1.351 . S
C298 N299 1.373 . S
C298 H326 0.930 . S
N299 C298 1.373 . S
N299 C301 1.340 . S
N300 C297 1.368 . S
N300 C301 1.321 . S
N300 Co303 2.135 . S
C301 N299 1.340 . S
C301 N300 1.321 . S
C301 H325 0.930 . S
H302 C297 0.931 . S
Co303 N300 2.135 . S
Co303 N306 2.121 . S
Co303 O311 2.055 . S
Co303 O314 2.039 . S
Co303 N317 2.140 . S
C304 O305 1.227 . S
C304 O314 1.265 . S
O305 C304 1.227 . S
N306 Co303 2.121 . S
N306 C308 1.375 . S
N306 C309 1.313 . S
C307 C308 1.338 . S
C307 N310 1.377 . S
C307 H327 0.930 . S
C308 N306 1.375 . S
C308 C307 1.338 . S
C308 H312 0.931 . S
C309 N306 1.313 . S
C309 N310 1.344 . S
C309 H313 0.930 . S
N310 C307 1.377 . S
N310 C309 1.344 . S
O311 Co303 2.055 . S
O311 C315 1.253 . S
H312 C308 0.931 . S
H313 C309 0.930 . S
O314 Co303 2.039 . S
O314 C304 1.265 . S
C315 O311 1.253 . S
C315 O316 1.227 . S
O316 C315 1.227 . S
N317 Co303 2.140 . S
N317 C320 1.346 1_655 S
N317 C321 1.345 . S
C318 C319 1.387 . S
C318 C322 1.391 . S
C319 C318 1.387 . S
C319 C320 1.369 . S
C319 H328 0.929 . S
C320 N317 1.346 1_455 S
C320 C319 1.369 . S
C320 H323 0.928 . S
C321 N317 1.345 . S
C321 C322 1.371 1_655 S
C321 H324 0.931 . S
C322 C318 1.391 . S
C322 C321 1.371 1_455 S
C322 H329 0.930 . S
H323 C320 0.928 . S
H324 C321 0.931 . S
H325 C301 0.930 . S
H326 C298 0.930 . S
H327 C307 0.930 . S
H328 C319 0.929 . S
H329 C322 0.930 . S
C330 C331 1.351 . S
C330 N333 1.368 . S
C330 H335 0.931 . S
C331 C330 1.351 . S
C331 N332 1.373 . S
C331 H359 0.930 . S
N332 C331 1.373 . S
N332 C334 1.340 . S
N333 C330 1.368 . S
N333 C334 1.321 . S
N333 Co336 2.135 . S
C334 N332 1.340 . S
C334 N333 1.321 . S
C334 H358 0.930 . S
H335 C330 0.931 . S
Co336 N333 2.135 . S
Co336 N339 2.121 . S
Co336 O344 2.055 . S
Co336 O347 2.039 . S
Co336 N350 2.140 . S
C337 O338 1.227 . S
C337 O347 1.265 . S
O338 C337 1.227 . S
N339 Co336 2.121 . S
N339 C341 1.375 . S
N339 C342 1.313 . S
C340 C341 1.338 . S
C340 N343 1.377 . S
C340 H360 0.930 . S
C341 N339 1.375 . S
C341 C340 1.338 . S
C341 H345 0.931 . S
C342 N339 1.313 . S
C342 N343 1.344 . S
C342 H346 0.930 . S
N343 C340 1.377 . S
N343 C342 1.344 . S
O344 Co336 2.055 . S
O344 C348 1.253 . S
H345 C341 0.931 . S
H346 C342 0.930 . S
O347 Co336 2.039 . S
O347 C337 1.265 . S
C348 O344 1.253 . S
C348 O349 1.227 . S
O349 C348 1.227 . S
N350 Co336 2.140 . S
N350 C353 1.346 1_455 S
N350 C354 1.345 . S
C351 C352 1.387 . S
C351 C355 1.391 . S
C352 C351 1.387 . S
C352 C353 1.369 . S
C352 H361 0.929 . S
C353 N350 1.346 1_655 S
C353 C352 1.369 . S
C353 H356 0.928 . S
C354 N350 1.345 . S
C354 C355 1.371 1_455 S
C354 H357 0.931 . S
C355 C351 1.391 . S
C355 C354 1.371 1_655 S
C355 H362 0.930 . S
H356 C353 0.928 . S
H357 C354 0.931 . S
H358 C334 0.930 . S
H359 C331 0.930 . S
H360 C340 0.930 . S
H361 C352 0.929 . S
H362 C355 0.930 . S
C363 C364 1.351 . S
C363 N366 1.368 . S
C363 H368 0.931 . S
C364 C363 1.351 . S
C364 N365 1.373 . S
C364 H392 0.930 . S
N365 C364 1.373 . S
N365 C367 1.340 . S
N366 C363 1.368 . S
N366 C367 1.321 . S
N366 Co369 2.135 . S
C367 N365 1.340 . S
C367 N366 1.321 . S
C367 H391 0.930 . S
H368 C363 0.931 . S
Co369 N366 2.135 . S
Co369 N372 2.121 . S
Co369 O377 2.055 . S
Co369 O380 2.039 . S
Co369 N383 2.140 . S
C370 O371 1.227 . S
C370 O380 1.265 . S
O371 C370 1.227 . S
N372 Co369 2.121 . S
N372 C374 1.375 . S
N372 C375 1.313 . S
C373 C374 1.338 . S
C373 N376 1.377 . S
C373 H393 0.930 . S
C374 N372 1.375 . S
C374 C373 1.338 . S
C374 H378 0.931 . S
C375 N372 1.313 . S
C375 N376 1.344 . S
C375 H379 0.930 . S
N376 C373 1.377 . S
N376 C375 1.344 . S
O377 Co369 2.055 . S
O377 C381 1.253 . S
H378 C374 0.931 . S
H379 C375 0.930 . S
O380 Co369 2.039 . S
O380 C370 1.265 . S
C381 O377 1.253 . S
C381 O382 1.227 . S
O382 C381 1.227 . S
N383 Co369 2.140 . S
N383 C386 1.346 . S
N383 C387 1.345 . S
C384 C385 1.387 . S
C384 C388 1.391 . S
C385 C384 1.387 . S
C385 C386 1.369 . S
C385 H394 0.929 . S
C386 N383 1.346 . S
C386 C385 1.369 . S
C386 H389 0.928 . S
C387 N383 1.345 . S
C387 C388 1.371 . S
C387 H390 0.931 . S
C388 C384 1.391 . S
C388 C387 1.371 . S
C388 H395 0.930 . S
H389 C386 0.928 . S
H390 C387 0.931 . S
H391 C367 0.930 . S
H392 C364 0.930 . S
H393 C373 0.930 . S
H394 C385 0.929 . S
H395 C388 0.930 . S
C396 C397 1.351 . S
C396 N399 1.368 . S
C396 H401 0.931 . S
C397 C396 1.351 . S
C397 N398 1.373 . S
C397 H425 0.930 . S
N398 C397 1.373 . S
N398 C400 1.340 . S
N399 C396 1.368 . S
N399 C400 1.321 . S
N399 Co402 2.135 . S
C400 N398 1.340 . S
C400 N399 1.321 . S
C400 H424 0.930 . S
H401 C396 0.931 . S
Co402 N399 2.135 . S
Co402 N405 2.121 . S
Co402 O410 2.055 . S
Co402 O413 2.039 . S
Co402 N416 2.140 . S
C403 O404 1.227 . S
C403 O413 1.265 . S
O404 C403 1.227 . S
N405 Co402 2.121 . S
N405 C407 1.375 . S
N405 C408 1.313 . S
C406 C407 1.338 . S
C406 N409 1.377 . S
C406 H426 0.930 . S
C407 N405 1.375 . S
C407 C406 1.338 . S
C407 H411 0.931 . S
C408 N405 1.313 . S
C408 N409 1.344 . S
C408 H412 0.930 . S
N409 C406 1.377 . S
N409 C408 1.344 . S
O410 Co402 2.055 . S
O410 C414 1.253 . S
H411 C407 0.931 . S
H412 C408 0.930 . S
O413 Co402 2.039 . S
O413 C403 1.265 . S
C414 O410 1.253 . S
C414 O415 1.227 . S
O415 C414 1.227 . S
N416 Co402 2.140 . S
N416 C419 1.346 . S
N416 C420 1.345 . S
C417 C418 1.387 . S
C417 C421 1.391 . S
C418 C417 1.387 . S
C418 C419 1.369 . S
C418 H427 0.929 . S
C419 N416 1.346 . S
C419 C418 1.369 . S
C419 H422 0.928 . S
C420 N416 1.345 . S
C420 C421 1.371 . S
C420 H423 0.931 . S
C421 C417 1.391 . S
C421 C420 1.371 . S
C421 H428 0.930 . S
H422 C419 0.928 . S
H423 C420 0.931 . S
H424 C400 0.930 . S
H425 C397 0.930 . S
H426 C406 0.930 . S
H427 C418 0.929 . S
H428 C421 0.930 . S
C429 C430 1.351 . S
C429 N432 1.368 . S
C429 H434 0.931 . S
C430 C429 1.351 . S
C430 N431 1.373 . S
C430 H458 0.930 . S
N431 C430 1.373 . S
N431 C433 1.340 . S
N432 C429 1.368 . S
N432 C433 1.321 . S
N432 Co435 2.135 . S
C433 N431 1.340 . S
C433 N432 1.321 . S
C433 H457 0.930 . S
H434 C429 0.931 . S
Co435 N432 2.135 . S
Co435 N438 2.121 . S
Co435 O443 2.055 . S
Co435 O446 2.039 . S
Co435 N449 2.140 . S
C436 O437 1.227 . S
C436 O446 1.265 . S
O437 C436 1.227 . S
N438 Co435 2.121 . S
N438 C440 1.375 . S
N438 C441 1.313 . S
C439 C440 1.338 . S
C439 N442 1.377 . S
C439 H459 0.930 . S
C440 N438 1.375 . S
C440 C439 1.338 . S
C440 H444 0.931 . S
C441 N438 1.313 . S
C441 N442 1.344 . S
C441 H445 0.930 . S
N442 C439 1.377 . S
N442 C441 1.344 . S
O443 Co435 2.055 . S
O443 C447 1.253 . S
H444 C440 0.931 . S
H445 C441 0.930 . S
O446 Co435 2.039 . S
O446 C436 1.265 . S
C447 O443 1.253 . S
C447 O448 1.227 . S
O448 C447 1.227 . S
N449 Co435 2.140 . S
N449 C452 1.346 1_455 S
N449 C453 1.345 . S
C450 C451 1.387 . S
C450 C454 1.391 . S
C451 C450 1.387 . S
C451 C452 1.369 . S
C451 H460 0.929 . S
C452 N449 1.346 1_655 S
C452 C451 1.369 . S
C452 H455 0.928 . S
C453 N449 1.345 . S
C453 C454 1.371 1_455 S
C453 H456 0.931 . S
C454 C450 1.391 . S
C454 C453 1.371 1_655 S
C454 H461 0.930 . S
H455 C452 0.928 . S
H456 C453 0.931 . S
H457 C433 0.930 . S
H458 C430 0.930 . S
H459 C439 0.930 . S
H460 C451 0.929 . S
H461 C454 0.930 . S
C462 C463 1.351 . S
C462 N465 1.368 . S
C462 H467 0.931 . S
C463 C462 1.351 . S
C463 N464 1.373 . S
C463 H491 0.930 . S
N464 C463 1.373 . S
N464 C466 1.340 . S
N465 C462 1.368 . S
N465 C466 1.321 . S
N465 Co468 2.135 . S
C466 N464 1.340 . S
C466 N465 1.321 . S
C466 H490 0.930 . S
H467 C462 0.931 . S
Co468 N465 2.135 . S
Co468 N471 2.121 . S
Co468 O476 2.055 . S
Co468 O479 2.039 . S
Co468 N482 2.140 . S
C469 O470 1.227 . S
C469 O479 1.265 . S
O470 C469 1.227 . S
N471 Co468 2.121 . S
N471 C473 1.375 . S
N471 C474 1.313 . S
C472 C473 1.338 . S
C472 N475 1.377 . S
C472 H492 0.930 . S
C473 N471 1.375 . S
C473 C472 1.338 . S
C473 H477 0.931 . S
C474 N471 1.313 . S
C474 N475 1.344 . S
C474 H478 0.930 . S
N475 C472 1.377 . S
N475 C474 1.344 . S
O476 Co468 2.055 . S
O476 C480 1.253 . S
H477 C473 0.931 . S
H478 C474 0.930 . S
O479 Co468 2.039 . S
O479 C469 1.265 . S
C480 O476 1.253 . S
C480 O481 1.227 . S
O481 C480 1.227 . S
N482 Co468 2.140 . S
N482 C485 1.346 1_655 S
N482 C486 1.345 . S
C483 C484 1.387 . S
C483 C487 1.391 . S
C484 C483 1.387 . S
C484 C485 1.369 . S
C484 H493 0.929 . S
C485 N482 1.346 1_455 S
C485 C484 1.369 . S
C485 H488 0.928 . S
C486 N482 1.345 . S
C486 C487 1.371 1_655 S
C486 H489 0.931 . S
C487 C483 1.391 . S
C487 C486 1.371 1_455 S
C487 H494 0.930 . S
H488 C485 0.928 . S
H489 C486 0.931 . S
H490 C466 0.930 . S
H491 C463 0.930 . S
H492 C472 0.930 . S
H493 C484 0.929 . S
H494 C487 0.930 . S
C495 C496 1.351 . S
C495 N498 1.368 . S
C495 H500 0.931 . S
C496 C495 1.351 . S
C496 N497 1.373 . S
C496 H524 0.930 . S
N497 C496 1.373 . S
N497 C499 1.340 . S
N498 C495 1.368 . S
N498 C499 1.321 . S
N498 Co501 2.135 . S
C499 N497 1.340 . S
C499 N498 1.321 . S
C499 H523 0.930 . S
H500 C495 0.931 . S
Co501 N498 2.135 . S
Co501 N504 2.121 . S
Co501 O509 2.055 . S
Co501 O512 2.039 . S
Co501 N515 2.140 . S
C502 O503 1.227 . S
C502 O512 1.265 . S
O503 C502 1.227 . S
N504 Co501 2.121 . S
N504 C506 1.375 . S
N504 C507 1.313 . S
C505 C506 1.338 . S
C505 N508 1.377 . S
C505 H525 0.930 . S
C506 N504 1.375 . S
C506 C505 1.338 . S
C506 H510 0.931 . S
C507 N504 1.313 . S
C507 N508 1.344 . S
C507 H511 0.930 . S
N508 C505 1.377 . S
N508 C507 1.344 . S
O509 Co501 2.055 . S
O509 C513 1.253 . S
H510 C506 0.931 . S
H511 C507 0.930 . S
O512 Co501 2.039 . S
O512 C502 1.265 . S
C513 O509 1.253 . S
C513 O514 1.227 . S
O514 C513 1.227 . S
N515 Co501 2.140 . S
N515 C518 1.346 . S
N515 C519 1.345 . S
C516 C517 1.387 . S
C516 C520 1.391 . S
C517 C516 1.387 . S
C517 C518 1.369 . S
C517 H526 0.929 . S
C518 N515 1.346 . S
C518 C517 1.369 . S
C518 H521 0.928 . S
C519 N515 1.345 . S
C519 C520 1.371 . S
C519 H522 0.931 . S
C520 C516 1.391 . S
C520 C519 1.371 . S
C520 H527 0.930 . S
H521 C518 0.928 . S
H522 C519 0.931 . S
H523 C499 0.930 . S
H524 C496 0.930 . S
H525 C505 0.930 . S
H526 C517 0.929 . S
H527 C520 0.930 . S
H528 C534 0.930 . S
H529 C538 0.930 . S
H530 C543 0.929 . S
H531 C541 0.929 . S
H532 C536 0.929 1_556 S
H533 C542 0.929 . S
C534 H528 0.930 . S
C534 C535 1.367 . S
C534 C542 1.378 1_556 S
C535 C534 1.367 . S
C535 C543 1.433 . S
C536 H532 0.929 1_554 S
C536 C538 1.378 . S
C536 C540 1.350 . S
C537 C540 1.481 . S
C537 C542 1.356 . S
C537 N545 1.402 1_554 S
C538 H529 0.930 . S
C538 C536 1.378 . S
C538 C539 1.367 . S
C539 C538 1.367 . S
C539 C541 1.433 . S
C540 C536 1.350 . S
C540 C537 1.481 . S
C540 N544 1.427 . S
C541 H531 0.929 . S
C541 C539 1.433 . S
C541 N544 1.384 . S
C542 H533 0.929 . S
C542 C534 1.378 1_554 S
C542 C537 1.356 . S
C543 H530 0.929 . S
C543 C535 1.433 . S
C543 N545 1.384 . S
N544 C540 1.427 . S
N544 C541 1.384 . S
N545 C537 1.402 1_556 S
N545 C543 1.384 . S
H546 C552 0.930 . S
H547 C556 0.930 . S
H548 C561 0.929 . S
H549 C559 0.929 . S
H550 C554 0.929 . S
H551 C560 0.929 . S
C552 H546 0.930 . S
C552 C553 1.367 . S
C552 C560 1.378 . S
C553 C552 1.367 . S
C553 C561 1.433 . S
C554 H550 0.929 . S
C554 C556 1.378 . S
C554 C558 1.350 . S
C555 C558 1.462 1_556 S
C555 C560 1.351 . S
C555 N563 1.427 1_556 S
C556 H547 0.930 . S
C556 C554 1.378 . S
C556 C557 1.367 . S
C557 C556 1.367 . S
C557 C559 1.433 . S
C558 C554 1.350 . S
C558 C555 1.462 1_554 S
C558 N562 1.427 . S
C559 H549 0.929 . S
C559 C557 1.433 . S
C559 N562 1.384 . S
C560 H551 0.929 . S
C560 C552 1.378 . S
C560 C555 1.351 . S
C561 H548 0.929 . S
C561 C553 1.433 . S
C561 N563 1.384 1_556 S
N562 C558 1.427 . S
N562 C559 1.384 . S
N563 C555 1.427 1_554 S
N563 C561 1.384 1_554 S
H564 C570 0.930 . S
H565 C574 0.930 . S
H566 C579 0.929 . S
H567 C577 0.929 . S
H568 C572 0.929 . S
H569 C578 0.929 . S
C570 H564 0.930 . S
C570 C571 1.367 . S
C570 C578 1.378 . S
C571 C570 1.367 . S
C571 C579 1.433 . S
C572 H568 0.929 . S
C572 C574 1.378 . S
C572 C576 1.350 . S
C573 C576 1.463 . S
C573 C578 1.350 . S
C573 N581 1.427 . S
C574 H565 0.930 . S
C574 C572 1.378 . S
C574 C575 1.367 . S
C575 C574 1.367 . S
C575 C577 1.433 . S
C576 C572 1.350 . S
C576 C573 1.463 . S
C576 N580 1.427 . S
C577 H567 0.929 . S
C577 C575 1.433 . S
C577 N580 1.384 . S
C578 H569 0.929 . S
C578 C570 1.378 . S
C578 C573 1.350 . S
C579 H566 0.929 . S
C579 C571 1.433 . S
C579 N581 1.384 . S
N580 C576 1.427 . S
N580 C577 1.384 . S
N581 C573 1.427 . S
N581 C579 1.384 . S
H582 C588 0.930 . S
H583 C592 0.930 . S
H584 C597 0.929 . S
H585 C595 0.929 . S
H586 C590 0.929 . S
H587 C596 0.929 . S
C588 H582 0.930 . S
C588 C589 1.367 . S
C588 C596 1.378 . S
C589 C588 1.367 . S
C589 C597 1.433 . S
C590 H586 0.929 . S
C590 C592 1.378 . S
C590 C594 1.350 . S
C591 C594 1.463 . S
C591 C596 1.350 . S
C591 N599 1.427 . S
C592 H583 0.930 . S
C592 C590 1.378 . S
C592 C593 1.367 . S
C593 C592 1.367 . S
C593 C595 1.433 . S
C594 C590 1.350 . S
C594 C591 1.463 . S
C594 N598 1.427 . S
C595 H585 0.929 . S
C595 C593 1.433 . S
C595 N598 1.384 . S
C596 H587 0.929 . S
C596 C588 1.378 . S
C596 C591 1.350 . S
C597 H584 0.929 . S
C597 C589 1.433 . S
C597 N599 1.384 . S
N598 C594 1.427 . S
N598 C595 1.384 . S
N599 C591 1.427 . S
N599 C597 1.384 . S
H600 C606 0.930 . S
H601 C610 0.930 . S
H602 C615 0.929 . S
H603 C613 0.929 . S
H604 C608 0.929 . S
H605 C614 0.929 . S
C606 H600 0.930 . S
C606 C607 1.367 . S
C606 C614 1.378 . S
C607 C606 1.367 . S
C607 C615 1.433 . S
C608 H604 0.929 . S
C608 C610 1.378 . S
C608 C612 1.348 1_554 S
C609 C612 1.466 . S
C609 C614 1.350 . S
C609 N617 1.427 . S
C610 H601 0.930 . S
C610 C608 1.378 . S
C610 C611 1.367 . S
C611 C610 1.367 . S
C611 C613 1.433 . S
C612 C608 1.348 1_556 S
C612 C609 1.466 . S
C612 N616 1.426 1_556 S
C613 H603 0.929 . S
C613 C611 1.433 . S
C613 N616 1.384 . S
C614 H605 0.929 . S
C614 C606 1.378 . S
C614 C609 1.350 . S
C615 H602 0.929 . S
C615 C607 1.433 . S
C615 N617 1.384 . S
N616 C612 1.426 1_554 S
N616 C613 1.384 . S
N617 C609 1.427 . S
N617 C615 1.384 . S
H618 C624 0.930 . S
H619 C628 0.930 . S
H620 C633 0.929 . S
H621 C631 0.929 . S
H622 C626 0.929 . S
H623 C632 0.929 . S
C624 H618 0.930 . S
C624 C625 1.367 . S
C624 C632 1.378 . S
C625 C624 1.367 . S
C625 C633 1.433 . S
C626 H622 0.929 . S
C626 C628 1.378 . S
C626 C630 1.348 1_554 S
C627 C630 1.468 . S
C627 C632 1.350 . S
C627 N635 1.427 . S
C628 H619 0.930 . S
C628 C626 1.378 . S
C628 C629 1.367 . S
C629 C628 1.367 . S
C629 C631 1.433 . S
C630 C626 1.348 1_556 S
C630 C627 1.468 . S
C630 N634 1.425 1_556 S
C631 H621 0.929 . S
C631 C629 1.433 . S
C631 N634 1.384 . S
C632 H623 0.929 . S
C632 C624 1.378 . S
C632 C627 1.350 . S
C633 H620 0.929 . S
C633 C625 1.433 . S
C633 N635 1.384 . S
N634 C630 1.425 1_554 S
N634 C631 1.384 . S
N635 C627 1.427 . S
N635 C633 1.384 . S
H636 C642 0.930 . S
H637 C646 0.930 . S
H638 C651 0.929 . S
H639 C649 0.929 . S
H640 C644 0.929 . S
H641 C650 0.929 . S
C642 H636 0.930 . S
C642 C643 1.367 . S
C642 C650 1.378 . S
C643 C642 1.367 . S
C643 C651 1.433 . S
C644 H640 0.929 . S
C644 C646 1.378 . S
C644 C648 1.350 . S
C645 C648 1.463 . S
C645 C650 1.350 . S
C645 N653 1.427 . S
C646 H637 0.930 . S
C646 C644 1.378 . S
C646 C647 1.367 . S
C647 C646 1.367 . S
C647 C649 1.433 . S
C648 C644 1.350 . S
C648 C645 1.463 . S
C648 N652 1.427 . S
C649 H639 0.929 . S
C649 C647 1.433 . S
C649 N652 1.384 . S
C650 H641 0.929 . S
C650 C642 1.378 . S
C650 C645 1.350 . S
C651 H638 0.929 . S
C651 C643 1.433 . S
C651 N653 1.384 . S
N652 C648 1.427 . S
N652 C649 1.384 . S
N653 C645 1.427 . S
N653 C651 1.384 . S
H654 C660 0.930 . S
H655 C664 0.930 . S
H656 C669 0.929 . S
H657 C667 0.929 . S
H658 C662 0.929 . S
H659 C668 0.929 . S
C660 H654 0.930 . S
C660 C661 1.367 . S
C660 C668 1.378 . S
C661 C660 1.367 . S
C661 C669 1.433 . S
C662 H658 0.929 . S
C662 C664 1.378 . S
C662 C666 1.350 . S
C663 C666 1.463 . S
C663 C668 1.350 . S
C663 N671 1.427 . S
C664 H655 0.930 . S
C664 C662 1.378 . S
C664 C665 1.367 . S
C665 C664 1.367 . S
C665 C667 1.433 . S
C666 C662 1.350 . S
C666 C663 1.463 . S
C666 N670 1.427 . S
C667 H657 0.929 . S
C667 C665 1.433 . S
C667 N670 1.384 . S
C668 H659 0.929 . S
C668 C660 1.378 . S
C668 C663 1.350 . S
C669 H656 0.929 . S
C669 C661 1.433 . S
C669 N671 1.384 . S
N670 C666 1.427 . S
N670 C667 1.384 . S
N671 C663 1.427 . S
N671 C669 1.384 . S
H672 C678 0.930 . S
H673 C682 0.930 . S
H674 C687 0.929 . S
H675 C685 0.929 . S
H676 C680 0.929 . S
H677 C686 0.929 1_556 S
C678 H672 0.930 . S
C678 C679 1.367 . S
C678 C686 1.378 . S
C679 C678 1.367 . S
C679 C687 1.433 . S
C680 H676 0.929 . S
C680 C682 1.378 1_554 S
C680 C684 1.357 . S
C681 C684 1.482 . S
C681 C686 1.350 . S
C681 N689 1.427 . S
C682 H673 0.930 . S
C682 C680 1.378 1_556 S
C682 C683 1.367 . S
C683 C682 1.367 . S
C683 C685 1.433 . S
C684 C680 1.357 . S
C684 C681 1.482 . S
C684 N688 1.401 1_554 S
C685 H675 0.929 . S
C685 C683 1.433 . S
C685 N688 1.384 . S
C686 H677 0.929 1_554 S
C686 C678 1.378 . S
C686 C681 1.350 . S
C687 H674 0.929 . S
C687 C679 1.433 . S
C687 N689 1.384 . S
N688 C684 1.401 1_556 S
N688 C685 1.384 . S
N689 C681 1.427 . S
N689 C687 1.384 . S
H690 C696 0.930 . S
H691 C700 0.935 . S
H692 C705 0.929 . S
H693 C703 0.929 . S
H694 C698 0.929 . S
H695 C704 0.929 1_556 S
C696 H690 0.930 . S
C696 C697 1.367 . S
C696 C704 1.378 . S
C697 C696 1.367 . S
C697 C705 1.433 . S
C698 H694 0.929 . S
C698 C700 1.378 1_554 S
C698 C702 1.364 . S
C699 C702 1.486 . S
C699 C704 1.350 . S
C699 N707 1.427 . S
C700 H691 0.935 . S
C700 C698 1.378 1_556 S
C700 C701 1.367 . S
C701 C700 1.367 . S
C701 C703 1.433 . S
C702 C698 1.364 . S
C702 C699 1.486 . S
C702 N706 1.389 1_554 S
C703 H693 0.929 . S
C703 C701 1.433 . S
C703 N706 1.384 . S
C704 H695 0.929 1_554 S
C704 C696 1.378 . S
C704 C699 1.350 . S
C705 H692 0.929 . S
C705 C697 1.433 . S
C705 N707 1.384 . S
N706 C702 1.389 1_556 S
N706 C703 1.384 . S
N707 C699 1.427 . S
N707 C705 1.384 . S
H708 C714 0.930 . S
H709 C718 0.930 . S
H710 C723 0.929 . S
H711 C721 0.929 . S
H712 C716 0.929 . S
H713 C722 0.929 . S
C714 H708 0.930 . S
C714 C715 1.367 . S
C714 C722 1.378 . S
C715 C714 1.367 . S
C715 C723 1.433 . S
C716 H712 0.929 . S
C716 C718 1.378 . S
C716 C720 1.350 . S
C717 C720 1.463 . S
C717 C722 1.350 . S
C717 N725 1.427 . S
C718 H709 0.930 . S
C718 C716 1.378 . S
C718 C719 1.367 . S
C719 C718 1.367 . S
C719 C721 1.433 . S
C720 C716 1.350 . S
C720 C717 1.463 . S
C720 N724 1.427 . S
C721 H711 0.929 . S
C721 C719 1.433 . S
C721 N724 1.384 . S
C722 H713 0.929 . S
C722 C714 1.378 . S
C722 C717 1.350 . S
C723 H710 0.929 . S
C723 C715 1.433 . S
C723 N725 1.384 . S
N724 C720 1.427 . S
N724 C721 1.384 . S
N725 C717 1.427 . S
N725 C723 1.384 . S
H726 C732 0.930 . S
H727 C736 0.930 . S
H728 C741 0.929 . S
H729 C739 0.929 . S
H730 C734 0.929 . S
H731 C740 0.929 . S
C732 H726 0.930 . S
C732 C733 1.367 . S
C732 C740 1.378 . S
C733 C732 1.367 . S
C733 C741 1.433 . S
C734 H730 0.929 . S
C734 C736 1.378 . S
C734 C738 1.350 . S
C735 C738 1.463 . S
C735 C740 1.350 . S
C735 N743 1.427 . S
C736 H727 0.930 . S
C736 C734 1.378 . S
C736 C737 1.367 . S
C737 C736 1.367 . S
C737 C739 1.433 . S
C738 C734 1.350 . S
C738 C735 1.463 . S
C738 N742 1.427 . S
C739 H729 0.929 . S
C739 C737 1.433 . S
C739 N742 1.384 . S
C740 H731 0.929 . S
C740 C732 1.378 . S
C740 C735 1.350 . S
C741 H728 0.929 . S
C741 C733 1.433 . S
C741 N743 1.384 . S
N742 C738 1.427 . S
N742 C739 1.384 . S
N743 C735 1.427 . S
N743 C741 1.384 . S
H744 C750 0.930 . S
H745 C754 0.930 . S
H746 C759 0.929 . S
H747 C757 0.929 . S
H748 C752 0.929 . S
H749 C758 0.929 1_554 S
C750 H744 0.930 . S
C750 C751 1.367 . S
C750 C758 1.378 . S
C751 C750 1.367 . S
C751 C759 1.433 . S
C752 H748 0.929 . S
C752 C754 1.378 1_556 S
C752 C756 1.357 . S
C753 C756 1.482 . S
C753 C758 1.350 . S
C753 N761 1.427 . S
C754 H745 0.930 . S
C754 C752 1.378 1_554 S
C754 C755 1.367 . S
C755 C754 1.367 . S
C755 C757 1.433 . S
C756 C752 1.357 . S
C756 C753 1.482 . S
C756 N760 1.401 1_556 S
C757 H747 0.929 . S
C757 C755 1.433 . S
C757 N760 1.384 . S
C758 H749 0.929 1_556 S
C758 C750 1.378 . S
C758 C753 1.350 . S
C759 H746 0.929 . S
C759 C751 1.433 . S
C759 N761 1.384 . S
N760 C756 1.401 1_554 S
N760 C757 1.384 . S
N761 C753 1.427 . S
N761 C759 1.384 . S
H762 C768 0.930 . S
H763 C772 0.930 . S
H764 C777 0.929 . S
H765 C775 0.929 . S
H766 C770 0.929 . S
H767 C776 0.929 . S
C768 H762 0.930 . S
C768 C769 1.367 . S
C768 C776 1.378 . S
C769 C768 1.367 . S
C769 C777 1.433 . S
C770 H766 0.929 . S
C770 C772 1.378 . S
C770 C774 1.353 . S
C771 C774 1.460 1_556 S
C771 C776 1.350 . S
C771 N779 1.427 . S
C772 H763 0.930 . S
C772 C770 1.378 . S
C772 C773 1.367 . S
C773 C772 1.367 . S
C773 C775 1.433 . S
C774 C770 1.353 . S
C774 C771 1.460 1_554 S
C774 N778 1.427 1_554 S
C775 H765 0.929 . S
C775 C773 1.433 . S
C775 N778 1.384 1_554 S
C776 H767 0.929 . S
C776 C768 1.378 . S
C776 C771 1.350 . S
C777 H764 0.929 . S
C777 C769 1.433 . S
C777 N779 1.384 . S
N778 C774 1.427 1_556 S
N778 C775 1.384 1_556 S
N779 C771 1.427 . S
N779 C777 1.384 . S
H780 C786 0.930 . S
H781 C790 0.930 . S
H782 C795 0.929 . S
H783 C793 0.929 . S
H784 C788 0.929 . S
H785 C794 0.929 . S
C786 H780 0.930 . S
C786 C787 1.367 . S
C786 C794 1.378 . S
C787 C786 1.367 . S
C787 C795 1.433 . S
C788 H784 0.929 . S
C788 C790 1.378 . S
C788 C792 1.350 . S
C789 C792 1.463 . S
C789 C794 1.350 . S
C789 N797 1.427 . S
C790 H781 0.930 . S
C790 C788 1.378 . S
C790 C791 1.367 . S
C791 C790 1.367 . S
C791 C793 1.433 . S
C792 C788 1.350 . S
C792 C789 1.463 . S
C792 N796 1.427 . S
C793 H783 0.929 . S
C793 C791 1.433 . S
C793 N796 1.384 . S
C794 H785 0.929 . S
C794 C786 1.378 . S
C794 C789 1.350 . S
C795 H782 0.929 . S
C795 C787 1.433 . S
C795 N797 1.384 . S
N796 C792 1.427 . S
N796 C793 1.384 . S
N797 C789 1.427 . S
N797 C795 1.384 . S
H798 C804 0.930 . S
H799 C808 0.930 . S
H800 C813 0.929 . S
H801 C811 0.929 . S
H802 C806 0.929 . S
H803 C812 0.929 . S
C804 H798 0.930 . S
C804 C805 1.367 . S
C804 C812 1.378 . S
C805 C804 1.367 . S
C805 C813 1.433 . S
C806 H802 0.929 . S
C806 C808 1.378 . S
C806 C810 1.350 . S
C807 C810 1.463 . S
C807 C812 1.350 . S
C807 N815 1.427 . S
C808 H799 0.930 . S
C808 C806 1.378 . S
C808 C809 1.367 . S
C809 C808 1.367 . S
C809 C811 1.433 . S
C810 C806 1.350 . S
C810 C807 1.463 . S
C810 N814 1.427 . S
C811 H801 0.929 . S
C811 C809 1.433 . S
C811 N814 1.384 . S
C812 H803 0.929 . S
C812 C804 1.378 . S
C812 C807 1.350 . S
C813 H800 0.929 . S
C813 C805 1.433 . S
C813 N815 1.384 . S
N814 C810 1.427 . S
N814 C811 1.384 . S
N815 C807 1.427 . S
N815 C813 1.384 . S
H816 C822 0.930 . S
H817 C826 0.930 . S
H818 C831 0.929 . S
H819 C829 0.929 . S
H820 C824 0.929 . S
H821 C830 0.929 . S
C822 H816 0.930 . S
C822 C823 1.367 . S
C822 C830 1.378 . S
C823 C822 1.367 . S
C823 C831 1.433 . S
C824 H820 0.929 . S
C824 C826 1.378 . S
C824 C828 1.350 . S
C825 C828 1.463 1_545 S
C825 C830 1.350 . S
C825 N833 1.427 . S
C826 H817 0.930 . S
C826 C824 1.378 . S
C826 C827 1.367 . S
C827 C826 1.367 . S
C827 C829 1.433 . S
C828 C824 1.350 . S
C828 C825 1.463 1_565 S
C828 N832 1.427 . S
C829 H819 0.929 . S
C829 C827 1.433 . S
C829 N832 1.384 . S
C830 H821 0.929 . S
C830 C822 1.378 . S
C830 C825 1.350 . S
C831 H818 0.929 . S
C831 C823 1.433 . S
C831 N833 1.384 . S
N832 C828 1.427 . S
N832 C829 1.384 . S
N833 C825 1.427 . S
N833 C831 1.384 . S
H834 C840 0.930 . S
H835 C844 0.930 . S
H836 C849 0.929 . S
H837 C847 0.929 . S
H838 C842 0.929 1_565 S
H839 C848 0.929 1_545 S
C840 H834 0.930 . S
C840 C841 1.367 . S
C840 C848 1.378 . S
C841 C840 1.367 . S
C841 C849 1.433 . S
C842 H838 0.929 1_545 S
C842 C844 1.378 . S
C842 C846 1.350 . S
C843 C846 1.463 1_565 S
C843 C848 1.350 . S
C843 N851 1.427 . S
C844 H835 0.930 . S
C844 C842 1.378 . S
C844 C845 1.367 . S
C845 C844 1.367 . S
C845 C847 1.433 . S
C846 C842 1.350 . S
C846 C843 1.463 1_545 S
C846 N850 1.427 . S
C847 H837 0.929 . S
C847 C845 1.433 . S
C847 N850 1.384 . S
C848 H839 0.929 1_565 S
C848 C840 1.378 . S
C848 C843 1.350 . S
C849 H836 0.929 . S
C849 C841 1.433 . S
C849 N851 1.384 . S
N850 C846 1.427 . S
N850 C847 1.384 . S
N851 C843 1.427 . S
N851 C849 1.384 . S
H852 C858 0.930 . S
H853 C862 0.930 . S
H854 C867 0.929 . S
H855 C865 0.929 . S
H856 C860 0.929 1_545 S
H857 C866 0.929 1_565 S
C858 H852 0.930 . S
C858 C859 1.367 . S
C858 C866 1.378 . S
C859 C858 1.367 . S
C859 C867 1.433 . S
C860 H856 0.929 1_565 S
C860 C862 1.378 . S
C860 C864 1.350 . S
C861 C864 1.463 1_545 S
C861 C866 1.350 . S
C861 N869 1.427 . S
C862 H853 0.930 . S
C862 C860 1.378 . S
C862 C863 1.367 . S
C863 C862 1.367 . S
C863 C865 1.433 . S
C864 C860 1.350 . S
C864 C861 1.463 1_565 S
C864 N868 1.427 . S
C865 H855 0.929 . S
C865 C863 1.433 . S
C865 N868 1.384 . S
C866 H857 0.929 1_545 S
C866 C858 1.378 . S
C866 C861 1.350 . S
C867 H854 0.929 . S
C867 C859 1.433 . S
C867 N869 1.384 . S
N868 C864 1.427 . S
N868 C865 1.384 . S
N869 C861 1.427 . S
N869 C867 1.384 . S
H870 C876 0.930 . S
H871 C880 0.930 . S
H872 C885 0.929 . S
H873 C883 0.929 . S
H874 C878 0.939 . S
H875 C884 0.939 . S
C876 H870 0.930 . S
C876 C877 1.367 . S
C876 C884 1.378 . S
C877 C876 1.367 . S
C877 C885 1.433 . S
C878 H874 0.939 . S
C878 C880 1.378 . S
C878 C882 1.350 . S
C879 C882 1.463 1_565 S
C879 C884 1.350 . S
C879 N887 1.427 . S
C880 H871 0.930 . S
C880 C878 1.378 . S
C880 C881 1.367 . S
C881 C880 1.367 . S
C881 C883 1.433 . S
C882 C878 1.350 . S
C882 C879 1.463 1_545 S
C882 N886 1.427 . S
C883 H873 0.929 . S
C883 C881 1.433 . S
C883 N886 1.384 . S
C884 H875 0.939 . S
C884 C876 1.378 . S
C884 C879 1.350 . S
C885 H872 0.929 . S
C885 C877 1.433 . S
C885 N887 1.384 . S
N886 C882 1.427 . S
N886 C883 1.384 . S
N887 C879 1.427 . S
N887 C885 1.384 . S
H888 C894 0.930 . S
H889 C898 0.930 . S
H890 C903 0.929 . S
H891 C901 0.929 . S
H892 C896 0.929 . S
H893 C902 0.929 . S
C894 H888 0.930 . S
C894 C895 1.367 . S
C894 C902 1.378 . S
C895 C894 1.367 . S
C895 C903 1.433 . S
C896 H892 0.929 . S
C896 C898 1.378 . S
C896 C900 1.350 . S
C897 C900 1.463 . S
C897 C902 1.350 . S
C897 N905 1.427 . S
C898 H889 0.930 . S
C898 C896 1.378 . S
C898 C899 1.367 . S
C899 C898 1.367 . S
C899 C901 1.433 . S
C900 C896 1.350 . S
C900 C897 1.463 . S
C900 N904 1.427 . S
C901 H891 0.929 . S
C901 C899 1.433 . S
C901 N904 1.384 . S
C902 H893 0.929 . S
C902 C894 1.378 . S
C902 C897 1.350 . S
C903 H890 0.929 . S
C903 C895 1.433 . S
C903 N905 1.384 . S
N904 C900 1.427 . S
N904 C901 1.384 . S
N905 C897 1.427 . S
N905 C903 1.384 . S
H906 C912 0.930 . S
H907 C916 0.930 . S
H908 C921 0.929 . S
H909 C919 0.929 . S
H910 C914 0.929 . S
H911 C920 0.929 . S
C912 H906 0.930 . S
C912 C913 1.367 . S
C912 C920 1.378 . S
C913 C912 1.367 . S
C913 C921 1.433 . S
C914 H910 0.929 . S
C914 C916 1.378 . S
C914 C918 1.350 . S
C915 C918 1.463 . S
C915 C920 1.350 . S
C915 N923 1.427 . S
C916 H907 0.930 . S
C916 C914 1.378 . S
C916 C917 1.367 . S
C917 C916 1.367 . S
C917 C919 1.433 . S
C918 C914 1.350 . S
C918 C915 1.463 . S
C918 N922 1.427 . S
C919 H909 0.929 . S
C919 C917 1.433 . S
C919 N922 1.384 . S
C920 H911 0.929 . S
C920 C912 1.378 . S
C920 C915 1.350 . S
C921 H908 0.929 . S
C921 C913 1.433 . S
C921 N923 1.384 . S
N922 C918 1.427 . S
N922 C919 1.384 . S
N923 C915 1.427 . S
N923 C921 1.384 . S
H924 C930 0.930 . S
H925 C934 0.930 . S
H926 C939 0.929 . S
H927 C937 0.929 . S
H928 C932 0.929 . S
H929 C938 0.929 . S
C930 H924 0.930 . S
C930 C931 1.367 . S
C930 C938 1.378 . S
C931 C930 1.367 . S
C931 C939 1.433 . S
C932 H928 0.929 . S
C932 C934 1.378 . S
C932 C936 1.350 . S
C933 C936 1.463 . S
C933 C938 1.350 . S
C933 N941 1.427 . S
C934 H925 0.930 . S
C934 C932 1.378 . S
C934 C935 1.367 . S
C935 C934 1.367 . S
C935 C937 1.433 . S
C936 C932 1.350 . S
C936 C933 1.463 . S
C936 N940 1.427 . S
C937 H927 0.929 . S
C937 C935 1.433 . S
C937 N940 1.384 . S
C938 H929 0.929 . S
C938 C930 1.378 . S
C938 C933 1.350 . S
C939 H926 0.929 . S
C939 C931 1.433 . S
C939 N941 1.384 . S
N940 C936 1.427 . S
N940 C937 1.384 . S
N941 C933 1.427 . S
N941 C939 1.384 . S
H942 C948 0.930 . S
H943 C952 0.930 . S
H944 C957 0.929 . S
H945 C955 0.929 . S
H946 C950 0.929 . S
H947 C956 0.929 . S
C948 H942 0.930 . S
C948 C949 1.367 . S
C948 C956 1.378 . S
C949 C948 1.367 . S
C949 C957 1.433 . S
C950 H946 0.929 . S
C950 C952 1.378 . S
C950 C954 1.350 . S
C951 C954 1.463 . S
C951 C956 1.350 . S
C951 N959 1.427 . S
C952 H943 0.930 . S
C952 C950 1.378 . S
C952 C953 1.367 . S
C953 C952 1.367 . S
C953 C955 1.433 . S
C954 C950 1.350 . S
C954 C951 1.463 . S
C954 N958 1.427 . S
C955 H945 0.929 . S
C955 C953 1.433 . S
C955 N958 1.384 . S
C956 H947 0.929 . S
C956 C948 1.378 . S
C956 C951 1.350 . S
C957 H944 0.929 . S
C957 C949 1.433 . S
C957 N959 1.384 . S
N958 C954 1.427 . S
N958 C955 1.384 . S
N959 C951 1.427 . S
N959 C957 1.384 . S
H960 C966 0.930 . S
H961 C970 0.930 . S
H962 C975 0.929 . S
H963 C973 0.929 . S
H964 C968 0.929 . S
H965 C974 0.929 . S
C966 H960 0.930 . S
C966 C967 1.367 . S
C966 C974 1.378 . S
C967 C966 1.367 . S
C967 C975 1.433 1_655 S
C968 H964 0.929 . S
C968 C970 1.378 . S
C968 C972 1.350 . S
C969 C972 1.463 1_655 S
C969 C974 1.350 . S
C969 N977 1.427 1_655 S
C970 H961 0.930 . S
C970 C968 1.378 . S
C970 C971 1.367 . S
C971 C970 1.367 . S
C971 C973 1.433 1_455 S
C972 C968 1.350 . S
C972 C969 1.463 1_455 S
C972 N976 1.427 1_455 S
C973 H963 0.929 . S
C973 C971 1.433 1_655 S
C973 N976 1.384 . S
C974 H965 0.929 . S
C974 C966 1.378 . S
C974 C969 1.350 . S
C975 H962 0.929 . S
C975 C967 1.433 1_455 S
C975 N977 1.384 . S
N976 C972 1.427 1_655 S
N976 C973 1.384 . S
N977 C969 1.427 1_455 S
N977 C975 1.384 . S
H978 C984 0.930 . S
H979 C988 0.930 . S
H980 C993 0.929 . S
H981 C991 0.929 . S
H982 C986 0.929 . S
H983 C992 0.929 . S
C984 H978 0.930 . S
C984 C985 1.367 . S
C984 C992 1.378 . S
C985 C984 1.367 . S
C985 C993 1.433 . S
C986 H982 0.929 . S
C986 C988 1.378 . S
C986 C990 1.350 . S
C987 C990 1.463 . S
C987 C992 1.350 . S
C987 N995 1.427 . S
C988 H979 0.930 . S
C988 C986 1.378 . S
C988 C989 1.367 . S
C989 C988 1.367 . S
C989 C991 1.433 . S
C990 C986 1.350 . S
C990 C987 1.463 . S
C990 N994 1.427 . S
C991 H981 0.929 . S
C991 C989 1.433 . S
C991 N994 1.384 . S
C992 H983 0.929 . S
C992 C984 1.378 . S
C992 C987 1.350 . S
C993 H980 0.929 . S
C993 C985 1.433 . S
C993 N995 1.384 . S
N994 C990 1.427 . S
N994 C991 1.384 . S
N995 C987 1.427 . S
N995 C993 1.384 . S
H996 C1002 0.930 . S
H997 C1006 0.930 . S
H998 C1011 0.929 . S
H999 C1009 0.929 . S
H1000 C1004 0.929 . S
H1001 C1010 0.929 . S
C1002 H996 0.930 . S
C1002 C1003 1.367 . S
C1002 C1010 1.378 . S
C1003 C1002 1.367 . S
C1003 C1011 1.433 . S
C1004 H1000 0.929 . S
C1004 C1006 1.378 . S
C1004 C1008 1.350 . S
C1005 C1008 1.463 . S
C1005 C1010 1.350 . S
C1005 N1013 1.427 . S
C1006 H997 0.930 . S
C1006 C1004 1.378 . S
C1006 C1007 1.367 . S
C1007 C1006 1.367 . S
C1007 C1009 1.433 . S
C1008 C1004 1.350 . S
C1008 C1005 1.463 . S
C1008 N1012 1.427 . S
C1009 H999 0.929 . S
C1009 C1007 1.433 . S
C1009 N1012 1.384 . S
C1010 H1001 0.929 . S
C1010 C1002 1.378 . S
C1010 C1005 1.350 . S
C1011 H998 0.929 . S
C1011 C1003 1.433 . S
C1011 N1013 1.384 . S
N1012 C1008 1.427 . S
N1012 C1009 1.384 . S
N1013 C1005 1.427 . S
N1013 C1011 1.384 . S
H1014 C1020 0.930 . S
H1015 C1024 0.930 . S
H1016 C1029 0.929 . S
H1017 C1027 0.929 . S
H1018 C1022 0.929 . S
H1019 C1028 0.929 . S
C1020 H1014 0.930 . S
C1020 C1021 1.367 1_655 S
C1020 C1028 1.378 . S
C1021 C1020 1.367 1_455 S
C1021 C1029 1.433 . S
C1022 H1018 0.929 . S
C1022 C1024 1.378 . S
C1022 C1026 1.350 1_455 S
C1023 C1026 1.463 1_455 S
C1023 C1028 1.350 1_455 S
C1023 N1031 1.427 . S
C1024 H1015 0.930 . S
C1024 C1022 1.378 . S
C1024 C1025 1.367 1_455 S
C1025 C1024 1.367 1_655 S
C1025 C1027 1.433 . S
C1026 C1022 1.350 1_655 S
C1026 C1023 1.463 1_655 S
C1026 N1030 1.427 . S
C1027 H1017 0.929 . S
C1027 C1025 1.433 . S
C1027 N1030 1.384 . S
C1028 H1019 0.929 . S
C1028 C1020 1.378 . S
C1028 C1023 1.350 1_655 S
C1029 H1016 0.929 . S
C1029 C1021 1.433 . S
C1029 N1031 1.384 . S
N1030 C1026 1.427 . S
N1030 C1027 1.384 . S
N1031 C1023 1.427 . S
N1031 C1029 1.384 . S
H1032 C1038 0.930 . S
H1033 C1042 0.930 . S
H1034 C1047 0.929 . S
H1035 C1045 0.929 . S
H1036 C1040 0.929 . S
H1037 C1046 0.929 . S
C1038 H1032 0.930 . S
C1038 C1039 1.367 . S
C1038 C1046 1.378 . S
C1039 C1038 1.367 . S
C1039 C1047 1.433 1_655 S
C1040 H1036 0.929 . S
C1040 C1042 1.378 . S
C1040 C1044 1.350 . S
C1041 C1044 1.463 1_655 S
C1041 C1046 1.350 . S
C1041 N1049 1.427 1_655 S
C1042 H1033 0.930 . S
C1042 C1040 1.378 . S
C1042 C1043 1.367 . S
C1043 C1042 1.367 . S
C1043 C1045 1.433 1_455 S
C1044 C1040 1.350 . S
C1044 C1041 1.463 1_455 S
C1044 N1048 1.427 1_455 S
C1045 H1035 0.929 . S
C1045 C1043 1.433 1_655 S
C1045 N1048 1.384 . S
C1046 H1037 0.929 . S
C1046 C1038 1.378 . S
C1046 C1041 1.350 . S
C1047 H1034 0.929 . S
C1047 C1039 1.433 1_455 S
C1047 N1049 1.384 . S
N1048 C1044 1.427 1_655 S
N1048 C1045 1.384 . S
N1049 C1041 1.427 1_455 S
N1049 C1047 1.384 . S
H1050 C1056 0.930 . S
H1051 C1060 0.930 . S
H1052 C1065 0.929 . S
H1053 C1063 0.929 . S
H1054 C1058 0.929 . S
H1055 C1064 0.929 . S
C1056 H1050 0.930 . S
C1056 C1057 1.367 . S
C1056 C1064 1.378 . S
C1057 C1056 1.367 . S
C1057 C1065 1.433 . S
C1058 H1054 0.929 . S
C1058 C1060 1.378 . S
C1058 C1062 1.350 . S
C1059 C1062 1.463 . S
C1059 C1064 1.350 . S
C1059 N1067 1.427 . S
C1060 H1051 0.930 . S
C1060 C1058 1.378 . S
C1060 C1061 1.367 . S
C1061 C1060 1.367 . S
C1061 C1063 1.433 . S
C1062 C1058 1.350 . S
C1062 C1059 1.463 . S
C1062 N1066 1.427 . S
C1063 H1053 0.929 . S
C1063 C1061 1.433 . S
C1063 N1066 1.384 . S
C1064 H1055 0.929 . S
C1064 C1056 1.378 . S
C1064 C1059 1.350 . S
C1065 H1052 0.929 . S
C1065 C1057 1.433 . S
C1065 N1067 1.384 . S
N1066 C1062 1.427 . S
N1066 C1063 1.384 . S
N1067 C1059 1.427 . S
N1067 C1065 1.384 . S
H1068 C1074 0.930 . S
H1069 C1078 0.930 . S
H1070 C1083 0.929 . S
H1071 C1081 0.929 . S
H1072 C1076 0.929 . S
H1073 C1082 0.929 . S
C1074 H1068 0.930 . S
C1074 C1075 1.367 . S
C1074 C1082 1.378 . S
C1075 C1074 1.367 . S
C1075 C1083 1.433 . S
C1076 H1072 0.929 . S
C1076 C1078 1.378 . S
C1076 C1080 1.350 . S
C1077 C1080 1.463 . S
C1077 C1082 1.350 . S
C1077 N1085 1.427 . S
C1078 H1069 0.930 . S
C1078 C1076 1.378 . S
C1078 C1079 1.367 . S
C1079 C1078 1.367 . S
C1079 C1081 1.433 . S
C1080 C1076 1.350 . S
C1080 C1077 1.463 . S
C1080 N1084 1.427 . S
C1081 H1071 0.929 . S
C1081 C1079 1.433 . S
C1081 N1084 1.384 . S
C1082 H1073 0.929 . S
C1082 C1074 1.378 . S
C1082 C1077 1.350 . S
C1083 H1070 0.929 . S
C1083 C1075 1.433 . S
C1083 N1085 1.384 . S
N1084 C1080 1.427 . S
N1084 C1081 1.384 . S
N1085 C1077 1.427 . S
N1085 C1083 1.384 . S
H1086 C1092 0.930 1_455 S
H1087 C1096 0.930 1_655 S
H1088 C1101 0.929 . S
H1089 C1099 0.929 . S
H1090 C1094 0.929 . S
H1091 C1100 0.929 . S
C1092 H1086 0.930 1_655 S
C1092 C1093 1.367 . S
C1092 C1100 1.378 1_655 S
C1093 C1092 1.367 . S
C1093 C1101 1.433 . S
C1094 H1090 0.929 . S
C1094 C1096 1.378 1_655 S
C1094 C1098 1.350 1_655 S
C1095 C1098 1.463 1_655 S
C1095 C1100 1.350 1_655 S
C1095 N1103 1.427 . S
C1096 H1087 0.930 1_455 S
C1096 C1094 1.378 1_455 S
C1096 C1097 1.367 . S
C1097 C1096 1.367 . S
C1097 C1099 1.433 . S
C1098 C1094 1.350 1_455 S
C1098 C1095 1.463 1_455 S
C1098 N1102 1.427 . S
C1099 H1089 0.929 . S
C1099 C1097 1.433 . S
C1099 N1102 1.384 . S
C1100 H1091 0.929 . S
C1100 C1092 1.378 1_455 S
C1100 C1095 1.350 1_455 S
C1101 H1088 0.929 . S
C1101 C1093 1.433 . S
C1101 N1103 1.384 . S
N1102 C1098 1.427 . S
N1102 C1099 1.384 . S
N1103 C1095 1.427 . S
N1103 C1101 1.384 . S
H1104 C1110 0.930 . S
H1105 C1114 0.930 . S
H1106 C1119 0.929 . S
H1107 C1117 0.929 . S
H1108 C1112 0.929 . S
H1109 C1118 0.929 . S
C1110 H1104 0.930 . S
C1110 C1111 1.367 . S
C1110 C1118 1.378 . S
C1111 C1110 1.367 . S
C1111 C1119 1.433 1_455 S
C1112 H1108 0.929 . S
C1112 C1114 1.378 . S
C1112 C1116 1.350 . S
C1113 C1116 1.463 1_455 S
C1113 C1118 1.350 . S
C1113 N1121 1.427 1_455 S
C1114 H1105 0.930 . S
C1114 C1112 1.378 . S
C1114 C1115 1.367 . S
C1115 C1114 1.367 . S
C1115 C1117 1.433 1_655 S
C1116 C1112 1.350 . S
C1116 C1113 1.463 1_655 S
C1116 N1120 1.427 1_655 S
C1117 H1107 0.929 . S
C1117 C1115 1.433 1_455 S
C1117 N1120 1.384 . S
C1118 H1109 0.929 . S
C1118 C1110 1.378 . S
C1118 C1113 1.350 . S
C1119 H1106 0.929 . S
C1119 C1111 1.433 1_655 S
C1119 N1121 1.384 . S
N1120 C1116 1.427 1_455 S
N1120 C1117 1.384 . S
N1121 C1113 1.427 1_655 S
N1121 C1119 1.384 . S
H1122 C1128 0.930 . S
H1123 C1132 0.930 . S
H1124 C1137 0.929 . S
H1125 C1135 0.929 . S
H1126 C1130 0.929 . S
H1127 C1136 0.929 . S
C1128 H1122 0.930 . S
C1128 C1129 1.367 . S
C1128 C1136 1.378 . S
C1129 C1128 1.367 . S
C1129 C1137 1.433 . S
C1130 H1126 0.929 . S
C1130 C1132 1.378 . S
C1130 C1134 1.350 . S
C1131 C1134 1.463 . S
C1131 C1136 1.350 . S
C1131 N1139 1.427 . S
C1132 H1123 0.930 . S
C1132 C1130 1.378 . S
C1132 C1133 1.367 . S
C1133 C1132 1.367 . S
C1133 C1135 1.433 . S
C1134 C1130 1.350 . S
C1134 C1131 1.463 . S
C1134 N1138 1.427 . S
C1135 H1125 0.929 . S
C1135 C1133 1.433 . S
C1135 N1138 1.384 . S
C1136 H1127 0.929 . S
C1136 C1128 1.378 . S
C1136 C1131 1.350 . S
C1137 H1124 0.929 . S
C1137 C1129 1.433 . S
C1137 N1139 1.384 . S
N1138 C1134 1.427 . S
N1138 C1135 1.384 . S
N1139 C1131 1.427 . S
N1139 C1137 1.384 . S
H1140 C1146 0.930 . S
H1141 C1150 0.930 . S
H1142 C1155 0.929 . S
H1143 C1153 0.929 . S
H1144 C1148 0.934 . S
H1145 C1154 0.934 . S
C1146 H1140 0.930 . S
C1146 C1147 1.367 . S
C1146 C1154 1.378 . S
C1147 C1146 1.367 . S
C1147 C1155 1.433 . S
C1148 H1144 0.934 . S
C1148 C1150 1.378 . S
C1148 C1152 1.350 . S
C1149 C1152 1.463 1_655 S
C1149 C1154 1.350 . S
C1149 N1157 1.427 . S
C1150 H1141 0.930 . S
C1150 C1148 1.378 . S
C1150 C1151 1.367 . S
C1151 C1150 1.367 . S
C1151 C1153 1.433 . S
C1152 C1148 1.350 . S
C1152 C1149 1.463 1_455 S
C1152 N1156 1.427 . S
C1153 H1143 0.929 . S
C1153 C1151 1.433 . S
C1153 N1156 1.384 . S
C1154 H1145 0.934 . S
C1154 C1146 1.378 . S
C1154 C1149 1.350 . S
C1155 H1142 0.929 . S
C1155 C1147 1.433 . S
C1155 N1157 1.384 . S
N1156 C1152 1.427 . S
N1156 C1153 1.384 . S
N1157 C1149 1.427 . S
N1157 C1155 1.384 . S
H1158 C1164 0.930 . S
H1159 C1168 0.930 . S
H1160 C1173 0.929 . S
H1161 C1171 0.929 . S
H1162 C1166 0.929 . S
H1163 C1172 0.929 . S
C1164 H1158 0.930 . S
C1164 C1165 1.367 . S
C1164 C1172 1.378 . S
C1165 C1164 1.367 . S
C1165 C1173 1.433 . S
C1166 H1162 0.929 . S
C1166 C1168 1.378 . S
C1166 C1170 1.350 . S
C1167 C1170 1.463 . S
C1167 C1172 1.350 . S
C1167 N1175 1.427 . S
C1168 H1159 0.930 . S
C1168 C1166 1.378 . S
C1168 C1169 1.367 . S
C1169 C1168 1.367 . S
C1169 C1171 1.433 . S
C1170 C1166 1.350 . S
C1170 C1167 1.463 . S
C1170 N1174 1.427 . S
C1171 H1161 0.929 . S
C1171 C1169 1.433 . S
C1171 N1174 1.384 . S
C1172 H1163 0.929 . S
C1172 C1164 1.378 . S
C1172 C1167 1.350 . S
C1173 H1160 0.929 . S
C1173 C1165 1.433 . S
C1173 N1175 1.384 . S
N1174 C1170 1.427 . S
N1174 C1171 1.384 . S
N1175 C1167 1.427 . S
N1175 C1173 1.384 . S
H1176 C1182 0.930 . S
H1177 C1186 0.930 . S
H1178 C1191 0.929 . S
H1179 C1189 0.929 . S
H1180 C1184 0.929 . S
H1181 C1190 0.929 . S
C1182 H1176 0.930 . S
C1182 C1183 1.367 . S
C1182 C1190 1.378 . S
C1183 C1182 1.367 . S
C1183 C1191 1.433 . S
C1184 H1180 0.929 . S
C1184 C1186 1.378 . S
C1184 C1188 1.350 . S
C1185 C1188 1.463 . S
C1185 C1190 1.350 . S
C1185 N1193 1.427 . S
C1186 H1177 0.930 . S
C1186 C1184 1.378 . S
C1186 C1187 1.367 . S
C1187 C1186 1.367 . S
C1187 C1189 1.433 . S
C1188 C1184 1.350 . S
C1188 C1185 1.463 . S
C1188 N1192 1.427 . S
C1189 H1179 0.929 . S
C1189 C1187 1.433 . S
C1189 N1192 1.384 . S
C1190 H1181 0.929 . S
C1190 C1182 1.378 . S
C1190 C1185 1.350 . S
C1191 H1178 0.929 . S
C1191 C1183 1.433 . S
C1191 N1193 1.384 . S
N1192 C1188 1.427 . S
N1192 C1189 1.384 . S
N1193 C1185 1.427 . S
N1193 C1191 1.384 . S
H1194 C1200 0.930 . S
H1195 C1204 0.930 . S
H1196 C1209 0.929 . S
H1197 C1207 0.929 . S
H1198 C1202 0.929 . S
H1199 C1208 0.929 . S
C1200 H1194 0.930 . S
C1200 C1201 1.367 . S
C1200 C1208 1.378 . S
C1201 C1200 1.367 . S
C1201 C1209 1.433 . S
C1202 H1198 0.929 . S
C1202 C1204 1.378 . S
C1202 C1206 1.350 . S
C1203 C1206 1.463 1_455 S
C1203 C1208 1.350 . S
C1203 N1211 1.427 1_455 S
C1204 H1195 0.930 . S
C1204 C1202 1.378 . S
C1204 C1205 1.367 . S
C1205 C1204 1.367 . S
C1205 C1207 1.433 . S
C1206 C1202 1.350 . S
C1206 C1203 1.463 1_655 S
C1206 N1210 1.427 1_655 S
C1207 H1197 0.929 . S
C1207 C1205 1.433 . S
C1207 N1210 1.384 1_655 S
C1208 H1199 0.929 . S
C1208 C1200 1.378 . S
C1208 C1203 1.350 . S
C1209 H1196 0.929 . S
C1209 C1201 1.433 . S
C1209 N1211 1.384 1_455 S
N1210 C1206 1.427 1_455 S
N1210 C1207 1.384 1_455 S
N1211 C1203 1.427 1_655 S
N1211 C1209 1.384 1_655 S
H1212 C1218 0.930 . S
H1213 C1222 0.930 . S
H1214 C1227 0.929 . S
H1215 C1225 0.929 . S
H1216 C1220 0.929 . S
H1217 C1226 0.929 . S
C1218 H1212 0.930 . S
C1218 C1219 1.367 . S
C1218 C1226 1.378 . S
C1219 C1218 1.367 . S
C1219 C1227 1.433 . S
C1220 H1216 0.929 . S
C1220 C1222 1.378 . S
C1220 C1224 1.350 . S
C1221 C1224 1.463 . S
C1221 C1226 1.350 . S
C1221 N1229 1.427 . S
C1222 H1213 0.930 . S
C1222 C1220 1.378 . S
C1222 C1223 1.367 . S
C1223 C1222 1.367 . S
C1223 C1225 1.433 . S
C1224 C1220 1.350 . S
C1224 C1221 1.463 . S
C1224 N1228 1.427 . S
C1225 H1215 0.929 . S
C1225 C1223 1.433 . S
C1225 N1228 1.384 . S
C1226 H1217 0.929 . S
C1226 C1218 1.378 . S
C1226 C1221 1.350 . S
C1227 H1214 0.929 . S
C1227 C1219 1.433 . S
C1227 N1229 1.384 . S
N1228 C1224 1.427 . S
N1228 C1225 1.384 . S
N1229 C1221 1.427 . S
N1229 C1227 1.384 . S
H1230 C1236 0.930 . S
H1231 C1240 0.930 . S
H1232 C1245 0.929 . S
H1233 C1243 0.929 . S
H1234 C1238 0.929 . S
H1235 C1244 0.929 . S
C1236 H1230 0.930 . S
C1236 C1237 1.367 . S
C1236 C1244 1.378 . S
C1237 C1236 1.367 . S
C1237 C1245 1.433 . S
C1238 H1234 0.929 . S
C1238 C1240 1.378 . S
C1238 C1242 1.350 . S
C1239 C1242 1.463 1_455 S
C1239 C1244 1.350 . S
C1239 N1247 1.430 . S
C1240 H1231 0.930 . S
C1240 C1238 1.378 . S
C1240 C1241 1.367 . S
C1241 C1240 1.367 . S
C1241 C1243 1.433 . S
C1242 C1238 1.350 . S
C1242 C1239 1.463 1_655 S
C1242 N1246 1.430 . S
C1243 H1233 0.929 . S
C1243 C1241 1.433 . S
C1243 N1246 1.388 . S
C1244 H1235 0.929 . S
C1244 C1236 1.378 . S
C1244 C1239 1.350 . S
C1245 H1232 0.929 . S
C1245 C1237 1.433 . S
C1245 N1247 1.388 . S
N1246 C1242 1.430 . S
N1246 C1243 1.388 . S
N1247 C1239 1.430 . S
N1247 C1245 1.388 . S
C535 C186 1.062 . S
C539 C18 1.058 . S
C553 C153 1.054 . S
C557 C51 1.053 . S
C571 C84 1.049 . S
C575 C252 1.052 . S
C589 C117 1.049 . S
C593 C219 1.052 . S
C607 C150 1.050 . S
C611 C54 1.052 . S
C625 C183 1.050 . S
C629 C21 1.052 . S
C643 C120 1.064 . S
C647 C216 1.063 . S
C661 C249 1.063 . S
C665 C87 1.065 . S
C679 C282 1.049 . S
C683 C450 1.053 . S
C697 C315 1.052 . S
C701 C417 1.056 . S
C715 C348 1.049 . S
C719 C516 1.052 . S
C733 C381 1.051 . S
C737 C483 1.056 . S
C751 C414 1.049 . S
C755 C318 1.053 . S
C769 C447 1.054 . S
C773 C285 1.055 . S
C787 C384 1.059 . S
C791 C480 1.054 . S
C805 C351 1.059 . S
C809 C513 1.059 . S
C823 N13 1.682 . S
C827 N46 1.674 . S
C841 N79 1.678 . S
C845 N112 1.683 . S
C859 N178 1.683 . S
C863 N145 1.677 . S
C877 N244 1.684 . S
C881 N211 1.676 . S
C895 N310 1.684 . S
C899 N277 1.676 . S
C913 N376 1.674 . S
C917 N343 1.683 . S
C931 N409 1.675 . S
C935 N442 1.683 . S
C949 N475 1.683 . S
C953 N508 1.675 . S
C967 N299 1.526 . S
C971 N2 1.533 . S
C985 N35 1.527 . S
C989 N266 1.537 . S
C1003 N68 1.528 . S
C1007 N365 1.538 . S
C1021 N332 1.534 . S
C1025 N101 1.539 . S
C1039 N134 1.526 . S
C1043 N431 1.533 . S
C1057 N167 1.526 . S
C1061 N398 1.532 . S
C1075 N200 1.527 . S
C1079 N497 1.530 . S
C1093 N464 1.530 . S
C1097 N233 1.539 . S
C1111 C7 1.462 . S
C1115 C106 1.462 . S
C1129 C40 1.460 . S
C1133 C73 1.458 . S
C1147 C139 1.456 . S
C1151 C238 1.458 . S
C1165 C172 1.456 . S
C1169 C205 1.454 . S
C1183 C370 1.460 . S
C1187 C271 1.461 . S
C1201 C337 1.460 . S
C1205 C304 1.458 . S
C1219 C403 1.459 . S
C1223 C502 1.461 . S
C1237 C436 1.458 . S
C1241 C469 1.460 . S
