# Generated by pormake.
# Topology wiu, (6)-cn, num edge types: 1
# Building blocks:
#     Node 0, Type 0, BuildingBlock: VOLQOD_clean_sbu_1, # of connection points: 6
#     Node 1, Type 0, BuildingBlock: VOLQOD_clean_sbu_1, # of connection points: 6
#     Node 2, Type 0, BuildingBlock: VOLQOD_clean_sbu_1, # of connection points: 6
#     Node 3, Type 0, BuildingBlock: VOLQOD_clean_sbu_1, # of connection points: 6
#     Node 4, Type 0, BuildingBlock: VOLQOD_clean_sbu_1, # of connection points: 6
#     Node 5, Type 0, BuildingBlock: VOLQOD_clean_sbu_1, # of connection points: 6
#     Node 6, Type 0, BuildingBlock: VOLQOD_clean_sbu_1, # of connection points: 6
#     Node 7, Type 0, BuildingBlock: VOLQOD_clean_sbu_1, # of connection points: 6
#     Node 8, Type 0, BuildingBlock: VOLQOD_clean_sbu_1, # of connection points: 6
#     Node 9, Type 0, BuildingBlock: VOLQOD_clean_sbu_1, # of connection points: 6
#     Node 10, Type 0, BuildingBlock: VOLQOD_clean_sbu_1, # of connection points: 6
#     Node 11, Type 0, BuildingBlock: VOLQOD_clean_sbu_1, # of connection points: 6
#     Node 12, Type 0, BuildingBlock: VOLQOD_clean_sbu_1, # of connection points: 6
#     Node 13, Type 0, BuildingBlock: VOLQOD_clean_sbu_1, # of connection points: 6
#     Node 14, Type 0, BuildingBlock: VOLQOD_clean_sbu_1, # of connection points: 6
#     Node 15, Type 0, BuildingBlock: VOLQOD_clean_sbu_1, # of connection points: 6
#     Edge 16, Type (0, 0), BuildingBlock: EZIPEK_clean_linker_0, # of connection points: 2
#     Edge 17, Type (0, 0), BuildingBlock: EZIPEK_clean_linker_0, # of connection points: 2
#     Edge 18, Type (0, 0), BuildingBlock: EZIPEK_clean_linker_0, # of connection points: 2
#     Edge 19, Type (0, 0), BuildingBlock: EZIPEK_clean_linker_0, # of connection points: 2
#     Edge 20, Type (0, 0), BuildingBlock: EZIPEK_clean_linker_0, # of connection points: 2
#     Edge 21, Type (0, 0), BuildingBlock: EZIPEK_clean_linker_0, # of connection points: 2
#     Edge 22, Type (0, 0), BuildingBlock: EZIPEK_clean_linker_0, # of connection points: 2
#     Edge 23, Type (0, 0), BuildingBlock: EZIPEK_clean_linker_0, # of connection points: 2
#     Edge 24, Type (0, 0), BuildingBlock: EZIPEK_clean_linker_0, # of connection points: 2
#     Edge 25, Type (0, 0), BuildingBlock: EZIPEK_clean_linker_0, # of connection points: 2
#     Edge 26, Type (0, 0), BuildingBlock: EZIPEK_clean_linker_0, # of connection points: 2
#     Edge 27, Type (0, 0), BuildingBlock: EZIPEK_clean_linker_0, # of connection points: 2
#     Edge 28, Type (0, 0), BuildingBlock: EZIPEK_clean_linker_0, # of connection points: 2
#     Edge 29, Type (0, 0), BuildingBlock: EZIPEK_clean_linker_0, # of connection points: 2
#     Edge 30, Type (0, 0), BuildingBlock: EZIPEK_clean_linker_0, # of connection points: 2
#     Edge 31, Type (0, 0), BuildingBlock: EZIPEK_clean_linker_0, # of connection points: 2
#     Edge 32, Type (0, 0), BuildingBlock: EZIPEK_clean_linker_0, # of connection points: 2
#     Edge 33, Type (0, 0), BuildingBlock: EZIPEK_clean_linker_0, # of connection points: 2
#     Edge 34, Type (0, 0), BuildingBlock: EZIPEK_clean_linker_0, # of connection points: 2
#     Edge 35, Type (0, 0), BuildingBlock: EZIPEK_clean_linker_0, # of connection points: 2
#     Edge 36, Type (0, 0), BuildingBlock: EZIPEK_clean_linker_0, # of connection points: 2
#     Edge 37, Type (0, 0), BuildingBlock: EZIPEK_clean_linker_0, # of connection points: 2
#     Edge 38, Type (0, 0), BuildingBlock: EZIPEK_clean_linker_0, # of connection points: 2
#     Edge 39, Type (0, 0), BuildingBlock: EZIPEK_clean_linker_0, # of connection points: 2
#     Edge 40, Type (0, 0), BuildingBlock: EZIPEK_clean_linker_0, # of connection points: 2
#     Edge 41, Type (0, 0), BuildingBlock: EZIPEK_clean_linker_0, # of connection points: 2
#     Edge 42, Type (0, 0), BuildingBlock: EZIPEK_clean_linker_0, # of connection points: 2
#     Edge 43, Type (0, 0), BuildingBlock: EZIPEK_clean_linker_0, # of connection points: 2
#     Edge 44, Type (0, 0), BuildingBlock: EZIPEK_clean_linker_0, # of connection points: 2
#     Edge 45, Type (0, 0), BuildingBlock: EZIPEK_clean_linker_0, # of connection points: 2
#     Edge 46, Type (0, 0), BuildingBlock: EZIPEK_clean_linker_0, # of connection points: 2
#     Edge 47, Type (0, 0), BuildingBlock: EZIPEK_clean_linker_0, # of connection points: 2
#     Edge 48, Type (0, 0), BuildingBlock: EZIPEK_clean_linker_0, # of connection points: 2
#     Edge 49, Type (0, 0), BuildingBlock: EZIPEK_clean_linker_0, # of connection points: 2
#     Edge 50, Type (0, 0), BuildingBlock: EZIPEK_clean_linker_0, # of connection points: 2
#     Edge 51, Type (0, 0), BuildingBlock: EZIPEK_clean_linker_0, # of connection points: 2
#     Edge 52, Type (0, 0), BuildingBlock: EZIPEK_clean_linker_0, # of connection points: 2
#     Edge 53, Type (0, 0), BuildingBlock: EZIPEK_clean_linker_0, # of connection points: 2
#     Edge 54, Type (0, 0), BuildingBlock: EZIPEK_clean_linker_0, # of connection points: 2
#     Edge 55, Type (0, 0), BuildingBlock: EZIPEK_clean_linker_0, # of connection points: 2
#     Edge 56, Type (0, 0), BuildingBlock: EZIPEK_clean_linker_0, # of connection points: 2
#     Edge 57, Type (0, 0), BuildingBlock: EZIPEK_clean_linker_0, # of connection points: 2
#     Edge 58, Type (0, 0), BuildingBlock: EZIPEK_clean_linker_0, # of connection points: 2
#     Edge 59, Type (0, 0), BuildingBlock: EZIPEK_clean_linker_0, # of connection points: 2
#     Edge 60, Type (0, 0), BuildingBlock: EZIPEK_clean_linker_0, # of connection points: 2
#     Edge 61, Type (0, 0), BuildingBlock: EZIPEK_clean_linker_0, # of connection points: 2
#     Edge 62, Type (0, 0), BuildingBlock: EZIPEK_clean_linker_0, # of connection points: 2
#     Edge 63, Type (0, 0), BuildingBlock: EZIPEK_clean_linker_0, # of connection points: 2
# Relax obj value: 0.181
# Max RMSD: 0.175
# Mean RMSD: 0.175
data_MOF--net-wiu--node1-VOLQOD_clean_sbu_1--edge1-EZIPEK_clean_linker_0
_symmetry_space_group_name_H-M    P1
_symmetry_Int_Tables_number       1
_symmetry_cell_setting            triclinic
loop_
_symmetry_equiv_pos_as_xyz
'x, y, z'
_cell_length_a     25.463525
_cell_length_b     25.397246
_cell_length_c     43.95415
_cell_angle_alpha  90.180792
_cell_angle_beta   89.914644
_cell_angle_gamma 90.021021
loop_
_atom_site_label
_atom_site_type_symbol
_atom_site_fract_x
_atom_site_fract_y
_atom_site_fract_z
_atom_type_partial_charge
O0 O 0.42074 0.1985 0.03345 0.0
Zn1 Zn 0.3508 0.20177 0.05235 0.0
O2 O 0.34472 0.13581 0.073 0.0
Zn3 Zn 0.31595 0.07997 0.04784 0.0
Zn4 Zn 0.41344 0.11336 0.08414 0.0
Zn5 Zn 0.30498 0.15192 0.10811 0.0
O6 O 0.25783 0.04221 0.07276 0.0
O7 O 0.24292 0.10341 0.10861 0.0
O8 O 0.29879 0.20237 0.01936 0.0
O9 O 0.27697 0.11743 0.01487 0.0
O10 O 0.37636 0.03506 0.02673 0.0
O11 O 0.44198 0.0583 0.05664 0.0
O12 O 0.41463 0.09108 0.1276 0.0
O13 O 0.33591 0.26688 0.07805 0.0
O14 O 0.34768 0.13839 0.14474 0.0
O15 O 0.28332 0.22779 0.11128 0.0
C16 C 0.46249 0.18129 0.04565 0.0
C17 C 0.23067 0.06062 0.09506 0.0
C18 C 0.42537 0.03339 0.03358 0.0
C19 C 0.27299 0.16545 0.0069 0.0
C20 C 0.38666 0.10848 0.14946 0.0
C21 C 0.30245 0.26945 0.09962 0.0
O22 O 0.46289 0.17043 0.0739 0.0
O23 O 0.52 0.60788 0.24414 0.0
Zn24 Zn 0.53901 0.55045 0.27255 0.0
O25 O 0.59819 0.57294 0.29672 0.0
Zn26 Zn 0.66545 0.5532 0.27892 0.0
Zn27 Zn 0.59565 0.64769 0.30166 0.0
Zn28 Zn 0.58606 0.53953 0.33485 0.0
O29 O 0.70134 0.49874 0.30817 0.0
O30 O 0.63303 0.47744 0.33763 0.0
O31 O 0.56113 0.49167 0.24573 0.0
O32 O 0.64655 0.51119 0.24106 0.0
O33 O 0.70886 0.62153 0.26524 0.0
O34 O 0.65652 0.68478 0.28245 0.0
O35 O 0.59477 0.66877 0.34625 0.0
O36 O 0.47381 0.53279 0.29804 0.0
O37 O 0.60704 0.58989 0.36701 0.0
O38 O 0.50988 0.51915 0.34305 0.0
C39 C 0.52049 0.65655 0.25043 0.0
C40 C 0.67946 0.46863 0.32802 0.0
C41 C 0.69758 0.67077 0.26818 0.0
C42 C 0.60537 0.48639 0.23256 0.0
C43 C 0.60596 0.63985 0.36902 0.0
C44 C 0.46943 0.52028 0.32603 0.0
O45 O 0.53862 0.67416 0.2756 0.0
O46 O 0.11419 0.82406 0.53864 0.0
Zn47 Zn 0.18657 0.83751 0.55219 0.0
O48 O 0.18917 0.90826 0.56834 0.0
Zn49 Zn 0.22069 0.9593 0.54079 0.0
Zn50 Zn 0.12018 0.93405 0.57706 0.0
Zn51 Zn 0.22692 0.90068 0.60543 0.0
O52 O 0.28097 0.99789 0.56493 0.0
O53 O 0.29419 0.93708 0.60081 0.0
O54 O 0.23523 0.83236 0.51744 0.0
O55 O 0.25833 0.916 0.50909 0.0
O56 O 0.16076 1.003 0.51767 0.0
O57 O 0.09228 0.98526 0.54708 0.0
O58 O 0.1122 0.96021 0.6192 0.0
O59 O 0.2062 0.77935 0.58198 0.0
O60 O 0.18885 0.93564 0.63882 0.0
O61 O 0.23842 0.82641 0.61992 0.0
C62 C 0.07244 0.84054 0.55133 0.0
C63 C 0.30879 0.97803 0.58652 0.0
C64 C 0.11137 1.00706 0.52365 0.0
C65 C 0.26069 0.86699 0.50277 0.0
C66 C 0.14403 0.95696 0.64129 0.0
C67 C 0.22731 0.78203 0.60817 0.0
O68 O 0.07176 0.877 0.57105 0.0
O69 O 0.01444 0.42303 0.75736 0.0
Zn70 Zn 0.97601 0.47751 0.78073 0.0
O71 O 0.9189 0.44524 0.80385 0.0
Zn72 Zn 0.84952 0.45503 0.78623 0.0
Zn73 Zn 0.9294 0.37178 0.80926 0.0
Zn74 Zn 0.92532 0.47906 0.84227 0.0
O75 O 0.8092 0.51028 0.81337 0.0
O76 O 0.87436 0.53734 0.8437 0.0
O77 O 0.94598 0.52406 0.74924 0.0
O78 O 0.86447 0.49101 0.74626 0.0
O79 O 0.81255 0.38138 0.77515 0.0
O80 O 0.87648 0.32642 0.78778 0.0
O81 O 0.9264 0.35102 0.85372 0.0
O82 O 0.0337 0.51111 0.80695 0.0
O83 O 0.90487 0.4287 0.87376 0.0
O84 O 0.99859 0.50416 0.85284 0.0
C85 C 0.02063 0.37592 0.76585 0.0
C86 C 0.82813 0.54264 0.83315 0.0
C87 C 0.83176 0.33445 0.77596 0.0
C88 C 0.90205 0.51893 0.73577 0.0
C89 C 0.91029 0.37922 0.8759 0.0
C90 C 0.03718 0.51582 0.83576 0.0
O91 O 0.99445 0.35579 0.78773 0.0
O92 O 0.66544 0.77466 0.97436 0.0
Zn93 Zn 0.7216 0.79491 0.94585 0.0
O94 O 0.69873 0.85678 0.92508 0.0
Zn95 Zn 0.71744 0.91902 0.94823 0.0
Zn96 Zn 0.62386 0.85073 0.92158 0.0
Zn97 Zn 0.73264 0.85253 0.88636 0.0
O98 O 0.77392 0.96057 0.92401 0.0
O99 O 0.79222 0.90432 0.88614 0.0
O100 O 0.78237 0.81122 0.97232 0.0
O101 O 0.75658 0.89237 0.98519 0.0
O102 O 0.64979 0.95965 0.96356 0.0
O103 O 0.58678 0.90629 0.94696 0.0
O104 O 0.60205 0.86057 0.87763 0.0
O105 O 0.73562 0.73444 0.91705 0.0
O106 O 0.68 0.87438 0.85571 0.0
O107 O 0.75682 0.77779 0.8752 0.0
C108 C 0.61833 0.7672 0.96643 0.0
C109 C 0.8022 0.94618 0.90123 0.0
C110 C 0.601 0.94667 0.96212 0.0
C111 C 0.78438 0.85127 0.98972 0.0
C112 C 0.63004 0.87378 0.85478 0.0
C113 C 0.75193 0.73451 0.88964 0.0
O114 O 0.60122 0.78273 0.94068 0.0
O115 O 0.44345 0.38158 0.69957 0.0
Zn116 Zn 0.43681 0.45649 0.68945 0.0
O117 O 0.36681 0.46693 0.67487 0.0
Zn118 Zn 0.32049 0.49657 0.70536 0.0
Zn119 Zn 0.33441 0.40148 0.66433 0.0
Zn120 Zn 0.37599 0.50729 0.63848 0.0
O121 O 0.28054 0.55868 0.68448 0.0
O122 O 0.33153 0.57124 0.64337 0.0
O123 O 0.44948 0.503 0.72573 0.0
O124 O 0.36811 0.53092 0.73591 0.0
O125 O 0.27961 0.43557 0.72923 0.0
O126 O 0.28821 0.37059 0.69603 0.0
O127 O 0.30031 0.40333 0.6236 0.0
O128 O 0.49299 0.47048 0.65775 0.0
O129 O 0.34926 0.46607 0.60317 0.0
O130 O 0.45166 0.52466 0.62671 0.0
C131 C 0.42537 0.34306 0.68426 0.0
C132 C 0.29404 0.58543 0.66087 0.0
C133 C 0.27267 0.38703 0.72173 0.0
C134 C 0.41727 0.5303 0.74137 0.0
C135 C 0.3165 0.42863 0.6005 0.0
C136 C 0.49352 0.50129 0.63498 0.0
O137 O 0.38898 0.34814 0.66476 0.0
O138 O 0.84394 0.24937 0.46674 0.0
Zn139 Zn 0.79011 0.21698 0.44069 0.0
O140 O 0.8201 0.15888 0.41876 0.0
Zn141 Zn 0.81225 0.09409 0.44095 0.0
Zn142 Zn 0.89215 0.17395 0.4129 0.0
Zn143 Zn 0.78352 0.15993 0.38107 0.0
O144 O 0.75604 0.04819 0.41873 0.0
O145 O 0.72803 0.10511 0.38344 0.0
O146 O 0.73642 0.19197 0.46954 0.0
O147 O 0.77616 0.11552 0.47954 0.0
O148 O 0.88625 0.06289 0.45427 0.0
O149 O 0.93902 0.12682 0.43815 0.0
O150 O 0.91186 0.16355 0.36855 0.0
O151 O 0.76613 0.27527 0.41266 0.0
O152 O 0.83419 0.13975 0.34941 0.0
O153 O 0.75456 0.23225 0.36944 0.0
C154 C 0.88646 0.26474 0.45493 0.0
C155 C 0.72323 0.06199 0.398 0.0
C156 C 0.93217 0.08397 0.45255 0.0
C157 C 0.74405 0.1522 0.48647 0.0
C158 C 0.88355 0.14564 0.34692 0.0
C159 C 0.75308 0.275 0.3847 0.0
O160 O 0.90359 0.24546 0.42985 0.0
O161 O 0.0487 0.61761 0.21402 0.0
Zn162 Zn 0.06386 0.56008 0.18508 0.0
O163 O 0.1294 0.57533 0.16613 0.0
Zn164 Zn 0.18703 0.54868 0.19048 0.0
Zn165 Zn 0.1342 0.65043 0.16321 0.0
Zn166 Zn 0.12278 0.54175 0.12738 0.0
O167 O 0.22722 0.49264 0.16539 0.0
O168 O 0.1719 0.48065 0.12648 0.0
O169 O 0.07044 0.49536 0.20954 0.0
O170 O 0.15404 0.50557 0.22367 0.0
O171 O 0.22986 0.61034 0.21115 0.0
O172 O 0.19136 0.67981 0.19024 0.0
O173 O 0.14783 0.67146 0.11954 0.0
O174 O 1.00386 0.55282 0.15531 0.0
O175 O 0.14745 0.59263 0.09682 0.0
O176 O 0.04742 0.52027 0.11599 0.0
C177 C 0.04942 0.66591 0.20697 0.0
C178 C 0.21229 0.46703 0.1417 0.0
C179 C 0.22445 0.66049 0.2088 0.0
C180 C 0.10917 0.48378 0.22642 0.0
C181 C 0.15466 0.64213 0.09622 0.0
C182 C 1.00402 0.53166 0.12901 0.0
O183 O 0.07045 0.6822 0.18236 0.0
O184 O 0.84614 0.73418 0.51715 0.0
Zn185 Zn 0.77963 0.6995 0.52891 0.0
O186 O 0.79625 0.62968 0.54532 0.0
Zn187 Zn 0.76893 0.57109 0.5213 0.0
Zn188 Zn 0.86975 0.61672 0.55029 0.0
Zn189 Zn 0.76704 0.63541 0.58528 0.0
O190 O 0.71176 0.53456 0.54918 0.0
O191 O 0.70005 0.59652 0.58509 0.0
O192 O 0.73297 0.69193 0.49304 0.0
O193 O 0.72737 0.60462 0.48677 0.0
O194 O 0.83293 0.52632 0.50074 0.0
O195 O 0.90178 0.56786 0.52029 0.0
O196 O 0.88904 0.59343 0.59242 0.0
O197 O 0.7494 0.75391 0.55896 0.0
O198 O 0.81181 0.60106 0.61552 0.0
O199 O 0.76079 0.71019 0.60153 0.0
C200 C 0.89122 0.72483 0.52818 0.0
C201 C 0.68564 0.55435 0.57169 0.0
C202 C 0.88313 0.53365 0.50229 0.0
C203 C 0.71619 0.65167 0.47876 0.0
C204 C 0.85991 0.58856 0.61573 0.0
C205 C 0.75155 0.75326 0.58791 0.0
O206 O 0.9022 0.68323 0.54268 0.0
O207 O 0.04412 0.15844 0.78728 0.0
Zn208 Zn 0.05743 0.09055 0.80789 0.0
O209 O 0.11989 0.10375 0.83109 0.0
Zn210 Zn 0.18416 0.08946 0.80877 0.0
Zn211 Zn 0.11586 0.17728 0.84002 0.0
Zn212 Zn 0.11371 0.06406 0.86705 0.0
O213 O 0.22645 0.03223 0.83249 0.0
O214 O 0.16316 1.00309 0.86355 0.0
O215 O 0.07364 0.04107 0.77479 0.0
O216 O 0.16032 0.05378 0.77075 0.0
O217 O 0.22105 0.15937 0.79326 0.0
O218 O 0.16566 0.2175 0.81288 0.0
O219 O 0.13472 0.19149 0.88275 0.0
O220 O 0.99615 0.06424 0.8334 0.0
O221 O 0.14007 0.10953 0.90059 0.0
O222 O 0.03839 0.04075 0.87547 0.0
C223 C 0.03856 0.20135 0.80171 0.0
C224 C 0.20835 0.99784 0.85125 0.0
C225 C 0.20493 0.20707 0.79615 0.0
C226 C 0.11713 0.03487 0.76108 0.0
C227 C 0.1458 0.15904 0.90367 0.0
C228 C 0.9961 0.04432 0.86002 0.0
O229 O 0.04333 0.20035 0.83029 0.0
O230 O 0.67642 0.2723 0.00352 0.0
Zn231 Zn 0.73277 0.30134 0.02878 0.0
O232 O 0.71005 0.36492 0.04829 0.0
Zn233 Zn 0.72945 0.42718 0.02516 0.0
Zn234 Zn 0.63547 0.36097 0.05277 0.0
Zn235 Zn 0.74471 0.36029 0.08696 0.0
O236 O 0.78249 0.47088 0.05186 0.0
O237 O 0.80413 0.41077 0.08675 0.0
O238 O 0.79178 0.316 0.00116 0.0
O239 O 0.77376 0.39985 0.9896 0.0
O240 O 0.66022 0.46575 0.00825 0.0
O241 O 0.59744 0.41391 0.02666 0.0
O242 O 0.61544 0.37457 0.09669 0.0
O243 O 0.74902 0.24266 0.05831 0.0
O244 O 0.69423 0.38391 0.11827 0.0
O245 O 0.768 0.2867 0.10009 0.0
C246 C 0.63126 0.26449 0.01461 0.0
C247 C 0.81223 0.45469 0.07359 0.0
C248 C 0.61123 0.45314 0.01055 0.0
C249 C 0.79847 0.35669 0.98487 0.0
C250 C 0.64441 0.38558 0.11951 0.0
C251 C 0.7637 0.2431 0.08594 0.0
O252 O 0.61366 0.29064 0.03727 0.0
O253 O 0.4744 0.87189 0.27886 0.0
Zn254 Zn 0.46386 0.93491 0.30514 0.0
O255 O 0.40116 0.91995 0.32729 0.0
Zn256 Zn 0.33896 0.94079 0.30502 0.0
Zn257 Zn 0.40191 0.84536 0.3324 0.0
Zn258 Zn 0.40783 0.95604 0.36462 0.0
O259 O 0.29614 0.99305 0.33195 0.0
O260 O 0.359 0.01861 0.364 0.0
O261 O 0.45171 0.99554 0.27827 0.0
O262 O 0.36627 0.98384 0.27014 0.0
O263 O 0.29915 0.87622 0.2856 0.0
O264 O 0.34734 0.81236 0.30512 0.0
O265 O 0.38772 0.82655 0.37568 0.0
O266 O 0.52625 0.95163 0.33201 0.0
O267 O 0.3842 0.90649 0.39665 0.0
O268 O 0.48355 0.97637 0.37376 0.0
C269 C 0.47861 0.82548 0.28923 0.0
C270 C 0.31382 0.02545 0.35198 0.0
C271 C 0.31075 0.82719 0.28757 0.0
C272 C 0.41019 1.00521 0.26343 0.0
C273 C 0.37931 0.85666 0.39833 0.0
C274 C 0.52631 0.97055 0.35891 0.0
O275 O 0.47038 0.81681 0.31726 0.0
O276 O 0.11412 0.29091 0.45772 0.0
Zn277 Zn 0.18505 0.30287 0.43897 0.0
O278 O 0.17382 0.35849 0.41014 0.0
Zn279 Zn 0.18408 0.42839 0.42641 0.0
Zn280 Zn 0.10236 0.34936 0.39976 0.0
Zn281 Zn 0.21607 0.34334 0.37585 0.0
O282 O 0.24085 0.46512 0.3982 0.0
O283 O 0.27581 0.39409 0.3756 0.0
O284 O 0.23374 0.32959 0.47093 0.0
O285 O 0.21759 0.41559 0.46698 0.0
O286 O 0.11142 0.46581 0.43769 0.0
O287 O 0.0578 0.40155 0.42375 0.0
O288 O 0.09112 0.3606 0.35575 0.0
O289 O 0.21076 0.23561 0.41835 0.0
O290 O 0.17387 0.3615 0.33933 0.0
O291 O 0.2383 0.26613 0.37377 0.0
C292 C 0.07678 0.27695 0.44031 0.0
C293 C 0.27709 0.4432 0.38192 0.0
C294 C 0.06507 0.44569 0.43671 0.0
C295 C 0.23717 0.37646 0.48117 0.0
C296 C 0.12488 0.3672 0.33482 0.0
C297 C 0.23173 0.22801 0.39229 0.0
O298 O 0.08552 0.27613 0.41207 0.0
O299 O 0.98114 0.89623 0.22451 0.0
Zn300 Zn 0.96597 0.95746 0.19812 0.0
O301 O 0.90354 0.9408 0.1754 0.0
Zn302 Zn 0.83959 0.96526 0.19546 0.0
Zn303 Zn 0.90119 0.86596 0.17001 0.0
Zn304 Zn 0.9147 0.97348 0.13711 0.0
O305 O 0.8034 0.01995 0.16626 0.0
O306 O 0.87064 0.03759 0.1352 0.0
O307 O 0.95122 0.01663 0.22581 0.0
O308 O 0.86429 1.00899 0.2318 0.0
O309 O 0.79473 0.89942 0.21165 0.0
O310 O 0.84175 0.83294 0.19313 0.0
O311 O 0.89187 0.84593 0.12606 0.0
O312 O 0.02982 0.97478 0.17193 0.0
O313 O 0.89005 0.92543 0.1048 0.0
O314 O 0.99056 0.99017 0.12791 0.0
C315 C 0.98147 0.84874 0.21557 0.0
C316 C 0.82523 0.04855 0.14564 0.0
C317 C 0.80327 0.84957 0.20887 0.0
C318 C 0.90873 0.02859 0.23932 0.0
C319 C 0.88496 0.87578 0.1032 0.0
C320 C 0.03201 0.9879 0.14399 0.0
O321 O 0.96356 0.83488 0.18969 0.0
O322 O 0.38491 0.73722 0.97097 0.0
Zn323 Zn 0.32606 0.72539 0.9426 0.0
O324 O 0.34379 0.66561 0.918 0.0
Zn325 Zn 0.32063 0.60002 0.93677 0.0
Zn326 Zn 0.41908 0.66569 0.91449 0.0
Zn327 Zn 0.31102 0.67989 0.87963 0.0
O328 O 0.26109 0.5683 0.9093 0.0
O329 O 0.24762 0.63372 0.87617 0.0
O330 O 0.26612 0.70786 0.96921 0.0
O331 O 0.28241 0.62208 0.97561 0.0
O332 O 0.38633 0.55152 0.94909 0.0
O333 O 0.45207 0.60459 0.93667 0.0
O334 O 0.44013 0.65707 0.8705 0.0
O335 O 0.31159 0.79149 0.91829 0.0
O336 O 0.36177 0.65702 0.84773 0.0
O337 O 0.29016 0.75731 0.87363 0.0
C338 C 0.43257 0.74093 0.96318 0.0
C339 C 0.23422 0.58984 0.88789 0.0
C340 C 0.43589 0.56211 0.94875 0.0
C341 C 0.25949 0.66485 0.98341 0.0
C342 C 0.41134 0.65054 0.84706 0.0
C343 C 0.29473 0.79718 0.8912 0.0
O344 O 0.44794 0.7284 0.93647 0.0
O345 O 0.54664 0.12268 0.71539 0.0
Zn346 Zn 0.57015 0.05477 0.69855 0.0
O347 O 0.6373 0.06103 0.67855 0.0
Zn348 Zn 0.69569 0.03413 0.70239 0.0
Zn349 Zn 0.64874 0.13421 0.67156 0.0
Zn350 Zn 0.62754 0.02544 0.64007 0.0
O351 O 0.73138 0.97359 0.676 0.0
O352 O 0.67041 0.96089 0.63994 0.0
O353 O 0.57461 1.00292 0.73189 0.0
O354 O 0.66157 0.9951 0.73778 0.0
O355 O 0.74069 0.09956 0.72087 0.0
O356 O 0.69877 0.16744 0.7003 0.0
O357 O 0.6715 0.1481 0.62928 0.0
O358 O 0.51157 0.03799 0.66933 0.0
O359 O 0.65495 0.07074 0.60727 0.0
O360 O 0.55204 1.00954 0.62815 0.0
C361 C 0.54803 0.16342 0.69884 0.0
C362 C 0.712 0.9468 0.65364 0.0
C363 C 0.7335 0.14975 0.71818 0.0
C364 C 0.61438 0.98463 0.74574 0.0
C365 C 0.67071 0.1181 0.60615 0.0
C366 C 0.50976 0.02034 0.64226 0.0
O367 O 0.58225 0.16959 0.67815 0.0
C368 C 0.55846 0.15656 0.0392 0.0
C369 C 0.51065 0.17588 0.02682 0.0
C370 C 0.55756 0.22441 0.98817 0.0
C371 C 0.60278 0.21752 0.00586 0.0
N372 N 0.65412 0.15919 0.03613 0.0
N373 N 0.46965 0.19298 0.97817 0.0
C374 C 0.60592 0.17604 0.02684 0.0
C375 C 0.51155 0.19803 -0.00277 0.0
N376 N 0.55841 0.12146 0.06262 0.0
N377 N 0.5579 0.25945 0.96477 0.0
H378 H 0.43798 0.16855 0.98345 0.0
H379 H 0.46986 0.20689 0.95589 0.0
H380 H 0.59253 0.2783 0.95811 0.0
H381 H 0.52411 0.27056 0.95308 0.0
H382 H 0.59192 0.11013 0.07441 0.0
H383 H 0.52457 0.10216 0.06971 0.0
H384 H 0.66023 0.12823 0.05115 0.0
H385 H 0.68834 0.1747 0.02655 0.0
C386 C 0.444 0.70396 0.24303 0.0
C387 C 0.49305 0.69377 0.2307 0.0
C388 C 0.52138 0.78192 0.24394 0.0
C389 C 0.48216 0.78126 0.26741 0.0
N390 N 0.41041 0.73099 0.29118 0.0
N391 N 0.56117 0.73263 0.20166 0.0
C392 C 0.4428 0.74059 0.26711 0.0
C393 C 0.52453 0.73752 0.22407 0.0
N394 N 0.40323 0.67128 0.23656 0.0
N395 N 0.55781 0.82138 0.24259 0.0
H396 H 0.56386 0.69777 0.18903 0.0
H397 H 0.5865 0.76255 0.1949 0.0
H398 H 0.5597 0.8519 0.25844 0.0
H399 H 0.58794 0.82282 0.22662 0.0
H400 H 0.36561 0.67727 0.24532 0.0
H401 H 0.40747 0.641 0.22057 0.0
H402 H 0.38384 0.69974 0.29143 0.0
H403 H 0.41485 0.74818 0.31245 0.0
C404 C 1.0039 0.81528 0.51402 0.0
C405 C 0.023 0.81564 0.54433 0.0
C406 C 0.94199 0.77827 0.56282 0.0
C407 C 0.92791 0.76752 0.53232 0.0
N408 N 0.94374 0.77433 0.47845 0.0
N409 N 0.01439 0.78991 0.59713 0.0
C410 C 0.95783 0.78634 0.50762 0.0
C411 C 0.99297 0.79578 0.56878 0.0
N412 N 0.02894 0.84323 0.49177 0.0
N413 N 0.90742 0.76893 0.58603 0.0
H414 H 0.05333 0.79913 0.6022 0.0
H415 H 0.9953 0.77053 0.61484 0.0
H416 H 0.86998 0.75347 0.58239 0.0
H417 H 0.91421 0.78084 0.6084 0.0
H418 H 0.01375 0.84801 0.46996 0.0
H419 H 0.06262 0.86553 0.49586 0.0
H420 H 0.96762 0.78186 0.45969 0.0
H421 H 0.90904 0.75443 0.47323 0.0
C422 C 0.0839 0.29089 0.7953 0.0
C423 C 0.0481 0.25071 0.78447 0.0
C424 C 0.03989 0.30058 0.73692 0.0
C425 C 0.06176 0.34332 0.75233 0.0
N426 N 0.13793 0.36567 0.78031 0.0
N427 N 0.99157 0.21943 0.7433 0.0
C428 C 0.09786 0.33155 0.77491 0.0
C429 C 0.02731 0.25499 0.75415 0.0
N430 N 0.09893 0.29565 0.82505 0.0
N431 N 0.0262 0.30674 0.70725 0.0
H432 H 0.97527 0.18966 0.75655 0.0
H433 H 0.97398 0.22249 0.72203 0.0
H434 H 0.03329 0.34241 0.69615 0.0
H435 H 0.01193 0.27633 0.69363 0.0
H436 H 0.12115 0.32734 0.83291 0.0
H437 H 0.08618 0.2724 0.84289 0.0
H438 H 0.16696 0.35842 0.79647 0.0
H439 H 0.14354 0.39856 0.76644 0.0
C440 C 0.5482 0.79784 -0.00116 0.0
C441 C 0.57936 0.75491 0.98962 0.0
C442 C 0.50283 0.6995 0.99172 0.0
C443 C 0.47256 0.74508 0.98678 0.0
N444 N 0.46256 0.83836 -0.00671 0.0
N445 N 0.58951 0.66146 0.98532 0.0
C446 C 0.49353 0.79467 -0.006 0.0
C447 C 0.55794 0.70403 0.9899 0.0
N448 N 0.57143 0.84182 0.01009 0.0
N449 N 0.47862 0.65265 -0.00347 0.0
H450 H 0.6303 0.66555 0.98405 0.0
H451 H 0.57507 0.62343 0.98207 0.0
H452 H 0.43768 0.64979 -0.00281 0.0
H453 H 0.49941 0.61934 0.00308 0.0
H454 H 0.5495 0.87138 0.02045 0.0
H455 H 0.61221 0.8445 0.01222 0.0
H456 H 0.47742 0.87648 -0.00471 0.0
H457 H 0.42206 0.83553 0.98989 0.0
C458 C 0.48135 0.209 0.66944 0.0
C459 C 0.50342 0.19892 0.69829 0.0
C460 C 0.45634 0.27335 0.71934 0.0
C461 C 0.44742 0.29102 0.68916 0.0
N462 N 0.45925 0.27801 0.63472 0.0
N463 N 0.51252 0.2209 0.75152 0.0
C464 C 0.46095 0.25918 0.66384 0.0
C465 C 0.49038 0.23023 0.72379 0.0
N466 N 0.48219 0.17139 0.64717 0.0
N467 N 0.43185 0.29707 0.74343 0.0
H468 H 0.53736 0.18909 0.75563 0.0
H469 H 0.50859 0.24663 0.76991 0.0
H470 H 0.40458 0.32733 0.7407 0.0
H471 H 0.43419 0.28281 0.76559 0.0
H472 H 0.46292 0.17584 0.62641 0.0
H473 H 0.49739 0.13388 0.6509 0.0
H474 H 0.47357 0.25679 0.61614 0.0
H475 H 0.44972 0.31671 0.62926 0.0
C476 C 0.98707 0.31923 0.43558 0.0
C477 C 0.02236 0.28463 0.45138 0.0
C478 C 0.95505 0.27441 0.49095 0.0
C479 C 0.92073 0.30111 0.47146 0.0
N480 N 0.91343 0.37872 0.44198 0.0
N481 N 0.04073 0.23335 0.49678 0.0
C482 C 0.94246 0.33695 0.45138 0.0
C483 C 1.00728 0.26455 0.48057 0.0
N484 N 0.99012 0.32876 0.40502 0.0
N485 N 0.93521 0.25436 0.51726 0.0
H486 H 0.07684 0.22064 0.48833 0.0
H487 H 0.03235 0.2187 0.51829 0.0
H488 H 0.89606 0.26121 0.52329 0.0
H489 H 0.9568 0.23307 0.53307 0.0
H490 H 0.96233 0.3516 0.39369 0.0
H491 H 0.01469 0.30909 0.38999 0.0
H492 H 0.92764 0.40598 0.42627 0.0
H493 H 0.87719 0.38716 0.45208 0.0
C494 C 0.97784 0.71368 0.23378 0.0
C495 C 0.03196 0.7054 0.229 0.0
C496 C 0.05181 0.79718 0.23908 0.0
C497 C 0.99777 0.80685 0.23607 0.0
N498 N 0.91019 0.77784 0.24616 0.0
N499 N 0.11983 0.73055 0.24179 0.0
C500 C 0.96112 0.7657 0.23977 0.0
C501 C 0.06884 0.74442 0.23731 0.0
N502 N 0.943 0.67343 0.22981 0.0
N503 N 0.08617 0.8383 0.24047 0.0
H504 H 0.13111 0.6911 0.24078 0.0
H505 H 0.14876 0.75668 0.24901 0.0
H506 H 0.0731 0.87711 0.24244 0.0
H507 H 0.1268 0.83407 0.23936 0.0
H508 H 0.90242 0.67839 0.22994 0.0
H509 H 0.95527 0.63479 0.22598 0.0
H510 H 0.88115 0.74984 0.25019 0.0
H511 H 0.89888 0.81692 0.24967 0.0
C512 C 0.51027 0.9826 0.02829 0.0
C513 C 0.46705 1.00769 0.01374 0.0
C514 C 0.51396 0.99644 0.96467 0.0
C515 C 0.55881 0.97566 0.97986 0.0
N516 N 0.60321 0.96231 0.02773 0.0
N517 N 0.43529 0.05004 0.96805 0.0
C518 C 0.5583 0.97379 0.01216 0.0
C519 C 0.47071 0.01755 0.98184 0.0
N520 N 0.50458 0.96444 0.05735 0.0
N521 N 0.51291 0.99693 0.93362 0.0
H522 H 0.40417 0.06792 0.97944 0.0
H523 H 0.43962 0.06342 0.94581 0.0
H524 H 0.54558 0.98726 0.92042 0.0
H525 H 0.47908 1.00478 0.92112 0.0
H526 H 0.53275 0.94147 0.0682 0.0
H527 H 0.46914 0.96687 0.06923 0.0
H528 H 0.60613 0.96595 0.0513 0.0
H529 H 0.63872 0.9534 0.01715 0.0
C530 C 0.75051 0.75586 0.27112 0.0
C531 C 0.72885 0.71441 0.25304 0.0
C532 C 0.74521 0.76848 0.20704 0.0
C533 C 0.77056 0.80795 0.22483 0.0
N534 N 0.8008 0.83739 0.27387 0.0
N535 N 0.70848 0.68014 0.20324 0.0
C536 C 0.77359 0.80134 0.25695 0.0
C537 C 0.72735 0.72041 0.22082 0.0
N538 N 0.74878 0.75178 0.30211 0.0
N539 N 0.73612 0.7783 0.17693 0.0
H540 H 0.69264 0.64573 0.21226 0.0
H541 H 0.71155 0.67895 0.17964 0.0
H542 H 0.74715 0.81352 0.16657 0.0
H543 H 0.71352 0.75436 0.16286 0.0
H544 H 0.75676 0.78281 0.31691 0.0
H545 H 0.73717 0.71742 0.3132 0.0
H546 H 0.81065 0.83211 0.29662 0.0
H547 H 0.81654 0.87174 0.26467 0.0
C548 C 0.05859 1.00802 0.47421 0.0
C549 C 0.07206 0.03249 0.50242 0.0
C550 C 0.99058 0.08565 0.49921 0.0
C551 C 0.97836 0.06293 0.47041 0.0
N552 N 1.0053 1.00886 0.42819 0.0
N553 N 0.05546 0.10096 0.53898 0.0
C554 C 0.01387 0.0261 0.45723 0.0
C555 C 0.03924 0.07326 0.51398 0.0
N556 N 0.08678 0.96549 0.46434 0.0
N557 N 0.95485 0.11828 0.51285 0.0
H558 H 0.0912 0.09352 0.54974 0.0
H559 H 0.03626 0.13406 0.54746 0.0
H560 H 0.91942 0.12886 0.50266 0.0
H561 H 0.95808 0.13159 0.53518 0.0
H562 H 0.07524 0.94162 0.44625 0.0
H563 H 0.12018 0.9518 0.47548 0.0
H564 H 0.03255 0.98707 0.41575 0.0
H565 H 0.97204 0.01933 0.41576 0.0
C566 C 0.8311 0.26004 0.73705 0.0
C567 C 0.80501 0.28741 0.76117 0.0
C568 C 0.73504 0.21958 0.7598 0.0
C569 C 0.76256 0.19083 0.73678 0.0
N570 N 0.84085 0.17971 0.70701 0.0
N571 N 0.73656 0.2878 0.79893 0.0
C572 C 0.812 0.20985 0.72666 0.0
C573 C 0.75811 0.26565 0.77344 0.0
N574 N 0.87295 0.28341 0.72297 0.0
N575 N 0.68594 0.20337 0.76821 0.0
H576 H 0.75172 0.32168 0.80913 0.0
H577 H 0.70609 0.27068 0.81123 0.0
H578 H 0.66932 0.16826 0.76043 0.0
H579 H 0.66071 0.2258 0.78166 0.0
H580 H 0.89036 0.26885 0.70323 0.0
H581 H 0.88742 0.32027 0.72933 0.0
H582 H 0.87946 0.18814 0.70093 0.0
H583 H 0.82761 0.14343 0.69886 0.0
C584 C 0.27764 0.33369 0.77121 0.0
C585 C 0.25153 0.34549 0.74331 0.0
C586 C 0.20246 0.26139 0.74799 0.0
C587 C 0.22593 0.25148 0.77677 0.0
N588 N 0.27907 0.28307 0.81817 0.0
N589 N 0.18163 0.32497 0.70849 0.0
C590 C 0.26141 0.28921 0.78907 0.0
C591 C 0.21201 0.31026 0.73264 0.0
N592 N 0.32001 0.36303 0.77999 0.0
N593 N 0.17068 0.22393 0.73526 0.0
H594 H 0.18607 0.36121 0.69766 0.0
H595 H 0.14874 0.30419 0.70118 0.0
H596 H 0.16176 0.18849 0.74604 0.0
H597 H 0.15639 0.22591 0.71312 0.0
H598 H 0.34455 0.35259 0.79791 0.0
H599 H 0.33343 0.39565 0.76797 0.0
H600 H 0.29954 0.31217 0.82996 0.0
H601 H 0.27022 0.25001 0.83125 0.0
C602 C 0.26333 0.73968 0.28069 0.0
C603 C 0.28602 0.78554 0.26737 0.0
C604 C 0.27966 0.74234 0.21679 0.0
C605 C 0.25242 0.69887 0.22971 0.0
N606 N 0.2144 0.65826 0.27421 0.0
N607 N 0.3144 0.83107 0.22208 0.0
C608 C 0.24399 0.69772 0.26181 0.0
C609 C 0.29348 0.78704 0.23521 0.0
N610 N 0.26004 0.7362 0.31169 0.0
N611 N 0.29483 0.73945 0.18697 0.0
H612 H 0.32915 0.86278 0.23447 0.0
H613 H 0.31454 0.83781 0.19875 0.0
H614 H 0.28697 0.70673 0.17329 0.0
H615 H 0.31945 0.76661 0.17647 0.0
H616 H 0.25182 0.7014 0.3232 0.0
H617 H 0.26788 0.7678 0.32619 0.0
H618 H 0.20063 0.6586 0.29651 0.0
H619 H 0.19988 0.62657 0.26173 0.0
C620 C 1.00285 0.4474 0.48212 0.0
C621 C 0.01866 0.46941 0.45371 0.0
C622 C 0.93662 0.52258 0.45364 0.0
C623 C 0.9232 0.50389 0.4832 0.0
N624 N 0.94535 0.45072 0.52645 0.0
N625 N 1.00166 0.52941 0.41279 0.0
C626 C 0.95681 0.46665 0.49751 0.0
C627 C 0.98562 0.50737 0.43957 0.0
N628 N 0.03137 0.40689 0.49416 0.0
N629 N 0.90204 0.55486 0.43899 0.0
H630 H 0.03656 0.51862 0.40198 0.0
H631 H 0.98256 0.5604 0.40209 0.0
H632 H 0.86641 0.56636 0.4487 0.0
H633 H 0.90634 0.56728 0.41661 0.0
H634 H 0.0187 0.38406 0.51237 0.0
H635 H 0.06665 0.39372 0.48475 0.0
H636 H 0.97103 0.42935 0.54005 0.0
H637 H 0.9105 0.461 0.53749 0.0
C638 C 0.56646 0.4865 0.96192 0.0
C639 C 0.56769 0.48289 -0.00579 0.0
C640 C 0.47632 0.51771 -0.00438 0.0
C641 C 0.47734 0.52723 0.96367 0.0
N642 N 0.5259 0.52259 0.91655 0.0
N643 N 0.52653 0.50435 0.04198 0.0
C644 C 0.52333 0.51228 0.94699 0.0
C645 C 0.52308 0.50066 0.01101 0.0
N646 N 0.6051 0.46269 0.9452 0.0
N647 N 0.43116 0.52629 0.0117 0.0
H648 H 0.56051 0.49462 0.05391 0.0
H649 H 0.49816 0.5223 0.05557 0.0
H650 H 0.39717 0.54176 0.00215 0.0
H651 H 0.42602 0.51423 0.03413 0.0
H652 H 0.60354 0.45816 0.92167 0.0
H653 H 0.63698 0.44343 0.955 0.0
H654 H 0.56043 0.52024 0.90389 0.0
H655 H 0.49369 0.53562 0.90409 0.0
C656 C 0.31502 0.36295 0.11928 0.0
C657 C 0.2813 0.32128 0.10988 0.0
C658 C 0.20533 0.37189 0.12746 0.0
C659 C 0.23789 0.41636 0.13297 0.0
N660 N 0.32356 0.45662 0.12925 0.0
N661 N 0.19311 0.29317 0.09751 0.0
C662 C 0.29284 0.41262 0.12763 0.0
C663 C 0.22609 0.32778 0.11182 0.0
N664 N 0.36789 0.3547 0.12138 0.0
N665 N 0.1548 0.37081 0.13802 0.0
H666 H 0.20648 0.26196 0.08411 0.0
H667 H 0.15271 0.29922 0.09596 0.0
H668 H 0.13828 0.40125 0.1508 0.0
H669 H 0.13139 0.33716 0.13708 0.0
H670 H 0.39359 0.38196 0.13101 0.0
H671 H 0.38549 0.31875 0.11613 0.0
H672 H 0.36278 0.45715 0.12245 0.0
H673 H 0.30875 0.49369 0.13479 0.0
C674 C 0.40085 0.52749 0.36809 0.0
C675 C 0.41649 0.50681 0.33924 0.0
C676 C 0.33057 0.4633 0.33554 0.0
C677 C 0.32008 0.47413 0.36671 0.0
N678 N 0.34802 0.51525 0.41352 0.0
N679 N 0.3976 0.44646 0.2979 0.0
C680 C 0.35574 0.50634 0.38322 0.0
C681 C 0.38149 0.47281 0.32341 0.0
N682 N 0.42774 0.56877 0.38057 0.0
N683 N 0.29146 0.44419 0.31733 0.0
H684 H 0.43559 0.4488 0.2892 0.0
H685 H 0.37494 0.41746 0.2874 0.0
H686 H 0.25311 0.43887 0.32519 0.0
H687 H 0.29563 0.43977 0.29386 0.0
H688 H 0.41547 0.58835 0.40019 0.0
H689 H 0.45877 0.58737 0.36943 0.0
H690 H 0.3761 0.53292 0.42744 0.0
H691 H 0.31495 0.50205 0.42515 0.0
C692 C 0.29293 0.72667 0.63676 0.0
C693 C 0.24139 0.7328 0.62487 0.0
C694 C 0.21995 0.64256 0.64134 0.0
C695 C 0.27068 0.63787 0.65427 0.0
N696 N 0.34915 0.68051 0.67217 0.0
N697 N 0.15194 0.7012 0.62278 0.0
C698 C 0.30485 0.68187 0.65468 0.0
C699 C 0.20361 0.69209 0.62924 0.0
N700 N 0.3318 0.76144 0.62917 0.0
N701 N 0.18823 0.59932 0.63947 0.0
H702 H 0.13827 0.73731 0.61483 0.0
H703 H 0.12203 0.67479 0.62811 0.0
H704 H 0.19844 0.56313 0.64895 0.0
H705 H 0.15342 0.59858 0.62706 0.0
H706 H 0.37111 0.75563 0.63477 0.0
H707 H 0.32622 0.79296 0.6144 0.0
H708 H 0.37321 0.71317 0.67566 0.0
H709 H 0.35848 0.64824 0.68578 0.0
C710 C 0.08982 0.58245 0.86553 0.0
C711 C 0.08756 0.53349 0.84996 0.0
C712 C 0.1816 0.51907 0.86067 0.0
C713 C 0.18316 0.56685 0.8775 0.0
N714 N 0.13648 0.63903 0.90091 0.0
N715 N 0.1282 0.45023 0.83793 0.0
C716 C 0.13647 0.59697 0.8814 0.0
C717 C 0.13261 0.50036 0.84902 0.0
N718 N 0.04803 0.61616 0.8641 0.0
N719 N 0.22725 0.49273 0.85461 0.0
H720 H 0.09328 0.43517 0.82906 0.0
H721 H 0.15778 0.42219 0.83997 0.0
H722 H 0.26356 0.50473 0.86312 0.0
H723 H 0.22974 0.46125 0.83943 0.0
H724 H 0.04924 0.65487 0.87193 0.0
H725 H 0.01326 0.60698 0.85273 0.0
H726 H 0.1026 0.65902 0.90748 0.0
H727 H 0.16982 0.65117 0.91276 0.0
C728 C 0.79917 0.59278 0.87884 0.0
C729 C 0.79659 0.58637 0.84682 0.0
C730 C 0.75307 0.67256 0.84374 0.0
C731 C 0.76629 0.68317 0.87472 0.0
N732 N 0.8144 0.65486 0.91936 0.0
N733 N 0.77571 0.62405 0.79794 0.0
C734 C 0.79235 0.64352 0.89177 0.0
C735 C 0.77441 0.62714 0.82894 0.0
N736 N 0.8088 0.55028 0.89697 0.0
N737 N 0.71865 0.70439 0.82871 0.0
H738 H 0.79068 0.59162 0.78622 0.0
H739 H 0.76547 0.65547 0.78395 0.0
H740 H 0.69951 0.73583 0.8392 0.0
H741 H 0.7045 0.69579 0.80702 0.0
H742 H 0.807 0.55217 0.92065 0.0
H743 H 0.81255 0.5122 0.8882 0.0
H744 H 0.83749 0.62798 0.93121 0.0
H745 H 0.81574 0.6927 0.92855 0.0
C746 C 0.54503 0.50592 0.58536 0.0
C747 C 0.5438 0.5094 0.61777 0.0
C748 C 0.63954 0.5205 0.61755 0.0
C749 C 0.6392 0.52751 0.58554 0.0
N750 N 0.58995 0.53083 0.5388 0.0
N751 N 0.59043 0.52985 0.66427 0.0
C752 C 0.59156 0.52081 0.56928 0.0
C753 C 0.59132 0.51881 0.63381 0.0
N754 N 0.50265 0.48654 0.56993 0.0
N755 N 0.68634 0.51583 0.63247 0.0
H756 H 0.55586 0.53296 0.67687 0.0
H757 H 0.62355 0.54198 0.67629 0.0
H758 H 0.72232 0.51588 0.62102 0.0
H759 H 0.68905 0.50616 0.65544 0.0
H760 H 0.50325 0.4787 0.54665 0.0
H761 H 0.46887 0.47294 0.58078 0.0
H762 H 0.55505 0.53295 0.52652 0.0
H763 H 0.62329 0.54027 0.52616 0.0
C764 C 0.75419 0.33832 0.33961 0.0
C765 C 0.73736 0.32579 0.36974 0.0
C766 C 0.70075 0.4148 0.37394 0.0
C767 C 0.70748 0.42297 0.34221 0.0
N768 N 0.73461 0.38687 0.29366 0.0
N769 N 0.68245 0.35028 0.41257 0.0
C770 C 0.73278 0.38331 0.32463 0.0
C771 C 0.70744 0.36363 0.38617 0.0
N772 N 0.79234 0.30912 0.32566 0.0
N773 N 0.68841 0.45614 0.39258 0.0
H774 H 0.68169 0.31202 0.42106 0.0
H775 H 0.65682 0.37576 0.42384 0.0
H776 H 0.68581 0.49477 0.38467 0.0
H777 H 0.68714 0.45281 0.41621 0.0
H778 H 0.80878 0.31953 0.30479 0.0
H779 H 0.81215 0.27855 0.33644 0.0
H780 H 0.74758 0.35604 0.27985 0.0
H781 H 0.71904 0.41843 0.28161 0.0
C782 C 0.8987 0.50521 0.06803 0.0
C783 C 0.85627 0.48713 0.08629 0.0
C784 C 0.91097 0.49664 0.13182 0.0
C785 C 0.95263 0.51802 0.11414 0.0
N786 N 0.97889 0.55674 0.06625 0.0
N787 N 0.81708 0.48476 0.13619 0.0
C788 C 0.94436 0.52664 0.08244 0.0
C789 C 0.86083 0.48965 0.1184 0.0
N790 N 0.89685 0.49993 0.03714 0.0
N791 N 0.9197 0.47892 0.16071 0.0
H792 H 0.77947 0.48108 0.12696 0.0
H793 H 0.81769 0.49046 0.15969 0.0
H794 H 0.95675 0.47772 0.1707 0.0
H795 H 0.89125 0.45897 0.17328 0.0
H796 H 0.92924 0.5066 0.02315 0.0
H797 H 0.86414 0.48549 0.02563 0.0
H798 H 0.97224 0.56802 0.04381 0.0
H799 H 0.0111 0.57536 0.07618 0.0
C800 C 0.77251 0.85066 0.59723 0.0
C801 C 0.74601 0.80347 0.60619 0.0
C802 C 0.71783 0.84884 0.65326 0.0
C803 C 0.73649 0.89736 0.64185 0.0
N804 N 0.77882 0.94584 0.6019 0.0
N805 N 0.68502 0.76195 0.64095 0.0
C806 C 0.76342 0.89849 0.61362 0.0
C807 C 0.71691 0.80352 0.63397 0.0
N808 N 0.80783 0.84996 0.57378 0.0
N809 N 0.70002 0.84646 0.68252 0.0
H810 H 0.67941 0.72991 0.62645 0.0
H811 H 0.65933 0.76203 0.65941 0.0
H812 H 0.70096 0.87919 0.69694 0.0
H813 H 0.69001 0.81136 0.69327 0.0
H814 H 0.83254 0.88149 0.56881 0.0
H815 H 0.81636 0.8167 0.56088 0.0
H816 H 0.79197 0.95057 0.57962 0.0
H817 H 0.77575 0.981 0.61416 0.0
C818 C 0.85191 0.02749 0.88368 0.0
C819 C 0.85204 0.97445 0.89383 0.0
C820 C 0.94554 0.96696 0.88053 0.0
C821 C 0.9466 0.021 0.87235 0.0
N822 N 0.90321 0.10539 0.87157 0.0
N823 N 0.90202 0.89818 0.90894 0.0
C824 C 0.90042 0.05211 0.8755 0.0
C825 C 0.89986 0.94566 0.89443 0.0
N826 N 0.80535 0.05363 0.8806 0.0
N827 N 0.987 0.93493 0.87345 0.0
H828 H 0.8696 0.88128 0.91965 0.0
H829 H 0.93701 0.87818 0.91304 0.0
H830 H 0.02062 0.94809 0.86224 0.0
H831 H 0.98584 0.89415 0.87583 0.0
H832 H 0.80202 0.09017 0.87009 0.0
H833 H 0.76931 0.03702 0.88651 0.0
H834 H 0.8723 0.13087 0.87651 0.0
H835 H 0.93803 0.12475 0.86596 0.0
C836 C 0.77703 0.13701 0.14804 0.0
C837 C 0.7981 0.09432 0.13099 0.0
C838 C 0.79991 0.15011 0.08552 0.0
C839 C 0.77507 0.19181 0.10169 0.0
N840 N 0.72504 0.21676 0.1464 0.0
N841 N 0.81056 0.05585 0.08126 0.0
C842 C 0.75914 0.18294 0.13243 0.0
C843 C 0.80298 0.0995 0.09896 0.0
N844 N 0.77581 0.1351 0.17906 0.0
N845 N 0.82397 0.15908 0.05821 0.0
H846 H 0.81087 0.01786 0.09027 0.0
H847 H 0.81021 0.05712 0.05755 0.0
H848 H 0.82776 0.19642 0.0487 0.0
H849 H 0.84618 0.13049 0.047 0.0
H850 H 0.76654 0.16769 0.19251 0.0
H851 H 0.78775 0.10235 0.19144 0.0
H852 H 0.70887 0.20949 0.16778 0.0
H853 H 0.70796 0.24857 0.13528 0.0
C854 C 0.62559 0.06143 0.3973 0.0
C855 C 0.67302 0.0329 0.39337 0.0
C856 C 0.62225 0.95851 0.37287 0.0
C857 C 0.57648 0.99074 0.3721 0.0
N858 N 0.53836 0.07749 0.37824 0.0
N859 N 0.71761 0.95527 0.3753 0.0
C860 C 0.57895 0.0433 0.38317 0.0
C861 C 0.67171 0.98139 0.38083 0.0
N862 N 0.62514 0.10615 0.41468 0.0
N863 N 0.61825 0.90588 0.36678 0.0
H864 H 0.75418 0.97055 0.38134 0.0
H865 H 0.71964 0.9202 0.363 0.0
H866 H 0.58261 0.88769 0.36161 0.0
H867 H 0.64915 0.87952 0.36969 0.0
H868 H 0.5907 0.12564 0.42085 0.0
H869 H 0.65862 0.12048 0.42557 0.0
H870 H 0.54076 0.11761 0.38306 0.0
H871 H 0.50453 0.06751 0.36622 0.0
C872 C 0.23133 0.15337 0.35394 0.0
C873 C 0.24709 0.17338 0.38278 0.0
C874 C 0.28703 0.08765 0.39381 0.0
C875 C 0.28234 0.07227 0.36277 0.0
N876 N 0.25018 0.09402 0.31232 0.0
N877 N 0.29739 0.1604 0.42879 0.0
C878 C 0.25405 0.10577 0.34255 0.0
C879 C 0.27664 0.14061 0.40248 0.0
N880 N 0.19302 0.17861 0.33782 0.0
N881 N 0.30002 0.05116 0.4153 0.0
H882 H 0.29336 0.19961 0.43544 0.0
H883 H 0.32342 0.13916 0.44231 0.0
H884 H 0.30436 0.01125 0.41013 0.0
H885 H 0.29978 0.05938 0.43855 0.0
H886 H 0.17614 0.16294 0.3182 0.0
H887 H 0.17373 0.2121 0.34587 0.0
H888 H 0.23613 0.12074 0.29633 0.0
H889 H 0.2638 0.05939 0.30254 0.0
C890 C 0.08704 0.05406 0.1159 0.0
C891 C 0.08306 1.00409 0.13015 0.0
C892 C 0.17683 0.98813 0.11952 0.0
C893 C 0.17941 0.03657 0.1036 0.0
N894 N 0.1339 0.10875 0.07996 0.0
N895 N 0.12145 0.91899 0.14019 0.0
C896 C 0.1334 0.06721 0.09966 0.0
C897 C 0.12723 0.96971 0.13045 0.0
N898 N 0.04785 0.09043 0.11935 0.0
N899 N 0.2219 0.96075 0.12519 0.0
H900 H 0.08572 0.90389 0.14785 0.0
H901 H 0.15076 0.89062 0.13815 0.0
H902 H 0.25846 0.97254 0.11691 0.0
H903 H 0.22356 0.92843 0.13968 0.0
H904 H 0.05126 0.12931 0.11214 0.0
H905 H 0.01417 0.08371 0.13229 0.0
H906 H 0.10023 0.12942 0.0738 0.0
H907 H 0.16706 0.11887 0.06731 0.0
C908 C 0.2626 0.91524 0.8397 0.0
C909 C 0.23994 0.95099 0.86095 0.0
C910 C 0.25002 0.88489 0.90106 0.0
C911 C 0.27739 0.8508 0.88074 0.0
N912 N 0.32251 0.84211 0.83248 0.0
N913 N 0.22985 0.97525 0.91377 0.0
C914 C 0.28763 0.86853 0.85055 0.0
C915 C 0.23976 0.93757 0.89226 0.0
N916 N 0.25813 0.924 0.80918 0.0
N917 N 0.23001 0.86648 0.92787 0.0
H918 H 0.22436 0.01481 0.90824 0.0
H919 H 0.23338 0.96814 0.93703 0.0
H920 H 0.23099 0.82696 0.9341 0.0
H921 H 0.20614 0.88929 0.942 0.0
H922 H 0.26904 0.89615 0.79289 0.0
H923 H 0.23937 0.95682 0.80012 0.0
H924 H 0.33455 0.85609 0.81132 0.0
H925 H 0.34401 0.80978 0.84004 0.0
C926 C 0.41236 1.00108 0.6443 0.0
C927 C 0.45739 0.01466 0.62686 0.0
C928 C 0.40232 0.01283 0.58066 0.0
C929 C 0.35724 1.00341 0.59881 0.0
N930 N 0.3182 1.0094 0.6487 0.0
N931 N 0.48911 0.05153 0.57932 0.0
C932 C 0.36204 1.00521 0.63093 0.0
C933 C 0.45075 0.02599 0.59523 0.0
N934 N 0.4172 0.98034 0.67281 0.0
N935 N 0.39993 1.00733 0.54981 0.0
H936 H 0.52306 0.06623 0.58943 0.0
H937 H 0.48402 0.064 0.55694 0.0
H938 H 0.36527 0.99841 0.53831 0.0
H939 H 0.43325 1.00811 0.536 0.0
H940 H 0.38511 0.96641 0.68516 0.0
H941 H 0.45321 0.97023 0.68239 0.0
H942 H 0.32001 0.01446 0.67223 0.0
H943 H 0.28073 0.01377 0.6394 0.0
C944 C 0.18468 0.17972 0.98507 0.0
C945 C 0.23974 0.1781 0.98102 0.0
C946 C 0.22997 0.18673 0.92623 0.0
C947 C 0.17538 0.17753 0.92999 0.0
N948 N 0.09908 0.16802 0.96186 0.0
N949 N 0.31645 0.18113 0.94882 0.0
C950 C 0.15202 0.17562 0.95916 0.0
C951 C 0.26299 0.18316 0.95194 0.0
N952 N 0.16415 0.18554 0.01363 0.0
N953 N 0.25029 0.19743 0.89808 0.0
H954 H 0.34201 0.17999 0.96732 0.0
H955 H 0.33564 0.1776 0.92799 0.0
H956 H 0.22776 0.19841 0.87834 0.0
H957 H 0.28879 0.20972 0.89448 0.0
H958 H 0.12432 0.19074 0.01805 0.0
H959 H 0.18787 0.18999 0.03282 0.0
H960 H 0.08028 0.1602 0.9824 0.0
H961 H 0.07406 0.16769 0.94307 0.0
C962 C 0.62664 0.37742 0.17476 0.0
C963 C 0.62105 0.40664 0.14758 0.0
C964 C 0.59304 0.48386 0.17658 0.0
C965 C 0.60683 0.45718 0.20373 0.0
N966 N 0.63667 0.37941 0.22969 0.0
N967 N 0.60177 0.48818 0.12183 0.0
C968 C 0.62317 0.40392 0.20318 0.0
C969 C 0.60395 0.45973 0.14818 0.0
N970 N 0.63477 0.32431 0.17312 0.0
N971 N 0.56996 0.53245 0.17798 0.0
H972 H 0.60871 0.4718 0.10043 0.0
H973 H 0.59634 0.52878 0.12118 0.0
H974 H 0.56348 0.55258 0.19833 0.0
H975 H 0.55356 0.55118 0.15922 0.0
H976 H 0.63551 0.29963 0.19197 0.0
H977 H 0.63589 0.30423 0.15238 0.0
H978 H 0.65437 0.34252 0.23061 0.0
H979 H 0.6326 0.39735 0.25096 0.0
C980 C 0.27383 0.82591 0.45169 0.0
C981 C 0.2954 0.84958 0.47813 0.0
C982 C 0.38181 0.85384 0.45437 0.0
C983 C 0.35882 0.83543 0.42706 0.0
N984 N 0.29123 0.78293 0.40346 0.0
N985 N 0.37143 0.87103 0.50841 0.0
C986 C 0.30765 0.81383 0.42707 0.0
C987 C 0.35018 0.85837 0.48078 0.0
N988 N 0.22079 0.81855 0.44918 0.0
N989 N 0.43321 0.86932 0.45424 0.0
H990 H 0.3489 0.87412 0.52819 0.0
H991 H 0.41157 0.87448 0.51233 0.0
H992 H 0.45745 0.86312 0.43537 0.0
H993 H 0.45134 0.88904 0.47216 0.0
H994 H 0.20246 0.80732 0.42901 0.0
H995 H 0.19432 0.82749 0.46656 0.0
H996 H 0.25546 0.76302 0.40338 0.0
H997 H 0.31591 0.77184 0.38566 0.0
C998 C 0.88442 0.60988 0.66868 0.0
C999 C 0.88221 0.57219 0.64486 0.0
C1000 C 0.90423 0.50192 0.68022 0.0
C1001 C 0.89807 0.5383 0.70456 0.0
N1002 N 0.881 0.62603 0.72307 0.0
N1003 N 0.88816 0.48261 0.62699 0.0
C1004 C 0.88842 0.59228 0.69914 0.0
C1005 C 0.8924 0.5183 0.65023 0.0
N1006 N 0.88312 0.66241 0.66194 0.0
N1007 N 0.92209 0.45206 0.68581 0.0
H1008 H 0.88126 0.49361 0.6045 0.0
H1009 H 0.88863 0.44201 0.63017 0.0
H1010 H 0.93075 0.43846 0.70761 0.0
H1011 H 0.93247 0.42551 0.66875 0.0
H1012 H 0.8891 0.69209 0.67794 0.0
H1013 H 0.88078 0.6763 0.63965 0.0
H1014 H 0.86809 0.66467 0.72065 0.0
H1015 H 0.88451 0.61433 0.74571 0.0
C1016 C 0.80737 0.84554 0.07406 0.0
C1017 C 0.8623 0.85441 0.07516 0.0
C1018 C 0.86784 0.8532 0.01967 0.0
C1019 C 0.81263 0.84655 0.01864 0.0
N1020 N 0.73182 0.82196 0.04354 0.0
N1021 N 0.94676 0.85475 0.05076 0.0
C1022 C 0.78306 0.83783 0.04548 0.0
C1023 C 0.89325 0.85407 0.0484 0.0
N1024 N 0.778 0.84806 0.10012 0.0
N1025 N 0.89532 0.86088 -0.00668 0.0
H1026 H 0.96583 0.85508 0.07178 0.0
H1027 H 0.97217 0.85064 0.03235 0.0
H1028 H 0.87777 0.85872 0.97195 0.0
H1029 H 0.93473 0.8716 -0.00747 0.0
H1030 H 0.73713 0.84902 0.10036 0.0
H1031 H 0.79442 0.85225 0.1217 0.0
H1032 H 0.70974 0.8097 0.06217 0.0
H1033 H 0.71255 0.81659 0.02285 0.0
C1034 C 0.43703 0.56606 0.82263 0.0
C1035 C 0.43262 0.62177 0.82072 0.0
C1036 C 0.43609 0.61737 0.76525 0.0
C1037 C 0.43622 0.56168 0.76731 0.0
N1038 N 0.45387 0.48361 0.79638 0.0
N1039 N 0.44084 0.70146 0.79192 0.0
C1040 C 0.44317 0.53632 0.79555 0.0
C1041 C 0.4369 0.64782 0.79245 0.0
N1042 N 0.43041 0.54126 0.84997 0.0
N1043 N 0.43317 0.64055 0.7373 0.0
H1044 H 0.44167 0.72392 0.81186 0.0
H1045 H 0.44715 0.72332 0.77228 0.0
H1046 H 0.43573 0.61878 0.71716 0.0
H1047 H 0.42734 0.68064 0.73392 0.0
H1048 H 0.42647 0.50067 0.85224 0.0
H1049 H 0.42524 0.56137 0.87045 0.0
H1050 H 0.46416 0.46369 0.81617 0.0
H1051 H 0.45734 0.46068 0.77676 0.0
C1052 C 0.74281 0.14459 0.57151 0.0
C1053 C 0.68843 0.13815 0.57688 0.0
C1054 C 0.6689 0.14811 0.52292 0.0
C1055 C 0.72344 0.15343 0.51749 0.0
N1056 N 0.81037 0.17276 0.53644 0.0
N1057 N 0.59877 0.14708 0.56031 0.0
C1058 C 0.75984 0.15691 0.5418 0.0
C1059 C 0.65106 0.14435 0.55334 0.0
N1060 N 0.77824 0.13609 0.59435 0.0
N1061 N 0.63472 0.14418 0.49909 0.0
H1062 H 0.58487 0.14515 0.58264 0.0
H1063 H 0.56969 0.15595 0.54451 0.0
H1064 H 0.64649 0.14833 0.47652 0.0
H1065 H 0.59534 0.13397 0.50148 0.0
H1066 H 0.8186 0.13369 0.59077 0.0
H1067 H 0.7672 0.12796 0.6167 0.0
H1068 H 0.83725 0.1809 0.55366 0.0
H1069 H 0.8241 0.18274 0.51485 0.0
C1070 C 0.08486 0.44171 0.30632 0.0
C1071 C 0.10838 0.39092 0.30604 0.0
C1072 C 0.12453 0.39737 0.25147 0.0
C1073 C 0.10094 0.44784 0.25191 0.0
N1074 N 0.04539 0.51163 0.27709 0.0
N1075 N 0.13818 0.31494 0.27807 0.0
C1076 C 0.07599 0.46745 0.27838 0.0
C1077 C 0.12401 0.36684 0.27839 0.0
N1078 N 0.07568 0.46778 0.33314 0.0
N1079 N 0.14882 0.37959 0.22567 0.0
H1080 H 0.13741 0.29168 0.29761 0.0
H1081 H 0.14596 0.29384 0.25822 0.0
H1082 H 0.14795 0.40039 0.20526 0.0
H1083 H 0.17192 0.3458 0.22487 0.0
H1084 H 0.06481 0.50728 0.33424 0.0
H1085 H 0.0835 0.45229 0.35455 0.0
H1086 H 0.02175 0.52409 0.29509 0.0
H1087 H 0.03965 0.5332 0.25725 0.0
C1088 C 0.60011 0.64302 0.42533 0.0
C1089 C 0.62308 0.66287 0.3983 0.0
C1090 C 0.70411 0.68359 0.42543 0.0
C1091 C 0.68265 0.66006 0.45192 0.0
N1092 N 0.6066 0.63131 0.48003 0.0
N1093 N 0.68767 0.71989 0.37543 0.0
C1094 C 0.62925 0.64434 0.45285 0.0
C1095 C 0.67188 0.68955 0.39936 0.0
N1096 N 0.55112 0.62117 0.4241 0.0
N1097 N 0.75611 0.69706 0.42448 0.0
H1098 H 0.66434 0.7263 0.35639 0.0
H1099 H 0.72097 0.7437 0.37597 0.0
H1100 H 0.78131 0.69302 0.443 0.0
H1101 H 0.7754 0.70842 0.40465 0.0
H1102 H 0.5341 0.6 0.44179 0.0
H1103 H 0.52791 0.62345 0.40459 0.0
H1104 H 0.56678 0.62336 0.48273 0.0
H1105 H 0.62708 0.63249 0.50057 0.0
C1106 C 0.12527 0.93972 0.6955 0.0
C1107 C 0.12831 0.9762 0.6712 0.0
C1108 C 0.11099 0.04906 0.7058 0.0
C1109 C 0.11609 0.01349 0.7304 0.0
N1110 N 0.13058 0.92621 0.74996 0.0
N1111 N 0.12866 0.06562 0.65262 0.0
C1112 C 0.12352 0.95899 0.72568 0.0
C1113 C 0.12164 0.03091 0.67603 0.0
N1114 N 0.12304 0.88687 0.68954 0.0
N1115 N 0.09605 0.10008 0.711 0.0
H1116 H 0.1365 0.05385 0.63033 0.0
H1117 H 0.13057 0.10625 0.65562 0.0
H1118 H 0.0889 0.11515 0.73272 0.0
H1119 H 0.08646 0.12632 0.69372 0.0
H1120 H 0.11609 0.85855 0.70614 0.0
H1121 H 0.12332 0.87154 0.66748 0.0
H1122 H 0.14227 0.88708 0.74785 0.0
H1123 H 0.12788 0.9391 0.77248 0.0
C1124 C 0.84034 0.33135 0.90376 0.0
C1125 C 0.89076 0.35505 0.90402 0.0
C1126 C 0.88421 0.37188 0.95868 0.0
C1127 C 0.83236 0.35172 0.95796 0.0
N1128 N 0.76573 0.29987 0.93275 0.0
N1129 N 0.9666 0.38442 0.93152 0.0
C1130 C 0.81216 0.32692 0.93147 0.0
C1131 C 0.91474 0.37056 0.93163 0.0
N1132 N 0.81774 0.31705 0.87674 0.0
N1133 N 0.90341 0.39344 0.98495 0.0
H1134 H 0.98928 0.38288 0.91172 0.0
H1135 H 0.98812 0.39308 0.95101 0.0
H1136 H 0.88267 0.39267 0.00544 0.0
H1137 H 0.93881 0.41376 0.98637 0.0
H1138 H 0.77838 0.30674 0.87443 0.0
H1139 H 0.83782 0.31757 0.85608 0.0
H1140 H 0.75191 0.27606 0.91518 0.0
H1141 H 0.74249 0.29797 0.95227 0.0
C1142 C 0.36685 0.07275 0.23228 0.0
C1143 C 0.41183 0.04186 0.23753 0.0
C1144 C 0.44766 0.07395 0.18963 0.0
C1145 C 0.39652 0.09016 0.18083 0.0
N1146 N 0.30297 0.08935 0.19392 0.0
N1147 N 0.49462 1.00782 0.21759 0.0
C1148 C 0.35459 0.08614 0.20221 0.0
C1149 C 0.45282 0.04128 0.21548 0.0
N1150 N 0.33521 0.08798 0.25574 0.0
N1151 N 0.49107 0.09007 0.17396 0.0
H1152 H 0.49934 0.98027 0.23481 0.0
H1153 H 0.52219 1.00388 0.20015 0.0
H1154 H 0.48927 0.11773 0.15651 0.0
H1155 H 0.52912 0.08134 0.18111 0.0
H1156 H 0.30325 0.11306 0.25255 0.0
H1157 H 0.34537 0.08086 0.27836 0.0
H1158 H 0.27255 0.08369 0.20951 0.0
H1159 H 0.29007 0.08888 0.17148 0.0
C1160 C 0.28513 0.36073 0.56269 0.0
C1161 C 0.29796 0.41385 0.56973 0.0
C1162 C 0.28708 0.43551 0.51627 0.0
C1163 C 0.26222 0.38638 0.51102 0.0
N1164 N 0.22505 0.30739 0.53399 0.0
N1165 N 0.29495 0.50507 0.55301 0.0
C1166 C 0.25763 0.35006 0.53547 0.0
C1167 C 0.29442 0.45245 0.5465 0.0
N1168 N 0.30061 0.32017 0.58093 0.0
N1169 N 0.3048 0.4655 0.49269 0.0
H1170 H 0.2934 0.51994 0.57511 0.0
H1171 H 0.28932 0.53359 0.5363 0.0
H1172 H 0.30475 0.45189 0.47029 0.0
H1173 H 0.32583 0.5003 0.49608 0.0
H1174 H 0.29427 0.28086 0.57502 0.0
H1175 H 0.32582 0.32512 0.59937 0.0
H1176 H 0.21889 0.28276 0.55262 0.0
H1177 H 0.19903 0.30046 0.5162 0.0
C1178 C 0.89382 0.14725 0.29114 0.0
C1179 C 0.90775 0.12415 0.31921 0.0
C1180 C 0.93476 0.04329 0.29329 0.0
C1181 C 0.91222 0.06318 0.2661 0.0
N1182 N 0.8743 0.13445 0.23753 0.0
N1183 N 0.94323 0.05181 0.348 0.0
C1184 C 0.8934 0.11561 0.26444 0.0
C1185 C 0.93022 0.07316 0.32047 0.0
N1186 N 0.88089 0.19946 0.29046 0.0
N1187 N 0.9595 0.99545 0.29325 0.0
H1188 H 0.9427 0.07326 0.36824 0.0
H1189 H 0.95263 0.01235 0.35119 0.0
H1190 H 0.96021 0.97026 0.27449 0.0
H1191 H 0.98219 0.98175 0.31123 0.0
H1192 H 0.87304 0.2204 0.27069 0.0
H1193 H 0.88229 0.223 0.30997 0.0
H1194 H 0.85512 0.17037 0.23525 0.0
H1195 H 0.87617 0.11304 0.21725 0.0
C1196 C 0.23055 0.67858 0.06737 0.0
C1197 C 0.17689 0.66358 0.06801 0.0
C1198 C 0.17629 0.65251 0.01273 0.0
C1199 C 0.23002 0.66679 0.01213 0.0
N1200 N 0.30549 0.70495 0.03712 0.0
N1201 N 0.09523 0.64969 0.04189 0.0
C1202 C 0.25609 0.68399 0.03889 0.0
C1203 C 0.14859 0.65519 0.04072 0.0
N1204 N 0.25822 0.68364 0.09389 0.0
N1205 N 0.15243 0.63473 0.98683 0.0
H1206 H 0.07439 0.65246 0.06231 0.0
H1207 H 0.07137 0.64737 0.02273 0.0
H1208 H 0.17176 0.63282 0.96593 0.0
H1209 H 0.11483 0.61866 0.98634 0.0
H1210 H 0.29893 0.6871 0.09475 0.0
H1211 H 0.24108 0.68139 0.11537 0.0
H1212 H 0.3239 0.72395 0.05522 0.0
H1213 H 0.32685 0.70679 0.01692 0.0
C1214 C 0.61755 0.8683 0.7989 0.0
C1215 C 0.60556 0.89376 0.82675 0.0
C1216 C 0.58913 0.97653 0.80039 0.0
C1217 C 0.60532 0.95215 0.77287 0.0
N1218 N 0.61913 0.87297 0.74372 0.0
N1219 N 0.5626 0.96517 0.85296 0.0
C1220 C 0.61433 0.8972 0.77139 0.0
C1221 C 0.58503 0.94554 0.82707 0.0
N1222 N 0.63379 0.81706 0.79919 0.0
N1223 N 0.58079 0.02973 0.80142 0.0
H1224 H 0.55848 0.94287 0.87265 0.0
H1225 H 0.54309 1.00114 0.85401 0.0
H1226 H 0.58288 0.05377 0.78226 0.0
H1227 H 0.57511 0.05075 0.82152 0.0
H1228 H 0.64938 0.79756 0.78038 0.0
H1229 H 0.6325 0.79442 0.81896 0.0
H1230 H 0.62187 0.83237 0.74088 0.0
H1231 H 0.61592 0.89347 0.72327 0.0
loop_
_geom_bond_atom_site_label_1
_geom_bond_atom_site_label_2
_geom_bond_distance
_geom_bond_site_symmetry_2
_ccdc_geom_bond_type
O0 Zn1 1.953 . S
O0 C16 1.225 . S
Zn1 O0 1.953 . S
Zn1 O2 1.949 . S
Zn1 O8 1.919 . S
Zn1 O13 1.924 . S
O2 Zn1 1.949 . S
O2 Zn3 1.923 . S
O2 Zn4 1.950 . S
O2 Zn5 1.945 . S
Zn3 O2 1.923 . S
Zn3 O6 1.933 . S
Zn3 O9 1.941 . S
Zn3 O10 1.965 . S
Zn4 O2 1.950 . S
Zn4 O11 1.938 . S
Zn4 O12 1.906 . S
Zn4 O22 1.953 . S
Zn5 O2 1.945 . S
Zn5 O7 1.932 . S
Zn5 O14 1.977 . S
Zn5 O15 1.910 . S
O6 Zn3 1.933 . S
O6 C17 1.226 . S
O7 Zn5 1.932 . S
O7 C17 1.307 . S
O8 Zn1 1.919 . S
O8 C19 1.253 . S
O9 Zn3 1.941 . S
O9 C19 1.283 . S
O10 Zn3 1.965 . S
O10 C18 1.303 . S
O11 Zn4 1.938 . S
O11 C18 1.247 . S
O12 Zn4 1.906 . S
O12 C20 1.304 . S
O13 Zn1 1.924 . S
O13 C21 1.311 . S
O14 Zn5 1.977 . S
O14 C20 1.272 . S
O15 Zn5 1.910 . S
O15 C21 1.231 . S
C16 O0 1.225 . S
C16 O22 1.298 . S
C17 O6 1.226 . S
C17 O7 1.307 . S
C18 O10 1.303 . S
C18 O11 1.247 . S
C19 O8 1.253 . S
C19 O9 1.283 . S
C20 O12 1.304 . S
C20 O14 1.272 . S
C21 O13 1.311 . S
C21 O15 1.231 . S
O22 Zn4 1.953 . S
O22 C16 1.298 . S
O23 Zn24 1.953 . S
O23 C39 1.225 . S
Zn24 O23 1.953 . S
Zn24 O25 1.949 . S
Zn24 O31 1.919 . S
Zn24 O36 1.924 . S
O25 Zn24 1.949 . S
O25 Zn26 1.923 . S
O25 Zn27 1.950 . S
O25 Zn28 1.945 . S
Zn26 O25 1.923 . S
Zn26 O29 1.933 . S
Zn26 O32 1.941 . S
Zn26 O33 1.965 . S
Zn27 O25 1.950 . S
Zn27 O34 1.938 . S
Zn27 O35 1.906 . S
Zn27 O45 1.953 . S
Zn28 O25 1.945 . S
Zn28 O30 1.932 . S
Zn28 O37 1.977 . S
Zn28 O38 1.910 . S
O29 Zn26 1.933 . S
O29 C40 1.226 . S
O30 Zn28 1.932 . S
O30 C40 1.307 . S
O31 Zn24 1.919 . S
O31 C42 1.253 . S
O32 Zn26 1.941 . S
O32 C42 1.283 . S
O33 Zn26 1.965 . S
O33 C41 1.303 . S
O34 Zn27 1.938 . S
O34 C41 1.247 . S
O35 Zn27 1.906 . S
O35 C43 1.304 . S
O36 Zn24 1.924 . S
O36 C44 1.311 . S
O37 Zn28 1.977 . S
O37 C43 1.272 . S
O38 Zn28 1.910 . S
O38 C44 1.231 . S
C39 O23 1.225 . S
C39 O45 1.298 . S
C40 O29 1.226 . S
C40 O30 1.307 . S
C41 O33 1.303 . S
C41 O34 1.247 . S
C42 O31 1.253 . S
C42 O32 1.283 . S
C43 O35 1.304 . S
C43 O37 1.272 . S
C44 O36 1.311 . S
C44 O38 1.231 . S
O45 Zn27 1.953 . S
O45 C39 1.298 . S
O46 Zn47 1.953 . S
O46 C62 1.225 . S
Zn47 O46 1.953 . S
Zn47 O48 1.949 . S
Zn47 O54 1.919 . S
Zn47 O59 1.924 . S
O48 Zn47 1.949 . S
O48 Zn49 1.923 . S
O48 Zn50 1.950 . S
O48 Zn51 1.945 . S
Zn49 O48 1.923 . S
Zn49 O52 1.933 . S
Zn49 O55 1.941 . S
Zn49 O56 1.965 . S
Zn50 O48 1.950 . S
Zn50 O57 1.938 . S
Zn50 O58 1.906 . S
Zn50 O68 1.953 . S
Zn51 O48 1.945 . S
Zn51 O53 1.932 . S
Zn51 O60 1.977 . S
Zn51 O61 1.910 . S
O52 Zn49 1.933 . S
O52 C63 1.226 . S
O53 Zn51 1.932 . S
O53 C63 1.307 . S
O54 Zn47 1.919 . S
O54 C65 1.253 . S
O55 Zn49 1.941 . S
O55 C65 1.283 . S
O56 Zn49 1.965 . S
O56 C64 1.303 . S
O57 Zn50 1.938 . S
O57 C64 1.247 . S
O58 Zn50 1.906 . S
O58 C66 1.304 . S
O59 Zn47 1.924 . S
O59 C67 1.311 . S
O60 Zn51 1.977 . S
O60 C66 1.272 . S
O61 Zn51 1.910 . S
O61 C67 1.231 . S
C62 O46 1.225 . S
C62 O68 1.298 . S
C63 O52 1.226 . S
C63 O53 1.307 . S
C64 O56 1.303 . S
C64 O57 1.247 . S
C65 O54 1.253 . S
C65 O55 1.283 . S
C66 O58 1.304 . S
C66 O60 1.272 . S
C67 O59 1.311 . S
C67 O61 1.231 . S
O68 Zn50 1.953 . S
O68 C62 1.298 . S
O69 Zn70 1.953 . S
O69 C85 1.225 . S
Zn70 O69 1.953 . S
Zn70 O71 1.949 . S
Zn70 O77 1.919 . S
Zn70 O82 1.924 . S
O71 Zn70 1.949 . S
O71 Zn72 1.923 . S
O71 Zn73 1.950 . S
O71 Zn74 1.945 . S
Zn72 O71 1.923 . S
Zn72 O75 1.933 . S
Zn72 O78 1.941 . S
Zn72 O79 1.965 . S
Zn73 O71 1.950 . S
Zn73 O80 1.938 . S
Zn73 O81 1.906 . S
Zn73 O91 1.953 . S
Zn74 O71 1.945 . S
Zn74 O76 1.932 . S
Zn74 O83 1.977 . S
Zn74 O84 1.910 . S
O75 Zn72 1.933 . S
O75 C86 1.226 . S
O76 Zn74 1.932 . S
O76 C86 1.307 . S
O77 Zn70 1.919 . S
O77 C88 1.253 . S
O78 Zn72 1.941 . S
O78 C88 1.283 . S
O79 Zn72 1.965 . S
O79 C87 1.303 . S
O80 Zn73 1.938 . S
O80 C87 1.247 . S
O81 Zn73 1.906 . S
O81 C89 1.304 . S
O82 Zn70 1.924 . S
O82 C90 1.311 . S
O83 Zn74 1.977 . S
O83 C89 1.272 . S
O84 Zn74 1.910 . S
O84 C90 1.231 . S
C85 O69 1.225 . S
C85 O91 1.298 . S
C86 O75 1.226 . S
C86 O76 1.307 . S
C87 O79 1.303 . S
C87 O80 1.247 . S
C88 O77 1.253 . S
C88 O78 1.283 . S
C89 O81 1.304 . S
C89 O83 1.272 . S
C90 O82 1.311 . S
C90 O84 1.231 . S
O91 Zn73 1.953 . S
O91 C85 1.298 . S
O92 Zn93 1.953 . S
O92 C108 1.225 . S
Zn93 O92 1.953 . S
Zn93 O94 1.949 . S
Zn93 O100 1.919 . S
Zn93 O105 1.924 . S
O94 Zn93 1.949 . S
O94 Zn95 1.923 . S
O94 Zn96 1.950 . S
O94 Zn97 1.945 . S
Zn95 O94 1.923 . S
Zn95 O98 1.933 . S
Zn95 O101 1.941 . S
Zn95 O102 1.965 . S
Zn96 O94 1.950 . S
Zn96 O103 1.938 . S
Zn96 O104 1.906 . S
Zn96 O114 1.953 . S
Zn97 O94 1.945 . S
Zn97 O99 1.932 . S
Zn97 O106 1.977 . S
Zn97 O107 1.910 . S
O98 Zn95 1.933 . S
O98 C109 1.226 . S
O99 Zn97 1.932 . S
O99 C109 1.307 . S
O100 Zn93 1.919 . S
O100 C111 1.253 . S
O101 Zn95 1.941 . S
O101 C111 1.283 . S
O102 Zn95 1.965 . S
O102 C110 1.303 . S
O103 Zn96 1.938 . S
O103 C110 1.247 . S
O104 Zn96 1.906 . S
O104 C112 1.304 . S
O105 Zn93 1.924 . S
O105 C113 1.311 . S
O106 Zn97 1.977 . S
O106 C112 1.272 . S
O107 Zn97 1.910 . S
O107 C113 1.231 . S
C108 O92 1.225 . S
C108 O114 1.298 . S
C109 O98 1.226 . S
C109 O99 1.307 . S
C110 O102 1.303 . S
C110 O103 1.247 . S
C111 O100 1.253 . S
C111 O101 1.283 . S
C112 O104 1.304 . S
C112 O106 1.272 . S
C113 O105 1.311 . S
C113 O107 1.231 . S
O114 Zn96 1.953 . S
O114 C108 1.298 . S
O115 Zn116 1.953 . S
O115 C131 1.225 . S
Zn116 O115 1.953 . S
Zn116 O117 1.949 . S
Zn116 O123 1.919 . S
Zn116 O128 1.924 . S
O117 Zn116 1.949 . S
O117 Zn118 1.923 . S
O117 Zn119 1.950 . S
O117 Zn120 1.945 . S
Zn118 O117 1.923 . S
Zn118 O121 1.933 . S
Zn118 O124 1.941 . S
Zn118 O125 1.965 . S
Zn119 O117 1.950 . S
Zn119 O126 1.938 . S
Zn119 O127 1.906 . S
Zn119 O137 1.953 . S
Zn120 O117 1.945 . S
Zn120 O122 1.932 . S
Zn120 O129 1.977 . S
Zn120 O130 1.910 . S
O121 Zn118 1.933 . S
O121 C132 1.226 . S
O122 Zn120 1.932 . S
O122 C132 1.307 . S
O123 Zn116 1.919 . S
O123 C134 1.253 . S
O124 Zn118 1.941 . S
O124 C134 1.283 . S
O125 Zn118 1.965 . S
O125 C133 1.303 . S
O126 Zn119 1.938 . S
O126 C133 1.247 . S
O127 Zn119 1.906 . S
O127 C135 1.304 . S
O128 Zn116 1.924 . S
O128 C136 1.311 . S
O129 Zn120 1.977 . S
O129 C135 1.272 . S
O130 Zn120 1.910 . S
O130 C136 1.231 . S
C131 O115 1.225 . S
C131 O137 1.298 . S
C132 O121 1.226 . S
C132 O122 1.307 . S
C133 O125 1.303 . S
C133 O126 1.247 . S
C134 O123 1.253 . S
C134 O124 1.283 . S
C135 O127 1.304 . S
C135 O129 1.272 . S
C136 O128 1.311 . S
C136 O130 1.231 . S
O137 Zn119 1.953 . S
O137 C131 1.298 . S
O138 Zn139 1.953 . S
O138 C154 1.225 . S
Zn139 O138 1.953 . S
Zn139 O140 1.949 . S
Zn139 O146 1.919 . S
Zn139 O151 1.924 . S
O140 Zn139 1.949 . S
O140 Zn141 1.923 . S
O140 Zn142 1.950 . S
O140 Zn143 1.945 . S
Zn141 O140 1.923 . S
Zn141 O144 1.933 . S
Zn141 O147 1.941 . S
Zn141 O148 1.965 . S
Zn142 O140 1.950 . S
Zn142 O149 1.938 . S
Zn142 O150 1.906 . S
Zn142 O160 1.953 . S
Zn143 O140 1.945 . S
Zn143 O145 1.932 . S
Zn143 O152 1.977 . S
Zn143 O153 1.910 . S
O144 Zn141 1.933 . S
O144 C155 1.226 . S
O145 Zn143 1.932 . S
O145 C155 1.307 . S
O146 Zn139 1.919 . S
O146 C157 1.253 . S
O147 Zn141 1.941 . S
O147 C157 1.283 . S
O148 Zn141 1.965 . S
O148 C156 1.303 . S
O149 Zn142 1.938 . S
O149 C156 1.247 . S
O150 Zn142 1.906 . S
O150 C158 1.304 . S
O151 Zn139 1.924 . S
O151 C159 1.311 . S
O152 Zn143 1.977 . S
O152 C158 1.272 . S
O153 Zn143 1.910 . S
O153 C159 1.231 . S
C154 O138 1.225 . S
C154 O160 1.298 . S
C155 O144 1.226 . S
C155 O145 1.307 . S
C156 O148 1.303 . S
C156 O149 1.247 . S
C157 O146 1.253 . S
C157 O147 1.283 . S
C158 O150 1.304 . S
C158 O152 1.272 . S
C159 O151 1.311 . S
C159 O153 1.231 . S
O160 Zn142 1.953 . S
O160 C154 1.298 . S
O161 Zn162 1.953 . S
O161 C177 1.225 . S
Zn162 O161 1.953 . S
Zn162 O163 1.949 . S
Zn162 O169 1.919 . S
Zn162 O174 1.924 . S
O163 Zn162 1.949 . S
O163 Zn164 1.923 . S
O163 Zn165 1.950 . S
O163 Zn166 1.945 . S
Zn164 O163 1.923 . S
Zn164 O167 1.933 . S
Zn164 O170 1.941 . S
Zn164 O171 1.965 . S
Zn165 O163 1.950 . S
Zn165 O172 1.938 . S
Zn165 O173 1.906 . S
Zn165 O183 1.953 . S
Zn166 O163 1.945 . S
Zn166 O168 1.932 . S
Zn166 O175 1.977 . S
Zn166 O176 1.910 . S
O167 Zn164 1.933 . S
O167 C178 1.226 . S
O168 Zn166 1.932 . S
O168 C178 1.307 . S
O169 Zn162 1.919 . S
O169 C180 1.253 . S
O170 Zn164 1.941 . S
O170 C180 1.283 . S
O171 Zn164 1.965 . S
O171 C179 1.303 . S
O172 Zn165 1.938 . S
O172 C179 1.247 . S
O173 Zn165 1.906 . S
O173 C181 1.304 . S
O174 Zn162 1.924 . S
O174 C182 1.311 . S
O175 Zn166 1.977 . S
O175 C181 1.272 . S
O176 Zn166 1.910 . S
O176 C182 1.231 . S
C177 O161 1.225 . S
C177 O183 1.298 . S
C178 O167 1.226 . S
C178 O168 1.307 . S
C179 O171 1.303 . S
C179 O172 1.247 . S
C180 O169 1.253 . S
C180 O170 1.283 . S
C181 O173 1.304 . S
C181 O175 1.272 . S
C182 O174 1.311 . S
C182 O176 1.231 . S
O183 Zn165 1.953 . S
O183 C177 1.298 . S
O184 Zn185 1.953 . S
O184 C200 1.225 . S
Zn185 O184 1.953 . S
Zn185 O186 1.949 . S
Zn185 O192 1.919 . S
Zn185 O197 1.924 . S
O186 Zn185 1.949 . S
O186 Zn187 1.923 . S
O186 Zn188 1.950 . S
O186 Zn189 1.945 . S
Zn187 O186 1.923 . S
Zn187 O190 1.933 . S
Zn187 O193 1.941 . S
Zn187 O194 1.965 . S
Zn188 O186 1.950 . S
Zn188 O195 1.938 . S
Zn188 O196 1.906 . S
Zn188 O206 1.953 . S
Zn189 O186 1.945 . S
Zn189 O191 1.932 . S
Zn189 O198 1.977 . S
Zn189 O199 1.910 . S
O190 Zn187 1.933 . S
O190 C201 1.226 . S
O191 Zn189 1.932 . S
O191 C201 1.307 . S
O192 Zn185 1.919 . S
O192 C203 1.253 . S
O193 Zn187 1.941 . S
O193 C203 1.283 . S
O194 Zn187 1.965 . S
O194 C202 1.303 . S
O195 Zn188 1.938 . S
O195 C202 1.247 . S
O196 Zn188 1.906 . S
O196 C204 1.304 . S
O197 Zn185 1.924 . S
O197 C205 1.311 . S
O198 Zn189 1.977 . S
O198 C204 1.272 . S
O199 Zn189 1.910 . S
O199 C205 1.231 . S
C200 O184 1.225 . S
C200 O206 1.298 . S
C201 O190 1.226 . S
C201 O191 1.307 . S
C202 O194 1.303 . S
C202 O195 1.247 . S
C203 O192 1.253 . S
C203 O193 1.283 . S
C204 O196 1.304 . S
C204 O198 1.272 . S
C205 O197 1.311 . S
C205 O199 1.231 . S
O206 Zn188 1.953 . S
O206 C200 1.298 . S
O207 Zn208 1.953 . S
O207 C223 1.225 . S
Zn208 O207 1.953 . S
Zn208 O209 1.949 . S
Zn208 O215 1.919 . S
Zn208 O220 1.924 . S
O209 Zn208 1.949 . S
O209 Zn210 1.923 . S
O209 Zn211 1.950 . S
O209 Zn212 1.945 . S
Zn210 O209 1.923 . S
Zn210 O213 1.933 1_545 S
Zn210 O216 1.941 . S
Zn210 O217 1.965 . S
Zn211 O209 1.950 . S
Zn211 O218 1.938 . S
Zn211 O219 1.906 . S
Zn211 O229 1.953 . S
Zn212 O209 1.945 . S
Zn212 O214 1.932 1_545 S
Zn212 O221 1.977 . S
Zn212 O222 1.910 . S
O213 Zn210 1.933 1_565 S
O213 C224 1.226 . S
O214 Zn212 1.932 1_565 S
O214 C224 1.307 . S
O215 Zn208 1.919 . S
O215 C226 1.253 . S
O216 Zn210 1.941 . S
O216 C226 1.283 . S
O217 Zn210 1.965 . S
O217 C225 1.303 . S
O218 Zn211 1.938 . S
O218 C225 1.247 . S
O219 Zn211 1.906 . S
O219 C227 1.304 . S
O220 Zn208 1.924 . S
O220 C228 1.311 . S
O221 Zn212 1.977 . S
O221 C227 1.272 . S
O222 Zn212 1.910 . S
O222 C228 1.231 . S
C223 O207 1.225 . S
C223 O229 1.298 . S
C224 O213 1.226 . S
C224 O214 1.307 . S
C225 O217 1.303 . S
C225 O218 1.247 . S
C226 O215 1.253 . S
C226 O216 1.283 . S
C227 O219 1.304 . S
C227 O221 1.272 . S
C228 O220 1.311 . S
C228 O222 1.231 . S
O229 Zn211 1.953 . S
O229 C223 1.298 . S
O230 Zn231 1.953 . S
O230 C246 1.225 . S
Zn231 O230 1.953 . S
Zn231 O232 1.949 . S
Zn231 O238 1.919 . S
Zn231 O243 1.924 . S
O232 Zn231 1.949 . S
O232 Zn233 1.923 . S
O232 Zn234 1.950 . S
O232 Zn235 1.945 . S
Zn233 O232 1.923 . S
Zn233 O236 1.933 . S
Zn233 O239 1.941 . S
Zn233 O240 1.965 . S
Zn234 O232 1.950 . S
Zn234 O241 1.938 . S
Zn234 O242 1.906 . S
Zn234 O252 1.953 . S
Zn235 O232 1.945 . S
Zn235 O237 1.932 . S
Zn235 O244 1.977 . S
Zn235 O245 1.910 . S
O236 Zn233 1.933 . S
O236 C247 1.226 . S
O237 Zn235 1.932 . S
O237 C247 1.307 . S
O238 Zn231 1.919 . S
O238 C249 1.253 . S
O239 Zn233 1.941 . S
O239 C249 1.283 . S
O240 Zn233 1.965 . S
O240 C248 1.303 . S
O241 Zn234 1.938 . S
O241 C248 1.247 . S
O242 Zn234 1.906 . S
O242 C250 1.304 . S
O243 Zn231 1.924 . S
O243 C251 1.311 . S
O244 Zn235 1.977 . S
O244 C250 1.272 . S
O245 Zn235 1.910 . S
O245 C251 1.231 . S
C246 O230 1.225 . S
C246 O252 1.298 . S
C247 O236 1.226 . S
C247 O237 1.307 . S
C248 O240 1.303 . S
C248 O241 1.247 . S
C249 O238 1.253 . S
C249 O239 1.283 . S
C250 O242 1.304 . S
C250 O244 1.272 . S
C251 O243 1.311 . S
C251 O245 1.231 . S
O252 Zn234 1.953 . S
O252 C246 1.298 . S
O253 Zn254 1.953 . S
O253 C269 1.225 . S
Zn254 O253 1.953 . S
Zn254 O255 1.949 . S
Zn254 O261 1.919 . S
Zn254 O266 1.924 . S
O255 Zn254 1.949 . S
O255 Zn256 1.923 . S
O255 Zn257 1.950 . S
O255 Zn258 1.945 . S
Zn256 O255 1.923 . S
Zn256 O259 1.933 1_565 S
Zn256 O262 1.941 . S
Zn256 O263 1.965 . S
Zn257 O255 1.950 . S
Zn257 O264 1.938 . S
Zn257 O265 1.906 . S
Zn257 O275 1.953 . S
Zn258 O255 1.945 . S
Zn258 O260 1.932 1_565 S
Zn258 O267 1.977 . S
Zn258 O268 1.910 . S
O259 Zn256 1.933 1_545 S
O259 C270 1.226 . S
O260 Zn258 1.932 1_545 S
O260 C270 1.307 . S
O261 Zn254 1.919 . S
O261 C272 1.253 . S
O262 Zn256 1.941 . S
O262 C272 1.283 . S
O263 Zn256 1.965 . S
O263 C271 1.303 . S
O264 Zn257 1.938 . S
O264 C271 1.247 . S
O265 Zn257 1.906 . S
O265 C273 1.304 . S
O266 Zn254 1.924 . S
O266 C274 1.311 . S
O267 Zn258 1.977 . S
O267 C273 1.272 . S
O268 Zn258 1.910 . S
O268 C274 1.231 . S
C269 O253 1.225 . S
C269 O275 1.298 . S
C270 O259 1.226 . S
C270 O260 1.307 . S
C271 O263 1.303 . S
C271 O264 1.247 . S
C272 O261 1.253 . S
C272 O262 1.283 . S
C273 O265 1.304 . S
C273 O267 1.272 . S
C274 O266 1.311 . S
C274 O268 1.231 . S
O275 Zn257 1.953 . S
O275 C269 1.298 . S
O276 Zn277 1.953 . S
O276 C292 1.225 . S
Zn277 O276 1.953 . S
Zn277 O278 1.949 . S
Zn277 O284 1.919 . S
Zn277 O289 1.924 . S
O278 Zn277 1.949 . S
O278 Zn279 1.923 . S
O278 Zn280 1.950 . S
O278 Zn281 1.945 . S
Zn279 O278 1.923 . S
Zn279 O282 1.933 . S
Zn279 O285 1.941 . S
Zn279 O286 1.965 . S
Zn280 O278 1.950 . S
Zn280 O287 1.938 . S
Zn280 O288 1.906 . S
Zn280 O298 1.953 . S
Zn281 O278 1.945 . S
Zn281 O283 1.932 . S
Zn281 O290 1.977 . S
Zn281 O291 1.910 . S
O282 Zn279 1.933 . S
O282 C293 1.226 . S
O283 Zn281 1.932 . S
O283 C293 1.307 . S
O284 Zn277 1.919 . S
O284 C295 1.253 . S
O285 Zn279 1.941 . S
O285 C295 1.283 . S
O286 Zn279 1.965 . S
O286 C294 1.303 . S
O287 Zn280 1.938 . S
O287 C294 1.247 . S
O288 Zn280 1.906 . S
O288 C296 1.304 . S
O289 Zn277 1.924 . S
O289 C297 1.311 . S
O290 Zn281 1.977 . S
O290 C296 1.272 . S
O291 Zn281 1.910 . S
O291 C297 1.231 . S
C292 O276 1.225 . S
C292 O298 1.298 . S
C293 O282 1.226 . S
C293 O283 1.307 . S
C294 O286 1.303 . S
C294 O287 1.247 . S
C295 O284 1.253 . S
C295 O285 1.283 . S
C296 O288 1.304 . S
C296 O290 1.272 . S
C297 O289 1.311 . S
C297 O291 1.231 . S
O298 Zn280 1.953 . S
O298 C292 1.298 . S
O299 Zn300 1.953 . S
O299 C315 1.225 . S
Zn300 O299 1.953 . S
Zn300 O301 1.949 . S
Zn300 O307 1.919 . S
Zn300 O312 1.924 . S
O301 Zn300 1.949 . S
O301 Zn302 1.923 . S
O301 Zn303 1.950 . S
O301 Zn304 1.945 . S
Zn302 O301 1.923 . S
Zn302 O305 1.933 1_565 S
Zn302 O308 1.941 . S
Zn302 O309 1.965 . S
Zn303 O301 1.950 . S
Zn303 O310 1.938 . S
Zn303 O311 1.906 . S
Zn303 O321 1.953 . S
Zn304 O301 1.945 . S
Zn304 O306 1.932 1_565 S
Zn304 O313 1.977 . S
Zn304 O314 1.910 . S
O305 Zn302 1.933 1_545 S
O305 C316 1.226 . S
O306 Zn304 1.932 1_545 S
O306 C316 1.307 . S
O307 Zn300 1.919 . S
O307 C318 1.253 . S
O308 Zn302 1.941 . S
O308 C318 1.283 . S
O309 Zn302 1.965 . S
O309 C317 1.303 . S
O310 Zn303 1.938 . S
O310 C317 1.247 . S
O311 Zn303 1.906 . S
O311 C319 1.304 . S
O312 Zn300 1.924 . S
O312 C320 1.311 . S
O313 Zn304 1.977 . S
O313 C319 1.272 . S
O314 Zn304 1.910 . S
O314 C320 1.231 . S
C315 O299 1.225 . S
C315 O321 1.298 . S
C316 O305 1.226 . S
C316 O306 1.307 . S
C317 O309 1.303 . S
C317 O310 1.247 . S
C318 O307 1.253 . S
C318 O308 1.283 . S
C319 O311 1.304 . S
C319 O313 1.272 . S
C320 O312 1.311 . S
C320 O314 1.231 . S
O321 Zn303 1.953 . S
O321 C315 1.298 . S
O322 Zn323 1.953 . S
O322 C338 1.225 . S
Zn323 O322 1.953 . S
Zn323 O324 1.949 . S
Zn323 O330 1.919 . S
Zn323 O335 1.924 . S
O324 Zn323 1.949 . S
O324 Zn325 1.923 . S
O324 Zn326 1.950 . S
O324 Zn327 1.945 . S
Zn325 O324 1.923 . S
Zn325 O328 1.933 . S
Zn325 O331 1.941 . S
Zn325 O332 1.965 . S
Zn326 O324 1.950 . S
Zn326 O333 1.938 . S
Zn326 O334 1.906 . S
Zn326 O344 1.953 . S
Zn327 O324 1.945 . S
Zn327 O329 1.932 . S
Zn327 O336 1.977 . S
Zn327 O337 1.910 . S
O328 Zn325 1.933 . S
O328 C339 1.226 . S
O329 Zn327 1.932 . S
O329 C339 1.307 . S
O330 Zn323 1.919 . S
O330 C341 1.253 . S
O331 Zn325 1.941 . S
O331 C341 1.283 . S
O332 Zn325 1.965 . S
O332 C340 1.303 . S
O333 Zn326 1.938 . S
O333 C340 1.247 . S
O334 Zn326 1.906 . S
O334 C342 1.304 . S
O335 Zn323 1.924 . S
O335 C343 1.311 . S
O336 Zn327 1.977 . S
O336 C342 1.272 . S
O337 Zn327 1.910 . S
O337 C343 1.231 . S
C338 O322 1.225 . S
C338 O344 1.298 . S
C339 O328 1.226 . S
C339 O329 1.307 . S
C340 O332 1.303 . S
C340 O333 1.247 . S
C341 O330 1.253 . S
C341 O331 1.283 . S
C342 O334 1.304 . S
C342 O336 1.272 . S
C343 O335 1.311 . S
C343 O337 1.231 . S
O344 Zn326 1.953 . S
O344 C338 1.298 . S
O345 Zn346 1.953 . S
O345 C361 1.225 . S
Zn346 O345 1.953 . S
Zn346 O347 1.949 . S
Zn346 O353 1.919 . S
Zn346 O358 1.924 . S
O347 Zn346 1.949 . S
O347 Zn348 1.923 . S
O347 Zn349 1.950 . S
O347 Zn350 1.945 . S
Zn348 O347 1.923 . S
Zn348 O351 1.933 1_545 S
Zn348 O354 1.941 . S
Zn348 O355 1.965 . S
Zn349 O347 1.950 . S
Zn349 O356 1.938 . S
Zn349 O357 1.906 . S
Zn349 O367 1.953 . S
Zn350 O347 1.945 . S
Zn350 O352 1.932 1_545 S
Zn350 O359 1.977 . S
Zn350 O360 1.910 . S
O351 Zn348 1.933 1_565 S
O351 C362 1.226 . S
O352 Zn350 1.932 1_565 S
O352 C362 1.307 . S
O353 Zn346 1.919 . S
O353 C364 1.253 . S
O354 Zn348 1.941 . S
O354 C364 1.283 . S
O355 Zn348 1.965 . S
O355 C363 1.303 . S
O356 Zn349 1.938 . S
O356 C363 1.247 . S
O357 Zn349 1.906 . S
O357 C365 1.304 . S
O358 Zn346 1.924 . S
O358 C366 1.311 . S
O359 Zn350 1.977 . S
O359 C365 1.272 . S
O360 Zn350 1.910 . S
O360 C366 1.231 . S
C361 O345 1.225 . S
C361 O367 1.298 . S
C362 O351 1.226 . S
C362 O352 1.307 . S
C363 O355 1.303 . S
C363 O356 1.247 . S
C364 O353 1.253 . S
C364 O354 1.283 . S
C365 O357 1.304 . S
C365 O359 1.272 . S
C366 O358 1.311 . S
C366 O360 1.231 . S
O367 Zn349 1.953 . S
O367 C361 1.298 . S
C368 C369 1.363 . S
C368 C374 1.379 . S
C368 N376 1.356 . S
C369 C368 1.363 . S
C369 C375 1.363 . S
C370 C371 1.363 . S
C370 C375 1.379 . S
C370 N377 1.356 . S
C371 C370 1.363 . S
C371 C374 1.363 . S
N372 C374 1.356 . S
N372 H384 0.984 . S
N372 H385 0.985 . S
N373 C375 1.356 . S
N373 H378 0.984 . S
N373 H379 0.985 . S
C374 C368 1.379 . S
C374 C371 1.363 . S
C374 N372 1.356 . S
C375 C369 1.363 . S
C375 C370 1.379 . S
C375 N373 1.356 . S
N376 C368 1.356 . S
N376 H382 0.984 . S
N376 H383 0.984 . S
N377 C370 1.356 . S
N377 H380 0.984 . S
N377 H381 0.985 . S
H378 N373 0.984 . S
H379 N373 0.985 . S
H380 N377 0.984 . S
H381 N377 0.985 . S
H382 N376 0.984 . S
H383 N376 0.984 . S
H384 N372 0.984 . S
H385 N372 0.985 . S
C386 C387 1.363 . S
C386 C392 1.379 . S
C386 N394 1.356 . S
C387 C386 1.363 . S
C387 C393 1.363 . S
C388 C389 1.363 . S
C388 C393 1.379 . S
C388 N395 1.356 . S
C389 C388 1.363 . S
C389 C392 1.363 . S
N390 C392 1.356 . S
N390 H402 0.984 . S
N390 H403 0.985 . S
N391 C393 1.356 . S
N391 H396 0.984 . S
N391 H397 0.985 . S
C392 C386 1.379 . S
C392 C389 1.363 . S
C392 N390 1.356 . S
C393 C387 1.363 . S
C393 C388 1.379 . S
C393 N391 1.356 . S
N394 C386 1.356 . S
N394 H400 0.984 . S
N394 H401 0.984 . S
N395 C388 1.356 . S
N395 H398 0.984 . S
N395 H399 0.985 . S
H396 N391 0.984 . S
H397 N391 0.985 . S
H398 N395 0.984 . S
H399 N395 0.985 . S
H400 N394 0.984 . S
H401 N394 0.984 . S
H402 N390 0.984 . S
H403 N390 0.985 . S
C404 C405 1.363 . S
C404 C410 1.379 1_455 S
C404 N412 1.356 . S
C405 C404 1.363 . S
C405 C411 1.363 . S
C406 C407 1.363 . S
C406 C411 1.379 1_655 S
C406 N413 1.356 . S
C407 C406 1.363 . S
C407 C410 1.363 . S
N408 C410 1.356 . S
N408 H420 0.984 . S
N408 H421 0.985 . S
N409 C411 1.356 . S
N409 H414 0.984 . S
N409 H415 0.985 . S
C410 C404 1.379 1_655 S
C410 C407 1.363 . S
C410 N408 1.356 . S
C411 C405 1.363 . S
C411 C406 1.379 1_455 S
C411 N409 1.356 . S
N412 C404 1.356 . S
N412 H418 0.984 . S
N412 H419 0.984 . S
N413 C406 1.356 . S
N413 H416 0.984 . S
N413 H417 0.985 . S
H414 N409 0.984 . S
H415 N409 0.985 . S
H416 N413 0.984 . S
H417 N413 0.985 . S
H418 N412 0.984 . S
H419 N412 0.984 . S
H420 N408 0.984 . S
H421 N408 0.985 . S
C422 C423 1.363 1_655 S
C422 C428 1.379 . S
C422 N430 1.356 . S
C423 C422 1.363 1_455 S
C423 C429 1.363 . S
C424 C425 1.363 1_455 S
C424 C429 1.379 . S
C424 N431 1.356 . S
C425 C424 1.363 1_655 S
C425 C428 1.363 . S
N426 C428 1.356 . S
N426 H438 0.984 . S
N426 H439 0.985 . S
N427 C429 1.356 . S
N427 H432 0.984 . S
N427 H433 0.985 . S
C428 C422 1.379 . S
C428 C425 1.363 . S
C428 N426 1.356 . S
C429 C423 1.363 . S
C429 C424 1.379 . S
C429 N427 1.356 . S
N430 C422 1.356 . S
N430 H436 0.984 . S
N430 H437 0.984 1_655 S
N431 C424 1.356 . S
N431 H434 0.984 1_455 S
N431 H435 0.985 . S
H432 N427 0.984 . S
H433 N427 0.985 . S
H434 N431 0.984 1_655 S
H435 N431 0.985 . S
H436 N430 0.984 . S
H437 N430 0.984 1_455 S
H438 N426 0.984 . S
H439 N426 0.985 . S
C440 C441 1.363 . S
C440 C446 1.379 . S
C440 N448 1.356 . S
C441 C440 1.363 . S
C441 C447 1.363 . S
C442 C443 1.363 . S
C442 C447 1.379 . S
C442 N449 1.356 . S
C443 C442 1.363 . S
C443 C446 1.363 . S
N444 C446 1.356 . S
N444 H456 0.984 . S
N444 H457 0.985 . S
N445 C447 1.356 . S
N445 H450 0.984 . S
N445 H451 0.985 . S
C446 C440 1.379 . S
C446 C443 1.363 . S
C446 N444 1.356 . S
C447 C441 1.363 . S
C447 C442 1.379 . S
C447 N445 1.356 . S
N448 C440 1.356 . S
N448 H454 0.984 . S
N448 H455 0.984 . S
N449 C442 1.356 . S
N449 H452 0.984 . S
N449 H453 0.985 . S
H450 N445 0.984 . S
H451 N445 0.985 . S
H452 N449 0.984 . S
H453 N449 0.985 . S
H454 N448 0.984 . S
H455 N448 0.984 . S
H456 N444 0.984 . S
H457 N444 0.985 . S
C458 C459 1.363 . S
C458 C464 1.379 . S
C458 N466 1.356 . S
C459 C458 1.363 . S
C459 C465 1.363 . S
C460 C461 1.363 . S
C460 C465 1.379 . S
C460 N467 1.356 . S
C461 C460 1.363 . S
C461 C464 1.363 . S
N462 C464 1.356 . S
N462 H474 0.984 . S
N462 H475 0.985 . S
N463 C465 1.356 . S
N463 H468 0.984 . S
N463 H469 0.985 . S
C464 C458 1.379 . S
C464 C461 1.363 . S
C464 N462 1.356 . S
C465 C459 1.363 . S
C465 C460 1.379 . S
C465 N463 1.356 . S
N466 C458 1.356 . S
N466 H472 0.984 . S
N466 H473 0.984 . S
N467 C460 1.356 . S
N467 H470 0.984 . S
N467 H471 0.985 . S
H468 N463 0.984 . S
H469 N463 0.985 . S
H470 N467 0.984 . S
H471 N467 0.985 . S
H472 N466 0.984 . S
H473 N466 0.984 . S
H474 N462 0.984 . S
H475 N462 0.985 . S
C476 C477 1.363 . S
C476 C482 1.379 1_455 S
C476 N484 1.356 . S
C477 C476 1.363 . S
C477 C483 1.363 . S
C478 C479 1.363 . S
C478 C483 1.379 1_655 S
C478 N485 1.356 . S
C479 C478 1.363 . S
C479 C482 1.363 . S
N480 C482 1.356 . S
N480 H492 0.984 . S
N480 H493 0.985 . S
N481 C483 1.356 . S
N481 H486 0.984 . S
N481 H487 0.985 . S
C482 C476 1.379 1_655 S
C482 C479 1.363 . S
C482 N480 1.356 . S
C483 C477 1.363 . S
C483 C478 1.379 1_455 S
C483 N481 1.356 . S
N484 C476 1.356 . S
N484 H490 0.984 . S
N484 H491 0.984 . S
N485 C478 1.356 . S
N485 H488 0.984 . S
N485 H489 0.985 . S
H486 N481 0.984 . S
H487 N481 0.985 . S
H488 N485 0.984 . S
H489 N485 0.985 . S
H490 N484 0.984 . S
H491 N484 0.984 . S
H492 N480 0.984 . S
H493 N480 0.985 . S
C494 C495 1.363 . S
C494 C500 1.379 . S
C494 N502 1.356 . S
C495 C494 1.363 . S
C495 C501 1.363 1_455 S
C496 C497 1.363 . S
C496 C501 1.379 . S
C496 N503 1.356 . S
C497 C496 1.363 . S
C497 C500 1.363 1_655 S
N498 C500 1.356 . S
N498 H510 0.984 . S
N498 H511 0.985 1_455 S
N499 C501 1.356 . S
N499 H504 0.984 1_655 S
N499 H505 0.985 . S
C500 C494 1.379 . S
C500 C497 1.363 1_455 S
C500 N498 1.356 . S
C501 C495 1.363 1_655 S
C501 C496 1.379 . S
C501 N499 1.356 . S
N502 C494 1.356 . S
N502 H508 0.984 . S
N502 H509 0.984 . S
N503 C496 1.356 . S
N503 H506 0.984 . S
N503 H507 0.985 . S
H504 N499 0.984 1_455 S
H505 N499 0.985 . S
H506 N503 0.984 . S
H507 N503 0.985 . S
H508 N502 0.984 . S
H509 N502 0.984 . S
H510 N498 0.984 . S
H511 N498 0.985 1_655 S
C512 C513 1.363 1_565 S
C512 C518 1.379 . S
C512 N520 1.356 . S
C513 C512 1.363 1_545 S
C513 C519 1.363 1_554 S
C514 C515 1.363 1_545 S
C514 C519 1.379 . S
C514 N521 1.356 . S
C515 C514 1.363 1_565 S
C515 C518 1.363 1_556 S
N516 C518 1.356 1_556 S
N516 H528 0.984 1_556 S
N516 H529 0.985 . S
N517 C519 1.356 1_554 S
N517 H522 0.984 . S
N517 H523 0.985 1_554 S
C518 C512 1.379 . S
C518 C515 1.363 1_554 S
C518 N516 1.356 1_554 S
C519 C513 1.363 1_556 S
C519 C514 1.379 . S
C519 N517 1.356 1_556 S
N520 C512 1.356 . S
N520 H526 0.984 . S
N520 H527 0.984 . S
N521 C514 1.356 . S
N521 H524 0.984 . S
N521 H525 0.985 . S
H522 N517 0.984 . S
H523 N517 0.985 1_556 S
H524 N521 0.984 . S
H525 N521 0.985 . S
H526 N520 0.984 . S
H527 N520 0.984 . S
H528 N516 0.984 1_554 S
H529 N516 0.985 . S
C530 C531 1.363 . S
C530 C536 1.379 . S
C530 N538 1.356 . S
C531 C530 1.363 . S
C531 C537 1.363 . S
C532 C533 1.363 . S
C532 C537 1.379 . S
C532 N539 1.356 . S
C533 C532 1.363 . S
C533 C536 1.363 . S
N534 C536 1.356 . S
N534 H546 0.984 . S
N534 H547 0.985 . S
N535 C537 1.356 . S
N535 H540 0.984 . S
N535 H541 0.985 . S
C536 C530 1.379 . S
C536 C533 1.363 . S
C536 N534 1.356 . S
C537 C531 1.363 . S
C537 C532 1.379 . S
C537 N535 1.356 . S
N538 C530 1.356 . S
N538 H544 0.984 . S
N538 H545 0.984 . S
N539 C532 1.356 . S
N539 H542 0.984 . S
N539 H543 0.985 . S
H540 N535 0.984 . S
H541 N535 0.985 . S
H542 N539 0.984 . S
H543 N539 0.985 . S
H544 N538 0.984 . S
H545 N538 0.984 . S
H546 N534 0.984 . S
H547 N534 0.985 . S
C548 C549 1.363 . S
C548 C554 1.379 1_455 S
C548 N556 1.356 . S
C549 C548 1.363 . S
C549 C555 1.363 1_565 S
C550 C551 1.363 . S
C550 C555 1.379 1_655 S
C550 N557 1.356 . S
C551 C550 1.363 . S
C551 C554 1.363 1_545 S
N552 C554 1.356 . S
N552 H564 0.984 . S
N552 H565 0.985 . S
N553 C555 1.356 . S
N553 H558 0.984 . S
N553 H559 0.985 . S
C554 C548 1.379 1_655 S
C554 C551 1.363 1_565 S
C554 N552 1.356 . S
C555 C549 1.363 1_545 S
C555 C550 1.379 1_455 S
C555 N553 1.356 . S
N556 C548 1.356 . S
N556 H562 0.984 . S
N556 H563 0.984 . S
N557 C550 1.356 . S
N557 H560 0.984 . S
N557 H561 0.985 . S
H558 N553 0.984 . S
H559 N553 0.985 . S
H560 N557 0.984 . S
H561 N557 0.985 . S
H562 N556 0.984 . S
H563 N556 0.984 . S
H564 N552 0.984 . S
H565 N552 0.985 . S
C566 C567 1.363 . S
C566 C572 1.379 . S
C566 N574 1.356 . S
C567 C566 1.363 . S
C567 C573 1.363 . S
C568 C569 1.363 . S
C568 C573 1.379 . S
C568 N575 1.356 . S
C569 C568 1.363 . S
C569 C572 1.363 . S
N570 C572 1.356 . S
N570 H582 0.984 . S
N570 H583 0.985 . S
N571 C573 1.356 . S
N571 H576 0.984 . S
N571 H577 0.985 . S
C572 C566 1.379 . S
C572 C569 1.363 . S
C572 N570 1.356 . S
C573 C567 1.363 . S
C573 C568 1.379 . S
C573 N571 1.356 . S
N574 C566 1.356 . S
N574 H580 0.984 . S
N574 H581 0.984 . S
N575 C568 1.356 . S
N575 H578 0.984 . S
N575 H579 0.985 . S
H576 N571 0.984 . S
H577 N571 0.985 . S
H578 N575 0.984 . S
H579 N575 0.985 . S
H580 N574 0.984 . S
H581 N574 0.984 . S
H582 N570 0.984 . S
H583 N570 0.985 . S
C584 C585 1.363 . S
C584 C590 1.379 . S
C584 N592 1.356 . S
C585 C584 1.363 . S
C585 C591 1.363 . S
C586 C587 1.363 . S
C586 C591 1.379 . S
C586 N593 1.356 . S
C587 C586 1.363 . S
C587 C590 1.363 . S
N588 C590 1.356 . S
N588 H600 0.984 . S
N588 H601 0.985 . S
N589 C591 1.356 . S
N589 H594 0.984 . S
N589 H595 0.985 . S
C590 C584 1.379 . S
C590 C587 1.363 . S
C590 N588 1.356 . S
C591 C585 1.363 . S
C591 C586 1.379 . S
C591 N589 1.356 . S
N592 C584 1.356 . S
N592 H598 0.984 . S
N592 H599 0.984 . S
N593 C586 1.356 . S
N593 H596 0.984 . S
N593 H597 0.985 . S
H594 N589 0.984 . S
H595 N589 0.985 . S
H596 N593 0.984 . S
H597 N593 0.985 . S
H598 N592 0.984 . S
H599 N592 0.984 . S
H600 N588 0.984 . S
H601 N588 0.985 . S
C602 C603 1.363 . S
C602 C608 1.379 . S
C602 N610 1.356 . S
C603 C602 1.363 . S
C603 C609 1.363 . S
C604 C605 1.363 . S
C604 C609 1.379 . S
C604 N611 1.356 . S
C605 C604 1.363 . S
C605 C608 1.363 . S
N606 C608 1.356 . S
N606 H618 0.984 . S
N606 H619 0.985 . S
N607 C609 1.356 . S
N607 H612 0.984 . S
N607 H613 0.985 . S
C608 C602 1.379 . S
C608 C605 1.363 . S
C608 N606 1.356 . S
C609 C603 1.363 . S
C609 C604 1.379 . S
C609 N607 1.356 . S
N610 C602 1.356 . S
N610 H616 0.984 . S
N610 H617 0.984 . S
N611 C604 1.356 . S
N611 H614 0.984 . S
N611 H615 0.985 . S
H612 N607 0.984 . S
H613 N607 0.985 . S
H614 N611 0.984 . S
H615 N611 0.985 . S
H616 N610 0.984 . S
H617 N610 0.984 . S
H618 N606 0.984 . S
H619 N606 0.985 . S
C620 C621 1.363 . S
C620 C626 1.379 . S
C620 N628 1.356 . S
C621 C620 1.363 . S
C621 C627 1.363 1_455 S
C622 C623 1.363 . S
C622 C627 1.379 . S
C622 N629 1.356 . S
C623 C622 1.363 . S
C623 C626 1.363 1_655 S
N624 C626 1.356 . S
N624 H636 0.984 . S
N624 H637 0.985 1_455 S
N625 C627 1.356 . S
N625 H630 0.984 1_655 S
N625 H631 0.985 . S
C626 C620 1.379 . S
C626 C623 1.363 1_455 S
C626 N624 1.356 . S
C627 C621 1.363 1_655 S
C627 C622 1.379 . S
C627 N625 1.356 . S
N628 C620 1.356 . S
N628 H634 0.984 . S
N628 H635 0.984 . S
N629 C622 1.356 . S
N629 H632 0.984 . S
N629 H633 0.985 . S
H630 N625 0.984 1_455 S
H631 N625 0.985 . S
H632 N629 0.984 . S
H633 N629 0.985 . S
H634 N628 0.984 . S
H635 N628 0.984 . S
H636 N624 0.984 . S
H637 N624 0.985 1_655 S
C638 C639 1.363 1_556 S
C638 C644 1.379 . S
C638 N646 1.356 1_556 S
C639 C638 1.363 1_554 S
C639 C645 1.363 . S
C640 C641 1.363 1_554 S
C640 C645 1.379 . S
C640 N647 1.356 1_554 S
C641 C640 1.363 1_556 S
C641 C644 1.363 . S
N642 C644 1.356 . S
N642 H654 0.984 . S
N642 H655 0.985 . S
N643 C645 1.356 . S
N643 H648 0.984 . S
N643 H649 0.985 . S
C644 C638 1.379 . S
C644 C641 1.363 . S
C644 N642 1.356 . S
C645 C639 1.363 . S
C645 C640 1.379 . S
C645 N643 1.356 . S
N646 C638 1.356 1_554 S
N646 H652 0.982 1_554 S
N646 H653 0.987 . S
N647 C640 1.356 1_556 S
N647 H650 0.987 . S
N647 H651 0.982 1_556 S
H648 N643 0.984 . S
H649 N643 0.985 . S
H650 N647 0.987 . S
H651 N647 0.982 1_554 S
H652 N646 0.982 1_556 S
H653 N646 0.987 . S
H654 N642 0.984 . S
H655 N642 0.985 . S
C656 C657 1.363 . S
C656 C662 1.379 . S
C656 N664 1.356 . S
C657 C656 1.363 . S
C657 C663 1.363 . S
C658 C659 1.363 . S
C658 C663 1.379 . S
C658 N665 1.356 . S
C659 C658 1.363 . S
C659 C662 1.363 . S
N660 C662 1.356 . S
N660 H672 0.984 . S
N660 H673 0.985 . S
N661 C663 1.356 . S
N661 H666 0.984 . S
N661 H667 0.985 . S
C662 C656 1.379 . S
C662 C659 1.363 . S
C662 N660 1.356 . S
C663 C657 1.363 . S
C663 C658 1.379 . S
C663 N661 1.356 . S
N664 C656 1.356 . S
N664 H670 0.984 . S
N664 H671 0.984 . S
N665 C658 1.356 . S
N665 H668 0.984 . S
N665 H669 0.985 . S
H666 N661 0.984 . S
H667 N661 0.985 . S
H668 N665 0.984 . S
H669 N665 0.985 . S
H670 N664 0.984 . S
H671 N664 0.984 . S
H672 N660 0.984 . S
H673 N660 0.985 . S
C674 C675 1.363 . S
C674 C680 1.379 . S
C674 N682 1.356 . S
C675 C674 1.363 . S
C675 C681 1.363 . S
C676 C677 1.363 . S
C676 C681 1.379 . S
C676 N683 1.356 . S
C677 C676 1.363 . S
C677 C680 1.363 . S
N678 C680 1.356 . S
N678 H690 0.984 . S
N678 H691 0.985 . S
N679 C681 1.356 . S
N679 H684 0.984 . S
N679 H685 0.985 . S
C680 C674 1.379 . S
C680 C677 1.363 . S
C680 N678 1.356 . S
C681 C675 1.363 . S
C681 C676 1.379 . S
C681 N679 1.356 . S
N682 C674 1.356 . S
N682 H688 0.984 . S
N682 H689 0.984 . S
N683 C676 1.356 . S
N683 H686 0.984 . S
N683 H687 0.985 . S
H684 N679 0.984 . S
H685 N679 0.985 . S
H686 N683 0.984 . S
H687 N683 0.985 . S
H688 N682 0.984 . S
H689 N682 0.984 . S
H690 N678 0.984 . S
H691 N678 0.985 . S
C692 C693 1.363 . S
C692 C698 1.379 . S
C692 N700 1.356 . S
C693 C692 1.363 . S
C693 C699 1.363 . S
C694 C695 1.363 . S
C694 C699 1.379 . S
C694 N701 1.356 . S
C695 C694 1.363 . S
C695 C698 1.363 . S
N696 C698 1.356 . S
N696 H708 0.984 . S
N696 H709 0.985 . S
N697 C699 1.356 . S
N697 H702 0.984 . S
N697 H703 0.985 . S
C698 C692 1.379 . S
C698 C695 1.363 . S
C698 N696 1.356 . S
C699 C693 1.363 . S
C699 C694 1.379 . S
C699 N697 1.356 . S
N700 C692 1.356 . S
N700 H706 0.984 . S
N700 H707 0.984 . S
N701 C694 1.356 . S
N701 H704 0.984 . S
N701 H705 0.985 . S
H702 N697 0.984 . S
H703 N697 0.985 . S
H704 N701 0.984 . S
H705 N701 0.985 . S
H706 N700 0.984 . S
H707 N700 0.984 . S
H708 N696 0.984 . S
H709 N696 0.985 . S
C710 C711 1.363 . S
C710 C716 1.379 . S
C710 N718 1.356 . S
C711 C710 1.363 . S
C711 C717 1.363 . S
C712 C713 1.363 . S
C712 C717 1.379 . S
C712 N719 1.356 . S
C713 C712 1.363 . S
C713 C716 1.363 . S
N714 C716 1.356 . S
N714 H726 0.984 . S
N714 H727 0.985 . S
N715 C717 1.356 . S
N715 H720 0.984 . S
N715 H721 0.985 . S
C716 C710 1.379 . S
C716 C713 1.363 . S
C716 N714 1.356 . S
C717 C711 1.363 . S
C717 C712 1.379 . S
C717 N715 1.356 . S
N718 C710 1.356 . S
N718 H724 0.984 . S
N718 H725 0.984 1_455 S
N719 C712 1.356 . S
N719 H722 0.984 . S
N719 H723 0.985 . S
H720 N715 0.984 . S
H721 N715 0.985 . S
H722 N719 0.984 . S
H723 N719 0.985 . S
H724 N718 0.984 . S
H725 N718 0.984 1_655 S
H726 N714 0.984 . S
H727 N714 0.985 . S
C728 C729 1.363 . S
C728 C734 1.379 . S
C728 N736 1.356 . S
C729 C728 1.363 . S
C729 C735 1.363 . S
C730 C731 1.363 . S
C730 C735 1.379 . S
C730 N737 1.356 . S
C731 C730 1.363 . S
C731 C734 1.363 . S
N732 C734 1.356 . S
N732 H744 0.984 . S
N732 H745 0.985 . S
N733 C735 1.356 . S
N733 H738 0.984 . S
N733 H739 0.985 . S
C734 C728 1.379 . S
C734 C731 1.363 . S
C734 N732 1.356 . S
C735 C729 1.363 . S
C735 C730 1.379 . S
C735 N733 1.356 . S
N736 C728 1.356 . S
N736 H742 0.984 . S
N736 H743 0.984 . S
N737 C730 1.356 . S
N737 H740 0.984 . S
N737 H741 0.985 . S
H738 N733 0.984 . S
H739 N733 0.985 . S
H740 N737 0.984 . S
H741 N737 0.985 . S
H742 N736 0.984 . S
H743 N736 0.984 . S
H744 N732 0.984 . S
H745 N732 0.985 . S
C746 C747 1.363 . S
C746 C752 1.379 . S
C746 N754 1.356 . S
C747 C746 1.363 . S
C747 C753 1.363 . S
C748 C749 1.363 . S
C748 C753 1.379 . S
C748 N755 1.356 . S
C749 C748 1.363 . S
C749 C752 1.363 . S
N750 C752 1.356 . S
N750 H762 0.984 . S
N750 H763 0.985 . S
N751 C753 1.356 . S
N751 H756 0.984 . S
N751 H757 0.985 . S
C752 C746 1.379 . S
C752 C749 1.363 . S
C752 N750 1.356 . S
C753 C747 1.363 . S
C753 C748 1.379 . S
C753 N751 1.356 . S
N754 C746 1.356 . S
N754 H760 0.984 . S
N754 H761 0.984 . S
N755 C748 1.356 . S
N755 H758 0.984 . S
N755 H759 0.985 . S
H756 N751 0.984 . S
H757 N751 0.985 . S
H758 N755 0.984 . S
H759 N755 0.985 . S
H760 N754 0.984 . S
H761 N754 0.984 . S
H762 N750 0.984 . S
H763 N750 0.985 . S
C764 C765 1.363 . S
C764 C770 1.379 . S
C764 N772 1.356 . S
C765 C764 1.363 . S
C765 C771 1.363 . S
C766 C767 1.363 . S
C766 C771 1.379 . S
C766 N773 1.356 . S
C767 C766 1.363 . S
C767 C770 1.363 . S
N768 C770 1.356 . S
N768 H780 0.984 . S
N768 H781 0.985 . S
N769 C771 1.356 . S
N769 H774 0.984 . S
N769 H775 0.985 . S
C770 C764 1.379 . S
C770 C767 1.363 . S
C770 N768 1.356 . S
C771 C765 1.363 . S
C771 C766 1.379 . S
C771 N769 1.356 . S
N772 C764 1.356 . S
N772 H778 0.984 . S
N772 H779 0.984 . S
N773 C766 1.356 . S
N773 H776 0.984 . S
N773 H777 0.985 . S
H774 N769 0.984 . S
H775 N769 0.985 . S
H776 N773 0.984 . S
H777 N773 0.985 . S
H778 N772 0.984 . S
H779 N772 0.984 . S
H780 N768 0.984 . S
H781 N768 0.985 . S
C782 C783 1.363 . S
C782 C788 1.379 . S
C782 N790 1.356 . S
C783 C782 1.363 . S
C783 C789 1.363 . S
C784 C785 1.363 . S
C784 C789 1.379 . S
C784 N791 1.356 . S
C785 C784 1.363 . S
C785 C788 1.363 . S
N786 C788 1.356 . S
N786 H798 0.984 . S
N786 H799 0.985 . S
N787 C789 1.356 . S
N787 H792 0.984 . S
N787 H793 0.985 . S
C788 C782 1.379 . S
C788 C785 1.363 . S
C788 N786 1.356 . S
C789 C783 1.363 . S
C789 C784 1.379 . S
C789 N787 1.356 . S
N790 C782 1.356 . S
N790 H796 0.984 . S
N790 H797 0.984 . S
N791 C784 1.356 . S
N791 H794 0.984 . S
N791 H795 0.985 . S
H792 N787 0.984 . S
H793 N787 0.985 . S
H794 N791 0.984 . S
H795 N791 0.985 . S
H796 N790 0.984 . S
H797 N790 0.984 . S
H798 N786 0.984 . S
H799 N786 0.985 . S
C800 C801 1.363 . S
C800 C806 1.379 . S
C800 N808 1.356 . S
C801 C800 1.363 . S
C801 C807 1.363 . S
C802 C803 1.363 . S
C802 C807 1.379 . S
C802 N809 1.356 . S
C803 C802 1.363 . S
C803 C806 1.363 . S
N804 C806 1.356 . S
N804 H816 0.984 . S
N804 H817 0.985 . S
N805 C807 1.356 . S
N805 H810 0.984 . S
N805 H811 0.985 . S
C806 C800 1.379 . S
C806 C803 1.363 . S
C806 N804 1.356 . S
C807 C801 1.363 . S
C807 C802 1.379 . S
C807 N805 1.356 . S
N808 C800 1.356 . S
N808 H814 0.984 . S
N808 H815 0.984 . S
N809 C802 1.356 . S
N809 H812 0.984 . S
N809 H813 0.985 . S
H810 N805 0.984 . S
H811 N805 0.985 . S
H812 N809 0.984 . S
H813 N809 0.985 . S
H814 N808 0.984 . S
H815 N808 0.984 . S
H816 N804 0.984 . S
H817 N804 0.985 . S
C818 C819 1.363 1_545 S
C818 C824 1.379 . S
C818 N826 1.356 . S
C819 C818 1.363 1_565 S
C819 C825 1.363 . S
C820 C821 1.363 1_565 S
C820 C825 1.379 . S
C820 N827 1.356 . S
C821 C820 1.363 1_545 S
C821 C824 1.363 . S
N822 C824 1.356 . S
N822 H834 0.984 . S
N822 H835 0.985 . S
N823 C825 1.356 . S
N823 H828 0.984 . S
N823 H829 0.985 . S
C824 C818 1.379 . S
C824 C821 1.363 . S
C824 N822 1.356 . S
C825 C819 1.363 . S
C825 C820 1.379 . S
C825 N823 1.356 . S
N826 C818 1.356 . S
N826 H832 0.984 . S
N826 H833 0.984 . S
N827 C820 1.356 . S
N827 H830 0.984 1_655 S
N827 H831 0.985 . S
H828 N823 0.984 . S
H829 N823 0.985 . S
H830 N827 0.984 1_455 S
H831 N827 0.985 . S
H832 N826 0.984 . S
H833 N826 0.984 . S
H834 N822 0.984 . S
H835 N822 0.985 . S
C836 C837 1.363 . S
C836 C842 1.379 . S
C836 N844 1.356 . S
C837 C836 1.363 . S
C837 C843 1.363 . S
C838 C839 1.363 . S
C838 C843 1.379 . S
C838 N845 1.356 . S
C839 C838 1.363 . S
C839 C842 1.363 . S
N840 C842 1.356 . S
N840 H852 0.984 . S
N840 H853 0.985 . S
N841 C843 1.356 . S
N841 H846 0.984 . S
N841 H847 0.985 . S
C842 C836 1.379 . S
C842 C839 1.363 . S
C842 N840 1.356 . S
C843 C837 1.363 . S
C843 C838 1.379 . S
C843 N841 1.356 . S
N844 C836 1.356 . S
N844 H850 0.984 . S
N844 H851 0.984 . S
N845 C838 1.356 . S
N845 H848 0.984 . S
N845 H849 0.985 . S
H846 N841 0.984 . S
H847 N841 0.985 . S
H848 N845 0.984 . S
H849 N845 0.985 . S
H850 N844 0.984 . S
H851 N844 0.984 . S
H852 N840 0.984 . S
H853 N840 0.985 . S
C854 C855 1.363 . S
C854 C860 1.379 . S
C854 N862 1.356 . S
C855 C854 1.363 . S
C855 C861 1.363 1_545 S
C856 C857 1.363 . S
C856 C861 1.379 . S
C856 N863 1.356 . S
C857 C856 1.363 . S
C857 C860 1.363 1_565 S
N858 C860 1.356 . S
N858 H870 0.984 . S
N858 H871 0.985 . S
N859 C861 1.356 . S
N859 H864 0.984 . S
N859 H865 0.985 . S
C860 C854 1.379 . S
C860 C857 1.363 1_545 S
C860 N858 1.356 . S
C861 C855 1.363 1_565 S
C861 C856 1.379 . S
C861 N859 1.356 . S
N862 C854 1.356 . S
N862 H868 0.984 . S
N862 H869 0.984 . S
N863 C856 1.356 . S
N863 H866 0.984 . S
N863 H867 0.985 . S
H864 N859 0.984 . S
H865 N859 0.985 . S
H866 N863 0.984 . S
H867 N863 0.985 . S
H868 N862 0.984 . S
H869 N862 0.984 . S
H870 N858 0.984 . S
H871 N858 0.985 . S
C872 C873 1.363 . S
C872 C878 1.379 . S
C872 N880 1.356 . S
C873 C872 1.363 . S
C873 C879 1.363 . S
C874 C875 1.363 . S
C874 C879 1.379 . S
C874 N881 1.356 . S
C875 C874 1.363 . S
C875 C878 1.363 . S
N876 C878 1.356 . S
N876 H888 0.984 . S
N876 H889 0.985 . S
N877 C879 1.356 . S
N877 H882 0.984 . S
N877 H883 0.985 . S
C878 C872 1.379 . S
C878 C875 1.363 . S
C878 N876 1.356 . S
C879 C873 1.363 . S
C879 C874 1.379 . S
C879 N877 1.356 . S
N880 C872 1.356 . S
N880 H886 0.984 . S
N880 H887 0.984 . S
N881 C874 1.356 . S
N881 H884 0.984 . S
N881 H885 0.985 . S
H882 N877 0.984 . S
H883 N877 0.985 . S
H884 N881 0.984 . S
H885 N881 0.985 . S
H886 N880 0.984 . S
H887 N880 0.984 . S
H888 N876 0.984 . S
H889 N876 0.985 . S
C890 C891 1.363 1_545 S
C890 C896 1.379 . S
C890 N898 1.356 . S
C891 C890 1.363 1_565 S
C891 C897 1.363 . S
C892 C893 1.363 1_565 S
C892 C897 1.379 . S
C892 N899 1.356 . S
C893 C892 1.363 1_545 S
C893 C896 1.363 . S
N894 C896 1.356 . S
N894 H906 0.984 . S
N894 H907 0.985 . S
N895 C897 1.356 . S
N895 H900 0.984 . S
N895 H901 0.985 . S
C896 C890 1.379 . S
C896 C893 1.363 . S
C896 N894 1.356 . S
C897 C891 1.363 . S
C897 C892 1.379 . S
C897 N895 1.356 . S
N898 C890 1.356 . S
N898 H904 0.984 . S
N898 H905 0.984 1_455 S
N899 C892 1.356 . S
N899 H902 0.984 . S
N899 H903 0.985 . S
H900 N895 0.984 . S
H901 N895 0.985 . S
H902 N899 0.984 . S
H903 N899 0.985 . S
H904 N898 0.984 . S
H905 N898 0.984 1_655 S
H906 N894 0.984 . S
H907 N894 0.985 . S
C908 C909 1.363 . S
C908 C914 1.379 . S
C908 N916 1.356 . S
C909 C908 1.363 . S
C909 C915 1.363 . S
C910 C911 1.363 . S
C910 C915 1.379 . S
C910 N917 1.356 . S
C911 C910 1.363 . S
C911 C914 1.363 . S
N912 C914 1.356 . S
N912 H924 0.984 . S
N912 H925 0.985 . S
N913 C915 1.356 . S
N913 H918 0.984 . S
N913 H919 0.985 . S
C914 C908 1.379 . S
C914 C911 1.363 . S
C914 N912 1.356 . S
C915 C909 1.363 . S
C915 C910 1.379 . S
C915 N913 1.356 . S
N916 C908 1.356 . S
N916 H922 0.984 . S
N916 H923 0.984 . S
N917 C910 1.356 . S
N917 H920 0.984 . S
N917 H921 0.985 . S
H918 N913 0.984 . S
H919 N913 0.985 . S
H920 N917 0.984 . S
H921 N917 0.985 . S
H922 N916 0.984 . S
H923 N916 0.984 . S
H924 N912 0.984 . S
H925 N912 0.985 . S
C926 C927 1.363 1_565 S
C926 C932 1.379 . S
C926 N934 1.356 . S
C927 C926 1.363 1_545 S
C927 C933 1.363 . S
C928 C929 1.363 1_545 S
C928 C933 1.379 . S
C928 N935 1.356 . S
C929 C928 1.363 1_565 S
C929 C932 1.363 . S
N930 C932 1.356 . S
N930 H942 0.984 . S
N930 H943 0.985 . S
N931 C933 1.356 . S
N931 H936 0.984 . S
N931 H937 0.985 . S
C932 C926 1.379 . S
C932 C929 1.363 . S
C932 N930 1.356 . S
C933 C927 1.363 . S
C933 C928 1.379 . S
C933 N931 1.356 . S
N934 C926 1.356 . S
N934 H940 0.984 . S
N934 H941 0.984 . S
N935 C928 1.356 . S
N935 H938 0.984 1_545 S
N935 H939 0.985 . S
H936 N931 0.984 . S
H937 N931 0.985 . S
H938 N935 0.984 1_565 S
H939 N935 0.985 . S
H940 N934 0.984 . S
H941 N934 0.984 . S
H942 N930 0.984 . S
H943 N930 0.985 . S
C944 C945 1.363 . S
C944 C950 1.379 . S
C944 N952 1.353 1_556 S
C945 C944 1.363 . S
C945 C951 1.363 . S
C946 C947 1.363 . S
C946 C951 1.379 . S
C946 N953 1.356 . S
C947 C946 1.363 . S
C947 C950 1.363 . S
N948 C950 1.356 . S
N948 H960 0.984 . S
N948 H961 0.985 . S
N949 C951 1.356 . S
N949 H954 0.973 1_556 S
N949 H955 0.985 . S
C950 C944 1.379 . S
C950 C947 1.363 . S
C950 N948 1.356 . S
C951 C945 1.363 . S
C951 C946 1.379 . S
C951 N949 1.356 . S
N952 C944 1.353 1_554 S
N952 H958 0.984 . S
N952 H959 0.988 . S
N953 C946 1.356 . S
N953 H956 0.984 . S
N953 H957 0.985 . S
H954 N949 0.973 1_554 S
H955 N949 0.985 . S
H956 N953 0.984 . S
H957 N953 0.985 . S
H958 N952 0.984 . S
H959 N952 0.988 . S
H960 N948 0.984 . S
H961 N948 0.985 . S
C962 C963 1.363 . S
C962 C968 1.379 . S
C962 N970 1.356 . S
C963 C962 1.363 . S
C963 C969 1.363 . S
C964 C965 1.363 . S
C964 C969 1.379 . S
C964 N971 1.356 . S
C965 C964 1.363 . S
C965 C968 1.363 . S
N966 C968 1.356 . S
N966 H978 0.984 . S
N966 H979 0.985 . S
N967 C969 1.356 . S
N967 H972 0.984 . S
N967 H973 0.985 . S
C968 C962 1.379 . S
C968 C965 1.363 . S
C968 N966 1.356 . S
C969 C963 1.363 . S
C969 C964 1.379 . S
C969 N967 1.356 . S
N970 C962 1.356 . S
N970 H976 0.984 . S
N970 H977 0.984 . S
N971 C964 1.356 . S
N971 H974 0.984 . S
N971 H975 0.985 . S
H972 N967 0.984 . S
H973 N967 0.985 . S
H974 N971 0.984 . S
H975 N971 0.985 . S
H976 N970 0.984 . S
H977 N970 0.984 . S
H978 N966 0.984 . S
H979 N966 0.985 . S
C980 C981 1.363 . S
C980 C986 1.379 . S
C980 N988 1.356 . S
C981 C980 1.363 . S
C981 C987 1.363 . S
C982 C983 1.363 . S
C982 C987 1.379 . S
C982 N989 1.356 . S
C983 C982 1.363 . S
C983 C986 1.363 . S
N984 C986 1.356 . S
N984 H996 0.984 1_565 S
N984 H997 0.985 . S
N985 C987 1.356 . S
N985 H990 0.984 . S
N985 H991 0.985 . S
C986 C980 1.379 . S
C986 C983 1.363 . S
C986 N984 1.356 . S
C987 C981 1.363 . S
C987 C982 1.379 . S
C987 N985 1.356 . S
N988 C980 1.356 . S
N988 H994 0.984 . S
N988 H995 0.984 . S
N989 C982 1.356 . S
N989 H992 0.984 . S
N989 H993 0.985 . S
H990 N985 0.984 . S
H991 N985 0.985 . S
H992 N989 0.984 . S
H993 N989 0.985 . S
H994 N988 0.984 . S
H995 N988 0.984 . S
H996 N984 0.984 1_545 S
H997 N984 0.985 . S
C998 C999 1.363 . S
C998 C1004 1.379 . S
C998 N1006 1.356 . S
C999 C998 1.363 . S
C999 C1005 1.363 . S
C1000 C1001 1.363 . S
C1000 C1005 1.379 . S
C1000 N1007 1.356 . S
C1001 C1000 1.363 . S
C1001 C1004 1.363 . S
N1002 C1004 1.356 . S
N1002 H1014 0.984 . S
N1002 H1015 0.985 . S
N1003 C1005 1.356 . S
N1003 H1008 0.984 . S
N1003 H1009 0.985 . S
C1004 C998 1.379 . S
C1004 C1001 1.363 . S
C1004 N1002 1.356 . S
C1005 C999 1.363 . S
C1005 C1000 1.379 . S
C1005 N1003 1.356 . S
N1006 C998 1.356 . S
N1006 H1012 0.984 . S
N1006 H1013 0.984 . S
N1007 C1000 1.356 . S
N1007 H1010 0.984 . S
N1007 H1011 0.985 . S
H1008 N1003 0.984 . S
H1009 N1003 0.985 . S
H1010 N1007 0.984 . S
H1011 N1007 0.985 . S
H1012 N1006 0.984 . S
H1013 N1006 0.984 . S
H1014 N1002 0.984 . S
H1015 N1002 0.985 . S
C1016 C1017 1.363 . S
C1016 C1022 1.379 . S
C1016 N1024 1.356 . S
C1017 C1016 1.363 . S
C1017 C1023 1.363 . S
C1018 C1019 1.363 . S
C1018 C1023 1.379 . S
C1018 N1025 1.380 . S
C1019 C1018 1.363 . S
C1019 C1022 1.363 . S
N1020 C1022 1.356 . S
N1020 H1032 0.984 . S
N1020 H1033 0.985 1_554 S
N1021 C1023 1.356 . S
N1021 H1026 0.984 . S
N1021 H1027 0.985 . S
C1022 C1016 1.379 . S
C1022 C1019 1.363 . S
C1022 N1020 1.356 . S
C1023 C1017 1.363 . S
C1023 C1018 1.379 . S
C1023 N1021 1.356 . S
N1024 C1016 1.356 . S
N1024 H1030 0.984 . S
N1024 H1031 0.984 . S
N1025 C1018 1.380 . S
N1025 H1028 0.961 1_554 S
N1025 H1029 0.985 . S
H1026 N1021 0.984 . S
H1027 N1021 0.985 . S
H1028 N1025 0.961 1_556 S
H1029 N1025 0.985 . S
H1030 N1024 0.984 . S
H1031 N1024 0.984 . S
H1032 N1020 0.984 . S
H1033 N1020 0.985 1_556 S
C1034 C1035 1.363 . S
C1034 C1040 1.379 . S
C1034 N1042 1.356 . S
C1035 C1034 1.363 . S
C1035 C1041 1.363 . S
C1036 C1037 1.363 . S
C1036 C1041 1.379 . S
C1036 N1043 1.356 . S
C1037 C1036 1.363 . S
C1037 C1040 1.363 . S
N1038 C1040 1.356 . S
N1038 H1050 0.984 . S
N1038 H1051 0.985 . S
N1039 C1041 1.356 . S
N1039 H1044 0.984 . S
N1039 H1045 0.985 . S
C1040 C1034 1.379 . S
C1040 C1037 1.363 . S
C1040 N1038 1.356 . S
C1041 C1035 1.363 . S
C1041 C1036 1.379 . S
C1041 N1039 1.356 . S
N1042 C1034 1.356 . S
N1042 H1048 0.984 . S
N1042 H1049 0.984 . S
N1043 C1036 1.356 . S
N1043 H1046 0.984 . S
N1043 H1047 0.985 . S
H1044 N1039 0.984 . S
H1045 N1039 0.985 . S
H1046 N1043 0.984 . S
H1047 N1043 0.985 . S
H1048 N1042 0.984 . S
H1049 N1042 0.984 . S
H1050 N1038 0.984 . S
H1051 N1038 0.985 . S
C1052 C1053 1.363 . S
C1052 C1058 1.379 . S
C1052 N1060 1.356 . S
C1053 C1052 1.363 . S
C1053 C1059 1.363 . S
C1054 C1055 1.363 . S
C1054 C1059 1.379 . S
C1054 N1061 1.356 . S
C1055 C1054 1.363 . S
C1055 C1058 1.363 . S
N1056 C1058 1.356 . S
N1056 H1068 0.984 . S
N1056 H1069 0.985 . S
N1057 C1059 1.356 . S
N1057 H1062 0.984 . S
N1057 H1063 0.985 . S
C1058 C1052 1.379 . S
C1058 C1055 1.363 . S
C1058 N1056 1.356 . S
C1059 C1053 1.363 . S
C1059 C1054 1.379 . S
C1059 N1057 1.356 . S
N1060 C1052 1.356 . S
N1060 H1066 0.984 . S
N1060 H1067 0.984 . S
N1061 C1054 1.356 . S
N1061 H1064 0.984 . S
N1061 H1065 0.985 . S
H1062 N1057 0.984 . S
H1063 N1057 0.985 . S
H1064 N1061 0.984 . S
H1065 N1061 0.985 . S
H1066 N1060 0.984 . S
H1067 N1060 0.984 . S
H1068 N1056 0.984 . S
H1069 N1056 0.985 . S
C1070 C1071 1.363 . S
C1070 C1076 1.379 . S
C1070 N1078 1.356 . S
C1071 C1070 1.363 . S
C1071 C1077 1.363 . S
C1072 C1073 1.363 . S
C1072 C1077 1.379 . S
C1072 N1079 1.356 . S
C1073 C1072 1.363 . S
C1073 C1076 1.363 . S
N1074 C1076 1.356 . S
N1074 H1086 0.984 . S
N1074 H1087 0.985 . S
N1075 C1077 1.356 . S
N1075 H1080 0.984 . S
N1075 H1081 0.985 . S
C1076 C1070 1.379 . S
C1076 C1073 1.363 . S
C1076 N1074 1.356 . S
C1077 C1071 1.363 . S
C1077 C1072 1.379 . S
C1077 N1075 1.356 . S
N1078 C1070 1.356 . S
N1078 H1084 0.984 . S
N1078 H1085 0.984 . S
N1079 C1072 1.356 . S
N1079 H1082 0.984 . S
N1079 H1083 0.985 . S
H1080 N1075 0.984 . S
H1081 N1075 0.985 . S
H1082 N1079 0.984 . S
H1083 N1079 0.985 . S
H1084 N1078 0.984 . S
H1085 N1078 0.984 . S
H1086 N1074 0.984 . S
H1087 N1074 0.985 . S
C1088 C1089 1.363 . S
C1088 C1094 1.379 . S
C1088 N1096 1.356 . S
C1089 C1088 1.363 . S
C1089 C1095 1.363 . S
C1090 C1091 1.363 . S
C1090 C1095 1.379 . S
C1090 N1097 1.356 . S
C1091 C1090 1.363 . S
C1091 C1094 1.363 . S
N1092 C1094 1.356 . S
N1092 H1104 0.984 . S
N1092 H1105 0.985 . S
N1093 C1095 1.356 . S
N1093 H1098 0.984 . S
N1093 H1099 0.985 . S
C1094 C1088 1.379 . S
C1094 C1091 1.363 . S
C1094 N1092 1.356 . S
C1095 C1089 1.363 . S
C1095 C1090 1.379 . S
C1095 N1093 1.356 . S
N1096 C1088 1.356 . S
N1096 H1102 0.984 . S
N1096 H1103 0.984 . S
N1097 C1090 1.356 . S
N1097 H1100 0.984 . S
N1097 H1101 0.985 . S
H1098 N1093 0.984 . S
H1099 N1093 0.985 . S
H1100 N1097 0.984 . S
H1101 N1097 0.985 . S
H1102 N1096 0.984 . S
H1103 N1096 0.984 . S
H1104 N1092 0.984 . S
H1105 N1092 0.985 . S
C1106 C1107 1.363 . S
C1106 C1112 1.379 . S
C1106 N1114 1.356 . S
C1107 C1106 1.363 . S
C1107 C1113 1.363 . S
C1108 C1109 1.363 . S
C1108 C1113 1.379 . S
C1108 N1115 1.356 . S
C1109 C1108 1.363 . S
C1109 C1112 1.363 . S
N1110 C1112 1.356 1_545 S
N1110 H1122 0.985 . S
N1110 H1123 0.985 . S
N1111 C1113 1.356 . S
N1111 H1116 0.984 . S
N1111 H1117 0.985 . S
C1112 C1106 1.379 . S
C1112 C1109 1.363 . S
C1112 N1110 1.356 1_565 S
C1113 C1107 1.363 . S
C1113 C1108 1.379 . S
C1113 N1111 1.356 . S
N1114 C1106 1.356 . S
N1114 H1120 0.984 . S
N1114 H1121 0.984 . S
N1115 C1108 1.356 . S
N1115 H1118 0.984 1_565 S
N1115 H1119 0.968 1_455 S
H1116 N1111 0.984 . S
H1117 N1111 0.985 . S
H1118 N1115 0.984 1_545 S
H1119 N1115 0.968 1_655 S
H1120 N1114 0.984 . S
H1121 N1114 0.984 . S
H1122 N1110 0.985 . S
H1123 N1110 0.985 . S
C1124 C1125 1.363 . S
C1124 C1130 1.379 . S
C1124 N1132 1.356 . S
C1125 C1124 1.363 . S
C1125 C1131 1.363 . S
C1126 C1127 1.363 . S
C1126 C1131 1.379 . S
C1126 N1133 1.356 1_556 S
C1127 C1126 1.363 . S
C1127 C1130 1.363 . S
N1128 C1130 1.356 . S
N1128 H1140 0.984 . S
N1128 H1141 0.985 . S
N1129 C1131 1.356 . S
N1129 H1134 0.984 . S
N1129 H1135 0.985 . S
C1130 C1124 1.379 . S
C1130 C1127 1.363 . S
C1130 N1128 1.356 . S
C1131 C1125 1.363 . S
C1131 C1126 1.379 . S
C1131 N1129 1.356 . S
N1132 C1124 1.356 . S
N1132 H1138 0.984 . S
N1132 H1139 0.984 . S
N1133 C1126 1.356 1_554 S
N1133 H1136 0.984 . S
N1133 H1137 0.985 . S
H1134 N1129 0.984 . S
H1135 N1129 0.985 . S
H1136 N1133 0.984 . S
H1137 N1133 0.985 . S
H1138 N1132 0.984 . S
H1139 N1132 0.984 . S
H1140 N1128 0.984 . S
H1141 N1128 0.985 . S
C1142 C1143 1.363 . S
C1142 C1148 1.379 . S
C1142 N1150 1.356 . S
C1143 C1142 1.363 . S
C1143 C1149 1.363 . S
C1144 C1145 1.363 . S
C1144 C1149 1.379 . S
C1144 N1151 1.356 . S
C1145 C1144 1.363 . S
C1145 C1148 1.363 . S
N1146 C1148 1.356 . S
N1146 H1158 0.984 . S
N1146 H1159 0.985 . S
N1147 C1149 1.356 1_565 S
N1147 H1152 0.984 . S
N1147 H1153 0.985 . S
C1148 C1142 1.379 . S
C1148 C1145 1.363 . S
C1148 N1146 1.356 . S
C1149 C1143 1.363 . S
C1149 C1144 1.379 . S
C1149 N1147 1.356 1_545 S
N1150 C1142 1.356 . S
N1150 H1156 0.984 . S
N1150 H1157 0.984 1_545 S
N1151 C1144 1.356 . S
N1151 H1154 0.984 . S
N1151 H1155 0.985 . S
H1152 N1147 0.984 . S
H1153 N1147 0.985 . S
H1154 N1151 0.984 . S
H1155 N1151 0.985 . S
H1156 N1150 0.984 . S
H1157 N1150 0.984 1_565 S
H1158 N1146 0.984 . S
H1159 N1146 0.985 . S
C1160 C1161 1.363 . S
C1160 C1166 1.379 . S
C1160 N1168 1.356 . S
C1161 C1160 1.363 . S
C1161 C1167 1.363 . S
C1162 C1163 1.363 . S
C1162 C1167 1.379 . S
C1162 N1169 1.356 . S
C1163 C1162 1.363 . S
C1163 C1166 1.363 . S
N1164 C1166 1.356 . S
N1164 H1176 0.984 . S
N1164 H1177 0.985 . S
N1165 C1167 1.356 . S
N1165 H1170 0.984 . S
N1165 H1171 0.985 . S
C1166 C1160 1.379 . S
C1166 C1163 1.363 . S
C1166 N1164 1.356 . S
C1167 C1161 1.363 . S
C1167 C1162 1.379 . S
C1167 N1165 1.356 . S
N1168 C1160 1.356 . S
N1168 H1174 0.984 . S
N1168 H1175 0.984 . S
N1169 C1162 1.356 . S
N1169 H1172 0.984 . S
N1169 H1173 0.985 . S
H1170 N1165 0.984 . S
H1171 N1165 0.985 . S
H1172 N1169 0.984 . S
H1173 N1169 0.985 . S
H1174 N1168 0.984 . S
H1175 N1168 0.984 . S
H1176 N1164 0.984 . S
H1177 N1164 0.985 . S
C1178 C1179 1.363 . S
C1178 C1184 1.379 . S
C1178 N1186 1.356 . S
C1179 C1178 1.363 . S
C1179 C1185 1.363 . S
C1180 C1181 1.363 1_565 S
C1180 C1185 1.379 1_565 S
C1180 N1187 1.356 . S
C1181 C1180 1.363 1_545 S
C1181 C1184 1.363 . S
N1182 C1184 1.356 . S
N1182 H1194 0.984 . S
N1182 H1195 0.985 . S
N1183 C1185 1.356 . S
N1183 H1188 0.984 . S
N1183 H1189 0.985 1_545 S
C1184 C1178 1.379 . S
C1184 C1181 1.363 . S
C1184 N1182 1.356 . S
C1185 C1179 1.363 . S
C1185 C1180 1.379 1_545 S
C1185 N1183 1.356 . S
N1186 C1178 1.356 . S
N1186 H1192 0.984 . S
N1186 H1193 0.984 . S
N1187 C1180 1.356 . S
N1187 H1190 0.984 . S
N1187 H1191 0.985 . S
H1188 N1183 0.984 . S
H1189 N1183 0.985 1_565 S
H1190 N1187 0.984 . S
H1191 N1187 0.985 . S
H1192 N1186 0.984 . S
H1193 N1186 0.984 . S
H1194 N1182 0.984 . S
H1195 N1182 0.985 . S
C1196 C1197 1.363 . S
C1196 C1202 1.379 . S
C1196 N1204 1.356 . S
C1197 C1196 1.363 . S
C1197 C1203 1.363 . S
C1198 C1199 1.363 . S
C1198 C1203 1.379 . S
C1198 N1205 1.356 . S
C1199 C1198 1.363 . S
C1199 C1202 1.363 . S
N1200 C1202 1.356 . S
N1200 H1212 0.984 . S
N1200 H1213 0.985 1_554 S
N1201 C1203 1.356 . S
N1201 H1206 0.984 . S
N1201 H1207 0.985 . S
C1202 C1196 1.379 . S
C1202 C1199 1.363 . S
C1202 N1200 1.356 . S
C1203 C1197 1.363 . S
C1203 C1198 1.379 . S
C1203 N1201 1.356 . S
N1204 C1196 1.356 . S
N1204 H1210 0.984 . S
N1204 H1211 0.984 . S
N1205 C1198 1.356 . S
N1205 H1208 0.984 1_554 S
N1205 H1209 0.985 . S
H1206 N1201 0.984 . S
H1207 N1201 0.985 . S
H1208 N1205 0.984 1_556 S
H1209 N1205 0.985 . S
H1210 N1204 0.984 . S
H1211 N1204 0.984 . S
H1212 N1200 0.984 . S
H1213 N1200 0.985 1_556 S
C1214 C1215 1.363 . S
C1214 C1220 1.379 . S
C1214 N1222 1.356 . S
C1215 C1214 1.363 . S
C1215 C1221 1.363 . S
C1216 C1217 1.363 1_545 S
C1216 C1221 1.379 1_545 S
C1216 N1223 1.356 . S
C1217 C1216 1.363 1_565 S
C1217 C1220 1.363 . S
N1218 C1220 1.356 . S
N1218 H1230 0.984 . S
N1218 H1231 0.985 . S
N1219 C1221 1.356 . S
N1219 H1224 0.984 . S
N1219 H1225 0.985 1_565 S
C1220 C1214 1.379 . S
C1220 C1217 1.363 . S
C1220 N1218 1.356 . S
C1221 C1215 1.363 . S
C1221 C1216 1.379 1_565 S
C1221 N1219 1.356 . S
N1222 C1214 1.356 . S
N1222 H1228 0.984 . S
N1222 H1229 0.984 . S
N1223 C1216 1.356 . S
N1223 H1226 0.984 . S
N1223 H1227 0.985 . S
H1224 N1219 0.984 . S
H1225 N1219 0.985 1_545 S
H1226 N1223 0.984 . S
H1227 N1223 0.985 . S
H1228 N1222 0.984 . S
H1229 N1222 0.984 . S
H1230 N1218 0.984 . S
H1231 N1218 0.985 . S
C369 C16 0.601 . S
C371 C246 0.601 . S
C387 C39 0.601 . S
C389 C269 0.601 . S
C405 C62 0.601 . S
C407 C200 0.601 . S
C423 C223 0.601 . S
C425 C85 0.601 . S
C441 C108 0.601 . S
C443 C338 0.601 . S
C459 C361 0.601 . S
C461 C131 0.601 . S
C477 C292 0.601 . S
C479 C154 0.601 . S
C495 C177 0.601 . S
C497 C315 0.601 . S
C513 C18 2.040 . S
C515 C110 2.040 . S
C531 C41 2.040 . S
C533 C317 2.040 . S
C549 C64 2.040 . S
C551 C156 2.040 . S
C567 C87 2.040 . S
C569 C363 2.040 . S
C585 C133 2.040 . S
C587 C225 2.040 . S
C603 C271 2.040 . S
C605 C179 2.040 . S
C621 C294 2.040 . S
C623 C202 2.040 . S
C639 C248 2.040 . S
C641 C340 2.040 . S
C657 C21 1.762 . S
C659 C178 1.743 . S
C675 C44 1.762 . S
C677 C293 1.743 . S
C693 C67 1.762 . S
C695 C132 1.743 . S
C711 C90 1.762 1_455 S
C713 C339 1.743 . S
C729 C86 1.743 . S
C731 C113 1.762 . S
C747 C136 1.762 . S
C749 C201 1.743 . S
C765 C159 1.762 . S
C767 C40 1.743 . S
C783 C247 1.743 . S
C785 C182 1.762 1_655 S
C801 C205 1.762 . S
C803 C362 1.743 . S
C819 C109 1.743 . S
C821 C228 1.762 1_655 S
C837 C316 1.743 . S
C839 C251 1.762 . S
C855 C155 1.743 . S
C857 C274 1.762 . S
C873 C297 1.762 . S
C875 C270 1.743 . S
C891 C320 1.762 1_455 S
C893 C17 1.743 . S
C909 C224 1.743 . S
C911 C343 1.762 . S
C927 C366 1.762 . S
C929 C63 1.743 . S
C945 C19 1.260 1_556 S
C947 C227 1.274 . S
C963 C250 1.274 . S
C965 C42 1.260 . S
C981 C65 1.260 . S
C983 C273 1.274 . S
C999 C204 1.274 . S
C1001 C88 1.260 . S
C1017 C319 1.274 . S
C1019 C111 1.260 1_554 S
C1035 C342 1.274 . S
C1037 C134 1.260 . S
C1053 C365 1.274 . S
C1055 C157 1.260 . S
C1071 C296 1.274 . S
C1073 C180 1.260 . S
C1089 C43 1.274 . S
C1091 C203 1.260 . S
C1107 C66 1.274 . S
C1109 C226 1.260 1_565 S
C1125 C89 1.274 . S
C1127 C249 1.260 1_556 S
C1143 C272 1.260 1_545 S
C1145 C20 1.274 . S
C1161 C135 1.274 . S
C1163 C295 1.260 . S
C1179 C158 1.274 . S
C1181 C318 1.260 1_545 S
C1197 C181 1.274 . S
C1199 C341 1.260 1_554 S
C1215 C112 1.274 . S
C1217 C364 1.260 1_565 S
