# Generated by pormake.
# Topology sxb, (6)-cn, num edge types: 1
# Building blocks:
#     Node 0, Type 0, BuildingBlock: HISSIN_clean_sbu_0, # of connection points: 6
#     Node 1, Type 0, BuildingBlock: HISSIN_clean_sbu_0, # of connection points: 6
#     Node 2, Type 0, BuildingBlock: HISSIN_clean_sbu_0, # of connection points: 6
#     Node 3, Type 0, BuildingBlock: HISSIN_clean_sbu_0, # of connection points: 6
#     Edge 4, Type (0, 0), BuildingBlock: OJICUG_clean_linker_0, # of connection points: 2
#     Edge 5, Type (0, 0), BuildingBlock: OJICUG_clean_linker_0, # of connection points: 2
#     Edge 6, Type (0, 0), BuildingBlock: OJICUG_clean_linker_0, # of connection points: 2
#     Edge 7, Type (0, 0), BuildingBlock: OJICUG_clean_linker_0, # of connection points: 2
#     Edge 8, Type (0, 0), BuildingBlock: OJICUG_clean_linker_0, # of connection points: 2
#     Edge 9, Type (0, 0), BuildingBlock: OJICUG_clean_linker_0, # of connection points: 2
#     Edge 10, Type (0, 0), BuildingBlock: OJICUG_clean_linker_0, # of connection points: 2
#     Edge 11, Type (0, 0), BuildingBlock: OJICUG_clean_linker_0, # of connection points: 2
#     Edge 12, Type (0, 0), BuildingBlock: OJICUG_clean_linker_0, # of connection points: 2
#     Edge 13, Type (0, 0), BuildingBlock: OJICUG_clean_linker_0, # of connection points: 2
#     Edge 14, Type (0, 0), BuildingBlock: OJICUG_clean_linker_0, # of connection points: 2
#     Edge 15, Type (0, 0), BuildingBlock: OJICUG_clean_linker_0, # of connection points: 2
# Relax obj value: 0.661
# Max RMSD: 0.141
# Mean RMSD: 0.107
data_MOF--net-sxb--node1-HISSIN_clean_sbu_0--edge1-OJICUG_clean_linker_0
_symmetry_space_group_name_H-M    P1
_symmetry_Int_Tables_number       1
_symmetry_cell_setting            triclinic
loop_
_symmetry_equiv_pos_as_xyz
'x, y, z'
_cell_length_a     11.669836
_cell_length_b     28.229784
_cell_length_c     21.962222
_cell_angle_alpha  104.95184
_cell_angle_beta   100.00103
_cell_angle_gamma 53.50541
loop_
_atom_site_label
_atom_site_type_symbol
_atom_site_fract_x
_atom_site_fract_y
_atom_site_fract_z
_atom_type_partial_charge
Eu0 Eu 0.88646 0.17092 0.97637 0.0
Eu1 Eu 0.15171 0.16465 0.05745 0.0
C2 C 0.89226 0.19895 0.124 0.0
C3 C 0.65481 1.13281 0.87052 0.0
C4 C 0.53203 1.13827 0.88046 0.0
C5 C 0.78277 1.0245 0.84529 0.0
C6 C 0.54135 1.08692 0.88133 0.0
C7 C 0.77496 1.07588 0.84569 0.0
C8 C 0.67449 1.03048 0.87361 0.0
C9 C 0.67272 0.17993 0.90556 0.0
O10 O 0.21204 1.0682 0.04225 0.0
O11 O 1.03021 1.07106 0.9779 0.0
C12 C 0.15241 1.04124 0.0091 0.0
O13 O 0.0631 1.1208 0.90786 0.0
O14 O 0.22558 0.17205 0.15558 0.0
O15 O 0.35121 1.1563 0.08137 0.0
O16 O 0.19249 1.15745 0.95629 0.0
C17 C 0.15256 1.13355 0.90508 0.0
O18 O 0.83071 0.26661 0.99527 0.0
O19 O 0.04011 0.25524 0.03366 0.0
O20 O 0.95211 0.22289 0.1137 0.0
O21 O 0.67906 0.18557 0.9668 0.0
O22 O 0.77048 0.18073 0.88579 0.0
O23 O 0.87453 0.16496 0.0761 0.0
C24 C 0.47511 1.10788 0.16569 0.0
C25 C 0.48137 1.05584 0.16136 0.0
C26 C 0.72372 1.04632 0.14173 0.0
C27 C 0.60345 1.00012 0.13756 0.0
C28 C 0.60275 1.10225 0.16595 0.0
C29 C 0.70891 0.99928 0.11356 0.0
C30 C 0.34693 1.15838 0.14118 0.0
C31 C 0.90834 0.2882 0.01266 0.0
H32 H 0.43673 0.18191 0.89784 0.0
H33 H 0.88391 0.98112 0.83501 0.0
H34 H 0.4527 1.09353 0.90058 0.0
H35 H 0.87023 1.07046 0.8356 0.0
H36 H 0.38561 1.05872 0.16434 0.0
H37 H 0.812 1.04538 0.13064 0.0
H38 H 0.59605 0.96239 0.12248 0.0
H39 H 0.6023 1.14176 0.17256 0.0
Eu40 Eu 0.10132 1.11549 0.49897 0.0
Eu41 Eu 0.97786 0.21425 0.53249 0.0
C42 C 0.11915 1.14659 0.64557 0.0
C43 C 0.15707 0.96986 0.47386 0.0
C44 C 0.08899 0.99149 0.53127 0.0
C45 C 0.07287 0.90671 0.43831 0.0
C46 C 1.01016 0.97207 0.54151 0.0
C47 C 0.15233 0.92608 0.42816 0.0
C48 C 0.99682 0.93131 0.49413 0.0
C49 C 0.19829 1.00391 0.45598 0.0
O50 O 0.21046 1.16203 0.49892 0.0
O51 O 0.21146 1.16203 0.49804 0.0
C52 C 0.31017 1.15818 0.54078 0.0
O53 O 0.07264 1.13099 0.39998 0.0
O54 O 0.98365 0.28429 0.5991 0.0
O55 O 0.8056 0.30853 0.53164 0.0
O56 O 0.89225 0.22588 0.43245 0.0
C57 C 0.96421 0.18185 0.38577 0.0
O58 O 0.86872 0.16782 0.53253 0.0
O59 O 0.8676 0.16783 0.53358 0.0
O60 O 1.0126 0.19814 0.6318 0.0
O61 O 0.09256 1.04772 0.4293 0.0
O62 O 0.26816 1.02046 0.49853 0.0
O63 O 0.18813 1.10225 0.59857 0.0
C64 C 0.91102 0.3611 0.5504 0.0
C65 C 0.97907 0.3376 0.49265 0.0
C66 C 0.99001 0.42632 0.58043 0.0
C67 C 0.05627 0.35679 0.47978 0.0
C68 C 0.91237 0.40707 0.59327 0.0
C69 C 0.06779 0.39931 0.5248 0.0
C70 C 0.87492 0.32687 0.57191 0.0
C71 C 0.76951 0.17127 0.4906 0.0
H72 H 0.08835 1.02655 0.56641 0.0
H73 H 0.06577 0.87453 0.40147 0.0
H74 H 0.95135 0.99232 0.58461 0.0
H75 H 0.20235 0.90981 0.3832 0.0
H76 H 0.98198 0.30105 0.45959 0.0
H77 H 0.99555 0.45991 0.61542 0.0
H78 H 0.11609 0.3348 0.43683 0.0
H79 H 0.86217 0.42491 0.63843 0.0
Eu80 Eu 0.42167 0.66084 0.95813 0.0
Eu81 Eu 0.68588 0.6552 0.03947 0.0
C82 C 0.42004 0.69176 0.11044 0.0
C83 C 0.10375 0.71447 0.84624 0.0
C84 C 0.09803 0.7661 0.8487 0.0
C85 C 0.85201 0.77671 0.86411 0.0
C86 C 0.9731 0.82242 0.86849 0.0
C87 C 0.97557 0.72009 0.84389 0.0
C88 C 0.8653 0.82425 0.89172 0.0
C89 C 0.22907 0.66537 0.87372 0.0
O90 O 0.74266 0.55935 0.02081 0.0
O91 O 0.53285 0.57079 0.98325 0.0
C92 C 0.66488 0.53782 1.00395 0.0
O93 O 0.62191 0.60298 0.90235 0.0
O94 O 0.8944 0.63948 0.04868 0.0
O95 O 0.79957 0.64775 0.13056 0.0
O96 O 0.69688 0.66179 0.93987 0.0
C97 C 0.68026 0.62749 0.89197 0.0
O98 O 0.36072 0.75737 0.97264 0.0
O99 O 0.54179 0.75489 0.03731 0.0
O100 O 0.50925 0.70471 0.1079 0.0
O101 O 0.35236 0.65002 0.8597 0.0
O102 O 0.22057 0.67059 0.93398 0.0
O103 O 0.38082 0.66768 0.05912 0.0
C104 C 0.91566 0.69517 0.14305 0.0
C105 C 0.03864 0.68921 0.13229 0.0
C106 C 0.78609 0.80347 0.16284 0.0
C107 C 1.02893 0.73994 0.1283 0.0
C108 C 0.79449 0.75267 0.1657 0.0
C109 C 0.89535 0.7962 0.13386 0.0
C110 C 0.89856 0.64735 0.11012 0.0
C111 C 0.41993 0.78451 1.00584 0.0
H112 H 0.19459 0.76308 0.84728 0.0
H113 H 0.76156 0.77839 0.87365 0.0
H114 H 0.97915 0.86055 0.88233 0.0
H115 H 0.97584 0.68077 0.83853 0.0
H116 H 0.13463 0.64521 0.11654 0.0
H117 H 0.68442 0.8469 0.17137 0.0
H118 H 0.11816 0.73254 0.10862 0.0
H119 H 0.69898 0.75858 0.17637 0.0
Eu120 Eu 0.59282 0.61224 0.48342 0.0
Eu121 Eu 0.46932 0.71101 0.51672 0.0
C122 C 0.60661 0.64484 0.6301 0.0
C123 C 0.65856 0.46568 0.46585 0.0
C124 C 0.59029 0.48941 0.52357 0.0
C125 C 0.57859 0.40082 0.43595 0.0
C126 C 0.5125 0.47051 0.53649 0.0
C127 C 0.65681 0.41978 0.42307 0.0
C128 C 0.50063 0.42805 0.49155 0.0
C129 C 0.69535 0.49966 0.44426 0.0
O130 O 0.70202 0.65863 0.48326 0.0
O131 O 0.70314 0.65862 0.48221 0.0
C132 C 0.8011 0.65527 0.52522 0.0
O133 O 0.55874 0.62803 0.38402 0.0
O134 O 0.47764 0.77893 0.58627 0.0
O135 O 0.30239 0.80598 0.51688 0.0
O136 O 0.38291 0.72393 0.41698 0.0
C137 C 0.45214 0.67949 0.37008 0.0
O138 O 0.36014 0.66453 0.51692 0.0
O139 O 0.35913 0.66453 0.5178 0.0
O140 O 0.49808 0.69565 0.61581 0.0
O141 O 0.58703 0.54217 0.41686 0.0
O142 O 0.76468 0.51798 0.48455 0.0
O143 O 0.67862 0.60076 0.58346 0.0
C144 C 0.41313 0.85673 0.5416 0.0
C145 C 0.48122 0.83513 0.4842 0.0
C146 C 0.49718 0.91994 0.5772 0.0
C147 C 0.55997 0.8546 0.47399 0.0
C148 C 0.41779 0.90053 0.58732 0.0
C149 C 0.57323 0.89538 0.52139 0.0
C150 C 0.37197 0.82266 0.55947 0.0
C151 C 0.26058 0.66825 0.47502 0.0
H152 H 0.58769 0.52593 0.55657 0.0
H153 H 0.57278 0.36726 0.40103 0.0
H154 H 0.45256 0.49268 0.57941 0.0
H155 H 0.70717 0.40176 0.37792 0.0
H156 H 0.48193 0.80006 0.44905 0.0
H157 H 0.50421 0.95213 0.61406 0.0
H158 H 0.6188 0.83438 0.4309 0.0
H159 H 0.36776 0.91678 0.63228 0.0
C160 C 0.37465 0.88625 0.05739 0.0
C161 C 0.34896 0.85058 0.00703 0.0
H162 H 0.33673 0.97255 0.09748 0.0
C163 C 0.25835 0.87859 0.95721 0.0
H164 H 0.44153 0.86708 0.09724 0.0
C165 C 0.19807 0.93945 0.95735 0.0
C166 C 0.22343 0.97515 0.00779 0.0
H167 H 0.23588 0.85313 0.91729 0.0
H168 H 0.13201 0.95854 0.91733 0.0
C169 C 0.31415 0.94712 0.05758 0.0
C170 C 0.64499 0.45085 0.98901 0.0
C171 C 0.7278 0.4739 1.0065 0.0
H172 H 0.63529 0.3753 0.97701 0.0
C173 C 0.87042 0.43504 0.02595 0.0
H174 H 0.53464 0.47907 0.97377 0.0
C175 C 0.92825 0.3752 0.02778 0.0
C176 C 0.84544 0.35214 0.01027 0.0
H177 H 0.93794 0.45075 0.03974 0.0
H178 H 0.03861 0.34695 0.043 0.0
C179 C 0.70282 0.391 0.99082 0.0
C180 C 0.19102 0.41503 0.45792 0.0
C181 C 0.1742 0.40945 0.51686 0.0
H182 H 0.30834 0.42505 0.40378 0.0
C183 C 0.2681 0.4083 0.56708 0.0
H184 H 0.11969 0.41625 0.41853 0.0
C185 C 0.37691 0.41264 0.55851 0.0
C186 C 0.39383 0.41816 0.49956 0.0
H187 H 0.25966 0.40259 0.61264 0.0
H188 H 0.44827 0.4114 0.5979 0.0
C189 C 0.29985 0.41936 0.44935 0.0
C190 C 0.87907 0.91072 0.55812 0.0
C191 C 0.89206 0.91982 0.50053 0.0
H192 H 0.76728 0.89597 0.60978 0.0
C193 C 0.79702 0.92244 0.45025 0.0
H194 H 0.9515 0.90824 0.59748 0.0
C195 C 0.69087 0.91604 0.45743 0.0
C196 C 0.6779 0.90692 0.51501 0.0
H197 H 0.80266 0.93078 0.40577 0.0
H198 H 0.61844 0.91851 0.41807 0.0
C199 C 0.77291 0.90432 0.5653 0.0
C200 C 0.84702 0.96919 0.01903 0.0
C201 C 0.73051 0.97911 0.04434 0.0
H202 H 0.92259 0.97561 0.94296 0.0
C203 C 0.61609 0.98597 1.0031 0.0
H204 H 0.93822 0.9624 0.04865 0.0
C205 C 0.61087 0.99036 0.94076 0.0
C206 C 0.71496 0.99193 0.91955 0.0
H207 H 0.52385 0.99326 0.01984 0.0
H208 H 0.51583 1.00083 0.91225 0.0
C209 C 0.83915 0.97556 0.95739 0.0
C210 C 0.43811 0.1701 0.46804 0.0
C211 C 0.42725 1.16128 0.52657 0.0
H212 H 0.55399 0.18003 0.41179 0.0
C213 C 0.53081 1.15593 0.57382 0.0
H214 H 0.36085 0.17463 0.43035 0.0
C215 C 0.64174 1.15918 0.56321 0.0
C216 C 0.65255 0.16806 0.50471 0.0
H217 H 0.52595 1.14921 0.61944 0.0
H218 H 0.71902 1.15463 0.60089 0.0
C219 C 0.54909 0.17333 0.45743 0.0
C220 C 0.961 0.83422 0.06495 0.0
C221 C 0.85661 0.83285 0.08614 0.0
H222 H 0.04897 0.83102 0.98611 0.0
C223 C 0.73367 0.84811 0.04769 0.0
H224 H 0.05522 0.82439 0.09384 0.0
C225 C 0.72643 0.85427 0.98601 0.0
C226 C 0.84296 0.84458 0.96096 0.0
H227 H 0.6505 0.84775 0.06194 0.0
H228 H 0.63585 0.86061 0.95616 0.0
C229 C 0.9567 0.83811 1.00253 0.0
C230 C 0.13242 0.6565 0.54782 0.0
C231 C 0.14348 0.66518 0.48925 0.0
H232 H 1.01635 0.6467 0.60411 0.0
C233 C 0.0401 0.6704 0.44195 0.0
H234 H 0.20955 0.65206 0.58554 0.0
C235 C 0.92914 0.66716 0.45256 0.0
C236 C 0.91812 0.65844 0.5111 0.0
H237 H 0.04512 0.677 0.39629 0.0
H238 H 0.852 0.67161 0.41484 0.0
C239 C 1.02142 0.65328 0.55844 0.0
C240 C 0.86824 0.24387 0.30197 0.0
C241 C 0.92721 0.18873 0.31894 0.0
H242 H 0.81179 0.29017 0.22635 0.0
C243 C 0.95788 1.13892 0.27097 0.0
H244 H 0.84377 0.28293 0.33785 0.0
C245 C 0.93469 1.1436 0.20729 0.0
C246 C 0.88428 0.19775 0.19021 0.0
H247 H 1.00258 1.09591 0.28269 0.0
H248 H 0.96471 1.10385 0.17142 0.0
C249 C 0.84941 0.24804 0.23821 0.0
C250 C 0.14215 0.18419 0.82443 0.0
C251 C 0.18238 1.13129 0.84102 0.0
H252 H 0.08752 0.23082 0.7494 0.0
C253 C 0.2176 1.08111 0.79276 0.0
H254 H 0.11149 0.22391 0.86044 0.0
C255 C 0.20665 1.08461 0.72909 0.0
C256 C 0.15493 1.13911 0.7124 0.0
H257 H 0.24675 1.04006 0.80422 0.0
H258 H 0.22944 1.04592 0.69294 0.0
C259 C 0.12661 0.18833 0.76079 0.0
C260 C 0.44546 0.63736 0.2549 0.0
C261 C 0.41651 0.68675 0.30316 0.0
H262 H 0.46138 0.60145 0.15532 0.0
C263 C 0.36429 0.74123 0.28627 0.0
H264 H 0.48493 0.59488 0.26645 0.0
C265 C 0.35352 0.74455 0.22254 0.0
C266 C 0.38943 0.69419 0.17442 0.0
H267 H 0.34101 0.78005 0.32231 0.0
H268 H 0.32409 0.78559 0.21094 0.0
C269 C 0.43009 0.6413 0.19121 0.0
C270 C 0.61236 0.68792 0.74495 0.0
C271 C 0.64367 0.63803 0.69697 0.0
H272 H 0.60544 0.723 0.84451 0.0
C273 C 0.70356 0.58279 0.71395 0.0
H274 H 0.56695 0.731 0.73324 0.0
C275 C 0.72282 0.57857 0.77771 0.0
C276 C 0.6874 0.62892 0.82572 0.0
H277 H 0.72853 0.54367 0.67807 0.0
H278 H 0.76128 0.53634 0.78956 0.0
C279 C 0.63592 0.6832 0.80864 0.0
loop_
_geom_bond_atom_site_label_1
_geom_bond_atom_site_label_2
_geom_bond_distance
_geom_bond_site_symmetry_2
_ccdc_geom_bond_type
Eu0 C9 2.828 . S
Eu0 O11 2.392 1_655 S
Eu0 O13 2.418 . S
Eu0 O18 2.373 1_565 S
Eu0 O21 2.488 . S
Eu0 O22 2.471 1_556 S
Eu0 O23 2.349 1_556 S
Eu1 O10 2.373 1_545 S
Eu1 O14 2.488 . S
Eu1 O15 2.471 1_554 S
Eu1 O16 2.349 1_554 S
Eu1 O19 2.392 1_455 S
Eu1 O20 2.418 . S
Eu1 C30 2.828 . S
C2 O20 1.244 . S
C2 O23 1.265 1_445 S
C3 C4 1.379 1_556 S
C3 C7 1.373 . S
C3 C9 1.505 1_545 S
C4 C3 1.379 1_554 S
C4 C6 1.369 . S
C4 H32 0.930 . S
C5 C7 1.383 . S
C5 C8 1.382 1_556 S
C5 H33 0.930 . S
C6 C4 1.369 . S
C6 C8 1.392 . S
C6 H34 0.930 . S
C7 C3 1.373 . S
C7 C5 1.383 . S
C7 H35 0.931 1_545 S
C8 C5 1.382 1_554 S
C8 C6 1.392 . S
C9 Eu0 2.828 . S
C9 C3 1.505 1_565 S
C9 O21 1.249 . S
C9 O22 1.244 1_556 S
O10 Eu1 2.373 1_565 S
O10 C12 1.258 . S
O11 Eu0 2.392 1_455 S
O11 C12 1.241 1_556 S
C12 O10 1.258 . S
C12 O11 1.241 1_554 S
O13 Eu0 2.418 . S
O13 C17 1.244 . S
O14 Eu1 2.488 . S
O14 C30 1.249 . S
O15 Eu1 2.471 1_556 S
O15 C30 1.244 1_556 S
O16 Eu1 2.349 1_556 S
O16 C17 1.265 1_445 S
C17 O13 1.244 . S
C17 O16 1.265 1_665 S
O18 Eu0 2.373 1_545 S
O18 C31 1.257 . S
O19 Eu1 2.392 1_655 S
O19 C31 1.242 1_554 S
O20 Eu1 2.418 . S
O20 C2 1.244 . S
O21 Eu0 2.488 . S
O21 C9 1.249 . S
O22 Eu0 2.471 1_554 S
O22 C9 1.244 1_554 S
O23 Eu0 2.349 1_554 S
O23 C2 1.265 1_665 S
C24 C25 1.379 1_554 S
C24 C28 1.373 . S
C24 C30 1.505 1_565 S
C25 C24 1.379 1_556 S
C25 C27 1.369 . S
C25 H36 0.930 . S
C26 C28 1.383 . S
C26 C29 1.382 1_554 S
C26 H37 0.930 . S
C27 C25 1.369 . S
C27 C29 1.392 . S
C27 H38 0.930 . S
C28 C24 1.373 . S
C28 C26 1.383 . S
C28 H39 0.931 1_565 S
C29 C26 1.382 1_556 S
C29 C27 1.392 . S
C30 Eu1 2.828 . S
C30 O14 1.249 . S
C30 O15 1.244 1_554 S
C30 C24 1.505 1_545 S
C31 O18 1.257 . S
C31 O19 1.242 1_556 S
H32 C4 0.930 . S
H33 C5 0.930 . S
H34 C6 0.930 . S
H35 C7 0.931 1_565 S
H36 C25 0.930 . S
H37 C26 0.930 . S
H38 C27 0.930 . S
H39 C28 0.931 1_545 S
Eu40 C49 2.828 1_455 S
Eu40 O51 2.392 . S
Eu40 O53 2.418 . S
Eu40 O58 2.373 1_455 S
Eu40 O61 2.488 1_455 S
Eu40 O62 2.471 1_455 S
Eu40 O63 2.349 . S
Eu41 O50 2.373 1_655 S
Eu41 O54 2.488 1_655 S
Eu41 O55 2.471 1_655 S
Eu41 O56 2.349 . S
Eu41 O59 2.392 . S
Eu41 O60 2.418 . S
Eu41 C70 2.828 1_655 S
C42 O60 1.244 1_455 S
C42 O63 1.265 1_545 S
C43 C44 1.379 . S
C43 C47 1.373 . S
C43 C49 1.505 . S
C44 C43 1.379 . S
C44 C46 1.369 . S
C44 H72 0.930 . S
C45 C47 1.383 . S
C45 C48 1.382 . S
C45 H73 0.930 . S
C46 C44 1.369 . S
C46 C48 1.392 . S
C46 H74 0.930 . S
C47 C43 1.373 . S
C47 C45 1.383 . S
C47 H75 0.931 . S
C48 C45 1.382 . S
C48 C46 1.392 . S
C49 Eu40 2.828 1_655 S
C49 C43 1.505 . S
C49 O61 1.249 . S
C49 O62 1.244 . S
O50 Eu41 2.373 1_455 S
O50 C52 1.258 1_545 S
O51 Eu40 2.392 . S
O51 C52 1.242 . S
C52 O50 1.258 1_565 S
C52 O51 1.242 . S
O53 Eu40 2.418 . S
O53 C57 1.244 1_455 S
O54 Eu41 2.488 1_455 S
O54 C70 1.249 . S
O55 Eu41 2.471 1_455 S
O55 C70 1.244 . S
O56 Eu41 2.349 . S
O56 C57 1.265 1_545 S
C57 O53 1.244 1_655 S
C57 O56 1.265 1_565 S
O58 Eu40 2.373 1_655 S
O58 C71 1.258 1_565 S
O59 Eu41 2.392 . S
O59 C71 1.242 . S
O60 Eu41 2.418 . S
O60 C42 1.244 1_655 S
O61 Eu40 2.488 1_655 S
O61 C49 1.249 . S
O62 Eu40 2.471 1_655 S
O62 C49 1.244 . S
O63 Eu40 2.349 . S
O63 C42 1.265 1_565 S
C64 C65 1.379 . S
C64 C68 1.373 . S
C64 C70 1.505 . S
C65 C64 1.379 . S
C65 C67 1.369 . S
C65 H76 0.930 . S
C66 C68 1.383 . S
C66 C69 1.382 . S
C66 H77 0.930 . S
C67 C65 1.369 . S
C67 C69 1.392 . S
C67 H78 0.930 . S
C68 C64 1.373 . S
C68 C66 1.383 . S
C68 H79 0.931 . S
C69 C66 1.382 . S
C69 C67 1.392 . S
C70 Eu41 2.828 1_455 S
C70 O54 1.249 . S
C70 O55 1.244 . S
C70 C64 1.505 . S
C71 O58 1.258 1_545 S
C71 O59 1.242 . S
H72 C44 0.930 . S
H73 C45 0.930 . S
H74 C46 0.930 . S
H75 C47 0.931 . S
H76 C65 0.930 . S
H77 C66 0.930 . S
H78 C67 0.930 . S
H79 C68 0.931 . S
Eu80 C89 2.828 . S
Eu80 O91 2.392 . S
Eu80 O93 2.418 . S
Eu80 O98 2.373 . S
Eu80 O101 2.488 . S
Eu80 O102 2.471 1_556 S
Eu80 O103 2.349 1_556 S
Eu81 O90 2.373 . S
Eu81 O94 2.488 . S
Eu81 O95 2.471 1_554 S
Eu81 O96 2.349 1_554 S
Eu81 O99 2.392 . S
Eu81 O100 2.418 . S
Eu81 C110 2.828 . S
C82 O100 1.244 . S
C82 O103 1.265 . S
C83 C84 1.379 1_556 S
C83 C87 1.373 . S
C83 C89 1.505 . S
C84 C83 1.379 1_554 S
C84 C86 1.369 . S
C84 H112 0.930 . S
C85 C87 1.383 . S
C85 C88 1.387 1_556 S
C85 H113 0.930 1_455 S
C86 C84 1.369 . S
C86 C88 1.402 . S
C86 H114 0.930 . S
C87 C83 1.373 . S
C87 C85 1.383 . S
C87 H115 0.931 . S
C88 C85 1.387 1_554 S
C88 C86 1.402 . S
C89 Eu80 2.828 . S
C89 C83 1.505 . S
C89 O101 1.249 . S
C89 O102 1.244 1_556 S
O90 Eu81 2.373 . S
O90 C92 1.258 . S
O91 Eu80 2.392 . S
O91 C92 1.241 1_556 S
C92 O90 1.258 . S
C92 O91 1.241 1_554 S
O93 Eu80 2.418 . S
O93 C97 1.244 . S
O94 Eu81 2.488 . S
O94 C110 1.249 . S
O95 Eu81 2.471 1_556 S
O95 C110 1.244 1_556 S
O96 Eu81 2.349 1_556 S
O96 C97 1.265 . S
C97 O93 1.244 . S
C97 O96 1.265 . S
O98 Eu80 2.373 . S
O98 C111 1.257 . S
O99 Eu81 2.392 . S
O99 C111 1.242 1_554 S
O100 Eu81 2.418 . S
O100 C82 1.244 . S
O101 Eu80 2.488 . S
O101 C89 1.249 . S
O102 Eu80 2.471 1_554 S
O102 C89 1.244 1_554 S
O103 Eu80 2.349 1_554 S
O103 C82 1.265 . S
C104 C105 1.379 1_554 S
C104 C108 1.373 . S
C104 C110 1.505 . S
C105 C104 1.379 1_556 S
C105 C107 1.369 . S
C105 H116 0.930 . S
C106 C108 1.383 . S
C106 C109 1.386 1_554 S
C106 H117 0.930 1_655 S
C107 C105 1.369 . S
C107 C109 1.400 . S
C107 H118 0.930 . S
C108 C104 1.373 . S
C108 C106 1.383 . S
C108 H119 0.931 . S
C109 C106 1.386 1_556 S
C109 C107 1.400 . S
C110 Eu81 2.828 . S
C110 O94 1.249 . S
C110 O95 1.244 1_554 S
C110 C104 1.505 . S
C111 O98 1.257 . S
C111 O99 1.242 1_556 S
H112 C84 0.930 . S
H113 C85 0.930 1_655 S
H114 C86 0.930 . S
H115 C87 0.931 . S
H116 C105 0.930 . S
H117 C106 0.930 1_455 S
H118 C107 0.930 . S
H119 C108 0.931 . S
Eu120 C129 2.828 . S
Eu120 O131 2.392 . S
Eu120 O133 2.418 . S
Eu120 O138 2.373 . S
Eu120 O141 2.488 . S
Eu120 O142 2.471 . S
Eu120 O143 2.349 . S
Eu121 O130 2.373 . S
Eu121 O134 2.488 . S
Eu121 O135 2.471 . S
Eu121 O136 2.349 . S
Eu121 O139 2.392 . S
Eu121 O140 2.418 . S
Eu121 C150 2.828 . S
C122 O140 1.244 . S
C122 O143 1.265 . S
C123 C124 1.379 . S
C123 C127 1.373 . S
C123 C129 1.505 . S
C124 C123 1.379 . S
C124 C126 1.369 . S
C124 H152 0.930 . S
C125 C127 1.383 . S
C125 C128 1.382 . S
C125 H153 0.930 . S
C126 C124 1.369 . S
C126 C128 1.392 . S
C126 H154 0.930 . S
C127 C123 1.373 . S
C127 C125 1.383 . S
C127 H155 0.931 . S
C128 C125 1.382 . S
C128 C126 1.392 . S
C129 Eu120 2.828 . S
C129 C123 1.505 . S
C129 O141 1.249 . S
C129 O142 1.244 . S
O130 Eu121 2.373 . S
O130 C132 1.258 . S
O131 Eu120 2.392 . S
O131 C132 1.242 . S
C132 O130 1.258 . S
C132 O131 1.242 . S
O133 Eu120 2.418 . S
O133 C137 1.244 . S
O134 Eu121 2.488 . S
O134 C150 1.249 . S
O135 Eu121 2.471 . S
O135 C150 1.244 . S
O136 Eu121 2.349 . S
O136 C137 1.265 . S
C137 O133 1.244 . S
C137 O136 1.265 . S
O138 Eu120 2.373 . S
O138 C151 1.258 . S
O139 Eu121 2.392 . S
O139 C151 1.242 . S
O140 Eu121 2.418 . S
O140 C122 1.244 . S
O141 Eu120 2.488 . S
O141 C129 1.249 . S
O142 Eu120 2.471 . S
O142 C129 1.244 . S
O143 Eu120 2.349 . S
O143 C122 1.265 . S
C144 C145 1.379 . S
C144 C148 1.373 . S
C144 C150 1.505 . S
C145 C144 1.379 . S
C145 C147 1.369 . S
C145 H156 0.930 . S
C146 C148 1.383 . S
C146 C149 1.382 . S
C146 H157 0.930 . S
C147 C145 1.369 . S
C147 C149 1.392 . S
C147 H158 0.930 . S
C148 C144 1.373 . S
C148 C146 1.383 . S
C148 H159 0.931 . S
C149 C146 1.382 . S
C149 C147 1.392 . S
C150 Eu121 2.828 . S
C150 O134 1.249 . S
C150 O135 1.244 . S
C150 C144 1.505 . S
C151 O138 1.258 . S
C151 O139 1.242 . S
H152 C124 0.930 . S
H153 C125 0.930 . S
H154 C126 0.930 . S
H155 C127 0.931 . S
H156 C145 0.930 . S
H157 C146 0.930 . S
H158 C147 0.930 . S
H159 C148 0.931 . S
C160 C161 1.387 . S
C160 H164 0.950 . S
C160 C169 1.390 . S
C161 C160 1.387 . S
C161 C163 1.388 1_554 S
H162 C169 0.950 . S
C163 C161 1.388 1_556 S
C163 C165 1.390 . S
C163 H167 0.950 . S
H164 C160 0.950 . S
C165 C163 1.390 . S
C165 C166 1.388 1_556 S
C165 H168 0.950 . S
C166 C165 1.388 1_554 S
C166 C169 1.387 . S
H167 C163 0.950 . S
H168 C165 0.950 . S
C169 C160 1.390 . S
C169 H162 0.950 . S
C169 C166 1.387 . S
C170 C171 1.389 . S
C170 H174 0.950 . S
C170 C179 1.390 . S
C171 C170 1.389 . S
C171 C173 1.386 1_554 S
H172 C179 0.950 . S
C173 C171 1.386 1_556 S
C173 C175 1.390 . S
C173 H177 0.950 . S
H174 C170 0.950 . S
C175 C173 1.390 . S
C175 C176 1.386 . S
C175 H178 0.950 . S
C176 C175 1.386 . S
C176 C179 1.389 1_556 S
H177 C173 0.950 . S
H178 C175 0.950 . S
C179 C170 1.390 . S
C179 H172 0.950 . S
C179 C176 1.389 1_554 S
C180 C181 1.387 . S
C180 H184 0.950 . S
C180 C189 1.390 . S
C181 C180 1.387 . S
C181 C183 1.387 . S
H182 C189 0.950 . S
C183 C181 1.387 . S
C183 C185 1.390 . S
C183 H187 0.950 . S
H184 C180 0.950 . S
C185 C183 1.390 . S
C185 C186 1.387 . S
C185 H188 0.950 . S
C186 C185 1.387 . S
C186 C189 1.387 . S
H187 C183 0.950 . S
H188 C185 0.950 . S
C189 C180 1.390 . S
C189 H182 0.950 . S
C189 C186 1.387 . S
C190 C191 1.387 . S
C190 H194 0.950 . S
C190 C199 1.390 . S
C191 C190 1.387 . S
C191 C193 1.387 . S
H192 C199 0.950 . S
C193 C191 1.387 . S
C193 C195 1.390 . S
C193 H197 0.950 . S
H194 C190 0.950 . S
C195 C193 1.390 . S
C195 C196 1.387 . S
C195 H198 0.950 . S
C196 C195 1.387 . S
C196 C199 1.387 . S
H197 C193 0.950 . S
H198 C195 0.950 . S
C199 C190 1.390 . S
C199 H192 0.950 . S
C199 C196 1.387 . S
C200 C201 1.387 1_554 S
C200 H204 0.950 . S
C200 C209 1.390 1_565 S
C201 C200 1.387 1_556 S
C201 C203 1.387 . S
H202 C209 0.950 . S
C203 C201 1.387 . S
C203 C205 1.390 1_565 S
C203 H207 0.950 . S
H204 C200 0.950 . S
C205 C203 1.390 1_545 S
C205 C206 1.387 1_556 S
C205 H208 0.950 . S
C206 C205 1.387 1_554 S
C206 C209 1.387 . S
H207 C203 0.950 . S
H208 C205 0.950 . S
C209 C200 1.390 1_545 S
C209 H202 0.950 . S
C209 C206 1.387 . S
C210 C211 1.387 . S
C210 H214 0.950 . S
C210 C219 1.390 . S
C211 C210 1.387 . S
C211 C213 1.387 1_565 S
H212 C219 0.950 . S
C213 C211 1.387 1_545 S
C213 C215 1.390 . S
C213 H217 0.950 . S
H214 C210 0.950 . S
C215 C213 1.390 . S
C215 C216 1.387 . S
C215 H218 0.950 . S
C216 C215 1.387 . S
C216 C219 1.387 1_545 S
H217 C213 0.950 . S
H218 C215 0.950 . S
C219 C210 1.390 . S
C219 H212 0.950 . S
C219 C216 1.387 1_565 S
C220 C221 1.387 1_554 S
C220 H224 0.950 . S
C220 C229 1.390 1_455 S
C221 C220 1.387 1_556 S
C221 C223 1.387 . S
H222 C229 0.950 . S
C223 C221 1.387 . S
C223 C225 1.390 1_455 S
C223 H227 0.950 . S
H224 C220 0.950 . S
C225 C223 1.390 1_655 S
C225 C226 1.387 1_556 S
C225 H228 0.950 . S
C226 C225 1.387 1_554 S
C226 C229 1.387 . S
H227 C223 0.950 . S
H228 C225 0.950 . S
C229 C220 1.390 1_655 S
C229 H222 0.950 . S
C229 C226 1.387 . S
C230 C231 1.387 . S
C230 H234 0.950 . S
C230 C239 1.390 1_455 S
C231 C230 1.387 . S
C231 C233 1.387 . S
H232 C239 0.950 . S
C233 C231 1.387 . S
C233 C235 1.390 1_455 S
C233 H237 0.950 . S
H234 C230 0.950 . S
C235 C233 1.390 1_655 S
C235 C236 1.387 . S
C235 H238 0.950 . S
C236 C235 1.387 . S
C236 C239 1.387 . S
H237 C233 0.950 . S
H238 C235 0.950 . S
C239 C230 1.390 1_655 S
C239 H232 0.950 . S
C239 C236 1.387 . S
C240 C241 1.387 1_455 S
C240 H244 0.950 . S
C240 C249 1.390 . S
C241 C240 1.387 1_655 S
C241 C243 1.387 1_545 S
H242 C249 0.950 . S
C243 C241 1.387 1_565 S
C243 C245 1.390 . S
C243 H247 0.950 . S
H244 C240 0.950 . S
C245 C243 1.390 . S
C245 C246 1.377 1_565 S
C245 H248 0.950 . S
C246 C245 1.377 1_545 S
C246 C249 1.396 1_655 S
H247 C243 0.950 . S
H248 C245 0.950 . S
C249 C240 1.390 . S
C249 H242 0.950 . S
C249 C246 1.396 1_455 S
C250 C251 1.386 1_655 S
C250 H254 0.950 . S
C250 C259 1.390 . S
C251 C250 1.386 1_455 S
C251 C253 1.388 1_545 S
H252 C259 0.950 . S
C253 C251 1.388 1_565 S
C253 C255 1.390 . S
C253 H257 0.950 . S
H254 C250 0.950 . S
C255 C253 1.390 . S
C255 C256 1.387 . S
C255 H258 0.950 . S
C256 C255 1.387 . S
C256 C259 1.387 1_465 S
H257 C253 0.950 . S
H258 C255 0.950 . S
C259 C250 1.390 . S
C259 H252 0.950 . S
C259 C256 1.387 1_645 S
C260 C261 1.387 . S
C260 H264 0.950 . S
C260 C269 1.390 . S
C261 C260 1.387 . S
C261 C263 1.387 . S
H262 C269 0.950 . S
C263 C261 1.387 . S
C263 C265 1.390 . S
C263 H267 0.950 . S
H264 C260 0.950 . S
C265 C263 1.390 . S
C265 C266 1.387 . S
C265 H268 0.950 . S
C266 C265 1.387 . S
C266 C269 1.387 . S
H267 C263 0.950 . S
H268 C265 0.950 . S
C269 C260 1.390 . S
C269 H262 0.950 . S
C269 C266 1.387 . S
C270 C271 1.387 . S
C270 H274 0.950 . S
C270 C279 1.390 . S
C271 C270 1.387 . S
C271 C273 1.387 . S
H272 C279 0.950 . S
C273 C271 1.387 . S
C273 C275 1.390 . S
C273 H277 0.950 . S
H274 C270 0.950 . S
C275 C273 1.390 . S
C275 C276 1.387 . S
C275 H278 0.950 . S
C276 C275 1.387 . S
C276 C279 1.387 . S
H277 C273 0.950 . S
H278 C275 0.950 . S
C279 C270 1.390 . S
C279 H272 0.950 . S
C279 C276 1.387 . S
C161 C111 3.695 1_554 S
C166 C12 3.695 . S
C171 C92 3.695 . S
C176 C31 3.695 . S
C181 C69 0.497 . S
C186 C128 0.497 . S
C191 C48 0.500 . S
C196 C149 0.500 . S
C201 C29 0.658 . S
C206 C8 0.658 . S
C211 C52 4.830 . S
C216 C71 4.830 . S
C221 C109 0.646 1_455 S
C226 C88 0.643 1_655 S
C231 C151 4.829 . S
C236 C132 4.829 . S
C241 C57 1.466 1_545 S
C246 C2 1.470 1_655 S
C251 C17 1.465 1_445 S
C256 C42 1.465 1_565 S
C261 C137 1.465 . S
C266 C82 1.468 . S
C271 C122 1.465 . S
C276 C97 1.466 . S
