# Generated by pormake.
# Topology umy, (4)-cn, num edge types: 1
# Building blocks:
#     Node 0, Type 0, BuildingBlock: UXUYUI_clean_sbu_0, # of connection points: 4
#     Node 1, Type 0, BuildingBlock: UXUYUI_clean_sbu_0, # of connection points: 4
#     Node 2, Type 0, BuildingBlock: UXUYUI_clean_sbu_0, # of connection points: 4
#     Node 3, Type 0, BuildingBlock: UXUYUI_clean_sbu_0, # of connection points: 4
#     Node 4, Type 0, BuildingBlock: UXUYUI_clean_sbu_0, # of connection points: 4
#     Node 5, Type 0, BuildingBlock: UXUYUI_clean_sbu_0, # of connection points: 4
#     Node 6, Type 0, BuildingBlock: UXUYUI_clean_sbu_0, # of connection points: 4
#     Node 7, Type 0, BuildingBlock: UXUYUI_clean_sbu_0, # of connection points: 4
#     Node 8, Type 0, BuildingBlock: UXUYUI_clean_sbu_0, # of connection points: 4
#     Node 9, Type 0, BuildingBlock: UXUYUI_clean_sbu_0, # of connection points: 4
#     Node 10, Type 0, BuildingBlock: UXUYUI_clean_sbu_0, # of connection points: 4
#     Node 11, Type 0, BuildingBlock: UXUYUI_clean_sbu_0, # of connection points: 4
#     Edge 12, Type (0, 0), BuildingBlock: EZIPEK_clean_linker_0, # of connection points: 2
#     Edge 13, Type (0, 0), BuildingBlock: EZIPEK_clean_linker_0, # of connection points: 2
#     Edge 14, Type (0, 0), BuildingBlock: EZIPEK_clean_linker_0, # of connection points: 2
#     Edge 15, Type (0, 0), BuildingBlock: EZIPEK_clean_linker_0, # of connection points: 2
#     Edge 16, Type (0, 0), BuildingBlock: EZIPEK_clean_linker_0, # of connection points: 2
#     Edge 17, Type (0, 0), BuildingBlock: EZIPEK_clean_linker_0, # of connection points: 2
#     Edge 18, Type (0, 0), BuildingBlock: EZIPEK_clean_linker_0, # of connection points: 2
#     Edge 19, Type (0, 0), BuildingBlock: EZIPEK_clean_linker_0, # of connection points: 2
#     Edge 20, Type (0, 0), BuildingBlock: EZIPEK_clean_linker_0, # of connection points: 2
#     Edge 21, Type (0, 0), BuildingBlock: EZIPEK_clean_linker_0, # of connection points: 2
#     Edge 22, Type (0, 0), BuildingBlock: EZIPEK_clean_linker_0, # of connection points: 2
#     Edge 23, Type (0, 0), BuildingBlock: EZIPEK_clean_linker_0, # of connection points: 2
#     Edge 24, Type (0, 0), BuildingBlock: EZIPEK_clean_linker_0, # of connection points: 2
#     Edge 25, Type (0, 0), BuildingBlock: EZIPEK_clean_linker_0, # of connection points: 2
#     Edge 26, Type (0, 0), BuildingBlock: EZIPEK_clean_linker_0, # of connection points: 2
#     Edge 27, Type (0, 0), BuildingBlock: EZIPEK_clean_linker_0, # of connection points: 2
#     Edge 28, Type (0, 0), BuildingBlock: EZIPEK_clean_linker_0, # of connection points: 2
#     Edge 29, Type (0, 0), BuildingBlock: EZIPEK_clean_linker_0, # of connection points: 2
#     Edge 30, Type (0, 0), BuildingBlock: EZIPEK_clean_linker_0, # of connection points: 2
#     Edge 31, Type (0, 0), BuildingBlock: EZIPEK_clean_linker_0, # of connection points: 2
#     Edge 32, Type (0, 0), BuildingBlock: EZIPEK_clean_linker_0, # of connection points: 2
#     Edge 33, Type (0, 0), BuildingBlock: EZIPEK_clean_linker_0, # of connection points: 2
#     Edge 34, Type (0, 0), BuildingBlock: EZIPEK_clean_linker_0, # of connection points: 2
#     Edge 35, Type (0, 0), BuildingBlock: EZIPEK_clean_linker_0, # of connection points: 2
# Relax obj value: 0.205
# Max RMSD: 0.156
# Mean RMSD: 0.156
data_MOF--net-umy--node1-UXUYUI_clean_sbu_0--edge1-EZIPEK_clean_linker_0
_symmetry_space_group_name_H-M    P1
_symmetry_Int_Tables_number       1
_symmetry_cell_setting            triclinic
loop_
_symmetry_equiv_pos_as_xyz
'x, y, z'
_cell_length_a     48.027175
_cell_length_b     48.011125
_cell_length_c     54.320819
_cell_angle_alpha  90.00774
_cell_angle_beta   89.998177
_cell_angle_gamma 120.0067
loop_
_atom_site_label
_atom_site_type_symbol
_atom_site_fract_x
_atom_site_fract_y
_atom_site_fract_z
_atom_type_partial_charge
Li0 Li 0.08461 0.34393 0.09364 0.0
Li1 Li 0.08893 0.35765 0.1385 0.0
Li2 Li 0.03657 0.3235 0.11784 0.0
Li3 Li 0.06513 0.37968 0.10848 0.0
C4 C 0.08504 0.29621 0.11724 0.0
N5 N 0.11235 0.25959 0.10411 0.0
C6 C 0.11614 0.30515 0.12501 0.0
C7 C 0.06772 0.26855 0.10296 0.0
C8 C 0.12955 0.28633 0.11814 0.0
C9 C 0.08198 0.25039 0.09646 0.0
C10 C 0.128 0.41842 0.1058 0.0
C11 C 0.15097 0.4732 0.11984 0.0
N12 N 0.16166 0.48374 0.09663 0.0
C13 C 0.13923 0.42975 0.08209 0.0
C14 C 0.13392 0.44026 0.12486 0.0
C15 C 0.15622 0.46289 0.07783 0.0
C16 C 0.09422 0.31672 0.04912 0.0
N17 N 0.10838 0.33618 0.06889 0.0
C18 C 0.15975 0.34378 0.05721 0.0
C19 C 0.14053 0.34995 0.073 0.0
C20 C 0.14573 0.32333 0.03699 0.0
C21 C 0.11263 0.30997 0.03276 0.0
H22 H 0.06862 0.30599 0.0463 0.0
H23 H 0.15111 0.36515 0.08894 0.0
C24 C 0.09933 0.34323 0.18635 0.0
N25 N 0.11364 0.36383 0.16725 0.0
C26 C 0.11712 0.34512 0.20723 0.0
C27 C 0.16408 0.3893 0.18832 0.0
C28 C 0.14536 0.38658 0.16779 0.0
C29 C 0.14988 0.36824 0.20821 0.0
H30 H 0.07429 0.32483 0.18506 0.0
H31 H 0.1563 0.40204 0.15205 0.0
C32 C 0.01576 0.32717 0.07296 0.0
N33 N 0.95685 0.29284 0.04989 0.0
C34 C 0.99739 0.34173 0.0681 0.0
C35 C 0.00434 0.29527 0.06591 0.0
C36 C 0.96763 0.32394 0.05644 0.0
C37 C 0.97443 0.27828 0.05434 0.0
C38 C 0.02151 0.35462 0.15244 0.0
C39 C 0.9992 0.36006 0.13999 0.0
C40 C 0.01521 0.34303 0.17658 0.0
C41 C 0.97086 0.35374 0.15191 0.0
C42 C 0.98664 0.33711 0.1879 0.0
N43 N 0.96523 0.34252 0.17543 0.0
C44 C 0.9963 0.26464 0.14097 0.0
C45 C 0.96665 0.28504 0.12054 0.0
C46 C 0.96816 0.23972 0.15125 0.0
N47 N 0.9952 0.28695 0.12618 0.0
C48 C 0.93787 0.26035 0.13029 0.0
C49 C 0.93861 0.23778 0.14627 0.0
H50 H 0.01925 0.26696 0.14565 0.0
H51 H 0.9662 0.3034 0.10939 0.0
C52 C 0.06705 0.42923 0.07823 0.0
N53 N 0.06343 0.41799 0.10169 0.0
C54 C 0.06764 0.45815 0.07342 0.0
C55 C 0.06025 0.46308 0.11691 0.0
C56 C 0.06019 0.43432 0.12092 0.0
C57 C 0.06421 0.47535 0.09295 0.0
H58 H 0.06996 0.41594 0.06333 0.0
H59 H 0.05799 0.4252 0.13944 0.0
O60 O 0.07183 0.31479 0.12317 0.0
O61 O 0.11046 0.38609 0.11018 0.0
O62 O 0.04506 0.3443 0.08413 0.0
O63 O 0.04945 0.36075 0.1411 0.0
H64 H 0.12993 0.32659 0.13597 0.0
H65 H 0.04359 0.26132 0.09684 0.0
H66 H 0.15368 0.29305 0.12388 0.0
H67 H 0.06894 0.22902 0.08529 0.0
H68 H 0.15553 0.49038 0.13437 0.0
H69 H 0.13462 0.4131 0.06712 0.0
H70 H 0.12497 0.43181 0.14324 0.0
H71 H 0.16497 0.47204 0.05956 0.0
H72 H 0.18522 0.35442 0.06096 0.0
H73 H 0.10117 0.29409 0.01727 0.0
H74 H 0.10567 0.32835 0.22225 0.0
H75 H 0.18944 0.40712 0.18852 0.0
H76 H 0.00596 0.36645 0.07333 0.0
H77 H 0.01825 0.28366 0.06958 0.0
H78 H 0.95309 0.33484 0.05264 0.0
H79 H 0.96517 0.2535 0.04893 0.0
H80 H 1.00356 0.36874 0.12123 0.0
H81 H 0.03222 0.33875 0.18651 0.0
H82 H 0.95332 0.3577 0.14245 0.0
H83 H 0.98143 0.32813 0.20658 0.0
H84 H 0.96954 0.2228 0.16367 0.0
H85 H 0.91544 0.25966 0.12629 0.0
H86 H 0.07091 0.46712 0.05474 0.0
H87 H 0.05772 0.4759 0.13237 0.0
Li88 Li 0.74807 0.08349 0.26015 0.0
Li89 Li 0.73744 0.08957 0.30322 0.0
Li90 Li 0.71814 0.0343 0.28744 0.0
Li91 Li 0.69365 0.06557 0.27569 0.0
C92 C 0.78416 0.06044 0.28596 0.0
N93 N 0.82587 0.03754 0.27768 0.0
C94 C 0.80789 0.06591 0.30325 0.0
C95 C 0.78155 0.04326 0.26447 0.0
C96 C 0.82878 0.05416 0.29872 0.0
C97 C 0.80289 0.0319 0.26062 0.0
C98 C 0.74149 0.13979 0.28295 0.0
C99 C 0.73376 0.17668 0.30824 0.0
N100 N 0.76459 0.19998 0.30362 0.0
C101 C 0.773 0.16417 0.27828 0.0
C102 C 0.7216 0.14613 0.29789 0.0
C103 C 0.78426 0.19442 0.28896 0.0
C104 C 0.77345 0.10614 0.21137 0.0
N105 N 0.78058 0.1051 0.23548 0.0
C106 C 0.83633 0.14185 0.22792 0.0
C107 C 0.81136 0.1222 0.24386 0.0
C108 C 0.82955 0.14413 0.20316 0.0
C109 C 0.79778 0.1257 0.19475 0.0
H110 H 0.74882 0.09265 0.20517 0.0
H111 H 0.81636 0.12163 0.26319 0.0
C112 C 0.73928 0.11451 0.3511 0.0
N113 N 0.75706 0.11617 0.3311 0.0
C114 C 0.75427 0.13272 0.37205 0.0
C115 C 0.80554 0.15419 0.35131 0.0
C116 C 0.78955 0.13559 0.33075 0.0
C117 C 0.78778 0.1525 0.37229 0.0
H118 H 0.71358 0.09858 0.35099 0.0
H119 H 0.80305 0.13616 0.31463 0.0
C120 C 0.68057 0.02561 0.23935 0.0
N121 N 0.62432 0.9952 0.21233 0.0
C122 C 0.65664 0.99439 0.24543 0.0
C123 C 0.67584 0.0414 0.21956 0.0
C124 C 0.62841 0.97939 0.23151 0.0
C125 C 0.64723 0.02563 0.20614 0.0
C126 C 0.66594 0.03589 0.31885 0.0
C127 C 0.64764 1.00237 0.3205 0.0
C128 C 0.6531 0.05462 0.32731 0.0
C129 C 0.61669 0.98815 0.33044 0.0
C130 C 0.62202 0.03948 0.33706 0.0
N131 N 0.60461 0.00684 0.33841 0.0
C132 C 0.71933 0.99278 0.32193 0.0
C133 C 0.70668 0.96913 0.2822 0.0
C134 C 0.71571 0.96451 0.33215 0.0
N135 N 0.71428 0.99441 0.29749 0.0
C136 C 0.70248 0.94015 0.29173 0.0
C137 C 0.70675 0.93767 0.31705 0.0
H138 H 0.72561 0.01338 0.33357 0.0
H139 H 0.70344 0.97128 0.26274 0.0
C140 C 0.6546 0.09 0.25769 0.0
N141 N 0.65329 0.06319 0.26731 0.0
C142 C 0.62632 0.09041 0.25238 0.0
C143 C 0.59573 0.03547 0.26659 0.0
C144 C 0.62456 0.03595 0.27122 0.0
C145 C 0.59647 0.06304 0.25725 0.0
H146 H 0.67764 0.1112 0.25429 0.0
H147 H 0.62388 0.0146 0.27821 0.0
O148 O 0.76329 0.07144 0.29031 0.0
O149 O 0.73032 0.10971 0.27334 0.0
O150 O 0.70812 0.04089 0.25306 0.0
O151 O 0.69639 0.05023 0.30933 0.0
H152 H 0.81009 0.07907 0.32002 0.0
H153 H 0.76322 0.03868 0.25094 0.0
H154 H 0.84729 0.05822 0.31193 0.0
H155 H 0.80117 0.01856 0.24409 0.0
H156 H 0.71871 0.18185 0.31997 0.0
H157 H 0.7887 0.15974 0.26673 0.0
H158 H 0.69712 0.12758 0.30159 0.0
H159 H 0.80867 0.21345 0.28564 0.0
H160 H 0.86057 0.15601 0.235 0.0
H161 H 0.79179 0.12719 0.17575 0.0
H162 H 0.74005 0.13086 0.3881 0.0
H163 H 0.83148 0.16916 0.35109 0.0
H164 H 0.65947 0.98209 0.26106 0.0
H165 H 0.69378 0.06579 0.21491 0.0
H166 H 0.60964 0.9553 0.23609 0.0
H167 H 0.64316 0.03764 0.19089 0.0
H168 H 0.65704 0.98742 0.31398 0.0
H169 H 0.66676 0.08055 0.32607 0.0
H170 H 0.60224 0.96225 0.33173 0.0
H171 H 0.6117 0.05369 0.34348 0.0
H172 H 0.7192 0.96334 0.35175 0.0
H173 H 0.69561 0.91981 0.27962 0.0
H174 H 0.62768 0.11199 0.24495 0.0
H175 H 0.57306 0.01386 0.27034 0.0
Li176 Li 0.66723 0.7455 0.42855 0.0
Li177 Li 0.64779 0.73479 0.47097 0.0
Li178 Li 0.68477 0.71621 0.45611 0.0
Li179 Li 0.62822 0.68979 0.44209 0.0
C180 C 0.7136 0.79167 0.4648 0.0
N181 N 0.75658 0.85528 0.47583 0.0
C182 C 0.70244 0.81287 0.47025 0.0
C183 C 0.74663 0.80281 0.46516 0.0
C184 C 0.72455 0.84492 0.47575 0.0
C185 C 0.76797 0.83506 0.4707 0.0
C186 C 0.60483 0.7429 0.43906 0.0
C187 C 0.55367 0.74102 0.43874 0.0
N188 N 0.56917 0.77357 0.43639 0.0
C189 C 0.62022 0.77633 0.43654 0.0
C190 C 0.57125 0.72506 0.44006 0.0
C191 C 0.60179 0.79139 0.43525 0.0
C192 C 0.65607 0.77011 0.38484 0.0
N193 N 0.67868 0.77623 0.40236 0.0
C194 C 0.71196 0.82944 0.38669 0.0
C195 C 0.70676 0.80482 0.40301 0.0
C196 C 0.68821 0.82439 0.3694 0.0
C197 C 0.66044 0.79397 0.36797 0.0
H198 H 0.63389 0.74724 0.3848 0.0
H199 H 0.72462 0.80908 0.41678 0.0
C200 C 0.66193 0.7628 0.51729 0.0
N201 N 0.6389 0.7522 0.49953 0.0
C202 C 0.65925 0.77802 0.53829 0.0
C203 C 0.60863 0.77023 0.5228 0.0
C204 C 0.61223 0.75504 0.5021 0.0
C205 C 0.63255 0.78217 0.54095 0.0
H206 H 0.68274 0.75999 0.51483 0.0
H207 H 0.59389 0.74588 0.48809 0.0
C208 C 0.69258 0.7111 0.40542 0.0
N209 N 0.74221 0.7243 0.37321 0.0
C210 C 0.68778 0.69022 0.38589 0.0
C211 C 0.7226 0.7387 0.40856 0.0
C212 C 0.71318 0.6973 0.3698 0.0
C213 C 0.74739 0.74495 0.39209 0.0
C214 C 0.62079 0.67446 0.49252 0.0
C215 C 0.62586 0.65772 0.51139 0.0
C216 C 0.59104 0.67291 0.49047 0.0
C217 C 0.60094 0.63954 0.52789 0.0
C218 C 0.56673 0.65446 0.50731 0.0
N219 N 0.57214 0.63829 0.52552 0.0
C220 C 0.73424 0.72533 0.48792 0.0
C221 C 0.72705 0.68985 0.45502 0.0
C222 C 0.75837 0.72074 0.49806 0.0
N223 N 0.71912 0.70993 0.46683 0.0
C224 C 0.75111 0.68456 0.46454 0.0
C225 C 0.76678 0.69993 0.48643 0.0
H226 H 0.72713 0.74081 0.49709 0.0
H227 H 0.71433 0.67751 0.43848 0.0
C228 C 0.56919 0.64908 0.4178 0.0
N229 N 0.59152 0.64955 0.43347 0.0
C230 C 0.54073 0.62028 0.41307 0.0
C231 C 0.5592 0.59284 0.44012 0.0
C232 C 0.58731 0.62214 0.44429 0.0
C233 C 0.53544 0.59189 0.42457 0.0
H234 H 0.57324 0.6712 0.40935 0.0
H235 H 0.6055 0.62318 0.45661 0.0
O236 O 0.69242 0.76009 0.45946 0.0
O237 O 0.62233 0.72754 0.44026 0.0
O238 O 0.66789 0.7044 0.42129 0.0
O239 O 0.64497 0.69231 0.47623 0.0
H240 H 0.67702 0.80467 0.47053 0.0
H241 H 0.75573 0.78676 0.46106 0.0
H242 H 0.71621 0.86154 0.48003 0.0
H243 H 0.7936 0.84402 0.47093 0.0
H244 H 0.52769 0.72752 0.43961 0.0
H245 H 0.64608 0.79055 0.43539 0.0
H246 H 0.55887 0.69918 0.44205 0.0
H247 H 0.61343 0.81724 0.43329 0.0
H248 H 0.73373 0.85261 0.38815 0.0
H249 H 0.64169 0.78934 0.35478 0.0
H250 H 0.67804 0.78698 0.5521 0.0
H251 H 0.58766 0.77299 0.52453 0.0
H252 H 0.66465 0.66874 0.38321 0.0
H253 H 0.72677 0.75509 0.42355 0.0
H254 H 0.70981 0.68135 0.35461 0.0
H255 H 0.77075 0.76622 0.39432 0.0
H256 H 0.6488 0.65874 0.51323 0.0
H257 H 0.58672 0.68575 0.47602 0.0
H258 H 0.6045 0.62642 0.54257 0.0
H259 H 0.54356 0.65298 0.5059 0.0
H260 H 0.76993 0.73279 0.51505 0.0
H261 H 0.75702 0.66822 0.45525 0.0
H262 H 0.5228 0.6202 0.40093 0.0
H263 H 0.55575 0.57126 0.44919 0.0
Li264 Li 0.97028 0.67964 0.62132 0.0
Li265 Li 0.94027 0.62243 0.61137 0.0
Li266 Li 0.92143 0.66141 0.59719 0.0
Li267 Li 0.9193 0.64763 0.64022 0.0
C268 C 0.98751 0.66634 0.57411 0.0
N269 N 0.04059 0.67916 0.54602 0.0
C270 C 0.00551 0.65157 0.57968 0.0
C271 C 0.99629 0.68733 0.55407 0.0
C272 C 0.0323 0.65842 0.5653 0.0
C273 C 0.02329 0.69362 0.54017 0.0
C274 C 0.98178 0.65196 0.65984 0.0
C275 C 0.00841 0.67859 0.69748 0.0
N276 N 0.03277 0.67287 0.69216 0.0
C277 C 0.00699 0.64622 0.65479 0.0
C278 C 0.98236 0.66812 0.68141 0.0
C279 C 0.03261 0.65705 0.67134 0.0
C280 C 0.01209 0.73341 0.64888 0.0
N281 N 0.01231 0.71573 0.62935 0.0
C282 C 0.06982 0.74728 0.62723 0.0
C283 C 0.04046 0.72248 0.61826 0.0
C284 C 0.07006 0.76497 0.64784 0.0
C285 C 0.0408 0.75813 0.65853 0.0
H286 H 0.98955 0.72753 0.65756 0.0
H287 H 0.04044 0.70832 0.6029 0.0
C288 C 0.93988 0.57368 0.58084 0.0
N289 N 0.94111 0.58384 0.60441 0.0
C290 C 0.94019 0.54518 0.57612 0.0
C291 C 0.94259 0.53798 0.61997 0.0
C292 C 0.94258 0.56675 0.62384 0.0
C293 C 0.94142 0.52696 0.59587 0.0
H294 H 0.93869 0.58774 0.56575 0.0
H295 H 0.94349 0.57538 0.64238 0.0
C296 C 0.94542 0.72118 0.61841 0.0
N297 N 0.96473 0.78307 0.60304 0.0
C298 C 0.93604 0.74015 0.63155 0.0
C299 C 0.96464 0.73369 0.59747 0.0
C300 C 0.94603 0.77138 0.62348 0.0
C301 C 0.97415 0.76503 0.58999 0.0
C302 C 0.86796 0.59765 0.62336 0.0
C303 C 0.84214 0.60326 0.62169 0.0
C304 C 0.86496 0.57201 0.63755 0.0
C305 C 0.81378 0.58327 0.63448 0.0
C306 C 0.8362 0.55256 0.65007 0.0
N307 N 0.81143 0.55856 0.64831 0.0
C308 C 0.89988 0.66573 0.54844 0.0
C309 C 0.87843 0.68069 0.58194 0.0
C310 C 0.88038 0.67067 0.53186 0.0
N311 N 0.8983 0.67055 0.57297 0.0
C312 C 0.85859 0.68585 0.5661 0.0
C313 C 0.85926 0.68054 0.54082 0.0
H314 H 0.91576 0.65746 0.54184 0.0
H315 H 0.87746 0.68406 0.60154 0.0
C316 C 0.89494 0.62278 0.68794 0.0
N317 N 0.89437 0.64092 0.66893 0.0
C318 C 0.87695 0.61901 0.70917 0.0
C319 C 0.8577 0.65202 0.69049 0.0
C320 C 0.87617 0.65531 0.66973 0.0
C321 C 0.85829 0.63394 0.7105 0.0
H322 H 0.90957 0.61153 0.68666 0.0
H323 H 0.87614 0.66942 0.65422 0.0
O324 O 0.96077 0.65945 0.58761 0.0
O325 O 0.95655 0.64167 0.64383 0.0
O326 O 0.93569 0.69052 0.62613 0.0
O327 O 0.89636 0.6177 0.61177 0.0
H328 H 0.99909 0.63525 0.59506 0.0
H329 H 0.98231 0.69855 0.54923 0.0
H330 H 0.04654 0.64729 0.56949 0.0
H331 H 0.03042 0.7099 0.52466 0.0
H332 H 0.0093 0.69134 0.71416 0.0
H333 H 0.00678 0.63349 0.6383 0.0
H334 H 0.9631 0.67289 0.68555 0.0
H335 H 0.05235 0.65287 0.66763 0.0
H336 H 0.09212 0.752 0.61865 0.0
H337 H 0.04024 0.77132 0.67452 0.0
H338 H 0.93929 0.53729 0.55731 0.0
H339 H 0.94353 0.52445 0.63559 0.0
H340 H 0.92117 0.73081 0.64783 0.0
H341 H 0.9722 0.71943 0.58716 0.0
H342 H 0.93894 0.78633 0.63346 0.0
H343 H 0.98905 0.77501 0.57382 0.0
H344 H 0.84407 0.62304 0.61084 0.0
H345 H 0.88479 0.56749 0.63919 0.0
H346 H 0.79367 0.58746 0.63349 0.0
H347 H 0.83362 0.53278 0.66127 0.0
H348 H 0.88126 0.66625 0.5124 0.0
H349 H 0.84243 0.69334 0.57354 0.0
H350 H 0.8778 0.60495 0.72443 0.0
H351 H 0.84349 0.66381 0.69112 0.0
Li352 Li 0.31668 0.94024 0.77455 0.0
Li353 Li 0.29115 0.97118 0.78426 0.0
Li354 Li 0.27027 0.91918 0.80156 0.0
Li355 Li 0.26095 0.92461 0.75753 0.0
C356 C 0.34294 0.98134 0.81366 0.0
N357 N 0.40265 0.03199 0.82639 0.0
C358 C 0.36216 0.00398 0.79598 0.0
C359 C 0.35406 0.98452 0.83784 0.0
C360 C 0.39227 0.02938 0.80275 0.0
C361 C 0.38432 0.01028 0.84391 0.0
C362 C 0.30686 0.98624 0.73383 0.0
C363 C 0.28326 0.00826 0.70642 0.0
N364 N 0.3132 0.03143 0.69941 0.0
C365 C 0.3374 0.01006 0.72615 0.0
C366 C 0.27957 0.98514 0.72373 0.0
C367 C 0.34009 0.03277 0.70881 0.0
C368 C 0.36958 0.94853 0.7453 0.0
N369 N 0.35607 0.94084 0.7681 0.0
C370 C 0.3993 0.93432 0.78312 0.0
C371 C 0.37027 0.93381 0.78689 0.0
C372 C 0.41371 0.94212 0.7598 0.0
C373 C 0.39864 0.94932 0.74072 0.0
H374 H 0.35778 0.95407 0.73072 0.0
H375 H 0.35905 0.92792 0.80485 0.0
C376 C 0.29856 0.01687 0.8187 0.0
N377 N 0.29908 0.01346 0.79385 0.0
C378 C 0.30272 0.04531 0.82895 0.0
C379 C 0.30887 0.06713 0.78796 0.0
C380 C 0.30417 0.03795 0.77842 0.0
C381 C 0.30788 0.07078 0.81352 0.0
H382 H 0.29451 0.99717 0.83064 0.0
H383 H 0.30446 0.03502 0.75878 0.0
C384 C 0.26356 0.86671 0.7813 0.0
N385 N 0.23513 0.80518 0.80035 0.0
C386 C 0.23194 0.84411 0.77496 0.0
C387 C 0.28081 0.85798 0.79717 0.0
C388 C 0.21799 0.81312 0.7848 0.0
C389 C 0.26597 0.82677 0.80667 0.0
C390 C 0.23123 0.95314 0.79656 0.0
C391 C 0.22666 0.95296 0.822 0.0
C392 C 0.22241 0.97093 0.78135 0.0
C393 C 0.21369 0.97092 0.83181 0.0
C394 C 0.2096 0.98865 0.79187 0.0
N395 N 0.20556 0.98829 0.81667 0.0
C396 C 0.26758 0.89518 0.84973 0.0
C397 C 0.21774 0.87266 0.82853 0.0
C398 C 0.25227 0.87731 0.87076 0.0
N399 N 0.2501 0.89277 0.82934 0.0
C400 C 0.20151 0.8542 0.84905 0.0
C401 C 0.21883 0.85683 0.87053 0.0
H402 H 0.29328 0.91135 0.84976 0.0
H403 H 0.20452 0.87149 0.81207 0.0
C404 C 0.23755 0.88812 0.71347 0.0
N405 N 0.23041 0.9027 0.73192 0.0
C406 C 0.21353 0.86735 0.69715 0.0
C407 C 0.17566 0.87789 0.71865 0.0
C408 C 0.20032 0.89835 0.73457 0.0
C409 C 0.18207 0.86165 0.70005 0.0
H410 H 0.26152 0.8915 0.71214 0.0
H411 H 0.19515 0.90966 0.74971 0.0
O412 O 0.31326 0.95626 0.80752 0.0
O413 O 0.30377 0.96363 0.75061 0.0
O414 O 0.27733 0.89743 0.77245 0.0
O415 O 0.24474 0.93642 0.78668 0.0
H416 H 0.35394 1.00201 0.77726 0.0
H417 H 0.33944 0.96731 0.85181 0.0
H418 H 0.40738 0.04704 0.78923 0.0
H419 H 0.39322 0.01302 0.86256 0.0
H420 H 0.26233 0.00778 0.69856 0.0
H421 H 0.35881 0.01099 0.73345 0.0
H422 H 0.25579 0.96672 0.72922 0.0
H423 H 0.36356 0.05142 0.70279 0.0
H424 H 0.41041 0.92867 0.7982 0.0
H425 H 0.40925 0.95543 0.72252 0.0
H426 H 0.30198 0.04748 0.84876 0.0
H427 H 0.31294 0.0865 0.77559 0.0
H428 H 0.21818 0.85052 0.76281 0.0
H429 H 0.30524 0.87527 0.80235 0.0
H430 H 0.19349 0.79542 0.78015 0.0
H431 H 0.27893 0.81974 0.81914 0.0
H432 H 0.23357 0.9396 0.83413 0.0
H433 H 0.22569 0.97134 0.76164 0.0
H434 H 0.21027 0.9712 0.85147 0.0
H435 H 0.20294 0.00274 0.78033 0.0
H436 H 0.26618 0.87981 0.88715 0.0
H437 H 0.17565 0.83862 0.84842 0.0
H438 H 0.21909 0.8549 0.68307 0.0
H439 H 0.15153 0.87373 0.72143 0.0
Li440 Li 0.37601 0.31297 0.94119 0.0
Li441 Li 0.32041 0.28602 0.95462 0.0
Li442 Li 0.35745 0.27031 0.97124 0.0
Li443 Li 0.33956 0.25745 0.92911 0.0
C444 C 0.38362 0.33166 0.99044 0.0
N445 N 0.43281 0.37149 0.02188 0.0
C446 C 0.3783 0.349 0.00867 0.0
C447 C 0.41398 0.33461 0.98818 0.0
C448 C 0.40346 0.36899 0.02441 0.0
C449 C 0.43853 0.35487 0.00424 0.0
C450 C 0.33449 0.32159 0.91067 0.0
C451 C 0.32905 0.35018 0.87621 0.0
N452 N 0.32997 0.37269 0.89193 0.0
C453 C 0.33537 0.34499 0.92647 0.0
C454 C 0.33128 0.32416 0.88533 0.0
C455 C 0.33305 0.37063 0.91665 0.0
C456 C 0.43643 0.35401 0.91874 0.0
N457 N 0.41227 0.35362 0.93206 0.0
C458 C 0.44206 0.41094 0.93601 0.0
C459 C 0.41455 0.38134 0.94062 0.0
C460 C 0.46765 0.412 0.92276 0.0
C461 C 0.4646 0.38309 0.91398 0.0
H462 H 0.43412 0.33165 0.91231 0.0
H463 H 0.3954 0.38045 0.95164 0.0
C464 C 0.28323 0.29442 0.98943 0.0
N465 N 0.28488 0.29093 0.96473 0.0
C466 C 0.25887 0.29869 0.99942 0.0
C467 C 0.23779 0.29517 0.9584 0.0
C468 C 0.26272 0.29102 0.94914 0.0
C469 C 0.23592 0.29925 0.98383 0.0
H470 H 0.30099 0.29393 0.00139 0.0
H471 H 0.26446 0.28802 0.92957 0.0
C472 C 0.39345 0.25347 0.94055 0.0
N473 N 0.4113 0.20702 0.93753 0.0
C474 C 0.37419 0.22317 0.95111 0.0
C475 C 0.42182 0.26011 0.92847 0.0
C476 C 0.38363 0.20003 0.9494 0.0
C477 C 0.43041 0.23632 0.92712 0.0
C478 C 0.28161 0.22034 0.95377 0.0
C479 C 0.26314 0.19463 0.96957 0.0
C480 C 0.26788 0.22393 0.93217 0.0
C481 C 0.23117 0.17291 0.96351 0.0
C482 C 0.23583 0.20172 0.92676 0.0
N483 N 0.21829 0.17689 0.94241 0.0
C484 C 0.34208 0.23871 0.01628 0.0
C485 C 0.39674 0.2592 0.00529 0.0
C486 C 0.34606 0.22469 0.03747 0.0
N487 N 0.36711 0.25518 0.00059 0.0
C488 C 0.40184 0.24566 0.02638 0.0
C489 C 0.37611 0.22785 0.04249 0.0
H490 H 0.31887 0.23606 0.01207 0.0
H491 H 0.41622 0.27231 0.99245 0.0
C492 C 0.33865 0.23433 0.88033 0.0
N493 N 0.32963 0.22541 0.9041 0.0
C494 C 0.33468 0.21131 0.86269 0.0
C495 C 0.31196 0.17045 0.89428 0.0
C496 C 0.31598 0.19408 0.91116 0.0
C497 C 0.32179 0.17908 0.86984 0.0
H498 H 0.3497 0.25942 0.87523 0.0
H499 H 0.30913 0.18749 0.93014 0.0
O500 O 0.35922 0.31227 0.97477 0.0
O501 O 0.33666 0.29617 0.91975 0.0
O502 O 0.3846 0.2765 0.94171 0.0
O503 O 0.31292 0.2418 0.9596 0.0
H504 H 0.35498 0.34711 0.01059 0.0
H505 H 0.41867 0.32158 0.97409 0.0
H506 H 0.39968 0.38256 0.0386 0.0
H507 H 0.46215 0.35741 0.00266 0.0
H508 H 0.32657 0.35248 0.85663 0.0
H509 H 0.33783 0.34343 0.94613 0.0
H510 H 0.33053 0.30621 0.87285 0.0
H511 H 0.33371 0.38891 0.92868 0.0
H512 H 0.44366 0.43277 0.94314 0.0
H513 H 0.48399 0.38303 0.90385 0.0
H514 H 0.25795 0.30162 0.01913 0.0
H515 H 0.22029 0.29537 0.94594 0.0
H516 H 0.35209 0.21742 0.96045 0.0
H517 H 0.43704 0.28339 0.92017 0.0
H518 H 0.3689 0.1765 0.95748 0.0
H519 H 0.45227 0.24114 0.91779 0.0
H520 H 0.27342 0.19146 0.98634 0.0
H521 H 0.28175 0.24359 0.91966 0.0
H522 H 0.21659 0.1529 0.97558 0.0
H523 H 0.22491 0.20422 0.91012 0.0
H524 H 0.32582 0.21112 0.04965 0.0
H525 H 0.42532 0.24848 0.02987 0.0
H526 H 0.34246 0.21864 0.84391 0.0
H527 H 0.30186 0.14576 0.90031 0.0
Li528 Li 0.68521 0.96631 0.71604 0.0
Li529 Li 0.62564 0.9361 0.72688 0.0
Li530 Li 0.66448 0.91727 0.74118 0.0
Li531 Li 0.64924 0.91349 0.69909 0.0
C532 C 0.68057 0.98586 0.7622 0.0
N533 N 0.71426 0.0435 0.78708 0.0
C534 C 0.6658 0.00384 0.76779 0.0
C535 C 0.71237 0.99704 0.76936 0.0
C536 C 0.68327 0.03295 0.78038 0.0
C537 C 0.72904 0.0263 0.78187 0.0
C538 C 0.63965 0.9524 0.67069 0.0
C539 C 0.60104 0.93846 0.63792 0.0
N540 N 0.62509 0.94766 0.62113 0.0
C541 C 0.66402 0.96191 0.65313 0.0
C542 C 0.60791 0.94066 0.66307 0.0
C543 C 0.65614 0.95924 0.62815 0.0
C544 C 0.74259 0.00822 0.69146 0.0
N545 N 0.72036 0.00799 0.70712 0.0
C546 C 0.7449 0.0653 0.70397 0.0
C547 C 0.72105 0.03578 0.71345 0.0
C548 C 0.7676 0.06596 0.68737 0.0
C549 C 0.76655 0.03708 0.68133 0.0
H550 H 0.74096 0.98578 0.68604 0.0
H551 H 0.70246 0.03502 0.72509 0.0
C552 C 0.56769 0.9199 0.75195 0.0
N553 N 0.58904 0.94001 0.7349 0.0
C554 C 0.53952 0.92075 0.75678 0.0
C555 C 0.55631 0.96364 0.72699 0.0
C556 C 0.58415 0.96196 0.72272 0.0
C557 C 0.53353 0.9426 0.74401 0.0
H558 H 0.57222 0.90269 0.76135 0.0
H559 H 0.60162 0.97776 0.70935 0.0
C560 C 0.71575 0.9225 0.71875 0.0
N561 N 0.76128 0.90672 0.7333 0.0
C562 C 0.70909 0.89068 0.71727 0.0
C563 C 0.74566 0.94634 0.72751 0.0
C564 C 0.7324 0.88317 0.72475 0.0
C565 C 0.76834 0.93786 0.7348 0.0
C566 C 0.59776 0.86303 0.71776 0.0
C567 C 0.60579 0.83916 0.71363 0.0
C568 C 0.56689 0.85704 0.71194 0.0
C569 C 0.58289 0.80978 0.70347 0.0
C570 C 0.54462 0.8273 0.70189 0.0
N571 N 0.55304 0.80451 0.69787 0.0
C572 C 0.70177 0.9077 0.77882 0.0
C573 C 0.64895 0.86442 0.77219 0.0
C574 C 0.70842 0.88873 0.79466 0.0
N575 N 0.67277 0.89495 0.76727 0.0
C576 C 0.65445 0.84474 0.788 0.0
C577 C 0.68473 0.85664 0.79891 0.0
H578 H 0.72021 0.93216 0.77504 0.0
H579 H 0.62588 0.85494 0.76329 0.0
C580 C 0.66771 0.88814 0.65987 0.0
N581 N 0.64185 0.88881 0.66939 0.0
C582 C 0.66461 0.87061 0.63857 0.0
C583 C 0.60845 0.85532 0.6367 0.0
C584 C 0.61267 0.87327 0.65803 0.0
C585 C 0.63466 0.8538 0.62696 0.0
H586 H 0.69086 0.90138 0.66873 0.0
H587 H 0.59265 0.87484 0.66544 0.0
O588 O 0.66391 0.95742 0.74979 0.0
O589 O 0.64677 0.954 0.6952 0.0
O590 O 0.69312 0.93026 0.71165 0.0
O591 O 0.61991 0.89204 0.72759 0.0
H592 H 0.64116 0.99544 0.76238 0.0
H593 H 0.72414 0.98345 0.76506 0.0
H594 H 0.6722 0.04719 0.78478 0.0
H595 H 0.75373 0.03537 0.78741 0.0
H596 H 0.57656 0.92923 0.63175 0.0
H597 H 0.68865 0.97081 0.65872 0.0
H598 H 0.58872 0.93284 0.67642 0.0
H599 H 0.67471 0.96626 0.61435 0.0
H600 H 0.74487 0.0872 0.70872 0.0
H601 H 0.78356 0.03681 0.66837 0.0
H602 H 0.52234 0.90423 0.77003 0.0
H603 H 0.55232 0.98077 0.71688 0.0
H604 H 0.68613 0.87195 0.71047 0.0
H605 H 0.75117 0.97104 0.72901 0.0
H606 H 0.72752 0.85863 0.72376 0.0
H607 H 0.7915 0.95602 0.74174 0.0
H608 H 0.62953 0.84335 0.71805 0.0
H609 H 0.56028 0.87526 0.7148 0.0
H610 H 0.58887 0.79119 0.70002 0.0
H611 H 0.5207 0.8224 0.69718 0.0
H612 H 0.73204 0.89863 0.80288 0.0
H613 H 0.63563 0.8201 0.79101 0.0
H614 H 0.68532 0.87008 0.63124 0.0
H615 H 0.58511 0.84281 0.62789 0.0
Li616 Li 0.71879 0.68058 0.88398 0.0
Li617 Li 0.6895 0.62286 0.89479 0.0
Li618 Li 0.74565 0.65957 0.90932 0.0
Li619 Li 0.73642 0.64295 0.86617 0.0
C620 C 0.69394 0.67827 0.92832 0.0
N621 N 0.67008 0.71448 0.94934 0.0
C622 C 0.66101 0.66448 0.93283 0.0
C623 C 0.71479 0.71036 0.9347 0.0
C624 C 0.6494 0.68321 0.94345 0.0
C625 C 0.70224 0.7283 0.94523 0.0
C626 C 0.67206 0.63164 0.84417 0.0
C627 C 0.64768 0.60028 0.80756 0.0
N628 N 0.62545 0.60992 0.80786 0.0
C629 C 0.64914 0.64146 0.84393 0.0
C630 C 0.67148 0.61108 0.82567 0.0
C631 C 0.6257 0.63012 0.82552 0.0
C632 C 0.73921 0.74038 0.86132 0.0
N633 N 0.71449 0.71695 0.87451 0.0
C634 C 0.68296 0.74228 0.86793 0.0
C635 C 0.68689 0.71779 0.87831 0.0
C636 C 0.70768 0.76603 0.85355 0.0
C637 C 0.73636 0.76537 0.85071 0.0
H638 H 0.76071 0.73898 0.85821 0.0
H639 H 0.66734 0.69875 0.88851 0.0
C640 C 0.64672 0.56117 0.91515 0.0
N641 N 0.64809 0.58617 0.90229 0.0
C642 C 0.61729 0.53307 0.91896 0.0
C643 C 0.5908 0.55768 0.89782 0.0
C644 C 0.62081 0.58514 0.89412 0.0
C645 C 0.58897 0.53104 0.90999 0.0
H646 H 0.66854 0.56278 0.92213 0.0
H647 H 0.62227 0.60559 0.88469 0.0
C648 C 0.79423 0.70629 0.88528 0.0
N649 N 0.85812 0.74429 0.8981 0.0
C650 C 0.81675 0.69755 0.87808 0.0
C651 C 0.80421 0.73447 0.89883 0.0
C652 C 0.84894 0.71705 0.8848 0.0
C653 C 0.83661 0.75332 0.90519 0.0
C654 C 0.71969 0.58445 0.88966 0.0
C655 C 0.73514 0.57007 0.90151 0.0
C656 C 0.69646 0.56726 0.87175 0.0
C657 C 0.72725 0.5388 0.89506 0.0
C658 C 0.6892 0.53603 0.86583 0.0
N659 N 0.70465 0.52257 0.87749 0.0
C660 C 0.78161 0.6876 0.95426 0.0
C661 C 0.79603 0.65531 0.93048 0.0
C662 C 0.80664 0.69467 0.97087 0.0
N663 N 0.77699 0.66837 0.93446 0.0
C664 C 0.82115 0.66166 0.94656 0.0
C665 C 0.82677 0.68171 0.96689 0.0
H666 H 0.76629 0.69786 0.95694 0.0
H667 H 0.79217 0.6406 0.91436 0.0
C668 C 0.75633 0.65226 0.8172 0.0
N669 N 0.75484 0.63545 0.83778 0.0
C670 C 0.77198 0.65032 0.79618 0.0
C671 C 0.78398 0.61354 0.81784 0.0
C672 C 0.76829 0.61635 0.83851 0.0
C673 C 0.78617 0.63097 0.79655 0.0
H674 H 0.74589 0.66768 0.81734 0.0
H675 H 0.76775 0.60407 0.8553 0.0
O676 O 0.70571 0.66035 0.91788 0.0
O677 O 0.69559 0.64299 0.86184 0.0
O678 O 0.76251 0.68716 0.87934 0.0
O679 O 0.7273 0.61515 0.89567 0.0
H680 H 0.64458 0.63962 0.92816 0.0
H681 H 0.74032 0.72137 0.93132 0.0
H682 H 0.62396 0.67291 0.94697 0.0
H683 H 0.71806 0.75323 0.9501 0.0
H684 H 0.64695 0.5843 0.7932 0.0
H685 H 0.6491 0.65728 0.85802 0.0
H686 H 0.68929 0.6036 0.82515 0.0
H687 H 0.6077 0.63737 0.82528 0.0
H688 H 0.66045 0.74204 0.87031 0.0
H689 H 0.7558 0.78327 0.83959 0.0
H690 H 0.61663 0.51304 0.92867 0.0
H691 H 0.56929 0.557 0.89097 0.0
H692 H 0.80941 0.67577 0.86766 0.0
H693 H 0.78708 0.74162 0.90445 0.0
H694 H 0.86661 0.71048 0.87949 0.0
H695 H 0.84467 0.7751 0.91578 0.0
H696 H 0.75301 0.5829 0.91557 0.0
H697 H 0.68382 0.57774 0.86282 0.0
H698 H 0.73908 0.52741 0.90404 0.0
H699 H 0.67119 0.52245 0.85204 0.0
H700 H 0.81055 0.71036 0.9864 0.0
H701 H 0.83645 0.65151 0.94294 0.0
H702 H 0.77358 0.66422 0.77999 0.0
H703 H 0.79512 0.59873 0.81865 0.0
Li704 Li 0.09173 0.73749 0.02899 0.0
Li705 Li 0.08675 0.75 0.07334 0.0
Li706 Li 0.07089 0.69395 0.05818 0.0
Li707 Li 0.03912 0.71729 0.04748 0.0
C708 C 0.14559 0.74846 0.05119 0.0
N709 N 0.20874 0.77975 0.03529 0.0
C710 C 0.16839 0.77701 0.06253 0.0
C711 C 0.15502 0.73571 0.0319 0.0
C712 C 0.20017 0.79247 0.05421 0.0
C713 C 0.18702 0.75194 0.02406 0.0
C714 C 0.05797 0.77761 0.03422 0.0
C715 C 0.03 0.807 0.04055 0.0
N716 N 0.02432 0.80583 0.01594 0.0
C717 C 0.0519 0.77669 0.00899 0.0
C718 C 0.04699 0.79289 0.05017 0.0
C719 C 0.03481 0.79108 1.0001 0.0
C720 C 0.1079 0.74153 0.97826 0.0
N721 N 0.11625 0.75728 1.0002 0.0
C722 C 0.15873 0.80422 0.9812 0.0
C723 C 0.14087 0.78813 0.002 0.0
C724 C 0.15063 0.7885 0.95838 0.0
C725 C 0.12498 0.7568 0.95694 0.0
H726 H 0.08757 0.71741 0.97722 0.0
H727 H 0.1464 0.80031 0.01958 0.0
C728 C 0.11566 0.77548 0.1201 0.0
N729 N 0.10819 0.78258 0.09767 0.0
C730 C 0.13569 0.80024 0.13622 0.0
C731 C 0.13912 0.83893 0.10611 0.0
C732 C 0.11915 0.81352 0.09059 0.0
C733 C 0.14802 0.83236 0.12901 0.0
H734 H 0.10709 0.75067 0.12504 0.0
H735 H 0.11353 0.81851 0.07242 0.0
C736 C 0.04326 0.6636 0.01858 0.0
N737 N 0.023 0.60024 0.00696 0.0
C738 C 0.01278 0.6392 0.02581 0.0
C739 C 0.06339 0.65577 0.00537 0.0
C740 C 1.00299 0.60732 0.01978 0.0
C741 C 0.05271 0.6236 0.9997 0.0
C742 C 0.02093 0.70249 0.09426 0.0
C743 C 0.99207 0.6735 0.09133 0.0
C744 C 0.02221 0.72595 0.11021 0.0
C745 C 0.96484 0.66857 0.10427 0.0
C746 C 0.99446 0.72007 0.12287 0.0
N747 N 0.96658 0.69176 0.11964 0.0
C748 C 0.09401 0.64977 0.05768 0.0
C749 C 0.04654 0.63242 0.08114 0.0
C750 C 0.09331 0.62077 0.06207 0.0
N751 N 0.0706 0.6549 0.06689 0.0
C752 C 0.04507 0.60313 0.0862 0.0
C753 C 0.06852 0.59702 0.07638 0.0
H754 H 0.11286 0.66791 0.04644 0.0
H755 H 0.02827 0.63704 0.08831 0.0
C756 C 0.98631 0.69658 0.01594 0.0
N757 N 0.997 0.71022 0.03845 0.0
C758 C 0.95757 0.69257 0.00639 0.0
C759 C 0.95105 0.71694 0.04321 0.0
C760 C 0.98011 0.72063 0.05205 0.0
C761 C 0.9397 0.70289 0.02006 0.0
H762 H 1.00054 0.68949 0.00502 0.0
H763 H 0.98953 0.7326 0.06941 0.0
O764 O 0.11424 0.73317 0.05892 0.0
O765 O 0.07421 0.76323 0.04331 0.0
O766 O 0.05356 0.69487 0.02489 0.0
O767 O 0.04793 0.70774 0.08188 0.0
H768 H 0.16173 0.78718 0.07758 0.0
H769 H 0.13768 0.71399 0.02259 0.0
H770 H 0.21802 0.81462 0.06279 0.0
H771 H 0.19453 0.74253 0.00896 0.0
H772 H 0.02122 0.81879 0.05267 0.0
H773 H 0.06006 0.76475 0.99644 0.0
H774 H 0.05124 0.7935 0.06978 0.0
H775 H 0.02979 0.79045 0.98063 0.0
H776 H 0.17823 0.82882 0.98277 0.0
H777 H 0.11799 0.74428 0.93946 0.0
H778 H 0.14244 0.79448 0.15371 0.0
H779 H 0.14855 0.8635 0.09995 0.0
H780 H 0.99694 0.6448 0.03612 0.0
H781 H 0.08723 0.67425 0.99993 0.0
H782 H 0.97953 0.58819 0.02537 0.0
H783 H 0.06813 0.61717 0.98964 0.0
H784 H 0.99061 0.65511 0.07903 0.0
H785 H 0.04431 0.74852 0.1127 0.0
H786 H 0.9423 0.64633 0.10206 0.0
H787 H 0.99507 0.73805 0.13521 0.0
H788 H 0.11177 0.61678 0.05426 0.0
H789 H 0.02568 0.58528 0.09738 0.0
H790 H 0.94957 0.68197 0.98832 0.0
H791 H 0.93793 0.72555 0.05403 0.0
Li792 Li 0.32763 0.04004 0.21491 0.0
Li793 Li 0.38287 0.06709 0.22632 0.0
Li794 Li 0.34639 0.08598 0.24105 0.0
Li795 Li 0.36286 0.09363 0.19694 0.0
C796 C 0.32544 0.01539 0.25834 0.0
N797 N 0.28401 0.9546 0.27642 0.0
C798 C 0.33649 0.99388 0.26274 0.0
C799 C 0.29338 0.00606 0.26327 0.0
C800 C 0.31516 0.96324 0.27188 0.0
C801 C 0.27278 0.97518 0.27233 0.0
C802 C 0.3597 0.02883 0.17849 0.0
C803 C 0.33847 0.99852 0.14105 0.0
N804 N 0.34695 0.97692 0.14901 0.0
C805 C 0.36838 0.00646 0.18626 0.0
C806 C 0.34468 0.02492 0.15571 0.0
C807 C 0.36162 0.9803 0.17111 0.0
C808 C 0.26716 0.99951 0.19293 0.0
N809 N 0.29184 0.99902 0.20484 0.0
C810 C 0.2683 0.94256 0.19702 0.0
C811 C 0.29266 0.97119 0.20719 0.0
C812 C 0.24309 0.9427 0.18412 0.0
C813 C 0.24236 0.97145 0.18241 0.0
H814 H 0.2673 0.02197 0.19082 0.0
H815 H 0.31281 0.97135 0.21612 0.0
C816 C 0.4265 0.0568 0.2557 0.0
N817 N 0.42053 0.06444 0.23295 0.0
C818 C 0.45473 0.05589 0.2601 0.0
C819 C 0.47041 0.07155 0.21778 0.0
C820 C 0.44172 0.0717 0.21411 0.0
C821 C 0.47708 0.06346 0.24098 0.0
H822 H 0.40951 0.05173 0.27046 0.0
H823 H 0.43644 0.07802 0.19629 0.0
C824 C 0.30139 0.08997 0.21597 0.0
N825 N 0.26625 0.11941 0.22757 0.0
C826 C 0.3129 0.1221 0.20956 0.0
C827 C 0.27196 0.07277 0.22819 0.0
C828 C 0.29479 0.13657 0.21562 0.0
C829 C 0.25457 0.08811 0.23393 0.0
C830 C 0.4185 0.1277 0.23927 0.0
C831 C 0.41848 0.12607 0.26496 0.0
C832 C 0.44773 0.14322 0.22659 0.0
C833 C 0.44776 0.14025 0.27757 0.0
C834 C 0.4765 0.15703 0.23987 0.0
N835 N 0.47591 0.1553 0.26487 0.0
C836 C 0.31601 0.09379 0.28478 0.0
C837 C 0.35256 0.14107 0.2632 0.0
C838 C 0.30888 0.11191 0.30118 0.0
N839 N 0.33732 0.10859 0.26611 0.0
C840 C 0.3462 0.16002 0.27911 0.0
C841 C 0.32393 0.14539 0.29818 0.0
H842 H 0.30415 0.06797 0.28672 0.0
H843 H 0.3692 0.15221 0.24811 0.0
C844 C 0.3464 0.10912 0.15206 0.0
N845 N 0.3707 0.11966 0.16873 0.0
C846 C 0.34944 0.12758 0.13135 0.0
C847 C 0.40259 0.16736 0.14523 0.0
C848 C 0.39847 0.14814 0.16578 0.0
C849 C 0.37772 0.15709 0.1279 0.0
H850 H 0.32444 0.08657 0.15513 0.0
H851 H 0.41715 0.15614 0.17953 0.0
O852 O 0.34595 0.04549 0.24943 0.0
O853 O 0.36626 0.05468 0.19299 0.0
O854 O 0.31909 0.07558 0.21069 0.0
O855 O 0.39009 0.11274 0.22657 0.0
H856 H 0.36115 1.00059 0.25886 0.0
H857 H 0.28439 0.02231 0.25979 0.0
H858 H 0.32334 0.94629 0.27526 0.0
H859 H 0.24785 0.96757 0.27606 0.0
H860 H 0.3268 0.99513 0.12339 0.0
H861 H 0.37989 0.00907 0.20391 0.0
H862 H 0.33786 0.04206 0.14943 0.0
H863 H 0.36801 0.96268 0.17694 0.0
H864 H 0.26969 0.92078 0.19842 0.0
H865 H 0.22335 0.97236 0.17236 0.0
H866 H 0.45931 0.04972 0.27825 0.0
H867 H 0.48725 0.07767 0.20271 0.0
H868 H 0.33578 0.13589 0.20033 0.0
H869 H 0.2627 0.04788 0.23326 0.0
H870 H 0.30348 0.16147 0.21091 0.0
H871 H 0.23182 0.07514 0.24347 0.0
H872 H 0.39613 0.11355 0.27507 0.0
H873 H 0.44825 0.14404 0.20669 0.0
H874 H 0.44809 0.13909 0.29745 0.0
H875 H 0.49929 0.16895 0.23029 0.0
H876 H 0.29153 0.09999 0.31576 0.0
H877 H 0.35812 0.1858 0.27633 0.0
H878 H 0.32983 0.11915 0.11827 0.0
H879 H 0.42465 0.19012 0.14301 0.0
Li880 Li 0.31709 0.37927 0.39186 0.0
Li881 Li 0.29198 0.32405 0.3803 0.0
Li882 Li 0.27344 0.35829 0.36289 0.0
Li883 Li 0.26053 0.33978 0.40696 0.0
C884 C 0.34681 0.38122 0.35172 0.0
N885 N 0.41043 0.42163 0.3391 0.0
C886 C 0.36973 0.372 0.35621 0.0
C887 C 0.35628 0.41102 0.3408 0.0
C888 C 0.40176 0.39275 0.34969 0.0
C889 C 0.38855 0.4311 0.33457 0.0
C890 C 0.30774 0.3196 0.42661 0.0
C891 C 0.29102 0.27532 0.4549 0.0
N892 N 0.31893 0.27536 0.45056 0.0
C893 C 0.33631 0.31927 0.4225 0.0
C894 C 0.28491 0.29749 0.44296 0.0
C895 C 0.34148 0.29666 0.43474 0.0
C896 C 0.35817 0.44646 0.39903 0.0
N897 N 0.3567 0.41746 0.40071 0.0
C898 C 0.41236 0.44329 0.41189 0.0
C899 C 0.38294 0.41541 0.40735 0.0
C900 C 0.41456 0.47342 0.40977 0.0
C901 C 0.38705 0.47492 0.4035 0.0
H902 H 0.33704 0.44756 0.39393 0.0
H903 H 0.38126 0.39219 0.40861 0.0
C904 C 0.3095 0.2906 0.34736 0.0
N905 N 0.2973 0.28814 0.37039 0.0
C906 C 0.31284 0.26562 0.33745 0.0
C907 C 0.29024 0.23528 0.37479 0.0
C908 C 0.28722 0.2609 0.38399 0.0
C909 C 0.30324 0.23766 0.35125 0.0
H910 H 0.3161 0.31178 0.33641 0.0
H911 H 0.27617 0.25864 0.40172 0.0
C912 C 0.26452 0.40179 0.38523 0.0
N913 N 0.23547 0.43541 0.36832 0.0
C914 C 0.23552 0.39632 0.39551 0.0
C915 C 0.27896 0.42473 0.36658 0.0
C916 C 0.22118 0.41349 0.38667 0.0
C917 C 0.26382 0.44133 0.3582 0.0
C918 C 0.23108 0.28407 0.36794 0.0
C919 C 0.23125 0.27817 0.34277 0.0
C920 C 0.21549 0.25833 0.38429 0.0
C921 C 0.21595 0.24642 0.33436 0.0
C922 C 0.20045 0.22693 0.37515 0.0
N923 N 0.20101 0.22168 0.35059 0.0
C924 C 0.27023 0.37461 0.31294 0.0
C925 C 0.22248 0.35617 0.33639 0.0
C926 C 0.25481 0.37711 0.29195 0.0
N927 N 0.25391 0.36437 0.33456 0.0
C928 C 0.20617 0.35835 0.3159 0.0
C929 C 0.22239 0.36871 0.29339 0.0
H930 H 0.29495 0.38019 0.31187 0.0
H931 H 0.21001 0.34752 0.35373 0.0
C932 C 0.23534 0.33809 0.45527 0.0
N933 N 0.22804 0.32869 0.43138 0.0
C934 C 0.21092 0.33285 0.47193 0.0
C935 C 0.17211 0.30837 0.43907 0.0
C936 C 0.19714 0.31365 0.42318 0.0
C937 C 0.179 0.31844 0.46363 0.0
H938 H 0.26017 0.35038 0.4612 0.0
H939 H 0.1921 0.30691 0.404 0.0
O940 O 0.31538 0.36139 0.35827 0.0
O941 O 0.30229 0.34169 0.41497 0.0
O942 O 0.27858 0.38469 0.39328 0.0
O943 O 0.24658 0.31492 0.37659 0.0
H944 H 0.36298 0.34923 0.36491 0.0
H945 H 0.339 0.41872 0.33736 0.0
H946 H 0.41975 0.38596 0.35316 0.0
H947 H 0.39623 0.45429 0.32622 0.0
H948 H 0.27353 0.25802 0.46755 0.0
H949 H 0.3541 0.33596 0.40975 0.0
H950 H 0.2626 0.29726 0.44628 0.0
H951 H 0.36339 0.296 0.43161 0.0
H952 H 0.43324 0.44142 0.41675 0.0
H953 H 0.38804 0.49787 0.4018 0.0
H954 H 0.32252 0.26793 0.31907 0.0
H955 H 0.28211 0.2137 0.3857 0.0
H956 H 0.22417 0.37905 0.41016 0.0
H957 H 0.30132 0.42923 0.35834 0.0
H958 H 0.19868 0.40938 0.39441 0.0
H959 H 0.27456 0.45885 0.34358 0.0
H960 H 0.24338 0.2979 0.32992 0.0
H961 H 0.21536 0.26258 0.40386 0.0
H962 H 0.21606 0.24145 0.31495 0.0
H963 H 0.18843 0.20673 0.38758 0.0
H964 H 0.26778 0.3849 0.2747 0.0
H965 H 0.18105 0.35149 0.31743 0.0
H966 H 0.21692 0.34093 0.4908 0.0
H967 H 0.14772 0.29724 0.43215 0.0
Li968 Li 0.96954 0.28599 0.548 0.0
Li969 Li 0.9392 0.31074 0.56004 0.0
Li970 Li 0.9238 0.25656 0.57504 0.0
Li971 Li 0.91677 0.26583 0.53126 0.0
C972 C 0.99126 0.32499 0.59004 0.0
N973 N 0.04561 0.38015 0.6057 0.0
C974 C 0.01054 0.34881 0.57308 0.0
C975 C 0.99963 0.32922 0.61494 0.0
C976 C 0.03791 0.37652 0.58137 0.0
C977 C 0.0272 0.35728 0.6225 0.0
C978 C 0.9469 0.32542 0.50995 0.0
C979 C 0.91054 0.34247 0.49488 0.0
N980 N 0.93157 0.35897 0.47645 0.0
C981 C 0.96811 0.34249 0.49085 0.0
C982 C 0.91782 0.32534 0.51199 0.0
C983 C 0.95995 0.35933 0.4741 0.0
C984 C 0.01352 0.29106 0.51282 0.0
N985 N 0.0109 0.29317 0.53759 0.0
C986 C 0.0648 0.30386 0.54338 0.0
C987 C 0.0357 0.29923 0.55298 0.0
C988 C 0.06794 0.30171 0.51786 0.0
C989 C 0.04192 0.29514 0.50252 0.0
H990 H 0.99334 0.28599 0.50108 0.0
H991 H 0.0329 0.30038 0.57264 0.0
C992 C 0.92048 0.35057 0.58548 0.0
N993 N 0.94097 0.35057 0.56819 0.0
C994 C 0.9203 0.37896 0.591 0.0
C995 C 0.96239 0.40683 0.56091 0.0
C996 C 0.96196 0.37804 0.55614 0.0
C997 C 0.94127 0.40742 0.57844 0.0
H998 H 0.90409 0.32843 0.59482 0.0
H999 H 0.97817 0.3776 0.54256 0.0
C1000 C 0.9533 0.22588 0.5452 0.0
N1001 N 0.99324 0.19986 0.54456 0.0
C1002 C 0.95597 0.21102 0.52392 0.0
C1003 C 0.97074 0.22725 0.56623 0.0
C1004 C 0.97636 0.19809 0.52395 0.0
C1005 C 0.99083 0.214 0.56553 0.0
C1006 C 0.86419 0.24869 0.56318 0.0
C1007 C 0.85447 0.21703 0.55634 0.0
C1008 C 0.84169 0.25604 0.57288 0.0
C1009 C 0.82229 0.19328 0.55919 0.0
C1010 C 0.80973 0.23158 0.5755 0.0
N1011 N 0.80078 0.20097 0.56865 0.0
C1012 C 0.88932 0.23332 0.62005 0.0
C1013 C 0.89665 0.19506 0.59766 0.0
C1014 C 0.86871 0.20951 0.6366 0.0
N1015 N 0.90249 0.22564 0.60087 0.0
C1016 C 0.87651 0.17066 0.61388 0.0
C1017 C 0.86185 0.17771 0.63331 0.0
H1018 H 0.89361 0.2576 0.62178 0.0
H1019 H 0.90627 0.18916 0.58182 0.0
C1020 C 0.90526 0.23971 0.48417 0.0
N1021 N 0.89159 0.24844 0.50225 0.0
C1022 C 0.88828 0.22539 0.46264 0.0
C1023 C 0.84401 0.23082 0.47814 0.0
C1024 C 0.86188 0.24505 0.49942 0.0
C1025 C 0.85718 0.22048 0.4597 0.0
H1026 H 0.92934 0.24377 0.48658 0.0
H1027 H 0.8519 0.25312 0.51369 0.0
O1028 O 0.96415 0.29771 0.5825 0.0
O1029 O 0.95466 0.30874 0.52634 0.0
O1030 O 0.93442 0.2398 0.54537 0.0
O1031 O 0.89565 0.27238 0.56087 0.0
H1032 H 0.00458 0.34596 0.55372 0.0
H1033 H 0.98491 0.31101 0.6283 0.0
H1034 H 0.05305 0.39513 0.56844 0.0
H1035 H 0.03396 0.36087 0.64174 0.0
H1036 H 0.88816 0.34265 0.49626 0.0
H1037 H 0.99068 0.34273 0.48901 0.0
H1038 H 0.90106 0.3123 0.52661 0.0
H1039 H 0.97616 0.37267 0.45924 0.0
H1040 H 0.08455 0.30892 0.55565 0.0
H1041 H 0.0437 0.29341 0.48276 0.0
H1042 H 0.90377 0.37869 0.60469 0.0
H1043 H 0.97889 0.42841 0.55095 0.0
H1044 H 0.94253 0.2095 0.50753 0.0
H1045 H 0.96913 0.23888 0.58281 0.0
H1046 H 0.97878 0.18666 0.50756 0.0
H1047 H 0.00464 0.21512 0.5816 0.0
H1048 H 0.87152 0.21082 0.54886 0.0
H1049 H 0.84886 0.2804 0.57835 0.0
H1050 H 0.81444 0.1687 0.55396 0.0
H1051 H 0.79205 0.23692 0.58298 0.0
H1052 H 0.85737 0.21556 0.65126 0.0
H1053 H 0.87125 0.14623 0.61065 0.0
H1054 H 0.89908 0.21784 0.44855 0.0
H1055 H 0.82008 0.22748 0.47622 0.0
C1056 C 0.04252 0.5372 0.0697 0.0
C1057 C 0.0671 0.56571 0.08084 0.0
C1058 C 0.0917 0.53554 0.09742 0.0
C1059 C 0.06533 0.50652 0.08847 0.0
N1060 N 0.01268 0.47892 0.06985 0.0
N1061 N 0.11177 0.59109 0.10904 0.0
C1062 C 0.03988 0.50711 0.07563 0.0
C1063 C 0.09078 0.56462 0.09578 0.0
N1064 N 0.02239 0.53896 0.05278 0.0
N1065 N 0.11816 0.53554 0.10672 0.0
H1066 H 0.11162 0.61274 0.10855 0.0
H1067 H 0.1273 0.5907 0.12224 0.0
H1068 H 0.11998 0.51483 0.10789 0.0
H1069 H 0.13945 0.55647 0.11111 0.0
H1070 H 0.00636 0.51949 0.04207 0.0
H1071 H 0.02367 0.56054 0.04779 0.0
H1072 H 0.99198 0.47788 0.06288 0.0
H1073 H 0.00968 0.45639 0.07407 0.0
C1074 C 0.54397 0.04297 0.23474 0.0
C1075 C 0.56598 0.06333 0.25293 0.0
C1076 C 0.53125 0.08615 0.26139 0.0
C1077 C 0.50764 0.06327 0.24524 0.0
N1078 N 0.48896 0.01573 0.22012 0.0
N1079 N 0.57743 0.09963 0.28714 0.0
C1080 C 0.51327 0.04047 0.2329 0.0
C1081 C 0.55875 0.08365 0.26728 0.0
N1082 N 0.55278 0.02686 0.21864 0.0
N1083 N 0.52803 0.11097 0.27042 0.0
H1084 H 0.59738 0.09791 0.29245 0.0
H1085 H 0.57133 0.11209 0.29972 0.0
H1086 H 0.50855 0.11404 0.26618 0.0
H1087 H 0.54614 0.13019 0.28016 0.0
H1088 H 0.53898 0.01431 0.20344 0.0
H1089 H 0.5753 0.02856 0.21907 0.0
H1090 H 0.49073 0.99656 0.21292 0.0
H1091 H 0.46594 0.01269 0.21872 0.0
C1092 C 0.4804 0.55049 0.43926 0.0
C1093 C 0.50462 0.56131 0.42086 0.0
C1094 C 0.46904 0.51558 0.39459 0.0
C1095 C 0.44578 0.5035 0.41373 0.0
N1096 N 0.43081 0.50646 0.45557 0.0
N1097 N 0.52434 0.55214 0.38269 0.0
C1098 C 0.45189 0.52013 0.43645 0.0
C1099 C 0.49959 0.54327 0.39897 0.0
N1100 N 0.48425 0.56973 0.45904 0.0
N1101 N 0.46151 0.50112 0.37198 0.0
H1102 H 0.54692 0.57248 0.38517 0.0
H1103 H 0.5234 0.5381 0.36776 0.0
H1104 H 0.43953 0.48061 0.36818 0.0
H1105 H 0.47594 0.51076 0.35647 0.0
H1106 H 0.46608 0.56493 0.47165 0.0
H1107 H 0.50492 0.59197 0.46187 0.0
H1108 H 0.43552 0.51557 0.47342 0.0
H1109 H 0.4095 0.48445 0.45409 0.0
C1110 C 0.91323 0.46904 0.58219 0.0
C1111 C 0.94132 0.49627 0.59141 0.0
C1112 C 0.96778 0.46398 0.59497 0.0
C1113 C 0.94099 0.43783 0.58334 0.0
N1114 N 0.8906 0.4174 0.56171 0.0
N1115 N 0.99741 0.52143 0.60246 0.0
C1116 C 0.91433 0.44087 0.57579 0.0
C1117 C 0.96921 0.49424 0.59668 0.0
N1118 N 0.88515 0.46965 0.58033 0.0
N1119 N 0.9914 0.45964 0.6051 0.0
H1120 H 0.99956 0.54412 0.60358 0.0
H1121 H 0.01932 0.52202 0.60392 0.0
H1122 H 0.99103 0.43774 0.60447 0.0
H1123 H 0.00976 0.47681 0.61607 0.0
H1124 H 0.86313 0.44939 0.57626 0.0
H1125 H 0.88324 0.48968 0.58508 0.0
H1126 H 0.87241 0.41991 0.55344 0.0
H1127 H 0.89064 0.39655 0.5564 0.0
C1128 C 0.47406 0.91818 0.73713 0.0
C1129 C 0.50291 0.94274 0.74787 0.0
C1130 C 0.47381 0.96864 0.76426 0.0
C1131 C 0.44452 0.94255 0.75541 0.0
N1132 N 0.41576 0.89003 0.73669 0.0
N1133 N 0.52988 0.98888 0.77452 0.0
C1134 C 0.44437 0.91663 0.74271 0.0
C1135 C 0.5027 0.96734 0.76222 0.0
N1136 N 0.4752 0.89689 0.721 0.0
N1137 N 0.47412 0.99507 0.77397 0.0
H1138 H 0.55153 0.98882 0.7733 0.0
H1139 H 0.5304 0.00516 0.78743 0.0
H1140 H 0.45341 0.9968 0.77588 0.0
H1141 H 0.49512 0.01632 0.7783 0.0
H1142 H 0.45562 0.88072 0.71046 0.0
H1143 H 0.49644 0.89713 0.71654 0.0
H1144 H 0.4139 0.86887 0.72995 0.0
H1145 H 0.39352 0.88808 0.7403 0.0
C1146 C 0.50968 0.45488 0.89511 0.0
C1147 C 0.49813 0.44316 0.9191 0.0
C1148 C 0.54405 0.49108 0.93701 0.0
C1149 C 0.55746 0.50092 0.91313 0.0
N1150 N 0.55579 0.48914 0.86974 0.0
N1151 N 0.5057 0.44629 0.96242 0.0
C1152 C 0.54102 0.48199 0.89222 0.0
C1153 C 0.51588 0.46048 0.93998 0.0
N1154 N 0.49028 0.44089 0.87517 0.0
N1155 N 0.55743 0.51144 0.95657 0.0
H1156 H 0.51818 0.45555 0.97886 0.0
H1157 H 0.51818 0.45555 0.97886 0.0
H1158 H 0.57781 0.53417 0.95495 0.0
H1159 H 0.54669 0.50722 0.97384 0.0
H1160 H 0.49619 0.4504 0.85746 0.0
H1161 H 0.46688 0.42158 0.8767 0.0
H1162 H 0.54632 0.47423 0.85443 0.0
H1163 H 0.57894 0.50843 0.86688 0.0
C1164 C 0.18828 0.33934 0.00448 0.0
C1165 C 0.16594 0.31556 0.02078 0.0
C1166 C 0.18492 0.2788 0.00813 0.0
C1167 C 0.2101 0.30409 0.99454 0.0
N1168 N 0.23791 0.35951 0.98139 0.0
N1169 N 0.14478 0.26365 0.04018 0.0
C1170 C 0.21222 0.33462 0.99295 0.0
C1171 C 0.16452 0.2854 0.02301 0.0
N1172 N 0.18623 0.36623 0.99976 0.0
N1173 N 0.18028 0.24835 0.00648 0.0
H1174 H 0.12925 0.2674 0.05129 0.0
H1175 H 0.14545 0.24293 0.04474 0.0
H1176 H 0.19479 0.24272 0.99571 0.0
H1177 H 0.16043 0.22823 0.01392 0.0
H1178 H 0.19965 0.38294 0.98621 0.0
H1179 H 0.16896 0.37038 0.00791 0.0
H1180 H 0.24283 0.38322 0.98211 0.0
H1181 H 0.25574 0.35696 0.9725 0.0
C1182 C 0.86946 0.15735 0.16861 0.0
C1183 C 0.8555 0.16781 0.1868 0.0
C1184 C 0.89617 0.22397 0.17863 0.0
C1185 C 0.90902 0.21371 0.15941 0.0
N1186 N 0.90445 0.17135 0.13294 0.0
N1187 N 0.85086 0.21096 0.20532 0.0
C1188 C 0.89459 0.18055 0.15343 0.0
C1189 C 0.86742 0.20113 0.19061 0.0
N1190 N 0.85958 0.12536 0.16647 0.0
N1191 N 0.91224 0.2553 0.18627 0.0
H1192 H 0.82958 0.19493 0.21432 0.0
H1193 H 0.85648 0.23485 0.20676 0.0
H1194 H 0.93356 0.27277 0.1782 0.0
H1195 H 0.90605 0.2634 0.20199 0.0
H1196 H 0.87122 0.11652 0.15551 0.0
H1197 H 0.84106 0.10769 0.17708 0.0
H1198 H 0.89277 0.14793 0.12615 0.0
H1199 H 0.92274 0.18774 0.12145 0.0
C1200 C 0.67119 0.86484 0.35921 0.0
C1201 C 0.69141 0.85176 0.3543 0.0
C1202 C 0.72199 0.89504 0.32457 0.0
C1203 C 0.70037 0.90673 0.3283 0.0
N1204 N 0.65004 0.89827 0.34466 0.0
N1205 N 0.73186 0.8504 0.3289 0.0
C1206 C 0.67358 0.89017 0.34422 0.0
C1207 C 0.71556 0.86565 0.3359 0.0
N1208 N 0.65084 0.85426 0.37898 0.0
N1209 N 0.74937 0.91268 0.31109 0.0
H1210 H 0.72758 0.82876 0.33673 0.0
H1211 H 0.74744 0.85758 0.31391 0.0
H1212 H 0.75492 0.93429 0.30251 0.0
H1213 H 0.76778 0.90724 0.31001 0.0
H1214 H 0.6382 0.86539 0.385 0.0
H1215 H 0.64876 0.83626 0.39086 0.0
H1216 H 0.62837 0.88492 0.35402 0.0
H1217 H 0.65077 0.91648 0.33371 0.0
C1218 C 0.78069 0.66475 0.51181 0.0
C1219 C 0.79103 0.69336 0.49797 0.0
C1220 C 0.84679 0.71304 0.511 0.0
C1221 C 0.83654 0.68399 0.52419 0.0
N1222 N 0.79539 0.62959 0.53318 0.0
N1223 N 0.8341 0.7419 0.48039 0.0
C1224 C 0.80396 0.65899 0.52329 0.0
C1225 C 0.82421 0.71664 0.49632 0.0
N1226 N 0.74854 0.64377 0.51491 0.0
N1227 N 0.87782 0.73761 0.51327 0.0
H1228 H 0.81813 0.74527 0.46949 0.0
H1229 H 0.85813 0.75797 0.47642 0.0
H1230 H 0.89517 0.73551 0.52335 0.0
H1231 H 0.88593 0.7607 0.50653 0.0
H1232 H 0.73941 0.6245 0.52713 0.0
H1233 H 0.73071 0.64689 0.5066 0.0
H1234 H 0.77277 0.60934 0.5309 0.0
H1235 H 0.81178 0.62463 0.54191 0.0
C1236 C 0.115 0.77998 0.67793 0.0
C1237 C 0.1008 0.78954 0.65929 0.0
C1238 C 0.14311 0.84591 0.66473 0.0
C1239 C 0.15518 0.83668 0.6851 0.0
N1240 N 0.15102 0.79566 0.71299 0.0
N1241 N 0.09944 0.83131 0.63569 0.0
C1242 C 0.14082 0.80385 0.69212 0.0
C1243 C 0.11444 0.82246 0.6528 0.0
N1244 N 0.10394 0.74799 0.68187 0.0
N1245 N 0.15947 0.877 0.65656 0.0
H1246 H 0.07918 0.81467 0.62592 0.0
H1247 H 0.10584 0.85507 0.63211 0.0
H1248 H 0.18032 0.89475 0.66507 0.0
H1249 H 0.15395 0.88476 0.64036 0.0
H1250 H 0.11534 0.73936 0.69329 0.0
H1251 H 0.08469 0.72984 0.67216 0.0
H1252 H 0.13913 0.7728 0.72079 0.0
H1253 H 0.17021 0.8123 0.72368 0.0
C1254 C 0.34304 0.1234 0.83486 0.0
C1255 C 0.31268 0.10126 0.82458 0.0
C1256 C 0.28915 0.13235 0.84157 0.0
C1257 C 0.31937 0.15416 0.85223 0.0
N1258 N 0.37615 0.17373 0.85655 0.0
N1259 N 0.25809 0.08644 0.81472 0.0
C1260 C 0.34671 0.15075 0.84797 0.0
C1261 C 0.28614 0.10642 0.82679 0.0
N1262 N 0.36804 0.11753 0.83271 0.0
N1263 N 0.26317 0.136 0.84628 0.0
H1264 H 0.25472 0.06661 0.80448 0.0
H1265 H 0.23869 0.09033 0.81347 0.0
H1266 H 0.26492 0.15563 0.85589 0.0
H1267 H 0.23962 0.11917 0.84164 0.0
H1268 H 0.38972 0.1302 0.84211 0.0
H1269 H 0.36673 0.0988 0.82209 0.0
H1270 H 0.39769 0.17474 0.85208 0.0
H1271 H 0.37953 0.19327 0.86717 0.0
C1272 C 0.70233 0.81572 0.85233 0.0
C1273 C 0.70254 0.7899 0.83974 0.0
C1274 C 0.6957 0.81077 0.80035 0.0
C1275 C 0.69213 0.83459 0.81313 0.0
N1276 N 0.6879 0.85751 0.85145 0.0
N1277 N 0.69373 0.75944 0.80233 0.0
C1278 C 0.69439 0.83653 0.8392 0.0
C1279 C 0.69771 0.78651 0.81388 0.0
N1280 N 0.71054 0.82082 0.87668 0.0
N1281 N 0.69808 0.81187 0.77524 0.0
H1282 H 0.69469 0.74088 0.81155 0.0
H1283 H 0.68656 0.75397 0.78403 0.0
H1284 H 0.69684 0.82932 0.76463 0.0
H1285 H 0.70425 0.79735 0.76508 0.0
H1286 H 0.71416 0.84113 0.88629 0.0
H1287 H 0.71631 0.80597 0.88685 0.0
H1288 H 0.68566 0.85765 0.87051 0.0
H1289 H 0.68231 0.87327 0.84243 0.0
C1290 C 0.85162 0.66759 0.00188 0.0
C1291 C 0.85457 0.68971 0.98332 0.0
C1292 C 0.91183 0.72391 0.99318 0.0
C1293 C 0.90973 0.69978 0.00942 0.0
N1294 N 0.87851 0.64807 0.02884 0.0
N1295 N 0.88728 0.7381 0.96008 0.0
C1296 C 0.87977 0.67156 0.01386 0.0
C1297 C 0.88458 0.71786 0.97881 0.0
N1298 N 0.8218 0.64302 0.00815 0.0
N1299 N 0.93989 0.7527 0.9917 0.0
H1300 H 0.86766 0.73505 0.94973 0.0
H1301 H 0.90912 0.75684 0.95378 0.0
H1302 H 0.96038 0.75766 0.00173 0.0
H1303 H 0.94222 0.77255 0.98217 0.0
H1304 H 0.81746 0.62781 0.02309 0.0
H1305 H 0.80081 0.63938 0.99954 0.0
H1306 H 0.85834 0.62531 0.03063 0.0
H1307 H 0.8984 0.65068 0.03858 0.0
C1308 C 0.22773 0.90396 0.14875 0.0
C1309 C 0.21882 0.91341 0.17079 0.0
C1310 C 0.163 0.86987 0.1654 0.0
C1311 C 0.17245 0.85925 0.14427 0.0
N1312 N 0.21476 0.86194 0.11866 0.0
N1313 N 0.17958 0.90252 0.20249 0.0
C1314 C 0.20515 0.87504 0.13681 0.0
C1315 C 0.18687 0.8955 0.17984 0.0
N1316 N 0.25737 0.92334 0.13863 0.0
N1317 N 0.13112 0.85617 0.17118 0.0
H1318 H 0.19645 0.92117 0.21347 0.0
H1319 H 0.15765 0.88833 0.21128 0.0
H1320 H 0.11308 0.83709 0.16123 0.0
H1321 H 0.12231 0.86514 0.18468 0.0
H1322 H 0.26396 0.91964 0.1212 0.0
H1323 H 0.27454 0.94482 0.1467 0.0
H1324 H 0.23877 0.87039 0.11424 0.0
H1325 H 0.19894 0.84074 0.10947 0.0
C1326 C 0.28852 0.16829 0.30922 0.0
C1327 C 0.31599 0.16546 0.31438 0.0
C1328 C 0.33383 0.20822 0.34541 0.0
C1329 C 0.30617 0.21076 0.34045 0.0
N1330 N 0.25399 0.1893 0.32168 0.0
N1331 N 0.36123 0.17758 0.34041 0.0
C1332 C 0.28245 0.18946 0.32363 0.0
C1333 C 0.33752 0.18383 0.3335 0.0
N1334 N 0.26902 0.15179 0.28984 0.0
N1335 N 0.35715 0.22995 0.36077 0.0
H1336 H 0.36461 0.15999 0.33192 0.0
H1337 H 0.37581 0.1878 0.35577 0.0
H1338 H 0.35484 0.24752 0.37035 0.0
H1339 H 0.3796 0.23192 0.36294 0.0
H1340 H 0.25095 0.1557 0.28318 0.0
H1341 H 0.27217 0.13542 0.27931 0.0
H1342 H 0.23437 0.17224 0.31166 0.0
H1343 H 0.24896 0.20471 0.33183 0.0
C1344 C 0.14809 0.34186 0.48366 0.0
C1345 C 0.15272 0.31512 0.48013 0.0
C1346 C 0.10478 0.28114 0.50514 0.0
C1347 C 0.0986 0.30708 0.50678 0.0
N1348 N 0.11315 0.36179 0.4976 0.0
N1349 N 0.13593 0.25929 0.48665 0.0
C1350 C 0.12013 0.33747 0.49622 0.0
C1351 C 0.13129 0.28479 0.49082 0.0
N1352 N 0.17055 0.37148 0.47499 0.0
N1353 N 0.08527 0.25311 0.51742 0.0
H1354 H 0.15597 0.26152 0.47738 0.0
H1355 H 0.11948 0.23564 0.49134 0.0
H1356 H 0.06508 0.24929 0.52736 0.0
H1357 H 0.08992 0.23424 0.51913 0.0
H1358 H 0.17074 0.39272 0.47912 0.0
H1359 H 0.19044 0.37536 0.46461 0.0
H1360 H 0.12535 0.38328 0.48789 0.0
H1361 H 0.09392 0.36003 0.50779 0.0
C1362 C 0.84602 0.14251 0.67102 0.0
C1363 C 0.83707 0.15106 0.6486 0.0
C1364 C 0.78153 0.10665 0.65364 0.0
C1365 C 0.79117 0.09639 0.67491 0.0
N1366 N 0.83227 0.10295 0.70358 0.0
N1367 N 0.79725 0.14124 0.61762 0.0
C1368 C 0.82333 0.11402 0.68361 0.0
C1369 C 0.80498 0.13323 0.63975 0.0
N1370 N 0.87614 0.16195 0.68036 0.0
N1371 N 0.74984 0.09102 0.64685 0.0
H1372 H 0.81325 0.16151 0.60759 0.0
H1373 H 0.77563 0.12713 0.60845 0.0
H1374 H 0.73222 0.07052 0.65578 0.0
H1375 H 0.7404 0.09927 0.63333 0.0
H1376 H 0.88345 0.15914 0.69776 0.0
H1377 H 0.89349 0.18249 0.67129 0.0
H1378 H 0.85594 0.11228 0.70934 0.0
H1379 H 0.81598 0.08307 0.71387 0.0
C1380 C 0.19841 0.39488 0.26772 0.0
C1381 C 0.20491 0.36938 0.2711 0.0
C1382 C 0.17888 0.3456 0.23177 0.0
C1383 C 0.16959 0.36928 0.22959 0.0
N1384 N 0.16682 0.41421 0.2466 0.0
N1385 N 0.19764 0.31797 0.25848 0.0
C1386 C 0.17843 0.39341 0.24785 0.0
C1387 C 0.19419 0.34406 0.25368 0.0
N1388 N 0.21198 0.42083 0.28319 0.0
N1389 N 0.17383 0.32513 0.21259 0.0
H1390 H 0.20897 0.31604 0.27424 0.0
H1391 H 0.18705 0.29711 0.24789 0.0
H1392 H 0.16258 0.32545 0.19625 0.0
H1393 H 0.18317 0.3097 0.21197 0.0
H1394 H 0.21102 0.44175 0.2802 0.0
H1395 H 0.2265 0.42254 0.29807 0.0
H1396 H 0.16941 0.43002 0.2607 0.0
H1397 H 0.15241 0.41406 0.23217 0.0
C1398 C 0.83544 0.2206 0.41762 0.0
C1399 C 0.83798 0.20315 0.43774 0.0
C1400 C 0.80885 0.15285 0.41454 0.0
C1401 C 0.80452 0.16995 0.39501 0.0
N1402 N 0.80893 0.21886 0.37912 0.0
N1403 N 0.82238 0.15243 0.45746 0.0
C1404 C 0.81644 0.20352 0.39689 0.0
C1405 C 0.82325 0.16916 0.43682 0.0
N1406 N 0.85201 0.25348 0.41805 0.0
N1407 N 0.8003 0.12128 0.41143 0.0
H1408 H 0.83289 0.16357 0.47411 0.0
H1409 H 0.80895 0.12747 0.45876 0.0
H1410 H 0.78951 0.10835 0.39542 0.0
H1411 H 0.80622 0.10856 0.42387 0.0
H1412 H 0.85408 0.26768 0.4029 0.0
H1413 H 0.86569 0.26674 0.43311 0.0
H1414 H 0.81399 0.24256 0.38063 0.0
H1415 H 0.79531 0.20711 0.36358 0.0
C1416 C 0.64058 0.85058 0.58142 0.0
C1417 C 0.63107 0.83475 0.6045 0.0
C1418 C 0.61751 0.78343 0.58496 0.0
C1419 C 0.63034 0.79995 0.56248 0.0
N1420 N 0.65663 0.84935 0.53926 0.0
N1421 N 0.61284 0.78702 0.6292 0.0
C1422 C 0.64241 0.83356 0.56064 0.0
C1423 C 0.61995 0.80133 0.60652 0.0
N1424 N 0.64731 0.88174 0.57936 0.0
N1425 N 0.60259 0.75059 0.58554 0.0
H1426 H 0.61354 0.79917 0.64532 0.0
H1427 H 0.60822 0.76371 0.63236 0.0
H1428 H 0.60089 0.73681 0.57016 0.0
H1429 H 0.58976 0.73678 0.60064 0.0
H1430 H 0.65113 0.89368 0.56263 0.0
H1431 H 0.64654 0.89501 0.59429 0.0
H1432 H 0.66926 0.87429 0.53759 0.0
H1433 H 0.65768 0.8376 0.52344 0.0
C1434 C 0.80757 0.6074 0.73542 0.0
C1435 C 0.84025 0.63183 0.73321 0.0
C1436 C 0.83829 0.65316 0.77378 0.0
C1437 C 0.80492 0.63048 0.77505 0.0
N1438 N 0.7567 0.58769 0.75682 0.0
N1439 N 0.88641 0.6798 0.74863 0.0
C1440 C 0.78924 0.60795 0.75581 0.0
C1441 C 0.85559 0.65516 0.752 0.0
N1442 N 0.79432 0.58343 0.7182 0.0
N1443 N 0.8535 0.67244 0.7936 0.0
H1444 H 0.90025 0.6815 0.73329 0.0
H1445 H 0.89771 0.69973 0.76016 0.0
H1446 H 0.84146 0.67245 0.80957 0.0
H1447 H 0.87834 0.68687 0.79502 0.0
H1448 H 0.77171 0.56306 0.71994 0.0
H1449 H 0.80691 0.58273 0.70278 0.0
H1450 H 0.74313 0.57317 0.74225 0.0
H1451 H 0.74274 0.58673 0.77186 0.0
C1452 C 0.18253 0.84935 0.90614 0.0
C1453 C 0.20165 0.83934 0.89315 0.0
C1454 C 0.18969 0.79782 0.92423 0.0
C1455 C 0.16812 0.80582 0.93581 0.0
N1456 N 0.13938 0.8351 0.93534 0.0
N1457 N 0.21962 0.80102 0.88735 0.0
C1458 C 0.16322 0.83046 0.92607 0.0
C1459 C 0.20421 0.81271 0.9015 0.0
N1460 N 0.18363 0.87749 0.89995 0.0
N1461 N 0.19706 0.77676 0.93533 0.0
H1462 H 0.23051 0.8113 0.87058 0.0
H1463 H 0.21931 0.77961 0.89116 0.0
H1464 H 0.18691 0.76542 0.952 0.0
H1465 H 0.21518 0.7726 0.92914 0.0
H1466 H 0.17293 0.88775 0.91044 0.0
H1467 H 0.19769 0.89221 0.88558 0.0
H1468 H 0.13239 0.85031 0.92723 0.0
H1469 H 0.12451 0.8216 0.94985 0.0
C1470 C 0.37754 0.20488 0.10917 0.0
C1471 C 0.38079 0.17726 0.10623 0.0
C1472 C 0.38171 0.18312 0.06138 0.0
C1473 C 0.38009 0.21165 0.06436 0.0
N1474 N 0.38332 0.25351 0.09076 0.0
N1475 N 0.39281 0.14392 0.08026 0.0
C1476 C 0.38017 0.22374 0.0882 0.0
C1477 C 0.38504 0.16759 0.08251 0.0
N1478 N 0.37051 0.21227 0.13179 0.0
N1479 N 0.3786 0.17004 0.03848 0.0
H1480 H 0.39545 0.13206 0.09539 0.0
H1481 H 0.39946 0.13807 0.06365 0.0
H1482 H 0.37618 0.18067 0.02249 0.0
H1483 H 0.37587 0.14739 0.03547 0.0
H1484 H 0.36423 0.22988 0.13456 0.0
H1485 H 0.36846 0.19912 0.14764 0.0
H1486 H 0.38684 0.26507 0.10765 0.0
H1487 H 0.38536 0.26798 0.07575 0.0
loop_
_geom_bond_atom_site_label_1
_geom_bond_atom_site_label_2
_geom_bond_distance
_geom_bond_site_symmetry_2
_ccdc_geom_bond_type
Li0 N17 1.990 . S
Li0 O60 1.956 . S
Li0 O61 1.970 . S
Li0 O62 1.961 . S
Li1 N25 1.990 . S
Li1 O60 1.970 . S
Li1 O61 1.956 . S
Li1 O63 1.961 . S
Li2 N47 1.990 1_455 S
Li2 O60 1.961 . S
Li2 O62 1.956 . S
Li2 O63 1.970 . S
Li3 N53 1.990 . S
Li3 O61 1.961 . S
Li3 O62 1.970 . S
Li3 O63 1.956 . S
C4 C6 1.348 . S
C4 C7 1.356 . S
C4 O60 1.325 . S
N5 C8 1.314 . S
N5 C9 1.279 . S
C6 C4 1.348 . S
C6 C8 1.353 . S
C6 H64 0.929 . S
C7 C4 1.356 . S
C7 C9 1.358 . S
C7 H65 0.930 . S
C8 N5 1.314 . S
C8 C6 1.353 . S
C8 H66 0.930 . S
C9 N5 1.279 . S
C9 C7 1.358 . S
C9 H67 0.930 . S
C10 C13 1.348 . S
C10 C14 1.356 . S
C10 O61 1.325 . S
C11 N12 1.279 . S
C11 C14 1.358 . S
C11 H68 0.930 . S
N12 C11 1.279 . S
N12 C15 1.314 . S
C13 C10 1.348 . S
C13 C15 1.353 . S
C13 H69 0.929 . S
C14 C10 1.356 . S
C14 C11 1.358 . S
C14 H70 0.930 . S
C15 N12 1.314 . S
C15 C13 1.353 . S
C15 H71 0.930 . S
C16 N17 1.314 . S
C16 C21 1.353 . S
C16 H22 0.930 . S
N17 Li0 1.990 . S
N17 C16 1.314 . S
N17 C19 1.279 . S
C18 C19 1.358 . S
C18 C20 1.356 . S
C18 H72 0.930 . S
C19 N17 1.279 . S
C19 C18 1.358 . S
C19 H23 0.930 . S
C20 C18 1.356 . S
C20 C21 1.348 . S
C21 C16 1.353 . S
C21 C20 1.348 . S
C21 H73 0.929 . S
H22 C16 0.930 . S
H23 C19 0.930 . S
C24 N25 1.314 . S
C24 C26 1.353 . S
C24 H30 0.930 . S
N25 Li1 1.990 . S
N25 C24 1.314 . S
N25 C28 1.279 . S
C26 C24 1.353 . S
C26 C29 1.348 . S
C26 H74 0.929 . S
C27 C28 1.358 . S
C27 C29 1.356 . S
C27 H75 0.930 . S
C28 N25 1.279 . S
C28 C27 1.358 . S
C28 H31 0.930 . S
C29 C26 1.348 . S
C29 C27 1.356 . S
H30 C24 0.930 . S
H31 C28 0.930 . S
C32 C34 1.348 . S
C32 C35 1.356 . S
C32 O62 1.325 . S
N33 C36 1.314 . S
N33 C37 1.279 . S
C34 C32 1.348 . S
C34 C36 1.353 . S
C34 H76 0.929 . S
C35 C32 1.356 . S
C35 C37 1.358 . S
C35 H77 0.930 . S
C36 N33 1.314 . S
C36 C34 1.353 . S
C36 H78 0.930 . S
C37 N33 1.279 . S
C37 C35 1.358 . S
C37 H79 0.930 . S
C38 C39 1.348 . S
C38 C40 1.356 . S
C38 O63 1.325 . S
C39 C38 1.348 . S
C39 C41 1.353 . S
C39 H80 0.929 . S
C40 C38 1.356 . S
C40 C42 1.358 . S
C40 H81 0.930 . S
C41 C39 1.353 . S
C41 N43 1.314 . S
C41 H82 0.930 1_455 S
C42 C40 1.358 . S
C42 N43 1.279 . S
C42 H83 0.930 . S
N43 C41 1.314 . S
N43 C42 1.279 . S
C44 C46 1.353 . S
C44 N47 1.314 . S
C44 H50 0.930 1_655 S
C45 N47 1.279 . S
C45 C48 1.358 . S
C45 H51 0.930 . S
C46 C44 1.353 . S
C46 C49 1.348 . S
C46 H84 0.929 . S
N47 Li2 1.990 1_655 S
N47 C44 1.314 . S
N47 C45 1.279 . S
C48 C45 1.358 . S
C48 C49 1.356 . S
C48 H85 0.930 . S
C49 C46 1.348 . S
C49 C48 1.356 . S
H50 C44 0.930 1_455 S
H51 C45 0.930 . S
C52 N53 1.314 . S
C52 C54 1.353 . S
C52 H58 0.930 . S
N53 Li3 1.990 . S
N53 C52 1.314 . S
N53 C56 1.279 . S
C54 C52 1.353 . S
C54 C57 1.348 . S
C54 H86 0.929 . S
C55 C56 1.358 . S
C55 C57 1.356 . S
C55 H87 0.930 . S
C56 N53 1.279 . S
C56 C55 1.358 . S
C56 H59 0.930 . S
C57 C54 1.348 . S
C57 C55 1.356 . S
H58 C52 0.930 . S
H59 C56 0.930 . S
O60 Li0 1.956 . S
O60 Li1 1.970 . S
O60 Li2 1.961 . S
O60 C4 1.325 . S
O61 Li0 1.970 . S
O61 Li1 1.956 . S
O61 Li3 1.961 . S
O61 C10 1.325 . S
O62 Li0 1.961 . S
O62 Li2 1.956 . S
O62 Li3 1.970 . S
O62 C32 1.325 . S
O63 Li1 1.961 . S
O63 Li2 1.970 . S
O63 Li3 1.956 . S
O63 C38 1.325 . S
H64 C6 0.929 . S
H65 C7 0.930 . S
H66 C8 0.930 . S
H67 C9 0.930 . S
H68 C11 0.930 . S
H69 C13 0.929 . S
H70 C14 0.930 . S
H71 C15 0.930 . S
H72 C18 0.930 . S
H73 C21 0.929 . S
H74 C26 0.929 . S
H75 C27 0.930 . S
H76 C34 0.929 . S
H77 C35 0.930 . S
H78 C36 0.930 . S
H79 C37 0.930 . S
H80 C39 0.929 . S
H81 C40 0.930 . S
H82 C41 0.930 1_655 S
H83 C42 0.930 . S
H84 C46 0.929 . S
H85 C48 0.930 . S
H86 C54 0.929 . S
H87 C55 0.930 . S
Li88 N105 1.990 . S
Li88 O148 1.956 . S
Li88 O149 1.970 . S
Li88 O150 1.961 . S
Li89 N113 1.990 . S
Li89 O148 1.970 . S
Li89 O149 1.956 . S
Li89 O151 1.961 . S
Li90 N135 1.990 1_545 S
Li90 O148 1.961 . S
Li90 O150 1.956 . S
Li90 O151 1.970 . S
Li91 N141 1.990 . S
Li91 O149 1.961 . S
Li91 O150 1.970 . S
Li91 O151 1.956 . S
C92 C94 1.348 . S
C92 C95 1.356 . S
C92 O148 1.325 . S
N93 C96 1.314 . S
N93 C97 1.279 . S
C94 C92 1.348 . S
C94 C96 1.353 . S
C94 H152 0.929 . S
C95 C92 1.356 . S
C95 C97 1.358 . S
C95 H153 0.930 . S
C96 N93 1.314 . S
C96 C94 1.353 . S
C96 H154 0.930 . S
C97 N93 1.279 . S
C97 C95 1.358 . S
C97 H155 0.930 . S
C98 C101 1.348 . S
C98 C102 1.356 . S
C98 O149 1.325 . S
C99 N100 1.279 . S
C99 C102 1.358 . S
C99 H156 0.930 . S
N100 C99 1.279 . S
N100 C103 1.314 . S
C101 C98 1.348 . S
C101 C103 1.353 . S
C101 H157 0.929 . S
C102 C98 1.356 . S
C102 C99 1.358 . S
C102 H158 0.930 . S
C103 N100 1.314 . S
C103 C101 1.353 . S
C103 H159 0.930 . S
C104 N105 1.314 . S
C104 C109 1.353 . S
C104 H110 0.930 . S
N105 Li88 1.990 . S
N105 C104 1.314 . S
N105 C107 1.279 . S
C106 C107 1.358 . S
C106 C108 1.356 . S
C106 H160 0.930 . S
C107 N105 1.279 . S
C107 C106 1.358 . S
C107 H111 0.930 . S
C108 C106 1.356 . S
C108 C109 1.348 . S
C109 C104 1.353 . S
C109 C108 1.348 . S
C109 H161 0.929 . S
H110 C104 0.930 . S
H111 C107 0.930 . S
C112 N113 1.314 . S
C112 C114 1.353 . S
C112 H118 0.930 . S
N113 Li89 1.990 . S
N113 C112 1.314 . S
N113 C116 1.279 . S
C114 C112 1.353 . S
C114 C117 1.348 . S
C114 H162 0.929 . S
C115 C116 1.358 . S
C115 C117 1.356 . S
C115 H163 0.930 . S
C116 N113 1.279 . S
C116 C115 1.358 . S
C116 H119 0.930 . S
C117 C114 1.348 . S
C117 C115 1.356 . S
H118 C112 0.930 . S
H119 C116 0.930 . S
C120 C122 1.348 . S
C120 C123 1.356 . S
C120 O150 1.325 . S
N121 C124 1.314 . S
N121 C125 1.279 . S
C122 C120 1.348 . S
C122 C124 1.353 . S
C122 H164 0.929 . S
C123 C120 1.356 . S
C123 C125 1.358 . S
C123 H165 0.930 . S
C124 N121 1.314 . S
C124 C122 1.353 . S
C124 H166 0.930 . S
C125 N121 1.279 . S
C125 C123 1.358 . S
C125 H167 0.930 . S
C126 C127 1.348 . S
C126 C128 1.356 . S
C126 O151 1.325 . S
C127 C126 1.348 . S
C127 C129 1.353 . S
C127 H168 0.929 . S
C128 C126 1.356 . S
C128 C130 1.358 . S
C128 H169 0.930 . S
C129 C127 1.353 . S
C129 N131 1.314 . S
C129 H170 0.930 1_545 S
C130 C128 1.358 . S
C130 N131 1.279 . S
C130 H171 0.930 . S
N131 C129 1.314 . S
N131 C130 1.279 . S
C132 C134 1.353 . S
C132 N135 1.314 . S
C132 H138 0.930 1_565 S
C133 N135 1.279 . S
C133 C136 1.358 . S
C133 H139 0.930 . S
C134 C132 1.353 . S
C134 C137 1.348 . S
C134 H172 0.929 . S
N135 Li90 1.990 1_565 S
N135 C132 1.314 . S
N135 C133 1.279 . S
C136 C133 1.358 . S
C136 C137 1.356 . S
C136 H173 0.930 . S
C137 C134 1.348 . S
C137 C136 1.356 . S
H138 C132 0.930 1_545 S
H139 C133 0.930 . S
C140 N141 1.314 . S
C140 C142 1.353 . S
C140 H146 0.930 . S
N141 Li91 1.990 . S
N141 C140 1.314 . S
N141 C144 1.279 . S
C142 C140 1.353 . S
C142 C145 1.348 . S
C142 H174 0.929 . S
C143 C144 1.358 . S
C143 C145 1.356 . S
C143 H175 0.930 . S
C144 N141 1.279 . S
C144 C143 1.358 . S
C144 H147 0.930 . S
C145 C142 1.348 . S
C145 C143 1.356 . S
H146 C140 0.930 . S
H147 C144 0.930 . S
O148 Li88 1.956 . S
O148 Li89 1.970 . S
O148 Li90 1.961 . S
O148 C92 1.325 . S
O149 Li88 1.970 . S
O149 Li89 1.956 . S
O149 Li91 1.961 . S
O149 C98 1.325 . S
O150 Li88 1.961 . S
O150 Li90 1.956 . S
O150 Li91 1.970 . S
O150 C120 1.325 . S
O151 Li89 1.961 . S
O151 Li90 1.970 . S
O151 Li91 1.956 . S
O151 C126 1.325 . S
H152 C94 0.929 . S
H153 C95 0.930 . S
H154 C96 0.930 . S
H155 C97 0.930 . S
H156 C99 0.930 . S
H157 C101 0.929 . S
H158 C102 0.930 . S
H159 C103 0.930 . S
H160 C106 0.930 . S
H161 C109 0.929 . S
H162 C114 0.929 . S
H163 C115 0.930 . S
H164 C122 0.929 . S
H165 C123 0.930 . S
H166 C124 0.930 . S
H167 C125 0.930 . S
H168 C127 0.929 . S
H169 C128 0.930 . S
H170 C129 0.930 1_565 S
H171 C130 0.930 . S
H172 C134 0.929 . S
H173 C136 0.930 . S
H174 C142 0.929 . S
H175 C143 0.930 . S
Li176 N193 1.990 . S
Li176 O236 1.956 . S
Li176 O237 1.970 . S
Li176 O238 1.961 . S
Li177 N201 1.990 . S
Li177 O236 1.970 . S
Li177 O237 1.956 . S
Li177 O239 1.961 . S
Li178 N223 1.990 . S
Li178 O236 1.961 . S
Li178 O238 1.956 . S
Li178 O239 1.970 . S
Li179 N229 1.990 . S
Li179 O237 1.961 . S
Li179 O238 1.970 . S
Li179 O239 1.956 . S
C180 C182 1.348 . S
C180 C183 1.356 . S
C180 O236 1.325 . S
N181 C184 1.314 . S
N181 C185 1.279 . S
C182 C180 1.348 . S
C182 C184 1.353 . S
C182 H240 0.929 . S
C183 C180 1.356 . S
C183 C185 1.358 . S
C183 H241 0.930 . S
C184 N181 1.314 . S
C184 C182 1.353 . S
C184 H242 0.930 . S
C185 N181 1.279 . S
C185 C183 1.358 . S
C185 H243 0.930 . S
C186 C189 1.348 . S
C186 C190 1.356 . S
C186 O237 1.325 . S
C187 N188 1.279 . S
C187 C190 1.358 . S
C187 H244 0.930 . S
N188 C187 1.279 . S
N188 C191 1.314 . S
C189 C186 1.348 . S
C189 C191 1.353 . S
C189 H245 0.929 . S
C190 C186 1.356 . S
C190 C187 1.358 . S
C190 H246 0.930 . S
C191 N188 1.314 . S
C191 C189 1.353 . S
C191 H247 0.930 . S
C192 N193 1.314 . S
C192 C197 1.353 . S
C192 H198 0.930 . S
N193 Li176 1.990 . S
N193 C192 1.314 . S
N193 C195 1.279 . S
C194 C195 1.358 . S
C194 C196 1.356 . S
C194 H248 0.930 . S
C195 N193 1.279 . S
C195 C194 1.358 . S
C195 H199 0.930 . S
C196 C194 1.356 . S
C196 C197 1.348 . S
C197 C192 1.353 . S
C197 C196 1.348 . S
C197 H249 0.929 . S
H198 C192 0.930 . S
H199 C195 0.930 . S
C200 N201 1.314 . S
C200 C202 1.353 . S
C200 H206 0.930 . S
N201 Li177 1.990 . S
N201 C200 1.314 . S
N201 C204 1.279 . S
C202 C200 1.353 . S
C202 C205 1.348 . S
C202 H250 0.929 . S
C203 C204 1.358 . S
C203 C205 1.356 . S
C203 H251 0.930 . S
C204 N201 1.279 . S
C204 C203 1.358 . S
C204 H207 0.930 . S
C205 C202 1.348 . S
C205 C203 1.356 . S
H206 C200 0.930 . S
H207 C204 0.930 . S
C208 C210 1.348 . S
C208 C211 1.356 . S
C208 O238 1.325 . S
N209 C212 1.314 . S
N209 C213 1.279 . S
C210 C208 1.348 . S
C210 C212 1.353 . S
C210 H252 0.929 . S
C211 C208 1.356 . S
C211 C213 1.358 . S
C211 H253 0.930 . S
C212 N209 1.314 . S
C212 C210 1.353 . S
C212 H254 0.930 . S
C213 N209 1.279 . S
C213 C211 1.358 . S
C213 H255 0.930 . S
C214 C215 1.348 . S
C214 C216 1.356 . S
C214 O239 1.325 . S
C215 C214 1.348 . S
C215 C217 1.353 . S
C215 H256 0.929 . S
C216 C214 1.356 . S
C216 C218 1.358 . S
C216 H257 0.930 . S
C217 C215 1.353 . S
C217 N219 1.314 . S
C217 H258 0.930 . S
C218 C216 1.358 . S
C218 N219 1.279 . S
C218 H259 0.930 . S
N219 C217 1.314 . S
N219 C218 1.279 . S
C220 C222 1.353 . S
C220 N223 1.314 . S
C220 H226 0.930 . S
C221 N223 1.279 . S
C221 C224 1.358 . S
C221 H227 0.930 . S
C222 C220 1.353 . S
C222 C225 1.348 . S
C222 H260 0.929 . S
N223 Li178 1.990 . S
N223 C220 1.314 . S
N223 C221 1.279 . S
C224 C221 1.358 . S
C224 C225 1.356 . S
C224 H261 0.930 . S
C225 C222 1.348 . S
C225 C224 1.356 . S
H226 C220 0.930 . S
H227 C221 0.930 . S
C228 N229 1.314 . S
C228 C230 1.353 . S
C228 H234 0.930 . S
N229 Li179 1.990 . S
N229 C228 1.314 . S
N229 C232 1.279 . S
C230 C228 1.353 . S
C230 C233 1.348 . S
C230 H262 0.929 . S
C231 C232 1.358 . S
C231 C233 1.356 . S
C231 H263 0.930 . S
C232 N229 1.279 . S
C232 C231 1.358 . S
C232 H235 0.930 . S
C233 C230 1.348 . S
C233 C231 1.356 . S
H234 C228 0.930 . S
H235 C232 0.930 . S
O236 Li176 1.956 . S
O236 Li177 1.970 . S
O236 Li178 1.961 . S
O236 C180 1.325 . S
O237 Li176 1.970 . S
O237 Li177 1.956 . S
O237 Li179 1.961 . S
O237 C186 1.325 . S
O238 Li176 1.961 . S
O238 Li178 1.956 . S
O238 Li179 1.970 . S
O238 C208 1.325 . S
O239 Li177 1.961 . S
O239 Li178 1.970 . S
O239 Li179 1.956 . S
O239 C214 1.325 . S
H240 C182 0.929 . S
H241 C183 0.930 . S
H242 C184 0.930 . S
H243 C185 0.930 . S
H244 C187 0.930 . S
H245 C189 0.929 . S
H246 C190 0.930 . S
H247 C191 0.930 . S
H248 C194 0.930 . S
H249 C197 0.929 . S
H250 C202 0.929 . S
H251 C203 0.930 . S
H252 C210 0.929 . S
H253 C211 0.930 . S
H254 C212 0.930 . S
H255 C213 0.930 . S
H256 C215 0.929 . S
H257 C216 0.930 . S
H258 C217 0.930 . S
H259 C218 0.930 . S
H260 C222 0.929 . S
H261 C224 0.930 . S
H262 C230 0.929 . S
H263 C231 0.930 . S
Li264 N281 1.990 1_655 S
Li264 O324 1.956 . S
Li264 O325 1.970 . S
Li264 O326 1.961 . S
Li265 N289 1.990 . S
Li265 O324 1.970 . S
Li265 O325 1.956 . S
Li265 O327 1.961 . S
Li266 N311 1.990 . S
Li266 O324 1.961 . S
Li266 O326 1.956 . S
Li266 O327 1.970 . S
Li267 N317 1.990 . S
Li267 O325 1.961 . S
Li267 O326 1.970 . S
Li267 O327 1.956 . S
C268 C270 1.348 . S
C268 C271 1.356 . S
C268 O324 1.325 . S
N269 C272 1.314 . S
N269 C273 1.279 . S
C270 C268 1.348 . S
C270 C272 1.353 . S
C270 H328 0.929 . S
C271 C268 1.356 . S
C271 C273 1.358 . S
C271 H329 0.930 . S
C272 N269 1.314 . S
C272 C270 1.353 . S
C272 H330 0.930 . S
C273 N269 1.279 . S
C273 C271 1.358 . S
C273 H331 0.930 . S
C274 C277 1.348 . S
C274 C278 1.356 . S
C274 O325 1.325 . S
C275 N276 1.279 . S
C275 C278 1.358 . S
C275 H332 0.930 . S
N276 C275 1.279 . S
N276 C279 1.314 . S
C277 C274 1.348 . S
C277 C279 1.353 . S
C277 H333 0.929 . S
C278 C274 1.356 . S
C278 C275 1.358 . S
C278 H334 0.930 . S
C279 N276 1.314 . S
C279 C277 1.353 . S
C279 H335 0.930 1_655 S
C280 N281 1.314 . S
C280 C285 1.353 . S
C280 H286 0.930 1_455 S
N281 Li264 1.990 1_455 S
N281 C280 1.314 . S
N281 C283 1.279 . S
C282 C283 1.358 . S
C282 C284 1.356 . S
C282 H336 0.930 . S
C283 N281 1.279 . S
C283 C282 1.358 . S
C283 H287 0.930 . S
C284 C282 1.356 . S
C284 C285 1.348 . S
C285 C280 1.353 . S
C285 C284 1.348 . S
C285 H337 0.929 . S
H286 C280 0.930 1_655 S
H287 C283 0.930 . S
C288 N289 1.314 . S
C288 C290 1.353 . S
C288 H294 0.930 . S
N289 Li265 1.990 . S
N289 C288 1.314 . S
N289 C292 1.279 . S
C290 C288 1.353 . S
C290 C293 1.348 . S
C290 H338 0.929 . S
C291 C292 1.358 . S
C291 C293 1.356 . S
C291 H339 0.930 . S
C292 N289 1.279 . S
C292 C291 1.358 . S
C292 H295 0.930 . S
C293 C290 1.348 . S
C293 C291 1.356 . S
H294 C288 0.930 . S
H295 C292 0.930 . S
C296 C298 1.348 . S
C296 C299 1.356 . S
C296 O326 1.325 . S
N297 C300 1.314 . S
N297 C301 1.279 . S
C298 C296 1.348 . S
C298 C300 1.353 . S
C298 H340 0.929 . S
C299 C296 1.356 . S
C299 C301 1.358 . S
C299 H341 0.930 . S
C300 N297 1.314 . S
C300 C298 1.353 . S
C300 H342 0.930 . S
C301 N297 1.279 . S
C301 C299 1.358 . S
C301 H343 0.930 . S
C302 C303 1.348 . S
C302 C304 1.356 . S
C302 O327 1.325 . S
C303 C302 1.348 . S
C303 C305 1.353 . S
C303 H344 0.929 . S
C304 C302 1.356 . S
C304 C306 1.358 . S
C304 H345 0.930 . S
C305 C303 1.353 . S
C305 N307 1.314 . S
C305 H346 0.930 . S
C306 C304 1.358 . S
C306 N307 1.279 . S
C306 H347 0.930 . S
N307 C305 1.314 . S
N307 C306 1.279 . S
C308 C310 1.353 . S
C308 N311 1.314 . S
C308 H314 0.930 . S
C309 N311 1.279 . S
C309 C312 1.358 . S
C309 H315 0.930 . S
C310 C308 1.353 . S
C310 C313 1.348 . S
C310 H348 0.929 . S
N311 Li266 1.990 . S
N311 C308 1.314 . S
N311 C309 1.279 . S
C312 C309 1.358 . S
C312 C313 1.356 . S
C312 H349 0.930 . S
C313 C310 1.348 . S
C313 C312 1.356 . S
H314 C308 0.930 . S
H315 C309 0.930 . S
C316 N317 1.314 . S
C316 C318 1.353 . S
C316 H322 0.930 . S
N317 Li267 1.990 . S
N317 C316 1.314 . S
N317 C320 1.279 . S
C318 C316 1.353 . S
C318 C321 1.348 . S
C318 H350 0.929 . S
C319 C320 1.358 . S
C319 C321 1.356 . S
C319 H351 0.930 . S
C320 N317 1.279 . S
C320 C319 1.358 . S
C320 H323 0.930 . S
C321 C318 1.348 . S
C321 C319 1.356 . S
H322 C316 0.930 . S
H323 C320 0.930 . S
O324 Li264 1.956 . S
O324 Li265 1.970 . S
O324 Li266 1.961 . S
O324 C268 1.325 . S
O325 Li264 1.970 . S
O325 Li265 1.956 . S
O325 Li267 1.961 . S
O325 C274 1.325 . S
O326 Li264 1.961 . S
O326 Li266 1.956 . S
O326 Li267 1.970 . S
O326 C296 1.325 . S
O327 Li265 1.961 . S
O327 Li266 1.970 . S
O327 Li267 1.956 . S
O327 C302 1.325 . S
H328 C270 0.929 . S
H329 C271 0.930 . S
H330 C272 0.930 . S
H331 C273 0.930 . S
H332 C275 0.930 . S
H333 C277 0.929 . S
H334 C278 0.930 . S
H335 C279 0.930 1_455 S
H336 C282 0.930 . S
H337 C285 0.929 . S
H338 C290 0.929 . S
H339 C291 0.930 . S
H340 C298 0.929 . S
H341 C299 0.930 . S
H342 C300 0.930 . S
H343 C301 0.930 . S
H344 C303 0.929 . S
H345 C304 0.930 . S
H346 C305 0.930 . S
H347 C306 0.930 . S
H348 C310 0.929 . S
H349 C312 0.930 . S
H350 C318 0.929 . S
H351 C319 0.930 . S
Li352 N369 1.990 . S
Li352 O412 1.956 . S
Li352 O413 1.970 . S
Li352 O414 1.961 . S
Li353 N377 1.990 1_565 S
Li353 O412 1.970 . S
Li353 O413 1.956 . S
Li353 O415 1.961 . S
Li354 N399 1.990 . S
Li354 O412 1.961 . S
Li354 O414 1.956 . S
Li354 O415 1.970 . S
Li355 N405 1.990 . S
Li355 O413 1.961 . S
Li355 O414 1.970 . S
Li355 O415 1.956 . S
C356 C358 1.348 . S
C356 C359 1.356 . S
C356 O412 1.325 . S
N357 C360 1.314 . S
N357 C361 1.279 . S
C358 C356 1.348 . S
C358 C360 1.353 . S
C358 H416 0.929 . S
C359 C356 1.356 . S
C359 C361 1.358 . S
C359 H417 0.930 . S
C360 N357 1.314 . S
C360 C358 1.353 . S
C360 H418 0.930 1_565 S
C361 N357 1.279 . S
C361 C359 1.358 . S
C361 H419 0.930 . S
C362 C365 1.348 . S
C362 C366 1.356 . S
C362 O413 1.325 . S
C363 N364 1.279 . S
C363 C366 1.358 . S
C363 H420 0.930 . S
N364 C363 1.279 . S
N364 C367 1.314 . S
C365 C362 1.348 . S
C365 C367 1.353 . S
C365 H421 0.929 . S
C366 C362 1.356 . S
C366 C363 1.358 . S
C366 H422 0.930 . S
C367 N364 1.314 . S
C367 C365 1.353 . S
C367 H423 0.930 . S
C368 N369 1.314 . S
C368 C373 1.353 . S
C368 H374 0.930 . S
N369 Li352 1.990 . S
N369 C368 1.314 . S
N369 C371 1.279 . S
C370 C371 1.358 . S
C370 C372 1.356 . S
C370 H424 0.930 . S
C371 N369 1.279 . S
C371 C370 1.358 . S
C371 H375 0.930 . S
C372 C370 1.356 . S
C372 C373 1.348 . S
C373 C368 1.353 . S
C373 C372 1.348 . S
C373 H425 0.929 . S
H374 C368 0.930 . S
H375 C371 0.930 . S
C376 N377 1.314 . S
C376 C378 1.353 . S
C376 H382 0.930 1_545 S
N377 Li353 1.990 1_545 S
N377 C376 1.314 . S
N377 C380 1.279 . S
C378 C376 1.353 . S
C378 C381 1.348 . S
C378 H426 0.929 . S
C379 C380 1.358 . S
C379 C381 1.356 . S
C379 H427 0.930 . S
C380 N377 1.279 . S
C380 C379 1.358 . S
C380 H383 0.930 . S
C381 C378 1.348 . S
C381 C379 1.356 . S
H382 C376 0.930 1_565 S
H383 C380 0.930 . S
C384 C386 1.348 . S
C384 C387 1.356 . S
C384 O414 1.325 . S
N385 C388 1.314 . S
N385 C389 1.279 . S
C386 C384 1.348 . S
C386 C388 1.353 . S
C386 H428 0.929 . S
C387 C384 1.356 . S
C387 C389 1.358 . S
C387 H429 0.930 . S
C388 N385 1.314 . S
C388 C386 1.353 . S
C388 H430 0.930 . S
C389 N385 1.279 . S
C389 C387 1.358 . S
C389 H431 0.930 . S
C390 C391 1.348 . S
C390 C392 1.356 . S
C390 O415 1.325 . S
C391 C390 1.348 . S
C391 C393 1.353 . S
C391 H432 0.929 . S
C392 C390 1.356 . S
C392 C394 1.358 . S
C392 H433 0.930 . S
C393 C391 1.353 . S
C393 N395 1.314 . S
C393 H434 0.930 . S
C394 C392 1.358 . S
C394 N395 1.279 . S
C394 H435 0.930 . S
N395 C393 1.314 . S
N395 C394 1.279 . S
C396 C398 1.353 . S
C396 N399 1.314 . S
C396 H402 0.930 . S
C397 N399 1.279 . S
C397 C400 1.358 . S
C397 H403 0.930 . S
C398 C396 1.353 . S
C398 C401 1.348 . S
C398 H436 0.929 . S
N399 Li354 1.990 . S
N399 C396 1.314 . S
N399 C397 1.279 . S
C400 C397 1.358 . S
C400 C401 1.356 . S
C400 H437 0.930 . S
C401 C398 1.348 . S
C401 C400 1.356 . S
H402 C396 0.930 . S
H403 C397 0.930 . S
C404 N405 1.314 . S
C404 C406 1.353 . S
C404 H410 0.930 . S
N405 Li355 1.990 . S
N405 C404 1.314 . S
N405 C408 1.279 . S
C406 C404 1.353 . S
C406 C409 1.348 . S
C406 H438 0.929 . S
C407 C408 1.358 . S
C407 C409 1.356 . S
C407 H439 0.930 . S
C408 N405 1.279 . S
C408 C407 1.358 . S
C408 H411 0.930 . S
C409 C406 1.348 . S
C409 C407 1.356 . S
H410 C404 0.930 . S
H411 C408 0.930 . S
O412 Li352 1.956 . S
O412 Li353 1.970 . S
O412 Li354 1.961 . S
O412 C356 1.325 . S
O413 Li352 1.970 . S
O413 Li353 1.956 . S
O413 Li355 1.961 . S
O413 C362 1.325 . S
O414 Li352 1.961 . S
O414 Li354 1.956 . S
O414 Li355 1.970 . S
O414 C384 1.325 . S
O415 Li353 1.961 . S
O415 Li354 1.970 . S
O415 Li355 1.956 . S
O415 C390 1.325 . S
H416 C358 0.929 . S
H417 C359 0.930 . S
H418 C360 0.930 1_545 S
H419 C361 0.930 . S
H420 C363 0.930 . S
H421 C365 0.929 . S
H422 C366 0.930 . S
H423 C367 0.930 . S
H424 C370 0.930 . S
H425 C373 0.929 . S
H426 C378 0.929 . S
H427 C379 0.930 . S
H428 C386 0.929 . S
H429 C387 0.930 . S
H430 C388 0.930 . S
H431 C389 0.930 . S
H432 C391 0.929 . S
H433 C392 0.930 . S
H434 C393 0.930 . S
H435 C394 0.930 . S
H436 C398 0.929 . S
H437 C400 0.930 . S
H438 C406 0.929 . S
H439 C407 0.930 . S
Li440 N457 1.990 . S
Li440 O500 1.956 . S
Li440 O501 1.970 . S
Li440 O502 1.961 . S
Li441 N465 1.990 . S
Li441 O500 1.970 . S
Li441 O501 1.956 . S
Li441 O503 1.961 . S
Li442 N487 1.990 . S
Li442 O500 1.961 . S
Li442 O502 1.956 . S
Li442 O503 1.970 . S
Li443 N493 1.990 . S
Li443 O501 1.961 . S
Li443 O502 1.970 . S
Li443 O503 1.956 . S
C444 C446 1.348 . S
C444 C447 1.356 . S
C444 O500 1.325 . S
N445 C448 1.314 . S
N445 C449 1.279 . S
C446 C444 1.348 . S
C446 C448 1.353 1_556 S
C446 H504 0.929 . S
C447 C444 1.356 . S
C447 C449 1.358 1_556 S
C447 H505 0.930 . S
C448 N445 1.314 . S
C448 C446 1.353 1_554 S
C448 H506 0.930 . S
C449 N445 1.279 . S
C449 C447 1.358 1_554 S
C449 H507 0.930 . S
C450 C453 1.348 . S
C450 C454 1.356 . S
C450 O501 1.325 . S
C451 N452 1.279 . S
C451 C454 1.358 . S
C451 H508 0.930 . S
N452 C451 1.279 . S
N452 C455 1.314 . S
C453 C450 1.348 . S
C453 C455 1.353 . S
C453 H509 0.929 . S
C454 C450 1.356 . S
C454 C451 1.358 . S
C454 H510 0.930 . S
C455 N452 1.314 . S
C455 C453 1.353 . S
C455 H511 0.930 . S
C456 N457 1.314 . S
C456 C461 1.353 . S
C456 H462 0.930 . S
N457 Li440 1.990 . S
N457 C456 1.314 . S
N457 C459 1.279 . S
C458 C459 1.358 . S
C458 C460 1.356 . S
C458 H512 0.930 . S
C459 N457 1.279 . S
C459 C458 1.358 . S
C459 H463 0.930 . S
C460 C458 1.356 . S
C460 C461 1.348 . S
C461 C456 1.353 . S
C461 C460 1.348 . S
C461 H513 0.929 . S
H462 C456 0.930 . S
H463 C459 0.930 . S
C464 N465 1.314 . S
C464 C466 1.353 . S
C464 H470 0.930 . S
N465 Li441 1.990 . S
N465 C464 1.314 . S
N465 C468 1.279 . S
C466 C464 1.353 . S
C466 C469 1.348 . S
C466 H514 0.929 . S
C467 C468 1.358 . S
C467 C469 1.356 . S
C467 H515 0.930 . S
C468 N465 1.279 . S
C468 C467 1.358 . S
C468 H471 0.930 . S
C469 C466 1.348 . S
C469 C467 1.356 . S
H470 C464 0.930 . S
H471 C468 0.930 . S
C472 C474 1.348 . S
C472 C475 1.356 . S
C472 O502 1.325 . S
N473 C476 1.314 . S
N473 C477 1.279 . S
C474 C472 1.348 . S
C474 C476 1.353 . S
C474 H516 0.929 . S
C475 C472 1.356 . S
C475 C477 1.358 . S
C475 H517 0.930 . S
C476 N473 1.314 . S
C476 C474 1.353 . S
C476 H518 0.930 . S
C477 N473 1.279 . S
C477 C475 1.358 . S
C477 H519 0.930 . S
C478 C479 1.348 . S
C478 C480 1.356 . S
C478 O503 1.325 . S
C479 C478 1.348 . S
C479 C481 1.353 . S
C479 H520 0.929 . S
C480 C478 1.356 . S
C480 C482 1.358 . S
C480 H521 0.930 . S
C481 C479 1.353 . S
C481 N483 1.314 . S
C481 H522 0.930 . S
C482 C480 1.358 . S
C482 N483 1.279 . S
C482 H523 0.930 . S
N483 C481 1.314 . S
N483 C482 1.279 . S
C484 C486 1.353 . S
C484 N487 1.314 1_554 S
C484 H490 0.930 . S
C485 N487 1.279 . S
C485 C488 1.358 1_556 S
C485 H491 0.930 . S
C486 C484 1.353 . S
C486 C489 1.348 . S
C486 H524 0.929 . S
N487 Li442 1.990 . S
N487 C484 1.314 1_556 S
N487 C485 1.279 . S
C488 C485 1.358 1_554 S
C488 C489 1.356 . S
C488 H525 0.930 . S
C489 C486 1.348 . S
C489 C488 1.356 . S
H490 C484 0.930 . S
H491 C485 0.930 . S
C492 N493 1.314 . S
C492 C494 1.353 . S
C492 H498 0.930 . S
N493 Li443 1.990 . S
N493 C492 1.314 . S
N493 C496 1.279 . S
C494 C492 1.353 . S
C494 C497 1.348 . S
C494 H526 0.929 . S
C495 C496 1.358 . S
C495 C497 1.356 . S
C495 H527 0.930 . S
C496 N493 1.279 . S
C496 C495 1.358 . S
C496 H499 0.930 . S
C497 C494 1.348 . S
C497 C495 1.356 . S
H498 C492 0.930 . S
H499 C496 0.930 . S
O500 Li440 1.956 . S
O500 Li441 1.970 . S
O500 Li442 1.961 . S
O500 C444 1.325 . S
O501 Li440 1.970 . S
O501 Li441 1.956 . S
O501 Li443 1.961 . S
O501 C450 1.325 . S
O502 Li440 1.961 . S
O502 Li442 1.956 . S
O502 Li443 1.970 . S
O502 C472 1.325 . S
O503 Li441 1.961 . S
O503 Li442 1.970 . S
O503 Li443 1.956 . S
O503 C478 1.325 . S
H504 C446 0.929 . S
H505 C447 0.930 . S
H506 C448 0.930 . S
H507 C449 0.930 . S
H508 C451 0.930 . S
H509 C453 0.929 . S
H510 C454 0.930 . S
H511 C455 0.930 . S
H512 C458 0.930 . S
H513 C461 0.929 . S
H514 C466 0.929 . S
H515 C467 0.930 . S
H516 C474 0.929 . S
H517 C475 0.930 . S
H518 C476 0.930 . S
H519 C477 0.930 . S
H520 C479 0.929 . S
H521 C480 0.930 . S
H522 C481 0.930 . S
H523 C482 0.930 . S
H524 C486 0.929 . S
H525 C488 0.930 . S
H526 C494 0.929 . S
H527 C495 0.930 . S
Li528 N545 1.990 1_565 S
Li528 O588 1.956 . S
Li528 O589 1.970 . S
Li528 O590 1.961 . S
Li529 N553 1.990 . S
Li529 O588 1.970 . S
Li529 O589 1.956 . S
Li529 O591 1.961 . S
Li530 N575 1.990 . S
Li530 O588 1.961 . S
Li530 O590 1.956 . S
Li530 O591 1.970 . S
Li531 N581 1.990 . S
Li531 O589 1.961 . S
Li531 O590 1.970 . S
Li531 O591 1.956 . S
C532 C534 1.348 . S
C532 C535 1.356 . S
C532 O588 1.325 . S
N533 C536 1.314 . S
N533 C537 1.279 . S
C534 C532 1.348 . S
C534 C536 1.353 . S
C534 H592 0.929 . S
C535 C532 1.356 . S
C535 C537 1.358 . S
C535 H593 0.930 . S
C536 N533 1.314 . S
C536 C534 1.353 . S
C536 H594 0.930 . S
C537 N533 1.279 . S
C537 C535 1.358 . S
C537 H595 0.930 . S
C538 C541 1.348 . S
C538 C542 1.356 . S
C538 O589 1.325 . S
C539 N540 1.279 . S
C539 C542 1.358 . S
C539 H596 0.930 . S
N540 C539 1.279 . S
N540 C543 1.314 . S
C541 C538 1.348 . S
C541 C543 1.353 . S
C541 H597 0.929 . S
C542 C538 1.356 . S
C542 C539 1.358 . S
C542 H598 0.930 . S
C543 N540 1.314 . S
C543 C541 1.353 . S
C543 H599 0.930 1_565 S
C544 N545 1.314 . S
C544 C549 1.353 . S
C544 H550 0.930 1_545 S
N545 Li528 1.990 1_545 S
N545 C544 1.314 . S
N545 C547 1.279 . S
C546 C547 1.358 . S
C546 C548 1.356 . S
C546 H600 0.930 . S
C547 N545 1.279 . S
C547 C546 1.358 . S
C547 H551 0.930 . S
C548 C546 1.356 . S
C548 C549 1.348 . S
C549 C544 1.353 . S
C549 C548 1.348 . S
C549 H601 0.929 . S
H550 C544 0.930 1_565 S
H551 C547 0.930 . S
C552 N553 1.314 . S
C552 C554 1.353 . S
C552 H558 0.930 . S
N553 Li529 1.990 . S
N553 C552 1.314 . S
N553 C556 1.279 . S
C554 C552 1.353 . S
C554 C557 1.348 . S
C554 H602 0.929 . S
C555 C556 1.358 . S
C555 C557 1.356 . S
C555 H603 0.930 . S
C556 N553 1.279 . S
C556 C555 1.358 . S
C556 H559 0.930 . S
C557 C554 1.348 . S
C557 C555 1.356 . S
H558 C552 0.930 . S
H559 C556 0.930 . S
C560 C562 1.348 . S
C560 C563 1.356 . S
C560 O590 1.325 . S
N561 C564 1.314 . S
N561 C565 1.279 . S
C562 C560 1.348 . S
C562 C564 1.353 . S
C562 H604 0.929 . S
C563 C560 1.356 . S
C563 C565 1.358 . S
C563 H605 0.930 . S
C564 N561 1.314 . S
C564 C562 1.353 . S
C564 H606 0.930 . S
C565 N561 1.279 . S
C565 C563 1.358 . S
C565 H607 0.930 . S
C566 C567 1.348 . S
C566 C568 1.356 . S
C566 O591 1.325 . S
C567 C566 1.348 . S
C567 C569 1.353 . S
C567 H608 0.929 . S
C568 C566 1.356 . S
C568 C570 1.358 . S
C568 H609 0.930 . S
C569 C567 1.353 . S
C569 N571 1.314 . S
C569 H610 0.930 . S
C570 C568 1.358 . S
C570 N571 1.279 . S
C570 H611 0.930 . S
N571 C569 1.314 . S
N571 C570 1.279 . S
C572 C574 1.353 . S
C572 N575 1.314 . S
C572 H578 0.930 . S
C573 N575 1.279 . S
C573 C576 1.358 . S
C573 H579 0.930 . S
C574 C572 1.353 . S
C574 C577 1.348 . S
C574 H612 0.929 . S
N575 Li530 1.990 . S
N575 C572 1.314 . S
N575 C573 1.279 . S
C576 C573 1.358 . S
C576 C577 1.356 . S
C576 H613 0.930 . S
C577 C574 1.348 . S
C577 C576 1.356 . S
H578 C572 0.930 . S
H579 C573 0.930 . S
C580 N581 1.314 . S
C580 C582 1.353 . S
C580 H586 0.930 . S
N581 Li531 1.990 . S
N581 C580 1.314 . S
N581 C584 1.279 . S
C582 C580 1.353 . S
C582 C585 1.348 . S
C582 H614 0.929 . S
C583 C584 1.358 . S
C583 C585 1.356 . S
C583 H615 0.930 . S
C584 N581 1.279 . S
C584 C583 1.358 . S
C584 H587 0.930 . S
C585 C582 1.348 . S
C585 C583 1.356 . S
H586 C580 0.930 . S
H587 C584 0.930 . S
O588 Li528 1.956 . S
O588 Li529 1.970 . S
O588 Li530 1.961 . S
O588 C532 1.325 . S
O589 Li528 1.970 . S
O589 Li529 1.956 . S
O589 Li531 1.961 . S
O589 C538 1.325 . S
O590 Li528 1.961 . S
O590 Li530 1.956 . S
O590 Li531 1.970 . S
O590 C560 1.325 . S
O591 Li529 1.961 . S
O591 Li530 1.970 . S
O591 Li531 1.956 . S
O591 C566 1.325 . S
H592 C534 0.929 . S
H593 C535 0.930 . S
H594 C536 0.930 . S
H595 C537 0.930 . S
H596 C539 0.930 . S
H597 C541 0.929 . S
H598 C542 0.930 . S
H599 C543 0.930 1_545 S
H600 C546 0.930 . S
H601 C549 0.929 . S
H602 C554 0.929 . S
H603 C555 0.930 . S
H604 C562 0.929 . S
H605 C563 0.930 . S
H606 C564 0.930 . S
H607 C565 0.930 . S
H608 C567 0.929 . S
H609 C568 0.930 . S
H610 C569 0.930 . S
H611 C570 0.930 . S
H612 C574 0.929 . S
H613 C576 0.930 . S
H614 C582 0.929 . S
H615 C583 0.930 . S
Li616 N633 1.990 . S
Li616 O676 1.956 . S
Li616 O677 1.970 . S
Li616 O678 1.961 . S
Li617 N641 1.990 . S
Li617 O676 1.970 . S
Li617 O677 1.956 . S
Li617 O679 1.961 . S
Li618 N663 1.990 . S
Li618 O676 1.961 . S
Li618 O678 1.956 . S
Li618 O679 1.970 . S
Li619 N669 1.990 . S
Li619 O677 1.961 . S
Li619 O678 1.970 . S
Li619 O679 1.956 . S
C620 C622 1.348 . S
C620 C623 1.356 . S
C620 O676 1.325 . S
N621 C624 1.314 . S
N621 C625 1.279 . S
C622 C620 1.348 . S
C622 C624 1.353 . S
C622 H680 0.929 . S
C623 C620 1.356 . S
C623 C625 1.358 . S
C623 H681 0.930 . S
C624 N621 1.314 . S
C624 C622 1.353 . S
C624 H682 0.930 . S
C625 N621 1.279 . S
C625 C623 1.358 . S
C625 H683 0.930 . S
C626 C629 1.348 . S
C626 C630 1.356 . S
C626 O677 1.325 . S
C627 N628 1.279 . S
C627 C630 1.358 . S
C627 H684 0.930 . S
N628 C627 1.279 . S
N628 C631 1.314 . S
C629 C626 1.348 . S
C629 C631 1.353 . S
C629 H685 0.929 . S
C630 C626 1.356 . S
C630 C627 1.358 . S
C630 H686 0.930 . S
C631 N628 1.314 . S
C631 C629 1.353 . S
C631 H687 0.930 . S
C632 N633 1.314 . S
C632 C637 1.353 . S
C632 H638 0.930 . S
N633 Li616 1.990 . S
N633 C632 1.314 . S
N633 C635 1.279 . S
C634 C635 1.358 . S
C634 C636 1.356 . S
C634 H688 0.930 . S
C635 N633 1.279 . S
C635 C634 1.358 . S
C635 H639 0.930 . S
C636 C634 1.356 . S
C636 C637 1.348 . S
C637 C632 1.353 . S
C637 C636 1.348 . S
C637 H689 0.929 . S
H638 C632 0.930 . S
H639 C635 0.930 . S
C640 N641 1.314 . S
C640 C642 1.353 . S
C640 H646 0.930 . S
N641 Li617 1.990 . S
N641 C640 1.314 . S
N641 C644 1.279 . S
C642 C640 1.353 . S
C642 C645 1.348 . S
C642 H690 0.929 . S
C643 C644 1.358 . S
C643 C645 1.356 . S
C643 H691 0.930 . S
C644 N641 1.279 . S
C644 C643 1.358 . S
C644 H647 0.930 . S
C645 C642 1.348 . S
C645 C643 1.356 . S
H646 C640 0.930 . S
H647 C644 0.930 . S
C648 C650 1.348 . S
C648 C651 1.356 . S
C648 O678 1.325 . S
N649 C652 1.314 . S
N649 C653 1.279 . S
C650 C648 1.348 . S
C650 C652 1.353 . S
C650 H692 0.929 . S
C651 C648 1.356 . S
C651 C653 1.358 . S
C651 H693 0.930 . S
C652 N649 1.314 . S
C652 C650 1.353 . S
C652 H694 0.930 . S
C653 N649 1.279 . S
C653 C651 1.358 . S
C653 H695 0.930 . S
C654 C655 1.348 . S
C654 C656 1.356 . S
C654 O679 1.325 . S
C655 C654 1.348 . S
C655 C657 1.353 . S
C655 H696 0.929 . S
C656 C654 1.356 . S
C656 C658 1.358 . S
C656 H697 0.930 . S
C657 C655 1.353 . S
C657 N659 1.314 . S
C657 H698 0.930 . S
C658 C656 1.358 . S
C658 N659 1.279 . S
C658 H699 0.930 . S
N659 C657 1.314 . S
N659 C658 1.279 . S
C660 C662 1.353 . S
C660 N663 1.314 . S
C660 H666 0.930 . S
C661 N663 1.279 . S
C661 C664 1.358 . S
C661 H667 0.930 . S
C662 C660 1.353 . S
C662 C665 1.348 . S
C662 H700 0.929 . S
N663 Li618 1.990 . S
N663 C660 1.314 . S
N663 C661 1.279 . S
C664 C661 1.358 . S
C664 C665 1.356 . S
C664 H701 0.930 . S
C665 C662 1.348 . S
C665 C664 1.356 . S
H666 C660 0.930 . S
H667 C661 0.930 . S
C668 N669 1.314 . S
C668 C670 1.353 . S
C668 H674 0.930 . S
N669 Li619 1.990 . S
N669 C668 1.314 . S
N669 C672 1.279 . S
C670 C668 1.353 . S
C670 C673 1.348 . S
C670 H702 0.929 . S
C671 C672 1.358 . S
C671 C673 1.356 . S
C671 H703 0.930 . S
C672 N669 1.279 . S
C672 C671 1.358 . S
C672 H675 0.930 . S
C673 C670 1.348 . S
C673 C671 1.356 . S
H674 C668 0.930 . S
H675 C672 0.930 . S
O676 Li616 1.956 . S
O676 Li617 1.970 . S
O676 Li618 1.961 . S
O676 C620 1.325 . S
O677 Li616 1.970 . S
O677 Li617 1.956 . S
O677 Li619 1.961 . S
O677 C626 1.325 . S
O678 Li616 1.961 . S
O678 Li618 1.956 . S
O678 Li619 1.970 . S
O678 C648 1.325 . S
O679 Li617 1.961 . S
O679 Li618 1.970 . S
O679 Li619 1.956 . S
O679 C654 1.325 . S
H680 C622 0.929 . S
H681 C623 0.930 . S
H682 C624 0.930 . S
H683 C625 0.930 . S
H684 C627 0.930 . S
H685 C629 0.929 . S
H686 C630 0.930 . S
H687 C631 0.930 . S
H688 C634 0.930 . S
H689 C637 0.929 . S
H690 C642 0.929 . S
H691 C643 0.930 . S
H692 C650 0.929 . S
H693 C651 0.930 . S
H694 C652 0.930 . S
H695 C653 0.930 . S
H696 C655 0.929 . S
H697 C656 0.930 . S
H698 C657 0.930 . S
H699 C658 0.930 . S
H700 C662 0.929 . S
H701 C664 0.930 . S
H702 C670 0.929 . S
H703 C671 0.930 . S
Li704 N721 1.990 . S
Li704 O764 1.956 . S
Li704 O765 1.970 . S
Li704 O766 1.961 . S
Li705 N729 1.990 . S
Li705 O764 1.970 . S
Li705 O765 1.956 . S
Li705 O767 1.961 . S
Li706 N751 1.990 . S
Li706 O764 1.961 . S
Li706 O766 1.956 . S
Li706 O767 1.970 . S
Li707 N757 1.990 1_455 S
Li707 O765 1.961 . S
Li707 O766 1.970 . S
Li707 O767 1.956 . S
C708 C710 1.348 . S
C708 C711 1.356 . S
C708 O764 1.325 . S
N709 C712 1.314 . S
N709 C713 1.279 . S
C710 C708 1.348 . S
C710 C712 1.353 . S
C710 H768 0.929 . S
C711 C708 1.356 . S
C711 C713 1.358 . S
C711 H769 0.930 . S
C712 N709 1.314 . S
C712 C710 1.353 . S
C712 H770 0.930 . S
C713 N709 1.279 . S
C713 C711 1.358 . S
C713 H771 0.930 . S
C714 C717 1.348 . S
C714 C718 1.356 . S
C714 O765 1.325 . S
C715 N716 1.279 . S
C715 C718 1.358 . S
C715 H772 0.930 . S
N716 C715 1.279 . S
N716 C719 1.314 . S
C717 C714 1.348 . S
C717 C719 1.353 . S
C717 H773 0.929 . S
C718 C714 1.356 . S
C718 C715 1.358 . S
C718 H774 0.930 . S
C719 N716 1.314 . S
C719 C717 1.353 . S
C719 H775 0.930 . S
C720 N721 1.314 1_556 S
C720 C725 1.353 . S
C720 H726 0.930 . S
N721 Li704 1.990 . S
N721 C720 1.314 1_554 S
N721 C723 1.279 . S
C722 C723 1.358 1_556 S
C722 C724 1.356 . S
C722 H776 0.930 . S
C723 N721 1.279 . S
C723 C722 1.358 1_554 S
C723 H727 0.930 . S
C724 C722 1.356 . S
C724 C725 1.348 . S
C725 C720 1.353 . S
C725 C724 1.348 . S
C725 H777 0.929 . S
H726 C720 0.930 . S
H727 C723 0.930 . S
C728 N729 1.314 . S
C728 C730 1.353 . S
C728 H734 0.930 . S
N729 Li705 1.990 . S
N729 C728 1.314 . S
N729 C732 1.279 . S
C730 C728 1.353 . S
C730 C733 1.348 . S
C730 H778 0.929 . S
C731 C732 1.358 . S
C731 C733 1.356 . S
C731 H779 0.930 . S
C732 N729 1.279 . S
C732 C731 1.358 . S
C732 H735 0.930 . S
C733 C730 1.348 . S
C733 C731 1.356 . S
H734 C728 0.930 . S
H735 C732 0.930 . S
C736 C738 1.348 . S
C736 C739 1.356 . S
C736 O766 1.325 . S
N737 C740 1.314 . S
N737 C741 1.279 . S
C738 C736 1.348 . S
C738 C740 1.353 1_554 S
C738 H780 0.929 . S
C739 C736 1.356 . S
C739 C741 1.358 1_554 S
C739 H781 0.930 . S
C740 N737 1.314 . S
C740 C738 1.353 1_556 S
C740 H782 0.930 1_455 S
C741 N737 1.279 . S
C741 C739 1.358 1_556 S
C741 H783 0.930 . S
C742 C743 1.348 . S
C742 C744 1.356 . S
C742 O767 1.325 . S
C743 C742 1.348 . S
C743 C745 1.353 . S
C743 H784 0.929 . S
C744 C742 1.356 . S
C744 C746 1.358 . S
C744 H785 0.930 . S
C745 C743 1.353 . S
C745 N747 1.314 . S
C745 H786 0.930 . S
C746 C744 1.358 . S
C746 N747 1.279 . S
C746 H787 0.930 . S
N747 C745 1.314 . S
N747 C746 1.279 . S
C748 C750 1.353 . S
C748 N751 1.314 . S
C748 H754 0.930 . S
C749 N751 1.279 . S
C749 C752 1.358 . S
C749 H755 0.930 . S
C750 C748 1.353 . S
C750 C753 1.348 . S
C750 H788 0.929 . S
N751 Li706 1.990 . S
N751 C748 1.314 . S
N751 C749 1.279 . S
C752 C749 1.358 . S
C752 C753 1.356 . S
C752 H789 0.930 . S
C753 C750 1.348 . S
C753 C752 1.356 . S
H754 C748 0.930 . S
H755 C749 0.930 . S
C756 N757 1.314 . S
C756 C758 1.353 . S
C756 H762 0.930 1_655 S
N757 Li707 1.990 1_655 S
N757 C756 1.314 . S
N757 C760 1.279 . S
C758 C756 1.353 . S
C758 C761 1.348 . S
C758 H790 0.929 . S
C759 C760 1.358 . S
C759 C761 1.356 . S
C759 H791 0.930 . S
C760 N757 1.279 . S
C760 C759 1.358 . S
C760 H763 0.930 . S
C761 C758 1.348 . S
C761 C759 1.356 . S
H762 C756 0.930 1_455 S
H763 C760 0.930 . S
O764 Li704 1.956 . S
O764 Li705 1.970 . S
O764 Li706 1.961 . S
O764 C708 1.325 . S
O765 Li704 1.970 . S
O765 Li705 1.956 . S
O765 Li707 1.961 . S
O765 C714 1.325 . S
O766 Li704 1.961 . S
O766 Li706 1.956 . S
O766 Li707 1.970 . S
O766 C736 1.325 . S
O767 Li705 1.961 . S
O767 Li706 1.970 . S
O767 Li707 1.956 . S
O767 C742 1.325 . S
H768 C710 0.929 . S
H769 C711 0.930 . S
H770 C712 0.930 . S
H771 C713 0.930 . S
H772 C715 0.930 . S
H773 C717 0.929 . S
H774 C718 0.930 . S
H775 C719 0.930 . S
H776 C722 0.930 . S
H777 C725 0.929 . S
H778 C730 0.929 . S
H779 C731 0.930 . S
H780 C738 0.929 . S
H781 C739 0.930 . S
H782 C740 0.930 1_655 S
H783 C741 0.930 . S
H784 C743 0.929 . S
H785 C744 0.930 . S
H786 C745 0.930 . S
H787 C746 0.930 . S
H788 C750 0.929 . S
H789 C752 0.930 . S
H790 C758 0.929 . S
H791 C759 0.930 . S
Li792 N809 1.990 1_545 S
Li792 O852 1.956 . S
Li792 O853 1.970 . S
Li792 O854 1.961 . S
Li793 N817 1.990 . S
Li793 O852 1.970 . S
Li793 O853 1.956 . S
Li793 O855 1.961 . S
Li794 N839 1.990 . S
Li794 O852 1.961 . S
Li794 O854 1.956 . S
Li794 O855 1.970 . S
Li795 N845 1.990 . S
Li795 O853 1.961 . S
Li795 O854 1.970 . S
Li795 O855 1.956 . S
C796 C798 1.348 . S
C796 C799 1.356 . S
C796 O852 1.325 . S
N797 C800 1.314 . S
N797 C801 1.279 . S
C798 C796 1.348 . S
C798 C800 1.353 . S
C798 H856 0.929 . S
C799 C796 1.356 . S
C799 C801 1.358 . S
C799 H857 0.930 . S
C800 N797 1.314 . S
C800 C798 1.353 . S
C800 H858 0.930 . S
C801 N797 1.279 . S
C801 C799 1.358 . S
C801 H859 0.930 . S
C802 C805 1.348 . S
C802 C806 1.356 . S
C802 O853 1.325 . S
C803 N804 1.279 . S
C803 C806 1.358 . S
C803 H860 0.930 . S
N804 C803 1.279 . S
N804 C807 1.314 . S
C805 C802 1.348 . S
C805 C807 1.353 . S
C805 H861 0.929 . S
C806 C802 1.356 . S
C806 C803 1.358 . S
C806 H862 0.930 . S
C807 N804 1.314 . S
C807 C805 1.353 . S
C807 H863 0.930 1_545 S
C808 N809 1.314 . S
C808 C813 1.353 . S
C808 H814 0.930 1_565 S
N809 Li792 1.990 1_565 S
N809 C808 1.314 . S
N809 C811 1.279 . S
C810 C811 1.358 . S
C810 C812 1.356 . S
C810 H864 0.930 . S
C811 N809 1.279 . S
C811 C810 1.358 . S
C811 H815 0.930 . S
C812 C810 1.356 . S
C812 C813 1.348 . S
C813 C808 1.353 . S
C813 C812 1.348 . S
C813 H865 0.929 . S
H814 C808 0.930 1_545 S
H815 C811 0.930 . S
C816 N817 1.314 . S
C816 C818 1.353 . S
C816 H822 0.930 . S
N817 Li793 1.990 . S
N817 C816 1.314 . S
N817 C820 1.279 . S
C818 C816 1.353 . S
C818 C821 1.348 . S
C818 H866 0.929 . S
C819 C820 1.358 . S
C819 C821 1.356 . S
C819 H867 0.930 . S
C820 N817 1.279 . S
C820 C819 1.358 . S
C820 H823 0.930 . S
C821 C818 1.348 . S
C821 C819 1.356 . S
H822 C816 0.930 . S
H823 C820 0.930 . S
C824 C826 1.348 . S
C824 C827 1.356 . S
C824 O854 1.325 . S
N825 C828 1.314 . S
N825 C829 1.279 . S
C826 C824 1.348 . S
C826 C828 1.353 . S
C826 H868 0.929 . S
C827 C824 1.356 . S
C827 C829 1.358 . S
C827 H869 0.930 . S
C828 N825 1.314 . S
C828 C826 1.353 . S
C828 H870 0.930 . S
C829 N825 1.279 . S
C829 C827 1.358 . S
C829 H871 0.930 . S
C830 C831 1.348 . S
C830 C832 1.356 . S
C830 O855 1.325 . S
C831 C830 1.348 . S
C831 C833 1.353 . S
C831 H872 0.929 . S
C832 C830 1.356 . S
C832 C834 1.358 . S
C832 H873 0.930 . S
C833 C831 1.353 . S
C833 N835 1.314 . S
C833 H874 0.930 . S
C834 C832 1.358 . S
C834 N835 1.279 . S
C834 H875 0.930 . S
N835 C833 1.314 . S
N835 C834 1.279 . S
C836 C838 1.353 . S
C836 N839 1.314 . S
C836 H842 0.930 . S
C837 N839 1.279 . S
C837 C840 1.358 . S
C837 H843 0.930 . S
C838 C836 1.353 . S
C838 C841 1.348 . S
C838 H876 0.929 . S
N839 Li794 1.990 . S
N839 C836 1.314 . S
N839 C837 1.279 . S
C840 C837 1.358 . S
C840 C841 1.356 . S
C840 H877 0.930 . S
C841 C838 1.348 . S
C841 C840 1.356 . S
H842 C836 0.930 . S
H843 C837 0.930 . S
C844 N845 1.314 . S
C844 C846 1.353 . S
C844 H850 0.930 . S
N845 Li795 1.990 . S
N845 C844 1.314 . S
N845 C848 1.279 . S
C846 C844 1.353 . S
C846 C849 1.348 . S
C846 H878 0.929 . S
C847 C848 1.358 . S
C847 C849 1.356 . S
C847 H879 0.930 . S
C848 N845 1.279 . S
C848 C847 1.358 . S
C848 H851 0.930 . S
C849 C846 1.348 . S
C849 C847 1.356 . S
H850 C844 0.930 . S
H851 C848 0.930 . S
O852 Li792 1.956 . S
O852 Li793 1.970 . S
O852 Li794 1.961 . S
O852 C796 1.325 . S
O853 Li792 1.970 . S
O853 Li793 1.956 . S
O853 Li795 1.961 . S
O853 C802 1.325 . S
O854 Li792 1.961 . S
O854 Li794 1.956 . S
O854 Li795 1.970 . S
O854 C824 1.325 . S
O855 Li793 1.961 . S
O855 Li794 1.970 . S
O855 Li795 1.956 . S
O855 C830 1.325 . S
H856 C798 0.929 . S
H857 C799 0.930 . S
H858 C800 0.930 . S
H859 C801 0.930 . S
H860 C803 0.930 . S
H861 C805 0.929 . S
H862 C806 0.930 . S
H863 C807 0.930 1_565 S
H864 C810 0.930 . S
H865 C813 0.929 . S
H866 C818 0.929 . S
H867 C819 0.930 . S
H868 C826 0.929 . S
H869 C827 0.930 . S
H870 C828 0.930 . S
H871 C829 0.930 . S
H872 C831 0.929 . S
H873 C832 0.930 . S
H874 C833 0.930 . S
H875 C834 0.930 . S
H876 C838 0.929 . S
H877 C840 0.930 . S
H878 C846 0.929 . S
H879 C847 0.930 . S
Li880 N897 1.990 . S
Li880 O940 1.956 . S
Li880 O941 1.970 . S
Li880 O942 1.961 . S
Li881 N905 1.990 . S
Li881 O940 1.970 . S
Li881 O941 1.956 . S
Li881 O943 1.961 . S
Li882 N927 1.990 . S
Li882 O940 1.961 . S
Li882 O942 1.956 . S
Li882 O943 1.970 . S
Li883 N933 1.990 . S
Li883 O941 1.961 . S
Li883 O942 1.970 . S
Li883 O943 1.956 . S
C884 C886 1.348 . S
C884 C887 1.356 . S
C884 O940 1.325 . S
N885 C888 1.314 . S
N885 C889 1.279 . S
C886 C884 1.348 . S
C886 C888 1.353 . S
C886 H944 0.929 . S
C887 C884 1.356 . S
C887 C889 1.358 . S
C887 H945 0.930 . S
C888 N885 1.314 . S
C888 C886 1.353 . S
C888 H946 0.930 . S
C889 N885 1.279 . S
C889 C887 1.358 . S
C889 H947 0.930 . S
C890 C893 1.348 . S
C890 C894 1.356 . S
C890 O941 1.325 . S
C891 N892 1.279 . S
C891 C894 1.358 . S
C891 H948 0.930 . S
N892 C891 1.279 . S
N892 C895 1.314 . S
C893 C890 1.348 . S
C893 C895 1.353 . S
C893 H949 0.929 . S
C894 C890 1.356 . S
C894 C891 1.358 . S
C894 H950 0.930 . S
C895 N892 1.314 . S
C895 C893 1.353 . S
C895 H951 0.930 . S
C896 N897 1.314 . S
C896 C901 1.353 . S
C896 H902 0.930 . S
N897 Li880 1.990 . S
N897 C896 1.314 . S
N897 C899 1.279 . S
C898 C899 1.358 . S
C898 C900 1.356 . S
C898 H952 0.930 . S
C899 N897 1.279 . S
C899 C898 1.358 . S
C899 H903 0.930 . S
C900 C898 1.356 . S
C900 C901 1.348 . S
C901 C896 1.353 . S
C901 C900 1.348 . S
C901 H953 0.929 . S
H902 C896 0.930 . S
H903 C899 0.930 . S
C904 N905 1.314 . S
C904 C906 1.353 . S
C904 H910 0.930 . S
N905 Li881 1.990 . S
N905 C904 1.314 . S
N905 C908 1.279 . S
C906 C904 1.353 . S
C906 C909 1.348 . S
C906 H954 0.929 . S
C907 C908 1.358 . S
C907 C909 1.356 . S
C907 H955 0.930 . S
C908 N905 1.279 . S
C908 C907 1.358 . S
C908 H911 0.930 . S
C909 C906 1.348 . S
C909 C907 1.356 . S
H910 C904 0.930 . S
H911 C908 0.930 . S
C912 C914 1.348 . S
C912 C915 1.356 . S
C912 O942 1.325 . S
N913 C916 1.314 . S
N913 C917 1.279 . S
C914 C912 1.348 . S
C914 C916 1.353 . S
C914 H956 0.929 . S
C915 C912 1.356 . S
C915 C917 1.358 . S
C915 H957 0.930 . S
C916 N913 1.314 . S
C916 C914 1.353 . S
C916 H958 0.930 . S
C917 N913 1.279 . S
C917 C915 1.358 . S
C917 H959 0.930 . S
C918 C919 1.348 . S
C918 C920 1.356 . S
C918 O943 1.325 . S
C919 C918 1.348 . S
C919 C921 1.353 . S
C919 H960 0.929 . S
C920 C918 1.356 . S
C920 C922 1.358 . S
C920 H961 0.930 . S
C921 C919 1.353 . S
C921 N923 1.314 . S
C921 H962 0.930 . S
C922 C920 1.358 . S
C922 N923 1.279 . S
C922 H963 0.930 . S
N923 C921 1.314 . S
N923 C922 1.279 . S
C924 C926 1.353 . S
C924 N927 1.314 . S
C924 H930 0.930 . S
C925 N927 1.279 . S
C925 C928 1.358 . S
C925 H931 0.930 . S
C926 C924 1.353 . S
C926 C929 1.348 . S
C926 H964 0.929 . S
N927 Li882 1.990 . S
N927 C924 1.314 . S
N927 C925 1.279 . S
C928 C925 1.358 . S
C928 C929 1.356 . S
C928 H965 0.930 . S
C929 C926 1.348 . S
C929 C928 1.356 . S
H930 C924 0.930 . S
H931 C925 0.930 . S
C932 N933 1.314 . S
C932 C934 1.353 . S
C932 H938 0.930 . S
N933 Li883 1.990 . S
N933 C932 1.314 . S
N933 C936 1.279 . S
C934 C932 1.353 . S
C934 C937 1.348 . S
C934 H966 0.929 . S
C935 C936 1.358 . S
C935 C937 1.356 . S
C935 H967 0.930 . S
C936 N933 1.279 . S
C936 C935 1.358 . S
C936 H939 0.930 . S
C937 C934 1.348 . S
C937 C935 1.356 . S
H938 C932 0.930 . S
H939 C936 0.930 . S
O940 Li880 1.956 . S
O940 Li881 1.970 . S
O940 Li882 1.961 . S
O940 C884 1.325 . S
O941 Li880 1.970 . S
O941 Li881 1.956 . S
O941 Li883 1.961 . S
O941 C890 1.325 . S
O942 Li880 1.961 . S
O942 Li882 1.956 . S
O942 Li883 1.970 . S
O942 C912 1.325 . S
O943 Li881 1.961 . S
O943 Li882 1.970 . S
O943 Li883 1.956 . S
O943 C918 1.325 . S
H944 C886 0.929 . S
H945 C887 0.930 . S
H946 C888 0.930 . S
H947 C889 0.930 . S
H948 C891 0.930 . S
H949 C893 0.929 . S
H950 C894 0.930 . S
H951 C895 0.930 . S
H952 C898 0.930 . S
H953 C901 0.929 . S
H954 C906 0.929 . S
H955 C907 0.930 . S
H956 C914 0.929 . S
H957 C915 0.930 . S
H958 C916 0.930 . S
H959 C917 0.930 . S
H960 C919 0.929 . S
H961 C920 0.930 . S
H962 C921 0.930 . S
H963 C922 0.930 . S
H964 C926 0.929 . S
H965 C928 0.930 . S
H966 C934 0.929 . S
H967 C935 0.930 . S
Li968 N985 1.990 1_655 S
Li968 O1028 1.956 . S
Li968 O1029 1.970 . S
Li968 O1030 1.961 . S
Li969 N993 1.990 . S
Li969 O1028 1.970 . S
Li969 O1029 1.956 . S
Li969 O1031 1.961 . S
Li970 N1015 1.990 . S
Li970 O1028 1.961 . S
Li970 O1030 1.956 . S
Li970 O1031 1.970 . S
Li971 N1021 1.990 . S
Li971 O1029 1.961 . S
Li971 O1030 1.970 . S
Li971 O1031 1.956 . S
C972 C974 1.348 . S
C972 C975 1.356 . S
C972 O1028 1.325 . S
N973 C976 1.314 . S
N973 C977 1.279 . S
C974 C972 1.348 . S
C974 C976 1.353 . S
C974 H1032 0.929 . S
C975 C972 1.356 . S
C975 C977 1.358 . S
C975 H1033 0.930 . S
C976 N973 1.314 . S
C976 C974 1.353 . S
C976 H1034 0.930 . S
C977 N973 1.279 . S
C977 C975 1.358 . S
C977 H1035 0.930 . S
C978 C981 1.348 . S
C978 C982 1.356 . S
C978 O1029 1.325 . S
C979 N980 1.279 . S
C979 C982 1.358 . S
C979 H1036 0.930 . S
N980 C979 1.279 . S
N980 C983 1.314 . S
C981 C978 1.348 . S
C981 C983 1.353 . S
C981 H1037 0.929 . S
C982 C978 1.356 . S
C982 C979 1.358 . S
C982 H1038 0.930 . S
C983 N980 1.314 . S
C983 C981 1.353 . S
C983 H1039 0.930 1_655 S
C984 N985 1.314 . S
C984 C989 1.353 . S
C984 H990 0.930 1_455 S
N985 Li968 1.990 1_455 S
N985 C984 1.314 . S
N985 C987 1.279 . S
C986 C987 1.358 . S
C986 C988 1.356 . S
C986 H1040 0.930 . S
C987 N985 1.279 . S
C987 C986 1.358 . S
C987 H991 0.930 . S
C988 C986 1.356 . S
C988 C989 1.348 . S
C989 C984 1.353 . S
C989 C988 1.348 . S
C989 H1041 0.929 . S
H990 C984 0.930 1_655 S
H991 C987 0.930 . S
C992 N993 1.314 . S
C992 C994 1.353 . S
C992 H998 0.930 . S
N993 Li969 1.990 . S
N993 C992 1.314 . S
N993 C996 1.279 . S
C994 C992 1.353 . S
C994 C997 1.348 . S
C994 H1042 0.929 . S
C995 C996 1.358 . S
C995 C997 1.356 . S
C995 H1043 0.930 . S
C996 N993 1.279 . S
C996 C995 1.358 . S
C996 H999 0.930 . S
C997 C994 1.348 . S
C997 C995 1.356 . S
H998 C992 0.930 . S
H999 C996 0.930 . S
C1000 C1002 1.348 . S
C1000 C1003 1.356 . S
C1000 O1030 1.325 . S
N1001 C1004 1.314 . S
N1001 C1005 1.279 . S
C1002 C1000 1.348 . S
C1002 C1004 1.353 . S
C1002 H1044 0.929 . S
C1003 C1000 1.356 . S
C1003 C1005 1.358 . S
C1003 H1045 0.930 . S
C1004 N1001 1.314 . S
C1004 C1002 1.353 . S
C1004 H1046 0.930 . S
C1005 N1001 1.279 . S
C1005 C1003 1.358 . S
C1005 H1047 0.930 . S
C1006 C1007 1.348 . S
C1006 C1008 1.356 . S
C1006 O1031 1.325 . S
C1007 C1006 1.348 . S
C1007 C1009 1.353 . S
C1007 H1048 0.929 . S
C1008 C1006 1.356 . S
C1008 C1010 1.358 . S
C1008 H1049 0.930 . S
C1009 C1007 1.353 . S
C1009 N1011 1.314 . S
C1009 H1050 0.930 . S
C1010 C1008 1.358 . S
C1010 N1011 1.279 . S
C1010 H1051 0.930 . S
N1011 C1009 1.314 . S
N1011 C1010 1.279 . S
C1012 C1014 1.353 . S
C1012 N1015 1.314 . S
C1012 H1018 0.930 . S
C1013 N1015 1.279 . S
C1013 C1016 1.358 . S
C1013 H1019 0.930 . S
C1014 C1012 1.353 . S
C1014 C1017 1.348 . S
C1014 H1052 0.929 . S
N1015 Li970 1.990 . S
N1015 C1012 1.314 . S
N1015 C1013 1.279 . S
C1016 C1013 1.358 . S
C1016 C1017 1.356 . S
C1016 H1053 0.930 . S
C1017 C1014 1.348 . S
C1017 C1016 1.356 . S
H1018 C1012 0.930 . S
H1019 C1013 0.930 . S
C1020 N1021 1.314 . S
C1020 C1022 1.353 . S
C1020 H1026 0.930 . S
N1021 Li971 1.990 . S
N1021 C1020 1.314 . S
N1021 C1024 1.279 . S
C1022 C1020 1.353 . S
C1022 C1025 1.348 . S
C1022 H1054 0.929 . S
C1023 C1024 1.358 . S
C1023 C1025 1.356 . S
C1023 H1055 0.930 . S
C1024 N1021 1.279 . S
C1024 C1023 1.358 . S
C1024 H1027 0.930 . S
C1025 C1022 1.348 . S
C1025 C1023 1.356 . S
H1026 C1020 0.930 . S
H1027 C1024 0.930 . S
O1028 Li968 1.956 . S
O1028 Li969 1.970 . S
O1028 Li970 1.961 . S
O1028 C972 1.325 . S
O1029 Li968 1.970 . S
O1029 Li969 1.956 . S
O1029 Li971 1.961 . S
O1029 C978 1.325 . S
O1030 Li968 1.961 . S
O1030 Li970 1.956 . S
O1030 Li971 1.970 . S
O1030 C1000 1.325 . S
O1031 Li969 1.961 . S
O1031 Li970 1.970 . S
O1031 Li971 1.956 . S
O1031 C1006 1.325 . S
H1032 C974 0.929 . S
H1033 C975 0.930 . S
H1034 C976 0.930 . S
H1035 C977 0.930 . S
H1036 C979 0.930 . S
H1037 C981 0.929 . S
H1038 C982 0.930 . S
H1039 C983 0.930 1_455 S
H1040 C986 0.930 . S
H1041 C989 0.929 . S
H1042 C994 0.929 . S
H1043 C995 0.930 . S
H1044 C1002 0.929 . S
H1045 C1003 0.930 . S
H1046 C1004 0.930 . S
H1047 C1005 0.930 . S
H1048 C1007 0.929 . S
H1049 C1008 0.930 . S
H1050 C1009 0.930 . S
H1051 C1010 0.930 . S
H1052 C1014 0.929 . S
H1053 C1016 0.930 . S
H1054 C1022 0.929 . S
H1055 C1023 0.930 . S
C1056 C1057 1.363 . S
C1056 C1062 1.379 . S
C1056 N1064 1.356 . S
C1057 C1056 1.363 . S
C1057 C1063 1.363 . S
C1058 C1059 1.363 . S
C1058 C1063 1.379 . S
C1058 N1065 1.356 . S
C1059 C1058 1.363 . S
C1059 C1062 1.363 . S
N1060 C1062 1.356 . S
N1060 H1072 0.984 . S
N1060 H1073 0.985 . S
N1061 C1063 1.356 . S
N1061 H1066 0.984 . S
N1061 H1067 0.985 . S
C1062 C1056 1.379 . S
C1062 C1059 1.363 . S
C1062 N1060 1.356 . S
C1063 C1057 1.363 . S
C1063 C1058 1.379 . S
C1063 N1061 1.356 . S
N1064 C1056 1.356 . S
N1064 H1070 0.984 . S
N1064 H1071 0.984 . S
N1065 C1058 1.356 . S
N1065 H1068 0.984 . S
N1065 H1069 0.985 . S
H1066 N1061 0.984 . S
H1067 N1061 0.985 . S
H1068 N1065 0.984 . S
H1069 N1065 0.985 . S
H1070 N1064 0.984 . S
H1071 N1064 0.984 . S
H1072 N1060 0.984 . S
H1073 N1060 0.985 . S
C1074 C1075 1.363 . S
C1074 C1080 1.379 . S
C1074 N1082 1.356 . S
C1075 C1074 1.363 . S
C1075 C1081 1.363 . S
C1076 C1077 1.363 . S
C1076 C1081 1.379 . S
C1076 N1083 1.356 . S
C1077 C1076 1.363 . S
C1077 C1080 1.363 . S
N1078 C1080 1.356 . S
N1078 H1090 0.984 . S
N1078 H1091 0.985 . S
N1079 C1081 1.356 . S
N1079 H1084 0.984 . S
N1079 H1085 0.985 . S
C1080 C1074 1.379 . S
C1080 C1077 1.363 . S
C1080 N1078 1.356 . S
C1081 C1075 1.363 . S
C1081 C1076 1.379 . S
C1081 N1079 1.356 . S
N1082 C1074 1.356 . S
N1082 H1088 0.984 . S
N1082 H1089 0.984 . S
N1083 C1076 1.356 . S
N1083 H1086 0.984 . S
N1083 H1087 0.985 . S
H1084 N1079 0.984 . S
H1085 N1079 0.985 . S
H1086 N1083 0.984 . S
H1087 N1083 0.985 . S
H1088 N1082 0.984 . S
H1089 N1082 0.984 . S
H1090 N1078 0.984 . S
H1091 N1078 0.985 . S
C1092 C1093 1.363 . S
C1092 C1098 1.379 . S
C1092 N1100 1.356 . S
C1093 C1092 1.363 . S
C1093 C1099 1.363 . S
C1094 C1095 1.363 . S
C1094 C1099 1.379 . S
C1094 N1101 1.356 . S
C1095 C1094 1.363 . S
C1095 C1098 1.363 . S
N1096 C1098 1.356 . S
N1096 H1108 0.984 . S
N1096 H1109 0.985 . S
N1097 C1099 1.356 . S
N1097 H1102 0.984 . S
N1097 H1103 0.985 . S
C1098 C1092 1.379 . S
C1098 C1095 1.363 . S
C1098 N1096 1.356 . S
C1099 C1093 1.363 . S
C1099 C1094 1.379 . S
C1099 N1097 1.356 . S
N1100 C1092 1.356 . S
N1100 H1106 0.984 . S
N1100 H1107 0.984 . S
N1101 C1094 1.356 . S
N1101 H1104 0.984 . S
N1101 H1105 0.985 . S
H1102 N1097 0.984 . S
H1103 N1097 0.985 . S
H1104 N1101 0.984 . S
H1105 N1101 0.985 . S
H1106 N1100 0.984 . S
H1107 N1100 0.984 . S
H1108 N1096 0.984 . S
H1109 N1096 0.985 . S
C1110 C1111 1.363 . S
C1110 C1116 1.379 . S
C1110 N1118 1.356 . S
C1111 C1110 1.363 . S
C1111 C1117 1.363 . S
C1112 C1113 1.363 . S
C1112 C1117 1.379 . S
C1112 N1119 1.356 . S
C1113 C1112 1.363 . S
C1113 C1116 1.363 . S
N1114 C1116 1.356 . S
N1114 H1126 0.984 . S
N1114 H1127 0.985 . S
N1115 C1117 1.356 . S
N1115 H1120 0.984 . S
N1115 H1121 0.985 . S
C1116 C1110 1.379 . S
C1116 C1113 1.363 . S
C1116 N1114 1.356 . S
C1117 C1111 1.363 . S
C1117 C1112 1.379 . S
C1117 N1115 1.356 . S
N1118 C1110 1.356 . S
N1118 H1124 0.984 . S
N1118 H1125 0.984 . S
N1119 C1112 1.356 . S
N1119 H1122 0.984 . S
N1119 H1123 0.985 . S
H1120 N1115 0.984 . S
H1121 N1115 0.985 . S
H1122 N1119 0.984 . S
H1123 N1119 0.985 . S
H1124 N1118 0.984 . S
H1125 N1118 0.984 . S
H1126 N1114 0.984 . S
H1127 N1114 0.985 . S
C1128 C1129 1.363 . S
C1128 C1134 1.379 . S
C1128 N1136 1.356 . S
C1129 C1128 1.363 . S
C1129 C1135 1.363 . S
C1130 C1131 1.363 . S
C1130 C1135 1.379 . S
C1130 N1137 1.356 . S
C1131 C1130 1.363 . S
C1131 C1134 1.363 . S
N1132 C1134 1.356 . S
N1132 H1144 0.984 . S
N1132 H1145 0.985 . S
N1133 C1135 1.356 . S
N1133 H1138 0.984 . S
N1133 H1139 0.985 . S
C1134 C1128 1.379 . S
C1134 C1131 1.363 . S
C1134 N1132 1.356 . S
C1135 C1129 1.363 . S
C1135 C1130 1.379 . S
C1135 N1133 1.356 . S
N1136 C1128 1.356 . S
N1136 H1142 0.984 . S
N1136 H1143 0.984 . S
N1137 C1130 1.356 . S
N1137 H1140 0.984 . S
N1137 H1141 0.985 . S
H1138 N1133 0.984 . S
H1139 N1133 0.985 . S
H1140 N1137 0.984 . S
H1141 N1137 0.985 . S
H1142 N1136 0.984 . S
H1143 N1136 0.984 . S
H1144 N1132 0.984 . S
H1145 N1132 0.985 . S
C1146 C1147 1.363 . S
C1146 C1152 1.379 . S
C1146 N1154 1.356 . S
C1147 C1146 1.363 . S
C1147 C1153 1.363 . S
C1148 C1149 1.363 . S
C1148 C1153 1.379 . S
C1148 N1155 1.356 . S
C1149 C1148 1.363 . S
C1149 C1152 1.363 . S
N1150 C1152 1.356 . S
N1150 H1162 0.984 . S
N1150 H1163 0.985 . S
N1151 C1153 1.356 . S
N1151 H1156 0.984 . S
N1151 H1157 0.985 . S
C1152 C1146 1.379 . S
C1152 C1149 1.363 . S
C1152 N1150 1.356 . S
C1153 C1147 1.363 . S
C1153 C1148 1.379 . S
C1153 N1151 1.356 . S
N1154 C1146 1.356 . S
N1154 H1160 0.984 . S
N1154 H1161 0.984 . S
N1155 C1148 1.356 . S
N1155 H1158 0.984 . S
N1155 H1159 0.985 . S
H1156 N1151 0.984 . S
H1157 N1151 0.985 . S
H1158 N1155 0.984 . S
H1159 N1155 0.985 . S
H1160 N1154 0.984 . S
H1161 N1154 0.984 . S
H1162 N1150 0.984 . S
H1163 N1150 0.985 . S
C1164 C1165 1.363 1_556 S
C1164 C1170 1.379 . S
C1164 N1172 1.356 . S
C1165 C1164 1.363 1_554 S
C1165 C1171 1.363 . S
C1166 C1167 1.363 . S
C1166 C1171 1.379 1_556 S
C1166 N1173 1.356 . S
C1167 C1166 1.363 . S
C1167 C1170 1.363 . S
N1168 C1170 1.356 . S
N1168 H1180 0.984 . S
N1168 H1181 0.985 . S
N1169 C1171 1.356 . S
N1169 H1174 0.984 . S
N1169 H1175 0.985 . S
C1170 C1164 1.379 . S
C1170 C1167 1.363 . S
C1170 N1168 1.356 . S
C1171 C1165 1.363 . S
C1171 C1166 1.379 1_554 S
C1171 N1169 1.356 . S
N1172 C1164 1.356 . S
N1172 H1178 0.984 . S
N1172 H1179 0.984 1_556 S
N1173 C1166 1.356 . S
N1173 H1176 0.984 . S
N1173 H1177 0.985 . S
H1174 N1169 0.984 . S
H1175 N1169 0.985 . S
H1176 N1173 0.984 . S
H1177 N1173 0.985 . S
H1178 N1172 0.984 . S
H1179 N1172 0.984 1_554 S
H1180 N1168 0.984 . S
H1181 N1168 0.985 . S
C1182 C1183 1.363 . S
C1182 C1188 1.379 . S
C1182 N1190 1.356 . S
C1183 C1182 1.363 . S
C1183 C1189 1.363 . S
C1184 C1185 1.363 . S
C1184 C1189 1.379 . S
C1184 N1191 1.356 . S
C1185 C1184 1.363 . S
C1185 C1188 1.363 . S
N1186 C1188 1.356 . S
N1186 H1198 0.984 . S
N1186 H1199 0.985 . S
N1187 C1189 1.356 . S
N1187 H1192 0.984 . S
N1187 H1193 0.985 . S
C1188 C1182 1.379 . S
C1188 C1185 1.363 . S
C1188 N1186 1.356 . S
C1189 C1183 1.363 . S
C1189 C1184 1.379 . S
C1189 N1187 1.356 . S
N1190 C1182 1.356 . S
N1190 H1196 0.984 . S
N1190 H1197 0.984 . S
N1191 C1184 1.356 . S
N1191 H1194 0.984 . S
N1191 H1195 0.985 . S
H1192 N1187 0.984 . S
H1193 N1187 0.985 . S
H1194 N1191 0.984 . S
H1195 N1191 0.985 . S
H1196 N1190 0.984 . S
H1197 N1190 0.984 . S
H1198 N1186 0.984 . S
H1199 N1186 0.985 . S
C1200 C1201 1.363 . S
C1200 C1206 1.379 . S
C1200 N1208 1.356 . S
C1201 C1200 1.363 . S
C1201 C1207 1.363 . S
C1202 C1203 1.363 . S
C1202 C1207 1.379 . S
C1202 N1209 1.356 . S
C1203 C1202 1.363 . S
C1203 C1206 1.363 . S
N1204 C1206 1.356 . S
N1204 H1216 0.984 . S
N1204 H1217 0.985 . S
N1205 C1207 1.356 . S
N1205 H1210 0.984 . S
N1205 H1211 0.985 . S
C1206 C1200 1.379 . S
C1206 C1203 1.363 . S
C1206 N1204 1.356 . S
C1207 C1201 1.363 . S
C1207 C1202 1.379 . S
C1207 N1205 1.356 . S
N1208 C1200 1.356 . S
N1208 H1214 0.984 . S
N1208 H1215 0.984 . S
N1209 C1202 1.356 . S
N1209 H1212 0.984 . S
N1209 H1213 0.985 . S
H1210 N1205 0.984 . S
H1211 N1205 0.985 . S
H1212 N1209 0.984 . S
H1213 N1209 0.985 . S
H1214 N1208 0.984 . S
H1215 N1208 0.984 . S
H1216 N1204 0.984 . S
H1217 N1204 0.985 . S
C1218 C1219 1.363 . S
C1218 C1224 1.379 . S
C1218 N1226 1.356 . S
C1219 C1218 1.363 . S
C1219 C1225 1.363 . S
C1220 C1221 1.363 . S
C1220 C1225 1.379 . S
C1220 N1227 1.356 . S
C1221 C1220 1.363 . S
C1221 C1224 1.363 . S
N1222 C1224 1.356 . S
N1222 H1234 0.984 . S
N1222 H1235 0.985 . S
N1223 C1225 1.356 . S
N1223 H1228 0.984 . S
N1223 H1229 0.985 . S
C1224 C1218 1.379 . S
C1224 C1221 1.363 . S
C1224 N1222 1.356 . S
C1225 C1219 1.363 . S
C1225 C1220 1.379 . S
C1225 N1223 1.356 . S
N1226 C1218 1.356 . S
N1226 H1232 0.984 . S
N1226 H1233 0.984 . S
N1227 C1220 1.356 . S
N1227 H1230 0.984 . S
N1227 H1231 0.985 . S
H1228 N1223 0.984 . S
H1229 N1223 0.985 . S
H1230 N1227 0.984 . S
H1231 N1227 0.985 . S
H1232 N1226 0.984 . S
H1233 N1226 0.984 . S
H1234 N1222 0.984 . S
H1235 N1222 0.985 . S
C1236 C1237 1.363 . S
C1236 C1242 1.379 . S
C1236 N1244 1.356 . S
C1237 C1236 1.363 . S
C1237 C1243 1.363 . S
C1238 C1239 1.363 . S
C1238 C1243 1.379 . S
C1238 N1245 1.356 . S
C1239 C1238 1.363 . S
C1239 C1242 1.363 . S
N1240 C1242 1.356 . S
N1240 H1252 0.984 . S
N1240 H1253 0.985 . S
N1241 C1243 1.356 . S
N1241 H1246 0.984 . S
N1241 H1247 0.985 . S
C1242 C1236 1.379 . S
C1242 C1239 1.363 . S
C1242 N1240 1.356 . S
C1243 C1237 1.363 . S
C1243 C1238 1.379 . S
C1243 N1241 1.356 . S
N1244 C1236 1.356 . S
N1244 H1250 0.984 . S
N1244 H1251 0.984 . S
N1245 C1238 1.356 . S
N1245 H1248 0.984 . S
N1245 H1249 0.985 . S
H1246 N1241 0.984 . S
H1247 N1241 0.985 . S
H1248 N1245 0.984 . S
H1249 N1245 0.985 . S
H1250 N1244 0.984 . S
H1251 N1244 0.984 . S
H1252 N1240 0.984 . S
H1253 N1240 0.985 . S
C1254 C1255 1.363 . S
C1254 C1260 1.379 . S
C1254 N1262 1.356 . S
C1255 C1254 1.363 . S
C1255 C1261 1.363 . S
C1256 C1257 1.363 . S
C1256 C1261 1.379 . S
C1256 N1263 1.356 . S
C1257 C1256 1.363 . S
C1257 C1260 1.363 . S
N1258 C1260 1.356 . S
N1258 H1270 0.984 . S
N1258 H1271 0.985 . S
N1259 C1261 1.356 . S
N1259 H1264 0.984 . S
N1259 H1265 0.985 . S
C1260 C1254 1.379 . S
C1260 C1257 1.363 . S
C1260 N1258 1.356 . S
C1261 C1255 1.363 . S
C1261 C1256 1.379 . S
C1261 N1259 1.356 . S
N1262 C1254 1.356 . S
N1262 H1268 0.984 . S
N1262 H1269 0.984 . S
N1263 C1256 1.356 . S
N1263 H1266 0.984 . S
N1263 H1267 0.985 . S
H1264 N1259 0.984 . S
H1265 N1259 0.985 . S
H1266 N1263 0.984 . S
H1267 N1263 0.985 . S
H1268 N1262 0.984 . S
H1269 N1262 0.984 . S
H1270 N1258 0.984 . S
H1271 N1258 0.985 . S
C1272 C1273 1.363 . S
C1272 C1278 1.379 . S
C1272 N1280 1.356 . S
C1273 C1272 1.363 . S
C1273 C1279 1.363 . S
C1274 C1275 1.363 . S
C1274 C1279 1.379 . S
C1274 N1281 1.356 . S
C1275 C1274 1.363 . S
C1275 C1278 1.363 . S
N1276 C1278 1.356 . S
N1276 H1288 0.984 . S
N1276 H1289 0.985 . S
N1277 C1279 1.356 . S
N1277 H1282 0.984 . S
N1277 H1283 0.985 . S
C1278 C1272 1.379 . S
C1278 C1275 1.363 . S
C1278 N1276 1.356 . S
C1279 C1273 1.363 . S
C1279 C1274 1.379 . S
C1279 N1277 1.356 . S
N1280 C1272 1.356 . S
N1280 H1286 0.984 . S
N1280 H1287 0.984 . S
N1281 C1274 1.356 . S
N1281 H1284 0.984 . S
N1281 H1285 0.985 . S
H1282 N1277 0.984 . S
H1283 N1277 0.985 . S
H1284 N1281 0.984 . S
H1285 N1281 0.985 . S
H1286 N1280 0.984 . S
H1287 N1280 0.984 . S
H1288 N1276 0.984 . S
H1289 N1276 0.985 . S
C1290 C1291 1.363 1_554 S
C1290 C1296 1.379 . S
C1290 N1298 1.356 . S
C1291 C1290 1.363 1_556 S
C1291 C1297 1.363 . S
C1292 C1293 1.363 . S
C1292 C1297 1.379 1_554 S
C1292 N1299 1.356 . S
C1293 C1292 1.363 . S
C1293 C1296 1.363 . S
N1294 C1296 1.356 . S
N1294 H1306 0.984 . S
N1294 H1307 0.985 . S
N1295 C1297 1.356 . S
N1295 H1300 0.984 . S
N1295 H1301 0.985 . S
C1296 C1290 1.379 . S
C1296 C1293 1.363 . S
C1296 N1294 1.356 . S
C1297 C1291 1.363 . S
C1297 C1292 1.379 1_556 S
C1297 N1295 1.356 . S
N1298 C1290 1.356 . S
N1298 H1304 0.984 . S
N1298 H1305 0.969 1_554 S
N1299 C1292 1.356 . S
N1299 H1302 0.984 . S
N1299 H1303 0.985 . S
H1300 N1295 0.984 . S
H1301 N1295 0.985 . S
H1302 N1299 0.984 . S
H1303 N1299 0.985 . S
H1304 N1298 0.984 . S
H1305 N1298 0.969 1_556 S
H1306 N1294 0.984 . S
H1307 N1294 0.985 . S
C1308 C1309 1.363 . S
C1308 C1314 1.379 . S
C1308 N1316 1.356 . S
C1309 C1308 1.363 . S
C1309 C1315 1.363 . S
C1310 C1311 1.363 . S
C1310 C1315 1.379 . S
C1310 N1317 1.356 . S
C1311 C1310 1.363 . S
C1311 C1314 1.363 . S
N1312 C1314 1.356 . S
N1312 H1324 0.984 . S
N1312 H1325 0.985 . S
N1313 C1315 1.356 . S
N1313 H1318 0.984 . S
N1313 H1319 0.985 . S
C1314 C1308 1.379 . S
C1314 C1311 1.363 . S
C1314 N1312 1.356 . S
C1315 C1309 1.363 . S
C1315 C1310 1.379 . S
C1315 N1313 1.356 . S
N1316 C1308 1.356 . S
N1316 H1322 0.984 . S
N1316 H1323 0.984 . S
N1317 C1310 1.356 . S
N1317 H1320 0.984 . S
N1317 H1321 0.985 . S
H1318 N1313 0.984 . S
H1319 N1313 0.985 . S
H1320 N1317 0.984 . S
H1321 N1317 0.985 . S
H1322 N1316 0.984 . S
H1323 N1316 0.984 . S
H1324 N1312 0.984 . S
H1325 N1312 0.985 . S
C1326 C1327 1.363 . S
C1326 C1332 1.379 . S
C1326 N1334 1.356 . S
C1327 C1326 1.363 . S
C1327 C1333 1.363 . S
C1328 C1329 1.363 . S
C1328 C1333 1.379 . S
C1328 N1335 1.356 . S
C1329 C1328 1.363 . S
C1329 C1332 1.363 . S
N1330 C1332 1.356 . S
N1330 H1342 0.984 . S
N1330 H1343 0.985 . S
N1331 C1333 1.356 . S
N1331 H1336 0.984 . S
N1331 H1337 0.985 . S
C1332 C1326 1.379 . S
C1332 C1329 1.363 . S
C1332 N1330 1.356 . S
C1333 C1327 1.363 . S
C1333 C1328 1.379 . S
C1333 N1331 1.356 . S
N1334 C1326 1.356 . S
N1334 H1340 0.984 . S
N1334 H1341 0.984 . S
N1335 C1328 1.356 . S
N1335 H1338 0.984 . S
N1335 H1339 0.985 . S
H1336 N1331 0.984 . S
H1337 N1331 0.985 . S
H1338 N1335 0.984 . S
H1339 N1335 0.985 . S
H1340 N1334 0.984 . S
H1341 N1334 0.984 . S
H1342 N1330 0.984 . S
H1343 N1330 0.985 . S
C1344 C1345 1.363 . S
C1344 C1350 1.379 . S
C1344 N1352 1.356 . S
C1345 C1344 1.363 . S
C1345 C1351 1.363 . S
C1346 C1347 1.363 . S
C1346 C1351 1.379 . S
C1346 N1353 1.356 . S
C1347 C1346 1.363 . S
C1347 C1350 1.363 . S
N1348 C1350 1.356 . S
N1348 H1360 0.984 . S
N1348 H1361 0.985 . S
N1349 C1351 1.356 . S
N1349 H1354 0.984 . S
N1349 H1355 0.985 . S
C1350 C1344 1.379 . S
C1350 C1347 1.363 . S
C1350 N1348 1.356 . S
C1351 C1345 1.363 . S
C1351 C1346 1.379 . S
C1351 N1349 1.356 . S
N1352 C1344 1.356 . S
N1352 H1358 0.984 . S
N1352 H1359 0.984 . S
N1353 C1346 1.356 . S
N1353 H1356 0.984 . S
N1353 H1357 0.985 . S
H1354 N1349 0.984 . S
H1355 N1349 0.985 . S
H1356 N1353 0.984 . S
H1357 N1353 0.985 . S
H1358 N1352 0.984 . S
H1359 N1352 0.984 . S
H1360 N1348 0.984 . S
H1361 N1348 0.985 . S
C1362 C1363 1.363 . S
C1362 C1368 1.379 . S
C1362 N1370 1.356 . S
C1363 C1362 1.363 . S
C1363 C1369 1.363 . S
C1364 C1365 1.363 . S
C1364 C1369 1.379 . S
C1364 N1371 1.356 . S
C1365 C1364 1.363 . S
C1365 C1368 1.363 . S
N1366 C1368 1.356 . S
N1366 H1378 0.984 . S
N1366 H1379 0.985 . S
N1367 C1369 1.356 . S
N1367 H1372 0.984 . S
N1367 H1373 0.985 . S
C1368 C1362 1.379 . S
C1368 C1365 1.363 . S
C1368 N1366 1.356 . S
C1369 C1363 1.363 . S
C1369 C1364 1.379 . S
C1369 N1367 1.356 . S
N1370 C1362 1.356 . S
N1370 H1376 0.984 . S
N1370 H1377 0.984 . S
N1371 C1364 1.356 . S
N1371 H1374 0.984 . S
N1371 H1375 0.985 . S
H1372 N1367 0.984 . S
H1373 N1367 0.985 . S
H1374 N1371 0.984 . S
H1375 N1371 0.985 . S
H1376 N1370 0.984 . S
H1377 N1370 0.984 . S
H1378 N1366 0.984 . S
H1379 N1366 0.985 . S
C1380 C1381 1.363 . S
C1380 C1386 1.379 . S
C1380 N1388 1.356 . S
C1381 C1380 1.363 . S
C1381 C1387 1.363 . S
C1382 C1383 1.363 . S
C1382 C1387 1.379 . S
C1382 N1389 1.356 . S
C1383 C1382 1.363 . S
C1383 C1386 1.363 . S
N1384 C1386 1.356 . S
N1384 H1396 0.984 . S
N1384 H1397 0.985 . S
N1385 C1387 1.356 . S
N1385 H1390 0.984 . S
N1385 H1391 0.985 . S
C1386 C1380 1.379 . S
C1386 C1383 1.363 . S
C1386 N1384 1.356 . S
C1387 C1381 1.363 . S
C1387 C1382 1.379 . S
C1387 N1385 1.356 . S
N1388 C1380 1.356 . S
N1388 H1394 0.984 . S
N1388 H1395 0.984 . S
N1389 C1382 1.356 . S
N1389 H1392 0.984 . S
N1389 H1393 0.985 . S
H1390 N1385 0.984 . S
H1391 N1385 0.985 . S
H1392 N1389 0.984 . S
H1393 N1389 0.985 . S
H1394 N1388 0.984 . S
H1395 N1388 0.984 . S
H1396 N1384 0.984 . S
H1397 N1384 0.985 . S
C1398 C1399 1.363 . S
C1398 C1404 1.379 . S
C1398 N1406 1.356 . S
C1399 C1398 1.363 . S
C1399 C1405 1.363 . S
C1400 C1401 1.363 . S
C1400 C1405 1.379 . S
C1400 N1407 1.356 . S
C1401 C1400 1.363 . S
C1401 C1404 1.363 . S
N1402 C1404 1.356 . S
N1402 H1414 0.984 . S
N1402 H1415 0.985 . S
N1403 C1405 1.356 . S
N1403 H1408 0.984 . S
N1403 H1409 0.985 . S
C1404 C1398 1.379 . S
C1404 C1401 1.363 . S
C1404 N1402 1.356 . S
C1405 C1399 1.363 . S
C1405 C1400 1.379 . S
C1405 N1403 1.356 . S
N1406 C1398 1.356 . S
N1406 H1412 0.984 . S
N1406 H1413 0.984 . S
N1407 C1400 1.356 . S
N1407 H1410 0.984 . S
N1407 H1411 0.985 . S
H1408 N1403 0.984 . S
H1409 N1403 0.985 . S
H1410 N1407 0.984 . S
H1411 N1407 0.985 . S
H1412 N1406 0.984 . S
H1413 N1406 0.984 . S
H1414 N1402 0.984 . S
H1415 N1402 0.985 . S
C1416 C1417 1.363 . S
C1416 C1422 1.379 . S
C1416 N1424 1.356 . S
C1417 C1416 1.363 . S
C1417 C1423 1.363 . S
C1418 C1419 1.363 . S
C1418 C1423 1.379 . S
C1418 N1425 1.356 . S
C1419 C1418 1.363 . S
C1419 C1422 1.363 . S
N1420 C1422 1.356 . S
N1420 H1432 0.984 . S
N1420 H1433 0.985 . S
N1421 C1423 1.356 . S
N1421 H1426 0.984 . S
N1421 H1427 0.985 . S
C1422 C1416 1.379 . S
C1422 C1419 1.363 . S
C1422 N1420 1.356 . S
C1423 C1417 1.363 . S
C1423 C1418 1.379 . S
C1423 N1421 1.356 . S
N1424 C1416 1.356 . S
N1424 H1430 0.984 . S
N1424 H1431 0.984 . S
N1425 C1418 1.356 . S
N1425 H1428 0.984 . S
N1425 H1429 0.985 . S
H1426 N1421 0.984 . S
H1427 N1421 0.985 . S
H1428 N1425 0.984 . S
H1429 N1425 0.985 . S
H1430 N1424 0.984 . S
H1431 N1424 0.984 . S
H1432 N1420 0.984 . S
H1433 N1420 0.985 . S
C1434 C1435 1.363 . S
C1434 C1440 1.379 . S
C1434 N1442 1.356 . S
C1435 C1434 1.363 . S
C1435 C1441 1.363 . S
C1436 C1437 1.363 . S
C1436 C1441 1.379 . S
C1436 N1443 1.356 . S
C1437 C1436 1.363 . S
C1437 C1440 1.363 . S
N1438 C1440 1.356 . S
N1438 H1450 0.984 . S
N1438 H1451 0.985 . S
N1439 C1441 1.356 . S
N1439 H1444 0.984 . S
N1439 H1445 0.985 . S
C1440 C1434 1.379 . S
C1440 C1437 1.363 . S
C1440 N1438 1.356 . S
C1441 C1435 1.363 . S
C1441 C1436 1.379 . S
C1441 N1439 1.356 . S
N1442 C1434 1.356 . S
N1442 H1448 0.984 . S
N1442 H1449 0.984 . S
N1443 C1436 1.356 . S
N1443 H1446 0.984 . S
N1443 H1447 0.985 . S
H1444 N1439 0.984 . S
H1445 N1439 0.985 . S
H1446 N1443 0.984 . S
H1447 N1443 0.985 . S
H1448 N1442 0.984 . S
H1449 N1442 0.984 . S
H1450 N1438 0.984 . S
H1451 N1438 0.985 . S
C1452 C1453 1.363 . S
C1452 C1458 1.379 . S
C1452 N1460 1.356 . S
C1453 C1452 1.363 . S
C1453 C1459 1.363 . S
C1454 C1455 1.363 . S
C1454 C1459 1.379 . S
C1454 N1461 1.356 . S
C1455 C1454 1.363 . S
C1455 C1458 1.363 . S
N1456 C1458 1.356 . S
N1456 H1468 0.984 . S
N1456 H1469 0.985 . S
N1457 C1459 1.356 . S
N1457 H1462 0.984 . S
N1457 H1463 0.985 . S
C1458 C1452 1.379 . S
C1458 C1455 1.363 . S
C1458 N1456 1.356 . S
C1459 C1453 1.363 . S
C1459 C1454 1.379 . S
C1459 N1457 1.356 . S
N1460 C1452 1.356 . S
N1460 H1466 0.984 . S
N1460 H1467 0.984 . S
N1461 C1454 1.356 . S
N1461 H1464 0.984 . S
N1461 H1465 0.985 . S
H1462 N1457 0.984 . S
H1463 N1457 0.985 . S
H1464 N1461 0.984 . S
H1465 N1461 0.985 . S
H1466 N1460 0.984 . S
H1467 N1460 0.984 . S
H1468 N1456 0.984 . S
H1469 N1456 0.985 . S
C1470 C1471 1.363 . S
C1470 C1476 1.379 . S
C1470 N1478 1.356 . S
C1471 C1470 1.363 . S
C1471 C1477 1.363 . S
C1472 C1473 1.363 . S
C1472 C1477 1.379 . S
C1472 N1479 1.356 . S
C1473 C1472 1.363 . S
C1473 C1476 1.363 . S
N1474 C1476 1.356 . S
N1474 H1486 0.984 . S
N1474 H1487 0.985 . S
N1475 C1477 1.356 . S
N1475 H1480 0.984 . S
N1475 H1481 0.985 . S
C1476 C1470 1.379 . S
C1476 C1473 1.363 . S
C1476 N1474 1.356 . S
C1477 C1471 1.363 . S
C1477 C1472 1.379 . S
C1477 N1475 1.356 . S
N1478 C1470 1.356 . S
N1478 H1484 0.984 . S
N1478 H1485 0.984 . S
N1479 C1472 1.356 . S
N1479 H1482 0.984 . S
N1479 H1483 0.985 . S
H1480 N1475 0.984 . S
H1481 N1475 0.985 . S
H1482 N1479 0.984 . S
H1483 N1479 0.985 . S
H1484 N1478 0.984 . S
H1485 N1478 0.984 . S
H1486 N1474 0.984 . S
H1487 N1474 0.985 . S
C1057 C753 1.465 . S
C1059 C57 1.465 . S
C1075 C145 1.465 . S
C1077 C821 1.465 . S
C1093 C233 1.465 . S
C1095 C900 1.465 . S
C1111 C293 1.465 . S
C1113 C997 1.465 . S
C1129 C557 1.465 . S
C1131 C372 1.465 . S
C1147 C460 1.465 . S
C1149 C645 1.465 . S
C1165 C20 1.576 . S
C1167 C469 1.555 . S
C1183 C108 1.576 . S
C1185 C49 1.555 . S
C1201 C196 1.576 . S
C1203 C137 1.555 . S
C1219 C225 1.555 . S
C1221 C313 1.576 . S
C1237 C284 1.555 . S
C1239 C409 1.576 . S
C1255 C381 1.555 . S
C1257 C497 1.576 . S
C1273 C636 1.555 . S
C1275 C577 1.576 . S
C1291 C665 1.576 . S
C1293 C761 1.555 . S
C1309 C812 1.555 . S
C1311 C733 1.576 . S
C1327 C841 1.576 . S
C1329 C909 1.555 . S
C1345 C937 1.576 . S
C1347 C988 1.555 . S
C1363 C1017 1.576 . S
C1365 C548 1.555 . S
C1381 C929 1.223 . S
C1383 C29 1.223 . S
C1399 C1025 1.223 . S
C1401 C117 1.223 . S
C1417 C585 1.223 . S
C1419 C205 1.223 . S
C1435 C321 1.223 . S
C1437 C673 1.223 . S
C1453 C401 1.223 . S
C1455 C724 1.223 . S
C1471 C849 1.223 . S
C1473 C489 1.223 . S
