# Generated by pormake.
# Topology uol, (4)-cn, num edge types: 1
# Building blocks:
#     Node 0, Type 0, BuildingBlock: ICAMEG_clean_sbu_1, # of connection points: 4
#     Node 1, Type 0, BuildingBlock: ICAMEG_clean_sbu_1, # of connection points: 4
#     Node 2, Type 0, BuildingBlock: ICAMEG_clean_sbu_1, # of connection points: 4
#     Node 3, Type 0, BuildingBlock: ICAMEG_clean_sbu_1, # of connection points: 4
#     Node 4, Type 0, BuildingBlock: ICAMEG_clean_sbu_1, # of connection points: 4
#     Node 5, Type 0, BuildingBlock: ICAMEG_clean_sbu_1, # of connection points: 4
#     Node 6, Type 0, BuildingBlock: ICAMEG_clean_sbu_1, # of connection points: 4
#     Node 7, Type 0, BuildingBlock: ICAMEG_clean_sbu_1, # of connection points: 4
#     Node 8, Type 0, BuildingBlock: ICAMEG_clean_sbu_1, # of connection points: 4
#     Node 9, Type 0, BuildingBlock: ICAMEG_clean_sbu_1, # of connection points: 4
#     Node 10, Type 0, BuildingBlock: ICAMEG_clean_sbu_1, # of connection points: 4
#     Node 11, Type 0, BuildingBlock: ICAMEG_clean_sbu_1, # of connection points: 4
#     Edge 12, Type (0, 0), BuildingBlock: AJUNOK_clean_linker_0, # of connection points: 2
#     Edge 13, Type (0, 0), BuildingBlock: AJUNOK_clean_linker_0, # of connection points: 2
#     Edge 14, Type (0, 0), BuildingBlock: AJUNOK_clean_linker_0, # of connection points: 2
#     Edge 15, Type (0, 0), BuildingBlock: AJUNOK_clean_linker_0, # of connection points: 2
#     Edge 16, Type (0, 0), BuildingBlock: AJUNOK_clean_linker_0, # of connection points: 2
#     Edge 17, Type (0, 0), BuildingBlock: AJUNOK_clean_linker_0, # of connection points: 2
#     Edge 18, Type (0, 0), BuildingBlock: AJUNOK_clean_linker_0, # of connection points: 2
#     Edge 19, Type (0, 0), BuildingBlock: AJUNOK_clean_linker_0, # of connection points: 2
#     Edge 20, Type (0, 0), BuildingBlock: AJUNOK_clean_linker_0, # of connection points: 2
#     Edge 21, Type (0, 0), BuildingBlock: AJUNOK_clean_linker_0, # of connection points: 2
#     Edge 22, Type (0, 0), BuildingBlock: AJUNOK_clean_linker_0, # of connection points: 2
#     Edge 23, Type (0, 0), BuildingBlock: AJUNOK_clean_linker_0, # of connection points: 2
#     Edge 24, Type (0, 0), BuildingBlock: AJUNOK_clean_linker_0, # of connection points: 2
#     Edge 25, Type (0, 0), BuildingBlock: AJUNOK_clean_linker_0, # of connection points: 2
#     Edge 26, Type (0, 0), BuildingBlock: AJUNOK_clean_linker_0, # of connection points: 2
#     Edge 27, Type (0, 0), BuildingBlock: AJUNOK_clean_linker_0, # of connection points: 2
#     Edge 28, Type (0, 0), BuildingBlock: AJUNOK_clean_linker_0, # of connection points: 2
#     Edge 29, Type (0, 0), BuildingBlock: AJUNOK_clean_linker_0, # of connection points: 2
#     Edge 30, Type (0, 0), BuildingBlock: AJUNOK_clean_linker_0, # of connection points: 2
#     Edge 31, Type (0, 0), BuildingBlock: AJUNOK_clean_linker_0, # of connection points: 2
#     Edge 32, Type (0, 0), BuildingBlock: AJUNOK_clean_linker_0, # of connection points: 2
#     Edge 33, Type (0, 0), BuildingBlock: AJUNOK_clean_linker_0, # of connection points: 2
#     Edge 34, Type (0, 0), BuildingBlock: AJUNOK_clean_linker_0, # of connection points: 2
#     Edge 35, Type (0, 0), BuildingBlock: AJUNOK_clean_linker_0, # of connection points: 2
# Relax obj value: 0.048
# Max RMSD: 0.110
# Mean RMSD: 0.110
data_MOF--net-uol--node1-ICAMEG_clean_sbu_1--edge1-AJUNOK_clean_linker_0
_symmetry_space_group_name_H-M    P1
_symmetry_Int_Tables_number       1
_symmetry_cell_setting            triclinic
loop_
_symmetry_equiv_pos_as_xyz
'x, y, z'
_cell_length_a     26.232651
_cell_length_b     26.24103
_cell_length_c     53.79047
_cell_angle_alpha  90.038349
_cell_angle_beta   89.98908
_cell_angle_gamma 119.93433
loop_
_atom_site_label
_atom_site_type_symbol
_atom_site_fract_x
_atom_site_fract_y
_atom_site_fract_z
_atom_type_partial_charge
Co0 Co 0.05499 0.26488 0.11904 0.0
Co1 Co 0.18251 0.39741 0.1301 0.0
O2 O 0.09693 0.34707 0.12958 0.0
C3 C 0.01775 0.26216 0.1709 0.0
O4 O 0.0737 0.29732 0.17572 0.0
C5 C 0.13699 0.46123 0.10009 0.0
O6 O 0.09923 0.41059 0.0901 0.0
O7 O 0.19002 0.37181 0.09596 0.0
O8 O 0.10804 0.28426 0.08944 0.0
H9 H 0.39208 0.44459 0.11969 0.0
H10 H 0.98866 0.32656 0.12987 0.0
O11 O 1.00166 0.24428 0.14872 0.0
H12 H 0.94019 0.25898 0.04305 0.0
H13 H 0.8747 0.06665 0.10598 0.0
H14 H 0.09068 0.18243 0.09846 0.0
H15 H 1.0065 0.23731 0.06764 0.0
H16 H 0.92858 0.17125 0.11814 0.0
O17 O 0.17468 0.46417 0.11584 0.0
H18 H 0.28427 0.38088 0.11908 0.0
H19 H 0.26285 0.52341 0.14289 0.0
H20 H 0.0385 0.07808 0.0859 0.0
H21 H 0.92037 0.34735 0.10635 0.0
H22 H 0.92971 0.01948 0.08967 0.0
H23 H 0.89636 0.31418 0.0625 0.0
O24 O 0.10864 0.24685 0.13852 0.0
H25 H 0.0942 0.46467 0.19643 0.0
H26 H 0.24281 0.40705 0.17831 0.0
H27 H 0.23116 0.43254 0.22127 0.0
H28 H 0.15634 0.4615 0.23056 0.0
H29 H 0.10687 0.43823 0.15377 0.0
H30 H 0.37047 0.58882 0.1436 0.0
H31 H 0.43589 0.54944 0.13201 0.0
O32 O 0.1922 0.33238 0.14431 0.0
C33 C 0.1587 0.32591 0.08283 0.0
C34 C 0.36406 0.46231 0.12475 0.0
C35 C 0.35192 0.54325 0.13815 0.0
N36 N 0.26725 0.44839 0.13083 0.0
C37 C 0.30295 0.42642 0.12443 0.0
C38 C 0.29099 0.50605 0.13761 0.0
C39 C 0.3886 0.52112 0.13166 0.0
C40 C 0.97795 0.31147 0.11088 0.0
N41 N 1.00209 0.28134 0.1 0.0
C42 C 0.9394 0.32352 0.09762 0.0
C43 C 0.92597 0.30492 0.07302 0.0
C44 C 0.95066 0.2741 0.06208 0.0
C45 C 0.98868 0.26247 0.07597 0.0
C46 C 0.92209 0.09178 0.10421 0.0
C47 C 0.04329 0.15736 0.09994 0.0
C48 C 0.95285 0.15099 0.11111 0.0
N49 N 0.01267 0.18305 0.10882 0.0
C50 C 0.01402 0.09822 0.09289 0.0
C51 C 0.95299 0.06534 0.09504 0.0
C52 C 0.16122 0.27665 0.14657 0.0
C53 C 0.12709 0.45231 0.19259 0.0
C54 C 0.21025 0.41975 0.18218 0.0
C55 C 0.20389 0.43418 0.20654 0.0
C56 C 0.16192 0.45045 0.21174 0.0
N57 N 0.17581 0.42151 0.1635 0.0
C58 C 0.1347 0.43762 0.16845 0.0
Co59 Co 0.80326 0.05928 0.28571 0.0
Co60 Co 0.78717 0.18097 0.29383 0.0
O61 O 0.75566 0.09554 0.29406 0.0
C62 C 0.74867 0.00492 0.33391 0.0
O63 O 0.75625 0.05613 0.34091 0.0
C64 C 0.67576 0.13243 0.26486 0.0
O65 O 0.68836 0.09458 0.2547 0.0
O66 O 0.81719 0.18708 0.25926 0.0
O67 O 0.84593 0.1194 0.25939 0.0
H68 H 0.93861 0.39171 0.27685 0.0
H69 H 0.67373 0.98353 0.28768 0.0
O70 O 0.7633 0.99806 0.31215 0.0
H71 H 0.7289 0.96877 0.20144 0.0
H72 H 0.83791 0.88952 0.27075 0.0
H73 H 0.92952 0.1054 0.27442 0.0
H74 H 0.80485 0.02954 0.23224 0.0
H75 H 0.77802 0.93572 0.27998 0.0
O76 O 0.71064 0.16988 0.28058 0.0
H77 H 0.899 0.28454 0.2775 0.0
H78 H 0.73918 0.25832 0.30887 0.0
H79 H 0.99088 0.06103 0.26493 0.0
H80 H 0.59638 0.92166 0.25755 0.0
H81 H 0.94506 0.95233 0.26315 0.0
H82 H 0.62382 0.91422 0.21405 0.0
O83 O 0.86457 0.11008 0.31013 0.0
H84 H 0.63572 0.09528 0.36171 0.0
H85 H 0.84002 0.24444 0.34135 0.0
H86 H 0.80473 0.2358 0.38447 0.0
H87 H 0.70183 0.16088 0.39487 0.0
H88 H 0.67313 0.10483 0.3189 0.0
H89 H 0.77683 0.36523 0.30843 0.0
H90 H 0.87737 0.43278 0.29247 0.0
O91 O 0.8649 0.19544 0.30709 0.0
C92 C 0.84508 0.16342 0.24991 0.0
C93 C 0.89482 0.36279 0.28396 0.0
C94 C 0.80405 0.34791 0.30168 0.0
N95 N 0.81726 0.26523 0.29356 0.0
C96 C 0.87223 0.30204 0.28442 0.0
C97 C 0.78297 0.2874 0.30188 0.0
C98 C 0.86044 0.38578 0.29271 0.0
C99 C 0.68603 0.97989 0.26886 0.0
N100 N 0.7437 0.00989 0.26175 0.0
C101 C 0.64204 0.94505 0.25186 0.0
C102 C 0.65745 0.94099 0.22744 0.0
C103 C 0.71641 0.97164 0.22034 0.0
C104 C 0.7592 0.00612 0.23785 0.0
C105 C 0.85832 0.93694 0.27144 0.0
C106 C 0.90915 0.05807 0.27346 0.0
C107 C 0.82465 0.96335 0.27668 0.0
N108 N 0.85016 0.0232 0.27758 0.0
C109 C 0.94418 0.0332 0.26814 0.0
C110 C 0.91846 0.97221 0.26715 0.0
C111 C 0.88821 0.16517 0.31413 0.0
C112 C 0.6806 0.12821 0.3574 0.0
C113 C 0.79534 0.21146 0.34575 0.0
C114 C 0.77551 0.20694 0.37019 0.0
C115 C 0.71774 0.16495 0.376 0.0
N116 N 0.75865 0.17523 0.3276 0.0
C117 C 0.70193 0.13404 0.33316 0.0
Co118 Co 0.74955 0.79826 0.45231 0.0
Co119 Co 0.61469 0.79019 0.46041 0.0
O120 O 0.6669 0.75714 0.46232 0.0
C121 C 0.75457 0.76764 0.50476 0.0
O122 O 0.71985 0.78898 0.50972 0.0
C123 C 0.55161 0.67673 0.43292 0.0
O124 O 0.60229 0.68834 0.42335 0.0
O125 O 0.63955 0.81748 0.42554 0.0
O126 O 0.73092 0.83082 0.42215 0.0
H127 H 0.56002 0.94372 0.44001 0.0
H128 H 0.68892 0.67096 0.46392 0.0
O129 O 0.77027 0.76697 0.48241 0.0
H130 H 0.7577 0.68696 0.37745 0.0
H131 H 0.94876 0.81753 0.44006 0.0
H132 H 0.83161 0.91631 0.43169 0.0
H133 H 0.77879 0.77562 0.40132 0.0
H134 H 0.84427 0.7668 0.45236 0.0
O135 O 0.54874 0.71299 0.44782 0.0
H136 H 0.62628 0.90258 0.44284 0.0
H137 H 0.4891 0.74504 0.474 0.0
H138 H 0.93582 0.96841 0.4189 0.0
H139 H 0.66803 0.58112 0.44102 0.0
H140 H 0.99504 0.91884 0.42303 0.0
H141 H 0.70199 0.58872 0.39737 0.0
O142 O 0.76547 0.87025 0.47132 0.0
H143 H 0.54983 0.64621 0.53118 0.0
H144 H 0.6037 0.84779 0.50632 0.0
H145 H 0.57799 0.81738 0.55003 0.0
H146 H 0.55081 0.71593 0.5627 0.0
H147 H 0.57643 0.67865 0.48771 0.0
H148 H 0.42117 0.78425 0.47146 0.0
H149 H 0.4566 0.88439 0.45445 0.0
O150 O 0.67876 0.86791 0.47288 0.0
C151 C 0.68786 0.83551 0.41375 0.0
C152 C 0.54405 0.90008 0.44751 0.0
C153 C 0.46616 0.81059 0.46516 0.0
N154 N 0.5618 0.82175 0.45873 0.0
C155 C 0.5814 0.8766 0.44916 0.0
C156 C 0.50482 0.7886 0.46652 0.0
C157 C 0.48605 0.86677 0.45561 0.0
C158 C 0.70431 0.67469 0.445 0.0
N159 N 0.73452 0.72853 0.43383 0.0
C160 C 0.69219 0.62364 0.4321 0.0
C161 C 0.71119 0.62793 0.40761 0.0
C162 C 0.7423 0.68301 0.3964 0.0
C163 C 0.7537 0.73309 0.4099 0.0
C164 C 0.92335 0.8395 0.43812 0.0
C165 C 0.85702 0.89435 0.43342 0.0
C166 C 0.8642 0.81106 0.44512 0.0
N167 N 0.83172 0.83837 0.44255 0.0
C168 C 0.91606 0.92415 0.42621 0.0
C169 C 0.9493 0.89638 0.42856 0.0
C170 C 0.73412 0.8934 0.47685 0.0
C171 C 0.56143 0.69048 0.52587 0.0
C172 C 0.59196 0.80358 0.51169 0.0
C173 C 0.57735 0.78658 0.53646 0.0
C174 C 0.56206 0.72964 0.54355 0.0
N175 N 0.59125 0.76491 0.49445 0.0
C176 C 0.57625 0.709 0.50126 0.0
Co177 Co 0.9641 0.75292 0.61909 0.0
Co178 Co 0.83741 0.61911 0.62573 0.0
O179 O 0.92331 0.66867 0.62674 0.0
C180 C 0.01377 0.74563 0.6673 0.0
O181 O 0.9603 0.70562 0.67371 0.0
C182 C 0.88342 0.55261 0.59773 0.0
O183 O 0.92284 0.60258 0.58782 0.0
O184 O 0.83521 0.64502 0.59112 0.0
O185 O 0.90508 0.74047 0.59269 0.0
H186 H 0.63136 0.57561 0.60821 0.0
H187 H 0.03441 0.69296 0.62053 0.0
O188 O 0.02374 0.76886 0.6458 0.0
H189 H 0.0545 0.76783 0.53493 0.0
H190 H 0.14298 0.95221 0.60694 0.0
H191 H 0.92614 0.84021 0.60855 0.0
H192 H 0.9955 0.78531 0.56588 0.0
H193 H 0.09009 0.84531 0.61452 0.0
O194 O 0.84503 0.55122 0.61267 0.0
H195 H 0.73934 0.63738 0.60997 0.0
H196 H 0.7532 0.49403 0.6387 0.0
H197 H 0.97729 0.94705 0.6008 0.0
H198 H 0.0947 0.67535 0.59029 0.0
H199 H 0.08663 1.00377 0.60017 0.0
H200 H 0.10472 0.7126 0.5471 0.0
O201 O 0.91525 0.76591 0.64357 0.0
H202 H 0.91193 0.54447 0.69475 0.0
H203 H 0.77228 0.61111 0.67241 0.0
H204 H 0.77621 0.58216 0.71567 0.0
H205 H 0.84636 0.54848 0.72707 0.0
H206 H 0.90709 0.57452 0.65179 0.0
H207 H 0.64535 0.43054 0.63705 0.0
H208 H 0.58365 0.47136 0.62182 0.0
O209 O 0.82693 0.68514 0.6389 0.0
C210 C 0.86032 0.69733 0.5826 0.0
C211 C 0.65775 0.55735 0.61495 0.0
C212 C 0.66561 0.47592 0.63111 0.0
N213 N 0.75254 0.56948 0.62458 0.0
C214 C 0.71892 0.59216 0.61604 0.0
C215 C 0.72667 0.51205 0.63194 0.0
C216 C 0.63102 0.49885 0.62256 0.0
C217 C 0.03923 0.70998 0.60186 0.0
N218 N 0.01164 0.74026 0.59499 0.0
C219 C 0.07314 0.69959 0.58478 0.0
C220 C 0.07866 0.72041 0.56054 0.0
C221 C 0.05043 0.75134 0.55369 0.0
C222 C 0.01689 0.7609 0.57126 0.0
C223 C 0.09537 0.92793 0.60717 0.0
C224 C 0.97365 0.86447 0.60799 0.0
C225 C 0.06517 0.86739 0.61147 0.0
N226 N 1.00506 0.83645 0.61182 0.0
C227 C 1.00237 0.92502 0.60368 0.0
C228 C 0.06366 0.95683 0.60332 0.0
C229 C 0.85972 0.73772 0.64671 0.0
C230 C 0.88102 0.55886 0.68999 0.0
C231 C 0.80311 0.59674 0.67723 0.0
C232 C 0.80499 0.58022 0.70175 0.0
C233 C 0.84431 0.56124 0.70813 0.0
N234 N 0.83931 0.59435 0.65955 0.0
C235 C 0.87784 0.57561 0.66565 0.0
Co236 Co 0.21613 0.94412 0.78605 0.0
Co237 Co 0.22705 0.81961 0.79663 0.0
O238 O 0.25909 0.90482 0.79661 0.0
C239 C 0.24821 0.98476 0.8379 0.0
O240 O 0.22591 0.92922 0.84398 0.0
C241 C 0.33735 0.8679 0.76701 0.0
O242 O 0.3239 0.90538 0.75713 0.0
O243 O 0.19518 0.81172 0.76211 0.0
O244 O 0.18305 0.8901 0.75688 0.0
H245 H 0.07142 0.60789 0.78499 0.0
H246 H 0.34399 0.01543 0.7963 0.0
O247 O 0.24848 0.99911 0.81526 0.0
H248 H 0.32086 0.05379 0.70848 0.0
H249 H 0.19172 0.12021 0.7711 0.0
H250 H 0.09638 0.90412 0.76638 0.0
H251 H 0.2344 0.98723 0.73371 0.0
H252 H 0.2453 0.06945 0.78383 0.0
O253 O 0.3031 0.83018 0.78282 0.0
H254 H 0.11162 0.7152 0.78463 0.0
H255 H 0.27687 0.74279 0.80976 0.0
H256 H 0.04138 0.95314 0.75328 0.0
H257 H 0.4315 0.08336 0.77195 0.0
H258 H 0.08909 0.06194 0.75561 0.0
H259 H 0.4203 0.10253 0.72764 0.0
O260 O 0.14551 0.88929 0.80602 0.0
H261 H 0.38015 0.91025 0.86369 0.0
H262 H 0.17674 0.75689 0.84445 0.0
H263 H 0.21342 0.76767 0.88744 0.0
H264 H 0.31587 0.84477 0.89728 0.0
H265 H 0.34145 0.89825 0.82099 0.0
H266 H 0.23874 0.63582 0.8102 0.0
H267 H 0.13522 0.56751 0.79783 0.0
O268 O 0.15062 0.80689 0.81034 0.0
C269 C 0.1775 0.84129 0.74951 0.0
C270 C 0.11662 0.63716 0.7904 0.0
C271 C 0.21053 0.65286 0.80452 0.0
N272 N 0.1965 0.73527 0.79707 0.0
C273 C 0.13961 0.69797 0.79023 0.0
C274 C 0.23195 0.71343 0.80413 0.0
C275 C 0.15244 0.61455 0.7976 0.0
C276 C 0.33866 0.02415 0.77713 0.0
N277 N 0.28412 0.99747 0.76644 0.0
C278 C 0.38841 0.06243 0.76339 0.0
C279 C 0.3821 0.07311 0.73853 0.0
C280 C 0.32633 0.0457 0.72776 0.0
C281 C 0.27755 0.00781 0.74209 0.0
C282 C 0.1705 0.07278 0.76996 0.0
C283 C 0.11758 0.95153 0.76729 0.0
C284 C 0.20058 0.04378 0.77718 0.0
N285 N 0.17414 0.98392 0.77567 0.0
C286 C 0.08615 0.97901 0.75992 0.0
C287 C 0.11292 0.04007 0.76126 0.0
C288 C 0.12411 0.83615 0.81327 0.0
C289 C 0.33548 0.87639 0.85962 0.0
C290 C 0.22128 0.79062 0.84859 0.0
C291 C 0.24187 0.79644 0.87296 0.0
C292 C 0.29937 0.83969 0.87846 0.0
N293 N 0.25698 0.82672 0.8302 0.0
C294 C 0.3134 0.86923 0.83546 0.0
Co295 Co 0.25602 0.2046 0.95323 0.0
Co296 Co 0.39356 0.2192 0.9584 0.0
O297 O 0.3406 0.25166 0.95989 0.0
C298 C 0.26033 0.25919 1.00195 0.0
O299 O 0.3012 0.24685 0.00842 0.0
C300 C 0.45467 0.33037 0.92906 0.0
O301 O 0.40358 0.31902 0.92007 0.0
O302 O 0.36577 0.18822 0.9242 0.0
O303 O 0.26947 0.15902 0.92672 0.0
H304 H 0.44628 0.06311 0.94066 0.0
H305 H 0.31075 0.33435 0.95403 0.0
O306 O 0.23902 0.2474 0.98005 0.0
H307 H 0.2324 0.27447 0.86913 0.0
H308 H 0.05226 0.17457 0.94295 0.0
H309 H 0.17208 0.07774 0.94443 0.0
H310 H 0.2198 0.2002 0.90032 0.0
H311 H 0.15971 0.23283 0.94859 0.0
O312 O 0.45807 0.2948 0.94413 0.0
H313 H 0.38046 0.10482 0.94286 0.0
H314 H 0.52057 0.26617 0.97009 0.0
H315 H 0.06472 0.01777 0.93856 0.0
H316 H 0.32363 0.41006 0.92352 0.0
H317 H 1.00403 0.06631 0.93824 0.0
H318 H 0.28453 0.38025 0.88069 0.0
O319 O 0.24746 0.14436 0.97782 0.0
H320 H 0.46467 0.37301 0.02545 0.0
H321 H 0.41188 0.16927 0.00529 0.0
H322 H 0.4429 0.20633 0.04792 0.0
H323 H 0.4697 0.30901 0.05823 0.0
H324 H 0.43257 0.33374 0.98315 0.0
H325 H 0.58806 0.22637 0.96796 0.0
H326 H 0.55091 0.12402 0.9533 0.0
O327 O 0.3313 0.14241 0.97277 0.0
C328 C 0.31304 0.15899 0.91619 0.0
C329 C 0.46296 0.10771 0.94716 0.0
C330 C 0.54253 0.19934 0.96247 0.0
N331 N 0.44646 0.18765 0.95684 0.0
C332 C 0.42586 0.13154 0.94849 0.0
C333 C 0.50412 0.22167 0.96359 0.0
C334 C 0.52166 0.14191 0.95424 0.0
C335 C 0.29296 0.32102 0.93552 0.0
N336 N 0.26443 0.26296 0.92898 0.0
C337 C 0.30066 0.36409 0.91828 0.0
C338 C 0.27882 0.34734 0.89424 0.0
C339 C 0.24964 0.288 0.88773 0.0
C340 C 0.24284 0.24616 0.90545 0.0
C341 C 0.07824 0.15297 0.94313 0.0
C342 C 0.14605 0.09918 0.94391 0.0
C343 C 0.13911 0.18572 0.94634 0.0
N344 N 0.17216 0.15872 0.94685 0.0
C345 C 0.08525 0.06498 0.94065 0.0
C346 C 0.05122 0.09218 0.94041 0.0
C347 C 0.27871 0.12009 0.98092 0.0
C348 C 0.45319 0.32821 0.02119 0.0
C349 C 0.42295 0.21372 0.00966 0.0
C350 C 0.44079 0.23462 0.03381 0.0
C351 C 0.45591 0.29226 0.03958 0.0
N352 N 0.42026 0.24916 0.99173 0.0
C353 C 0.43522 0.3058 0.99723 0.0
Co354 Co 0.75187 0.9566 0.72145 0.0
Co355 Co 0.61923 0.82928 0.70943 0.0
O356 O 0.66932 0.91508 0.71094 0.0
C357 C 0.75229 1.0006 0.67072 0.0
O358 O 0.71183 0.94687 0.66486 0.0
C359 C 0.55465 0.87132 0.74122 0.0
O360 O 0.60535 0.91003 0.75087 0.0
O361 O 0.64579 0.81944 0.74299 0.0
O362 O 0.73242 0.90177 0.7503 0.0
H363 H 0.57439 0.61984 0.71636 0.0
H364 H 0.68947 0.02285 0.7123 0.0
O365 O 0.77365 0.01239 0.6926 0.0
H366 H 0.75678 0.06544 0.79934 0.0
H367 H 0.95046 0.1354 0.73623 0.0
H368 H 0.83391 0.91906 0.74072 0.0
H369 H 0.77956 1.00179 0.77339 0.0
H370 H 0.84589 0.08287 0.72398 0.0
O371 O 0.5522 0.83486 0.72493 0.0
H372 H 0.63723 0.72764 0.71822 0.0
H373 H 0.49306 0.74879 0.6968 0.0
H374 H 0.93823 0.96986 0.75331 0.0
H375 H 0.6671 0.08814 0.73729 0.0
H376 H 0.99723 0.07882 0.75109 0.0
H377 H 0.70027 0.10928 0.78123 0.0
O378 O 0.76982 0.90442 0.70088 0.0
H379 H 0.54447 0.91812 0.64659 0.0
H380 H 0.60943 0.77338 0.66004 0.0
H381 H 0.58 0.78619 0.618 0.0
H382 H 0.54717 0.85896 0.61108 0.0
H383 H 0.57521 0.9046 0.68824 0.0
H384 H 0.42851 0.64116 0.69487 0.0
H385 H 0.46916 0.57589 0.70463 0.0
O386 O 0.68437 0.82141 0.69407 0.0
C387 C 0.69137 0.85039 0.75631 0.0
C388 C 0.55613 0.6478 0.71209 0.0
C389 C 0.47426 0.65978 0.70005 0.0
N390 N 0.56887 0.74453 0.70771 0.0
C391 C 0.59153 0.70891 0.71311 0.0
C392 C 0.51099 0.7207 0.70127 0.0
C393 C 0.4971 0.62318 0.70551 0.0
C394 C 0.70453 0.03232 0.73133 0.0
N395 N 0.73529 0.00808 0.74149 0.0
C396 C 0.69158 0.06916 0.74542 0.0
C397 C 0.71016 0.08096 0.77008 0.0
C398 C 0.74174 0.05628 0.78027 0.0
C399 C 0.75409 0.01985 0.76558 0.0
C400 C 0.92516 0.08792 0.73733 0.0
C401 C 0.85915 0.96652 0.73991 0.0
C402 C 0.86596 0.05792 0.73037 0.0
N403 N 0.83368 0.99797 0.7318 0.0
C404 C 0.91826 0.99502 0.74697 0.0
C405 C 0.95138 0.05614 0.74568 0.0
C406 C 0.74017 0.85258 0.69205 0.0
C407 C 0.55848 0.88611 0.6494 0.0
C408 C 0.59535 0.80524 0.65718 0.0
C409 C 0.57859 0.81219 0.63334 0.0
C410 C 0.56011 0.85298 0.62947 0.0
N411 N 0.59374 0.83798 0.67662 0.0
C412 C 0.57564 0.87804 0.67297 0.0
Co413 Co 0.80128 0.74225 0.88651 0.0
Co414 Co 0.78606 0.60486 0.87718 0.0
O415 O 0.75556 0.65949 0.87681 0.0
C416 C 0.75854 0.74638 0.83599 0.0
O417 O 0.7713 0.70579 0.82955 0.0
C418 C 0.67339 0.54414 0.90541 0.0
O419 O 0.68664 0.59494 0.91535 0.0
O420 O 0.81614 0.62797 0.91195 0.0
O421 O 0.83736 0.722 0.91482 0.0
H422 H 0.93691 0.54347 0.89217 0.0
H423 H 0.67264 0.6887 0.87925 0.0
O424 O 0.76684 0.76525 0.85828 0.0
H425 H 0.70824 0.75332 0.96676 0.0
H426 H 0.83222 0.94529 0.90081 0.0
H427 H 0.92456 0.82131 0.90243 0.0
H428 H 0.79071 0.77023 0.93942 0.0
H429 H 0.77439 0.83966 0.89074 0.0
O430 O 0.70872 0.54038 0.89026 0.0
H431 H 0.89878 0.61241 0.89161 0.0
H432 H 0.7353 0.47864 0.86321 0.0
H433 H 0.98393 0.9267 0.91286 0.0
H434 H 0.58896 0.67189 0.90579 0.0
H435 H 0.93777 0.98947 0.91174 0.0
H436 H 0.60647 0.70391 0.94994 0.0
O437 O 0.8681 0.75485 0.86471 0.0
H438 H 0.63671 0.54504 0.80862 0.0
H439 H 0.83851 0.59249 0.82991 0.0
H440 H 0.80414 0.56781 0.78659 0.0
H441 H 0.70253 0.54382 0.77571 0.0
H442 H 0.67312 0.57062 0.85167 0.0
H443 H 0.77141 0.40805 0.86362 0.0
H444 H 0.87299 0.44038 0.8781 0.0
O445 O 0.86395 0.66739 0.86406 0.0
C446 C 0.83897 0.67735 0.92329 0.0
C447 C 0.8926 0.52882 0.88578 0.0
C448 C 0.7997 0.45284 0.86979 0.0
N449 N 0.81503 0.54973 0.87731 0.0
C450 C 0.87081 0.56771 0.88538 0.0
C451 C 0.77945 0.493 0.86966 0.0
C452 C 0.85671 0.47101 0.8779 0.0
C453 C 0.68069 0.70342 0.89836 0.0
N454 N 0.73651 0.7304 0.90778 0.0
C455 C 0.63311 0.69352 0.91333 0.0
C456 C 0.64295 0.71141 0.93811 0.0
C457 C 0.70002 0.73904 0.94757 0.0
C458 C 0.74654 0.74824 0.93204 0.0
C459 C 0.85279 0.91836 0.90131 0.0
C460 C 0.90406 0.84826 0.90224 0.0
C461 C 0.8203 0.85856 0.89558 0.0
N462 N 0.84608 0.82438 0.89601 0.0
C463 C 0.93793 0.90791 0.9081 0.0
C464 C 0.91203 0.94311 0.90751 0.0
C465 C 0.88977 0.72228 0.85911 0.0
C466 C 0.68102 0.55524 0.81315 0.0
C467 C 0.79432 0.58229 0.82533 0.0
C468 C 0.77503 0.56818 0.80077 0.0
C469 C 0.718 0.55466 0.79468 0.0
N470 N 0.75781 0.58282 0.84334 0.0
C471 C 0.70178 0.56947 0.83752 0.0
Co472 Co 0.05641 0.79908 0.05277 0.0
Co473 Co 0.18093 0.78688 0.04793 0.0
O474 O 0.0952 0.753 0.04586 0.0
C475 C 1.00458 0.73919 0.00481 0.0
O476 O 0.05591 0.74554 0.99888 0.0
C477 C 0.13225 0.67533 0.07662 0.0
O478 O 0.0925 0.68645 0.08583 0.0
O479 O 0.18182 0.81513 0.0824 0.0
O480 O 0.11454 0.84395 0.07962 0.0
H481 H 0.38717 0.9445 0.0683 0.0
H482 H 0.98343 0.66926 0.05131 0.0
O483 O 0.99706 0.7572 0.02572 0.0
H484 H 0.96092 0.72582 0.1363 0.0
H485 H 0.88215 0.82833 0.06437 0.0
H486 H 0.09862 0.92519 0.06291 0.0
H487 H 0.02261 0.80143 0.10558 0.0
H488 H 0.93142 0.7707 0.05654 0.0
O489 O 0.17084 0.71108 0.0615 0.0
H490 H 0.27965 0.9011 0.06504 0.0
H491 H 0.26368 0.74309 0.03613 0.0
H492 H 0.05117 0.98437 0.07098 0.0
H493 H 0.9207 0.59223 0.08134 0.0
H494 H 0.94215 0.93592 0.07171 0.0
H495 H 0.90935 0.62037 0.12422 0.0
O496 O 0.10787 0.86 0.02847 0.0
H497 H 0.10718 0.63646 0.97944 0.0
H498 H 0.25018 0.84136 1.00171 0.0
H499 H 0.24815 0.80712 0.95887 0.0
H500 H 0.17634 0.70386 0.94749 0.0
H501 H 0.11015 0.67297 0.02197 0.0
H502 H 0.37104 0.78464 0.03927 0.0
H503 H 0.43358 0.88615 0.05534 0.0
O504 O 0.19445 0.86411 0.03434 0.0
C505 C 0.15755 0.84357 0.09046 0.0
C506 C 0.36043 0.90029 0.06119 0.0
C507 C 0.35135 0.81056 0.04491 0.0
N508 N 0.26547 0.81987 0.05015 0.0
C509 C 0.29951 0.87551 0.05925 0.0
C510 C 0.29058 0.78724 0.0432 0.0
C511 C 0.38642 0.86752 0.05393 0.0
C512 C 0.97808 0.68185 0.06984 0.0
N513 N 1.0064 0.73973 0.07665 0.0
C514 C 0.94276 0.63804 0.0868 0.0
C515 C 0.93652 0.65386 0.11087 0.0
C516 C 0.9655 0.71301 0.11767 0.0
C517 C 1.00052 0.75562 0.10022 0.0
C518 C 0.9297 0.84991 0.06415 0.0
C519 C 0.05117 0.90368 0.0634 0.0
C520 C 0.95785 0.81752 0.05969 0.0
N521 N 0.01788 0.84445 0.05947 0.0
C522 C 0.02455 0.93748 0.0679 0.0
C523 C 0.96338 0.91028 0.06828 0.0
C524 C 0.16358 0.88562 0.02596 0.0
C525 C 0.13874 0.68153 0.98417 0.0
C526 C 0.21841 0.79667 0.99687 0.0
C527 C 0.21768 0.77736 0.9726 0.0
C528 C 0.17746 0.71939 0.96624 0.0
N529 N 0.18019 0.75937 0.01433 0.0
C530 C 0.14082 0.70238 0.00826 0.0
Co531 Co 0.26327 0.05393 0.22146 0.0
Co532 Co 0.39638 0.18152 0.21226 0.0
O533 O 0.34621 0.09596 0.21208 0.0
C534 C 0.26152 0.01385 0.17025 0.0
O535 O 0.29394 0.06973 0.16456 0.0
C536 C 0.46042 0.13532 0.24176 0.0
O537 O 0.40978 0.09676 0.25148 0.0
O538 O 0.37006 0.18733 0.24644 0.0
O539 O 0.27864 0.10902 0.24984 0.0
H540 H 0.44371 0.39034 0.22557 0.0
H541 H 0.32313 0.98449 0.21392 0.0
O542 O 0.24573 0.99864 0.19269 0.0
H543 H 0.2585 0.95212 0.30143 0.0
H544 H 0.06664 0.87201 0.23433 0.0
H545 H 0.17671 0.08874 0.23783 0.0
H546 H 0.23792 0.01558 0.27435 0.0
H547 H 0.17221 0.92717 0.22387 0.0
O548 O 0.4632 0.17351 0.22635 0.0
H549 H 0.38025 0.28255 0.22533 0.0
H550 H 0.52216 0.26267 0.19937 0.0
H551 H 0.07118 0.03525 0.24853 0.0
H552 H 0.34309 0.91934 0.24014 0.0
H553 H 0.01549 0.92601 0.24676 0.0
H554 H 0.31122 0.90328 0.28429 0.0
O555 O 0.24638 0.10572 0.20018 0.0
H556 H 0.46714 0.09793 0.14532 0.0
H557 H 0.40673 0.24393 0.1646 0.0
H558 H 0.43507 0.23569 0.1217 0.0
H559 H 0.46562 0.16233 0.11184 0.0
H560 H 0.43796 0.10727 0.18792 0.0
H561 H 0.58745 0.37029 0.19951 0.0
H562 H 0.54823 0.43494 0.21259 0.0
O563 O 0.33124 0.19166 0.19822 0.0
C564 C 0.32097 0.15769 0.2577 0.0
C565 C 0.46132 0.36267 0.2198 0.0
C566 C 0.54199 0.3514 0.2052 0.0
N567 N 0.4473 0.2663 0.21227 0.0
C568 C 0.42551 0.30157 0.21959 0.0
C569 C 0.50484 0.29047 0.20523 0.0
C570 C 0.51995 0.38765 0.21253 0.0
C571 C 0.3083 0.97699 0.23301 0.0
N572 N 0.27915 1.00357 0.24256 0.0
C573 C 0.32005 0.94035 0.24781 0.0
C574 C 0.30221 0.9314 0.27259 0.0
C575 C 0.2727 0.95886 0.28222 0.0
C576 C 0.26143 0.99497 0.26684 0.0
C577 C 0.09049 0.91956 0.23521 0.0
C578 C 0.15285 0.04121 0.23722 0.0
C579 C 0.15026 0.95104 0.2293 0.0
N580 N 0.18069 0.01108 0.23045 0.0
C581 C 0.09306 0.01119 0.24322 0.0
C582 C 0.06181 0.94994 0.2422 0.0
C583 C 0.27622 0.15969 0.19389 0.0
C584 C 0.45412 0.13022 0.14941 0.0
C585 C 0.41993 0.21186 0.16046 0.0
C586 C 0.43601 0.20746 0.13614 0.0
C587 C 0.45318 0.1663 0.13062 0.0
N588 N 0.42111 0.1764 0.1788 0.0
C589 C 0.43782 0.13589 0.17352 0.0
Co590 Co 0.21255 0.26473 0.38763 0.0
Co591 Co 0.22484 0.40098 0.37775 0.0
O592 O 0.2565 0.34742 0.3778 0.0
C593 C 0.24834 0.26045 0.3361 0.0
O594 O 0.22999 0.29752 0.33099 0.0
C595 C 0.3349 0.46183 0.40778 0.0
O596 O 0.32186 0.41069 0.41726 0.0
O597 O 0.19163 0.3759 0.412 0.0
O598 O 0.17847 0.28485 0.4167 0.0
H599 H 0.06905 0.45745 0.38867 0.0
H600 H 0.3407 0.32026 0.37827 0.0
O601 O 0.24547 0.24276 0.35838 0.0
H602 H 0.31362 0.2565 0.46585 0.0
H603 H 0.18648 0.06335 0.4015 0.0
H604 H 0.0918 0.18493 0.40623 0.0
H605 H 0.22835 0.23785 0.43999 0.0
H606 H 0.24096 0.16804 0.38954 0.0
O607 O 0.30051 0.46568 0.39213 0.0
H608 H 0.10897 0.39004 0.38903 0.0
H609 H 0.27546 0.52801 0.36536 0.0
H610 H 0.03585 0.08052 0.41854 0.0
H611 H 0.42711 0.33892 0.40332 0.0
H612 H 0.0833 0.01907 0.41623 0.0
H613 H 0.41388 0.30732 0.44749 0.0
O614 O 0.14299 0.25042 0.36724 0.0
H615 H 0.37969 0.4625 0.31149 0.0
H616 H 0.17672 0.41569 0.32969 0.0
H617 H 0.21431 0.44066 0.28682 0.0
H618 H 0.31652 0.46423 0.27748 0.0
H619 H 0.33998 0.43654 0.35406 0.0
H620 H 0.23755 0.59713 0.36498 0.0
H621 H 0.13357 0.56192 0.37662 0.0
O622 O 0.14881 0.33829 0.36344 0.0
C623 C 0.17292 0.32803 0.42423 0.0
C624 C 0.11446 0.47338 0.38358 0.0
C625 C 0.20903 0.55175 0.37032 0.0
N626 N 0.1945 0.45501 0.37734 0.0
C627 C 0.13731 0.43538 0.38375 0.0
C628 C 0.23032 0.51244 0.37069 0.0
C629 C 0.15068 0.53197 0.37683 0.0
C630 C 0.33452 0.30573 0.39739 0.0
N631 N 0.27954 0.27791 0.40765 0.0
C632 C 0.38364 0.31666 0.41152 0.0
C633 C 0.37619 0.29899 0.43631 0.0
C634 C 0.31996 0.27056 0.44663 0.0
C635 C 0.27186 0.26034 0.43194 0.0
C636 C 0.1654 0.08974 0.40263 0.0
C637 C 0.11283 0.15852 0.40531 0.0
C638 C 0.19598 0.149 0.39585 0.0
N639 N 0.16972 0.18265 0.39736 0.0
C640 C 0.08087 0.0994 0.41224 0.0
C641 C 0.10748 0.0649 0.4109 0.0
C642 C 0.12213 0.28275 0.36011 0.0
C643 C 0.33512 0.45242 0.31534 0.0
C644 C 0.22114 0.42578 0.32579 0.0
C645 C 0.24227 0.44005 0.30148 0.0
C646 C 0.29963 0.45331 0.29626 0.0
N647 N 0.25609 0.42473 0.3444 0.0
C648 C 0.31249 0.43798 0.33943 0.0
Co649 Co 0.95656 0.2112 0.55473 0.0
Co650 Co 0.83435 0.22663 0.54395 0.0
O651 O 0.9195 0.25745 0.54556 0.0
C652 C 1.00533 0.26031 0.50517 0.0
O653 O 0.95317 0.25167 0.49913 0.0
C654 C 0.88163 0.33423 0.5759 0.0
O655 O 0.92066 0.32192 0.58497 0.0
O656 O 0.82196 0.18787 0.5773 0.0
O657 O 0.89968 0.17453 0.58274 0.0
H658 H 0.62086 0.07077 0.54853 0.0
H659 H 0.03049 0.34024 0.54855 0.0
O660 O 0.01453 0.24643 0.52669 0.0
H661 H 0.06001 0.30086 0.63543 0.0
H662 H 0.12791 0.17873 0.56906 0.0
H663 H 0.91189 0.08791 0.57055 0.0
H664 H 0.99532 0.2195 0.60744 0.0
H665 H 0.08067 0.23684 0.55829 0.0
O666 O 0.8437 0.30005 0.56014 0.0
H667 H 0.72782 0.10954 0.55074 0.0
H668 H 0.76006 0.2804 0.53238 0.0
H669 H 0.95734 0.02832 0.58163 0.0
H670 H 0.09638 0.42287 0.57574 0.0
H671 H 0.06611 0.07378 0.58079 0.0
H672 H 0.11116 0.40344 0.61957 0.0
O673 O 0.90318 0.14508 0.53244 0.0
H674 H 0.93339 0.39317 0.48301 0.0
H675 H 0.77771 0.18679 0.49418 0.0
H676 H 0.79399 0.23233 0.45272 0.0
H677 H 0.87231 0.33632 0.44694 0.0
H678 H 0.9162 0.34559 0.52404 0.0
H679 H 0.65347 0.24365 0.53009 0.0
H680 H 0.58299 0.13808 0.53815 0.0
O681 O 0.82243 0.15286 0.52767 0.0
C682 C 0.85021 0.16813 0.58961 0.0
C683 C 0.65108 0.11691 0.54508 0.0
C684 C 0.6694 0.21392 0.53474 0.0
N685 N 0.75025 0.19721 0.54199 0.0
C686 C 0.71173 0.13913 0.54637 0.0
C687 C 0.72976 0.23453 0.5362 0.0
C688 C 0.62988 0.15468 0.53924 0.0
C689 C 0.03723 0.33138 0.56752 0.0
N690 N 0.00901 0.27512 0.57642 0.0
C691 C 0.07438 0.37837 0.58286 0.0
C692 C 0.08258 0.36745 0.60746 0.0
C693 C 0.05381 0.30991 0.61638 0.0
C694 C 0.01698 0.26403 0.6005 0.0
C695 C 0.08048 0.1585 0.5695 0.0
C696 C 0.95928 0.1081 0.57038 0.0
C697 C 0.05348 0.19114 0.56338 0.0
N698 N 0.99361 0.16587 0.56395 0.0
C699 C 0.98474 0.07409 0.57659 0.0
C700 C 0.04576 0.09959 0.57612 0.0
C701 C 0.85123 0.1261 0.52414 0.0
C702 C 0.89902 0.34788 0.4853 0.0
C703 C 0.81203 0.2319 0.4918 0.0
C704 C 0.82092 0.25756 0.46829 0.0
C705 C 0.86481 0.31592 0.46507 0.0
N706 N 0.84585 0.26345 0.51156 0.0
C707 C 0.88885 0.32077 0.50854 0.0
C708 C 0.18564 0.62122 0.08657 0.0
C709 C 0.13207 0.62046 0.08315 0.0
C710 C 0.18683 0.56961 0.0923 0.0
C711 C 0.13457 0.51503 0.09394 0.0
H712 H 0.22698 0.66218 0.08508 0.0
H713 H 0.22902 0.57232 0.09508 0.0
S714 S 0.98295 0.48926 0.0861 0.0
N715 N 0.02555 0.56078 0.08194 0.0
N716 N 0.0278 0.46345 0.09171 0.0
C717 C 0.08078 0.51361 0.09027 0.0
C718 C 0.07951 0.56642 0.08516 0.0
C719 C 0.62012 0.18511 0.25659 0.0
C720 C 0.62052 0.1318 0.25848 0.0
C721 C 0.56825 0.18588 0.25092 0.0
C722 C 0.51448 0.13332 0.24782 0.0
H723 H 0.66041 0.22662 0.25921 0.0
H724 H 0.57007 0.22792 0.24932 0.0
S725 S 0.49171 0.98216 0.25121 0.0
N726 N 0.56272 0.02519 0.2566 0.0
N727 N 0.46482 0.02656 0.24695 0.0
C728 C 0.51415 0.07974 0.24993 0.0
C729 C 0.56729 0.07899 0.25498 0.0
C730 C 0.44375 0.62119 0.42362 0.0
C731 C 0.49715 0.62135 0.42652 0.0
C732 C 0.39158 0.56947 0.41739 0.0
C733 C 0.39044 0.51556 0.41468 0.0
H734 H 0.44246 0.6616 0.42577 0.0
H735 H 0.35166 0.57155 0.41496 0.0
S736 S 0.51801 0.49203 0.42093 0.0
N737 N 0.54566 0.56304 0.42619 0.0
N738 N 0.4472 0.46544 0.41549 0.0
C739 C 0.44329 0.51491 0.41793 0.0
C740 C 0.49676 0.56791 0.42357 0.0
C741 C 0.83108 0.44397 0.59018 0.0
C742 C 0.88425 0.49762 0.5923 0.0
C743 C 0.83067 0.39131 0.58493 0.0
C744 C 0.88342 0.38996 0.58251 0.0
H745 H 0.78942 0.44285 0.59212 0.0
H746 H 0.7887 0.35123 0.58292 0.0
S747 S 0.03437 0.51803 0.58723 0.0
N748 N 0.991 0.54606 0.59175 0.0
N749 N 0.99022 0.44681 0.58285 0.0
C750 C 0.93686 0.44306 0.5851 0.0
C751 C 0.93728 0.49696 0.58973 0.0
C752 C 0.44705 0.81816 0.75118 0.0
C753 C 0.50014 0.87154 0.74824 0.0
C754 C 0.39469 0.81736 0.75756 0.0
C755 C 0.39312 0.8699 0.76032 0.0
H756 H 0.44613 0.77669 0.74884 0.0
H757 H 0.35494 0.77528 0.75996 0.0
S758 S 0.5198 0.02117 0.754 0.0
N759 N 0.54789 0.97818 0.74862 0.0
N760 N 0.44915 0.97666 0.75956 0.0
C761 C 0.4457 0.9235 0.75708 0.0
C762 C 0.49931 0.92432 0.75133 0.0
C763 C 0.56208 0.38455 0.91926 0.0
C764 C 0.50914 0.38523 0.9223 0.0
C765 C 0.61481 0.43607 0.91352 0.0
C766 C 0.61699 0.49057 0.91146 0.0
H767 H 0.56266 0.34373 0.92109 0.0
H768 H 0.6544 0.43335 0.9111 0.0
S769 S 0.49081 0.51624 0.91803 0.0
N770 N 0.462 0.44483 0.92259 0.0
N771 N 0.56158 0.54209 0.91277 0.0
C772 C 0.56451 0.49199 0.91467 0.0
C773 C 0.51044 0.43919 0.91981 0.0
C774 C 0.27576 0.24867 0.17721 0.0
C775 C 0.24545 0.18756 0.18149 0.0
C776 C 0.248 0.27679 0.16623 0.0
C777 C 0.18855 0.24521 0.15888 0.0
H778 H 0.32149 0.27551 0.1825 0.0
H779 H 0.27383 0.32387 0.16342 0.0
S780 S 0.08873 0.08405 0.16593 0.0
N781 N 0.15209 0.09612 0.17745 0.0
N782 N 0.09993 0.14891 0.15689 0.0
C783 C 0.15746 0.18397 0.16307 0.0
C784 C 0.18583 0.15525 0.17431 0.0
C785 C 0.97452 0.16426 0.33419 0.0
C786 C 0.9472 0.19611 0.32634 0.0
C787 C 0.03097 0.19253 0.3448 0.0
C788 C 0.06302 0.25407 0.34794 0.0
H789 H 0.95229 0.11691 0.3321 0.0
H790 H 0.04944 0.16563 0.35063 0.0
S791 S 0.01204 0.3584 0.33014 0.0
N792 N 0.95711 0.2931 0.32256 0.0
N793 N 0.06287 0.34599 0.34184 0.0
C794 C 0.03634 0.28651 0.34001 0.0
C795 C 0.97868 0.25767 0.32943 0.0
C796 C 0.85053 0.03564 0.50768 0.0
C797 C 0.82156 0.06831 0.51082 0.0
C798 C 0.82225 0.97958 0.49663 0.0
C799 C 0.76344 0.95322 0.48843 0.0
H800 H 0.89538 0.05311 0.51404 0.0
H801 H 0.84667 0.95651 0.4948 0.0
S802 S 0.66802 0.0207 0.49142 0.0
N803 N 0.73099 0.07045 0.50366 0.0
N804 N 0.67767 0.96521 0.48395 0.0
C805 C 0.73414 0.98562 0.49129 0.0
C806 C 0.76317 0.04298 0.50215 0.0
C807 C 0.76934 0.73916 0.66095 0.0
C808 C 0.83106 0.76826 0.65872 0.0
C809 C 0.74063 0.76711 0.67126 0.0
C810 C 0.77216 0.82561 0.67985 0.0
H811 H 0.74253 0.69422 0.65464 0.0
H812 H 0.69312 0.74214 0.6726 0.0
S813 S 0.93474 0.92236 0.67795 0.0
N814 N 0.92298 0.85959 0.66589 0.0
N815 N 0.8691 0.9122 0.68497 0.0
C816 C 0.83398 0.85559 0.67755 0.0
C817 C 0.86332 0.82696 0.66711 0.0
C818 C 0.97811 0.80995 0.84029 0.0
C819 C 0.94894 0.74999 0.84698 0.0
C820 C 0.03454 0.8374 0.82959 0.0
C821 C 0.0648 0.8064 0.82532 0.0
H822 H 0.95729 0.83618 0.8433 0.0
H823 H 0.05449 0.88345 0.82468 0.0
S824 S 0.00848 0.64842 0.83966 0.0
N825 N 0.95503 0.66043 0.84813 0.0
N826 N 0.06098 0.71208 0.82914 0.0
C827 C 0.03629 0.74652 0.83213 0.0
C828 C 0.97854 0.71838 0.84261 0.0
C829 C 0.16254 0.9738 0.00835 0.0
C830 C 0.19421 0.94497 0.01414 0.0
C831 C 0.19038 0.03059 0.9982 0.0
C832 C 0.25119 0.06117 0.9931 0.0
H833 H 0.11569 0.95265 0.01183 0.0
H834 H 0.16357 0.05027 0.99409 0.0
S835 S 0.35484 0.00583 0.00485 0.0
N836 N 0.29045 0.95222 0.01425 0.0
N837 N 0.34226 0.05783 0.99474 0.0
C838 C 0.28347 0.03287 0.99877 0.0
C839 C 0.25519 0.97522 0.00935 0.0
C840 C 0.24528 0.33215 0.0604 0.0
C841 C 0.18552 0.31658 0.06021 0.0
C842 C 0.26952 0.31462 0.04122 0.0
C843 C 0.23533 0.282 0.02078 0.0
H844 H 0.27296 0.35556 0.07607 0.0
H845 H 0.31516 0.32582 0.04264 0.0
S846 S 0.07797 0.2348 0.0102 0.0
N847 N 0.0939 0.26996 0.03704 0.0
N848 N 0.13932 0.23776 1.00086 0.0
C849 C 0.17633 0.2688 0.01973 0.0
C850 C 0.15147 0.28584 0.03946 0.0
C851 C 0.87066 0.1832 0.20486 0.0
C852 C 0.88752 0.19421 0.22989 0.0
C853 C 0.913 0.20648 0.18584 0.0
C854 C 0.97356 0.24139 0.19129 0.0
H855 H 0.8248 0.15508 0.2 0.0
H856 H 0.89815 0.19602 0.16676 0.0
S857 S 0.03893 0.28299 0.25453 0.0
N858 N 0.96756 0.24182 0.25944 0.0
N859 N 0.0472 0.28664 0.22403 0.0
C860 C 0.99039 0.25361 0.21645 0.0
C861 C 0.94732 0.22958 0.23567 0.0
C862 C 0.68276 0.94433 0.36856 0.0
C863 C 0.72915 0.95674 0.35217 0.0
C864 C 0.66663 0.9015 0.38719 0.0
C865 C 0.69781 0.87112 0.39077 0.0
H866 H 0.65914 0.96829 0.36714 0.0
H867 H 0.63108 0.89426 0.3995 0.0
S868 S 0.8214 0.88631 0.35159 0.0
N869 N 0.80389 0.93331 0.33948 0.0
N870 N 0.77558 0.85489 0.37502 0.0
C871 C 0.7432 0.88213 0.37383 0.0
C872 C 0.75843 0.92449 0.35445 0.0
C873 C 0.82838 0.69364 0.53839 0.0
C874 C 0.83019 0.71164 0.56308 0.0
C875 C 0.80313 0.71138 0.51965 0.0
C876 C 0.77805 0.74685 0.52511 0.0
H877 H 0.84784 0.66704 0.53345 0.0
H878 H 0.80362 0.69746 0.50073 0.0
S879 S 0.76975 0.80263 0.58763 0.0
N880 N 0.80383 0.76495 0.59238 0.0
N881 N 0.75542 0.79741 0.55754 0.0
C882 C 0.77832 0.76351 0.55002 0.0
C883 C 0.80472 0.74617 0.5689 0.0
C884 C 0.13603 0.85288 0.70928 0.0
C885 C 0.1435 0.81593 0.72614 0.0
C886 C 0.09617 0.8298 0.68944 0.0
C887 C 0.06106 0.76882 0.68606 0.0
H888 H 0.15976 0.90009 0.71184 0.0
H889 H 0.09062 0.85986 0.67745 0.0
S890 S 0.06784 0.65276 0.72251 0.0
N891 N 0.11672 0.71488 0.73582 0.0
N892 N 0.03929 0.67186 0.69945 0.0
C893 C 0.06968 0.73135 0.70186 0.0
C894 C 0.11168 0.75482 0.7216 0.0
C895 C 0.25443 0.05774 0.89947 0.0
C896 C 0.29948 0.11621 0.8959 0.0
C897 C 0.23941 0.01533 0.88083 0.0
C898 C 0.26785 0.03009 0.85763 0.0
H899 H 0.23086 0.04449 0.91697 0.0
H900 H 0.20421 0.97093 0.88443 0.0
S901 S 0.38951 0.17708 0.83908 0.0
N902 N 0.3737 0.18654 0.86786 0.0
N903 N 0.34398 0.10729 0.83224 0.0
C904 C 0.31317 0.08847 0.85381 0.0
C905 C 0.32948 0.1314 0.87312 0.0
C906 C 0.68881 0.76391 0.77706 0.0
C907 C 0.70121 0.8226 0.7784 0.0
C908 C 0.70677 0.73931 0.79591 0.0
C909 C 0.73675 0.77209 0.81708 0.0
H910 H 0.6675 0.7375 0.7608 0.0
H911 H 0.69772 0.6945 0.79372 0.0
S912 S 0.77552 0.92616 0.83052 0.0
N913 N 0.74227 0.91162 0.80325 0.0
N914 N 0.77538 0.86554 0.83881 0.0
C915 C 0.74705 0.82998 0.81917 0.0
C916 C 0.72951 0.8552 0.79979 0.0
C917 C 0.89068 0.73685 0.96108 0.0
C918 C 0.874 0.68628 0.94642 0.0
C919 C 0.93097 0.75207 0.98066 0.0
C920 C 0.95751 0.71829 0.98598 0.0
H921 H 0.87386 0.76613 0.95703 0.0
H922 H 0.94348 0.79211 0.99097 0.0
S923 S 0.92481 0.57831 0.95586 0.0
N924 N 0.88276 0.5987 0.94104 0.0
N925 N 0.96145 0.62989 0.97682 0.0
C926 C 0.93991 0.66657 0.97237 0.0
C927 C 0.89728 0.64983 0.95291 0.0
C928 C 0.19894 0.94386 0.10791 0.0
C929 C 0.18547 0.88528 0.11114 0.0
C930 C 0.22508 0.98533 0.12694 0.0
C931 C 0.23747 0.96947 0.15017 0.0
H932 H 0.1896 0.95791 0.0904 0.0
H933 H 0.23427 0.02984 0.1236 0.0
S934 S 0.21139 0.82172 0.16791 0.0
N935 N 0.18784 0.8136 0.13889 0.0
N936 N 0.23511 0.89118 0.17525 0.0
C937 C 0.22437 0.91098 0.15366 0.0
C938 C 0.19898 0.86899 0.13396 0.0
C939 C 0.31178 0.1758 0.30284 0.0
C940 C 0.30702 0.18699 0.27772 0.0
C941 C 0.29369 0.20061 0.32166 0.0
C942 C 0.27 0.23719 0.31592 0.0
H943 H 0.32873 0.14711 0.30794 0.0
H944 H 0.29769 0.19042 0.34082 0.0
S945 S 0.24706 0.27761 0.25233 0.0
N946 N 0.27589 0.23502 0.2478 0.0
N947 N 0.24284 0.28251 0.28278 0.0
C948 C 0.26557 0.24872 0.29066 0.0
C949 C 0.28371 0.22326 0.27166 0.0
C950 C 0.12673 0.27181 0.46338 0.0
C951 C 0.13744 0.31852 0.44723 0.0
C952 C 0.08575 0.25491 0.4828 0.0
C953 C 0.0527 0.28299 0.48644 0.0
H954 H 0.14887 0.24678 0.46061 0.0
H955 H 0.07793 0.21783 0.49432 0.0
S956 S 0.0681 0.41195 0.45191 0.0
N957 N 0.11572 0.39687 0.43854 0.0
N958 N 0.0364 0.36256 0.47413 0.0
C959 C 0.06445 0.33116 0.47134 0.0
C960 C 0.10752 0.34969 0.45204 0.0
C961 C 0.83595 0.08726 0.65012 0.0
C962 C 0.77533 0.04708 0.65153 0.0
C963 C 0.85942 0.12809 0.63063 0.0
C964 C 0.82306 0.13151 0.61217 0.0
H965 H 0.86578 0.08546 0.66356 0.0
H966 H 0.90666 0.1563 0.62974 0.0
S967 S 0.6601 0.04049 0.60964 0.0
N968 N 0.67878 0.0156 0.63415 0.0
N969 N 0.7223 0.09406 0.59824 0.0
C970 C 0.76185 0.09392 0.61444 0.0
C971 C 0.73817 0.05118 0.63388 0.0
loop_
_geom_bond_atom_site_label_1
_geom_bond_atom_site_label_2
_geom_bond_distance
_geom_bond_site_symmetry_2
_ccdc_geom_bond_type
Co0 O2 2.143 . S
Co0 O8 2.074 . S
Co0 O11 2.093 . S
Co0 O24 2.097 . S
Co0 N41 2.151 . S
Co0 N49 2.214 . S
Co1 O2 2.160 . S
Co1 O7 2.058 . S
Co1 O17 2.057 . S
Co1 O32 2.037 . S
Co1 N36 2.145 . S
Co1 N57 2.257 . S
O2 Co0 2.143 . S
O2 Co1 2.160 . S
C3 O4 1.278 . S
C3 O11 1.224 . S
O4 C3 1.278 . S
C5 O6 1.245 . S
C5 O17 1.232 . S
O6 C5 1.245 . S
O7 Co1 2.058 . S
O7 C33 1.269 . S
O8 Co0 2.074 . S
O8 C33 1.257 . S
H9 C34 0.930 . S
H10 C40 0.930 . S
O11 Co0 2.093 . S
O11 C3 1.224 . S
H12 C44 0.929 . S
H13 C46 0.930 . S
H14 C47 0.930 . S
H15 C45 0.929 . S
H16 C48 0.928 1_655 S
O17 Co1 2.057 . S
O17 C5 1.232 . S
H18 C37 0.929 . S
H19 C38 0.929 . S
H20 C50 0.931 . S
H21 C42 0.929 . S
H22 C51 0.930 . S
H23 C43 0.931 . S
O24 Co0 2.097 . S
O24 C52 1.214 . S
H25 C53 0.929 . S
H26 C54 0.929 . S
H27 C55 0.930 . S
H28 C56 0.929 . S
H29 C58 0.930 . S
H30 C35 0.930 . S
H31 C39 0.930 . S
O32 Co1 2.037 . S
O32 C52 1.234 . S
C33 O7 1.269 . S
C33 O8 1.257 . S
C34 H9 0.930 . S
C34 C37 1.388 . S
C34 C39 1.418 . S
C35 H30 0.930 . S
C35 C38 1.404 . S
C35 C39 1.353 . S
N36 Co1 2.145 . S
N36 C37 1.397 . S
N36 C38 1.334 . S
C37 H18 0.929 . S
C37 C34 1.388 . S
C37 N36 1.397 . S
C38 H19 0.929 . S
C38 C35 1.404 . S
C38 N36 1.334 . S
C39 H31 0.930 . S
C39 C34 1.418 . S
C39 C35 1.353 . S
C40 H10 0.930 . S
C40 N41 1.330 1_655 S
C40 C42 1.446 . S
N41 Co0 2.151 . S
N41 C40 1.330 1_455 S
N41 C45 1.418 . S
C42 H21 0.929 . S
C42 C40 1.446 . S
C42 C43 1.332 . S
C43 H23 0.931 . S
C43 C42 1.332 . S
C43 C44 1.267 . S
C44 H12 0.929 . S
C44 C43 1.267 . S
C44 C45 1.251 1_655 S
C45 H15 0.929 . S
C45 N41 1.418 . S
C45 C44 1.251 1_455 S
C46 H13 0.930 . S
C46 C48 1.406 1_655 S
C46 C51 1.261 1_655 S
C47 H14 0.930 . S
C47 N49 1.325 . S
C47 C50 1.357 . S
C48 H16 0.928 1_455 S
C48 C46 1.406 1_455 S
C48 N49 1.261 . S
N49 Co0 2.214 . S
N49 C47 1.325 . S
N49 C48 1.261 . S
C50 H20 0.931 . S
C50 C47 1.357 . S
C50 C51 1.312 . S
C51 H22 0.930 . S
C51 C46 1.261 1_455 S
C51 C50 1.312 . S
C52 O24 1.214 . S
C52 O32 1.234 . S
C53 H25 0.929 . S
C53 C56 1.391 . S
C53 C58 1.391 . S
C54 H26 0.929 . S
C54 C55 1.390 . S
C54 N57 1.391 . S
C55 H27 0.930 . S
C55 C54 1.390 . S
C55 C56 1.392 . S
C56 H28 0.929 . S
C56 C53 1.391 . S
C56 C55 1.392 . S
N57 Co1 2.257 . S
N57 C54 1.391 . S
N57 C58 1.388 . S
C58 H29 0.930 . S
C58 C53 1.391 . S
C58 N57 1.388 . S
Co59 O61 2.143 . S
Co59 O67 2.074 . S
Co59 O70 2.093 . S
Co59 O83 2.097 . S
Co59 N100 2.151 . S
Co59 N108 2.214 . S
Co60 O61 2.160 . S
Co60 O66 2.058 . S
Co60 O76 2.057 . S
Co60 O91 2.037 . S
Co60 N95 2.145 . S
Co60 N116 2.257 . S
O61 Co59 2.143 . S
O61 Co60 2.160 . S
C62 O63 1.278 . S
C62 O70 1.224 . S
O63 C62 1.278 . S
C64 O65 1.245 . S
C64 O76 1.232 . S
O65 C64 1.245 . S
O66 Co60 2.058 . S
O66 C92 1.269 . S
O67 Co59 2.074 . S
O67 C92 1.257 . S
H68 C93 0.930 . S
H69 C99 0.930 . S
O70 Co59 2.093 . S
O70 C62 1.224 . S
H71 C103 0.929 . S
H72 C105 0.930 . S
H73 C106 0.930 . S
H74 C104 0.929 . S
H75 C107 0.928 1_565 S
O76 Co60 2.057 . S
O76 C64 1.232 . S
H77 C96 0.929 . S
H78 C97 0.929 . S
H79 C109 0.931 1_455 S
H80 C101 0.929 . S
H81 C110 0.930 1_455 S
H82 C102 0.931 . S
O83 Co59 2.097 . S
O83 C111 1.214 . S
H84 C112 0.929 . S
H85 C113 0.929 . S
H86 C114 0.930 . S
H87 C115 0.929 . S
H88 C117 0.930 . S
H89 C94 0.930 . S
H90 C98 0.930 . S
O91 Co60 2.037 . S
O91 C111 1.234 . S
C92 O66 1.269 . S
C92 O67 1.257 . S
C93 H68 0.930 . S
C93 C96 1.388 . S
C93 C98 1.418 . S
C94 H89 0.930 . S
C94 C97 1.404 . S
C94 C98 1.353 . S
N95 Co60 2.145 . S
N95 C96 1.397 . S
N95 C97 1.334 . S
C96 H77 0.929 . S
C96 C93 1.388 . S
C96 N95 1.397 . S
C97 H78 0.929 . S
C97 C94 1.404 . S
C97 N95 1.334 . S
C98 H90 0.930 . S
C98 C93 1.418 . S
C98 C94 1.353 . S
C99 H69 0.930 . S
C99 N100 1.330 1_565 S
C99 C101 1.446 . S
N100 Co59 2.151 . S
N100 C99 1.330 1_545 S
N100 C104 1.418 . S
C101 H80 0.929 . S
C101 C99 1.446 . S
C101 C102 1.332 . S
C102 H82 0.931 . S
C102 C101 1.332 . S
C102 C103 1.267 . S
C103 H71 0.929 . S
C103 C102 1.267 . S
C103 C104 1.251 1_565 S
C104 H74 0.929 . S
C104 N100 1.418 . S
C104 C103 1.251 1_545 S
C105 H72 0.930 . S
C105 C107 1.406 1_565 S
C105 C110 1.261 1_565 S
C106 H73 0.930 . S
C106 N108 1.325 . S
C106 C109 1.357 . S
C107 H75 0.928 1_545 S
C107 C105 1.406 1_545 S
C107 N108 1.261 . S
N108 Co59 2.214 . S
N108 C106 1.325 . S
N108 C107 1.261 . S
C109 H79 0.931 1_655 S
C109 C106 1.357 . S
C109 C110 1.312 . S
C110 H81 0.930 1_655 S
C110 C105 1.261 1_545 S
C110 C109 1.312 . S
C111 O83 1.214 . S
C111 O91 1.234 . S
C112 H84 0.929 . S
C112 C115 1.391 . S
C112 C117 1.391 . S
C113 H85 0.929 . S
C113 C114 1.390 . S
C113 N116 1.391 . S
C114 H86 0.930 . S
C114 C113 1.390 . S
C114 C115 1.392 . S
C115 H87 0.929 . S
C115 C112 1.391 . S
C115 C114 1.392 . S
N116 Co60 2.257 . S
N116 C113 1.391 . S
N116 C117 1.388 . S
C117 H88 0.930 . S
C117 C112 1.391 . S
C117 N116 1.388 . S
Co118 O120 2.143 . S
Co118 O126 2.074 . S
Co118 O129 2.093 . S
Co118 O142 2.097 . S
Co118 N159 2.151 . S
Co118 N167 2.214 . S
Co119 O120 2.160 . S
Co119 O125 2.058 . S
Co119 O135 2.057 . S
Co119 O150 2.037 . S
Co119 N154 2.145 . S
Co119 N175 2.257 . S
O120 Co118 2.143 . S
O120 Co119 2.160 . S
C121 O122 1.278 . S
C121 O129 1.224 . S
O122 C121 1.278 . S
C123 O124 1.245 . S
C123 O135 1.232 . S
O124 C123 1.245 . S
O125 Co119 2.058 . S
O125 C151 1.269 . S
O126 Co118 2.074 . S
O126 C151 1.257 . S
H127 C152 0.930 . S
H128 C158 0.930 . S
O129 Co118 2.093 . S
O129 C121 1.224 . S
H130 C162 0.929 . S
H131 C164 0.930 . S
H132 C165 0.930 . S
H133 C163 0.929 . S
H134 C166 0.928 . S
O135 Co119 2.057 . S
O135 C123 1.232 . S
H136 C155 0.929 . S
H137 C156 0.929 . S
H138 C168 0.931 1_545 S
H139 C160 0.929 . S
H140 C169 0.930 1_545 S
H141 C161 0.931 . S
O142 Co118 2.097 . S
O142 C170 1.214 . S
H143 C171 0.929 . S
H144 C172 0.929 . S
H145 C173 0.930 . S
H146 C174 0.929 . S
H147 C176 0.930 . S
H148 C153 0.930 . S
H149 C157 0.930 . S
O150 Co119 2.037 . S
O150 C170 1.234 . S
C151 O125 1.269 . S
C151 O126 1.257 . S
C152 H127 0.930 . S
C152 C155 1.388 . S
C152 C157 1.418 . S
C153 H148 0.930 . S
C153 C156 1.404 . S
C153 C157 1.353 . S
N154 Co119 2.145 . S
N154 C155 1.397 . S
N154 C156 1.334 . S
C155 H136 0.929 . S
C155 C152 1.388 . S
C155 N154 1.397 . S
C156 H137 0.929 . S
C156 C153 1.404 . S
C156 N154 1.334 . S
C157 H149 0.930 . S
C157 C152 1.418 . S
C157 C153 1.353 . S
C158 H128 0.930 . S
C158 N159 1.330 . S
C158 C160 1.446 . S
N159 Co118 2.151 . S
N159 C158 1.330 . S
N159 C163 1.418 . S
C160 H139 0.929 . S
C160 C158 1.446 . S
C160 C161 1.332 . S
C161 H141 0.931 . S
C161 C160 1.332 . S
C161 C162 1.267 . S
C162 H130 0.929 . S
C162 C161 1.267 . S
C162 C163 1.251 . S
C163 H133 0.929 . S
C163 N159 1.418 . S
C163 C162 1.251 . S
C164 H131 0.930 . S
C164 C166 1.406 . S
C164 C169 1.261 . S
C165 H132 0.930 . S
C165 N167 1.325 . S
C165 C168 1.357 . S
C166 H134 0.928 . S
C166 C164 1.406 . S
C166 N167 1.261 . S
N167 Co118 2.214 . S
N167 C165 1.325 . S
N167 C166 1.261 . S
C168 H138 0.931 1_565 S
C168 C165 1.357 . S
C168 C169 1.312 . S
C169 H140 0.930 1_565 S
C169 C164 1.261 . S
C169 C168 1.312 . S
C170 O142 1.214 . S
C170 O150 1.234 . S
C171 H143 0.929 . S
C171 C174 1.391 . S
C171 C176 1.391 . S
C172 H144 0.929 . S
C172 C173 1.390 . S
C172 N175 1.391 . S
C173 H145 0.930 . S
C173 C172 1.390 . S
C173 C174 1.392 . S
C174 H146 0.929 . S
C174 C171 1.391 . S
C174 C173 1.392 . S
N175 Co119 2.257 . S
N175 C172 1.391 . S
N175 C176 1.388 . S
C176 H147 0.930 . S
C176 C171 1.391 . S
C176 N175 1.388 . S
Co177 O179 2.143 . S
Co177 O185 2.074 . S
Co177 O188 2.093 . S
Co177 O201 2.097 . S
Co177 N218 2.151 . S
Co177 N226 2.214 . S
Co178 O179 2.160 . S
Co178 O184 2.058 . S
Co178 O194 2.057 . S
Co178 O209 2.037 . S
Co178 N213 2.145 . S
Co178 N234 2.257 . S
O179 Co177 2.143 . S
O179 Co178 2.160 . S
C180 O181 1.278 . S
C180 O188 1.224 . S
O181 C180 1.278 . S
C182 O183 1.245 . S
C182 O194 1.232 . S
O183 C182 1.245 . S
O184 Co178 2.058 . S
O184 C210 1.269 . S
O185 Co177 2.074 . S
O185 C210 1.257 . S
H186 C211 0.930 . S
H187 C217 0.930 . S
O188 Co177 2.093 . S
O188 C180 1.224 . S
H189 C221 0.929 . S
H190 C223 0.930 . S
H191 C224 0.930 . S
H192 C222 0.929 . S
H193 C225 0.928 1_455 S
O194 Co178 2.057 . S
O194 C182 1.232 . S
H195 C214 0.929 . S
H196 C215 0.929 . S
H197 C227 0.931 . S
H198 C219 0.929 . S
H199 C228 0.930 . S
H200 C220 0.931 . S
O201 Co177 2.097 . S
O201 C229 1.214 . S
H202 C230 0.929 . S
H203 C231 0.929 . S
H204 C232 0.930 . S
H205 C233 0.929 . S
H206 C235 0.930 . S
H207 C212 0.930 . S
H208 C216 0.930 . S
O209 Co178 2.037 . S
O209 C229 1.234 . S
C210 O184 1.269 . S
C210 O185 1.257 . S
C211 H186 0.930 . S
C211 C214 1.388 . S
C211 C216 1.418 . S
C212 H207 0.930 . S
C212 C215 1.404 . S
C212 C216 1.353 . S
N213 Co178 2.145 . S
N213 C214 1.397 . S
N213 C215 1.334 . S
C214 H195 0.929 . S
C214 C211 1.388 . S
C214 N213 1.397 . S
C215 H196 0.929 . S
C215 C212 1.404 . S
C215 N213 1.334 . S
C216 H208 0.930 . S
C216 C211 1.418 . S
C216 C212 1.353 . S
C217 H187 0.930 . S
C217 N218 1.330 1_455 S
C217 C219 1.446 . S
N218 Co177 2.151 . S
N218 C217 1.330 1_655 S
N218 C222 1.418 . S
C219 H198 0.929 . S
C219 C217 1.446 . S
C219 C220 1.332 . S
C220 H200 0.931 . S
C220 C219 1.332 . S
C220 C221 1.267 . S
C221 H189 0.929 . S
C221 C220 1.267 . S
C221 C222 1.251 1_455 S
C222 H192 0.929 . S
C222 N218 1.418 . S
C222 C221 1.251 1_655 S
C223 H190 0.930 . S
C223 C225 1.406 1_455 S
C223 C228 1.261 1_455 S
C224 H191 0.930 . S
C224 N226 1.325 . S
C224 C227 1.357 . S
C225 H193 0.928 1_655 S
C225 C223 1.406 1_655 S
C225 N226 1.261 . S
N226 Co177 2.214 . S
N226 C224 1.325 . S
N226 C225 1.261 . S
C227 H197 0.931 . S
C227 C224 1.357 . S
C227 C228 1.312 . S
C228 H199 0.930 . S
C228 C223 1.261 1_655 S
C228 C227 1.312 . S
C229 O201 1.214 . S
C229 O209 1.234 . S
C230 H202 0.929 . S
C230 C233 1.391 . S
C230 C235 1.391 . S
C231 H203 0.929 . S
C231 C232 1.390 . S
C231 N234 1.391 . S
C232 H204 0.930 . S
C232 C231 1.390 . S
C232 C233 1.392 . S
C233 H205 0.929 . S
C233 C230 1.391 . S
C233 C232 1.392 . S
N234 Co178 2.257 . S
N234 C231 1.391 . S
N234 C235 1.388 . S
C235 H206 0.930 . S
C235 C230 1.391 . S
C235 N234 1.388 . S
Co236 O238 2.143 . S
Co236 O244 2.074 . S
Co236 O247 2.093 . S
Co236 O260 2.097 . S
Co236 N277 2.151 . S
Co236 N285 2.214 . S
Co237 O238 2.160 . S
Co237 O243 2.058 . S
Co237 O253 2.057 . S
Co237 O268 2.037 . S
Co237 N272 2.145 . S
Co237 N293 2.257 . S
O238 Co236 2.143 . S
O238 Co237 2.160 . S
C239 O240 1.278 . S
C239 O247 1.224 . S
O240 C239 1.278 . S
C241 O242 1.245 . S
C241 O253 1.232 . S
O242 C241 1.245 . S
O243 Co237 2.058 . S
O243 C269 1.269 . S
O244 Co236 2.074 . S
O244 C269 1.257 . S
H245 C270 0.930 . S
H246 C276 0.930 . S
O247 Co236 2.093 . S
O247 C239 1.224 . S
H248 C280 0.929 . S
H249 C282 0.930 . S
H250 C283 0.930 . S
H251 C281 0.929 . S
H252 C284 0.928 1_545 S
O253 Co237 2.057 . S
O253 C241 1.232 . S
H254 C273 0.929 . S
H255 C274 0.929 . S
H256 C286 0.931 1_655 S
H257 C278 0.929 . S
H258 C287 0.930 1_655 S
H259 C279 0.931 . S
O260 Co236 2.097 . S
O260 C288 1.214 . S
H261 C289 0.929 . S
H262 C290 0.929 . S
H263 C291 0.930 . S
H264 C292 0.929 . S
H265 C294 0.930 . S
H266 C271 0.930 . S
H267 C275 0.930 . S
O268 Co237 2.037 . S
O268 C288 1.234 . S
C269 O243 1.269 . S
C269 O244 1.257 . S
C270 H245 0.930 . S
C270 C273 1.388 . S
C270 C275 1.418 . S
C271 H266 0.930 . S
C271 C274 1.404 . S
C271 C275 1.353 . S
N272 Co237 2.145 . S
N272 C273 1.397 . S
N272 C274 1.334 . S
C273 H254 0.929 . S
C273 C270 1.388 . S
C273 N272 1.397 . S
C274 H255 0.929 . S
C274 C271 1.404 . S
C274 N272 1.334 . S
C275 H267 0.930 . S
C275 C270 1.418 . S
C275 C271 1.353 . S
C276 H246 0.930 . S
C276 N277 1.330 1_545 S
C276 C278 1.446 . S
N277 Co236 2.151 . S
N277 C276 1.330 1_565 S
N277 C281 1.418 . S
C278 H257 0.929 . S
C278 C276 1.446 . S
C278 C279 1.332 . S
C279 H259 0.931 . S
C279 C278 1.332 . S
C279 C280 1.267 . S
C280 H248 0.929 . S
C280 C279 1.267 . S
C280 C281 1.251 1_545 S
C281 H251 0.929 . S
C281 N277 1.418 . S
C281 C280 1.251 1_565 S
C282 H249 0.930 . S
C282 C284 1.406 1_545 S
C282 C287 1.261 1_545 S
C283 H250 0.930 . S
C283 N285 1.325 . S
C283 C286 1.357 . S
C284 H252 0.928 1_565 S
C284 C282 1.406 1_565 S
C284 N285 1.261 . S
N285 Co236 2.214 . S
N285 C283 1.325 . S
N285 C284 1.261 . S
C286 H256 0.931 1_455 S
C286 C283 1.357 . S
C286 C287 1.312 . S
C287 H258 0.930 1_455 S
C287 C282 1.261 1_565 S
C287 C286 1.312 . S
C288 O260 1.214 . S
C288 O268 1.234 . S
C289 H261 0.929 . S
C289 C292 1.391 . S
C289 C294 1.391 . S
C290 H262 0.929 . S
C290 C291 1.390 . S
C290 N293 1.391 . S
C291 H263 0.930 . S
C291 C290 1.390 . S
C291 C292 1.392 . S
C292 H264 0.929 . S
C292 C289 1.391 . S
C292 C291 1.392 . S
N293 Co237 2.257 . S
N293 C290 1.391 . S
N293 C294 1.388 . S
C294 H265 0.930 . S
C294 C289 1.391 . S
C294 N293 1.388 . S
Co295 O297 2.143 . S
Co295 O303 2.074 . S
Co295 O306 2.093 . S
Co295 O319 2.097 . S
Co295 N336 2.151 . S
Co295 N344 2.214 . S
Co296 O297 2.160 . S
Co296 O302 2.058 . S
Co296 O312 2.057 . S
Co296 O327 2.037 . S
Co296 N331 2.145 . S
Co296 N352 2.257 . S
O297 Co295 2.143 . S
O297 Co296 2.160 . S
C298 O299 1.278 . S
C298 O306 1.224 . S
O299 C298 1.278 . S
C300 O301 1.245 . S
C300 O312 1.232 . S
O301 C300 1.245 . S
O302 Co296 2.058 . S
O302 C328 1.269 . S
O303 Co295 2.074 . S
O303 C328 1.257 . S
H304 C329 0.930 . S
H305 C335 0.930 . S
O306 Co295 2.093 . S
O306 C298 1.224 . S
H307 C339 0.929 . S
H308 C341 0.930 . S
H309 C342 0.930 . S
H310 C340 0.929 . S
H311 C343 0.928 . S
O312 Co296 2.057 . S
O312 C300 1.232 . S
H313 C332 0.929 . S
H314 C333 0.929 . S
H315 C345 0.931 1_565 S
H316 C337 0.929 . S
H317 C346 0.930 1_565 S
H318 C338 0.931 . S
O319 Co295 2.097 . S
O319 C347 1.214 . S
H320 C348 0.929 . S
H321 C349 0.940 . S
H322 C350 0.930 . S
H323 C351 0.929 . S
H324 C353 0.930 . S
H325 C330 0.930 . S
H326 C334 0.930 . S
O327 Co296 2.037 . S
O327 C347 1.234 . S
C328 O302 1.269 . S
C328 O303 1.257 . S
C329 H304 0.930 . S
C329 C332 1.388 . S
C329 C334 1.418 . S
C330 H325 0.930 . S
C330 C333 1.404 . S
C330 C334 1.353 . S
N331 Co296 2.145 . S
N331 C332 1.397 . S
N331 C333 1.334 . S
C332 H313 0.929 . S
C332 C329 1.388 . S
C332 N331 1.397 . S
C333 H314 0.929 . S
C333 C330 1.404 . S
C333 N331 1.334 . S
C334 H326 0.930 . S
C334 C329 1.418 . S
C334 C330 1.353 . S
C335 H305 0.930 . S
C335 N336 1.330 . S
C335 C337 1.446 . S
N336 Co295 2.151 . S
N336 C335 1.330 . S
N336 C340 1.418 . S
C337 H316 0.929 . S
C337 C335 1.446 . S
C337 C338 1.332 . S
C338 H318 0.931 . S
C338 C337 1.332 . S
C338 C339 1.267 . S
C339 H307 0.929 . S
C339 C338 1.267 . S
C339 C340 1.251 . S
C340 H310 0.929 . S
C340 N336 1.418 . S
C340 C339 1.251 . S
C341 H308 0.930 . S
C341 C343 1.406 . S
C341 C346 1.261 . S
C342 H309 0.930 . S
C342 N344 1.325 . S
C342 C345 1.357 . S
C343 H311 0.928 . S
C343 C341 1.406 . S
C343 N344 1.261 . S
N344 Co295 2.214 . S
N344 C342 1.325 . S
N344 C343 1.261 . S
C345 H315 0.931 1_545 S
C345 C342 1.357 . S
C345 C346 1.312 . S
C346 H317 0.930 1_545 S
C346 C341 1.261 . S
C346 C345 1.312 . S
C347 O319 1.214 . S
C347 O327 1.234 . S
C348 H320 0.929 . S
C348 C351 1.391 . S
C348 C353 1.391 1_554 S
C349 H321 0.940 . S
C349 C350 1.390 . S
C349 N352 1.391 1_554 S
C350 H322 0.930 . S
C350 C349 1.390 . S
C350 C351 1.392 . S
C351 H323 0.929 . S
C351 C348 1.391 . S
C351 C350 1.392 . S
N352 Co296 2.257 . S
N352 C349 1.391 1_556 S
N352 C353 1.388 . S
C353 H324 0.930 . S
C353 C348 1.391 1_556 S
C353 N352 1.388 . S
Co354 O356 2.143 . S
Co354 O362 2.074 . S
Co354 O365 2.093 . S
Co354 O378 2.097 . S
Co354 N395 2.151 . S
Co354 N403 2.214 . S
Co355 O356 2.160 . S
Co355 O361 2.058 . S
Co355 O371 2.057 . S
Co355 O386 2.037 . S
Co355 N390 2.145 . S
Co355 N411 2.257 . S
O356 Co354 2.143 . S
O356 Co355 2.160 . S
C357 O358 1.278 . S
C357 O365 1.224 . S
O358 C357 1.278 . S
C359 O360 1.245 . S
C359 O371 1.232 . S
O360 C359 1.245 . S
O361 Co355 2.058 . S
O361 C387 1.269 . S
O362 Co354 2.074 . S
O362 C387 1.257 . S
H363 C388 0.930 . S
H364 C394 0.930 . S
O365 Co354 2.093 . S
O365 C357 1.224 . S
H366 C398 0.929 . S
H367 C400 0.930 . S
H368 C401 0.930 . S
H369 C399 0.929 . S
H370 C402 0.928 1_545 S
O371 Co355 2.057 . S
O371 C359 1.232 . S
H372 C391 0.929 . S
H373 C392 0.929 . S
H374 C404 0.931 . S
H375 C396 0.929 . S
H376 C405 0.930 . S
H377 C397 0.931 . S
O378 Co354 2.097 . S
O378 C406 1.214 . S
H379 C407 0.929 . S
H380 C408 0.929 . S
H381 C409 0.930 . S
H382 C410 0.929 . S
H383 C412 0.930 . S
H384 C389 0.930 . S
H385 C393 0.930 . S
O386 Co355 2.037 . S
O386 C406 1.234 . S
C387 O361 1.269 . S
C387 O362 1.257 . S
C388 H363 0.930 . S
C388 C391 1.388 . S
C388 C393 1.418 . S
C389 H384 0.930 . S
C389 C392 1.404 . S
C389 C393 1.353 . S
N390 Co355 2.145 . S
N390 C391 1.397 . S
N390 C392 1.334 . S
C391 H372 0.929 . S
C391 C388 1.388 . S
C391 N390 1.397 . S
C392 H373 0.929 . S
C392 C389 1.404 . S
C392 N390 1.334 . S
C393 H385 0.930 . S
C393 C388 1.418 . S
C393 C389 1.353 . S
C394 H364 0.930 . S
C394 N395 1.330 1_545 S
C394 C396 1.446 . S
N395 Co354 2.151 . S
N395 C394 1.330 1_565 S
N395 C399 1.418 . S
C396 H375 0.929 . S
C396 C394 1.446 . S
C396 C397 1.332 . S
C397 H377 0.931 . S
C397 C396 1.332 . S
C397 C398 1.267 . S
C398 H366 0.929 . S
C398 C397 1.267 . S
C398 C399 1.251 1_545 S
C399 H369 0.929 . S
C399 N395 1.418 . S
C399 C398 1.251 1_565 S
C400 H367 0.930 . S
C400 C402 1.406 1_545 S
C400 C405 1.261 1_545 S
C401 H368 0.930 . S
C401 N403 1.325 . S
C401 C404 1.357 . S
C402 H370 0.928 1_565 S
C402 C400 1.406 1_565 S
C402 N403 1.261 . S
N403 Co354 2.214 . S
N403 C401 1.325 . S
N403 C402 1.261 . S
C404 H374 0.931 . S
C404 C401 1.357 . S
C404 C405 1.312 . S
C405 H376 0.930 . S
C405 C400 1.261 1_565 S
C405 C404 1.312 . S
C406 O378 1.214 . S
C406 O386 1.234 . S
C407 H379 0.929 . S
C407 C410 1.391 . S
C407 C412 1.391 . S
C408 H380 0.929 . S
C408 C409 1.390 . S
C408 N411 1.391 . S
C409 H381 0.930 . S
C409 C408 1.390 . S
C409 C410 1.392 . S
C410 H382 0.929 . S
C410 C407 1.391 . S
C410 C409 1.392 . S
N411 Co355 2.257 . S
N411 C408 1.391 . S
N411 C412 1.388 . S
C412 H383 0.930 . S
C412 C407 1.391 . S
C412 N411 1.388 . S
Co413 O415 2.143 . S
Co413 O421 2.074 . S
Co413 O424 2.093 . S
Co413 O437 2.097 . S
Co413 N454 2.151 . S
Co413 N462 2.214 . S
Co414 O415 2.160 . S
Co414 O420 2.058 . S
Co414 O430 2.057 . S
Co414 O445 2.037 . S
Co414 N449 2.145 . S
Co414 N470 2.257 . S
O415 Co413 2.143 . S
O415 Co414 2.160 . S
C416 O417 1.278 . S
C416 O424 1.224 . S
O417 C416 1.278 . S
C418 O419 1.245 . S
C418 O430 1.232 . S
O419 C418 1.245 . S
O420 Co414 2.058 . S
O420 C446 1.269 . S
O421 Co413 2.074 . S
O421 C446 1.257 . S
H422 C447 0.930 . S
H423 C453 0.930 . S
O424 Co413 2.093 . S
O424 C416 1.224 . S
H425 C457 0.929 . S
H426 C459 0.930 . S
H427 C460 0.930 . S
H428 C458 0.929 . S
H429 C461 0.928 . S
O430 Co414 2.057 . S
O430 C418 1.232 . S
H431 C450 0.929 . S
H432 C451 0.929 . S
H433 C463 0.931 1_455 S
H434 C455 0.929 . S
H435 C464 0.930 1_455 S
H436 C456 0.931 . S
O437 Co413 2.097 . S
O437 C465 1.214 . S
H438 C466 0.929 . S
H439 C467 0.929 . S
H440 C468 0.930 . S
H441 C469 0.929 . S
H442 C471 0.930 . S
H443 C448 0.930 . S
H444 C452 0.930 . S
O445 Co414 2.037 . S
O445 C465 1.234 . S
C446 O420 1.269 . S
C446 O421 1.257 . S
C447 H422 0.930 . S
C447 C450 1.388 . S
C447 C452 1.418 . S
C448 H443 0.930 . S
C448 C451 1.404 . S
C448 C452 1.353 . S
N449 Co414 2.145 . S
N449 C450 1.397 . S
N449 C451 1.334 . S
C450 H431 0.929 . S
C450 C447 1.388 . S
C450 N449 1.397 . S
C451 H432 0.929 . S
C451 C448 1.404 . S
C451 N449 1.334 . S
C452 H444 0.930 . S
C452 C447 1.418 . S
C452 C448 1.353 . S
C453 H423 0.930 . S
C453 N454 1.330 . S
C453 C455 1.446 . S
N454 Co413 2.151 . S
N454 C453 1.330 . S
N454 C458 1.418 . S
C455 H434 0.929 . S
C455 C453 1.446 . S
C455 C456 1.332 . S
C456 H436 0.931 . S
C456 C455 1.332 . S
C456 C457 1.267 . S
C457 H425 0.929 . S
C457 C456 1.267 . S
C457 C458 1.251 . S
C458 H428 0.929 . S
C458 N454 1.418 . S
C458 C457 1.251 . S
C459 H426 0.930 . S
C459 C461 1.406 . S
C459 C464 1.261 . S
C460 H427 0.930 . S
C460 N462 1.325 . S
C460 C463 1.357 . S
C461 H429 0.928 . S
C461 C459 1.406 . S
C461 N462 1.261 . S
N462 Co413 2.214 . S
N462 C460 1.325 . S
N462 C461 1.261 . S
C463 H433 0.931 1_655 S
C463 C460 1.357 . S
C463 C464 1.312 . S
C464 H435 0.930 1_655 S
C464 C459 1.261 . S
C464 C463 1.312 . S
C465 O437 1.214 . S
C465 O445 1.234 . S
C466 H438 0.929 . S
C466 C469 1.391 . S
C466 C471 1.391 . S
C467 H439 0.929 . S
C467 C468 1.390 . S
C467 N470 1.391 . S
C468 H440 0.930 . S
C468 C467 1.390 . S
C468 C469 1.392 . S
C469 H441 0.929 . S
C469 C466 1.391 . S
C469 C468 1.392 . S
N470 Co414 2.257 . S
N470 C467 1.391 . S
N470 C471 1.388 . S
C471 H442 0.930 . S
C471 C466 1.391 . S
C471 N470 1.388 . S
Co472 O474 2.143 . S
Co472 O480 2.074 . S
Co472 O483 2.093 . S
Co472 O496 2.097 . S
Co472 N513 2.151 . S
Co472 N521 2.214 . S
Co473 O474 2.160 . S
Co473 O479 2.058 . S
Co473 O489 2.057 . S
Co473 O504 2.037 . S
Co473 N508 2.145 . S
Co473 N529 2.257 . S
O474 Co472 2.143 . S
O474 Co473 2.160 . S
C475 O476 1.278 . S
C475 O483 1.224 . S
O476 C475 1.278 . S
C477 O478 1.245 . S
C477 O489 1.232 . S
O478 C477 1.245 . S
O479 Co473 2.058 . S
O479 C505 1.269 . S
O480 Co472 2.074 . S
O480 C505 1.257 . S
H481 C506 0.930 . S
H482 C512 0.930 . S
O483 Co472 2.093 . S
O483 C475 1.224 . S
H484 C516 0.929 . S
H485 C518 0.930 . S
H486 C519 0.930 . S
H487 C517 0.929 . S
H488 C520 0.928 1_655 S
O489 Co473 2.057 . S
O489 C477 1.232 . S
H490 C509 0.929 . S
H491 C510 0.929 . S
H492 C522 0.931 1_545 S
H493 C514 0.929 . S
H494 C523 0.930 1_545 S
H495 C515 0.931 . S
O496 Co472 2.097 . S
O496 C524 1.214 . S
H497 C525 0.929 . S
H498 C526 0.940 . S
H499 C527 0.930 . S
H500 C528 0.929 . S
H501 C530 0.930 . S
H502 C507 0.930 . S
H503 C511 0.930 . S
O504 Co473 2.037 . S
O504 C524 1.234 . S
C505 O479 1.269 . S
C505 O480 1.257 . S
C506 H481 0.930 . S
C506 C509 1.388 . S
C506 C511 1.418 . S
C507 H502 0.930 . S
C507 C510 1.404 . S
C507 C511 1.353 . S
N508 Co473 2.145 . S
N508 C509 1.397 . S
N508 C510 1.334 . S
C509 H490 0.929 . S
C509 C506 1.388 . S
C509 N508 1.397 . S
C510 H491 0.929 . S
C510 C507 1.404 . S
C510 N508 1.334 . S
C511 H503 0.930 . S
C511 C506 1.418 . S
C511 C507 1.353 . S
C512 H482 0.930 . S
C512 N513 1.330 1_655 S
C512 C514 1.446 . S
N513 Co472 2.151 . S
N513 C512 1.330 1_455 S
N513 C517 1.418 . S
C514 H493 0.929 . S
C514 C512 1.446 . S
C514 C515 1.332 . S
C515 H495 0.931 . S
C515 C514 1.332 . S
C515 C516 1.267 . S
C516 H484 0.929 . S
C516 C515 1.267 . S
C516 C517 1.251 1_655 S
C517 H487 0.929 . S
C517 N513 1.418 . S
C517 C516 1.251 1_455 S
C518 H485 0.930 . S
C518 C520 1.406 1_655 S
C518 C523 1.261 1_655 S
C519 H486 0.930 . S
C519 N521 1.325 . S
C519 C522 1.357 . S
C520 H488 0.928 1_455 S
C520 C518 1.406 1_455 S
C520 N521 1.261 . S
N521 Co472 2.214 . S
N521 C519 1.325 . S
N521 C520 1.261 . S
C522 H492 0.931 1_565 S
C522 C519 1.357 . S
C522 C523 1.312 . S
C523 H494 0.930 1_565 S
C523 C518 1.261 1_455 S
C523 C522 1.312 . S
C524 O496 1.214 . S
C524 O504 1.234 . S
C525 H497 0.929 . S
C525 C528 1.391 . S
C525 C530 1.391 1_556 S
C526 H498 0.940 . S
C526 C527 1.390 . S
C526 N529 1.391 1_556 S
C527 H499 0.930 . S
C527 C526 1.390 . S
C527 C528 1.392 . S
C528 H500 0.929 . S
C528 C525 1.391 . S
C528 C527 1.392 . S
N529 Co473 2.257 . S
N529 C526 1.391 1_554 S
N529 C530 1.388 . S
C530 H501 0.930 . S
C530 C525 1.391 1_554 S
C530 N529 1.388 . S
Co531 O533 2.143 . S
Co531 O539 2.074 . S
Co531 O542 2.093 . S
Co531 O555 2.097 . S
Co531 N572 2.151 . S
Co531 N580 2.214 . S
Co532 O533 2.160 . S
Co532 O538 2.058 . S
Co532 O548 2.057 . S
Co532 O563 2.037 . S
Co532 N567 2.145 . S
Co532 N588 2.257 . S
O533 Co531 2.143 . S
O533 Co532 2.160 . S
C534 O535 1.278 . S
C534 O542 1.224 . S
O535 C534 1.278 . S
C536 O537 1.245 . S
C536 O548 1.232 . S
O537 C536 1.245 . S
O538 Co532 2.058 . S
O538 C564 1.269 . S
O539 Co531 2.074 . S
O539 C564 1.257 . S
H540 C565 0.930 . S
H541 C571 0.930 . S
O542 Co531 2.093 . S
O542 C534 1.224 . S
H543 C575 0.929 . S
H544 C577 0.930 . S
H545 C578 0.930 . S
H546 C576 0.929 . S
H547 C579 0.928 1_565 S
O548 Co532 2.057 . S
O548 C536 1.232 . S
H549 C568 0.929 . S
H550 C569 0.929 . S
H551 C581 0.931 . S
H552 C573 0.929 . S
H553 C582 0.930 . S
H554 C574 0.931 . S
O555 Co531 2.097 . S
O555 C583 1.214 . S
H556 C584 0.929 . S
H557 C585 0.929 . S
H558 C586 0.930 . S
H559 C587 0.929 . S
H560 C589 0.930 . S
H561 C566 0.930 . S
H562 C570 0.930 . S
O563 Co532 2.037 . S
O563 C583 1.234 . S
C564 O538 1.269 . S
C564 O539 1.257 . S
C565 H540 0.930 . S
C565 C568 1.388 . S
C565 C570 1.418 . S
C566 H561 0.930 . S
C566 C569 1.404 . S
C566 C570 1.353 . S
N567 Co532 2.145 . S
N567 C568 1.397 . S
N567 C569 1.334 . S
C568 H549 0.929 . S
C568 C565 1.388 . S
C568 N567 1.397 . S
C569 H550 0.929 . S
C569 C566 1.404 . S
C569 N567 1.334 . S
C570 H562 0.930 . S
C570 C565 1.418 . S
C570 C566 1.353 . S
C571 H541 0.930 . S
C571 N572 1.330 1_565 S
C571 C573 1.446 . S
N572 Co531 2.151 . S
N572 C571 1.330 1_545 S
N572 C576 1.418 . S
C573 H552 0.929 . S
C573 C571 1.446 . S
C573 C574 1.332 . S
C574 H554 0.931 . S
C574 C573 1.332 . S
C574 C575 1.267 . S
C575 H543 0.929 . S
C575 C574 1.267 . S
C575 C576 1.251 1_565 S
C576 H546 0.929 . S
C576 N572 1.418 . S
C576 C575 1.251 1_545 S
C577 H544 0.930 . S
C577 C579 1.406 1_565 S
C577 C582 1.261 1_565 S
C578 H545 0.930 . S
C578 N580 1.325 . S
C578 C581 1.357 . S
C579 H547 0.928 1_545 S
C579 C577 1.406 1_545 S
C579 N580 1.261 . S
N580 Co531 2.214 . S
N580 C578 1.325 . S
N580 C579 1.261 . S
C581 H551 0.931 . S
C581 C578 1.357 . S
C581 C582 1.312 . S
C582 H553 0.930 . S
C582 C577 1.261 1_545 S
C582 C581 1.312 . S
C583 O555 1.214 . S
C583 O563 1.234 . S
C584 H556 0.929 . S
C584 C587 1.391 . S
C584 C589 1.391 . S
C585 H557 0.929 . S
C585 C586 1.390 . S
C585 N588 1.391 . S
C586 H558 0.930 . S
C586 C585 1.390 . S
C586 C587 1.392 . S
C587 H559 0.929 . S
C587 C584 1.391 . S
C587 C586 1.392 . S
N588 Co532 2.257 . S
N588 C585 1.391 . S
N588 C589 1.388 . S
C589 H560 0.930 . S
C589 C584 1.391 . S
C589 N588 1.388 . S
Co590 O592 2.143 . S
Co590 O598 2.074 . S
Co590 O601 2.093 . S
Co590 O614 2.097 . S
Co590 N631 2.151 . S
Co590 N639 2.214 . S
Co591 O592 2.160 . S
Co591 O597 2.058 . S
Co591 O607 2.057 . S
Co591 O622 2.037 . S
Co591 N626 2.145 . S
Co591 N647 2.257 . S
O592 Co590 2.143 . S
O592 Co591 2.160 . S
C593 O594 1.278 . S
C593 O601 1.224 . S
O594 C593 1.278 . S
C595 O596 1.245 . S
C595 O607 1.232 . S
O596 C595 1.245 . S
O597 Co591 2.058 . S
O597 C623 1.269 . S
O598 Co590 2.074 . S
O598 C623 1.257 . S
H599 C624 0.930 . S
H600 C630 0.930 . S
O601 Co590 2.093 . S
O601 C593 1.224 . S
H602 C634 0.929 . S
H603 C636 0.930 . S
H604 C637 0.930 . S
H605 C635 0.929 . S
H606 C638 0.928 . S
O607 Co591 2.057 . S
O607 C595 1.232 . S
H608 C627 0.929 . S
H609 C628 0.929 . S
H610 C640 0.931 1_655 S
H611 C632 0.929 . S
H612 C641 0.930 1_655 S
H613 C633 0.931 . S
O614 Co590 2.097 . S
O614 C642 1.214 . S
H615 C643 0.929 . S
H616 C644 0.929 . S
H617 C645 0.930 . S
H618 C646 0.929 . S
H619 C648 0.930 . S
H620 C625 0.930 . S
H621 C629 0.930 . S
O622 Co591 2.037 . S
O622 C642 1.234 . S
C623 O597 1.269 . S
C623 O598 1.257 . S
C624 H599 0.930 . S
C624 C627 1.388 . S
C624 C629 1.418 . S
C625 H620 0.930 . S
C625 C628 1.404 . S
C625 C629 1.353 . S
N626 Co591 2.145 . S
N626 C627 1.397 . S
N626 C628 1.334 . S
C627 H608 0.929 . S
C627 C624 1.388 . S
C627 N626 1.397 . S
C628 H609 0.929 . S
C628 C625 1.404 . S
C628 N626 1.334 . S
C629 H621 0.930 . S
C629 C624 1.418 . S
C629 C625 1.353 . S
C630 H600 0.930 . S
C630 N631 1.330 . S
C630 C632 1.446 . S
N631 Co590 2.151 . S
N631 C630 1.330 . S
N631 C635 1.418 . S
C632 H611 0.929 . S
C632 C630 1.446 . S
C632 C633 1.332 . S
C633 H613 0.931 . S
C633 C632 1.332 . S
C633 C634 1.267 . S
C634 H602 0.929 . S
C634 C633 1.267 . S
C634 C635 1.251 . S
C635 H605 0.929 . S
C635 N631 1.418 . S
C635 C634 1.251 . S
C636 H603 0.930 . S
C636 C638 1.406 . S
C636 C641 1.261 . S
C637 H604 0.930 . S
C637 N639 1.325 . S
C637 C640 1.357 . S
C638 H606 0.928 . S
C638 C636 1.406 . S
C638 N639 1.261 . S
N639 Co590 2.214 . S
N639 C637 1.325 . S
N639 C638 1.261 . S
C640 H610 0.931 1_455 S
C640 C637 1.357 . S
C640 C641 1.312 . S
C641 H612 0.930 1_455 S
C641 C636 1.261 . S
C641 C640 1.312 . S
C642 O614 1.214 . S
C642 O622 1.234 . S
C643 H615 0.929 . S
C643 C646 1.391 . S
C643 C648 1.391 . S
C644 H616 0.929 . S
C644 C645 1.390 . S
C644 N647 1.391 . S
C645 H617 0.930 . S
C645 C644 1.390 . S
C645 C646 1.392 . S
C646 H618 0.929 . S
C646 C643 1.391 . S
C646 C645 1.392 . S
N647 Co591 2.257 . S
N647 C644 1.391 . S
N647 C648 1.388 . S
C648 H619 0.930 . S
C648 C643 1.391 . S
C648 N647 1.388 . S
Co649 O651 2.143 . S
Co649 O657 2.074 . S
Co649 O660 2.093 . S
Co649 O673 2.097 . S
Co649 N690 2.151 . S
Co649 N698 2.214 . S
Co650 O651 2.160 . S
Co650 O656 2.058 . S
Co650 O666 2.057 . S
Co650 O681 2.037 . S
Co650 N685 2.145 . S
Co650 N706 2.257 . S
O651 Co649 2.143 . S
O651 Co650 2.160 . S
C652 O653 1.278 . S
C652 O660 1.224 . S
O653 C652 1.278 . S
C654 O655 1.245 . S
C654 O666 1.232 . S
O655 C654 1.245 . S
O656 Co650 2.058 . S
O656 C682 1.269 . S
O657 Co649 2.074 . S
O657 C682 1.257 . S
H658 C683 0.930 . S
H659 C689 0.930 . S
O660 Co649 2.093 . S
O660 C652 1.224 . S
H661 C693 0.929 . S
H662 C695 0.930 . S
H663 C696 0.930 . S
H664 C694 0.929 . S
H665 C697 0.928 1_455 S
O666 Co650 2.057 . S
O666 C654 1.232 . S
H667 C686 0.929 . S
H668 C687 0.929 . S
H669 C699 0.931 1_565 S
H670 C691 0.929 . S
H671 C700 0.930 1_565 S
H672 C692 0.931 . S
O673 Co649 2.097 . S
O673 C701 1.214 . S
H674 C702 0.929 . S
H675 C703 0.929 . S
H676 C704 0.930 . S
H677 C705 0.929 . S
H678 C707 0.930 . S
H679 C684 0.930 . S
H680 C688 0.930 . S
O681 Co650 2.037 . S
O681 C701 1.234 . S
C682 O656 1.269 . S
C682 O657 1.257 . S
C683 H658 0.930 . S
C683 C686 1.388 . S
C683 C688 1.418 . S
C684 H679 0.930 . S
C684 C687 1.404 . S
C684 C688 1.353 . S
N685 Co650 2.145 . S
N685 C686 1.397 . S
N685 C687 1.334 . S
C686 H667 0.929 . S
C686 C683 1.388 . S
C686 N685 1.397 . S
C687 H668 0.929 . S
C687 C684 1.404 . S
C687 N685 1.334 . S
C688 H680 0.930 . S
C688 C683 1.418 . S
C688 C684 1.353 . S
C689 H659 0.930 . S
C689 N690 1.330 1_455 S
C689 C691 1.446 . S
N690 Co649 2.151 . S
N690 C689 1.330 1_655 S
N690 C694 1.418 . S
C691 H670 0.929 . S
C691 C689 1.446 . S
C691 C692 1.332 . S
C692 H672 0.931 . S
C692 C691 1.332 . S
C692 C693 1.267 . S
C693 H661 0.929 . S
C693 C692 1.267 . S
C693 C694 1.251 1_455 S
C694 H664 0.929 . S
C694 N690 1.418 . S
C694 C693 1.251 1_655 S
C695 H662 0.930 . S
C695 C697 1.406 1_455 S
C695 C700 1.261 1_455 S
C696 H663 0.930 . S
C696 N698 1.325 . S
C696 C699 1.357 . S
C697 H665 0.928 1_655 S
C697 C695 1.406 1_655 S
C697 N698 1.261 . S
N698 Co649 2.214 . S
N698 C696 1.325 . S
N698 C697 1.261 . S
C699 H669 0.931 1_545 S
C699 C696 1.357 . S
C699 C700 1.312 . S
C700 H671 0.930 1_545 S
C700 C695 1.261 1_655 S
C700 C699 1.312 . S
C701 O673 1.214 . S
C701 O681 1.234 . S
C702 H674 0.929 . S
C702 C705 1.391 . S
C702 C707 1.391 . S
C703 H675 0.929 . S
C703 C704 1.390 . S
C703 N706 1.391 . S
C704 H676 0.930 . S
C704 C703 1.390 . S
C704 C705 1.392 . S
C705 H677 0.929 . S
C705 C702 1.391 . S
C705 C704 1.392 . S
N706 Co650 2.257 . S
N706 C703 1.391 . S
N706 C707 1.388 . S
C707 H678 0.930 . S
C707 C702 1.391 . S
C707 N706 1.388 . S
C708 C709 1.369 . S
C708 C710 1.419 . S
C708 H712 0.930 . S
C709 C708 1.369 . S
C709 C718 1.429 . S
C710 C708 1.419 . S
C710 C711 1.363 . S
C710 H713 0.929 . S
C711 C710 1.363 . S
C711 C717 1.428 . S
H712 C708 0.930 . S
H713 C710 0.929 . S
S714 N715 1.613 . S
S714 N716 1.610 . S
N715 S714 1.613 . S
N715 C718 1.350 . S
N716 S714 1.610 . S
N716 C717 1.351 . S
C717 C711 1.428 . S
C717 N716 1.351 . S
C717 C718 1.434 . S
C718 C709 1.429 . S
C718 N715 1.350 . S
C718 C717 1.434 . S
C719 C720 1.369 . S
C719 C721 1.419 . S
C719 H723 0.930 . S
C720 C719 1.369 . S
C720 C729 1.429 . S
C721 C719 1.419 . S
C721 C722 1.363 . S
C721 H724 0.929 . S
C722 C721 1.363 . S
C722 C728 1.428 . S
H723 C719 0.930 . S
H724 C721 0.929 . S
S725 N726 1.613 1_565 S
S725 N727 1.610 1_565 S
N726 S725 1.613 1_545 S
N726 C729 1.350 . S
N727 S725 1.610 1_545 S
N727 C728 1.351 . S
C728 C722 1.428 . S
C728 N727 1.351 . S
C728 C729 1.434 . S
C729 C720 1.429 . S
C729 N726 1.350 . S
C729 C728 1.434 . S
C730 C731 1.369 . S
C730 C732 1.419 . S
C730 H734 0.930 . S
C731 C730 1.369 . S
C731 C740 1.429 . S
C732 C730 1.419 . S
C732 C733 1.363 . S
C732 H735 0.929 . S
C733 C732 1.363 . S
C733 C739 1.428 . S
H734 C730 0.930 . S
H735 C732 0.929 . S
S736 N737 1.613 . S
S736 N738 1.610 . S
N737 S736 1.613 . S
N737 C740 1.350 . S
N738 S736 1.610 . S
N738 C739 1.351 . S
C739 C733 1.428 . S
C739 N738 1.351 . S
C739 C740 1.434 . S
C740 C731 1.429 . S
C740 N737 1.350 . S
C740 C739 1.434 . S
C741 C742 1.369 . S
C741 C743 1.419 . S
C741 H745 0.930 . S
C742 C741 1.369 . S
C742 C751 1.429 . S
C743 C741 1.419 . S
C743 C744 1.363 . S
C743 H746 0.929 . S
C744 C743 1.363 . S
C744 C750 1.428 . S
H745 C741 0.930 . S
H746 C743 0.929 . S
S747 N748 1.613 . S
S747 N749 1.610 . S
N748 S747 1.613 . S
N748 C751 1.350 . S
N749 S747 1.610 . S
N749 C750 1.351 . S
C750 C744 1.428 . S
C750 N749 1.351 . S
C750 C751 1.434 . S
C751 C742 1.429 . S
C751 N748 1.350 . S
C751 C750 1.434 . S
C752 C753 1.369 . S
C752 C754 1.419 . S
C752 H756 0.930 . S
C753 C752 1.369 . S
C753 C762 1.429 . S
C754 C752 1.419 . S
C754 C755 1.363 . S
C754 H757 0.929 . S
C755 C754 1.363 . S
C755 C761 1.428 . S
H756 C752 0.930 . S
H757 C754 0.929 . S
S758 N759 1.613 . S
S758 N760 1.610 . S
N759 S758 1.613 . S
N759 C762 1.350 . S
N760 S758 1.610 . S
N760 C761 1.351 . S
C761 C755 1.428 . S
C761 N760 1.351 . S
C761 C762 1.434 . S
C762 C753 1.429 . S
C762 N759 1.350 . S
C762 C761 1.434 . S
C763 C764 1.369 . S
C763 C765 1.419 . S
C763 H767 0.930 . S
C764 C763 1.369 . S
C764 C773 1.429 . S
C765 C763 1.419 . S
C765 C766 1.363 . S
C765 H768 0.929 . S
C766 C765 1.363 . S
C766 C772 1.428 . S
H767 C763 0.930 . S
H768 C765 0.929 . S
S769 N770 1.613 . S
S769 N771 1.610 . S
N770 S769 1.613 . S
N770 C773 1.350 . S
N771 S769 1.610 . S
N771 C772 1.351 . S
C772 C766 1.428 . S
C772 N771 1.351 . S
C772 C773 1.434 . S
C773 C764 1.429 . S
C773 N770 1.350 . S
C773 C772 1.434 . S
C774 C775 1.369 . S
C774 C776 1.419 . S
C774 H778 0.930 . S
C775 C774 1.369 . S
C775 C784 1.429 . S
C776 C774 1.419 . S
C776 C777 1.363 . S
C776 H779 0.929 . S
C777 C776 1.363 . S
C777 C783 1.428 . S
H778 C774 0.930 . S
H779 C776 0.929 . S
S780 N781 1.613 . S
S780 N782 1.610 . S
N781 S780 1.613 . S
N781 C784 1.350 . S
N782 S780 1.610 . S
N782 C783 1.351 . S
C783 C777 1.428 . S
C783 N782 1.351 . S
C783 C784 1.434 . S
C784 C775 1.429 . S
C784 N781 1.350 . S
C784 C783 1.434 . S
C785 C786 1.369 . S
C785 C787 1.419 1_655 S
C785 H789 0.930 . S
C786 C785 1.369 . S
C786 C795 1.429 . S
C787 C785 1.419 1_455 S
C787 C788 1.363 . S
C787 H790 0.929 . S
C788 C787 1.363 . S
C788 C794 1.428 . S
H789 C785 0.930 . S
H790 C787 0.929 . S
S791 N792 1.613 . S
S791 N793 1.610 1_655 S
N792 S791 1.613 . S
N792 C795 1.350 . S
N793 S791 1.610 1_455 S
N793 C794 1.351 . S
C794 C788 1.428 . S
C794 N793 1.351 . S
C794 C795 1.434 1_455 S
C795 C786 1.429 . S
C795 N792 1.350 . S
C795 C794 1.434 1_655 S
C796 C797 1.369 . S
C796 C798 1.419 1_545 S
C796 H800 0.930 . S
C797 C796 1.369 . S
C797 C806 1.429 . S
C798 C796 1.419 1_565 S
C798 C799 1.363 . S
C798 H801 0.929 . S
C799 C798 1.363 . S
C799 C805 1.428 . S
H800 C796 0.930 . S
H801 C798 0.929 . S
S802 N803 1.613 . S
S802 N804 1.610 1_545 S
N803 S802 1.613 . S
N803 C806 1.350 . S
N804 S802 1.610 1_565 S
N804 C805 1.351 . S
C805 C799 1.428 . S
C805 N804 1.351 . S
C805 C806 1.434 1_565 S
C806 C797 1.429 . S
C806 N803 1.350 . S
C806 C805 1.434 1_545 S
C807 C808 1.369 . S
C807 C809 1.419 . S
C807 H811 0.930 . S
C808 C807 1.369 . S
C808 C817 1.429 . S
C809 C807 1.419 . S
C809 C810 1.363 . S
C809 H812 0.929 . S
C810 C809 1.363 . S
C810 C816 1.428 . S
H811 C807 0.930 . S
H812 C809 0.929 . S
S813 N814 1.613 . S
S813 N815 1.610 . S
N814 S813 1.613 . S
N814 C817 1.350 . S
N815 S813 1.610 . S
N815 C816 1.351 . S
C816 C810 1.428 . S
C816 N815 1.351 . S
C816 C817 1.434 . S
C817 C808 1.429 . S
C817 N814 1.350 . S
C817 C816 1.434 . S
C818 C819 1.369 . S
C818 C820 1.419 1_655 S
C818 H822 0.930 . S
C819 C818 1.369 . S
C819 C828 1.429 . S
C820 C818 1.419 1_455 S
C820 C821 1.363 . S
C820 H823 0.929 . S
C821 C820 1.363 . S
C821 C827 1.428 . S
H822 C818 0.930 . S
H823 C820 0.929 . S
S824 N825 1.613 1_455 S
S824 N826 1.610 . S
N825 S824 1.613 1_655 S
N825 C828 1.350 . S
N826 S824 1.610 . S
N826 C827 1.351 . S
C827 C821 1.428 . S
C827 N826 1.351 . S
C827 C828 1.434 1_455 S
C828 C819 1.429 . S
C828 N825 1.350 . S
C828 C827 1.434 1_655 S
C829 C830 1.369 1_556 S
C829 C831 1.419 1_565 S
C829 H833 0.930 . S
C830 C829 1.369 1_554 S
C830 C839 1.429 . S
C831 C829 1.419 1_545 S
C831 C832 1.363 . S
C831 H834 0.929 . S
C832 C831 1.363 . S
C832 C838 1.428 1_556 S
H833 C829 0.930 . S
H834 C831 0.929 . S
S835 N836 1.613 1_545 S
S835 N837 1.610 . S
N836 S835 1.613 1_565 S
N836 C839 1.350 . S
N837 S835 1.610 . S
N837 C838 1.351 . S
C838 C832 1.428 1_554 S
C838 N837 1.351 . S
C838 C839 1.434 1_545 S
C839 C830 1.429 . S
C839 N836 1.350 . S
C839 C838 1.434 1_565 S
C840 C841 1.369 . S
C840 C842 1.419 . S
C840 H844 0.930 . S
C841 C840 1.369 . S
C841 C850 1.429 . S
C842 C840 1.419 . S
C842 C843 1.363 . S
C842 H845 0.929 . S
C843 C842 1.363 . S
C843 C849 1.428 . S
H844 C840 0.930 . S
H845 C842 0.929 . S
S846 N847 1.613 . S
S846 N848 1.609 . S
N847 S846 1.613 . S
N847 C850 1.350 . S
N848 S846 1.609 . S
N848 C849 1.349 . S
C849 C843 1.428 . S
C849 N848 1.349 . S
C849 C850 1.434 . S
C850 C841 1.429 . S
C850 N847 1.350 . S
C850 C849 1.434 . S
C851 C852 1.369 . S
C851 C853 1.419 . S
C851 H855 0.930 . S
C852 C851 1.369 . S
C852 C861 1.429 . S
C853 C851 1.419 . S
C853 C854 1.363 . S
C853 H856 0.929 . S
C854 C853 1.363 . S
C854 C860 1.428 . S
H855 C851 0.930 . S
H856 C853 0.929 . S
S857 N858 1.613 1_455 S
S857 N859 1.610 . S
N858 S857 1.613 1_655 S
N858 C861 1.350 . S
N859 S857 1.610 . S
N859 C860 1.351 1_455 S
C860 C854 1.428 . S
C860 N859 1.351 1_655 S
C860 C861 1.434 . S
C861 C852 1.429 . S
C861 N858 1.350 . S
C861 C860 1.434 . S
C862 C863 1.369 . S
C862 C864 1.419 . S
C862 H866 0.930 . S
C863 C862 1.369 . S
C863 C872 1.429 . S
C864 C862 1.419 . S
C864 C865 1.363 . S
C864 H867 0.929 . S
C865 C864 1.363 . S
C865 C871 1.428 . S
H866 C862 0.930 . S
H867 C864 0.929 . S
S868 N869 1.613 . S
S868 N870 1.610 1_545 S
N869 S868 1.613 . S
N869 C872 1.350 1_545 S
N870 S868 1.610 1_565 S
N870 C871 1.351 . S
C871 C865 1.428 . S
C871 N870 1.351 . S
C871 C872 1.434 . S
C872 C863 1.429 . S
C872 N869 1.350 1_565 S
C872 C871 1.434 . S
C873 C874 1.369 . S
C873 C875 1.419 . S
C873 H877 0.930 . S
C874 C873 1.369 . S
C874 C883 1.429 . S
C875 C873 1.419 . S
C875 C876 1.363 . S
C875 H878 0.929 . S
C876 C875 1.363 . S
C876 C882 1.428 . S
H877 C873 0.930 . S
H878 C875 0.929 . S
S879 N880 1.613 . S
S879 N881 1.610 . S
N880 S879 1.613 . S
N880 C883 1.350 . S
N881 S879 1.610 . S
N881 C882 1.351 . S
C882 C876 1.428 . S
C882 N881 1.351 . S
C882 C883 1.434 . S
C883 C874 1.429 . S
C883 N880 1.350 . S
C883 C882 1.434 . S
C884 C885 1.369 . S
C884 C886 1.419 . S
C884 H888 0.930 . S
C885 C884 1.369 . S
C885 C894 1.429 . S
C886 C884 1.419 . S
C886 C887 1.363 . S
C886 H889 0.929 . S
C887 C886 1.363 . S
C887 C893 1.428 . S
H888 C884 0.930 . S
H889 C886 0.929 . S
S890 N891 1.613 . S
S890 N892 1.610 . S
N891 S890 1.613 . S
N891 C894 1.350 . S
N892 S890 1.610 . S
N892 C893 1.351 . S
C893 C887 1.428 . S
C893 N892 1.351 . S
C893 C894 1.434 . S
C894 C885 1.429 . S
C894 N891 1.350 . S
C894 C893 1.434 . S
C895 C896 1.369 . S
C895 C897 1.419 . S
C895 H899 0.930 . S
C896 C895 1.369 . S
C896 C905 1.429 . S
C897 C895 1.419 . S
C897 C898 1.363 . S
C897 H900 0.929 1_545 S
C898 C897 1.363 . S
C898 C904 1.428 . S
H899 C895 0.930 . S
H900 C897 0.929 1_565 S
S901 N902 1.613 . S
S901 N903 1.610 . S
N902 S901 1.613 . S
N902 C905 1.350 . S
N903 S901 1.610 . S
N903 C904 1.351 . S
C904 C898 1.428 . S
C904 N903 1.351 . S
C904 C905 1.434 . S
C905 C896 1.429 . S
C905 N902 1.350 . S
C905 C904 1.434 . S
C906 C907 1.369 . S
C906 C908 1.419 . S
C906 H910 0.930 . S
C907 C906 1.369 . S
C907 C916 1.429 . S
C908 C906 1.419 . S
C908 C909 1.363 . S
C908 H911 0.929 . S
C909 C908 1.363 . S
C909 C915 1.428 . S
H910 C906 0.930 . S
H911 C908 0.929 . S
S912 N913 1.613 . S
S912 N914 1.610 . S
N913 S912 1.613 . S
N913 C916 1.350 . S
N914 S912 1.610 . S
N914 C915 1.351 . S
C915 C909 1.428 . S
C915 N914 1.351 . S
C915 C916 1.434 . S
C916 C907 1.429 . S
C916 N913 1.350 . S
C916 C915 1.434 . S
C917 C918 1.369 . S
C917 C919 1.419 . S
C917 H921 0.930 . S
C918 C917 1.369 . S
C918 C927 1.429 . S
C919 C917 1.419 . S
C919 C920 1.363 . S
C919 H922 0.929 . S
C920 C919 1.363 . S
C920 C926 1.428 . S
H921 C917 0.930 . S
H922 C919 0.929 . S
S923 N924 1.613 . S
S923 N925 1.610 . S
N924 S923 1.613 . S
N924 C927 1.350 . S
N925 S923 1.610 . S
N925 C926 1.351 . S
C926 C920 1.428 . S
C926 N925 1.351 . S
C926 C927 1.434 . S
C927 C918 1.429 . S
C927 N924 1.350 . S
C927 C926 1.434 . S
C928 C929 1.369 . S
C928 C930 1.419 . S
C928 H932 0.930 . S
C929 C928 1.369 . S
C929 C938 1.429 . S
C930 C928 1.419 . S
C930 C931 1.363 . S
C930 H933 0.929 1_565 S
C931 C930 1.363 . S
C931 C937 1.428 . S
H932 C928 0.930 . S
H933 C930 0.929 1_545 S
S934 N935 1.613 . S
S934 N936 1.610 . S
N935 S934 1.613 . S
N935 C938 1.350 . S
N936 S934 1.610 . S
N936 C937 1.351 . S
C937 C931 1.428 . S
C937 N936 1.351 . S
C937 C938 1.434 . S
C938 C929 1.429 . S
C938 N935 1.350 . S
C938 C937 1.434 . S
C939 C940 1.369 . S
C939 C941 1.419 . S
C939 H943 0.930 . S
C940 C939 1.369 . S
C940 C949 1.429 . S
C941 C939 1.419 . S
C941 C942 1.363 . S
C941 H944 0.929 . S
C942 C941 1.363 . S
C942 C948 1.428 . S
H943 C939 0.930 . S
H944 C941 0.929 . S
S945 N946 1.613 . S
S945 N947 1.610 . S
N946 S945 1.613 . S
N946 C949 1.350 . S
N947 S945 1.610 . S
N947 C948 1.351 . S
C948 C942 1.428 . S
C948 N947 1.351 . S
C948 C949 1.434 . S
C949 C940 1.429 . S
C949 N946 1.350 . S
C949 C948 1.434 . S
C950 C951 1.369 . S
C950 C952 1.419 . S
C950 H954 0.930 . S
C951 C950 1.369 . S
C951 C960 1.429 . S
C952 C950 1.419 . S
C952 C953 1.363 . S
C952 H955 0.929 . S
C953 C952 1.363 . S
C953 C959 1.428 . S
H954 C950 0.930 . S
H955 C952 0.929 . S
S956 N957 1.613 . S
S956 N958 1.610 . S
N957 S956 1.613 . S
N957 C960 1.350 . S
N958 S956 1.610 . S
N958 C959 1.351 . S
C959 C953 1.428 . S
C959 N958 1.351 . S
C959 C960 1.434 . S
C960 C951 1.429 . S
C960 N957 1.350 . S
C960 C959 1.434 . S
C961 C962 1.369 . S
C961 C963 1.419 . S
C961 H965 0.930 . S
C962 C961 1.369 . S
C962 C971 1.429 . S
C963 C961 1.419 . S
C963 C964 1.363 . S
C963 H966 0.929 . S
C964 C963 1.363 . S
C964 C970 1.428 . S
H965 C961 0.930 . S
H966 C963 0.929 . S
S967 N968 1.613 1_545 S
S967 N969 1.610 . S
N968 S967 1.613 1_565 S
N968 C971 1.350 1_565 S
N969 S967 1.610 . S
N969 C970 1.351 . S
C970 C964 1.428 . S
C970 N969 1.351 . S
C970 C971 1.434 . S
C971 C962 1.429 . S
C971 N968 1.350 1_545 S
C971 C970 1.434 . S
C709 C477 1.375 . S
C711 C5 1.377 . S
C720 C64 1.375 . S
C722 C536 1.376 . S
C731 C123 1.377 . S
C733 C595 1.375 . S
C742 C182 1.375 . S
C744 C654 1.377 . S
C753 C359 1.375 . S
C755 C241 1.377 . S
C764 C300 1.376 . S
C766 C418 1.376 . S
C775 C583 1.160 . S
C777 C52 1.161 . S
C786 C111 1.164 . S
C788 C642 1.163 . S
C797 C701 1.163 . S
C799 C170 1.162 . S
C808 C229 1.162 . S
C810 C406 1.161 . S
C819 C465 1.161 . S
C821 C288 1.162 . S
C830 C524 1.161 . S
C832 C347 1.162 . S
C841 C33 1.544 . S
C843 C298 1.505 1_554 S
C852 C92 1.540 . S
C854 C3 1.507 1_655 S
C863 C62 1.503 1_565 S
C865 C151 1.542 . S
C874 C210 1.540 . S
C876 C121 1.506 . S
C885 C269 1.540 . S
C887 C180 1.509 1_455 S
C896 C328 1.544 . S
C898 C239 1.508 1_545 S
C907 C387 1.542 . S
C909 C416 1.504 . S
C918 C446 1.541 . S
C920 C475 1.510 1_656 S
C929 C505 1.544 . S
C931 C534 1.509 1_565 S
C940 C564 1.539 . S
C942 C593 1.507 . S
C951 C623 1.541 . S
C953 C652 1.510 1_455 S
C962 C357 1.506 1_545 S
C964 C682 1.541 . S
