# Generated by pormake.
# Topology cag, (4)-cn, num edge types: 1
# Building blocks:
#     Node 0, Type 0, BuildingBlock: UXUYUI_clean_sbu_0, # of connection points: 4
#     Node 1, Type 0, BuildingBlock: UXUYUI_clean_sbu_0, # of connection points: 4
#     Node 2, Type 0, BuildingBlock: UXUYUI_clean_sbu_0, # of connection points: 4
#     Node 3, Type 0, BuildingBlock: UXUYUI_clean_sbu_0, # of connection points: 4
#     Node 4, Type 0, BuildingBlock: UXUYUI_clean_sbu_0, # of connection points: 4
#     Node 5, Type 0, BuildingBlock: UXUYUI_clean_sbu_0, # of connection points: 4
#     Node 6, Type 0, BuildingBlock: UXUYUI_clean_sbu_0, # of connection points: 4
#     Node 7, Type 0, BuildingBlock: UXUYUI_clean_sbu_0, # of connection points: 4
#     Node 8, Type 0, BuildingBlock: UXUYUI_clean_sbu_0, # of connection points: 4
#     Node 9, Type 0, BuildingBlock: UXUYUI_clean_sbu_0, # of connection points: 4
#     Node 10, Type 0, BuildingBlock: UXUYUI_clean_sbu_0, # of connection points: 4
#     Node 11, Type 0, BuildingBlock: UXUYUI_clean_sbu_0, # of connection points: 4
#     Node 12, Type 0, BuildingBlock: UXUYUI_clean_sbu_0, # of connection points: 4
#     Node 13, Type 0, BuildingBlock: UXUYUI_clean_sbu_0, # of connection points: 4
#     Node 14, Type 0, BuildingBlock: UXUYUI_clean_sbu_0, # of connection points: 4
#     Node 15, Type 0, BuildingBlock: UXUYUI_clean_sbu_0, # of connection points: 4
#     Edge 16, Type (0, 0), BuildingBlock: ZUJKAS_clean_linker_0, # of connection points: 2
#     Edge 17, Type (0, 0), BuildingBlock: ZUJKAS_clean_linker_0, # of connection points: 2
#     Edge 18, Type (0, 0), BuildingBlock: ZUJKAS_clean_linker_0, # of connection points: 2
#     Edge 19, Type (0, 0), BuildingBlock: ZUJKAS_clean_linker_0, # of connection points: 2
#     Edge 20, Type (0, 0), BuildingBlock: ZUJKAS_clean_linker_0, # of connection points: 2
#     Edge 21, Type (0, 0), BuildingBlock: ZUJKAS_clean_linker_0, # of connection points: 2
#     Edge 22, Type (0, 0), BuildingBlock: ZUJKAS_clean_linker_0, # of connection points: 2
#     Edge 23, Type (0, 0), BuildingBlock: ZUJKAS_clean_linker_0, # of connection points: 2
#     Edge 24, Type (0, 0), BuildingBlock: ZUJKAS_clean_linker_0, # of connection points: 2
#     Edge 25, Type (0, 0), BuildingBlock: ZUJKAS_clean_linker_0, # of connection points: 2
#     Edge 26, Type (0, 0), BuildingBlock: ZUJKAS_clean_linker_0, # of connection points: 2
#     Edge 27, Type (0, 0), BuildingBlock: ZUJKAS_clean_linker_0, # of connection points: 2
#     Edge 28, Type (0, 0), BuildingBlock: ZUJKAS_clean_linker_0, # of connection points: 2
#     Edge 29, Type (0, 0), BuildingBlock: ZUJKAS_clean_linker_0, # of connection points: 2
#     Edge 30, Type (0, 0), BuildingBlock: ZUJKAS_clean_linker_0, # of connection points: 2
#     Edge 31, Type (0, 0), BuildingBlock: ZUJKAS_clean_linker_0, # of connection points: 2
#     Edge 32, Type (0, 0), BuildingBlock: ZUJKAS_clean_linker_0, # of connection points: 2
#     Edge 33, Type (0, 0), BuildingBlock: ZUJKAS_clean_linker_0, # of connection points: 2
#     Edge 34, Type (0, 0), BuildingBlock: ZUJKAS_clean_linker_0, # of connection points: 2
#     Edge 35, Type (0, 0), BuildingBlock: ZUJKAS_clean_linker_0, # of connection points: 2
#     Edge 36, Type (0, 0), BuildingBlock: ZUJKAS_clean_linker_0, # of connection points: 2
#     Edge 37, Type (0, 0), BuildingBlock: ZUJKAS_clean_linker_0, # of connection points: 2
#     Edge 38, Type (0, 0), BuildingBlock: ZUJKAS_clean_linker_0, # of connection points: 2
#     Edge 39, Type (0, 0), BuildingBlock: ZUJKAS_clean_linker_0, # of connection points: 2
#     Edge 40, Type (0, 0), BuildingBlock: ZUJKAS_clean_linker_0, # of connection points: 2
#     Edge 41, Type (0, 0), BuildingBlock: ZUJKAS_clean_linker_0, # of connection points: 2
#     Edge 42, Type (0, 0), BuildingBlock: ZUJKAS_clean_linker_0, # of connection points: 2
#     Edge 43, Type (0, 0), BuildingBlock: ZUJKAS_clean_linker_0, # of connection points: 2
#     Edge 44, Type (0, 0), BuildingBlock: ZUJKAS_clean_linker_0, # of connection points: 2
#     Edge 45, Type (0, 0), BuildingBlock: ZUJKAS_clean_linker_0, # of connection points: 2
#     Edge 46, Type (0, 0), BuildingBlock: ZUJKAS_clean_linker_0, # of connection points: 2
#     Edge 47, Type (0, 0), BuildingBlock: ZUJKAS_clean_linker_0, # of connection points: 2
# Relax obj value: 0.065
# Max RMSD: 0.090
# Mean RMSD: 0.089
data_MOF--net-cag--node1-UXUYUI_clean_sbu_0--edge1-ZUJKAS_clean_linker_0
_symmetry_space_group_name_H-M    P1
_symmetry_Int_Tables_number       1
_symmetry_cell_setting            triclinic
loop_
_symmetry_equiv_pos_as_xyz
'x, y, z'
_cell_length_a     73.741249
_cell_length_b     87.408417
_cell_length_c     76.847678
_cell_angle_alpha  90.000784
_cell_angle_beta   89.985983
_cell_angle_gamma 89.99253
loop_
_atom_site_label
_atom_site_type_symbol
_atom_site_fract_x
_atom_site_fract_y
_atom_site_fract_z
_atom_type_partial_charge
Li0 Li 0.31367 0.14675 0.08064 0.0
Li1 Li 0.34126 0.13562 0.09332 0.0
Li2 Li 0.31668 0.11853 0.08184 0.0
Li3 Li 0.31326 0.13261 0.10941 0.0
C4 C 0.33271 0.13534 0.05153 0.0
N5 N 0.33396 0.13882 0.01581 0.0
C6 C 0.34784 0.14204 0.04365 0.0
C7 C 0.31834 0.13022 0.04122 0.0
C8 C 0.34818 0.14376 0.02557 0.0
C9 C 0.31919 0.13212 0.02319 0.0
C10 C 0.33821 0.16234 0.10895 0.0
C11 C 0.36085 0.16986 0.12991 0.0
N12 N 0.36433 0.18264 0.12038 0.0
C13 C 0.3419 0.1756 0.09943 0.0
C14 C 0.34764 0.15949 0.12439 0.0
C15 C 0.35519 0.18571 0.10541 0.0
C16 C 0.28643 0.16782 0.07102 0.0
N17 N 0.30386 0.16355 0.06788 0.0
C18 C 0.30715 0.18345 0.04677 0.0
C19 C 0.31431 0.17118 0.05617 0.0
C20 C 0.28911 0.18802 0.04956 0.0
C21 C 0.27873 0.18005 0.06194 0.0
H22 H 0.27849 0.16169 0.08058 0.0
H23 H 0.32828 0.1679 0.0543 0.0
C24 C 0.37652 0.12694 0.10358 0.0
N25 N 0.36694 0.13782 0.09491 0.0
C26 C 0.3954 0.12777 0.10444 0.0
C27 C 0.39427 0.15103 0.08747 0.0
C28 C 0.37539 0.14972 0.08689 0.0
C29 C 0.40454 0.13988 0.09622 0.0
H30 H 0.36952 0.11749 0.10964 0.0
H31 H 0.36749 0.15808 0.07983 0.0
C32 C 0.27931 0.12633 0.08421 0.0
N33 N 0.24566 0.11614 0.07342 0.0
C34 C 0.26818 0.11816 0.09563 0.0
C35 C 0.27317 0.12955 0.06739 0.0
C36 C 0.25126 0.11304 0.08991 0.0
C37 C 0.25616 0.12423 0.06216 0.0
C38 C 0.33147 0.10671 0.11727 0.0
C39 C 0.32335 0.09231 0.11593 0.0
C40 C 0.33972 0.11107 0.13288 0.0
C41 C 0.32342 0.08256 0.13034 0.0
C42 C 0.33947 0.101 0.147 0.0
N43 N 0.33139 0.08708 0.14545 0.0
C44 C 0.32675 0.09525 0.05917 0.0
C45 C 0.29748 0.09125 0.07104 0.0
C46 C 0.32555 0.08169 0.04967 0.0
N47 N 0.31278 0.09983 0.06947 0.0
C48 C 0.29572 0.07756 0.06178 0.0
C49 C 0.30986 0.07264 0.05087 0.0
H50 H 0.33891 0.10213 0.05842 0.0
H51 H 0.28674 0.09486 0.07961 0.0
C52 C 0.30287 0.14558 0.14146 0.0
N53 N 0.30268 0.13235 0.13217 0.0
C54 C 0.29568 0.14604 0.15827 0.0
C55 C 0.28809 0.11926 0.15565 0.0
C56 C 0.29526 0.11937 0.13882 0.0
C57 C 0.28826 0.13272 0.16567 0.0
H58 H 0.30858 0.15582 0.13579 0.0
H59 H 0.295 0.10904 0.13113 0.0
O60 O 0.33216 0.13363 0.06922 0.0
O61 O 0.32546 0.15219 0.10317 0.0
O62 O 0.29589 0.13149 0.08965 0.0
O63 O 0.33147 0.11643 0.10332 0.0
H64 H 0.35916 0.14594 0.05141 0.0
H65 H 0.30675 0.12468 0.04704 0.0
H66 H 0.35975 0.14901 0.01931 0.0
H67 H 0.30814 0.12823 0.01506 0.0
H68 H 0.36833 0.16775 0.14178 0.0
H69 H 0.33467 0.17802 0.08751 0.0
H70 H 0.34485 0.14934 0.13196 0.0
H71 H 0.35827 0.19598 0.09812 0.0
H72 H 0.31576 0.18946 0.03762 0.0
H73 H 0.26475 0.18311 0.06445 0.0
H74 H 0.40276 0.119 0.11146 0.0
H75 H 0.40077 0.16044 0.08076 0.0
H76 H 0.2726 0.1157 0.10874 0.0
H77 H 0.28134 0.13622 0.05852 0.0
H78 H 0.24257 0.1066 0.09857 0.0
H79 H 0.25128 0.12661 0.04916 0.0
H80 H 0.31699 0.08872 0.10394 0.0
H81 H 0.34614 0.12213 0.13411 0.0
H82 H 0.31712 0.07141 0.12952 0.0
H83 H 0.3457 0.10426 0.15919 0.0
H84 H 0.33694 0.07821 0.04171 0.0
H85 H 0.28336 0.07096 0.06308 0.0
H86 H 0.29578 0.15678 0.16529 0.0
H87 H 0.28273 0.10866 0.16079 0.0
Li88 Li 0.1868 0.88529 0.58104 0.0
Li89 Li 0.19015 0.87169 0.60901 0.0
Li90 Li 0.18976 0.85723 0.58043 0.0
Li91 Li 0.16195 0.86827 0.5928 0.0
C92 C 0.22363 0.87909 0.5842 0.0
N93 N 0.25596 0.89236 0.57406 0.0
C94 C 0.23421 0.88703 0.59628 0.0
C95 C 0.22965 0.87768 0.56702 0.0
C96 C 0.25048 0.89371 0.59088 0.0
C97 C 0.24598 0.88453 0.56213 0.0
C98 C 0.17043 0.89758 0.61609 0.0
C99 C 0.15952 0.90376 0.64483 0.0
N100 N 0.16749 0.91775 0.64364 0.0
C101 C 0.17837 0.91207 0.61507 0.0
C102 C 0.16079 0.89343 0.63102 0.0
C103 C 0.17678 0.92209 0.62916 0.0
C104 C 0.17821 0.90733 0.55611 0.0
N105 N 0.19086 0.9038 0.56834 0.0
C106 C 0.20693 0.927 0.56236 0.0
C107 C 0.20501 0.91335 0.57167 0.0
C108 C 0.19404 0.93094 0.54966 0.0
C109 C 0.17957 0.92085 0.54655 0.0
H110 H 0.16692 0.89969 0.55391 0.0
H111 H 0.21456 0.91062 0.58183 0.0
C112 C 0.20152 0.8589 0.64082 0.0
N113 N 0.20044 0.87228 0.63187 0.0
C114 C 0.20846 0.85864 0.65773 0.0
C115 C 0.21335 0.88591 0.65585 0.0
C116 C 0.20644 0.88561 0.63893 0.0
C117 C 0.21437 0.8723 0.66556 0.0
H118 H 0.19701 0.84839 0.63482 0.0
H119 H 0.20587 0.89606 0.63146 0.0
C120 C 0.16985 0.86602 0.55161 0.0
N121 N 0.16708 0.85751 0.51708 0.0
C122 C 0.1548 0.85773 0.54585 0.0
C123 C 0.18333 0.8702 0.53976 0.0
C124 C 0.15369 0.85347 0.52836 0.0
C125 C 0.18173 0.86574 0.52237 0.0
C126 C 0.16613 0.84192 0.61049 0.0
C127 C 0.16267 0.82783 0.60258 0.0
C128 C 0.15763 0.84556 0.62621 0.0
C129 C 0.15047 0.8177 0.61038 0.0
C130 C 0.14551 0.83513 0.6336 0.0
N131 N 0.14219 0.82154 0.62558 0.0
C132 C 0.21777 0.83779 0.5684 0.0
C133 C 0.1884 0.83097 0.55865 0.0
C134 C 0.22541 0.82558 0.55923 0.0
N135 N 0.1996 0.84033 0.56782 0.0
C136 C 0.19545 0.81867 0.54924 0.0
C137 C 0.21421 0.81583 0.54942 0.0
H138 H 0.22635 0.84519 0.5761 0.0
H139 H 0.17395 0.833 0.55872 0.0
C140 C 0.12665 0.87836 0.60051 0.0
N141 N 0.13626 0.86617 0.59456 0.0
C142 C 0.10778 0.87771 0.6015 0.0
C143 C 0.10892 0.85194 0.59016 0.0
C144 C 0.12781 0.85312 0.58935 0.0
C145 C 0.09864 0.8644 0.59621 0.0
H146 H 0.13364 0.88871 0.60428 0.0
H147 H 0.13569 0.84371 0.58426 0.0
O148 O 0.20765 0.8725 0.58926 0.0
O149 O 0.1719 0.88761 0.60243 0.0
O150 O 0.17123 0.87018 0.56872 0.0
O151 O 0.17791 0.85205 0.60297 0.0
H152 H 0.22987 0.8881 0.60965 0.0
H153 H 0.22187 0.87127 0.5576 0.0
H154 H 0.25874 0.89998 0.60008 0.0
H155 H 0.25076 0.88358 0.54886 0.0
H156 H 0.15217 0.90066 0.6565 0.0
H157 H 0.18576 0.91553 0.60359 0.0
H158 H 0.15431 0.88237 0.63191 0.0
H159 H 0.18294 0.93331 0.62859 0.0
H160 H 0.2181 0.93458 0.56542 0.0
H161 H 0.1694 0.92336 0.5368 0.0
H162 H 0.20934 0.84781 0.66451 0.0
H163 H 0.21759 0.89675 0.66132 0.0
H164 H 0.14415 0.85452 0.55481 0.0
H165 H 0.19484 0.87692 0.5439 0.0
H166 H 0.14219 0.84695 0.52375 0.0
H167 H 0.19211 0.86885 0.51307 0.0
H168 H 0.16925 0.82477 0.5905 0.0
H169 H 0.16039 0.85629 0.63265 0.0
H170 H 0.14757 0.8068 0.60434 0.0
H171 H 0.13877 0.83783 0.64572 0.0
H172 H 0.23989 0.82368 0.56006 0.0
H173 H 0.18628 0.81155 0.54179 0.0
H174 H 0.10042 0.88754 0.60638 0.0
H175 H 0.10243 0.84155 0.58568 0.0
Li176 Li 0.31192 0.87233 0.89591 0.0
Li177 Li 0.3165 0.88576 0.92316 0.0
Li178 Li 0.34 0.86877 0.91086 0.0
Li179 Li 0.31272 0.85757 0.92345 0.0
C180 C 0.33171 0.8973 0.88699 0.0
N181 N 0.33371 0.91563 0.85773 0.0
C182 C 0.32648 0.91266 0.88785 0.0
C183 C 0.33815 0.89133 0.87128 0.0
C184 C 0.32754 0.92172 0.87291 0.0
C185 C 0.339 0.90076 0.85663 0.0
C186 C 0.27972 0.88182 0.91158 0.0
C187 C 0.24743 0.88338 0.90683 0.0
N188 N 0.24928 0.89827 0.90201 0.0
C189 C 0.28127 0.89713 0.90661 0.0
C190 C 0.26264 0.87488 0.91171 0.0
C191 C 0.26575 0.90526 0.90181 0.0
C192 C 0.29877 0.85951 0.86479 0.0
N193 N 0.30048 0.873 0.87344 0.0
C194 C 0.28698 0.88649 0.84964 0.0
C195 C 0.2945 0.88633 0.86631 0.0
C196 C 0.28535 0.87276 0.84028 0.0
C197 C 0.29119 0.85911 0.84813 0.0
H198 H 0.30345 0.84903 0.87077 0.0
H199 H 0.2958 0.89693 0.87338 0.0
C200 C 0.32743 0.9139 0.93667 0.0
N201 N 0.31327 0.90397 0.93644 0.0
C202 C 0.32625 0.92754 0.94601 0.0
C203 C 0.29604 0.92035 0.9551 0.0
C204 C 0.2978 0.90684 0.94552 0.0
C205 C 0.31036 0.93097 0.95534 0.0
H206 H 0.33966 0.91119 0.92952 0.0
H207 H 0.2868 0.89865 0.94528 0.0
C208 C 0.33686 0.84245 0.89515 0.0
N209 N 0.36349 0.82243 0.88409 0.0
C210 C 0.34271 0.83064 0.90604 0.0
C211 C 0.34439 0.84396 0.87854 0.0
C212 C 0.35623 0.82067 0.90024 0.0
C213 C 0.35788 0.83376 0.87322 0.0
C214 C 0.32856 0.87084 0.95289 0.0
C215 C 0.34322 0.87145 0.96438 0.0
C216 C 0.31086 0.87126 0.95939 0.0
C217 C 0.33992 0.87247 0.98225 0.0
C218 C 0.30812 0.87229 0.97734 0.0
N219 N 0.32259 0.87287 0.9883 0.0
C220 C 0.37545 0.87432 0.89764 0.0
C221 C 0.37374 0.85595 0.92024 0.0
C222 C 0.39427 0.87276 0.89687 0.0
N223 N 0.36561 0.86595 0.90916 0.0
C224 C 0.39255 0.85398 0.91989 0.0
C225 C 0.40311 0.86252 0.90815 0.0
H226 H 0.36878 0.88246 0.88927 0.0
H227 H 0.36561 0.84958 0.92944 0.0
C228 C 0.28623 0.83561 0.9325 0.0
N229 N 0.30333 0.8405 0.93602 0.0
C230 C 0.27889 0.8232 0.94153 0.0
C231 C 0.30706 0.82085 0.95737 0.0
C232 C 0.31379 0.83339 0.94814 0.0
C233 C 0.28936 0.81563 0.95414 0.0
H234 H 0.27834 0.8413 0.92259 0.0
H235 H 0.32741 0.83745 0.9506 0.0
O236 O 0.33067 0.88822 0.90148 0.0
O237 O 0.29477 0.87363 0.91631 0.0
O238 O 0.32394 0.85254 0.90076 0.0
O239 O 0.33163 0.86991 0.93537 0.0
H240 H 0.32158 0.91755 0.89989 0.0
H241 H 0.34226 0.8795 0.87036 0.0
H242 H 0.32346 0.9336 0.87338 0.0
H243 H 0.34383 0.89624 0.84437 0.0
H244 H 0.23414 0.87814 0.90686 0.0
H245 H 0.29434 0.90267 0.90634 0.0
H246 H 0.26111 0.86305 0.91555 0.0
H247 H 0.26682 0.91711 0.8979 0.0
H248 H 0.28241 0.89724 0.84417 0.0
H249 H 0.29028 0.84829 0.84133 0.0
H250 H 0.33775 0.93525 0.9461 0.0
H251 H 0.28352 0.92256 0.96202 0.0
H252 H 0.33704 0.82929 0.91892 0.0
H253 H 0.33985 0.85289 0.86985 0.0
H254 H 0.36098 0.81155 0.90859 0.0
H255 H 0.36388 0.83485 0.86043 0.0
H256 H 0.357 0.87114 0.95953 0.0
H257 H 0.29934 0.87079 0.9507 0.0
H258 H 0.35113 0.87296 0.9913 0.0
H259 H 0.2945 0.87263 0.98255 0.0
H260 H 0.40185 0.87982 0.88786 0.0
H261 H 0.39873 0.84586 0.92873 0.0
H262 H 0.26527 0.81941 0.93847 0.0
H263 H 0.31554 0.8154 0.96707 0.0
Li264 Li 0.18927 0.14619 0.4243 0.0
Li265 Li 0.16099 0.13592 0.41218 0.0
Li266 Li 0.18551 0.11877 0.42419 0.0
Li267 Li 0.1897 0.13175 0.39598 0.0
C268 C 0.16812 0.14173 0.45173 0.0
N269 N 0.16436 0.15779 0.48248 0.0
C270 C 0.15286 0.1509 0.4545 0.0
C271 C 0.18136 0.14058 0.46468 0.0
C272 C 0.15123 0.15896 0.47012 0.0
C273 C 0.17925 0.14884 0.48011 0.0
C274 C 0.16921 0.16125 0.39044 0.0
C275 C 0.1558 0.16634 0.3624 0.0
N276 N 0.15265 0.18104 0.36733 0.0
C277 C 0.16606 0.17646 0.39514 0.0
C278 C 0.16422 0.15618 0.37387 0.0
C279 C 0.15758 0.18627 0.38331 0.0
C280 C 0.21738 0.16334 0.44019 0.0
N281 N 0.19933 0.16316 0.4366 0.0
C282 C 0.19523 0.18704 0.45125 0.0
C283 C 0.18827 0.17476 0.44176 0.0
C284 C 0.2138 0.1875 0.45528 0.0
C285 C 0.22495 0.17547 0.44953 0.0
H286 H 0.22589 0.15403 0.43585 0.0
H287 H 0.174 0.17441 0.4386 0.0
C288 C 0.12525 0.12532 0.4104 0.0
N289 N 0.13536 0.13832 0.41026 0.0
C290 C 0.10639 0.12609 0.40924 0.0
C291 C 0.10858 0.15366 0.40831 0.0
C292 C 0.12744 0.15234 0.4094 0.0
C293 C 0.0978 0.1404 0.40816 0.0
H294 H 0.13186 0.11432 0.41151 0.0
H295 H 0.1357 0.16253 0.4098 0.0
C296 C 0.22116 0.12127 0.41993 0.0
N297 N 0.24947 0.10187 0.42812 0.0
C298 C 0.22979 0.11288 0.40684 0.0
C299 C 0.22704 0.11992 0.43715 0.0
C300 C 0.24406 0.10311 0.41126 0.0
C301 C 0.24134 0.11001 0.44104 0.0
C302 C 0.16422 0.10739 0.38969 0.0
C303 C 0.16908 0.09195 0.38884 0.0
C304 C 0.15217 0.11338 0.37741 0.0
C305 C 0.16208 0.08283 0.3755 0.0
C306 C 0.14545 0.10389 0.36428 0.0
N307 N 0.15053 0.08894 0.36359 0.0
C308 C 0.18131 0.09895 0.45269 0.0
C309 C 0.1992 0.08851 0.43001 0.0
C310 C 0.18302 0.08552 0.46236 0.0
N311 N 0.18935 0.10022 0.43685 0.0
C312 C 0.20134 0.07487 0.43928 0.0
C313 C 0.19307 0.07321 0.45564 0.0
H314 H 0.17336 0.10832 0.45777 0.0
H315 H 0.2052 0.08967 0.41725 0.0
C316 C 0.20846 0.14403 0.36755 0.0
N317 N 0.20045 0.13099 0.37335 0.0
C318 C 0.21628 0.14458 0.35101 0.0
C319 C 0.20764 0.11819 0.34672 0.0
C320 C 0.20013 0.11813 0.3634 0.0
C321 C 0.21582 0.13156 0.34024 0.0
H322 H 0.20871 0.15405 0.37581 0.0
H323 H 0.19406 0.10779 0.36835 0.0
O324 O 0.17008 0.13393 0.43642 0.0
O325 O 0.17752 0.15151 0.40188 0.0
O326 O 0.20708 0.13081 0.41587 0.0
O327 O 0.17097 0.11646 0.40268 0.0
H328 H 0.14246 0.15187 0.44465 0.0
H329 H 0.19321 0.13348 0.46277 0.0
H330 H 0.13955 0.16617 0.47241 0.0
H331 H 0.18946 0.14815 0.49019 0.0
H332 H 0.15183 0.16254 0.34956 0.0
H333 H 0.17002 0.18065 0.40782 0.0
H334 H 0.16698 0.14459 0.36981 0.0
H335 H 0.15495 0.19805 0.38683 0.0
H336 H 0.1862 0.19617 0.45523 0.0
H337 H 0.23931 0.17533 0.45246 0.0
H338 H 0.0986 0.11559 0.40952 0.0
H339 H 0.10252 0.16492 0.4075 0.0
H340 H 0.22545 0.11382 0.39345 0.0
H341 H 0.22056 0.12638 0.44741 0.0
H342 H 0.25081 0.09648 0.40129 0.0
H343 H 0.24595 0.10877 0.45432 0.0
H344 H 0.17824 0.08706 0.3983 0.0
H345 H 0.14785 0.12517 0.37811 0.0
H346 H 0.16583 0.07089 0.37463 0.0
H347 H 0.13614 0.1084 0.35469 0.0
H348 H 0.17655 0.0848 0.47499 0.0
H349 H 0.209 0.06559 0.4335 0.0
H350 H 0.22274 0.15506 0.34678 0.0
H351 H 0.20678 0.10791 0.33891 0.0
Li352 Li 0.68671 0.88587 0.92322 0.0
Li353 Li 0.69021 0.85794 0.92479 0.0
Li354 Li 0.68983 0.87199 0.89595 0.0
Li355 Li 0.66165 0.86842 0.91272 0.0
C356 C 0.72258 0.8813 0.92069 0.0
N357 N 0.75229 0.8979 0.9318 0.0
C358 C 0.73248 0.87648 0.93521 0.0
C359 C 0.72796 0.89442 0.91168 0.0
C360 C 0.74742 0.88506 0.94066 0.0
C361 C 0.74296 0.9027 0.91754 0.0
C362 C 0.66638 0.86514 0.95219 0.0
C363 C 0.64913 0.84685 0.96888 0.0
N364 N 0.65538 0.8533 0.98383 0.0
C365 C 0.67242 0.87172 0.96772 0.0
C366 C 0.65447 0.85271 0.95277 0.0
C367 C 0.66679 0.86552 0.98358 0.0
C368 C 0.68295 0.91755 0.92923 0.0
N369 N 0.69128 0.90468 0.93513 0.0
C370 C 0.7045 0.91861 0.95873 0.0
C371 C 0.70188 0.90497 0.9496 0.0
C372 C 0.69597 0.9321 0.95302 0.0
C373 C 0.68514 0.93143 0.93798 0.0
H374 H 0.67428 0.91698 0.91792 0.0
H375 H 0.7081 0.89454 0.95423 0.0
C376 C 0.70379 0.8279 0.92912 0.0
N377 N 0.70052 0.84129 0.93756 0.0
C378 C 0.71087 0.81535 0.93811 0.0
C379 C 0.71162 0.83073 0.96423 0.0
C380 C 0.70453 0.84296 0.95472 0.0
C381 C 0.71477 0.81663 0.95596 0.0
H382 H 0.70082 0.82692 0.91539 0.0
H383 H 0.70241 0.85385 0.96102 0.0
C384 C 0.66838 0.89609 0.88751 0.0
N385 N 0.66294 0.91304 0.85762 0.0
C386 C 0.65251 0.89421 0.8778 0.0
C387 C 0.68135 0.90675 0.88217 0.0
C388 C 0.65004 0.90285 0.86269 0.0
C389 C 0.67839 0.91517 0.86698 0.0
C390 C 0.66854 0.83978 0.89716 0.0
C391 C 0.66604 0.83704 0.8794 0.0
C392 C 0.66178 0.82934 0.9093 0.0
C393 C 0.65645 0.82407 0.8741 0.0
C394 C 0.65228 0.81649 0.9035 0.0
N395 N 0.6498 0.81416 0.88616 0.0
C396 C 0.71798 0.87226 0.87085 0.0
C397 C 0.68836 0.87266 0.85897 0.0
C398 C 0.72558 0.87241 0.85418 0.0
N399 N 0.69968 0.87244 0.87293 0.0
C400 C 0.69535 0.87299 0.84209 0.0
C401 C 0.71423 0.87281 0.83947 0.0
H402 H 0.7267 0.87183 0.88215 0.0
H403 H 0.67386 0.87251 0.86092 0.0
C404 C 0.62589 0.87189 0.92472 0.0
N405 N 0.63593 0.86594 0.91152 0.0
C406 C 0.60701 0.87066 0.92455 0.0
C407 C 0.60908 0.85742 0.89702 0.0
C408 C 0.62792 0.85894 0.89772 0.0
C409 C 0.59833 0.86332 0.91056 0.0
H410 H 0.63256 0.87771 0.93536 0.0
H411 H 0.63609 0.85472 0.88711 0.0
O412 O 0.70782 0.87312 0.91527 0.0
O413 O 0.67181 0.87105 0.93654 0.0
O414 O 0.67109 0.88764 0.90227 0.0
O415 O 0.67785 0.85247 0.90255 0.0
H416 H 0.7286 0.86629 0.94225 0.0
H417 H 0.72062 0.89817 0.90028 0.0
H418 H 0.75513 0.88153 0.95193 0.0
H419 H 0.74721 0.91292 0.91074 0.0
H420 H 0.63996 0.83721 0.9695 0.0
H421 H 0.68148 0.88144 0.96754 0.0
H422 H 0.64923 0.84776 0.94093 0.0
H423 H 0.67149 0.87042 0.99569 0.0
H424 H 0.71308 0.91858 0.97016 0.0
H425 H 0.678 0.94143 0.93327 0.0
H426 H 0.71298 0.8047 0.93121 0.0
H427 H 0.71481 0.83236 0.97786 0.0
H428 H 0.64227 0.88609 0.88181 0.0
H429 H 0.69357 0.90851 0.88965 0.0
H430 H 0.63789 0.90144 0.85498 0.0
H431 H 0.68837 0.9234 0.86263 0.0
H432 H 0.67134 0.84489 0.8698 0.0
H433 H 0.66402 0.83102 0.92306 0.0
H434 H 0.65431 0.82187 0.8604 0.0
H435 H 0.64694 0.80835 0.91277 0.0
H436 H 0.74019 0.87195 0.85288 0.0
H437 H 0.68602 0.87347 0.83124 0.0
H438 H 0.5993 0.87566 0.9351 0.0
H439 H 0.60302 0.85163 0.886 0.0
Li440 Li 0.81158 0.14698 0.42431 0.0
Li441 Li 0.81525 0.11898 0.42381 0.0
Li442 Li 0.83956 0.13662 0.41292 0.0
Li443 Li 0.81199 0.13261 0.39564 0.0
C444 C 0.83014 0.1398 0.45344 0.0
N445 N 0.83018 0.15118 0.48699 0.0
C446 C 0.82259 0.13125 0.467 0.0
C447 C 0.83788 0.15406 0.45698 0.0
C448 C 0.82271 0.13722 0.48387 0.0
C449 C 0.83771 0.15964 0.47402 0.0
C450 C 0.7776 0.12477 0.41694 0.0
C451 C 0.75434 0.10764 0.40656 0.0
N452 N 0.74363 0.11171 0.4202 0.0
C453 C 0.76625 0.12894 0.43071 0.0
C454 C 0.77152 0.11417 0.40464 0.0
C455 C 0.74917 0.12215 0.4322 0.0
C456 C 0.80111 0.17783 0.42906 0.0
N457 N 0.80086 0.16376 0.4366 0.0
C458 C 0.78623 0.17392 0.46187 0.0
C459 C 0.79338 0.16157 0.45259 0.0
C460 C 0.78648 0.18861 0.45448 0.0
C461 C 0.7939 0.19047 0.43778 0.0
H462 H 0.80699 0.17925 0.41627 0.0
H463 H 0.79305 0.15026 0.45822 0.0
C464 C 0.82513 0.08985 0.43536 0.0
N465 N 0.81134 0.10016 0.43597 0.0
C466 C 0.82383 0.07601 0.44432 0.0
C467 C 0.79421 0.08365 0.45457 0.0
C468 C 0.79608 0.09736 0.44538 0.0
C469 C 0.80824 0.07277 0.45418 0.0
H470 H 0.83723 0.09244 0.42797 0.0
H471 H 0.78553 0.10587 0.44613 0.0
C472 C 0.83631 0.162 0.39486 0.0
N473 N 0.86251 0.18081 0.38063 0.0
C474 C 0.84016 0.16128 0.37708 0.0
C475 C 0.84562 0.17241 0.40538 0.0
C476 C 0.85349 0.17086 0.37013 0.0
C477 C 0.85887 0.18178 0.39795 0.0
C478 C 0.83088 0.10449 0.39224 0.0
C479 C 0.84599 0.1013 0.38187 0.0
C480 C 0.8162 0.09439 0.39229 0.0
C481 C 0.84601 0.0882 0.37147 0.0
C482 C 0.81674 0.08139 0.38173 0.0
N483 N 0.83149 0.0786 0.3716 0.0
C484 C 0.87507 0.14156 0.42584 0.0
C485 C 0.87322 0.13836 0.39528 0.0
C486 C 0.8939 0.14307 0.4249 0.0
N487 N 0.86517 0.13926 0.41116 0.0
C488 C 0.89202 0.13979 0.39372 0.0
C489 C 0.90264 0.14211 0.40868 0.0
H490 H 0.8684 0.14196 0.43834 0.0
H491 H 0.86504 0.13644 0.38382 0.0
C492 C 0.7852 0.13698 0.36977 0.0
N493 N 0.80229 0.13172 0.37263 0.0
C494 C 0.77781 0.13673 0.35302 0.0
C495 C 0.80583 0.12585 0.34243 0.0
C496 C 0.81267 0.12633 0.35936 0.0
C497 C 0.78817 0.13111 0.33904 0.0
H498 H 0.77734 0.14147 0.38051 0.0
H499 H 0.82638 0.12259 0.36185 0.0
O500 O 0.83003 0.13418 0.43683 0.0
O501 O 0.79433 0.13141 0.41525 0.0
O502 O 0.82356 0.15251 0.40196 0.0
O503 O 0.83065 0.11732 0.40246 0.0
H504 H 0.81663 0.12016 0.46454 0.0
H505 H 0.84383 0.16081 0.44667 0.0
H506 H 0.81684 0.13075 0.49447 0.0
H507 H 0.84353 0.17071 0.47691 0.0
H508 H 0.7495 0.09938 0.39716 0.0
H509 H 0.77061 0.13725 0.44024 0.0
H510 H 0.77984 0.11112 0.3936 0.0
H511 H 0.74031 0.12519 0.44287 0.0
H512 H 0.78039 0.17196 0.47461 0.0
H513 H 0.79441 0.20162 0.43167 0.0
H514 H 0.83491 0.06791 0.44349 0.0
H515 H 0.7821 0.08178 0.46226 0.0
H516 H 0.83304 0.15332 0.36875 0.0
H517 H 0.84271 0.17319 0.41914 0.0
H518 H 0.85669 0.17036 0.35641 0.0
H519 H 0.86626 0.18983 0.40595 0.0
H520 H 0.85756 0.10891 0.38179 0.0
H521 H 0.80463 0.09643 0.40057 0.0
H522 H 0.85757 0.08565 0.3633 0.0
H523 H 0.80545 0.07349 0.38165 0.0
H524 H 0.90156 0.14458 0.43679 0.0
H525 H 0.89816 0.13911 0.38094 0.0
H526 H 0.76426 0.14116 0.35101 0.0
H527 H 0.81429 0.12131 0.33213 0.0
Li528 Li 0.66312 0.13586 0.09179 0.0
Li529 Li 0.69147 0.13247 0.10817 0.0
Li530 Li 0.69156 0.14665 0.07958 0.0
Li531 Li 0.6883 0.11867 0.08107 0.0
C532 C 0.67026 0.16524 0.1059 0.0
N533 N 0.65243 0.19213 0.11403 0.0
C534 C 0.66773 0.16945 0.12328 0.0
C535 C 0.66398 0.17484 0.09267 0.0
C536 C 0.6586 0.18305 0.12713 0.0
C537 C 0.65494 0.18835 0.09704 0.0
C538 C 0.67058 0.10896 0.11743 0.0
C539 C 0.68111 0.09078 0.13877 0.0
N540 N 0.66618 0.09369 0.14863 0.0
C541 C 0.65527 0.11168 0.1277 0.0
C542 C 0.68354 0.09834 0.12292 0.0
C543 C 0.65331 0.10387 0.14345 0.0
C544 C 0.62749 0.1304 0.08092 0.0
N545 N 0.63739 0.13793 0.09313 0.0
C546 C 0.61033 0.14713 0.10673 0.0
C547 C 0.62922 0.1461 0.10599 0.0
C548 C 0.59974 0.13952 0.09423 0.0
C549 C 0.60858 0.13107 0.08119 0.0
H550 H 0.63433 0.12382 0.07096 0.0
H551 H 0.63731 0.15159 0.11588 0.0
C552 C 0.71943 0.12995 0.13342 0.0
N553 N 0.70132 0.13201 0.13117 0.0
C554 C 0.72685 0.12961 0.15015 0.0
C555 C 0.69684 0.13357 0.16195 0.0
C556 C 0.69003 0.13388 0.145 0.0
C557 C 0.71552 0.13144 0.16473 0.0
H558 H 0.72816 0.12869 0.12222 0.0
H559 H 0.67569 0.13561 0.14287 0.0
C560 C 0.66682 0.13889 0.05238 0.0
N561 N 0.65369 0.1496 0.02096 0.0
C562 C 0.67284 0.13248 0.03675 0.0
C563 C 0.65384 0.15055 0.05202 0.0
C564 C 0.66614 0.13811 0.021 0.0
C565 C 0.64744 0.15585 0.03601 0.0
C566 C 0.72393 0.12354 0.08252 0.0
C567 C 0.73358 0.12909 0.0682 0.0
C568 C 0.72925 0.10984 0.09039 0.0
C569 C 0.74826 0.12069 0.0618 0.0
C570 C 0.74399 0.10177 0.08359 0.0
N571 N 0.7531 0.1073 0.06955 0.0
C572 C 0.70614 0.17635 0.07583 0.0
C573 C 0.7046 0.16234 0.0495 0.0
C574 C 0.71321 0.18903 0.06709 0.0
N575 N 0.70172 0.16344 0.06693 0.0
C576 C 0.71171 0.17472 0.04023 0.0
C577 C 0.716 0.18835 0.04901 0.0
H578 H 0.70412 0.17683 0.08976 0.0
H579 H 0.70152 0.15183 0.04277 0.0
C580 C 0.68495 0.08696 0.07503 0.0
N581 N 0.69287 0.09994 0.06897 0.0
C582 C 0.68708 0.07314 0.06612 0.0
C583 C 0.70564 0.08627 0.04495 0.0
C584 C 0.70308 0.09984 0.05424 0.0
C585 C 0.69745 0.07268 0.05078 0.0
H586 H 0.67664 0.08738 0.08661 0.0
H587 H 0.70906 0.11034 0.04955 0.0
O588 O 0.67912 0.15192 0.10193 0.0
O589 O 0.67284 0.11664 0.10208 0.0
O590 O 0.67321 0.13345 0.06793 0.0
O591 O 0.70942 0.13154 0.08886 0.0
H592 H 0.67268 0.16228 0.13371 0.0
H593 H 0.66628 0.17202 0.07918 0.0
H594 H 0.65645 0.18639 0.14052 0.0
H595 H 0.64999 0.19586 0.08691 0.0
H596 H 0.69109 0.0826 0.14323 0.0
H597 H 0.64507 0.11981 0.12362 0.0
H598 H 0.69538 0.096 0.11506 0.0
H599 H 0.64159 0.10594 0.15158 0.0
H600 H 0.60408 0.15352 0.11721 0.0
H601 H 0.60097 0.12513 0.07122 0.0
H602 H 0.74136 0.1282 0.15162 0.0
H603 H 0.68753 0.13483 0.17275 0.0
H604 H 0.6827 0.12334 0.03675 0.0
H605 H 0.64855 0.15532 0.06394 0.0
H606 H 0.67081 0.13333 0.00881 0.0
H607 H 0.63743 0.16489 0.03556 0.0
H608 H 0.72974 0.13972 0.06203 0.0
H609 H 0.72202 0.10545 0.10155 0.0
H610 H 0.7558 0.1248 0.05066 0.0
H611 H 0.74818 0.0911 0.08948 0.0
H612 H 0.71665 0.19919 0.07444 0.0
H613 H 0.7136 0.17368 0.02631 0.0
H614 H 0.68024 0.06304 0.07096 0.0
H615 H 0.7139 0.08646 0.03331 0.0
Li616 Li 0.81196 0.8717 0.60863 0.0
Li617 Li 0.84009 0.86828 0.59176 0.0
Li618 Li 0.81508 0.88588 0.58158 0.0
Li619 Li 0.81151 0.85798 0.57959 0.0
C620 C 0.83345 0.89569 0.61738 0.0
N621 N 0.83895 0.91237 0.64746 0.0
C622 C 0.84949 0.89394 0.62686 0.0
C623 C 0.82032 0.90608 0.62307 0.0
C624 C 0.85199 0.90244 0.64207 0.0
C625 C 0.82331 0.91436 0.63835 0.0
C626 C 0.83341 0.8396 0.60704 0.0
C627 C 0.84974 0.81637 0.60054 0.0
N628 N 0.85255 0.81411 0.61785 0.0
C629 C 0.83625 0.83694 0.62477 0.0
C630 C 0.84003 0.82914 0.59484 0.0
C631 C 0.84604 0.82404 0.62997 0.0
C632 C 0.78392 0.87188 0.63394 0.0
N633 N 0.80221 0.87199 0.63171 0.0
C634 C 0.80682 0.87252 0.6625 0.0
C635 C 0.81365 0.87215 0.64557 0.0
C636 C 0.78797 0.87244 0.66529 0.0
C637 C 0.77648 0.87207 0.65068 0.0
H638 H 0.7751 0.87153 0.62271 0.0
H639 H 0.82814 0.87198 0.6435 0.0
C640 C 0.8757 0.87186 0.57958 0.0
N641 N 0.86582 0.86588 0.59287 0.0
C642 C 0.8946 0.87091 0.57973 0.0
C643 C 0.89289 0.85788 0.60741 0.0
C644 C 0.87401 0.85908 0.60671 0.0
C645 C 0.90346 0.86388 0.59381 0.0
H646 H 0.8689 0.87747 0.56888 0.0
H647 H 0.86595 0.85491 0.61743 0.0
C648 C 0.77934 0.88148 0.58383 0.0
N649 N 0.75008 0.89854 0.57251 0.0
C650 C 0.7698 0.87708 0.56894 0.0
C651 C 0.77383 0.89442 0.59311 0.0
C652 C 0.75508 0.88588 0.56339 0.0
C653 C 0.75906 0.90293 0.58714 0.0
C654 C 0.83537 0.8653 0.55234 0.0
C655 C 0.82952 0.872 0.53681 0.0
C656 C 0.84712 0.85276 0.55176 0.0
C657 C 0.83517 0.86581 0.52095 0.0
C658 C 0.85249 0.84691 0.53564 0.0
N659 N 0.84642 0.85348 0.5207 0.0
C660 C 0.81882 0.91762 0.57647 0.0
C661 C 0.80061 0.90545 0.5552 0.0
C662 C 0.81705 0.93164 0.56794 0.0
N663 N 0.81069 0.90488 0.57 0.0
C664 C 0.79847 0.91925 0.54623 0.0
C665 C 0.80692 0.93257 0.55249 0.0
H666 H 0.827 0.91686 0.58809 0.0
H667 H 0.79456 0.89512 0.55011 0.0
C668 C 0.798 0.82797 0.57487 0.0
N669 N 0.80121 0.84145 0.56659 0.0
C670 C 0.791 0.81549 0.56572 0.0
C671 C 0.79017 0.83111 0.53979 0.0
C672 C 0.79721 0.84327 0.54944 0.0
C673 C 0.78708 0.81693 0.54789 0.0
H674 H 0.80089 0.82691 0.5886 0.0
H675 H 0.79941 0.8542 0.54324 0.0
O676 O 0.83071 0.88736 0.60253 0.0
O677 O 0.8239 0.85221 0.60173 0.0
O678 O 0.79391 0.8731 0.58936 0.0
O679 O 0.8299 0.87119 0.56799 0.0
H680 H 0.85986 0.88605 0.62258 0.0
H681 H 0.80795 0.90772 0.61578 0.0
H682 H 0.86429 0.90114 0.64959 0.0
H683 H 0.81322 0.92238 0.64295 0.0
H684 H 0.85497 0.80821 0.59122 0.0
H685 H 0.83106 0.84478 0.63442 0.0
H686 H 0.83751 0.83074 0.58112 0.0
H687 H 0.84845 0.82191 0.64364 0.0
H688 H 0.81627 0.873 0.67327 0.0
H689 H 0.76188 0.8717 0.65211 0.0
H690 H 0.90218 0.8756 0.5689 0.0
H691 H 0.89914 0.85266 0.61869 0.0
H692 H 0.77378 0.86704 0.56168 0.0
H693 H 0.78089 0.89785 0.6048 0.0
H694 H 0.74765 0.88267 0.55182 0.0
H695 H 0.75472 0.91303 0.59414 0.0
H696 H 0.8206 0.88181 0.53698 0.0
H697 H 0.85223 0.84772 0.5636 0.0
H698 H 0.83062 0.87081 0.50883 0.0
H699 H 0.86154 0.83719 0.53503 0.0
H700 H 0.82365 0.94163 0.57336 0.0
H701 H 0.79075 0.91937 0.53424 0.0
H702 H 0.7885 0.80488 0.57258 0.0
H703 H 0.78741 0.83274 0.52608 0.0
Li704 Li 0.81098 0.64629 0.08119 0.0
Li705 Li 0.84095 0.63404 0.09242 0.0
Li706 Li 0.81492 0.61862 0.08234 0.0
Li707 Li 0.81282 0.63209 0.10874 0.0
C708 C 0.83103 0.62633 0.05321 0.0
N709 N 0.83328 0.61009 0.02246 0.0
C710 C 0.84524 0.61602 0.05056 0.0
C711 C 0.81803 0.62849 0.04021 0.0
C712 C 0.84611 0.60788 0.03493 0.0
C713 C 0.8194 0.62015 0.02475 0.0
C714 C 0.82562 0.65919 0.11734 0.0
C715 C 0.83895 0.66666 0.14468 0.0
N716 N 0.82359 0.67454 0.14868 0.0
C717 C 0.81001 0.66743 0.12165 0.0
C718 C 0.84025 0.65883 0.12888 0.0
C719 C 0.80923 0.67508 0.13759 0.0
C720 C 0.78551 0.66981 0.0748 0.0
N721 N 0.80128 0.66344 0.06922 0.0
C722 C 0.80344 0.68163 0.04608 0.0
C723 C 0.81033 0.66908 0.05521 0.0
C724 C 0.78709 0.68844 0.05146 0.0
C725 C 0.77812 0.68237 0.06606 0.0
H726 H 0.77862 0.66507 0.086 0.0
H727 H 0.82287 0.66378 0.05109 0.0
C728 C 0.87641 0.62259 0.09345 0.0
N729 N 0.86653 0.6357 0.09302 0.0
C730 C 0.89533 0.6232 0.09381 0.0
C731 C 0.89353 0.65082 0.09322 0.0
C732 C 0.87462 0.64967 0.09287 0.0
C733 C 0.90415 0.63746 0.0937 0.0
H734 H 0.86957 0.61164 0.09342 0.0
H735 H 0.86637 0.6599 0.09253 0.0
C736 C 0.77835 0.62497 0.08416 0.0
N737 N 0.74645 0.61284 0.0713 0.0
C738 C 0.76961 0.61312 0.09302 0.0
C739 C 0.77072 0.63081 0.06888 0.0
C740 C 0.75354 0.60709 0.08627 0.0
C741 C 0.75462 0.62449 0.06256 0.0
C742 C 0.82985 0.60543 0.1162 0.0
C743 C 0.81472 0.59601 0.11834 0.0
C744 C 0.84446 0.60421 0.12769 0.0
C745 C 0.81431 0.58565 0.13217 0.0
C746 C 0.84353 0.5937 0.14137 0.0
N747 N 0.82859 0.58473 0.14331 0.0
C748 C 0.82232 0.5881 0.07382 0.0
C749 C 0.79749 0.59795 0.05785 0.0
C750 C 0.82122 0.57421 0.06493 0.0
N751 N 0.81052 0.59964 0.07024 0.0
C752 C 0.79583 0.58421 0.0487 0.0
C753 C 0.80786 0.5721 0.05213 0.0
H754 H 0.83298 0.58983 0.08326 0.0
H755 H 0.78871 0.60737 0.05462 0.0
C756 C 0.7853 0.63366 0.13436 0.0
N757 N 0.80346 0.63189 0.13205 0.0
C758 C 0.77792 0.63388 0.15111 0.0
C759 C 0.80806 0.6305 0.16282 0.0
C760 C 0.81486 0.63045 0.14586 0.0
C761 C 0.78935 0.63223 0.16562 0.0
H762 H 0.77655 0.635 0.12319 0.0
H763 H 0.82929 0.62947 0.14375 0.0
O764 O 0.8296 0.63401 0.06864 0.0
O765 O 0.82646 0.65129 0.10201 0.0
O766 O 0.79393 0.63119 0.09073 0.0
O767 O 0.83046 0.61571 0.1028 0.0
H768 H 0.85534 0.61418 0.06055 0.0
H769 H 0.80687 0.63635 0.04213 0.0
H770 H 0.85695 0.59977 0.03274 0.0
H771 H 0.80938 0.62162 0.01461 0.0
H772 H 0.85012 0.66642 0.1538 0.0
H773 H 0.79855 0.66774 0.11287 0.0
H774 H 0.85237 0.65241 0.12577 0.0
H775 H 0.79719 0.68141 0.14117 0.0
H776 H 0.8107 0.68579 0.03479 0.0
H777 H 0.76562 0.68736 0.0708 0.0
H778 H 0.90295 0.61261 0.0939 0.0
H779 H 0.89974 0.66204 0.09331 0.0
H780 H 0.7751 0.60869 0.10506 0.0
H781 H 0.77729 0.63994 0.0618 0.0
H782 H 0.74667 0.59787 0.09297 0.0
H783 H 0.74865 0.6288 0.05068 0.0
H784 H 0.80344 0.59668 0.10939 0.0
H785 H 0.85629 0.61141 0.12618 0.0
H786 H 0.80264 0.57832 0.13403 0.0
H787 H 0.85468 0.59269 0.15044 0.0
H788 H 0.8311 0.56538 0.06775 0.0
H789 H 0.78529 0.58314 0.03897 0.0
H790 H 0.76341 0.63517 0.15267 0.0
H791 H 0.8174 0.62947 0.17364 0.0
Li792 Li 0.68518 0.38663 0.58201 0.0
Li793 Li 0.68906 0.37233 0.60934 0.0
Li794 Li 0.68874 0.35841 0.58038 0.0
Li795 Li 0.66103 0.36913 0.59344 0.0
C796 C 0.72278 0.37912 0.58396 0.0
N797 N 0.75635 0.38947 0.57309 0.0
C798 C 0.73352 0.38794 0.59508 0.0
C799 C 0.72929 0.37529 0.56743 0.0
C800 C 0.7504 0.39315 0.58931 0.0
C801 C 0.74624 0.3807 0.56215 0.0
C802 C 0.67033 0.39765 0.61793 0.0
C803 C 0.66265 0.40225 0.64799 0.0
N804 N 0.67016 0.41643 0.64686 0.0
C805 C 0.67787 0.4123 0.61703 0.0
C806 C 0.66254 0.39261 0.63349 0.0
C807 C 0.67768 0.42161 0.63181 0.0
C808 C 0.67539 0.40965 0.55865 0.0
N809 N 0.68877 0.40553 0.56988 0.0
C810 C 0.70504 0.42858 0.56365 0.0
C811 C 0.70337 0.41472 0.57261 0.0
C812 C 0.69151 0.43305 0.55178 0.0
C813 C 0.67657 0.4233 0.54932 0.0
H814 H 0.66372 0.40232 0.55696 0.0
H815 H 0.71355 0.41151 0.582 0.0
C816 C 0.69956 0.35918 0.64126 0.0
N817 N 0.69976 0.37246 0.63206 0.0
C818 C 0.70665 0.35865 0.6581 0.0
C819 C 0.71421 0.38545 0.65569 0.0
C820 C 0.70712 0.38542 0.63884 0.0
C821 C 0.71399 0.37194 0.66564 0.0
H822 H 0.69388 0.34897 0.63551 0.0
H823 H 0.70731 0.39582 0.63124 0.0
C824 C 0.66934 0.3704 0.55152 0.0
N825 N 0.66809 0.36832 0.51566 0.0
C826 C 0.65382 0.36477 0.54328 0.0
C827 C 0.68412 0.37515 0.54152 0.0
C828 C 0.65348 0.36375 0.52514 0.0
C829 C 0.68326 0.37397 0.52341 0.0
C830 C 0.66464 0.34211 0.60821 0.0
C831 C 0.66122 0.32917 0.59803 0.0
C832 C 0.65514 0.34424 0.62375 0.0
C833 C 0.64813 0.31866 0.60349 0.0
C834 C 0.64213 0.33348 0.62874 0.0
N835 N 0.63892 0.32103 0.61859 0.0
C836 C 0.71549 0.33661 0.57157 0.0
C837 C 0.68873 0.335 0.55464 0.0
C838 C 0.7231 0.32429 0.56254 0.0
N839 N 0.69864 0.34175 0.56742 0.0
C840 C 0.69585 0.32276 0.54519 0.0
C841 C 0.71327 0.31718 0.5491 0.0
H842 H 0.72298 0.34203 0.58198 0.0
H843 H 0.67519 0.33899 0.55187 0.0
C844 C 0.62556 0.37641 0.60477 0.0
N845 N 0.63543 0.36638 0.59515 0.0
C846 C 0.60674 0.37494 0.60584 0.0
C847 C 0.60856 0.35285 0.58701 0.0
C848 C 0.62735 0.35476 0.5863 0.0
C849 C 0.59797 0.36307 0.59683 0.0
H850 H 0.63225 0.38572 0.6114 0.0
H851 H 0.63551 0.34703 0.57859 0.0
O852 O 0.70628 0.37382 0.58947 0.0
O853 O 0.67049 0.38835 0.60362 0.0
O854 O 0.66991 0.37138 0.56929 0.0
O855 O 0.67719 0.35266 0.60294 0.0
H856 H 0.72881 0.39087 0.60797 0.0
H857 H 0.72146 0.36809 0.55882 0.0
H858 H 0.75877 0.4001 0.59774 0.0
H859 H 0.75141 0.37787 0.54937 0.0
H860 H 0.65677 0.39846 0.66015 0.0
H861 H 0.68386 0.41642 0.60508 0.0
H862 H 0.6566 0.38134 0.63441 0.0
H863 H 0.68354 0.43295 0.63132 0.0
H864 H 0.71661 0.43585 0.56628 0.0
H865 H 0.6659 0.42611 0.54019 0.0
H866 H 0.70652 0.34788 0.66506 0.0
H867 H 0.71951 0.39604 0.66095 0.0
H868 H 0.64219 0.36116 0.5508 0.0
H869 H 0.69603 0.37989 0.54765 0.0
H870 H 0.6416 0.35933 0.51859 0.0
H871 H 0.69462 0.3776 0.51552 0.0
H872 H 0.6685 0.32733 0.586 0.0
H873 H 0.65771 0.35413 0.63183 0.0
H874 H 0.64527 0.30864 0.5957 0.0
H875 H 0.63459 0.33503 0.64069 0.0
H876 H 0.73642 0.32024 0.56628 0.0
H877 H 0.68779 0.3178 0.53486 0.0
H878 H 0.59911 0.38326 0.6133 0.0
H879 H 0.60241 0.34345 0.57998 0.0
Li880 Li 0.81236 0.37287 0.89588 0.0
Li881 Li 0.81787 0.38595 0.92259 0.0
Li882 Li 0.8412 0.36954 0.91171 0.0
Li883 Li 0.81218 0.35886 0.92421 0.0
C884 C 0.84084 0.39176 0.88573 0.0
N885 N 0.8595 0.39842 0.85549 0.0
C886 C 0.84417 0.40696 0.8811 0.0
C887 C 0.84703 0.37995 0.87501 0.0
C888 C 0.85362 0.41009 0.86575 0.0
C889 C 0.85643 0.38355 0.85977 0.0
C890 C 0.78169 0.38491 0.91135 0.0
C891 C 0.74993 0.39134 0.90989 0.0
N892 N 0.75422 0.4047 0.90181 0.0
C893 C 0.7858 0.39871 0.90304 0.0
C894 C 0.76363 0.38118 0.91482 0.0
C895 C 0.77172 0.40856 0.89832 0.0
C896 C 0.7926 0.36026 0.86803 0.0
N897 N 0.80118 0.37316 0.87345 0.0
C898 C 0.79407 0.38578 0.84671 0.0
C899 C 0.80183 0.38587 0.86328 0.0
C900 C 0.78532 0.37254 0.84058 0.0
C901 C 0.78454 0.35969 0.85158 0.0
H902 H 0.79208 0.35037 0.87649 0.0
H903 H 0.80844 0.3961 0.86796 0.0
C904 C 0.82767 0.41552 0.93324 0.0
N905 N 0.81453 0.40472 0.93487 0.0
C906 C 0.82657 0.42915 0.94265 0.0
C907 C 0.79821 0.42043 0.95495 0.0
C908 C 0.79992 0.40691 0.94537 0.0
C909 C 0.81174 0.43171 0.95376 0.0
H910 H 0.83917 0.41341 0.92484 0.0
H911 H 0.78976 0.39804 0.94654 0.0
C912 C 0.83036 0.33961 0.89645 0.0
N913 N 0.84164 0.31109 0.88529 0.0
C914 C 0.83437 0.32816 0.90854 0.0
C915 C 0.83193 0.3365 0.87866 0.0
C916 C 0.8401 0.31383 0.90265 0.0
C917 C 0.83771 0.32203 0.87329 0.0
C918 C 0.83476 0.37789 0.95094 0.0
C919 C 0.85035 0.38677 0.95311 0.0
C920 C 0.82172 0.37739 0.96412 0.0
C921 C 0.85256 0.39516 0.96844 0.0
C922 C 0.82443 0.38594 0.97926 0.0
N923 N 0.83965 0.39459 0.98108 0.0
C924 C 0.8772 0.37969 0.90871 0.0
C925 C 0.87469 0.35271 0.91031 0.0
C926 C 0.89606 0.37867 0.90763 0.0
N927 N 0.86692 0.36681 0.90987 0.0
C928 C 0.89353 0.35116 0.90936 0.0
C929 C 0.90447 0.36426 0.90798 0.0
H930 H 0.87076 0.3908 0.90883 0.0
H931 H 0.86636 0.34265 0.91158 0.0
C932 C 0.78602 0.33603 0.93112 0.0
N933 N 0.80178 0.34235 0.93678 0.0
C934 C 0.77831 0.32373 0.94009 0.0
C935 C 0.80323 0.32471 0.96049 0.0
C936 C 0.81042 0.337 0.95116 0.0
C937 C 0.78694 0.31788 0.955 0.0
H938 H 0.77945 0.34057 0.91964 0.0
H939 H 0.82304 0.34219 0.95526 0.0
O940 O 0.8315 0.38859 0.90069 0.0
O941 O 0.7952 0.37502 0.91609 0.0
O942 O 0.8244 0.35363 0.90194 0.0
O943 O 0.83209 0.36998 0.93581 0.0
H944 H 0.83945 0.41623 0.88927 0.0
H945 H 0.84469 0.36815 0.87844 0.0
H946 H 0.85627 0.42181 0.86199 0.0
H947 H 0.86131 0.37452 0.85136 0.0
H948 H 0.73588 0.3886 0.91249 0.0
H949 H 0.79968 0.40183 0.90028 0.0
H950 H 0.76024 0.37053 0.92124 0.0
H951 H 0.7747 0.41927 0.89187 0.0
H952 H 0.79521 0.39592 0.83869 0.0
H953 H 0.77766 0.34932 0.84761 0.0
H954 H 0.83719 0.4376 0.9412 0.0
H955 H 0.78667 0.42188 0.9635 0.0
H956 H 0.83335 0.33037 0.92234 0.0
H957 H 0.8287 0.34516 0.86909 0.0
H958 H 0.84336 0.3049 0.91188 0.0
H959 H 0.83902 0.31949 0.85957 0.0
H960 H 0.86053 0.38731 0.94299 0.0
H961 H 0.80951 0.37065 0.96256 0.0
H962 H 0.86449 0.40217 0.97026 0.0
H963 H 0.8144 0.38576 0.98953 0.0
H964 H 0.90398 0.38909 0.90692 0.0
H965 H 0.89946 0.33983 0.90963 0.0
H966 H 0.76563 0.31897 0.93549 0.0
H967 H 0.81052 0.32046 0.97172 0.0
Li968 Li 0.69072 0.64634 0.42313 0.0
Li969 Li 0.66235 0.63537 0.41133 0.0
Li970 Li 0.68616 0.61913 0.42187 0.0
Li971 Li 0.69048 0.63281 0.39536 0.0
C972 C 0.67356 0.62883 0.45192 0.0
N973 N 0.67748 0.6165 0.48481 0.0
C974 C 0.65896 0.62148 0.45995 0.0
C975 C 0.69014 0.62995 0.46064 0.0
C976 C 0.66122 0.61531 0.47657 0.0
C977 C 0.69185 0.62364 0.47726 0.0
C978 C 0.67007 0.66625 0.40332 0.0
C979 C 0.66475 0.69195 0.39309 0.0
N980 N 0.65489 0.69491 0.40767 0.0
C981 C 0.65987 0.66955 0.4182 0.0
C982 C 0.67254 0.67754 0.39066 0.0
C983 C 0.65232 0.6841 0.42016 0.0
C984 C 0.7166 0.66942 0.42988 0.0
N985 N 0.70086 0.6631 0.43562 0.0
C986 C 0.69922 0.6811 0.45898 0.0
C987 C 0.69211 0.66866 0.44985 0.0
C988 C 0.71548 0.68791 0.45339 0.0
C989 C 0.72419 0.6819 0.43862 0.0
H990 H 0.72322 0.66475 0.4185 0.0
H991 H 0.67953 0.66349 0.45406 0.0
C992 C 0.62674 0.62631 0.41792 0.0
N993 N 0.63658 0.63705 0.40932 0.0
C994 C 0.60783 0.62644 0.41711 0.0
C995 C 0.60947 0.64848 0.3982 0.0
C996 C 0.62838 0.64788 0.39932 0.0
C997 C 0.59893 0.63769 0.40723 0.0
H998 H 0.63363 0.61754 0.4253 0.0
H999 H 0.63646 0.65596 0.39204 0.0
C1000 C 0.72199 0.62128 0.40975 0.0
N1001 N 0.74995 0.60237 0.39923 0.0
C1002 C 0.7182 0.60703 0.40234 0.0
C1003 C 0.73999 0.62591 0.41181 0.0
C1004 C 0.73252 0.59764 0.3971 0.0
C1005 C 0.75394 0.61619 0.40641 0.0
C1006 C 0.66224 0.6137 0.38552 0.0
C1007 C 0.65666 0.59876 0.38191 0.0
C1008 C 0.65763 0.62553 0.3741 0.0
C1009 C 0.64654 0.59589 0.36689 0.0
C1010 C 0.64749 0.62219 0.35923 0.0
N1011 N 0.64221 0.60756 0.35596 0.0
C1012 C 0.67558 0.5905 0.4344 0.0
C1013 C 0.70541 0.59731 0.44286 0.0
C1014 C 0.67671 0.57686 0.44377 0.0
N1015 N 0.68979 0.60038 0.43414 0.0
C1016 C 0.70718 0.58374 0.45232 0.0
C1017 C 0.69267 0.57329 0.45293 0.0
H1018 H 0.66323 0.59338 0.42754 0.0
H1019 H 0.71643 0.60547 0.44263 0.0
C1020 C 0.70717 0.64584 0.36585 0.0
N1021 N 0.70106 0.63245 0.37267 0.0
C1022 C 0.71472 0.64619 0.34917 0.0
C1023 C 0.70976 0.61893 0.34694 0.0
C1024 C 0.70223 0.61912 0.36361 0.0
C1025 C 0.71607 0.63261 0.33947 0.0
H1026 H 0.70617 0.65625 0.3734 0.0
H1027 H 0.69722 0.60862 0.36927 0.0
O1028 O 0.67184 0.63452 0.43541 0.0
O1029 O 0.67781 0.65215 0.40115 0.0
O1030 O 0.70825 0.63077 0.41491 0.0
O1031 O 0.67211 0.6166 0.40024 0.0
H1032 H 0.64603 0.62051 0.45342 0.0
H1033 H 0.70168 0.63539 0.45451 0.0
H1034 H 0.65005 0.60954 0.48292 0.0
H1035 H 0.70464 0.62434 0.48411 0.0
H1036 H 0.66656 0.70079 0.38339 0.0
H1037 H 0.6577 0.66097 0.4281 0.0
H1038 H 0.68039 0.67518 0.37906 0.0
H1039 H 0.64439 0.6868 0.4316 0.0
H1040 H 0.69189 0.68549 0.47013 0.0
H1041 H 0.73684 0.68668 0.43395 0.0
H1042 H 0.60026 0.61792 0.42431 0.0
H1043 H 0.6032 0.65715 0.39013 0.0
H1044 H 0.70436 0.60322 0.40065 0.0
H1045 H 0.74314 0.63692 0.41751 0.0
H1046 H 0.72977 0.58658 0.39135 0.0
H1047 H 0.76794 0.61963 0.40792 0.0
H1048 H 0.66012 0.58949 0.39064 0.0
H1049 H 0.66181 0.63716 0.37662 0.0
H1050 H 0.64214 0.58437 0.36394 0.0
H1051 H 0.64383 0.63123 0.35028 0.0
H1052 H 0.66504 0.56936 0.44412 0.0
H1053 H 0.71981 0.58144 0.45902 0.0
H1054 H 0.71961 0.65695 0.344 0.0
H1055 H 0.71034 0.60823 0.33985 0.0
Li1056 Li 0.18741 0.38571 0.92382 0.0
Li1057 Li 0.19078 0.35769 0.92443 0.0
Li1058 Li 0.19052 0.372 0.89577 0.0
Li1059 Li 0.16279 0.36811 0.9129 0.0
C1060 C 0.2245 0.3805 0.91738 0.0
N1061 N 0.25737 0.39529 0.92141 0.0
C1062 C 0.23636 0.37615 0.93068 0.0
C1063 C 0.22954 0.39218 0.90593 0.0
C1064 C 0.25287 0.38382 0.93257 0.0
C1065 C 0.24616 0.39956 0.90823 0.0
C1066 C 0.17197 0.36474 0.95337 0.0
C1067 C 0.16332 0.34488 0.97352 0.0
N1068 N 0.17132 0.35281 0.98667 0.0
C1069 C 0.17995 0.37277 0.96711 0.0
C1070 C 0.16343 0.35076 0.95662 0.0
C1071 C 0.17953 0.36652 0.98384 0.0
C1072 C 0.17938 0.41585 0.93385 0.0
N1073 N 0.19177 0.40448 0.93593 0.0
C1074 C 0.20859 0.4198 0.95605 0.0
C1075 C 0.20616 0.40617 0.94683 0.0
C1076 C 0.19606 0.43179 0.95407 0.0
C1077 C 0.18133 0.42969 0.94272 0.0
H1078 H 0.16781 0.4141 0.92544 0.0
H1079 H 0.21553 0.39684 0.94872 0.0
C1080 C 0.2004 0.32671 0.92981 0.0
N1081 N 0.20129 0.34095 0.93689 0.0
C1082 C 0.20756 0.31414 0.93871 0.0
C1083 C 0.21659 0.33113 0.96195 0.0
C1084 C 0.20935 0.34336 0.95256 0.0
C1085 C 0.21571 0.31626 0.95507 0.0
H1086 H 0.19409 0.32509 0.91726 0.0
H1087 H 0.21014 0.35481 0.95781 0.0
C1088 C 0.17081 0.39912 0.89079 0.0
N1089 N 0.16839 0.42272 0.86694 0.0
C1090 C 0.1559 0.4001 0.87961 0.0
C1091 C 0.1843 0.41033 0.89005 0.0
C1092 C 0.15498 0.41205 0.86758 0.0
C1093 C 0.18289 0.42212 0.87786 0.0
C1094 C 0.16645 0.34222 0.89504 0.0
C1095 C 0.16345 0.34202 0.87709 0.0
C1096 C 0.15685 0.33217 0.90577 0.0
C1097 C 0.15063 0.33193 0.87019 0.0
C1098 C 0.14413 0.32227 0.89839 0.0
N1099 N 0.14129 0.32237 0.8809 0.0
C1100 C 0.21829 0.36963 0.87045 0.0
C1101 C 0.18956 0.37646 0.85909 0.0
C1102 C 0.22596 0.37014 0.85383 0.0
N1103 N 0.20044 0.37293 0.87279 0.0
C1104 C 0.19663 0.37705 0.84224 0.0
C1105 C 0.21509 0.3739 0.83941 0.0
H1106 H 0.2266 0.36658 0.88151 0.0
H1107 H 0.17529 0.37852 0.86116 0.0
C1108 C 0.12733 0.36518 0.92639 0.0
N1109 N 0.13712 0.36552 0.9114 0.0
C1110 C 0.10848 0.36372 0.92585 0.0
C1111 C 0.11008 0.36306 0.89445 0.0
C1112 C 0.12891 0.3645 0.8956 0.0
C1113 C 0.09959 0.36271 0.90972 0.0
H1114 H 0.13412 0.36629 0.93877 0.0
H1115 H 0.13697 0.36491 0.88387 0.0
O1116 O 0.20826 0.37312 0.91538 0.0
O1117 O 0.17243 0.37061 0.93686 0.0
O1118 O 0.17196 0.38743 0.9026 0.0
O1119 O 0.17879 0.35216 0.90206 0.0
H1120 H 0.23283 0.36702 0.93952 0.0
H1121 H 0.22084 0.39538 0.89523 0.0
H1122 H 0.2621 0.38064 0.94289 0.0
H1123 H 0.25019 0.40864 0.89949 0.0
H1124 H 0.15686 0.33402 0.97619 0.0
H1125 H 0.18648 0.38366 0.96489 0.0
H1126 H 0.15701 0.34448 0.9462 0.0
H1127 H 0.18574 0.37257 0.99458 0.0
H1128 H 0.22015 0.42093 0.96464 0.0
H1129 H 0.17116 0.43851 0.94105 0.0
H1130 H 0.20647 0.30287 0.93297 0.0
H1131 H 0.223 0.33332 0.97439 0.0
H1132 H 0.14521 0.39166 0.88013 0.0
H1133 H 0.19563 0.41006 0.89894 0.0
H1134 H 0.14359 0.41286 0.85876 0.0
H1135 H 0.19327 0.43084 0.87713 0.0
H1136 H 0.17087 0.3496 0.86857 0.0
H1137 H 0.15916 0.33203 0.91965 0.0
H1138 H 0.14809 0.33172 0.85633 0.0
H1139 H 0.13652 0.3145 0.90656 0.0
H1140 H 0.24027 0.36772 0.85232 0.0
H1141 H 0.18763 0.37965 0.83151 0.0
H1142 H 0.10092 0.36375 0.93793 0.0
H1143 H 0.10381 0.36219 0.88175 0.0
Li1144 Li 0.31234 0.64595 0.42415 0.0
Li1145 Li 0.31615 0.61896 0.42358 0.0
Li1146 Li 0.34028 0.63539 0.41342 0.0
Li1147 Li 0.3119 0.63154 0.39551 0.0
C1148 C 0.32996 0.64153 0.4526 0.0
N1149 N 0.32795 0.65785 0.48336 0.0
C1150 C 0.31932 0.63615 0.46638 0.0
C1151 C 0.3396 0.65519 0.45451 0.0
C1152 C 0.3185 0.64456 0.48182 0.0
C1153 C 0.33839 0.66329 0.47014 0.0
C1154 C 0.28027 0.62126 0.41931 0.0
C1155 C 0.25599 0.60452 0.41037 0.0
N1156 N 0.25147 0.60229 0.42734 0.0
C1157 C 0.27535 0.61883 0.43667 0.0
C1158 C 0.2705 0.61406 0.40604 0.0
C1159 C 0.26078 0.60918 0.44046 0.0
C1160 C 0.30627 0.67754 0.4305 0.0
N1161 N 0.30175 0.66321 0.43582 0.0
C1162 C 0.28288 0.67343 0.45831 0.0
C1163 C 0.2901 0.66098 0.44929 0.0
C1164 C 0.28745 0.6884 0.45327 0.0
C1165 C 0.29925 0.69035 0.43906 0.0
H1166 H 0.31533 0.67905 0.4196 0.0
H1167 H 0.28662 0.64952 0.45327 0.0
C1168 C 0.32269 0.5973 0.44994 0.0
N1169 N 0.31251 0.59977 0.43546 0.0
C1170 C 0.32127 0.58357 0.4591 0.0
C1171 C 0.2994 0.57481 0.43794 0.0
C1172 C 0.30124 0.58874 0.4292 0.0
C1173 C 0.30943 0.57212 0.45318 0.0
H1174 H 0.33217 0.60593 0.45426 0.0
H1175 H 0.29381 0.59065 0.41729 0.0
C1176 C 0.33727 0.65964 0.39306 0.0
N1177 N 0.36339 0.67624 0.37547 0.0
C1178 C 0.33908 0.65818 0.37503 0.0
C1179 C 0.34864 0.66966 0.40212 0.0
C1180 C 0.35239 0.66665 0.36638 0.0
C1181 C 0.3618 0.67791 0.393 0.0
C1182 C 0.33553 0.60175 0.40212 0.0
C1183 C 0.35019 0.59693 0.41223 0.0
C1184 C 0.32535 0.59102 0.39284 0.0
C1185 C 0.35436 0.58135 0.41301 0.0
C1186 C 0.32997 0.57554 0.39394 0.0
N1187 N 0.34425 0.57107 0.40393 0.0
C1188 C 0.37592 0.63837 0.42654 0.0
C1189 C 0.37414 0.63648 0.39583 0.0
C1190 C 0.39482 0.63902 0.42579 0.0
N1191 N 0.36601 0.63723 0.41169 0.0
C1192 C 0.39302 0.63717 0.39446 0.0
C1193 C 0.40363 0.63837 0.40959 0.0
H1194 H 0.36919 0.6385 0.43902 0.0
H1195 H 0.36596 0.63514 0.38426 0.0
C1196 C 0.28689 0.6387 0.36899 0.0
N1197 N 0.30214 0.63059 0.37266 0.0
C1198 C 0.27954 0.63843 0.35224 0.0
C1199 C 0.30389 0.62165 0.34332 0.0
C1200 C 0.31071 0.62217 0.36027 0.0
C1201 C 0.28808 0.62985 0.33911 0.0
H1202 H 0.28046 0.64539 0.37911 0.0
H1203 H 0.32293 0.61597 0.36353 0.0
O1204 O 0.3307 0.63359 0.43725 0.0
O1205 O 0.29445 0.63072 0.4153 0.0
O1206 O 0.32449 0.65128 0.4018 0.0
O1207 O 0.33093 0.61689 0.4016 0.0
H1208 H 0.31154 0.62574 0.4651 0.0
H1209 H 0.34781 0.65959 0.44399 0.0
H1210 H 0.31026 0.64057 0.49254 0.0
H1211 H 0.34571 0.67392 0.47175 0.0
H1212 H 0.24834 0.59885 0.40023 0.0
H1213 H 0.28293 0.62405 0.44711 0.0
H1214 H 0.27414 0.61573 0.39255 0.0
H1215 H 0.25692 0.6071 0.45384 0.0
H1216 H 0.27406 0.67131 0.46932 0.0
H1217 H 0.30291 0.70164 0.43447 0.0
H1218 H 0.32963 0.58184 0.47051 0.0
H1219 H 0.29015 0.56629 0.43287 0.0
H1220 H 0.33039 0.65054 0.36778 0.0
H1221 H 0.34744 0.67096 0.41605 0.0
H1222 H 0.35398 0.66558 0.35244 0.0
H1223 H 0.37076 0.68562 0.39987 0.0
H1224 H 0.35812 0.60511 0.41958 0.0
H1225 H 0.31385 0.59457 0.38508 0.0
H1226 H 0.3656 0.57742 0.42087 0.0
H1227 H 0.32215 0.56708 0.38692 0.0
H1228 H 0.40244 0.64001 0.43778 0.0
H1229 H 0.39926 0.63637 0.38173 0.0
H1230 H 0.26748 0.64509 0.34952 0.0
H1231 H 0.31082 0.61479 0.33365 0.0
Li1232 Li 0.16304 0.63546 0.09176 0.0
Li1233 Li 0.19115 0.63216 0.10859 0.0
Li1234 Li 0.19159 0.64624 0.0799 0.0
Li1235 Li 0.18841 0.61832 0.08147 0.0
C1236 C 0.16937 0.66458 0.1063 0.0
N1237 N 0.15021 0.69069 0.11491 0.0
C1238 C 0.16649 0.66838 0.12375 0.0
C1239 C 0.16278 0.67422 0.09325 0.0
C1240 C 0.15669 0.68159 0.12784 0.0
C1241 C 0.15306 0.68732 0.09785 0.0
C1242 C 0.16997 0.60876 0.1177 0.0
C1243 C 0.17976 0.59064 0.13943 0.0
N1244 N 0.16467 0.59378 0.14896 0.0
C1245 C 0.15448 0.61171 0.12764 0.0
C1246 C 0.18264 0.59804 0.12356 0.0
C1247 C 0.15207 0.60405 0.14343 0.0
C1248 C 0.12775 0.63008 0.07995 0.0
N1249 N 0.13724 0.63741 0.09261 0.0
C1250 C 0.1097 0.64602 0.10584 0.0
C1251 C 0.12863 0.64521 0.10551 0.0
C1252 C 0.09953 0.63862 0.09287 0.0
C1253 C 0.10883 0.6306 0.07977 0.0
H1254 H 0.13492 0.62379 0.06997 0.0
H1255 H 0.13638 0.65052 0.11576 0.0
C1256 C 0.21896 0.62961 0.13393 0.0
N1257 N 0.20084 0.63167 0.13168 0.0
C1258 C 0.22637 0.62913 0.15065 0.0
C1259 C 0.19637 0.63308 0.16247 0.0
C1260 C 0.18955 0.63345 0.14552 0.0
C1261 C 0.21503 0.6309 0.16522 0.0
H1262 H 0.22771 0.62843 0.12273 0.0
H1263 H 0.1752 0.63512 0.14341 0.0
C1264 C 0.16776 0.63887 0.0524 0.0
N1265 N 0.15613 0.6505 0.02086 0.0
C1266 C 0.17457 0.63296 0.03681 0.0
C1267 C 0.15474 0.65048 0.05191 0.0
C1268 C 0.16861 0.63905 0.02101 0.0
C1269 C 0.1491 0.65627 0.03585 0.0
C1270 C 0.2239 0.62288 0.08368 0.0
C1271 C 0.23417 0.6281 0.0696 0.0
C1272 C 0.22859 0.60915 0.09185 0.0
C1273 C 0.24881 0.61935 0.06373 0.0
C1274 C 0.2433 0.60072 0.08558 0.0
N1275 N 0.25301 0.60594 0.07176 0.0
C1276 C 0.20474 0.67646 0.07547 0.0
C1277 C 0.20666 0.66103 0.0502 0.0
C1278 C 0.21196 0.68895 0.06648 0.0
N1279 N 0.20195 0.66292 0.06718 0.0
C1280 C 0.2141 0.67316 0.04076 0.0
C1281 C 0.2167 0.68739 0.04887 0.0
H1282 H 0.20138 0.67758 0.0891 0.0
H1283 H 0.20485 0.65004 0.04402 0.0
C1284 C 0.18568 0.58651 0.07582 0.0
N1285 N 0.19325 0.59957 0.06955 0.0
C1286 C 0.18806 0.57266 0.06705 0.0
C1287 C 0.20604 0.58592 0.04552 0.0
C1288 C 0.20335 0.59951 0.05474 0.0
C1289 C 0.19823 0.57226 0.05159 0.0
H1290 H 0.17748 0.58689 0.08746 0.0
H1291 H 0.20916 0.61005 0.04996 0.0
O1292 O 0.17885 0.65162 0.10208 0.0
O1293 O 0.17267 0.61629 0.10231 0.0
O1294 O 0.17344 0.633 0.06801 0.0
O1295 O 0.20938 0.6312 0.08948 0.0
H1296 H 0.17169 0.66121 0.13405 0.0
H1297 H 0.16536 0.67175 0.07971 0.0
H1298 H 0.15426 0.6846 0.14129 0.0
H1299 H 0.14786 0.69485 0.08786 0.0
H1300 H 0.18952 0.58239 0.14416 0.0
H1301 H 0.14449 0.6199 0.12329 0.0
H1302 H 0.1946 0.5955 0.11596 0.0
H1303 H 0.1402 0.6063 0.1513 0.0
H1304 H 0.10311 0.65208 0.11639 0.0
H1305 H 0.10158 0.62484 0.06942 0.0
H1306 H 0.24087 0.62766 0.15214 0.0
H1307 H 0.18709 0.63433 0.1733 0.0
H1308 H 0.18445 0.62384 0.03689 0.0
H1309 H 0.14883 0.65487 0.06376 0.0
H1310 H 0.17391 0.63467 0.00886 0.0
H1311 H 0.13907 0.66529 0.03531 0.0
H1312 H 0.23087 0.63876 0.06324 0.0
H1313 H 0.22089 0.60501 0.10284 0.0
H1314 H 0.25682 0.62322 0.05279 0.0
H1315 H 0.24699 0.59002 0.09171 0.0
H1316 H 0.21406 0.69964 0.07331 0.0
H1317 H 0.21758 0.67147 0.0272 0.0
H1318 H 0.18156 0.56246 0.07207 0.0
H1319 H 0.21412 0.58611 0.03375 0.0
Li1320 Li 0.31134 0.37206 0.60856 0.0
Li1321 Li 0.3396 0.3682 0.59231 0.0
Li1322 Li 0.31472 0.3856 0.58132 0.0
Li1323 Li 0.31104 0.35761 0.58019 0.0
C1324 C 0.33209 0.39561 0.61753 0.0
N1325 N 0.33571 0.41142 0.64846 0.0
C1326 C 0.34707 0.39299 0.62826 0.0
C1327 C 0.31907 0.4064 0.62242 0.0
C1328 C 0.34863 0.40108 0.64387 0.0
C1329 C 0.3211 0.41423 0.63814 0.0
C1330 C 0.33225 0.33903 0.60642 0.0
C1331 C 0.34707 0.31578 0.59728 0.0
N1332 N 0.35014 0.3121 0.61422 0.0
C1333 C 0.33533 0.33491 0.62375 0.0
C1334 C 0.33799 0.3293 0.59309 0.0
C1335 C 0.34449 0.32129 0.62742 0.0
C1336 C 0.2835 0.37557 0.63384 0.0
N1337 N 0.3015 0.37288 0.63154 0.0
C1338 C 0.30595 0.37109 0.6623 0.0
C1339 C 0.31272 0.37061 0.64534 0.0
C1340 C 0.28741 0.37386 0.66511 0.0
C1341 C 0.27614 0.37615 0.65059 0.0
H1342 H 0.27482 0.37715 0.62266 0.0
H1343 H 0.32698 0.36847 0.64316 0.0
C1344 C 0.37543 0.37205 0.58085 0.0
N1345 N 0.36527 0.36578 0.59376 0.0
C1346 C 0.39431 0.3709 0.58122 0.0
C1347 C 0.39199 0.35717 0.60842 0.0
C1348 C 0.37314 0.35854 0.60748 0.0
C1349 C 0.40284 0.36338 0.59514 0.0
H1350 H 0.36886 0.37806 0.57029 0.0
H1351 H 0.36483 0.35403 0.61785 0.0
C1352 C 0.27891 0.38083 0.58261 0.0
N1353 N 0.24968 0.39664 0.56909 0.0
C1354 C 0.26934 0.37492 0.56843 0.0
C1355 C 0.27348 0.39469 0.59006 0.0
C1356 C 0.25463 0.38311 0.56175 0.0
C1357 C 0.25872 0.40254 0.58299 0.0
C1358 C 0.3358 0.36514 0.55275 0.0
C1359 C 0.33004 0.37196 0.53725 0.0
C1360 C 0.34827 0.35311 0.55214 0.0
C1361 C 0.3365 0.36637 0.52139 0.0
C1362 C 0.35443 0.34785 0.53603 0.0
N1363 N 0.34844 0.35452 0.5211 0.0
C1364 C 0.31893 0.41712 0.5747 0.0
C1365 C 0.29997 0.40441 0.55445 0.0
C1366 C 0.31705 0.43087 0.56562 0.0
N1367 N 0.31046 0.40425 0.56899 0.0
C1368 C 0.29767 0.41792 0.545 0.0
C1369 C 0.30639 0.43139 0.55047 0.0
H1370 H 0.32746 0.41664 0.58612 0.0
H1371 H 0.2936 0.394 0.55001 0.0
C1372 C 0.29527 0.32831 0.5769 0.0
N1373 N 0.30062 0.34083 0.56773 0.0
C1374 C 0.28794 0.31565 0.56832 0.0
C1375 C 0.29134 0.32912 0.54106 0.0
C1376 C 0.29853 0.34153 0.55017 0.0
C1377 C 0.28602 0.31591 0.55013 0.0
H1378 H 0.29683 0.32812 0.59089 0.0
H1379 H 0.30224 0.35178 0.54323 0.0
O1380 O 0.33019 0.38764 0.60232 0.0
O1381 O 0.32336 0.35237 0.60262 0.0
O1382 O 0.29342 0.37302 0.58925 0.0
O1383 O 0.32959 0.3705 0.56841 0.0
H1384 H 0.35732 0.38474 0.62464 0.0
H1385 H 0.30749 0.40866 0.61419 0.0
H1386 H 0.3601 0.3991 0.65236 0.0
H1387 H 0.31106 0.42255 0.64214 0.0
H1388 H 0.35162 0.30817 0.58706 0.0
H1389 H 0.33079 0.34217 0.63426 0.0
H1390 H 0.33525 0.33204 0.57965 0.0
H1391 H 0.34708 0.31803 0.64077 0.0
H1392 H 0.31519 0.36945 0.67309 0.0
H1393 H 0.26173 0.3781 0.65212 0.0
H1394 H 0.40214 0.37612 0.57088 0.0
H1395 H 0.39799 0.35125 0.61938 0.0
H1396 H 0.27326 0.36417 0.56259 0.0
H1397 H 0.28064 0.39936 0.60111 0.0
H1398 H 0.24715 0.37871 0.55072 0.0
H1399 H 0.25444 0.41332 0.58855 0.0
H1400 H 0.32058 0.38139 0.53744 0.0
H1401 H 0.35337 0.34801 0.56397 0.0
H1402 H 0.33202 0.37147 0.5093 0.0
H1403 H 0.36405 0.33852 0.53538 0.0
H1404 H 0.3243 0.44087 0.57017 0.0
H1405 H 0.28918 0.4178 0.5335 0.0
H1406 H 0.28409 0.30567 0.57582 0.0
H1407 H 0.28972 0.32995 0.52708 0.0
H1408 H 0.26731 0.21096 0.06192 0.0
H1409 H 0.25443 0.23246 0.04566 0.0
H1410 H 0.28064 0.21644 0.99893 0.0
H1411 H 0.29324 0.19471 0.01498 0.0
H1412 H 0.27372 0.25537 0.02678 0.0
H1413 H 0.2272 0.22222 0.98422 0.0
H1414 H 0.23702 0.21431 0.00378 0.0
H1415 H 0.25034 0.21576 0.98427 0.0
C1416 C 0.27015 0.2119 0.04813 0.0
C1417 C 0.28124 0.20108 0.03973 0.0
C1418 C 0.26287 0.22424 0.0389 0.0
C1419 C 0.2664 0.22592 0.02106 0.0
C1420 C 0.27752 0.21521 0.01263 0.0
H1421 H 0.2357 0.2923 0.9424 0.0
H1422 H 0.24815 0.27062 0.95863 0.0
C1423 C 0.28486 0.20289 0.02187 0.0
C1424 C 0.25881 0.23911 0.01137 0.0
H1425 H 0.23048 0.24861 0.97793 0.0
C1426 C 0.2642 0.25392 0.01615 0.0
C1427 C 0.24646 0.23715 0.99747 0.0
C1428 C 0.23976 0.22152 0.99217 0.0
C1429 C 0.25781 0.26685 0.00719 0.0
C1430 C 0.24539 0.2649 0.99333 0.0
C1431 C 0.24 0.25008 0.98856 0.0
C1432 C 0.23782 0.2781 0.98358 0.0
C1433 C 0.26477 0.28243 0.01239 0.0
C1434 C 0.22766 0.28939 0.99217 0.0
C1435 C 0.22054 0.30179 0.98294 0.0
C1436 C 0.22327 0.30306 0.96488 0.0
C1437 C 0.23323 0.2916 0.95627 0.0
C1438 C 0.24041 0.27924 0.96553 0.0
H1439 H 0.2777 0.28162 0.01976 0.0
H1440 H 0.26697 0.28979 1.0008 0.0
H1441 H 0.25462 0.28808 0.0209 0.0
H1442 H 0.22509 0.28854 0.00602 0.0
H1443 H 0.21265 0.31026 0.9899 0.0
H1444 H 0.25335 0.69197 0.46706 0.0
H1445 H 0.24149 0.71381 0.48335 0.0
H1446 H 0.29244 0.73731 0.47711 0.0
H1447 H 0.30469 0.71535 0.46125 0.0
H1448 H 0.25809 0.72744 0.51508 0.0
H1449 H 0.25201 0.76778 0.45935 0.0
H1450 H 0.25307 0.74728 0.45645 0.0
H1451 H 0.27324 0.75782 0.46161 0.0
C1452 C 0.26214 0.7017 0.46926 0.0
C1453 C 0.28002 0.70186 0.46281 0.0
C1454 C 0.25527 0.71421 0.47848 0.0
C1455 C 0.26604 0.72719 0.48126 0.0
C1456 C 0.28384 0.72746 0.47486 0.0
H1457 H 0.24605 0.81492 0.53097 0.0
H1458 H 0.259 0.79325 0.51513 0.0
C1459 C 0.29078 0.71491 0.46573 0.0
C1460 C 0.25877 0.74032 0.49123 0.0
H1461 H 0.24547 0.77756 0.48728 0.0
C1462 C 0.25528 0.7384 0.50904 0.0
C1463 C 0.25526 0.75459 0.48328 0.0
C1464 C 0.25845 0.75707 0.46409 0.0
C1465 C 0.24854 0.75049 0.5192 0.0
C1466 C 0.24476 0.76473 0.51121 0.0
C1467 C 0.24835 0.76664 0.49339 0.0
C1468 C 0.23695 0.77777 0.52106 0.0
C1469 C 0.24594 0.74797 0.53847 0.0
C1470 C 0.22017 0.77632 0.52951 0.0
C1471 C 0.21283 0.78863 0.53875 0.0
C1472 C 0.22203 0.80272 0.53957 0.0
C1473 C 0.23874 0.80418 0.53087 0.0
C1474 C 0.2461 0.79183 0.52169 0.0
H1475 H 0.25429 0.73828 0.5433 0.0
H1476 H 0.2495 0.75838 0.546 0.0
H1477 H 0.2315 0.74519 0.54104 0.0
H1478 H 0.21267 0.76568 0.52889 0.0
H1479 H 0.20002 0.78703 0.5454 0.0
H1480 H 0.3061 0.78843 0.96131 0.0
H1481 H 0.2936 0.76641 0.97695 0.0
H1482 H 0.24347 0.79092 0.98477 0.0
H1483 H 0.25579 0.81284 0.9689 0.0
H1484 H 0.2818 0.76374 0.00996 0.0
H1485 H 0.22506 0.75127 0.96485 0.0
H1486 H 0.24315 0.76429 0.95934 0.0
H1487 H 0.22465 0.77053 0.97288 0.0
C1488 C 0.29242 0.78912 0.96639 0.0
C1489 C 0.28188 0.80233 0.96379 0.0
C1490 C 0.28527 0.77652 0.97527 0.0
C1491 C 0.26747 0.77689 0.98175 0.0
C1492 C 0.25705 0.79018 0.97946 0.0
H1493 H 0.205 0.71707 0.04888 0.0
H1494 H 0.2177 0.73872 0.03264 0.0
C1495 C 0.26412 0.80273 0.97044 0.0
C1496 C 0.26 0.76351 0.99129 0.0
H1497 H 0.22466 0.73821 0.99209 0.0
C1498 C 0.26938 0.7581 0.00597 0.0
C1499 C 0.24381 0.75611 0.98604 0.0
C1500 C 0.23368 0.76074 0.96982 0.0
C1501 C 0.26281 0.74569 0.01571 0.0
C1502 C 0.24649 0.73853 0.01064 0.0
C1503 C 0.23714 0.74384 0.99596 0.0
C1504 C 0.23894 0.72545 0.02045 0.0
C1505 C 0.27318 0.74038 0.03151 0.0
C1506 C 0.24666 0.71086 0.01883 0.0
C1507 C 0.23941 0.69847 0.02802 0.0
C1508 C 0.22438 0.70051 0.03905 0.0
C1509 C 0.2167 0.71518 0.04063 0.0
C1510 C 0.22387 0.72753 0.03131 0.0
H1511 H 0.28449 0.74823 0.03488 0.0
H1512 H 0.26393 0.73944 0.04287 0.0
H1513 H 0.27888 0.72884 0.029 0.0
H1514 H 0.25827 0.70906 0.01044 0.0
H1515 H 0.24571 0.68734 0.02665 0.0
H1516 H 0.29812 0.30343 0.51961 0.0
H1517 H 0.28556 0.28151 0.50384 0.0
H1518 H 0.24477 0.27594 0.54354 0.0
H1519 H 0.25703 0.29801 0.55925 0.0
H1520 H 0.28077 0.25058 0.51692 0.0
H1521 H 0.21594 0.27794 0.49695 0.0
H1522 H 0.23538 0.28887 0.504 0.0
H1523 H 0.22146 0.2792 0.51969 0.0
C1524 C 0.28636 0.29764 0.5249 0.0
C1525 C 0.27851 0.30251 0.54064 0.0
C1526 C 0.27929 0.28507 0.51593 0.0
C1527 C 0.26414 0.27724 0.52243 0.0
C1528 C 0.25634 0.28197 0.5382 0.0
H1529 H 0.19962 0.20114 0.48429 0.0
H1530 H 0.21223 0.22255 0.50087 0.0
C1531 C 0.26346 0.29449 0.54723 0.0
C1532 C 0.25666 0.26398 0.51282 0.0
H1533 H 0.21938 0.25166 0.49055 0.0
C1534 C 0.26737 0.2508 0.51111 0.0
C1535 C 0.23915 0.26432 0.50535 0.0
C1536 C 0.22731 0.27836 0.50642 0.0
C1537 C 0.26092 0.23781 0.5023 0.0
C1538 C 0.24346 0.23819 0.49464 0.0
C1539 C 0.23275 0.25139 0.49642 0.0
C1540 C 0.23604 0.22506 0.48466 0.0
C1541 C 0.27271 0.22371 0.50164 0.0
C1542 C 0.24513 0.21947 0.46992 0.0
C1543 C 0.23799 0.2072 0.46046 0.0
C1544 C 0.22148 0.20044 0.46541 0.0
C1545 C 0.21229 0.20619 0.48006 0.0
C1546 C 0.21951 0.21838 0.48958 0.0
H1547 H 0.28299 0.22372 0.51221 0.0
H1548 H 0.26445 0.21313 0.50274 0.0
H1549 H 0.28004 0.22342 0.48904 0.0
H1550 H 0.25765 0.2247 0.46559 0.0
H1551 H 0.24523 0.2032 0.44906 0.0
H1552 H 0.80536 0.71298 0.0378 0.0
H1553 H 0.79277 0.73468 0.02175 0.0
H1554 H 0.73899 0.71603 0.02772 0.0
H1555 H 0.75152 0.69403 0.04329 0.0
H1556 H 0.74637 0.72583 0.994 0.0
H1557 H 0.76425 0.77059 0.04225 0.0
H1558 H 0.78309 0.75903 0.03542 0.0
H1559 H 0.76476 0.75043 0.04734 0.0
C1560 C 0.79086 0.71343 0.03561 0.0
C1561 C 0.77945 0.70177 0.04189 0.0
C1562 C 0.78367 0.72594 0.0266 0.0
C1563 C 0.76492 0.72709 0.02378 0.0
C1564 C 0.7535 0.71542 0.02988 0.0
H1565 H 0.70579 0.80749 0.98896 0.0
H1566 H 0.71773 0.78565 0.00523 0.0
C1567 C 0.76067 0.70291 0.03889 0.0
C1568 C 0.75725 0.74029 0.01414 0.0
H1569 H 0.75341 0.77923 0.01483 0.0
C1570 C 0.74785 0.73751 0.99857 0.0
C1571 C 0.75901 0.75549 0.02024 0.0
C1572 C 0.76817 0.75911 0.03731 0.0
C1573 C 0.74044 0.74955 0.98878 0.0
C1574 C 0.74272 0.76478 0.99459 0.0
C1575 C 0.75184 0.76754 0.01032 0.0
C1576 C 0.73559 0.77802 0.98465 0.0
C1577 C 0.72999 0.74583 0.97244 0.0
C1578 C 0.74184 0.78109 0.96776 0.0
C1579 C 0.7351 0.79361 0.95844 0.0
C1580 C 0.72205 0.80336 0.96589 0.0
C1581 C 0.71597 0.80032 0.9829 0.0
C1582 C 0.72271 0.7878 0.99219 0.0
H1583 H 0.72551 0.7337 0.97221 0.0
H1584 H 0.71789 0.7533 0.97115 0.0
H1585 H 0.73883 0.74777 0.96096 0.0
H1586 H 0.75208 0.77389 0.96183 0.0
H1587 H 0.74033 0.79577 0.9455 0.0
H1588 H 0.79236 0.19624 0.48848 0.0
H1589 H 0.78008 0.21812 0.50447 0.0
H1590 H 0.75137 0.23273 0.45846 0.0
H1591 H 0.76398 0.21104 0.4423 0.0
H1592 H 0.76724 0.25641 0.4741 0.0
H1593 H 0.72967 0.22281 0.52345 0.0
H1594 H 0.75338 0.21825 0.52299 0.0
H1595 H 0.73945 0.21415 0.50432 0.0
C1596 C 0.78332 0.20406 0.48182 0.0
C1597 C 0.77903 0.20189 0.46417 0.0
C1598 C 0.77625 0.21653 0.49099 0.0
C1599 C 0.76448 0.2269 0.48279 0.0
C1600 C 0.76036 0.22484 0.4651 0.0
H1601 H 0.69546 0.29175 0.53692 0.0
H1602 H 0.70794 0.27048 0.52023 0.0
C1603 C 0.76759 0.21247 0.45587 0.0
C1604 C 0.75675 0.24007 0.49252 0.0
H1605 H 0.73239 0.24955 0.52876 0.0
C1606 C 0.75955 0.2549 0.48602 0.0
C1607 C 0.74648 0.23811 0.50792 0.0
C1608 C 0.74189 0.22246 0.51499 0.0
C1609 C 0.75256 0.26782 0.49458 0.0
C1610 C 0.74294 0.26589 0.51038 0.0
C1611 C 0.73995 0.25105 0.51676 0.0
C1612 C 0.73547 0.27906 0.52031 0.0
C1613 C 0.75519 0.28334 0.48637 0.0
C1614 C 0.7468 0.29092 0.52608 0.0
C1615 C 0.73963 0.3033 0.53535 0.0
C1616 C 0.721 0.30396 0.53931 0.0
C1617 C 0.70978 0.29186 0.53381 0.0
C1618 C 0.71693 0.27958 0.52439 0.0
H1619 H 0.75786 0.28242 0.47218 0.0
H1620 H 0.74312 0.29073 0.48834 0.0
H1621 H 0.76707 0.28903 0.49242 0.0
H1622 H 0.76122 0.29061 0.52347 0.0
H1623 H 0.74869 0.31243 0.53924 0.0
H1624 H 0.77064 0.2922 0.94171 0.0
H1625 H 0.7581 0.27047 0.95776 0.0
H1626 H 0.77329 0.29174 0.00623 0.0
H1627 H 0.78562 0.31363 0.99033 0.0
H1628 H 0.78347 0.26061 0.00345 0.0
H1629 H 0.71095 0.26959 0.98677 0.0
H1630 H 0.72607 0.26899 0.96844 0.0
H1631 H 0.72791 0.28428 0.98397 0.0
C1632 C 0.77109 0.29238 0.95579 0.0
C1633 C 0.7791 0.30471 0.96472 0.0
C1634 C 0.76394 0.27993 0.96494 0.0
C1635 C 0.76459 0.27958 0.98318 0.0
C1636 C 0.77264 0.2918 0.99214 0.0
H1637 H 0.70716 0.21854 0.05326 0.0
H1638 H 0.7194 0.24061 0.03756 0.0
C1639 C 0.77976 0.30427 0.98302 0.0
C1640 C 0.75727 0.26632 0.99294 0.0
H1641 H 0.71833 0.2465 1.00139 0.0
C1642 C 0.76923 0.25752 0.00304 0.0
C1643 C 0.73865 0.26244 0.99251 0.0
C1644 C 0.72508 0.27187 0.98247 0.0
C1645 C 0.7631 0.2448 0.01253 0.0
C1646 C 0.74457 0.24069 0.01173 0.0
C1647 C 0.73256 0.24961 1.00185 0.0
C1648 C 0.73733 0.22726 0.02126 0.0
C1649 C 0.77645 0.23601 0.02354 0.0
C1650 C 0.74324 0.21243 0.01718 0.0
C1651 C 0.73634 0.1998 0.02618 0.0
C1652 C 0.72334 0.20176 0.0394 0.0
C1653 C 0.71735 0.21665 0.04334 0.0
C1654 C 0.72423 0.22926 0.0343 0.0
H1655 H 0.78899 0.24271 0.02605 0.0
H1656 H 0.77032 0.23276 0.03622 0.0
H1657 H 0.78036 0.22536 0.01665 0.0
H1658 H 0.75315 0.21062 0.00698 0.0
H1659 H 0.74134 0.18851 0.0229 0.0
H1660 H 0.79729 0.78684 0.54996 0.0
H1661 H 0.78523 0.76517 0.53349 0.0
H1662 H 0.74877 0.79543 0.50631 0.0
H1663 H 0.76037 0.81712 0.52309 0.0
H1664 H 0.73206 0.7689 0.51848 0.0
H1665 H 0.79511 0.75526 0.48221 0.0
H1666 H 0.79795 0.75608 0.5054 0.0
H1667 H 0.79192 0.77311 0.49364 0.0
C1668 C 0.78662 0.78888 0.54056 0.0
C1669 C 0.77983 0.80374 0.53782 0.0
C1670 C 0.77989 0.7765 0.53102 0.0
C1671 C 0.76631 0.77873 0.51848 0.0
C1672 C 0.75936 0.79349 0.51582 0.0
H1673 H 0.73119 0.71365 0.43965 0.0
H1674 H 0.74336 0.73575 0.45535 0.0
C1675 C 0.76609 0.80588 0.52535 0.0
C1676 C 0.75903 0.7656 0.50843 0.0
H1677 H 0.77106 0.73724 0.48011 0.0
C1678 C 0.74056 0.762 0.51005 0.0
C1679 C 0.77011 0.75675 0.49727 0.0
C1680 C 0.78984 0.76054 0.49435 0.0
C1681 C 0.73293 0.74959 0.50104 0.0
C1682 C 0.74414 0.74042 0.49034 0.0
C1683 C 0.76254 0.7442 0.48846 0.0
C1684 C 0.737 0.72689 0.48091 0.0
C1685 C 0.71288 0.74655 0.50287 0.0
C1686 C 0.72968 0.71447 0.4901 0.0
C1687 C 0.72278 0.7018 0.48118 0.0
C1688 C 0.72318 0.70126 0.46288 0.0
C1689 C 0.73083 0.71363 0.45374 0.0
C1690 C 0.73771 0.7263 0.46268 0.0
H1691 H 0.70548 0.75677 0.50774 0.0
H1692 H 0.70687 0.74303 0.49025 0.0
H1693 H 0.71078 0.73713 0.51234 0.0
H1694 H 0.72939 0.71453 0.50419 0.0
H1695 H 0.71732 0.69235 0.48864 0.0
H1696 H 0.296 0.04519 0.06197 0.0
H1697 H 0.295 0.02097 0.04597 0.0
H1698 H 0.31964 0.04281 1.00157 0.0
H1699 H 0.32056 0.06707 0.01737 0.0
H1700 H 0.27848 0.01362 0.01365 0.0
H1701 H 0.35321 0.00623 0.01137 0.0
H1702 H 0.34228 0.01971 0.02576 0.0
H1703 H 0.34538 0.02429 0.00315 0.0
C1704 C 0.30104 0.04488 0.04874 0.0
C1705 C 0.3085 0.05805 0.041 0.0
C1706 C 0.30053 0.03102 0.03965 0.0
C1707 C 0.30754 0.03005 0.02272 0.0
C1708 C 0.31454 0.04324 0.01478 0.0
H1709 H 0.32158 0.95947 0.94531 0.0
H1710 H 0.32004 0.98327 0.96194 0.0
C1711 C 0.31507 0.05709 0.02384 0.0
C1712 C 0.3076 0.01524 0.01331 0.0
H1713 H 0.33572 0.98913 0.99425 0.0
C1714 C 0.29098 0.00819 0.00948 0.0
C1715 C 0.32395 0.0082 0.00794 0.0
C1716 C 0.34224 0.0149 0.01238 0.0
C1717 C 0.29024 0.99447 0.99998 0.0
C1718 C 0.30659 0.98753 0.99444 0.0
C1719 C 0.32321 0.99451 0.99845 0.0
C1720 C 0.30684 0.97311 0.98427 0.0
C1721 C 0.27198 0.98774 0.99553 0.0
C1722 C 0.3 0.95948 0.99135 0.0
C1723 C 0.30092 0.94582 0.9819 0.0
C1724 C 0.30884 0.94553 0.96524 0.0
C1725 C 0.31561 0.95924 0.95819 0.0
C1726 C 0.31466 0.97287 0.96763 0.0
H1727 H 0.26091 0.99628 0.99695 0.0
H1728 H 0.27184 0.98328 0.982 0.0
H1729 H 0.26908 0.97808 0.00447 0.0
H1730 H 0.29427 0.95934 0.00433 0.0
H1731 H 0.29583 0.93542 0.98781 0.0
H1732 H 0.16661 0.95081 0.54182 0.0
H1733 H 0.1686 0.97491 0.52581 0.0
H1734 H 0.22633 0.96881 0.52021 0.0
H1735 H 0.22442 0.94445 0.53593 0.0
H1736 H 0.19021 1.0011 0.53467 0.0
H1737 H 0.20808 0.97692 0.4699 0.0
H1738 H 0.19845 0.96542 0.4871 0.0
H1739 H 0.2219 0.97088 0.48792 0.0
C1740 C 0.17971 0.95448 0.53701 0.0
C1741 C 0.19534 0.94565 0.54004 0.0
C1742 C 0.18083 0.96831 0.52796 0.0
C1743 C 0.19757 0.97354 0.52166 0.0
C1744 C 0.21324 0.96485 0.52476 0.0
H1745 H 0.22304 0.05502 0.46011 0.0
H1746 H 0.22514 0.03108 0.47661 0.0
C1747 C 0.21215 0.95102 0.53388 0.0
C1748 C 0.19853 0.98825 0.51214 0.0
H1749 H 0.20669 0.0038 0.47214 0.0
C1750 C 0.19385 1.00172 0.521 0.0
C1751 C 0.2034 0.98899 0.49437 0.0
C1752 C 0.20813 0.9748 0.48416 0.0
C1753 C 0.19384 0.01594 0.51254 0.0
C1754 C 0.19823 0.01665 0.49463 0.0
C1755 C 0.20329 0.00322 0.48585 0.0
C1756 C 0.19701 0.03113 0.48463 0.0
C1757 C 0.18929 0.03009 0.52292 0.0
C1758 C 0.18043 0.03894 0.48341 0.0
C1759 C 0.17919 0.05258 0.47403 0.0
C1760 C 0.19448 0.05863 0.46551 0.0
C1761 C 0.211 0.05062 0.46646 0.0
C1762 C 0.21224 0.03698 0.47593 0.0
H1763 H 0.19167 0.02832 0.53705 0.0
H1764 H 0.19744 0.04005 0.51853 0.0
H1765 H 0.17473 0.03287 0.52112 0.0
H1766 H 0.16839 0.03442 0.48962 0.0
H1767 H 0.16618 0.05828 0.47323 0.0
H1768 H 0.69658 0.93599 0.98844 0.0
H1769 H 0.6984 0.96001 0.00467 0.0
H1770 H 0.701 0.98518 0.9565 0.0
H1771 H 0.69953 0.96122 0.94012 0.0
H1772 H 0.72571 0.98382 0.0033 0.0
H1773 H 0.65742 0.00414 0.98319 0.0
H1774 H 0.66442 0.98444 0.98099 0.0
H1775 H 0.67224 0.99854 0.96574 0.0
C1776 C 0.69779 0.9466 0.98127 0.0
C1777 C 0.69782 0.94665 0.96294 0.0
C1778 C 0.69873 0.96032 0.99058 0.0
C1779 C 0.69958 0.97436 0.98178 0.0
C1780 C 0.70001 0.97447 0.96353 0.0
H1781 H 0.69697 0.06915 0.01533 0.0
H1782 H 0.69888 0.04539 0.9987 0.0
C1783 C 0.69913 0.96076 0.9542 0.0
C1784 C 0.69984 0.98889 0.9917 0.0
H1785 H 0.67535 0.02132 0.99952 0.0
C1786 C 0.71471 0.99203 0.00252 0.0
C1787 C 0.68547 0.99955 0.99061 0.0
C1788 C 0.66889 0.99651 0.97963 0.0
C1789 C 0.71572 0.00569 0.01211 0.0
C1790 C 0.70127 0.01633 0.01111 0.0
C1791 C 0.68643 0.01317 1.00025 0.0
C1792 C 0.70115 0.03075 0.0213 0.0
C1793 C 0.73242 0.00875 0.02291 0.0
C1794 C 0.70175 0.03044 0.03956 0.0
C1795 C 0.70087 0.04403 0.04912 0.0
C1796 C 0.69918 0.05823 0.04062 0.0
C1797 C 0.69859 0.05848 0.02232 0.0
C1798 C 0.69954 0.04488 0.01278 0.0
H1799 H 0.74415 0.00182 0.01843 0.0
H1800 H 0.73623 0.02103 0.02245 0.0
H1801 H 0.72961 0.00565 0.03665 0.0
H1802 H 0.70261 0.01965 0.04644 0.0
H1803 H 0.7015 0.04341 0.06318 0.0
H1804 H 0.83484 0.0586 0.47307 0.0
H1805 H 0.83272 0.03474 0.48952 0.0
H1806 H 0.77634 0.03063 0.47542 0.0
H1807 H 0.77848 0.05427 0.45843 0.0
H1808 H 0.80993 0.02805 0.51764 0.0
H1809 H 0.79728 0.98875 0.46206 0.0
H1810 H 0.80559 0.00801 0.45913 0.0
H1811 H 0.78201 0.00471 0.46365 0.0
C1812 C 0.82205 0.05252 0.47324 0.0
C1813 C 0.80686 0.0583 0.4643 0.0
C1814 C 0.82083 0.03894 0.48276 0.0
C1815 C 0.80445 0.03081 0.4835 0.0
C1816 C 0.7892 0.03659 0.47477 0.0
H1817 H 0.77737 0.94484 0.53578 0.0
H1818 H 0.77583 0.96889 0.51944 0.0
C1819 C 0.7904 0.05019 0.46523 0.0
C1820 C 0.80335 0.01646 0.49374 0.0
H1821 H 0.79626 0.97796 0.49025 0.0
C1822 C 0.80693 0.01709 0.51166 0.0
C1823 C 0.79934 0.0022 0.48591 0.0
C1824 C 0.79598 1.00077 0.46661 0.0
C1825 C 0.80663 0.00385 0.52198 0.0
C1826 C 0.80297 0.98955 0.5141 0.0
C1827 C 0.79906 0.98894 0.49624 0.0
C1828 C 0.80383 0.97504 0.52406 0.0
C1829 C 0.8101 0.0053 0.54126 0.0
C1830 C 0.82015 0.97042 0.53183 0.0
C1831 C 0.8211 0.95669 0.54108 0.0
C1832 C 0.80576 0.94723 0.54269 0.0
C1833 C 0.78946 0.9518 0.5347 0.0
C1834 C 0.78853 0.96556 0.52543 0.0
H1835 H 0.80757 0.01713 0.54596 0.0
H1836 H 0.80142 0.99729 0.54878 0.0
H1837 H 0.82449 0.00247 0.54398 0.0
H1838 H 0.83224 0.97737 0.53056 0.0
H1839 H 0.83397 0.95337 0.54672 0.0
H1840 H 0.83893 0.44588 0.97176 0.0
H1841 H 0.83717 0.4695 0.98872 0.0
H1842 H 0.78034 0.47352 0.97627 0.0
H1843 H 0.78198 0.44982 0.95935 0.0
H1844 H 0.82831 0.49821 0.97819 0.0
H1845 H 0.78003 0.47846 0.02878 0.0
H1846 H 0.79123 0.46546 0.01404 0.0
H1847 H 0.77175 0.47617 0.00698 0.0
C1848 C 0.82606 0.45181 0.97259 0.0
C1849 C 0.81058 0.44597 0.96422 0.0
C1850 C 0.82507 0.46528 0.98235 0.0
C1851 C 0.80857 0.47317 0.98398 0.0
C1852 C 0.79311 0.46743 0.97555 0.0
H1853 H 0.80037 0.56829 0.01739 0.0
H1854 H 0.79968 0.54443 1.00086 0.0
C1855 C 0.79407 0.4539 0.96585 0.0
C1856 C 0.80778 0.48763 0.99407 0.0
H1857 H 0.78694 0.50502 0.0285 0.0
C1858 C 0.81929 0.49969 0.98921 0.0
C1859 C 0.79616 0.48948 0.00858 0.0
C1860 C 0.78422 0.47667 0.01504 0.0
C1861 C 0.81942 0.51359 0.99837 0.0
C1862 C 0.8074 0.51561 0.01255 0.0
C1863 C 0.796 0.50351 0.01751 0.0
C1864 C 0.80684 0.53005 0.02272 0.0
C1865 C 0.83277 0.52581 0.99303 0.0
C1866 C 0.81037 0.52984 0.04066 0.0
C1867 C 0.81041 0.54343 0.05025 0.0
C1868 C 0.80692 0.55754 0.04208 0.0
C1869 C 0.80297 0.55765 0.02416 0.0
C1870 C 0.80282 0.54403 0.01461 0.0
H1871 H 0.84416 0.52099 0.9853 0.0
H1872 H 0.82574 0.5344 0.98482 0.0
H1873 H 0.83846 0.53176 0.00457 0.0
H1874 H 0.81335 0.51916 0.04722 0.0
H1875 H 0.81317 0.54286 0.06407 0.0
H1876 H 0.66397 0.45286 0.54357 0.0
H1877 H 0.66578 0.47647 0.52678 0.0
H1878 H 0.72372 0.47105 0.52237 0.0
H1879 H 0.72194 0.44691 0.53834 0.0
H1880 H 0.683 0.50283 0.53326 0.0
H1881 H 0.70969 0.47752 0.4722 0.0
H1882 H 0.70105 0.46598 0.4898 0.0
H1883 H 0.72361 0.47376 0.49086 0.0
C1884 C 0.67709 0.45651 0.5388 0.0
C1885 C 0.69278 0.44782 0.54215 0.0
C1886 C 0.67811 0.47012 0.52933 0.0
C1887 C 0.69484 0.47542 0.52304 0.0
C1888 C 0.71061 0.46702 0.52674 0.0
H1889 H 0.70923 0.56889 0.48457 0.0
H1890 H 0.7109 0.54531 0.50156 0.0
C1891 C 0.70958 0.45331 0.5361 0.0
C1892 C 0.69565 0.48981 0.51279 0.0
H1893 H 0.70818 0.50459 0.47344 0.0
C1894 C 0.68851 0.50322 0.52018 0.0
C1895 C 0.70262 0.49027 0.49564 0.0
C1896 C 0.70952 0.47609 0.48657 0.0
C1897 C 0.68812 0.51705 0.51089 0.0
C1898 C 0.69553 0.5176 0.49391 0.0
C1899 C 0.70268 0.5042 0.48652 0.0
C1900 C 0.69532 0.5318 0.48329 0.0
C1901 C 0.67925 0.53081 0.51919 0.0
C1902 C 0.68663 0.53192 0.46705 0.0
C1903 C 0.68599 0.5453 0.45712 0.0
C1904 C 0.694 0.55889 0.46323 0.0
C1905 C 0.70302 0.55864 0.47937 0.0
C1906 C 0.70377 0.54521 0.48924 0.0
H1907 H 0.67001 0.52746 0.52995 0.0
H1908 H 0.68989 0.53836 0.52471 0.0
H1909 H 0.67139 0.53748 0.50948 0.0
H1910 H 0.68015 0.52167 0.46212 0.0
H1911 H 0.67925 0.54496 0.44461 0.0
H1912 H 0.20454 0.54341 0.06418 0.0
H1913 H 0.20618 0.51949 0.04769 0.0
H1914 H 0.19741 0.5444 0.99999 0.0
H1915 H 0.19579 0.56834 0.01635 0.0
H1916 H 0.17979 0.50662 0.02733 0.0
H1917 H 0.24107 0.51827 0.98766 0.0
H1918 H 0.23508 0.52963 0.00642 0.0
H1919 H 0.22406 0.53287 0.98586 0.0
C1920 C 0.20301 0.5438 0.05017 0.0
C1921 C 0.2001 0.55779 0.04157 0.0
C1922 C 0.20403 0.53013 0.04076 0.0
C1923 C 0.20221 0.53018 0.02258 0.0
C1924 C 0.19933 0.54412 0.01396 0.0
H1925 H 0.19099 0.46114 0.9426 0.0
H1926 H 0.19283 0.4848 0.9596 0.0
C1927 C 0.19839 0.5578 0.02334 0.0
C1928 C 0.20237 0.51557 0.01274 0.0
H1929 H 0.22323 0.49673 0.97931 0.0
C1930 C 0.18939 0.5044 0.01693 0.0
C1931 C 0.21488 0.51271 0.99915 0.0
C1932 C 0.22967 0.52394 0.99459 0.0
C1933 C 0.18832 0.4906 0.00765 0.0
C1934 C 0.2007 0.48783 0.99395 0.0
C1935 C 0.21374 0.49893 0.9898 0.0
C1936 C 0.20013 0.47351 0.98364 0.0
C1937 C 0.17366 0.47926 0.01226 0.0
C1938 C 0.20391 0.45938 0.99149 0.0
C1939 C 0.20284 0.44585 0.98184 0.0
C1940 C 0.19797 0.44622 0.96414 0.0
C1941 C 0.19453 0.46045 0.95625 0.0
C1942 C 0.19568 0.47398 0.96591 0.0
H1943 H 0.16291 0.48448 0.02047 0.0
H1944 H 0.16731 0.4745 1.00033 0.0
H1945 H 0.17975 0.46962 0.01964 0.0
H1946 H 0.20759 0.45881 0.00512 0.0
H1947 H 0.20544 0.43507 0.98834 0.0
H1948 H 0.30792 0.56775 0.48841 0.0
H1949 H 0.30638 0.54348 0.5042 0.0
H1950 H 0.30518 0.51896 0.45553 0.0
H1951 H 0.30723 0.54316 0.43962 0.0
H1952 H 0.27959 0.52022 0.50246 0.0
H1953 H 0.34745 0.49899 0.48223 0.0
H1954 H 0.34073 0.51874 0.47982 0.0
H1955 H 0.33274 0.50458 0.46471 0.0
C1956 C 0.30749 0.55719 0.48106 0.0
C1957 C 0.30783 0.55739 0.46275 0.0
C1958 C 0.30649 0.54334 0.4901 0.0
C1959 C 0.30591 0.52943 0.48103 0.0
C1960 C 0.3059 0.52957 0.46277 0.0
H1961 H 0.30643 0.43454 0.51498 0.0
H1962 H 0.3049 0.45818 0.49806 0.0
C1963 C 0.30688 0.54342 0.45371 0.0
C1964 C 0.30531 0.51479 0.49074 0.0
H1965 H 0.32914 0.48199 0.49844 0.0
C1966 C 0.29041 0.51185 0.50161 0.0
C1967 C 0.31945 0.5039 0.48957 0.0
C1968 C 0.33609 0.50671 0.47858 0.0
C1969 C 0.28917 0.49822 0.51121 0.0
C1970 C 0.3034 0.48739 0.51017 0.0
C1971 C 0.31824 0.49029 0.4992 0.0
C1972 C 0.30335 0.47306 0.52051 0.0
C1973 C 0.27249 0.49542 0.52214 0.0
C1974 C 0.30303 0.47356 0.53877 0.0
C1975 C 0.30371 0.46005 0.54849 0.0
C1976 C 0.3049 0.44575 0.54015 0.0
C1977 C 0.30521 0.44531 0.52184 0.0
C1978 C 0.30447 0.45882 0.51214 0.0
H1979 H 0.26087 0.50251 0.51772 0.0
H1980 H 0.26844 0.48319 0.52176 0.0
H1981 H 0.27546 0.49852 0.53585 0.0
H1982 H 0.30253 0.48443 0.54552 0.0
H1983 H 0.30332 0.46082 0.56255 0.0
H1984 H 0.57821 0.16437 0.10102 0.0
H1985 H 0.54501 0.16523 0.1024 0.0
H1986 H 0.54262 0.11716 0.09006 0.0
H1987 H 0.57574 0.1161 0.08904 0.0
H1988 H 0.51982 0.15733 0.07555 0.0
H1989 H 0.51129 0.12117 0.13438 0.0
H1990 H 0.53267 0.12988 0.12861 0.0
H1991 H 0.52519 0.11283 0.11768 0.0
C1992 C 0.57061 0.15395 0.09879 0.0
C1993 C 0.57961 0.14015 0.09497 0.0
C1994 C 0.55167 0.15448 0.09948 0.0
C1995 C 0.5414 0.14122 0.09655 0.0
C1996 C 0.55032 0.12747 0.09262 0.0
H1997 H 0.4285 0.11634 0.09177 0.0
H1998 H 0.46161 0.11747 0.09199 0.0
C1999 C 0.56924 0.12693 0.09186 0.0
C2000 C 0.52133 0.14178 0.09722 0.0
H2001 H 0.48462 0.12689 0.11832 0.0
C2002 C 0.51209 0.15078 0.08497 0.0
C2003 C 0.51134 0.13322 0.10953 0.0
C2004 C 0.52059 0.12383 0.12341 0.0
C2005 C 0.49305 0.15107 0.08436 0.0
C2006 C 0.48304 0.14236 0.09656 0.0
C2007 C 0.49232 0.13354 0.10896 0.0
C2008 C 0.46294 0.14189 0.09642 0.0
C2009 C 0.48385 0.16029 0.0703 0.0
C2010 C 0.45268 0.15522 0.09903 0.0
C2011 C 0.43372 0.15461 0.09892 0.0
C2012 C 0.42468 0.14062 0.0964 0.0
C2013 C 0.43503 0.12727 0.09396 0.0
C2014 C 0.45396 0.1279 0.09401 0.0
H2015 H 0.49329 0.16314 0.05951 0.0
H2016 H 0.47206 0.154 0.06486 0.0
H2017 H 0.47883 0.17118 0.07594 0.0
H2018 H 0.45934 0.16608 0.10131 0.0
H2019 H 0.42614 0.16506 0.10109 0.0
H2020 H 0.92771 0.88616 0.58463 0.0
H2021 H 0.9608 0.88496 0.58558 0.0
H2022 H 0.95797 0.83911 0.6061 0.0
H2023 H 0.92481 0.84003 0.60469 0.0
H2024 H 0.98294 0.88 0.61484 0.0
H2025 H 0.99301 0.83488 0.56477 0.0
H2026 H 0.97185 0.84505 0.56724 0.0
H2027 H 0.97772 0.82997 0.5821 0.0
C2028 C 0.9341 0.87573 0.58911 0.0
C2029 C 0.9236 0.86315 0.59446 0.0
C2030 C 0.95302 0.87511 0.58976 0.0
C2031 C 0.96183 0.86188 0.59569 0.0
C2032 C 0.95143 0.84933 0.6012 0.0
H2033 H 0.07705 0.84043 0.60634 0.0
H2034 H 0.04384 0.8395 0.60697 0.0
C2035 C 0.93249 0.84994 0.60056 0.0
C2036 C 0.9819 0.86142 0.59647 0.0
H2037 H 0.01914 0.84345 0.57968 0.0
C2038 C 0.99087 0.87201 0.60716 0.0
C2039 C 0.99218 0.85094 0.5865 0.0
C2040 C 0.98326 0.83963 0.57438 0.0
C2041 C 0.00987 0.8724 0.60817 0.0
C2042 C 0.02016 0.8621 0.59796 0.0
C2043 C 0.0112 0.85134 0.58748 0.0
C2044 C 0.04025 0.86264 0.59757 0.0
C2045 C 0.01873 0.88372 0.62031 0.0
C2046 C 0.04921 0.87585 0.5918 0.0
C2047 C 0.06813 0.87641 0.59138 0.0
C2048 C 0.0785 0.8637 0.59661 0.0
C2049 C 0.06947 0.85037 0.60213 0.0
C2050 C 0.05051 0.84984 0.60257 0.0
H2051 H 0.00923 0.88761 0.63063 0.0
H2052 H 0.03092 0.8787 0.62659 0.0
H2053 H 0.02304 0.89392 0.61278 0.0
H2054 H 0.04155 0.88571 0.58746 0.0
H2055 H 0.07464 0.88672 0.58671 0.0
H2056 H 0.42601 0.85954 0.93606 0.0
H2057 H 0.45916 0.85852 0.93581 0.0
H2058 H 0.45901 0.86178 0.87984 0.0
H2059 H 0.42584 0.86252 0.8799 0.0
H2060 H 0.48312 0.83742 0.91779 0.0
H2061 H 0.49168 0.89777 0.89642 0.0
H2062 H 0.47064 0.8906 0.90526 0.0
H2063 H 0.47689 0.88626 0.88321 0.0
C2064 C 0.43298 0.85982 0.92367 0.0
C2065 C 0.42323 0.86119 0.908 0.0
C2066 C 0.45193 0.85932 0.92357 0.0
C2067 C 0.4615 0.8603 0.90783 0.0
C2068 C 0.45186 0.8613 0.89215 0.0
H2069 H 0.57599 0.86665 0.88229 0.0
H2070 H 0.54292 0.86487 0.88146 0.0
C2071 C 0.43291 0.86175 0.89222 0.0
C2072 C 0.48158 0.8604 0.90786 0.0
H2073 H 0.51825 0.88279 0.89858 0.0
C2074 C 0.49084 0.84733 0.91362 0.0
C2075 C 0.49155 0.87335 0.90237 0.0
C2076 C 0.48225 0.88786 0.89658 0.0
C2077 C 0.50988 0.84678 0.91382 0.0
C2078 C 0.51987 0.85978 0.90847 0.0
C2079 C 0.51057 0.87283 0.90266 0.0
C2080 C 0.53998 0.8602 0.90896 0.0
C2081 C 0.5191 0.83217 0.91941 0.0
C2082 C 0.5493 0.85825 0.92473 0.0
C2083 C 0.56823 0.85911 0.92522 0.0
C2084 C 0.57821 0.86208 0.90998 0.0
C2085 C 0.56879 0.86409 0.89422 0.0
C2086 C 0.54987 0.86319 0.89374 0.0
H2087 H 0.50989 0.82216 0.91826 0.0
H2088 H 0.53144 0.82996 0.91152 0.0
H2089 H 0.52321 0.83319 0.93325 0.0
H2090 H 0.54194 0.85625 0.9367 0.0
H2091 H 0.57503 0.85738 0.93755 0.0
H2092 H 0.07542 0.16035 0.42536 0.0
H2093 H 0.04223 0.16125 0.42463 0.0
H2094 H 0.04159 0.12379 0.38813 0.0
H2095 H 0.07473 0.1228 0.38878 0.0
H2096 H 0.01828 0.16573 0.39696 0.0
H2097 H 0.00838 0.10857 0.42695 0.0
H2098 H 0.02996 0.1183 0.42711 0.0
H2099 H 0.02249 0.10838 0.40791 0.0
C2100 C 0.06821 0.15239 0.41707 0.0
C2101 C 0.0777 0.14142 0.40723 0.0
C2102 C 0.04926 0.15288 0.41672 0.0
C2103 C 0.03945 0.14241 0.40658 0.0
C2104 C 0.04888 0.13173 0.39638 0.0
H2105 H 0.92532 0.12463 0.38869 0.0
H2106 H 0.95845 0.12553 0.38751 0.0
C2107 C 0.06782 0.13119 0.39676 0.0
C2108 C 0.01934 0.14264 0.40667 0.0
H2109 H 0.98213 0.12081 0.41579 0.0
C2110 C 0.01035 0.15594 0.40114 0.0
C2111 C 0.00906 0.12985 0.41216 0.0
C2112 C 0.01793 0.11551 0.41903 0.0
C2113 C 0.99133 0.15669 0.40064 0.0
C2114 C 0.98107 0.14387 0.40602 0.0
C2115 C 0.99005 0.13059 0.41159 0.0
C2116 C 0.96097 0.14397 0.40613 0.0
C2117 C 0.98237 0.17107 0.39401 0.0
C2118 C 0.95142 0.15402 0.41702 0.0
C2119 C 0.93248 0.15358 0.41767 0.0
C2120 C 0.92273 0.14303 0.40748 0.0
C2121 C 0.93238 0.13304 0.39651 0.0
C2122 C 0.95131 0.13347 0.3959 0.0
H2123 H 0.99194 0.17829 0.38644 0.0
H2124 H 0.97052 0.16829 0.38567 0.0
H2125 H 0.97745 0.1779 0.40524 0.0
H2126 H 0.95863 0.16204 0.42524 0.0
H2127 H 0.92546 0.1615 0.42617 0.0
H2128 H 0.07738 0.66291 0.10058 0.0
H2129 H 0.04419 0.66339 0.10109 0.0
H2130 H 0.04286 0.61586 0.08617 0.0
H2131 H 0.076 0.61522 0.08575 0.0
H2132 H 0.01929 0.63425 0.06688 0.0
H2133 H 0.01101 0.64392 0.13788 0.0
H2134 H 0.02538 0.65753 0.12707 0.0
H2135 H 0.03219 0.63782 0.12835 0.0
C2136 C 0.07003 0.65251 0.0976 0.0
C2137 C 0.07936 0.63901 0.09316 0.0
C2138 C 0.05107 0.65281 0.09789 0.0
C2139 C 0.04108 0.63961 0.09388 0.0
C2140 C 0.05033 0.62617 0.08932 0.0
H2141 H 0.92778 0.62005 0.11278 0.0
H2142 H 0.96093 0.62088 0.11241 0.0
C2143 C 0.06927 0.62585 0.08901 0.0
C2144 C 0.02098 0.63982 0.09412 0.0
H2145 H 0.98435 0.645 0.12069 0.0
C2146 C 0.01163 0.63661 0.07863 0.0
C2147 C 0.01105 0.64273 0.10952 0.0
C2148 C 0.02037 0.64556 0.1267 0.0
C2149 C 0.99261 0.63633 0.0781 0.0
C2150 C 0.98267 0.63956 0.09342 0.0
C2151 C 0.99201 0.64266 0.10893 0.0
C2152 C 0.96257 0.63933 0.09372 0.0
C2153 C 0.9833 0.63223 0.06124 0.0
C2154 C 0.95251 0.64957 0.0835 0.0
C2155 C 0.93355 0.64906 0.08358 0.0
C2156 C 0.9243 0.63833 0.09396 0.0
C2157 C 0.93446 0.62828 0.10442 0.0
C2158 C 0.9534 0.62881 0.10433 0.0
H2159 H 0.99271 0.62651 0.052 0.0
H2160 H 0.97156 0.62456 0.06361 0.0
H2161 H 0.9782 0.64282 0.05497 0.0
H2162 H 0.95932 0.65795 0.07543 0.0
H2163 H 0.92616 0.6569 0.07529 0.0
H2164 H 0.57533 0.367 0.62478 0.0
H2165 H 0.54218 0.3658 0.62516 0.0
H2166 H 0.54196 0.35486 0.57045 0.0
H2167 H 0.57507 0.35616 0.56989 0.0
H2168 H 0.51822 0.38363 0.6056 0.0
H2169 H 0.50898 0.32188 0.5913 0.0
H2170 H 0.5304 0.32978 0.59827 0.0
H2171 H 0.52323 0.33176 0.57603 0.0
C2172 C 0.56824 0.36434 0.61282 0.0
C2173 C 0.57787 0.36165 0.59731 0.0
C2174 C 0.5493 0.36359 0.61309 0.0
C2175 C 0.53963 0.36003 0.5979 0.0
C2176 C 0.54918 0.35727 0.58241 0.0
H2177 H 0.4264 0.35713 0.56853 0.0
H2178 H 0.45957 0.35636 0.56968 0.0
C2179 C 0.56811 0.35802 0.58213 0.0
C2180 C 0.51953 0.35993 0.59806 0.0
H2181 H 0.48255 0.33747 0.59014 0.0
C2182 C 0.51041 0.37351 0.60235 0.0
C2183 C 0.5094 0.34672 0.59376 0.0
C2184 C 0.51846 0.33166 0.58973 0.0
C2185 C 0.4914 0.37434 0.60209 0.0
C2186 C 0.48127 0.36116 0.5977 0.0
C2187 C 0.49038 0.34755 0.59349 0.0
C2188 C 0.46118 0.36133 0.59721 0.0
C2189 C 0.48233 0.38942 0.60606 0.0
C2190 C 0.45111 0.36414 0.61237 0.0
C2191 C 0.43217 0.36466 0.61175 0.0
C2192 C 0.42295 0.36232 0.59595 0.0
C2193 C 0.4331 0.35921 0.58085 0.0
C2194 C 0.45203 0.35867 0.5815 0.0
H2195 H 0.49196 0.39916 0.60508 0.0
H2196 H 0.47081 0.39151 0.59707 0.0
H2197 H 0.47693 0.38915 0.61954 0.0
H2198 H 0.45791 0.366 0.62468 0.0
H2199 H 0.42478 0.36719 0.62358 0.0
H2200 H 0.07674 0.3777 0.88742 0.0
H2201 H 0.04358 0.37685 0.88683 0.0
H2202 H 0.0438 0.34471 0.9294 0.0
H2203 H 0.07696 0.3455 0.93009 0.0
H2204 H 0.01988 0.35255 0.88186 0.0
H2205 H 0.01036 0.3784 0.94723 0.0
H2206 H 0.03186 0.37868 0.93601 0.0
H2207 H 0.0245 0.36167 0.94713 0.0
C2208 C 0.06974 0.37034 0.89656 0.0
C2209 C 0.07949 0.36173 0.90888 0.0
C2210 C 0.05079 0.36992 0.89625 0.0
C2211 C 0.04122 0.36093 0.90827 0.0
C2212 C 0.0509 0.35202 0.92029 0.0
H2213 H 0.92639 0.3457 0.92748 0.0
H2214 H 0.95955 0.34415 0.92688 0.0
C2215 C 0.06985 0.35247 0.92065 0.0
C2216 C 0.02111 0.36089 0.9082 0.0
H2217 H 0.98401 0.36897 0.9332 0.0
C2218 C 0.01203 0.35618 0.89306 0.0
C2219 C 0.0109 0.36564 0.92284 0.0
C2220 C 0.01987 0.37152 0.93917 0.0
C2221 C 0.99301 0.35591 0.89224 0.0
C2222 C 0.98283 0.36064 0.90687 0.0
C2223 C 0.99188 0.36529 0.92203 0.0
C2224 C 0.96275 0.36115 0.90665 0.0
C2225 C 0.98393 0.35035 0.87582 0.0
C2226 C 0.95361 0.37127 0.89553 0.0
C2227 C 0.93468 0.37217 0.89583 0.0
C2228 C 0.92455 0.36297 0.90728 0.0
C2229 C 0.93378 0.35279 0.91835 0.0
C2230 C 0.95271 0.35195 0.91809 0.0
H2231 H 0.99341 0.34375 0.86746 0.0
H2232 H 0.97204 0.34304 0.87893 0.0
H2233 H 0.97904 0.36035 0.86826 0.0
H2234 H 0.96113 0.37863 0.88678 0.0
H2235 H 0.92797 0.38006 0.88707 0.0
H2236 H 0.57682 0.66285 0.4086 0.0
H2237 H 0.54364 0.66349 0.40795 0.0
H2238 H 0.54229 0.61432 0.40369 0.0
H2239 H 0.57546 0.61359 0.40389 0.0
H2240 H 0.51846 0.62967 0.38058 0.0
H2241 H 0.51092 0.64992 0.44874 0.0
H2242 H 0.52543 0.66146 0.43529 0.0
H2243 H 0.5319 0.64217 0.44043 0.0
C2244 C 0.56947 0.65218 0.40736 0.0
C2245 C 0.57879 0.63816 0.4064 0.0
C2246 C 0.55051 0.65256 0.40715 0.0
C2247 C 0.54052 0.63893 0.40603 0.0
C2248 C 0.54976 0.62495 0.40468 0.0
H2249 H 0.4277 0.62329 0.43053 0.0
H2250 H 0.4608 0.62364 0.42902 0.0
C2251 C 0.56871 0.62455 0.40493 0.0
C2252 C 0.52043 0.6392 0.40633 0.0
H2253 H 0.48413 0.64832 0.4319 0.0
C2254 C 0.51092 0.63376 0.39178 0.0
C2255 C 0.51068 0.64437 0.42105 0.0
C2256 C 0.5202 0.6497 0.43735 0.0
C2257 C 0.49188 0.63344 0.3915 0.0
C2258 C 0.48212 0.63891 0.40609 0.0
C2259 C 0.49165 0.64426 0.42068 0.0
C2260 C 0.46202 0.63873 0.40674 0.0
C2261 C 0.48238 0.62693 0.37576 0.0
C2262 C 0.4517 0.64721 0.3948 0.0
C2263 C 0.43275 0.64706 0.39565 0.0
C2264 C 0.42377 0.63853 0.40857 0.0
C2265 C 0.43418 0.63014 0.42057 0.0
C2266 C 0.4531 0.63026 0.41968 0.0
H2267 H 0.49166 0.61987 0.36768 0.0
H2268 H 0.47061 0.61979 0.37968 0.0
H2269 H 0.47728 0.63646 0.36757 0.0
H2270 H 0.45831 0.65409 0.38494 0.0
H2271 H 0.42513 0.65383 0.38638 0.0
H2272 H 0.25861 0.11721 0.17832 0.0
H2273 H 0.24681 0.11717 0.20797 0.0
H2274 H 0.28838 0.14908 0.22343 0.0
H2275 H 0.301 0.14847 0.19408 0.0
H2276 H 0.28478 0.12704 0.24695 0.0
H2277 H 0.21669 0.14968 0.23081 0.0
H2278 H 0.2219 0.13248 0.21911 0.0
H2279 H 0.23505 0.1495 0.2153 0.0
C2280 C 0.2654 0.12411 0.18803 0.0
C2281 C 0.28076 0.13289 0.1837 0.0
C2282 C 0.25843 0.12425 0.20495 0.0
C2283 C 0.26645 0.13338 0.21786 0.0
C2284 C 0.28185 0.14206 0.21365 0.0
H2285 H 0.21538 0.15528 0.31681 0.0
H2286 H 0.22857 0.15597 0.28769 0.0
C2287 C 0.28895 0.1418 0.19678 0.0
C2288 C 0.2591 0.1336 0.23587 0.0
H2289 H 0.22054 0.13977 0.25947 0.0
C2290 C 0.27075 0.12991 0.2497 0.0
C2291 C 0.24087 0.13758 0.2395 0.0
C2292 C 0.22796 0.14269 0.22541 0.0
C2293 C 0.26463 0.12984 0.267 0.0
C2294 C 0.24619 0.13313 0.27055 0.0
C2295 C 0.23462 0.13707 0.25675 0.0
C2296 C 0.23865 0.13273 0.28848 0.0
C2297 C 0.2781 0.12657 0.28131 0.0
C2298 C 0.2398 0.1194 0.29861 0.0
C2299 C 0.23258 0.11906 0.31543 0.0
C2300 C 0.22374 0.13196 0.32239 0.0
C2301 C 0.22239 0.14522 0.31207 0.0
C2302 C 0.22977 0.1456 0.29532 0.0
H2303 H 0.29222 0.12897 0.27707 0.0
H2304 H 0.27517 0.13348 0.2931 0.0
H2305 H 0.27732 0.11428 0.28486 0.0
H2306 H 0.2462 0.1092 0.29348 0.0
H2307 H 0.23405 0.10869 0.323 0.0
H2308 H 0.26098 0.85268 0.82611 0.0
H2309 H 0.24899 0.85253 0.79635 0.0
H2310 H 0.28059 0.89264 0.78426 0.0
H2311 H 0.29279 0.89278 0.8139 0.0
H2312 H 0.22988 0.87807 0.77877 0.0
H2313 H 0.29363 0.86023 0.7458 0.0
H2314 H 0.28973 0.85718 0.76875 0.0
H2315 H 0.29546 0.87589 0.76088 0.0
C2316 C 0.26547 0.8614 0.81707 0.0
C2317 C 0.27786 0.87272 0.82233 0.0
C2318 C 0.25855 0.86134 0.80013 0.0
C2319 C 0.26406 0.87248 0.78811 0.0
C2320 C 0.27633 0.88385 0.79332 0.0
H2321 H 0.24254 0.88922 0.67884 0.0
H2322 H 0.2538 0.88959 0.70872 0.0
C2323 C 0.28316 0.88399 0.81028 0.0
C2324 C 0.2568 0.87235 0.77015 0.0
H2325 H 0.26897 0.86697 0.72774 0.0
C2326 C 0.23837 0.8756 0.76758 0.0
C2327 C 0.26798 0.8692 0.75566 0.0
C2328 C 0.28779 0.86531 0.75781 0.0
C2329 C 0.23085 0.87605 0.7508 0.0
C2330 C 0.24199 0.87275 0.73626 0.0
C2331 C 0.26044 0.86949 0.73888 0.0
C2332 C 0.23482 0.87265 0.7182 0.0
C2333 C 0.21117 0.88045 0.74881 0.0
C2334 C 0.22052 0.86289 0.71353 0.0
C2335 C 0.21385 0.86282 0.6965 0.0
C2336 C 0.22152 0.87235 0.6837 0.0
C2337 C 0.23606 0.88193 0.68839 0.0
C2338 C 0.24263 0.88207 0.70545 0.0
H2339 H 0.20615 0.8869 0.76031 0.0
H2340 H 0.20903 0.88756 0.737 0.0
H2341 H 0.20285 0.86993 0.74756 0.0
H2342 H 0.21455 0.85525 0.72303 0.0
H2343 H 0.20254 0.85539 0.69344 0.0
H2344 H 0.70092 0.85857 0.81025 0.0
H2345 H 0.71341 0.85893 0.78088 0.0
H2346 H 0.7581 0.88666 0.79864 0.0
H2347 H 0.74511 0.88718 0.82787 0.0
H2348 H 0.74535 0.89704 0.76846 0.0
H2349 H 0.75557 0.83446 0.76324 0.0
H2350 H 0.73246 0.83937 0.76788 0.0
H2351 H 0.74991 0.84367 0.78352 0.0
C2352 C 0.71329 0.86492 0.80793 0.0
C2353 C 0.722 0.87282 0.82154 0.0
C2354 C 0.72058 0.8649 0.79114 0.0
C2355 C 0.73692 0.87253 0.78761 0.0
C2356 C 0.74556 0.88056 0.80108 0.0
H2357 H 0.80143 0.8582 0.69442 0.0
H2358 H 0.78951 0.85904 0.724 0.0
C2359 C 0.73819 0.88072 0.81785 0.0
C2360 C 0.74479 0.87243 0.7698 0.0
H2361 H 0.75862 0.84877 0.73701 0.0
C2362 C 0.74834 0.88648 0.76161 0.0
C2363 C 0.74898 0.85866 0.76095 0.0
C2364 C 0.74671 0.8432 0.76941 0.0
C2365 C 0.75569 0.88716 0.74476 0.0
C2366 C 0.7591 0.87338 0.73562 0.0
C2367 C 0.7558 0.85933 0.74391 0.0
C2368 C 0.76642 0.87324 0.7176 0.0
C2369 C 0.76009 0.90262 0.73712 0.0
C2370 C 0.75734 0.88082 0.70405 0.0
C2371 C 0.76433 0.88063 0.68713 0.0
C2372 C 0.78042 0.87262 0.6833 0.0
C2373 C 0.78925 0.86477 0.69687 0.0
C2374 C 0.78235 0.86511 0.71381 0.0
H2375 H 0.7619 0.9114 0.74742 0.0
H2376 H 0.77262 0.90218 0.72912 0.0
H2377 H 0.74871 0.90636 0.72868 0.0
H2378 H 0.74478 0.88686 0.70653 0.0
H2379 H 0.7572 0.88692 0.6771 0.0
H2380 H 0.75353 0.12412 0.32863 0.0
H2381 H 0.74135 0.12412 0.29904 0.0
H2382 H 0.79375 0.13716 0.27903 0.0
H2383 H 0.80586 0.13783 0.3086 0.0
H2384 H 0.76633 0.15392 0.2647 0.0
H2385 H 0.74992 0.09206 0.26162 0.0
H2386 H 0.73967 0.10173 0.27973 0.0
H2387 H 0.76395 0.10015 0.27852 0.0
C2388 C 0.76245 0.1271 0.31796 0.0
C2389 C 0.78072 0.13091 0.32103 0.0
C2390 C 0.75551 0.1269 0.30102 0.0
C2391 C 0.76672 0.13036 0.28679 0.0
C2392 C 0.78489 0.13432 0.2898 0.0
H2393 H 0.74245 0.11306 0.17778 0.0
H2394 H 0.75525 0.11322 0.20714 0.0
C2395 C 0.79183 0.13457 0.30672 0.0
C2396 C 0.75944 0.13025 0.26878 0.0
H2397 H 0.73884 0.10754 0.23849 0.0
C2398 C 0.76037 0.14377 0.25895 0.0
C2399 C 0.7519 0.11694 0.2612 0.0
C2400 C 0.75143 0.10185 0.27073 0.0
C2401 C 0.75371 0.14441 0.24184 0.0
C2402 C 0.74557 0.13125 0.23449 0.0
C2403 C 0.74491 0.11766 0.24421 0.0
C2404 C 0.73782 0.13129 0.21666 0.0
C2405 C 0.75577 0.1591 0.23171 0.0
C2406 C 0.72364 0.14129 0.2123 0.0
C2407 C 0.71643 0.14135 0.19547 0.0
C2408 C 0.72313 0.1313 0.18268 0.0
C2409 C 0.73717 0.12114 0.1872 0.0
C2410 C 0.74441 0.12112 0.20402 0.0
H2411 H 0.76658 0.16649 0.23725 0.0
H2412 H 0.75902 0.15677 0.21785 0.0
H2413 H 0.74284 0.16557 0.23223 0.0
H2414 H 0.7181 0.14903 0.22193 0.0
H2415 H 0.70574 0.14942 0.19245 0.0
H2416 H 0.71018 0.65345 0.31347 0.0
H2417 H 0.72262 0.65326 0.28394 0.0
H2418 H 0.75217 0.61194 0.29564 0.0
H2419 H 0.73971 0.612 0.32514 0.0
H2420 H 0.75787 0.65445 0.27267 0.0
H2421 H 0.72579 0.60022 0.2513 0.0
H2422 H 0.71907 0.61003 0.27093 0.0
H2423 H 0.7391 0.59828 0.27072 0.0
C2424 C 0.71939 0.64436 0.30978 0.0
C2425 C 0.72387 0.63268 0.32162 0.0
C2426 C 0.72643 0.64424 0.29288 0.0
C2427 C 0.73806 0.63244 0.28747 0.0
C2428 C 0.74284 0.62093 0.29937 0.0
H2429 H 0.79811 0.61338 0.19276 0.0
H2430 H 0.78587 0.61382 0.2224 0.0
C2431 C 0.73573 0.621 0.31624 0.0
C2432 C 0.74543 0.63234 0.26949 0.0
H2433 H 0.74797 0.61088 0.2324 0.0
C2434 C 0.75562 0.64497 0.26383 0.0
C2435 C 0.74247 0.61995 0.25797 0.0
C2436 C 0.73087 0.60641 0.26294 0.0
C2437 C 0.7632 0.64542 0.24707 0.0
C2438 C 0.76035 0.63299 0.23563 0.0
C2439 C 0.75017 0.62037 0.24125 0.0
C2440 C 0.7678 0.63288 0.21773 0.0
C2441 C 0.77448 0.65906 0.24182 0.0
C2442 C 0.76155 0.64335 0.20526 0.0
C2443 C 0.7685 0.64312 0.18833 0.0
C2444 C 0.78185 0.63242 0.18356 0.0
C2445 C 0.78801 0.62189 0.19609 0.0
C2446 C 0.78097 0.62207 0.21298 0.0
H2447 H 0.7786 0.66604 0.25323 0.0
H2448 H 0.78686 0.65535 0.23474 0.0
H2449 H 0.76645 0.66643 0.23295 0.0
H2450 H 0.75122 0.65166 0.20862 0.0
H2451 H 0.76357 0.65145 0.17902 0.0
H2452 H 0.7436 0.3873 0.6786 0.0
H2453 H 0.75511 0.38719 0.70837 0.0
H2454 H 0.71313 0.35547 0.72335 0.0
H2455 H 0.70085 0.3562 0.69387 0.0
H2456 H 0.71674 0.37764 0.74697 0.0
H2457 H 0.78462 0.35423 0.73136 0.0
H2458 H 0.77969 0.37146 0.7196 0.0
H2459 H 0.76637 0.35453 0.71574 0.0
C2460 C 0.73667 0.38041 0.68823 0.0
C2461 C 0.7213 0.3717 0.68373 0.0
C2462 C 0.74346 0.38018 0.70522 0.0
C2463 C 0.73524 0.37107 0.71803 0.0
C2464 C 0.71981 0.36248 0.71365 0.0
H2465 H 0.78494 0.34858 0.81748 0.0
H2466 H 0.77182 0.34794 0.78832 0.0
C2467 C 0.71291 0.3628 0.69671 0.0
C2468 C 0.7424 0.37076 0.7361 0.0
H2469 H 0.78061 0.36405 0.76003 0.0
C2470 C 0.73069 0.37459 0.74983 0.0
C2471 C 0.76052 0.36654 0.73988 0.0
C2472 C 0.77348 0.3613 0.72589 0.0
C2473 C 0.73665 0.37458 0.76719 0.0
C2474 C 0.75498 0.37103 0.77089 0.0
C2475 C 0.76661 0.36694 0.75718 0.0
C2476 C 0.76238 0.37137 0.78887 0.0
C2477 C 0.72313 0.37808 0.78139 0.0
C2478 C 0.76153 0.38478 0.79889 0.0
C2479 C 0.76875 0.38511 0.81571 0.0
C2480 C 0.77724 0.3721 0.8228 0.0
C2481 C 0.77822 0.35873 0.81263 0.0
C2482 C 0.77086 0.35838 0.79587 0.0
H2483 H 0.709 0.37592 0.77704 0.0
H2484 H 0.7258 0.37112 0.7932 0.0
H2485 H 0.72418 0.39035 0.78496 0.0
H2486 H 0.75543 0.39507 0.79366 0.0
H2487 H 0.76757 0.39557 0.82318 0.0
H2488 H 0.29568 0.3549 0.69236 0.0
H2489 H 0.28323 0.35542 0.72186 0.0
H2490 H 0.24967 0.39396 0.70808 0.0
H2491 H 0.26211 0.39358 0.67856 0.0
H2492 H 0.28408 0.37891 0.74637 0.0
H2493 H 0.2132 0.36387 0.72897 0.0
H2494 H 0.23188 0.3615 0.71402 0.0
H2495 H 0.22211 0.3801 0.71747 0.0
C2496 C 0.28573 0.36355 0.69562 0.0
C2497 C 0.27985 0.37418 0.68307 0.0
C2498 C 0.27857 0.36378 0.71246 0.0
C2499 C 0.26533 0.37457 0.71709 0.0
C2500 C 0.25957 0.38531 0.70467 0.0
H2501 H 0.20766 0.3943 0.81323 0.0
H2502 H 0.22012 0.39467 0.78372 0.0
C2503 C 0.2667 0.38507 0.68781 0.0
C2504 C 0.25785 0.37476 0.73501 0.0
H2505 H 0.2186 0.37109 0.75826 0.0
C2506 C 0.26977 0.37715 0.74898 0.0
C2507 C 0.23917 0.37248 0.73837 0.0
C2508 C 0.22584 0.36921 0.72395 0.0
C2509 C 0.26349 0.37752 0.76623 0.0
C2510 C 0.24484 0.37521 0.76959 0.0
C2511 C 0.23289 0.37289 0.75563 0.0
C2512 C 0.23746 0.375 0.78754 0.0
C2513 C 0.27682 0.38064 0.7807 0.0
C2514 C 0.24293 0.3637 0.7994 0.0
C2515 C 0.23574 0.36338 0.81623 0.0
C2516 C 0.22288 0.37433 0.82153 0.0
C2517 C 0.21738 0.38559 0.80955 0.0
C2518 C 0.22455 0.38588 0.7927 0.0
H2519 H 0.28954 0.38588 0.77574 0.0
H2520 H 0.27082 0.38836 0.79063 0.0
H2521 H 0.28038 0.3697 0.78717 0.0
H2522 H 0.25259 0.355 0.79555 0.0
H2523 H 0.24003 0.35437 0.82498 0.0
H2524 H 0.25252 0.62754 0.32912 0.0
H2525 H 0.24034 0.62744 0.29949 0.0
H2526 H 0.29451 0.63122 0.27882 0.0
H2527 H 0.3068 0.63167 0.30841 0.0
H2528 H 0.26908 0.65182 0.2639 0.0
H2529 H 0.24377 0.59196 0.26402 0.0
H2530 H 0.23622 0.60346 0.282 0.0
H2531 H 0.25988 0.59896 0.27983 0.0
C2532 C 0.26184 0.62842 0.31827 0.0
C2533 C 0.28064 0.62957 0.32113 0.0
C2534 C 0.25487 0.62821 0.30135 0.0
C2535 C 0.26655 0.62912 0.28697 0.0
C2536 C 0.28529 0.6304 0.28975 0.0
H2537 H 0.24102 0.6117 0.17834 0.0
H2538 H 0.25383 0.61155 0.20773 0.0
C2539 C 0.29228 0.63055 0.30666 0.0
C2540 C 0.2592 0.62909 0.26902 0.0
H2541 H 0.23553 0.60738 0.23986 0.0
C2542 C 0.26178 0.6421 0.25861 0.0
C2543 C 0.24985 0.61632 0.26212 0.0
C2544 C 0.24736 0.60181 0.27248 0.0
C2545 C 0.25499 0.64279 0.24155 0.0
C2546 C 0.24522 0.63019 0.23482 0.0
C2547 C 0.2429 0.61707 0.24512 0.0
C2548 C 0.23741 0.63035 0.21704 0.0
C2549 C 0.25855 0.65691 0.23079 0.0
C2550 C 0.2238 0.64087 0.21261 0.0
C2551 C 0.2165 0.64102 0.19582 0.0
C2552 C 0.22265 0.63062 0.18314 0.0
C2553 C 0.23617 0.62 0.18771 0.0
C2554 C 0.24342 0.61983 0.20452 0.0
H2555 H 0.26981 0.66388 0.23624 0.0
H2556 H 0.26193 0.65382 0.21716 0.0
H2557 H 0.24616 0.66412 0.23059 0.0
H2558 H 0.21878 0.64894 0.22216 0.0
H2559 H 0.2062 0.64942 0.19271 0.0
loop_
_geom_bond_atom_site_label_1
_geom_bond_atom_site_label_2
_geom_bond_distance
_geom_bond_site_symmetry_2
_ccdc_geom_bond_type
Li0 N17 1.990 . S
Li0 O60 1.956 . S
Li0 O61 1.970 . S
Li0 O62 1.961 . S
Li1 N25 1.990 . S
Li1 O60 1.970 . S
Li1 O61 1.956 . S
Li1 O63 1.961 . S
Li2 N47 1.990 . S
Li2 O60 1.961 . S
Li2 O62 1.956 . S
Li2 O63 1.970 . S
Li3 N53 1.990 . S
Li3 O61 1.961 . S
Li3 O62 1.970 . S
Li3 O63 1.956 . S
C4 C6 1.348 . S
C4 C7 1.356 . S
C4 O60 1.325 . S
N5 C8 1.314 . S
N5 C9 1.279 . S
C6 C4 1.348 . S
C6 C8 1.353 . S
C6 H64 0.929 . S
C7 C4 1.356 . S
C7 C9 1.358 . S
C7 H65 0.930 . S
C8 N5 1.314 . S
C8 C6 1.353 . S
C8 H66 0.930 . S
C9 N5 1.279 . S
C9 C7 1.358 . S
C9 H67 0.930 . S
C10 C13 1.348 . S
C10 C14 1.356 . S
C10 O61 1.325 . S
C11 N12 1.279 . S
C11 C14 1.358 . S
C11 H68 0.930 . S
N12 C11 1.279 . S
N12 C15 1.314 . S
C13 C10 1.348 . S
C13 C15 1.353 . S
C13 H69 0.929 . S
C14 C10 1.356 . S
C14 C11 1.358 . S
C14 H70 0.930 . S
C15 N12 1.314 . S
C15 C13 1.353 . S
C15 H71 0.930 . S
C16 N17 1.314 . S
C16 C21 1.353 . S
C16 H22 0.930 . S
N17 Li0 1.990 . S
N17 C16 1.314 . S
N17 C19 1.279 . S
C18 C19 1.358 . S
C18 C20 1.356 . S
C18 H72 0.930 . S
C19 N17 1.279 . S
C19 C18 1.358 . S
C19 H23 0.930 . S
C20 C18 1.356 . S
C20 C21 1.348 . S
C21 C16 1.353 . S
C21 C20 1.348 . S
C21 H73 0.929 . S
H22 C16 0.930 . S
H23 C19 0.930 . S
C24 N25 1.314 . S
C24 C26 1.353 . S
C24 H30 0.930 . S
N25 Li1 1.990 . S
N25 C24 1.314 . S
N25 C28 1.279 . S
C26 C24 1.353 . S
C26 C29 1.348 . S
C26 H74 0.929 . S
C27 C28 1.358 . S
C27 C29 1.356 . S
C27 H75 0.930 . S
C28 N25 1.279 . S
C28 C27 1.358 . S
C28 H31 0.930 . S
C29 C26 1.348 . S
C29 C27 1.356 . S
H30 C24 0.930 . S
H31 C28 0.930 . S
C32 C34 1.348 . S
C32 C35 1.356 . S
C32 O62 1.325 . S
N33 C36 1.314 . S
N33 C37 1.279 . S
C34 C32 1.348 . S
C34 C36 1.353 . S
C34 H76 0.929 . S
C35 C32 1.356 . S
C35 C37 1.358 . S
C35 H77 0.930 . S
C36 N33 1.314 . S
C36 C34 1.353 . S
C36 H78 0.930 . S
C37 N33 1.279 . S
C37 C35 1.358 . S
C37 H79 0.930 . S
C38 C39 1.348 . S
C38 C40 1.356 . S
C38 O63 1.325 . S
C39 C38 1.348 . S
C39 C41 1.353 . S
C39 H80 0.929 . S
C40 C38 1.356 . S
C40 C42 1.358 . S
C40 H81 0.930 . S
C41 C39 1.353 . S
C41 N43 1.314 . S
C41 H82 0.930 . S
C42 C40 1.358 . S
C42 N43 1.279 . S
C42 H83 0.930 . S
N43 C41 1.314 . S
N43 C42 1.279 . S
C44 C46 1.353 . S
C44 N47 1.314 . S
C44 H50 0.930 . S
C45 N47 1.279 . S
C45 C48 1.358 . S
C45 H51 0.930 . S
C46 C44 1.353 . S
C46 C49 1.348 . S
C46 H84 0.929 . S
N47 Li2 1.990 . S
N47 C44 1.314 . S
N47 C45 1.279 . S
C48 C45 1.358 . S
C48 C49 1.356 . S
C48 H85 0.930 . S
C49 C46 1.348 . S
C49 C48 1.356 . S
H50 C44 0.930 . S
H51 C45 0.930 . S
C52 N53 1.314 . S
C52 C54 1.353 . S
C52 H58 0.930 . S
N53 Li3 1.990 . S
N53 C52 1.314 . S
N53 C56 1.279 . S
C54 C52 1.353 . S
C54 C57 1.348 . S
C54 H86 0.929 . S
C55 C56 1.358 . S
C55 C57 1.356 . S
C55 H87 0.930 . S
C56 N53 1.279 . S
C56 C55 1.358 . S
C56 H59 0.930 . S
C57 C54 1.348 . S
C57 C55 1.356 . S
H58 C52 0.930 . S
H59 C56 0.930 . S
O60 Li0 1.956 . S
O60 Li1 1.970 . S
O60 Li2 1.961 . S
O60 C4 1.325 . S
O61 Li0 1.970 . S
O61 Li1 1.956 . S
O61 Li3 1.961 . S
O61 C10 1.325 . S
O62 Li0 1.961 . S
O62 Li2 1.956 . S
O62 Li3 1.970 . S
O62 C32 1.325 . S
O63 Li1 1.961 . S
O63 Li2 1.970 . S
O63 Li3 1.956 . S
O63 C38 1.325 . S
H64 C6 0.929 . S
H65 C7 0.930 . S
H66 C8 0.930 . S
H67 C9 0.930 . S
H68 C11 0.930 . S
H69 C13 0.929 . S
H70 C14 0.930 . S
H71 C15 0.930 . S
H72 C18 0.930 . S
H73 C21 0.929 . S
H74 C26 0.929 . S
H75 C27 0.930 . S
H76 C34 0.929 . S
H77 C35 0.930 . S
H78 C36 0.930 . S
H79 C37 0.930 . S
H80 C39 0.929 . S
H81 C40 0.930 . S
H82 C41 0.930 . S
H83 C42 0.930 . S
H84 C46 0.929 . S
H85 C48 0.930 . S
H86 C54 0.929 . S
H87 C55 0.930 . S
Li88 N105 1.990 . S
Li88 O148 1.956 . S
Li88 O149 1.970 . S
Li88 O150 1.961 . S
Li89 N113 1.990 . S
Li89 O148 1.970 . S
Li89 O149 1.956 . S
Li89 O151 1.961 . S
Li90 N135 1.990 . S
Li90 O148 1.961 . S
Li90 O150 1.956 . S
Li90 O151 1.970 . S
Li91 N141 1.990 . S
Li91 O149 1.961 . S
Li91 O150 1.970 . S
Li91 O151 1.956 . S
C92 C94 1.348 . S
C92 C95 1.356 . S
C92 O148 1.325 . S
N93 C96 1.314 . S
N93 C97 1.279 . S
C94 C92 1.348 . S
C94 C96 1.353 . S
C94 H152 0.929 . S
C95 C92 1.356 . S
C95 C97 1.358 . S
C95 H153 0.930 . S
C96 N93 1.314 . S
C96 C94 1.353 . S
C96 H154 0.930 . S
C97 N93 1.279 . S
C97 C95 1.358 . S
C97 H155 0.930 . S
C98 C101 1.348 . S
C98 C102 1.356 . S
C98 O149 1.325 . S
C99 N100 1.279 . S
C99 C102 1.358 . S
C99 H156 0.930 . S
N100 C99 1.279 . S
N100 C103 1.314 . S
C101 C98 1.348 . S
C101 C103 1.353 . S
C101 H157 0.929 . S
C102 C98 1.356 . S
C102 C99 1.358 . S
C102 H158 0.930 . S
C103 N100 1.314 . S
C103 C101 1.353 . S
C103 H159 0.930 . S
C104 N105 1.314 . S
C104 C109 1.353 . S
C104 H110 0.930 . S
N105 Li88 1.990 . S
N105 C104 1.314 . S
N105 C107 1.279 . S
C106 C107 1.358 . S
C106 C108 1.356 . S
C106 H160 0.930 . S
C107 N105 1.279 . S
C107 C106 1.358 . S
C107 H111 0.930 . S
C108 C106 1.356 . S
C108 C109 1.348 . S
C109 C104 1.353 . S
C109 C108 1.348 . S
C109 H161 0.929 . S
H110 C104 0.930 . S
H111 C107 0.930 . S
C112 N113 1.314 . S
C112 C114 1.353 . S
C112 H118 0.930 . S
N113 Li89 1.990 . S
N113 C112 1.314 . S
N113 C116 1.279 . S
C114 C112 1.353 . S
C114 C117 1.348 . S
C114 H162 0.929 . S
C115 C116 1.358 . S
C115 C117 1.356 . S
C115 H163 0.930 . S
C116 N113 1.279 . S
C116 C115 1.358 . S
C116 H119 0.930 . S
C117 C114 1.348 . S
C117 C115 1.356 . S
H118 C112 0.930 . S
H119 C116 0.930 . S
C120 C122 1.348 . S
C120 C123 1.356 . S
C120 O150 1.325 . S
N121 C124 1.314 . S
N121 C125 1.279 . S
C122 C120 1.348 . S
C122 C124 1.353 . S
C122 H164 0.929 . S
C123 C120 1.356 . S
C123 C125 1.358 . S
C123 H165 0.930 . S
C124 N121 1.314 . S
C124 C122 1.353 . S
C124 H166 0.930 . S
C125 N121 1.279 . S
C125 C123 1.358 . S
C125 H167 0.930 . S
C126 C127 1.348 . S
C126 C128 1.356 . S
C126 O151 1.325 . S
C127 C126 1.348 . S
C127 C129 1.353 . S
C127 H168 0.929 . S
C128 C126 1.356 . S
C128 C130 1.358 . S
C128 H169 0.930 . S
C129 C127 1.353 . S
C129 N131 1.314 . S
C129 H170 0.930 . S
C130 C128 1.358 . S
C130 N131 1.279 . S
C130 H171 0.930 . S
N131 C129 1.314 . S
N131 C130 1.279 . S
C132 C134 1.353 . S
C132 N135 1.314 . S
C132 H138 0.930 . S
C133 N135 1.279 . S
C133 C136 1.358 . S
C133 H139 0.930 . S
C134 C132 1.353 . S
C134 C137 1.348 . S
C134 H172 0.929 . S
N135 Li90 1.990 . S
N135 C132 1.314 . S
N135 C133 1.279 . S
C136 C133 1.358 . S
C136 C137 1.356 . S
C136 H173 0.930 . S
C137 C134 1.348 . S
C137 C136 1.356 . S
H138 C132 0.930 . S
H139 C133 0.930 . S
C140 N141 1.314 . S
C140 C142 1.353 . S
C140 H146 0.930 . S
N141 Li91 1.990 . S
N141 C140 1.314 . S
N141 C144 1.279 . S
C142 C140 1.353 . S
C142 C145 1.348 . S
C142 H174 0.929 . S
C143 C144 1.358 . S
C143 C145 1.356 . S
C143 H175 0.930 . S
C144 N141 1.279 . S
C144 C143 1.358 . S
C144 H147 0.930 . S
C145 C142 1.348 . S
C145 C143 1.356 . S
H146 C140 0.930 . S
H147 C144 0.930 . S
O148 Li88 1.956 . S
O148 Li89 1.970 . S
O148 Li90 1.961 . S
O148 C92 1.325 . S
O149 Li88 1.970 . S
O149 Li89 1.956 . S
O149 Li91 1.961 . S
O149 C98 1.325 . S
O150 Li88 1.961 . S
O150 Li90 1.956 . S
O150 Li91 1.970 . S
O150 C120 1.325 . S
O151 Li89 1.961 . S
O151 Li90 1.970 . S
O151 Li91 1.956 . S
O151 C126 1.325 . S
H152 C94 0.929 . S
H153 C95 0.930 . S
H154 C96 0.930 . S
H155 C97 0.930 . S
H156 C99 0.930 . S
H157 C101 0.929 . S
H158 C102 0.930 . S
H159 C103 0.930 . S
H160 C106 0.930 . S
H161 C109 0.929 . S
H162 C114 0.929 . S
H163 C115 0.930 . S
H164 C122 0.929 . S
H165 C123 0.930 . S
H166 C124 0.930 . S
H167 C125 0.930 . S
H168 C127 0.929 . S
H169 C128 0.930 . S
H170 C129 0.930 . S
H171 C130 0.930 . S
H172 C134 0.929 . S
H173 C136 0.930 . S
H174 C142 0.929 . S
H175 C143 0.930 . S
Li176 N193 1.990 . S
Li176 O236 1.956 . S
Li176 O237 1.970 . S
Li176 O238 1.961 . S
Li177 N201 1.990 . S
Li177 O236 1.970 . S
Li177 O237 1.956 . S
Li177 O239 1.961 . S
Li178 N223 1.990 . S
Li178 O236 1.961 . S
Li178 O238 1.956 . S
Li178 O239 1.970 . S
Li179 N229 1.990 . S
Li179 O237 1.961 . S
Li179 O238 1.970 . S
Li179 O239 1.956 . S
C180 C182 1.348 . S
C180 C183 1.356 . S
C180 O236 1.325 . S
N181 C184 1.314 . S
N181 C185 1.279 . S
C182 C180 1.348 . S
C182 C184 1.353 . S
C182 H240 0.929 . S
C183 C180 1.356 . S
C183 C185 1.358 . S
C183 H241 0.930 . S
C184 N181 1.314 . S
C184 C182 1.353 . S
C184 H242 0.930 . S
C185 N181 1.279 . S
C185 C183 1.358 . S
C185 H243 0.930 . S
C186 C189 1.348 . S
C186 C190 1.356 . S
C186 O237 1.325 . S
C187 N188 1.279 . S
C187 C190 1.358 . S
C187 H244 0.930 . S
N188 C187 1.279 . S
N188 C191 1.314 . S
C189 C186 1.348 . S
C189 C191 1.353 . S
C189 H245 0.929 . S
C190 C186 1.356 . S
C190 C187 1.358 . S
C190 H246 0.930 . S
C191 N188 1.314 . S
C191 C189 1.353 . S
C191 H247 0.930 . S
C192 N193 1.314 . S
C192 C197 1.353 . S
C192 H198 0.930 . S
N193 Li176 1.990 . S
N193 C192 1.314 . S
N193 C195 1.279 . S
C194 C195 1.358 . S
C194 C196 1.356 . S
C194 H248 0.930 . S
C195 N193 1.279 . S
C195 C194 1.358 . S
C195 H199 0.930 . S
C196 C194 1.356 . S
C196 C197 1.348 . S
C197 C192 1.353 . S
C197 C196 1.348 . S
C197 H249 0.929 . S
H198 C192 0.930 . S
H199 C195 0.930 . S
C200 N201 1.314 . S
C200 C202 1.353 . S
C200 H206 0.930 . S
N201 Li177 1.990 . S
N201 C200 1.314 . S
N201 C204 1.279 . S
C202 C200 1.353 . S
C202 C205 1.348 . S
C202 H250 0.929 . S
C203 C204 1.358 . S
C203 C205 1.356 . S
C203 H251 0.930 . S
C204 N201 1.279 . S
C204 C203 1.358 . S
C204 H207 0.930 . S
C205 C202 1.348 . S
C205 C203 1.356 . S
H206 C200 0.930 . S
H207 C204 0.930 . S
C208 C210 1.348 . S
C208 C211 1.356 . S
C208 O238 1.325 . S
N209 C212 1.314 . S
N209 C213 1.279 . S
C210 C208 1.348 . S
C210 C212 1.353 . S
C210 H252 0.929 . S
C211 C208 1.356 . S
C211 C213 1.358 . S
C211 H253 0.930 . S
C212 N209 1.314 . S
C212 C210 1.353 . S
C212 H254 0.930 . S
C213 N209 1.279 . S
C213 C211 1.358 . S
C213 H255 0.930 . S
C214 C215 1.348 . S
C214 C216 1.356 . S
C214 O239 1.325 . S
C215 C214 1.348 . S
C215 C217 1.353 . S
C215 H256 0.929 . S
C216 C214 1.356 . S
C216 C218 1.358 . S
C216 H257 0.930 . S
C217 C215 1.353 . S
C217 N219 1.314 . S
C217 H258 0.930 . S
C218 C216 1.358 . S
C218 N219 1.279 . S
C218 H259 0.930 . S
N219 C217 1.314 . S
N219 C218 1.279 . S
C220 C222 1.353 . S
C220 N223 1.314 . S
C220 H226 0.930 . S
C221 N223 1.279 . S
C221 C224 1.358 . S
C221 H227 0.930 . S
C222 C220 1.353 . S
C222 C225 1.348 . S
C222 H260 0.929 . S
N223 Li178 1.990 . S
N223 C220 1.314 . S
N223 C221 1.279 . S
C224 C221 1.358 . S
C224 C225 1.356 . S
C224 H261 0.930 . S
C225 C222 1.348 . S
C225 C224 1.356 . S
H226 C220 0.930 . S
H227 C221 0.930 . S
C228 N229 1.314 . S
C228 C230 1.353 . S
C228 H234 0.930 . S
N229 Li179 1.990 . S
N229 C228 1.314 . S
N229 C232 1.279 . S
C230 C228 1.353 . S
C230 C233 1.348 . S
C230 H262 0.929 . S
C231 C232 1.358 . S
C231 C233 1.356 . S
C231 H263 0.930 . S
C232 N229 1.279 . S
C232 C231 1.358 . S
C232 H235 0.930 . S
C233 C230 1.348 . S
C233 C231 1.356 . S
H234 C228 0.930 . S
H235 C232 0.930 . S
O236 Li176 1.956 . S
O236 Li177 1.970 . S
O236 Li178 1.961 . S
O236 C180 1.325 . S
O237 Li176 1.970 . S
O237 Li177 1.956 . S
O237 Li179 1.961 . S
O237 C186 1.325 . S
O238 Li176 1.961 . S
O238 Li178 1.956 . S
O238 Li179 1.970 . S
O238 C208 1.325 . S
O239 Li177 1.961 . S
O239 Li178 1.970 . S
O239 Li179 1.956 . S
O239 C214 1.325 . S
H240 C182 0.929 . S
H241 C183 0.930 . S
H242 C184 0.930 . S
H243 C185 0.930 . S
H244 C187 0.930 . S
H245 C189 0.929 . S
H246 C190 0.930 . S
H247 C191 0.930 . S
H248 C194 0.930 . S
H249 C197 0.929 . S
H250 C202 0.929 . S
H251 C203 0.930 . S
H252 C210 0.929 . S
H253 C211 0.930 . S
H254 C212 0.930 . S
H255 C213 0.930 . S
H256 C215 0.929 . S
H257 C216 0.930 . S
H258 C217 0.930 . S
H259 C218 0.930 . S
H260 C222 0.929 . S
H261 C224 0.930 . S
H262 C230 0.929 . S
H263 C231 0.930 . S
Li264 N281 1.990 . S
Li264 O324 1.956 . S
Li264 O325 1.970 . S
Li264 O326 1.961 . S
Li265 N289 1.990 . S
Li265 O324 1.970 . S
Li265 O325 1.956 . S
Li265 O327 1.961 . S
Li266 N311 1.990 . S
Li266 O324 1.961 . S
Li266 O326 1.956 . S
Li266 O327 1.970 . S
Li267 N317 1.990 . S
Li267 O325 1.961 . S
Li267 O326 1.970 . S
Li267 O327 1.956 . S
C268 C270 1.348 . S
C268 C271 1.356 . S
C268 O324 1.325 . S
N269 C272 1.314 . S
N269 C273 1.279 . S
C270 C268 1.348 . S
C270 C272 1.353 . S
C270 H328 0.929 . S
C271 C268 1.356 . S
C271 C273 1.358 . S
C271 H329 0.930 . S
C272 N269 1.314 . S
C272 C270 1.353 . S
C272 H330 0.930 . S
C273 N269 1.279 . S
C273 C271 1.358 . S
C273 H331 0.930 . S
C274 C277 1.348 . S
C274 C278 1.356 . S
C274 O325 1.325 . S
C275 N276 1.279 . S
C275 C278 1.358 . S
C275 H332 0.930 . S
N276 C275 1.279 . S
N276 C279 1.314 . S
C277 C274 1.348 . S
C277 C279 1.353 . S
C277 H333 0.929 . S
C278 C274 1.356 . S
C278 C275 1.358 . S
C278 H334 0.930 . S
C279 N276 1.314 . S
C279 C277 1.353 . S
C279 H335 0.930 . S
C280 N281 1.314 . S
C280 C285 1.353 . S
C280 H286 0.930 . S
N281 Li264 1.990 . S
N281 C280 1.314 . S
N281 C283 1.279 . S
C282 C283 1.358 . S
C282 C284 1.356 . S
C282 H336 0.930 . S
C283 N281 1.279 . S
C283 C282 1.358 . S
C283 H287 0.930 . S
C284 C282 1.356 . S
C284 C285 1.348 . S
C285 C280 1.353 . S
C285 C284 1.348 . S
C285 H337 0.929 . S
H286 C280 0.930 . S
H287 C283 0.930 . S
C288 N289 1.314 . S
C288 C290 1.353 . S
C288 H294 0.930 . S
N289 Li265 1.990 . S
N289 C288 1.314 . S
N289 C292 1.279 . S
C290 C288 1.353 . S
C290 C293 1.348 . S
C290 H338 0.929 . S
C291 C292 1.358 . S
C291 C293 1.356 . S
C291 H339 0.930 . S
C292 N289 1.279 . S
C292 C291 1.358 . S
C292 H295 0.930 . S
C293 C290 1.348 . S
C293 C291 1.356 . S
H294 C288 0.930 . S
H295 C292 0.930 . S
C296 C298 1.348 . S
C296 C299 1.356 . S
C296 O326 1.325 . S
N297 C300 1.314 . S
N297 C301 1.279 . S
C298 C296 1.348 . S
C298 C300 1.353 . S
C298 H340 0.929 . S
C299 C296 1.356 . S
C299 C301 1.358 . S
C299 H341 0.930 . S
C300 N297 1.314 . S
C300 C298 1.353 . S
C300 H342 0.930 . S
C301 N297 1.279 . S
C301 C299 1.358 . S
C301 H343 0.930 . S
C302 C303 1.348 . S
C302 C304 1.356 . S
C302 O327 1.325 . S
C303 C302 1.348 . S
C303 C305 1.353 . S
C303 H344 0.929 . S
C304 C302 1.356 . S
C304 C306 1.358 . S
C304 H345 0.930 . S
C305 C303 1.353 . S
C305 N307 1.314 . S
C305 H346 0.930 . S
C306 C304 1.358 . S
C306 N307 1.279 . S
C306 H347 0.930 . S
N307 C305 1.314 . S
N307 C306 1.279 . S
C308 C310 1.353 . S
C308 N311 1.314 . S
C308 H314 0.930 . S
C309 N311 1.279 . S
C309 C312 1.358 . S
C309 H315 0.930 . S
C310 C308 1.353 . S
C310 C313 1.348 . S
C310 H348 0.929 . S
N311 Li266 1.990 . S
N311 C308 1.314 . S
N311 C309 1.279 . S
C312 C309 1.358 . S
C312 C313 1.356 . S
C312 H349 0.930 . S
C313 C310 1.348 . S
C313 C312 1.356 . S
H314 C308 0.930 . S
H315 C309 0.930 . S
C316 N317 1.314 . S
C316 C318 1.353 . S
C316 H322 0.930 . S
N317 Li267 1.990 . S
N317 C316 1.314 . S
N317 C320 1.279 . S
C318 C316 1.353 . S
C318 C321 1.348 . S
C318 H350 0.929 . S
C319 C320 1.358 . S
C319 C321 1.356 . S
C319 H351 0.930 . S
C320 N317 1.279 . S
C320 C319 1.358 . S
C320 H323 0.930 . S
C321 C318 1.348 . S
C321 C319 1.356 . S
H322 C316 0.930 . S
H323 C320 0.930 . S
O324 Li264 1.956 . S
O324 Li265 1.970 . S
O324 Li266 1.961 . S
O324 C268 1.325 . S
O325 Li264 1.970 . S
O325 Li265 1.956 . S
O325 Li267 1.961 . S
O325 C274 1.325 . S
O326 Li264 1.961 . S
O326 Li266 1.956 . S
O326 Li267 1.970 . S
O326 C296 1.325 . S
O327 Li265 1.961 . S
O327 Li266 1.970 . S
O327 Li267 1.956 . S
O327 C302 1.325 . S
H328 C270 0.929 . S
H329 C271 0.930 . S
H330 C272 0.930 . S
H331 C273 0.930 . S
H332 C275 0.930 . S
H333 C277 0.929 . S
H334 C278 0.930 . S
H335 C279 0.930 . S
H336 C282 0.930 . S
H337 C285 0.929 . S
H338 C290 0.929 . S
H339 C291 0.930 . S
H340 C298 0.929 . S
H341 C299 0.930 . S
H342 C300 0.930 . S
H343 C301 0.930 . S
H344 C303 0.929 . S
H345 C304 0.930 . S
H346 C305 0.930 . S
H347 C306 0.930 . S
H348 C310 0.929 . S
H349 C312 0.930 . S
H350 C318 0.929 . S
H351 C319 0.930 . S
Li352 N369 1.990 . S
Li352 O412 1.956 . S
Li352 O413 1.970 . S
Li352 O414 1.961 . S
Li353 N377 1.990 . S
Li353 O412 1.970 . S
Li353 O413 1.956 . S
Li353 O415 1.961 . S
Li354 N399 1.990 . S
Li354 O412 1.961 . S
Li354 O414 1.956 . S
Li354 O415 1.970 . S
Li355 N405 1.990 . S
Li355 O413 1.961 . S
Li355 O414 1.970 . S
Li355 O415 1.956 . S
C356 C358 1.348 . S
C356 C359 1.356 . S
C356 O412 1.325 . S
N357 C360 1.314 . S
N357 C361 1.279 . S
C358 C356 1.348 . S
C358 C360 1.353 . S
C358 H416 0.929 . S
C359 C356 1.356 . S
C359 C361 1.358 . S
C359 H417 0.930 . S
C360 N357 1.314 . S
C360 C358 1.353 . S
C360 H418 0.930 . S
C361 N357 1.279 . S
C361 C359 1.358 . S
C361 H419 0.930 . S
C362 C365 1.348 . S
C362 C366 1.356 . S
C362 O413 1.325 . S
C363 N364 1.279 . S
C363 C366 1.358 . S
C363 H420 0.930 . S
N364 C363 1.279 . S
N364 C367 1.314 . S
C365 C362 1.348 . S
C365 C367 1.353 . S
C365 H421 0.929 . S
C366 C362 1.356 . S
C366 C363 1.358 . S
C366 H422 0.930 . S
C367 N364 1.314 . S
C367 C365 1.353 . S
C367 H423 0.930 . S
C368 N369 1.314 . S
C368 C373 1.353 . S
C368 H374 0.930 . S
N369 Li352 1.990 . S
N369 C368 1.314 . S
N369 C371 1.279 . S
C370 C371 1.358 . S
C370 C372 1.356 . S
C370 H424 0.930 . S
C371 N369 1.279 . S
C371 C370 1.358 . S
C371 H375 0.930 . S
C372 C370 1.356 . S
C372 C373 1.348 . S
C373 C368 1.353 . S
C373 C372 1.348 . S
C373 H425 0.929 . S
H374 C368 0.930 . S
H375 C371 0.930 . S
C376 N377 1.314 . S
C376 C378 1.353 . S
C376 H382 0.930 . S
N377 Li353 1.990 . S
N377 C376 1.314 . S
N377 C380 1.279 . S
C378 C376 1.353 . S
C378 C381 1.348 . S
C378 H426 0.929 . S
C379 C380 1.358 . S
C379 C381 1.356 . S
C379 H427 0.930 . S
C380 N377 1.279 . S
C380 C379 1.358 . S
C380 H383 0.930 . S
C381 C378 1.348 . S
C381 C379 1.356 . S
H382 C376 0.930 . S
H383 C380 0.930 . S
C384 C386 1.348 . S
C384 C387 1.356 . S
C384 O414 1.325 . S
N385 C388 1.314 . S
N385 C389 1.279 . S
C386 C384 1.348 . S
C386 C388 1.353 . S
C386 H428 0.929 . S
C387 C384 1.356 . S
C387 C389 1.358 . S
C387 H429 0.930 . S
C388 N385 1.314 . S
C388 C386 1.353 . S
C388 H430 0.930 . S
C389 N385 1.279 . S
C389 C387 1.358 . S
C389 H431 0.930 . S
C390 C391 1.348 . S
C390 C392 1.356 . S
C390 O415 1.325 . S
C391 C390 1.348 . S
C391 C393 1.353 . S
C391 H432 0.929 . S
C392 C390 1.356 . S
C392 C394 1.358 . S
C392 H433 0.930 . S
C393 C391 1.353 . S
C393 N395 1.314 . S
C393 H434 0.930 . S
C394 C392 1.358 . S
C394 N395 1.279 . S
C394 H435 0.930 . S
N395 C393 1.314 . S
N395 C394 1.279 . S
C396 C398 1.353 . S
C396 N399 1.314 . S
C396 H402 0.930 . S
C397 N399 1.279 . S
C397 C400 1.358 . S
C397 H403 0.930 . S
C398 C396 1.353 . S
C398 C401 1.348 . S
C398 H436 0.929 . S
N399 Li354 1.990 . S
N399 C396 1.314 . S
N399 C397 1.279 . S
C400 C397 1.358 . S
C400 C401 1.356 . S
C400 H437 0.930 . S
C401 C398 1.348 . S
C401 C400 1.356 . S
H402 C396 0.930 . S
H403 C397 0.930 . S
C404 N405 1.314 . S
C404 C406 1.353 . S
C404 H410 0.930 . S
N405 Li355 1.990 . S
N405 C404 1.314 . S
N405 C408 1.279 . S
C406 C404 1.353 . S
C406 C409 1.348 . S
C406 H438 0.929 . S
C407 C408 1.358 . S
C407 C409 1.356 . S
C407 H439 0.930 . S
C408 N405 1.279 . S
C408 C407 1.358 . S
C408 H411 0.930 . S
C409 C406 1.348 . S
C409 C407 1.356 . S
H410 C404 0.930 . S
H411 C408 0.930 . S
O412 Li352 1.956 . S
O412 Li353 1.970 . S
O412 Li354 1.961 . S
O412 C356 1.325 . S
O413 Li352 1.970 . S
O413 Li353 1.956 . S
O413 Li355 1.961 . S
O413 C362 1.325 . S
O414 Li352 1.961 . S
O414 Li354 1.956 . S
O414 Li355 1.970 . S
O414 C384 1.325 . S
O415 Li353 1.961 . S
O415 Li354 1.970 . S
O415 Li355 1.956 . S
O415 C390 1.325 . S
H416 C358 0.929 . S
H417 C359 0.930 . S
H418 C360 0.930 . S
H419 C361 0.930 . S
H420 C363 0.930 . S
H421 C365 0.929 . S
H422 C366 0.930 . S
H423 C367 0.930 . S
H424 C370 0.930 . S
H425 C373 0.929 . S
H426 C378 0.929 . S
H427 C379 0.930 . S
H428 C386 0.929 . S
H429 C387 0.930 . S
H430 C388 0.930 . S
H431 C389 0.930 . S
H432 C391 0.929 . S
H433 C392 0.930 . S
H434 C393 0.930 . S
H435 C394 0.930 . S
H436 C398 0.929 . S
H437 C400 0.930 . S
H438 C406 0.929 . S
H439 C407 0.930 . S
Li440 N457 1.990 . S
Li440 O500 1.956 . S
Li440 O501 1.970 . S
Li440 O502 1.961 . S
Li441 N465 1.990 . S
Li441 O500 1.970 . S
Li441 O501 1.956 . S
Li441 O503 1.961 . S
Li442 N487 1.990 . S
Li442 O500 1.961 . S
Li442 O502 1.956 . S
Li442 O503 1.970 . S
Li443 N493 1.990 . S
Li443 O501 1.961 . S
Li443 O502 1.970 . S
Li443 O503 1.956 . S
C444 C446 1.348 . S
C444 C447 1.356 . S
C444 O500 1.325 . S
N445 C448 1.314 . S
N445 C449 1.279 . S
C446 C444 1.348 . S
C446 C448 1.353 . S
C446 H504 0.929 . S
C447 C444 1.356 . S
C447 C449 1.358 . S
C447 H505 0.930 . S
C448 N445 1.314 . S
C448 C446 1.353 . S
C448 H506 0.930 . S
C449 N445 1.279 . S
C449 C447 1.358 . S
C449 H507 0.930 . S
C450 C453 1.348 . S
C450 C454 1.356 . S
C450 O501 1.325 . S
C451 N452 1.279 . S
C451 C454 1.358 . S
C451 H508 0.930 . S
N452 C451 1.279 . S
N452 C455 1.314 . S
C453 C450 1.348 . S
C453 C455 1.353 . S
C453 H509 0.929 . S
C454 C450 1.356 . S
C454 C451 1.358 . S
C454 H510 0.930 . S
C455 N452 1.314 . S
C455 C453 1.353 . S
C455 H511 0.930 . S
C456 N457 1.314 . S
C456 C461 1.353 . S
C456 H462 0.930 . S
N457 Li440 1.990 . S
N457 C456 1.314 . S
N457 C459 1.279 . S
C458 C459 1.358 . S
C458 C460 1.356 . S
C458 H512 0.930 . S
C459 N457 1.279 . S
C459 C458 1.358 . S
C459 H463 0.930 . S
C460 C458 1.356 . S
C460 C461 1.348 . S
C461 C456 1.353 . S
C461 C460 1.348 . S
C461 H513 0.929 . S
H462 C456 0.930 . S
H463 C459 0.930 . S
C464 N465 1.314 . S
C464 C466 1.353 . S
C464 H470 0.930 . S
N465 Li441 1.990 . S
N465 C464 1.314 . S
N465 C468 1.279 . S
C466 C464 1.353 . S
C466 C469 1.348 . S
C466 H514 0.929 . S
C467 C468 1.358 . S
C467 C469 1.356 . S
C467 H515 0.930 . S
C468 N465 1.279 . S
C468 C467 1.358 . S
C468 H471 0.930 . S
C469 C466 1.348 . S
C469 C467 1.356 . S
H470 C464 0.930 . S
H471 C468 0.930 . S
C472 C474 1.348 . S
C472 C475 1.356 . S
C472 O502 1.325 . S
N473 C476 1.314 . S
N473 C477 1.279 . S
C474 C472 1.348 . S
C474 C476 1.353 . S
C474 H516 0.929 . S
C475 C472 1.356 . S
C475 C477 1.358 . S
C475 H517 0.930 . S
C476 N473 1.314 . S
C476 C474 1.353 . S
C476 H518 0.930 . S
C477 N473 1.279 . S
C477 C475 1.358 . S
C477 H519 0.930 . S
C478 C479 1.348 . S
C478 C480 1.356 . S
C478 O503 1.325 . S
C479 C478 1.348 . S
C479 C481 1.353 . S
C479 H520 0.929 . S
C480 C478 1.356 . S
C480 C482 1.358 . S
C480 H521 0.930 . S
C481 C479 1.353 . S
C481 N483 1.314 . S
C481 H522 0.930 . S
C482 C480 1.358 . S
C482 N483 1.279 . S
C482 H523 0.930 . S
N483 C481 1.314 . S
N483 C482 1.279 . S
C484 C486 1.353 . S
C484 N487 1.314 . S
C484 H490 0.930 . S
C485 N487 1.279 . S
C485 C488 1.358 . S
C485 H491 0.930 . S
C486 C484 1.353 . S
C486 C489 1.348 . S
C486 H524 0.929 . S
N487 Li442 1.990 . S
N487 C484 1.314 . S
N487 C485 1.279 . S
C488 C485 1.358 . S
C488 C489 1.356 . S
C488 H525 0.930 . S
C489 C486 1.348 . S
C489 C488 1.356 . S
H490 C484 0.930 . S
H491 C485 0.930 . S
C492 N493 1.314 . S
C492 C494 1.353 . S
C492 H498 0.930 . S
N493 Li443 1.990 . S
N493 C492 1.314 . S
N493 C496 1.279 . S
C494 C492 1.353 . S
C494 C497 1.348 . S
C494 H526 0.929 . S
C495 C496 1.358 . S
C495 C497 1.356 . S
C495 H527 0.930 . S
C496 N493 1.279 . S
C496 C495 1.358 . S
C496 H499 0.930 . S
C497 C494 1.348 . S
C497 C495 1.356 . S
H498 C492 0.930 . S
H499 C496 0.930 . S
O500 Li440 1.956 . S
O500 Li441 1.970 . S
O500 Li442 1.961 . S
O500 C444 1.325 . S
O501 Li440 1.970 . S
O501 Li441 1.956 . S
O501 Li443 1.961 . S
O501 C450 1.325 . S
O502 Li440 1.961 . S
O502 Li442 1.956 . S
O502 Li443 1.970 . S
O502 C472 1.325 . S
O503 Li441 1.961 . S
O503 Li442 1.970 . S
O503 Li443 1.956 . S
O503 C478 1.325 . S
H504 C446 0.929 . S
H505 C447 0.930 . S
H506 C448 0.930 . S
H507 C449 0.930 . S
H508 C451 0.930 . S
H509 C453 0.929 . S
H510 C454 0.930 . S
H511 C455 0.930 . S
H512 C458 0.930 . S
H513 C461 0.929 . S
H514 C466 0.929 . S
H515 C467 0.930 . S
H516 C474 0.929 . S
H517 C475 0.930 . S
H518 C476 0.930 . S
H519 C477 0.930 . S
H520 C479 0.929 . S
H521 C480 0.930 . S
H522 C481 0.930 . S
H523 C482 0.930 . S
H524 C486 0.929 . S
H525 C488 0.930 . S
H526 C494 0.929 . S
H527 C495 0.930 . S
Li528 N545 1.990 . S
Li528 O588 1.956 . S
Li528 O589 1.970 . S
Li528 O590 1.961 . S
Li529 N553 1.990 . S
Li529 O588 1.970 . S
Li529 O589 1.956 . S
Li529 O591 1.961 . S
Li530 N575 1.990 . S
Li530 O588 1.961 . S
Li530 O590 1.956 . S
Li530 O591 1.970 . S
Li531 N581 1.990 . S
Li531 O589 1.961 . S
Li531 O590 1.970 . S
Li531 O591 1.956 . S
C532 C534 1.348 . S
C532 C535 1.356 . S
C532 O588 1.325 . S
N533 C536 1.314 . S
N533 C537 1.279 . S
C534 C532 1.348 . S
C534 C536 1.353 . S
C534 H592 0.929 . S
C535 C532 1.356 . S
C535 C537 1.358 . S
C535 H593 0.930 . S
C536 N533 1.314 . S
C536 C534 1.353 . S
C536 H594 0.930 . S
C537 N533 1.279 . S
C537 C535 1.358 . S
C537 H595 0.930 . S
C538 C541 1.348 . S
C538 C542 1.356 . S
C538 O589 1.325 . S
C539 N540 1.279 . S
C539 C542 1.358 . S
C539 H596 0.930 . S
N540 C539 1.279 . S
N540 C543 1.314 . S
C541 C538 1.348 . S
C541 C543 1.353 . S
C541 H597 0.929 . S
C542 C538 1.356 . S
C542 C539 1.358 . S
C542 H598 0.930 . S
C543 N540 1.314 . S
C543 C541 1.353 . S
C543 H599 0.930 . S
C544 N545 1.314 . S
C544 C549 1.353 . S
C544 H550 0.930 . S
N545 Li528 1.990 . S
N545 C544 1.314 . S
N545 C547 1.279 . S
C546 C547 1.358 . S
C546 C548 1.356 . S
C546 H600 0.930 . S
C547 N545 1.279 . S
C547 C546 1.358 . S
C547 H551 0.930 . S
C548 C546 1.356 . S
C548 C549 1.348 . S
C549 C544 1.353 . S
C549 C548 1.348 . S
C549 H601 0.929 . S
H550 C544 0.930 . S
H551 C547 0.930 . S
C552 N553 1.314 . S
C552 C554 1.353 . S
C552 H558 0.930 . S
N553 Li529 1.990 . S
N553 C552 1.314 . S
N553 C556 1.279 . S
C554 C552 1.353 . S
C554 C557 1.348 . S
C554 H602 0.929 . S
C555 C556 1.358 . S
C555 C557 1.356 . S
C555 H603 0.930 . S
C556 N553 1.279 . S
C556 C555 1.358 . S
C556 H559 0.930 . S
C557 C554 1.348 . S
C557 C555 1.356 . S
H558 C552 0.930 . S
H559 C556 0.930 . S
C560 C562 1.348 . S
C560 C563 1.356 . S
C560 O590 1.325 . S
N561 C564 1.314 . S
N561 C565 1.279 . S
C562 C560 1.348 . S
C562 C564 1.353 . S
C562 H604 0.929 . S
C563 C560 1.356 . S
C563 C565 1.358 . S
C563 H605 0.930 . S
C564 N561 1.314 . S
C564 C562 1.353 . S
C564 H606 0.930 . S
C565 N561 1.279 . S
C565 C563 1.358 . S
C565 H607 0.930 . S
C566 C567 1.348 . S
C566 C568 1.356 . S
C566 O591 1.325 . S
C567 C566 1.348 . S
C567 C569 1.353 . S
C567 H608 0.929 . S
C568 C566 1.356 . S
C568 C570 1.358 . S
C568 H609 0.930 . S
C569 C567 1.353 . S
C569 N571 1.314 . S
C569 H610 0.930 . S
C570 C568 1.358 . S
C570 N571 1.279 . S
C570 H611 0.930 . S
N571 C569 1.314 . S
N571 C570 1.279 . S
C572 C574 1.353 . S
C572 N575 1.314 . S
C572 H578 0.930 . S
C573 N575 1.279 . S
C573 C576 1.358 . S
C573 H579 0.930 . S
C574 C572 1.353 . S
C574 C577 1.348 . S
C574 H612 0.929 . S
N575 Li530 1.990 . S
N575 C572 1.314 . S
N575 C573 1.279 . S
C576 C573 1.358 . S
C576 C577 1.356 . S
C576 H613 0.930 . S
C577 C574 1.348 . S
C577 C576 1.356 . S
H578 C572 0.930 . S
H579 C573 0.930 . S
C580 N581 1.314 . S
C580 C582 1.353 . S
C580 H586 0.930 . S
N581 Li531 1.990 . S
N581 C580 1.314 . S
N581 C584 1.279 . S
C582 C580 1.353 . S
C582 C585 1.348 . S
C582 H614 0.929 . S
C583 C584 1.358 . S
C583 C585 1.356 . S
C583 H615 0.930 . S
C584 N581 1.279 . S
C584 C583 1.358 . S
C584 H587 0.930 . S
C585 C582 1.348 . S
C585 C583 1.356 . S
H586 C580 0.930 . S
H587 C584 0.930 . S
O588 Li528 1.956 . S
O588 Li529 1.970 . S
O588 Li530 1.961 . S
O588 C532 1.325 . S
O589 Li528 1.970 . S
O589 Li529 1.956 . S
O589 Li531 1.961 . S
O589 C538 1.325 . S
O590 Li528 1.961 . S
O590 Li530 1.956 . S
O590 Li531 1.970 . S
O590 C560 1.325 . S
O591 Li529 1.961 . S
O591 Li530 1.970 . S
O591 Li531 1.956 . S
O591 C566 1.325 . S
H592 C534 0.929 . S
H593 C535 0.930 . S
H594 C536 0.930 . S
H595 C537 0.930 . S
H596 C539 0.930 . S
H597 C541 0.929 . S
H598 C542 0.930 . S
H599 C543 0.930 . S
H600 C546 0.930 . S
H601 C549 0.929 . S
H602 C554 0.929 . S
H603 C555 0.930 . S
H604 C562 0.929 . S
H605 C563 0.930 . S
H606 C564 0.930 . S
H607 C565 0.930 . S
H608 C567 0.929 . S
H609 C568 0.930 . S
H610 C569 0.930 . S
H611 C570 0.930 . S
H612 C574 0.929 . S
H613 C576 0.930 . S
H614 C582 0.929 . S
H615 C583 0.930 . S
Li616 N633 1.990 . S
Li616 O676 1.956 . S
Li616 O677 1.970 . S
Li616 O678 1.961 . S
Li617 N641 1.990 . S
Li617 O676 1.970 . S
Li617 O677 1.956 . S
Li617 O679 1.961 . S
Li618 N663 1.990 . S
Li618 O676 1.961 . S
Li618 O678 1.956 . S
Li618 O679 1.970 . S
Li619 N669 1.990 . S
Li619 O677 1.961 . S
Li619 O678 1.970 . S
Li619 O679 1.956 . S
C620 C622 1.348 . S
C620 C623 1.356 . S
C620 O676 1.325 . S
N621 C624 1.314 . S
N621 C625 1.279 . S
C622 C620 1.348 . S
C622 C624 1.353 . S
C622 H680 0.929 . S
C623 C620 1.356 . S
C623 C625 1.358 . S
C623 H681 0.930 . S
C624 N621 1.314 . S
C624 C622 1.353 . S
C624 H682 0.930 . S
C625 N621 1.279 . S
C625 C623 1.358 . S
C625 H683 0.930 . S
C626 C629 1.348 . S
C626 C630 1.356 . S
C626 O677 1.325 . S
C627 N628 1.279 . S
C627 C630 1.358 . S
C627 H684 0.930 . S
N628 C627 1.279 . S
N628 C631 1.314 . S
C629 C626 1.348 . S
C629 C631 1.353 . S
C629 H685 0.929 . S
C630 C626 1.356 . S
C630 C627 1.358 . S
C630 H686 0.930 . S
C631 N628 1.314 . S
C631 C629 1.353 . S
C631 H687 0.930 . S
C632 N633 1.314 . S
C632 C637 1.353 . S
C632 H638 0.930 . S
N633 Li616 1.990 . S
N633 C632 1.314 . S
N633 C635 1.279 . S
C634 C635 1.358 . S
C634 C636 1.356 . S
C634 H688 0.930 . S
C635 N633 1.279 . S
C635 C634 1.358 . S
C635 H639 0.930 . S
C636 C634 1.356 . S
C636 C637 1.348 . S
C637 C632 1.353 . S
C637 C636 1.348 . S
C637 H689 0.929 . S
H638 C632 0.930 . S
H639 C635 0.930 . S
C640 N641 1.314 . S
C640 C642 1.353 . S
C640 H646 0.930 . S
N641 Li617 1.990 . S
N641 C640 1.314 . S
N641 C644 1.279 . S
C642 C640 1.353 . S
C642 C645 1.348 . S
C642 H690 0.929 . S
C643 C644 1.358 . S
C643 C645 1.356 . S
C643 H691 0.930 . S
C644 N641 1.279 . S
C644 C643 1.358 . S
C644 H647 0.930 . S
C645 C642 1.348 . S
C645 C643 1.356 . S
H646 C640 0.930 . S
H647 C644 0.930 . S
C648 C650 1.348 . S
C648 C651 1.356 . S
C648 O678 1.325 . S
N649 C652 1.314 . S
N649 C653 1.279 . S
C650 C648 1.348 . S
C650 C652 1.353 . S
C650 H692 0.929 . S
C651 C648 1.356 . S
C651 C653 1.358 . S
C651 H693 0.930 . S
C652 N649 1.314 . S
C652 C650 1.353 . S
C652 H694 0.930 . S
C653 N649 1.279 . S
C653 C651 1.358 . S
C653 H695 0.930 . S
C654 C655 1.348 . S
C654 C656 1.356 . S
C654 O679 1.325 . S
C655 C654 1.348 . S
C655 C657 1.353 . S
C655 H696 0.929 . S
C656 C654 1.356 . S
C656 C658 1.358 . S
C656 H697 0.930 . S
C657 C655 1.353 . S
C657 N659 1.314 . S
C657 H698 0.930 . S
C658 C656 1.358 . S
C658 N659 1.279 . S
C658 H699 0.930 . S
N659 C657 1.314 . S
N659 C658 1.279 . S
C660 C662 1.353 . S
C660 N663 1.314 . S
C660 H666 0.930 . S
C661 N663 1.279 . S
C661 C664 1.358 . S
C661 H667 0.930 . S
C662 C660 1.353 . S
C662 C665 1.348 . S
C662 H700 0.929 . S
N663 Li618 1.990 . S
N663 C660 1.314 . S
N663 C661 1.279 . S
C664 C661 1.358 . S
C664 C665 1.356 . S
C664 H701 0.930 . S
C665 C662 1.348 . S
C665 C664 1.356 . S
H666 C660 0.930 . S
H667 C661 0.930 . S
C668 N669 1.314 . S
C668 C670 1.353 . S
C668 H674 0.930 . S
N669 Li619 1.990 . S
N669 C668 1.314 . S
N669 C672 1.279 . S
C670 C668 1.353 . S
C670 C673 1.348 . S
C670 H702 0.929 . S
C671 C672 1.358 . S
C671 C673 1.356 . S
C671 H703 0.930 . S
C672 N669 1.279 . S
C672 C671 1.358 . S
C672 H675 0.930 . S
C673 C670 1.348 . S
C673 C671 1.356 . S
H674 C668 0.930 . S
H675 C672 0.930 . S
O676 Li616 1.956 . S
O676 Li617 1.970 . S
O676 Li618 1.961 . S
O676 C620 1.325 . S
O677 Li616 1.970 . S
O677 Li617 1.956 . S
O677 Li619 1.961 . S
O677 C626 1.325 . S
O678 Li616 1.961 . S
O678 Li618 1.956 . S
O678 Li619 1.970 . S
O678 C648 1.325 . S
O679 Li617 1.961 . S
O679 Li618 1.970 . S
O679 Li619 1.956 . S
O679 C654 1.325 . S
H680 C622 0.929 . S
H681 C623 0.930 . S
H682 C624 0.930 . S
H683 C625 0.930 . S
H684 C627 0.930 . S
H685 C629 0.929 . S
H686 C630 0.930 . S
H687 C631 0.930 . S
H688 C634 0.930 . S
H689 C637 0.929 . S
H690 C642 0.929 . S
H691 C643 0.930 . S
H692 C650 0.929 . S
H693 C651 0.930 . S
H694 C652 0.930 . S
H695 C653 0.930 . S
H696 C655 0.929 . S
H697 C656 0.930 . S
H698 C657 0.930 . S
H699 C658 0.930 . S
H700 C662 0.929 . S
H701 C664 0.930 . S
H702 C670 0.929 . S
H703 C671 0.930 . S
Li704 N721 1.990 . S
Li704 O764 1.956 . S
Li704 O765 1.970 . S
Li704 O766 1.961 . S
Li705 N729 1.990 . S
Li705 O764 1.970 . S
Li705 O765 1.956 . S
Li705 O767 1.961 . S
Li706 N751 1.990 . S
Li706 O764 1.961 . S
Li706 O766 1.956 . S
Li706 O767 1.970 . S
Li707 N757 1.990 . S
Li707 O765 1.961 . S
Li707 O766 1.970 . S
Li707 O767 1.956 . S
C708 C710 1.348 . S
C708 C711 1.356 . S
C708 O764 1.325 . S
N709 C712 1.314 . S
N709 C713 1.279 . S
C710 C708 1.348 . S
C710 C712 1.353 . S
C710 H768 0.929 . S
C711 C708 1.356 . S
C711 C713 1.358 . S
C711 H769 0.930 . S
C712 N709 1.314 . S
C712 C710 1.353 . S
C712 H770 0.930 . S
C713 N709 1.279 . S
C713 C711 1.358 . S
C713 H771 0.930 . S
C714 C717 1.348 . S
C714 C718 1.356 . S
C714 O765 1.325 . S
C715 N716 1.279 . S
C715 C718 1.358 . S
C715 H772 0.930 . S
N716 C715 1.279 . S
N716 C719 1.314 . S
C717 C714 1.348 . S
C717 C719 1.353 . S
C717 H773 0.929 . S
C718 C714 1.356 . S
C718 C715 1.358 . S
C718 H774 0.930 . S
C719 N716 1.314 . S
C719 C717 1.353 . S
C719 H775 0.930 . S
C720 N721 1.314 . S
C720 C725 1.353 . S
C720 H726 0.930 . S
N721 Li704 1.990 . S
N721 C720 1.314 . S
N721 C723 1.279 . S
C722 C723 1.358 . S
C722 C724 1.356 . S
C722 H776 0.930 . S
C723 N721 1.279 . S
C723 C722 1.358 . S
C723 H727 0.930 . S
C724 C722 1.356 . S
C724 C725 1.348 . S
C725 C720 1.353 . S
C725 C724 1.348 . S
C725 H777 0.929 . S
H726 C720 0.930 . S
H727 C723 0.930 . S
C728 N729 1.314 . S
C728 C730 1.353 . S
C728 H734 0.930 . S
N729 Li705 1.990 . S
N729 C728 1.314 . S
N729 C732 1.279 . S
C730 C728 1.353 . S
C730 C733 1.348 . S
C730 H778 0.929 . S
C731 C732 1.358 . S
C731 C733 1.356 . S
C731 H779 0.930 . S
C732 N729 1.279 . S
C732 C731 1.358 . S
C732 H735 0.930 . S
C733 C730 1.348 . S
C733 C731 1.356 . S
H734 C728 0.930 . S
H735 C732 0.930 . S
C736 C738 1.348 . S
C736 C739 1.356 . S
C736 O766 1.325 . S
N737 C740 1.314 . S
N737 C741 1.279 . S
C738 C736 1.348 . S
C738 C740 1.353 . S
C738 H780 0.929 . S
C739 C736 1.356 . S
C739 C741 1.358 . S
C739 H781 0.930 . S
C740 N737 1.314 . S
C740 C738 1.353 . S
C740 H782 0.930 . S
C741 N737 1.279 . S
C741 C739 1.358 . S
C741 H783 0.930 . S
C742 C743 1.348 . S
C742 C744 1.356 . S
C742 O767 1.325 . S
C743 C742 1.348 . S
C743 C745 1.353 . S
C743 H784 0.929 . S
C744 C742 1.356 . S
C744 C746 1.358 . S
C744 H785 0.930 . S
C745 C743 1.353 . S
C745 N747 1.314 . S
C745 H786 0.930 . S
C746 C744 1.358 . S
C746 N747 1.279 . S
C746 H787 0.930 . S
N747 C745 1.314 . S
N747 C746 1.279 . S
C748 C750 1.353 . S
C748 N751 1.314 . S
C748 H754 0.930 . S
C749 N751 1.279 . S
C749 C752 1.358 . S
C749 H755 0.930 . S
C750 C748 1.353 . S
C750 C753 1.348 . S
C750 H788 0.929 . S
N751 Li706 1.990 . S
N751 C748 1.314 . S
N751 C749 1.279 . S
C752 C749 1.358 . S
C752 C753 1.356 . S
C752 H789 0.930 . S
C753 C750 1.348 . S
C753 C752 1.356 . S
H754 C748 0.930 . S
H755 C749 0.930 . S
C756 N757 1.314 . S
C756 C758 1.353 . S
C756 H762 0.930 . S
N757 Li707 1.990 . S
N757 C756 1.314 . S
N757 C760 1.279 . S
C758 C756 1.353 . S
C758 C761 1.348 . S
C758 H790 0.929 . S
C759 C760 1.358 . S
C759 C761 1.356 . S
C759 H791 0.930 . S
C760 N757 1.279 . S
C760 C759 1.358 . S
C760 H763 0.930 . S
C761 C758 1.348 . S
C761 C759 1.356 . S
H762 C756 0.930 . S
H763 C760 0.930 . S
O764 Li704 1.956 . S
O764 Li705 1.970 . S
O764 Li706 1.961 . S
O764 C708 1.325 . S
O765 Li704 1.970 . S
O765 Li705 1.956 . S
O765 Li707 1.961 . S
O765 C714 1.325 . S
O766 Li704 1.961 . S
O766 Li706 1.956 . S
O766 Li707 1.970 . S
O766 C736 1.325 . S
O767 Li705 1.961 . S
O767 Li706 1.970 . S
O767 Li707 1.956 . S
O767 C742 1.325 . S
H768 C710 0.929 . S
H769 C711 0.930 . S
H770 C712 0.930 . S
H771 C713 0.930 . S
H772 C715 0.930 . S
H773 C717 0.929 . S
H774 C718 0.930 . S
H775 C719 0.930 . S
H776 C722 0.930 . S
H777 C725 0.929 . S
H778 C730 0.929 . S
H779 C731 0.930 . S
H780 C738 0.929 . S
H781 C739 0.930 . S
H782 C740 0.930 . S
H783 C741 0.930 . S
H784 C743 0.929 . S
H785 C744 0.930 . S
H786 C745 0.930 . S
H787 C746 0.930 . S
H788 C750 0.929 . S
H789 C752 0.930 . S
H790 C758 0.929 . S
H791 C759 0.930 . S
Li792 N809 1.990 . S
Li792 O852 1.956 . S
Li792 O853 1.970 . S
Li792 O854 1.961 . S
Li793 N817 1.990 . S
Li793 O852 1.970 . S
Li793 O853 1.956 . S
Li793 O855 1.961 . S
Li794 N839 1.990 . S
Li794 O852 1.961 . S
Li794 O854 1.956 . S
Li794 O855 1.970 . S
Li795 N845 1.990 . S
Li795 O853 1.961 . S
Li795 O854 1.970 . S
Li795 O855 1.956 . S
C796 C798 1.348 . S
C796 C799 1.356 . S
C796 O852 1.325 . S
N797 C800 1.314 . S
N797 C801 1.279 . S
C798 C796 1.348 . S
C798 C800 1.353 . S
C798 H856 0.929 . S
C799 C796 1.356 . S
C799 C801 1.358 . S
C799 H857 0.930 . S
C800 N797 1.314 . S
C800 C798 1.353 . S
C800 H858 0.930 . S
C801 N797 1.279 . S
C801 C799 1.358 . S
C801 H859 0.930 . S
C802 C805 1.348 . S
C802 C806 1.356 . S
C802 O853 1.325 . S
C803 N804 1.279 . S
C803 C806 1.358 . S
C803 H860 0.930 . S
N804 C803 1.279 . S
N804 C807 1.314 . S
C805 C802 1.348 . S
C805 C807 1.353 . S
C805 H861 0.929 . S
C806 C802 1.356 . S
C806 C803 1.358 . S
C806 H862 0.930 . S
C807 N804 1.314 . S
C807 C805 1.353 . S
C807 H863 0.930 . S
C808 N809 1.314 . S
C808 C813 1.353 . S
C808 H814 0.930 . S
N809 Li792 1.990 . S
N809 C808 1.314 . S
N809 C811 1.279 . S
C810 C811 1.358 . S
C810 C812 1.356 . S
C810 H864 0.930 . S
C811 N809 1.279 . S
C811 C810 1.358 . S
C811 H815 0.930 . S
C812 C810 1.356 . S
C812 C813 1.348 . S
C813 C808 1.353 . S
C813 C812 1.348 . S
C813 H865 0.929 . S
H814 C808 0.930 . S
H815 C811 0.930 . S
C816 N817 1.314 . S
C816 C818 1.353 . S
C816 H822 0.930 . S
N817 Li793 1.990 . S
N817 C816 1.314 . S
N817 C820 1.279 . S
C818 C816 1.353 . S
C818 C821 1.348 . S
C818 H866 0.929 . S
C819 C820 1.358 . S
C819 C821 1.356 . S
C819 H867 0.930 . S
C820 N817 1.279 . S
C820 C819 1.358 . S
C820 H823 0.930 . S
C821 C818 1.348 . S
C821 C819 1.356 . S
H822 C816 0.930 . S
H823 C820 0.930 . S
C824 C826 1.348 . S
C824 C827 1.356 . S
C824 O854 1.325 . S
N825 C828 1.314 . S
N825 C829 1.279 . S
C826 C824 1.348 . S
C826 C828 1.353 . S
C826 H868 0.929 . S
C827 C824 1.356 . S
C827 C829 1.358 . S
C827 H869 0.930 . S
C828 N825 1.314 . S
C828 C826 1.353 . S
C828 H870 0.930 . S
C829 N825 1.279 . S
C829 C827 1.358 . S
C829 H871 0.930 . S
C830 C831 1.348 . S
C830 C832 1.356 . S
C830 O855 1.325 . S
C831 C830 1.348 . S
C831 C833 1.353 . S
C831 H872 0.929 . S
C832 C830 1.356 . S
C832 C834 1.358 . S
C832 H873 0.930 . S
C833 C831 1.353 . S
C833 N835 1.314 . S
C833 H874 0.930 . S
C834 C832 1.358 . S
C834 N835 1.279 . S
C834 H875 0.930 . S
N835 C833 1.314 . S
N835 C834 1.279 . S
C836 C838 1.353 . S
C836 N839 1.314 . S
C836 H842 0.930 . S
C837 N839 1.279 . S
C837 C840 1.358 . S
C837 H843 0.930 . S
C838 C836 1.353 . S
C838 C841 1.348 . S
C838 H876 0.929 . S
N839 Li794 1.990 . S
N839 C836 1.314 . S
N839 C837 1.279 . S
C840 C837 1.358 . S
C840 C841 1.356 . S
C840 H877 0.930 . S
C841 C838 1.348 . S
C841 C840 1.356 . S
H842 C836 0.930 . S
H843 C837 0.930 . S
C844 N845 1.314 . S
C844 C846 1.353 . S
C844 H850 0.930 . S
N845 Li795 1.990 . S
N845 C844 1.314 . S
N845 C848 1.279 . S
C846 C844 1.353 . S
C846 C849 1.348 . S
C846 H878 0.929 . S
C847 C848 1.358 . S
C847 C849 1.356 . S
C847 H879 0.930 . S
C848 N845 1.279 . S
C848 C847 1.358 . S
C848 H851 0.930 . S
C849 C846 1.348 . S
C849 C847 1.356 . S
H850 C844 0.930 . S
H851 C848 0.930 . S
O852 Li792 1.956 . S
O852 Li793 1.970 . S
O852 Li794 1.961 . S
O852 C796 1.325 . S
O853 Li792 1.970 . S
O853 Li793 1.956 . S
O853 Li795 1.961 . S
O853 C802 1.325 . S
O854 Li792 1.961 . S
O854 Li794 1.956 . S
O854 Li795 1.970 . S
O854 C824 1.325 . S
O855 Li793 1.961 . S
O855 Li794 1.970 . S
O855 Li795 1.956 . S
O855 C830 1.325 . S
H856 C798 0.929 . S
H857 C799 0.930 . S
H858 C800 0.930 . S
H859 C801 0.930 . S
H860 C803 0.930 . S
H861 C805 0.929 . S
H862 C806 0.930 . S
H863 C807 0.930 . S
H864 C810 0.930 . S
H865 C813 0.929 . S
H866 C818 0.929 . S
H867 C819 0.930 . S
H868 C826 0.929 . S
H869 C827 0.930 . S
H870 C828 0.930 . S
H871 C829 0.930 . S
H872 C831 0.929 . S
H873 C832 0.930 . S
H874 C833 0.930 . S
H875 C834 0.930 . S
H876 C838 0.929 . S
H877 C840 0.930 . S
H878 C846 0.929 . S
H879 C847 0.930 . S
Li880 N897 1.990 . S
Li880 O940 1.956 . S
Li880 O941 1.970 . S
Li880 O942 1.961 . S
Li881 N905 1.990 . S
Li881 O940 1.970 . S
Li881 O941 1.956 . S
Li881 O943 1.961 . S
Li882 N927 1.990 . S
Li882 O940 1.961 . S
Li882 O942 1.956 . S
Li882 O943 1.970 . S
Li883 N933 1.990 . S
Li883 O941 1.961 . S
Li883 O942 1.970 . S
Li883 O943 1.956 . S
C884 C886 1.348 . S
C884 C887 1.356 . S
C884 O940 1.325 . S
N885 C888 1.314 . S
N885 C889 1.279 . S
C886 C884 1.348 . S
C886 C888 1.353 . S
C886 H944 0.929 . S
C887 C884 1.356 . S
C887 C889 1.358 . S
C887 H945 0.930 . S
C888 N885 1.314 . S
C888 C886 1.353 . S
C888 H946 0.930 . S
C889 N885 1.279 . S
C889 C887 1.358 . S
C889 H947 0.930 . S
C890 C893 1.348 . S
C890 C894 1.356 . S
C890 O941 1.325 . S
C891 N892 1.279 . S
C891 C894 1.358 . S
C891 H948 0.930 . S
N892 C891 1.279 . S
N892 C895 1.314 . S
C893 C890 1.348 . S
C893 C895 1.353 . S
C893 H949 0.929 . S
C894 C890 1.356 . S
C894 C891 1.358 . S
C894 H950 0.930 . S
C895 N892 1.314 . S
C895 C893 1.353 . S
C895 H951 0.930 . S
C896 N897 1.314 . S
C896 C901 1.353 . S
C896 H902 0.930 . S
N897 Li880 1.990 . S
N897 C896 1.314 . S
N897 C899 1.279 . S
C898 C899 1.358 . S
C898 C900 1.356 . S
C898 H952 0.930 . S
C899 N897 1.279 . S
C899 C898 1.358 . S
C899 H903 0.930 . S
C900 C898 1.356 . S
C900 C901 1.348 . S
C901 C896 1.353 . S
C901 C900 1.348 . S
C901 H953 0.929 . S
H902 C896 0.930 . S
H903 C899 0.930 . S
C904 N905 1.314 . S
C904 C906 1.353 . S
C904 H910 0.930 . S
N905 Li881 1.990 . S
N905 C904 1.314 . S
N905 C908 1.279 . S
C906 C904 1.353 . S
C906 C909 1.348 . S
C906 H954 0.929 . S
C907 C908 1.358 . S
C907 C909 1.356 . S
C907 H955 0.930 . S
C908 N905 1.279 . S
C908 C907 1.358 . S
C908 H911 0.930 . S
C909 C906 1.348 . S
C909 C907 1.356 . S
H910 C904 0.930 . S
H911 C908 0.930 . S
C912 C914 1.348 . S
C912 C915 1.356 . S
C912 O942 1.325 . S
N913 C916 1.314 . S
N913 C917 1.279 . S
C914 C912 1.348 . S
C914 C916 1.353 . S
C914 H956 0.929 . S
C915 C912 1.356 . S
C915 C917 1.358 . S
C915 H957 0.930 . S
C916 N913 1.314 . S
C916 C914 1.353 . S
C916 H958 0.930 . S
C917 N913 1.279 . S
C917 C915 1.358 . S
C917 H959 0.930 . S
C918 C919 1.348 . S
C918 C920 1.356 . S
C918 O943 1.325 . S
C919 C918 1.348 . S
C919 C921 1.353 . S
C919 H960 0.929 . S
C920 C918 1.356 . S
C920 C922 1.358 . S
C920 H961 0.930 . S
C921 C919 1.353 . S
C921 N923 1.314 . S
C921 H962 0.930 . S
C922 C920 1.358 . S
C922 N923 1.279 . S
C922 H963 0.930 . S
N923 C921 1.314 . S
N923 C922 1.279 . S
C924 C926 1.353 . S
C924 N927 1.314 . S
C924 H930 0.930 . S
C925 N927 1.279 . S
C925 C928 1.358 . S
C925 H931 0.930 . S
C926 C924 1.353 . S
C926 C929 1.348 . S
C926 H964 0.929 . S
N927 Li882 1.990 . S
N927 C924 1.314 . S
N927 C925 1.279 . S
C928 C925 1.358 . S
C928 C929 1.356 . S
C928 H965 0.930 . S
C929 C926 1.348 . S
C929 C928 1.356 . S
H930 C924 0.930 . S
H931 C925 0.930 . S
C932 N933 1.314 . S
C932 C934 1.353 . S
C932 H938 0.930 . S
N933 Li883 1.990 . S
N933 C932 1.314 . S
N933 C936 1.279 . S
C934 C932 1.353 . S
C934 C937 1.348 . S
C934 H966 0.929 . S
C935 C936 1.358 . S
C935 C937 1.356 . S
C935 H967 0.930 . S
C936 N933 1.279 . S
C936 C935 1.358 . S
C936 H939 0.930 . S
C937 C934 1.348 . S
C937 C935 1.356 . S
H938 C932 0.930 . S
H939 C936 0.930 . S
O940 Li880 1.956 . S
O940 Li881 1.970 . S
O940 Li882 1.961 . S
O940 C884 1.325 . S
O941 Li880 1.970 . S
O941 Li881 1.956 . S
O941 Li883 1.961 . S
O941 C890 1.325 . S
O942 Li880 1.961 . S
O942 Li882 1.956 . S
O942 Li883 1.970 . S
O942 C912 1.325 . S
O943 Li881 1.961 . S
O943 Li882 1.970 . S
O943 Li883 1.956 . S
O943 C918 1.325 . S
H944 C886 0.929 . S
H945 C887 0.930 . S
H946 C888 0.930 . S
H947 C889 0.930 . S
H948 C891 0.930 . S
H949 C893 0.929 . S
H950 C894 0.930 . S
H951 C895 0.930 . S
H952 C898 0.930 . S
H953 C901 0.929 . S
H954 C906 0.929 . S
H955 C907 0.930 . S
H956 C914 0.929 . S
H957 C915 0.930 . S
H958 C916 0.930 . S
H959 C917 0.930 . S
H960 C919 0.929 . S
H961 C920 0.930 . S
H962 C921 0.930 . S
H963 C922 0.930 . S
H964 C926 0.929 . S
H965 C928 0.930 . S
H966 C934 0.929 . S
H967 C935 0.930 . S
Li968 N985 1.990 . S
Li968 O1028 1.956 . S
Li968 O1029 1.970 . S
Li968 O1030 1.961 . S
Li969 N993 1.990 . S
Li969 O1028 1.970 . S
Li969 O1029 1.956 . S
Li969 O1031 1.961 . S
Li970 N1015 1.990 . S
Li970 O1028 1.961 . S
Li970 O1030 1.956 . S
Li970 O1031 1.970 . S
Li971 N1021 1.990 . S
Li971 O1029 1.961 . S
Li971 O1030 1.970 . S
Li971 O1031 1.956 . S
C972 C974 1.348 . S
C972 C975 1.356 . S
C972 O1028 1.325 . S
N973 C976 1.314 . S
N973 C977 1.279 . S
C974 C972 1.348 . S
C974 C976 1.353 . S
C974 H1032 0.929 . S
C975 C972 1.356 . S
C975 C977 1.358 . S
C975 H1033 0.930 . S
C976 N973 1.314 . S
C976 C974 1.353 . S
C976 H1034 0.930 . S
C977 N973 1.279 . S
C977 C975 1.358 . S
C977 H1035 0.930 . S
C978 C981 1.348 . S
C978 C982 1.356 . S
C978 O1029 1.325 . S
C979 N980 1.279 . S
C979 C982 1.358 . S
C979 H1036 0.930 . S
N980 C979 1.279 . S
N980 C983 1.314 . S
C981 C978 1.348 . S
C981 C983 1.353 . S
C981 H1037 0.929 . S
C982 C978 1.356 . S
C982 C979 1.358 . S
C982 H1038 0.930 . S
C983 N980 1.314 . S
C983 C981 1.353 . S
C983 H1039 0.930 . S
C984 N985 1.314 . S
C984 C989 1.353 . S
C984 H990 0.930 . S
N985 Li968 1.990 . S
N985 C984 1.314 . S
N985 C987 1.279 . S
C986 C987 1.358 . S
C986 C988 1.356 . S
C986 H1040 0.930 . S
C987 N985 1.279 . S
C987 C986 1.358 . S
C987 H991 0.930 . S
C988 C986 1.356 . S
C988 C989 1.348 . S
C989 C984 1.353 . S
C989 C988 1.348 . S
C989 H1041 0.929 . S
H990 C984 0.930 . S
H991 C987 0.930 . S
C992 N993 1.314 . S
C992 C994 1.353 . S
C992 H998 0.930 . S
N993 Li969 1.990 . S
N993 C992 1.314 . S
N993 C996 1.279 . S
C994 C992 1.353 . S
C994 C997 1.348 . S
C994 H1042 0.929 . S
C995 C996 1.358 . S
C995 C997 1.356 . S
C995 H1043 0.930 . S
C996 N993 1.279 . S
C996 C995 1.358 . S
C996 H999 0.930 . S
C997 C994 1.348 . S
C997 C995 1.356 . S
H998 C992 0.930 . S
H999 C996 0.930 . S
C1000 C1002 1.348 . S
C1000 C1003 1.356 . S
C1000 O1030 1.325 . S
N1001 C1004 1.314 . S
N1001 C1005 1.279 . S
C1002 C1000 1.348 . S
C1002 C1004 1.353 . S
C1002 H1044 0.929 . S
C1003 C1000 1.356 . S
C1003 C1005 1.358 . S
C1003 H1045 0.930 . S
C1004 N1001 1.314 . S
C1004 C1002 1.353 . S
C1004 H1046 0.930 . S
C1005 N1001 1.279 . S
C1005 C1003 1.358 . S
C1005 H1047 0.930 . S
C1006 C1007 1.348 . S
C1006 C1008 1.356 . S
C1006 O1031 1.325 . S
C1007 C1006 1.348 . S
C1007 C1009 1.353 . S
C1007 H1048 0.929 . S
C1008 C1006 1.356 . S
C1008 C1010 1.358 . S
C1008 H1049 0.930 . S
C1009 C1007 1.353 . S
C1009 N1011 1.314 . S
C1009 H1050 0.930 . S
C1010 C1008 1.358 . S
C1010 N1011 1.279 . S
C1010 H1051 0.930 . S
N1011 C1009 1.314 . S
N1011 C1010 1.279 . S
C1012 C1014 1.353 . S
C1012 N1015 1.314 . S
C1012 H1018 0.930 . S
C1013 N1015 1.279 . S
C1013 C1016 1.358 . S
C1013 H1019 0.930 . S
C1014 C1012 1.353 . S
C1014 C1017 1.348 . S
C1014 H1052 0.929 . S
N1015 Li970 1.990 . S
N1015 C1012 1.314 . S
N1015 C1013 1.279 . S
C1016 C1013 1.358 . S
C1016 C1017 1.356 . S
C1016 H1053 0.930 . S
C1017 C1014 1.348 . S
C1017 C1016 1.356 . S
H1018 C1012 0.930 . S
H1019 C1013 0.930 . S
C1020 N1021 1.314 . S
C1020 C1022 1.353 . S
C1020 H1026 0.930 . S
N1021 Li971 1.990 . S
N1021 C1020 1.314 . S
N1021 C1024 1.279 . S
C1022 C1020 1.353 . S
C1022 C1025 1.348 . S
C1022 H1054 0.929 . S
C1023 C1024 1.358 . S
C1023 C1025 1.356 . S
C1023 H1055 0.930 . S
C1024 N1021 1.279 . S
C1024 C1023 1.358 . S
C1024 H1027 0.930 . S
C1025 C1022 1.348 . S
C1025 C1023 1.356 . S
H1026 C1020 0.930 . S
H1027 C1024 0.930 . S
O1028 Li968 1.956 . S
O1028 Li969 1.970 . S
O1028 Li970 1.961 . S
O1028 C972 1.325 . S
O1029 Li968 1.970 . S
O1029 Li969 1.956 . S
O1029 Li971 1.961 . S
O1029 C978 1.325 . S
O1030 Li968 1.961 . S
O1030 Li970 1.956 . S
O1030 Li971 1.970 . S
O1030 C1000 1.325 . S
O1031 Li969 1.961 . S
O1031 Li970 1.970 . S
O1031 Li971 1.956 . S
O1031 C1006 1.325 . S
H1032 C974 0.929 . S
H1033 C975 0.930 . S
H1034 C976 0.930 . S
H1035 C977 0.930 . S
H1036 C979 0.930 . S
H1037 C981 0.929 . S
H1038 C982 0.930 . S
H1039 C983 0.930 . S
H1040 C986 0.930 . S
H1041 C989 0.929 . S
H1042 C994 0.929 . S
H1043 C995 0.930 . S
H1044 C1002 0.929 . S
H1045 C1003 0.930 . S
H1046 C1004 0.930 . S
H1047 C1005 0.930 . S
H1048 C1007 0.929 . S
H1049 C1008 0.930 . S
H1050 C1009 0.930 . S
H1051 C1010 0.930 . S
H1052 C1014 0.929 . S
H1053 C1016 0.930 . S
H1054 C1022 0.929 . S
H1055 C1023 0.930 . S
Li1056 N1073 1.990 . S
Li1056 O1116 1.956 . S
Li1056 O1117 1.970 . S
Li1056 O1118 1.961 . S
Li1057 N1081 1.990 . S
Li1057 O1116 1.970 . S
Li1057 O1117 1.956 . S
Li1057 O1119 1.961 . S
Li1058 N1103 1.990 . S
Li1058 O1116 1.961 . S
Li1058 O1118 1.956 . S
Li1058 O1119 1.970 . S
Li1059 N1109 1.990 . S
Li1059 O1117 1.961 . S
Li1059 O1118 1.970 . S
Li1059 O1119 1.956 . S
C1060 C1062 1.348 . S
C1060 C1063 1.356 . S
C1060 O1116 1.325 . S
N1061 C1064 1.314 . S
N1061 C1065 1.279 . S
C1062 C1060 1.348 . S
C1062 C1064 1.353 . S
C1062 H1120 0.929 . S
C1063 C1060 1.356 . S
C1063 C1065 1.358 . S
C1063 H1121 0.930 . S
C1064 N1061 1.314 . S
C1064 C1062 1.353 . S
C1064 H1122 0.930 . S
C1065 N1061 1.279 . S
C1065 C1063 1.358 . S
C1065 H1123 0.930 . S
C1066 C1069 1.348 . S
C1066 C1070 1.356 . S
C1066 O1117 1.325 . S
C1067 N1068 1.279 . S
C1067 C1070 1.358 . S
C1067 H1124 0.930 . S
N1068 C1067 1.279 . S
N1068 C1071 1.314 . S
C1069 C1066 1.348 . S
C1069 C1071 1.353 . S
C1069 H1125 0.929 . S
C1070 C1066 1.356 . S
C1070 C1067 1.358 . S
C1070 H1126 0.930 . S
C1071 N1068 1.314 . S
C1071 C1069 1.353 . S
C1071 H1127 0.930 . S
C1072 N1073 1.314 . S
C1072 C1077 1.353 . S
C1072 H1078 0.930 . S
N1073 Li1056 1.990 . S
N1073 C1072 1.314 . S
N1073 C1075 1.279 . S
C1074 C1075 1.358 . S
C1074 C1076 1.356 . S
C1074 H1128 0.930 . S
C1075 N1073 1.279 . S
C1075 C1074 1.358 . S
C1075 H1079 0.930 . S
C1076 C1074 1.356 . S
C1076 C1077 1.348 . S
C1077 C1072 1.353 . S
C1077 C1076 1.348 . S
C1077 H1129 0.929 . S
H1078 C1072 0.930 . S
H1079 C1075 0.930 . S
C1080 N1081 1.314 . S
C1080 C1082 1.353 . S
C1080 H1086 0.930 . S
N1081 Li1057 1.990 . S
N1081 C1080 1.314 . S
N1081 C1084 1.279 . S
C1082 C1080 1.353 . S
C1082 C1085 1.348 . S
C1082 H1130 0.929 . S
C1083 C1084 1.358 . S
C1083 C1085 1.356 . S
C1083 H1131 0.930 . S
C1084 N1081 1.279 . S
C1084 C1083 1.358 . S
C1084 H1087 0.930 . S
C1085 C1082 1.348 . S
C1085 C1083 1.356 . S
H1086 C1080 0.930 . S
H1087 C1084 0.930 . S
C1088 C1090 1.348 . S
C1088 C1091 1.356 . S
C1088 O1118 1.325 . S
N1089 C1092 1.314 . S
N1089 C1093 1.279 . S
C1090 C1088 1.348 . S
C1090 C1092 1.353 . S
C1090 H1132 0.929 . S
C1091 C1088 1.356 . S
C1091 C1093 1.358 . S
C1091 H1133 0.930 . S
C1092 N1089 1.314 . S
C1092 C1090 1.353 . S
C1092 H1134 0.930 . S
C1093 N1089 1.279 . S
C1093 C1091 1.358 . S
C1093 H1135 0.930 . S
C1094 C1095 1.348 . S
C1094 C1096 1.356 . S
C1094 O1119 1.325 . S
C1095 C1094 1.348 . S
C1095 C1097 1.353 . S
C1095 H1136 0.929 . S
C1096 C1094 1.356 . S
C1096 C1098 1.358 . S
C1096 H1137 0.930 . S
C1097 C1095 1.353 . S
C1097 N1099 1.314 . S
C1097 H1138 0.930 . S
C1098 C1096 1.358 . S
C1098 N1099 1.279 . S
C1098 H1139 0.930 . S
N1099 C1097 1.314 . S
N1099 C1098 1.279 . S
C1100 C1102 1.353 . S
C1100 N1103 1.314 . S
C1100 H1106 0.930 . S
C1101 N1103 1.279 . S
C1101 C1104 1.358 . S
C1101 H1107 0.930 . S
C1102 C1100 1.353 . S
C1102 C1105 1.348 . S
C1102 H1140 0.929 . S
N1103 Li1058 1.990 . S
N1103 C1100 1.314 . S
N1103 C1101 1.279 . S
C1104 C1101 1.358 . S
C1104 C1105 1.356 . S
C1104 H1141 0.930 . S
C1105 C1102 1.348 . S
C1105 C1104 1.356 . S
H1106 C1100 0.930 . S
H1107 C1101 0.930 . S
C1108 N1109 1.314 . S
C1108 C1110 1.353 . S
C1108 H1114 0.930 . S
N1109 Li1059 1.990 . S
N1109 C1108 1.314 . S
N1109 C1112 1.279 . S
C1110 C1108 1.353 . S
C1110 C1113 1.348 . S
C1110 H1142 0.929 . S
C1111 C1112 1.358 . S
C1111 C1113 1.356 . S
C1111 H1143 0.930 . S
C1112 N1109 1.279 . S
C1112 C1111 1.358 . S
C1112 H1115 0.930 . S
C1113 C1110 1.348 . S
C1113 C1111 1.356 . S
H1114 C1108 0.930 . S
H1115 C1112 0.930 . S
O1116 Li1056 1.956 . S
O1116 Li1057 1.970 . S
O1116 Li1058 1.961 . S
O1116 C1060 1.325 . S
O1117 Li1056 1.970 . S
O1117 Li1057 1.956 . S
O1117 Li1059 1.961 . S
O1117 C1066 1.325 . S
O1118 Li1056 1.961 . S
O1118 Li1058 1.956 . S
O1118 Li1059 1.970 . S
O1118 C1088 1.325 . S
O1119 Li1057 1.961 . S
O1119 Li1058 1.970 . S
O1119 Li1059 1.956 . S
O1119 C1094 1.325 . S
H1120 C1062 0.929 . S
H1121 C1063 0.930 . S
H1122 C1064 0.930 . S
H1123 C1065 0.930 . S
H1124 C1067 0.930 . S
H1125 C1069 0.929 . S
H1126 C1070 0.930 . S
H1127 C1071 0.930 . S
H1128 C1074 0.930 . S
H1129 C1077 0.929 . S
H1130 C1082 0.929 . S
H1131 C1083 0.930 . S
H1132 C1090 0.929 . S
H1133 C1091 0.930 . S
H1134 C1092 0.930 . S
H1135 C1093 0.930 . S
H1136 C1095 0.929 . S
H1137 C1096 0.930 . S
H1138 C1097 0.930 . S
H1139 C1098 0.930 . S
H1140 C1102 0.929 . S
H1141 C1104 0.930 . S
H1142 C1110 0.929 . S
H1143 C1111 0.930 . S
Li1144 N1161 1.990 . S
Li1144 O1204 1.956 . S
Li1144 O1205 1.970 . S
Li1144 O1206 1.961 . S
Li1145 N1169 1.990 . S
Li1145 O1204 1.970 . S
Li1145 O1205 1.956 . S
Li1145 O1207 1.961 . S
Li1146 N1191 1.990 . S
Li1146 O1204 1.961 . S
Li1146 O1206 1.956 . S
Li1146 O1207 1.970 . S
Li1147 N1197 1.990 . S
Li1147 O1205 1.961 . S
Li1147 O1206 1.970 . S
Li1147 O1207 1.956 . S
C1148 C1150 1.348 . S
C1148 C1151 1.356 . S
C1148 O1204 1.325 . S
N1149 C1152 1.314 . S
N1149 C1153 1.279 . S
C1150 C1148 1.348 . S
C1150 C1152 1.353 . S
C1150 H1208 0.929 . S
C1151 C1148 1.356 . S
C1151 C1153 1.358 . S
C1151 H1209 0.930 . S
C1152 N1149 1.314 . S
C1152 C1150 1.353 . S
C1152 H1210 0.930 . S
C1153 N1149 1.279 . S
C1153 C1151 1.358 . S
C1153 H1211 0.930 . S
C1154 C1157 1.348 . S
C1154 C1158 1.356 . S
C1154 O1205 1.325 . S
C1155 N1156 1.279 . S
C1155 C1158 1.358 . S
C1155 H1212 0.930 . S
N1156 C1155 1.279 . S
N1156 C1159 1.314 . S
C1157 C1154 1.348 . S
C1157 C1159 1.353 . S
C1157 H1213 0.929 . S
C1158 C1154 1.356 . S
C1158 C1155 1.358 . S
C1158 H1214 0.930 . S
C1159 N1156 1.314 . S
C1159 C1157 1.353 . S
C1159 H1215 0.930 . S
C1160 N1161 1.314 . S
C1160 C1165 1.353 . S
C1160 H1166 0.930 . S
N1161 Li1144 1.990 . S
N1161 C1160 1.314 . S
N1161 C1163 1.279 . S
C1162 C1163 1.358 . S
C1162 C1164 1.356 . S
C1162 H1216 0.930 . S
C1163 N1161 1.279 . S
C1163 C1162 1.358 . S
C1163 H1167 0.930 . S
C1164 C1162 1.356 . S
C1164 C1165 1.348 . S
C1165 C1160 1.353 . S
C1165 C1164 1.348 . S
C1165 H1217 0.929 . S
H1166 C1160 0.930 . S
H1167 C1163 0.930 . S
C1168 N1169 1.314 . S
C1168 C1170 1.353 . S
C1168 H1174 0.930 . S
N1169 Li1145 1.990 . S
N1169 C1168 1.314 . S
N1169 C1172 1.279 . S
C1170 C1168 1.353 . S
C1170 C1173 1.348 . S
C1170 H1218 0.929 . S
C1171 C1172 1.358 . S
C1171 C1173 1.356 . S
C1171 H1219 0.930 . S
C1172 N1169 1.279 . S
C1172 C1171 1.358 . S
C1172 H1175 0.930 . S
C1173 C1170 1.348 . S
C1173 C1171 1.356 . S
H1174 C1168 0.930 . S
H1175 C1172 0.930 . S
C1176 C1178 1.348 . S
C1176 C1179 1.356 . S
C1176 O1206 1.325 . S
N1177 C1180 1.314 . S
N1177 C1181 1.279 . S
C1178 C1176 1.348 . S
C1178 C1180 1.353 . S
C1178 H1220 0.929 . S
C1179 C1176 1.356 . S
C1179 C1181 1.358 . S
C1179 H1221 0.930 . S
C1180 N1177 1.314 . S
C1180 C1178 1.353 . S
C1180 H1222 0.930 . S
C1181 N1177 1.279 . S
C1181 C1179 1.358 . S
C1181 H1223 0.930 . S
C1182 C1183 1.348 . S
C1182 C1184 1.356 . S
C1182 O1207 1.325 . S
C1183 C1182 1.348 . S
C1183 C1185 1.353 . S
C1183 H1224 0.929 . S
C1184 C1182 1.356 . S
C1184 C1186 1.358 . S
C1184 H1225 0.930 . S
C1185 C1183 1.353 . S
C1185 N1187 1.314 . S
C1185 H1226 0.930 . S
C1186 C1184 1.358 . S
C1186 N1187 1.279 . S
C1186 H1227 0.930 . S
N1187 C1185 1.314 . S
N1187 C1186 1.279 . S
C1188 C1190 1.353 . S
C1188 N1191 1.314 . S
C1188 H1194 0.930 . S
C1189 N1191 1.279 . S
C1189 C1192 1.358 . S
C1189 H1195 0.930 . S
C1190 C1188 1.353 . S
C1190 C1193 1.348 . S
C1190 H1228 0.929 . S
N1191 Li1146 1.990 . S
N1191 C1188 1.314 . S
N1191 C1189 1.279 . S
C1192 C1189 1.358 . S
C1192 C1193 1.356 . S
C1192 H1229 0.930 . S
C1193 C1190 1.348 . S
C1193 C1192 1.356 . S
H1194 C1188 0.930 . S
H1195 C1189 0.930 . S
C1196 N1197 1.314 . S
C1196 C1198 1.353 . S
C1196 H1202 0.930 . S
N1197 Li1147 1.990 . S
N1197 C1196 1.314 . S
N1197 C1200 1.279 . S
C1198 C1196 1.353 . S
C1198 C1201 1.348 . S
C1198 H1230 0.929 . S
C1199 C1200 1.358 . S
C1199 C1201 1.356 . S
C1199 H1231 0.930 . S
C1200 N1197 1.279 . S
C1200 C1199 1.358 . S
C1200 H1203 0.930 . S
C1201 C1198 1.348 . S
C1201 C1199 1.356 . S
H1202 C1196 0.930 . S
H1203 C1200 0.930 . S
O1204 Li1144 1.956 . S
O1204 Li1145 1.970 . S
O1204 Li1146 1.961 . S
O1204 C1148 1.325 . S
O1205 Li1144 1.970 . S
O1205 Li1145 1.956 . S
O1205 Li1147 1.961 . S
O1205 C1154 1.325 . S
O1206 Li1144 1.961 . S
O1206 Li1146 1.956 . S
O1206 Li1147 1.970 . S
O1206 C1176 1.325 . S
O1207 Li1145 1.961 . S
O1207 Li1146 1.970 . S
O1207 Li1147 1.956 . S
O1207 C1182 1.325 . S
H1208 C1150 0.929 . S
H1209 C1151 0.930 . S
H1210 C1152 0.930 . S
H1211 C1153 0.930 . S
H1212 C1155 0.930 . S
H1213 C1157 0.929 . S
H1214 C1158 0.930 . S
H1215 C1159 0.930 . S
H1216 C1162 0.930 . S
H1217 C1165 0.929 . S
H1218 C1170 0.929 . S
H1219 C1171 0.930 . S
H1220 C1178 0.929 . S
H1221 C1179 0.930 . S
H1222 C1180 0.930 . S
H1223 C1181 0.930 . S
H1224 C1183 0.929 . S
H1225 C1184 0.930 . S
H1226 C1185 0.930 . S
H1227 C1186 0.930 . S
H1228 C1190 0.929 . S
H1229 C1192 0.930 . S
H1230 C1198 0.929 . S
H1231 C1199 0.930 . S
Li1232 N1249 1.990 . S
Li1232 O1292 1.956 . S
Li1232 O1293 1.970 . S
Li1232 O1294 1.961 . S
Li1233 N1257 1.990 . S
Li1233 O1292 1.970 . S
Li1233 O1293 1.956 . S
Li1233 O1295 1.961 . S
Li1234 N1279 1.990 . S
Li1234 O1292 1.961 . S
Li1234 O1294 1.956 . S
Li1234 O1295 1.970 . S
Li1235 N1285 1.990 . S
Li1235 O1293 1.961 . S
Li1235 O1294 1.970 . S
Li1235 O1295 1.956 . S
C1236 C1238 1.348 . S
C1236 C1239 1.356 . S
C1236 O1292 1.325 . S
N1237 C1240 1.314 . S
N1237 C1241 1.279 . S
C1238 C1236 1.348 . S
C1238 C1240 1.353 . S
C1238 H1296 0.929 . S
C1239 C1236 1.356 . S
C1239 C1241 1.358 . S
C1239 H1297 0.930 . S
C1240 N1237 1.314 . S
C1240 C1238 1.353 . S
C1240 H1298 0.930 . S
C1241 N1237 1.279 . S
C1241 C1239 1.358 . S
C1241 H1299 0.930 . S
C1242 C1245 1.348 . S
C1242 C1246 1.356 . S
C1242 O1293 1.325 . S
C1243 N1244 1.279 . S
C1243 C1246 1.358 . S
C1243 H1300 0.930 . S
N1244 C1243 1.279 . S
N1244 C1247 1.314 . S
C1245 C1242 1.348 . S
C1245 C1247 1.353 . S
C1245 H1301 0.929 . S
C1246 C1242 1.356 . S
C1246 C1243 1.358 . S
C1246 H1302 0.930 . S
C1247 N1244 1.314 . S
C1247 C1245 1.353 . S
C1247 H1303 0.930 . S
C1248 N1249 1.314 . S
C1248 C1253 1.353 . S
C1248 H1254 0.930 . S
N1249 Li1232 1.990 . S
N1249 C1248 1.314 . S
N1249 C1251 1.279 . S
C1250 C1251 1.358 . S
C1250 C1252 1.356 . S
C1250 H1304 0.930 . S
C1251 N1249 1.279 . S
C1251 C1250 1.358 . S
C1251 H1255 0.930 . S
C1252 C1250 1.356 . S
C1252 C1253 1.348 . S
C1253 C1248 1.353 . S
C1253 C1252 1.348 . S
C1253 H1305 0.929 . S
H1254 C1248 0.930 . S
H1255 C1251 0.930 . S
C1256 N1257 1.314 . S
C1256 C1258 1.353 . S
C1256 H1262 0.930 . S
N1257 Li1233 1.990 . S
N1257 C1256 1.314 . S
N1257 C1260 1.279 . S
C1258 C1256 1.353 . S
C1258 C1261 1.348 . S
C1258 H1306 0.929 . S
C1259 C1260 1.358 . S
C1259 C1261 1.356 . S
C1259 H1307 0.930 . S
C1260 N1257 1.279 . S
C1260 C1259 1.358 . S
C1260 H1263 0.930 . S
C1261 C1258 1.348 . S
C1261 C1259 1.356 . S
H1262 C1256 0.930 . S
H1263 C1260 0.930 . S
C1264 C1266 1.348 . S
C1264 C1267 1.356 . S
C1264 O1294 1.325 . S
N1265 C1268 1.314 . S
N1265 C1269 1.279 . S
C1266 C1264 1.348 . S
C1266 C1268 1.353 . S
C1266 H1308 0.929 . S
C1267 C1264 1.356 . S
C1267 C1269 1.358 . S
C1267 H1309 0.930 . S
C1268 N1265 1.314 . S
C1268 C1266 1.353 . S
C1268 H1310 0.930 . S
C1269 N1265 1.279 . S
C1269 C1267 1.358 . S
C1269 H1311 0.930 . S
C1270 C1271 1.348 . S
C1270 C1272 1.356 . S
C1270 O1295 1.325 . S
C1271 C1270 1.348 . S
C1271 C1273 1.353 . S
C1271 H1312 0.929 . S
C1272 C1270 1.356 . S
C1272 C1274 1.358 . S
C1272 H1313 0.930 . S
C1273 C1271 1.353 . S
C1273 N1275 1.314 . S
C1273 H1314 0.930 . S
C1274 C1272 1.358 . S
C1274 N1275 1.279 . S
C1274 H1315 0.930 . S
N1275 C1273 1.314 . S
N1275 C1274 1.279 . S
C1276 C1278 1.353 . S
C1276 N1279 1.314 . S
C1276 H1282 0.930 . S
C1277 N1279 1.279 . S
C1277 C1280 1.358 . S
C1277 H1283 0.930 . S
C1278 C1276 1.353 . S
C1278 C1281 1.348 . S
C1278 H1316 0.929 . S
N1279 Li1234 1.990 . S
N1279 C1276 1.314 . S
N1279 C1277 1.279 . S
C1280 C1277 1.358 . S
C1280 C1281 1.356 . S
C1280 H1317 0.930 . S
C1281 C1278 1.348 . S
C1281 C1280 1.356 . S
H1282 C1276 0.930 . S
H1283 C1277 0.930 . S
C1284 N1285 1.314 . S
C1284 C1286 1.353 . S
C1284 H1290 0.930 . S
N1285 Li1235 1.990 . S
N1285 C1284 1.314 . S
N1285 C1288 1.279 . S
C1286 C1284 1.353 . S
C1286 C1289 1.348 . S
C1286 H1318 0.929 . S
C1287 C1288 1.358 . S
C1287 C1289 1.356 . S
C1287 H1319 0.930 . S
C1288 N1285 1.279 . S
C1288 C1287 1.358 . S
C1288 H1291 0.930 . S
C1289 C1286 1.348 . S
C1289 C1287 1.356 . S
H1290 C1284 0.930 . S
H1291 C1288 0.930 . S
O1292 Li1232 1.956 . S
O1292 Li1233 1.970 . S
O1292 Li1234 1.961 . S
O1292 C1236 1.325 . S
O1293 Li1232 1.970 . S
O1293 Li1233 1.956 . S
O1293 Li1235 1.961 . S
O1293 C1242 1.325 . S
O1294 Li1232 1.961 . S
O1294 Li1234 1.956 . S
O1294 Li1235 1.970 . S
O1294 C1264 1.325 . S
O1295 Li1233 1.961 . S
O1295 Li1234 1.970 . S
O1295 Li1235 1.956 . S
O1295 C1270 1.325 . S
H1296 C1238 0.929 . S
H1297 C1239 0.930 . S
H1298 C1240 0.930 . S
H1299 C1241 0.930 . S
H1300 C1243 0.930 . S
H1301 C1245 0.929 . S
H1302 C1246 0.930 . S
H1303 C1247 0.930 . S
H1304 C1250 0.930 . S
H1305 C1253 0.929 . S
H1306 C1258 0.929 . S
H1307 C1259 0.930 . S
H1308 C1266 0.929 . S
H1309 C1267 0.930 . S
H1310 C1268 0.930 . S
H1311 C1269 0.930 . S
H1312 C1271 0.929 . S
H1313 C1272 0.930 . S
H1314 C1273 0.930 . S
H1315 C1274 0.930 . S
H1316 C1278 0.929 . S
H1317 C1280 0.930 . S
H1318 C1286 0.929 . S
H1319 C1287 0.930 . S
Li1320 N1337 1.990 . S
Li1320 O1380 1.956 . S
Li1320 O1381 1.970 . S
Li1320 O1382 1.961 . S
Li1321 N1345 1.990 . S
Li1321 O1380 1.970 . S
Li1321 O1381 1.956 . S
Li1321 O1383 1.961 . S
Li1322 N1367 1.990 . S
Li1322 O1380 1.961 . S
Li1322 O1382 1.956 . S
Li1322 O1383 1.970 . S
Li1323 N1373 1.990 . S
Li1323 O1381 1.961 . S
Li1323 O1382 1.970 . S
Li1323 O1383 1.956 . S
C1324 C1326 1.348 . S
C1324 C1327 1.356 . S
C1324 O1380 1.325 . S
N1325 C1328 1.314 . S
N1325 C1329 1.279 . S
C1326 C1324 1.348 . S
C1326 C1328 1.353 . S
C1326 H1384 0.929 . S
C1327 C1324 1.356 . S
C1327 C1329 1.358 . S
C1327 H1385 0.930 . S
C1328 N1325 1.314 . S
C1328 C1326 1.353 . S
C1328 H1386 0.930 . S
C1329 N1325 1.279 . S
C1329 C1327 1.358 . S
C1329 H1387 0.930 . S
C1330 C1333 1.348 . S
C1330 C1334 1.356 . S
C1330 O1381 1.325 . S
C1331 N1332 1.279 . S
C1331 C1334 1.358 . S
C1331 H1388 0.930 . S
N1332 C1331 1.279 . S
N1332 C1335 1.314 . S
C1333 C1330 1.348 . S
C1333 C1335 1.353 . S
C1333 H1389 0.929 . S
C1334 C1330 1.356 . S
C1334 C1331 1.358 . S
C1334 H1390 0.930 . S
C1335 N1332 1.314 . S
C1335 C1333 1.353 . S
C1335 H1391 0.930 . S
C1336 N1337 1.314 . S
C1336 C1341 1.353 . S
C1336 H1342 0.930 . S
N1337 Li1320 1.990 . S
N1337 C1336 1.314 . S
N1337 C1339 1.279 . S
C1338 C1339 1.358 . S
C1338 C1340 1.356 . S
C1338 H1392 0.930 . S
C1339 N1337 1.279 . S
C1339 C1338 1.358 . S
C1339 H1343 0.930 . S
C1340 C1338 1.356 . S
C1340 C1341 1.348 . S
C1341 C1336 1.353 . S
C1341 C1340 1.348 . S
C1341 H1393 0.929 . S
H1342 C1336 0.930 . S
H1343 C1339 0.930 . S
C1344 N1345 1.314 . S
C1344 C1346 1.353 . S
C1344 H1350 0.930 . S
N1345 Li1321 1.990 . S
N1345 C1344 1.314 . S
N1345 C1348 1.279 . S
C1346 C1344 1.353 . S
C1346 C1349 1.348 . S
C1346 H1394 0.929 . S
C1347 C1348 1.358 . S
C1347 C1349 1.356 . S
C1347 H1395 0.930 . S
C1348 N1345 1.279 . S
C1348 C1347 1.358 . S
C1348 H1351 0.930 . S
C1349 C1346 1.348 . S
C1349 C1347 1.356 . S
H1350 C1344 0.930 . S
H1351 C1348 0.930 . S
C1352 C1354 1.348 . S
C1352 C1355 1.356 . S
C1352 O1382 1.325 . S
N1353 C1356 1.314 . S
N1353 C1357 1.279 . S
C1354 C1352 1.348 . S
C1354 C1356 1.353 . S
C1354 H1396 0.929 . S
C1355 C1352 1.356 . S
C1355 C1357 1.358 . S
C1355 H1397 0.930 . S
C1356 N1353 1.314 . S
C1356 C1354 1.353 . S
C1356 H1398 0.930 . S
C1357 N1353 1.279 . S
C1357 C1355 1.358 . S
C1357 H1399 0.930 . S
C1358 C1359 1.348 . S
C1358 C1360 1.356 . S
C1358 O1383 1.325 . S
C1359 C1358 1.348 . S
C1359 C1361 1.353 . S
C1359 H1400 0.929 . S
C1360 C1358 1.356 . S
C1360 C1362 1.358 . S
C1360 H1401 0.930 . S
C1361 C1359 1.353 . S
C1361 N1363 1.314 . S
C1361 H1402 0.930 . S
C1362 C1360 1.358 . S
C1362 N1363 1.279 . S
C1362 H1403 0.930 . S
N1363 C1361 1.314 . S
N1363 C1362 1.279 . S
C1364 C1366 1.353 . S
C1364 N1367 1.314 . S
C1364 H1370 0.930 . S
C1365 N1367 1.279 . S
C1365 C1368 1.358 . S
C1365 H1371 0.930 . S
C1366 C1364 1.353 . S
C1366 C1369 1.348 . S
C1366 H1404 0.929 . S
N1367 Li1322 1.990 . S
N1367 C1364 1.314 . S
N1367 C1365 1.279 . S
C1368 C1365 1.358 . S
C1368 C1369 1.356 . S
C1368 H1405 0.930 . S
C1369 C1366 1.348 . S
C1369 C1368 1.356 . S
H1370 C1364 0.930 . S
H1371 C1365 0.930 . S
C1372 N1373 1.314 . S
C1372 C1374 1.353 . S
C1372 H1378 0.930 . S
N1373 Li1323 1.990 . S
N1373 C1372 1.314 . S
N1373 C1376 1.279 . S
C1374 C1372 1.353 . S
C1374 C1377 1.348 . S
C1374 H1406 0.929 . S
C1375 C1376 1.358 . S
C1375 C1377 1.356 . S
C1375 H1407 0.930 . S
C1376 N1373 1.279 . S
C1376 C1375 1.358 . S
C1376 H1379 0.930 . S
C1377 C1374 1.348 . S
C1377 C1375 1.356 . S
H1378 C1372 0.930 . S
H1379 C1376 0.930 . S
O1380 Li1320 1.956 . S
O1380 Li1321 1.970 . S
O1380 Li1322 1.961 . S
O1380 C1324 1.325 . S
O1381 Li1320 1.970 . S
O1381 Li1321 1.956 . S
O1381 Li1323 1.961 . S
O1381 C1330 1.325 . S
O1382 Li1320 1.961 . S
O1382 Li1322 1.956 . S
O1382 Li1323 1.970 . S
O1382 C1352 1.325 . S
O1383 Li1321 1.961 . S
O1383 Li1322 1.970 . S
O1383 Li1323 1.956 . S
O1383 C1358 1.325 . S
H1384 C1326 0.929 . S
H1385 C1327 0.930 . S
H1386 C1328 0.930 . S
H1387 C1329 0.930 . S
H1388 C1331 0.930 . S
H1389 C1333 0.929 . S
H1390 C1334 0.930 . S
H1391 C1335 0.930 . S
H1392 C1338 0.930 . S
H1393 C1341 0.929 . S
H1394 C1346 0.929 . S
H1395 C1347 0.930 . S
H1396 C1354 0.929 . S
H1397 C1355 0.930 . S
H1398 C1356 0.930 . S
H1399 C1357 0.930 . S
H1400 C1359 0.929 . S
H1401 C1360 0.930 . S
H1402 C1361 0.930 . S
H1403 C1362 0.930 . S
H1404 C1366 0.929 . S
H1405 C1368 0.930 . S
H1406 C1374 0.929 . S
H1407 C1375 0.930 . S
H1408 C1416 0.929 . S
H1409 C1418 0.930 . S
H1410 C1420 0.891 1_556 S
H1411 C1423 0.929 . S
H1412 C1426 0.930 . S
H1413 C1428 0.960 . S
H1414 C1428 0.960 1_554 S
H1415 C1428 0.960 . S
C1416 H1408 0.929 . S
C1416 C1417 1.377 . S
C1416 C1418 1.384 . S
C1417 C1416 1.377 . S
C1417 C1423 1.390 . S
C1418 H1409 0.930 . S
C1418 C1416 1.384 . S
C1418 C1419 1.372 . S
C1419 C1418 1.372 . S
C1419 C1420 1.400 . S
C1419 C1424 1.490 . S
C1420 H1410 0.891 1_554 S
C1420 C1419 1.400 . S
C1420 C1423 1.386 . S
H1421 C1437 0.930 . S
H1422 C1438 0.931 . S
C1423 H1411 0.929 . S
C1423 C1417 1.390 . S
C1423 C1420 1.386 . S
C1424 C1419 1.490 . S
C1424 C1426 1.395 . S
C1424 C1427 1.403 1_554 S
H1425 C1431 0.930 . S
C1426 H1412 0.930 . S
C1426 C1424 1.395 . S
C1426 C1429 1.403 . S
C1427 C1424 1.403 1_556 S
C1427 C1428 1.524 . S
C1427 C1431 1.400 . S
C1428 H1413 0.960 . S
C1428 H1414 0.960 1_556 S
C1428 H1415 0.960 . S
C1428 C1427 1.524 . S
C1429 C1426 1.403 . S
C1429 C1430 1.392 1_554 S
C1429 C1433 1.495 . S
C1430 C1429 1.392 1_556 S
C1430 C1431 1.385 . S
C1430 C1432 1.478 . S
C1431 H1425 0.930 . S
C1431 C1427 1.400 . S
C1431 C1430 1.385 . S
C1432 C1430 1.478 . S
C1432 C1434 1.381 . S
C1432 C1438 1.383 . S
C1433 C1429 1.495 . S
C1433 H1439 0.959 . S
C1433 H1440 0.961 1_554 S
C1433 H1441 0.960 . S
C1434 C1432 1.381 . S
C1434 C1435 1.394 . S
C1434 H1442 0.930 1_556 S
C1435 C1434 1.394 . S
C1435 C1436 1.383 . S
C1435 H1443 0.929 . S
C1436 C1435 1.383 . S
C1436 C1437 1.377 . S
C1437 H1421 0.930 . S
C1437 C1436 1.377 . S
C1437 C1438 1.379 . S
C1438 H1422 0.931 . S
C1438 C1432 1.383 . S
C1438 C1437 1.379 . S
H1439 C1433 0.959 . S
H1440 C1433 0.961 1_556 S
H1441 C1433 0.960 . S
H1442 C1434 0.930 1_554 S
H1443 C1435 0.929 . S
H1444 C1452 0.929 . S
H1445 C1454 0.930 . S
H1446 C1456 0.930 . S
H1447 C1459 0.929 . S
H1448 C1462 0.930 . S
H1449 C1464 0.960 . S
H1450 C1464 0.960 . S
H1451 C1464 0.960 . S
C1452 H1444 0.929 . S
C1452 C1453 1.377 . S
C1452 C1454 1.384 . S
C1453 C1452 1.377 . S
C1453 C1459 1.390 . S
C1454 H1445 0.930 . S
C1454 C1452 1.384 . S
C1454 C1455 1.372 . S
C1455 C1454 1.372 . S
C1455 C1456 1.400 . S
C1455 C1460 1.490 . S
C1456 H1446 0.930 . S
C1456 C1455 1.400 . S
C1456 C1459 1.386 . S
H1457 C1473 0.930 . S
H1458 C1474 0.931 . S
C1459 H1447 0.929 . S
C1459 C1453 1.390 . S
C1459 C1456 1.386 . S
C1460 C1455 1.490 . S
C1460 C1462 1.395 . S
C1460 C1463 1.403 . S
H1461 C1467 0.930 . S
C1462 H1448 0.930 . S
C1462 C1460 1.395 . S
C1462 C1465 1.403 . S
C1463 C1460 1.403 . S
C1463 C1464 1.524 . S
C1463 C1467 1.400 . S
C1464 H1449 0.960 . S
C1464 H1450 0.960 . S
C1464 H1451 0.960 . S
C1464 C1463 1.524 . S
C1465 C1462 1.403 . S
C1465 C1466 1.392 . S
C1465 C1469 1.495 . S
C1466 C1465 1.392 . S
C1466 C1467 1.385 . S
C1466 C1468 1.478 . S
C1467 H1461 0.930 . S
C1467 C1463 1.400 . S
C1467 C1466 1.385 . S
C1468 C1466 1.478 . S
C1468 C1470 1.381 . S
C1468 C1474 1.383 . S
C1469 C1465 1.495 . S
C1469 H1475 0.959 . S
C1469 H1476 0.961 . S
C1469 H1477 0.960 . S
C1470 C1468 1.381 . S
C1470 C1471 1.394 . S
C1470 H1478 0.930 . S
C1471 C1470 1.394 . S
C1471 C1472 1.383 . S
C1471 H1479 0.929 . S
C1472 C1471 1.383 . S
C1472 C1473 1.377 . S
C1473 H1457 0.930 . S
C1473 C1472 1.377 . S
C1473 C1474 1.379 . S
C1474 H1458 0.931 . S
C1474 C1468 1.383 . S
C1474 C1473 1.379 . S
H1475 C1469 0.959 . S
H1476 C1469 0.961 . S
H1477 C1469 0.960 . S
H1478 C1470 0.930 . S
H1479 C1471 0.929 . S
H1480 C1488 0.929 . S
H1481 C1490 0.930 . S
H1482 C1492 0.930 . S
H1483 C1495 0.929 . S
H1484 C1498 0.930 . S
H1485 C1500 0.960 . S
H1486 C1500 0.960 . S
H1487 C1500 0.960 . S
C1488 H1480 0.929 . S
C1488 C1489 1.377 . S
C1488 C1490 1.384 . S
C1489 C1488 1.377 . S
C1489 C1495 1.390 . S
C1490 H1481 0.930 . S
C1490 C1488 1.384 . S
C1490 C1491 1.372 . S
C1491 C1490 1.372 . S
C1491 C1492 1.400 . S
C1491 C1496 1.490 . S
C1492 H1482 0.930 . S
C1492 C1491 1.400 . S
C1492 C1495 1.386 . S
H1493 C1509 0.930 . S
H1494 C1510 0.931 . S
C1495 H1483 0.929 . S
C1495 C1489 1.390 . S
C1495 C1492 1.386 . S
C1496 C1491 1.490 . S
C1496 C1498 1.395 1_556 S
C1496 C1499 1.403 . S
H1497 C1503 0.930 . S
C1498 H1484 0.930 . S
C1498 C1496 1.395 1_554 S
C1498 C1501 1.403 . S
C1499 C1496 1.403 . S
C1499 C1500 1.524 . S
C1499 C1503 1.400 . S
C1500 H1485 0.960 . S
C1500 H1486 0.960 . S
C1500 H1487 0.960 . S
C1500 C1499 1.524 . S
C1501 C1498 1.403 . S
C1501 C1502 1.392 . S
C1501 C1505 1.495 . S
C1502 C1501 1.392 . S
C1502 C1503 1.385 1_554 S
C1502 C1504 1.478 . S
C1503 H1497 0.930 . S
C1503 C1499 1.400 . S
C1503 C1502 1.385 1_556 S
C1504 C1502 1.478 . S
C1504 C1506 1.381 . S
C1504 C1510 1.383 . S
C1505 C1501 1.495 . S
C1505 H1511 0.959 . S
C1505 H1512 0.961 . S
C1505 H1513 0.960 . S
C1506 C1504 1.381 . S
C1506 C1507 1.394 . S
C1506 H1514 0.930 . S
C1507 C1506 1.394 . S
C1507 C1508 1.383 . S
C1507 H1515 0.929 . S
C1508 C1507 1.383 . S
C1508 C1509 1.377 . S
C1509 H1493 0.930 . S
C1509 C1508 1.377 . S
C1509 C1510 1.379 . S
C1510 H1494 0.931 . S
C1510 C1504 1.383 . S
C1510 C1509 1.379 . S
H1511 C1505 0.959 . S
H1512 C1505 0.961 . S
H1513 C1505 0.960 . S
H1514 C1506 0.930 . S
H1515 C1507 0.929 . S
H1516 C1524 0.929 . S
H1517 C1526 0.930 . S
H1518 C1528 0.930 . S
H1519 C1531 0.929 . S
H1520 C1534 0.930 . S
H1521 C1536 0.960 . S
H1522 C1536 0.960 . S
H1523 C1536 0.960 . S
C1524 H1516 0.929 . S
C1524 C1525 1.377 . S
C1524 C1526 1.384 . S
C1525 C1524 1.377 . S
C1525 C1531 1.390 . S
C1526 H1517 0.930 . S
C1526 C1524 1.384 . S
C1526 C1527 1.372 . S
C1527 C1526 1.372 . S
C1527 C1528 1.400 . S
C1527 C1532 1.490 . S
C1528 H1518 0.930 . S
C1528 C1527 1.400 . S
C1528 C1531 1.386 . S
H1529 C1545 0.930 . S
H1530 C1546 0.931 . S
C1531 H1519 0.929 . S
C1531 C1525 1.390 . S
C1531 C1528 1.386 . S
C1532 C1527 1.490 . S
C1532 C1534 1.395 . S
C1532 C1535 1.403 . S
H1533 C1539 0.930 . S
C1534 H1520 0.930 . S
C1534 C1532 1.395 . S
C1534 C1537 1.403 . S
C1535 C1532 1.403 . S
C1535 C1536 1.524 . S
C1535 C1539 1.400 . S
C1536 H1521 0.960 . S
C1536 H1522 0.960 . S
C1536 H1523 0.960 . S
C1536 C1535 1.524 . S
C1537 C1534 1.403 . S
C1537 C1538 1.392 . S
C1537 C1541 1.495 . S
C1538 C1537 1.392 . S
C1538 C1539 1.385 . S
C1538 C1540 1.478 . S
C1539 H1533 0.930 . S
C1539 C1535 1.400 . S
C1539 C1538 1.385 . S
C1540 C1538 1.478 . S
C1540 C1542 1.381 . S
C1540 C1546 1.383 . S
C1541 C1537 1.495 . S
C1541 H1547 0.959 . S
C1541 H1548 0.961 . S
C1541 H1549 0.960 . S
C1542 C1540 1.381 . S
C1542 C1543 1.394 . S
C1542 H1550 0.930 . S
C1543 C1542 1.394 . S
C1543 C1544 1.383 . S
C1543 H1551 0.929 . S
C1544 C1543 1.383 . S
C1544 C1545 1.377 . S
C1545 H1529 0.930 . S
C1545 C1544 1.377 . S
C1545 C1546 1.379 . S
C1546 H1530 0.931 . S
C1546 C1540 1.383 . S
C1546 C1545 1.379 . S
H1547 C1541 0.959 . S
H1548 C1541 0.961 . S
H1549 C1541 0.960 . S
H1550 C1542 0.930 . S
H1551 C1543 0.929 . S
H1552 C1560 0.929 . S
H1553 C1562 0.930 . S
H1554 C1564 0.930 . S
H1555 C1567 0.929 . S
H1556 C1570 0.930 . S
H1557 C1572 0.960 . S
H1558 C1572 0.960 . S
H1559 C1572 0.960 . S
C1560 H1552 0.929 . S
C1560 C1561 1.377 . S
C1560 C1562 1.384 . S
C1561 C1560 1.377 . S
C1561 C1567 1.390 . S
C1562 H1553 0.930 . S
C1562 C1560 1.384 . S
C1562 C1563 1.372 . S
C1563 C1562 1.372 . S
C1563 C1564 1.400 . S
C1563 C1568 1.490 . S
C1564 H1554 0.930 . S
C1564 C1563 1.400 . S
C1564 C1567 1.386 . S
H1565 C1581 0.930 . S
H1566 C1582 0.931 . S
C1567 H1555 0.929 . S
C1567 C1561 1.390 . S
C1567 C1564 1.386 . S
C1568 C1563 1.490 . S
C1568 C1570 1.395 1_554 S
C1568 C1571 1.403 . S
H1569 C1575 0.930 . S
C1570 H1556 0.930 . S
C1570 C1568 1.395 1_556 S
C1570 C1573 1.403 . S
C1571 C1568 1.403 . S
C1571 C1572 1.524 . S
C1571 C1575 1.400 . S
C1572 H1557 0.960 . S
C1572 H1558 0.960 . S
C1572 H1559 0.960 . S
C1572 C1571 1.524 . S
C1573 C1570 1.403 . S
C1573 C1574 1.392 . S
C1573 C1577 1.495 . S
C1574 C1573 1.392 . S
C1574 C1575 1.385 1_556 S
C1574 C1576 1.478 . S
C1575 H1569 0.930 . S
C1575 C1571 1.400 . S
C1575 C1574 1.385 1_554 S
C1576 C1574 1.478 . S
C1576 C1578 1.381 . S
C1576 C1582 1.383 . S
C1577 C1573 1.495 . S
C1577 H1583 0.959 . S
C1577 H1584 0.961 . S
C1577 H1585 0.960 . S
C1578 C1576 1.381 . S
C1578 C1579 1.394 . S
C1578 H1586 0.930 . S
C1579 C1578 1.394 . S
C1579 C1580 1.383 . S
C1579 H1587 0.929 . S
C1580 C1579 1.383 . S
C1580 C1581 1.377 . S
C1581 H1565 0.930 . S
C1581 C1580 1.377 . S
C1581 C1582 1.379 . S
C1582 H1566 0.931 . S
C1582 C1576 1.383 . S
C1582 C1581 1.379 . S
H1583 C1577 0.959 . S
H1584 C1577 0.961 . S
H1585 C1577 0.960 . S
H1586 C1578 0.930 . S
H1587 C1579 0.929 . S
H1588 C1596 0.929 . S
H1589 C1598 0.930 . S
H1590 C1600 0.930 . S
H1591 C1603 0.929 . S
H1592 C1606 0.930 . S
H1593 C1608 0.960 . S
H1594 C1608 0.960 . S
H1595 C1608 0.960 . S
C1596 H1588 0.929 . S
C1596 C1597 1.377 . S
C1596 C1598 1.384 . S
C1597 C1596 1.377 . S
C1597 C1603 1.390 . S
C1598 H1589 0.930 . S
C1598 C1596 1.384 . S
C1598 C1599 1.372 . S
C1599 C1598 1.372 . S
C1599 C1600 1.400 . S
C1599 C1604 1.490 . S
C1600 H1590 0.930 . S
C1600 C1599 1.400 . S
C1600 C1603 1.386 . S
H1601 C1617 0.930 . S
H1602 C1618 0.931 . S
C1603 H1591 0.929 . S
C1603 C1597 1.390 . S
C1603 C1600 1.386 . S
C1604 C1599 1.490 . S
C1604 C1606 1.395 . S
C1604 C1607 1.403 . S
H1605 C1611 0.930 . S
C1606 H1592 0.930 . S
C1606 C1604 1.395 . S
C1606 C1609 1.403 . S
C1607 C1604 1.403 . S
C1607 C1608 1.524 . S
C1607 C1611 1.400 . S
C1608 H1593 0.960 . S
C1608 H1594 0.960 . S
C1608 H1595 0.960 . S
C1608 C1607 1.524 . S
C1609 C1606 1.403 . S
C1609 C1610 1.392 . S
C1609 C1613 1.495 . S
C1610 C1609 1.392 . S
C1610 C1611 1.385 . S
C1610 C1612 1.478 . S
C1611 H1605 0.930 . S
C1611 C1607 1.400 . S
C1611 C1610 1.385 . S
C1612 C1610 1.478 . S
C1612 C1614 1.381 . S
C1612 C1618 1.383 . S
C1613 C1609 1.495 . S
C1613 H1619 0.959 . S
C1613 H1620 0.961 . S
C1613 H1621 0.960 . S
C1614 C1612 1.381 . S
C1614 C1615 1.394 . S
C1614 H1622 0.930 . S
C1615 C1614 1.394 . S
C1615 C1616 1.383 . S
C1615 H1623 0.929 . S
C1616 C1615 1.383 . S
C1616 C1617 1.377 . S
C1617 H1601 0.930 . S
C1617 C1616 1.377 . S
C1617 C1618 1.379 . S
C1618 H1602 0.931 . S
C1618 C1612 1.383 . S
C1618 C1617 1.379 . S
H1619 C1613 0.959 . S
H1620 C1613 0.961 . S
H1621 C1613 0.960 . S
H1622 C1614 0.930 . S
H1623 C1615 0.929 . S
H1624 C1632 0.929 . S
H1625 C1634 0.930 . S
H1626 C1636 0.930 . S
H1627 C1639 0.929 . S
H1628 C1642 0.930 . S
H1629 C1644 0.960 . S
H1630 C1644 0.960 . S
H1631 C1644 0.960 . S
C1632 H1624 0.929 . S
C1632 C1633 1.377 . S
C1632 C1634 1.384 . S
C1633 C1632 1.377 . S
C1633 C1639 1.390 . S
C1634 H1625 0.930 . S
C1634 C1632 1.384 . S
C1634 C1635 1.372 . S
C1635 C1634 1.372 . S
C1635 C1636 1.400 . S
C1635 C1640 1.490 . S
C1636 H1626 0.930 . S
C1636 C1635 1.400 . S
C1636 C1639 1.386 . S
H1637 C1653 0.930 . S
H1638 C1654 0.931 . S
C1639 H1627 0.929 . S
C1639 C1633 1.390 . S
C1639 C1636 1.386 . S
C1640 C1635 1.490 . S
C1640 C1642 1.395 . S
C1640 C1643 1.403 . S
H1641 C1647 0.930 . S
C1642 H1628 0.930 . S
C1642 C1640 1.395 . S
C1642 C1645 1.403 1_556 S
C1643 C1640 1.403 . S
C1643 C1644 1.524 . S
C1643 C1647 1.400 1_556 S
C1644 H1629 0.960 . S
C1644 H1630 0.960 . S
C1644 H1631 0.960 . S
C1644 C1643 1.524 . S
C1645 C1642 1.403 1_554 S
C1645 C1646 1.392 . S
C1645 C1649 1.495 . S
C1646 C1645 1.392 . S
C1646 C1647 1.385 . S
C1646 C1648 1.478 . S
C1647 H1641 0.930 . S
C1647 C1643 1.400 1_554 S
C1647 C1646 1.385 . S
C1648 C1646 1.478 . S
C1648 C1650 1.381 . S
C1648 C1654 1.383 . S
C1649 C1645 1.495 . S
C1649 H1655 0.959 . S
C1649 H1656 0.961 . S
C1649 H1657 0.960 . S
C1650 C1648 1.381 . S
C1650 C1651 1.394 . S
C1650 H1658 0.930 . S
C1651 C1650 1.394 . S
C1651 C1652 1.383 . S
C1651 H1659 0.929 . S
C1652 C1651 1.383 . S
C1652 C1653 1.377 . S
C1653 H1637 0.930 . S
C1653 C1652 1.377 . S
C1653 C1654 1.379 . S
C1654 H1638 0.931 . S
C1654 C1648 1.383 . S
C1654 C1653 1.379 . S
H1655 C1649 0.959 . S
H1656 C1649 0.961 . S
H1657 C1649 0.960 . S
H1658 C1650 0.930 . S
H1659 C1651 0.929 . S
H1660 C1668 0.929 . S
H1661 C1670 0.930 . S
H1662 C1672 0.930 . S
H1663 C1675 0.929 . S
H1664 C1678 0.930 . S
H1665 C1680 0.960 . S
H1666 C1680 0.960 . S
H1667 C1680 0.960 . S
C1668 H1660 0.929 . S
C1668 C1669 1.377 . S
C1668 C1670 1.384 . S
C1669 C1668 1.377 . S
C1669 C1675 1.390 . S
C1670 H1661 0.930 . S
C1670 C1668 1.384 . S
C1670 C1671 1.372 . S
C1671 C1670 1.372 . S
C1671 C1672 1.400 . S
C1671 C1676 1.490 . S
C1672 H1662 0.930 . S
C1672 C1671 1.400 . S
C1672 C1675 1.386 . S
H1673 C1689 0.930 . S
H1674 C1690 0.931 . S
C1675 H1663 0.929 . S
C1675 C1669 1.390 . S
C1675 C1672 1.386 . S
C1676 C1671 1.490 . S
C1676 C1678 1.395 . S
C1676 C1679 1.403 . S
H1677 C1683 0.930 . S
C1678 H1664 0.930 . S
C1678 C1676 1.395 . S
C1678 C1681 1.403 . S
C1679 C1676 1.403 . S
C1679 C1680 1.524 . S
C1679 C1683 1.400 . S
C1680 H1665 0.960 . S
C1680 H1666 0.960 . S
C1680 H1667 0.960 . S
C1680 C1679 1.524 . S
C1681 C1678 1.403 . S
C1681 C1682 1.392 . S
C1681 C1685 1.495 . S
C1682 C1681 1.392 . S
C1682 C1683 1.385 . S
C1682 C1684 1.478 . S
C1683 H1677 0.930 . S
C1683 C1679 1.400 . S
C1683 C1682 1.385 . S
C1684 C1682 1.478 . S
C1684 C1686 1.381 . S
C1684 C1690 1.383 . S
C1685 C1681 1.495 . S
C1685 H1691 0.959 . S
C1685 H1692 0.961 . S
C1685 H1693 0.960 . S
C1686 C1684 1.381 . S
C1686 C1687 1.394 . S
C1686 H1694 0.930 . S
C1687 C1686 1.394 . S
C1687 C1688 1.383 . S
C1687 H1695 0.929 . S
C1688 C1687 1.383 . S
C1688 C1689 1.377 . S
C1689 H1673 0.930 . S
C1689 C1688 1.377 . S
C1689 C1690 1.379 . S
C1690 H1674 0.931 . S
C1690 C1684 1.383 . S
C1690 C1689 1.379 . S
H1691 C1685 0.959 . S
H1692 C1685 0.961 . S
H1693 C1685 0.960 . S
H1694 C1686 0.930 . S
H1695 C1687 0.929 . S
H1696 C1704 0.929 . S
H1697 C1706 0.930 . S
H1698 C1708 0.930 . S
H1699 C1711 0.929 . S
H1700 C1714 0.930 . S
H1701 C1716 0.960 . S
H1702 C1716 0.960 . S
H1703 C1716 0.960 . S
C1704 H1696 0.929 . S
C1704 C1705 1.377 . S
C1704 C1706 1.384 . S
C1705 C1704 1.377 . S
C1705 C1711 1.390 . S
C1706 H1697 0.930 . S
C1706 C1704 1.384 . S
C1706 C1707 1.372 . S
C1707 C1706 1.372 . S
C1707 C1708 1.400 . S
C1707 C1712 1.490 . S
C1708 H1698 0.930 . S
C1708 C1707 1.400 . S
C1708 C1711 1.386 . S
H1709 C1725 0.930 . S
H1710 C1726 0.931 . S
C1711 H1699 0.929 . S
C1711 C1705 1.390 . S
C1711 C1708 1.386 . S
C1712 C1707 1.490 . S
C1712 C1714 1.395 . S
C1712 C1715 1.403 . S
H1713 C1719 0.930 . S
C1714 H1700 0.930 . S
C1714 C1712 1.395 . S
C1714 C1717 1.403 1_544 S
C1715 C1712 1.403 . S
C1715 C1716 1.524 . S
C1715 C1719 1.400 1_544 S
C1716 H1701 0.960 . S
C1716 H1702 0.960 . S
C1716 H1703 0.960 . S
C1716 C1715 1.524 . S
C1717 C1714 1.403 1_566 S
C1717 C1718 1.392 . S
C1717 C1721 1.495 . S
C1718 C1717 1.392 . S
C1718 C1719 1.385 . S
C1718 C1720 1.478 . S
C1719 H1713 0.930 . S
C1719 C1715 1.400 1_566 S
C1719 C1718 1.385 . S
C1720 C1718 1.478 . S
C1720 C1722 1.381 . S
C1720 C1726 1.383 . S
C1721 C1717 1.495 . S
C1721 H1727 0.959 . S
C1721 H1728 0.961 . S
C1721 H1729 0.960 . S
C1722 C1720 1.381 . S
C1722 C1723 1.394 . S
C1722 H1730 0.930 . S
C1723 C1722 1.394 . S
C1723 C1724 1.383 . S
C1723 H1731 0.929 . S
C1724 C1723 1.383 . S
C1724 C1725 1.377 . S
C1725 H1709 0.930 . S
C1725 C1724 1.377 . S
C1725 C1726 1.379 . S
C1726 H1710 0.931 . S
C1726 C1720 1.383 . S
C1726 C1725 1.379 . S
H1727 C1721 0.959 . S
H1728 C1721 0.961 . S
H1729 C1721 0.960 . S
H1730 C1722 0.930 . S
H1731 C1723 0.929 . S
H1732 C1740 0.929 . S
H1733 C1742 0.930 . S
H1734 C1744 0.930 . S
H1735 C1747 0.929 . S
H1736 C1750 0.929 1_565 S
H1737 C1752 0.960 . S
H1738 C1752 0.960 . S
H1739 C1752 0.960 . S
C1740 H1732 0.929 . S
C1740 C1741 1.377 . S
C1740 C1742 1.384 . S
C1741 C1740 1.377 . S
C1741 C1747 1.390 . S
C1742 H1733 0.930 . S
C1742 C1740 1.384 . S
C1742 C1743 1.372 . S
C1743 C1742 1.372 . S
C1743 C1744 1.400 . S
C1743 C1748 1.490 . S
C1744 H1734 0.930 . S
C1744 C1743 1.400 . S
C1744 C1747 1.386 . S
H1745 C1761 0.930 . S
H1746 C1762 0.931 . S
C1747 H1735 0.929 . S
C1747 C1741 1.390 . S
C1747 C1744 1.386 . S
C1748 C1743 1.490 . S
C1748 C1750 1.381 1_565 S
C1748 C1751 1.403 . S
H1749 C1755 0.930 . S
C1750 H1736 0.929 1_545 S
C1750 C1748 1.381 1_545 S
C1750 C1753 1.418 . S
C1751 C1748 1.403 . S
C1751 C1752 1.524 . S
C1751 C1755 1.400 1_565 S
C1752 H1737 0.960 . S
C1752 H1738 0.960 . S
C1752 H1739 0.960 . S
C1752 C1751 1.524 . S
C1753 C1750 1.418 . S
C1753 C1754 1.392 . S
C1753 C1757 1.495 . S
C1754 C1753 1.392 . S
C1754 C1755 1.385 . S
C1754 C1756 1.478 . S
C1755 H1749 0.930 . S
C1755 C1751 1.400 1_545 S
C1755 C1754 1.385 . S
C1756 C1754 1.478 . S
C1756 C1758 1.381 . S
C1756 C1762 1.383 . S
C1757 C1753 1.495 . S
C1757 H1763 0.959 . S
C1757 H1764 0.961 . S
C1757 H1765 0.960 . S
C1758 C1756 1.381 . S
C1758 C1759 1.394 . S
C1758 H1766 0.930 . S
C1759 C1758 1.394 . S
C1759 C1760 1.383 . S
C1759 H1767 0.929 . S
C1760 C1759 1.383 . S
C1760 C1761 1.377 . S
C1761 H1745 0.930 . S
C1761 C1760 1.377 . S
C1761 C1762 1.379 . S
C1762 H1746 0.931 . S
C1762 C1756 1.383 . S
C1762 C1761 1.379 . S
H1763 C1757 0.959 . S
H1764 C1757 0.961 . S
H1765 C1757 0.960 . S
H1766 C1758 0.930 . S
H1767 C1759 0.929 . S
H1768 C1776 0.929 . S
H1769 C1778 0.927 1_554 S
H1770 C1780 0.930 . S
H1771 C1783 0.929 . S
H1772 C1786 0.930 . S
H1773 C1788 0.960 1_545 S
H1774 C1788 0.960 . S
H1775 C1788 0.960 . S
C1776 H1768 0.929 . S
C1776 C1777 1.377 . S
C1776 C1778 1.384 . S
C1777 C1776 1.377 . S
C1777 C1783 1.390 . S
C1778 H1769 0.927 1_556 S
C1778 C1776 1.384 . S
C1778 C1779 1.372 . S
C1779 C1778 1.372 . S
C1779 C1780 1.400 . S
C1779 C1784 1.490 . S
C1780 H1770 0.930 . S
C1780 C1779 1.400 . S
C1780 C1783 1.386 . S
H1781 C1797 0.930 . S
H1782 C1798 0.931 . S
C1783 H1771 0.929 . S
C1783 C1777 1.390 . S
C1783 C1780 1.386 . S
C1784 C1779 1.490 . S
C1784 C1786 1.395 1_556 S
C1784 C1787 1.403 . S
H1785 C1791 0.930 . S
C1786 H1772 0.930 . S
C1786 C1784 1.395 1_554 S
C1786 C1789 1.403 1_565 S
C1787 C1784 1.403 . S
C1787 C1788 1.524 . S
C1787 C1791 1.400 1_565 S
C1788 H1773 0.960 1_565 S
C1788 H1774 0.960 . S
C1788 H1775 0.960 . S
C1788 C1787 1.524 . S
C1789 C1786 1.403 1_545 S
C1789 C1790 1.393 . S
C1789 C1793 1.495 . S
C1790 C1789 1.393 . S
C1790 C1791 1.385 1_554 S
C1790 C1792 1.478 . S
C1791 H1785 0.930 . S
C1791 C1787 1.400 1_545 S
C1791 C1790 1.385 1_556 S
C1792 C1790 1.478 . S
C1792 C1794 1.381 . S
C1792 C1798 1.383 . S
C1793 C1789 1.495 . S
C1793 H1799 0.923 1_545 S
C1793 H1800 0.993 . S
C1793 H1801 0.967 . S
C1794 C1792 1.381 . S
C1794 C1795 1.394 . S
C1794 H1802 0.930 . S
C1795 C1794 1.394 . S
C1795 C1796 1.383 . S
C1795 H1803 0.929 . S
C1796 C1795 1.383 . S
C1796 C1797 1.377 . S
C1797 H1781 0.930 . S
C1797 C1796 1.377 . S
C1797 C1798 1.379 . S
C1798 H1782 0.931 . S
C1798 C1792 1.383 . S
C1798 C1797 1.379 . S
H1799 C1793 0.923 1_565 S
H1800 C1793 0.993 . S
H1801 C1793 0.967 . S
H1802 C1794 0.930 . S
H1803 C1795 0.929 . S
H1804 C1812 0.929 . S
H1805 C1814 0.930 . S
H1806 C1816 0.930 . S
H1807 C1819 0.929 . S
H1808 C1822 0.930 . S
H1809 C1824 0.960 . S
H1810 C1824 0.954 1_545 S
H1811 C1824 0.960 1_545 S
C1812 H1804 0.929 . S
C1812 C1813 1.377 . S
C1812 C1814 1.384 . S
C1813 C1812 1.377 . S
C1813 C1819 1.390 . S
C1814 H1805 0.930 . S
C1814 C1812 1.384 . S
C1814 C1815 1.372 . S
C1815 C1814 1.372 . S
C1815 C1816 1.400 . S
C1815 C1820 1.490 . S
C1816 H1806 0.930 . S
C1816 C1815 1.400 . S
C1816 C1819 1.386 . S
H1817 C1833 0.930 . S
H1818 C1834 0.931 . S
C1819 H1807 0.929 . S
C1819 C1813 1.390 . S
C1819 C1816 1.386 . S
C1820 C1815 1.490 . S
C1820 C1822 1.395 . S
C1820 C1823 1.353 1_545 S
H1821 C1827 0.930 . S
C1822 H1808 0.930 . S
C1822 C1820 1.395 . S
C1822 C1825 1.403 . S
C1823 C1820 1.353 1_565 S
C1823 C1824 1.533 . S
C1823 C1827 1.444 . S
C1824 H1809 0.960 . S
C1824 H1810 0.954 1_565 S
C1824 H1811 0.960 1_565 S
C1824 C1823 1.533 . S
C1825 C1822 1.403 . S
C1825 C1826 1.392 1_545 S
C1825 C1829 1.495 . S
C1826 C1825 1.392 1_565 S
C1826 C1827 1.385 . S
C1826 C1828 1.478 . S
C1827 H1821 0.930 . S
C1827 C1823 1.444 . S
C1827 C1826 1.385 . S
C1828 C1826 1.478 . S
C1828 C1830 1.381 . S
C1828 C1834 1.383 . S
C1829 C1825 1.495 . S
C1829 H1835 0.959 . S
C1829 H1836 0.980 . S
C1829 H1837 0.960 1_545 S
C1830 C1828 1.381 . S
C1830 C1831 1.394 . S
C1830 H1838 0.930 . S
C1831 C1830 1.394 . S
C1831 C1832 1.383 . S
C1831 H1839 0.929 . S
C1832 C1831 1.383 . S
C1832 C1833 1.377 . S
C1833 H1817 0.930 . S
C1833 C1832 1.377 . S
C1833 C1834 1.379 . S
C1834 H1818 0.931 . S
C1834 C1828 1.383 . S
C1834 C1833 1.379 . S
H1835 C1829 0.959 . S
H1836 C1829 0.980 . S
H1837 C1829 0.960 1_565 S
H1838 C1830 0.930 . S
H1839 C1831 0.929 . S
H1840 C1848 0.929 . S
H1841 C1850 0.930 . S
H1842 C1852 0.930 . S
H1843 C1855 0.929 . S
H1844 C1858 0.930 . S
H1845 C1860 0.960 . S
H1846 C1860 0.960 . S
H1847 C1860 0.960 1_556 S
C1848 H1840 0.929 . S
C1848 C1849 1.377 . S
C1848 C1850 1.384 . S
C1849 C1848 1.377 . S
C1849 C1855 1.390 . S
C1850 H1841 0.930 . S
C1850 C1848 1.384 . S
C1850 C1851 1.372 . S
C1851 C1850 1.372 . S
C1851 C1852 1.400 . S
C1851 C1856 1.490 . S
C1852 H1842 0.930 . S
C1852 C1851 1.400 . S
C1852 C1855 1.386 . S
H1853 C1869 0.930 . S
H1854 C1870 0.931 . S
C1855 H1843 0.929 . S
C1855 C1849 1.390 . S
C1855 C1852 1.386 . S
C1856 C1851 1.490 . S
C1856 C1858 1.395 . S
C1856 C1859 1.403 1_556 S
H1857 C1863 0.930 . S
C1858 H1844 0.930 . S
C1858 C1856 1.395 . S
C1858 C1861 1.403 . S
C1859 C1856 1.403 1_554 S
C1859 C1860 1.524 . S
C1859 C1863 1.400 . S
C1860 H1845 0.960 . S
C1860 H1846 0.960 . S
C1860 H1847 0.960 1_554 S
C1860 C1859 1.524 . S
C1861 C1858 1.403 . S
C1861 C1862 1.392 1_556 S
C1861 C1865 1.495 . S
C1862 C1861 1.392 1_554 S
C1862 C1863 1.385 . S
C1862 C1864 1.478 . S
C1863 H1857 0.930 . S
C1863 C1859 1.400 . S
C1863 C1862 1.385 . S
C1864 C1862 1.478 . S
C1864 C1866 1.381 . S
C1864 C1870 1.383 . S
C1865 C1861 1.495 . S
C1865 H1871 0.959 . S
C1865 H1872 0.961 . S
C1865 H1873 0.960 1_556 S
C1866 C1864 1.381 . S
C1866 C1867 1.394 . S
C1866 H1874 0.930 . S
C1867 C1866 1.394 . S
C1867 C1868 1.383 . S
C1867 H1875 0.929 . S
C1868 C1867 1.383 . S
C1868 C1869 1.377 . S
C1869 H1853 0.930 . S
C1869 C1868 1.377 . S
C1869 C1870 1.379 . S
C1870 H1854 0.931 . S
C1870 C1864 1.383 . S
C1870 C1869 1.379 . S
H1871 C1865 0.959 . S
H1872 C1865 0.961 . S
H1873 C1865 0.960 1_554 S
H1874 C1866 0.930 . S
H1875 C1867 0.929 . S
H1876 C1884 0.929 . S
H1877 C1886 0.930 . S
H1878 C1888 0.930 . S
H1879 C1891 0.929 . S
H1880 C1894 0.930 . S
H1881 C1896 0.960 . S
H1882 C1896 0.960 . S
H1883 C1896 0.960 . S
C1884 H1876 0.929 . S
C1884 C1885 1.377 . S
C1884 C1886 1.384 . S
C1885 C1884 1.377 . S
C1885 C1891 1.390 . S
C1886 H1877 0.930 . S
C1886 C1884 1.384 . S
C1886 C1887 1.372 . S
C1887 C1886 1.372 . S
C1887 C1888 1.400 . S
C1887 C1892 1.490 . S
C1888 H1878 0.930 . S
C1888 C1887 1.400 . S
C1888 C1891 1.386 . S
H1889 C1905 0.930 . S
H1890 C1906 0.931 . S
C1891 H1879 0.929 . S
C1891 C1885 1.390 . S
C1891 C1888 1.386 . S
C1892 C1887 1.490 . S
C1892 C1894 1.395 . S
C1892 C1895 1.403 . S
H1893 C1899 0.930 . S
C1894 H1880 0.930 . S
C1894 C1892 1.395 . S
C1894 C1897 1.403 . S
C1895 C1892 1.403 . S
C1895 C1896 1.524 . S
C1895 C1899 1.400 . S
C1896 H1881 0.960 . S
C1896 H1882 0.960 . S
C1896 H1883 0.960 . S
C1896 C1895 1.524 . S
C1897 C1894 1.403 . S
C1897 C1898 1.392 . S
C1897 C1901 1.495 . S
C1898 C1897 1.392 . S
C1898 C1899 1.385 . S
C1898 C1900 1.478 . S
C1899 H1893 0.930 . S
C1899 C1895 1.400 . S
C1899 C1898 1.385 . S
C1900 C1898 1.478 . S
C1900 C1902 1.381 . S
C1900 C1906 1.383 . S
C1901 C1897 1.495 . S
C1901 H1907 0.959 . S
C1901 H1908 0.961 . S
C1901 H1909 0.960 . S
C1902 C1900 1.381 . S
C1902 C1903 1.394 . S
C1902 H1910 0.930 . S
C1903 C1902 1.394 . S
C1903 C1904 1.383 . S
C1903 H1911 0.929 . S
C1904 C1903 1.383 . S
C1904 C1905 1.377 . S
C1905 H1889 0.930 . S
C1905 C1904 1.377 . S
C1905 C1906 1.379 . S
C1906 H1890 0.931 . S
C1906 C1900 1.383 . S
C1906 C1905 1.379 . S
H1907 C1901 0.959 . S
H1908 C1901 0.961 . S
H1909 C1901 0.960 . S
H1910 C1902 0.930 . S
H1911 C1903 0.929 . S
H1912 C1920 0.929 . S
H1913 C1922 0.930 . S
H1914 C1924 0.930 . S
H1915 C1927 0.929 . S
H1916 C1930 0.930 . S
H1917 C1932 0.960 1_556 S
H1918 C1932 0.960 . S
H1919 C1932 0.961 1_556 S
C1920 H1912 0.929 . S
C1920 C1921 1.377 . S
C1920 C1922 1.384 . S
C1921 C1920 1.377 . S
C1921 C1927 1.390 . S
C1922 H1913 0.930 . S
C1922 C1920 1.384 . S
C1922 C1923 1.372 . S
C1923 C1922 1.372 . S
C1923 C1924 1.400 . S
C1923 C1928 1.490 . S
C1924 H1914 0.930 . S
C1924 C1923 1.400 . S
C1924 C1927 1.386 . S
H1925 C1941 0.930 . S
H1926 C1942 0.931 . S
C1927 H1915 0.929 . S
C1927 C1921 1.390 . S
C1927 C1924 1.386 . S
C1928 C1923 1.490 . S
C1928 C1930 1.395 . S
C1928 C1931 1.403 . S
H1929 C1935 0.930 . S
C1930 H1916 0.930 . S
C1930 C1928 1.395 . S
C1930 C1933 1.384 1_554 S
C1931 C1928 1.403 . S
C1931 C1932 1.524 . S
C1931 C1935 1.400 1_554 S
C1932 H1917 0.960 1_554 S
C1932 H1918 0.960 . S
C1932 H1919 0.961 1_554 S
C1932 C1931 1.524 . S
C1933 C1930 1.384 1_556 S
C1933 C1934 1.409 . S
C1933 C1937 1.498 . S
C1934 C1933 1.409 . S
C1934 C1935 1.385 . S
C1934 C1936 1.478 . S
C1935 H1929 0.930 . S
C1935 C1931 1.400 1_556 S
C1935 C1934 1.385 . S
C1936 C1934 1.478 . S
C1936 C1938 1.381 . S
C1936 C1942 1.383 . S
C1937 C1933 1.498 . S
C1937 H1943 0.959 1_556 S
C1937 H1944 0.961 . S
C1937 H1945 0.960 1_556 S
C1938 C1936 1.381 . S
C1938 C1939 1.394 . S
C1938 H1946 0.929 1_556 S
C1939 C1938 1.394 . S
C1939 C1940 1.383 . S
C1939 H1947 0.929 . S
C1940 C1939 1.383 . S
C1940 C1941 1.377 . S
C1941 H1925 0.930 . S
C1941 C1940 1.377 . S
C1941 C1942 1.379 . S
C1942 H1926 0.931 . S
C1942 C1936 1.383 . S
C1942 C1941 1.379 . S
H1943 C1937 0.959 1_554 S
H1944 C1937 0.961 . S
H1945 C1937 0.960 1_554 S
H1946 C1938 0.929 1_554 S
H1947 C1939 0.929 . S
H1948 C1956 0.929 . S
H1949 C1958 0.930 . S
H1950 C1960 0.930 . S
H1951 C1963 0.929 . S
H1952 C1966 0.930 . S
H1953 C1968 0.960 . S
H1954 C1968 0.960 . S
H1955 C1968 0.960 . S
C1956 H1948 0.929 . S
C1956 C1957 1.377 . S
C1956 C1958 1.384 . S
C1957 C1956 1.377 . S
C1957 C1963 1.390 . S
C1958 H1949 0.930 . S
C1958 C1956 1.384 . S
C1958 C1959 1.372 . S
C1959 C1958 1.372 . S
C1959 C1960 1.400 . S
C1959 C1964 1.490 . S
C1960 H1950 0.930 . S
C1960 C1959 1.400 . S
C1960 C1963 1.386 . S
H1961 C1977 0.930 . S
H1962 C1978 0.931 . S
C1963 H1951 0.929 . S
C1963 C1957 1.390 . S
C1963 C1960 1.386 . S
C1964 C1959 1.490 . S
C1964 C1966 1.395 . S
C1964 C1967 1.403 . S
H1965 C1971 0.930 . S
C1966 H1952 0.930 . S
C1966 C1964 1.395 . S
C1966 C1969 1.403 . S
C1967 C1964 1.403 . S
C1967 C1968 1.524 . S
C1967 C1971 1.400 . S
C1968 H1953 0.960 . S
C1968 H1954 0.960 . S
C1968 H1955 0.960 . S
C1968 C1967 1.524 . S
C1969 C1966 1.403 . S
C1969 C1970 1.392 . S
C1969 C1973 1.495 . S
C1970 C1969 1.392 . S
C1970 C1971 1.385 . S
C1970 C1972 1.478 . S
C1971 H1965 0.930 . S
C1971 C1967 1.400 . S
C1971 C1970 1.385 . S
C1972 C1970 1.478 . S
C1972 C1974 1.381 . S
C1972 C1978 1.383 . S
C1973 C1969 1.495 . S
C1973 H1979 0.959 . S
C1973 H1980 0.961 . S
C1973 H1981 0.960 . S
C1974 C1972 1.381 . S
C1974 C1975 1.394 . S
C1974 H1982 0.930 . S
C1975 C1974 1.394 . S
C1975 C1976 1.383 . S
C1975 H1983 0.929 . S
C1976 C1975 1.383 . S
C1976 C1977 1.377 . S
C1977 H1961 0.930 . S
C1977 C1976 1.377 . S
C1977 C1978 1.379 . S
C1978 H1962 0.931 . S
C1978 C1972 1.383 . S
C1978 C1977 1.379 . S
H1979 C1973 0.959 . S
H1980 C1973 0.961 . S
H1981 C1973 0.960 . S
H1982 C1974 0.930 . S
H1983 C1975 0.929 . S
H1984 C1992 0.929 . S
H1985 C1994 0.930 . S
H1986 C1996 0.930 . S
H1987 C1999 0.929 . S
H1988 C2002 0.930 . S
H1989 C2004 0.960 . S
H1990 C2004 0.960 . S
H1991 C2004 0.960 . S
C1992 H1984 0.929 . S
C1992 C1993 1.377 . S
C1992 C1994 1.384 . S
C1993 C1992 1.377 . S
C1993 C1999 1.390 . S
C1994 H1985 0.930 . S
C1994 C1992 1.384 . S
C1994 C1995 1.372 . S
C1995 C1994 1.372 . S
C1995 C1996 1.400 . S
C1995 C2000 1.490 . S
C1996 H1986 0.930 . S
C1996 C1995 1.400 . S
C1996 C1999 1.386 . S
H1997 C2013 0.930 . S
H1998 C2014 0.931 . S
C1999 H1987 0.929 . S
C1999 C1993 1.390 . S
C1999 C1996 1.386 . S
C2000 C1995 1.490 . S
C2000 C2002 1.395 . S
C2000 C2003 1.403 . S
H2001 C2007 0.930 . S
C2002 H1988 0.930 . S
C2002 C2000 1.395 . S
C2002 C2005 1.403 . S
C2003 C2000 1.403 . S
C2003 C2004 1.524 . S
C2003 C2007 1.400 . S
C2004 H1989 0.960 . S
C2004 H1990 0.960 . S
C2004 H1991 0.960 . S
C2004 C2003 1.524 . S
C2005 C2002 1.403 . S
C2005 C2006 1.392 . S
C2005 C2009 1.495 . S
C2006 C2005 1.392 . S
C2006 C2007 1.385 . S
C2006 C2008 1.478 . S
C2007 H2001 0.930 . S
C2007 C2003 1.400 . S
C2007 C2006 1.385 . S
C2008 C2006 1.478 . S
C2008 C2010 1.381 . S
C2008 C2014 1.383 . S
C2009 C2005 1.495 . S
C2009 H2015 0.959 . S
C2009 H2016 0.961 . S
C2009 H2017 0.960 . S
C2010 C2008 1.381 . S
C2010 C2011 1.394 . S
C2010 H2018 0.930 . S
C2011 C2010 1.394 . S
C2011 C2012 1.383 . S
C2011 H2019 0.929 . S
C2012 C2011 1.383 . S
C2012 C2013 1.377 . S
C2013 H1997 0.930 . S
C2013 C2012 1.377 . S
C2013 C2014 1.379 . S
C2014 H1998 0.931 . S
C2014 C2008 1.383 . S
C2014 C2013 1.379 . S
H2015 C2009 0.959 . S
H2016 C2009 0.961 . S
H2017 C2009 0.960 . S
H2018 C2010 0.930 . S
H2019 C2011 0.929 . S
H2020 C2028 0.929 . S
H2021 C2030 0.930 . S
H2022 C2032 0.930 . S
H2023 C2035 0.929 . S
H2024 C2038 0.930 . S
H2025 C2040 0.960 . S
H2026 C2040 0.960 . S
H2027 C2040 0.960 . S
C2028 H2020 0.929 . S
C2028 C2029 1.377 . S
C2028 C2030 1.384 . S
C2029 C2028 1.377 . S
C2029 C2035 1.390 . S
C2030 H2021 0.930 . S
C2030 C2028 1.384 . S
C2030 C2031 1.372 . S
C2031 C2030 1.372 . S
C2031 C2032 1.400 . S
C2031 C2036 1.490 . S
C2032 H2022 0.930 . S
C2032 C2031 1.400 . S
C2032 C2035 1.386 . S
H2033 C2049 0.930 . S
H2034 C2050 0.931 . S
C2035 H2023 0.929 . S
C2035 C2029 1.390 . S
C2035 C2032 1.386 . S
C2036 C2031 1.490 . S
C2036 C2038 1.395 . S
C2036 C2039 1.403 . S
H2037 C2043 0.930 . S
C2038 H2024 0.930 . S
C2038 C2036 1.395 . S
C2038 C2041 1.403 1_655 S
C2039 C2036 1.403 . S
C2039 C2040 1.524 . S
C2039 C2043 1.400 1_655 S
C2040 H2025 0.960 . S
C2040 H2026 0.960 . S
C2040 H2027 0.960 . S
C2040 C2039 1.524 . S
C2041 C2038 1.403 1_455 S
C2041 C2042 1.392 . S
C2041 C2045 1.495 . S
C2042 C2041 1.392 . S
C2042 C2043 1.385 . S
C2042 C2044 1.478 . S
C2043 H2037 0.930 . S
C2043 C2039 1.400 1_455 S
C2043 C2042 1.385 . S
C2044 C2042 1.478 . S
C2044 C2046 1.381 . S
C2044 C2050 1.383 . S
C2045 C2041 1.495 . S
C2045 H2051 0.959 . S
C2045 H2052 0.961 . S
C2045 H2053 0.960 . S
C2046 C2044 1.381 . S
C2046 C2047 1.394 . S
C2046 H2054 0.930 . S
C2047 C2046 1.394 . S
C2047 C2048 1.383 . S
C2047 H2055 0.929 . S
C2048 C2047 1.383 . S
C2048 C2049 1.377 . S
C2049 H2033 0.930 . S
C2049 C2048 1.377 . S
C2049 C2050 1.379 . S
C2050 H2034 0.931 . S
C2050 C2044 1.383 . S
C2050 C2049 1.379 . S
H2051 C2045 0.959 . S
H2052 C2045 0.961 . S
H2053 C2045 0.960 . S
H2054 C2046 0.930 . S
H2055 C2047 0.929 . S
H2056 C2064 0.929 . S
H2057 C2066 0.930 . S
H2058 C2068 0.930 . S
H2059 C2071 0.929 . S
H2060 C2074 0.930 . S
H2061 C2076 0.960 . S
H2062 C2076 0.960 . S
H2063 C2076 0.960 . S
C2064 H2056 0.929 . S
C2064 C2065 1.377 . S
C2064 C2066 1.384 . S
C2065 C2064 1.377 . S
C2065 C2071 1.390 . S
C2066 H2057 0.930 . S
C2066 C2064 1.384 . S
C2066 C2067 1.372 . S
C2067 C2066 1.372 . S
C2067 C2068 1.400 . S
C2067 C2072 1.490 . S
C2068 H2058 0.930 . S
C2068 C2067 1.400 . S
C2068 C2071 1.386 . S
H2069 C2085 0.930 . S
H2070 C2086 0.931 . S
C2071 H2059 0.929 . S
C2071 C2065 1.390 . S
C2071 C2068 1.386 . S
C2072 C2067 1.490 . S
C2072 C2074 1.395 . S
C2072 C2075 1.403 . S
H2073 C2079 0.930 . S
C2074 H2060 0.930 . S
C2074 C2072 1.395 . S
C2074 C2077 1.403 . S
C2075 C2072 1.403 . S
C2075 C2076 1.524 . S
C2075 C2079 1.400 . S
C2076 H2061 0.960 . S
C2076 H2062 0.960 . S
C2076 H2063 0.960 . S
C2076 C2075 1.524 . S
C2077 C2074 1.403 . S
C2077 C2078 1.392 . S
C2077 C2081 1.495 . S
C2078 C2077 1.392 . S
C2078 C2079 1.385 . S
C2078 C2080 1.478 . S
C2079 H2073 0.930 . S
C2079 C2075 1.400 . S
C2079 C2078 1.385 . S
C2080 C2078 1.478 . S
C2080 C2082 1.381 . S
C2080 C2086 1.383 . S
C2081 C2077 1.495 . S
C2081 H2087 0.959 . S
C2081 H2088 0.961 . S
C2081 H2089 0.960 . S
C2082 C2080 1.381 . S
C2082 C2083 1.394 . S
C2082 H2090 0.930 . S
C2083 C2082 1.394 . S
C2083 C2084 1.383 . S
C2083 H2091 0.929 . S
C2084 C2083 1.383 . S
C2084 C2085 1.377 . S
C2085 H2069 0.930 . S
C2085 C2084 1.377 . S
C2085 C2086 1.379 . S
C2086 H2070 0.931 . S
C2086 C2080 1.383 . S
C2086 C2085 1.379 . S
H2087 C2081 0.959 . S
H2088 C2081 0.961 . S
H2089 C2081 0.960 . S
H2090 C2082 0.930 . S
H2091 C2083 0.929 . S
H2092 C2100 0.929 . S
H2093 C2102 0.930 . S
H2094 C2104 0.930 . S
H2095 C2107 0.929 . S
H2096 C2110 0.930 . S
H2097 C2112 0.960 . S
H2098 C2112 0.960 . S
H2099 C2112 0.960 . S
C2100 H2092 0.929 . S
C2100 C2101 1.377 . S
C2100 C2102 1.384 . S
C2101 C2100 1.377 . S
C2101 C2107 1.390 . S
C2102 H2093 0.930 . S
C2102 C2100 1.384 . S
C2102 C2103 1.372 . S
C2103 C2102 1.372 . S
C2103 C2104 1.400 . S
C2103 C2108 1.490 . S
C2104 H2094 0.930 . S
C2104 C2103 1.400 . S
C2104 C2107 1.386 . S
H2105 C2121 0.930 . S
H2106 C2122 0.931 . S
C2107 H2095 0.929 . S
C2107 C2101 1.390 . S
C2107 C2104 1.386 . S
C2108 C2103 1.490 . S
C2108 C2110 1.395 . S
C2108 C2111 1.403 . S
H2109 C2115 0.930 . S
C2110 H2096 0.930 . S
C2110 C2108 1.395 . S
C2110 C2113 1.403 1_455 S
C2111 C2108 1.403 . S
C2111 C2112 1.524 . S
C2111 C2115 1.400 1_455 S
C2112 H2097 0.960 . S
C2112 H2098 0.960 . S
C2112 H2099 0.960 . S
C2112 C2111 1.524 . S
C2113 C2110 1.403 1_655 S
C2113 C2114 1.392 . S
C2113 C2117 1.495 . S
C2114 C2113 1.392 . S
C2114 C2115 1.385 . S
C2114 C2116 1.478 . S
C2115 H2109 0.930 . S
C2115 C2111 1.400 1_655 S
C2115 C2114 1.385 . S
C2116 C2114 1.478 . S
C2116 C2118 1.381 . S
C2116 C2122 1.383 . S
C2117 C2113 1.495 . S
C2117 H2123 0.959 . S
C2117 H2124 0.961 . S
C2117 H2125 0.960 . S
C2118 C2116 1.381 . S
C2118 C2119 1.394 . S
C2118 H2126 0.930 . S
C2119 C2118 1.394 . S
C2119 C2120 1.383 . S
C2119 H2127 0.929 . S
C2120 C2119 1.383 . S
C2120 C2121 1.377 . S
C2121 H2105 0.930 . S
C2121 C2120 1.377 . S
C2121 C2122 1.379 . S
C2122 H2106 0.931 . S
C2122 C2116 1.383 . S
C2122 C2121 1.379 . S
H2123 C2117 0.959 . S
H2124 C2117 0.961 . S
H2125 C2117 0.960 . S
H2126 C2118 0.930 . S
H2127 C2119 0.929 . S
H2128 C2136 0.929 . S
H2129 C2138 0.930 . S
H2130 C2140 0.930 . S
H2131 C2143 0.929 . S
H2132 C2146 0.930 . S
H2133 C2148 0.960 . S
H2134 C2148 0.960 . S
H2135 C2148 0.960 . S
C2136 H2128 0.929 . S
C2136 C2137 1.377 . S
C2136 C2138 1.384 . S
C2137 C2136 1.377 . S
C2137 C2143 1.390 . S
C2138 H2129 0.930 . S
C2138 C2136 1.384 . S
C2138 C2139 1.372 . S
C2139 C2138 1.372 . S
C2139 C2140 1.400 . S
C2139 C2144 1.490 . S
C2140 H2130 0.930 . S
C2140 C2139 1.400 . S
C2140 C2143 1.386 . S
H2141 C2157 0.930 . S
H2142 C2158 0.931 . S
C2143 H2131 0.929 . S
C2143 C2137 1.390 . S
C2143 C2140 1.386 . S
C2144 C2139 1.490 . S
C2144 C2146 1.395 . S
C2144 C2147 1.403 . S
H2145 C2151 0.930 . S
C2146 H2132 0.930 . S
C2146 C2144 1.395 . S
C2146 C2149 1.403 1_455 S
C2147 C2144 1.403 . S
C2147 C2148 1.524 . S
C2147 C2151 1.400 1_455 S
C2148 H2133 0.960 . S
C2148 H2134 0.960 . S
C2148 H2135 0.960 . S
C2148 C2147 1.524 . S
C2149 C2146 1.403 1_655 S
C2149 C2150 1.392 . S
C2149 C2153 1.495 . S
C2150 C2149 1.392 . S
C2150 C2151 1.385 . S
C2150 C2152 1.478 . S
C2151 H2145 0.930 . S
C2151 C2147 1.400 1_655 S
C2151 C2150 1.385 . S
C2152 C2150 1.478 . S
C2152 C2154 1.381 . S
C2152 C2158 1.383 . S
C2153 C2149 1.495 . S
C2153 H2159 0.959 . S
C2153 H2160 0.961 . S
C2153 H2161 0.960 . S
C2154 C2152 1.381 . S
C2154 C2155 1.394 . S
C2154 H2162 0.930 . S
C2155 C2154 1.394 . S
C2155 C2156 1.383 . S
C2155 H2163 0.929 . S
C2156 C2155 1.383 . S
C2156 C2157 1.377 . S
C2157 H2141 0.930 . S
C2157 C2156 1.377 . S
C2157 C2158 1.379 . S
C2158 H2142 0.931 . S
C2158 C2152 1.383 . S
C2158 C2157 1.379 . S
H2159 C2153 0.959 . S
H2160 C2153 0.961 . S
H2161 C2153 0.960 . S
H2162 C2154 0.930 . S
H2163 C2155 0.929 . S
H2164 C2172 0.929 . S
H2165 C2174 0.930 . S
H2166 C2176 0.930 . S
H2167 C2179 0.929 . S
H2168 C2182 0.930 . S
H2169 C2184 0.960 . S
H2170 C2184 0.960 . S
H2171 C2184 0.960 . S
C2172 H2164 0.929 . S
C2172 C2173 1.377 . S
C2172 C2174 1.384 . S
C2173 C2172 1.377 . S
C2173 C2179 1.390 . S
C2174 H2165 0.930 . S
C2174 C2172 1.384 . S
C2174 C2175 1.372 . S
C2175 C2174 1.372 . S
C2175 C2176 1.400 . S
C2175 C2180 1.490 . S
C2176 H2166 0.930 . S
C2176 C2175 1.400 . S
C2176 C2179 1.386 . S
H2177 C2193 0.930 . S
H2178 C2194 0.931 . S
C2179 H2167 0.929 . S
C2179 C2173 1.390 . S
C2179 C2176 1.386 . S
C2180 C2175 1.490 . S
C2180 C2182 1.395 . S
C2180 C2183 1.403 . S
H2181 C2187 0.930 . S
C2182 H2168 0.930 . S
C2182 C2180 1.395 . S
C2182 C2185 1.403 . S
C2183 C2180 1.403 . S
C2183 C2184 1.524 . S
C2183 C2187 1.400 . S
C2184 H2169 0.960 . S
C2184 H2170 0.960 . S
C2184 H2171 0.960 . S
C2184 C2183 1.524 . S
C2185 C2182 1.403 . S
C2185 C2186 1.392 . S
C2185 C2189 1.495 . S
C2186 C2185 1.392 . S
C2186 C2187 1.385 . S
C2186 C2188 1.478 . S
C2187 H2181 0.930 . S
C2187 C2183 1.400 . S
C2187 C2186 1.385 . S
C2188 C2186 1.478 . S
C2188 C2190 1.381 . S
C2188 C2194 1.383 . S
C2189 C2185 1.495 . S
C2189 H2195 0.959 . S
C2189 H2196 0.961 . S
C2189 H2197 0.960 . S
C2190 C2188 1.381 . S
C2190 C2191 1.394 . S
C2190 H2198 0.930 . S
C2191 C2190 1.394 . S
C2191 C2192 1.383 . S
C2191 H2199 0.929 . S
C2192 C2191 1.383 . S
C2192 C2193 1.377 . S
C2193 H2177 0.930 . S
C2193 C2192 1.377 . S
C2193 C2194 1.379 . S
C2194 H2178 0.931 . S
C2194 C2188 1.383 . S
C2194 C2193 1.379 . S
H2195 C2189 0.959 . S
H2196 C2189 0.961 . S
H2197 C2189 0.960 . S
H2198 C2190 0.930 . S
H2199 C2191 0.929 . S
H2200 C2208 0.929 . S
H2201 C2210 0.930 . S
H2202 C2212 0.930 . S
H2203 C2215 0.929 . S
H2204 C2218 0.930 . S
H2205 C2220 0.960 . S
H2206 C2220 0.960 . S
H2207 C2220 0.960 . S
C2208 H2200 0.929 . S
C2208 C2209 1.377 . S
C2208 C2210 1.384 . S
C2209 C2208 1.377 . S
C2209 C2215 1.390 . S
C2210 H2201 0.930 . S
C2210 C2208 1.384 . S
C2210 C2211 1.372 . S
C2211 C2210 1.372 . S
C2211 C2212 1.400 . S
C2211 C2216 1.490 . S
C2212 H2202 0.930 . S
C2212 C2211 1.400 . S
C2212 C2215 1.386 . S
H2213 C2229 0.930 . S
H2214 C2230 0.931 . S
C2215 H2203 0.929 . S
C2215 C2209 1.390 . S
C2215 C2212 1.386 . S
C2216 C2211 1.490 . S
C2216 C2218 1.395 . S
C2216 C2219 1.403 . S
H2217 C2223 0.930 . S
C2218 H2204 0.930 . S
C2218 C2216 1.395 . S
C2218 C2221 1.403 1_455 S
C2219 C2216 1.403 . S
C2219 C2220 1.524 . S
C2219 C2223 1.400 1_455 S
C2220 H2205 0.960 . S
C2220 H2206 0.960 . S
C2220 H2207 0.960 . S
C2220 C2219 1.524 . S
C2221 C2218 1.403 1_655 S
C2221 C2222 1.392 . S
C2221 C2225 1.495 . S
C2222 C2221 1.392 . S
C2222 C2223 1.385 . S
C2222 C2224 1.478 . S
C2223 H2217 0.930 . S
C2223 C2219 1.400 1_655 S
C2223 C2222 1.385 . S
C2224 C2222 1.478 . S
C2224 C2226 1.381 . S
C2224 C2230 1.383 . S
C2225 C2221 1.495 . S
C2225 H2231 0.959 . S
C2225 H2232 0.961 . S
C2225 H2233 0.960 . S
C2226 C2224 1.381 . S
C2226 C2227 1.394 . S
C2226 H2234 0.930 . S
C2227 C2226 1.394 . S
C2227 C2228 1.383 . S
C2227 H2235 0.929 . S
C2228 C2227 1.383 . S
C2228 C2229 1.377 . S
C2229 H2213 0.930 . S
C2229 C2228 1.377 . S
C2229 C2230 1.379 . S
C2230 H2214 0.931 . S
C2230 C2224 1.383 . S
C2230 C2229 1.379 . S
H2231 C2225 0.959 . S
H2232 C2225 0.961 . S
H2233 C2225 0.960 . S
H2234 C2226 0.930 . S
H2235 C2227 0.929 . S
H2236 C2244 0.929 . S
H2237 C2246 0.930 . S
H2238 C2248 0.930 . S
H2239 C2251 0.929 . S
H2240 C2254 0.930 . S
H2241 C2256 0.960 . S
H2242 C2256 0.960 . S
H2243 C2256 0.960 . S
C2244 H2236 0.929 . S
C2244 C2245 1.377 . S
C2244 C2246 1.384 . S
C2245 C2244 1.377 . S
C2245 C2251 1.390 . S
C2246 H2237 0.930 . S
C2246 C2244 1.384 . S
C2246 C2247 1.372 . S
C2247 C2246 1.372 . S
C2247 C2248 1.400 . S
C2247 C2252 1.490 . S
C2248 H2238 0.930 . S
C2248 C2247 1.400 . S
C2248 C2251 1.386 . S
H2249 C2265 0.930 . S
H2250 C2266 0.931 . S
C2251 H2239 0.929 . S
C2251 C2245 1.390 . S
C2251 C2248 1.386 . S
C2252 C2247 1.490 . S
C2252 C2254 1.395 . S
C2252 C2255 1.403 . S
H2253 C2259 0.930 . S
C2254 H2240 0.930 . S
C2254 C2252 1.395 . S
C2254 C2257 1.403 . S
C2255 C2252 1.403 . S
C2255 C2256 1.524 . S
C2255 C2259 1.400 . S
C2256 H2241 0.960 . S
C2256 H2242 0.960 . S
C2256 H2243 0.960 . S
C2256 C2255 1.524 . S
C2257 C2254 1.403 . S
C2257 C2258 1.392 . S
C2257 C2261 1.495 . S
C2258 C2257 1.392 . S
C2258 C2259 1.385 . S
C2258 C2260 1.478 . S
C2259 H2253 0.930 . S
C2259 C2255 1.400 . S
C2259 C2258 1.385 . S
C2260 C2258 1.478 . S
C2260 C2262 1.381 . S
C2260 C2266 1.383 . S
C2261 C2257 1.495 . S
C2261 H2267 0.959 . S
C2261 H2268 0.961 . S
C2261 H2269 0.960 . S
C2262 C2260 1.381 . S
C2262 C2263 1.394 . S
C2262 H2270 0.930 . S
C2263 C2262 1.394 . S
C2263 C2264 1.383 . S
C2263 H2271 0.929 . S
C2264 C2263 1.383 . S
C2264 C2265 1.377 . S
C2265 H2249 0.930 . S
C2265 C2264 1.377 . S
C2265 C2266 1.379 . S
C2266 H2250 0.931 . S
C2266 C2260 1.383 . S
C2266 C2265 1.379 . S
H2267 C2261 0.959 . S
H2268 C2261 0.961 . S
H2269 C2261 0.960 . S
H2270 C2262 0.930 . S
H2271 C2263 0.929 . S
H2272 C2280 0.929 . S
H2273 C2282 0.930 . S
H2274 C2284 0.930 . S
H2275 C2287 0.929 . S
H2276 C2290 0.930 . S
H2277 C2292 0.960 . S
H2278 C2292 0.960 . S
H2279 C2292 0.960 . S
C2280 H2272 0.929 . S
C2280 C2281 1.377 . S
C2280 C2282 1.384 . S
C2281 C2280 1.377 . S
C2281 C2287 1.390 . S
C2282 H2273 0.930 . S
C2282 C2280 1.384 . S
C2282 C2283 1.372 . S
C2283 C2282 1.372 . S
C2283 C2284 1.400 . S
C2283 C2288 1.490 . S
C2284 H2274 0.930 . S
C2284 C2283 1.400 . S
C2284 C2287 1.386 . S
H2285 C2301 0.930 . S
H2286 C2302 0.931 . S
C2287 H2275 0.929 . S
C2287 C2281 1.390 . S
C2287 C2284 1.386 . S
C2288 C2283 1.490 . S
C2288 C2290 1.395 . S
C2288 C2291 1.403 . S
H2289 C2295 0.930 . S
C2290 H2276 0.930 . S
C2290 C2288 1.395 . S
C2290 C2293 1.403 . S
C2291 C2288 1.403 . S
C2291 C2292 1.524 . S
C2291 C2295 1.400 . S
C2292 H2277 0.960 . S
C2292 H2278 0.960 . S
C2292 H2279 0.960 . S
C2292 C2291 1.524 . S
C2293 C2290 1.403 . S
C2293 C2294 1.392 . S
C2293 C2297 1.495 . S
C2294 C2293 1.392 . S
C2294 C2295 1.385 . S
C2294 C2296 1.478 . S
C2295 H2289 0.930 . S
C2295 C2291 1.400 . S
C2295 C2294 1.385 . S
C2296 C2294 1.478 . S
C2296 C2298 1.381 . S
C2296 C2302 1.383 . S
C2297 C2293 1.495 . S
C2297 H2303 0.959 . S
C2297 H2304 0.961 . S
C2297 H2305 0.960 . S
C2298 C2296 1.381 . S
C2298 C2299 1.394 . S
C2298 H2306 0.930 . S
C2299 C2298 1.394 . S
C2299 C2300 1.383 . S
C2299 H2307 0.929 . S
C2300 C2299 1.383 . S
C2300 C2301 1.377 . S
C2301 H2285 0.930 . S
C2301 C2300 1.377 . S
C2301 C2302 1.379 . S
C2302 H2286 0.931 . S
C2302 C2296 1.383 . S
C2302 C2301 1.379 . S
H2303 C2297 0.959 . S
H2304 C2297 0.961 . S
H2305 C2297 0.960 . S
H2306 C2298 0.930 . S
H2307 C2299 0.929 . S
H2308 C2316 0.929 . S
H2309 C2318 0.930 . S
H2310 C2320 0.930 . S
H2311 C2323 0.929 . S
H2312 C2326 0.930 . S
H2313 C2328 0.960 . S
H2314 C2328 0.960 . S
H2315 C2328 0.960 . S
C2316 H2308 0.929 . S
C2316 C2317 1.377 . S
C2316 C2318 1.384 . S
C2317 C2316 1.377 . S
C2317 C2323 1.390 . S
C2318 H2309 0.930 . S
C2318 C2316 1.384 . S
C2318 C2319 1.372 . S
C2319 C2318 1.372 . S
C2319 C2320 1.400 . S
C2319 C2324 1.490 . S
C2320 H2310 0.930 . S
C2320 C2319 1.400 . S
C2320 C2323 1.386 . S
H2321 C2337 0.930 . S
H2322 C2338 0.931 . S
C2323 H2311 0.929 . S
C2323 C2317 1.390 . S
C2323 C2320 1.386 . S
C2324 C2319 1.490 . S
C2324 C2326 1.395 . S
C2324 C2327 1.403 . S
H2325 C2331 0.930 . S
C2326 H2312 0.930 . S
C2326 C2324 1.395 . S
C2326 C2329 1.403 . S
C2327 C2324 1.403 . S
C2327 C2328 1.524 . S
C2327 C2331 1.400 . S
C2328 H2313 0.960 . S
C2328 H2314 0.960 . S
C2328 H2315 0.960 . S
C2328 C2327 1.524 . S
C2329 C2326 1.403 . S
C2329 C2330 1.392 . S
C2329 C2333 1.495 . S
C2330 C2329 1.392 . S
C2330 C2331 1.385 . S
C2330 C2332 1.478 . S
C2331 H2325 0.930 . S
C2331 C2327 1.400 . S
C2331 C2330 1.385 . S
C2332 C2330 1.478 . S
C2332 C2334 1.381 . S
C2332 C2338 1.383 . S
C2333 C2329 1.495 . S
C2333 H2339 0.959 . S
C2333 H2340 0.961 . S
C2333 H2341 0.960 . S
C2334 C2332 1.381 . S
C2334 C2335 1.394 . S
C2334 H2342 0.930 . S
C2335 C2334 1.394 . S
C2335 C2336 1.383 . S
C2335 H2343 0.929 . S
C2336 C2335 1.383 . S
C2336 C2337 1.377 . S
C2337 H2321 0.930 . S
C2337 C2336 1.377 . S
C2337 C2338 1.379 . S
C2338 H2322 0.931 . S
C2338 C2332 1.383 . S
C2338 C2337 1.379 . S
H2339 C2333 0.959 . S
H2340 C2333 0.961 . S
H2341 C2333 0.960 . S
H2342 C2334 0.930 . S
H2343 C2335 0.929 . S
H2344 C2352 0.929 . S
H2345 C2354 0.930 . S
H2346 C2356 0.930 . S
H2347 C2359 0.929 . S
H2348 C2362 0.930 . S
H2349 C2364 0.960 . S
H2350 C2364 0.960 . S
H2351 C2364 0.960 . S
C2352 H2344 0.929 . S
C2352 C2353 1.377 . S
C2352 C2354 1.384 . S
C2353 C2352 1.377 . S
C2353 C2359 1.390 . S
C2354 H2345 0.930 . S
C2354 C2352 1.384 . S
C2354 C2355 1.372 . S
C2355 C2354 1.372 . S
C2355 C2356 1.400 . S
C2355 C2360 1.490 . S
C2356 H2346 0.930 . S
C2356 C2355 1.400 . S
C2356 C2359 1.386 . S
H2357 C2373 0.930 . S
H2358 C2374 0.931 . S
C2359 H2347 0.929 . S
C2359 C2353 1.390 . S
C2359 C2356 1.386 . S
C2360 C2355 1.490 . S
C2360 C2362 1.395 . S
C2360 C2363 1.403 . S
H2361 C2367 0.930 . S
C2362 H2348 0.930 . S
C2362 C2360 1.395 . S
C2362 C2365 1.403 . S
C2363 C2360 1.403 . S
C2363 C2364 1.524 . S
C2363 C2367 1.400 . S
C2364 H2349 0.960 . S
C2364 H2350 0.960 . S
C2364 H2351 0.960 . S
C2364 C2363 1.524 . S
C2365 C2362 1.403 . S
C2365 C2366 1.392 . S
C2365 C2369 1.495 . S
C2366 C2365 1.392 . S
C2366 C2367 1.385 . S
C2366 C2368 1.478 . S
C2367 H2361 0.930 . S
C2367 C2363 1.400 . S
C2367 C2366 1.385 . S
C2368 C2366 1.478 . S
C2368 C2370 1.381 . S
C2368 C2374 1.383 . S
C2369 C2365 1.495 . S
C2369 H2375 0.959 . S
C2369 H2376 0.961 . S
C2369 H2377 0.960 . S
C2370 C2368 1.381 . S
C2370 C2371 1.394 . S
C2370 H2378 0.930 . S
C2371 C2370 1.394 . S
C2371 C2372 1.383 . S
C2371 H2379 0.929 . S
C2372 C2371 1.383 . S
C2372 C2373 1.377 . S
C2373 H2357 0.930 . S
C2373 C2372 1.377 . S
C2373 C2374 1.379 . S
C2374 H2358 0.931 . S
C2374 C2368 1.383 . S
C2374 C2373 1.379 . S
H2375 C2369 0.959 . S
H2376 C2369 0.961 . S
H2377 C2369 0.960 . S
H2378 C2370 0.930 . S
H2379 C2371 0.929 . S
H2380 C2388 0.929 . S
H2381 C2390 0.930 . S
H2382 C2392 0.930 . S
H2383 C2395 0.929 . S
H2384 C2398 0.930 . S
H2385 C2400 0.960 . S
H2386 C2400 0.960 . S
H2387 C2400 0.960 . S
C2388 H2380 0.929 . S
C2388 C2389 1.377 . S
C2388 C2390 1.384 . S
C2389 C2388 1.377 . S
C2389 C2395 1.390 . S
C2390 H2381 0.930 . S
C2390 C2388 1.384 . S
C2390 C2391 1.372 . S
C2391 C2390 1.372 . S
C2391 C2392 1.400 . S
C2391 C2396 1.490 . S
C2392 H2382 0.930 . S
C2392 C2391 1.400 . S
C2392 C2395 1.386 . S
H2393 C2409 0.930 . S
H2394 C2410 0.931 . S
C2395 H2383 0.929 . S
C2395 C2389 1.390 . S
C2395 C2392 1.386 . S
C2396 C2391 1.490 . S
C2396 C2398 1.395 . S
C2396 C2399 1.403 . S
H2397 C2403 0.930 . S
C2398 H2384 0.930 . S
C2398 C2396 1.395 . S
C2398 C2401 1.403 . S
C2399 C2396 1.403 . S
C2399 C2400 1.524 . S
C2399 C2403 1.400 . S
C2400 H2385 0.960 . S
C2400 H2386 0.960 . S
C2400 H2387 0.960 . S
C2400 C2399 1.524 . S
C2401 C2398 1.403 . S
C2401 C2402 1.392 . S
C2401 C2405 1.495 . S
C2402 C2401 1.392 . S
C2402 C2403 1.385 . S
C2402 C2404 1.478 . S
C2403 H2397 0.930 . S
C2403 C2399 1.400 . S
C2403 C2402 1.385 . S
C2404 C2402 1.478 . S
C2404 C2406 1.381 . S
C2404 C2410 1.383 . S
C2405 C2401 1.495 . S
C2405 H2411 0.959 . S
C2405 H2412 0.961 . S
C2405 H2413 0.960 . S
C2406 C2404 1.381 . S
C2406 C2407 1.394 . S
C2406 H2414 0.930 . S
C2407 C2406 1.394 . S
C2407 C2408 1.383 . S
C2407 H2415 0.929 . S
C2408 C2407 1.383 . S
C2408 C2409 1.377 . S
C2409 H2393 0.930 . S
C2409 C2408 1.377 . S
C2409 C2410 1.379 . S
C2410 H2394 0.931 . S
C2410 C2404 1.383 . S
C2410 C2409 1.379 . S
H2411 C2405 0.959 . S
H2412 C2405 0.961 . S
H2413 C2405 0.960 . S
H2414 C2406 0.930 . S
H2415 C2407 0.929 . S
H2416 C2424 0.929 . S
H2417 C2426 0.930 . S
H2418 C2428 0.930 . S
H2419 C2431 0.929 . S
H2420 C2434 0.930 . S
H2421 C2436 0.960 . S
H2422 C2436 0.960 . S
H2423 C2436 0.960 . S
C2424 H2416 0.929 . S
C2424 C2425 1.377 . S
C2424 C2426 1.384 . S
C2425 C2424 1.377 . S
C2425 C2431 1.390 . S
C2426 H2417 0.930 . S
C2426 C2424 1.384 . S
C2426 C2427 1.372 . S
C2427 C2426 1.372 . S
C2427 C2428 1.400 . S
C2427 C2432 1.490 . S
C2428 H2418 0.930 . S
C2428 C2427 1.400 . S
C2428 C2431 1.386 . S
H2429 C2445 0.930 . S
H2430 C2446 0.931 . S
C2431 H2419 0.929 . S
C2431 C2425 1.390 . S
C2431 C2428 1.386 . S
C2432 C2427 1.490 . S
C2432 C2434 1.395 . S
C2432 C2435 1.403 . S
H2433 C2439 0.930 . S
C2434 H2420 0.930 . S
C2434 C2432 1.395 . S
C2434 C2437 1.403 . S
C2435 C2432 1.403 . S
C2435 C2436 1.524 . S
C2435 C2439 1.400 . S
C2436 H2421 0.960 . S
C2436 H2422 0.960 . S
C2436 H2423 0.960 . S
C2436 C2435 1.524 . S
C2437 C2434 1.403 . S
C2437 C2438 1.392 . S
C2437 C2441 1.495 . S
C2438 C2437 1.392 . S
C2438 C2439 1.385 . S
C2438 C2440 1.478 . S
C2439 H2433 0.930 . S
C2439 C2435 1.400 . S
C2439 C2438 1.385 . S
C2440 C2438 1.478 . S
C2440 C2442 1.381 . S
C2440 C2446 1.383 . S
C2441 C2437 1.495 . S
C2441 H2447 0.959 . S
C2441 H2448 0.961 . S
C2441 H2449 0.960 . S
C2442 C2440 1.381 . S
C2442 C2443 1.394 . S
C2442 H2450 0.930 . S
C2443 C2442 1.394 . S
C2443 C2444 1.383 . S
C2443 H2451 0.929 . S
C2444 C2443 1.383 . S
C2444 C2445 1.377 . S
C2445 H2429 0.930 . S
C2445 C2444 1.377 . S
C2445 C2446 1.379 . S
C2446 H2430 0.931 . S
C2446 C2440 1.383 . S
C2446 C2445 1.379 . S
H2447 C2441 0.959 . S
H2448 C2441 0.961 . S
H2449 C2441 0.960 . S
H2450 C2442 0.930 . S
H2451 C2443 0.929 . S
H2452 C2460 0.929 . S
H2453 C2462 0.930 . S
H2454 C2464 0.930 . S
H2455 C2467 0.929 . S
H2456 C2470 0.930 . S
H2457 C2472 0.960 . S
H2458 C2472 0.960 . S
H2459 C2472 0.960 . S
C2460 H2452 0.929 . S
C2460 C2461 1.377 . S
C2460 C2462 1.384 . S
C2461 C2460 1.377 . S
C2461 C2467 1.390 . S
C2462 H2453 0.930 . S
C2462 C2460 1.384 . S
C2462 C2463 1.372 . S
C2463 C2462 1.372 . S
C2463 C2464 1.400 . S
C2463 C2468 1.490 . S
C2464 H2454 0.930 . S
C2464 C2463 1.400 . S
C2464 C2467 1.386 . S
H2465 C2481 0.930 . S
H2466 C2482 0.931 . S
C2467 H2455 0.929 . S
C2467 C2461 1.390 . S
C2467 C2464 1.386 . S
C2468 C2463 1.490 . S
C2468 C2470 1.395 . S
C2468 C2471 1.403 . S
H2469 C2475 0.930 . S
C2470 H2456 0.930 . S
C2470 C2468 1.395 . S
C2470 C2473 1.403 . S
C2471 C2468 1.403 . S
C2471 C2472 1.524 . S
C2471 C2475 1.400 . S
C2472 H2457 0.960 . S
C2472 H2458 0.960 . S
C2472 H2459 0.960 . S
C2472 C2471 1.524 . S
C2473 C2470 1.403 . S
C2473 C2474 1.392 . S
C2473 C2477 1.495 . S
C2474 C2473 1.392 . S
C2474 C2475 1.385 . S
C2474 C2476 1.478 . S
C2475 H2469 0.930 . S
C2475 C2471 1.400 . S
C2475 C2474 1.385 . S
C2476 C2474 1.478 . S
C2476 C2478 1.381 . S
C2476 C2482 1.383 . S
C2477 C2473 1.495 . S
C2477 H2483 0.959 . S
C2477 H2484 0.961 . S
C2477 H2485 0.960 . S
C2478 C2476 1.381 . S
C2478 C2479 1.394 . S
C2478 H2486 0.930 . S
C2479 C2478 1.394 . S
C2479 C2480 1.383 . S
C2479 H2487 0.929 . S
C2480 C2479 1.383 . S
C2480 C2481 1.377 . S
C2481 H2465 0.930 . S
C2481 C2480 1.377 . S
C2481 C2482 1.379 . S
C2482 H2466 0.931 . S
C2482 C2476 1.383 . S
C2482 C2481 1.379 . S
H2483 C2477 0.959 . S
H2484 C2477 0.961 . S
H2485 C2477 0.960 . S
H2486 C2478 0.930 . S
H2487 C2479 0.929 . S
H2488 C2496 0.929 . S
H2489 C2498 0.930 . S
H2490 C2500 0.930 . S
H2491 C2503 0.929 . S
H2492 C2506 0.930 . S
H2493 C2508 0.960 . S
H2494 C2508 0.960 . S
H2495 C2508 0.960 . S
C2496 H2488 0.929 . S
C2496 C2497 1.377 . S
C2496 C2498 1.384 . S
C2497 C2496 1.377 . S
C2497 C2503 1.390 . S
C2498 H2489 0.930 . S
C2498 C2496 1.384 . S
C2498 C2499 1.372 . S
C2499 C2498 1.372 . S
C2499 C2500 1.400 . S
C2499 C2504 1.490 . S
C2500 H2490 0.930 . S
C2500 C2499 1.400 . S
C2500 C2503 1.386 . S
H2501 C2517 0.930 . S
H2502 C2518 0.931 . S
C2503 H2491 0.929 . S
C2503 C2497 1.390 . S
C2503 C2500 1.386 . S
C2504 C2499 1.490 . S
C2504 C2506 1.395 . S
C2504 C2507 1.403 . S
H2505 C2511 0.930 . S
C2506 H2492 0.930 . S
C2506 C2504 1.395 . S
C2506 C2509 1.403 . S
C2507 C2504 1.403 . S
C2507 C2508 1.524 . S
C2507 C2511 1.400 . S
C2508 H2493 0.960 . S
C2508 H2494 0.960 . S
C2508 H2495 0.960 . S
C2508 C2507 1.524 . S
C2509 C2506 1.403 . S
C2509 C2510 1.392 . S
C2509 C2513 1.495 . S
C2510 C2509 1.392 . S
C2510 C2511 1.385 . S
C2510 C2512 1.478 . S
C2511 H2505 0.930 . S
C2511 C2507 1.400 . S
C2511 C2510 1.385 . S
C2512 C2510 1.478 . S
C2512 C2514 1.381 . S
C2512 C2518 1.383 . S
C2513 C2509 1.495 . S
C2513 H2519 0.959 . S
C2513 H2520 0.961 . S
C2513 H2521 0.960 . S
C2514 C2512 1.381 . S
C2514 C2515 1.394 . S
C2514 H2522 0.930 . S
C2515 C2514 1.394 . S
C2515 C2516 1.383 . S
C2515 H2523 0.929 . S
C2516 C2515 1.383 . S
C2516 C2517 1.377 . S
C2517 H2501 0.930 . S
C2517 C2516 1.377 . S
C2517 C2518 1.379 . S
C2518 H2502 0.931 . S
C2518 C2512 1.383 . S
C2518 C2517 1.379 . S
H2519 C2513 0.959 . S
H2520 C2513 0.961 . S
H2521 C2513 0.960 . S
H2522 C2514 0.930 . S
H2523 C2515 0.929 . S
H2524 C2532 0.929 . S
H2525 C2534 0.930 . S
H2526 C2536 0.930 . S
H2527 C2539 0.929 . S
H2528 C2542 0.930 . S
H2529 C2544 0.960 . S
H2530 C2544 0.960 . S
H2531 C2544 0.960 . S
C2532 H2524 0.929 . S
C2532 C2533 1.377 . S
C2532 C2534 1.384 . S
C2533 C2532 1.377 . S
C2533 C2539 1.390 . S
C2534 H2525 0.930 . S
C2534 C2532 1.384 . S
C2534 C2535 1.372 . S
C2535 C2534 1.372 . S
C2535 C2536 1.400 . S
C2535 C2540 1.490 . S
C2536 H2526 0.930 . S
C2536 C2535 1.400 . S
C2536 C2539 1.386 . S
H2537 C2553 0.930 . S
H2538 C2554 0.931 . S
C2539 H2527 0.929 . S
C2539 C2533 1.390 . S
C2539 C2536 1.386 . S
C2540 C2535 1.490 . S
C2540 C2542 1.395 . S
C2540 C2543 1.403 . S
H2541 C2547 0.930 . S
C2542 H2528 0.930 . S
C2542 C2540 1.395 . S
C2542 C2545 1.403 . S
C2543 C2540 1.403 . S
C2543 C2544 1.524 . S
C2543 C2547 1.400 . S
C2544 H2529 0.960 . S
C2544 H2530 0.960 . S
C2544 H2531 0.960 . S
C2544 C2543 1.524 . S
C2545 C2542 1.403 . S
C2545 C2546 1.392 . S
C2545 C2549 1.495 . S
C2546 C2545 1.392 . S
C2546 C2547 1.385 . S
C2546 C2548 1.478 . S
C2547 H2541 0.930 . S
C2547 C2543 1.400 . S
C2547 C2546 1.385 . S
C2548 C2546 1.478 . S
C2548 C2550 1.381 . S
C2548 C2554 1.383 . S
C2549 C2545 1.495 . S
C2549 H2555 0.959 . S
C2549 H2556 0.961 . S
C2549 H2557 0.960 . S
C2550 C2548 1.381 . S
C2550 C2551 1.394 . S
C2550 H2558 0.930 . S
C2551 C2550 1.394 . S
C2551 C2552 1.383 . S
C2551 H2559 0.929 . S
C2552 C2551 1.383 . S
C2552 C2553 1.377 . S
C2553 H2537 0.930 . S
C2553 C2552 1.377 . S
C2553 C2554 1.379 . S
C2554 H2538 0.931 . S
C2554 C2548 1.383 . S
C2554 C2553 1.379 . S
H2555 C2549 0.959 . S
H2556 C2549 0.961 . S
H2557 C2549 0.960 . S
H2558 C2550 0.930 . S
H2559 C2551 0.929 . S
C1417 C20 1.290 . S
C1436 C1085 1.290 . S
C1453 C1164 1.290 . S
C1472 C137 1.290 . S
C1489 C233 1.290 . S
C1508 C1281 1.291 . S
C1525 C1377 1.289 . S
C1544 C284 1.289 . S
C1561 C724 1.289 . S
C1580 C381 1.285 . S
C1597 C460 1.288 . S
C1616 C841 1.286 . S
C1633 C937 1.290 . S
C1652 C577 1.292 . S
C1669 C673 1.288 . S
C1688 C988 1.283 . S
C1705 C49 1.457 . S
C1724 C205 1.462 . S
C1741 C108 1.455 . S
C1760 C313 1.447 . S
C1777 C372 1.450 . S
C1796 C585 1.456 . S
C1813 C469 1.451 . S
C1832 C665 1.450 . S
C1849 C909 1.455 . S
C1868 C753 1.444 . S
C1885 C812 1.454 . S
C1904 C1017 1.448 . S
C1921 C1289 1.453 . S
C1940 C1076 1.440 . S
C1957 C1173 1.450 . S
C1976 C1369 1.452 . S
C1993 C548 1.511 . S
C2012 C29 1.508 . S
C2029 C645 1.508 . S
C2048 C145 1.505 . S
C2065 C225 1.509 . S
C2084 C409 1.511 . S
C2101 C293 1.508 . S
C2120 C489 1.510 . S
C2137 C1252 1.510 . S
C2156 C733 1.503 . S
C2173 C849 1.510 . S
C2192 C1349 1.502 . S
C2209 C1113 1.508 . S
C2228 C929 1.510 . S
C2245 C997 1.509 . S
C2264 C1193 1.512 . S
C2281 C57 1.285 . S
C2300 C321 1.288 . S
C2317 C196 1.284 . S
C2336 C117 1.276 . S
C2353 C401 1.263 . S
C2372 C636 1.263 . S
C2389 C497 1.265 . S
C2408 C557 1.261 . S
C2425 C1025 1.283 . S
C2444 C761 1.275 . S
C2461 C821 1.285 . S
C2480 C900 1.288 . S
C2497 C1340 1.264 . S
C2516 C1105 1.266 . S
C2533 C1201 1.265 . S
C2552 C1261 1.261 . S
