# Generated by pormake.
# Topology uow, (4)-cn, num edge types: 1
# Building blocks:
#     Node 0, Type 0, BuildingBlock: ICAMEG_clean_sbu_1, # of connection points: 4
#     Node 1, Type 0, BuildingBlock: ICAMEG_clean_sbu_1, # of connection points: 4
#     Node 2, Type 0, BuildingBlock: ICAMEG_clean_sbu_1, # of connection points: 4
#     Node 3, Type 0, BuildingBlock: ICAMEG_clean_sbu_1, # of connection points: 4
#     Node 4, Type 0, BuildingBlock: ICAMEG_clean_sbu_1, # of connection points: 4
#     Node 5, Type 0, BuildingBlock: ICAMEG_clean_sbu_1, # of connection points: 4
#     Node 6, Type 0, BuildingBlock: ICAMEG_clean_sbu_1, # of connection points: 4
#     Node 7, Type 0, BuildingBlock: ICAMEG_clean_sbu_1, # of connection points: 4
#     Node 8, Type 0, BuildingBlock: ICAMEG_clean_sbu_1, # of connection points: 4
#     Node 9, Type 0, BuildingBlock: ICAMEG_clean_sbu_1, # of connection points: 4
#     Node 10, Type 0, BuildingBlock: ICAMEG_clean_sbu_1, # of connection points: 4
#     Node 11, Type 0, BuildingBlock: ICAMEG_clean_sbu_1, # of connection points: 4
#     Node 12, Type 0, BuildingBlock: ICAMEG_clean_sbu_1, # of connection points: 4
#     Node 13, Type 0, BuildingBlock: ICAMEG_clean_sbu_1, # of connection points: 4
#     Node 14, Type 0, BuildingBlock: ICAMEG_clean_sbu_1, # of connection points: 4
#     Node 15, Type 0, BuildingBlock: ICAMEG_clean_sbu_1, # of connection points: 4
#     Node 16, Type 0, BuildingBlock: ICAMEG_clean_sbu_1, # of connection points: 4
#     Node 17, Type 0, BuildingBlock: ICAMEG_clean_sbu_1, # of connection points: 4
#     Node 18, Type 0, BuildingBlock: ICAMEG_clean_sbu_1, # of connection points: 4
#     Node 19, Type 0, BuildingBlock: ICAMEG_clean_sbu_1, # of connection points: 4
#     Node 20, Type 0, BuildingBlock: ICAMEG_clean_sbu_1, # of connection points: 4
#     Node 21, Type 0, BuildingBlock: ICAMEG_clean_sbu_1, # of connection points: 4
#     Node 22, Type 0, BuildingBlock: ICAMEG_clean_sbu_1, # of connection points: 4
#     Node 23, Type 0, BuildingBlock: ICAMEG_clean_sbu_1, # of connection points: 4
#     Node 24, Type 0, BuildingBlock: ICAMEG_clean_sbu_1, # of connection points: 4
#     Node 25, Type 0, BuildingBlock: ICAMEG_clean_sbu_1, # of connection points: 4
#     Node 26, Type 0, BuildingBlock: ICAMEG_clean_sbu_1, # of connection points: 4
#     Node 27, Type 0, BuildingBlock: ICAMEG_clean_sbu_1, # of connection points: 4
#     Node 28, Type 0, BuildingBlock: ICAMEG_clean_sbu_1, # of connection points: 4
#     Node 29, Type 0, BuildingBlock: ICAMEG_clean_sbu_1, # of connection points: 4
#     Node 30, Type 0, BuildingBlock: ICAMEG_clean_sbu_1, # of connection points: 4
#     Node 31, Type 0, BuildingBlock: ICAMEG_clean_sbu_1, # of connection points: 4
#     Edge 32, Type (0, 0), BuildingBlock: UVAHIK_clean_linker_0, # of connection points: 2
#     Edge 33, Type (0, 0), BuildingBlock: UVAHIK_clean_linker_0, # of connection points: 2
#     Edge 34, Type (0, 0), BuildingBlock: UVAHIK_clean_linker_0, # of connection points: 2
#     Edge 35, Type (0, 0), BuildingBlock: UVAHIK_clean_linker_0, # of connection points: 2
#     Edge 36, Type (0, 0), BuildingBlock: UVAHIK_clean_linker_0, # of connection points: 2
#     Edge 37, Type (0, 0), BuildingBlock: UVAHIK_clean_linker_0, # of connection points: 2
#     Edge 38, Type (0, 0), BuildingBlock: UVAHIK_clean_linker_0, # of connection points: 2
#     Edge 39, Type (0, 0), BuildingBlock: UVAHIK_clean_linker_0, # of connection points: 2
#     Edge 40, Type (0, 0), BuildingBlock: UVAHIK_clean_linker_0, # of connection points: 2
#     Edge 41, Type (0, 0), BuildingBlock: UVAHIK_clean_linker_0, # of connection points: 2
#     Edge 42, Type (0, 0), BuildingBlock: UVAHIK_clean_linker_0, # of connection points: 2
#     Edge 43, Type (0, 0), BuildingBlock: UVAHIK_clean_linker_0, # of connection points: 2
#     Edge 44, Type (0, 0), BuildingBlock: UVAHIK_clean_linker_0, # of connection points: 2
#     Edge 45, Type (0, 0), BuildingBlock: UVAHIK_clean_linker_0, # of connection points: 2
#     Edge 46, Type (0, 0), BuildingBlock: UVAHIK_clean_linker_0, # of connection points: 2
#     Edge 47, Type (0, 0), BuildingBlock: UVAHIK_clean_linker_0, # of connection points: 2
#     Edge 48, Type (0, 0), BuildingBlock: UVAHIK_clean_linker_0, # of connection points: 2
#     Edge 49, Type (0, 0), BuildingBlock: UVAHIK_clean_linker_0, # of connection points: 2
#     Edge 50, Type (0, 0), BuildingBlock: UVAHIK_clean_linker_0, # of connection points: 2
#     Edge 51, Type (0, 0), BuildingBlock: UVAHIK_clean_linker_0, # of connection points: 2
#     Edge 52, Type (0, 0), BuildingBlock: UVAHIK_clean_linker_0, # of connection points: 2
#     Edge 53, Type (0, 0), BuildingBlock: UVAHIK_clean_linker_0, # of connection points: 2
#     Edge 54, Type (0, 0), BuildingBlock: UVAHIK_clean_linker_0, # of connection points: 2
#     Edge 55, Type (0, 0), BuildingBlock: UVAHIK_clean_linker_0, # of connection points: 2
#     Edge 56, Type (0, 0), BuildingBlock: UVAHIK_clean_linker_0, # of connection points: 2
#     Edge 57, Type (0, 0), BuildingBlock: UVAHIK_clean_linker_0, # of connection points: 2
#     Edge 58, Type (0, 0), BuildingBlock: UVAHIK_clean_linker_0, # of connection points: 2
#     Edge 59, Type (0, 0), BuildingBlock: UVAHIK_clean_linker_0, # of connection points: 2
#     Edge 60, Type (0, 0), BuildingBlock: UVAHIK_clean_linker_0, # of connection points: 2
#     Edge 61, Type (0, 0), BuildingBlock: UVAHIK_clean_linker_0, # of connection points: 2
#     Edge 62, Type (0, 0), BuildingBlock: UVAHIK_clean_linker_0, # of connection points: 2
#     Edge 63, Type (0, 0), BuildingBlock: UVAHIK_clean_linker_0, # of connection points: 2
#     Edge 64, Type (0, 0), BuildingBlock: UVAHIK_clean_linker_0, # of connection points: 2
#     Edge 65, Type (0, 0), BuildingBlock: UVAHIK_clean_linker_0, # of connection points: 2
#     Edge 66, Type (0, 0), BuildingBlock: UVAHIK_clean_linker_0, # of connection points: 2
#     Edge 67, Type (0, 0), BuildingBlock: UVAHIK_clean_linker_0, # of connection points: 2
#     Edge 68, Type (0, 0), BuildingBlock: UVAHIK_clean_linker_0, # of connection points: 2
#     Edge 69, Type (0, 0), BuildingBlock: UVAHIK_clean_linker_0, # of connection points: 2
#     Edge 70, Type (0, 0), BuildingBlock: UVAHIK_clean_linker_0, # of connection points: 2
#     Edge 71, Type (0, 0), BuildingBlock: UVAHIK_clean_linker_0, # of connection points: 2
#     Edge 72, Type (0, 0), BuildingBlock: UVAHIK_clean_linker_0, # of connection points: 2
#     Edge 73, Type (0, 0), BuildingBlock: UVAHIK_clean_linker_0, # of connection points: 2
#     Edge 74, Type (0, 0), BuildingBlock: UVAHIK_clean_linker_0, # of connection points: 2
#     Edge 75, Type (0, 0), BuildingBlock: UVAHIK_clean_linker_0, # of connection points: 2
#     Edge 76, Type (0, 0), BuildingBlock: UVAHIK_clean_linker_0, # of connection points: 2
#     Edge 77, Type (0, 0), BuildingBlock: UVAHIK_clean_linker_0, # of connection points: 2
#     Edge 78, Type (0, 0), BuildingBlock: UVAHIK_clean_linker_0, # of connection points: 2
#     Edge 79, Type (0, 0), BuildingBlock: UVAHIK_clean_linker_0, # of connection points: 2
#     Edge 80, Type (0, 0), BuildingBlock: UVAHIK_clean_linker_0, # of connection points: 2
#     Edge 81, Type (0, 0), BuildingBlock: UVAHIK_clean_linker_0, # of connection points: 2
#     Edge 82, Type (0, 0), BuildingBlock: UVAHIK_clean_linker_0, # of connection points: 2
#     Edge 83, Type (0, 0), BuildingBlock: UVAHIK_clean_linker_0, # of connection points: 2
#     Edge 84, Type (0, 0), BuildingBlock: UVAHIK_clean_linker_0, # of connection points: 2
#     Edge 85, Type (0, 0), BuildingBlock: UVAHIK_clean_linker_0, # of connection points: 2
#     Edge 86, Type (0, 0), BuildingBlock: UVAHIK_clean_linker_0, # of connection points: 2
#     Edge 87, Type (0, 0), BuildingBlock: UVAHIK_clean_linker_0, # of connection points: 2
#     Edge 88, Type (0, 0), BuildingBlock: UVAHIK_clean_linker_0, # of connection points: 2
#     Edge 89, Type (0, 0), BuildingBlock: UVAHIK_clean_linker_0, # of connection points: 2
#     Edge 90, Type (0, 0), BuildingBlock: UVAHIK_clean_linker_0, # of connection points: 2
#     Edge 91, Type (0, 0), BuildingBlock: UVAHIK_clean_linker_0, # of connection points: 2
#     Edge 92, Type (0, 0), BuildingBlock: UVAHIK_clean_linker_0, # of connection points: 2
#     Edge 93, Type (0, 0), BuildingBlock: UVAHIK_clean_linker_0, # of connection points: 2
#     Edge 94, Type (0, 0), BuildingBlock: UVAHIK_clean_linker_0, # of connection points: 2
#     Edge 95, Type (0, 0), BuildingBlock: UVAHIK_clean_linker_0, # of connection points: 2
# Relax obj value: 0.071
# Max RMSD: 0.091
# Mean RMSD: 0.091
data_MOF--net-uow--node1-ICAMEG_clean_sbu_1--edge1-UVAHIK_clean_linker_0
_symmetry_space_group_name_H-M    P1
_symmetry_Int_Tables_number       1
_symmetry_cell_setting            triclinic
loop_
_symmetry_equiv_pos_as_xyz
'x, y, z'
_cell_length_a     83.215442
_cell_length_b     83.190513
_cell_length_c     58.672466
_cell_angle_alpha  90.008574
_cell_angle_beta   89.996625
_cell_angle_gamma 90.008081
loop_
_atom_site_label
_atom_site_type_symbol
_atom_site_fract_x
_atom_site_fract_y
_atom_site_fract_z
_atom_type_partial_charge
Co0 Co 0.04473 0.36605 0.27006 0.0
Co1 Co 0.06027 0.39209 0.30965 0.0
O2 O 0.05446 0.38651 0.27839 0.0
C3 C 0.072 0.36836 0.23749 0.0
O4 O 0.0817 0.3711 0.25472 0.0
C5 C 0.04055 0.41935 0.29357 0.0
O6 O 0.02983 0.40869 0.28712 0.0
O7 O 0.0383 0.38661 0.32079 0.0
O8 O 0.03198 0.36544 0.29888 0.0
H9 H 0.06308 0.38405 0.39443 0.0
H10 H 0.04334 0.39336 0.23767 0.0
O11 O 0.05705 0.36617 0.24086 0.0
H12 H 0.98685 0.37924 0.25329 0.0
H13 H 0.01987 0.32651 0.21546 0.0
H14 H 0.0378 0.33565 0.29452 0.0
H15 H 0.0089 0.36394 0.27107 0.0
H16 H 0.03165 0.35253 0.22676 0.0
O17 O 0.05333 0.41479 0.30365 0.0
H18 H 0.05608 0.37677 0.3549 0.0
H19 H 0.07647 0.42037 0.33077 0.0
H20 H 0.02598 0.30949 0.28399 0.0
H21 H 0.02165 0.40889 0.21936 0.0
H22 H 0.01692 0.30479 0.2442 0.0
H23 H 0.99316 0.40189 0.2272 0.0
O24 O 0.06245 0.35416 0.28532 0.0
H25 H 0.10032 0.41751 0.25661 0.0
H26 H 0.09341 0.38386 0.3251 0.0
H27 H 0.12072 0.38978 0.31112 0.0
H28 H 0.12431 0.40675 0.27666 0.0
H29 H 0.07322 0.41117 0.27106 0.0
H30 H 0.08359 0.42818 0.37007 0.0
H31 H 0.07694 0.40992 0.40221 0.0
O32 O 0.06748 0.36952 0.31603 0.0
C33 C 0.02952 0.37448 0.31609 0.0
C34 C 0.06609 0.39208 0.38056 0.0
C35 C 0.07758 0.41686 0.36689 0.0
N36 N 0.06599 0.39807 0.34055 0.0
C37 C 0.0622 0.388 0.35814 0.0
C38 C 0.07349 0.41239 0.34469 0.0
C39 C 0.07385 0.40661 0.38492 0.0
C40 C 0.03097 0.39013 0.24098 0.0
N41 N 0.0274 0.37772 0.25537 0.0
C42 C 0.01874 0.39902 0.23064 0.0
C43 C 0.00276 0.3951 0.23508 0.0
C44 C 0.99921 0.38241 0.24973 0.0
C45 C 0.01175 0.37381 0.25981 0.0
C46 C 0.02374 0.32842 0.23286 0.0
C47 C 0.0338 0.33372 0.2772 0.0
C48 C 0.03045 0.34312 0.23935 0.0
N49 N 0.03528 0.34564 0.26133 0.0
C50 C 0.02715 0.31887 0.27133 0.0
C51 C 0.02209 0.31624 0.249 0.0
C52 C 0.06896 0.35645 0.30475 0.0
C53 C 0.09892 0.41014 0.27169 0.0
C54 C 0.09487 0.39121 0.31006 0.0
C55 C 0.11037 0.39456 0.30225 0.0
C56 C 0.11237 0.40408 0.28292 0.0
N57 N 0.08173 0.39723 0.29898 0.0
C58 C 0.0836 0.40656 0.28 0.0
Co59 Co 0.88414 0.79385 0.5174 0.0
Co60 Co 0.85962 0.81028 0.55845 0.0
O61 O 0.86476 0.80495 0.52701 0.0
C62 C 0.88563 0.82323 0.48849 0.0
O63 O 0.88624 0.83212 0.50695 0.0
C64 C 0.8316 0.79169 0.54249 0.0
O65 O 0.8417 0.78019 0.53708 0.0
O66 O 0.86426 0.78792 0.56881 0.0
O67 O 0.88332 0.77933 0.54451 0.0
H68 H 0.86809 0.81141 0.64323 0.0
H69 H 0.85624 0.79726 0.48632 0.0
O70 O 0.885 0.80797 0.48983 0.0
H71 H 0.86575 0.73892 0.49236 0.0
H72 H 0.92124 0.7692 0.45931 0.0
H73 H 0.91351 0.78209 0.54062 0.0
H74 H 0.88329 0.75814 0.51248 0.0
H75 H 0.8965 0.78269 0.47237 0.0
O76 O 0.83667 0.80445 0.55212 0.0
H77 H 0.87496 0.8048 0.60342 0.0
H78 H 0.83204 0.82711 0.58034 0.0
H79 H 0.93837 0.76846 0.52832 0.0
H80 H 0.83849 0.7785 0.46573 0.0
H81 H 0.94235 0.76193 0.4874 0.0
H82 H 0.84315 0.74908 0.46875 0.0
O83 O 0.89785 0.80924 0.5349 0.0
H84 H 0.83599 0.85249 0.5071 0.0
H85 H 0.86935 0.84269 0.57516 0.0
H86 H 0.86464 0.87052 0.56232 0.0
H87 H 0.84782 0.87556 0.52809 0.0
H88 H 0.8411 0.82484 0.52043 0.0
H89 H 0.82464 0.83386 0.61993 0.0
H90 H 0.84277 0.82604 0.65169 0.0
O91 O 0.88243 0.81627 0.56482 0.0
C92 C 0.87481 0.77771 0.56247 0.0
C93 C 0.86012 0.81492 0.62954 0.0
C94 C 0.83572 0.8275 0.61646 0.0
N95 N 0.85397 0.81567 0.58959 0.0
C96 C 0.86397 0.81125 0.60696 0.0
C97 C 0.83995 0.82361 0.59409 0.0
C98 C 0.8459 0.82312 0.63427 0.0
C99 C 0.85842 0.78449 0.4876 0.0
N100 N 0.87078 0.7788 0.50066 0.0
C101 C 0.8483 0.77392 0.47595 0.0
C102 C 0.85091 0.75742 0.47768 0.0
C103 C 0.86357 0.75171 0.49094 0.0
C104 C 0.87343 0.76264 0.50239 0.0
C105 C 0.91963 0.77196 0.47719 0.0
C106 C 0.91511 0.77919 0.5228 0.0
C107 C 0.90567 0.77963 0.48468 0.0
N108 N 0.90352 0.78305 0.50726 0.0
C109 C 0.92923 0.77152 0.51593 0.0
C110 C 0.93147 0.76787 0.49296 0.0
C111 C 0.89582 0.81614 0.55416 0.0
C112 C 0.84329 0.85045 0.52209 0.0
C113 C 0.86204 0.84478 0.56023 0.0
C114 C 0.8594 0.86057 0.55306 0.0
C115 C 0.84996 0.86339 0.53385 0.0
N116 N 0.85541 0.83216 0.54865 0.0
C117 C 0.84618 0.83482 0.52977 0.0
Co118 Co 0.45728 0.63635 0.76729 0.0
Co119 Co 0.44124 0.60968 0.80633 0.0
O120 O 0.44671 0.61617 0.7752 0.0
C121 C 0.42827 0.63559 0.7376 0.0
O122 O 0.42002 0.62925 0.75441 0.0
C123 C 0.46082 0.58302 0.78802 0.0
O124 O 0.47124 0.59391 0.78141 0.0
O125 O 0.46321 0.61501 0.8177 0.0
O126 O 0.47187 0.63449 0.79417 0.0
H127 H 0.43852 0.6156 0.89148 0.0
H128 H 0.45431 0.61025 0.73324 0.0
O129 O 0.44311 0.63888 0.74002 0.0
H130 H 0.51249 0.62031 0.74034 0.0
H131 H 0.4813 0.67689 0.71337 0.0
H132 H 0.46822 0.66475 0.79353 0.0
H133 H 0.493 0.63642 0.76229 0.0
H134 H 0.46839 0.65122 0.72372 0.0
O135 O 0.44832 0.58722 0.79907 0.0
H136 H 0.4453 0.62395 0.85231 0.0
H137 H 0.4255 0.58067 0.82612 0.0
H138 H 0.48126 0.69051 0.78396 0.0
H139 H 0.47334 0.59394 0.71077 0.0
H140 H 0.48788 0.69672 0.74363 0.0
H141 H 0.50267 0.59889 0.71434 0.0
O142 O 0.44151 0.64877 0.78579 0.0
H143 H 0.40102 0.5847 0.75307 0.0
H144 H 0.40815 0.61754 0.82233 0.0
H145 H 0.38079 0.6116 0.80854 0.0
H146 H 0.3771 0.59504 0.77371 0.0
H147 H 0.42817 0.59108 0.76729 0.0
H148 H 0.41861 0.57179 0.86503 0.0
H149 H 0.42508 0.58934 0.89803 0.0
O150 O 0.43401 0.63197 0.8139 0.0
C151 C 0.47337 0.62574 0.81189 0.0
C152 C 0.4356 0.60787 0.87724 0.0
C153 C 0.42445 0.58327 0.86239 0.0
N154 N 0.43572 0.60286 0.83695 0.0
C155 C 0.43938 0.61255 0.85501 0.0
C156 C 0.42842 0.58834 0.84041 0.0
C157 C 0.42807 0.59312 0.8809 0.0
C158 C 0.46705 0.61255 0.73474 0.0
N159 N 0.47255 0.62423 0.74915 0.0
C160 C 0.47777 0.60325 0.72203 0.0
C161 C 0.49422 0.60601 0.72407 0.0
C162 C 0.49974 0.61801 0.73868 0.0
C163 C 0.48866 0.62705 0.75116 0.0
C164 C 0.4785 0.67431 0.73102 0.0
C165 C 0.47117 0.66732 0.77596 0.0
C166 C 0.47116 0.65981 0.73697 0.0
N167 N 0.46768 0.65644 0.75924 0.0
C168 C 0.4785 0.68195 0.77064 0.0
C169 C 0.4822 0.68543 0.748 0.0
C170 C 0.43408 0.64576 0.80435 0.0
C171 C 0.40248 0.59188 0.76831 0.0
C172 C 0.40665 0.61038 0.80709 0.0
C173 C 0.39112 0.60702 0.79941 0.0
C174 C 0.38906 0.59771 0.77988 0.0
N175 N 0.41975 0.60461 0.79568 0.0
C176 C 0.41782 0.59547 0.77651 0.0
Co177 Co 0.61587 0.20694 0.01988 0.0
Co178 Co 0.64232 0.18968 0.05813 0.0
O179 O 0.63576 0.19572 0.02733 0.0
C180 C 0.61544 0.17783 0.99063 0.0
O181 O 0.62123 0.16952 0.00776 0.0
C182 C 0.66948 0.20908 0.0407 0.0
O183 O 0.65909 0.22052 0.03615 0.0
O184 O 0.63764 0.21167 0.07014 0.0
O185 O 0.61859 0.22146 0.0467 0.0
H186 H 0.63712 0.1859 0.1433 0.0
H187 H 0.6417 0.20317 0.98554 0.0
O188 O 0.61268 0.19281 0.9927 0.0
H189 H 0.63322 0.26163 0.99248 0.0
H190 H 0.57554 0.23213 0.96677 0.0
H191 H 0.5882 0.21893 0.04673 0.0
H192 H 0.61674 0.24262 0.01472 0.0
H193 H 0.60088 0.2184 0.97661 0.0
O194 O 0.66487 0.19618 0.05039 0.0
H195 H 0.62857 0.19341 0.10448 0.0
H196 H 0.67113 0.17304 0.07692 0.0
H197 H 0.56278 0.23281 0.03768 0.0
H198 H 0.65836 0.22172 0.9628 0.0
H199 H 0.55632 0.23949 0.99745 0.0
H200 H 0.65421 0.25119 0.96627 0.0
O201 O 0.60307 0.19162 0.03867 0.0
H202 H 0.6655 0.14942 0.00331 0.0
H203 H 0.63376 0.15662 0.07356 0.0
H204 H 0.63875 0.12927 0.05898 0.0
H205 H 0.65475 0.12553 0.02364 0.0
H206 H 0.66007 0.17656 0.01832 0.0
H207 H 0.68021 0.1654 0.11546 0.0
H208 H 0.66312 0.17179 0.14897 0.0
O209 O 0.61993 0.18297 0.06599 0.0
C210 C 0.62744 0.22239 0.0644 0.0
C211 C 0.64466 0.18303 0.12883 0.0
C212 C 0.66885 0.17154 0.11321 0.0
N213 N 0.6493 0.1836 0.08846 0.0
C214 C 0.63986 0.18722 0.10681 0.0
C215 C 0.66367 0.17593 0.09144 0.0
C216 C 0.65925 0.17512 0.132 0.0
C217 C 0.63976 0.21597 0.98704 0.0
N218 N 0.6283 0.22182 0.00152 0.0
C219 C 0.64926 0.22642 0.97416 0.0
C220 C 0.64693 0.24295 0.97614 0.0
C221 C 0.63517 0.24882 0.99086 0.0
C222 C 0.62593 0.23801 0.0035 0.0
C223 C 0.57823 0.22931 0.98437 0.0
C224 C 0.58551 0.22191 0.0292 0.0
C225 C 0.59254 0.22151 0.99004 0.0
N226 N 0.59606 0.21799 0.01224 0.0
C227 C 0.57109 0.22971 0.02417 0.0
C228 C 0.56746 0.23344 0.00159 0.0
C229 C 0.60602 0.18378 0.05689 0.0
C230 C 0.65856 0.15089 0.01877 0.0
C231 C 0.64068 0.1551 0.05812 0.0
C232 C 0.64351 0.13958 0.04998 0.0
C233 C 0.6525 0.13749 0.03016 0.0
N234 N 0.64668 0.16818 0.04686 0.0
C235 C 0.65551 0.16623 0.02742 0.0
Co236 Co 0.04395 0.63817 0.23335 0.0
Co237 Co 0.0587 0.61022 0.19578 0.0
O238 O 0.05347 0.61724 0.22675 0.0
C239 C 0.07115 0.63619 0.26625 0.0
O240 O 0.08039 0.63041 0.25008 0.0
C241 C 0.03957 0.58349 0.21505 0.0
O242 O 0.02893 0.59426 0.22136 0.0
O243 O 0.03647 0.61507 0.1851 0.0
O244 O 0.03086 0.63742 0.20487 0.0
H245 H 0.05963 0.61437 0.11036 0.0
H246 H 0.04283 0.61251 0.2683 0.0
O247 O 0.05654 0.63965 0.26221 0.0
H248 H 0.98621 0.62617 0.25288 0.0
H249 H 0.01964 0.68049 0.28415 0.0
H250 H 0.03708 0.66733 0.20601 0.0
H251 H 0.0081 0.64047 0.2331 0.0
H252 H 0.03113 0.65387 0.27533 0.0
O253 O 0.05204 0.5878 0.20403 0.0
H254 H 0.05341 0.62339 0.14942 0.0
H255 H 0.07473 0.58116 0.1766 0.0
H256 H 0.02554 0.69405 0.21404 0.0
H257 H 0.02132 0.59801 0.28865 0.0
H258 H 0.01673 0.70077 0.25336 0.0
H259 H 0.99277 0.60478 0.28091 0.0
O260 O 0.0616 0.64913 0.21663 0.0
H261 H 0.09996 0.58698 0.24895 0.0
H262 H 0.09148 0.61804 0.17838 0.0
H263 H 0.11909 0.61272 0.19162 0.0
H264 H 0.12347 0.59705 0.22711 0.0
H265 H 0.07254 0.59272 0.23524 0.0
H266 H 0.08108 0.57162 0.13782 0.0
H267 H 0.07357 0.58831 0.10437 0.0
O268 O 0.06562 0.63249 0.18701 0.0
C269 C 0.02791 0.62752 0.18883 0.0
C270 C 0.06302 0.60702 0.1248 0.0
C271 C 0.07503 0.58301 0.14021 0.0
N272 N 0.06382 0.60288 0.16527 0.0
C273 C 0.05956 0.61209 0.14696 0.0
C274 C 0.07138 0.58846 0.16212 0.0
C275 C 0.07082 0.59239 0.12145 0.0
C276 C 0.03044 0.61564 0.26502 0.0
N277 N 0.02673 0.62735 0.24956 0.0
C278 C 0.01831 0.60734 0.27652 0.0
C279 C 0.00229 0.61112 0.27214 0.0
C280 C 0.9986 0.62311 0.25639 0.0
C281 C 0.01105 0.63113 0.24518 0.0
C282 C 0.02342 0.67769 0.26695 0.0
C283 C 0.0332 0.67014 0.22314 0.0
C284 C 0.02996 0.66266 0.26186 0.0
N285 N 0.03468 0.65902 0.24015 0.0
C286 C 0.02671 0.6853 0.22759 0.0
C287 C 0.02178 0.68907 0.24966 0.0
C288 C 0.06751 0.64599 0.19707 0.0
C289 C 0.09821 0.59378 0.23342 0.0
C290 C 0.09327 0.61128 0.1939 0.0
C291 C 0.10894 0.60826 0.20128 0.0
C292 C 0.11139 0.59945 0.22118 0.0
N293 N 0.0804 0.60565 0.20598 0.0
C294 C 0.08271 0.59701 0.22552 0.0
Co295 Co 0.61601 0.79335 0.48367 0.0
Co296 Co 0.64102 0.80984 0.44325 0.0
O297 O 0.63556 0.80435 0.47454 0.0
C298 C 0.61527 0.82266 0.51244 0.0
O299 O 0.61624 0.83135 0.49381 0.0
C300 C 0.6688 0.79106 0.45959 0.0
O301 O 0.65863 0.77951 0.46452 0.0
O302 O 0.63632 0.78756 0.43249 0.0
O303 O 0.617 0.77898 0.4564 0.0
H304 H 0.63341 0.81154 0.35832 0.0
H305 H 0.64347 0.79647 0.51558 0.0
O306 O 0.61486 0.80738 0.51132 0.0
H307 H 0.63396 0.73819 0.50827 0.0
H308 H 0.5782 0.76858 0.54073 0.0
H309 H 0.5868 0.78189 0.45974 0.0
H310 H 0.61674 0.7576 0.48797 0.0
H311 H 0.60315 0.782 0.52831 0.0
O312 O 0.66387 0.80388 0.44999 0.0
H313 H 0.6261 0.80473 0.3979 0.0
H314 H 0.6689 0.82665 0.42213 0.0
H315 H 0.56174 0.76835 0.47138 0.0
H316 H 0.66091 0.7775 0.53634 0.0
H317 H 0.55732 0.76161 0.51215 0.0
H318 H 0.65624 0.74812 0.53268 0.0
O319 O 0.60257 0.80889 0.46608 0.0
H320 H 0.66442 0.85163 0.49552 0.0
H321 H 0.63159 0.84239 0.42678 0.0
H322 H 0.63633 0.87012 0.44004 0.0
H323 H 0.65288 0.87488 0.47462 0.0
H324 H 0.65928 0.82409 0.48179 0.0
H325 H 0.67675 0.8336 0.38279 0.0
H326 H 0.65891 0.82608 0.35057 0.0
O327 O 0.6183 0.81595 0.4365 0.0
C328 C 0.62559 0.77743 0.43849 0.0
C329 C 0.64126 0.81492 0.37222 0.0
C330 C 0.6656 0.82728 0.38595 0.0
N331 N 0.64701 0.81539 0.4123 0.0
C332 C 0.63716 0.81114 0.39467 0.0
C333 C 0.66111 0.82328 0.40818 0.0
C334 C 0.65558 0.82307 0.36788 0.0
C335 C 0.64129 0.7837 0.51402 0.0
N336 N 0.62911 0.77814 0.50053 0.0
C337 C 0.65123 0.77302 0.52577 0.0
C338 C 0.64862 0.75654 0.52369 0.0
C339 C 0.63614 0.75096 0.50997 0.0
C340 C 0.62646 0.762 0.49844 0.0
C341 C 0.58 0.77143 0.52291 0.0
C342 C 0.58501 0.7789 0.47748 0.0
C343 C 0.59409 0.77906 0.51579 0.0
N344 N 0.59648 0.7826 0.4933 0.0
C345 C 0.57077 0.77127 0.48399 0.0
C346 C 0.56829 0.76751 0.50686 0.0
C347 C 0.60481 0.81581 0.4469 0.0
C348 C 0.65724 0.84972 0.48039 0.0
C349 C 0.63878 0.84436 0.44187 0.0
C350 C 0.64145 0.86009 0.44927 0.0
C351 C 0.65074 0.86275 0.46867 0.0
N352 N 0.64525 0.83164 0.4534 0.0
C353 C 0.65434 0.83415 0.47247 0.0
Co354 Co 0.45703 0.36771 0.73256 0.0
Co355 Co 0.44138 0.3921 0.69059 0.0
O356 O 0.44634 0.38717 0.72228 0.0
C357 C 0.42724 0.36636 0.76076 0.0
O358 O 0.41855 0.36531 0.74215 0.0
C359 C 0.46055 0.41958 0.70688 0.0
O360 O 0.47109 0.40896 0.71397 0.0
O361 O 0.46361 0.38658 0.68056 0.0
O362 O 0.47198 0.3681 0.70589 0.0
H363 H 0.44019 0.38231 0.60609 0.0
H364 H 0.4535 0.39581 0.76327 0.0
O365 O 0.4425 0.36725 0.75973 0.0
H366 H 0.51179 0.38566 0.75888 0.0
H367 H 0.48029 0.33077 0.79199 0.0
H368 H 0.46872 0.33798 0.71019 0.0
H369 H 0.49266 0.3682 0.73845 0.0
H370 H 0.46736 0.35559 0.77812 0.0
O371 O 0.44804 0.41496 0.6962 0.0
H372 H 0.44638 0.37583 0.64616 0.0
H373 H 0.4257 0.41995 0.6677 0.0
H374 H 0.4818 0.31303 0.7233 0.0
H375 H 0.47217 0.41349 0.78418 0.0
H376 H 0.48767 0.30931 0.76448 0.0
H377 H 0.50156 0.40851 0.78197 0.0
O378 O 0.44175 0.35405 0.71482 0.0
H379 H 0.39982 0.41799 0.74078 0.0
H380 H 0.40873 0.38324 0.67387 0.0
H381 H 0.38104 0.38912 0.68629 0.0
H382 H 0.37644 0.40664 0.71995 0.0
H383 H 0.42732 0.41172 0.72789 0.0
H384 H 0.41938 0.42698 0.62784 0.0
H385 H 0.42659 0.40806 0.59673 0.0
O386 O 0.43462 0.3694 0.68489 0.0
C387 C 0.47371 0.37614 0.68753 0.0
C388 C 0.43695 0.39064 0.6195 0.0
C389 C 0.42529 0.41572 0.63171 0.0
N390 N 0.43632 0.39746 0.65924 0.0
C391 C 0.44039 0.38702 0.64222 0.0
C392 C 0.42894 0.4117 0.65424 0.0
C393 C 0.42933 0.40509 0.61426 0.0
C394 C 0.46626 0.39348 0.76238 0.0
N395 N 0.47199 0.38101 0.74957 0.0
C396 C 0.47678 0.40356 0.7742 0.0
C397 C 0.49326 0.40078 0.77292 0.0
C398 C 0.49901 0.38798 0.75994 0.0
C399 C 0.48814 0.37817 0.74831 0.0
C400 C 0.47783 0.33226 0.774 0.0
C401 C 0.47133 0.33649 0.72812 0.0
C402 C 0.47047 0.34627 0.76606 0.0
N403 N 0.46741 0.34827 0.74334 0.0
C404 C 0.4787 0.32231 0.73545 0.0
C405 C 0.48197 0.32023 0.75856 0.0
C406 C 0.43469 0.35607 0.69569 0.0
C407 C 0.40166 0.41039 0.72605 0.0
C408 C 0.40684 0.39085 0.68856 0.0
C409 C 0.39112 0.39416 0.69549 0.0
C410 C 0.38855 0.404 0.71437 0.0
N411 N 0.41963 0.39722 0.70005 0.0
C412 C 0.41721 0.40683 0.71861 0.0
Co413 Co 0.88541 0.20715 0.9833 0.0
Co414 Co 0.86055 0.19065 0.94267 0.0
O415 O 0.86589 0.19613 0.97402 0.0
C416 C 0.88624 0.17781 0.01207 0.0
O417 O 0.88544 0.16908 0.99346 0.0
C418 C 0.83259 0.20941 0.9587 0.0
O419 O 0.84271 0.22091 0.96409 0.0
O420 O 0.8653 0.21294 0.93197 0.0
O421 O 0.88445 0.22157 0.95611 0.0
H422 H 0.86867 0.18892 0.85783 0.0
H423 H 0.85785 0.2039 0.01501 0.0
O424 O 0.88652 0.19309 0.0109 0.0
H425 H 0.86731 0.26221 0.00816 0.0
H426 H 0.923 0.23189 0.04068 0.0
H427 H 0.91466 0.21873 0.95958 0.0
H428 H 0.88462 0.24288 0.98785 0.0
H429 H 0.89812 0.21844 0.02806 0.0
O430 O 0.83765 0.19663 0.94911 0.0
H431 H 0.87576 0.19571 0.8975 0.0
H432 H 0.83276 0.17389 0.92121 0.0
H433 H 0.93966 0.2323 0.97141 0.0
H434 H 0.84033 0.22279 0.0358 0.0
H435 H 0.94395 0.23897 0.01223 0.0
H436 H 0.84497 0.25218 0.03237 0.0
O437 O 0.89896 0.19167 0.96572 0.0
H438 H 0.83683 0.14889 0.99467 0.0
H439 H 0.87002 0.15809 0.92627 0.0
H440 H 0.86519 0.13036 0.93947 0.0
H441 H 0.84845 0.12562 0.97388 0.0
H442 H 0.84207 0.17642 0.981 0.0
H443 H 0.82514 0.16695 0.88178 0.0
H444 H 0.84319 0.17443 0.84977 0.0
O445 O 0.8833 0.1845 0.93615 0.0
C446 C 0.87595 0.22311 0.93813 0.0
C447 C 0.86072 0.18556 0.87164 0.0
C448 C 0.83628 0.17325 0.88507 0.0
N449 N 0.85473 0.18511 0.91165 0.0
C450 C 0.86469 0.18934 0.89413 0.0
C451 C 0.84064 0.17724 0.90736 0.0
C452 C 0.84642 0.17744 0.86712 0.0
C453 C 0.86002 0.21667 0.01355 0.0
N454 N 0.87223 0.22229 1.00016 0.0
C455 C 0.85003 0.22731 0.02532 0.0
C456 C 0.85263 0.2438 0.02336 0.0
C457 C 0.86515 0.24944 0.00976 0.0
C458 C 0.87487 0.23844 0.9982 0.0
C459 C 0.92126 0.22908 0.02284 0.0
C460 C 0.9164 0.22168 0.97735 0.0
C461 C 0.90721 0.22143 0.0156 0.0
N462 N 0.90489 0.21792 0.99308 0.0
C463 C 0.9306 0.22933 0.98396 0.0
C464 C 0.93301 0.23305 0.00687 0.0
C465 C 0.89677 0.18467 0.94657 0.0
C466 C 0.8441 0.15079 0.97961 0.0
C467 C 0.86275 0.15613 0.94128 0.0
C468 C 0.86004 0.1404 0.94865 0.0
C469 C 0.85064 0.13775 0.96795 0.0
N470 N 0.85625 0.16886 0.95276 0.0
C471 C 0.84706 0.16636 0.97173 0.0
Co472 Co 0.95717 0.63738 0.73 0.0
Co473 Co 0.94221 0.60945 0.69309 0.0
O474 O 0.94807 0.61625 0.72381 0.0
C475 C 0.93119 0.63491 0.76451 0.0
O476 O 0.92105 0.63147 0.74807 0.0
C477 C 0.96166 0.58265 0.7113 0.0
O478 O 0.97252 0.59337 0.71704 0.0
O479 O 0.96429 0.61437 0.68191 0.0
O480 O 0.9688 0.63767 0.70013 0.0
H481 H 0.93968 0.61416 0.6078 0.0
H482 H 0.96109 0.61144 0.7642 0.0
O483 O 0.94591 0.63764 0.76005 0.0
H484 H 0.01616 0.62748 0.74306 0.0
H485 H 0.98193 0.67983 0.78008 0.0
H486 H 0.96171 0.66725 0.70312 0.0
H487 H 0.99275 0.64103 0.7259 0.0
H488 H 0.97108 0.65294 0.77133 0.0
O489 O 0.94895 0.58701 0.7009 0.0
H490 H 0.94666 0.62291 0.64673 0.0
H491 H 0.92587 0.58049 0.67415 0.0
H492 H 0.97257 0.69425 0.71109 0.0
H493 H 0.98417 0.5977 0.78196 0.0
H494 H 0.98278 0.70069 0.74981 0.0
H495 H 0.01194 0.60567 0.77134 0.0
O496 O 0.93841 0.64783 0.71522 0.0
H497 H 0.90186 0.58643 0.74783 0.0
H498 H 0.90914 0.61718 0.67672 0.0
H499 H 0.88176 0.61193 0.69096 0.0
H500 H 0.87799 0.59641 0.72673 0.0
H501 H 0.92904 0.59208 0.73309 0.0
H502 H 0.91879 0.57119 0.6355 0.0
H503 H 0.92564 0.58812 0.602 0.0
O504 O 0.93511 0.63181 0.68479 0.0
C505 C 0.97199 0.62749 0.68451 0.0
C506 C 0.93658 0.6067 0.62226 0.0
C507 C 0.92488 0.58258 0.63781 0.0
N508 N 0.93656 0.60229 0.66269 0.0
C509 C 0.94046 0.61162 0.64435 0.0
C510 C 0.92895 0.58788 0.65964 0.0
C511 C 0.92872 0.59208 0.61902 0.0
C512 C 0.97314 0.6151 0.75969 0.0
N513 N 0.97556 0.62706 0.7441 0.0
C514 C 0.98616 0.60722 0.76972 0.0
C515 C 0.00174 0.61168 0.76372 0.0
C516 C 0.00411 0.62391 0.74784 0.0
C517 C 0.99081 0.6315 0.73813 0.0
C518 C 0.97755 0.67716 0.76313 0.0
C519 C 0.96622 0.66992 0.71997 0.0
C520 C 0.97137 0.66197 0.75808 0.0
N521 N 0.9659 0.65848 0.73668 0.0
C522 C 0.97232 0.68525 0.7244 0.0
C523 C 0.97803 0.68886 0.74614 0.0
C524 C 0.93265 0.64498 0.69549 0.0
C525 C 0.90335 0.59315 0.73218 0.0
C526 C 0.90761 0.61046 0.69234 0.0
C527 C 0.89207 0.60749 0.70029 0.0
C528 C 0.88996 0.59878 0.72036 0.0
N529 N 0.92068 0.60487 0.70401 0.0
C530 C 0.91871 0.59634 0.72371 0.0
Co531 Co 0.11529 0.20999 0.47999 0.0
Co532 Co 0.14147 0.19161 0.44262 0.0
O533 O 0.13505 0.19838 0.47315 0.0
C534 C 0.1146 0.18205 0.51152 0.0
O535 O 0.11924 0.17279 0.49465 0.0
C536 C 0.1692 0.21051 0.45929 0.0
O537 O 0.15912 0.22228 0.4635 0.0
O538 O 0.13755 0.21353 0.43 0.0
O539 O 0.11775 0.22345 0.45197 0.0
H540 H 0.13648 0.18697 0.35753 0.0
H541 H 0.14143 0.20748 0.51408 0.0
O542 O 0.11243 0.19703 0.50836 0.0
H543 H 0.13307 0.26562 0.50283 0.0
H544 H 0.07559 0.2375 0.53174 0.0
H545 H 0.08736 0.22091 0.45278 0.0
H546 H 0.11632 0.24585 0.48241 0.0
H547 H 0.1008 0.22331 0.52253 0.0
O548 O 0.1642 0.19752 0.4502 0.0
H549 H 0.12809 0.19533 0.39606 0.0
H550 H 0.16967 0.17358 0.42453 0.0
H551 H 0.06208 0.23522 0.46119 0.0
H552 H 0.15835 0.2268 0.53506 0.0
H553 H 0.05606 0.24361 0.50092 0.0
H554 H 0.15427 0.25611 0.52941 0.0
O555 O 0.10233 0.19396 0.46265 0.0
H556 H 0.16306 0.15155 0.49899 0.0
H557 H 0.1319 0.15859 0.42819 0.0
H558 H 0.13591 0.13135 0.44375 0.0
H559 H 0.15161 0.1277 0.47938 0.0
H560 H 0.15864 0.17859 0.48298 0.0
H561 H 0.17858 0.16507 0.38627 0.0
H562 H 0.1619 0.17172 0.35245 0.0
O563 O 0.11889 0.18549 0.43482 0.0
C564 C 0.12701 0.22418 0.43466 0.0
C565 C 0.14383 0.18396 0.37213 0.0
C566 C 0.16747 0.17169 0.38827 0.0
N567 N 0.14831 0.18484 0.41253 0.0
C568 C 0.13912 0.18862 0.394 0.0
C569 C 0.16238 0.17656 0.40988 0.0
C570 C 0.1581 0.17541 0.3693 0.0
C571 C 0.13951 0.22021 0.51163 0.0
N572 N 0.12795 0.22554 0.49691 0.0
C573 C 0.14916 0.2311 0.52352 0.0
C574 C 0.14688 0.24754 0.52032 0.0
C575 C 0.13501 0.25288 0.50538 0.0
C576 C 0.12561 0.24164 0.49376 0.0
C577 C 0.07809 0.23393 0.51435 0.0
C578 C 0.08487 0.22462 0.47008 0.0
C579 C 0.09232 0.22585 0.50905 0.0
N580 N 0.09559 0.22139 0.48711 0.0
C581 C 0.07051 0.23267 0.47475 0.0
C582 C 0.06714 0.23736 0.49705 0.0
C583 C 0.1051 0.18616 0.44432 0.0
C584 C 0.15624 0.15299 0.48341 0.0
C585 C 0.13871 0.15711 0.44375 0.0
C586 C 0.14097 0.14165 0.45245 0.0
C587 C 0.14979 0.13961 0.47243 0.0
N588 N 0.14509 0.17017 0.45461 0.0
C589 C 0.15376 0.16826 0.4742 0.0
Co590 Co 0.5428 0.36422 0.23222 0.0
Co591 Co 0.56044 0.39063 0.19424 0.0
O592 O 0.55412 0.38413 0.22502 0.0
C593 C 0.57108 0.36394 0.26347 0.0
O594 O 0.58019 0.36953 0.24701 0.0
C595 C 0.54121 0.41774 0.21191 0.0
O596 O 0.53039 0.40711 0.21804 0.0
O597 O 0.53857 0.38601 0.18185 0.0
O598 O 0.52881 0.36669 0.20481 0.0
H599 H 0.56491 0.38506 0.10919 0.0
H600 H 0.54577 0.39027 0.26641 0.0
O601 O 0.55622 0.36126 0.26011 0.0
H602 H 0.48752 0.38141 0.25744 0.0
H603 H 0.5165 0.32406 0.28457 0.0
H604 H 0.53166 0.33629 0.20518 0.0
H605 H 0.50702 0.36487 0.23616 0.0
H606 H 0.53029 0.34944 0.27511 0.0
O607 O 0.55385 0.41325 0.20143 0.0
H608 H 0.55704 0.3767 0.14795 0.0
H609 H 0.57741 0.41929 0.17549 0.0
H610 H 0.51773 0.31083 0.21385 0.0
H611 H 0.52673 0.40698 0.28824 0.0
H612 H 0.51007 0.30458 0.25379 0.0
H613 H 0.49737 0.40265 0.28372 0.0
O614 O 0.55859 0.35142 0.21422 0.0
H615 H 0.60015 0.41394 0.24972 0.0
H616 H 0.59363 0.38197 0.17954 0.0
H617 H 0.62083 0.38699 0.19464 0.0
H618 H 0.62422 0.4031 0.22996 0.0
H619 H 0.57316 0.40851 0.23416 0.0
H620 H 0.5854 0.42818 0.13701 0.0
H621 H 0.57919 0.41098 0.10354 0.0
O622 O 0.56718 0.3682 0.18674 0.0
C623 C 0.52793 0.37563 0.18719 0.0
C624 C 0.56771 0.39264 0.12364 0.0
C625 C 0.57919 0.41685 0.13926 0.0
N626 N 0.56683 0.39745 0.16396 0.0
C627 C 0.56331 0.38796 0.14563 0.0
C628 C 0.5746 0.41178 0.161 0.0
C629 C 0.57571 0.40719 0.12048 0.0
C630 C 0.53301 0.38824 0.26446 0.0
N631 N 0.52749 0.37669 0.24986 0.0
C632 C 0.52229 0.39777 0.27682 0.0
C633 C 0.50582 0.39535 0.27426 0.0
C634 C 0.50028 0.38346 0.25948 0.0
C635 C 0.51136 0.37419 0.24736 0.0
C636 C 0.51975 0.32666 0.26709 0.0
C637 C 0.52826 0.3337 0.22258 0.0
C638 C 0.52761 0.34099 0.26164 0.0
N639 N 0.53167 0.34439 0.23958 0.0
C640 C 0.52042 0.31925 0.2274 0.0
C641 C 0.51614 0.31574 0.24982 0.0
C642 C 0.5665 0.35434 0.19602 0.0
C643 C 0.59883 0.40695 0.23428 0.0
C644 C 0.595 0.38895 0.19496 0.0
C645 C 0.61043 0.39178 0.2034 0.0
C646 C 0.61233 0.40084 0.2232 0.0
N647 N 0.58182 0.395 0.2059 0.0
C648 C 0.58358 0.40389 0.22533 0.0
Co649 Co 0.38574 0.79189 0.9826 0.0
Co650 Co 0.36076 0.80979 0.94334 0.0
O651 O 0.36647 0.80369 0.97431 0.0
C652 C 0.38776 0.82094 0.01168 0.0
O653 O 0.38666 0.82973 0.99317 0.0
C654 C 0.33257 0.79168 0.95985 0.0
O655 O 0.34245 0.77985 0.96457 0.0
O656 O 0.36455 0.78752 0.93194 0.0
O657 O 0.38375 0.77777 0.95514 0.0
H658 H 0.36726 0.81224 0.85825 0.0
H659 H 0.35892 0.79573 0.01546 0.0
O660 O 0.38783 0.80566 0.01041 0.0
H661 H 0.3662 0.73722 0.00695 0.0
H662 H 0.4235 0.7653 0.03804 0.0
H663 H 0.4141 0.77954 0.95754 0.0
H664 H 0.38377 0.75617 0.98637 0.0
H665 H 0.39888 0.77974 0.02664 0.0
O666 O 0.33781 0.80447 0.95047 0.0
H667 H 0.37485 0.80469 0.89745 0.0
H668 H 0.33322 0.82784 0.92342 0.0
H669 H 0.43882 0.76497 0.96816 0.0
H670 H 0.34117 0.77723 0.03653 0.0
H671 H 0.44363 0.75776 0.00867 0.0
H672 H 0.34471 0.74774 0.03227 0.0
O673 O 0.39949 0.80709 0.96487 0.0
H674 H 0.33944 0.8516 0.9973 0.0
H675 H 0.37108 0.84223 0.92748 0.0
H676 H 0.36747 0.86991 0.94162 0.0
H677 H 0.35153 0.87474 0.97675 0.0
H678 H 0.34345 0.8241 0.98267 0.0
H679 H 0.3251 0.83554 0.88448 0.0
H680 H 0.34221 0.82779 0.85158 0.0
O681 O 0.38358 0.81524 0.93608 0.0
C682 C 0.37485 0.77683 0.93746 0.0
C683 C 0.35973 0.81574 0.87245 0.0
C684 C 0.33605 0.8288 0.88717 0.0
N685 N 0.35456 0.81593 0.9127 0.0
C686 C 0.36399 0.81154 0.89469 0.0
C687 C 0.34069 0.82437 0.90917 0.0
C688 C 0.34566 0.82445 0.86872 0.0
C689 C 0.36062 0.78292 0.01363 0.0
N690 N 0.37236 0.77703 0.99964 0.0
C691 C 0.35049 0.7725 0.02556 0.0
C692 C 0.35247 0.75595 0.02314 0.0
C693 C 0.36451 0.75004 0.00892 0.0
C694 C 0.37439 0.76082 0.99722 0.0
C695 C 0.42152 0.76835 0.02033 0.0
C696 C 0.41607 0.77634 0.97518 0.0
C697 C 0.40762 0.77655 0.01378 0.0
N698 N 0.40501 0.78036 0.99142 0.0
C699 C 0.43011 0.76814 0.9811 0.0
C700 C 0.43281 0.76412 0.00384 0.0
C701 C 0.39721 0.81443 0.94601 0.0
C702 C 0.34637 0.84966 0.98193 0.0
C703 C 0.36415 0.84423 0.9428 0.0
C704 C 0.36212 0.85993 0.95071 0.0
C705 C 0.35317 0.86263 0.97041 0.0
N706 N 0.35739 0.83157 0.95415 0.0
C707 C 0.34863 0.83412 0.97352 0.0
Co708 Co 0.95855 0.3666 0.76892 0.0
Co709 Co 0.94193 0.39167 0.80924 0.0
O710 O 0.94739 0.38612 0.77793 0.0
C711 C 0.92933 0.36458 0.7397 0.0
O712 O 0.92032 0.36411 0.75805 0.0
C713 C 0.96065 0.41921 0.79226 0.0
O714 O 0.97147 0.40867 0.78581 0.0
O715 O 0.96417 0.38703 0.81992 0.0
O716 O 0.97298 0.36774 0.79616 0.0
H717 H 0.94038 0.38406 0.89417 0.0
H718 H 0.95527 0.39389 0.73672 0.0
O719 O 0.94457 0.36536 0.74122 0.0
H720 H 0.01359 0.38488 0.74426 0.0
H721 H 0.98353 0.3288 0.71201 0.0
H722 H 0.97016 0.33749 0.79297 0.0
H723 H 0.99429 0.36761 0.76471 0.0
H724 H 0.96999 0.35371 0.72433 0.0
O725 O 0.94806 0.41454 0.80271 0.0
H726 H 0.94714 0.37677 0.85456 0.0
H727 H 0.92512 0.41955 0.83042 0.0
H728 H 0.98382 0.31247 0.78143 0.0
H729 H 0.97412 0.41134 0.71577 0.0
H730 H 0.9906 0.308 0.74068 0.0
H731 H 0.00352 0.40693 0.71955 0.0
O732 O 0.94311 0.35311 0.78663 0.0
H733 H 0.90024 0.41521 0.757 0.0
H734 H 0.90936 0.3823 0.8257 0.0
H735 H 0.88165 0.38712 0.81243 0.0
H736 H 0.87695 0.40371 0.77787 0.0
H737 H 0.92776 0.41 0.77077 0.0
H738 H 0.91823 0.42738 0.86978 0.0
H739 H 0.92582 0.40954 0.90198 0.0
O740 O 0.93575 0.36894 0.81597 0.0
C741 C 0.97444 0.37643 0.81398 0.0
C742 C 0.93696 0.39191 0.88028 0.0
C743 C 0.92455 0.41624 0.8666 0.0
N744 N 0.93641 0.39765 0.8402 0.0
C745 C 0.94071 0.38782 0.85782 0.0
C746 C 0.92851 0.41176 0.84435 0.0
C747 C 0.9288 0.40622 0.88465 0.0
C748 C 0.96804 0.39179 0.73829 0.0
N749 N 0.97368 0.37974 0.75196 0.0
C750 C 0.97866 0.40175 0.72645 0.0
C751 C 0.99515 0.39929 0.72861 0.0
C752 C 0.00081 0.38693 0.74249 0.0
C753 C 0.98983 0.37723 0.75411 0.0
C754 C 0.98067 0.33062 0.72982 0.0
C755 C 0.97316 0.33568 0.77523 0.0
C756 C 0.97297 0.34469 0.73689 0.0
N757 N 0.96941 0.3471 0.75938 0.0
C758 C 0.98086 0.32147 0.76879 0.0
C759 C 0.98464 0.31896 0.74592 0.0
C760 C 0.93603 0.3554 0.8057 0.0
C761 C 0.90213 0.408 0.77212 0.0
C762 C 0.90741 0.38951 0.81062 0.0
C763 C 0.89169 0.39222 0.80321 0.0
C764 C 0.88907 0.40153 0.78382 0.0
N765 N 0.92015 0.39596 0.7991 0.0
C766 C 0.91768 0.40506 0.78004 0.0
Co767 Co 0.38614 0.21095 0.51881 0.0
Co768 Co 0.36037 0.19214 0.5563 0.0
O769 O 0.36647 0.19927 0.52583 0.0
C770 C 0.38647 0.18333 0.48675 0.0
O771 O 0.38221 0.1739 0.50364 0.0
C772 C 0.33252 0.21122 0.54057 0.0
O773 O 0.34255 0.2231 0.53676 0.0
O774 O 0.36446 0.2139 0.56941 0.0
O775 O 0.38401 0.22409 0.54719 0.0
H776 H 0.36621 0.18641 0.64116 0.0
H777 H 0.35958 0.20881 0.48532 0.0
O778 O 0.38864 0.19829 0.49009 0.0
H779 H 0.36814 0.26681 0.49763 0.0
H780 H 0.42526 0.23897 0.46673 0.0
H781 H 0.41439 0.22159 0.54559 0.0
H782 H 0.38513 0.24682 0.51717 0.0
H783 H 0.40015 0.22471 0.47622 0.0
O784 O 0.33757 0.19812 0.54926 0.0
H785 H 0.37423 0.19525 0.60268 0.0
H786 H 0.33233 0.17392 0.5745 0.0
H787 H 0.43959 0.23596 0.5369 0.0
H788 H 0.3424 0.22836 0.46522 0.0
H789 H 0.44516 0.24475 0.49721 0.0
H790 H 0.34658 0.2576 0.4714 0.0
O791 O 0.3993 0.19476 0.53551 0.0
H792 H 0.33827 0.15273 0.49938 0.0
H793 H 0.37007 0.15897 0.56975 0.0
H794 H 0.36592 0.1319 0.55363 0.0
H795 H 0.34989 0.12866 0.51821 0.0
H796 H 0.34284 0.17959 0.51594 0.0
H797 H 0.32379 0.16494 0.6127 0.0
H798 H 0.34082 0.17114 0.64635 0.0
O799 O 0.38303 0.18596 0.56348 0.0
C800 C 0.37498 0.2246 0.56477 0.0
C801 C 0.35871 0.1836 0.62662 0.0
C802 C 0.33489 0.17157 0.61066 0.0
N803 N 0.35382 0.185 0.58636 0.0
C804 C 0.36321 0.18853 0.60479 0.0
C805 C 0.33977 0.17671 0.58908 0.0
C806 C 0.34446 0.17504 0.62953 0.0
C807 C 0.36153 0.22151 0.488 0.0
N808 N 0.37329 0.22667 0.50253 0.0
C809 C 0.35174 0.23253 0.47661 0.0
C810 C 0.35408 0.24893 0.48011 0.0
C811 C 0.36616 0.25411 0.49485 0.0
C812 C 0.37569 0.24274 0.50598 0.0
C813 C 0.42296 0.23523 0.48409 0.0
C814 C 0.41668 0.22547 0.52832 0.0
C815 C 0.40879 0.22711 0.48956 0.0
N816 N 0.40576 0.22242 0.51147 0.0
C817 C 0.43099 0.23356 0.52348 0.0
C818 C 0.43412 0.23847 0.50121 0.0
C819 C 0.39674 0.18679 0.55375 0.0
C820 C 0.34522 0.15399 0.51486 0.0
C821 C 0.36312 0.15766 0.5543 0.0
C822 C 0.36078 0.1423 0.54528 0.0
C823 C 0.35177 0.14049 0.52542 0.0
N824 N 0.35664 0.17085 0.54387 0.0
C825 C 0.34779 0.16916 0.52439 0.0
Co826 Co 0.543 0.63451 0.26817 0.0
Co827 Co 0.56028 0.60943 0.30794 0.0
O828 O 0.55442 0.61505 0.2768 0.0
C829 C 0.57189 0.63701 0.23833 0.0
O830 O 0.5811 0.63754 0.25649 0.0
C831 C 0.54164 0.58173 0.29116 0.0
O832 O 0.53065 0.59216 0.28495 0.0
O833 O 0.53813 0.61389 0.31921 0.0
O834 O 0.52886 0.63312 0.29569 0.0
H835 H 0.56286 0.61681 0.39287 0.0
H836 H 0.54621 0.60735 0.23573 0.0
O837 O 0.55668 0.636 0.2402 0.0
H838 H 0.48789 0.61589 0.24433 0.0
H839 H 0.51713 0.67232 0.21211 0.0
H840 H 0.53135 0.6634 0.29272 0.0
H841 H 0.50724 0.63325 0.26455 0.0
H842 H 0.53101 0.64749 0.22393 0.0
O843 O 0.55427 0.58652 0.30141 0.0
H844 H 0.55557 0.62418 0.35349 0.0
H845 H 0.57753 0.5816 0.32852 0.0
H846 H 0.51735 0.68835 0.28168 0.0
H847 H 0.52732 0.58981 0.21501 0.0
H848 H 0.51015 0.69293 0.24111 0.0
H849 H 0.49792 0.59398 0.21933 0.0
O850 O 0.55848 0.64808 0.2857 0.0
H851 H 0.60153 0.58639 0.25455 0.0
H852 H 0.59296 0.61901 0.32369 0.0
H853 H 0.62055 0.61445 0.30973 0.0
H854 H 0.62497 0.59801 0.27495 0.0
H855 H 0.57414 0.59134 0.269 0.0
H856 H 0.58495 0.57369 0.36765 0.0
H857 H 0.57766 0.59139 0.40015 0.0
O858 O 0.56635 0.63218 0.31469 0.0
C859 C 0.5277 0.62441 0.31353 0.0
C860 C 0.56615 0.60902 0.37885 0.0
C861 C 0.57853 0.58481 0.3647 0.0
N862 N 0.56622 0.60339 0.33873 0.0
C863 C 0.56209 0.61315 0.35651 0.0
C864 C 0.57426 0.58933 0.34259 0.0
C865 C 0.57444 0.59475 0.38292 0.0
C866 C 0.53344 0.60934 0.23755 0.0
N867 N 0.52783 0.6213 0.25139 0.0
C868 C 0.5228 0.59932 0.22583 0.0
C869 C 0.50631 0.60165 0.22829 0.0
C870 C 0.50068 0.61393 0.24234 0.0
C871 C 0.51168 0.62368 0.25384 0.0
C872 C 0.52018 0.67045 0.22985 0.0
C873 C 0.52816 0.66526 0.27506 0.0
C874 C 0.52807 0.65643 0.23663 0.0
N875 N 0.53187 0.65395 0.25902 0.0
C876 C 0.52028 0.67943 0.2689 0.0
C877 C 0.51626 0.682 0.24613 0.0
C878 C 0.5658 0.64577 0.30458 0.0
C879 C 0.59976 0.59353 0.26977 0.0
C880 C 0.59479 0.61186 0.30851 0.0
C881 C 0.61044 0.6093 0.30072 0.0
C882 C 0.61291 0.60007 0.2812 0.0
N883 N 0.58196 0.60535 0.29726 0.0
C884 C 0.58429 0.59633 0.27808 0.0
Co885 Co 0.11646 0.79332 0.01666 0.0
Co886 Co 0.14112 0.80987 0.05744 0.0
O887 O 0.13577 0.80461 0.02604 0.0
C888 C 0.11416 0.82273 0.98783 0.0
O889 O 0.11329 0.83161 0.00628 0.0
C890 C 0.16919 0.79165 0.0409 0.0
O891 O 0.15917 0.78003 0.03572 0.0
O892 O 0.13681 0.78741 0.06771 0.0
O893 O 0.11763 0.77873 0.04367 0.0
H894 H 0.13343 0.81049 0.14239 0.0
H895 H 0.14409 0.79715 0.98519 0.0
O896 O 0.11524 0.8075 0.98916 0.0
H897 H 0.13529 0.73868 0.99105 0.0
H898 H 0.07921 0.76843 0.95896 0.0
H899 H 0.08739 0.78116 0.04023 0.0
H900 H 0.11768 0.75764 0.01153 0.0
H901 H 0.1039 0.78214 0.97174 0.0
O902 O 0.16408 0.80436 0.05063 0.0
H903 H 0.12627 0.80399 0.10265 0.0
H904 H 0.16867 0.82696 0.07897 0.0
H905 H 0.06258 0.76731 0.02821 0.0
H906 H 0.16191 0.77864 0.96423 0.0
H907 H 0.05837 0.76085 0.9873 0.0
H908 H 0.1576 0.74917 0.96716 0.0
O909 O 0.10271 0.80848 0.0345 0.0
H910 H 0.16381 0.85261 0.00611 0.0
H911 H 0.13111 0.84207 0.0746 0.0
H912 H 0.13539 0.87002 0.06197 0.0
H913 H 0.15188 0.87543 0.02752 0.0
H914 H 0.15913 0.82484 0.01923 0.0
H915 H 0.17637 0.83361 0.11848 0.0
H916 H 0.15865 0.82541 0.1505 0.0
O917 O 0.11828 0.8155 0.06427 0.0
C918 C 0.12629 0.77714 0.06149 0.0
C919 C 0.14122 0.81418 0.12858 0.0
C920 C 0.16534 0.82713 0.11516 0.0
N921 N 0.14698 0.81519 0.08852 0.0
C922 C 0.13721 0.81057 0.10604 0.0
C923 C 0.16094 0.8233 0.09283 0.0
C924 C 0.15538 0.82253 0.13312 0.0
C925 C 0.14206 0.78434 0.98643 0.0
N926 N 0.12987 0.77848 0.99963 0.0
C927 C 0.15222 0.77392 0.97457 0.0
C928 C 0.14981 0.75739 0.97625 0.0
C929 C 0.13731 0.75149 0.98966 0.0
C930 C 0.12742 0.76228 0.00131 0.0
C931 C 0.08092 0.77115 0.97683 0.0
C932 C 0.08569 0.7783 0.02242 0.0
C933 C 0.09486 0.77895 0.98417 0.0
N934 N 0.09713 0.78233 0.00674 0.0
C935 C 0.0716 0.7705 0.01571 0.0
C936 C 0.06924 0.7669 0.99275 0.0
C937 C 0.1048 0.81525 0.05384 0.0
C938 C 0.15665 0.85041 0.02119 0.0
C939 C 0.13828 0.84433 0.05957 0.0
C940 C 0.14068 0.86018 0.05252 0.0
C941 C 0.14994 0.86321 0.0332 0.0
N942 N 0.14496 0.83184 0.04776 0.0
C943 C 0.15401 0.83471 0.02875 0.0
Co944 Co 0.54499 0.86791 0.76816 0.0
Co945 Co 0.56055 0.89291 0.80941 0.0
O946 O 0.55542 0.88766 0.77787 0.0
C947 C 0.5743 0.86696 0.7389 0.0
O948 O 0.58333 0.86618 0.7572 0.0
C949 C 0.54114 0.92015 0.79289 0.0
O950 O 0.53059 0.90943 0.78612 0.0
O951 O 0.53841 0.88734 0.81979 0.0
O952 O 0.53052 0.86808 0.79534 0.0
H953 H 0.56216 0.88398 0.89408 0.0
H954 H 0.54739 0.89579 0.73685 0.0
O955 O 0.55906 0.86759 0.74048 0.0
H956 H 0.4894 0.8846 0.74373 0.0
H957 H 0.52145 0.83016 0.70994 0.0
H958 H 0.53436 0.83803 0.79122 0.0
H959 H 0.50925 0.86771 0.76375 0.0
H960 H 0.5341 0.85532 0.72311 0.0
O961 O 0.55374 0.91567 0.80347 0.0
H962 H 0.5558 0.87707 0.85421 0.0
H963 H 0.57625 0.92104 0.83159 0.0
H964 H 0.52158 0.81274 0.77882 0.0
H965 H 0.52799 0.91289 0.71634 0.0
H966 H 0.51504 0.80869 0.73791 0.0
H967 H 0.49875 0.90738 0.71979 0.0
O968 O 0.56085 0.8547 0.78555 0.0
H969 H 0.60168 0.91856 0.75827 0.0
H970 H 0.59333 0.88439 0.82592 0.0
H971 H 0.62093 0.89031 0.81308 0.0
H972 H 0.62523 0.90754 0.77905 0.0
H973 H 0.57429 0.91225 0.7716 0.0
H974 H 0.58274 0.92849 0.87125 0.0
H975 H 0.57573 0.90986 0.90281 0.0
O976 O 0.56745 0.8703 0.81549 0.0
C977 C 0.52864 0.87639 0.81344 0.0
C978 C 0.56532 0.89218 0.88048 0.0
C979 C 0.57684 0.91717 0.86766 0.0
N980 N 0.56574 0.89859 0.8406 0.0
C981 C 0.56178 0.88831 0.85786 0.0
C982 C 0.57311 0.91291 0.84525 0.0
C983 C 0.57292 0.90671 0.88536 0.0
C984 C 0.53469 0.89322 0.73828 0.0
N985 N 0.52945 0.88077 0.75153 0.0
C986 C 0.52376 0.90298 0.72668 0.0
C987 C 0.50736 0.8999 0.72866 0.0
C988 C 0.50211 0.88714 0.74212 0.0
C989 C 0.51339 0.87765 0.7535 0.0
C990 C 0.52422 0.8318 0.72782 0.0
C991 C 0.53146 0.83639 0.77341 0.0
C992 C 0.53141 0.84601 0.73537 0.0
N993 N 0.53485 0.84819 0.75794 0.0
C994 C 0.52427 0.82203 0.76648 0.0
C995 C 0.52062 0.81976 0.74352 0.0
C996 C 0.56773 0.85693 0.80477 0.0
C997 C 0.59996 0.91108 0.77317 0.0
C998 C 0.59511 0.89187 0.81107 0.0
C999 C 0.61076 0.89521 0.8039 0.0
C1000 C 0.61317 0.90488 0.78482 0.0
N1001 N 0.58221 0.89806 0.79961 0.0
C1002 C 0.58448 0.90751 0.78084 0.0
Co1003 Co 0.38635 0.29391 0.01643 0.0
Co1004 Co 0.36035 0.3091 0.05637 0.0
O1005 O 0.36617 0.30398 0.02507 0.0
C1006 C 0.38556 0.32274 0.98685 0.0
O1007 O 0.38402 0.33157 0.00527 0.0
C1008 C 0.33285 0.28998 0.03952 0.0
O1009 O 0.34318 0.27865 0.03424 0.0
O1010 O 0.36531 0.28677 0.06653 0.0
O1011 O 0.38613 0.27998 0.04417 0.0
H1012 H 0.36727 0.30968 0.14143 0.0
H1013 H 0.35918 0.29483 0.98374 0.0
O1014 O 0.38682 0.30752 0.98834 0.0
H1015 H 0.37134 0.23732 0.99454 0.0
H1016 H 0.42555 0.27012 0.96045 0.0
H1017 H 0.41615 0.28467 0.04084 0.0
H1018 H 0.38727 0.25807 0.01432 0.0
H1019 H 0.39988 0.28237 0.97231 0.0
O1020 O 0.33764 0.30281 0.04925 0.0
H1021 H 0.37496 0.3035 0.10178 0.0
H1022 H 0.3321 0.3253 0.07751 0.0
H1023 H 0.44195 0.27233 0.02977 0.0
H1024 H 0.34303 0.27448 0.96349 0.0
H1025 H 0.44677 0.26496 0.98931 0.0
H1026 H 0.34905 0.24549 0.96889 0.0
O1027 O 0.39879 0.31045 0.03353 0.0
H1028 H 0.33658 0.35101 0.00469 0.0
H1029 H 0.36903 0.34166 0.07375 0.0
H1030 H 0.36387 0.36943 0.06103 0.0
H1031 H 0.34751 0.37425 0.02628 0.0
H1032 H 0.34213 0.32343 0.01791 0.0
H1033 H 0.32389 0.33161 0.11692 0.0
H1034 H 0.34157 0.32384 0.1492 0.0
O1035 O 0.38294 0.31564 0.06368 0.0
C1036 C 0.37699 0.27753 0.06128 0.0
C1037 C 0.35949 0.31318 0.12751 0.0
C1038 C 0.33513 0.32547 0.11375 0.0
N1039 N 0.35406 0.31416 0.08736 0.0
C1040 C 0.3638 0.30975 0.10502 0.0
C1041 C 0.33983 0.32183 0.09148 0.0
C1042 C 0.34506 0.32111 0.13185 0.0
C1043 C 0.36197 0.28225 0.98601 0.0
N1044 N 0.37421 0.27765 1.00011 0.0
C1045 C 0.35274 0.27078 0.97456 0.0
C1046 C 0.35611 0.25451 0.97763 0.0
C1047 C 0.36861 0.24992 0.99203 0.0
C1048 C 0.37757 0.26172 0.00323 0.0
C1049 C 0.42358 0.27325 0.97814 0.0
C1050 C 0.41813 0.28141 0.02323 0.0
C1051 C 0.40908 0.28021 0.98494 0.0
N1052 N 0.40648 0.28411 0.00727 0.0
C1053 C 0.43277 0.27447 0.01705 0.0
C1054 C 0.43548 0.27035 0.99434 0.0
C1055 C 0.39632 0.3167 0.0531 0.0
C1056 C 0.34368 0.34907 0.01989 0.0
C1057 C 0.36192 0.34365 0.05859 0.0
C1058 C 0.35902 0.35941 0.05149 0.0
C1059 C 0.34984 0.3621 0.032 0.0
N1060 N 0.3558 0.33093 0.04666 0.0
C1061 C 0.34681 0.33348 0.02751 0.0
Co1062 Co 0.95821 0.13406 0.26827 0.0
Co1063 Co 0.94124 0.10897 0.30827 0.0
O1064 O 0.94695 0.11456 0.27708 0.0
C1065 C 0.92916 0.13588 0.23873 0.0
O1066 O 0.92006 0.13617 0.25699 0.0
C1067 C 0.95991 0.08139 0.29122 0.0
O1068 O 0.97088 0.09188 0.28512 0.0
O1069 O 0.96342 0.11358 0.31934 0.0
O1070 O 0.97244 0.13286 0.2957 0.0
H1071 H 0.93887 0.11652 0.39318 0.0
H1072 H 0.95508 0.10675 0.23606 0.0
O1073 O 0.9444 0.13533 0.24041 0.0
H1074 H 0.01336 0.11581 0.24414 0.0
H1075 H 0.98358 0.17191 0.21179 0.0
H1076 H 0.96972 0.16312 0.29255 0.0
H1077 H 0.99396 0.13308 0.26438 0.0
H1078 H 0.96993 0.147 0.22386 0.0
O1079 O 0.94733 0.08608 0.30168 0.0
H1080 H 0.94596 0.12387 0.35372 0.0
H1081 H 0.9243 0.08104 0.32908 0.0
H1082 H 0.98349 0.18814 0.28126 0.0
H1083 H 0.97404 0.0893 0.21531 0.0
H1084 H 0.99051 0.19265 0.24061 0.0
H1085 H 0.00342 0.09372 0.21937 0.0
O1086 O 0.94267 0.14756 0.28582 0.0
H1087 H 0.89988 0.08567 0.25527 0.0
H1088 H 0.90857 0.11836 0.3243 0.0
H1089 H 0.88095 0.11364 0.3106 0.0
H1090 H 0.87647 0.09715 0.27588 0.0
H1091 H 0.9273 0.09078 0.26947 0.0
H1092 H 0.91707 0.07315 0.36831 0.0
H1093 H 0.92432 0.09098 0.40067 0.0
O1094 O 0.93506 0.13171 0.31499 0.0
C1095 C 0.97374 0.12419 0.31356 0.0
C1096 C 0.93561 0.10867 0.37922 0.0
C1097 C 0.9234 0.08431 0.36526 0.0
N1098 N 0.93546 0.10295 0.33912 0.0
C1099 C 0.93955 0.11279 0.35684 0.0
C1100 C 0.92755 0.08882 0.3431 0.0
C1101 C 0.92746 0.09433 0.38341 0.0
C1102 C 0.96785 0.10886 0.23775 0.0
N1103 N 0.97341 0.12092 0.25147 0.0
C1104 C 0.97852 0.09889 0.22602 0.0
C1105 C 0.995 0.10136 0.22834 0.0
C1106 C 1.00059 0.11374 0.24226 0.0
C1107 C 0.98956 0.12344 0.25377 0.0
C1108 C 0.98061 0.17006 0.22956 0.0
C1109 C 0.97283 0.16495 0.27486 0.0
C1110 C 0.97285 0.156 0.23649 0.0
N1111 N 0.96915 0.15356 0.25892 0.0
C1112 C 0.98058 0.17916 0.26855 0.0
C1113 C 0.9845 0.1817 0.24574 0.0
C1114 C 0.93546 0.14527 0.30477 0.0
C1115 C 0.90168 0.09282 0.27047 0.0
C1116 C 0.90672 0.11119 0.30915 0.0
C1117 C 0.89105 0.10854 0.3015 0.0
C1118 C 0.88855 0.09929 0.28202 0.0
N1119 N 0.91953 0.10475 0.29778 0.0
C1120 C 0.91717 0.09571 0.27863 0.0
Co1121 Co 0.11814 0.71116 0.52165 0.0
Co1122 Co 0.14263 0.69048 0.55921 0.0
O1123 O 0.13709 0.6984 0.52891 0.0
C1124 C 0.11609 0.6827 0.49144 0.0
O1125 O 0.12101 0.67385 0.50859 0.0
C1126 C 0.17048 0.71017 0.54505 0.0
O1127 O 0.16031 0.72186 0.54081 0.0
O1128 O 0.13797 0.71181 0.57357 0.0
O1129 O 0.12153 0.72472 0.54921 0.0
H1130 H 0.13474 0.68185 0.64323 0.0
H1131 H 0.14385 0.70633 0.48736 0.0
O1132 O 0.1143 0.69781 0.49379 0.0
H1133 H 0.14001 0.76503 0.49777 0.0
H1134 H 0.08041 0.74029 0.46879 0.0
H1135 H 0.09115 0.72473 0.54844 0.0
H1136 H 0.12192 0.74676 0.51872 0.0
H1137 H 0.10455 0.72452 0.47859 0.0
O1138 O 0.16549 0.69699 0.55357 0.0
H1139 H 0.12749 0.69171 0.60494 0.0
H1140 H 0.17063 0.67233 0.5777 0.0
H1141 H 0.06695 0.74062 0.53943 0.0
H1142 H 0.1621 0.72415 0.46593 0.0
H1143 H 0.06145 0.7485 0.49934 0.0
H1144 H 0.16028 0.75372 0.47114 0.0
O1145 O 0.10403 0.69647 0.53953 0.0
H1146 H 0.16634 0.65329 0.50062 0.0
H1147 H 0.1336 0.65672 0.57049 0.0
H1148 H 0.13848 0.63026 0.55284 0.0
H1149 H 0.15497 0.62843 0.51765 0.0
H1150 H 0.16101 0.67951 0.51868 0.0
H1151 H 0.1784 0.66235 0.61573 0.0
H1152 H 0.16037 0.66705 0.6488 0.0
O1153 O 0.11991 0.68372 0.56481 0.0
C1154 C 0.12925 0.72381 0.56794 0.0
C1155 C 0.14268 0.67969 0.62894 0.0
C1156 C 0.1672 0.66877 0.61352 0.0
N1157 N 0.14858 0.68253 0.5891 0.0
C1158 C 0.13862 0.68522 0.60722 0.0
C1159 C 0.16276 0.67449 0.59204 0.0
C1160 C 0.15707 0.6714 0.63206 0.0
C1161 C 0.1429 0.71919 0.48959 0.0
N1162 N 0.13183 0.72551 0.50427 0.0
C1163 C 0.1533 0.72922 0.47746 0.0
C1164 C 0.15229 0.74581 0.48041 0.0
C1165 C 0.14093 0.75216 0.49536 0.0
C1166 C 0.13075 0.74176 0.50724 0.0
C1167 C 0.08269 0.73695 0.48632 0.0
C1168 C 0.08889 0.7282 0.53098 0.0
C1169 C 0.09631 0.72799 0.49197 0.0
N1170 N 0.0993 0.7238 0.51409 0.0
C1171 C 0.07514 0.73716 0.52597 0.0
C1172 C 0.07206 0.74156 0.50348 0.0
C1173 C 0.10618 0.68672 0.55605 0.0
C1174 C 0.15916 0.65393 0.51597 0.0
C1175 C 0.14071 0.65603 0.55512 0.0
C1176 C 0.14348 0.64101 0.54524 0.0
C1177 C 0.15276 0.63999 0.52552 0.0
N1178 N 0.14702 0.66965 0.54566 0.0
C1179 C 0.15616 0.66874 0.52634 0.0
Co1180 Co 0.54308 0.13669 0.73304 0.0
Co1181 Co 0.55981 0.11047 0.69413 0.0
O1182 O 0.55373 0.11657 0.72516 0.0
C1183 C 0.57107 0.13545 0.76471 0.0
O1184 O 0.58023 0.13047 0.74792 0.0
C1185 C 0.54017 0.08344 0.71111 0.0
O1186 O 0.52944 0.09416 0.71728 0.0
O1187 O 0.53796 0.11568 0.68216 0.0
O1188 O 0.52937 0.13548 0.70517 0.0
H1189 H 0.56386 0.11726 0.60923 0.0
H1190 H 0.54463 0.10983 0.76611 0.0
O1191 O 0.55626 0.13841 0.76136 0.0
H1192 H 0.48688 0.12096 0.75602 0.0
H1193 H 0.51761 0.17651 0.78672 0.0
H1194 H 0.53343 0.1657 0.70717 0.0
H1195 H 0.50723 0.13722 0.73599 0.0
H1196 H 0.53055 0.15086 0.77631 0.0
O1197 O 0.55288 0.08786 0.70073 0.0
H1198 H 0.55633 0.12514 0.64832 0.0
H1199 H 0.57623 0.08186 0.67431 0.0
H1200 H 0.52038 0.19145 0.71678 0.0
H1201 H 0.52472 0.09337 0.78671 0.0
H1202 H 0.51238 0.19698 0.75681 0.0
H1203 H 0.4956 0.09884 0.78163 0.0
O1204 O 0.55959 0.14924 0.71602 0.0
H1205 H 0.59939 0.08574 0.74854 0.0
H1206 H 0.59307 0.11878 0.67933 0.0
H1207 H 0.62025 0.11312 0.69402 0.0
H1208 H 0.62354 0.09647 0.72885 0.0
H1209 H 0.57242 0.09182 0.7334 0.0
H1210 H 0.58387 0.07345 0.63547 0.0
H1211 H 0.57773 0.09124 0.60261 0.0
O1212 O 0.56692 0.13292 0.68726 0.0
C1213 C 0.52796 0.12667 0.68749 0.0
C1214 C 0.56664 0.10942 0.62341 0.0
C1215 C 0.57785 0.08482 0.63814 0.0
N1216 N 0.56592 0.10402 0.66358 0.0
C1217 C 0.56244 0.11384 0.64559 0.0
C1218 C 0.57345 0.08963 0.66008 0.0
C1219 C 0.57441 0.09481 0.61971 0.0
C1220 C 0.53199 0.11236 0.76393 0.0
N1221 N 0.52709 0.12441 0.7497 0.0
C1222 C 0.52077 0.10297 0.77559 0.0
C1223 C 0.50443 0.10603 0.7727 0.0
C1224 C 0.49953 0.11841 0.75831 0.0
C1225 C 0.5111 0.12753 0.74688 0.0
C1226 C 0.52102 0.17423 0.76921 0.0
C1227 C 0.5299 0.16799 0.7246 0.0
C1228 C 0.52839 0.15975 0.76323 0.0
N1229 N 0.53265 0.15675 0.74113 0.0
C1230 C 0.52255 0.1826 0.72995 0.0
C1231 C 0.51808 0.18571 0.75242 0.0
C1232 C 0.56704 0.14651 0.69739 0.0
C1233 C 0.59811 0.09297 0.73331 0.0
C1234 C 0.5944 0.11156 0.69454 0.0
C1235 C 0.60982 0.10837 0.70274 0.0
C1236 C 0.61166 0.09901 0.72227 0.0
N1237 N 0.58117 0.10557 0.70543 0.0
C1238 C 0.58287 0.09639 0.72459 0.0
Co1239 Co 0.11521 0.29236 0.97994 0.0
Co1240 Co 0.1422 0.30777 0.9418 0.0
O1241 O 0.13588 0.30201 0.97274 0.0
C1242 C 0.11727 0.31945 0.0127 0.0
O1243 O 0.12075 0.32899 0.99557 0.0
C1244 C 0.16953 0.28838 0.95874 0.0
O1245 O 0.15928 0.27675 0.96292 0.0
O1246 O 0.13736 0.28562 0.93073 0.0
O1247 O 0.11522 0.27978 0.95091 0.0
H1248 H 0.13667 0.30984 0.85657 0.0
H1249 H 0.14185 0.29056 0.01337 0.0
O1250 O 0.11472 0.30455 0.00927 0.0
H1251 H 0.12756 0.23427 0.99656 0.0
H1252 H 0.07426 0.26743 0.03231 0.0
H1253 H 0.08534 0.28583 0.95397 0.0
H1254 H 0.11282 0.25656 0.9784 0.0
H1255 H 0.10061 0.27908 0.02238 0.0
O1256 O 0.16477 0.30138 0.94944 0.0
H1257 H 0.12834 0.30297 0.89573 0.0
H1258 H 0.17079 0.32433 0.92217 0.0
H1259 H 0.05888 0.27414 0.96311 0.0
H1260 H 0.15683 0.26863 0.03204 0.0
H1261 H 0.0532 0.26484 0.00253 0.0
H1262 H 0.14973 0.24024 0.02362 0.0
O1263 O 0.10383 0.31025 0.9643 0.0
H1264 H 0.16537 0.34871 0.9956 0.0
H1265 H 0.13383 0.34066 0.92535 0.0
H1266 H 0.13889 0.36818 0.9392 0.0
H1267 H 0.1548 0.37235 0.97453 0.0
H1268 H 0.15989 0.32138 0.98129 0.0
H1269 H 0.17964 0.33133 0.88329 0.0
H1270 H 0.16249 0.32413 0.85017 0.0
O1271 O 0.11971 0.31453 0.93392 0.0
C1272 C 0.12491 0.27706 0.9345 0.0
C1273 C 0.14422 0.31309 0.87087 0.0
C1274 C 0.16835 0.32514 0.88586 0.0
N1275 N 0.149 0.31338 0.91121 0.0
C1276 C 0.13955 0.30927 0.89308 0.0
C1277 C 0.16329 0.32111 0.90783 0.0
C1278 C 0.15872 0.3211 0.86729 0.0
C1279 C 0.13859 0.27824 0.00978 0.0
N1280 N 0.12642 0.27485 0.99491 0.0
C1281 C 0.14716 0.26587 0.02034 0.0
C1282 C 0.14318 0.24995 0.01558 0.0
C1283 C 0.13075 0.24659 1.00039 0.0
C1284 C 0.12247 0.25926 0.99012 0.0
C1285 C 0.0766 0.27141 0.01506 0.0
C1286 C 0.083 0.28172 0.97113 0.0
C1287 C 0.09149 0.27804 0.00935 0.0
N1288 N 0.09455 0.283 0.98757 0.0
C1289 C 0.06797 0.27515 0.97622 0.0
C1290 C 0.06479 0.26995 0.99834 0.0
C1291 C 0.10647 0.31634 0.94469 0.0
C1292 C 0.15847 0.34705 0.98014 0.0
C1293 C 0.14072 0.34236 0.94079 0.0
C1294 C 0.14358 0.35798 0.94851 0.0
C1295 C 0.15251 0.36031 0.96833 0.0
N1296 N 0.14663 0.32942 0.95243 0.0
C1297 C 0.15538 0.33161 0.9719 0.0
Co1298 Co 0.95713 0.86618 0.23343 0.0
Co1299 Co 0.94064 0.89073 0.19231 0.0
O1300 O 0.9463 0.88573 0.22375 0.0
C1301 C 0.92792 0.86623 0.26237 0.0
O1302 O 0.9192 0.86722 0.24377 0.0
C1303 C 0.95998 0.91821 0.20824 0.0
O1304 O 0.97068 0.90761 0.21488 0.0
O1305 O 0.96267 0.88527 0.18131 0.0
O1306 O 0.97142 0.86659 0.20606 0.0
H1307 H 0.93774 0.88118 0.10785 0.0
H1308 H 0.95439 0.89398 0.26483 0.0
O1309 O 0.94318 0.86556 0.26117 0.0
H1310 H 0.01255 0.88405 0.25697 0.0
H1311 H 0.98176 0.82902 0.29145 0.0
H1312 H 0.96815 0.83647 0.21033 0.0
H1313 H 0.9929 0.86675 0.23723 0.0
H1314 H 0.96854 0.85391 0.27836 0.0
O1315 O 0.94736 0.91359 0.19779 0.0
H1316 H 0.94474 0.87459 0.14761 0.0
H1317 H 0.92446 0.91863 0.17024 0.0
H1318 H 0.98148 0.81145 0.22264 0.0
H1319 H 0.97359 0.91148 0.28506 0.0
H1320 H 0.98838 0.80761 0.26347 0.0
H1321 H 0.00291 0.90661 0.2811 0.0
O1322 O 0.94137 0.85264 0.21641 0.0
H1323 H 0.90013 0.91643 0.24441 0.0
H1324 H 0.90766 0.8819 0.17692 0.0
H1325 H 0.88024 0.88769 0.19056 0.0
H1326 H 0.87634 0.9051 0.22451 0.0
H1327 H 0.92735 0.91023 0.2303 0.0
H1328 H 0.91734 0.92577 0.13069 0.0
H1329 H 0.92394 0.90694 0.09919 0.0
O1330 O 0.93376 0.86803 0.18675 0.0
C1331 C 0.97282 0.87469 0.18769 0.0
C1332 C 0.93477 0.88947 0.12143 0.0
C1333 C 0.92334 0.9145 0.13425 0.0
N1334 N 0.93493 0.89617 0.16122 0.0
C1335 C 0.93867 0.88578 0.14399 0.0
C1336 C 0.92743 0.91041 0.1566 0.0
C1337 C 0.92703 0.90393 0.11658 0.0
C1338 C 0.96713 0.89169 0.26318 0.0
N1339 N 0.97253 0.87936 0.24982 0.0
C1340 C 0.97794 0.90168 0.27462 0.0
C1341 C 0.99439 0.89895 0.27236 0.0
C1342 C 0.9998 0.88631 0.2588 0.0
C1343 C 0.98863 0.87659 0.24758 0.0
C1344 C 0.97884 0.83056 0.2736 0.0
C1345 C 0.97121 0.83492 0.2281 0.0
C1346 C 0.97133 0.84461 0.2661 0.0
N1347 N 0.9677 0.84668 0.24357 0.0
C1348 C 0.97871 0.82071 0.23498 0.0
C1349 C 0.98256 0.81856 0.25789 0.0
C1350 C 0.93395 0.85469 0.19756 0.0
C1351 C 0.90167 0.90887 0.22955 0.0
C1352 C 0.90607 0.88946 0.19173 0.0
C1353 C 0.89051 0.89272 0.19935 0.0
C1354 C 0.88833 0.90249 0.2184 0.0
N1355 N 0.9191 0.8958 0.20271 0.0
C1356 C 0.91706 0.90537 0.22143 0.0
Co1357 Co 0.3864 0.70997 0.47998 0.0
Co1358 Co 0.3602 0.69144 0.44282 0.0
O1359 O 0.36658 0.69846 0.47323 0.0
C1360 C 0.38673 0.68229 0.51197 0.0
O1361 O 0.38232 0.67292 0.49509 0.0
C1362 C 0.33256 0.71058 0.45918 0.0
O1363 O 0.34267 0.72237 0.46314 0.0
O1364 O 0.36431 0.7132 0.42979 0.0
O1365 O 0.38416 0.72317 0.45166 0.0
H1366 H 0.36536 0.68588 0.35784 0.0
H1367 H 0.36008 0.70802 0.51388 0.0
O1368 O 0.38899 0.69725 0.50863 0.0
H1369 H 0.36909 0.76596 0.50163 0.0
H1370 H 0.42616 0.73759 0.53153 0.0
H1371 H 0.41453 0.72041 0.45278 0.0
H1372 H 0.38573 0.74584 0.48175 0.0
H1373 H 0.40086 0.72353 0.52239 0.0
O1374 O 0.3375 0.69753 0.45022 0.0
H1375 H 0.37373 0.69456 0.39625 0.0
H1376 H 0.3319 0.67345 0.42495 0.0
H1377 H 0.43991 0.73457 0.46112 0.0
H1378 H 0.34325 0.7277 0.53432 0.0
H1379 H 0.44585 0.74326 0.50074 0.0
H1380 H 0.34766 0.75691 0.52817 0.0
O1381 O 0.39929 0.69367 0.46303 0.0
H1382 H 0.3383 0.65203 0.49989 0.0
H1383 H 0.36957 0.65823 0.42903 0.0
H1384 H 0.36539 0.63116 0.44509 0.0
H1385 H 0.34963 0.62793 0.48075 0.0
H1386 H 0.34291 0.67889 0.48338 0.0
H1387 H 0.32301 0.66463 0.38683 0.0
H1388 H 0.33982 0.6708 0.35296 0.0
O1389 O 0.38275 0.68512 0.43523 0.0
C1390 C 0.37495 0.7238 0.43427 0.0
C1391 C 0.35795 0.68308 0.37248 0.0
C1392 C 0.33417 0.67118 0.38874 0.0
N1393 N 0.35337 0.68442 0.41282 0.0
C1394 C 0.36265 0.68793 0.39427 0.0
C1395 C 0.33925 0.67623 0.41027 0.0
C1396 C 0.34361 0.67463 0.36974 0.0
C1397 C 0.36213 0.72071 0.5112 0.0
N1398 N 0.37382 0.72578 0.4965 0.0
C1399 C 0.35254 0.7318 0.52279 0.0
C1400 C 0.355 0.74818 0.51931 0.0
C1401 C 0.36701 0.75327 0.5044 0.0
C1402 C 0.37634 0.74183 0.49307 0.0
C1403 C 0.42369 0.73388 0.51419 0.0
C1404 C 0.41699 0.72425 0.47003 0.0
C1405 C 0.40941 0.72588 0.50892 0.0
N1406 N 0.40618 0.72126 0.48704 0.0
C1407 C 0.4314 0.73222 0.47467 0.0
C1408 C 0.43473 0.73707 0.49691 0.0
C1409 C 0.39652 0.68577 0.44479 0.0
C1410 C 0.34514 0.65328 0.4843 0.0
C1411 C 0.36274 0.65693 0.44459 0.0
C1412 C 0.36038 0.64157 0.45357 0.0
C1413 C 0.35152 0.63976 0.47357 0.0
N1414 N 0.35643 0.67013 0.45519 0.0
C1415 C 0.34773 0.66846 0.4748 0.0
Co1416 Co 0.45793 0.13554 0.23262 0.0
Co1417 Co 0.44054 0.10892 0.1945 0.0
O1418 O 0.44668 0.1156 0.22528 0.0
C1419 C 0.42861 0.13618 0.26158 0.0
O1420 O 0.42045 0.12964 0.24485 0.0
C1421 C 0.46053 0.08239 0.21238 0.0
O1422 O 0.47088 0.09334 0.21902 0.0
O1423 O 0.46223 0.11431 0.18199 0.0
O1424 O 0.4727 0.13245 0.20626 0.0
H1425 H 0.43552 0.1147 0.10955 0.0
H1426 H 0.45355 0.11027 0.26766 0.0
O1427 O 0.44353 0.13917 0.25939 0.0
H1428 H 0.51215 0.11783 0.26132 0.0
H1429 H 0.48288 0.1762 0.28549 0.0
H1430 H 0.47041 0.16287 0.20551 0.0
H1431 H 0.49355 0.13426 0.23834 0.0
H1432 H 0.46907 0.15086 0.27584 0.0
O1433 O 0.44794 0.08652 0.20151 0.0
H1434 H 0.44322 0.12317 0.14833 0.0
H1435 H 0.42462 0.07969 0.1756 0.0
H1436 H 0.48436 0.18829 0.21437 0.0
H1437 H 0.47169 0.09367 0.29113 0.0
H1438 H 0.49068 0.19509 0.25462 0.0
H1439 H 0.50123 0.09735 0.28796 0.0
O1440 O 0.44295 0.14829 0.21321 0.0
H1441 H 0.4019 0.08413 0.25021 0.0
H1442 H 0.40698 0.1162 0.17991 0.0
H1443 H 0.38004 0.11018 0.19519 0.0
H1444 H 0.37738 0.094 0.23057 0.0
H1445 H 0.42861 0.09058 0.23449 0.0
H1446 H 0.41683 0.07069 0.13709 0.0
H1447 H 0.42222 0.08828 0.10375 0.0
O1448 O 0.43296 0.13109 0.18723 0.0
C1449 C 0.47328 0.12403 0.18813 0.0
C1450 C 0.43307 0.10694 0.12395 0.0
C1451 C 0.42261 0.08223 0.1394 0.0
N1452 N 0.43432 0.10197 0.1642 0.0
C1453 C 0.43738 0.11169 0.14595 0.0
C1454 C 0.42709 0.08737 0.16115 0.0
C1455 C 0.42563 0.09211 0.1207 0.0
C1456 C 0.46638 0.11203 0.26633 0.0
N1457 N 0.47249 0.12319 0.2516 0.0
C1458 C 0.4766 0.10256 0.2796 0.0
C1459 C 0.49317 0.10462 0.27779 0.0
C1460 C 0.49931 0.11609 0.26283 0.0
C1461 C 0.48873 0.12531 0.24978 0.0
C1462 C 0.48022 0.17336 0.26788 0.0
C1463 C 0.47322 0.1657 0.22305 0.0
C1464 C 0.47237 0.15904 0.26232 0.0
N1465 N 0.46905 0.15534 0.24011 0.0
C1466 C 0.48107 0.18013 0.22797 0.0
C1467 C 0.4846 0.18395 0.25055 0.0
C1468 C 0.43434 0.14514 0.19575 0.0
C1469 C 0.4029 0.09115 0.23475 0.0
C1470 C 0.40593 0.10923 0.19537 0.0
C1471 C 0.39064 0.10581 0.20391 0.0
C1472 C 0.38915 0.09672 0.22375 0.0
N1473 N 0.41937 0.10372 0.20626 0.0
C1474 C 0.418 0.09478 0.2257 0.0
Co1475 Co 0.61555 0.71001 0.98166 0.0
Co1476 Co 0.64085 0.69209 0.9428 0.0
O1477 O 0.635 0.69839 0.97365 0.0
C1478 C 0.61367 0.68121 0.01133 0.0
O1479 O 0.61484 0.67222 0.99301 0.0
C1480 C 0.66877 0.71075 0.9591 0.0
O1481 O 0.65869 0.72244 0.96375 0.0
O1482 O 0.63674 0.71419 0.93096 0.0
O1483 O 0.61742 0.72393 0.95397 0.0
H1484 H 0.63445 0.6887 0.85776 0.0
H1485 H 0.64233 0.70677 0.01469 0.0
O1486 O 0.61355 0.69647 0.00971 0.0
H1487 H 0.63438 0.76512 0.00519 0.0
H1488 H 0.57734 0.73661 0.03648 0.0
H1489 H 0.58709 0.72178 0.95628 0.0
H1490 H 0.61707 0.74579 0.98487 0.0
H1491 H 0.60216 0.7224 0.02543 0.0
O1492 O 0.66372 0.69784 0.94985 0.0
H1493 H 0.6267 0.6965 0.89681 0.0
H1494 H 0.66869 0.6743 0.92325 0.0
H1495 H 0.56216 0.73611 0.96655 0.0
H1496 H 0.65983 0.72566 0.03552 0.0
H1497 H 0.55716 0.74362 0.00691 0.0
H1498 H 0.65594 0.75507 0.03075 0.0
O1499 O 0.60202 0.69449 0.96412 0.0
H1500 H 0.66278 0.65113 0.99755 0.0
H1501 H 0.63105 0.65935 0.92753 0.0
H1502 H 0.6351 0.63186 0.94217 0.0
H1503 H 0.65109 0.62761 0.9774 0.0
H1504 H 0.65833 0.67842 0.98242 0.0
H1505 H 0.67697 0.66635 0.88447 0.0
H1506 H 0.65975 0.6735 0.85141 0.0
O1507 O 0.61813 0.68621 0.93562 0.0
C1508 C 0.6263 0.72481 0.93626 0.0
C1509 C 0.64203 0.68546 0.87204 0.0
C1510 C 0.6659 0.67294 0.88702 0.0
N1511 N 0.64717 0.68576 0.91228 0.0
C1512 C 0.63768 0.68981 0.89418 0.0
C1513 C 0.66118 0.67751 0.90893 0.0
C1514 C 0.65624 0.67695 0.86848 0.0
C1515 C 0.64049 0.71955 0.01265 0.0
N1516 N 0.62871 0.72518 0.99852 0.0
C1517 C 0.65047 0.73019 0.02444 0.0
C1518 C 0.6483 0.74669 0.02173 0.0
C1519 C 0.63621 0.75234 0.00737 0.0
C1520 C 0.62649 0.74134 0.99582 0.0
C1521 C 0.57939 0.73343 0.01884 0.0
C1522 C 0.58504 0.7251 0.97386 0.0
C1523 C 0.59341 0.72535 0.01249 0.0
N1524 N 0.59612 0.72139 0.99021 0.0
C1525 C 0.57088 0.73317 0.97958 0.0
C1526 C 0.56808 0.73737 0.00223 0.0
C1527 C 0.60445 0.68697 0.94545 0.0
C1528 C 0.65583 0.65282 0.98214 0.0
C1529 C 0.638 0.6576 0.94289 0.0
C1530 C 0.64027 0.64201 0.95108 0.0
C1531 C 0.64925 0.63963 0.97085 0.0
N1532 N 0.64454 0.67047 0.95403 0.0
C1533 C 0.65333 0.66824 0.97344 0.0
Co1534 Co 0.04257 0.86622 0.73141 0.0
Co1535 Co 0.06037 0.89111 0.69177 0.0
O1536 O 0.05394 0.88571 0.72277 0.0
C1537 C 0.07132 0.8654 0.76121 0.0
O1538 O 0.0803 0.86667 0.7429 0.0
C1539 C 0.04096 0.91858 0.70752 0.0
O1540 O 0.03005 0.90801 0.71353 0.0
O1541 O 0.03856 0.88607 0.67963 0.0
O1542 O 0.0287 0.86741 0.70362 0.0
H1543 H 0.06511 0.88271 0.60722 0.0
H1544 H 0.04536 0.89348 0.76375 0.0
O1545 O 0.05607 0.86486 0.75956 0.0
H1546 H 0.98717 0.88475 0.75395 0.0
H1547 H 0.01634 0.82856 0.78735 0.0
H1548 H 0.03131 0.83715 0.70694 0.0
H1549 H 0.00677 0.86737 0.73428 0.0
H1550 H 0.03024 0.8534 0.77555 0.0
O1551 O 0.05377 0.91395 0.69756 0.0
H1552 H 0.05711 0.87564 0.64644 0.0
H1553 H 0.07738 0.91911 0.67125 0.0
H1554 H 0.01731 0.81219 0.71796 0.0
H1555 H 0.0262 0.91104 0.78394 0.0
H1556 H 0.00973 0.80778 0.75843 0.0
H1557 H 0.99687 0.90678 0.77901 0.0
O1558 O 0.05833 0.85265 0.71444 0.0
H1559 H 0.09994 0.9156 0.74641 0.0
H1560 H 0.09359 0.88209 0.67765 0.0
H1561 H 0.12075 0.88737 0.69272 0.0
H1562 H 0.12405 0.90426 0.72732 0.0
H1563 H 0.073 0.90992 0.73087 0.0
H1564 H 0.08549 0.92672 0.63227 0.0
H1565 H 0.07941 0.90842 0.59994 0.0
O1566 O 0.06711 0.86841 0.68586 0.0
C1567 C 0.02795 0.87575 0.68537 0.0
C1568 C 0.06786 0.89077 0.62117 0.0
C1569 C 0.07928 0.91548 0.63523 0.0
N1570 N 0.06686 0.89691 0.66111 0.0
C1571 C 0.0634 0.88681 0.64342 0.0
C1572 C 0.07462 0.91113 0.65725 0.0
C1573 C 0.07587 0.9052 0.6171 0.0
C1574 C 0.03262 0.89145 0.76167 0.0
N1575 N 0.02719 0.87943 0.74778 0.0
C1576 C 0.02183 0.90147 0.77309 0.0
C1577 C 0.00537 0.89909 0.77028 0.0
C1578 C 0.99992 0.88675 0.7562 0.0
C1579 C 0.01107 0.87699 0.74502 0.0
C1580 C 0.01955 0.83036 0.76966 0.0
C1581 C 0.02795 0.83536 0.72455 0.0
C1582 C 0.02745 0.84438 0.76288 0.0
N1583 N 0.03145 0.84677 0.74054 0.0
C1584 C 0.02007 0.82118 0.7307 0.0
C1585 C 0.01584 0.81871 0.75342 0.0
C1586 C 0.06633 0.85489 0.69612 0.0
C1587 C 0.09866 0.90827 0.73128 0.0
C1588 C 0.09492 0.88943 0.69274 0.0
C1589 C 0.11034 0.8924 0.70117 0.0
C1590 C 0.11218 0.90188 0.72057 0.0
N1591 N 0.08172 0.89578 0.70328 0.0
C1592 C 0.08344 0.90506 0.72235 0.0
Co1593 Co 0.88522 0.29232 0.48405 0.0
Co1594 Co 0.86046 0.30996 0.44407 0.0
O1595 O 0.86572 0.30355 0.47511 0.0
C1596 C 0.88608 0.32136 0.51336 0.0
O1597 O 0.8849 0.33022 0.49492 0.0
C1598 C 0.83282 0.2901 0.45863 0.0
O1599 O 0.84313 0.27877 0.46397 0.0
O1600 O 0.86592 0.28819 0.43185 0.0
O1601 O 0.88403 0.27822 0.45658 0.0
H1602 H 0.86947 0.31512 0.35971 0.0
H1603 H 0.85774 0.29544 0.51594 0.0
O1604 O 0.88654 0.3061 0.51194 0.0
H1605 H 0.86681 0.23714 0.50791 0.0
H1606 H 0.92284 0.26677 0.54066 0.0
H1607 H 0.91427 0.28072 0.45988 0.0
H1608 H 0.88423 0.25656 0.48793 0.0
H1609 H 0.89801 0.2805 0.5285 0.0
O1610 O 0.8377 0.30313 0.44956 0.0
H1611 H 0.87635 0.30713 0.399 0.0
H1612 H 0.83232 0.32653 0.42318 0.0
H1613 H 0.93922 0.26687 0.47127 0.0
H1614 H 0.84013 0.27647 0.53641 0.0
H1615 H 0.94363 0.2598 0.51192 0.0
H1616 H 0.84457 0.24708 0.53238 0.0
O1617 O 0.8989 0.30786 0.46674 0.0
H1618 H 0.83522 0.34898 0.49885 0.0
H1619 H 0.8687 0.3434 0.42997 0.0
H1620 H 0.86291 0.37044 0.44513 0.0
H1621 H 0.84603 0.37335 0.47979 0.0
H1622 H 0.84143 0.32217 0.48323 0.0
H1623 H 0.82491 0.33462 0.38412 0.0
H1624 H 0.84358 0.32897 0.35207 0.0
O1625 O 0.88303 0.31703 0.43854 0.0
C1626 C 0.87602 0.27748 0.43806 0.0
C1627 C 0.86125 0.31768 0.37353 0.0
C1628 C 0.83623 0.3286 0.38723 0.0
N1629 N 0.85478 0.31643 0.41336 0.0
C1630 C 0.8651 0.31322 0.39582 0.0
C1631 C 0.84047 0.32395 0.4093 0.0
C1632 C 0.84672 0.32544 0.36926 0.0
C1633 C 0.85982 0.28267 0.51421 0.0
N1634 N 0.87197 0.27711 0.50067 0.0
C1635 C 0.84978 0.27199 0.5258 0.0
C1636 C 0.85227 0.2555 0.52351 0.0
C1637 C 0.86473 0.24992 0.50976 0.0
C1638 C 0.87451 0.26096 0.4984 0.0
C1639 C 0.92105 0.26976 0.52289 0.0
C1640 C 0.91606 0.27758 0.47758 0.0
C1641 C 0.90703 0.27757 0.51591 0.0
N1642 N 0.90465 0.28129 0.49347 0.0
C1643 C 0.93023 0.26979 0.48393 0.0
C1644 C 0.9327 0.26584 0.50675 0.0
C1645 C 0.89659 0.31605 0.44861 0.0
C1646 C 0.84257 0.34787 0.48371 0.0
C1647 C 0.86141 0.34457 0.44511 0.0
C1648 C 0.85813 0.35991 0.45358 0.0
C1649 C 0.84865 0.36154 0.47302 0.0
N1650 N 0.85538 0.33122 0.45566 0.0
C1651 C 0.84609 0.33272 0.47474 0.0
Co1652 Co 0.45711 0.86709 0.26793 0.0
Co1653 Co 0.44068 0.89163 0.3091 0.0
O1654 O 0.44628 0.88663 0.27764 0.0
C1655 C 0.42805 0.86605 0.23827 0.0
O1656 O 0.41891 0.86536 0.25648 0.0
C1657 C 0.46016 0.91908 0.29353 0.0
O1658 O 0.47085 0.90846 0.2869 0.0
O1659 O 0.4627 0.88616 0.32005 0.0
O1660 O 0.47133 0.86738 0.29536 0.0
H1661 H 0.43794 0.88208 0.39358 0.0
H1662 H 0.45455 0.8951 0.23687 0.0
O1663 O 0.44329 0.86667 0.24002 0.0
H1664 H 0.51264 0.8848 0.24468 0.0
H1665 H 0.48176 0.83002 0.20979 0.0
H1666 H 0.46799 0.83728 0.2909 0.0
H1667 H 0.49288 0.86748 0.26415 0.0
H1668 H 0.46859 0.85491 0.22297 0.0
O1669 O 0.44743 0.91447 0.30369 0.0
H1670 H 0.4449 0.8755 0.35379 0.0
H1671 H 0.42448 0.91949 0.33124 0.0
H1672 H 0.48128 0.81226 0.2785 0.0
H1673 H 0.47386 0.91263 0.21691 0.0
H1674 H 0.48825 0.80851 0.23768 0.0
H1675 H 0.50314 0.90757 0.22083 0.0
O1676 O 0.44129 0.85355 0.28488 0.0
H1677 H 0.40011 0.91738 0.25719 0.0
H1678 H 0.40773 0.88276 0.32455 0.0
H1679 H 0.38028 0.8886 0.31101 0.0
H1680 H 0.37634 0.90605 0.27712 0.0
H1681 H 0.42735 0.91115 0.2712 0.0
H1682 H 0.4174 0.92661 0.37081 0.0
H1683 H 0.42408 0.9078 0.40229 0.0
O1684 O 0.43384 0.86893 0.31464 0.0
C1685 C 0.4728 0.87552 0.31368 0.0
C1686 C 0.43492 0.89035 0.38001 0.0
C1687 C 0.42341 0.91536 0.36723 0.0
N1688 N 0.43501 0.89705 0.34022 0.0
C1689 C 0.4388 0.88667 0.35744 0.0
C1690 C 0.42749 0.91128 0.34487 0.0
C1691 C 0.42716 0.9048 0.38488 0.0
C1692 C 0.46726 0.89273 0.2385 0.0
N1693 N 0.47259 0.88028 0.25171 0.0
C1694 C 0.47814 0.90273 0.22722 0.0
C1695 C 0.49457 0.8999 0.22946 0.0
C1696 C 0.49991 0.88715 0.24286 0.0
C1697 C 0.48868 0.87741 0.25393 0.0
C1698 C 0.47881 0.83152 0.22763 0.0
C1699 C 0.47108 0.83578 0.27313 0.0
C1700 C 0.47132 0.84557 0.23518 0.0
N1701 N 0.46764 0.84759 0.25771 0.0
C1702 C 0.47856 0.82157 0.2662 0.0
C1703 C 0.48245 0.81946 0.24329 0.0
C1704 C 0.43397 0.85561 0.30381 0.0
C1705 C 0.40167 0.90981 0.27201 0.0
C1706 C 0.40611 0.89035 0.30976 0.0
C1707 C 0.39054 0.89363 0.3022 0.0
C1708 C 0.38834 0.90343 0.28319 0.0
N1709 N 0.41913 0.8967 0.29876 0.0
C1710 C 0.41707 0.90628 0.28008 0.0
Co1711 Co 0.88501 0.7109 0.0222 0.0
Co1712 Co 0.85891 0.69085 0.05807 0.0
O1713 O 0.86543 0.69881 0.0282 0.0
C1714 C 0.88708 0.68324 0.99047 0.0
O1715 O 0.88332 0.67374 0.00753 0.0
C1716 C 0.83142 0.71061 0.04262 0.0
O1717 O 0.84159 0.72244 0.03931 0.0
O1718 O 0.86315 0.71216 0.07266 0.0
O1719 O 0.88189 0.72386 0.05048 0.0
H1720 H 0.8641 0.6821 0.14248 0.0
H1721 H 0.8593 0.70833 0.98742 0.0
O1722 O 0.88838 0.69833 0.99358 0.0
H1723 H 0.86641 0.76644 0.00052 0.0
H1724 H 0.92478 0.73974 0.97206 0.0
H1725 H 0.91234 0.72217 0.05037 0.0
H1726 H 0.88331 0.74671 0.02077 0.0
H1727 H 0.89976 0.72494 0.98032 0.0
O1728 O 0.83627 0.69734 0.051 0.0
H1729 H 0.87256 0.69202 0.10473 0.0
H1730 H 0.83035 0.67266 0.07469 0.0
H1731 H 0.93743 0.73707 0.0429 0.0
H1732 H 0.84223 0.72762 0.96663 0.0
H1733 H 0.94378 0.74596 0.0035 0.0
H1734 H 0.84568 0.75691 0.9732 0.0
O1735 O 0.8982 0.69499 0.03949 0.0
H1736 H 0.83723 0.65374 0.99783 0.0
H1737 H 0.8676 0.65707 0.06982 0.0
H1738 H 0.86331 0.63064 0.05179 0.0
H1739 H 0.848 0.62885 0.01554 0.0
H1740 H 0.84193 0.67993 0.01632 0.0
H1741 H 0.82136 0.66263 0.11215 0.0
H1742 H 0.83832 0.66729 0.14636 0.0
O1743 O 0.88136 0.68407 0.06515 0.0
C1744 C 0.87302 0.7235 0.06821 0.0
C1745 C 0.85662 0.67997 0.1277 0.0
C1746 C 0.83262 0.66906 0.11068 0.0
N1747 N 0.852 0.68287 0.08753 0.0
C1748 C 0.86137 0.68553 0.10627 0.0
C1749 C 0.83775 0.67481 0.08953 0.0
C1750 C 0.84215 0.67167 0.12986 0.0
C1751 C 0.86094 0.72106 0.99028 0.0
N1752 N 0.87223 0.7264 0.0054 0.0
C1753 C 0.85121 0.73192 0.9785 0.0
C1754 C 0.85314 0.74835 0.98221 0.0
C1755 C 0.86475 0.75371 0.99756 0.0
C1756 C 0.87423 0.74249 0.00907 0.0
C1757 C 0.92213 0.73596 0.9893 0.0
C1758 C 0.91497 0.7261 0.03321 0.0
C1759 C 0.90801 0.72754 0.99407 0.0
N1760 N 0.90455 0.7228 0.01584 0.0
C1761 C 0.92922 0.73448 0.02907 0.0
C1762 C 0.93278 0.73945 0.00695 0.0
C1763 C 0.89532 0.68586 0.0565 0.0
C1764 C 0.84388 0.65435 0.01365 0.0
C1765 C 0.86098 0.6564 0.05401 0.0
C1766 C 0.85855 0.6414 0.04391 0.0
C1767 C 0.84995 0.6404 0.02358 0.0
N1768 N 0.85498 0.67003 0.04419 0.0
C1769 C 0.84653 0.66915 0.02425 0.0
Co1770 Co 0.04212 0.13397 0.76639 0.0
Co1771 Co 0.0605 0.10896 0.80567 0.0
O1772 O 0.05375 0.11448 0.77469 0.0
C1773 C 0.0708 0.13403 0.73616 0.0
O1774 O 0.07943 0.12844 0.75312 0.0
C1775 C 0.04056 0.08173 0.79013 0.0
O1776 O 0.02989 0.09243 0.78368 0.0
O1777 O 0.03894 0.11444 0.81858 0.0
O1778 O 0.02806 0.13188 0.79372 0.0
H1779 H 0.06679 0.11757 0.88997 0.0
H1780 H 0.04589 0.10745 0.73313 0.0
O1781 O 0.05583 0.13666 0.73867 0.0
H1782 H 0.98741 0.11469 0.74185 0.0
H1783 H 0.01549 0.17229 0.71172 0.0
H1784 H 0.03015 0.16228 0.79191 0.0
H1785 H 0.00639 0.13214 0.7626 0.0
H1786 H 0.02974 0.14745 0.72263 0.0
O1787 O 0.05334 0.08624 0.80026 0.0
H1788 H 0.05836 0.12468 0.85095 0.0
H1789 H 0.07714 0.08062 0.82589 0.0
H1790 H 0.01579 0.18721 0.78177 0.0
H1791 H 0.02736 0.0898 0.7119 0.0
H1792 H 0.00837 0.19234 0.74142 0.0
H1793 H 0.99789 0.09332 0.71628 0.0
O1794 O 0.05746 0.14751 0.78401 0.0
H1795 H 0.0987 0.08299 0.75042 0.0
H1796 H 0.09412 0.11735 0.81861 0.0
H1797 H 0.12092 0.11128 0.80288 0.0
H1798 H 0.12334 0.09396 0.76857 0.0
H1799 H 0.07213 0.0895 0.76656 0.0
H1800 H 0.08568 0.07298 0.86467 0.0
H1801 H 0.08056 0.09155 0.89702 0.0
O1802 O 0.06783 0.13152 0.81123 0.0
C1803 C 0.02782 0.12406 0.8124 0.0
C1804 C 0.06912 0.10939 0.87601 0.0
C1805 C 0.0797 0.08436 0.86181 0.0
N1806 N 0.06732 0.10311 0.83616 0.0
C1807 C 0.06441 0.11337 0.85387 0.0
C1808 C 0.0748 0.08873 0.8399 0.0
C1809 C 0.07683 0.09479 0.87995 0.0
C1810 C 0.03308 0.10914 0.73498 0.0
N1811 N 0.02722 0.12078 0.74914 0.0
C1812 C 0.02265 0.09907 0.72297 0.0
C1813 C 0.00611 0.10104 0.72546 0.0
C1814 C 1.00022 0.11301 0.73983 0.0
C1815 C 0.01102 0.12282 0.75162 0.0
C1816 C 0.01863 0.17017 0.72936 0.0
C1817 C 0.02686 0.16438 0.77434 0.0
C1818 C 0.02672 0.15615 0.73564 0.0
N1819 N 0.03065 0.15336 0.75792 0.0
C1820 C 0.01877 0.17854 0.76869 0.0
C1821 C 0.01463 0.18142 0.74604 0.0
C1822 C 0.06626 0.14518 0.80152 0.0
C1823 C 0.09781 0.09051 0.76542 0.0
C1824 C 0.09506 0.10986 0.80362 0.0
C1825 C 0.11028 0.10643 0.79483 0.0
C1826 C 0.11162 0.09669 0.77559 0.0
N1827 N 0.08156 0.10374 0.79356 0.0
C1828 C 0.08279 0.09418 0.7747 0.0
Co1829 Co 0.61596 0.29141 0.52022 0.0
Co1830 Co 0.64274 0.30931 0.55732 0.0
O1831 O 0.63589 0.30277 0.52687 0.0
C1832 C 0.61527 0.31989 0.4898 0.0
O1833 O 0.6209 0.32858 0.50668 0.0
C1834 C 0.66983 0.28981 0.54002 0.0
O1835 O 0.65946 0.27823 0.5362 0.0
O1836 O 0.6384 0.28748 0.56998 0.0
O1837 O 0.61877 0.2775 0.54771 0.0
H1838 H 0.6386 0.314 0.64251 0.0
H1839 H 0.64153 0.29436 0.48535 0.0
O1840 O 0.61267 0.30492 0.49243 0.0
H1841 H 0.63315 0.23609 0.4952 0.0
H1842 H 0.57531 0.26508 0.46874 0.0
H1843 H 0.5884 0.28012 0.5479 0.0
H1844 H 0.61683 0.25561 0.51677 0.0
H1845 H 0.60073 0.27896 0.47767 0.0
O1846 O 0.66524 0.3029 0.54924 0.0
H1847 H 0.62966 0.3059 0.60412 0.0
H1848 H 0.67154 0.32659 0.57495 0.0
H1849 H 0.5629 0.2661 0.53976 0.0
H1850 H 0.65804 0.27529 0.46325 0.0
H1851 H 0.55622 0.2585 0.49993 0.0
H1852 H 0.65394 0.24592 0.46818 0.0
O1853 O 0.60333 0.30718 0.53847 0.0
H1854 H 0.6649 0.34904 0.5009 0.0
H1855 H 0.63401 0.34249 0.57203 0.0
H1856 H 0.63856 0.36969 0.55659 0.0
H1857 H 0.65414 0.37309 0.5208 0.0
H1858 H 0.65992 0.32206 0.51678 0.0
H1859 H 0.68101 0.33482 0.61306 0.0
H1860 H 0.66445 0.32858 0.64716 0.0
O1861 O 0.62037 0.3159 0.56556 0.0
C1862 C 0.62794 0.27678 0.56512 0.0
C1863 C 0.6459 0.31683 0.62778 0.0
C1864 C 0.66971 0.3285 0.61125 0.0
N1865 N 0.65001 0.31586 0.58731 0.0
C1866 C 0.64088 0.31231 0.60599 0.0
C1867 C 0.66431 0.32378 0.58973 0.0
C1868 C 0.66041 0.325 0.63038 0.0
C1869 C 0.63961 0.2816 0.48748 0.0
N1870 N 0.62827 0.27609 0.5024 0.0
C1871 C 0.64902 0.27085 0.47497 0.0
C1872 C 0.64673 0.25438 0.47776 0.0
C1873 C 0.63508 0.24886 0.49294 0.0
C1874 C 0.62592 0.25996 0.50519 0.0
C1875 C 0.5781 0.2683 0.48617 0.0
C1876 C 0.58562 0.27674 0.53055 0.0
C1877 C 0.59246 0.2762 0.49132 0.0
N1878 N 0.59609 0.28023 0.51331 0.0
C1879 C 0.57115 0.26886 0.52603 0.0
C1880 C 0.5674 0.26461 0.50367 0.0
C1881 C 0.60641 0.31509 0.55659 0.0
C1882 C 0.65815 0.34771 0.51655 0.0
C1883 C 0.64075 0.34387 0.55639 0.0
C1884 C 0.64332 0.3593 0.54777 0.0
C1885 C 0.65208 0.3612 0.5277 0.0
N1886 N 0.64675 0.33069 0.54537 0.0
C1887 C 0.65535 0.33247 0.52569 0.0
C1888 C 0.06745 0.36548 0.1957 0.0
C1889 C 0.07828 0.36672 0.214 0.0
C1890 C 0.07294 0.36225 0.17375 0.0
C1891 C 0.10828 0.36147 0.13586 0.0
H1892 H 0.08419 0.32758 0.10591 0.0
C1893 C 0.11616 0.34247 0.04054 0.0
C1894 C 0.11548 0.32587 0.0361 0.0
C1895 C 0.11318 0.34835 0.06253 0.0
C1896 C 0.09112 0.33699 0.11407 0.0
H1897 H 0.10349 0.36642 0.22334 0.0
H1898 H 0.11313 0.36058 0.18472 0.0
H1899 H 0.07603 0.3367 0.14347 0.0
H1900 H 0.11203 0.30239 0.05156 0.0
H1901 H 0.10692 0.31262 0.08961 0.0
H1902 H 0.12346 0.36153 0.10623 0.0
C1903 C 0.10037 0.36218 0.18751 0.0
C1904 C 0.08633 0.34235 0.1355 0.0
C1905 C 0.09485 0.36546 0.20961 0.0
C1906 C 0.11243 0.31527 0.05425 0.0
C1907 C 0.10945 0.32112 0.07609 0.0
C1908 C 0.11303 0.35614 0.1142 0.0
C1909 C 0.08941 0.36012 0.16949 0.0
C1910 C 0.09481 0.35465 0.14665 0.0
C1911 C 0.10944 0.33772 0.0804 0.0
C1912 C 0.10453 0.34377 0.10317 0.0
H1913 H 0.05462 0.36665 0.19836 0.0
H1914 H 0.06423 0.36108 0.16013 0.0
H1915 H 0.11499 0.37101 0.14404 0.0
H1916 H 0.11856 0.35094 0.02694 0.0
H1917 H 0.1132 0.36122 0.06536 0.0
C1918 C 0.92874 0.87 0.30451 0.0
C1919 C 0.92021 0.86522 0.28497 0.0
C1920 C 0.92214 0.86786 0.32617 0.0
C1921 C 0.89723 0.84048 0.35692 0.0
H1922 H 0.89574 0.873 0.40423 0.0
C1923 C 0.87805 0.8233 0.44749 0.0
C1924 C 0.88612 0.83066 0.46571 0.0
C1925 C 0.8796 0.82928 0.42539 0.0
C1926 C 0.89625 0.86371 0.39134 0.0
H1927 H 0.89795 0.85486 0.27267 0.0
H1928 H 0.8866 0.85058 0.31081 0.0
H1929 H 0.9034 0.8805 0.36546 0.0
H1930 H 0.90181 0.85026 0.47535 0.0
H1931 H 0.90532 0.86025 0.43657 0.0
H1932 H 0.89124 0.82343 0.38262 0.0
C1933 C 0.89829 0.85619 0.3092 0.0
C1934 C 0.90049 0.86807 0.3691 0.0
C1935 C 0.90475 0.85867 0.28745 0.0
C1936 C 0.8954 0.84442 0.46156 0.0
C1937 C 0.89731 0.85018 0.4393 0.0
C1938 C 0.89333 0.83604 0.37918 0.0
C1939 C 0.90702 0.86061 0.32873 0.0
C1940 C 0.90111 0.85646 0.35176 0.0
C1941 C 0.88965 0.8425 0.42081 0.0
C1942 C 0.89288 0.84756 0.3968 0.0
H1943 H 0.94065 0.87517 0.30308 0.0
H1944 H 0.92914 0.87124 0.34098 0.0
H1945 H 0.89789 0.83126 0.3439 0.0
H1946 H 0.87063 0.81278 0.45032 0.0
H1947 H 0.87306 0.82332 0.41186 0.0
C1948 C 0.42674 0.65189 0.70218 0.0
C1949 C 0.42051 0.63941 0.71565 0.0
C1950 C 0.41996 0.65546 0.68108 0.0
C1951 C 0.40072 0.63873 0.63245 0.0
H1952 H 0.38839 0.68273 0.61942 0.0
C1953 C 0.38275 0.66065 0.54146 0.0
C1954 C 0.38875 0.67584 0.5353 0.0
C1955 C 0.38414 0.65515 0.56398 0.0
C1956 C 0.39188 0.6704 0.62269 0.0
H1957 H 0.40235 0.62078 0.71761 0.0
H1958 H 0.3907 0.62678 0.67993 0.0
H1959 H 0.39517 0.67499 0.6583 0.0
H1960 H 0.40133 0.69694 0.54775 0.0
H1961 H 0.40414 0.68728 0.58643 0.0
H1962 H 0.39839 0.63433 0.59659 0.0
C1963 C 0.40072 0.63388 0.68608 0.0
C1964 C 0.3956 0.66597 0.64499 0.0
C1965 C 0.40731 0.63052 0.70758 0.0
C1966 C 0.3964 0.68526 0.55194 0.0
C1967 C 0.39789 0.67975 0.57425 0.0
C1968 C 0.39719 0.64321 0.60997 0.0
C1969 C 0.40699 0.64644 0.67276 0.0
C1970 C 0.40045 0.65022 0.64996 0.0
C1971 C 0.39161 0.66473 0.58069 0.0
C1972 C 0.39321 0.65924 0.60475 0.0
H1973 H 0.43688 0.65897 0.70799 0.0
H1974 H 0.42506 0.66512 0.67102 0.0
H1975 H 0.40453 0.62652 0.63592 0.0
H1976 H 0.37673 0.65314 0.52901 0.0
H1977 H 0.37913 0.64354 0.56837 0.0
C1978 C 0.59227 0.13066 0.79468 0.0
C1979 C 0.57753 0.13747 0.78803 0.0
C1980 C 0.5976 0.13204 0.8173 0.0
C1981 C 0.58192 0.14109 0.87531 0.0
H1982 H 0.62596 0.15234 0.88988 0.0
C1983 C 0.60011 0.17662 0.9543 0.0
C1984 C 0.61188 0.16999 0.96865 0.0
C1985 C 0.59681 0.16968 0.9332 0.0
C1986 C 0.61369 0.14892 0.88603 0.0
H1987 H 0.55717 0.15157 0.79966 0.0
H1988 H 0.56652 0.15427 0.83846 0.0
H1989 H 0.61866 0.14588 0.85041 0.0
H1990 H 0.62954 0.151 0.97215 0.0
H1991 H 0.62402 0.13907 0.93452 0.0
H1992 H 0.57677 0.1451 0.91061 0.0
C1993 C 0.57379 0.14741 0.82661 0.0
C1994 C 0.6095 0.14521 0.86349 0.0
C1995 C 0.56847 0.14597 0.80423 0.0
C1996 C 0.62034 0.15627 0.96144 0.0
C1997 C 0.61727 0.14951 0.93997 0.0
C1998 C 0.58605 0.14499 0.89765 0.0
C1999 C 0.58827 0.14027 0.83359 0.0
C2000 C 0.59344 0.14178 0.85778 0.0
C2001 C 0.60541 0.15615 0.92579 0.0
C2002 C 0.60186 0.14935 0.90308 0.0
H2003 H 0.59951 0.12401 0.78257 0.0
H2004 H 0.60882 0.12641 0.82214 0.0
H2005 H 0.56953 0.13805 0.87164 0.0
H2006 H 0.59337 0.18716 0.95942 0.0
H2007 H 0.58769 0.17506 0.92246 0.0
C2008 C 0.06875 0.64888 0.30448 0.0
C2009 C 0.07738 0.6389 0.28955 0.0
C2010 C 0.07391 0.6512 0.32679 0.0
C2011 C 0.109 0.648 0.36505 0.0
H2012 H 0.07588 0.65335 0.41101 0.0
C2013 C 0.11955 0.66064 0.46263 0.0
C2014 C 0.11241 0.67524 0.46921 0.0
C2015 C 0.1162 0.65395 0.44122 0.0
C2016 C 0.08525 0.65176 0.39837 0.0
H2017 H 0.09838 0.62368 0.28625 0.0
H2018 H 0.10734 0.62751 0.32574 0.0
H2019 H 0.06841 0.64526 0.37255 0.0
H2020 H 0.09607 0.69418 0.45879 0.0
H2021 H 0.08987 0.68224 0.42185 0.0
H2022 H 0.12579 0.65453 0.39132 0.0
C2023 C 0.09663 0.63368 0.31996 0.0
C2024 C 0.081 0.64726 0.37629 0.0
C2025 C 0.0915 0.63146 0.29738 0.0
C2026 C 0.10177 0.68294 0.45417 0.0
C2027 C 0.09818 0.6761 0.43309 0.0
C2028 C 0.11328 0.65228 0.38734 0.0
C2029 C 0.08775 0.64345 0.335 0.0
C2030 C 0.09273 0.64589 0.35913 0.0
C2031 C 0.10538 0.6616 0.42641 0.0
C2032 C 0.10136 0.65467 0.40394 0.0
H2033 H 0.05796 0.65502 0.29893 0.0
H2034 H 0.06704 0.65922 0.33758 0.0
H2035 H 0.11834 0.6471 0.35227 0.0
H2036 H 0.12787 0.65452 0.47387 0.0
H2037 H 0.12186 0.64274 0.43635 0.0
C2038 C 0.61898 0.82199 0.55462 0.0
C2039 C 0.61417 0.83043 0.53502 0.0
C2040 C 0.61695 0.82873 0.57623 0.0
C2041 C 0.59001 0.8541 0.60716 0.0
H2042 H 0.62306 0.85582 0.65368 0.0
C2043 C 0.57402 0.8743 0.69779 0.0
C2044 C 0.58154 0.86635 0.71597 0.0
C2045 C 0.57973 0.87251 0.67557 0.0
C2046 C 0.61362 0.85525 0.64102 0.0
H2047 H 0.60378 0.85264 0.52257 0.0
H2048 H 0.59968 0.86422 0.56062 0.0
H2049 H 0.63006 0.84769 0.61491 0.0
H2050 H 0.60113 0.85061 0.72542 0.0
H2051 H 0.61065 0.84669 0.68649 0.0
H2052 H 0.57331 0.86051 0.63312 0.0
C2053 C 0.60524 0.85249 0.5591 0.0
C2054 C 0.61769 0.85073 0.61877 0.0
C2055 C 0.60762 0.8459 0.5374 0.0
C2056 C 0.59519 0.85695 0.71167 0.0
C2057 C 0.60067 0.8548 0.6893 0.0
C2058 C 0.58586 0.85827 0.62944 0.0
C2059 C 0.60976 0.84389 0.57868 0.0
C2060 C 0.60589 0.85003 0.60171 0.0
C2061 C 0.59282 0.86232 0.67085 0.0
C2062 C 0.59757 0.85881 0.64679 0.0
H2063 H 0.62415 0.81008 0.55328 0.0
H2064 H 0.62041 0.82181 0.59108 0.0
H2065 H 0.58065 0.85339 0.59436 0.0
H2066 H 0.56357 0.8818 0.70072 0.0
H2067 H 0.57365 0.87895 0.66205 0.0
C2068 C 0.38233 0.32139 0.94462 0.0
C2069 C 0.38642 0.33031 0.96413 0.0
C2070 C 0.38422 0.32799 0.92292 0.0
C2071 C 0.41012 0.35441 0.89213 0.0
H2072 H 0.37768 0.35393 0.8447 0.0
C2073 C 0.42643 0.37432 0.80158 0.0
C2074 C 0.41961 0.36577 0.7834 0.0
C2075 C 0.42044 0.37256 0.82365 0.0
C2076 C 0.38695 0.35399 0.85763 0.0
H2077 H 0.39534 0.35323 0.9763 0.0
H2078 H 0.3992 0.36461 0.9381 0.0
H2079 H 0.37057 0.34586 0.88346 0.0
H2080 H 0.40096 0.34898 0.77374 0.0
H2081 H 0.39099 0.34511 0.81245 0.0
H2082 H 0.42683 0.36138 0.86649 0.0
C2083 C 0.3943 0.35259 0.93976 0.0
C2084 C 0.38281 0.3495 0.87986 0.0
C2085 C 0.39207 0.34611 0.96155 0.0
C2086 C 0.40635 0.35578 0.78751 0.0
C2087 C 0.40061 0.35366 0.80974 0.0
C2088 C 0.41436 0.35856 0.86988 0.0
C2089 C 0.39054 0.34351 0.92028 0.0
C2090 C 0.39439 0.34959 0.89724 0.0
C2091 C 0.40779 0.36179 0.82822 0.0
C2092 C 0.40288 0.35831 0.85222 0.0
H2093 H 0.37785 0.3092 0.94613 0.0
H2094 H 0.38135 0.32072 0.90814 0.0
H2095 H 0.41933 0.35432 0.9052 0.0
H2096 H 0.43656 0.38227 0.79878 0.0
H2097 H 0.42598 0.37946 0.83717 0.0
C2098 C 0.88233 0.17851 0.05419 0.0
C2099 C 0.88742 0.17013 0.03468 0.0
C2100 C 0.88459 0.17197 0.07586 0.0
C2101 C 0.91254 0.14787 0.10688 0.0
H2102 H 0.87985 0.14538 0.15385 0.0
C2103 C 0.9297 0.12878 0.19755 0.0
C2104 C 0.92198 0.1365 0.21577 0.0
C2105 C 0.92386 0.13034 0.17537 0.0
C2106 C 0.88919 0.14618 0.14106 0.0
H2107 H 0.89849 0.14818 0.02245 0.0
H2108 H 0.90298 0.13697 0.06063 0.0
H2109 H 0.87233 0.15288 0.11502 0.0
H2110 H 0.90191 0.15159 0.22532 0.0
H2111 H 0.89214 0.15515 0.18643 0.0
H2112 H 0.92961 0.14233 0.13274 0.0
C2113 C 0.89703 0.14849 0.05898 0.0
C2114 C 0.88482 0.15033 0.11878 0.0
C2115 C 0.89443 0.15487 0.03721 0.0
C2116 C 0.90803 0.14546 0.21153 0.0
C2117 C 0.9024 0.1474 0.1892 0.0
C2118 C 0.91697 0.14407 0.12918 0.0
C2119 C 0.89227 0.15708 0.07848 0.0
C2120 C 0.89649 0.15129 0.10156 0.0
C2121 C 0.91041 0.14007 0.17072 0.0
C2122 C 0.90539 0.14325 0.14668 0.0
H2123 H 0.87681 0.19026 0.05272 0.0
H2124 H 0.88094 0.17888 0.09065 0.0
H2125 H 0.9218 0.1488 0.09395 0.0
H2126 H 0.94036 0.12159 0.20042 0.0
H2127 H 0.93008 0.12406 0.16184 0.0
C2128 C 0.90925 0.63745 0.79383 0.0
C2129 C 0.92567 0.63645 0.78839 0.0
C2130 C 0.90439 0.64049 0.8163 0.0
C2131 C 0.91993 0.65964 0.8682 0.0
H2132 H 0.88272 0.64093 0.89786 0.0
C2133 C 0.894 0.68708 0.94944 0.0
C2134 C 0.89009 0.67663 0.96743 0.0
C2135 C 0.89749 0.68109 0.92784 0.0
C2136 C 0.8932 0.64616 0.88982 0.0
H2137 H 0.9498 0.63675 0.80248 0.0
H2138 H 0.94134 0.6418 0.8414 0.0
H2139 H 0.89062 0.63161 0.85979 0.0
H2140 H 0.88628 0.65165 0.97658 0.0
H2141 H 0.89256 0.64112 0.93859 0.0
H2142 H 0.92266 0.67409 0.89802 0.0
C2143 C 0.93221 0.64068 0.82833 0.0
C2144 C 0.89763 0.64094 0.86798 0.0
C2145 C 0.93706 0.63773 0.80599 0.0
C2146 C 0.88934 0.66001 0.96311 0.0
C2147 C 0.89284 0.65399 0.94135 0.0
C2148 C 0.91549 0.66487 0.88986 0.0
C2149 C 0.91587 0.64253 0.83367 0.0
C2150 C 0.91106 0.64765 0.85695 0.0
C2151 C 0.89719 0.66448 0.9236 0.0
C2152 C 0.90202 0.65829 0.90087 0.0
H2153 H 0.9002 0.63646 0.78064 0.0
H2154 H 0.8917 0.64191 0.81987 0.0
H2155 H 0.9302 0.66523 0.86009 0.0
H2156 H 0.89452 0.69996 0.95204 0.0
H2157 H 0.9005 0.6895 0.91441 0.0
C2158 C 0.11838 0.16041 0.54106 0.0
C2159 C 0.11211 0.17543 0.53466 0.0
C2160 C 0.11656 0.15481 0.56346 0.0
C2161 C 0.10679 0.16974 0.62175 0.0
H2162 H 0.09573 0.12535 0.63446 0.0
C2163 C 0.07125 0.14948 0.69989 0.0
C2164 C 0.07831 0.13782 0.71402 0.0
C2165 C 0.078 0.15318 0.67882 0.0
C2166 C 0.09907 0.13771 0.63112 0.0
H2167 H 0.09852 0.19608 0.54647 0.0
H2168 H 0.09494 0.18622 0.58492 0.0
H2169 H 0.10238 0.13344 0.59539 0.0
H2170 H 0.09786 0.12074 0.7171 0.0
H2171 H 0.10947 0.12696 0.67949 0.0
H2172 H 0.10251 0.17416 0.6572 0.0
C2173 C 0.10176 0.17893 0.57307 0.0
C2174 C 0.1029 0.14236 0.60881 0.0
C2175 C 0.1037 0.18455 0.55089 0.0
C2176 C 0.09224 0.12984 0.70656 0.0
C2177 C 0.09883 0.13332 0.68511 0.0
C2178 C 0.10275 0.16514 0.64387 0.0
C2179 C 0.10835 0.16411 0.5798 0.0
C2180 C 0.10634 0.15855 0.60376 0.0
C2181 C 0.09178 0.14511 0.67119 0.0
C2182 C 0.0985 0.14919 0.64863 0.0
H2183 H 0.12497 0.15314 0.52892 0.0
H2184 H 0.12182 0.14336 0.56808 0.0
H2185 H 0.10985 0.1822 0.61866 0.0
H2186 H 0.06054 0.15587 0.70521 0.0
H2187 H 0.07233 0.16226 0.66828 0.0
C2188 C 0.61963 0.34133 0.46026 0.0
C2189 C 0.61171 0.3273 0.46751 0.0
C2190 C 0.61647 0.3478 0.43864 0.0
C2191 C 0.58532 0.35037 0.3957 0.0
H2192 H 0.61862 0.35293 0.34956 0.0
C2193 C 0.569 0.35128 0.30174 0.0
C2194 C 0.57764 0.36103 0.28653 0.0
C2195 C 0.57423 0.34918 0.32407 0.0
C2196 C 0.60924 0.3526 0.36234 0.0
H2197 H 0.59413 0.30922 0.4581 0.0
H2198 H 0.58831 0.32077 0.42086 0.0
H2199 H 0.62579 0.34627 0.38902 0.0
H2200 H 0.59882 0.37595 0.28266 0.0
H2201 H 0.60794 0.37244 0.32215 0.0
H2202 H 0.56873 0.3566 0.36943 0.0
C2203 C 0.59707 0.32664 0.43171 0.0
C2204 C 0.61335 0.34878 0.38487 0.0
C2205 C 0.60045 0.32001 0.45297 0.0
C2206 C 0.59193 0.36834 0.29402 0.0
C2207 C 0.59714 0.36632 0.3166 0.0
C2208 C 0.58125 0.35438 0.37338 0.0
C2209 C 0.60508 0.34053 0.4243 0.0
C2210 C 0.60134 0.34715 0.40152 0.0
C2211 C 0.58817 0.35691 0.33197 0.0
C2212 C 0.59305 0.35496 0.35622 0.0
H2213 H 0.62844 0.34712 0.47109 0.0
H2214 H 0.62277 0.35854 0.43322 0.0
H2215 H 0.57588 0.34937 0.40834 0.0
H2216 H 0.55808 0.34526 0.29644 0.0
H2217 H 0.56728 0.34143 0.33516 0.0
C2218 C 0.40735 0.85584 0.21093 0.0
C2219 C 0.42095 0.86531 0.21528 0.0
C2220 C 0.40201 0.85355 0.18853 0.0
C2221 C 0.41719 0.8567 0.12882 0.0
H2222 H 0.37309 0.84597 0.11388 0.0
C2223 C 0.39568 0.84407 0.03667 0.0
C2224 C 0.38912 0.8286 0.0343 0.0
C2225 C 0.39808 0.85066 0.05836 0.0
C2226 C 0.38542 0.84905 0.11787 0.0
H2227 H 0.43898 0.88072 0.20007 0.0
H2228 H 0.42914 0.87761 0.16132 0.0
H2229 H 0.37984 0.85433 0.15264 0.0
H2230 H 0.37921 0.80822 0.05259 0.0
H2231 H 0.38301 0.81994 0.09038 0.0
H2232 H 0.42261 0.85163 0.09386 0.0
C2233 C 0.423 0.87124 0.17483 0.0
C2234 C 0.38935 0.8537 0.1401 0.0
C2235 C 0.42856 0.87318 0.1971 0.0
C2236 C 0.38439 0.82013 0.05392 0.0
C2237 C 0.38645 0.82686 0.07552 0.0
C2238 C 0.41318 0.85239 0.10654 0.0
C2239 C 0.40996 0.86098 0.17009 0.0
C2240 C 0.40536 0.85732 0.14602 0.0
C2241 C 0.39358 0.84205 0.07795 0.0
C2242 C 0.39733 0.84827 0.10096 0.0
H2243 H 0.40134 0.84957 0.22468 0.0
H2244 H 0.39207 0.8454 0.18569 0.0
H2245 H 0.4297 0.85897 0.13263 0.0
H2246 H 0.39944 0.85084 0.02183 0.0
H2247 H 0.4036 0.86241 0.05987 0.0
C2248 C 0.9295 0.37158 0.69847 0.0
C2249 C 0.92204 0.36376 0.71682 0.0
C2250 C 0.92362 0.36978 0.67635 0.0
C2251 C 0.88924 0.35288 0.64244 0.0
H2252 H 0.92171 0.35098 0.59507 0.0
C2253 C 0.88277 0.32031 0.55559 0.0
C2254 C 0.8874 0.32892 0.53605 0.0
C2255 C 0.88506 0.32683 0.57728 0.0
C2256 C 0.91249 0.3517 0.60807 0.0
H2257 H 0.90239 0.3482 0.72664 0.0
H2258 H 0.89257 0.34423 0.68786 0.0
H2259 H 0.92952 0.35778 0.63376 0.0
H2260 H 0.89773 0.35122 0.52381 0.0
H2261 H 0.90229 0.36241 0.56198 0.0
H2262 H 0.87246 0.34564 0.61658 0.0
C2263 C 0.90264 0.35226 0.69049 0.0
C2264 C 0.91691 0.35569 0.63031 0.0
C2265 C 0.9083 0.35443 0.71276 0.0
C2266 C 0.89403 0.34435 0.53858 0.0
C2267 C 0.89666 0.35072 0.56035 0.0
C2268 C 0.8849 0.34853 0.62022 0.0
C2269 C 0.9104 0.35969 0.67189 0.0
C2270 C 0.90538 0.35626 0.64791 0.0
C2271 C 0.89233 0.34194 0.57987 0.0
C2272 C 0.89651 0.34783 0.60291 0.0
H2273 H 0.94001 0.37904 0.70121 0.0
H2274 H 0.92965 0.37615 0.66273 0.0
H2275 H 0.87994 0.35347 0.65529 0.0
H2276 H 0.87755 0.30842 0.55413 0.0
H2277 H 0.88174 0.31978 0.59208 0.0
C2278 C 0.40741 0.13147 0.29135 0.0
C2279 C 0.42069 0.14026 0.28332 0.0
C2280 C 0.40074 0.13496 0.31274 0.0
C2281 C 0.39566 0.16714 0.35374 0.0
H2282 H 0.39813 0.13545 0.40209 0.0
C2283 C 0.39619 0.18634 0.44682 0.0
C2284 C 0.38849 0.17691 0.46341 0.0
C2285 C 0.39771 0.18086 0.4245 0.0
C2286 C 0.39701 0.14435 0.38872 0.0
H2287 H 0.43712 0.15979 0.29092 0.0
H2288 H 0.42514 0.16618 0.32774 0.0
H2289 H 0.40437 0.12764 0.3628 0.0
H2290 H 0.37643 0.15423 0.46959 0.0
H2291 H 0.37887 0.14468 0.43021 0.0
H2292 H 0.38841 0.1839 0.37928 0.0
C2293 C 0.42004 0.1565 0.31771 0.0
C2294 C 0.4006 0.13986 0.36627 0.0
C2295 C 0.42691 0.15279 0.29671 0.0
C2296 C 0.38248 0.16174 0.45719 0.0
C2297 C 0.3839 0.15627 0.43465 0.0
C2298 C 0.39186 0.17156 0.37601 0.0
C2299 C 0.40701 0.14755 0.32601 0.0
C2300 C 0.40044 0.15137 0.34877 0.0
C2301 C 0.39141 0.16586 0.418 0.0
C2302 C 0.39307 0.16039 0.39394 0.0
H2303 H 0.40248 0.12168 0.28139 0.0
H2304 H 0.39069 0.12792 0.31888 0.0
H2305 H 0.39531 0.17617 0.34043 0.0
H2306 H 0.40113 0.19801 0.45107 0.0
H2307 H 0.40399 0.18839 0.41237 0.0
C2308 C 0.59254 0.64755 0.2111 0.0
C2309 C 0.5789 0.6381 0.2153 0.0
C2310 C 0.59794 0.64997 0.18875 0.0
C2311 C 0.58308 0.64696 0.12879 0.0
H2312 H 0.62739 0.65716 0.11433 0.0
C2313 C 0.60543 0.65841 0.03673 0.0
C2314 C 0.61214 0.6738 0.0341 0.0
C2315 C 0.6028 0.65211 0.05853 0.0
C2316 C 0.61499 0.65424 0.11818 0.0
H2317 H 0.56083 0.62288 0.19979 0.0
H2318 H 0.57074 0.62621 0.16113 0.0
H2319 H 0.62029 0.64911 0.1531 0.0
H2320 H 0.62208 0.69432 0.05206 0.0
H2321 H 0.61789 0.68307 0.09007 0.0
H2322 H 0.57796 0.65184 0.09368 0.0
C2323 C 0.57688 0.63248 0.17474 0.0
C2324 C 0.61086 0.64976 0.14042 0.0
C2325 C 0.57127 0.63042 0.19697 0.0
C2326 C 0.61679 0.68246 0.05359 0.0
C2327 C 0.6145 0.676 0.07531 0.0
C2328 C 0.58729 0.65109 0.10651 0.0
C2329 C 0.59001 0.64267 0.17018 0.0
C2330 C 0.59478 0.6463 0.14616 0.0
C2331 C 0.60721 0.66092 0.07799 0.0
C2332 C 0.60322 0.655 0.10109 0.0
H2333 H 0.59858 0.65367 0.22497 0.0
H2334 H 0.60794 0.65806 0.18605 0.0
H2335 H 0.57052 0.64482 0.13245 0.0
H2336 H 0.60172 0.6515 0.02199 0.0
H2337 H 0.59716 0.64043 0.06023 0.0
C2338 C 0.06989 0.86853 0.80345 0.0
C2339 C 0.07872 0.86412 0.784 0.0
C2340 C 0.07632 0.86635 0.82521 0.0
C2341 C 0.10176 0.83953 0.85623 0.0
H2342 H 0.1023 0.87208 0.90354 0.0
C2343 C 0.12161 0.823 0.94678 0.0
C2344 C 0.11338 0.83014 0.96503 0.0
C2345 C 0.11981 0.8289 0.92466 0.0
C2346 C 0.10206 0.86278 0.89065 0.0
H2347 H 0.10131 0.85431 0.772 0.0
H2348 H 0.11237 0.84995 0.81028 0.0
H2349 H 0.09446 0.87936 0.86475 0.0
H2350 H 0.09713 0.84925 0.97472 0.0
H2351 H 0.09319 0.85908 0.93594 0.0
H2352 H 0.10823 0.82267 0.88194 0.0
C2353 C 0.10057 0.85531 0.80854 0.0
C2354 C 0.0977 0.86701 0.8684 0.0
C2355 C 0.09427 0.85783 0.7867 0.0
C2356 C 0.10367 0.8436 0.96091 0.0
C2357 C 0.10151 0.84926 0.93864 0.0
C2358 C 0.10577 0.83521 0.8785 0.0
C2359 C 0.09157 0.85942 0.82796 0.0
C2360 C 0.09745 0.8554 0.85106 0.0
C2361 C 0.10933 0.84179 0.92012 0.0
C2362 C 0.1059 0.84674 0.89612 0.0
H2363 H 0.05791 0.87349 0.80186 0.0
H2364 H 0.06912 0.86949 0.83993 0.0
H2365 H 0.1014 0.8303 0.8432 0.0
H2366 H 0.12936 0.81272 0.94957 0.0
H2367 H 0.12647 0.82312 0.9111 0.0
C2368 C 0.08257 0.34391 0.33839 0.0
C2369 C 0.07822 0.34314 0.31527 0.0
C2370 C 0.09058 0.33113 0.34879 0.0
C2371 C 0.09852 0.28747 0.34219 0.0
H2372 H 0.12716 0.29547 0.39309 0.0
C2373 C 0.12935 0.23701 0.39592 0.0
C2374 C 0.12502 0.23806 0.41907 0.0
C2375 C 0.12613 0.24978 0.38101 0.0
C2376 C 0.11929 0.29308 0.37878 0.0
H2377 H 0.07937 0.32844 0.28477 0.0
H2378 H 0.09383 0.30632 0.30276 0.0
H2379 H 0.11724 0.318 0.37055 0.0
H2380 H 0.11437 0.25356 0.44469 0.0
H2381 H 0.10937 0.27589 0.41897 0.0
H2382 H 0.10073 0.26245 0.35061 0.0
C2383 C 0.09067 0.31666 0.31303 0.0
C2384 C 0.11346 0.30597 0.36597 0.0
C2385 C 0.08244 0.3294 0.30266 0.0
C2386 C 0.11792 0.25232 0.42706 0.0
C2387 C 0.11508 0.26516 0.41234 0.0
C2388 C 0.10459 0.27453 0.3548 0.0
C2389 C 0.09472 0.31729 0.33631 0.0
C2390 C 0.10258 0.3034 0.34795 0.0
C2391 C 0.11895 0.26395 0.38914 0.0
C2392 C 0.11466 0.27728 0.37358 0.0
H2393 H 0.07944 0.35424 0.34872 0.0
H2394 H 0.09313 0.33199 0.36685 0.0
H2395 H 0.09006 0.28496 0.32862 0.0
H2396 H 0.13475 0.22616 0.38919 0.0
H2397 H 0.1292 0.24859 0.36314 0.0
C2398 C 0.92378 0.8278 0.55293 0.0
C2399 C 0.90965 0.82433 0.56513 0.0
C2400 C 0.93671 0.83554 0.56365 0.0
C2401 C 0.94691 0.85889 0.61629 0.0
H2402 H 0.99053 0.84562 0.60267 0.0
C2403 C 1.0 0.86585 0.67824 0.0
C2404 C 0.01421 0.87282 0.66985 0.0
C2405 C 0.98733 0.86215 0.66357 0.0
C2406 C 0.97842 0.84958 0.60641 0.0
H2407 H 0.89818 0.8261 0.59828 0.0
H2408 H 0.92068 0.8389 0.61696 0.0
H2409 H 0.96825 0.83462 0.58047 0.0
H2410 H 0.02621 0.88137 0.63934 0.0
H2411 H 0.0041 0.87437 0.6135 0.0
H2412 H 0.95712 0.87313 0.64308 0.0
C2413 C 0.92172 0.83622 0.59896 0.0
C2414 C 0.96563 0.84334 0.59366 0.0
C2415 C 0.90879 0.8287 0.58824 0.0
C2416 C 0.0154 0.8761 0.64637 0.0
C2417 C 0.00281 0.87204 0.63157 0.0
C2418 C 0.95965 0.86489 0.62923 0.0
C2419 C 0.93585 0.83984 0.58685 0.0
C2420 C 0.94965 0.84765 0.59875 0.0
C2421 C 0.98868 0.86502 0.64008 0.0
C2422 C 0.97548 0.86009 0.62466 0.0
H2423 H 0.92482 0.82466 0.53508 0.0
H2424 H 0.94731 0.83827 0.55367 0.0
H2425 H 0.93486 0.86289 0.62033 0.0
H2426 H 0.99866 0.86311 0.69616 0.0
H2427 H 0.9766 0.85662 0.67052 0.0
C2428 C 0.37328 0.76372 0.89891 0.0
C2429 C 0.37718 0.76282 0.92221 0.0
C2430 C 0.37701 0.75098 0.88421 0.0
C2431 C 0.3848 0.70789 0.88199 0.0
H2432 H 0.41414 0.71703 0.83233 0.0
C2433 C 0.42103 0.65764 0.8389 0.0
C2434 C 0.42535 0.65902 0.81583 0.0
C2435 C 0.41331 0.67026 0.85012 0.0
C2436 C 0.40567 0.71423 0.84575 0.0
H2437 H 0.38752 0.74758 0.94839 0.0
H2438 H 0.39344 0.72524 0.92293 0.0
H2439 H 0.40311 0.73909 0.85481 0.0
H2440 H 0.42453 0.67465 0.78628 0.0
H2441 H 0.41051 0.69648 0.80562 0.0
H2442 H 0.38706 0.68312 0.87299 0.0
C2443 C 0.38768 0.73586 0.91604 0.0
C2444 C 0.39941 0.72691 0.85867 0.0
C2445 C 0.38432 0.74869 0.9306 0.0
C2446 C 0.42148 0.67324 0.80411 0.0
C2447 C 0.41351 0.68581 0.81527 0.0
C2448 C 0.3908 0.69524 0.86884 0.0
C2449 C 0.38431 0.73698 0.89267 0.0
C2450 C 0.38922 0.7238 0.87721 0.0
C2451 C 0.40943 0.68455 0.8385 0.0
C2452 C 0.40167 0.69818 0.8509 0.0
H2453 H 0.36784 0.77445 0.89188 0.0
H2454 H 0.37429 0.75209 0.86622 0.0
H2455 H 0.37684 0.70522 0.8961 0.0
H2456 H 0.42392 0.64692 0.84853 0.0
H2457 H 0.41076 0.6689 0.8681 0.0
C2458 C 0.59459 0.16951 0.09084 0.0
C2459 C 0.59253 0.17553 0.06862 0.0
C2460 C 0.58174 0.16254 0.10253 0.0
C2461 C 0.5427 0.14284 0.09618 0.0
H2462 H 0.53489 0.15932 0.15697 0.0
C2463 C 0.4858 0.12669 0.1494 0.0
C2464 C 0.48741 0.12634 0.17322 0.0
C2465 C 0.49876 0.13137 0.13564 0.0
C2466 C 0.53702 0.15431 0.14021 0.0
H2467 H 0.57539 0.1784 0.04103 0.0
H2468 H 0.55296 0.16596 0.0615 0.0
H2469 H 0.55719 0.1698 0.13481 0.0
H2470 H 0.5041 0.12933 0.2012 0.0
H2471 H 0.52678 0.13672 0.17742 0.0
H2472 H 0.52269 0.12709 0.10177 0.0
C2473 C 0.56456 0.16676 0.06978 0.0
C2474 C 0.54977 0.16042 0.12746 0.0
C2475 C 0.57739 0.17395 0.05814 0.0
C2476 C 0.50242 0.12978 0.18292 0.0
C2477 C 0.51541 0.13415 0.16924 0.0
C2478 C 0.53 0.13653 0.1091 0.0
C2479 C 0.56657 0.16123 0.09222 0.0
C2480 C 0.5528 0.15472 0.10537 0.0
C2481 C 0.51364 0.13556 0.14547 0.0
C2482 C 0.52706 0.14213 0.13138 0.0
H2483 H 0.60605 0.17044 0.09947 0.0
H2484 H 0.58366 0.15823 0.11974 0.0
H2485 H 0.54482 0.1382 0.0792 0.0
H2486 H 0.47431 0.12416 0.14148 0.0
H2487 H 0.49689 0.13236 0.11744 0.0
C2488 C 0.07918 0.65732 0.16118 0.0
C2489 C 0.07614 0.6589 0.18466 0.0
C2490 C 0.08608 0.66992 0.1489 0.0
C2491 C 0.11075 0.70593 0.15214 0.0
H2492 H 0.0863 0.71967 0.09939 0.0
C2493 C 0.12688 0.76305 0.09943 0.0
C2494 C 0.12331 0.76287 0.07601 0.0
C2495 C 0.12226 0.7502 0.11344 0.0
C2496 C 0.0935 0.71585 0.11377 0.0
H2497 H 0.07864 0.67479 0.2138 0.0
H2498 H 0.09105 0.69675 0.19223 0.0
H2499 H 0.07661 0.69744 0.1224 0.0
H2500 H 0.11296 0.74861 0.04878 0.0
H2501 H 0.10577 0.72604 0.07267 0.0
H2502 H 0.12792 0.72405 0.14315 0.0
C2503 C 0.08791 0.68574 0.18345 0.0
C2504 C 0.08784 0.70316 0.12705 0.0
C2505 C 0.08075 0.67319 0.19573 0.0
C2506 C 0.11576 0.74926 0.06675 0.0
C2507 C 0.11146 0.73633 0.08058 0.0
C2508 C 0.1166 0.71851 0.13858 0.0
C2509 C 0.09033 0.68431 0.15985 0.0
C2510 C 0.09642 0.69802 0.14627 0.0
C2511 C 0.11421 0.73679 0.10423 0.0
C2512 C 0.10809 0.72357 0.11909 0.0
H2513 H 0.07583 0.64651 0.15206 0.0
H2514 H 0.08794 0.6685 0.13074 0.0
H2515 H 0.11759 0.70213 0.16689 0.0
H2516 H 0.13264 0.77338 0.10712 0.0
H2517 H 0.12451 0.75106 0.13157 0.0
C2518 C 0.5001 0.86375 0.31967 0.0
C2519 C 0.48666 0.87176 0.32863 0.0
C2520 C 0.51261 0.85883 0.33384 0.0
C2521 C 0.52997 0.86326 0.39213 0.0
H2522 H 0.55036 0.82296 0.37571 0.0
C2523 C 0.57666 0.82704 0.44727 0.0
C2524 C 0.59097 0.8236 0.43542 0.0
C2525 C 0.56349 0.83378 0.43583 0.0
C2526 C 0.54476 0.83423 0.38048 0.0
H2527 H 0.476 0.8812 0.3596 0.0
H2528 H 0.49762 0.87205 0.38458 0.0
H2529 H 0.52813 0.83299 0.35292 0.0
H2530 H 0.60265 0.82479 0.40233 0.0
H2531 H 0.5796 0.83606 0.38251 0.0
H2532 H 0.54657 0.86403 0.42021 0.0
C2533 C 0.49866 0.86989 0.36644 0.0
C2534 C 0.53211 0.84009 0.36732 0.0
C2535 C 0.48622 0.8751 0.35212 0.0
C2536 C 0.59186 0.82724 0.41204 0.0
C2537 C 0.57866 0.83367 0.40062 0.0
C2538 C 0.54251 0.8572 0.40557 0.0
C2539 C 0.5119 0.86142 0.35751 0.0
C2540 C 0.52475 0.85487 0.37262 0.0
C2541 C 0.56433 0.83688 0.41234 0.0
C2542 C 0.55019 0.84279 0.39956 0.0
H2543 H 0.50093 0.86109 0.30166 0.0
H2544 H 0.5228 0.85283 0.32615 0.0
H2545 H 0.52469 0.87471 0.39669 0.0
H2546 H 0.57561 0.82445 0.46529 0.0
H2547 H 0.55251 0.83614 0.44518 0.0
C2548 C 0.37395 0.23657 0.60416 0.0
C2549 C 0.3773 0.23819 0.58076 0.0
C2550 C 0.37767 0.24904 0.61937 0.0
C2551 C 0.38401 0.29232 0.62304 0.0
H2552 H 0.41551 0.28374 0.67018 0.0
C2553 C 0.42113 0.34317 0.66229 0.0
C2554 C 0.42613 0.34229 0.68514 0.0
C2555 C 0.41328 0.33026 0.65199 0.0
C2556 C 0.40645 0.28635 0.65748 0.0
H2557 H 0.38666 0.2544 0.55501 0.0
H2558 H 0.39251 0.2762 0.5813 0.0
H2559 H 0.40428 0.26147 0.64814 0.0
H2560 H 0.42653 0.3271 0.71519 0.0
H2561 H 0.41239 0.30465 0.69733 0.0
H2562 H 0.38598 0.31709 0.63217 0.0
C2563 C 0.38722 0.26525 0.5879 0.0
C2564 C 0.40006 0.27357 0.64484 0.0
C2565 C 0.38389 0.25272 0.57285 0.0
C2566 C 0.42292 0.32816 0.69751 0.0
C2567 C 0.41487 0.31525 0.68723 0.0
C2568 C 0.39017 0.30504 0.63587 0.0
C2569 C 0.38437 0.26346 0.61132 0.0
C2570 C 0.38913 0.27652 0.62709 0.0
C2571 C 0.40996 0.31613 0.66428 0.0
C2572 C 0.40188 0.30231 0.65278 0.0
H2573 H 0.36896 0.2255 0.61081 0.0
H2574 H 0.37538 0.24741 0.6374 0.0
H2575 H 0.37548 0.29487 0.60957 0.0
H2576 H 0.42349 0.35378 0.65213 0.0
H2577 H 0.41011 0.33131 0.63415 0.0
C2578 C 0.01593 0.12608 0.85175 0.0
C2579 C 0.01413 0.1271 0.82796 0.0
C2580 C 0.00357 0.13125 0.86628 0.0
C2581 C 0.96769 0.15788 0.86502 0.0
H2582 H 0.95735 0.13823 0.92313 0.0
C2583 C 0.90929 0.17186 0.91231 0.0
C2584 C 0.91061 0.17674 0.9352 0.0
C2585 C 0.92241 0.16525 0.90089 0.0
C2586 C 0.96024 0.14388 0.90701 0.0
H2587 H 0.99754 0.13323 0.80085 0.0
H2588 H 0.97594 0.14152 0.82588 0.0
H2589 H 0.9791 0.12706 0.89976 0.0
H2590 H 0.92674 0.17793 0.96422 0.0
H2591 H 0.94972 0.16601 0.94414 0.0
H2592 H 0.94858 0.17437 0.87192 0.0
C2593 C 0.98707 0.13742 0.83348 0.0
C2594 C 0.9727 0.13753 0.89364 0.0
C2595 C 0.99944 0.13251 0.81906 0.0
C2596 C 0.92532 0.17436 0.94658 0.0
C2597 C 0.93845 0.16749 0.93516 0.0
C2598 C 0.95518 0.16405 0.87818 0.0
C2599 C 0.98912 0.13737 0.85728 0.0
C2600 C 0.97641 0.14432 0.87228 0.0
C2601 C 0.93716 0.16314 0.91209 0.0
C2602 C 0.95119 0.15702 0.89916 0.0
H2603 H 0.02714 0.12201 0.85913 0.0
H2604 H 0.00562 0.13106 0.8845 0.0
H2605 H 0.9705 0.1638 0.84907 0.0
H2606 H 0.89818 0.17342 0.90294 0.0
H2607 H 0.92105 0.16184 0.88317 0.0
C2608 C 0.92088 0.65676 0.65997 0.0
C2609 C 0.92385 0.65797 0.68352 0.0
C2610 C 0.91406 0.66956 0.64806 0.0
C2611 C 0.88961 0.70565 0.652 0.0
H2612 H 0.91477 0.72009 0.60029 0.0
C2613 C 0.87418 0.76344 0.60029 0.0
C2614 C 0.8779 0.76343 0.57691 0.0
C2615 C 0.87871 0.75049 0.61417 0.0
C2616 C 0.90738 0.71609 0.61438 0.0
H2617 H 0.92121 0.67337 0.71316 0.0
H2618 H 0.90891 0.69569 0.6922 0.0
H2619 H 0.92407 0.69746 0.62283 0.0
H2620 H 0.88849 0.74939 0.54963 0.0
H2621 H 0.89553 0.72667 0.57328 0.0
H2622 H 0.87264 0.72399 0.64316 0.0
C2623 C 0.91206 0.6848 0.68309 0.0
C2624 C 0.91281 0.70317 0.62739 0.0
C2625 C 0.91915 0.67206 0.69502 0.0
C2626 C 0.88556 0.74991 0.56757 0.0
C2627 C 0.88978 0.7369 0.58127 0.0
C2628 C 0.88399 0.71848 0.6387 0.0
C2629 C 0.9098 0.68377 0.65943 0.0
C2630 C 0.90396 0.69776 0.64621 0.0
C2631 C 0.88683 0.73716 0.60487 0.0
C2632 C 0.89276 0.72378 0.61957 0.0
H2633 H 0.92429 0.64611 0.65052 0.0
H2634 H 0.9123 0.66844 0.62983 0.0
H2635 H 0.88257 0.70165 0.66645 0.0
H2636 H 0.86833 0.7737 0.60805 0.0
H2637 H 0.87631 0.7512 0.63228 0.0
C2638 C 0.0016 0.13457 0.31999 0.0
C2639 C 0.98771 0.12715 0.32866 0.0
C2640 C 0.01439 0.13846 0.33436 0.0
C2641 C 0.02351 0.15115 0.39122 0.0
H2642 H 0.0673 0.13877 0.3771 0.0
C2643 C 0.07736 0.1741 0.4449 0.0
C2644 C 0.09161 0.17763 0.43306 0.0
C2645 C 0.06469 0.16611 0.43399 0.0
C2646 C 0.05519 0.14254 0.38118 0.0
H2647 H 0.97642 0.11792 0.35933 0.0
H2648 H 0.99869 0.12529 0.38465 0.0
H2649 H 0.04521 0.12806 0.35444 0.0
H2650 H 0.10362 0.17569 0.40034 0.0
H2651 H 0.08148 0.16252 0.38118 0.0
H2652 H 0.03338 0.16637 0.41702 0.0
C2653 C 0.99966 0.12782 0.36659 0.0
C2654 C 0.04254 0.13625 0.36829 0.0
C2655 C 0.98698 0.12356 0.35208 0.0
C2656 C 0.09288 0.17304 0.41008 0.0
C2657 C 0.08017 0.16532 0.3991 0.0
C2658 C 0.03619 0.1577 0.40386 0.0
C2659 C 0.01344 0.13535 0.35782 0.0
C2660 C 0.02662 0.14066 0.37301 0.0
C2661 C 0.06589 0.16167 0.41087 0.0
C2662 C 0.05224 0.15369 0.39877 0.0
H2663 H 0.00257 0.13757 0.30211 0.0
H2664 H 0.02484 0.14438 0.32723 0.0
H2665 H 0.01131 0.15483 0.39502 0.0
H2666 H 0.07603 0.17738 0.46268 0.0
H2667 H 0.05401 0.16333 0.44376 0.0
C2668 C 0.62111 0.25141 0.06972 0.0
C2669 C 0.62505 0.23649 0.07934 0.0
C2670 C 0.61663 0.26431 0.08352 0.0
C2671 C 0.61464 0.27888 0.14373 0.0
H2672 H 0.58053 0.3053 0.11873 0.0
C2673 C 0.5766 0.32578 0.195 0.0
C2674 C 0.57491 0.34088 0.18445 0.0
C2675 C 0.58391 0.31299 0.18342 0.0
C2676 C 0.59012 0.29809 0.12588 0.0
H2677 H 0.62804 0.22351 0.11104 0.0
H2678 H 0.61961 0.24589 0.13528 0.0
H2679 H 0.59121 0.28319 0.09638 0.0
H2680 H 0.57995 0.35439 0.15356 0.0
H2681 H 0.59234 0.33206 0.1334 0.0
H2682 H 0.61298 0.29371 0.17364 0.0
C2683 C 0.6203 0.24777 0.11705 0.0
C2684 C 0.59636 0.28545 0.11302 0.0
C2685 C 0.62511 0.23491 0.10317 0.0
C2686 C 0.58096 0.34295 0.16224 0.0
C2687 C 0.58803 0.33015 0.15062 0.0
C2688 C 0.6082 0.29144 0.15677 0.0
C2689 C 0.6156 0.26253 0.10732 0.0
C2690 C 0.60887 0.27579 0.12158 0.0
C2691 C 0.58944 0.315 0.16097 0.0
C2692 C 0.59601 0.30127 0.14782 0.0
H2693 H 0.62125 0.25308 0.05145 0.0
H2694 H 0.61368 0.27561 0.07539 0.0
H2695 H 0.62433 0.27179 0.15086 0.0
H2696 H 0.57214 0.32377 0.21211 0.0
H2697 H 0.58481 0.3014 0.19174 0.0
C2698 C 0.41024 0.82556 0.91104 0.0
C2699 C 0.4111 0.82204 0.93446 0.0
C2700 C 0.42341 0.83207 0.89963 0.0
C2701 C 0.45898 0.85638 0.90475 0.0
H2702 H 0.47414 0.83254 0.85219 0.0
C2703 C 0.51492 0.87584 0.85167 0.0
C2704 C 0.51474 0.8724 0.8282 0.0
C2705 C 0.50256 0.87031 0.86588 0.0
C2706 C 0.46994 0.83955 0.86656 0.0
H2707 H 0.42638 0.82311 0.96438 0.0
H2708 H 0.44942 0.83499 0.9443 0.0
H2709 H 0.45211 0.82194 0.87486 0.0
H2710 H 0.50095 0.86121 0.80115 0.0
H2711 H 0.47917 0.85241 0.82543 0.0
H2712 H 0.47634 0.87436 0.89595 0.0
C2713 C 0.4385 0.83245 0.93491 0.0
C2714 C 0.4574 0.83335 0.87966 0.0
C2715 C 0.42537 0.8256 0.94632 0.0
C2716 C 0.50159 0.86397 0.81914 0.0
C2717 C 0.48914 0.85873 0.8332 0.0
C2718 C 0.47139 0.86277 0.89137 0.0
C2719 C 0.43767 0.83551 0.9114 0.0
C2720 C 0.4517 0.84176 0.89871 0.0
C2721 C 0.48963 0.86142 0.85687 0.0
C2722 C 0.4769 0.85452 0.87189 0.0
H2723 H 0.39948 0.82298 0.90132 0.0
H2724 H 0.42247 0.83442 0.88151 0.0
H2725 H 0.4547 0.8631 0.91935 0.0
H2726 H 0.52492 0.88226 0.85922 0.0
H2727 H 0.50344 0.87255 0.88401 0.0
C2728 C 0.87613 0.2367 0.89978 0.0
C2729 C 0.87935 0.23714 0.9233 0.0
C2730 C 0.88129 0.24923 0.88554 0.0
C2731 C 0.91094 0.28283 0.88519 0.0
H2732 H 0.88757 0.29716 0.83175 0.0
C2733 C 0.92442 0.34249 0.84048 0.0
C2734 C 0.92817 0.34158 0.81713 0.0
C2735 C 0.91787 0.32931 0.85185 0.0
C2736 C 0.89424 0.29314 0.84654 0.0
H2737 H 0.88964 0.25155 0.95042 0.0
H2738 H 0.89778 0.27354 0.9261 0.0
H2739 H 0.87669 0.27527 0.85509 0.0
H2740 H 0.92739 0.3262 0.78727 0.0
H2741 H 0.91549 0.30316 0.80728 0.0
H2742 H 0.92814 0.3011 0.87712 0.0
C2743 C 0.89195 0.26328 0.91832 0.0
C2744 C 0.88807 0.28059 0.85989 0.0
C2745 C 0.88709 0.2507 0.93239 0.0
C2746 C 0.92472 0.32727 0.80528 0.0
C2747 C 0.91785 0.31413 0.81665 0.0
C2748 C 0.91693 0.29548 0.87213 0.0
C2749 C 0.88958 0.26254 0.8946 0.0
C2750 C 0.89625 0.27542 0.8796 0.0
C2751 C 0.91464 0.31499 0.84012 0.0
C2752 C 0.90857 0.30087 0.85284 0.0
H2753 H 0.87023 0.2264 0.89221 0.0
H2754 H 0.87928 0.24817 0.86737 0.0
H2755 H 0.9179 0.27888 0.89975 0.0
H2756 H 0.92688 0.35328 0.8502 0.0
H2757 H 0.91539 0.33029 0.86993 0.0
C2758 C 0.50051 0.13777 0.68079 0.0
C2759 C 0.51422 0.13005 0.67215 0.0
C2760 C 0.48813 0.14257 0.66635 0.0
C2761 C 0.4715 0.13852 0.60766 0.0
H2762 H 0.4507 0.17854 0.6245 0.0
C2763 C 0.425 0.17589 0.55326 0.0
C2764 C 0.41046 0.17861 0.56494 0.0
C2765 C 0.43812 0.1689 0.56448 0.0
C2766 C 0.45642 0.16735 0.61961 0.0
H2767 H 0.52544 0.12088 0.64144 0.0
H2768 H 0.50399 0.12984 0.6159 0.0
H2769 H 0.47291 0.16852 0.64732 0.0
H2770 H 0.39831 0.1758 0.59747 0.0
H2771 H 0.42131 0.16412 0.61703 0.0
H2772 H 0.45501 0.13785 0.5794 0.0
C2773 C 0.50268 0.13188 0.63403 0.0
C2774 C 0.46906 0.16149 0.63278 0.0
C2775 C 0.51501 0.12677 0.64866 0.0
C2776 C 0.40928 0.17392 0.58792 0.0
C2777 C 0.42244 0.16725 0.59917 0.0
C2778 C 0.45895 0.14458 0.59419 0.0
C2779 C 0.48923 0.14016 0.64268 0.0
C2780 C 0.47653 0.14679 0.62736 0.0
C2781 C 0.437 0.16481 0.58764 0.0
C2782 C 0.45113 0.15888 0.60038 0.0
H2783 H 0.49938 0.14035 0.69876 0.0
H2784 H 0.47775 0.14838 0.67383 0.0
H2785 H 0.47689 0.12715 0.60299 0.0
H2786 H 0.42628 0.1793 0.53553 0.0
H2787 H 0.44928 0.16716 0.55531 0.0
C2788 C 0.6256 0.76397 0.40005 0.0
C2789 C 0.62216 0.7635 0.42351 0.0
C2790 C 0.62043 0.75157 0.38562 0.0
C2791 C 0.59045 0.71825 0.38444 0.0
H2792 H 0.61419 0.70393 0.3313 0.0
C2793 C 0.57752 0.65861 0.33933 0.0
C2794 C 0.57361 0.65961 0.31605 0.0
C2795 C 0.584 0.67179 0.35077 0.0
C2796 C 0.60742 0.70795 0.34601 0.0
H2797 H 0.61144 0.74912 0.45033 0.0
H2798 H 0.60327 0.7273 0.42568 0.0
H2799 H 0.62503 0.72565 0.355 0.0
H2800 H 0.57402 0.67516 0.28636 0.0
H2801 H 0.58582 0.69822 0.30649 0.0
H2802 H 0.57322 0.7001 0.37594 0.0
C2803 C 0.60929 0.73752 0.41808 0.0
C2804 C 0.61357 0.7204 0.35956 0.0
C2805 C 0.61417 0.75 0.43235 0.0
C2806 C 0.57682 0.67402 0.30431 0.0
C2807 C 0.58363 0.68717 0.31575 0.0
C2808 C 0.5845 0.70568 0.37117 0.0
C2809 C 0.6119 0.73831 0.39441 0.0
C2810 C 0.60526 0.72556 0.37918 0.0
C2811 C 0.587 0.68621 0.33916 0.0
C2812 C 0.59299 0.7003 0.352 0.0
H2813 H 0.6317 0.77423 0.39267 0.0
H2814 H 0.62262 0.75267 0.3675 0.0
H2815 H 0.5834 0.72218 0.39891 0.0
H2816 H 0.57525 0.64774 0.34896 0.0
H2817 H 0.5866 0.67075 0.36881 0.0
C2818 C 0.0916 0.82603 0.08892 0.0
C2819 C 0.09085 0.82275 0.06542 0.0
C2820 C 0.07834 0.83232 0.10039 0.0
C2821 C 0.04233 0.85615 0.09548 0.0
H2822 H 0.02785 0.8319 0.14804 0.0
C2823 C 0.9862 0.87428 0.1492 0.0
C2824 C 0.98666 0.87092 0.17268 0.0
C2825 C 0.99858 0.86901 0.13481 0.0
C2826 C 0.03185 0.83901 0.13367 0.0
H2827 H 0.07565 0.82405 0.03542 0.0
H2828 H 0.05246 0.83551 0.05562 0.0
H2829 H 0.05 0.82179 0.12516 0.0
H2830 H 0.00094 0.86013 0.19956 0.0
H2831 H 0.0227 0.85176 0.17494 0.0
H2832 H 0.02461 0.87373 0.10448 0.0
C2833 C 0.06337 0.83297 0.06502 0.0
C2834 C 0.04447 0.8331 0.12045 0.0
C2835 C 0.0766 0.82636 0.05354 0.0
C2836 C 1.00008 0.86282 0.18156 0.0
C2837 C 0.01253 0.85783 0.16732 0.0
C2838 C 0.02982 0.86224 0.10897 0.0
C2839 C 0.06409 0.83576 0.08862 0.0
C2840 C 0.04994 0.84168 0.1014 0.0
C2841 C 0.01178 0.86045 0.14365 0.0
C2842 C 0.02457 0.85384 0.12846 0.0
H2843 H 0.10234 0.82343 0.09866 0.0
H2844 H 0.07922 0.83447 0.11856 0.0
H2845 H 0.04642 0.86299 0.08089 0.0
H2846 H 0.976 0.88044 0.14178 0.0
H2847 H 0.99751 0.8712 0.11668 0.0
C2848 C 0.61668 0.75284 0.92902 0.0
C2849 C 0.62385 0.73868 0.9208 0.0
C2850 C 0.61332 0.76559 0.91432 0.0
C2851 C 0.60176 0.77467 0.85694 0.0
H2852 H 0.61474 0.81824 0.87143 0.0
C2853 C 0.57999 0.82923 0.80347 0.0
C2854 C 0.57628 0.8433 0.81568 0.0
C2855 C 0.58786 0.81639 0.8142 0.0
C2856 C 0.61084 0.80619 0.86722 0.0
H2857 H 0.63317 0.72687 0.89058 0.0
H2858 H 0.62674 0.74911 0.86468 0.0
H2859 H 0.62477 0.79595 0.89431 0.0
H2860 H 0.57786 0.85478 0.84885 0.0
H2861 H 0.59086 0.83241 0.86756 0.0
H2862 H 0.58706 0.78485 0.83074 0.0
C2863 C 0.624 0.7503 0.88265 0.0
C2864 C 0.61672 0.79343 0.88024 0.0
C2865 C 0.62772 0.73764 0.89749 0.0
C2866 C 0.58062 0.84421 0.8388 0.0
C2867 C 0.58826 0.83136 0.84954 0.0
C2868 C 0.59562 0.78747 0.84413 0.0
C2869 C 0.61673 0.76437 0.89097 0.0
C2870 C 0.61203 0.77759 0.87546 0.0
C2871 C 0.59204 0.81726 0.83744 0.0
C2872 C 0.59982 0.80345 0.84941 0.0
H2873 H 0.61348 0.75406 0.9468 0.0
H2874 H 0.60759 0.77626 0.92112 0.0
H2875 H 0.59788 0.76254 0.85305 0.0
H2876 H 0.5769 0.82815 0.78561 0.0
H2877 H 0.59074 0.80583 0.80421 0.0
C2878 C 0.49929 0.36801 0.18111 0.0
C2879 C 0.51398 0.37317 0.17195 0.0
C2880 C 0.4866 0.36364 0.16692 0.0
C2881 C 0.47152 0.36447 0.10711 0.0
H2882 H 0.44713 0.32769 0.12849 0.0
C2883 C 0.42441 0.32809 0.05349 0.0
C2884 C 0.40977 0.32507 0.06475 0.0
C2885 C 0.4373 0.33516 0.06516 0.0
C2886 C 0.45377 0.33803 0.12235 0.0
H2887 H 0.52668 0.37847 0.1406 0.0
H2888 H 0.50461 0.37028 0.11557 0.0
H2889 H 0.46928 0.33784 0.15125 0.0
H2890 H 0.39716 0.32756 0.097 0.0
H2891 H 0.41965 0.33955 0.11722 0.0
H2892 H 0.45603 0.36416 0.07777 0.0
C2893 C 0.5028 0.36988 0.13384 0.0
C2894 C 0.46643 0.34394 0.13546 0.0
C2895 C 0.51548 0.37455 0.14816 0.0
C2896 C 0.40823 0.32961 0.08775 0.0
C2897 C 0.42114 0.33645 0.09941 0.0
C2898 C 0.45891 0.35837 0.09379 0.0
C2899 C 0.48833 0.36396 0.14308 0.0
C2900 C 0.47531 0.35743 0.12827 0.0
C2901 C 0.43585 0.33912 0.08835 0.0
C2902 C 0.44977 0.34524 0.10151 0.0
H2903 H 0.49763 0.3671 0.19933 0.0
H2904 H 0.47548 0.35971 0.17473 0.0
H2905 H 0.47803 0.37489 0.10106 0.0
H2906 H 0.426 0.3248 0.03577 0.0
H2907 H 0.44856 0.33705 0.05628 0.0
C2908 C 0.8775 0.26497 0.39903 0.0
C2909 C 0.87928 0.26367 0.42279 0.0
C2910 C 0.88259 0.25248 0.38466 0.0
C2911 C 0.9099 0.217 0.38562 0.0
H2912 H 0.88875 0.20548 0.32904 0.0
C2913 C 0.92299 0.15793 0.3392 0.0
C2914 C 0.92758 0.15912 0.31617 0.0
C2915 C 0.91651 0.17113 0.35061 0.0
C2916 C 0.89481 0.20869 0.34473 0.0
H2917 H 0.88681 0.24782 0.45009 0.0
H2918 H 0.89489 0.22597 0.42543 0.0
H2919 H 0.87798 0.22747 0.35231 0.0
H2920 H 0.92832 0.17506 0.2869 0.0
H2921 H 0.91657 0.19814 0.30696 0.0
H2922 H 0.92636 0.1979 0.37843 0.0
C2923 C 0.89027 0.23682 0.41765 0.0
C2924 C 0.88869 0.2213 0.35804 0.0
C2925 C 0.88546 0.24934 0.43189 0.0
C2926 C 0.92499 0.17375 0.30465 0.0
C2927 C 0.91822 0.18693 0.31606 0.0
C2928 C 0.91581 0.20431 0.37255 0.0
C2929 C 0.88937 0.23837 0.39381 0.0
C2930 C 0.89605 0.22547 0.37886 0.0
C2931 C 0.91419 0.18578 0.33925 0.0
C2932 C 0.90825 0.19991 0.35213 0.0
H2933 H 0.87282 0.27589 0.39148 0.0
H2934 H 0.88175 0.25416 0.3664 0.0
H2935 H 0.91624 0.22014 0.4011 0.0
H2936 H 0.92474 0.1469 0.34866 0.0
H2937 H 0.91337 0.1699 0.36845 0.0
C2938 C 0.07663 0.686 0.56407 0.0
C2939 C 0.09189 0.67891 0.56623 0.0
C2940 C 0.06333 0.67937 0.57517 0.0
C2941 C 0.04577 0.6432 0.59858 0.0
H2942 H 0.02499 0.67139 0.64212 0.0
C2943 C 0.99631 0.62074 0.66112 0.0
C2944 C 0.98466 0.63187 0.66814 0.0
C2945 C 0.0092 0.6257 0.6474 0.0
C2946 C 0.03035 0.66339 0.62971 0.0
H2947 H 0.10499 0.6589 0.58098 0.0
H2948 H 0.08156 0.64706 0.59982 0.0
H2949 H 0.04741 0.68132 0.61966 0.0
H2950 H 0.9766 0.65652 0.66529 0.0
H2951 H 0.99829 0.66496 0.64039 0.0
H2952 H 0.0284 0.62539 0.60795 0.0
C2953 C 0.08003 0.65786 0.58973 0.0
C2954 C 0.0433 0.6691 0.61699 0.0
C2955 C 0.09342 0.66469 0.57904 0.0
C2956 C 0.98561 0.64778 0.66038 0.0
C2957 C 0.99818 0.65263 0.64627 0.0
C2958 C 0.03253 0.63755 0.61098 0.0
C2959 C 0.06495 0.66532 0.58821 0.0
C2960 C 0.05112 0.65908 0.60133 0.0
C2961 C 0.01043 0.64181 0.64007 0.0
C2962 C 0.02459 0.6476 0.62671 0.0
H2963 H 0.07503 0.69698 0.55441 0.0
H2964 H 0.05178 0.6853 0.57375 0.0
H2965 H 0.05165 0.63527 0.58653 0.0
H2966 H 0.99583 0.60841 0.66702 0.0
H2967 H 0.01842 0.61702 0.6432 0.0
C2968 C 0.61936 0.24847 0.57261 0.0
C2969 C 0.62577 0.263 0.58079 0.0
C2970 C 0.61597 0.23584 0.58749 0.0
C2971 C 0.60276 0.22771 0.64448 0.0
H2972 H 0.61621 0.18396 0.63209 0.0
C2973 C 0.57946 0.17412 0.69837 0.0
C2974 C 0.57604 0.15985 0.68647 0.0
C2975 C 0.5877 0.18672 0.68767 0.0
C2976 C 0.61218 0.19606 0.6357 0.0
H2977 H 0.63384 0.27557 0.6111 0.0
H2978 H 0.62737 0.25352 0.63734 0.0
H2979 H 0.62687 0.20593 0.60913 0.0
H2980 H 0.57859 0.14772 0.6539 0.0
H2981 H 0.59227 0.16971 0.63516 0.0
H2982 H 0.58732 0.2179 0.67008 0.0
C2983 C 0.62522 0.25195 0.61926 0.0
C2984 C 0.61843 0.20865 0.62265 0.0
C2985 C 0.62898 0.2645 0.60424 0.0
C2986 C 0.5811 0.15847 0.66369 0.0
C2987 C 0.58912 0.1711 0.65295 0.0
C2988 C 0.59628 0.21509 0.6573 0.0
C2989 C 0.6186 0.23755 0.61099 0.0
C2990 C 0.61357 0.22454 0.62667 0.0
C2991 C 0.59256 0.18542 0.66475 0.0
C2992 C 0.60065 0.19904 0.65277 0.0
H2993 H 0.61674 0.24689 0.5547 0.0
H2994 H 0.61075 0.22491 0.58071 0.0
H2995 H 0.59872 0.23988 0.64774 0.0
H2996 H 0.57582 0.17555 0.71598 0.0
H2997 H 0.59031 0.19745 0.69744 0.0
C2998 C 0.98845 0.37814 0.85188 0.0
C2999 C 0.9886 0.3736 0.82877 0.0
C3000 C 0.00139 0.37428 0.86614 0.0
C3001 C 0.04421 0.36484 0.86632 0.0
H3002 H 0.0355 0.33833 0.91924 0.0
C3003 C 0.09419 0.32847 0.90977 0.0
C3004 C 0.09338 0.32535 0.93328 0.0
C3005 C 0.08159 0.33625 0.89861 0.0
C3006 C 0.0382 0.34602 0.90485 0.0
H3007 H 0.00269 0.36181 0.8025 0.0
H3008 H 0.02537 0.35563 0.82716 0.0
H3009 H 0.0132 0.34918 0.89705 0.0
H3010 H 0.07882 0.3284 0.96363 0.0
H3011 H 0.05705 0.34252 0.94431 0.0
H3012 H 0.06912 0.36196 0.87404 0.0
C3013 C 0.01519 0.36203 0.83424 0.0
C3014 C 0.02539 0.35217 0.89211 0.0
C3015 C 0.00216 0.36556 0.82014 0.0
C3016 C 0.07978 0.33053 0.94547 0.0
C3017 C 0.06724 0.33854 0.93433 0.0
C3018 C 0.05701 0.35895 0.87926 0.0
C3019 C 0.01485 0.36617 0.85742 0.0
C3020 C 0.0283 0.36133 0.87245 0.0
C3021 C 0.0679 0.34138 0.91068 0.0
C3022 C 0.05421 0.34909 0.89838 0.0
H3023 H 0.97817 0.38428 0.85912 0.0
H3024 H 0.00088 0.3776 0.88398 0.0
H3025 H 0.04674 0.37203 0.85134 0.0
H3026 H 0.10441 0.32455 0.89977 0.0
H3027 H 0.08245 0.33784 0.88034 0.0
C3028 C 0.87393 0.73427 0.10821 0.0
C3029 C 0.87478 0.73691 0.08457 0.0
C3030 C 0.87765 0.74669 0.1235 0.0
C3031 C 0.88104 0.79063 0.12854 0.0
H3032 H 0.9159 0.78252 0.17083 0.0
C3033 C 0.91878 0.8421 0.16528 0.0
C3034 C 0.9251 0.84093 0.18744 0.0
C3035 C 0.91072 0.82916 0.15537 0.0
C3036 C 0.90593 0.78497 0.15951 0.0
H3037 H 0.87931 0.75479 0.0585 0.0
H3038 H 0.88537 0.77643 0.08501 0.0
H3039 H 0.9043 0.76026 0.14924 0.0
H3040 H 0.92763 0.82516 0.21668 0.0
H3041 H 0.91321 0.80264 0.19952 0.0
H3042 H 0.8826 0.81528 0.13855 0.0
C3043 C 0.88203 0.76478 0.09177 0.0
C3044 C 0.8993 0.77219 0.14712 0.0
C3045 C 0.87865 0.75234 0.07657 0.0
C3046 C 0.92298 0.82648 0.19954 0.0
C3047 C 0.91477 0.81352 0.18965 0.0
C3048 C 0.8875 0.80336 0.14109 0.0
C3049 C 0.88188 0.76202 0.11537 0.0
C3050 C 0.8871 0.77499 0.13107 0.0
C3051 C 0.90857 0.81468 0.16738 0.0
C3052 C 0.90037 0.80079 0.15624 0.0
H3053 H 0.87105 0.72247 0.11486 0.0
H3054 H 0.87742 0.74428 0.14164 0.0
H3055 H 0.8715 0.79308 0.11646 0.0
H3056 H 0.92023 0.85298 0.15534 0.0
H3057 H 0.90647 0.83044 0.13802 0.0
C3058 C 0.40867 0.67236 0.41075 0.0
C3059 C 0.40999 0.67714 0.43364 0.0
C3060 C 0.42139 0.66461 0.39982 0.0
C3061 C 0.46542 0.6574 0.40434 0.0
H3062 H 0.45644 0.62745 0.35529 0.0
C3063 C 0.51465 0.62361 0.35217 0.0
C3064 C 0.51378 0.62723 0.32877 0.0
C3065 C 0.50201 0.62774 0.36681 0.0
C3066 C 0.4591 0.63572 0.36904 0.0
H3067 H 0.42565 0.67719 0.46317 0.0
H3068 H 0.44769 0.6631 0.44434 0.0
H3069 H 0.43436 0.638 0.37812 0.0
H3070 H 0.49871 0.63755 0.30238 0.0
H3071 H 0.4765 0.64414 0.32775 0.0
H3072 H 0.49027 0.65479 0.39522 0.0
C3073 C 0.43696 0.66575 0.4346 0.0
C3074 C 0.44646 0.64192 0.38202 0.0
C3075 C 0.42429 0.67376 0.44547 0.0
C3076 C 0.49979 0.63455 0.32025 0.0
C3077 C 0.48704 0.6383 0.33475 0.0
C3078 C 0.47809 0.65094 0.3916 0.0
C3079 C 0.43572 0.66114 0.41156 0.0
C3080 C 0.44938 0.6532 0.39945 0.0
C3081 C 0.48813 0.63516 0.35819 0.0
C3082 C 0.47499 0.64035 0.37352 0.0
H3083 H 0.39791 0.67488 0.40102 0.0
H3084 H 0.42004 0.66168 0.38195 0.0
H3085 H 0.4682 0.66618 0.41738 0.0
H3086 H 0.52529 0.61805 0.3593 0.0
H3087 H 0.50308 0.6252 0.38485 0.0
C3088 C 0.4289 0.17464 0.19016 0.0
C3089 C 0.4258 0.15854 0.18424 0.0
C3090 C 0.42159 0.18723 0.17819 0.0
C3091 C 0.40305 0.19566 0.12227 0.0
H3092 H 0.39068 0.23588 0.1507 0.0
C3093 C 0.37193 0.26041 0.09606 0.0
C3094 C 0.38057 0.2634 0.07588 0.0
C3095 C 0.37591 0.24731 0.11 0.0
C3096 C 0.39389 0.22466 0.14254 0.0
H3097 H 0.41205 0.14314 0.16158 0.0
H3098 H 0.39913 0.16498 0.14118 0.0
H3099 H 0.39996 0.21356 0.17437 0.0
H3100 H 0.40023 0.25487 0.05467 0.0
H3101 H 0.40713 0.23236 0.07887 0.0
H3102 H 0.39688 0.20662 0.09052 0.0
C3103 C 0.40748 0.16792 0.15472 0.0
C3104 C 0.3994 0.21193 0.15607 0.0
C3105 C 0.41485 0.15536 0.16655 0.0
C3106 C 0.39319 0.25295 0.06996 0.0
C3107 C 0.39712 0.23992 0.08381 0.0
C3108 C 0.39754 0.20833 0.1088 0.0
C3109 C 0.41097 0.18402 0.16009 0.0
C3110 C 0.40422 0.19733 0.14606 0.0
C3111 C 0.38856 0.23692 0.104 0.0
C3112 C 0.39313 0.22307 0.1187 0.0
H3113 H 0.43729 0.17756 0.20365 0.0
H3114 H 0.4247 0.19947 0.18264 0.0
H3115 H 0.40682 0.18469 0.1139 0.0
H3116 H 0.36217 0.26824 0.10119 0.0
H3117 H 0.369 0.24526 0.12537 0.0
C3118 C 0.48645 0.62637 0.85055 0.0
C3119 C 0.48731 0.62902 0.8269 0.0
C3120 C 0.49886 0.63163 0.86491 0.0
C3121 C 0.53288 0.66077 0.8648 0.0
H3122 H 0.54595 0.63872 0.92 0.0
C3123 C 0.5919 0.67474 0.91082 0.0
C3124 C 0.59068 0.67907 0.93394 0.0
C3125 C 0.57882 0.66808 0.89936 0.0
C3126 C 0.54229 0.64503 0.9047 0.0
H3127 H 0.50235 0.63822 0.79973 0.0
H3128 H 0.52414 0.64656 0.82432 0.0
H3129 H 0.52434 0.62746 0.89649 0.0
H3130 H 0.57483 0.67924 0.96332 0.0
H3131 H 0.55195 0.66714 0.94316 0.0
H3132 H 0.55122 0.67796 0.87258 0.0
C3133 C 0.51365 0.64114 0.83207 0.0
C3134 C 0.5299 0.63863 0.89126 0.0
C3135 C 0.50118 0.63619 0.81785 0.0
C3136 C 0.57614 0.67611 0.94549 0.0
C3137 C 0.56309 0.66914 0.93404 0.0
C3138 C 0.54537 0.66696 0.87798 0.0
C3139 C 0.51248 0.63943 0.85586 0.0
C3140 C 0.52519 0.64633 0.87093 0.0
C3141 C 0.56428 0.66531 0.91078 0.0
C3142 C 0.5503 0.65908 0.89791 0.0
H3143 H 0.4759 0.62092 0.85807 0.0
H3144 H 0.49748 0.63013 0.88313 0.0
H3145 H 0.52929 0.66737 0.84973 0.0
H3146 H 0.60287 0.67681 0.90134 0.0
H3147 H 0.58005 0.66513 0.88145 0.0
C3148 C 0.08202 0.84253 0.66415 0.0
C3149 C 0.07519 0.84114 0.68599 0.0
C3150 C 0.09014 0.82962 0.65425 0.0
C3151 C 0.09439 0.78532 0.65756 0.0
H3152 H 0.12993 0.79352 0.61638 0.0
C3153 C 0.12731 0.73461 0.60783 0.0
C3154 C 0.12731 0.73729 0.58416 0.0
C3155 C 0.12326 0.74706 0.62289 0.0
C3156 C 0.12007 0.79105 0.62792 0.0
H3157 H 0.07183 0.82502 0.71467 0.0
H3158 H 0.08635 0.80257 0.69756 0.0
H3159 H 0.11843 0.81562 0.63824 0.0
H3160 H 0.12394 0.75526 0.55785 0.0
H3161 H 0.11731 0.77696 0.58404 0.0
H3162 H 0.09613 0.76068 0.64705 0.0
C3163 C 0.08514 0.81359 0.68791 0.0
C3164 C 0.11338 0.80372 0.64034 0.0
C3165 C 0.07686 0.82651 0.69778 0.0
C3166 C 0.12398 0.7528 0.57596 0.0
C3167 C 0.12026 0.76526 0.59097 0.0
C3168 C 0.10124 0.77259 0.64533 0.0
C3169 C 0.09185 0.81497 0.66596 0.0
C3170 C 0.10015 0.80112 0.65485 0.0
C3171 C 0.11953 0.76246 0.61454 0.0
C3172 C 0.11387 0.77542 0.62996 0.0
H3173 H 0.08091 0.85355 0.65445 0.0
H3174 H 0.09478 0.83108 0.63714 0.0
H3175 H 0.08414 0.78284 0.66837 0.0
H3176 H 0.12973 0.72276 0.61464 0.0
H3177 H 0.12283 0.74461 0.64101 0.0
C3178 C 0.90769 0.33559 0.42022 0.0
C3179 C 0.91036 0.32466 0.43811 0.0
C3180 C 0.92055 0.34286 0.40899 0.0
C3181 C 0.96447 0.35083 0.41167 0.0
H3182 H 0.96007 0.35236 0.34591 0.0
C3183 C 0.01261 0.37904 0.35126 0.0
C3184 C 0.01588 0.37026 0.33129 0.0
C3185 C 0.99977 0.37466 0.36546 0.0
C3186 C 0.96154 0.35198 0.36425 0.0
H3187 H 0.92878 0.31323 0.45867 0.0
H3188 H 0.95131 0.3257 0.43864 0.0
H3189 H 0.93796 0.34249 0.36892 0.0
H3190 H 0.00827 0.34981 0.31089 0.0
H3191 H 0.98623 0.34224 0.33549 0.0
H3192 H 0.98839 0.35984 0.40669 0.0
C3193 C 0.9392 0.32881 0.43356 0.0
C3194 C 0.94876 0.3465 0.3775 0.0
C3195 C 0.92627 0.3216 0.44498 0.0
C3196 C 0.00609 0.35699 0.32597 0.0
C3197 C 0.99334 0.35266 0.34006 0.0
C3198 C 0.97732 0.35633 0.39833 0.0
C3199 C 0.93647 0.3393 0.41513 0.0
C3200 C 0.95006 0.34575 0.40137 0.0
C3201 C 0.98993 0.36147 0.3599 0.0
C3202 C 0.97605 0.35676 0.37443 0.0
H3203 H 0.89564 0.33838 0.41453 0.0
H3204 H 0.91798 0.35114 0.39522 0.0
H3205 H 0.96582 0.35054 0.43002 0.0
H3206 H 0.01994 0.38928 0.35595 0.0
H3207 H 0.9974 0.38173 0.3806 0.0
C3208 C 0.42008 0.84274 0.33693 0.0
C3209 C 0.42528 0.84184 0.31417 0.0
C3210 C 0.41223 0.8298 0.34714 0.0
C3211 C 0.40587 0.78581 0.34162 0.0
H3212 H 0.37475 0.79403 0.38945 0.0
C3213 C 0.37365 0.73585 0.39497 0.0
C3214 C 0.3772 0.73742 0.41832 0.0
C3215 C 0.37724 0.74834 0.37975 0.0
C3216 C 0.38332 0.79157 0.37599 0.0
H3217 H 0.42601 0.82663 0.28416 0.0
H3218 H 0.41184 0.80412 0.30183 0.0
H3219 H 0.38502 0.81634 0.36681 0.0
H3220 H 0.38679 0.75355 0.44397 0.0
H3221 H 0.39242 0.77542 0.41768 0.0
H3222 H 0.40396 0.76092 0.351 0.0
C3223 C 0.41417 0.81476 0.31195 0.0
C3224 C 0.38935 0.80435 0.36314 0.0
C3225 C 0.42224 0.8277 0.30177 0.0
C3226 C 0.38388 0.75191 0.42618 0.0
C3227 C 0.38707 0.76448 0.41113 0.0
C3228 C 0.3996 0.77297 0.35426 0.0
C3229 C 0.4091 0.81562 0.33483 0.0
C3230 C 0.40111 0.80173 0.34628 0.0
C3231 C 0.38401 0.76274 0.38776 0.0
C3232 C 0.38862 0.77583 0.37197 0.0
H3233 H 0.4223 0.85336 0.34712 0.0
H3234 H 0.40893 0.83084 0.36492 0.0
H3235 H 0.41499 0.78328 0.32896 0.0
H3236 H 0.36858 0.7248 0.38835 0.0
H3237 H 0.37478 0.74676 0.36176 0.0
C3238 C 0.00408 0.64437 0.17883 0.0
C3239 C 0.01401 0.63113 0.17383 0.0
C3240 C 0.99112 0.64824 0.16487 0.0
C3241 C 0.97511 0.64411 0.10701 0.0
H3242 H 0.93557 0.65756 0.13635 0.0
C3243 C 0.92488 0.68017 0.06106 0.0
C3244 C 0.90885 0.67705 0.06728 0.0
C3245 C 0.93757 0.67256 0.07245 0.0
C3246 C 0.94642 0.65365 0.12779 0.0
H3247 H 0.01808 0.6117 0.14985 0.0
H3248 H 0.99521 0.61854 0.12529 0.0
H3249 H 0.95764 0.64752 0.15937 0.0
H3250 H 0.89366 0.66291 0.08977 0.0
H3251 H 0.91566 0.64956 0.10918 0.0
H3252 H 0.96378 0.6503 0.07536 0.0
C3253 C 0.99761 0.62587 0.14016 0.0
C3254 C 0.95915 0.64805 0.14104 0.0
C3255 C 0.01063 0.6219 0.15429 0.0
C3256 C 0.90582 0.66575 0.08459 0.0
C3257 C 0.91847 0.65812 0.09585 0.0
C3258 C 0.96233 0.64976 0.09369 0.0
C3259 C 0.98767 0.63904 0.14543 0.0
C3260 C 0.97374 0.64346 0.13088 0.0
C3261 C 0.93451 0.66165 0.09026 0.0
C3262 C 0.94788 0.65476 0.10397 0.0
H3263 H 0.00632 0.65191 0.19354 0.0
H3264 H 0.98391 0.65864 0.16918 0.0
H3265 H 0.98624 0.64073 0.09871 0.0
H3266 H 0.92767 0.6888 0.04782 0.0
H3267 H 0.94978 0.67568 0.06785 0.0
C3268 C 0.10622 0.25542 0.92141 0.0
C3269 C 0.12087 0.26366 0.91879 0.0
C3270 C 0.10181 0.24326 0.90633 0.0
C3271 C 0.11721 0.21334 0.8666 0.0
H3272 H 0.07329 0.21339 0.84439 0.0
C3273 C 0.07202 0.17481 0.80332 0.0
C3274 C 0.07476 0.15917 0.8116 0.0
C3275 C 0.07919 0.18809 0.81381 0.0
C3276 C 0.08564 0.21327 0.85018 0.0
H3277 H 0.14254 0.26526 0.89833 0.0
H3278 H 0.13484 0.24367 0.872 0.0
H3279 H 0.0829 0.23575 0.86748 0.0
H3280 H 0.08771 0.14529 0.83702 0.0
H3281 H 0.10015 0.16845 0.85525 0.0
H3282 H 0.11981 0.19066 0.84959 0.0
C3283 C 0.12679 0.24681 0.88581 0.0
C3284 C 0.0911 0.22602 0.86358 0.0
C3285 C 0.13117 0.25918 0.90084 0.0
C3286 C 0.08528 0.15713 0.83017 0.0
C3287 C 0.09252 0.17041 0.84055 0.0
C3288 C 0.11169 0.20048 0.85331 0.0
C3289 C 0.11196 0.23889 0.88828 0.0
C3290 C 0.10685 0.22607 0.87225 0.0
C3291 C 0.08936 0.18606 0.83273 0.0
C3292 C 0.09577 0.20022 0.84521 0.0
H3293 H 0.09796 0.25844 0.93502 0.0
H3294 H 0.09044 0.23719 0.90889 0.0
H3295 H 0.12938 0.21305 0.87312 0.0
H3296 H 0.06404 0.17687 0.78902 0.0
H3297 H 0.07665 0.19998 0.80723 0.0
C3298 C 0.57828 0.3262 0.55736 0.0
C3299 C 0.593 0.3233 0.56846 0.0
C3300 C 0.56546 0.33331 0.5691 0.0
C3301 C 0.54853 0.33603 0.62557 0.0
H3302 H 0.52619 0.37437 0.60537 0.0
C3303 C 0.50172 0.36573 0.68322 0.0
C3304 C 0.48797 0.37255 0.67329 0.0
C3305 C 0.51469 0.36096 0.66977 0.0
C3306 C 0.53212 0.36352 0.61111 0.0
H3307 H 0.60578 0.32585 0.60054 0.0
H3308 H 0.58329 0.3378 0.62102 0.0
H3309 H 0.54824 0.36346 0.58247 0.0
H3310 H 0.4772 0.38002 0.64136 0.0
H3311 H 0.49955 0.37102 0.61767 0.0
H3312 H 0.53227 0.3355 0.65361 0.0
C3313 C 0.58177 0.33468 0.60322 0.0
C3314 C 0.54478 0.35734 0.59801 0.0
C3315 C 0.59465 0.32788 0.59143 0.0
C3316 C 0.48765 0.37486 0.64956 0.0
C3317 C 0.50053 0.36975 0.63598 0.0
C3318 C 0.53574 0.34199 0.6384 0.0
C3319 C 0.56704 0.33735 0.59223 0.0
C3320 C 0.55321 0.34367 0.60533 0.0
C3321 C 0.51413 0.36247 0.64589 0.0
C3322 C 0.52748 0.35597 0.63158 0.0
H3323 H 0.57663 0.32289 0.53966 0.0
H3324 H 0.55417 0.33522 0.56031 0.0
H3325 H 0.5547 0.32532 0.63136 0.0
H3326 H 0.50246 0.36393 0.70144 0.0
H3327 H 0.52511 0.35592 0.67819 0.0
C3328 C 0.04935 0.44809 0.29589 0.0
C3329 C 0.03859 0.43652 0.28742 0.0
C3330 C 0.04835 0.46409 0.2888 0.0
C3331 C 0.0218 0.49382 0.26015 0.0
H3332 H 0.0622 0.51541 0.24808 0.0
C3333 C 0.04846 0.55477 0.2136 0.0
C3334 C 0.03785 0.56647 0.2221 0.0
C3335 C 0.04767 0.53891 0.2213 0.0
C3336 C 0.05079 0.50954 0.25114 0.0
H3337 H 0.0181 0.43278 0.26519 0.0
H3338 H 0.0165 0.46068 0.25255 0.0
H3339 H 0.06233 0.48796 0.26215 0.0
H3340 H 0.01786 0.57057 0.2451 0.0
H3341 H 0.01662 0.54287 0.2588 0.0
H3342 H 0.01028 0.51535 0.24849 0.0
C3343 C 0.02558 0.45743 0.26494 0.0
C3344 C 0.05086 0.49384 0.25956 0.0
C3345 C 0.02653 0.44141 0.27213 0.0
C3346 C 0.02617 0.56184 0.23812 0.0
C3347 C 0.02542 0.54594 0.24593 0.0
C3348 C 0.02172 0.50956 0.25166 0.0
C3349 C 0.03663 0.46893 0.27294 0.0
C3350 C 0.03638 0.48576 0.2642 0.0
C3351 C 0.03631 0.53432 0.23782 0.0
C3352 C 0.03622 0.5176 0.24698 0.0
H3353 H 0.05872 0.44476 0.30781 0.0
H3354 H 0.05686 0.47267 0.29569 0.0
H3355 H 0.01042 0.48802 0.2637 0.0
H3356 H 0.05753 0.55788 0.20111 0.0
H3357 H 0.05602 0.53023 0.21431 0.0
C3358 C 0.80787 0.77574 0.52887 0.0
C3359 C 0.81451 0.79049 0.53571 0.0
C3360 C 0.79188 0.77484 0.52156 0.0
C3361 C 0.75349 0.79828 0.52105 0.0
H3362 H 0.74238 0.76921 0.47182 0.0
C3363 C 0.69518 0.80392 0.46875 0.0
C3364 C 0.68571 0.78995 0.46722 0.0
C3365 C 0.71077 0.80319 0.47748 0.0
C3366 C 0.74532 0.77729 0.48568 0.0
H3367 H 0.80965 0.81593 0.54001 0.0
H3368 H 0.78213 0.81453 0.52653 0.0
H3369 H 0.7698 0.76952 0.48661 0.0
H3370 H 0.68533 0.76422 0.47311 0.0
H3371 H 0.71289 0.76292 0.48779 0.0
H3372 H 0.72911 0.80647 0.51932 0.0
C3373 C 0.78897 0.80349 0.52749 0.0
C3374 C 0.76101 0.77743 0.49429 0.0
C3375 C 0.80484 0.80432 0.53512 0.0
C3376 C 0.69234 0.77517 0.47407 0.0
C3377 C 0.70808 0.77441 0.48241 0.0
C3378 C 0.73792 0.79832 0.51216 0.0
C3379 C 0.78224 0.78874 0.52058 0.0
C3380 C 0.76535 0.78802 0.51201 0.0
C3381 C 0.71734 0.78845 0.48448 0.0
C3382 C 0.73372 0.78791 0.49432 0.0
H3383 H 0.81502 0.76486 0.52918 0.0
H3384 H 0.78709 0.76323 0.51677 0.0
H3385 H 0.75619 0.80631 0.53505 0.0
H3386 H 0.69042 0.81551 0.46373 0.0
H3387 H 0.71773 0.81416 0.47875 0.0
C3388 C 0.47429 0.44159 0.7287 0.0
C3389 C 0.46235 0.43673 0.71321 0.0
C3390 C 0.47512 0.45756 0.73611 0.0
C3391 C 0.44974 0.49379 0.74191 0.0
H3392 H 0.49028 0.51529 0.75342 0.0
C3393 C 0.47429 0.5616 0.76466 0.0
C3394 C 0.46266 0.56604 0.78086 0.0
C3395 C 0.47505 0.54578 0.75655 0.0
C3396 C 0.47886 0.50951 0.75014 0.0
H3397 H 0.44225 0.44497 0.69276 0.0
H3398 H 0.4439 0.47282 0.70531 0.0
H3399 H 0.4902 0.48813 0.73764 0.0
H3400 H 0.44309 0.5572 0.80185 0.0
H3401 H 0.44463 0.52966 0.7881 0.0
H3402 H 0.43836 0.51521 0.7539 0.0
C3403 C 0.45242 0.46425 0.71213 0.0
C3404 C 0.47881 0.49386 0.74131 0.0
C3405 C 0.45155 0.44828 0.7048 0.0
C3406 C 0.45213 0.55423 0.78925 0.0
C3407 C 0.45293 0.53844 0.78124 0.0
C3408 C 0.44978 0.5094 0.75068 0.0
C3409 C 0.46406 0.46904 0.72815 0.0
C3410 C 0.46424 0.4858 0.73711 0.0
C3411 C 0.46423 0.53406 0.76452 0.0
C3412 C 0.46433 0.51744 0.75502 0.0
H3413 H 0.48274 0.43297 0.73562 0.0
H3414 H 0.48413 0.46077 0.74863 0.0
H3415 H 0.43829 0.4879 0.73919 0.0
H3416 H 0.48252 0.57042 0.75774 0.0
H3417 H 0.48381 0.54287 0.74354 0.0
C3418 C 0.80882 0.22539 0.97226 0.0
C3419 C 0.81547 0.21065 0.96538 0.0
C3420 C 0.79277 0.22631 0.97933 0.0
C3421 C 0.75429 0.20295 0.97896 0.0
H3422 H 0.74276 0.23177 0.02829 0.0
C3423 C 0.69592 0.19658 0.03089 0.0
C3424 C 0.68631 0.21043 0.03272 0.0
C3425 C 0.71148 0.19753 0.02209 0.0
C3426 C 0.74582 0.22377 0.01438 0.0
H3427 H 0.81053 0.18524 0.96081 0.0
H3428 H 0.78293 0.18668 0.97388 0.0
H3429 H 0.7703 0.23159 0.01387 0.0
H3430 H 0.68565 0.2362 0.0272 0.0
H3431 H 0.71318 0.23789 0.01238 0.0
H3432 H 0.72992 0.19468 0.98028 0.0
C3433 C 0.78981 0.1977 0.97312 0.0
C3434 C 0.76157 0.2237 0.00599 0.0
C3435 C 0.80574 0.19685 0.96573 0.0
C3436 C 0.69276 0.22532 0.02601 0.0
C3437 C 0.70849 0.22631 0.01759 0.0
C3438 C 0.73866 0.20284 0.98762 0.0
C3439 C 0.78306 0.21244 0.98002 0.0
C3440 C 0.76608 0.21317 0.98828 0.0
C3441 C 0.7179 0.21238 0.01529 0.0
C3442 C 0.7343 0.21315 0.00551 0.0
H3443 H 0.816 0.23625 0.97213 0.0
H3444 H 0.78798 0.23792 0.98415 0.0
H3445 H 0.7571 0.19497 0.96494 0.0
H3446 H 0.6913 0.18491 0.03581 0.0
H3447 H 0.71854 0.18664 0.02065 0.0
C3448 C 0.97433 0.44115 0.77028 0.0
C3449 C 0.96238 0.43632 0.78578 0.0
C3450 C 0.97521 0.45711 0.7629 0.0
C3451 C 0.97911 0.49336 0.75774 0.0
H3452 H 0.93879 0.5151 0.74578 0.0
C3453 C 0.97515 0.56112 0.73441 0.0
C3454 C 0.96338 0.56568 0.7185 0.0
C3455 C 0.97582 0.5453 0.74252 0.0
C3456 C 0.95018 0.50918 0.74881 0.0
H3457 H 0.94232 0.44461 0.80626 0.0
H3458 H 0.94407 0.47247 0.7938 0.0
H3459 H 0.93855 0.48777 0.7603 0.0
H3460 H 0.94347 0.55706 0.69797 0.0
H3461 H 0.94486 0.52952 0.71167 0.0
H3462 H 0.99071 0.51469 0.74557 0.0
C3463 C 0.95255 0.46387 0.78692 0.0
C3464 C 0.95004 0.49355 0.75749 0.0
C3465 C 0.95161 0.4479 0.79419 0.0
C3466 C 0.95261 0.55399 0.71037 0.0
C3467 C 0.95333 0.5382 0.71836 0.0
C3468 C 0.97925 0.50901 0.74897 0.0
C3469 C 0.96421 0.46864 0.77092 0.0
C3470 C 0.96449 0.48542 0.76206 0.0
C3471 C 0.96476 0.5337 0.73482 0.0
C3472 C 0.96477 0.51709 0.74431 0.0
H3473 H 0.98276 0.43251 0.76335 0.0
H3474 H 0.98423 0.4603 0.75037 0.0
H3475 H 0.99047 0.48752 0.76126 0.0
H3476 H 0.98357 0.56986 0.74111 0.0
H3477 H 0.98469 0.5423 0.75534 0.0
C3478 C 0.30885 0.22724 0.52676 0.0
C3479 C 0.3156 0.21238 0.53296 0.0
C3480 C 0.29304 0.22808 0.5186 0.0
C3481 C 0.26297 0.20422 0.48876 0.0
H3482 H 0.23134 0.23304 0.51488 0.0
C3483 C 0.19589 0.19794 0.46734 0.0
C3484 C 0.18623 0.21177 0.46641 0.0
C3485 C 0.21178 0.19886 0.47485 0.0
C3486 C 0.24006 0.22512 0.50706 0.0
H3487 H 0.31104 0.18674 0.53548 0.0
H3488 H 0.28366 0.18821 0.52087 0.0
H3489 H 0.25892 0.23336 0.52915 0.0
H3490 H 0.18574 0.23748 0.47241 0.0
H3491 H 0.21371 0.23922 0.48473 0.0
H3492 H 0.24446 0.19617 0.46632 0.0
C3493 C 0.29055 0.1992 0.52245 0.0
C3494 C 0.25585 0.22528 0.51535 0.0
C3495 C 0.3062 0.1984 0.53095 0.0
C3496 C 0.19288 0.22659 0.47296 0.0
C3497 C 0.20889 0.22756 0.4802 0.0
C3498 C 0.24731 0.20423 0.48023 0.0
C3499 C 0.28384 0.21402 0.51609 0.0
C3500 C 0.26737 0.21464 0.50651 0.0
C3501 C 0.21856 0.21368 0.48133 0.0
C3502 C 0.23553 0.21448 0.48951 0.0
H3503 H 0.31579 0.23822 0.5281 0.0
H3504 H 0.28815 0.23964 0.51373 0.0
H3505 H 0.27171 0.19607 0.48141 0.0
H3506 H 0.1911 0.18629 0.46269 0.0
H3507 H 0.21864 0.18783 0.47597 0.0
C3508 C 0.55101 0.55315 0.2929 0.0
C3509 C 0.54005 0.5646 0.28467 0.0
C3510 C 0.55019 0.53717 0.28564 0.0
C3511 C 0.55273 0.50739 0.25637 0.0
H3512 H 0.51215 0.48586 0.24532 0.0
C3513 C 0.55025 0.44642 0.2104 0.0
C3514 C 0.53955 0.43478 0.21884 0.0
C3515 C 0.54952 0.46229 0.21811 0.0
C3516 C 0.52359 0.49165 0.24848 0.0
H3517 H 0.51946 0.56819 0.26257 0.0
H3518 H 0.51819 0.54037 0.24961 0.0
H3519 H 0.51228 0.51313 0.26067 0.0
H3520 H 0.51949 0.43078 0.24177 0.0
H3521 H 0.51838 0.45845 0.25549 0.0
H3522 H 0.56407 0.48585 0.24478 0.0
C3523 C 0.52727 0.54366 0.26199 0.0
C3524 C 0.52366 0.50736 0.25704 0.0
C3525 C 0.52804 0.55964 0.26935 0.0
C3526 C 0.52786 0.43947 0.23482 0.0
C3527 C 0.52719 0.45536 0.24264 0.0
C3528 C 0.55266 0.4917 0.24789 0.0
C3529 C 0.53846 0.53225 0.26984 0.0
C3530 C 0.53825 0.51544 0.26107 0.0
C3531 C 0.53815 0.46692 0.23458 0.0
C3532 C 0.53809 0.48364 0.24374 0.0
H3533 H 0.56036 0.55654 0.30482 0.0
H3534 H 0.55881 0.52866 0.2924 0.0
H3535 H 0.5642 0.51328 0.25894 0.0
H3536 H 0.55934 0.44325 0.19797 0.0
H3537 H 0.55794 0.47093 0.21116 0.0
C3538 C 0.19565 0.80467 0.03257 0.0
C3539 C 0.18619 0.79068 0.03361 0.0
C3540 C 0.21136 0.80403 0.02425 0.0
C3541 C 0.24595 0.77799 0.01618 0.0
H3542 H 0.2576 0.80772 0.96804 0.0
C3543 C 0.30859 0.77603 0.97327 0.0
C3544 C 0.31552 0.79075 0.96691 0.0
C3545 C 0.2926 0.77535 0.98062 0.0
C3546 C 0.25468 0.79948 0.98172 0.0
H3547 H 0.18593 0.765 0.02724 0.0
H3548 H 0.21365 0.76386 0.01324 0.0
H3549 H 0.23039 0.80795 0.98331 0.0
H3550 H 0.3112 0.81636 0.96358 0.0
H3551 H 0.28368 0.81531 0.97714 0.0
H3552 H 0.27032 0.76989 0.01533 0.0
C3553 C 0.20877 0.7753 0.0187 0.0
C3554 C 0.23904 0.79958 0.99035 0.0
C3555 C 0.19292 0.77597 0.02666 0.0
C3556 C 0.30616 0.80478 0.96809 0.0
C3557 C 0.29029 0.80414 0.97576 0.0
C3558 C 0.2617 0.77807 0.00782 0.0
C3559 C 0.21804 0.78937 0.01714 0.0
C3560 C 0.23455 0.78889 0.00772 0.0
C3561 C 0.28324 0.78942 0.98211 0.0
C3562 C 0.26632 0.78888 0.99054 0.0
H3563 H 0.1908 0.8162 0.0377 0.0
H3564 H 0.21831 0.81502 0.02337 0.0
H3565 H 0.24278 0.7697 0.02969 0.0
H3566 H 0.31549 0.765 0.97249 0.0
H3567 H 0.28756 0.76375 0.98498 0.0
C3568 C 0.54991 0.94893 0.79471 0.0
C3569 C 0.53924 0.93724 0.78633 0.0
C3570 C 0.54896 0.96484 0.78718 0.0
C3571 C 0.52253 0.99407 0.75728 0.0
H3572 H 0.56289 0.01579 0.74542 0.0
C3573 C 0.54919 0.05475 0.70998 0.0
C3574 C 0.5384 0.06642 0.71809 0.0
C3575 C 0.54844 0.03893 0.7179 0.0
C3576 C 0.55149 0.00987 0.74841 0.0
H3577 H 0.519 0.93319 0.76374 0.0
H3578 H 0.5175 0.9609 0.75036 0.0
H3579 H 0.56308 0.98852 0.76023 0.0
H3580 H 0.51814 0.07052 0.7406 0.0
H3581 H 0.51696 0.04294 0.75468 0.0
H3582 H 0.51097 0.01535 0.74482 0.0
C3583 C 0.52645 0.95783 0.76303 0.0
C3584 C 0.5516 0.99429 0.75726 0.0
C3585 C 0.52735 0.94191 0.77065 0.0
C3586 C 0.52657 0.0618 0.7339 0.0
C3587 C 0.52587 0.04597 0.74193 0.0
C3588 C 0.52242 0.00969 0.74836 0.0
C3589 C 0.53738 0.96946 0.77097 0.0
C3590 C 0.53713 0.98617 0.76183 0.0
C3591 C 0.53695 0.03438 0.73426 0.0
C3592 C 0.53691 0.01777 0.74375 0.0
H3593 H 0.55916 0.94577 0.8069 0.0
H3594 H 0.55738 0.97352 0.79402 0.0
H3595 H 0.51115 0.98824 0.76077 0.0
H3596 H 0.55839 0.05786 0.69768 0.0
H3597 H 0.55695 0.03027 0.71126 0.0
C3598 C 0.30938 0.27362 0.02581 0.0
C3599 C 0.31577 0.28846 0.03277 0.0
C3600 C 0.29333 0.27243 0.01884 0.0
C3601 C 0.25443 0.29502 0.01998 0.0
H3602 H 0.24314 0.26644 0.97026 0.0
C3603 C 0.19585 0.30106 0.96866 0.0
C3604 C 0.18639 0.28713 0.9666 0.0
C3605 C 0.21144 0.3002 0.97733 0.0
C3606 C 0.24613 0.27436 0.98429 0.0
H3607 H 0.31039 0.31375 0.03756 0.0
H3608 H 0.28277 0.31185 0.02469 0.0
H3609 H 0.27075 0.26696 0.98441 0.0
H3610 H 0.18604 0.2613 0.97156 0.0
H3611 H 0.21364 0.25977 0.98617 0.0
H3612 H 0.22992 0.30287 0.01906 0.0
C3613 C 0.28986 0.30095 0.0253 0.0
C3614 C 0.26193 0.27463 0.99251 0.0
C3615 C 0.3058 0.30208 0.03257 0.0
C3616 C 0.19303 0.27224 0.97295 0.0
C3617 C 0.2088 0.27135 0.98124 0.0
C3618 C 0.23876 0.29493 0.01149 0.0
C3619 C 0.28335 0.28611 0.01837 0.0
C3620 C 0.26635 0.2851 0.01034 0.0
C3621 C 0.21805 0.28537 0.98378 0.0
C3622 C 0.23449 0.28471 0.99345 0.0
H3623 H 0.31676 0.2629 0.02582 0.0
H3624 H 0.28873 0.26075 0.01396 0.0
H3625 H 0.25719 0.30293 0.0341 0.0
H3626 H 0.19109 0.31274 0.96402 0.0
H3627 H 0.21838 0.31117 0.97895 0.0
C3628 C 0.95033 0.05282 0.29185 0.0
C3629 C 0.96139 0.06436 0.2841 0.0
C3630 C 0.95103 0.03698 0.28393 0.0
C3631 C 0.97746 0.00763 0.25419 0.0
H3632 H 0.93703 0.98628 0.24151 0.0
C3633 C 0.9508 0.94689 0.20679 0.0
C3634 C 0.96163 0.93529 0.21502 0.0
C3635 C 0.95149 0.96275 0.21459 0.0
C3636 C 0.94845 0.9921 0.24471 0.0
H3637 H 0.98199 0.06824 0.26212 0.0
H3638 H 0.98305 0.04071 0.24803 0.0
H3639 H 0.93694 0.01352 0.25645 0.0
H3640 H 0.98185 0.93136 0.23767 0.0
H3641 H 0.98289 0.95895 0.25155 0.0
H3642 H 0.98895 0.98631 0.24181 0.0
C3643 C 0.97399 0.0438 0.26053 0.0
C3644 C 0.94839 0.00767 0.25364 0.0
C3645 C 0.97335 0.05963 0.26857 0.0
C3646 C 0.97339 0.94001 0.23086 0.0
C3647 C 0.97402 0.95587 0.23877 0.0
C3648 C 0.97751 0.99205 0.24517 0.0
C3649 C 0.96273 0.03231 0.26792 0.0
C3650 C 0.96289 0.01565 0.25855 0.0
C3651 C 0.96295 0.96741 0.23095 0.0
C3652 C 0.963 0.98408 0.2403 0.0
H3653 H 0.94101 0.05604 0.30391 0.0
H3654 H 0.94235 0.0284 0.29034 0.0
H3655 H 0.98886 0.01333 0.25795 0.0
H3656 H 0.94163 0.94368 0.19449 0.0
H3657 H 0.94298 0.97136 0.20784 0.0
C3658 C 0.30901 0.72661 0.47345 0.0
C3659 C 0.31562 0.71181 0.46672 0.0
C3660 C 0.29312 0.72751 0.48124 0.0
C3661 C 0.25487 0.70392 0.48286 0.0
H3662 H 0.24401 0.73304 0.53215 0.0
C3663 C 0.197 0.69767 0.53571 0.0
C3664 C 0.18742 0.71153 0.53761 0.0
C3665 C 0.21256 0.69861 0.52692 0.0
C3666 C 0.24688 0.72495 0.51826 0.0
H3667 H 0.3108 0.6863 0.46324 0.0
H3668 H 0.2835 0.68772 0.47749 0.0
H3669 H 0.2713 0.73293 0.51674 0.0
H3670 H 0.18686 0.73733 0.53232 0.0
H3671 H 0.21435 0.739 0.51746 0.0
H3672 H 0.23058 0.69554 0.48508 0.0
C3673 C 0.29028 0.69879 0.47608 0.0
C3674 C 0.26248 0.72492 0.50932 0.0
C3675 C 0.30603 0.69794 0.46801 0.0
C3676 C 0.19394 0.72644 0.5311 0.0
C3677 C 0.20966 0.72741 0.52265 0.0
C3678 C 0.23939 0.70378 0.49205 0.0
C3679 C 0.28355 0.71358 0.48278 0.0
C3680 C 0.26674 0.71429 0.49162 0.0
C3681 C 0.219 0.71346 0.52014 0.0
C3682 C 0.23528 0.71419 0.50995 0.0
H3683 H 0.31609 0.73753 0.47263 0.0
H3684 H 0.28834 0.73915 0.48592 0.0
H3685 H 0.25749 0.69586 0.46886 0.0
H3686 H 0.19234 0.68598 0.54047 0.0
H3687 H 0.21957 0.68769 0.52533 0.0
C3688 C 0.47407 0.06103 0.23575 0.0
C3689 C 0.46253 0.0654 0.21939 0.0
C3690 C 0.4749 0.0452 0.24379 0.0
C3691 C 0.47882 0.00895 0.25033 0.0
H3692 H 0.43822 0.98722 0.26054 0.0
C3693 C 0.47419 0.94106 0.27202 0.0
C3694 C 0.46206 0.93622 0.28724 0.0
C3695 C 0.4751 0.95701 0.26458 0.0
C3696 C 0.44968 0.99315 0.25804 0.0
H3697 H 0.44323 0.05645 0.198 0.0
H3698 H 0.44489 0.0289 0.21163 0.0
H3699 H 0.43834 0.01449 0.24573 0.0
H3700 H 0.44174 0.94449 0.30722 0.0
H3701 H 0.44352 0.97232 0.29463 0.0
H3702 H 0.49011 0.98764 0.26317 0.0
C3703 C 0.45306 0.03773 0.21868 0.0
C3704 C 0.44975 0.00873 0.2492 0.0
C3705 C 0.45219 0.05352 0.21073 0.0
C3706 C 0.45117 0.94779 0.29538 0.0
C3707 C 0.45213 0.96373 0.28803 0.0
C3708 C 0.47874 0.99333 0.25923 0.0
C3709 C 0.46423 0.03341 0.2356 0.0
C3710 C 0.46431 0.01682 0.24513 0.0
C3711 C 0.46393 0.9685 0.27225 0.0
C3712 C 0.46416 0.98523 0.26318 0.0
H3713 H 0.48215 0.06992 0.24286 0.0
H3714 H 0.48355 0.04234 0.25696 0.0
H3715 H 0.49025 0.01477 0.24726 0.0
H3716 H 0.48272 0.93243 0.26532 0.0
H3717 H 0.48423 0.96021 0.25225 0.0
C3718 C 0.808 0.72694 0.0286 0.0
C3719 C 0.8146 0.71197 0.03462 0.0
C3720 C 0.79231 0.72793 0.02004 0.0
C3721 C 0.76254 0.70457 0.98885 0.0
H3722 H 0.73058 0.73287 0.01531 0.0
C3723 C 0.69558 0.69823 0.96656 0.0
C3724 C 0.68583 0.71201 0.96605 0.0
C3725 C 0.71146 0.69915 0.97412 0.0
C3726 C 0.7394 0.72511 0.00739 0.0
H3727 H 0.8099 0.68632 0.03637 0.0
H3728 H 0.78274 0.68809 0.02107 0.0
H3729 H 0.75804 0.73308 0.03004 0.0
H3730 H 0.6852 0.73763 0.97274 0.0
H3731 H 0.71313 0.73937 0.98513 0.0
H3732 H 0.74423 0.69677 0.96589 0.0
C3733 C 0.78965 0.69903 0.0231 0.0
C3734 C 0.75511 0.7252 0.01594 0.0
C3735 C 0.80517 0.69805 0.032 0.0
C3736 C 0.6924 0.72678 0.97298 0.0
C3737 C 0.70839 0.72775 0.98026 0.0
C3738 C 0.74694 0.70464 0.98006 0.0
C3739 C 0.78309 0.71395 0.01693 0.0
C3740 C 0.76674 0.71473 0.00699 0.0
C3741 C 0.71813 0.71391 0.98106 0.0
C3742 C 0.73505 0.7147 0.98946 0.0
H3743 H 0.81497 0.73786 0.03039 0.0
H3744 H 0.78752 0.73958 0.01534 0.0
H3745 H 0.77136 0.69655 0.98142 0.0
H3746 H 0.69084 0.68662 0.96159 0.0
H3747 H 0.71839 0.68815 0.97495 0.0
C3748 C 0.0494 0.05298 0.79177 0.0
C3749 C 0.03872 0.06466 0.78343 0.0
C3750 C 0.04862 0.03713 0.78397 0.0
C3751 C 0.05174 0.00791 0.75372 0.0
H3752 H 0.01139 0.98671 0.74003 0.0
C3753 C 0.05023 0.94724 0.70661 0.0
C3754 C 0.03922 0.93565 0.71434 0.0
C3755 C 0.04938 0.96309 0.71441 0.0
C3756 C 0.02277 0.99241 0.74391 0.0
H3757 H 0.01862 0.06876 0.76061 0.0
H3758 H 0.01742 0.04116 0.74672 0.0
H3759 H 0.01123 0.01372 0.75625 0.0
H3760 H 0.01851 0.9317 0.73609 0.0
H3761 H 0.01719 0.95929 0.74998 0.0
H3762 H 0.0633 0.9865 0.74204 0.0
C3763 C 0.02625 0.04417 0.75959 0.0
C3764 C 0.02268 0.00798 0.75298 0.0
C3765 C 0.02696 0.06003 0.76751 0.0
C3766 C 0.02712 0.94036 0.72967 0.0
C3767 C 0.02632 0.95621 0.73758 0.0
C3768 C 0.05183 0.99235 0.74475 0.0
C3769 C 0.03722 0.03257 0.76748 0.0
C3770 C 0.03718 0.01593 0.75803 0.0
C3771 C 0.03757 0.96774 0.73027 0.0
C3772 C 0.03736 0.98439 0.73967 0.0
H3773 H 0.05854 0.05612 0.80415 0.0
H3774 H 0.05705 0.02846 0.79079 0.0
H3775 H 0.06315 0.01371 0.75705 0.0
H3776 H 0.05965 0.94404 0.6947 0.0
H3777 H 0.05804 0.97171 0.70804 0.0
C3778 C 0.69613 0.30218 0.52927 0.0
C3779 C 0.68659 0.28835 0.53187 0.0
C3780 C 0.71164 0.30108 0.52035 0.0
C3781 C 0.74606 0.2749 0.51365 0.0
H3782 H 0.75699 0.30267 0.46288 0.0
C3783 C 0.80929 0.27367 0.47204 0.0
C3784 C 0.81566 0.28849 0.46493 0.0
C3785 C 0.7932 0.27248 0.47888 0.0
C3786 C 0.75426 0.29497 0.47725 0.0
H3787 H 0.686 0.26246 0.52758 0.0
H3788 H 0.71344 0.26052 0.51254 0.0
H3789 H 0.72979 0.30295 0.47819 0.0
H3790 H 0.81018 0.31372 0.45967 0.0
H3791 H 0.78252 0.3118 0.47225 0.0
H3792 H 0.77066 0.26741 0.5135 0.0
C3793 C 0.70874 0.2722 0.51724 0.0
C3794 C 0.73863 0.29509 0.4859 0.0
C3795 C 0.69306 0.27333 0.52579 0.0
C3796 C 0.80562 0.30206 0.46477 0.0
C3797 C 0.78966 0.30093 0.47188 0.0
C3798 C 0.76182 0.27498 0.50525 0.0
C3799 C 0.71807 0.2861 0.51419 0.0
C3800 C 0.73443 0.28518 0.50431 0.0
C3801 C 0.78318 0.28613 0.47904 0.0
C3802 C 0.76619 0.28517 0.4871 0.0
H3803 H 0.6915 0.31395 0.53369 0.0
H3804 H 0.71865 0.31196 0.51833 0.0
H3805 H 0.74311 0.26722 0.52795 0.0
H3806 H 0.81673 0.26299 0.47234 0.0
H3807 H 0.78863 0.26084 0.48395 0.0
loop_
_geom_bond_atom_site_label_1
_geom_bond_atom_site_label_2
_geom_bond_distance
_geom_bond_site_symmetry_2
_ccdc_geom_bond_type
Co0 O2 2.143 . S
Co0 O8 2.074 . S
Co0 O11 2.093 . S
Co0 O24 2.097 . S
Co0 N41 2.151 . S
Co0 N49 2.214 . S
Co1 O2 2.160 . S
Co1 O7 2.058 . S
Co1 O17 2.057 . S
Co1 O32 2.037 . S
Co1 N36 2.145 . S
Co1 N57 2.257 . S
O2 Co0 2.143 . S
O2 Co1 2.160 . S
C3 O4 1.278 . S
C3 O11 1.224 . S
O4 C3 1.278 . S
C5 O6 1.245 . S
C5 O17 1.232 . S
O6 C5 1.245 . S
O7 Co1 2.058 . S
O7 C33 1.269 . S
O8 Co0 2.074 . S
O8 C33 1.257 . S
H9 C34 0.930 . S
H10 C40 0.930 . S
O11 Co0 2.093 . S
O11 C3 1.224 . S
H12 C44 0.916 1_655 S
H13 C46 0.930 . S
H14 C47 0.930 . S
H15 C45 0.929 . S
H16 C48 0.928 . S
O17 Co1 2.057 . S
O17 C5 1.232 . S
H18 C37 0.929 . S
H19 C38 0.929 . S
H20 C50 0.931 . S
H21 C42 0.929 . S
H22 C51 0.930 . S
H23 C43 0.931 1_655 S
O24 Co0 2.097 . S
O24 C52 1.214 . S
H25 C53 0.929 . S
H26 C54 0.929 . S
H27 C55 0.930 . S
H28 C56 0.929 . S
H29 C58 0.930 . S
H30 C35 0.930 . S
H31 C39 0.930 . S
O32 Co1 2.037 . S
O32 C52 1.234 . S
C33 O7 1.269 . S
C33 O8 1.257 . S
C34 H9 0.930 . S
C34 C37 1.388 . S
C34 C39 1.418 . S
C35 H30 0.930 . S
C35 C38 1.404 . S
C35 C39 1.353 . S
N36 Co1 2.145 . S
N36 C37 1.397 . S
N36 C38 1.334 . S
C37 H18 0.929 . S
C37 C34 1.388 . S
C37 N36 1.397 . S
C38 H19 0.929 . S
C38 C35 1.404 . S
C38 N36 1.334 . S
C39 H31 0.930 . S
C39 C34 1.418 . S
C39 C35 1.353 . S
C40 H10 0.930 . S
C40 N41 1.330 . S
C40 C42 1.446 . S
N41 Co0 2.151 . S
N41 C40 1.330 . S
N41 C45 1.418 . S
C42 H21 0.929 . S
C42 C40 1.446 . S
C42 C43 1.332 . S
C43 H23 0.931 1_455 S
C43 C42 1.332 . S
C43 C44 1.269 . S
C44 H12 0.916 1_455 S
C44 C43 1.269 . S
C44 C45 1.261 . S
C45 H15 0.929 . S
C45 N41 1.418 . S
C45 C44 1.261 . S
C46 H13 0.930 . S
C46 C48 1.406 . S
C46 C51 1.261 . S
C47 H14 0.930 . S
C47 N49 1.325 . S
C47 C50 1.357 . S
C48 H16 0.928 . S
C48 C46 1.406 . S
C48 N49 1.261 . S
N49 Co0 2.214 . S
N49 C47 1.325 . S
N49 C48 1.261 . S
C50 H20 0.931 . S
C50 C47 1.357 . S
C50 C51 1.312 . S
C51 H22 0.930 . S
C51 C46 1.261 . S
C51 C50 1.312 . S
C52 O24 1.214 . S
C52 O32 1.234 . S
C53 H25 0.929 . S
C53 C56 1.391 . S
C53 C58 1.391 . S
C54 H26 0.929 . S
C54 C55 1.390 . S
C54 N57 1.391 . S
C55 H27 0.930 . S
C55 C54 1.390 . S
C55 C56 1.392 . S
C56 H28 0.929 . S
C56 C53 1.391 . S
C56 C55 1.392 . S
N57 Co1 2.257 . S
N57 C54 1.391 . S
N57 C58 1.388 . S
C58 H29 0.930 . S
C58 C53 1.391 . S
C58 N57 1.388 . S
Co59 O61 2.143 . S
Co59 O67 2.074 . S
Co59 O70 2.093 . S
Co59 O83 2.097 . S
Co59 N100 2.151 . S
Co59 N108 2.214 . S
Co60 O61 2.160 . S
Co60 O66 2.058 . S
Co60 O76 2.057 . S
Co60 O91 2.037 . S
Co60 N95 2.145 . S
Co60 N116 2.257 . S
O61 Co59 2.143 . S
O61 Co60 2.160 . S
C62 O63 1.278 . S
C62 O70 1.224 . S
O63 C62 1.278 . S
C64 O65 1.245 . S
C64 O76 1.232 . S
O65 C64 1.245 . S
O66 Co60 2.058 . S
O66 C92 1.269 . S
O67 Co59 2.074 . S
O67 C92 1.257 . S
H68 C93 0.930 . S
H69 C99 0.930 . S
O70 Co59 2.093 . S
O70 C62 1.224 . S
H71 C103 0.929 . S
H72 C105 0.930 . S
H73 C106 0.930 . S
H74 C104 0.929 . S
H75 C107 0.928 . S
O76 Co60 2.057 . S
O76 C64 1.232 . S
H77 C96 0.929 . S
H78 C97 0.929 . S
H79 C109 0.931 . S
H80 C101 0.929 . S
H81 C110 0.930 . S
H82 C102 0.931 . S
O83 Co59 2.097 . S
O83 C111 1.214 . S
H84 C112 0.929 . S
H85 C113 0.929 . S
H86 C114 0.930 . S
H87 C115 0.929 . S
H88 C117 0.930 . S
H89 C94 0.930 . S
H90 C98 0.930 . S
O91 Co60 2.037 . S
O91 C111 1.234 . S
C92 O66 1.269 . S
C92 O67 1.257 . S
C93 H68 0.930 . S
C93 C96 1.388 . S
C93 C98 1.418 . S
C94 H89 0.930 . S
C94 C97 1.404 . S
C94 C98 1.353 . S
N95 Co60 2.145 . S
N95 C96 1.397 . S
N95 C97 1.334 . S
C96 H77 0.929 . S
C96 C93 1.388 . S
C96 N95 1.397 . S
C97 H78 0.929 . S
C97 C94 1.404 . S
C97 N95 1.334 . S
C98 H90 0.930 . S
C98 C93 1.418 . S
C98 C94 1.353 . S
C99 H69 0.930 . S
C99 N100 1.330 . S
C99 C101 1.446 . S
N100 Co59 2.151 . S
N100 C99 1.330 . S
N100 C104 1.418 . S
C101 H80 0.929 . S
C101 C99 1.446 . S
C101 C102 1.332 . S
C102 H82 0.931 . S
C102 C101 1.332 . S
C102 C103 1.267 . S
C103 H71 0.929 . S
C103 C102 1.267 . S
C103 C104 1.251 . S
C104 H74 0.929 . S
C104 N100 1.418 . S
C104 C103 1.251 . S
C105 H72 0.930 . S
C105 C107 1.406 . S
C105 C110 1.261 . S
C106 H73 0.930 . S
C106 N108 1.325 . S
C106 C109 1.357 . S
C107 H75 0.928 . S
C107 C105 1.406 . S
C107 N108 1.261 . S
N108 Co59 2.214 . S
N108 C106 1.325 . S
N108 C107 1.261 . S
C109 H79 0.931 . S
C109 C106 1.357 . S
C109 C110 1.312 . S
C110 H81 0.930 . S
C110 C105 1.261 . S
C110 C109 1.312 . S
C111 O83 1.214 . S
C111 O91 1.234 . S
C112 H84 0.929 . S
C112 C115 1.391 . S
C112 C117 1.391 . S
C113 H85 0.929 . S
C113 C114 1.390 . S
C113 N116 1.391 . S
C114 H86 0.930 . S
C114 C113 1.390 . S
C114 C115 1.392 . S
C115 H87 0.929 . S
C115 C112 1.391 . S
C115 C114 1.392 . S
N116 Co60 2.257 . S
N116 C113 1.391 . S
N116 C117 1.388 . S
C117 H88 0.930 . S
C117 C112 1.391 . S
C117 N116 1.388 . S
Co118 O120 2.143 . S
Co118 O126 2.074 . S
Co118 O129 2.093 . S
Co118 O142 2.097 . S
Co118 N159 2.151 . S
Co118 N167 2.214 . S
Co119 O120 2.160 . S
Co119 O125 2.058 . S
Co119 O135 2.057 . S
Co119 O150 2.037 . S
Co119 N154 2.145 . S
Co119 N175 2.257 . S
O120 Co118 2.143 . S
O120 Co119 2.160 . S
C121 O122 1.278 . S
C121 O129 1.224 . S
O122 C121 1.278 . S
C123 O124 1.245 . S
C123 O135 1.232 . S
O124 C123 1.245 . S
O125 Co119 2.058 . S
O125 C151 1.269 . S
O126 Co118 2.074 . S
O126 C151 1.257 . S
H127 C152 0.930 . S
H128 C158 0.930 . S
O129 Co118 2.093 . S
O129 C121 1.224 . S
H130 C162 0.929 . S
H131 C164 0.930 . S
H132 C165 0.930 . S
H133 C163 0.929 . S
H134 C166 0.928 . S
O135 Co119 2.057 . S
O135 C123 1.232 . S
H136 C155 0.929 . S
H137 C156 0.929 . S
H138 C168 0.931 . S
H139 C160 0.929 . S
H140 C169 0.930 . S
H141 C161 0.931 . S
O142 Co118 2.097 . S
O142 C170 1.214 . S
H143 C171 0.929 . S
H144 C172 0.929 . S
H145 C173 0.930 . S
H146 C174 0.929 . S
H147 C176 0.930 . S
H148 C153 0.930 . S
H149 C157 0.930 . S
O150 Co119 2.037 . S
O150 C170 1.234 . S
C151 O125 1.269 . S
C151 O126 1.257 . S
C152 H127 0.930 . S
C152 C155 1.388 . S
C152 C157 1.418 . S
C153 H148 0.930 . S
C153 C156 1.404 . S
C153 C157 1.353 . S
N154 Co119 2.145 . S
N154 C155 1.397 . S
N154 C156 1.334 . S
C155 H136 0.929 . S
C155 C152 1.388 . S
C155 N154 1.397 . S
C156 H137 0.929 . S
C156 C153 1.404 . S
C156 N154 1.334 . S
C157 H149 0.930 . S
C157 C152 1.418 . S
C157 C153 1.353 . S
C158 H128 0.930 . S
C158 N159 1.330 . S
C158 C160 1.446 . S
N159 Co118 2.151 . S
N159 C158 1.330 . S
N159 C163 1.418 . S
C160 H139 0.929 . S
C160 C158 1.446 . S
C160 C161 1.332 . S
C161 H141 0.931 . S
C161 C160 1.332 . S
C161 C162 1.267 . S
C162 H130 0.929 . S
C162 C161 1.267 . S
C162 C163 1.251 . S
C163 H133 0.929 . S
C163 N159 1.418 . S
C163 C162 1.251 . S
C164 H131 0.930 . S
C164 C166 1.406 . S
C164 C169 1.261 . S
C165 H132 0.930 . S
C165 N167 1.325 . S
C165 C168 1.357 . S
C166 H134 0.928 . S
C166 C164 1.406 . S
C166 N167 1.261 . S
N167 Co118 2.214 . S
N167 C165 1.325 . S
N167 C166 1.261 . S
C168 H138 0.931 . S
C168 C165 1.357 . S
C168 C169 1.312 . S
C169 H140 0.930 . S
C169 C164 1.261 . S
C169 C168 1.312 . S
C170 O142 1.214 . S
C170 O150 1.234 . S
C171 H143 0.929 . S
C171 C174 1.391 . S
C171 C176 1.391 . S
C172 H144 0.929 . S
C172 C173 1.390 . S
C172 N175 1.391 . S
C173 H145 0.930 . S
C173 C172 1.390 . S
C173 C174 1.392 . S
C174 H146 0.929 . S
C174 C171 1.391 . S
C174 C173 1.392 . S
N175 Co119 2.257 . S
N175 C172 1.391 . S
N175 C176 1.388 . S
C176 H147 0.930 . S
C176 C171 1.391 . S
C176 N175 1.388 . S
Co177 O179 2.143 . S
Co177 O185 2.074 . S
Co177 O188 2.093 1_554 S
Co177 O201 2.097 . S
Co177 N218 2.151 1_554 S
Co177 N226 2.214 . S
Co178 O179 2.160 . S
Co178 O184 2.058 . S
Co178 O194 2.057 . S
Co178 O209 2.037 . S
Co178 N213 2.145 . S
Co178 N234 2.257 . S
O179 Co177 2.143 . S
O179 Co178 2.160 . S
C180 O181 1.278 . S
C180 O188 1.224 . S
O181 C180 1.278 . S
C182 O183 1.245 . S
C182 O194 1.232 . S
O183 C182 1.245 . S
O184 Co178 2.058 . S
O184 C210 1.269 . S
O185 Co177 2.074 . S
O185 C210 1.257 . S
H186 C211 0.930 . S
H187 C217 0.930 . S
O188 Co177 2.093 1_556 S
O188 C180 1.224 . S
H189 C221 0.929 . S
H190 C223 0.930 1_556 S
H191 C224 0.930 . S
H192 C222 0.926 . S
H193 C225 0.925 1_556 S
O194 Co178 2.057 . S
O194 C182 1.232 . S
H195 C214 0.929 . S
H196 C215 0.929 . S
H197 C227 0.931 . S
H198 C219 0.929 . S
H199 C228 0.930 . S
H200 C220 0.931 . S
O201 Co177 2.097 . S
O201 C229 1.214 . S
H202 C230 0.929 . S
H203 C231 0.929 . S
H204 C232 0.930 . S
H205 C233 0.929 . S
H206 C235 0.930 . S
H207 C212 0.930 . S
H208 C216 0.930 . S
O209 Co178 2.037 . S
O209 C229 1.234 . S
C210 O184 1.269 . S
C210 O185 1.257 . S
C211 H186 0.930 . S
C211 C214 1.388 . S
C211 C216 1.418 . S
C212 H207 0.930 . S
C212 C215 1.404 . S
C212 C216 1.353 . S
N213 Co178 2.145 . S
N213 C214 1.397 . S
N213 C215 1.334 . S
C214 H195 0.929 . S
C214 C211 1.388 . S
C214 N213 1.397 . S
C215 H196 0.929 . S
C215 C212 1.404 . S
C215 N213 1.334 . S
C216 H208 0.930 . S
C216 C211 1.418 . S
C216 C212 1.353 . S
C217 H187 0.930 . S
C217 N218 1.330 . S
C217 C219 1.446 . S
N218 Co177 2.151 1_556 S
N218 C217 1.330 . S
N218 C222 1.418 1_556 S
C219 H198 0.929 . S
C219 C217 1.446 . S
C219 C220 1.332 . S
C220 H200 0.931 . S
C220 C219 1.332 . S
C220 C221 1.267 . S
C221 H189 0.929 . S
C221 C220 1.267 . S
C221 C222 1.253 1_556 S
C222 H192 0.926 . S
C222 N218 1.418 1_554 S
C222 C221 1.253 1_554 S
C223 H190 0.930 1_554 S
C223 C225 1.406 . S
C223 C228 1.261 . S
C224 H191 0.930 . S
C224 N226 1.325 . S
C224 C227 1.357 . S
C225 H193 0.925 1_554 S
C225 C223 1.406 . S
C225 N226 1.264 . S
N226 Co177 2.214 . S
N226 C224 1.325 . S
N226 C225 1.264 . S
C227 H197 0.931 . S
C227 C224 1.357 . S
C227 C228 1.312 . S
C228 H199 0.930 . S
C228 C223 1.261 . S
C228 C227 1.312 . S
C229 O201 1.214 . S
C229 O209 1.234 . S
C230 H202 0.929 . S
C230 C233 1.391 . S
C230 C235 1.391 . S
C231 H203 0.929 . S
C231 C232 1.390 . S
C231 N234 1.391 . S
C232 H204 0.930 . S
C232 C231 1.390 . S
C232 C233 1.392 . S
C233 H205 0.929 . S
C233 C230 1.391 . S
C233 C232 1.392 . S
N234 Co178 2.257 . S
N234 C231 1.391 . S
N234 C235 1.388 . S
C235 H206 0.930 . S
C235 C230 1.391 . S
C235 N234 1.388 . S
Co236 O238 2.143 . S
Co236 O244 2.074 . S
Co236 O247 2.093 . S
Co236 O260 2.097 . S
Co236 N277 2.151 . S
Co236 N285 2.214 . S
Co237 O238 2.160 . S
Co237 O243 2.058 . S
Co237 O253 2.057 . S
Co237 O268 2.037 . S
Co237 N272 2.145 . S
Co237 N293 2.257 . S
O238 Co236 2.143 . S
O238 Co237 2.160 . S
C239 O240 1.278 . S
C239 O247 1.224 . S
O240 C239 1.278 . S
C241 O242 1.245 . S
C241 O253 1.232 . S
O242 C241 1.245 . S
O243 Co237 2.058 . S
O243 C269 1.269 . S
O244 Co236 2.074 . S
O244 C269 1.257 . S
H245 C270 0.930 . S
H246 C276 0.930 . S
O247 Co236 2.093 . S
O247 C239 1.224 . S
H248 C280 0.916 1_655 S
H249 C282 0.930 . S
H250 C283 0.930 . S
H251 C281 0.929 . S
H252 C284 0.928 . S
O253 Co237 2.057 . S
O253 C241 1.232 . S
H254 C273 0.929 . S
H255 C274 0.929 . S
H256 C286 0.931 . S
H257 C278 0.929 . S
H258 C287 0.930 . S
H259 C279 0.931 1_655 S
O260 Co236 2.097 . S
O260 C288 1.214 . S
H261 C289 0.929 . S
H262 C290 0.929 . S
H263 C291 0.930 . S
H264 C292 0.929 . S
H265 C294 0.930 . S
H266 C271 0.930 . S
H267 C275 0.930 . S
O268 Co237 2.037 . S
O268 C288 1.234 . S
C269 O243 1.269 . S
C269 O244 1.257 . S
C270 H245 0.930 . S
C270 C273 1.388 . S
C270 C275 1.418 . S
C271 H266 0.930 . S
C271 C274 1.404 . S
C271 C275 1.353 . S
N272 Co237 2.145 . S
N272 C273 1.397 . S
N272 C274 1.334 . S
C273 H254 0.929 . S
C273 C270 1.388 . S
C273 N272 1.397 . S
C274 H255 0.929 . S
C274 C271 1.404 . S
C274 N272 1.334 . S
C275 H267 0.930 . S
C275 C270 1.418 . S
C275 C271 1.353 . S
C276 H246 0.930 . S
C276 N277 1.330 . S
C276 C278 1.446 . S
N277 Co236 2.151 . S
N277 C276 1.330 . S
N277 C281 1.418 . S
C278 H257 0.929 . S
C278 C276 1.446 . S
C278 C279 1.332 . S
C279 H259 0.931 1_455 S
C279 C278 1.332 . S
C279 C280 1.269 . S
C280 H248 0.916 1_455 S
C280 C279 1.269 . S
C280 C281 1.261 . S
C281 H251 0.929 . S
C281 N277 1.418 . S
C281 C280 1.261 . S
C282 H249 0.930 . S
C282 C284 1.406 . S
C282 C287 1.261 . S
C283 H250 0.930 . S
C283 N285 1.325 . S
C283 C286 1.357 . S
C284 H252 0.928 . S
C284 C282 1.406 . S
C284 N285 1.261 . S
N285 Co236 2.214 . S
N285 C283 1.325 . S
N285 C284 1.261 . S
C286 H256 0.931 . S
C286 C283 1.357 . S
C286 C287 1.312 . S
C287 H258 0.930 . S
C287 C282 1.261 . S
C287 C286 1.312 . S
C288 O260 1.214 . S
C288 O268 1.234 . S
C289 H261 0.929 . S
C289 C292 1.391 . S
C289 C294 1.391 . S
C290 H262 0.929 . S
C290 C291 1.390 . S
C290 N293 1.391 . S
C291 H263 0.930 . S
C291 C290 1.390 . S
C291 C292 1.392 . S
C292 H264 0.929 . S
C292 C289 1.391 . S
C292 C291 1.392 . S
N293 Co237 2.257 . S
N293 C290 1.391 . S
N293 C294 1.388 . S
C294 H265 0.930 . S
C294 C289 1.391 . S
C294 N293 1.388 . S
Co295 O297 2.143 . S
Co295 O303 2.074 . S
Co295 O306 2.093 . S
Co295 O319 2.097 . S
Co295 N336 2.151 . S
Co295 N344 2.214 . S
Co296 O297 2.160 . S
Co296 O302 2.058 . S
Co296 O312 2.057 . S
Co296 O327 2.037 . S
Co296 N331 2.145 . S
Co296 N352 2.257 . S
O297 Co295 2.143 . S
O297 Co296 2.160 . S
C298 O299 1.278 . S
C298 O306 1.224 . S
O299 C298 1.278 . S
C300 O301 1.245 . S
C300 O312 1.232 . S
O301 C300 1.245 . S
O302 Co296 2.058 . S
O302 C328 1.269 . S
O303 Co295 2.074 . S
O303 C328 1.257 . S
H304 C329 0.930 . S
H305 C335 0.930 . S
O306 Co295 2.093 . S
O306 C298 1.224 . S
H307 C339 0.929 . S
H308 C341 0.930 . S
H309 C342 0.930 . S
H310 C340 0.929 . S
H311 C343 0.928 . S
O312 Co296 2.057 . S
O312 C300 1.232 . S
H313 C332 0.929 . S
H314 C333 0.929 . S
H315 C345 0.931 . S
H316 C337 0.929 . S
H317 C346 0.930 . S
H318 C338 0.931 . S
O319 Co295 2.097 . S
O319 C347 1.214 . S
H320 C348 0.929 . S
H321 C349 0.929 . S
H322 C350 0.930 . S
H323 C351 0.929 . S
H324 C353 0.930 . S
H325 C330 0.930 . S
H326 C334 0.930 . S
O327 Co296 2.037 . S
O327 C347 1.234 . S
C328 O302 1.269 . S
C328 O303 1.257 . S
C329 H304 0.930 . S
C329 C332 1.388 . S
C329 C334 1.418 . S
C330 H325 0.930 . S
C330 C333 1.404 . S
C330 C334 1.353 . S
N331 Co296 2.145 . S
N331 C332 1.397 . S
N331 C333 1.334 . S
C332 H313 0.929 . S
C332 C329 1.388 . S
C332 N331 1.397 . S
C333 H314 0.929 . S
C333 C330 1.404 . S
C333 N331 1.334 . S
C334 H326 0.930 . S
C334 C329 1.418 . S
C334 C330 1.353 . S
C335 H305 0.930 . S
C335 N336 1.330 . S
C335 C337 1.446 . S
N336 Co295 2.151 . S
N336 C335 1.330 . S
N336 C340 1.418 . S
C337 H316 0.929 . S
C337 C335 1.446 . S
C337 C338 1.332 . S
C338 H318 0.931 . S
C338 C337 1.332 . S
C338 C339 1.267 . S
C339 H307 0.929 . S
C339 C338 1.267 . S
C339 C340 1.251 . S
C340 H310 0.929 . S
C340 N336 1.418 . S
C340 C339 1.251 . S
C341 H308 0.930 . S
C341 C343 1.406 . S
C341 C346 1.261 . S
C342 H309 0.930 . S
C342 N344 1.325 . S
C342 C345 1.357 . S
C343 H311 0.928 . S
C343 C341 1.406 . S
C343 N344 1.261 . S
N344 Co295 2.214 . S
N344 C342 1.325 . S
N344 C343 1.261 . S
C345 H315 0.931 . S
C345 C342 1.357 . S
C345 C346 1.312 . S
C346 H317 0.930 . S
C346 C341 1.261 . S
C346 C345 1.312 . S
C347 O319 1.214 . S
C347 O327 1.234 . S
C348 H320 0.929 . S
C348 C351 1.391 . S
C348 C353 1.391 . S
C349 H321 0.929 . S
C349 C350 1.390 . S
C349 N352 1.391 . S
C350 H322 0.930 . S
C350 C349 1.390 . S
C350 C351 1.392 . S
C351 H323 0.929 . S
C351 C348 1.391 . S
C351 C350 1.392 . S
N352 Co296 2.257 . S
N352 C349 1.391 . S
N352 C353 1.388 . S
C353 H324 0.930 . S
C353 C348 1.391 . S
C353 N352 1.388 . S
Co354 O356 2.143 . S
Co354 O362 2.074 . S
Co354 O365 2.093 . S
Co354 O378 2.097 . S
Co354 N395 2.151 . S
Co354 N403 2.214 . S
Co355 O356 2.160 . S
Co355 O361 2.058 . S
Co355 O371 2.057 . S
Co355 O386 2.037 . S
Co355 N390 2.145 . S
Co355 N411 2.257 . S
O356 Co354 2.143 . S
O356 Co355 2.160 . S
C357 O358 1.278 . S
C357 O365 1.224 . S
O358 C357 1.278 . S
C359 O360 1.245 . S
C359 O371 1.232 . S
O360 C359 1.245 . S
O361 Co355 2.058 . S
O361 C387 1.269 . S
O362 Co354 2.074 . S
O362 C387 1.257 . S
H363 C388 0.930 . S
H364 C394 0.930 . S
O365 Co354 2.093 . S
O365 C357 1.224 . S
H366 C398 0.929 . S
H367 C400 0.930 . S
H368 C401 0.930 . S
H369 C399 0.929 . S
H370 C402 0.928 . S
O371 Co355 2.057 . S
O371 C359 1.232 . S
H372 C391 0.929 . S
H373 C392 0.929 . S
H374 C404 0.931 . S
H375 C396 0.929 . S
H376 C405 0.930 . S
H377 C397 0.931 . S
O378 Co354 2.097 . S
O378 C406 1.214 . S
H379 C407 0.929 . S
H380 C408 0.929 . S
H381 C409 0.930 . S
H382 C410 0.929 . S
H383 C412 0.930 . S
H384 C389 0.930 . S
H385 C393 0.930 . S
O386 Co355 2.037 . S
O386 C406 1.234 . S
C387 O361 1.269 . S
C387 O362 1.257 . S
C388 H363 0.930 . S
C388 C391 1.388 . S
C388 C393 1.418 . S
C389 H384 0.930 . S
C389 C392 1.404 . S
C389 C393 1.353 . S
N390 Co355 2.145 . S
N390 C391 1.397 . S
N390 C392 1.334 . S
C391 H372 0.929 . S
C391 C388 1.388 . S
C391 N390 1.397 . S
C392 H373 0.929 . S
C392 C389 1.404 . S
C392 N390 1.334 . S
C393 H385 0.930 . S
C393 C388 1.418 . S
C393 C389 1.353 . S
C394 H364 0.930 . S
C394 N395 1.330 . S
C394 C396 1.446 . S
N395 Co354 2.151 . S
N395 C394 1.330 . S
N395 C399 1.418 . S
C396 H375 0.929 . S
C396 C394 1.446 . S
C396 C397 1.332 . S
C397 H377 0.931 . S
C397 C396 1.332 . S
C397 C398 1.267 . S
C398 H366 0.929 . S
C398 C397 1.267 . S
C398 C399 1.251 . S
C399 H369 0.929 . S
C399 N395 1.418 . S
C399 C398 1.251 . S
C400 H367 0.930 . S
C400 C402 1.406 . S
C400 C405 1.261 . S
C401 H368 0.930 . S
C401 N403 1.325 . S
C401 C404 1.357 . S
C402 H370 0.928 . S
C402 C400 1.406 . S
C402 N403 1.261 . S
N403 Co354 2.214 . S
N403 C401 1.325 . S
N403 C402 1.261 . S
C404 H374 0.931 . S
C404 C401 1.357 . S
C404 C405 1.312 . S
C405 H376 0.930 . S
C405 C400 1.261 . S
C405 C404 1.312 . S
C406 O378 1.214 . S
C406 O386 1.234 . S
C407 H379 0.929 . S
C407 C410 1.391 . S
C407 C412 1.391 . S
C408 H380 0.929 . S
C408 C409 1.390 . S
C408 N411 1.391 . S
C409 H381 0.930 . S
C409 C408 1.390 . S
C409 C410 1.392 . S
C410 H382 0.929 . S
C410 C407 1.391 . S
C410 C409 1.392 . S
N411 Co355 2.257 . S
N411 C408 1.391 . S
N411 C412 1.388 . S
C412 H383 0.930 . S
C412 C407 1.391 . S
C412 N411 1.388 . S
Co413 O415 2.143 . S
Co413 O421 2.074 . S
Co413 O424 2.093 1_556 S
Co413 O437 2.097 . S
Co413 N454 2.151 1_556 S
Co413 N462 2.214 . S
Co414 O415 2.160 . S
Co414 O420 2.058 . S
Co414 O430 2.057 . S
Co414 O445 2.037 . S
Co414 N449 2.145 . S
Co414 N470 2.257 . S
O415 Co413 2.143 . S
O415 Co414 2.160 . S
C416 O417 1.278 . S
C416 O424 1.224 . S
O417 C416 1.278 . S
C418 O419 1.245 . S
C418 O430 1.232 . S
O419 C418 1.245 . S
O420 Co414 2.058 . S
O420 C446 1.269 . S
O421 Co413 2.074 . S
O421 C446 1.257 . S
H422 C447 0.930 . S
H423 C453 0.930 . S
O424 Co413 2.093 1_554 S
O424 C416 1.224 . S
H425 C457 0.929 . S
H426 C459 0.930 1_554 S
H427 C460 0.930 . S
H428 C458 0.926 . S
H429 C461 0.925 1_554 S
O430 Co414 2.057 . S
O430 C418 1.232 . S
H431 C450 0.929 . S
H432 C451 0.929 . S
H433 C463 0.931 . S
H434 C455 0.929 . S
H435 C464 0.930 . S
H436 C456 0.931 . S
O437 Co413 2.097 . S
O437 C465 1.214 . S
H438 C466 0.929 . S
H439 C467 0.929 . S
H440 C468 0.930 . S
H441 C469 0.929 . S
H442 C471 0.930 . S
H443 C448 0.930 . S
H444 C452 0.930 . S
O445 Co414 2.037 . S
O445 C465 1.234 . S
C446 O420 1.269 . S
C446 O421 1.257 . S
C447 H422 0.930 . S
C447 C450 1.388 . S
C447 C452 1.418 . S
C448 H443 0.930 . S
C448 C451 1.404 . S
C448 C452 1.353 . S
N449 Co414 2.145 . S
N449 C450 1.397 . S
N449 C451 1.334 . S
C450 H431 0.929 . S
C450 C447 1.388 . S
C450 N449 1.397 . S
C451 H432 0.929 . S
C451 C448 1.404 . S
C451 N449 1.334 . S
C452 H444 0.930 . S
C452 C447 1.418 . S
C452 C448 1.353 . S
C453 H423 0.930 . S
C453 N454 1.330 . S
C453 C455 1.446 . S
N454 Co413 2.151 1_554 S
N454 C453 1.330 . S
N454 C458 1.418 1_554 S
C455 H434 0.929 . S
C455 C453 1.446 . S
C455 C456 1.332 . S
C456 H436 0.931 . S
C456 C455 1.332 . S
C456 C457 1.267 . S
C457 H425 0.929 . S
C457 C456 1.267 . S
C457 C458 1.253 1_554 S
C458 H428 0.926 . S
C458 N454 1.418 1_556 S
C458 C457 1.253 1_556 S
C459 H426 0.930 1_556 S
C459 C461 1.406 . S
C459 C464 1.261 . S
C460 H427 0.930 . S
C460 N462 1.325 . S
C460 C463 1.357 . S
C461 H429 0.925 1_556 S
C461 C459 1.406 . S
C461 N462 1.264 . S
N462 Co413 2.214 . S
N462 C460 1.325 . S
N462 C461 1.264 . S
C463 H433 0.931 . S
C463 C460 1.357 . S
C463 C464 1.312 . S
C464 H435 0.930 . S
C464 C459 1.261 . S
C464 C463 1.312 . S
C465 O437 1.214 . S
C465 O445 1.234 . S
C466 H438 0.929 . S
C466 C469 1.391 . S
C466 C471 1.391 . S
C467 H439 0.929 . S
C467 C468 1.390 . S
C467 N470 1.391 . S
C468 H440 0.930 . S
C468 C467 1.390 . S
C468 C469 1.392 . S
C469 H441 0.929 . S
C469 C466 1.391 . S
C469 C468 1.392 . S
N470 Co414 2.257 . S
N470 C467 1.391 . S
N470 C471 1.388 . S
C471 H442 0.930 . S
C471 C466 1.391 . S
C471 N470 1.388 . S
Co472 O474 2.143 . S
Co472 O480 2.074 . S
Co472 O483 2.093 . S
Co472 O496 2.097 . S
Co472 N513 2.151 . S
Co472 N521 2.214 . S
Co473 O474 2.160 . S
Co473 O479 2.058 . S
Co473 O489 2.057 . S
Co473 O504 2.037 . S
Co473 N508 2.145 . S
Co473 N529 2.257 . S
O474 Co472 2.143 . S
O474 Co473 2.160 . S
C475 O476 1.278 . S
C475 O483 1.224 . S
O476 C475 1.278 . S
C477 O478 1.245 . S
C477 O489 1.232 . S
O478 C477 1.245 . S
O479 Co473 2.058 . S
O479 C505 1.269 . S
O480 Co472 2.074 . S
O480 C505 1.257 . S
H481 C506 0.930 . S
H482 C512 0.930 . S
O483 Co472 2.093 . S
O483 C475 1.224 . S
H484 C516 0.916 1_455 S
H485 C518 0.930 . S
H486 C519 0.930 . S
H487 C517 0.929 . S
H488 C520 0.928 . S
O489 Co473 2.057 . S
O489 C477 1.232 . S
H490 C509 0.929 . S
H491 C510 0.929 . S
H492 C522 0.931 . S
H493 C514 0.929 . S
H494 C523 0.930 . S
H495 C515 0.931 1_455 S
O496 Co472 2.097 . S
O496 C524 1.214 . S
H497 C525 0.929 . S
H498 C526 0.929 . S
H499 C527 0.930 . S
H500 C528 0.929 . S
H501 C530 0.930 . S
H502 C507 0.930 . S
H503 C511 0.930 . S
O504 Co473 2.037 . S
O504 C524 1.234 . S
C505 O479 1.269 . S
C505 O480 1.257 . S
C506 H481 0.930 . S
C506 C509 1.388 . S
C506 C511 1.418 . S
C507 H502 0.930 . S
C507 C510 1.404 . S
C507 C511 1.353 . S
N508 Co473 2.145 . S
N508 C509 1.397 . S
N508 C510 1.334 . S
C509 H490 0.929 . S
C509 C506 1.388 . S
C509 N508 1.397 . S
C510 H491 0.929 . S
C510 C507 1.404 . S
C510 N508 1.334 . S
C511 H503 0.930 . S
C511 C506 1.418 . S
C511 C507 1.353 . S
C512 H482 0.930 . S
C512 N513 1.330 . S
C512 C514 1.446 . S
N513 Co472 2.151 . S
N513 C512 1.330 . S
N513 C517 1.418 . S
C514 H493 0.929 . S
C514 C512 1.446 . S
C514 C515 1.332 . S
C515 H495 0.931 1_655 S
C515 C514 1.332 . S
C515 C516 1.269 . S
C516 H484 0.916 1_655 S
C516 C515 1.269 . S
C516 C517 1.261 . S
C517 H487 0.929 . S
C517 N513 1.418 . S
C517 C516 1.261 . S
C518 H485 0.930 . S
C518 C520 1.406 . S
C518 C523 1.261 . S
C519 H486 0.930 . S
C519 N521 1.325 . S
C519 C522 1.357 . S
C520 H488 0.928 . S
C520 C518 1.406 . S
C520 N521 1.261 . S
N521 Co472 2.214 . S
N521 C519 1.325 . S
N521 C520 1.261 . S
C522 H492 0.931 . S
C522 C519 1.357 . S
C522 C523 1.312 . S
C523 H494 0.930 . S
C523 C518 1.261 . S
C523 C522 1.312 . S
C524 O496 1.214 . S
C524 O504 1.234 . S
C525 H497 0.929 . S
C525 C528 1.391 . S
C525 C530 1.391 . S
C526 H498 0.929 . S
C526 C527 1.390 . S
C526 N529 1.391 . S
C527 H499 0.930 . S
C527 C526 1.390 . S
C527 C528 1.392 . S
C528 H500 0.929 . S
C528 C525 1.391 . S
C528 C527 1.392 . S
N529 Co473 2.257 . S
N529 C526 1.391 . S
N529 C530 1.388 . S
C530 H501 0.930 . S
C530 C525 1.391 . S
C530 N529 1.388 . S
Co531 O533 2.143 . S
Co531 O539 2.074 . S
Co531 O542 2.093 . S
Co531 O555 2.097 . S
Co531 N572 2.151 . S
Co531 N580 2.214 . S
Co532 O533 2.160 . S
Co532 O538 2.058 . S
Co532 O548 2.057 . S
Co532 O563 2.037 . S
Co532 N567 2.145 . S
Co532 N588 2.257 . S
O533 Co531 2.143 . S
O533 Co532 2.160 . S
C534 O535 1.278 . S
C534 O542 1.224 . S
O535 C534 1.278 . S
C536 O537 1.245 . S
C536 O548 1.232 . S
O537 C536 1.245 . S
O538 Co532 2.058 . S
O538 C564 1.269 . S
O539 Co531 2.074 . S
O539 C564 1.257 . S
H540 C565 0.930 . S
H541 C571 0.930 . S
O542 Co531 2.093 . S
O542 C534 1.224 . S
H543 C575 0.929 . S
H544 C577 0.930 . S
H545 C578 0.930 . S
H546 C576 0.929 . S
H547 C579 0.928 . S
O548 Co532 2.057 . S
O548 C536 1.232 . S
H549 C568 0.929 . S
H550 C569 0.929 . S
H551 C581 0.931 . S
H552 C573 0.929 . S
H553 C582 0.930 . S
H554 C574 0.931 . S
O555 Co531 2.097 . S
O555 C583 1.214 . S
H556 C584 0.929 . S
H557 C585 0.929 . S
H558 C586 0.930 . S
H559 C587 0.929 . S
H560 C589 0.930 . S
H561 C566 0.930 . S
H562 C570 0.930 . S
O563 Co532 2.037 . S
O563 C583 1.234 . S
C564 O538 1.269 . S
C564 O539 1.257 . S
C565 H540 0.930 . S
C565 C568 1.388 . S
C565 C570 1.418 . S
C566 H561 0.930 . S
C566 C569 1.404 . S
C566 C570 1.353 . S
N567 Co532 2.145 . S
N567 C568 1.397 . S
N567 C569 1.334 . S
C568 H549 0.929 . S
C568 C565 1.388 . S
C568 N567 1.397 . S
C569 H550 0.929 . S
C569 C566 1.404 . S
C569 N567 1.334 . S
C570 H562 0.930 . S
C570 C565 1.418 . S
C570 C566 1.353 . S
C571 H541 0.930 . S
C571 N572 1.330 . S
C571 C573 1.446 . S
N572 Co531 2.151 . S
N572 C571 1.330 . S
N572 C576 1.418 . S
C573 H552 0.929 . S
C573 C571 1.446 . S
C573 C574 1.332 . S
C574 H554 0.931 . S
C574 C573 1.332 . S
C574 C575 1.267 . S
C575 H543 0.929 . S
C575 C574 1.267 . S
C575 C576 1.251 . S
C576 H546 0.929 . S
C576 N572 1.418 . S
C576 C575 1.251 . S
C577 H544 0.930 . S
C577 C579 1.406 . S
C577 C582 1.261 . S
C578 H545 0.930 . S
C578 N580 1.325 . S
C578 C581 1.357 . S
C579 H547 0.928 . S
C579 C577 1.406 . S
C579 N580 1.261 . S
N580 Co531 2.214 . S
N580 C578 1.325 . S
N580 C579 1.261 . S
C581 H551 0.931 . S
C581 C578 1.357 . S
C581 C582 1.312 . S
C582 H553 0.930 . S
C582 C577 1.261 . S
C582 C581 1.312 . S
C583 O555 1.214 . S
C583 O563 1.234 . S
C584 H556 0.929 . S
C584 C587 1.391 . S
C584 C589 1.391 . S
C585 H557 0.929 . S
C585 C586 1.390 . S
C585 N588 1.391 . S
C586 H558 0.930 . S
C586 C585 1.390 . S
C586 C587 1.392 . S
C587 H559 0.929 . S
C587 C584 1.391 . S
C587 C586 1.392 . S
N588 Co532 2.257 . S
N588 C585 1.391 . S
N588 C589 1.388 . S
C589 H560 0.930 . S
C589 C584 1.391 . S
C589 N588 1.388 . S
Co590 O592 2.143 . S
Co590 O598 2.074 . S
Co590 O601 2.093 . S
Co590 O614 2.097 . S
Co590 N631 2.151 . S
Co590 N639 2.214 . S
Co591 O592 2.160 . S
Co591 O597 2.058 . S
Co591 O607 2.057 . S
Co591 O622 2.037 . S
Co591 N626 2.145 . S
Co591 N647 2.257 . S
O592 Co590 2.143 . S
O592 Co591 2.160 . S
C593 O594 1.278 . S
C593 O601 1.224 . S
O594 C593 1.278 . S
C595 O596 1.245 . S
C595 O607 1.232 . S
O596 C595 1.245 . S
O597 Co591 2.058 . S
O597 C623 1.269 . S
O598 Co590 2.074 . S
O598 C623 1.257 . S
H599 C624 0.930 . S
H600 C630 0.930 . S
O601 Co590 2.093 . S
O601 C593 1.224 . S
H602 C634 0.929 . S
H603 C636 0.930 . S
H604 C637 0.930 . S
H605 C635 0.929 . S
H606 C638 0.928 . S
O607 Co591 2.057 . S
O607 C595 1.232 . S
H608 C627 0.929 . S
H609 C628 0.929 . S
H610 C640 0.931 . S
H611 C632 0.929 . S
H612 C641 0.930 . S
H613 C633 0.931 . S
O614 Co590 2.097 . S
O614 C642 1.214 . S
H615 C643 0.929 . S
H616 C644 0.929 . S
H617 C645 0.930 . S
H618 C646 0.929 . S
H619 C648 0.930 . S
H620 C625 0.930 . S
H621 C629 0.930 . S
O622 Co591 2.037 . S
O622 C642 1.234 . S
C623 O597 1.269 . S
C623 O598 1.257 . S
C624 H599 0.930 . S
C624 C627 1.388 . S
C624 C629 1.418 . S
C625 H620 0.930 . S
C625 C628 1.404 . S
C625 C629 1.353 . S
N626 Co591 2.145 . S
N626 C627 1.397 . S
N626 C628 1.334 . S
C627 H608 0.929 . S
C627 C624 1.388 . S
C627 N626 1.397 . S
C628 H609 0.929 . S
C628 C625 1.404 . S
C628 N626 1.334 . S
C629 H621 0.930 . S
C629 C624 1.418 . S
C629 C625 1.353 . S
C630 H600 0.930 . S
C630 N631 1.330 . S
C630 C632 1.446 . S
N631 Co590 2.151 . S
N631 C630 1.330 . S
N631 C635 1.418 . S
C632 H611 0.929 . S
C632 C630 1.446 . S
C632 C633 1.332 . S
C633 H613 0.931 . S
C633 C632 1.332 . S
C633 C634 1.267 . S
C634 H602 0.929 . S
C634 C633 1.267 . S
C634 C635 1.251 . S
C635 H605 0.929 . S
C635 N631 1.418 . S
C635 C634 1.251 . S
C636 H603 0.930 . S
C636 C638 1.406 . S
C636 C641 1.261 . S
C637 H604 0.930 . S
C637 N639 1.325 . S
C637 C640 1.357 . S
C638 H606 0.928 . S
C638 C636 1.406 . S
C638 N639 1.261 . S
N639 Co590 2.214 . S
N639 C637 1.325 . S
N639 C638 1.261 . S
C640 H610 0.931 . S
C640 C637 1.357 . S
C640 C641 1.312 . S
C641 H612 0.930 . S
C641 C636 1.261 . S
C641 C640 1.312 . S
C642 O614 1.214 . S
C642 O622 1.234 . S
C643 H615 0.929 . S
C643 C646 1.391 . S
C643 C648 1.391 . S
C644 H616 0.929 . S
C644 C645 1.390 . S
C644 N647 1.391 . S
C645 H617 0.930 . S
C645 C644 1.390 . S
C645 C646 1.392 . S
C646 H618 0.929 . S
C646 C643 1.391 . S
C646 C645 1.392 . S
N647 Co591 2.257 . S
N647 C644 1.391 . S
N647 C648 1.388 . S
C648 H619 0.930 . S
C648 C643 1.391 . S
C648 N647 1.388 . S
Co649 O651 2.143 . S
Co649 O657 2.074 . S
Co649 O660 2.093 1_556 S
Co649 O673 2.097 . S
Co649 N690 2.151 1_556 S
Co649 N698 2.214 . S
Co650 O651 2.160 . S
Co650 O656 2.058 . S
Co650 O666 2.057 . S
Co650 O681 2.037 . S
Co650 N685 2.145 . S
Co650 N706 2.257 . S
O651 Co649 2.143 . S
O651 Co650 2.160 . S
C652 O653 1.278 . S
C652 O660 1.224 . S
O653 C652 1.278 . S
C654 O655 1.245 . S
C654 O666 1.232 . S
O655 C654 1.245 . S
O656 Co650 2.058 . S
O656 C682 1.269 . S
O657 Co649 2.074 . S
O657 C682 1.257 . S
H658 C683 0.930 . S
H659 C689 0.930 . S
O660 Co649 2.093 1_554 S
O660 C652 1.224 . S
H661 C693 0.929 . S
H662 C695 0.930 1_554 S
H663 C696 0.930 . S
H664 C694 0.926 . S
H665 C697 0.925 1_554 S
O666 Co650 2.057 . S
O666 C654 1.232 . S
H667 C686 0.929 . S
H668 C687 0.929 . S
H669 C699 0.931 . S
H670 C691 0.929 . S
H671 C700 0.930 . S
H672 C692 0.931 . S
O673 Co649 2.097 . S
O673 C701 1.214 . S
H674 C702 0.929 . S
H675 C703 0.929 . S
H676 C704 0.930 . S
H677 C705 0.929 . S
H678 C707 0.930 . S
H679 C684 0.930 . S
H680 C688 0.930 . S
O681 Co650 2.037 . S
O681 C701 1.234 . S
C682 O656 1.269 . S
C682 O657 1.257 . S
C683 H658 0.930 . S
C683 C686 1.388 . S
C683 C688 1.418 . S
C684 H679 0.930 . S
C684 C687 1.404 . S
C684 C688 1.353 . S
N685 Co650 2.145 . S
N685 C686 1.397 . S
N685 C687 1.334 . S
C686 H667 0.929 . S
C686 C683 1.388 . S
C686 N685 1.397 . S
C687 H668 0.929 . S
C687 C684 1.404 . S
C687 N685 1.334 . S
C688 H680 0.930 . S
C688 C683 1.418 . S
C688 C684 1.353 . S
C689 H659 0.930 . S
C689 N690 1.330 . S
C689 C691 1.446 . S
N690 Co649 2.151 1_554 S
N690 C689 1.330 . S
N690 C694 1.418 1_554 S
C691 H670 0.929 . S
C691 C689 1.446 . S
C691 C692 1.332 . S
C692 H672 0.931 . S
C692 C691 1.332 . S
C692 C693 1.267 . S
C693 H661 0.929 . S
C693 C692 1.267 . S
C693 C694 1.253 1_554 S
C694 H664 0.926 . S
C694 N690 1.418 1_556 S
C694 C693 1.253 1_556 S
C695 H662 0.930 1_556 S
C695 C697 1.406 . S
C695 C700 1.261 . S
C696 H663 0.930 . S
C696 N698 1.325 . S
C696 C699 1.357 . S
C697 H665 0.925 1_556 S
C697 C695 1.406 . S
C697 N698 1.264 . S
N698 Co649 2.214 . S
N698 C696 1.325 . S
N698 C697 1.264 . S
C699 H669 0.931 . S
C699 C696 1.357 . S
C699 C700 1.312 . S
C700 H671 0.930 . S
C700 C695 1.261 . S
C700 C699 1.312 . S
C701 O673 1.214 . S
C701 O681 1.234 . S
C702 H674 0.929 . S
C702 C705 1.391 . S
C702 C707 1.391 . S
C703 H675 0.929 . S
C703 C704 1.390 . S
C703 N706 1.391 . S
C704 H676 0.930 . S
C704 C703 1.390 . S
C704 C705 1.392 . S
C705 H677 0.929 . S
C705 C702 1.391 . S
C705 C704 1.392 . S
N706 Co650 2.257 . S
N706 C703 1.391 . S
N706 C707 1.388 . S
C707 H678 0.930 . S
C707 C702 1.391 . S
C707 N706 1.388 . S
Co708 O710 2.143 . S
Co708 O716 2.074 . S
Co708 O719 2.093 . S
Co708 O732 2.097 . S
Co708 N749 2.151 . S
Co708 N757 2.214 . S
Co709 O710 2.160 . S
Co709 O715 2.058 . S
Co709 O725 2.057 . S
Co709 O740 2.037 . S
Co709 N744 2.145 . S
Co709 N765 2.257 . S
O710 Co708 2.143 . S
O710 Co709 2.160 . S
C711 O712 1.278 . S
C711 O719 1.224 . S
O712 C711 1.278 . S
C713 O714 1.245 . S
C713 O725 1.232 . S
O714 C713 1.245 . S
O715 Co709 2.058 . S
O715 C741 1.269 . S
O716 Co708 2.074 . S
O716 C741 1.257 . S
H717 C742 0.930 . S
H718 C748 0.930 . S
O719 Co708 2.093 . S
O719 C711 1.224 . S
H720 C752 0.916 1_455 S
H721 C754 0.930 . S
H722 C755 0.930 . S
H723 C753 0.929 . S
H724 C756 0.928 . S
O725 Co709 2.057 . S
O725 C713 1.232 . S
H726 C745 0.929 . S
H727 C746 0.929 . S
H728 C758 0.931 . S
H729 C750 0.929 . S
H730 C759 0.930 . S
H731 C751 0.931 1_455 S
O732 Co708 2.097 . S
O732 C760 1.214 . S
H733 C761 0.929 . S
H734 C762 0.929 . S
H735 C763 0.930 . S
H736 C764 0.929 . S
H737 C766 0.930 . S
H738 C743 0.930 . S
H739 C747 0.930 . S
O740 Co709 2.037 . S
O740 C760 1.234 . S
C741 O715 1.269 . S
C741 O716 1.257 . S
C742 H717 0.930 . S
C742 C745 1.388 . S
C742 C747 1.418 . S
C743 H738 0.930 . S
C743 C746 1.404 . S
C743 C747 1.353 . S
N744 Co709 2.145 . S
N744 C745 1.397 . S
N744 C746 1.334 . S
C745 H726 0.929 . S
C745 C742 1.388 . S
C745 N744 1.397 . S
C746 H727 0.929 . S
C746 C743 1.404 . S
C746 N744 1.334 . S
C747 H739 0.930 . S
C747 C742 1.418 . S
C747 C743 1.353 . S
C748 H718 0.930 . S
C748 N749 1.330 . S
C748 C750 1.446 . S
N749 Co708 2.151 . S
N749 C748 1.330 . S
N749 C753 1.418 . S
C750 H729 0.929 . S
C750 C748 1.446 . S
C750 C751 1.332 . S
C751 H731 0.931 1_655 S
C751 C750 1.332 . S
C751 C752 1.269 . S
C752 H720 0.916 1_655 S
C752 C751 1.269 . S
C752 C753 1.261 . S
C753 H723 0.929 . S
C753 N749 1.418 . S
C753 C752 1.261 . S
C754 H721 0.930 . S
C754 C756 1.406 . S
C754 C759 1.261 . S
C755 H722 0.930 . S
C755 N757 1.325 . S
C755 C758 1.357 . S
C756 H724 0.928 . S
C756 C754 1.406 . S
C756 N757 1.261 . S
N757 Co708 2.214 . S
N757 C755 1.325 . S
N757 C756 1.261 . S
C758 H728 0.931 . S
C758 C755 1.357 . S
C758 C759 1.312 . S
C759 H730 0.930 . S
C759 C754 1.261 . S
C759 C758 1.312 . S
C760 O732 1.214 . S
C760 O740 1.234 . S
C761 H733 0.929 . S
C761 C764 1.391 . S
C761 C766 1.391 . S
C762 H734 0.929 . S
C762 C763 1.390 . S
C762 N765 1.391 . S
C763 H735 0.930 . S
C763 C762 1.390 . S
C763 C764 1.392 . S
C764 H736 0.929 . S
C764 C761 1.391 . S
C764 C763 1.392 . S
N765 Co709 2.257 . S
N765 C762 1.391 . S
N765 C766 1.388 . S
C766 H737 0.930 . S
C766 C761 1.391 . S
C766 N765 1.388 . S
Co767 O769 2.143 . S
Co767 O775 2.074 . S
Co767 O778 2.093 . S
Co767 O791 2.097 . S
Co767 N808 2.151 . S
Co767 N816 2.214 . S
Co768 O769 2.160 . S
Co768 O774 2.058 . S
Co768 O784 2.057 . S
Co768 O799 2.037 . S
Co768 N803 2.145 . S
Co768 N824 2.257 . S
O769 Co767 2.143 . S
O769 Co768 2.160 . S
C770 O771 1.278 . S
C770 O778 1.224 . S
O771 C770 1.278 . S
C772 O773 1.245 . S
C772 O784 1.232 . S
O773 C772 1.245 . S
O774 Co768 2.058 . S
O774 C800 1.269 . S
O775 Co767 2.074 . S
O775 C800 1.257 . S
H776 C801 0.930 . S
H777 C807 0.930 . S
O778 Co767 2.093 . S
O778 C770 1.224 . S
H779 C811 0.929 . S
H780 C813 0.930 . S
H781 C814 0.930 . S
H782 C812 0.929 . S
H783 C815 0.928 . S
O784 Co768 2.057 . S
O784 C772 1.232 . S
H785 C804 0.929 . S
H786 C805 0.929 . S
H787 C817 0.931 . S
H788 C809 0.929 . S
H789 C818 0.930 . S
H790 C810 0.931 . S
O791 Co767 2.097 . S
O791 C819 1.214 . S
H792 C820 0.929 . S
H793 C821 0.929 . S
H794 C822 0.930 . S
H795 C823 0.929 . S
H796 C825 0.930 . S
H797 C802 0.930 . S
H798 C806 0.930 . S
O799 Co768 2.037 . S
O799 C819 1.234 . S
C800 O774 1.269 . S
C800 O775 1.257 . S
C801 H776 0.930 . S
C801 C804 1.388 . S
C801 C806 1.418 . S
C802 H797 0.930 . S
C802 C805 1.404 . S
C802 C806 1.353 . S
N803 Co768 2.145 . S
N803 C804 1.397 . S
N803 C805 1.334 . S
C804 H785 0.929 . S
C804 C801 1.388 . S
C804 N803 1.397 . S
C805 H786 0.929 . S
C805 C802 1.404 . S
C805 N803 1.334 . S
C806 H798 0.930 . S
C806 C801 1.418 . S
C806 C802 1.353 . S
C807 H777 0.930 . S
C807 N808 1.330 . S
C807 C809 1.446 . S
N808 Co767 2.151 . S
N808 C807 1.330 . S
N808 C812 1.418 . S
C809 H788 0.929 . S
C809 C807 1.446 . S
C809 C810 1.332 . S
C810 H790 0.931 . S
C810 C809 1.332 . S
C810 C811 1.267 . S
C811 H779 0.929 . S
C811 C810 1.267 . S
C811 C812 1.251 . S
C812 H782 0.929 . S
C812 N808 1.418 . S
C812 C811 1.251 . S
C813 H780 0.930 . S
C813 C815 1.406 . S
C813 C818 1.261 . S
C814 H781 0.930 . S
C814 N816 1.325 . S
C814 C817 1.357 . S
C815 H783 0.928 . S
C815 C813 1.406 . S
C815 N816 1.261 . S
N816 Co767 2.214 . S
N816 C814 1.325 . S
N816 C815 1.261 . S
C817 H787 0.931 . S
C817 C814 1.357 . S
C817 C818 1.312 . S
C818 H789 0.930 . S
C818 C813 1.261 . S
C818 C817 1.312 . S
C819 O791 1.214 . S
C819 O799 1.234 . S
C820 H792 0.929 . S
C820 C823 1.391 . S
C820 C825 1.391 . S
C821 H793 0.929 . S
C821 C822 1.390 . S
C821 N824 1.391 . S
C822 H794 0.930 . S
C822 C821 1.390 . S
C822 C823 1.392 . S
C823 H795 0.929 . S
C823 C820 1.391 . S
C823 C822 1.392 . S
N824 Co768 2.257 . S
N824 C821 1.391 . S
N824 C825 1.388 . S
C825 H796 0.930 . S
C825 C820 1.391 . S
C825 N824 1.388 . S
Co826 O828 2.143 . S
Co826 O834 2.074 . S
Co826 O837 2.093 . S
Co826 O850 2.097 . S
Co826 N867 2.151 . S
Co826 N875 2.214 . S
Co827 O828 2.160 . S
Co827 O833 2.058 . S
Co827 O843 2.057 . S
Co827 O858 2.037 . S
Co827 N862 2.145 . S
Co827 N883 2.257 . S
O828 Co826 2.143 . S
O828 Co827 2.160 . S
C829 O830 1.278 . S
C829 O837 1.224 . S
O830 C829 1.278 . S
C831 O832 1.245 . S
C831 O843 1.232 . S
O832 C831 1.245 . S
O833 Co827 2.058 . S
O833 C859 1.269 . S
O834 Co826 2.074 . S
O834 C859 1.257 . S
H835 C860 0.930 . S
H836 C866 0.930 . S
O837 Co826 2.093 . S
O837 C829 1.224 . S
H838 C870 0.929 . S
H839 C872 0.930 . S
H840 C873 0.930 . S
H841 C871 0.929 . S
H842 C874 0.928 . S
O843 Co827 2.057 . S
O843 C831 1.232 . S
H844 C863 0.929 . S
H845 C864 0.929 . S
H846 C876 0.931 . S
H847 C868 0.929 . S
H848 C877 0.930 . S
H849 C869 0.931 . S
O850 Co826 2.097 . S
O850 C878 1.214 . S
H851 C879 0.929 . S
H852 C880 0.929 . S
H853 C881 0.930 . S
H854 C882 0.929 . S
H855 C884 0.930 . S
H856 C861 0.930 . S
H857 C865 0.930 . S
O858 Co827 2.037 . S
O858 C878 1.234 . S
C859 O833 1.269 . S
C859 O834 1.257 . S
C860 H835 0.930 . S
C860 C863 1.388 . S
C860 C865 1.418 . S
C861 H856 0.930 . S
C861 C864 1.404 . S
C861 C865 1.353 . S
N862 Co827 2.145 . S
N862 C863 1.397 . S
N862 C864 1.334 . S
C863 H844 0.929 . S
C863 C860 1.388 . S
C863 N862 1.397 . S
C864 H845 0.929 . S
C864 C861 1.404 . S
C864 N862 1.334 . S
C865 H857 0.930 . S
C865 C860 1.418 . S
C865 C861 1.353 . S
C866 H836 0.930 . S
C866 N867 1.330 . S
C866 C868 1.446 . S
N867 Co826 2.151 . S
N867 C866 1.330 . S
N867 C871 1.418 . S
C868 H847 0.929 . S
C868 C866 1.446 . S
C868 C869 1.332 . S
C869 H849 0.931 . S
C869 C868 1.332 . S
C869 C870 1.267 . S
C870 H838 0.929 . S
C870 C869 1.267 . S
C870 C871 1.251 . S
C871 H841 0.929 . S
C871 N867 1.418 . S
C871 C870 1.251 . S
C872 H839 0.930 . S
C872 C874 1.406 . S
C872 C877 1.261 . S
C873 H840 0.930 . S
C873 N875 1.325 . S
C873 C876 1.357 . S
C874 H842 0.928 . S
C874 C872 1.406 . S
C874 N875 1.261 . S
N875 Co826 2.214 . S
N875 C873 1.325 . S
N875 C874 1.261 . S
C876 H846 0.931 . S
C876 C873 1.357 . S
C876 C877 1.312 . S
C877 H848 0.930 . S
C877 C872 1.261 . S
C877 C876 1.312 . S
C878 O850 1.214 . S
C878 O858 1.234 . S
C879 H851 0.929 . S
C879 C882 1.391 . S
C879 C884 1.391 . S
C880 H852 0.929 . S
C880 C881 1.390 . S
C880 N883 1.391 . S
C881 H853 0.930 . S
C881 C880 1.390 . S
C881 C882 1.392 . S
C882 H854 0.929 . S
C882 C879 1.391 . S
C882 C881 1.392 . S
N883 Co827 2.257 . S
N883 C880 1.391 . S
N883 C884 1.388 . S
C884 H855 0.930 . S
C884 C879 1.391 . S
C884 N883 1.388 . S
Co885 O887 2.143 . S
Co885 O893 2.074 . S
Co885 O896 2.093 1_554 S
Co885 O909 2.097 . S
Co885 N926 2.151 1_554 S
Co885 N934 2.214 . S
Co886 O887 2.160 . S
Co886 O892 2.058 . S
Co886 O902 2.057 . S
Co886 O917 2.037 . S
Co886 N921 2.145 . S
Co886 N942 2.257 . S
O887 Co885 2.143 . S
O887 Co886 2.160 . S
C888 O889 1.278 . S
C888 O896 1.224 . S
O889 C888 1.278 . S
C890 O891 1.245 . S
C890 O902 1.232 . S
O891 C890 1.245 . S
O892 Co886 2.058 . S
O892 C918 1.269 . S
O893 Co885 2.074 . S
O893 C918 1.257 . S
H894 C919 0.930 . S
H895 C925 0.930 . S
O896 Co885 2.093 1_556 S
O896 C888 1.224 . S
H897 C929 0.929 . S
H898 C931 0.930 1_556 S
H899 C932 0.930 . S
H900 C930 0.926 . S
H901 C933 0.925 1_556 S
O902 Co886 2.057 . S
O902 C890 1.232 . S
H903 C922 0.929 . S
H904 C923 0.929 . S
H905 C935 0.931 . S
H906 C927 0.929 . S
H907 C936 0.930 . S
H908 C928 0.931 . S
O909 Co885 2.097 . S
O909 C937 1.214 . S
H910 C938 0.929 . S
H911 C939 0.929 . S
H912 C940 0.930 . S
H913 C941 0.929 . S
H914 C943 0.930 . S
H915 C920 0.930 . S
H916 C924 0.930 . S
O917 Co886 2.037 . S
O917 C937 1.234 . S
C918 O892 1.269 . S
C918 O893 1.257 . S
C919 H894 0.930 . S
C919 C922 1.388 . S
C919 C924 1.418 . S
C920 H915 0.930 . S
C920 C923 1.404 . S
C920 C924 1.353 . S
N921 Co886 2.145 . S
N921 C922 1.397 . S
N921 C923 1.334 . S
C922 H903 0.929 . S
C922 C919 1.388 . S
C922 N921 1.397 . S
C923 H904 0.929 . S
C923 C920 1.404 . S
C923 N921 1.334 . S
C924 H916 0.930 . S
C924 C919 1.418 . S
C924 C920 1.353 . S
C925 H895 0.930 . S
C925 N926 1.330 . S
C925 C927 1.446 . S
N926 Co885 2.151 1_556 S
N926 C925 1.330 . S
N926 C930 1.418 1_556 S
C927 H906 0.929 . S
C927 C925 1.446 . S
C927 C928 1.332 . S
C928 H908 0.931 . S
C928 C927 1.332 . S
C928 C929 1.267 . S
C929 H897 0.929 . S
C929 C928 1.267 . S
C929 C930 1.253 1_556 S
C930 H900 0.926 . S
C930 N926 1.418 1_554 S
C930 C929 1.253 1_554 S
C931 H898 0.930 1_554 S
C931 C933 1.406 . S
C931 C936 1.261 . S
C932 H899 0.930 . S
C932 N934 1.325 . S
C932 C935 1.357 . S
C933 H901 0.925 1_554 S
C933 C931 1.406 . S
C933 N934 1.264 . S
N934 Co885 2.214 . S
N934 C932 1.325 . S
N934 C933 1.264 . S
C935 H905 0.931 . S
C935 C932 1.357 . S
C935 C936 1.312 . S
C936 H907 0.930 . S
C936 C931 1.261 . S
C936 C935 1.312 . S
C937 O909 1.214 . S
C937 O917 1.234 . S
C938 H910 0.929 . S
C938 C941 1.391 . S
C938 C943 1.391 . S
C939 H911 0.929 . S
C939 C940 1.390 . S
C939 N942 1.391 . S
C940 H912 0.930 . S
C940 C939 1.390 . S
C940 C941 1.392 . S
C941 H913 0.929 . S
C941 C938 1.391 . S
C941 C940 1.392 . S
N942 Co886 2.257 . S
N942 C939 1.391 . S
N942 C943 1.388 . S
C943 H914 0.930 . S
C943 C938 1.391 . S
C943 N942 1.388 . S
Co944 O946 2.143 . S
Co944 O952 2.074 . S
Co944 O955 2.093 . S
Co944 O968 2.097 . S
Co944 N985 2.151 . S
Co944 N993 2.214 . S
Co945 O946 2.160 . S
Co945 O951 2.058 . S
Co945 O961 2.057 . S
Co945 O976 2.037 . S
Co945 N980 2.145 . S
Co945 N1001 2.257 . S
O946 Co944 2.143 . S
O946 Co945 2.160 . S
C947 O948 1.278 . S
C947 O955 1.224 . S
O948 C947 1.278 . S
C949 O950 1.245 . S
C949 O961 1.232 . S
O950 C949 1.245 . S
O951 Co945 2.058 . S
O951 C977 1.269 . S
O952 Co944 2.074 . S
O952 C977 1.257 . S
H953 C978 0.930 . S
H954 C984 0.930 . S
O955 Co944 2.093 . S
O955 C947 1.224 . S
H956 C988 0.929 . S
H957 C990 0.930 . S
H958 C991 0.930 . S
H959 C989 0.929 . S
H960 C992 0.928 . S
O961 Co945 2.057 . S
O961 C949 1.232 . S
H962 C981 0.929 . S
H963 C982 0.929 . S
H964 C994 0.931 . S
H965 C986 0.929 . S
H966 C995 0.930 . S
H967 C987 0.931 . S
O968 Co944 2.097 . S
O968 C996 1.214 . S
H969 C997 0.929 . S
H970 C998 0.929 . S
H971 C999 0.930 . S
H972 C1000 0.929 . S
H973 C1002 0.930 . S
H974 C979 0.930 . S
H975 C983 0.930 . S
O976 Co945 2.037 . S
O976 C996 1.234 . S
C977 O951 1.269 . S
C977 O952 1.257 . S
C978 H953 0.930 . S
C978 C981 1.388 . S
C978 C983 1.418 . S
C979 H974 0.930 . S
C979 C982 1.404 . S
C979 C983 1.353 . S
N980 Co945 2.145 . S
N980 C981 1.397 . S
N980 C982 1.334 . S
C981 H962 0.929 . S
C981 C978 1.388 . S
C981 N980 1.397 . S
C982 H963 0.929 . S
C982 C979 1.404 . S
C982 N980 1.334 . S
C983 H975 0.930 . S
C983 C978 1.418 . S
C983 C979 1.353 . S
C984 H954 0.930 . S
C984 N985 1.330 . S
C984 C986 1.446 . S
N985 Co944 2.151 . S
N985 C984 1.330 . S
N985 C989 1.418 . S
C986 H965 0.929 . S
C986 C984 1.446 . S
C986 C987 1.332 . S
C987 H967 0.931 . S
C987 C986 1.332 . S
C987 C988 1.267 . S
C988 H956 0.929 . S
C988 C987 1.267 . S
C988 C989 1.251 . S
C989 H959 0.929 . S
C989 N985 1.418 . S
C989 C988 1.251 . S
C990 H957 0.930 . S
C990 C992 1.406 . S
C990 C995 1.261 . S
C991 H958 0.930 . S
C991 N993 1.325 . S
C991 C994 1.357 . S
C992 H960 0.928 . S
C992 C990 1.406 . S
C992 N993 1.261 . S
N993 Co944 2.214 . S
N993 C991 1.325 . S
N993 C992 1.261 . S
C994 H964 0.931 . S
C994 C991 1.357 . S
C994 C995 1.312 . S
C995 H966 0.930 . S
C995 C990 1.261 . S
C995 C994 1.312 . S
C996 O968 1.214 . S
C996 O976 1.234 . S
C997 H969 0.929 . S
C997 C1000 1.391 . S
C997 C1002 1.391 . S
C998 H970 0.929 . S
C998 C999 1.390 . S
C998 N1001 1.391 . S
C999 H971 0.930 . S
C999 C998 1.390 . S
C999 C1000 1.392 . S
C1000 H972 0.929 . S
C1000 C997 1.391 . S
C1000 C999 1.392 . S
N1001 Co945 2.257 . S
N1001 C998 1.391 . S
N1001 C1002 1.388 . S
C1002 H973 0.930 . S
C1002 C997 1.391 . S
C1002 N1001 1.388 . S
Co1003 O1005 2.143 . S
Co1003 O1011 2.074 . S
Co1003 O1014 2.093 1_554 S
Co1003 O1027 2.097 . S
Co1003 N1044 2.151 1_554 S
Co1003 N1052 2.214 . S
Co1004 O1005 2.160 . S
Co1004 O1010 2.058 . S
Co1004 O1020 2.057 . S
Co1004 O1035 2.037 . S
Co1004 N1039 2.145 . S
Co1004 N1060 2.257 . S
O1005 Co1003 2.143 . S
O1005 Co1004 2.160 . S
C1006 O1007 1.278 . S
C1006 O1014 1.224 . S
O1007 C1006 1.278 . S
C1008 O1009 1.245 . S
C1008 O1020 1.232 . S
O1009 C1008 1.245 . S
O1010 Co1004 2.058 . S
O1010 C1036 1.269 . S
O1011 Co1003 2.074 . S
O1011 C1036 1.257 . S
H1012 C1037 0.930 . S
H1013 C1043 0.930 . S
O1014 Co1003 2.093 1_556 S
O1014 C1006 1.224 . S
H1015 C1047 0.929 . S
H1016 C1049 0.930 1_556 S
H1017 C1050 0.930 . S
H1018 C1048 0.926 . S
H1019 C1051 0.925 1_556 S
O1020 Co1004 2.057 . S
O1020 C1008 1.232 . S
H1021 C1040 0.929 . S
H1022 C1041 0.929 . S
H1023 C1053 0.931 . S
H1024 C1045 0.929 . S
H1025 C1054 0.930 . S
H1026 C1046 0.931 . S
O1027 Co1003 2.097 . S
O1027 C1055 1.214 . S
H1028 C1056 0.929 . S
H1029 C1057 0.929 . S
H1030 C1058 0.930 . S
H1031 C1059 0.929 . S
H1032 C1061 0.930 . S
H1033 C1038 0.930 . S
H1034 C1042 0.930 . S
O1035 Co1004 2.037 . S
O1035 C1055 1.234 . S
C1036 O1010 1.269 . S
C1036 O1011 1.257 . S
C1037 H1012 0.930 . S
C1037 C1040 1.388 . S
C1037 C1042 1.418 . S
C1038 H1033 0.930 . S
C1038 C1041 1.404 . S
C1038 C1042 1.353 . S
N1039 Co1004 2.145 . S
N1039 C1040 1.397 . S
N1039 C1041 1.334 . S
C1040 H1021 0.929 . S
C1040 C1037 1.388 . S
C1040 N1039 1.397 . S
C1041 H1022 0.929 . S
C1041 C1038 1.404 . S
C1041 N1039 1.334 . S
C1042 H1034 0.930 . S
C1042 C1037 1.418 . S
C1042 C1038 1.353 . S
C1043 H1013 0.930 . S
C1043 N1044 1.330 . S
C1043 C1045 1.446 . S
N1044 Co1003 2.151 1_556 S
N1044 C1043 1.330 . S
N1044 C1048 1.418 1_556 S
C1045 H1024 0.929 . S
C1045 C1043 1.446 . S
C1045 C1046 1.332 . S
C1046 H1026 0.931 . S
C1046 C1045 1.332 . S
C1046 C1047 1.267 . S
C1047 H1015 0.929 . S
C1047 C1046 1.267 . S
C1047 C1048 1.253 1_556 S
C1048 H1018 0.926 . S
C1048 N1044 1.418 1_554 S
C1048 C1047 1.253 1_554 S
C1049 H1016 0.930 1_554 S
C1049 C1051 1.406 . S
C1049 C1054 1.261 . S
C1050 H1017 0.930 . S
C1050 N1052 1.325 . S
C1050 C1053 1.357 . S
C1051 H1019 0.925 1_554 S
C1051 C1049 1.406 . S
C1051 N1052 1.264 . S
N1052 Co1003 2.214 . S
N1052 C1050 1.325 . S
N1052 C1051 1.264 . S
C1053 H1023 0.931 . S
C1053 C1050 1.357 . S
C1053 C1054 1.312 . S
C1054 H1025 0.930 . S
C1054 C1049 1.261 . S
C1054 C1053 1.312 . S
C1055 O1027 1.214 . S
C1055 O1035 1.234 . S
C1056 H1028 0.929 . S
C1056 C1059 1.391 . S
C1056 C1061 1.391 . S
C1057 H1029 0.929 . S
C1057 C1058 1.390 . S
C1057 N1060 1.391 . S
C1058 H1030 0.930 . S
C1058 C1057 1.390 . S
C1058 C1059 1.392 . S
C1059 H1031 0.929 . S
C1059 C1056 1.391 . S
C1059 C1058 1.392 . S
N1060 Co1004 2.257 . S
N1060 C1057 1.391 . S
N1060 C1061 1.388 . S
C1061 H1032 0.930 . S
C1061 C1056 1.391 . S
C1061 N1060 1.388 . S
Co1062 O1064 2.143 . S
Co1062 O1070 2.074 . S
Co1062 O1073 2.093 . S
Co1062 O1086 2.097 . S
Co1062 N1103 2.151 . S
Co1062 N1111 2.214 . S
Co1063 O1064 2.160 . S
Co1063 O1069 2.058 . S
Co1063 O1079 2.057 . S
Co1063 O1094 2.037 . S
Co1063 N1098 2.145 . S
Co1063 N1119 2.257 . S
O1064 Co1062 2.143 . S
O1064 Co1063 2.160 . S
C1065 O1066 1.278 . S
C1065 O1073 1.224 . S
O1066 C1065 1.278 . S
C1067 O1068 1.245 . S
C1067 O1079 1.232 . S
O1068 C1067 1.245 . S
O1069 Co1063 2.058 . S
O1069 C1095 1.269 . S
O1070 Co1062 2.074 . S
O1070 C1095 1.257 . S
H1071 C1096 0.930 . S
H1072 C1102 0.930 . S
O1073 Co1062 2.093 . S
O1073 C1065 1.224 . S
H1074 C1106 0.916 1_455 S
H1075 C1108 0.930 . S
H1076 C1109 0.930 . S
H1077 C1107 0.929 . S
H1078 C1110 0.928 . S
O1079 Co1063 2.057 . S
O1079 C1067 1.232 . S
H1080 C1099 0.929 . S
H1081 C1100 0.929 . S
H1082 C1112 0.931 . S
H1083 C1104 0.929 . S
H1084 C1113 0.930 . S
H1085 C1105 0.931 1_455 S
O1086 Co1062 2.097 . S
O1086 C1114 1.214 . S
H1087 C1115 0.929 . S
H1088 C1116 0.929 . S
H1089 C1117 0.930 . S
H1090 C1118 0.929 . S
H1091 C1120 0.930 . S
H1092 C1097 0.930 . S
H1093 C1101 0.930 . S
O1094 Co1063 2.037 . S
O1094 C1114 1.234 . S
C1095 O1069 1.269 . S
C1095 O1070 1.257 . S
C1096 H1071 0.930 . S
C1096 C1099 1.388 . S
C1096 C1101 1.418 . S
C1097 H1092 0.930 . S
C1097 C1100 1.404 . S
C1097 C1101 1.353 . S
N1098 Co1063 2.145 . S
N1098 C1099 1.397 . S
N1098 C1100 1.334 . S
C1099 H1080 0.929 . S
C1099 C1096 1.388 . S
C1099 N1098 1.397 . S
C1100 H1081 0.929 . S
C1100 C1097 1.404 . S
C1100 N1098 1.334 . S
C1101 H1093 0.930 . S
C1101 C1096 1.418 . S
C1101 C1097 1.353 . S
C1102 H1072 0.930 . S
C1102 N1103 1.330 . S
C1102 C1104 1.446 . S
N1103 Co1062 2.151 . S
N1103 C1102 1.330 . S
N1103 C1107 1.418 . S
C1104 H1083 0.929 . S
C1104 C1102 1.446 . S
C1104 C1105 1.332 . S
C1105 H1085 0.931 1_655 S
C1105 C1104 1.332 . S
C1105 C1106 1.269 . S
C1106 H1074 0.916 1_655 S
C1106 C1105 1.269 . S
C1106 C1107 1.261 . S
C1107 H1077 0.929 . S
C1107 N1103 1.418 . S
C1107 C1106 1.261 . S
C1108 H1075 0.930 . S
C1108 C1110 1.406 . S
C1108 C1113 1.261 . S
C1109 H1076 0.930 . S
C1109 N1111 1.325 . S
C1109 C1112 1.357 . S
C1110 H1078 0.928 . S
C1110 C1108 1.406 . S
C1110 N1111 1.261 . S
N1111 Co1062 2.214 . S
N1111 C1109 1.325 . S
N1111 C1110 1.261 . S
C1112 H1082 0.931 . S
C1112 C1109 1.357 . S
C1112 C1113 1.312 . S
C1113 H1084 0.930 . S
C1113 C1108 1.261 . S
C1113 C1112 1.312 . S
C1114 O1086 1.214 . S
C1114 O1094 1.234 . S
C1115 H1087 0.929 . S
C1115 C1118 1.391 . S
C1115 C1120 1.391 . S
C1116 H1088 0.929 . S
C1116 C1117 1.390 . S
C1116 N1119 1.391 . S
C1117 H1089 0.930 . S
C1117 C1116 1.390 . S
C1117 C1118 1.392 . S
C1118 H1090 0.929 . S
C1118 C1115 1.391 . S
C1118 C1117 1.392 . S
N1119 Co1063 2.257 . S
N1119 C1116 1.391 . S
N1119 C1120 1.388 . S
C1120 H1091 0.930 . S
C1120 C1115 1.391 . S
C1120 N1119 1.388 . S
Co1121 O1123 2.143 . S
Co1121 O1129 2.074 . S
Co1121 O1132 2.093 . S
Co1121 O1145 2.097 . S
Co1121 N1162 2.151 . S
Co1121 N1170 2.214 . S
Co1122 O1123 2.160 . S
Co1122 O1128 2.058 . S
Co1122 O1138 2.057 . S
Co1122 O1153 2.037 . S
Co1122 N1157 2.145 . S
Co1122 N1178 2.257 . S
O1123 Co1121 2.143 . S
O1123 Co1122 2.160 . S
C1124 O1125 1.278 . S
C1124 O1132 1.224 . S
O1125 C1124 1.278 . S
C1126 O1127 1.245 . S
C1126 O1138 1.232 . S
O1127 C1126 1.245 . S
O1128 Co1122 2.058 . S
O1128 C1154 1.269 . S
O1129 Co1121 2.074 . S
O1129 C1154 1.257 . S
H1130 C1155 0.930 . S
H1131 C1161 0.930 . S
O1132 Co1121 2.093 . S
O1132 C1124 1.224 . S
H1133 C1165 0.929 . S
H1134 C1167 0.930 . S
H1135 C1168 0.930 . S
H1136 C1166 0.929 . S
H1137 C1169 0.928 . S
O1138 Co1122 2.057 . S
O1138 C1126 1.232 . S
H1139 C1158 0.929 . S
H1140 C1159 0.929 . S
H1141 C1171 0.931 . S
H1142 C1163 0.929 . S
H1143 C1172 0.930 . S
H1144 C1164 0.931 . S
O1145 Co1121 2.097 . S
O1145 C1173 1.214 . S
H1146 C1174 0.929 . S
H1147 C1175 0.929 . S
H1148 C1176 0.930 . S
H1149 C1177 0.929 . S
H1150 C1179 0.930 . S
H1151 C1156 0.930 . S
H1152 C1160 0.930 . S
O1153 Co1122 2.037 . S
O1153 C1173 1.234 . S
C1154 O1128 1.269 . S
C1154 O1129 1.257 . S
C1155 H1130 0.930 . S
C1155 C1158 1.388 . S
C1155 C1160 1.418 . S
C1156 H1151 0.930 . S
C1156 C1159 1.404 . S
C1156 C1160 1.353 . S
N1157 Co1122 2.145 . S
N1157 C1158 1.397 . S
N1157 C1159 1.334 . S
C1158 H1139 0.929 . S
C1158 C1155 1.388 . S
C1158 N1157 1.397 . S
C1159 H1140 0.929 . S
C1159 C1156 1.404 . S
C1159 N1157 1.334 . S
C1160 H1152 0.930 . S
C1160 C1155 1.418 . S
C1160 C1156 1.353 . S
C1161 H1131 0.930 . S
C1161 N1162 1.330 . S
C1161 C1163 1.446 . S
N1162 Co1121 2.151 . S
N1162 C1161 1.330 . S
N1162 C1166 1.418 . S
C1163 H1142 0.929 . S
C1163 C1161 1.446 . S
C1163 C1164 1.332 . S
C1164 H1144 0.931 . S
C1164 C1163 1.332 . S
C1164 C1165 1.267 . S
C1165 H1133 0.929 . S
C1165 C1164 1.267 . S
C1165 C1166 1.251 . S
C1166 H1136 0.929 . S
C1166 N1162 1.418 . S
C1166 C1165 1.251 . S
C1167 H1134 0.930 . S
C1167 C1169 1.406 . S
C1167 C1172 1.261 . S
C1168 H1135 0.930 . S
C1168 N1170 1.325 . S
C1168 C1171 1.357 . S
C1169 H1137 0.928 . S
C1169 C1167 1.406 . S
C1169 N1170 1.261 . S
N1170 Co1121 2.214 . S
N1170 C1168 1.325 . S
N1170 C1169 1.261 . S
C1171 H1141 0.931 . S
C1171 C1168 1.357 . S
C1171 C1172 1.312 . S
C1172 H1143 0.930 . S
C1172 C1167 1.261 . S
C1172 C1171 1.312 . S
C1173 O1145 1.214 . S
C1173 O1153 1.234 . S
C1174 H1146 0.929 . S
C1174 C1177 1.391 . S
C1174 C1179 1.391 . S
C1175 H1147 0.929 . S
C1175 C1176 1.390 . S
C1175 N1178 1.391 . S
C1176 H1148 0.930 . S
C1176 C1175 1.390 . S
C1176 C1177 1.392 . S
C1177 H1149 0.929 . S
C1177 C1174 1.391 . S
C1177 C1176 1.392 . S
N1178 Co1122 2.257 . S
N1178 C1175 1.391 . S
N1178 C1179 1.388 . S
C1179 H1150 0.930 . S
C1179 C1174 1.391 . S
C1179 N1178 1.388 . S
Co1180 O1182 2.143 . S
Co1180 O1188 2.074 . S
Co1180 O1191 2.093 . S
Co1180 O1204 2.097 . S
Co1180 N1221 2.151 . S
Co1180 N1229 2.214 . S
Co1181 O1182 2.160 . S
Co1181 O1187 2.058 . S
Co1181 O1197 2.057 . S
Co1181 O1212 2.037 . S
Co1181 N1216 2.145 . S
Co1181 N1237 2.257 . S
O1182 Co1180 2.143 . S
O1182 Co1181 2.160 . S
C1183 O1184 1.278 . S
C1183 O1191 1.224 . S
O1184 C1183 1.278 . S
C1185 O1186 1.245 . S
C1185 O1197 1.232 . S
O1186 C1185 1.245 . S
O1187 Co1181 2.058 . S
O1187 C1213 1.269 . S
O1188 Co1180 2.074 . S
O1188 C1213 1.257 . S
H1189 C1214 0.930 . S
H1190 C1220 0.930 . S
O1191 Co1180 2.093 . S
O1191 C1183 1.224 . S
H1192 C1224 0.929 . S
H1193 C1226 0.930 . S
H1194 C1227 0.930 . S
H1195 C1225 0.929 . S
H1196 C1228 0.928 . S
O1197 Co1181 2.057 . S
O1197 C1185 1.232 . S
H1198 C1217 0.929 . S
H1199 C1218 0.929 . S
H1200 C1230 0.931 . S
H1201 C1222 0.929 . S
H1202 C1231 0.930 . S
H1203 C1223 0.931 . S
O1204 Co1180 2.097 . S
O1204 C1232 1.214 . S
H1205 C1233 0.929 . S
H1206 C1234 0.929 . S
H1207 C1235 0.930 . S
H1208 C1236 0.929 . S
H1209 C1238 0.930 . S
H1210 C1215 0.930 . S
H1211 C1219 0.930 . S
O1212 Co1181 2.037 . S
O1212 C1232 1.234 . S
C1213 O1187 1.269 . S
C1213 O1188 1.257 . S
C1214 H1189 0.930 . S
C1214 C1217 1.388 . S
C1214 C1219 1.418 . S
C1215 H1210 0.930 . S
C1215 C1218 1.404 . S
C1215 C1219 1.353 . S
N1216 Co1181 2.145 . S
N1216 C1217 1.397 . S
N1216 C1218 1.334 . S
C1217 H1198 0.929 . S
C1217 C1214 1.388 . S
C1217 N1216 1.397 . S
C1218 H1199 0.929 . S
C1218 C1215 1.404 . S
C1218 N1216 1.334 . S
C1219 H1211 0.930 . S
C1219 C1214 1.418 . S
C1219 C1215 1.353 . S
C1220 H1190 0.930 . S
C1220 N1221 1.330 . S
C1220 C1222 1.446 . S
N1221 Co1180 2.151 . S
N1221 C1220 1.330 . S
N1221 C1225 1.418 . S
C1222 H1201 0.929 . S
C1222 C1220 1.446 . S
C1222 C1223 1.332 . S
C1223 H1203 0.931 . S
C1223 C1222 1.332 . S
C1223 C1224 1.267 . S
C1224 H1192 0.929 . S
C1224 C1223 1.267 . S
C1224 C1225 1.251 . S
C1225 H1195 0.929 . S
C1225 N1221 1.418 . S
C1225 C1224 1.251 . S
C1226 H1193 0.930 . S
C1226 C1228 1.406 . S
C1226 C1231 1.261 . S
C1227 H1194 0.930 . S
C1227 N1229 1.325 . S
C1227 C1230 1.357 . S
C1228 H1196 0.928 . S
C1228 C1226 1.406 . S
C1228 N1229 1.261 . S
N1229 Co1180 2.214 . S
N1229 C1227 1.325 . S
N1229 C1228 1.261 . S
C1230 H1200 0.931 . S
C1230 C1227 1.357 . S
C1230 C1231 1.312 . S
C1231 H1202 0.930 . S
C1231 C1226 1.261 . S
C1231 C1230 1.312 . S
C1232 O1204 1.214 . S
C1232 O1212 1.234 . S
C1233 H1205 0.929 . S
C1233 C1236 1.391 . S
C1233 C1238 1.391 . S
C1234 H1206 0.929 . S
C1234 C1235 1.390 . S
C1234 N1237 1.391 . S
C1235 H1207 0.930 . S
C1235 C1234 1.390 . S
C1235 C1236 1.392 . S
C1236 H1208 0.929 . S
C1236 C1233 1.391 . S
C1236 C1235 1.392 . S
N1237 Co1181 2.257 . S
N1237 C1234 1.391 . S
N1237 C1238 1.388 . S
C1238 H1209 0.930 . S
C1238 C1233 1.391 . S
C1238 N1237 1.388 . S
Co1239 O1241 2.143 . S
Co1239 O1247 2.074 . S
Co1239 O1250 2.093 1_556 S
Co1239 O1263 2.097 . S
Co1239 N1280 2.151 1_556 S
Co1239 N1288 2.214 . S
Co1240 O1241 2.160 . S
Co1240 O1246 2.058 . S
Co1240 O1256 2.057 . S
Co1240 O1271 2.037 . S
Co1240 N1275 2.145 . S
Co1240 N1296 2.257 . S
O1241 Co1239 2.143 . S
O1241 Co1240 2.160 . S
C1242 O1243 1.278 . S
C1242 O1250 1.224 . S
O1243 C1242 1.278 . S
C1244 O1245 1.245 . S
C1244 O1256 1.232 . S
O1245 C1244 1.245 . S
O1246 Co1240 2.058 . S
O1246 C1272 1.269 . S
O1247 Co1239 2.074 . S
O1247 C1272 1.257 . S
H1248 C1273 0.930 . S
H1249 C1279 0.930 . S
O1250 Co1239 2.093 1_554 S
O1250 C1242 1.224 . S
H1251 C1283 0.929 . S
H1252 C1285 0.930 1_554 S
H1253 C1286 0.930 . S
H1254 C1284 0.926 . S
H1255 C1287 0.925 1_554 S
O1256 Co1240 2.057 . S
O1256 C1244 1.232 . S
H1257 C1276 0.929 . S
H1258 C1277 0.929 . S
H1259 C1289 0.931 . S
H1260 C1281 0.929 . S
H1261 C1290 0.930 . S
H1262 C1282 0.931 . S
O1263 Co1239 2.097 . S
O1263 C1291 1.214 . S
H1264 C1292 0.929 . S
H1265 C1293 0.929 . S
H1266 C1294 0.930 . S
H1267 C1295 0.929 . S
H1268 C1297 0.930 . S
H1269 C1274 0.930 . S
H1270 C1278 0.930 . S
O1271 Co1240 2.037 . S
O1271 C1291 1.234 . S
C1272 O1246 1.269 . S
C1272 O1247 1.257 . S
C1273 H1248 0.930 . S
C1273 C1276 1.388 . S
C1273 C1278 1.418 . S
C1274 H1269 0.930 . S
C1274 C1277 1.404 . S
C1274 C1278 1.353 . S
N1275 Co1240 2.145 . S
N1275 C1276 1.397 . S
N1275 C1277 1.334 . S
C1276 H1257 0.929 . S
C1276 C1273 1.388 . S
C1276 N1275 1.397 . S
C1277 H1258 0.929 . S
C1277 C1274 1.404 . S
C1277 N1275 1.334 . S
C1278 H1270 0.930 . S
C1278 C1273 1.418 . S
C1278 C1274 1.353 . S
C1279 H1249 0.930 . S
C1279 N1280 1.330 . S
C1279 C1281 1.446 . S
N1280 Co1239 2.151 1_554 S
N1280 C1279 1.330 . S
N1280 C1284 1.418 1_554 S
C1281 H1260 0.929 . S
C1281 C1279 1.446 . S
C1281 C1282 1.332 . S
C1282 H1262 0.931 . S
C1282 C1281 1.332 . S
C1282 C1283 1.267 . S
C1283 H1251 0.929 . S
C1283 C1282 1.267 . S
C1283 C1284 1.253 1_554 S
C1284 H1254 0.926 . S
C1284 N1280 1.418 1_556 S
C1284 C1283 1.253 1_556 S
C1285 H1252 0.930 1_556 S
C1285 C1287 1.406 . S
C1285 C1290 1.261 . S
C1286 H1253 0.930 . S
C1286 N1288 1.325 . S
C1286 C1289 1.357 . S
C1287 H1255 0.925 1_556 S
C1287 C1285 1.406 . S
C1287 N1288 1.264 . S
N1288 Co1239 2.214 . S
N1288 C1286 1.325 . S
N1288 C1287 1.264 . S
C1289 H1259 0.931 . S
C1289 C1286 1.357 . S
C1289 C1290 1.312 . S
C1290 H1261 0.930 . S
C1290 C1285 1.261 . S
C1290 C1289 1.312 . S
C1291 O1263 1.214 . S
C1291 O1271 1.234 . S
C1292 H1264 0.929 . S
C1292 C1295 1.391 . S
C1292 C1297 1.391 . S
C1293 H1265 0.929 . S
C1293 C1294 1.390 . S
C1293 N1296 1.391 . S
C1294 H1266 0.930 . S
C1294 C1293 1.390 . S
C1294 C1295 1.392 . S
C1295 H1267 0.929 . S
C1295 C1292 1.391 . S
C1295 C1294 1.392 . S
N1296 Co1240 2.257 . S
N1296 C1293 1.391 . S
N1296 C1297 1.388 . S
C1297 H1268 0.930 . S
C1297 C1292 1.391 . S
C1297 N1296 1.388 . S
Co1298 O1300 2.143 . S
Co1298 O1306 2.074 . S
Co1298 O1309 2.093 . S
Co1298 O1322 2.097 . S
Co1298 N1339 2.151 . S
Co1298 N1347 2.214 . S
Co1299 O1300 2.160 . S
Co1299 O1305 2.058 . S
Co1299 O1315 2.057 . S
Co1299 O1330 2.037 . S
Co1299 N1334 2.145 . S
Co1299 N1355 2.257 . S
O1300 Co1298 2.143 . S
O1300 Co1299 2.160 . S
C1301 O1302 1.278 . S
C1301 O1309 1.224 . S
O1302 C1301 1.278 . S
C1303 O1304 1.245 . S
C1303 O1315 1.232 . S
O1304 C1303 1.245 . S
O1305 Co1299 2.058 . S
O1305 C1331 1.269 . S
O1306 Co1298 2.074 . S
O1306 C1331 1.257 . S
H1307 C1332 0.930 . S
H1308 C1338 0.930 . S
O1309 Co1298 2.093 . S
O1309 C1301 1.224 . S
H1310 C1342 0.916 1_455 S
H1311 C1344 0.930 . S
H1312 C1345 0.930 . S
H1313 C1343 0.929 . S
H1314 C1346 0.928 . S
O1315 Co1299 2.057 . S
O1315 C1303 1.232 . S
H1316 C1335 0.929 . S
H1317 C1336 0.929 . S
H1318 C1348 0.931 . S
H1319 C1340 0.929 . S
H1320 C1349 0.930 . S
H1321 C1341 0.931 1_455 S
O1322 Co1298 2.097 . S
O1322 C1350 1.214 . S
H1323 C1351 0.929 . S
H1324 C1352 0.929 . S
H1325 C1353 0.930 . S
H1326 C1354 0.929 . S
H1327 C1356 0.930 . S
H1328 C1333 0.930 . S
H1329 C1337 0.930 . S
O1330 Co1299 2.037 . S
O1330 C1350 1.234 . S
C1331 O1305 1.269 . S
C1331 O1306 1.257 . S
C1332 H1307 0.930 . S
C1332 C1335 1.388 . S
C1332 C1337 1.418 . S
C1333 H1328 0.930 . S
C1333 C1336 1.404 . S
C1333 C1337 1.353 . S
N1334 Co1299 2.145 . S
N1334 C1335 1.397 . S
N1334 C1336 1.334 . S
C1335 H1316 0.929 . S
C1335 C1332 1.388 . S
C1335 N1334 1.397 . S
C1336 H1317 0.929 . S
C1336 C1333 1.404 . S
C1336 N1334 1.334 . S
C1337 H1329 0.930 . S
C1337 C1332 1.418 . S
C1337 C1333 1.353 . S
C1338 H1308 0.930 . S
C1338 N1339 1.330 . S
C1338 C1340 1.446 . S
N1339 Co1298 2.151 . S
N1339 C1338 1.330 . S
N1339 C1343 1.418 . S
C1340 H1319 0.929 . S
C1340 C1338 1.446 . S
C1340 C1341 1.332 . S
C1341 H1321 0.931 1_655 S
C1341 C1340 1.332 . S
C1341 C1342 1.269 . S
C1342 H1310 0.916 1_655 S
C1342 C1341 1.269 . S
C1342 C1343 1.261 . S
C1343 H1313 0.929 . S
C1343 N1339 1.418 . S
C1343 C1342 1.261 . S
C1344 H1311 0.930 . S
C1344 C1346 1.406 . S
C1344 C1349 1.261 . S
C1345 H1312 0.930 . S
C1345 N1347 1.325 . S
C1345 C1348 1.357 . S
C1346 H1314 0.928 . S
C1346 C1344 1.406 . S
C1346 N1347 1.261 . S
N1347 Co1298 2.214 . S
N1347 C1345 1.325 . S
N1347 C1346 1.261 . S
C1348 H1318 0.931 . S
C1348 C1345 1.357 . S
C1348 C1349 1.312 . S
C1349 H1320 0.930 . S
C1349 C1344 1.261 . S
C1349 C1348 1.312 . S
C1350 O1322 1.214 . S
C1350 O1330 1.234 . S
C1351 H1323 0.929 . S
C1351 C1354 1.391 . S
C1351 C1356 1.391 . S
C1352 H1324 0.929 . S
C1352 C1353 1.390 . S
C1352 N1355 1.391 . S
C1353 H1325 0.930 . S
C1353 C1352 1.390 . S
C1353 C1354 1.392 . S
C1354 H1326 0.929 . S
C1354 C1351 1.391 . S
C1354 C1353 1.392 . S
N1355 Co1299 2.257 . S
N1355 C1352 1.391 . S
N1355 C1356 1.388 . S
C1356 H1327 0.930 . S
C1356 C1351 1.391 . S
C1356 N1355 1.388 . S
Co1357 O1359 2.143 . S
Co1357 O1365 2.074 . S
Co1357 O1368 2.093 . S
Co1357 O1381 2.097 . S
Co1357 N1398 2.151 . S
Co1357 N1406 2.214 . S
Co1358 O1359 2.160 . S
Co1358 O1364 2.058 . S
Co1358 O1374 2.057 . S
Co1358 O1389 2.037 . S
Co1358 N1393 2.145 . S
Co1358 N1414 2.257 . S
O1359 Co1357 2.143 . S
O1359 Co1358 2.160 . S
C1360 O1361 1.278 . S
C1360 O1368 1.224 . S
O1361 C1360 1.278 . S
C1362 O1363 1.245 . S
C1362 O1374 1.232 . S
O1363 C1362 1.245 . S
O1364 Co1358 2.058 . S
O1364 C1390 1.269 . S
O1365 Co1357 2.074 . S
O1365 C1390 1.257 . S
H1366 C1391 0.930 . S
H1367 C1397 0.930 . S
O1368 Co1357 2.093 . S
O1368 C1360 1.224 . S
H1369 C1401 0.929 . S
H1370 C1403 0.930 . S
H1371 C1404 0.930 . S
H1372 C1402 0.929 . S
H1373 C1405 0.928 . S
O1374 Co1358 2.057 . S
O1374 C1362 1.232 . S
H1375 C1394 0.929 . S
H1376 C1395 0.929 . S
H1377 C1407 0.931 . S
H1378 C1399 0.929 . S
H1379 C1408 0.930 . S
H1380 C1400 0.931 . S
O1381 Co1357 2.097 . S
O1381 C1409 1.214 . S
H1382 C1410 0.929 . S
H1383 C1411 0.929 . S
H1384 C1412 0.930 . S
H1385 C1413 0.929 . S
H1386 C1415 0.930 . S
H1387 C1392 0.930 . S
H1388 C1396 0.930 . S
O1389 Co1358 2.037 . S
O1389 C1409 1.234 . S
C1390 O1364 1.269 . S
C1390 O1365 1.257 . S
C1391 H1366 0.930 . S
C1391 C1394 1.388 . S
C1391 C1396 1.418 . S
C1392 H1387 0.930 . S
C1392 C1395 1.404 . S
C1392 C1396 1.353 . S
N1393 Co1358 2.145 . S
N1393 C1394 1.397 . S
N1393 C1395 1.334 . S
C1394 H1375 0.929 . S
C1394 C1391 1.388 . S
C1394 N1393 1.397 . S
C1395 H1376 0.929 . S
C1395 C1392 1.404 . S
C1395 N1393 1.334 . S
C1396 H1388 0.930 . S
C1396 C1391 1.418 . S
C1396 C1392 1.353 . S
C1397 H1367 0.930 . S
C1397 N1398 1.330 . S
C1397 C1399 1.446 . S
N1398 Co1357 2.151 . S
N1398 C1397 1.330 . S
N1398 C1402 1.418 . S
C1399 H1378 0.929 . S
C1399 C1397 1.446 . S
C1399 C1400 1.332 . S
C1400 H1380 0.931 . S
C1400 C1399 1.332 . S
C1400 C1401 1.267 . S
C1401 H1369 0.929 . S
C1401 C1400 1.267 . S
C1401 C1402 1.251 . S
C1402 H1372 0.929 . S
C1402 N1398 1.418 . S
C1402 C1401 1.251 . S
C1403 H1370 0.930 . S
C1403 C1405 1.406 . S
C1403 C1408 1.261 . S
C1404 H1371 0.930 . S
C1404 N1406 1.325 . S
C1404 C1407 1.357 . S
C1405 H1373 0.928 . S
C1405 C1403 1.406 . S
C1405 N1406 1.261 . S
N1406 Co1357 2.214 . S
N1406 C1404 1.325 . S
N1406 C1405 1.261 . S
C1407 H1377 0.931 . S
C1407 C1404 1.357 . S
C1407 C1408 1.312 . S
C1408 H1379 0.930 . S
C1408 C1403 1.261 . S
C1408 C1407 1.312 . S
C1409 O1381 1.214 . S
C1409 O1389 1.234 . S
C1410 H1382 0.929 . S
C1410 C1413 1.391 . S
C1410 C1415 1.391 . S
C1411 H1383 0.929 . S
C1411 C1412 1.390 . S
C1411 N1414 1.391 . S
C1412 H1384 0.930 . S
C1412 C1411 1.390 . S
C1412 C1413 1.392 . S
C1413 H1385 0.929 . S
C1413 C1410 1.391 . S
C1413 C1412 1.392 . S
N1414 Co1358 2.257 . S
N1414 C1411 1.391 . S
N1414 C1415 1.388 . S
C1415 H1386 0.930 . S
C1415 C1410 1.391 . S
C1415 N1414 1.388 . S
Co1416 O1418 2.143 . S
Co1416 O1424 2.074 . S
Co1416 O1427 2.093 . S
Co1416 O1440 2.097 . S
Co1416 N1457 2.151 . S
Co1416 N1465 2.214 . S
Co1417 O1418 2.160 . S
Co1417 O1423 2.058 . S
Co1417 O1433 2.057 . S
Co1417 O1448 2.037 . S
Co1417 N1452 2.145 . S
Co1417 N1473 2.257 . S
O1418 Co1416 2.143 . S
O1418 Co1417 2.160 . S
C1419 O1420 1.278 . S
C1419 O1427 1.224 . S
O1420 C1419 1.278 . S
C1421 O1422 1.245 . S
C1421 O1433 1.232 . S
O1422 C1421 1.245 . S
O1423 Co1417 2.058 . S
O1423 C1449 1.269 . S
O1424 Co1416 2.074 . S
O1424 C1449 1.257 . S
H1425 C1450 0.930 . S
H1426 C1456 0.930 . S
O1427 Co1416 2.093 . S
O1427 C1419 1.224 . S
H1428 C1460 0.929 . S
H1429 C1462 0.930 . S
H1430 C1463 0.930 . S
H1431 C1461 0.929 . S
H1432 C1464 0.928 . S
O1433 Co1417 2.057 . S
O1433 C1421 1.232 . S
H1434 C1453 0.929 . S
H1435 C1454 0.929 . S
H1436 C1466 0.931 . S
H1437 C1458 0.929 . S
H1438 C1467 0.930 . S
H1439 C1459 0.931 . S
O1440 Co1416 2.097 . S
O1440 C1468 1.214 . S
H1441 C1469 0.929 . S
H1442 C1470 0.929 . S
H1443 C1471 0.930 . S
H1444 C1472 0.929 . S
H1445 C1474 0.930 . S
H1446 C1451 0.930 . S
H1447 C1455 0.930 . S
O1448 Co1417 2.037 . S
O1448 C1468 1.234 . S
C1449 O1423 1.269 . S
C1449 O1424 1.257 . S
C1450 H1425 0.930 . S
C1450 C1453 1.388 . S
C1450 C1455 1.418 . S
C1451 H1446 0.930 . S
C1451 C1454 1.404 . S
C1451 C1455 1.353 . S
N1452 Co1417 2.145 . S
N1452 C1453 1.397 . S
N1452 C1454 1.334 . S
C1453 H1434 0.929 . S
C1453 C1450 1.388 . S
C1453 N1452 1.397 . S
C1454 H1435 0.929 . S
C1454 C1451 1.404 . S
C1454 N1452 1.334 . S
C1455 H1447 0.930 . S
C1455 C1450 1.418 . S
C1455 C1451 1.353 . S
C1456 H1426 0.930 . S
C1456 N1457 1.330 . S
C1456 C1458 1.446 . S
N1457 Co1416 2.151 . S
N1457 C1456 1.330 . S
N1457 C1461 1.418 . S
C1458 H1437 0.929 . S
C1458 C1456 1.446 . S
C1458 C1459 1.332 . S
C1459 H1439 0.931 . S
C1459 C1458 1.332 . S
C1459 C1460 1.267 . S
C1460 H1428 0.929 . S
C1460 C1459 1.267 . S
C1460 C1461 1.251 . S
C1461 H1431 0.929 . S
C1461 N1457 1.418 . S
C1461 C1460 1.251 . S
C1462 H1429 0.930 . S
C1462 C1464 1.406 . S
C1462 C1467 1.261 . S
C1463 H1430 0.930 . S
C1463 N1465 1.325 . S
C1463 C1466 1.357 . S
C1464 H1432 0.928 . S
C1464 C1462 1.406 . S
C1464 N1465 1.261 . S
N1465 Co1416 2.214 . S
N1465 C1463 1.325 . S
N1465 C1464 1.261 . S
C1466 H1436 0.931 . S
C1466 C1463 1.357 . S
C1466 C1467 1.312 . S
C1467 H1438 0.930 . S
C1467 C1462 1.261 . S
C1467 C1466 1.312 . S
C1468 O1440 1.214 . S
C1468 O1448 1.234 . S
C1469 H1441 0.929 . S
C1469 C1472 1.391 . S
C1469 C1474 1.391 . S
C1470 H1442 0.929 . S
C1470 C1471 1.390 . S
C1470 N1473 1.391 . S
C1471 H1443 0.930 . S
C1471 C1470 1.390 . S
C1471 C1472 1.392 . S
C1472 H1444 0.929 . S
C1472 C1469 1.391 . S
C1472 C1471 1.392 . S
N1473 Co1417 2.257 . S
N1473 C1470 1.391 . S
N1473 C1474 1.388 . S
C1474 H1445 0.930 . S
C1474 C1469 1.391 . S
C1474 N1473 1.388 . S
Co1475 O1477 2.143 . S
Co1475 O1483 2.074 . S
Co1475 O1486 2.093 1_556 S
Co1475 O1499 2.097 . S
Co1475 N1516 2.151 1_556 S
Co1475 N1524 2.214 . S
Co1476 O1477 2.160 . S
Co1476 O1482 2.058 . S
Co1476 O1492 2.057 . S
Co1476 O1507 2.037 . S
Co1476 N1511 2.145 . S
Co1476 N1532 2.257 . S
O1477 Co1475 2.143 . S
O1477 Co1476 2.160 . S
C1478 O1479 1.278 . S
C1478 O1486 1.224 . S
O1479 C1478 1.278 . S
C1480 O1481 1.245 . S
C1480 O1492 1.232 . S
O1481 C1480 1.245 . S
O1482 Co1476 2.058 . S
O1482 C1508 1.269 . S
O1483 Co1475 2.074 . S
O1483 C1508 1.257 . S
H1484 C1509 0.930 . S
H1485 C1515 0.930 . S
O1486 Co1475 2.093 1_554 S
O1486 C1478 1.224 . S
H1487 C1519 0.929 . S
H1488 C1521 0.930 1_554 S
H1489 C1522 0.930 . S
H1490 C1520 0.926 . S
H1491 C1523 0.925 1_554 S
O1492 Co1476 2.057 . S
O1492 C1480 1.232 . S
H1493 C1512 0.929 . S
H1494 C1513 0.929 . S
H1495 C1525 0.931 . S
H1496 C1517 0.929 . S
H1497 C1526 0.930 . S
H1498 C1518 0.931 . S
O1499 Co1475 2.097 . S
O1499 C1527 1.214 . S
H1500 C1528 0.929 . S
H1501 C1529 0.929 . S
H1502 C1530 0.930 . S
H1503 C1531 0.929 . S
H1504 C1533 0.930 . S
H1505 C1510 0.930 . S
H1506 C1514 0.930 . S
O1507 Co1476 2.037 . S
O1507 C1527 1.234 . S
C1508 O1482 1.269 . S
C1508 O1483 1.257 . S
C1509 H1484 0.930 . S
C1509 C1512 1.388 . S
C1509 C1514 1.418 . S
C1510 H1505 0.930 . S
C1510 C1513 1.404 . S
C1510 C1514 1.353 . S
N1511 Co1476 2.145 . S
N1511 C1512 1.397 . S
N1511 C1513 1.334 . S
C1512 H1493 0.929 . S
C1512 C1509 1.388 . S
C1512 N1511 1.397 . S
C1513 H1494 0.929 . S
C1513 C1510 1.404 . S
C1513 N1511 1.334 . S
C1514 H1506 0.930 . S
C1514 C1509 1.418 . S
C1514 C1510 1.353 . S
C1515 H1485 0.930 . S
C1515 N1516 1.330 . S
C1515 C1517 1.446 . S
N1516 Co1475 2.151 1_554 S
N1516 C1515 1.330 . S
N1516 C1520 1.418 1_554 S
C1517 H1496 0.929 . S
C1517 C1515 1.446 . S
C1517 C1518 1.332 . S
C1518 H1498 0.931 . S
C1518 C1517 1.332 . S
C1518 C1519 1.267 . S
C1519 H1487 0.929 . S
C1519 C1518 1.267 . S
C1519 C1520 1.253 1_554 S
C1520 H1490 0.926 . S
C1520 N1516 1.418 1_556 S
C1520 C1519 1.253 1_556 S
C1521 H1488 0.930 1_556 S
C1521 C1523 1.406 . S
C1521 C1526 1.261 . S
C1522 H1489 0.930 . S
C1522 N1524 1.325 . S
C1522 C1525 1.357 . S
C1523 H1491 0.925 1_556 S
C1523 C1521 1.406 . S
C1523 N1524 1.264 . S
N1524 Co1475 2.214 . S
N1524 C1522 1.325 . S
N1524 C1523 1.264 . S
C1525 H1495 0.931 . S
C1525 C1522 1.357 . S
C1525 C1526 1.312 . S
C1526 H1497 0.930 . S
C1526 C1521 1.261 . S
C1526 C1525 1.312 . S
C1527 O1499 1.214 . S
C1527 O1507 1.234 . S
C1528 H1500 0.929 . S
C1528 C1531 1.391 . S
C1528 C1533 1.391 . S
C1529 H1501 0.929 . S
C1529 C1530 1.390 . S
C1529 N1532 1.391 . S
C1530 H1502 0.930 . S
C1530 C1529 1.390 . S
C1530 C1531 1.392 . S
C1531 H1503 0.929 . S
C1531 C1528 1.391 . S
C1531 C1530 1.392 . S
N1532 Co1476 2.257 . S
N1532 C1529 1.391 . S
N1532 C1533 1.388 . S
C1533 H1504 0.930 . S
C1533 C1528 1.391 . S
C1533 N1532 1.388 . S
Co1534 O1536 2.143 . S
Co1534 O1542 2.074 . S
Co1534 O1545 2.093 . S
Co1534 O1558 2.097 . S
Co1534 N1575 2.151 . S
Co1534 N1583 2.214 . S
Co1535 O1536 2.160 . S
Co1535 O1541 2.058 . S
Co1535 O1551 2.057 . S
Co1535 O1566 2.037 . S
Co1535 N1570 2.145 . S
Co1535 N1591 2.257 . S
O1536 Co1534 2.143 . S
O1536 Co1535 2.160 . S
C1537 O1538 1.278 . S
C1537 O1545 1.224 . S
O1538 C1537 1.278 . S
C1539 O1540 1.245 . S
C1539 O1551 1.232 . S
O1540 C1539 1.245 . S
O1541 Co1535 2.058 . S
O1541 C1567 1.269 . S
O1542 Co1534 2.074 . S
O1542 C1567 1.257 . S
H1543 C1568 0.930 . S
H1544 C1574 0.930 . S
O1545 Co1534 2.093 . S
O1545 C1537 1.224 . S
H1546 C1578 0.916 1_655 S
H1547 C1580 0.930 . S
H1548 C1581 0.930 . S
H1549 C1579 0.929 . S
H1550 C1582 0.928 . S
O1551 Co1535 2.057 . S
O1551 C1539 1.232 . S
H1552 C1571 0.929 . S
H1553 C1572 0.929 . S
H1554 C1584 0.931 . S
H1555 C1576 0.929 . S
H1556 C1585 0.930 . S
H1557 C1577 0.931 1_655 S
O1558 Co1534 2.097 . S
O1558 C1586 1.214 . S
H1559 C1587 0.929 . S
H1560 C1588 0.929 . S
H1561 C1589 0.930 . S
H1562 C1590 0.929 . S
H1563 C1592 0.930 . S
H1564 C1569 0.930 . S
H1565 C1573 0.930 . S
O1566 Co1535 2.037 . S
O1566 C1586 1.234 . S
C1567 O1541 1.269 . S
C1567 O1542 1.257 . S
C1568 H1543 0.930 . S
C1568 C1571 1.388 . S
C1568 C1573 1.418 . S
C1569 H1564 0.930 . S
C1569 C1572 1.404 . S
C1569 C1573 1.353 . S
N1570 Co1535 2.145 . S
N1570 C1571 1.397 . S
N1570 C1572 1.334 . S
C1571 H1552 0.929 . S
C1571 C1568 1.388 . S
C1571 N1570 1.397 . S
C1572 H1553 0.929 . S
C1572 C1569 1.404 . S
C1572 N1570 1.334 . S
C1573 H1565 0.930 . S
C1573 C1568 1.418 . S
C1573 C1569 1.353 . S
C1574 H1544 0.930 . S
C1574 N1575 1.330 . S
C1574 C1576 1.446 . S
N1575 Co1534 2.151 . S
N1575 C1574 1.330 . S
N1575 C1579 1.418 . S
C1576 H1555 0.929 . S
C1576 C1574 1.446 . S
C1576 C1577 1.332 . S
C1577 H1557 0.931 1_455 S
C1577 C1576 1.332 . S
C1577 C1578 1.269 . S
C1578 H1546 0.916 1_455 S
C1578 C1577 1.269 . S
C1578 C1579 1.261 . S
C1579 H1549 0.929 . S
C1579 N1575 1.418 . S
C1579 C1578 1.261 . S
C1580 H1547 0.930 . S
C1580 C1582 1.406 . S
C1580 C1585 1.261 . S
C1581 H1548 0.930 . S
C1581 N1583 1.325 . S
C1581 C1584 1.357 . S
C1582 H1550 0.928 . S
C1582 C1580 1.406 . S
C1582 N1583 1.261 . S
N1583 Co1534 2.214 . S
N1583 C1581 1.325 . S
N1583 C1582 1.261 . S
C1584 H1554 0.931 . S
C1584 C1581 1.357 . S
C1584 C1585 1.312 . S
C1585 H1556 0.930 . S
C1585 C1580 1.261 . S
C1585 C1584 1.312 . S
C1586 O1558 1.214 . S
C1586 O1566 1.234 . S
C1587 H1559 0.929 . S
C1587 C1590 1.391 . S
C1587 C1592 1.391 . S
C1588 H1560 0.929 . S
C1588 C1589 1.390 . S
C1588 N1591 1.391 . S
C1589 H1561 0.930 . S
C1589 C1588 1.390 . S
C1589 C1590 1.392 . S
C1590 H1562 0.929 . S
C1590 C1587 1.391 . S
C1590 C1589 1.392 . S
N1591 Co1535 2.257 . S
N1591 C1588 1.391 . S
N1591 C1592 1.388 . S
C1592 H1563 0.930 . S
C1592 C1587 1.391 . S
C1592 N1591 1.388 . S
Co1593 O1595 2.143 . S
Co1593 O1601 2.074 . S
Co1593 O1604 2.093 . S
Co1593 O1617 2.097 . S
Co1593 N1634 2.151 . S
Co1593 N1642 2.214 . S
Co1594 O1595 2.160 . S
Co1594 O1600 2.058 . S
Co1594 O1610 2.057 . S
Co1594 O1625 2.037 . S
Co1594 N1629 2.145 . S
Co1594 N1650 2.257 . S
O1595 Co1593 2.143 . S
O1595 Co1594 2.160 . S
C1596 O1597 1.278 . S
C1596 O1604 1.224 . S
O1597 C1596 1.278 . S
C1598 O1599 1.245 . S
C1598 O1610 1.232 . S
O1599 C1598 1.245 . S
O1600 Co1594 2.058 . S
O1600 C1626 1.269 . S
O1601 Co1593 2.074 . S
O1601 C1626 1.257 . S
H1602 C1627 0.930 . S
H1603 C1633 0.930 . S
O1604 Co1593 2.093 . S
O1604 C1596 1.224 . S
H1605 C1637 0.929 . S
H1606 C1639 0.930 . S
H1607 C1640 0.930 . S
H1608 C1638 0.929 . S
H1609 C1641 0.928 . S
O1610 Co1594 2.057 . S
O1610 C1598 1.232 . S
H1611 C1630 0.929 . S
H1612 C1631 0.929 . S
H1613 C1643 0.931 . S
H1614 C1635 0.929 . S
H1615 C1644 0.930 . S
H1616 C1636 0.931 . S
O1617 Co1593 2.097 . S
O1617 C1645 1.214 . S
H1618 C1646 0.929 . S
H1619 C1647 0.929 . S
H1620 C1648 0.930 . S
H1621 C1649 0.929 . S
H1622 C1651 0.930 . S
H1623 C1628 0.930 . S
H1624 C1632 0.930 . S
O1625 Co1594 2.037 . S
O1625 C1645 1.234 . S
C1626 O1600 1.269 . S
C1626 O1601 1.257 . S
C1627 H1602 0.930 . S
C1627 C1630 1.388 . S
C1627 C1632 1.418 . S
C1628 H1623 0.930 . S
C1628 C1631 1.404 . S
C1628 C1632 1.353 . S
N1629 Co1594 2.145 . S
N1629 C1630 1.397 . S
N1629 C1631 1.334 . S
C1630 H1611 0.929 . S
C1630 C1627 1.388 . S
C1630 N1629 1.397 . S
C1631 H1612 0.929 . S
C1631 C1628 1.404 . S
C1631 N1629 1.334 . S
C1632 H1624 0.930 . S
C1632 C1627 1.418 . S
C1632 C1628 1.353 . S
C1633 H1603 0.930 . S
C1633 N1634 1.330 . S
C1633 C1635 1.446 . S
N1634 Co1593 2.151 . S
N1634 C1633 1.330 . S
N1634 C1638 1.418 . S
C1635 H1614 0.929 . S
C1635 C1633 1.446 . S
C1635 C1636 1.332 . S
C1636 H1616 0.931 . S
C1636 C1635 1.332 . S
C1636 C1637 1.267 . S
C1637 H1605 0.929 . S
C1637 C1636 1.267 . S
C1637 C1638 1.251 . S
C1638 H1608 0.929 . S
C1638 N1634 1.418 . S
C1638 C1637 1.251 . S
C1639 H1606 0.930 . S
C1639 C1641 1.406 . S
C1639 C1644 1.261 . S
C1640 H1607 0.930 . S
C1640 N1642 1.325 . S
C1640 C1643 1.357 . S
C1641 H1609 0.928 . S
C1641 C1639 1.406 . S
C1641 N1642 1.261 . S
N1642 Co1593 2.214 . S
N1642 C1640 1.325 . S
N1642 C1641 1.261 . S
C1643 H1613 0.931 . S
C1643 C1640 1.357 . S
C1643 C1644 1.312 . S
C1644 H1615 0.930 . S
C1644 C1639 1.261 . S
C1644 C1643 1.312 . S
C1645 O1617 1.214 . S
C1645 O1625 1.234 . S
C1646 H1618 0.929 . S
C1646 C1649 1.391 . S
C1646 C1651 1.391 . S
C1647 H1619 0.929 . S
C1647 C1648 1.390 . S
C1647 N1650 1.391 . S
C1648 H1620 0.930 . S
C1648 C1647 1.390 . S
C1648 C1649 1.392 . S
C1649 H1621 0.929 . S
C1649 C1646 1.391 . S
C1649 C1648 1.392 . S
N1650 Co1594 2.257 . S
N1650 C1647 1.391 . S
N1650 C1651 1.388 . S
C1651 H1622 0.930 . S
C1651 C1646 1.391 . S
C1651 N1650 1.388 . S
Co1652 O1654 2.143 . S
Co1652 O1660 2.074 . S
Co1652 O1663 2.093 . S
Co1652 O1676 2.097 . S
Co1652 N1693 2.151 . S
Co1652 N1701 2.214 . S
Co1653 O1654 2.160 . S
Co1653 O1659 2.058 . S
Co1653 O1669 2.057 . S
Co1653 O1684 2.037 . S
Co1653 N1688 2.145 . S
Co1653 N1709 2.257 . S
O1654 Co1652 2.143 . S
O1654 Co1653 2.160 . S
C1655 O1656 1.278 . S
C1655 O1663 1.224 . S
O1656 C1655 1.278 . S
C1657 O1658 1.245 . S
C1657 O1669 1.232 . S
O1658 C1657 1.245 . S
O1659 Co1653 2.058 . S
O1659 C1685 1.269 . S
O1660 Co1652 2.074 . S
O1660 C1685 1.257 . S
H1661 C1686 0.930 . S
H1662 C1692 0.930 . S
O1663 Co1652 2.093 . S
O1663 C1655 1.224 . S
H1664 C1696 0.929 . S
H1665 C1698 0.930 . S
H1666 C1699 0.930 . S
H1667 C1697 0.929 . S
H1668 C1700 0.928 . S
O1669 Co1653 2.057 . S
O1669 C1657 1.232 . S
H1670 C1689 0.929 . S
H1671 C1690 0.929 . S
H1672 C1702 0.931 . S
H1673 C1694 0.929 . S
H1674 C1703 0.930 . S
H1675 C1695 0.931 . S
O1676 Co1652 2.097 . S
O1676 C1704 1.214 . S
H1677 C1705 0.929 . S
H1678 C1706 0.929 . S
H1679 C1707 0.930 . S
H1680 C1708 0.929 . S
H1681 C1710 0.930 . S
H1682 C1687 0.930 . S
H1683 C1691 0.930 . S
O1684 Co1653 2.037 . S
O1684 C1704 1.234 . S
C1685 O1659 1.269 . S
C1685 O1660 1.257 . S
C1686 H1661 0.930 . S
C1686 C1689 1.388 . S
C1686 C1691 1.418 . S
C1687 H1682 0.930 . S
C1687 C1690 1.404 . S
C1687 C1691 1.353 . S
N1688 Co1653 2.145 . S
N1688 C1689 1.397 . S
N1688 C1690 1.334 . S
C1689 H1670 0.929 . S
C1689 C1686 1.388 . S
C1689 N1688 1.397 . S
C1690 H1671 0.929 . S
C1690 C1687 1.404 . S
C1690 N1688 1.334 . S
C1691 H1683 0.930 . S
C1691 C1686 1.418 . S
C1691 C1687 1.353 . S
C1692 H1662 0.930 . S
C1692 N1693 1.330 . S
C1692 C1694 1.446 . S
N1693 Co1652 2.151 . S
N1693 C1692 1.330 . S
N1693 C1697 1.418 . S
C1694 H1673 0.929 . S
C1694 C1692 1.446 . S
C1694 C1695 1.332 . S
C1695 H1675 0.931 . S
C1695 C1694 1.332 . S
C1695 C1696 1.267 . S
C1696 H1664 0.929 . S
C1696 C1695 1.267 . S
C1696 C1697 1.251 . S
C1697 H1667 0.929 . S
C1697 N1693 1.418 . S
C1697 C1696 1.251 . S
C1698 H1665 0.930 . S
C1698 C1700 1.406 . S
C1698 C1703 1.261 . S
C1699 H1666 0.930 . S
C1699 N1701 1.325 . S
C1699 C1702 1.357 . S
C1700 H1668 0.928 . S
C1700 C1698 1.406 . S
C1700 N1701 1.261 . S
N1701 Co1652 2.214 . S
N1701 C1699 1.325 . S
N1701 C1700 1.261 . S
C1702 H1672 0.931 . S
C1702 C1699 1.357 . S
C1702 C1703 1.312 . S
C1703 H1674 0.930 . S
C1703 C1698 1.261 . S
C1703 C1702 1.312 . S
C1704 O1676 1.214 . S
C1704 O1684 1.234 . S
C1705 H1677 0.929 . S
C1705 C1708 1.391 . S
C1705 C1710 1.391 . S
C1706 H1678 0.929 . S
C1706 C1707 1.390 . S
C1706 N1709 1.391 . S
C1707 H1679 0.930 . S
C1707 C1706 1.390 . S
C1707 C1708 1.392 . S
C1708 H1680 0.929 . S
C1708 C1705 1.391 . S
C1708 C1707 1.392 . S
N1709 Co1653 2.257 . S
N1709 C1706 1.391 . S
N1709 C1710 1.388 . S
C1710 H1681 0.930 . S
C1710 C1705 1.391 . S
C1710 N1709 1.388 . S
Co1711 O1713 2.143 . S
Co1711 O1719 2.074 . S
Co1711 O1722 2.093 1_554 S
Co1711 O1735 2.097 . S
Co1711 N1752 2.151 1_554 S
Co1711 N1760 2.214 . S
Co1712 O1713 2.160 . S
Co1712 O1718 2.058 . S
Co1712 O1728 2.057 . S
Co1712 O1743 2.037 . S
Co1712 N1747 2.145 . S
Co1712 N1768 2.257 . S
O1713 Co1711 2.143 . S
O1713 Co1712 2.160 . S
C1714 O1715 1.278 . S
C1714 O1722 1.224 . S
O1715 C1714 1.278 . S
C1716 O1717 1.245 . S
C1716 O1728 1.232 . S
O1717 C1716 1.245 . S
O1718 Co1712 2.058 . S
O1718 C1744 1.269 . S
O1719 Co1711 2.074 . S
O1719 C1744 1.257 . S
H1720 C1745 0.930 . S
H1721 C1751 0.930 . S
O1722 Co1711 2.093 1_556 S
O1722 C1714 1.224 . S
H1723 C1755 0.929 . S
H1724 C1757 0.930 1_556 S
H1725 C1758 0.930 . S
H1726 C1756 0.926 . S
H1727 C1759 0.925 1_556 S
O1728 Co1712 2.057 . S
O1728 C1716 1.232 . S
H1729 C1748 0.929 . S
H1730 C1749 0.929 . S
H1731 C1761 0.931 . S
H1732 C1753 0.929 . S
H1733 C1762 0.930 . S
H1734 C1754 0.931 . S
O1735 Co1711 2.097 . S
O1735 C1763 1.214 . S
H1736 C1764 0.929 . S
H1737 C1765 0.929 . S
H1738 C1766 0.930 . S
H1739 C1767 0.929 . S
H1740 C1769 0.930 . S
H1741 C1746 0.930 . S
H1742 C1750 0.930 . S
O1743 Co1712 2.037 . S
O1743 C1763 1.234 . S
C1744 O1718 1.269 . S
C1744 O1719 1.257 . S
C1745 H1720 0.930 . S
C1745 C1748 1.388 . S
C1745 C1750 1.418 . S
C1746 H1741 0.930 . S
C1746 C1749 1.404 . S
C1746 C1750 1.353 . S
N1747 Co1712 2.145 . S
N1747 C1748 1.397 . S
N1747 C1749 1.334 . S
C1748 H1729 0.929 . S
C1748 C1745 1.388 . S
C1748 N1747 1.397 . S
C1749 H1730 0.929 . S
C1749 C1746 1.404 . S
C1749 N1747 1.334 . S
C1750 H1742 0.930 . S
C1750 C1745 1.418 . S
C1750 C1746 1.353 . S
C1751 H1721 0.930 . S
C1751 N1752 1.330 . S
C1751 C1753 1.446 . S
N1752 Co1711 2.151 1_556 S
N1752 C1751 1.330 . S
N1752 C1756 1.418 1_556 S
C1753 H1732 0.929 . S
C1753 C1751 1.446 . S
C1753 C1754 1.332 . S
C1754 H1734 0.931 . S
C1754 C1753 1.332 . S
C1754 C1755 1.267 . S
C1755 H1723 0.929 . S
C1755 C1754 1.267 . S
C1755 C1756 1.253 1_556 S
C1756 H1726 0.926 . S
C1756 N1752 1.418 1_554 S
C1756 C1755 1.253 1_554 S
C1757 H1724 0.930 1_554 S
C1757 C1759 1.406 . S
C1757 C1762 1.261 . S
C1758 H1725 0.930 . S
C1758 N1760 1.325 . S
C1758 C1761 1.357 . S
C1759 H1727 0.925 1_554 S
C1759 C1757 1.406 . S
C1759 N1760 1.264 . S
N1760 Co1711 2.214 . S
N1760 C1758 1.325 . S
N1760 C1759 1.264 . S
C1761 H1731 0.931 . S
C1761 C1758 1.357 . S
C1761 C1762 1.312 . S
C1762 H1733 0.930 . S
C1762 C1757 1.261 . S
C1762 C1761 1.312 . S
C1763 O1735 1.214 . S
C1763 O1743 1.234 . S
C1764 H1736 0.929 . S
C1764 C1767 1.391 . S
C1764 C1769 1.391 . S
C1765 H1737 0.929 . S
C1765 C1766 1.390 . S
C1765 N1768 1.391 . S
C1766 H1738 0.930 . S
C1766 C1765 1.390 . S
C1766 C1767 1.392 . S
C1767 H1739 0.929 . S
C1767 C1764 1.391 . S
C1767 C1766 1.392 . S
N1768 Co1712 2.257 . S
N1768 C1765 1.391 . S
N1768 C1769 1.388 . S
C1769 H1740 0.930 . S
C1769 C1764 1.391 . S
C1769 N1768 1.388 . S
Co1770 O1772 2.143 . S
Co1770 O1778 2.074 . S
Co1770 O1781 2.093 . S
Co1770 O1794 2.097 . S
Co1770 N1811 2.151 . S
Co1770 N1819 2.214 . S
Co1771 O1772 2.160 . S
Co1771 O1777 2.058 . S
Co1771 O1787 2.057 . S
Co1771 O1802 2.037 . S
Co1771 N1806 2.145 . S
Co1771 N1827 2.257 . S
O1772 Co1770 2.143 . S
O1772 Co1771 2.160 . S
C1773 O1774 1.278 . S
C1773 O1781 1.224 . S
O1774 C1773 1.278 . S
C1775 O1776 1.245 . S
C1775 O1787 1.232 . S
O1776 C1775 1.245 . S
O1777 Co1771 2.058 . S
O1777 C1803 1.269 . S
O1778 Co1770 2.074 . S
O1778 C1803 1.257 . S
H1779 C1804 0.930 . S
H1780 C1810 0.930 . S
O1781 Co1770 2.093 . S
O1781 C1773 1.224 . S
H1782 C1814 0.916 1_655 S
H1783 C1816 0.930 . S
H1784 C1817 0.930 . S
H1785 C1815 0.929 . S
H1786 C1818 0.928 . S
O1787 Co1771 2.057 . S
O1787 C1775 1.232 . S
H1788 C1807 0.929 . S
H1789 C1808 0.929 . S
H1790 C1820 0.931 . S
H1791 C1812 0.929 . S
H1792 C1821 0.930 . S
H1793 C1813 0.931 1_655 S
O1794 Co1770 2.097 . S
O1794 C1822 1.214 . S
H1795 C1823 0.929 . S
H1796 C1824 0.929 . S
H1797 C1825 0.930 . S
H1798 C1826 0.929 . S
H1799 C1828 0.930 . S
H1800 C1805 0.930 . S
H1801 C1809 0.930 . S
O1802 Co1771 2.037 . S
O1802 C1822 1.234 . S
C1803 O1777 1.269 . S
C1803 O1778 1.257 . S
C1804 H1779 0.930 . S
C1804 C1807 1.388 . S
C1804 C1809 1.418 . S
C1805 H1800 0.930 . S
C1805 C1808 1.404 . S
C1805 C1809 1.353 . S
N1806 Co1771 2.145 . S
N1806 C1807 1.397 . S
N1806 C1808 1.334 . S
C1807 H1788 0.929 . S
C1807 C1804 1.388 . S
C1807 N1806 1.397 . S
C1808 H1789 0.929 . S
C1808 C1805 1.404 . S
C1808 N1806 1.334 . S
C1809 H1801 0.930 . S
C1809 C1804 1.418 . S
C1809 C1805 1.353 . S
C1810 H1780 0.930 . S
C1810 N1811 1.330 . S
C1810 C1812 1.446 . S
N1811 Co1770 2.151 . S
N1811 C1810 1.330 . S
N1811 C1815 1.418 . S
C1812 H1791 0.929 . S
C1812 C1810 1.446 . S
C1812 C1813 1.332 . S
C1813 H1793 0.931 1_455 S
C1813 C1812 1.332 . S
C1813 C1814 1.269 . S
C1814 H1782 0.916 1_455 S
C1814 C1813 1.269 . S
C1814 C1815 1.261 . S
C1815 H1785 0.929 . S
C1815 N1811 1.418 . S
C1815 C1814 1.261 . S
C1816 H1783 0.930 . S
C1816 C1818 1.406 . S
C1816 C1821 1.261 . S
C1817 H1784 0.930 . S
C1817 N1819 1.325 . S
C1817 C1820 1.357 . S
C1818 H1786 0.928 . S
C1818 C1816 1.406 . S
C1818 N1819 1.261 . S
N1819 Co1770 2.214 . S
N1819 C1817 1.325 . S
N1819 C1818 1.261 . S
C1820 H1790 0.931 . S
C1820 C1817 1.357 . S
C1820 C1821 1.312 . S
C1821 H1792 0.930 . S
C1821 C1816 1.261 . S
C1821 C1820 1.312 . S
C1822 O1794 1.214 . S
C1822 O1802 1.234 . S
C1823 H1795 0.929 . S
C1823 C1826 1.391 . S
C1823 C1828 1.391 . S
C1824 H1796 0.929 . S
C1824 C1825 1.390 . S
C1824 N1827 1.391 . S
C1825 H1797 0.930 . S
C1825 C1824 1.390 . S
C1825 C1826 1.392 . S
C1826 H1798 0.929 . S
C1826 C1823 1.391 . S
C1826 C1825 1.392 . S
N1827 Co1771 2.257 . S
N1827 C1824 1.391 . S
N1827 C1828 1.388 . S
C1828 H1799 0.930 . S
C1828 C1823 1.391 . S
C1828 N1827 1.388 . S
Co1829 O1831 2.143 . S
Co1829 O1837 2.074 . S
Co1829 O1840 2.093 . S
Co1829 O1853 2.097 . S
Co1829 N1870 2.151 . S
Co1829 N1878 2.214 . S
Co1830 O1831 2.160 . S
Co1830 O1836 2.058 . S
Co1830 O1846 2.057 . S
Co1830 O1861 2.037 . S
Co1830 N1865 2.145 . S
Co1830 N1886 2.257 . S
O1831 Co1829 2.143 . S
O1831 Co1830 2.160 . S
C1832 O1833 1.278 . S
C1832 O1840 1.224 . S
O1833 C1832 1.278 . S
C1834 O1835 1.245 . S
C1834 O1846 1.232 . S
O1835 C1834 1.245 . S
O1836 Co1830 2.058 . S
O1836 C1862 1.269 . S
O1837 Co1829 2.074 . S
O1837 C1862 1.257 . S
H1838 C1863 0.930 . S
H1839 C1869 0.930 . S
O1840 Co1829 2.093 . S
O1840 C1832 1.224 . S
H1841 C1873 0.929 . S
H1842 C1875 0.930 . S
H1843 C1876 0.930 . S
H1844 C1874 0.929 . S
H1845 C1877 0.928 . S
O1846 Co1830 2.057 . S
O1846 C1834 1.232 . S
H1847 C1866 0.929 . S
H1848 C1867 0.929 . S
H1849 C1879 0.931 . S
H1850 C1871 0.929 . S
H1851 C1880 0.930 . S
H1852 C1872 0.931 . S
O1853 Co1829 2.097 . S
O1853 C1881 1.214 . S
H1854 C1882 0.929 . S
H1855 C1883 0.929 . S
H1856 C1884 0.930 . S
H1857 C1885 0.929 . S
H1858 C1887 0.930 . S
H1859 C1864 0.930 . S
H1860 C1868 0.930 . S
O1861 Co1830 2.037 . S
O1861 C1881 1.234 . S
C1862 O1836 1.269 . S
C1862 O1837 1.257 . S
C1863 H1838 0.930 . S
C1863 C1866 1.388 . S
C1863 C1868 1.418 . S
C1864 H1859 0.930 . S
C1864 C1867 1.404 . S
C1864 C1868 1.353 . S
N1865 Co1830 2.145 . S
N1865 C1866 1.397 . S
N1865 C1867 1.334 . S
C1866 H1847 0.929 . S
C1866 C1863 1.388 . S
C1866 N1865 1.397 . S
C1867 H1848 0.929 . S
C1867 C1864 1.404 . S
C1867 N1865 1.334 . S
C1868 H1860 0.930 . S
C1868 C1863 1.418 . S
C1868 C1864 1.353 . S
C1869 H1839 0.930 . S
C1869 N1870 1.330 . S
C1869 C1871 1.446 . S
N1870 Co1829 2.151 . S
N1870 C1869 1.330 . S
N1870 C1874 1.418 . S
C1871 H1850 0.929 . S
C1871 C1869 1.446 . S
C1871 C1872 1.332 . S
C1872 H1852 0.931 . S
C1872 C1871 1.332 . S
C1872 C1873 1.267 . S
C1873 H1841 0.929 . S
C1873 C1872 1.267 . S
C1873 C1874 1.251 . S
C1874 H1844 0.929 . S
C1874 N1870 1.418 . S
C1874 C1873 1.251 . S
C1875 H1842 0.930 . S
C1875 C1877 1.406 . S
C1875 C1880 1.261 . S
C1876 H1843 0.930 . S
C1876 N1878 1.325 . S
C1876 C1879 1.357 . S
C1877 H1845 0.928 . S
C1877 C1875 1.406 . S
C1877 N1878 1.261 . S
N1878 Co1829 2.214 . S
N1878 C1876 1.325 . S
N1878 C1877 1.261 . S
C1879 H1849 0.931 . S
C1879 C1876 1.357 . S
C1879 C1880 1.312 . S
C1880 H1851 0.930 . S
C1880 C1875 1.261 . S
C1880 C1879 1.312 . S
C1881 O1853 1.214 . S
C1881 O1861 1.234 . S
C1882 H1854 0.929 . S
C1882 C1885 1.391 . S
C1882 C1887 1.391 . S
C1883 H1855 0.929 . S
C1883 C1884 1.390 . S
C1883 N1886 1.391 . S
C1884 H1856 0.930 . S
C1884 C1883 1.390 . S
C1884 C1885 1.392 . S
C1885 H1857 0.929 . S
C1885 C1882 1.391 . S
C1885 C1884 1.392 . S
N1886 Co1830 2.257 . S
N1886 C1883 1.391 . S
N1886 C1887 1.388 . S
C1887 H1858 0.930 . S
C1887 C1882 1.391 . S
C1887 N1886 1.388 . S
C1888 C1889 1.349 . S
C1888 C1890 1.327 . S
C1888 H1913 0.950 . S
C1889 C1888 1.349 . S
C1889 C1905 1.349 . S
C1890 C1888 1.327 . S
C1890 C1909 1.429 . S
C1890 H1914 0.950 . S
C1891 C1908 1.574 . S
C1891 C1910 1.368 . S
C1891 H1915 0.949 . S
H1892 C1896 0.949 . S
C1893 C1894 1.349 . S
C1893 C1895 1.327 . S
C1893 H1916 0.950 . S
C1894 C1893 1.349 . S
C1894 C1906 1.349 . S
C1895 C1893 1.327 . S
C1895 C1911 1.429 . S
C1895 H1917 0.950 . S
C1896 H1892 0.949 . S
C1896 C1904 1.574 . S
C1896 C1912 1.368 . S
H1897 C1905 0.950 . S
H1898 C1903 0.950 . S
H1899 C1904 0.949 . S
H1900 C1906 0.950 . S
H1901 C1907 0.950 . S
H1902 C1908 0.949 . S
C1903 H1898 0.950 . S
C1903 C1905 1.327 . S
C1903 C1909 1.429 . S
C1904 C1896 1.574 . S
C1904 H1899 0.949 . S
C1904 C1910 1.368 . S
C1905 C1889 1.349 . S
C1905 H1897 0.950 . S
C1905 C1903 1.327 . S
C1906 C1894 1.349 . S
C1906 H1900 0.950 . S
C1906 C1907 1.327 . S
C1907 H1901 0.950 . S
C1907 C1906 1.327 . S
C1907 C1911 1.429 . S
C1908 C1891 1.574 . S
C1908 H1902 0.949 . S
C1908 C1912 1.368 . S
C1909 C1890 1.429 . S
C1909 C1903 1.429 . S
C1909 C1910 1.523 . S
C1910 C1891 1.368 . S
C1910 C1904 1.368 . S
C1910 C1909 1.523 . S
C1911 C1895 1.429 . S
C1911 C1907 1.429 . S
C1911 C1912 1.523 . S
C1912 C1896 1.368 . S
C1912 C1908 1.368 . S
C1912 C1911 1.523 . S
H1913 C1888 0.950 . S
H1914 C1890 0.950 . S
H1915 C1891 0.949 . S
H1916 C1893 0.950 . S
H1917 C1895 0.950 . S
C1918 C1919 1.349 . S
C1918 C1920 1.327 . S
C1918 H1943 0.950 . S
C1919 C1918 1.349 . S
C1919 C1935 1.349 . S
C1920 C1918 1.327 . S
C1920 C1939 1.429 . S
C1920 H1944 0.950 . S
C1921 C1938 1.574 . S
C1921 C1940 1.368 . S
C1921 H1945 0.949 . S
H1922 C1926 0.949 . S
C1923 C1924 1.349 . S
C1923 C1925 1.327 . S
C1923 H1946 0.950 . S
C1924 C1923 1.349 . S
C1924 C1936 1.349 . S
C1925 C1923 1.327 . S
C1925 C1941 1.429 . S
C1925 H1947 0.950 . S
C1926 H1922 0.949 . S
C1926 C1934 1.574 . S
C1926 C1942 1.368 . S
H1927 C1935 0.950 . S
H1928 C1933 0.950 . S
H1929 C1934 0.949 . S
H1930 C1936 0.950 . S
H1931 C1937 0.950 . S
H1932 C1938 0.949 . S
C1933 H1928 0.950 . S
C1933 C1935 1.327 . S
C1933 C1939 1.429 . S
C1934 C1926 1.574 . S
C1934 H1929 0.949 . S
C1934 C1940 1.368 . S
C1935 C1919 1.349 . S
C1935 H1927 0.950 . S
C1935 C1933 1.327 . S
C1936 C1924 1.349 . S
C1936 H1930 0.950 . S
C1936 C1937 1.327 . S
C1937 H1931 0.950 . S
C1937 C1936 1.327 . S
C1937 C1941 1.429 . S
C1938 C1921 1.574 . S
C1938 H1932 0.949 . S
C1938 C1942 1.368 . S
C1939 C1920 1.429 . S
C1939 C1933 1.429 . S
C1939 C1940 1.523 . S
C1940 C1921 1.368 . S
C1940 C1934 1.368 . S
C1940 C1939 1.523 . S
C1941 C1925 1.429 . S
C1941 C1937 1.429 . S
C1941 C1942 1.523 . S
C1942 C1926 1.368 . S
C1942 C1938 1.368 . S
C1942 C1941 1.523 . S
H1943 C1918 0.950 . S
H1944 C1920 0.950 . S
H1945 C1921 0.949 . S
H1946 C1923 0.950 . S
H1947 C1925 0.950 . S
C1948 C1949 1.349 . S
C1948 C1950 1.327 . S
C1948 H1973 0.950 . S
C1949 C1948 1.349 . S
C1949 C1965 1.349 . S
C1950 C1948 1.327 . S
C1950 C1969 1.429 . S
C1950 H1974 0.950 . S
C1951 C1968 1.574 . S
C1951 C1970 1.368 . S
C1951 H1975 0.949 . S
H1952 C1956 0.949 . S
C1953 C1954 1.349 . S
C1953 C1955 1.327 . S
C1953 H1976 0.950 . S
C1954 C1953 1.349 . S
C1954 C1966 1.349 . S
C1955 C1953 1.327 . S
C1955 C1971 1.429 . S
C1955 H1977 0.950 . S
C1956 H1952 0.949 . S
C1956 C1964 1.574 . S
C1956 C1972 1.368 . S
H1957 C1965 0.950 . S
H1958 C1963 0.950 . S
H1959 C1964 0.949 . S
H1960 C1966 0.950 . S
H1961 C1967 0.950 . S
H1962 C1968 0.949 . S
C1963 H1958 0.950 . S
C1963 C1965 1.327 . S
C1963 C1969 1.429 . S
C1964 C1956 1.574 . S
C1964 H1959 0.949 . S
C1964 C1970 1.368 . S
C1965 C1949 1.349 . S
C1965 H1957 0.950 . S
C1965 C1963 1.327 . S
C1966 C1954 1.349 . S
C1966 H1960 0.950 . S
C1966 C1967 1.327 . S
C1967 H1961 0.950 . S
C1967 C1966 1.327 . S
C1967 C1971 1.429 . S
C1968 C1951 1.574 . S
C1968 H1962 0.949 . S
C1968 C1972 1.368 . S
C1969 C1950 1.429 . S
C1969 C1963 1.429 . S
C1969 C1970 1.523 . S
C1970 C1951 1.368 . S
C1970 C1964 1.368 . S
C1970 C1969 1.523 . S
C1971 C1955 1.429 . S
C1971 C1967 1.429 . S
C1971 C1972 1.523 . S
C1972 C1956 1.368 . S
C1972 C1968 1.368 . S
C1972 C1971 1.523 . S
H1973 C1948 0.950 . S
H1974 C1950 0.950 . S
H1975 C1951 0.949 . S
H1976 C1953 0.950 . S
H1977 C1955 0.950 . S
C1978 C1979 1.349 . S
C1978 C1980 1.327 . S
C1978 H2003 0.950 . S
C1979 C1978 1.349 . S
C1979 C1995 1.349 . S
C1980 C1978 1.327 . S
C1980 C1999 1.429 . S
C1980 H2004 0.950 . S
C1981 C1998 1.574 . S
C1981 C2000 1.368 . S
C1981 H2005 0.949 . S
H1982 C1986 0.949 . S
C1983 C1984 1.349 . S
C1983 C1985 1.327 . S
C1983 H2006 0.950 . S
C1984 C1983 1.349 . S
C1984 C1996 1.349 . S
C1985 C1983 1.327 . S
C1985 C2001 1.429 . S
C1985 H2007 0.950 . S
C1986 H1982 0.949 . S
C1986 C1994 1.574 . S
C1986 C2002 1.368 . S
H1987 C1995 0.950 . S
H1988 C1993 0.950 . S
H1989 C1994 0.949 . S
H1990 C1996 0.950 . S
H1991 C1997 0.950 . S
H1992 C1998 0.949 . S
C1993 H1988 0.950 . S
C1993 C1995 1.327 . S
C1993 C1999 1.429 . S
C1994 C1986 1.574 . S
C1994 H1989 0.949 . S
C1994 C2000 1.368 . S
C1995 C1979 1.349 . S
C1995 H1987 0.950 . S
C1995 C1993 1.327 . S
C1996 C1984 1.349 . S
C1996 H1990 0.950 . S
C1996 C1997 1.327 . S
C1997 H1991 0.950 . S
C1997 C1996 1.327 . S
C1997 C2001 1.429 . S
C1998 C1981 1.574 . S
C1998 H1992 0.949 . S
C1998 C2002 1.368 . S
C1999 C1980 1.429 . S
C1999 C1993 1.429 . S
C1999 C2000 1.523 . S
C2000 C1981 1.368 . S
C2000 C1994 1.368 . S
C2000 C1999 1.523 . S
C2001 C1985 1.429 . S
C2001 C1997 1.429 . S
C2001 C2002 1.523 . S
C2002 C1986 1.368 . S
C2002 C1998 1.368 . S
C2002 C2001 1.523 . S
H2003 C1978 0.950 . S
H2004 C1980 0.950 . S
H2005 C1981 0.949 . S
H2006 C1983 0.950 . S
H2007 C1985 0.950 . S
C2008 C2009 1.349 . S
C2008 C2010 1.327 . S
C2008 H2033 0.950 . S
C2009 C2008 1.349 . S
C2009 C2025 1.349 . S
C2010 C2008 1.327 . S
C2010 C2029 1.429 . S
C2010 H2034 0.950 . S
C2011 C2028 1.574 . S
C2011 C2030 1.368 . S
C2011 H2035 0.949 . S
H2012 C2016 0.949 . S
C2013 C2014 1.349 . S
C2013 C2015 1.327 . S
C2013 H2036 0.950 . S
C2014 C2013 1.349 . S
C2014 C2026 1.349 . S
C2015 C2013 1.327 . S
C2015 C2031 1.429 . S
C2015 H2037 0.950 . S
C2016 H2012 0.949 . S
C2016 C2024 1.574 . S
C2016 C2032 1.368 . S
H2017 C2025 0.950 . S
H2018 C2023 0.950 . S
H2019 C2024 0.949 . S
H2020 C2026 0.950 . S
H2021 C2027 0.950 . S
H2022 C2028 0.949 . S
C2023 H2018 0.950 . S
C2023 C2025 1.327 . S
C2023 C2029 1.429 . S
C2024 C2016 1.574 . S
C2024 H2019 0.949 . S
C2024 C2030 1.368 . S
C2025 C2009 1.349 . S
C2025 H2017 0.950 . S
C2025 C2023 1.327 . S
C2026 C2014 1.349 . S
C2026 H2020 0.950 . S
C2026 C2027 1.327 . S
C2027 H2021 0.950 . S
C2027 C2026 1.327 . S
C2027 C2031 1.429 . S
C2028 C2011 1.574 . S
C2028 H2022 0.949 . S
C2028 C2032 1.368 . S
C2029 C2010 1.429 . S
C2029 C2023 1.429 . S
C2029 C2030 1.523 . S
C2030 C2011 1.368 . S
C2030 C2024 1.368 . S
C2030 C2029 1.523 . S
C2031 C2015 1.429 . S
C2031 C2027 1.429 . S
C2031 C2032 1.523 . S
C2032 C2016 1.368 . S
C2032 C2028 1.368 . S
C2032 C2031 1.523 . S
H2033 C2008 0.950 . S
H2034 C2010 0.950 . S
H2035 C2011 0.949 . S
H2036 C2013 0.950 . S
H2037 C2015 0.950 . S
C2038 C2039 1.349 . S
C2038 C2040 1.327 . S
C2038 H2063 0.950 . S
C2039 C2038 1.349 . S
C2039 C2055 1.349 . S
C2040 C2038 1.327 . S
C2040 C2059 1.429 . S
C2040 H2064 0.950 . S
C2041 C2058 1.574 . S
C2041 C2060 1.368 . S
C2041 H2065 0.949 . S
H2042 C2046 0.949 . S
C2043 C2044 1.349 . S
C2043 C2045 1.327 . S
C2043 H2066 0.950 . S
C2044 C2043 1.349 . S
C2044 C2056 1.349 . S
C2045 C2043 1.327 . S
C2045 C2061 1.429 . S
C2045 H2067 0.950 . S
C2046 H2042 0.949 . S
C2046 C2054 1.574 . S
C2046 C2062 1.368 . S
H2047 C2055 0.950 . S
H2048 C2053 0.950 . S
H2049 C2054 0.949 . S
H2050 C2056 0.950 . S
H2051 C2057 0.950 . S
H2052 C2058 0.949 . S
C2053 H2048 0.950 . S
C2053 C2055 1.327 . S
C2053 C2059 1.429 . S
C2054 C2046 1.574 . S
C2054 H2049 0.949 . S
C2054 C2060 1.368 . S
C2055 C2039 1.349 . S
C2055 H2047 0.950 . S
C2055 C2053 1.327 . S
C2056 C2044 1.349 . S
C2056 H2050 0.950 . S
C2056 C2057 1.327 . S
C2057 H2051 0.950 . S
C2057 C2056 1.327 . S
C2057 C2061 1.429 . S
C2058 C2041 1.574 . S
C2058 H2052 0.949 . S
C2058 C2062 1.368 . S
C2059 C2040 1.429 . S
C2059 C2053 1.429 . S
C2059 C2060 1.523 . S
C2060 C2041 1.368 . S
C2060 C2054 1.368 . S
C2060 C2059 1.523 . S
C2061 C2045 1.429 . S
C2061 C2057 1.429 . S
C2061 C2062 1.523 . S
C2062 C2046 1.368 . S
C2062 C2058 1.368 . S
C2062 C2061 1.523 . S
H2063 C2038 0.950 . S
H2064 C2040 0.950 . S
H2065 C2041 0.949 . S
H2066 C2043 0.950 . S
H2067 C2045 0.950 . S
C2068 C2069 1.349 . S
C2068 C2070 1.327 . S
C2068 H2093 0.950 . S
C2069 C2068 1.349 . S
C2069 C2085 1.349 . S
C2070 C2068 1.327 . S
C2070 C2089 1.429 . S
C2070 H2094 0.950 . S
C2071 C2088 1.574 . S
C2071 C2090 1.368 . S
C2071 H2095 0.949 . S
H2072 C2076 0.949 . S
C2073 C2074 1.349 . S
C2073 C2075 1.327 . S
C2073 H2096 0.950 . S
C2074 C2073 1.349 . S
C2074 C2086 1.349 . S
C2075 C2073 1.327 . S
C2075 C2091 1.429 . S
C2075 H2097 0.950 . S
C2076 H2072 0.949 . S
C2076 C2084 1.574 . S
C2076 C2092 1.368 . S
H2077 C2085 0.950 . S
H2078 C2083 0.950 . S
H2079 C2084 0.949 . S
H2080 C2086 0.950 . S
H2081 C2087 0.950 . S
H2082 C2088 0.949 . S
C2083 H2078 0.950 . S
C2083 C2085 1.327 . S
C2083 C2089 1.429 . S
C2084 C2076 1.574 . S
C2084 H2079 0.949 . S
C2084 C2090 1.368 . S
C2085 C2069 1.349 . S
C2085 H2077 0.950 . S
C2085 C2083 1.327 . S
C2086 C2074 1.349 . S
C2086 H2080 0.950 . S
C2086 C2087 1.327 . S
C2087 H2081 0.950 . S
C2087 C2086 1.327 . S
C2087 C2091 1.429 . S
C2088 C2071 1.574 . S
C2088 H2082 0.949 . S
C2088 C2092 1.368 . S
C2089 C2070 1.429 . S
C2089 C2083 1.429 . S
C2089 C2090 1.523 . S
C2090 C2071 1.368 . S
C2090 C2084 1.368 . S
C2090 C2089 1.523 . S
C2091 C2075 1.429 . S
C2091 C2087 1.429 . S
C2091 C2092 1.523 . S
C2092 C2076 1.368 . S
C2092 C2088 1.368 . S
C2092 C2091 1.523 . S
H2093 C2068 0.950 . S
H2094 C2070 0.950 . S
H2095 C2071 0.949 . S
H2096 C2073 0.950 . S
H2097 C2075 0.950 . S
C2098 C2099 1.349 . S
C2098 C2100 1.327 . S
C2098 H2123 0.950 . S
C2099 C2098 1.349 . S
C2099 C2115 1.349 . S
C2100 C2098 1.327 . S
C2100 C2119 1.429 . S
C2100 H2124 0.950 . S
C2101 C2118 1.574 . S
C2101 C2120 1.368 . S
C2101 H2125 0.949 . S
H2102 C2106 0.949 . S
C2103 C2104 1.349 . S
C2103 C2105 1.327 . S
C2103 H2126 0.950 . S
C2104 C2103 1.349 . S
C2104 C2116 1.349 . S
C2105 C2103 1.327 . S
C2105 C2121 1.429 . S
C2105 H2127 0.950 . S
C2106 H2102 0.949 . S
C2106 C2114 1.574 . S
C2106 C2122 1.368 . S
H2107 C2115 0.950 . S
H2108 C2113 0.950 . S
H2109 C2114 0.949 . S
H2110 C2116 0.950 . S
H2111 C2117 0.950 . S
H2112 C2118 0.949 . S
C2113 H2108 0.950 . S
C2113 C2115 1.327 . S
C2113 C2119 1.429 . S
C2114 C2106 1.574 . S
C2114 H2109 0.949 . S
C2114 C2120 1.368 . S
C2115 C2099 1.349 . S
C2115 H2107 0.950 . S
C2115 C2113 1.327 . S
C2116 C2104 1.349 . S
C2116 H2110 0.950 . S
C2116 C2117 1.327 . S
C2117 H2111 0.950 . S
C2117 C2116 1.327 . S
C2117 C2121 1.429 . S
C2118 C2101 1.574 . S
C2118 H2112 0.949 . S
C2118 C2122 1.368 . S
C2119 C2100 1.429 . S
C2119 C2113 1.429 . S
C2119 C2120 1.523 . S
C2120 C2101 1.368 . S
C2120 C2114 1.368 . S
C2120 C2119 1.523 . S
C2121 C2105 1.429 . S
C2121 C2117 1.429 . S
C2121 C2122 1.523 . S
C2122 C2106 1.368 . S
C2122 C2118 1.368 . S
C2122 C2121 1.523 . S
H2123 C2098 0.950 . S
H2124 C2100 0.950 . S
H2125 C2101 0.949 . S
H2126 C2103 0.950 . S
H2127 C2105 0.950 . S
C2128 C2129 1.349 . S
C2128 C2130 1.327 . S
C2128 H2153 0.950 . S
C2129 C2128 1.349 . S
C2129 C2145 1.349 . S
C2130 C2128 1.327 . S
C2130 C2149 1.429 . S
C2130 H2154 0.950 . S
C2131 C2148 1.574 . S
C2131 C2150 1.368 . S
C2131 H2155 0.949 . S
H2132 C2136 0.949 . S
C2133 C2134 1.349 . S
C2133 C2135 1.327 . S
C2133 H2156 0.950 . S
C2134 C2133 1.349 . S
C2134 C2146 1.349 . S
C2135 C2133 1.327 . S
C2135 C2151 1.429 . S
C2135 H2157 0.950 . S
C2136 H2132 0.949 . S
C2136 C2144 1.574 . S
C2136 C2152 1.368 . S
H2137 C2145 0.950 . S
H2138 C2143 0.950 . S
H2139 C2144 0.949 . S
H2140 C2146 0.950 . S
H2141 C2147 0.950 . S
H2142 C2148 0.949 . S
C2143 H2138 0.950 . S
C2143 C2145 1.327 . S
C2143 C2149 1.429 . S
C2144 C2136 1.574 . S
C2144 H2139 0.949 . S
C2144 C2150 1.368 . S
C2145 C2129 1.349 . S
C2145 H2137 0.950 . S
C2145 C2143 1.327 . S
C2146 C2134 1.349 . S
C2146 H2140 0.950 . S
C2146 C2147 1.327 . S
C2147 H2141 0.950 . S
C2147 C2146 1.327 . S
C2147 C2151 1.429 . S
C2148 C2131 1.574 . S
C2148 H2142 0.949 . S
C2148 C2152 1.368 . S
C2149 C2130 1.429 . S
C2149 C2143 1.429 . S
C2149 C2150 1.523 . S
C2150 C2131 1.368 . S
C2150 C2144 1.368 . S
C2150 C2149 1.523 . S
C2151 C2135 1.429 . S
C2151 C2147 1.429 . S
C2151 C2152 1.523 . S
C2152 C2136 1.368 . S
C2152 C2148 1.368 . S
C2152 C2151 1.523 . S
H2153 C2128 0.950 . S
H2154 C2130 0.950 . S
H2155 C2131 0.949 . S
H2156 C2133 0.950 . S
H2157 C2135 0.950 . S
C2158 C2159 1.349 . S
C2158 C2160 1.327 . S
C2158 H2183 0.950 . S
C2159 C2158 1.349 . S
C2159 C2175 1.349 . S
C2160 C2158 1.327 . S
C2160 C2179 1.429 . S
C2160 H2184 0.950 . S
C2161 C2178 1.574 . S
C2161 C2180 1.368 . S
C2161 H2185 0.949 . S
H2162 C2166 0.949 . S
C2163 C2164 1.349 . S
C2163 C2165 1.327 . S
C2163 H2186 0.950 . S
C2164 C2163 1.349 . S
C2164 C2176 1.349 . S
C2165 C2163 1.327 . S
C2165 C2181 1.429 . S
C2165 H2187 0.950 . S
C2166 H2162 0.949 . S
C2166 C2174 1.574 . S
C2166 C2182 1.368 . S
H2167 C2175 0.950 . S
H2168 C2173 0.950 . S
H2169 C2174 0.949 . S
H2170 C2176 0.950 . S
H2171 C2177 0.950 . S
H2172 C2178 0.949 . S
C2173 H2168 0.950 . S
C2173 C2175 1.327 . S
C2173 C2179 1.429 . S
C2174 C2166 1.574 . S
C2174 H2169 0.949 . S
C2174 C2180 1.368 . S
C2175 C2159 1.349 . S
C2175 H2167 0.950 . S
C2175 C2173 1.327 . S
C2176 C2164 1.349 . S
C2176 H2170 0.950 . S
C2176 C2177 1.327 . S
C2177 H2171 0.950 . S
C2177 C2176 1.327 . S
C2177 C2181 1.429 . S
C2178 C2161 1.574 . S
C2178 H2172 0.949 . S
C2178 C2182 1.368 . S
C2179 C2160 1.429 . S
C2179 C2173 1.429 . S
C2179 C2180 1.523 . S
C2180 C2161 1.368 . S
C2180 C2174 1.368 . S
C2180 C2179 1.523 . S
C2181 C2165 1.429 . S
C2181 C2177 1.429 . S
C2181 C2182 1.523 . S
C2182 C2166 1.368 . S
C2182 C2178 1.368 . S
C2182 C2181 1.523 . S
H2183 C2158 0.950 . S
H2184 C2160 0.950 . S
H2185 C2161 0.949 . S
H2186 C2163 0.950 . S
H2187 C2165 0.950 . S
C2188 C2189 1.349 . S
C2188 C2190 1.327 . S
C2188 H2213 0.950 . S
C2189 C2188 1.349 . S
C2189 C2205 1.349 . S
C2190 C2188 1.327 . S
C2190 C2209 1.429 . S
C2190 H2214 0.950 . S
C2191 C2208 1.574 . S
C2191 C2210 1.368 . S
C2191 H2215 0.949 . S
H2192 C2196 0.949 . S
C2193 C2194 1.349 . S
C2193 C2195 1.327 . S
C2193 H2216 0.950 . S
C2194 C2193 1.349 . S
C2194 C2206 1.349 . S
C2195 C2193 1.327 . S
C2195 C2211 1.429 . S
C2195 H2217 0.950 . S
C2196 H2192 0.949 . S
C2196 C2204 1.574 . S
C2196 C2212 1.368 . S
H2197 C2205 0.950 . S
H2198 C2203 0.950 . S
H2199 C2204 0.949 . S
H2200 C2206 0.950 . S
H2201 C2207 0.950 . S
H2202 C2208 0.949 . S
C2203 H2198 0.950 . S
C2203 C2205 1.327 . S
C2203 C2209 1.429 . S
C2204 C2196 1.574 . S
C2204 H2199 0.949 . S
C2204 C2210 1.368 . S
C2205 C2189 1.349 . S
C2205 H2197 0.950 . S
C2205 C2203 1.327 . S
C2206 C2194 1.349 . S
C2206 H2200 0.950 . S
C2206 C2207 1.327 . S
C2207 H2201 0.950 . S
C2207 C2206 1.327 . S
C2207 C2211 1.429 . S
C2208 C2191 1.574 . S
C2208 H2202 0.949 . S
C2208 C2212 1.368 . S
C2209 C2190 1.429 . S
C2209 C2203 1.429 . S
C2209 C2210 1.523 . S
C2210 C2191 1.368 . S
C2210 C2204 1.368 . S
C2210 C2209 1.523 . S
C2211 C2195 1.429 . S
C2211 C2207 1.429 . S
C2211 C2212 1.523 . S
C2212 C2196 1.368 . S
C2212 C2208 1.368 . S
C2212 C2211 1.523 . S
H2213 C2188 0.950 . S
H2214 C2190 0.950 . S
H2215 C2191 0.949 . S
H2216 C2193 0.950 . S
H2217 C2195 0.950 . S
C2218 C2219 1.349 . S
C2218 C2220 1.327 . S
C2218 H2243 0.950 . S
C2219 C2218 1.349 . S
C2219 C2235 1.349 . S
C2220 C2218 1.327 . S
C2220 C2239 1.429 . S
C2220 H2244 0.950 . S
C2221 C2238 1.574 . S
C2221 C2240 1.368 . S
C2221 H2245 0.949 . S
H2222 C2226 0.949 . S
C2223 C2224 1.349 . S
C2223 C2225 1.327 . S
C2223 H2246 0.950 . S
C2224 C2223 1.349 . S
C2224 C2236 1.349 . S
C2225 C2223 1.327 . S
C2225 C2241 1.429 . S
C2225 H2247 0.950 . S
C2226 H2222 0.949 . S
C2226 C2234 1.574 . S
C2226 C2242 1.368 . S
H2227 C2235 0.950 . S
H2228 C2233 0.950 . S
H2229 C2234 0.949 . S
H2230 C2236 0.950 . S
H2231 C2237 0.950 . S
H2232 C2238 0.949 . S
C2233 H2228 0.950 . S
C2233 C2235 1.327 . S
C2233 C2239 1.429 . S
C2234 C2226 1.574 . S
C2234 H2229 0.949 . S
C2234 C2240 1.368 . S
C2235 C2219 1.349 . S
C2235 H2227 0.950 . S
C2235 C2233 1.327 . S
C2236 C2224 1.349 . S
C2236 H2230 0.950 . S
C2236 C2237 1.327 . S
C2237 H2231 0.950 . S
C2237 C2236 1.327 . S
C2237 C2241 1.429 . S
C2238 C2221 1.574 . S
C2238 H2232 0.949 . S
C2238 C2242 1.368 . S
C2239 C2220 1.429 . S
C2239 C2233 1.429 . S
C2239 C2240 1.523 . S
C2240 C2221 1.368 . S
C2240 C2234 1.368 . S
C2240 C2239 1.523 . S
C2241 C2225 1.429 . S
C2241 C2237 1.429 . S
C2241 C2242 1.523 . S
C2242 C2226 1.368 . S
C2242 C2238 1.368 . S
C2242 C2241 1.523 . S
H2243 C2218 0.950 . S
H2244 C2220 0.950 . S
H2245 C2221 0.949 . S
H2246 C2223 0.950 . S
H2247 C2225 0.950 . S
C2248 C2249 1.349 . S
C2248 C2250 1.327 . S
C2248 H2273 0.950 . S
C2249 C2248 1.349 . S
C2249 C2265 1.349 . S
C2250 C2248 1.327 . S
C2250 C2269 1.429 . S
C2250 H2274 0.950 . S
C2251 C2268 1.574 . S
C2251 C2270 1.368 . S
C2251 H2275 0.949 . S
H2252 C2256 0.949 . S
C2253 C2254 1.349 . S
C2253 C2255 1.327 . S
C2253 H2276 0.950 . S
C2254 C2253 1.349 . S
C2254 C2266 1.349 . S
C2255 C2253 1.327 . S
C2255 C2271 1.429 . S
C2255 H2277 0.950 . S
C2256 H2252 0.949 . S
C2256 C2264 1.574 . S
C2256 C2272 1.368 . S
H2257 C2265 0.950 . S
H2258 C2263 0.950 . S
H2259 C2264 0.949 . S
H2260 C2266 0.950 . S
H2261 C2267 0.950 . S
H2262 C2268 0.949 . S
C2263 H2258 0.950 . S
C2263 C2265 1.327 . S
C2263 C2269 1.429 . S
C2264 C2256 1.574 . S
C2264 H2259 0.949 . S
C2264 C2270 1.368 . S
C2265 C2249 1.349 . S
C2265 H2257 0.950 . S
C2265 C2263 1.327 . S
C2266 C2254 1.349 . S
C2266 H2260 0.950 . S
C2266 C2267 1.327 . S
C2267 H2261 0.950 . S
C2267 C2266 1.327 . S
C2267 C2271 1.429 . S
C2268 C2251 1.574 . S
C2268 H2262 0.949 . S
C2268 C2272 1.368 . S
C2269 C2250 1.429 . S
C2269 C2263 1.429 . S
C2269 C2270 1.523 . S
C2270 C2251 1.368 . S
C2270 C2264 1.368 . S
C2270 C2269 1.523 . S
C2271 C2255 1.429 . S
C2271 C2267 1.429 . S
C2271 C2272 1.523 . S
C2272 C2256 1.368 . S
C2272 C2268 1.368 . S
C2272 C2271 1.523 . S
H2273 C2248 0.950 . S
H2274 C2250 0.950 . S
H2275 C2251 0.949 . S
H2276 C2253 0.950 . S
H2277 C2255 0.950 . S
C2278 C2279 1.349 . S
C2278 C2280 1.327 . S
C2278 H2303 0.950 . S
C2279 C2278 1.349 . S
C2279 C2295 1.349 . S
C2280 C2278 1.327 . S
C2280 C2299 1.429 . S
C2280 H2304 0.950 . S
C2281 C2298 1.574 . S
C2281 C2300 1.368 . S
C2281 H2305 0.949 . S
H2282 C2286 0.949 . S
C2283 C2284 1.349 . S
C2283 C2285 1.327 . S
C2283 H2306 0.950 . S
C2284 C2283 1.349 . S
C2284 C2296 1.349 . S
C2285 C2283 1.327 . S
C2285 C2301 1.429 . S
C2285 H2307 0.950 . S
C2286 H2282 0.949 . S
C2286 C2294 1.574 . S
C2286 C2302 1.368 . S
H2287 C2295 0.950 . S
H2288 C2293 0.950 . S
H2289 C2294 0.949 . S
H2290 C2296 0.950 . S
H2291 C2297 0.950 . S
H2292 C2298 0.949 . S
C2293 H2288 0.950 . S
C2293 C2295 1.327 . S
C2293 C2299 1.429 . S
C2294 C2286 1.574 . S
C2294 H2289 0.949 . S
C2294 C2300 1.368 . S
C2295 C2279 1.349 . S
C2295 H2287 0.950 . S
C2295 C2293 1.327 . S
C2296 C2284 1.349 . S
C2296 H2290 0.950 . S
C2296 C2297 1.327 . S
C2297 H2291 0.950 . S
C2297 C2296 1.327 . S
C2297 C2301 1.429 . S
C2298 C2281 1.574 . S
C2298 H2292 0.949 . S
C2298 C2302 1.368 . S
C2299 C2280 1.429 . S
C2299 C2293 1.429 . S
C2299 C2300 1.523 . S
C2300 C2281 1.368 . S
C2300 C2294 1.368 . S
C2300 C2299 1.523 . S
C2301 C2285 1.429 . S
C2301 C2297 1.429 . S
C2301 C2302 1.523 . S
C2302 C2286 1.368 . S
C2302 C2298 1.368 . S
C2302 C2301 1.523 . S
H2303 C2278 0.950 . S
H2304 C2280 0.950 . S
H2305 C2281 0.949 . S
H2306 C2283 0.950 . S
H2307 C2285 0.950 . S
C2308 C2309 1.349 . S
C2308 C2310 1.327 . S
C2308 H2333 0.950 . S
C2309 C2308 1.349 . S
C2309 C2325 1.349 . S
C2310 C2308 1.327 . S
C2310 C2329 1.429 . S
C2310 H2334 0.950 . S
C2311 C2328 1.574 . S
C2311 C2330 1.368 . S
C2311 H2335 0.949 . S
H2312 C2316 0.949 . S
C2313 C2314 1.349 . S
C2313 C2315 1.327 . S
C2313 H2336 0.950 . S
C2314 C2313 1.349 . S
C2314 C2326 1.349 . S
C2315 C2313 1.327 . S
C2315 C2331 1.429 . S
C2315 H2337 0.950 . S
C2316 H2312 0.949 . S
C2316 C2324 1.574 . S
C2316 C2332 1.368 . S
H2317 C2325 0.950 . S
H2318 C2323 0.950 . S
H2319 C2324 0.949 . S
H2320 C2326 0.950 . S
H2321 C2327 0.950 . S
H2322 C2328 0.949 . S
C2323 H2318 0.950 . S
C2323 C2325 1.327 . S
C2323 C2329 1.429 . S
C2324 C2316 1.574 . S
C2324 H2319 0.949 . S
C2324 C2330 1.368 . S
C2325 C2309 1.349 . S
C2325 H2317 0.950 . S
C2325 C2323 1.327 . S
C2326 C2314 1.349 . S
C2326 H2320 0.950 . S
C2326 C2327 1.327 . S
C2327 H2321 0.950 . S
C2327 C2326 1.327 . S
C2327 C2331 1.429 . S
C2328 C2311 1.574 . S
C2328 H2322 0.949 . S
C2328 C2332 1.368 . S
C2329 C2310 1.429 . S
C2329 C2323 1.429 . S
C2329 C2330 1.523 . S
C2330 C2311 1.368 . S
C2330 C2324 1.368 . S
C2330 C2329 1.523 . S
C2331 C2315 1.429 . S
C2331 C2327 1.429 . S
C2331 C2332 1.523 . S
C2332 C2316 1.368 . S
C2332 C2328 1.368 . S
C2332 C2331 1.523 . S
H2333 C2308 0.950 . S
H2334 C2310 0.950 . S
H2335 C2311 0.949 . S
H2336 C2313 0.950 . S
H2337 C2315 0.950 . S
C2338 C2339 1.349 . S
C2338 C2340 1.327 . S
C2338 H2363 0.950 . S
C2339 C2338 1.349 . S
C2339 C2355 1.349 . S
C2340 C2338 1.327 . S
C2340 C2359 1.429 . S
C2340 H2364 0.950 . S
C2341 C2358 1.574 . S
C2341 C2360 1.368 . S
C2341 H2365 0.949 . S
H2342 C2346 0.949 . S
C2343 C2344 1.349 . S
C2343 C2345 1.327 . S
C2343 H2366 0.950 . S
C2344 C2343 1.349 . S
C2344 C2356 1.349 . S
C2345 C2343 1.327 . S
C2345 C2361 1.429 . S
C2345 H2367 0.950 . S
C2346 H2342 0.949 . S
C2346 C2354 1.574 . S
C2346 C2362 1.368 . S
H2347 C2355 0.950 . S
H2348 C2353 0.950 . S
H2349 C2354 0.949 . S
H2350 C2356 0.950 . S
H2351 C2357 0.950 . S
H2352 C2358 0.949 . S
C2353 H2348 0.950 . S
C2353 C2355 1.327 . S
C2353 C2359 1.429 . S
C2354 C2346 1.574 . S
C2354 H2349 0.949 . S
C2354 C2360 1.368 . S
C2355 C2339 1.349 . S
C2355 H2347 0.950 . S
C2355 C2353 1.327 . S
C2356 C2344 1.349 . S
C2356 H2350 0.950 . S
C2356 C2357 1.327 . S
C2357 H2351 0.950 . S
C2357 C2356 1.327 . S
C2357 C2361 1.429 . S
C2358 C2341 1.574 . S
C2358 H2352 0.949 . S
C2358 C2362 1.368 . S
C2359 C2340 1.429 . S
C2359 C2353 1.429 . S
C2359 C2360 1.523 . S
C2360 C2341 1.368 . S
C2360 C2354 1.368 . S
C2360 C2359 1.523 . S
C2361 C2345 1.429 . S
C2361 C2357 1.429 . S
C2361 C2362 1.523 . S
C2362 C2346 1.368 . S
C2362 C2358 1.368 . S
C2362 C2361 1.523 . S
H2363 C2338 0.950 . S
H2364 C2340 0.950 . S
H2365 C2341 0.949 . S
H2366 C2343 0.950 . S
H2367 C2345 0.950 . S
C2368 C2369 1.349 . S
C2368 C2370 1.327 . S
C2368 H2393 0.950 . S
C2369 C2368 1.349 . S
C2369 C2385 1.349 . S
C2370 C2368 1.327 . S
C2370 C2389 1.429 . S
C2370 H2394 0.950 . S
C2371 C2388 1.574 . S
C2371 C2390 1.368 . S
C2371 H2395 0.949 . S
H2372 C2376 0.949 . S
C2373 C2374 1.349 . S
C2373 C2375 1.327 . S
C2373 H2396 0.950 . S
C2374 C2373 1.349 . S
C2374 C2386 1.349 . S
C2375 C2373 1.327 . S
C2375 C2391 1.429 . S
C2375 H2397 0.950 . S
C2376 H2372 0.949 . S
C2376 C2384 1.574 . S
C2376 C2392 1.368 . S
H2377 C2385 0.950 . S
H2378 C2383 0.950 . S
H2379 C2384 0.949 . S
H2380 C2386 0.950 . S
H2381 C2387 0.950 . S
H2382 C2388 0.949 . S
C2383 H2378 0.950 . S
C2383 C2385 1.327 . S
C2383 C2389 1.429 . S
C2384 C2376 1.574 . S
C2384 H2379 0.949 . S
C2384 C2390 1.368 . S
C2385 C2369 1.349 . S
C2385 H2377 0.950 . S
C2385 C2383 1.327 . S
C2386 C2374 1.349 . S
C2386 H2380 0.950 . S
C2386 C2387 1.327 . S
C2387 H2381 0.950 . S
C2387 C2386 1.327 . S
C2387 C2391 1.429 . S
C2388 C2371 1.574 . S
C2388 H2382 0.949 . S
C2388 C2392 1.368 . S
C2389 C2370 1.429 . S
C2389 C2383 1.429 . S
C2389 C2390 1.523 . S
C2390 C2371 1.368 . S
C2390 C2384 1.368 . S
C2390 C2389 1.523 . S
C2391 C2375 1.429 . S
C2391 C2387 1.429 . S
C2391 C2392 1.523 . S
C2392 C2376 1.368 . S
C2392 C2388 1.368 . S
C2392 C2391 1.523 . S
H2393 C2368 0.950 . S
H2394 C2370 0.950 . S
H2395 C2371 0.949 . S
H2396 C2373 0.950 . S
H2397 C2375 0.950 . S
C2398 C2399 1.349 . S
C2398 C2400 1.327 . S
C2398 H2423 0.950 . S
C2399 C2398 1.349 . S
C2399 C2415 1.349 . S
C2400 C2398 1.327 . S
C2400 C2419 1.429 . S
C2400 H2424 0.950 . S
C2401 C2418 1.574 . S
C2401 C2420 1.368 . S
C2401 H2425 0.949 . S
H2402 C2406 0.949 . S
C2403 C2404 1.349 1_655 S
C2403 C2405 1.327 . S
C2403 H2426 0.950 . S
C2404 C2403 1.349 1_455 S
C2404 C2416 1.349 . S
C2405 C2403 1.327 . S
C2405 C2421 1.429 . S
C2405 H2427 0.950 . S
C2406 H2402 0.949 . S
C2406 C2414 1.574 . S
C2406 C2422 1.368 . S
H2407 C2415 0.950 . S
H2408 C2413 0.950 . S
H2409 C2414 0.949 . S
H2410 C2416 0.950 . S
H2411 C2417 0.950 . S
H2412 C2418 0.949 . S
C2413 H2408 0.950 . S
C2413 C2415 1.327 . S
C2413 C2419 1.429 . S
C2414 C2406 1.574 . S
C2414 H2409 0.949 . S
C2414 C2420 1.368 . S
C2415 C2399 1.349 . S
C2415 H2407 0.950 . S
C2415 C2413 1.327 . S
C2416 C2404 1.349 . S
C2416 H2410 0.950 . S
C2416 C2417 1.327 . S
C2417 H2411 0.950 . S
C2417 C2416 1.327 . S
C2417 C2421 1.429 1_455 S
C2418 C2401 1.574 . S
C2418 H2412 0.949 . S
C2418 C2422 1.368 . S
C2419 C2400 1.429 . S
C2419 C2413 1.429 . S
C2419 C2420 1.523 . S
C2420 C2401 1.368 . S
C2420 C2414 1.368 . S
C2420 C2419 1.523 . S
C2421 C2405 1.429 . S
C2421 C2417 1.429 1_655 S
C2421 C2422 1.523 . S
C2422 C2406 1.368 . S
C2422 C2418 1.368 . S
C2422 C2421 1.523 . S
H2423 C2398 0.950 . S
H2424 C2400 0.950 . S
H2425 C2401 0.949 . S
H2426 C2403 0.950 . S
H2427 C2405 0.950 . S
C2428 C2429 1.349 . S
C2428 C2430 1.327 . S
C2428 H2453 0.950 . S
C2429 C2428 1.349 . S
C2429 C2445 1.349 . S
C2430 C2428 1.327 . S
C2430 C2449 1.429 . S
C2430 H2454 0.950 . S
C2431 C2448 1.574 . S
C2431 C2450 1.368 . S
C2431 H2455 0.949 . S
H2432 C2436 0.949 . S
C2433 C2434 1.349 . S
C2433 C2435 1.327 . S
C2433 H2456 0.950 . S
C2434 C2433 1.349 . S
C2434 C2446 1.349 . S
C2435 C2433 1.327 . S
C2435 C2451 1.429 . S
C2435 H2457 0.950 . S
C2436 H2432 0.949 . S
C2436 C2444 1.574 . S
C2436 C2452 1.368 . S
H2437 C2445 0.950 . S
H2438 C2443 0.950 . S
H2439 C2444 0.949 . S
H2440 C2446 0.950 . S
H2441 C2447 0.950 . S
H2442 C2448 0.949 . S
C2443 H2438 0.950 . S
C2443 C2445 1.327 . S
C2443 C2449 1.429 . S
C2444 C2436 1.574 . S
C2444 H2439 0.949 . S
C2444 C2450 1.368 . S
C2445 C2429 1.349 . S
C2445 H2437 0.950 . S
C2445 C2443 1.327 . S
C2446 C2434 1.349 . S
C2446 H2440 0.950 . S
C2446 C2447 1.327 . S
C2447 H2441 0.950 . S
C2447 C2446 1.327 . S
C2447 C2451 1.429 . S
C2448 C2431 1.574 . S
C2448 H2442 0.949 . S
C2448 C2452 1.368 . S
C2449 C2430 1.429 . S
C2449 C2443 1.429 . S
C2449 C2450 1.523 . S
C2450 C2431 1.368 . S
C2450 C2444 1.368 . S
C2450 C2449 1.523 . S
C2451 C2435 1.429 . S
C2451 C2447 1.429 . S
C2451 C2452 1.523 . S
C2452 C2436 1.368 . S
C2452 C2448 1.368 . S
C2452 C2451 1.523 . S
H2453 C2428 0.950 . S
H2454 C2430 0.950 . S
H2455 C2431 0.949 . S
H2456 C2433 0.950 . S
H2457 C2435 0.950 . S
C2458 C2459 1.349 . S
C2458 C2460 1.327 . S
C2458 H2483 0.950 . S
C2459 C2458 1.349 . S
C2459 C2475 1.349 . S
C2460 C2458 1.327 . S
C2460 C2479 1.429 . S
C2460 H2484 0.950 . S
C2461 C2478 1.574 . S
C2461 C2480 1.368 . S
C2461 H2485 0.949 . S
H2462 C2466 0.949 . S
C2463 C2464 1.349 . S
C2463 C2465 1.327 . S
C2463 H2486 0.950 . S
C2464 C2463 1.349 . S
C2464 C2476 1.349 . S
C2465 C2463 1.327 . S
C2465 C2481 1.429 . S
C2465 H2487 0.950 . S
C2466 H2462 0.949 . S
C2466 C2474 1.574 . S
C2466 C2482 1.368 . S
H2467 C2475 0.950 . S
H2468 C2473 0.950 . S
H2469 C2474 0.949 . S
H2470 C2476 0.950 . S
H2471 C2477 0.950 . S
H2472 C2478 0.949 . S
C2473 H2468 0.950 . S
C2473 C2475 1.327 . S
C2473 C2479 1.429 . S
C2474 C2466 1.574 . S
C2474 H2469 0.949 . S
C2474 C2480 1.368 . S
C2475 C2459 1.349 . S
C2475 H2467 0.950 . S
C2475 C2473 1.327 . S
C2476 C2464 1.349 . S
C2476 H2470 0.950 . S
C2476 C2477 1.327 . S
C2477 H2471 0.950 . S
C2477 C2476 1.327 . S
C2477 C2481 1.429 . S
C2478 C2461 1.574 . S
C2478 H2472 0.949 . S
C2478 C2482 1.368 . S
C2479 C2460 1.429 . S
C2479 C2473 1.429 . S
C2479 C2480 1.523 . S
C2480 C2461 1.368 . S
C2480 C2474 1.368 . S
C2480 C2479 1.523 . S
C2481 C2465 1.429 . S
C2481 C2477 1.429 . S
C2481 C2482 1.523 . S
C2482 C2466 1.368 . S
C2482 C2478 1.368 . S
C2482 C2481 1.523 . S
H2483 C2458 0.950 . S
H2484 C2460 0.950 . S
H2485 C2461 0.949 . S
H2486 C2463 0.950 . S
H2487 C2465 0.950 . S
C2488 C2489 1.349 . S
C2488 C2490 1.327 . S
C2488 H2513 0.950 . S
C2489 C2488 1.349 . S
C2489 C2505 1.349 . S
C2490 C2488 1.327 . S
C2490 C2509 1.429 . S
C2490 H2514 0.950 . S
C2491 C2508 1.574 . S
C2491 C2510 1.368 . S
C2491 H2515 0.949 . S
H2492 C2496 0.949 . S
C2493 C2494 1.349 . S
C2493 C2495 1.327 . S
C2493 H2516 0.950 . S
C2494 C2493 1.349 . S
C2494 C2506 1.349 . S
C2495 C2493 1.327 . S
C2495 C2511 1.429 . S
C2495 H2517 0.950 . S
C2496 H2492 0.949 . S
C2496 C2504 1.574 . S
C2496 C2512 1.368 . S
H2497 C2505 0.950 . S
H2498 C2503 0.950 . S
H2499 C2504 0.949 . S
H2500 C2506 0.950 . S
H2501 C2507 0.950 . S
H2502 C2508 0.949 . S
C2503 H2498 0.950 . S
C2503 C2505 1.327 . S
C2503 C2509 1.429 . S
C2504 C2496 1.574 . S
C2504 H2499 0.949 . S
C2504 C2510 1.368 . S
C2505 C2489 1.349 . S
C2505 H2497 0.950 . S
C2505 C2503 1.327 . S
C2506 C2494 1.349 . S
C2506 H2500 0.950 . S
C2506 C2507 1.327 . S
C2507 H2501 0.950 . S
C2507 C2506 1.327 . S
C2507 C2511 1.429 . S
C2508 C2491 1.574 . S
C2508 H2502 0.949 . S
C2508 C2512 1.368 . S
C2509 C2490 1.429 . S
C2509 C2503 1.429 . S
C2509 C2510 1.523 . S
C2510 C2491 1.368 . S
C2510 C2504 1.368 . S
C2510 C2509 1.523 . S
C2511 C2495 1.429 . S
C2511 C2507 1.429 . S
C2511 C2512 1.523 . S
C2512 C2496 1.368 . S
C2512 C2508 1.368 . S
C2512 C2511 1.523 . S
H2513 C2488 0.950 . S
H2514 C2490 0.950 . S
H2515 C2491 0.949 . S
H2516 C2493 0.950 . S
H2517 C2495 0.950 . S
C2518 C2519 1.349 . S
C2518 C2520 1.327 . S
C2518 H2543 0.950 . S
C2519 C2518 1.349 . S
C2519 C2535 1.349 . S
C2520 C2518 1.327 . S
C2520 C2539 1.429 . S
C2520 H2544 0.950 . S
C2521 C2538 1.574 . S
C2521 C2540 1.368 . S
C2521 H2545 0.949 . S
H2522 C2526 0.949 . S
C2523 C2524 1.349 . S
C2523 C2525 1.327 . S
C2523 H2546 0.950 . S
C2524 C2523 1.349 . S
C2524 C2536 1.349 . S
C2525 C2523 1.327 . S
C2525 C2541 1.429 . S
C2525 H2547 0.950 . S
C2526 H2522 0.949 . S
C2526 C2534 1.574 . S
C2526 C2542 1.368 . S
H2527 C2535 0.950 . S
H2528 C2533 0.950 . S
H2529 C2534 0.949 . S
H2530 C2536 0.950 . S
H2531 C2537 0.950 . S
H2532 C2538 0.949 . S
C2533 H2528 0.950 . S
C2533 C2535 1.327 . S
C2533 C2539 1.429 . S
C2534 C2526 1.574 . S
C2534 H2529 0.949 . S
C2534 C2540 1.368 . S
C2535 C2519 1.349 . S
C2535 H2527 0.950 . S
C2535 C2533 1.327 . S
C2536 C2524 1.349 . S
C2536 H2530 0.950 . S
C2536 C2537 1.327 . S
C2537 H2531 0.950 . S
C2537 C2536 1.327 . S
C2537 C2541 1.429 . S
C2538 C2521 1.574 . S
C2538 H2532 0.949 . S
C2538 C2542 1.368 . S
C2539 C2520 1.429 . S
C2539 C2533 1.429 . S
C2539 C2540 1.523 . S
C2540 C2521 1.368 . S
C2540 C2534 1.368 . S
C2540 C2539 1.523 . S
C2541 C2525 1.429 . S
C2541 C2537 1.429 . S
C2541 C2542 1.523 . S
C2542 C2526 1.368 . S
C2542 C2538 1.368 . S
C2542 C2541 1.523 . S
H2543 C2518 0.950 . S
H2544 C2520 0.950 . S
H2545 C2521 0.949 . S
H2546 C2523 0.950 . S
H2547 C2525 0.950 . S
C2548 C2549 1.349 . S
C2548 C2550 1.327 . S
C2548 H2573 0.950 . S
C2549 C2548 1.349 . S
C2549 C2565 1.349 . S
C2550 C2548 1.327 . S
C2550 C2569 1.429 . S
C2550 H2574 0.950 . S
C2551 C2568 1.574 . S
C2551 C2570 1.368 . S
C2551 H2575 0.949 . S
H2552 C2556 0.949 . S
C2553 C2554 1.349 . S
C2553 C2555 1.327 . S
C2553 H2576 0.950 . S
C2554 C2553 1.349 . S
C2554 C2566 1.349 . S
C2555 C2553 1.327 . S
C2555 C2571 1.429 . S
C2555 H2577 0.950 . S
C2556 H2552 0.949 . S
C2556 C2564 1.574 . S
C2556 C2572 1.368 . S
H2557 C2565 0.950 . S
H2558 C2563 0.950 . S
H2559 C2564 0.949 . S
H2560 C2566 0.950 . S
H2561 C2567 0.950 . S
H2562 C2568 0.949 . S
C2563 H2558 0.950 . S
C2563 C2565 1.327 . S
C2563 C2569 1.429 . S
C2564 C2556 1.574 . S
C2564 H2559 0.949 . S
C2564 C2570 1.368 . S
C2565 C2549 1.349 . S
C2565 H2557 0.950 . S
C2565 C2563 1.327 . S
C2566 C2554 1.349 . S
C2566 H2560 0.950 . S
C2566 C2567 1.327 . S
C2567 H2561 0.950 . S
C2567 C2566 1.327 . S
C2567 C2571 1.429 . S
C2568 C2551 1.574 . S
C2568 H2562 0.949 . S
C2568 C2572 1.368 . S
C2569 C2550 1.429 . S
C2569 C2563 1.429 . S
C2569 C2570 1.523 . S
C2570 C2551 1.368 . S
C2570 C2564 1.368 . S
C2570 C2569 1.523 . S
C2571 C2555 1.429 . S
C2571 C2567 1.429 . S
C2571 C2572 1.523 . S
C2572 C2556 1.368 . S
C2572 C2568 1.368 . S
C2572 C2571 1.523 . S
H2573 C2548 0.950 . S
H2574 C2550 0.950 . S
H2575 C2551 0.949 . S
H2576 C2553 0.950 . S
H2577 C2555 0.950 . S
C2578 C2579 1.349 . S
C2578 C2580 1.327 1_455 S
C2578 H2603 0.950 . S
C2579 C2578 1.349 . S
C2579 C2595 1.349 . S
C2580 C2578 1.327 1_655 S
C2580 C2599 1.429 . S
C2580 H2604 0.950 . S
C2581 C2598 1.574 . S
C2581 C2600 1.368 . S
C2581 H2605 0.949 . S
H2582 C2586 0.949 . S
C2583 C2584 1.349 . S
C2583 C2585 1.327 . S
C2583 H2606 0.950 . S
C2584 C2583 1.349 . S
C2584 C2596 1.349 . S
C2585 C2583 1.327 . S
C2585 C2601 1.429 . S
C2585 H2607 0.950 . S
C2586 H2582 0.949 . S
C2586 C2594 1.574 . S
C2586 C2602 1.368 . S
H2587 C2595 0.950 . S
H2588 C2593 0.950 . S
H2589 C2594 0.949 . S
H2590 C2596 0.950 . S
H2591 C2597 0.950 . S
H2592 C2598 0.949 . S
C2593 H2588 0.950 . S
C2593 C2595 1.327 1_655 S
C2593 C2599 1.429 . S
C2594 C2586 1.574 . S
C2594 H2589 0.949 . S
C2594 C2600 1.368 . S
C2595 C2579 1.349 . S
C2595 H2587 0.950 . S
C2595 C2593 1.327 1_455 S
C2596 C2584 1.349 . S
C2596 H2590 0.950 . S
C2596 C2597 1.327 . S
C2597 H2591 0.950 . S
C2597 C2596 1.327 . S
C2597 C2601 1.429 . S
C2598 C2581 1.574 . S
C2598 H2592 0.949 . S
C2598 C2602 1.368 . S
C2599 C2580 1.429 . S
C2599 C2593 1.429 . S
C2599 C2600 1.523 . S
C2600 C2581 1.368 . S
C2600 C2594 1.368 . S
C2600 C2599 1.523 . S
C2601 C2585 1.429 . S
C2601 C2597 1.429 . S
C2601 C2602 1.523 . S
C2602 C2586 1.368 . S
C2602 C2598 1.368 . S
C2602 C2601 1.523 . S
H2603 C2578 0.950 . S
H2604 C2580 0.950 . S
H2605 C2581 0.949 . S
H2606 C2583 0.950 . S
H2607 C2585 0.950 . S
C2608 C2609 1.349 . S
C2608 C2610 1.327 . S
C2608 H2633 0.950 . S
C2609 C2608 1.349 . S
C2609 C2625 1.349 . S
C2610 C2608 1.327 . S
C2610 C2629 1.429 . S
C2610 H2634 0.950 . S
C2611 C2628 1.574 . S
C2611 C2630 1.368 . S
C2611 H2635 0.949 . S
H2612 C2616 0.949 . S
C2613 C2614 1.349 . S
C2613 C2615 1.327 . S
C2613 H2636 0.950 . S
C2614 C2613 1.349 . S
C2614 C2626 1.349 . S
C2615 C2613 1.327 . S
C2615 C2631 1.429 . S
C2615 H2637 0.950 . S
C2616 H2612 0.949 . S
C2616 C2624 1.574 . S
C2616 C2632 1.368 . S
H2617 C2625 0.950 . S
H2618 C2623 0.950 . S
H2619 C2624 0.949 . S
H2620 C2626 0.950 . S
H2621 C2627 0.950 . S
H2622 C2628 0.949 . S
C2623 H2618 0.950 . S
C2623 C2625 1.327 . S
C2623 C2629 1.429 . S
C2624 C2616 1.574 . S
C2624 H2619 0.949 . S
C2624 C2630 1.368 . S
C2625 C2609 1.349 . S
C2625 H2617 0.950 . S
C2625 C2623 1.327 . S
C2626 C2614 1.349 . S
C2626 H2620 0.950 . S
C2626 C2627 1.327 . S
C2627 H2621 0.950 . S
C2627 C2626 1.327 . S
C2627 C2631 1.429 . S
C2628 C2611 1.574 . S
C2628 H2622 0.949 . S
C2628 C2632 1.368 . S
C2629 C2610 1.429 . S
C2629 C2623 1.429 . S
C2629 C2630 1.523 . S
C2630 C2611 1.368 . S
C2630 C2624 1.368 . S
C2630 C2629 1.523 . S
C2631 C2615 1.429 . S
C2631 C2627 1.429 . S
C2631 C2632 1.523 . S
C2632 C2616 1.368 . S
C2632 C2628 1.368 . S
C2632 C2631 1.523 . S
H2633 C2608 0.950 . S
H2634 C2610 0.950 . S
H2635 C2611 0.949 . S
H2636 C2613 0.950 . S
H2637 C2615 0.950 . S
C2638 C2639 1.348 . S
C2638 C2640 1.328 1_655 S
C2638 H2663 0.947 1_655 S
C2639 C2638 1.348 . S
C2639 C2655 1.349 . S
C2640 C2638 1.328 1_455 S
C2640 C2659 1.429 . S
C2640 H2664 0.950 . S
C2641 C2658 1.574 . S
C2641 C2660 1.368 . S
C2641 H2665 0.949 . S
H2642 C2646 0.949 . S
C2643 C2644 1.349 . S
C2643 C2645 1.327 . S
C2643 H2666 0.950 . S
C2644 C2643 1.349 . S
C2644 C2656 1.349 . S
C2645 C2643 1.327 . S
C2645 C2661 1.429 . S
C2645 H2667 0.950 . S
C2646 H2642 0.949 . S
C2646 C2654 1.574 . S
C2646 C2662 1.368 . S
H2647 C2655 0.950 . S
H2648 C2653 0.950 . S
H2649 C2654 0.949 . S
H2650 C2656 0.950 . S
H2651 C2657 0.950 . S
H2652 C2658 0.949 . S
C2653 H2648 0.950 . S
C2653 C2655 1.327 . S
C2653 C2659 1.429 1_655 S
C2654 C2646 1.574 . S
C2654 H2649 0.949 . S
C2654 C2660 1.368 . S
C2655 C2639 1.349 . S
C2655 H2647 0.950 . S
C2655 C2653 1.327 . S
C2656 C2644 1.349 . S
C2656 H2650 0.950 . S
C2656 C2657 1.327 . S
C2657 H2651 0.950 . S
C2657 C2656 1.327 . S
C2657 C2661 1.429 . S
C2658 C2641 1.574 . S
C2658 H2652 0.949 . S
C2658 C2662 1.368 . S
C2659 C2640 1.429 . S
C2659 C2653 1.429 1_455 S
C2659 C2660 1.523 . S
C2660 C2641 1.368 . S
C2660 C2654 1.368 . S
C2660 C2659 1.523 . S
C2661 C2645 1.429 . S
C2661 C2657 1.429 . S
C2661 C2662 1.523 . S
C2662 C2646 1.368 . S
C2662 C2658 1.368 . S
C2662 C2661 1.523 . S
H2663 C2638 0.947 1_455 S
H2664 C2640 0.950 . S
H2665 C2641 0.949 . S
H2666 C2643 0.950 . S
H2667 C2645 0.950 . S
C2668 C2669 1.349 . S
C2668 C2670 1.327 . S
C2668 H2693 0.950 . S
C2669 C2668 1.349 . S
C2669 C2685 1.349 . S
C2670 C2668 1.327 . S
C2670 C2689 1.429 . S
C2670 H2694 0.950 . S
C2671 C2688 1.574 . S
C2671 C2690 1.368 . S
C2671 H2695 0.949 . S
H2672 C2676 0.949 . S
C2673 C2674 1.349 . S
C2673 C2675 1.327 . S
C2673 H2696 0.950 . S
C2674 C2673 1.349 . S
C2674 C2686 1.349 . S
C2675 C2673 1.327 . S
C2675 C2691 1.429 . S
C2675 H2697 0.950 . S
C2676 H2672 0.949 . S
C2676 C2684 1.574 . S
C2676 C2692 1.368 . S
H2677 C2685 0.950 . S
H2678 C2683 0.950 . S
H2679 C2684 0.949 . S
H2680 C2686 0.950 . S
H2681 C2687 0.950 . S
H2682 C2688 0.949 . S
C2683 H2678 0.950 . S
C2683 C2685 1.327 . S
C2683 C2689 1.429 . S
C2684 C2676 1.574 . S
C2684 H2679 0.949 . S
C2684 C2690 1.368 . S
C2685 C2669 1.349 . S
C2685 H2677 0.950 . S
C2685 C2683 1.327 . S
C2686 C2674 1.349 . S
C2686 H2680 0.950 . S
C2686 C2687 1.327 . S
C2687 H2681 0.950 . S
C2687 C2686 1.327 . S
C2687 C2691 1.429 . S
C2688 C2671 1.574 . S
C2688 H2682 0.949 . S
C2688 C2692 1.368 . S
C2689 C2670 1.429 . S
C2689 C2683 1.429 . S
C2689 C2690 1.523 . S
C2690 C2671 1.368 . S
C2690 C2684 1.368 . S
C2690 C2689 1.523 . S
C2691 C2675 1.429 . S
C2691 C2687 1.429 . S
C2691 C2692 1.523 . S
C2692 C2676 1.368 . S
C2692 C2688 1.368 . S
C2692 C2691 1.523 . S
H2693 C2668 0.950 . S
H2694 C2670 0.950 . S
H2695 C2671 0.949 . S
H2696 C2673 0.950 . S
H2697 C2675 0.950 . S
C2698 C2699 1.349 . S
C2698 C2700 1.327 . S
C2698 H2723 0.950 . S
C2699 C2698 1.349 . S
C2699 C2715 1.349 . S
C2700 C2698 1.327 . S
C2700 C2719 1.429 . S
C2700 H2724 0.950 . S
C2701 C2718 1.574 . S
C2701 C2720 1.368 . S
C2701 H2725 0.949 . S
H2702 C2706 0.949 . S
C2703 C2704 1.349 . S
C2703 C2705 1.327 . S
C2703 H2726 0.950 . S
C2704 C2703 1.349 . S
C2704 C2716 1.349 . S
C2705 C2703 1.327 . S
C2705 C2721 1.429 . S
C2705 H2727 0.950 . S
C2706 H2702 0.949 . S
C2706 C2714 1.574 . S
C2706 C2722 1.368 . S
H2707 C2715 0.950 . S
H2708 C2713 0.950 . S
H2709 C2714 0.949 . S
H2710 C2716 0.950 . S
H2711 C2717 0.950 . S
H2712 C2718 0.949 . S
C2713 H2708 0.950 . S
C2713 C2715 1.327 . S
C2713 C2719 1.429 . S
C2714 C2706 1.574 . S
C2714 H2709 0.949 . S
C2714 C2720 1.368 . S
C2715 C2699 1.349 . S
C2715 H2707 0.950 . S
C2715 C2713 1.327 . S
C2716 C2704 1.349 . S
C2716 H2710 0.950 . S
C2716 C2717 1.327 . S
C2717 H2711 0.950 . S
C2717 C2716 1.327 . S
C2717 C2721 1.429 . S
C2718 C2701 1.574 . S
C2718 H2712 0.949 . S
C2718 C2722 1.368 . S
C2719 C2700 1.429 . S
C2719 C2713 1.429 . S
C2719 C2720 1.523 . S
C2720 C2701 1.368 . S
C2720 C2714 1.368 . S
C2720 C2719 1.523 . S
C2721 C2705 1.429 . S
C2721 C2717 1.429 . S
C2721 C2722 1.523 . S
C2722 C2706 1.368 . S
C2722 C2718 1.368 . S
C2722 C2721 1.523 . S
H2723 C2698 0.950 . S
H2724 C2700 0.950 . S
H2725 C2701 0.949 . S
H2726 C2703 0.950 . S
H2727 C2705 0.950 . S
C2728 C2729 1.349 . S
C2728 C2730 1.327 . S
C2728 H2753 0.950 . S
C2729 C2728 1.349 . S
C2729 C2745 1.349 . S
C2730 C2728 1.327 . S
C2730 C2749 1.429 . S
C2730 H2754 0.950 . S
C2731 C2748 1.574 . S
C2731 C2750 1.368 . S
C2731 H2755 0.949 . S
H2732 C2736 0.949 . S
C2733 C2734 1.349 . S
C2733 C2735 1.327 . S
C2733 H2756 0.950 . S
C2734 C2733 1.349 . S
C2734 C2746 1.349 . S
C2735 C2733 1.327 . S
C2735 C2751 1.429 . S
C2735 H2757 0.950 . S
C2736 H2732 0.949 . S
C2736 C2744 1.574 . S
C2736 C2752 1.368 . S
H2737 C2745 0.950 . S
H2738 C2743 0.950 . S
H2739 C2744 0.949 . S
H2740 C2746 0.950 . S
H2741 C2747 0.950 . S
H2742 C2748 0.949 . S
C2743 H2738 0.950 . S
C2743 C2745 1.327 . S
C2743 C2749 1.429 . S
C2744 C2736 1.574 . S
C2744 H2739 0.949 . S
C2744 C2750 1.368 . S
C2745 C2729 1.349 . S
C2745 H2737 0.950 . S
C2745 C2743 1.327 . S
C2746 C2734 1.349 . S
C2746 H2740 0.950 . S
C2746 C2747 1.327 . S
C2747 H2741 0.950 . S
C2747 C2746 1.327 . S
C2747 C2751 1.429 . S
C2748 C2731 1.574 . S
C2748 H2742 0.949 . S
C2748 C2752 1.368 . S
C2749 C2730 1.429 . S
C2749 C2743 1.429 . S
C2749 C2750 1.523 . S
C2750 C2731 1.368 . S
C2750 C2744 1.368 . S
C2750 C2749 1.523 . S
C2751 C2735 1.429 . S
C2751 C2747 1.429 . S
C2751 C2752 1.523 . S
C2752 C2736 1.368 . S
C2752 C2748 1.368 . S
C2752 C2751 1.523 . S
H2753 C2728 0.950 . S
H2754 C2730 0.950 . S
H2755 C2731 0.949 . S
H2756 C2733 0.950 . S
H2757 C2735 0.950 . S
C2758 C2759 1.349 . S
C2758 C2760 1.327 . S
C2758 H2783 0.950 . S
C2759 C2758 1.349 . S
C2759 C2775 1.349 . S
C2760 C2758 1.327 . S
C2760 C2779 1.429 . S
C2760 H2784 0.950 . S
C2761 C2778 1.574 . S
C2761 C2780 1.368 . S
C2761 H2785 0.949 . S
H2762 C2766 0.949 . S
C2763 C2764 1.349 . S
C2763 C2765 1.327 . S
C2763 H2786 0.950 . S
C2764 C2763 1.349 . S
C2764 C2776 1.349 . S
C2765 C2763 1.327 . S
C2765 C2781 1.429 . S
C2765 H2787 0.950 . S
C2766 H2762 0.949 . S
C2766 C2774 1.574 . S
C2766 C2782 1.368 . S
H2767 C2775 0.950 . S
H2768 C2773 0.950 . S
H2769 C2774 0.949 . S
H2770 C2776 0.950 . S
H2771 C2777 0.950 . S
H2772 C2778 0.949 . S
C2773 H2768 0.950 . S
C2773 C2775 1.327 . S
C2773 C2779 1.429 . S
C2774 C2766 1.574 . S
C2774 H2769 0.949 . S
C2774 C2780 1.368 . S
C2775 C2759 1.349 . S
C2775 H2767 0.950 . S
C2775 C2773 1.327 . S
C2776 C2764 1.349 . S
C2776 H2770 0.950 . S
C2776 C2777 1.327 . S
C2777 H2771 0.950 . S
C2777 C2776 1.327 . S
C2777 C2781 1.429 . S
C2778 C2761 1.574 . S
C2778 H2772 0.949 . S
C2778 C2782 1.368 . S
C2779 C2760 1.429 . S
C2779 C2773 1.429 . S
C2779 C2780 1.523 . S
C2780 C2761 1.368 . S
C2780 C2774 1.368 . S
C2780 C2779 1.523 . S
C2781 C2765 1.429 . S
C2781 C2777 1.429 . S
C2781 C2782 1.523 . S
C2782 C2766 1.368 . S
C2782 C2778 1.368 . S
C2782 C2781 1.523 . S
H2783 C2758 0.950 . S
H2784 C2760 0.950 . S
H2785 C2761 0.949 . S
H2786 C2763 0.950 . S
H2787 C2765 0.950 . S
C2788 C2789 1.349 . S
C2788 C2790 1.327 . S
C2788 H2813 0.950 . S
C2789 C2788 1.349 . S
C2789 C2805 1.349 . S
C2790 C2788 1.327 . S
C2790 C2809 1.429 . S
C2790 H2814 0.950 . S
C2791 C2808 1.574 . S
C2791 C2810 1.368 . S
C2791 H2815 0.949 . S
H2792 C2796 0.949 . S
C2793 C2794 1.349 . S
C2793 C2795 1.327 . S
C2793 H2816 0.950 . S
C2794 C2793 1.349 . S
C2794 C2806 1.349 . S
C2795 C2793 1.327 . S
C2795 C2811 1.429 . S
C2795 H2817 0.950 . S
C2796 H2792 0.949 . S
C2796 C2804 1.574 . S
C2796 C2812 1.368 . S
H2797 C2805 0.950 . S
H2798 C2803 0.950 . S
H2799 C2804 0.949 . S
H2800 C2806 0.950 . S
H2801 C2807 0.950 . S
H2802 C2808 0.949 . S
C2803 H2798 0.950 . S
C2803 C2805 1.327 . S
C2803 C2809 1.429 . S
C2804 C2796 1.574 . S
C2804 H2799 0.949 . S
C2804 C2810 1.368 . S
C2805 C2789 1.349 . S
C2805 H2797 0.950 . S
C2805 C2803 1.327 . S
C2806 C2794 1.349 . S
C2806 H2800 0.950 . S
C2806 C2807 1.327 . S
C2807 H2801 0.950 . S
C2807 C2806 1.327 . S
C2807 C2811 1.429 . S
C2808 C2791 1.574 . S
C2808 H2802 0.949 . S
C2808 C2812 1.368 . S
C2809 C2790 1.429 . S
C2809 C2803 1.429 . S
C2809 C2810 1.523 . S
C2810 C2791 1.368 . S
C2810 C2804 1.368 . S
C2810 C2809 1.523 . S
C2811 C2795 1.429 . S
C2811 C2807 1.429 . S
C2811 C2812 1.523 . S
C2812 C2796 1.368 . S
C2812 C2808 1.368 . S
C2812 C2811 1.523 . S
H2813 C2788 0.950 . S
H2814 C2790 0.950 . S
H2815 C2791 0.949 . S
H2816 C2793 0.950 . S
H2817 C2795 0.950 . S
C2818 C2819 1.349 . S
C2818 C2820 1.327 . S
C2818 H2843 0.950 . S
C2819 C2818 1.349 . S
C2819 C2835 1.349 . S
C2820 C2818 1.327 . S
C2820 C2839 1.429 . S
C2820 H2844 0.950 . S
C2821 C2838 1.574 . S
C2821 C2840 1.368 . S
C2821 H2845 0.949 . S
H2822 C2826 0.949 . S
C2823 C2824 1.349 . S
C2823 C2825 1.327 1_655 S
C2823 H2846 0.950 . S
C2824 C2823 1.349 . S
C2824 C2836 1.349 . S
C2825 C2823 1.327 1_455 S
C2825 C2841 1.429 . S
C2825 H2847 0.950 . S
C2826 H2822 0.949 . S
C2826 C2834 1.574 . S
C2826 C2842 1.368 . S
H2827 C2835 0.950 . S
H2828 C2833 0.950 . S
H2829 C2834 0.949 . S
H2830 C2836 0.950 . S
H2831 C2837 0.950 . S
H2832 C2838 0.949 . S
C2833 H2828 0.950 . S
C2833 C2835 1.327 . S
C2833 C2839 1.429 . S
C2834 C2826 1.574 . S
C2834 H2829 0.949 . S
C2834 C2840 1.368 . S
C2835 C2819 1.349 . S
C2835 H2827 0.950 . S
C2835 C2833 1.327 . S
C2836 C2824 1.349 . S
C2836 H2830 0.950 . S
C2836 C2837 1.327 1_655 S
C2837 H2831 0.950 . S
C2837 C2836 1.327 1_455 S
C2837 C2841 1.429 . S
C2838 C2821 1.574 . S
C2838 H2832 0.949 . S
C2838 C2842 1.368 . S
C2839 C2820 1.429 . S
C2839 C2833 1.429 . S
C2839 C2840 1.523 . S
C2840 C2821 1.368 . S
C2840 C2834 1.368 . S
C2840 C2839 1.523 . S
C2841 C2825 1.429 . S
C2841 C2837 1.429 . S
C2841 C2842 1.523 . S
C2842 C2826 1.368 . S
C2842 C2838 1.368 . S
C2842 C2841 1.523 . S
H2843 C2818 0.950 . S
H2844 C2820 0.950 . S
H2845 C2821 0.949 . S
H2846 C2823 0.950 . S
H2847 C2825 0.950 . S
C2848 C2849 1.349 . S
C2848 C2850 1.327 . S
C2848 H2873 0.950 . S
C2849 C2848 1.349 . S
C2849 C2865 1.349 . S
C2850 C2848 1.327 . S
C2850 C2869 1.429 . S
C2850 H2874 0.950 . S
C2851 C2868 1.574 . S
C2851 C2870 1.368 . S
C2851 H2875 0.949 . S
H2852 C2856 0.949 . S
C2853 C2854 1.349 . S
C2853 C2855 1.327 . S
C2853 H2876 0.950 . S
C2854 C2853 1.349 . S
C2854 C2866 1.349 . S
C2855 C2853 1.327 . S
C2855 C2871 1.429 . S
C2855 H2877 0.950 . S
C2856 H2852 0.949 . S
C2856 C2864 1.574 . S
C2856 C2872 1.368 . S
H2857 C2865 0.950 . S
H2858 C2863 0.950 . S
H2859 C2864 0.949 . S
H2860 C2866 0.950 . S
H2861 C2867 0.950 . S
H2862 C2868 0.949 . S
C2863 H2858 0.950 . S
C2863 C2865 1.327 . S
C2863 C2869 1.429 . S
C2864 C2856 1.574 . S
C2864 H2859 0.949 . S
C2864 C2870 1.368 . S
C2865 C2849 1.349 . S
C2865 H2857 0.950 . S
C2865 C2863 1.327 . S
C2866 C2854 1.349 . S
C2866 H2860 0.950 . S
C2866 C2867 1.327 . S
C2867 H2861 0.950 . S
C2867 C2866 1.327 . S
C2867 C2871 1.429 . S
C2868 C2851 1.574 . S
C2868 H2862 0.949 . S
C2868 C2872 1.368 . S
C2869 C2850 1.429 . S
C2869 C2863 1.429 . S
C2869 C2870 1.523 . S
C2870 C2851 1.368 . S
C2870 C2864 1.368 . S
C2870 C2869 1.523 . S
C2871 C2855 1.429 . S
C2871 C2867 1.429 . S
C2871 C2872 1.523 . S
C2872 C2856 1.368 . S
C2872 C2868 1.368 . S
C2872 C2871 1.523 . S
H2873 C2848 0.950 . S
H2874 C2850 0.950 . S
H2875 C2851 0.949 . S
H2876 C2853 0.950 . S
H2877 C2855 0.950 . S
C2878 C2879 1.349 . S
C2878 C2880 1.327 . S
C2878 H2903 0.950 . S
C2879 C2878 1.349 . S
C2879 C2895 1.349 . S
C2880 C2878 1.327 . S
C2880 C2899 1.429 . S
C2880 H2904 0.950 . S
C2881 C2898 1.574 . S
C2881 C2900 1.368 . S
C2881 H2905 0.949 . S
H2882 C2886 0.949 . S
C2883 C2884 1.349 . S
C2883 C2885 1.327 . S
C2883 H2906 0.950 . S
C2884 C2883 1.349 . S
C2884 C2896 1.349 . S
C2885 C2883 1.327 . S
C2885 C2901 1.429 . S
C2885 H2907 0.950 . S
C2886 H2882 0.949 . S
C2886 C2894 1.574 . S
C2886 C2902 1.368 . S
H2887 C2895 0.950 . S
H2888 C2893 0.950 . S
H2889 C2894 0.949 . S
H2890 C2896 0.950 . S
H2891 C2897 0.950 . S
H2892 C2898 0.949 . S
C2893 H2888 0.950 . S
C2893 C2895 1.327 . S
C2893 C2899 1.429 . S
C2894 C2886 1.574 . S
C2894 H2889 0.949 . S
C2894 C2900 1.368 . S
C2895 C2879 1.349 . S
C2895 H2887 0.950 . S
C2895 C2893 1.327 . S
C2896 C2884 1.349 . S
C2896 H2890 0.950 . S
C2896 C2897 1.327 . S
C2897 H2891 0.950 . S
C2897 C2896 1.327 . S
C2897 C2901 1.429 . S
C2898 C2881 1.574 . S
C2898 H2892 0.949 . S
C2898 C2902 1.368 . S
C2899 C2880 1.429 . S
C2899 C2893 1.429 . S
C2899 C2900 1.523 . S
C2900 C2881 1.368 . S
C2900 C2894 1.368 . S
C2900 C2899 1.523 . S
C2901 C2885 1.429 . S
C2901 C2897 1.429 . S
C2901 C2902 1.523 . S
C2902 C2886 1.368 . S
C2902 C2898 1.368 . S
C2902 C2901 1.523 . S
H2903 C2878 0.950 . S
H2904 C2880 0.950 . S
H2905 C2881 0.949 . S
H2906 C2883 0.950 . S
H2907 C2885 0.950 . S
C2908 C2909 1.349 . S
C2908 C2910 1.327 . S
C2908 H2933 0.950 . S
C2909 C2908 1.349 . S
C2909 C2925 1.349 . S
C2910 C2908 1.327 . S
C2910 C2929 1.429 . S
C2910 H2934 0.950 . S
C2911 C2928 1.574 . S
C2911 C2930 1.368 . S
C2911 H2935 0.949 . S
H2912 C2916 0.949 . S
C2913 C2914 1.349 . S
C2913 C2915 1.327 . S
C2913 H2936 0.950 . S
C2914 C2913 1.349 . S
C2914 C2926 1.349 . S
C2915 C2913 1.327 . S
C2915 C2931 1.429 . S
C2915 H2937 0.950 . S
C2916 H2912 0.949 . S
C2916 C2924 1.574 . S
C2916 C2932 1.368 . S
H2917 C2925 0.950 . S
H2918 C2923 0.950 . S
H2919 C2924 0.949 . S
H2920 C2926 0.950 . S
H2921 C2927 0.950 . S
H2922 C2928 0.949 . S
C2923 H2918 0.950 . S
C2923 C2925 1.327 . S
C2923 C2929 1.429 . S
C2924 C2916 1.574 . S
C2924 H2919 0.949 . S
C2924 C2930 1.368 . S
C2925 C2909 1.349 . S
C2925 H2917 0.950 . S
C2925 C2923 1.327 . S
C2926 C2914 1.349 . S
C2926 H2920 0.950 . S
C2926 C2927 1.327 . S
C2927 H2921 0.950 . S
C2927 C2926 1.327 . S
C2927 C2931 1.429 . S
C2928 C2911 1.574 . S
C2928 H2922 0.949 . S
C2928 C2932 1.368 . S
C2929 C2910 1.429 . S
C2929 C2923 1.429 . S
C2929 C2930 1.523 . S
C2930 C2911 1.368 . S
C2930 C2924 1.368 . S
C2930 C2929 1.523 . S
C2931 C2915 1.429 . S
C2931 C2927 1.429 . S
C2931 C2932 1.523 . S
C2932 C2916 1.368 . S
C2932 C2928 1.368 . S
C2932 C2931 1.523 . S
H2933 C2908 0.950 . S
H2934 C2910 0.950 . S
H2935 C2911 0.949 . S
H2936 C2913 0.950 . S
H2937 C2915 0.950 . S
C2938 C2939 1.349 . S
C2938 C2940 1.327 . S
C2938 H2963 0.950 . S
C2939 C2938 1.349 . S
C2939 C2955 1.349 . S
C2940 C2938 1.327 . S
C2940 C2959 1.429 . S
C2940 H2964 0.950 . S
C2941 C2958 1.574 . S
C2941 C2960 1.368 . S
C2941 H2965 0.949 . S
H2942 C2946 0.949 . S
C2943 C2944 1.406 . S
C2943 C2945 1.273 1_655 S
C2943 H2966 0.950 . S
C2944 C2943 1.406 . S
C2944 C2956 1.349 . S
C2945 C2943 1.273 1_455 S
C2945 C2961 1.429 . S
C2945 H2967 0.950 . S
C2946 H2942 0.949 . S
C2946 C2954 1.574 . S
C2946 C2962 1.368 . S
H2947 C2955 0.950 . S
H2948 C2953 0.950 . S
H2949 C2954 0.949 . S
H2950 C2956 0.950 . S
H2951 C2957 0.950 . S
H2952 C2958 0.949 . S
C2953 H2948 0.950 . S
C2953 C2955 1.327 . S
C2953 C2959 1.429 . S
C2954 C2946 1.574 . S
C2954 H2949 0.949 . S
C2954 C2960 1.368 . S
C2955 C2939 1.349 . S
C2955 H2947 0.950 . S
C2955 C2953 1.327 . S
C2956 C2944 1.349 . S
C2956 H2950 0.950 . S
C2956 C2957 1.327 . S
C2957 H2951 0.950 . S
C2957 C2956 1.327 . S
C2957 C2961 1.429 1_655 S
C2958 C2941 1.574 . S
C2958 H2952 0.949 . S
C2958 C2962 1.368 . S
C2959 C2940 1.429 . S
C2959 C2953 1.429 . S
C2959 C2960 1.523 . S
C2960 C2941 1.368 . S
C2960 C2954 1.368 . S
C2960 C2959 1.523 . S
C2961 C2945 1.429 . S
C2961 C2957 1.429 1_455 S
C2961 C2962 1.523 . S
C2962 C2946 1.368 . S
C2962 C2958 1.368 . S
C2962 C2961 1.523 . S
H2963 C2938 0.950 . S
H2964 C2940 0.950 . S
H2965 C2941 0.949 . S
H2966 C2943 0.950 . S
H2967 C2945 0.950 . S
C2968 C2969 1.349 . S
C2968 C2970 1.327 . S
C2968 H2993 0.950 . S
C2969 C2968 1.349 . S
C2969 C2985 1.349 . S
C2970 C2968 1.327 . S
C2970 C2989 1.429 . S
C2970 H2994 0.950 . S
C2971 C2988 1.574 . S
C2971 C2990 1.368 . S
C2971 H2995 0.949 . S
H2972 C2976 0.949 . S
C2973 C2974 1.349 . S
C2973 C2975 1.327 . S
C2973 H2996 0.950 . S
C2974 C2973 1.349 . S
C2974 C2986 1.349 . S
C2975 C2973 1.327 . S
C2975 C2991 1.429 . S
C2975 H2997 0.950 . S
C2976 H2972 0.949 . S
C2976 C2984 1.574 . S
C2976 C2992 1.368 . S
H2977 C2985 0.950 . S
H2978 C2983 0.950 . S
H2979 C2984 0.949 . S
H2980 C2986 0.950 . S
H2981 C2987 0.950 . S
H2982 C2988 0.949 . S
C2983 H2978 0.950 . S
C2983 C2985 1.327 . S
C2983 C2989 1.429 . S
C2984 C2976 1.574 . S
C2984 H2979 0.949 . S
C2984 C2990 1.368 . S
C2985 C2969 1.349 . S
C2985 H2977 0.950 . S
C2985 C2983 1.327 . S
C2986 C2974 1.349 . S
C2986 H2980 0.950 . S
C2986 C2987 1.327 . S
C2987 H2981 0.950 . S
C2987 C2986 1.327 . S
C2987 C2991 1.429 . S
C2988 C2971 1.574 . S
C2988 H2982 0.949 . S
C2988 C2992 1.368 . S
C2989 C2970 1.429 . S
C2989 C2983 1.429 . S
C2989 C2990 1.523 . S
C2990 C2971 1.368 . S
C2990 C2984 1.368 . S
C2990 C2989 1.523 . S
C2991 C2975 1.429 . S
C2991 C2987 1.429 . S
C2991 C2992 1.523 . S
C2992 C2976 1.368 . S
C2992 C2988 1.368 . S
C2992 C2991 1.523 . S
H2993 C2968 0.950 . S
H2994 C2970 0.950 . S
H2995 C2971 0.949 . S
H2996 C2973 0.950 . S
H2997 C2975 0.950 . S
C2998 C2999 1.349 . S
C2998 C3000 1.327 . S
C2998 H3023 0.950 . S
C2999 C2998 1.349 . S
C2999 C3015 1.347 1_655 S
C3000 C2998 1.327 . S
C3000 C3019 1.429 1_655 S
C3000 H3024 0.950 . S
C3001 C3018 1.574 . S
C3001 C3020 1.368 . S
C3001 H3025 0.949 . S
H3002 C3006 0.949 . S
C3003 C3004 1.349 . S
C3003 C3005 1.327 . S
C3003 H3026 0.950 . S
C3004 C3003 1.349 . S
C3004 C3016 1.349 . S
C3005 C3003 1.327 . S
C3005 C3021 1.429 . S
C3005 H3027 0.950 . S
C3006 H3002 0.949 . S
C3006 C3014 1.574 . S
C3006 C3022 1.368 . S
H3007 C3015 0.950 . S
H3008 C3013 0.950 . S
H3009 C3014 0.949 . S
H3010 C3016 0.950 . S
H3011 C3017 0.950 . S
H3012 C3018 0.949 . S
C3013 H3008 0.950 . S
C3013 C3015 1.329 . S
C3013 C3019 1.429 . S
C3014 C3006 1.574 . S
C3014 H3009 0.949 . S
C3014 C3020 1.368 . S
C3015 C2999 1.347 1_455 S
C3015 H3007 0.950 . S
C3015 C3013 1.329 . S
C3016 C3004 1.349 . S
C3016 H3010 0.950 . S
C3016 C3017 1.327 . S
C3017 H3011 0.950 . S
C3017 C3016 1.327 . S
C3017 C3021 1.429 . S
C3018 C3001 1.574 . S
C3018 H3012 0.949 . S
C3018 C3022 1.368 . S
C3019 C3000 1.429 1_455 S
C3019 C3013 1.429 . S
C3019 C3020 1.523 . S
C3020 C3001 1.368 . S
C3020 C3014 1.368 . S
C3020 C3019 1.523 . S
C3021 C3005 1.429 . S
C3021 C3017 1.429 . S
C3021 C3022 1.523 . S
C3022 C3006 1.368 . S
C3022 C3018 1.368 . S
C3022 C3021 1.523 . S
H3023 C2998 0.950 . S
H3024 C3000 0.950 . S
H3025 C3001 0.949 . S
H3026 C3003 0.950 . S
H3027 C3005 0.950 . S
C3028 C3029 1.349 . S
C3028 C3030 1.327 . S
C3028 H3053 0.950 . S
C3029 C3028 1.349 . S
C3029 C3045 1.349 . S
C3030 C3028 1.327 . S
C3030 C3049 1.429 . S
C3030 H3054 0.950 . S
C3031 C3048 1.574 . S
C3031 C3050 1.368 . S
C3031 H3055 0.949 . S
H3032 C3036 0.949 . S
C3033 C3034 1.349 . S
C3033 C3035 1.327 . S
C3033 H3056 0.950 . S
C3034 C3033 1.349 . S
C3034 C3046 1.349 . S
C3035 C3033 1.327 . S
C3035 C3051 1.429 . S
C3035 H3057 0.950 . S
C3036 H3032 0.949 . S
C3036 C3044 1.574 . S
C3036 C3052 1.368 . S
H3037 C3045 0.950 . S
H3038 C3043 0.950 . S
H3039 C3044 0.949 . S
H3040 C3046 0.950 . S
H3041 C3047 0.950 . S
H3042 C3048 0.949 . S
C3043 H3038 0.950 . S
C3043 C3045 1.327 . S
C3043 C3049 1.429 . S
C3044 C3036 1.574 . S
C3044 H3039 0.949 . S
C3044 C3050 1.368 . S
C3045 C3029 1.349 . S
C3045 H3037 0.950 . S
C3045 C3043 1.327 . S
C3046 C3034 1.349 . S
C3046 H3040 0.950 . S
C3046 C3047 1.327 . S
C3047 H3041 0.950 . S
C3047 C3046 1.327 . S
C3047 C3051 1.429 . S
C3048 C3031 1.574 . S
C3048 H3042 0.949 . S
C3048 C3052 1.368 . S
C3049 C3030 1.429 . S
C3049 C3043 1.429 . S
C3049 C3050 1.523 . S
C3050 C3031 1.368 . S
C3050 C3044 1.368 . S
C3050 C3049 1.523 . S
C3051 C3035 1.429 . S
C3051 C3047 1.429 . S
C3051 C3052 1.523 . S
C3052 C3036 1.368 . S
C3052 C3048 1.368 . S
C3052 C3051 1.523 . S
H3053 C3028 0.950 . S
H3054 C3030 0.950 . S
H3055 C3031 0.949 . S
H3056 C3033 0.950 . S
H3057 C3035 0.950 . S
C3058 C3059 1.349 . S
C3058 C3060 1.327 . S
C3058 H3083 0.950 . S
C3059 C3058 1.349 . S
C3059 C3075 1.349 . S
C3060 C3058 1.327 . S
C3060 C3079 1.429 . S
C3060 H3084 0.950 . S
C3061 C3078 1.574 . S
C3061 C3080 1.368 . S
C3061 H3085 0.949 . S
H3062 C3066 0.949 . S
C3063 C3064 1.349 . S
C3063 C3065 1.327 . S
C3063 H3086 0.950 . S
C3064 C3063 1.349 . S
C3064 C3076 1.349 . S
C3065 C3063 1.327 . S
C3065 C3081 1.429 . S
C3065 H3087 0.950 . S
C3066 H3062 0.949 . S
C3066 C3074 1.574 . S
C3066 C3082 1.368 . S
H3067 C3075 0.950 . S
H3068 C3073 0.950 . S
H3069 C3074 0.949 . S
H3070 C3076 0.950 . S
H3071 C3077 0.950 . S
H3072 C3078 0.949 . S
C3073 H3068 0.950 . S
C3073 C3075 1.327 . S
C3073 C3079 1.429 . S
C3074 C3066 1.574 . S
C3074 H3069 0.949 . S
C3074 C3080 1.368 . S
C3075 C3059 1.349 . S
C3075 H3067 0.950 . S
C3075 C3073 1.327 . S
C3076 C3064 1.349 . S
C3076 H3070 0.950 . S
C3076 C3077 1.327 . S
C3077 H3071 0.950 . S
C3077 C3076 1.327 . S
C3077 C3081 1.429 . S
C3078 C3061 1.574 . S
C3078 H3072 0.949 . S
C3078 C3082 1.368 . S
C3079 C3060 1.429 . S
C3079 C3073 1.429 . S
C3079 C3080 1.523 . S
C3080 C3061 1.368 . S
C3080 C3074 1.368 . S
C3080 C3079 1.523 . S
C3081 C3065 1.429 . S
C3081 C3077 1.429 . S
C3081 C3082 1.523 . S
C3082 C3066 1.368 . S
C3082 C3078 1.368 . S
C3082 C3081 1.523 . S
H3083 C3058 0.950 . S
H3084 C3060 0.950 . S
H3085 C3061 0.949 . S
H3086 C3063 0.950 . S
H3087 C3065 0.950 . S
C3088 C3089 1.349 . S
C3088 C3090 1.327 . S
C3088 H3113 0.950 . S
C3089 C3088 1.349 . S
C3089 C3105 1.349 . S
C3090 C3088 1.327 . S
C3090 C3109 1.429 . S
C3090 H3114 0.950 . S
C3091 C3108 1.574 . S
C3091 C3110 1.368 . S
C3091 H3115 0.949 . S
H3092 C3096 0.949 . S
C3093 C3094 1.349 . S
C3093 C3095 1.327 . S
C3093 H3116 0.950 . S
C3094 C3093 1.349 . S
C3094 C3106 1.349 . S
C3095 C3093 1.327 . S
C3095 C3111 1.429 . S
C3095 H3117 0.950 . S
C3096 H3092 0.949 . S
C3096 C3104 1.574 . S
C3096 C3112 1.368 . S
H3097 C3105 0.950 . S
H3098 C3103 0.950 . S
H3099 C3104 0.949 . S
H3100 C3106 0.950 . S
H3101 C3107 0.950 . S
H3102 C3108 0.949 . S
C3103 H3098 0.950 . S
C3103 C3105 1.327 . S
C3103 C3109 1.429 . S
C3104 C3096 1.574 . S
C3104 H3099 0.949 . S
C3104 C3110 1.368 . S
C3105 C3089 1.349 . S
C3105 H3097 0.950 . S
C3105 C3103 1.327 . S
C3106 C3094 1.349 . S
C3106 H3100 0.950 . S
C3106 C3107 1.327 . S
C3107 H3101 0.950 . S
C3107 C3106 1.327 . S
C3107 C3111 1.429 . S
C3108 C3091 1.574 . S
C3108 H3102 0.949 . S
C3108 C3112 1.368 . S
C3109 C3090 1.429 . S
C3109 C3103 1.429 . S
C3109 C3110 1.523 . S
C3110 C3091 1.368 . S
C3110 C3104 1.368 . S
C3110 C3109 1.523 . S
C3111 C3095 1.429 . S
C3111 C3107 1.429 . S
C3111 C3112 1.523 . S
C3112 C3096 1.368 . S
C3112 C3108 1.368 . S
C3112 C3111 1.523 . S
H3113 C3088 0.950 . S
H3114 C3090 0.950 . S
H3115 C3091 0.949 . S
H3116 C3093 0.950 . S
H3117 C3095 0.950 . S
C3118 C3119 1.349 . S
C3118 C3120 1.327 . S
C3118 H3143 0.950 . S
C3119 C3118 1.349 . S
C3119 C3135 1.349 . S
C3120 C3118 1.327 . S
C3120 C3139 1.429 . S
C3120 H3144 0.950 . S
C3121 C3138 1.574 . S
C3121 C3140 1.368 . S
C3121 H3145 0.949 . S
H3122 C3126 0.949 . S
C3123 C3124 1.349 . S
C3123 C3125 1.327 . S
C3123 H3146 0.950 . S
C3124 C3123 1.349 . S
C3124 C3136 1.349 . S
C3125 C3123 1.327 . S
C3125 C3141 1.429 . S
C3125 H3147 0.950 . S
C3126 H3122 0.949 . S
C3126 C3134 1.574 . S
C3126 C3142 1.368 . S
H3127 C3135 0.950 . S
H3128 C3133 0.950 . S
H3129 C3134 0.949 . S
H3130 C3136 0.950 . S
H3131 C3137 0.950 . S
H3132 C3138 0.949 . S
C3133 H3128 0.950 . S
C3133 C3135 1.327 . S
C3133 C3139 1.429 . S
C3134 C3126 1.574 . S
C3134 H3129 0.949 . S
C3134 C3140 1.368 . S
C3135 C3119 1.349 . S
C3135 H3127 0.950 . S
C3135 C3133 1.327 . S
C3136 C3124 1.349 . S
C3136 H3130 0.950 . S
C3136 C3137 1.327 . S
C3137 H3131 0.950 . S
C3137 C3136 1.327 . S
C3137 C3141 1.429 . S
C3138 C3121 1.574 . S
C3138 H3132 0.949 . S
C3138 C3142 1.368 . S
C3139 C3120 1.429 . S
C3139 C3133 1.429 . S
C3139 C3140 1.523 . S
C3140 C3121 1.368 . S
C3140 C3134 1.368 . S
C3140 C3139 1.523 . S
C3141 C3125 1.429 . S
C3141 C3137 1.429 . S
C3141 C3142 1.523 . S
C3142 C3126 1.368 . S
C3142 C3138 1.368 . S
C3142 C3141 1.523 . S
H3143 C3118 0.950 . S
H3144 C3120 0.950 . S
H3145 C3121 0.949 . S
H3146 C3123 0.950 . S
H3147 C3125 0.950 . S
C3148 C3149 1.349 . S
C3148 C3150 1.327 . S
C3148 H3173 0.950 . S
C3149 C3148 1.349 . S
C3149 C3165 1.349 . S
C3150 C3148 1.327 . S
C3150 C3169 1.429 . S
C3150 H3174 0.950 . S
C3151 C3168 1.574 . S
C3151 C3170 1.368 . S
C3151 H3175 0.949 . S
H3152 C3156 0.949 . S
C3153 C3154 1.349 . S
C3153 C3155 1.327 . S
C3153 H3176 0.950 . S
C3154 C3153 1.349 . S
C3154 C3166 1.349 . S
C3155 C3153 1.327 . S
C3155 C3171 1.429 . S
C3155 H3177 0.950 . S
C3156 H3152 0.949 . S
C3156 C3164 1.574 . S
C3156 C3172 1.368 . S
H3157 C3165 0.950 . S
H3158 C3163 0.950 . S
H3159 C3164 0.949 . S
H3160 C3166 0.950 . S
H3161 C3167 0.950 . S
H3162 C3168 0.949 . S
C3163 H3158 0.950 . S
C3163 C3165 1.327 . S
C3163 C3169 1.429 . S
C3164 C3156 1.574 . S
C3164 H3159 0.949 . S
C3164 C3170 1.368 . S
C3165 C3149 1.349 . S
C3165 H3157 0.950 . S
C3165 C3163 1.327 . S
C3166 C3154 1.349 . S
C3166 H3160 0.950 . S
C3166 C3167 1.327 . S
C3167 H3161 0.950 . S
C3167 C3166 1.327 . S
C3167 C3171 1.429 . S
C3168 C3151 1.574 . S
C3168 H3162 0.949 . S
C3168 C3172 1.368 . S
C3169 C3150 1.429 . S
C3169 C3163 1.429 . S
C3169 C3170 1.523 . S
C3170 C3151 1.368 . S
C3170 C3164 1.368 . S
C3170 C3169 1.523 . S
C3171 C3155 1.429 . S
C3171 C3167 1.429 . S
C3171 C3172 1.523 . S
C3172 C3156 1.368 . S
C3172 C3168 1.368 . S
C3172 C3171 1.523 . S
H3173 C3148 0.950 . S
H3174 C3150 0.950 . S
H3175 C3151 0.949 . S
H3176 C3153 0.950 . S
H3177 C3155 0.950 . S
C3178 C3179 1.349 . S
C3178 C3180 1.327 . S
C3178 H3203 0.950 . S
C3179 C3178 1.349 . S
C3179 C3195 1.349 . S
C3180 C3178 1.327 . S
C3180 C3199 1.429 . S
C3180 H3204 0.950 . S
C3181 C3198 1.574 . S
C3181 C3200 1.368 . S
C3181 H3205 0.949 . S
H3182 C3186 0.949 . S
C3183 C3184 1.349 . S
C3183 C3185 1.327 1_455 S
C3183 H3206 0.950 . S
C3184 C3183 1.349 . S
C3184 C3196 1.349 . S
C3185 C3183 1.327 1_655 S
C3185 C3201 1.429 . S
C3185 H3207 0.950 . S
C3186 H3182 0.949 . S
C3186 C3194 1.574 . S
C3186 C3202 1.368 . S
H3187 C3195 0.950 . S
H3188 C3193 0.950 . S
H3189 C3194 0.949 . S
H3190 C3196 0.950 . S
H3191 C3197 0.950 . S
H3192 C3198 0.949 . S
C3193 H3188 0.950 . S
C3193 C3195 1.327 . S
C3193 C3199 1.429 . S
C3194 C3186 1.574 . S
C3194 H3189 0.949 . S
C3194 C3200 1.368 . S
C3195 C3179 1.349 . S
C3195 H3187 0.950 . S
C3195 C3193 1.327 . S
C3196 C3184 1.349 . S
C3196 H3190 0.950 . S
C3196 C3197 1.327 1_455 S
C3197 H3191 0.950 . S
C3197 C3196 1.327 1_655 S
C3197 C3201 1.429 . S
C3198 C3181 1.574 . S
C3198 H3192 0.949 . S
C3198 C3202 1.368 . S
C3199 C3180 1.429 . S
C3199 C3193 1.429 . S
C3199 C3200 1.523 . S
C3200 C3181 1.368 . S
C3200 C3194 1.368 . S
C3200 C3199 1.523 . S
C3201 C3185 1.429 . S
C3201 C3197 1.429 . S
C3201 C3202 1.523 . S
C3202 C3186 1.368 . S
C3202 C3198 1.368 . S
C3202 C3201 1.523 . S
H3203 C3178 0.950 . S
H3204 C3180 0.950 . S
H3205 C3181 0.949 . S
H3206 C3183 0.950 . S
H3207 C3185 0.950 . S
C3208 C3209 1.349 . S
C3208 C3210 1.327 . S
C3208 H3233 0.950 . S
C3209 C3208 1.349 . S
C3209 C3225 1.349 . S
C3210 C3208 1.327 . S
C3210 C3229 1.429 . S
C3210 H3234 0.950 . S
C3211 C3228 1.574 . S
C3211 C3230 1.368 . S
C3211 H3235 0.949 . S
H3212 C3216 0.949 . S
C3213 C3214 1.349 . S
C3213 C3215 1.327 . S
C3213 H3236 0.950 . S
C3214 C3213 1.349 . S
C3214 C3226 1.349 . S
C3215 C3213 1.327 . S
C3215 C3231 1.429 . S
C3215 H3237 0.950 . S
C3216 H3212 0.949 . S
C3216 C3224 1.574 . S
C3216 C3232 1.368 . S
H3217 C3225 0.950 . S
H3218 C3223 0.950 . S
H3219 C3224 0.949 . S
H3220 C3226 0.950 . S
H3221 C3227 0.950 . S
H3222 C3228 0.949 . S
C3223 H3218 0.950 . S
C3223 C3225 1.327 . S
C3223 C3229 1.429 . S
C3224 C3216 1.574 . S
C3224 H3219 0.949 . S
C3224 C3230 1.368 . S
C3225 C3209 1.349 . S
C3225 H3217 0.950 . S
C3225 C3223 1.327 . S
C3226 C3214 1.349 . S
C3226 H3220 0.950 . S
C3226 C3227 1.327 . S
C3227 H3221 0.950 . S
C3227 C3226 1.327 . S
C3227 C3231 1.429 . S
C3228 C3211 1.574 . S
C3228 H3222 0.949 . S
C3228 C3232 1.368 . S
C3229 C3210 1.429 . S
C3229 C3223 1.429 . S
C3229 C3230 1.523 . S
C3230 C3211 1.368 . S
C3230 C3224 1.368 . S
C3230 C3229 1.523 . S
C3231 C3215 1.429 . S
C3231 C3227 1.429 . S
C3231 C3232 1.523 . S
C3232 C3216 1.368 . S
C3232 C3228 1.368 . S
C3232 C3231 1.523 . S
H3233 C3208 0.950 . S
H3234 C3210 0.950 . S
H3235 C3211 0.949 . S
H3236 C3213 0.950 . S
H3237 C3215 0.950 . S
C3238 C3239 1.349 . S
C3238 C3240 1.327 1_455 S
C3238 H3263 0.950 . S
C3239 C3238 1.349 . S
C3239 C3255 1.349 . S
C3240 C3238 1.327 1_655 S
C3240 C3259 1.429 . S
C3240 H3264 0.950 . S
C3241 C3258 1.574 . S
C3241 C3260 1.368 . S
C3241 H3265 0.949 . S
H3242 C3246 0.949 . S
C3243 C3244 1.349 . S
C3243 C3245 1.327 . S
C3243 H3266 0.950 . S
C3244 C3243 1.349 . S
C3244 C3256 1.349 . S
C3245 C3243 1.327 . S
C3245 C3261 1.429 . S
C3245 H3267 0.950 . S
C3246 H3242 0.949 . S
C3246 C3254 1.574 . S
C3246 C3262 1.368 . S
H3247 C3255 0.950 . S
H3248 C3253 0.950 . S
H3249 C3254 0.949 . S
H3250 C3256 0.950 . S
H3251 C3257 0.950 . S
H3252 C3258 0.949 . S
C3253 H3248 0.950 . S
C3253 C3255 1.327 1_655 S
C3253 C3259 1.429 . S
C3254 C3246 1.574 . S
C3254 H3249 0.949 . S
C3254 C3260 1.368 . S
C3255 C3239 1.349 . S
C3255 H3247 0.950 . S
C3255 C3253 1.327 1_455 S
C3256 C3244 1.349 . S
C3256 H3250 0.950 . S
C3256 C3257 1.327 . S
C3257 H3251 0.950 . S
C3257 C3256 1.327 . S
C3257 C3261 1.429 . S
C3258 C3241 1.574 . S
C3258 H3252 0.949 . S
C3258 C3262 1.368 . S
C3259 C3240 1.429 . S
C3259 C3253 1.429 . S
C3259 C3260 1.523 . S
C3260 C3241 1.368 . S
C3260 C3254 1.368 . S
C3260 C3259 1.523 . S
C3261 C3245 1.429 . S
C3261 C3257 1.429 . S
C3261 C3262 1.523 . S
C3262 C3246 1.368 . S
C3262 C3258 1.368 . S
C3262 C3261 1.523 . S
H3263 C3238 0.950 . S
H3264 C3240 0.950 . S
H3265 C3241 0.949 . S
H3266 C3243 0.950 . S
H3267 C3245 0.950 . S
C3268 C3269 1.349 . S
C3268 C3270 1.327 . S
C3268 H3293 0.950 . S
C3269 C3268 1.349 . S
C3269 C3285 1.349 . S
C3270 C3268 1.327 . S
C3270 C3289 1.429 . S
C3270 H3294 0.950 . S
C3271 C3288 1.574 . S
C3271 C3290 1.368 . S
C3271 H3295 0.949 . S
H3272 C3276 0.949 . S
C3273 C3274 1.349 . S
C3273 C3275 1.327 . S
C3273 H3296 0.950 . S
C3274 C3273 1.349 . S
C3274 C3286 1.349 . S
C3275 C3273 1.327 . S
C3275 C3291 1.429 . S
C3275 H3297 0.950 . S
C3276 H3272 0.949 . S
C3276 C3284 1.574 . S
C3276 C3292 1.368 . S
H3277 C3285 0.950 . S
H3278 C3283 0.950 . S
H3279 C3284 0.949 . S
H3280 C3286 0.950 . S
H3281 C3287 0.950 . S
H3282 C3288 0.949 . S
C3283 H3278 0.950 . S
C3283 C3285 1.327 . S
C3283 C3289 1.429 . S
C3284 C3276 1.574 . S
C3284 H3279 0.949 . S
C3284 C3290 1.368 . S
C3285 C3269 1.349 . S
C3285 H3277 0.950 . S
C3285 C3283 1.327 . S
C3286 C3274 1.349 . S
C3286 H3280 0.950 . S
C3286 C3287 1.327 . S
C3287 H3281 0.950 . S
C3287 C3286 1.327 . S
C3287 C3291 1.429 . S
C3288 C3271 1.574 . S
C3288 H3282 0.949 . S
C3288 C3292 1.368 . S
C3289 C3270 1.429 . S
C3289 C3283 1.429 . S
C3289 C3290 1.523 . S
C3290 C3271 1.368 . S
C3290 C3284 1.368 . S
C3290 C3289 1.523 . S
C3291 C3275 1.429 . S
C3291 C3287 1.429 . S
C3291 C3292 1.523 . S
C3292 C3276 1.368 . S
C3292 C3288 1.368 . S
C3292 C3291 1.523 . S
H3293 C3268 0.950 . S
H3294 C3270 0.950 . S
H3295 C3271 0.949 . S
H3296 C3273 0.950 . S
H3297 C3275 0.950 . S
C3298 C3299 1.349 . S
C3298 C3300 1.327 . S
C3298 H3323 0.950 . S
C3299 C3298 1.349 . S
C3299 C3315 1.349 . S
C3300 C3298 1.327 . S
C3300 C3319 1.429 . S
C3300 H3324 0.950 . S
C3301 C3318 1.574 . S
C3301 C3320 1.368 . S
C3301 H3325 0.949 . S
H3302 C3306 0.949 . S
C3303 C3304 1.349 . S
C3303 C3305 1.327 . S
C3303 H3326 0.950 . S
C3304 C3303 1.349 . S
C3304 C3316 1.349 . S
C3305 C3303 1.327 . S
C3305 C3321 1.429 . S
C3305 H3327 0.950 . S
C3306 H3302 0.949 . S
C3306 C3314 1.574 . S
C3306 C3322 1.368 . S
H3307 C3315 0.950 . S
H3308 C3313 0.950 . S
H3309 C3314 0.949 . S
H3310 C3316 0.950 . S
H3311 C3317 0.950 . S
H3312 C3318 0.949 . S
C3313 H3308 0.950 . S
C3313 C3315 1.327 . S
C3313 C3319 1.429 . S
C3314 C3306 1.574 . S
C3314 H3309 0.949 . S
C3314 C3320 1.368 . S
C3315 C3299 1.349 . S
C3315 H3307 0.950 . S
C3315 C3313 1.327 . S
C3316 C3304 1.349 . S
C3316 H3310 0.950 . S
C3316 C3317 1.327 . S
C3317 H3311 0.950 . S
C3317 C3316 1.327 . S
C3317 C3321 1.429 . S
C3318 C3301 1.574 . S
C3318 H3312 0.949 . S
C3318 C3322 1.368 . S
C3319 C3300 1.429 . S
C3319 C3313 1.429 . S
C3319 C3320 1.523 . S
C3320 C3301 1.368 . S
C3320 C3314 1.368 . S
C3320 C3319 1.523 . S
C3321 C3305 1.429 . S
C3321 C3317 1.429 . S
C3321 C3322 1.523 . S
C3322 C3306 1.368 . S
C3322 C3318 1.368 . S
C3322 C3321 1.523 . S
H3323 C3298 0.950 . S
H3324 C3300 0.950 . S
H3325 C3301 0.949 . S
H3326 C3303 0.950 . S
H3327 C3305 0.950 . S
C3328 C3329 1.349 . S
C3328 C3330 1.327 . S
C3328 H3353 0.950 . S
C3329 C3328 1.349 . S
C3329 C3345 1.349 . S
C3330 C3328 1.327 . S
C3330 C3349 1.429 . S
C3330 H3354 0.950 . S
C3331 C3348 1.574 . S
C3331 C3350 1.368 . S
C3331 H3355 0.949 . S
H3332 C3336 0.949 . S
C3333 C3334 1.349 . S
C3333 C3335 1.327 . S
C3333 H3356 0.950 . S
C3334 C3333 1.349 . S
C3334 C3346 1.349 . S
C3335 C3333 1.327 . S
C3335 C3351 1.429 . S
C3335 H3357 0.950 . S
C3336 H3332 0.949 . S
C3336 C3344 1.574 . S
C3336 C3352 1.368 . S
H3337 C3345 0.950 . S
H3338 C3343 0.950 . S
H3339 C3344 0.949 . S
H3340 C3346 0.950 . S
H3341 C3347 0.950 . S
H3342 C3348 0.949 . S
C3343 H3338 0.950 . S
C3343 C3345 1.327 . S
C3343 C3349 1.429 . S
C3344 C3336 1.574 . S
C3344 H3339 0.949 . S
C3344 C3350 1.368 . S
C3345 C3329 1.349 . S
C3345 H3337 0.950 . S
C3345 C3343 1.327 . S
C3346 C3334 1.349 . S
C3346 H3340 0.950 . S
C3346 C3347 1.327 . S
C3347 H3341 0.950 . S
C3347 C3346 1.327 . S
C3347 C3351 1.429 . S
C3348 C3331 1.574 . S
C3348 H3342 0.949 . S
C3348 C3352 1.368 . S
C3349 C3330 1.429 . S
C3349 C3343 1.429 . S
C3349 C3350 1.523 . S
C3350 C3331 1.368 . S
C3350 C3344 1.368 . S
C3350 C3349 1.523 . S
C3351 C3335 1.429 . S
C3351 C3347 1.429 . S
C3351 C3352 1.523 . S
C3352 C3336 1.368 . S
C3352 C3348 1.368 . S
C3352 C3351 1.523 . S
H3353 C3328 0.950 . S
H3354 C3330 0.950 . S
H3355 C3331 0.949 . S
H3356 C3333 0.950 . S
H3357 C3335 0.950 . S
C3358 C3359 1.349 . S
C3358 C3360 1.327 . S
C3358 H3383 0.950 . S
C3359 C3358 1.349 . S
C3359 C3375 1.349 . S
C3360 C3358 1.327 . S
C3360 C3379 1.429 . S
C3360 H3384 0.950 . S
C3361 C3378 1.574 . S
C3361 C3380 1.368 . S
C3361 H3385 0.949 . S
H3362 C3366 0.949 . S
C3363 C3364 1.349 . S
C3363 C3365 1.327 . S
C3363 H3386 0.950 . S
C3364 C3363 1.349 . S
C3364 C3376 1.349 . S
C3365 C3363 1.327 . S
C3365 C3381 1.429 . S
C3365 H3387 0.950 . S
C3366 H3362 0.949 . S
C3366 C3374 1.574 . S
C3366 C3382 1.368 . S
H3367 C3375 0.950 . S
H3368 C3373 0.950 . S
H3369 C3374 0.949 . S
H3370 C3376 0.950 . S
H3371 C3377 0.950 . S
H3372 C3378 0.949 . S
C3373 H3368 0.950 . S
C3373 C3375 1.327 . S
C3373 C3379 1.429 . S
C3374 C3366 1.574 . S
C3374 H3369 0.949 . S
C3374 C3380 1.368 . S
C3375 C3359 1.349 . S
C3375 H3367 0.950 . S
C3375 C3373 1.327 . S
C3376 C3364 1.349 . S
C3376 H3370 0.950 . S
C3376 C3377 1.327 . S
C3377 H3371 0.950 . S
C3377 C3376 1.327 . S
C3377 C3381 1.429 . S
C3378 C3361 1.574 . S
C3378 H3372 0.949 . S
C3378 C3382 1.368 . S
C3379 C3360 1.429 . S
C3379 C3373 1.429 . S
C3379 C3380 1.523 . S
C3380 C3361 1.368 . S
C3380 C3374 1.368 . S
C3380 C3379 1.523 . S
C3381 C3365 1.429 . S
C3381 C3377 1.429 . S
C3381 C3382 1.523 . S
C3382 C3366 1.368 . S
C3382 C3378 1.368 . S
C3382 C3381 1.523 . S
H3383 C3358 0.950 . S
H3384 C3360 0.950 . S
H3385 C3361 0.949 . S
H3386 C3363 0.950 . S
H3387 C3365 0.950 . S
C3388 C3389 1.349 . S
C3388 C3390 1.327 . S
C3388 H3413 0.950 . S
C3389 C3388 1.349 . S
C3389 C3405 1.349 . S
C3390 C3388 1.327 . S
C3390 C3409 1.429 . S
C3390 H3414 0.950 . S
C3391 C3408 1.574 . S
C3391 C3410 1.368 . S
C3391 H3415 0.949 . S
H3392 C3396 0.949 . S
C3393 C3394 1.349 . S
C3393 C3395 1.327 . S
C3393 H3416 0.950 . S
C3394 C3393 1.349 . S
C3394 C3406 1.349 . S
C3395 C3393 1.327 . S
C3395 C3411 1.429 . S
C3395 H3417 0.950 . S
C3396 H3392 0.949 . S
C3396 C3404 1.574 . S
C3396 C3412 1.368 . S
H3397 C3405 0.950 . S
H3398 C3403 0.950 . S
H3399 C3404 0.949 . S
H3400 C3406 0.950 . S
H3401 C3407 0.950 . S
H3402 C3408 0.949 . S
C3403 H3398 0.950 . S
C3403 C3405 1.327 . S
C3403 C3409 1.429 . S
C3404 C3396 1.574 . S
C3404 H3399 0.949 . S
C3404 C3410 1.368 . S
C3405 C3389 1.349 . S
C3405 H3397 0.950 . S
C3405 C3403 1.327 . S
C3406 C3394 1.349 . S
C3406 H3400 0.950 . S
C3406 C3407 1.327 . S
C3407 H3401 0.950 . S
C3407 C3406 1.327 . S
C3407 C3411 1.429 . S
C3408 C3391 1.574 . S
C3408 H3402 0.949 . S
C3408 C3412 1.368 . S
C3409 C3390 1.429 . S
C3409 C3403 1.429 . S
C3409 C3410 1.523 . S
C3410 C3391 1.368 . S
C3410 C3404 1.368 . S
C3410 C3409 1.523 . S
C3411 C3395 1.429 . S
C3411 C3407 1.429 . S
C3411 C3412 1.523 . S
C3412 C3396 1.368 . S
C3412 C3408 1.368 . S
C3412 C3411 1.523 . S
H3413 C3388 0.950 . S
H3414 C3390 0.950 . S
H3415 C3391 0.949 . S
H3416 C3393 0.950 . S
H3417 C3395 0.950 . S
C3418 C3419 1.349 . S
C3418 C3420 1.327 . S
C3418 H3443 0.950 . S
C3419 C3418 1.349 . S
C3419 C3435 1.349 . S
C3420 C3418 1.327 . S
C3420 C3439 1.429 . S
C3420 H3444 0.950 . S
C3421 C3438 1.574 . S
C3421 C3440 1.368 1_554 S
C3421 H3445 0.949 . S
H3422 C3426 0.949 . S
C3423 C3424 1.349 . S
C3423 C3425 1.327 . S
C3423 H3446 0.950 . S
C3424 C3423 1.349 . S
C3424 C3436 1.349 . S
C3425 C3423 1.327 . S
C3425 C3441 1.429 . S
C3425 H3447 0.950 . S
C3426 H3422 0.949 . S
C3426 C3434 1.574 . S
C3426 C3442 1.368 1_556 S
H3427 C3435 0.950 . S
H3428 C3433 0.950 1_554 S
H3429 C3434 0.949 . S
H3430 C3436 0.950 . S
H3431 C3437 0.950 1_556 S
H3432 C3438 0.949 . S
C3433 H3428 0.950 1_556 S
C3433 C3435 1.327 . S
C3433 C3439 1.429 . S
C3434 C3426 1.574 . S
C3434 H3429 0.949 . S
C3434 C3440 1.368 . S
C3435 C3419 1.349 . S
C3435 H3427 0.950 . S
C3435 C3433 1.327 . S
C3436 C3424 1.349 . S
C3436 H3430 0.950 . S
C3436 C3437 1.327 . S
C3437 H3431 0.950 1_554 S
C3437 C3436 1.327 . S
C3437 C3441 1.429 . S
C3438 C3421 1.574 . S
C3438 H3432 0.949 . S
C3438 C3442 1.368 . S
C3439 C3420 1.429 . S
C3439 C3433 1.429 . S
C3439 C3440 1.523 . S
C3440 C3421 1.368 1_556 S
C3440 C3434 1.368 . S
C3440 C3439 1.523 . S
C3441 C3425 1.429 . S
C3441 C3437 1.429 . S
C3441 C3442 1.523 . S
C3442 C3426 1.368 1_554 S
C3442 C3438 1.368 . S
C3442 C3441 1.523 . S
H3443 C3418 0.950 . S
H3444 C3420 0.950 . S
H3445 C3421 0.949 . S
H3446 C3423 0.950 . S
H3447 C3425 0.950 . S
C3448 C3449 1.349 . S
C3448 C3450 1.327 . S
C3448 H3473 0.950 . S
C3449 C3448 1.349 . S
C3449 C3465 1.349 . S
C3450 C3448 1.327 . S
C3450 C3469 1.429 . S
C3450 H3474 0.950 . S
C3451 C3468 1.574 . S
C3451 C3470 1.368 . S
C3451 H3475 0.949 . S
H3452 C3456 0.949 . S
C3453 C3454 1.349 . S
C3453 C3455 1.327 . S
C3453 H3476 0.950 . S
C3454 C3453 1.349 . S
C3454 C3466 1.349 . S
C3455 C3453 1.327 . S
C3455 C3471 1.429 . S
C3455 H3477 0.950 . S
C3456 H3452 0.949 . S
C3456 C3464 1.574 . S
C3456 C3472 1.368 . S
H3457 C3465 0.950 . S
H3458 C3463 0.950 . S
H3459 C3464 0.949 . S
H3460 C3466 0.950 . S
H3461 C3467 0.950 . S
H3462 C3468 0.949 . S
C3463 H3458 0.950 . S
C3463 C3465 1.327 . S
C3463 C3469 1.429 . S
C3464 C3456 1.574 . S
C3464 H3459 0.949 . S
C3464 C3470 1.368 . S
C3465 C3449 1.349 . S
C3465 H3457 0.950 . S
C3465 C3463 1.327 . S
C3466 C3454 1.349 . S
C3466 H3460 0.950 . S
C3466 C3467 1.327 . S
C3467 H3461 0.950 . S
C3467 C3466 1.327 . S
C3467 C3471 1.429 . S
C3468 C3451 1.574 . S
C3468 H3462 0.949 . S
C3468 C3472 1.368 . S
C3469 C3450 1.429 . S
C3469 C3463 1.429 . S
C3469 C3470 1.523 . S
C3470 C3451 1.368 . S
C3470 C3464 1.368 . S
C3470 C3469 1.523 . S
C3471 C3455 1.429 . S
C3471 C3467 1.429 . S
C3471 C3472 1.523 . S
C3472 C3456 1.368 . S
C3472 C3468 1.368 . S
C3472 C3471 1.523 . S
H3473 C3448 0.950 . S
H3474 C3450 0.950 . S
H3475 C3451 0.949 . S
H3476 C3453 0.950 . S
H3477 C3455 0.950 . S
C3478 C3479 1.349 . S
C3478 C3480 1.327 . S
C3478 H3503 0.950 . S
C3479 C3478 1.349 . S
C3479 C3495 1.349 . S
C3480 C3478 1.327 . S
C3480 C3499 1.429 . S
C3480 H3504 0.950 . S
C3481 C3498 1.574 . S
C3481 C3500 1.368 . S
C3481 H3505 0.949 . S
H3482 C3486 0.949 . S
C3483 C3484 1.349 . S
C3483 C3485 1.327 . S
C3483 H3506 0.950 . S
C3484 C3483 1.349 . S
C3484 C3496 1.349 . S
C3485 C3483 1.327 . S
C3485 C3501 1.429 . S
C3485 H3507 0.950 . S
C3486 H3482 0.949 . S
C3486 C3494 1.574 . S
C3486 C3502 1.368 . S
H3487 C3495 0.950 . S
H3488 C3493 0.950 . S
H3489 C3494 0.949 . S
H3490 C3496 0.950 . S
H3491 C3497 0.950 . S
H3492 C3498 0.949 . S
C3493 H3488 0.950 . S
C3493 C3495 1.327 . S
C3493 C3499 1.429 . S
C3494 C3486 1.574 . S
C3494 H3489 0.949 . S
C3494 C3500 1.368 . S
C3495 C3479 1.349 . S
C3495 H3487 0.950 . S
C3495 C3493 1.327 . S
C3496 C3484 1.349 . S
C3496 H3490 0.950 . S
C3496 C3497 1.327 . S
C3497 H3491 0.950 . S
C3497 C3496 1.327 . S
C3497 C3501 1.429 . S
C3498 C3481 1.574 . S
C3498 H3492 0.949 . S
C3498 C3502 1.368 . S
C3499 C3480 1.429 . S
C3499 C3493 1.429 . S
C3499 C3500 1.523 . S
C3500 C3481 1.368 . S
C3500 C3494 1.368 . S
C3500 C3499 1.523 . S
C3501 C3485 1.429 . S
C3501 C3497 1.429 . S
C3501 C3502 1.523 . S
C3502 C3486 1.368 . S
C3502 C3498 1.368 . S
C3502 C3501 1.523 . S
H3503 C3478 0.950 . S
H3504 C3480 0.950 . S
H3505 C3481 0.949 . S
H3506 C3483 0.950 . S
H3507 C3485 0.950 . S
C3508 C3509 1.349 . S
C3508 C3510 1.327 . S
C3508 H3533 0.950 . S
C3509 C3508 1.349 . S
C3509 C3525 1.349 . S
C3510 C3508 1.327 . S
C3510 C3529 1.429 . S
C3510 H3534 0.950 . S
C3511 C3528 1.574 . S
C3511 C3530 1.368 . S
C3511 H3535 0.949 . S
H3512 C3516 0.949 . S
C3513 C3514 1.349 . S
C3513 C3515 1.327 . S
C3513 H3536 0.950 . S
C3514 C3513 1.349 . S
C3514 C3526 1.349 . S
C3515 C3513 1.327 . S
C3515 C3531 1.429 . S
C3515 H3537 0.950 . S
C3516 H3512 0.949 . S
C3516 C3524 1.574 . S
C3516 C3532 1.368 . S
H3517 C3525 0.950 . S
H3518 C3523 0.950 . S
H3519 C3524 0.949 . S
H3520 C3526 0.950 . S
H3521 C3527 0.950 . S
H3522 C3528 0.949 . S
C3523 H3518 0.950 . S
C3523 C3525 1.327 . S
C3523 C3529 1.429 . S
C3524 C3516 1.574 . S
C3524 H3519 0.949 . S
C3524 C3530 1.368 . S
C3525 C3509 1.349 . S
C3525 H3517 0.950 . S
C3525 C3523 1.327 . S
C3526 C3514 1.349 . S
C3526 H3520 0.950 . S
C3526 C3527 1.327 . S
C3527 H3521 0.950 . S
C3527 C3526 1.327 . S
C3527 C3531 1.429 . S
C3528 C3511 1.574 . S
C3528 H3522 0.949 . S
C3528 C3532 1.368 . S
C3529 C3510 1.429 . S
C3529 C3523 1.429 . S
C3529 C3530 1.523 . S
C3530 C3511 1.368 . S
C3530 C3524 1.368 . S
C3530 C3529 1.523 . S
C3531 C3515 1.429 . S
C3531 C3527 1.429 . S
C3531 C3532 1.523 . S
C3532 C3516 1.368 . S
C3532 C3528 1.368 . S
C3532 C3531 1.523 . S
H3533 C3508 0.950 . S
H3534 C3510 0.950 . S
H3535 C3511 0.949 . S
H3536 C3513 0.950 . S
H3537 C3515 0.950 . S
C3538 C3539 1.349 . S
C3538 C3540 1.327 . S
C3538 H3563 0.950 . S
C3539 C3538 1.349 . S
C3539 C3555 1.349 . S
C3540 C3538 1.327 . S
C3540 C3559 1.429 . S
C3540 H3564 0.950 . S
C3541 C3558 1.574 . S
C3541 C3560 1.368 1_556 S
C3541 H3565 0.949 . S
H3542 C3546 0.949 . S
C3543 C3544 1.349 . S
C3543 C3545 1.327 . S
C3543 H3566 0.950 . S
C3544 C3543 1.349 . S
C3544 C3556 1.349 . S
C3545 C3543 1.327 . S
C3545 C3561 1.429 . S
C3545 H3567 0.950 . S
C3546 H3542 0.949 . S
C3546 C3554 1.574 . S
C3546 C3562 1.368 1_554 S
H3547 C3555 0.950 . S
H3548 C3553 0.950 1_556 S
H3549 C3554 0.949 . S
H3550 C3556 0.950 . S
H3551 C3557 0.950 1_554 S
H3552 C3558 0.949 . S
C3553 H3548 0.950 1_554 S
C3553 C3555 1.327 . S
C3553 C3559 1.429 . S
C3554 C3546 1.574 . S
C3554 H3549 0.949 . S
C3554 C3560 1.368 . S
C3555 C3539 1.349 . S
C3555 H3547 0.950 . S
C3555 C3553 1.327 . S
C3556 C3544 1.349 . S
C3556 H3550 0.950 . S
C3556 C3557 1.327 . S
C3557 H3551 0.950 1_556 S
C3557 C3556 1.327 . S
C3557 C3561 1.429 . S
C3558 C3541 1.574 . S
C3558 H3552 0.949 . S
C3558 C3562 1.368 . S
C3559 C3540 1.429 . S
C3559 C3553 1.429 . S
C3559 C3560 1.523 . S
C3560 C3541 1.368 1_554 S
C3560 C3554 1.368 . S
C3560 C3559 1.523 . S
C3561 C3545 1.429 . S
C3561 C3557 1.429 . S
C3561 C3562 1.523 . S
C3562 C3546 1.368 1_556 S
C3562 C3558 1.368 . S
C3562 C3561 1.523 . S
H3563 C3538 0.950 . S
H3564 C3540 0.950 . S
H3565 C3541 0.949 . S
H3566 C3543 0.950 . S
H3567 C3545 0.950 . S
C3568 C3569 1.349 . S
C3568 C3570 1.327 . S
C3568 H3593 0.950 . S
C3569 C3568 1.349 . S
C3569 C3585 1.349 . S
C3570 C3568 1.327 . S
C3570 C3589 1.429 . S
C3570 H3594 0.950 . S
C3571 C3588 1.574 1_565 S
C3571 C3590 1.368 . S
C3571 H3595 0.949 . S
H3572 C3576 0.949 . S
C3573 C3574 1.349 . S
C3573 C3575 1.327 . S
C3573 H3596 0.950 . S
C3574 C3573 1.349 . S
C3574 C3586 1.349 . S
C3575 C3573 1.327 . S
C3575 C3591 1.429 . S
C3575 H3597 0.950 . S
C3576 H3572 0.949 . S
C3576 C3584 1.574 1_545 S
C3576 C3592 1.368 . S
H3577 C3585 0.950 . S
H3578 C3583 0.950 . S
H3579 C3584 0.949 . S
H3580 C3586 0.950 . S
H3581 C3587 0.950 . S
H3582 C3588 0.949 . S
C3583 H3578 0.950 . S
C3583 C3585 1.327 . S
C3583 C3589 1.429 . S
C3584 C3576 1.574 1_565 S
C3584 H3579 0.949 . S
C3584 C3590 1.368 . S
C3585 C3569 1.349 . S
C3585 H3577 0.950 . S
C3585 C3583 1.327 . S
C3586 C3574 1.349 . S
C3586 H3580 0.950 . S
C3586 C3587 1.327 . S
C3587 H3581 0.950 . S
C3587 C3586 1.327 . S
C3587 C3591 1.429 . S
C3588 C3571 1.574 1_545 S
C3588 H3582 0.949 . S
C3588 C3592 1.368 . S
C3589 C3570 1.429 . S
C3589 C3583 1.429 . S
C3589 C3590 1.523 . S
C3590 C3571 1.368 . S
C3590 C3584 1.368 . S
C3590 C3589 1.523 . S
C3591 C3575 1.429 . S
C3591 C3587 1.429 . S
C3591 C3592 1.523 . S
C3592 C3576 1.368 . S
C3592 C3588 1.368 . S
C3592 C3591 1.523 . S
H3593 C3568 0.950 . S
H3594 C3570 0.950 . S
H3595 C3571 0.949 . S
H3596 C3573 0.950 . S
H3597 C3575 0.950 . S
C3598 C3599 1.349 . S
C3598 C3600 1.327 . S
C3598 H3623 0.950 . S
C3599 C3598 1.349 . S
C3599 C3615 1.349 . S
C3600 C3598 1.327 . S
C3600 C3619 1.429 . S
C3600 H3624 0.950 . S
C3601 C3618 1.574 . S
C3601 C3620 1.368 1_556 S
C3601 H3625 0.949 . S
H3602 C3606 0.949 . S
C3603 C3604 1.349 . S
C3603 C3605 1.327 . S
C3603 H3626 0.950 . S
C3604 C3603 1.349 . S
C3604 C3616 1.349 . S
C3605 C3603 1.327 . S
C3605 C3621 1.429 . S
C3605 H3627 0.950 . S
C3606 H3602 0.949 . S
C3606 C3614 1.574 . S
C3606 C3622 1.368 1_554 S
H3607 C3615 0.950 . S
H3608 C3613 0.950 1_556 S
H3609 C3614 0.949 . S
H3610 C3616 0.950 . S
H3611 C3617 0.950 1_554 S
H3612 C3618 0.949 . S
C3613 H3608 0.950 1_554 S
C3613 C3615 1.327 . S
C3613 C3619 1.429 . S
C3614 C3606 1.574 . S
C3614 H3609 0.949 . S
C3614 C3620 1.368 . S
C3615 C3599 1.349 . S
C3615 H3607 0.950 . S
C3615 C3613 1.327 . S
C3616 C3604 1.349 . S
C3616 H3610 0.950 . S
C3616 C3617 1.327 . S
C3617 H3611 0.950 1_556 S
C3617 C3616 1.327 . S
C3617 C3621 1.429 . S
C3618 C3601 1.574 . S
C3618 H3612 0.949 . S
C3618 C3622 1.368 . S
C3619 C3600 1.429 . S
C3619 C3613 1.429 . S
C3619 C3620 1.523 . S
C3620 C3601 1.368 1_554 S
C3620 C3614 1.368 . S
C3620 C3619 1.523 . S
C3621 C3605 1.429 . S
C3621 C3617 1.429 . S
C3621 C3622 1.523 . S
C3622 C3606 1.368 1_556 S
C3622 C3618 1.368 . S
C3622 C3621 1.523 . S
H3623 C3598 0.950 . S
H3624 C3600 0.950 . S
H3625 C3601 0.949 . S
H3626 C3603 0.950 . S
H3627 C3605 0.950 . S
C3628 C3629 1.349 . S
C3628 C3630 1.327 . S
C3628 H3653 0.950 . S
C3629 C3628 1.349 . S
C3629 C3645 1.349 . S
C3630 C3628 1.327 . S
C3630 C3649 1.429 . S
C3630 H3654 0.950 . S
C3631 C3648 1.574 1_545 S
C3631 C3650 1.368 . S
C3631 H3655 0.949 . S
H3632 C3636 0.949 . S
C3633 C3634 1.349 . S
C3633 C3635 1.327 . S
C3633 H3656 0.950 . S
C3634 C3633 1.349 . S
C3634 C3646 1.349 . S
C3635 C3633 1.327 . S
C3635 C3651 1.429 . S
C3635 H3657 0.950 . S
C3636 H3632 0.949 . S
C3636 C3644 1.574 1_565 S
C3636 C3652 1.368 . S
H3637 C3645 0.950 . S
H3638 C3643 0.950 . S
H3639 C3644 0.949 . S
H3640 C3646 0.950 . S
H3641 C3647 0.950 . S
H3642 C3648 0.949 . S
C3643 H3638 0.950 . S
C3643 C3645 1.327 . S
C3643 C3649 1.429 . S
C3644 C3636 1.574 1_545 S
C3644 H3639 0.949 . S
C3644 C3650 1.368 . S
C3645 C3629 1.349 . S
C3645 H3637 0.950 . S
C3645 C3643 1.327 . S
C3646 C3634 1.349 . S
C3646 H3640 0.950 . S
C3646 C3647 1.327 . S
C3647 H3641 0.950 . S
C3647 C3646 1.327 . S
C3647 C3651 1.429 . S
C3648 C3631 1.574 1_565 S
C3648 H3642 0.949 . S
C3648 C3652 1.368 . S
C3649 C3630 1.429 . S
C3649 C3643 1.429 . S
C3649 C3650 1.523 . S
C3650 C3631 1.368 . S
C3650 C3644 1.368 . S
C3650 C3649 1.523 . S
C3651 C3635 1.429 . S
C3651 C3647 1.429 . S
C3651 C3652 1.523 . S
C3652 C3636 1.368 . S
C3652 C3648 1.368 . S
C3652 C3651 1.523 . S
H3653 C3628 0.950 . S
H3654 C3630 0.950 . S
H3655 C3631 0.949 . S
H3656 C3633 0.950 . S
H3657 C3635 0.950 . S
C3658 C3659 1.349 . S
C3658 C3660 1.327 . S
C3658 H3683 0.950 . S
C3659 C3658 1.349 . S
C3659 C3675 1.349 . S
C3660 C3658 1.327 . S
C3660 C3679 1.429 . S
C3660 H3684 0.950 . S
C3661 C3678 1.574 . S
C3661 C3680 1.368 . S
C3661 H3685 0.949 . S
H3662 C3666 0.949 . S
C3663 C3664 1.349 . S
C3663 C3665 1.327 . S
C3663 H3686 0.950 . S
C3664 C3663 1.349 . S
C3664 C3676 1.349 . S
C3665 C3663 1.327 . S
C3665 C3681 1.429 . S
C3665 H3687 0.950 . S
C3666 H3662 0.949 . S
C3666 C3674 1.574 . S
C3666 C3682 1.368 . S
H3667 C3675 0.950 . S
H3668 C3673 0.950 . S
H3669 C3674 0.949 . S
H3670 C3676 0.950 . S
H3671 C3677 0.950 . S
H3672 C3678 0.949 . S
C3673 H3668 0.950 . S
C3673 C3675 1.327 . S
C3673 C3679 1.429 . S
C3674 C3666 1.574 . S
C3674 H3669 0.949 . S
C3674 C3680 1.368 . S
C3675 C3659 1.349 . S
C3675 H3667 0.950 . S
C3675 C3673 1.327 . S
C3676 C3664 1.349 . S
C3676 H3670 0.950 . S
C3676 C3677 1.327 . S
C3677 H3671 0.950 . S
C3677 C3676 1.327 . S
C3677 C3681 1.429 . S
C3678 C3661 1.574 . S
C3678 H3672 0.949 . S
C3678 C3682 1.368 . S
C3679 C3660 1.429 . S
C3679 C3673 1.429 . S
C3679 C3680 1.523 . S
C3680 C3661 1.368 . S
C3680 C3674 1.368 . S
C3680 C3679 1.523 . S
C3681 C3665 1.429 . S
C3681 C3677 1.429 . S
C3681 C3682 1.523 . S
C3682 C3666 1.368 . S
C3682 C3678 1.368 . S
C3682 C3681 1.523 . S
H3683 C3658 0.950 . S
H3684 C3660 0.950 . S
H3685 C3661 0.949 . S
H3686 C3663 0.950 . S
H3687 C3665 0.950 . S
C3688 C3689 1.349 . S
C3688 C3690 1.327 . S
C3688 H3713 0.950 . S
C3689 C3688 1.349 . S
C3689 C3705 1.349 . S
C3690 C3688 1.327 . S
C3690 C3709 1.429 . S
C3690 H3714 0.950 . S
C3691 C3708 1.574 1_545 S
C3691 C3710 1.368 . S
C3691 H3715 0.949 . S
H3692 C3696 0.949 . S
C3693 C3694 1.349 . S
C3693 C3695 1.327 . S
C3693 H3716 0.950 . S
C3694 C3693 1.349 . S
C3694 C3706 1.349 . S
C3695 C3693 1.327 . S
C3695 C3711 1.429 . S
C3695 H3717 0.950 . S
C3696 H3692 0.949 . S
C3696 C3704 1.574 1_565 S
C3696 C3712 1.368 . S
H3697 C3705 0.950 . S
H3698 C3703 0.950 . S
H3699 C3704 0.949 . S
H3700 C3706 0.950 . S
H3701 C3707 0.950 . S
H3702 C3708 0.949 . S
C3703 H3698 0.950 . S
C3703 C3705 1.327 . S
C3703 C3709 1.429 . S
C3704 C3696 1.574 1_545 S
C3704 H3699 0.949 . S
C3704 C3710 1.368 . S
C3705 C3689 1.349 . S
C3705 H3697 0.950 . S
C3705 C3703 1.327 . S
C3706 C3694 1.349 . S
C3706 H3700 0.950 . S
C3706 C3707 1.327 . S
C3707 H3701 0.950 . S
C3707 C3706 1.327 . S
C3707 C3711 1.429 . S
C3708 C3691 1.574 1_565 S
C3708 H3702 0.949 . S
C3708 C3712 1.368 . S
C3709 C3690 1.429 . S
C3709 C3703 1.429 . S
C3709 C3710 1.523 . S
C3710 C3691 1.368 . S
C3710 C3704 1.368 . S
C3710 C3709 1.523 . S
C3711 C3695 1.429 . S
C3711 C3707 1.429 . S
C3711 C3712 1.523 . S
C3712 C3696 1.368 . S
C3712 C3708 1.368 . S
C3712 C3711 1.523 . S
H3713 C3688 0.950 . S
H3714 C3690 0.950 . S
H3715 C3691 0.949 . S
H3716 C3693 0.950 . S
H3717 C3695 0.950 . S
C3718 C3719 1.349 . S
C3718 C3720 1.327 . S
C3718 H3743 0.950 . S
C3719 C3718 1.349 . S
C3719 C3735 1.349 . S
C3720 C3718 1.327 . S
C3720 C3739 1.429 . S
C3720 H3744 0.950 1_554 S
C3721 C3738 1.574 . S
C3721 C3740 1.368 . S
C3721 H3745 0.949 . S
H3722 C3726 0.949 . S
C3723 C3724 1.349 . S
C3723 C3725 1.327 . S
C3723 H3746 0.950 . S
C3724 C3723 1.349 . S
C3724 C3736 1.349 . S
C3725 C3723 1.327 . S
C3725 C3741 1.429 . S
C3725 H3747 0.950 1_556 S
C3726 H3722 0.949 . S
C3726 C3734 1.574 . S
C3726 C3742 1.368 . S
H3727 C3735 0.950 . S
H3728 C3733 0.950 . S
H3729 C3734 0.949 . S
H3730 C3736 0.950 . S
H3731 C3737 0.950 . S
H3732 C3738 0.949 . S
C3733 H3728 0.950 . S
C3733 C3735 1.327 . S
C3733 C3739 1.429 . S
C3734 C3726 1.574 . S
C3734 H3729 0.949 . S
C3734 C3740 1.368 1_556 S
C3735 C3719 1.349 . S
C3735 H3727 0.950 . S
C3735 C3733 1.327 . S
C3736 C3724 1.349 . S
C3736 H3730 0.950 . S
C3736 C3737 1.327 . S
C3737 H3731 0.950 . S
C3737 C3736 1.327 . S
C3737 C3741 1.429 . S
C3738 C3721 1.574 . S
C3738 H3732 0.949 . S
C3738 C3742 1.368 1_554 S
C3739 C3720 1.429 . S
C3739 C3733 1.429 . S
C3739 C3740 1.523 . S
C3740 C3721 1.368 . S
C3740 C3734 1.368 1_554 S
C3740 C3739 1.523 . S
C3741 C3725 1.429 . S
C3741 C3737 1.429 . S
C3741 C3742 1.523 . S
C3742 C3726 1.368 . S
C3742 C3738 1.368 1_556 S
C3742 C3741 1.523 . S
H3743 C3718 0.950 . S
H3744 C3720 0.950 1_556 S
H3745 C3721 0.949 . S
H3746 C3723 0.950 . S
H3747 C3725 0.950 1_554 S
C3748 C3749 1.349 . S
C3748 C3750 1.327 . S
C3748 H3773 0.950 . S
C3749 C3748 1.349 . S
C3749 C3765 1.349 . S
C3750 C3748 1.327 . S
C3750 C3769 1.429 . S
C3750 H3774 0.950 . S
C3751 C3768 1.574 1_545 S
C3751 C3770 1.368 . S
C3751 H3775 0.949 . S
H3752 C3756 0.949 . S
C3753 C3754 1.349 . S
C3753 C3755 1.327 . S
C3753 H3776 0.950 . S
C3754 C3753 1.349 . S
C3754 C3766 1.349 . S
C3755 C3753 1.327 . S
C3755 C3771 1.429 . S
C3755 H3777 0.950 . S
C3756 H3752 0.949 . S
C3756 C3764 1.574 1_565 S
C3756 C3772 1.368 . S
H3757 C3765 0.950 . S
H3758 C3763 0.950 . S
H3759 C3764 0.949 . S
H3760 C3766 0.950 . S
H3761 C3767 0.950 . S
H3762 C3768 0.949 . S
C3763 H3758 0.950 . S
C3763 C3765 1.327 . S
C3763 C3769 1.429 . S
C3764 C3756 1.574 1_545 S
C3764 H3759 0.949 . S
C3764 C3770 1.368 . S
C3765 C3749 1.349 . S
C3765 H3757 0.950 . S
C3765 C3763 1.327 . S
C3766 C3754 1.349 . S
C3766 H3760 0.950 . S
C3766 C3767 1.327 . S
C3767 H3761 0.950 . S
C3767 C3766 1.327 . S
C3767 C3771 1.429 . S
C3768 C3751 1.574 1_565 S
C3768 H3762 0.949 . S
C3768 C3772 1.368 . S
C3769 C3750 1.429 . S
C3769 C3763 1.429 . S
C3769 C3770 1.523 . S
C3770 C3751 1.368 . S
C3770 C3764 1.368 . S
C3770 C3769 1.523 . S
C3771 C3755 1.429 . S
C3771 C3767 1.429 . S
C3771 C3772 1.523 . S
C3772 C3756 1.368 . S
C3772 C3768 1.368 . S
C3772 C3771 1.523 . S
H3773 C3748 0.950 . S
H3774 C3750 0.950 . S
H3775 C3751 0.949 . S
H3776 C3753 0.950 . S
H3777 C3755 0.950 . S
C3778 C3779 1.349 . S
C3778 C3780 1.327 . S
C3778 H3803 0.950 . S
C3779 C3778 1.349 . S
C3779 C3795 1.349 . S
C3780 C3778 1.327 . S
C3780 C3799 1.429 . S
C3780 H3804 0.950 . S
C3781 C3798 1.574 . S
C3781 C3800 1.368 . S
C3781 H3805 0.949 . S
H3782 C3786 0.949 . S
C3783 C3784 1.349 . S
C3783 C3785 1.327 . S
C3783 H3806 0.950 . S
C3784 C3783 1.349 . S
C3784 C3796 1.349 . S
C3785 C3783 1.327 . S
C3785 C3801 1.429 . S
C3785 H3807 0.950 . S
C3786 H3782 0.949 . S
C3786 C3794 1.574 . S
C3786 C3802 1.368 . S
H3787 C3795 0.950 . S
H3788 C3793 0.950 . S
H3789 C3794 0.949 . S
H3790 C3796 0.950 . S
H3791 C3797 0.950 . S
H3792 C3798 0.949 . S
C3793 H3788 0.950 . S
C3793 C3795 1.327 . S
C3793 C3799 1.429 . S
C3794 C3786 1.574 . S
C3794 H3789 0.949 . S
C3794 C3800 1.368 . S
C3795 C3779 1.349 . S
C3795 H3787 0.950 . S
C3795 C3793 1.327 . S
C3796 C3784 1.349 . S
C3796 H3790 0.950 . S
C3796 C3797 1.327 . S
C3797 H3791 0.950 . S
C3797 C3796 1.327 . S
C3797 C3801 1.429 . S
C3798 C3781 1.574 . S
C3798 H3792 0.949 . S
C3798 C3802 1.368 . S
C3799 C3780 1.429 . S
C3799 C3793 1.429 . S
C3799 C3800 1.523 . S
C3800 C3781 1.368 . S
C3800 C3794 1.368 . S
C3800 C3799 1.523 . S
C3801 C3785 1.429 . S
C3801 C3797 1.429 . S
C3801 C3802 1.523 . S
C3802 C3786 1.368 . S
C3802 C3798 1.368 . S
C3802 C3801 1.523 . S
H3803 C3778 0.950 . S
H3804 C3780 0.950 . S
H3805 C3781 0.949 . S
H3806 C3783 0.950 . S
H3807 C3785 0.950 . S
C1889 C3 1.246 . S
C1894 C1242 1.246 . S
C1919 C1301 1.246 . S
C1924 C62 1.246 . S
C1949 C121 1.246 . S
C1954 C1360 1.246 . S
C1979 C1183 1.246 . S
C1984 C180 1.246 . S
C2009 C239 1.246 . S
C2014 C1124 1.246 . S
C2039 C298 1.246 . S
C2044 C947 1.246 . S
C2069 C1006 1.246 . S
C2074 C357 1.246 . S
C2099 C416 1.246 . S
C2104 C1065 1.246 . S
C2129 C475 1.246 . S
C2134 C1714 1.246 . S
C2159 C534 1.246 . S
C2164 C1773 1.246 . S
C2189 C1832 1.246 . S
C2194 C593 1.246 . S
C2219 C1655 1.246 . S
C2224 C652 1.246 . S
C2249 C711 1.246 . S
C2254 C1596 1.246 . S
C2279 C1419 1.246 . S
C2284 C770 1.246 . S
C2309 C829 1.246 . S
C2314 C1478 1.246 . S
C2339 C1537 1.246 . S
C2344 C888 1.246 . S
C2369 C52 1.502 . S
C2374 C564 1.496 . S
C2399 C111 1.502 . S
C2404 C1567 1.496 . S
C2429 C682 1.496 . S
C2434 C170 1.502 . S
C2459 C229 1.502 . S
C2464 C1449 1.496 . S
C2489 C288 1.502 . S
C2494 C918 1.496 . S
C2519 C1685 1.496 . S
C2524 C347 1.502 . S
C2549 C800 1.496 . S
C2554 C406 1.502 . S
C2579 C1803 1.496 . S
C2584 C465 1.502 . S
C2609 C524 1.502 . S
C2614 C92 1.496 . S
C2639 C1095 1.496 . S
C2644 C583 1.502 . S
C2669 C210 1.496 . S
C2674 C642 1.502 . S
C2699 C701 1.502 . S
C2704 C977 1.496 . S
C2729 C446 1.496 . S
C2734 C760 1.502 . S
C2759 C1213 1.496 . S
C2764 C819 1.502 . S
C2789 C328 1.496 . S
C2794 C878 1.502 . S
C2819 C937 1.502 . S
C2824 C1331 1.496 . S
C2849 C1508 1.496 . S
C2854 C996 1.502 . S
C2879 C623 1.496 . S
C2884 C1055 1.502 . S
C2909 C1626 1.496 . S
C2914 C1114 1.502 . S
C2939 C1173 1.502 . S
C2944 C505 1.496 . S
C2969 C1862 1.496 . S
C2974 C1232 1.502 . S
C2999 C741 1.496 . S
C3004 C1291 1.502 . S
C3029 C1744 1.496 . S
C3034 C1350 1.502 . S
C3059 C1409 1.502 . S
C3064 C859 1.496 . S
C3089 C1468 1.502 . S
C3094 C1036 1.496 . S
C3119 C151 1.496 . S
C3124 C1527 1.502 . S
C3149 C1586 1.502 . S
C3154 C1154 1.496 . S
C3179 C1645 1.502 . S
C3184 C33 1.496 . S
C3209 C1704 1.502 . S
C3214 C1390 1.496 . S
C3239 C269 1.496 . S
C3244 C1763 1.502 . S
C3269 C1272 1.496 . S
C3274 C1822 1.502 . S
C3299 C1881 1.502 . S
C3304 C387 1.496 . S
C3329 C5 1.317 . S
C3334 C241 1.317 . S
C3359 C64 1.317 . S
C3364 C300 1.317 . S
C3389 C359 1.317 . S
C3394 C123 1.317 . S
C3419 C418 1.317 . S
C3424 C182 1.317 . S
C3449 C713 1.317 . S
C3454 C477 1.317 . S
C3479 C772 1.317 . S
C3484 C536 1.317 . S
C3509 C831 1.317 . S
C3514 C595 1.317 . S
C3539 C890 1.317 . S
C3544 C654 1.317 . S
C3569 C949 1.317 . S
C3574 C1185 1.317 . S
C3599 C1008 1.317 . S
C3604 C1244 1.317 . S
C3629 C1067 1.317 . S
C3634 C1303 1.317 . S
C3659 C1362 1.317 . S
C3664 C1126 1.317 . S
C3689 C1421 1.317 . S
C3694 C1657 1.317 . S
C3719 C1716 1.317 . S
C3724 C1480 1.317 . S
C3749 C1775 1.317 . S
C3754 C1539 1.317 . S
C3779 C1834 1.317 . S
C3784 C1598 1.317 . S
