# Generated by pormake.
# Topology wme, (6)-cn, num edge types: 1
# Building blocks:
#     Node 0, Type 0, BuildingBlock: KUMBUR_clean_sbu_0, # of connection points: 6
#     Node 1, Type 0, BuildingBlock: KUMBUR_clean_sbu_0, # of connection points: 6
#     Node 2, Type 0, BuildingBlock: KUMBUR_clean_sbu_0, # of connection points: 6
#     Node 3, Type 0, BuildingBlock: KUMBUR_clean_sbu_0, # of connection points: 6
#     Node 4, Type 0, BuildingBlock: KUMBUR_clean_sbu_0, # of connection points: 6
#     Node 5, Type 0, BuildingBlock: KUMBUR_clean_sbu_0, # of connection points: 6
#     Node 6, Type 0, BuildingBlock: KUMBUR_clean_sbu_0, # of connection points: 6
#     Node 7, Type 0, BuildingBlock: KUMBUR_clean_sbu_0, # of connection points: 6
#     Node 8, Type 0, BuildingBlock: KUMBUR_clean_sbu_0, # of connection points: 6
#     Node 9, Type 0, BuildingBlock: KUMBUR_clean_sbu_0, # of connection points: 6
#     Node 10, Type 0, BuildingBlock: KUMBUR_clean_sbu_0, # of connection points: 6
#     Node 11, Type 0, BuildingBlock: KUMBUR_clean_sbu_0, # of connection points: 6
#     Edge 12, Type (0, 0), BuildingBlock: KIFKEQ_clean_linker_1, # of connection points: 2
#     Edge 13, Type (0, 0), BuildingBlock: KIFKEQ_clean_linker_1, # of connection points: 2
#     Edge 14, Type (0, 0), BuildingBlock: KIFKEQ_clean_linker_1, # of connection points: 2
#     Edge 15, Type (0, 0), BuildingBlock: KIFKEQ_clean_linker_1, # of connection points: 2
#     Edge 16, Type (0, 0), BuildingBlock: KIFKEQ_clean_linker_1, # of connection points: 2
#     Edge 17, Type (0, 0), BuildingBlock: KIFKEQ_clean_linker_1, # of connection points: 2
#     Edge 18, Type (0, 0), BuildingBlock: KIFKEQ_clean_linker_1, # of connection points: 2
#     Edge 19, Type (0, 0), BuildingBlock: KIFKEQ_clean_linker_1, # of connection points: 2
#     Edge 20, Type (0, 0), BuildingBlock: KIFKEQ_clean_linker_1, # of connection points: 2
#     Edge 21, Type (0, 0), BuildingBlock: KIFKEQ_clean_linker_1, # of connection points: 2
#     Edge 22, Type (0, 0), BuildingBlock: KIFKEQ_clean_linker_1, # of connection points: 2
#     Edge 23, Type (0, 0), BuildingBlock: KIFKEQ_clean_linker_1, # of connection points: 2
#     Edge 24, Type (0, 0), BuildingBlock: KIFKEQ_clean_linker_1, # of connection points: 2
#     Edge 25, Type (0, 0), BuildingBlock: KIFKEQ_clean_linker_1, # of connection points: 2
#     Edge 26, Type (0, 0), BuildingBlock: KIFKEQ_clean_linker_1, # of connection points: 2
#     Edge 27, Type (0, 0), BuildingBlock: KIFKEQ_clean_linker_1, # of connection points: 2
#     Edge 28, Type (0, 0), BuildingBlock: KIFKEQ_clean_linker_1, # of connection points: 2
#     Edge 29, Type (0, 0), BuildingBlock: KIFKEQ_clean_linker_1, # of connection points: 2
#     Edge 30, Type (0, 0), BuildingBlock: KIFKEQ_clean_linker_1, # of connection points: 2
#     Edge 31, Type (0, 0), BuildingBlock: KIFKEQ_clean_linker_1, # of connection points: 2
#     Edge 32, Type (0, 0), BuildingBlock: KIFKEQ_clean_linker_1, # of connection points: 2
#     Edge 33, Type (0, 0), BuildingBlock: KIFKEQ_clean_linker_1, # of connection points: 2
#     Edge 34, Type (0, 0), BuildingBlock: KIFKEQ_clean_linker_1, # of connection points: 2
#     Edge 35, Type (0, 0), BuildingBlock: KIFKEQ_clean_linker_1, # of connection points: 2
#     Edge 36, Type (0, 0), BuildingBlock: KIFKEQ_clean_linker_1, # of connection points: 2
#     Edge 37, Type (0, 0), BuildingBlock: KIFKEQ_clean_linker_1, # of connection points: 2
#     Edge 38, Type (0, 0), BuildingBlock: KIFKEQ_clean_linker_1, # of connection points: 2
#     Edge 39, Type (0, 0), BuildingBlock: KIFKEQ_clean_linker_1, # of connection points: 2
#     Edge 40, Type (0, 0), BuildingBlock: KIFKEQ_clean_linker_1, # of connection points: 2
#     Edge 41, Type (0, 0), BuildingBlock: KIFKEQ_clean_linker_1, # of connection points: 2
#     Edge 42, Type (0, 0), BuildingBlock: KIFKEQ_clean_linker_1, # of connection points: 2
#     Edge 43, Type (0, 0), BuildingBlock: KIFKEQ_clean_linker_1, # of connection points: 2
#     Edge 44, Type (0, 0), BuildingBlock: KIFKEQ_clean_linker_1, # of connection points: 2
#     Edge 45, Type (0, 0), BuildingBlock: KIFKEQ_clean_linker_1, # of connection points: 2
#     Edge 46, Type (0, 0), BuildingBlock: KIFKEQ_clean_linker_1, # of connection points: 2
#     Edge 47, Type (0, 0), BuildingBlock: KIFKEQ_clean_linker_1, # of connection points: 2
# Relax obj value: 0.094
# Max RMSD: 0.208
# Mean RMSD: 0.208
data_MOF--net-wme--node1-KUMBUR_clean_sbu_0--edge1-KIFKEQ_clean_linker_1
_symmetry_space_group_name_H-M    P1
_symmetry_Int_Tables_number       1
_symmetry_cell_setting            triclinic
loop_
_symmetry_equiv_pos_as_xyz
'x, y, z'
_cell_length_a     38.504656
_cell_length_b     38.516649
_cell_length_c     55.390557
_cell_angle_alpha  89.961658
_cell_angle_beta   90.090457
_cell_angle_gamma 120.03014
loop_
_atom_site_label
_atom_site_type_symbol
_atom_site_fract_x
_atom_site_fract_y
_atom_site_fract_z
_atom_type_partial_charge
Tb0 Tb 0.21582 0.37611 0.1098 0.0
C1 C 0.33406 0.35726 0.17785 0.0
C2 C 0.39984 0.39848 0.16057 0.0
C3 C 0.39292 0.38655 0.20383 0.0
C4 C 0.3578 0.37513 0.15805 0.0
C5 C 0.35123 0.36226 0.201 0.0
C6 C 0.41722 0.40464 0.18362 0.0
C7 C 0.28504 0.31738 0.21652 0.0
N8 N 0.29402 0.33413 0.17426 0.0
C9 C 0.26948 0.3133 0.19319 0.0
C10 C 0.32606 0.34225 0.2205 0.0
Tb11 Tb 0.27079 0.33065 0.13551 0.0
N12 N 0.33975 0.36812 0.13616 0.0
C13 C 0.36272 0.38145 0.11575 0.0
C14 C 0.42316 0.41405 0.1398 0.0
C15 C 0.40451 0.40501 0.11726 0.0
H16 H 0.23765 0.29423 0.19067 0.0
H17 H 0.42227 0.41625 0.101 0.0
H18 H 0.44942 0.4227 0.18595 0.0
H19 H 0.26531 0.30144 0.23144 0.0
H20 H 0.34924 0.37511 0.09813 0.0
H21 H 0.06932 0.30915 0.15121 0.0
H22 H 0.45553 0.43222 0.14092 0.0
H23 H 0.24185 0.40207 0.05277 0.0
H24 H 0.14283 0.34537 0.15054 0.0
H25 H 0.20941 0.38547 0.01266 0.0
H26 H 0.4067 0.39097 0.22148 0.0
H27 H 1.03099 0.28388 0.11326 0.0
H28 H 1.03144 0.27783 0.06804 0.0
H29 H 0.33803 0.34535 0.23859 0.0
H30 H 0.06986 0.29785 0.0301 0.0
N31 N 0.14712 0.33957 0.11253 0.0
C32 C 0.12694 0.33426 0.13377 0.0
C33 C 0.06345 0.29928 0.11282 0.0
C34 C 0.08411 0.30613 0.09101 0.0
C35 C 0.08499 0.31372 0.13426 0.0
C36 C 0.12643 0.32702 0.09147 0.0
H37 H 0.13634 0.33867 0.00923 0.0
N38 N 0.18808 0.36325 0.0718 0.0
C39 C 0.19173 0.37199 0.02871 0.0
C40 C 0.14781 0.33895 0.07027 0.0
C41 C 0.20997 0.38142 0.05147 0.0
C42 C 0.15052 0.34541 0.02684 0.0
C43 C 0.12783 0.32937 0.04782 0.0
O44 O 0.22894 0.43308 0.09668 0.0
O45 O 0.27259 0.38518 0.12316 0.0
O46 O 0.27118 0.3717 0.16244 0.0
O47 O 0.21408 0.37387 0.1504 0.0
O48 O 0.27435 0.41893 0.09439 0.0
O49 O 0.20031 0.41202 0.13086 0.0
O50 O 0.24814 0.26916 0.14288 0.0
O51 O 0.21399 0.32261 0.12253 0.0
O52 O 0.22018 0.33524 0.0827 0.0
O53 O 0.27859 0.33814 0.09643 0.0
O54 O 0.21184 0.28866 0.15117 0.0
O55 O 0.29071 0.29872 0.1143 0.0
C56 C 0.29644 0.41269 0.10908 0.0
C57 C 0.18328 0.45453 0.1091 0.0
C58 C 0.16041 0.50385 0.11231 0.0
C59 C 0.18978 0.49254 0.11678 0.0
C60 C 0.12504 0.47685 0.10012 0.0
C61 C 0.1481 0.42921 0.09632 0.0
C62 C 0.11915 0.44006 0.09205 0.0
C63 C 0.2411 0.378 0.16708 0.0
C64 C 0.21211 0.44045 0.11484 0.0
C65 C 0.08579 0.30587 0.04716 0.0
C66 C 0.06392 0.29446 0.06876 0.0
C67 C 0.19007 0.29569 0.13677 0.0
C68 C 0.28719 0.24007 0.13107 0.0
C69 C 0.26349 0.19788 0.12934 0.0
C70 C 0.28091 0.17344 0.13212 0.0
C71 C 0.3222 0.19178 0.13703 0.0
C72 C 0.32819 0.25756 0.13638 0.0
C73 C 0.34549 0.23345 0.13936 0.0
C74 C 0.25167 0.33015 0.07935 0.0
C75 C 0.26896 0.2651 0.12581 0.0
H76 H 0.21711 0.51289 0.12631 0.0
H77 H 0.10225 0.48473 0.09622 0.0
H78 H 0.14287 0.40095 0.08955 0.0
H79 H 0.09206 0.41988 0.08229 0.0
H80 H 0.2318 0.18418 0.12518 0.0
H81 H 0.33636 0.17377 0.13936 0.0
H82 H 0.34689 0.28983 0.1379 0.0
H83 H 0.3772 0.24715 0.14331 0.0
Tb84 Tb 0.85953 0.19853 0.60688 0.0
C85 C 0.98642 0.31741 0.67835 0.0
C86 C 1.01022 0.38243 0.66002 0.0
C87 C 1.01101 0.37664 0.70369 0.0
C88 C 0.99351 0.34056 0.65801 0.0
C89 C 0.99571 0.33516 0.70145 0.0
C90 C 1.01822 0.40025 0.68299 0.0
C91 C 0.97655 0.27009 0.71814 0.0
N92 N 0.97156 0.27747 0.67538 0.0
C93 C 0.96792 0.25391 0.69484 0.0
C94 C 0.99007 0.31081 0.72151 0.0
Tb95 Tb 0.95663 0.25358 0.63654 0.0
N96 N 0.98552 0.32218 0.63618 0.0
C97 C 0.99644 0.34465 0.6155 0.0
C98 C 1.01922 0.4052 0.63888 0.0
C99 C 1.0128 0.38626 0.61653 0.0
H100 H 0.95737 0.22238 0.69266 0.0
H101 H 1.02035 0.40365 0.60006 0.0
H102 H 1.03075 0.43233 0.68492 0.0
H103 H 0.97266 0.2511 0.7335 0.0
H104 H 0.99174 0.33077 0.598 0.0
H105 H 0.77636 0.05164 0.64774 0.0
H106 H 1.03192 0.43743 0.63963 0.0
H107 H 0.86335 0.22516 0.54969 0.0
H108 H 0.81476 0.12505 0.64735 0.0
H109 H 0.84762 0.19291 0.50962 0.0
H110 H 1.01805 0.39084 0.72128 0.0
H111 H 0.76419 1.01364 0.60978 0.0
H112 H 0.77286 1.01442 0.56478 0.0
H113 H 0.99675 0.32326 0.73957 0.0
H114 H 0.79359 0.05315 0.52696 0.0
N115 N 0.82638 0.12972 0.60949 0.0
C116 C 0.8104 0.10934 0.63057 0.0
C117 C 0.78178 0.04608 0.60948 0.0
C118 C 0.79689 0.06691 0.58783 0.0
C119 C 0.78836 0.06743 0.63092 0.0
C120 C 0.81892 0.10921 0.58843 0.0
H121 H 0.8207 0.1198 0.50617 0.0
N122 N 0.84746 0.17121 0.56883 0.0
C123 C 0.84298 0.1751 0.52569 0.0
C124 C 0.83054 0.13082 0.5673 0.0
C125 C 0.85186 0.19327 0.54845 0.0
C126 C 0.82801 0.13388 0.5238 0.0
C127 C 0.82053 0.111 0.54479 0.0
O128 O 0.8203 0.21728 0.59315 0.0
O129 O 0.9052 0.25529 0.62163 0.0
O130 O 0.91335 0.25255 0.66182 0.0
O131 O 0.8553 0.19629 0.64753 0.0
O132 O 0.87802 0.25677 0.59043 0.0
O133 O 0.80336 0.17856 0.62382 0.0
O134 O 0.99278 0.22801 0.6439 0.0
O135 O 0.90993 0.19687 0.62215 0.0
O136 O 0.90687 0.20289 0.58143 0.0
O137 O 0.96189 0.25976 0.59727 0.0
O138 O 0.93776 0.19477 0.65302 0.0
O139 O 1.0153 0.2811 0.62232 0.0
C140 C 0.90357 0.27906 0.60648 0.0
C141 C 0.75068 0.17061 0.59767 0.0
C142 C 0.67888 0.14968 0.595 0.0
C143 C 0.71689 0.1724 0.60635 0.0
C144 C 0.67512 0.1247 0.57552 0.0
C145 C 0.74545 0.1454 0.57807 0.0
C146 C 0.70806 0.12248 0.56725 0.0
C147 C 0.87641 0.22256 0.66499 0.0
C148 C 0.79151 0.19575 0.60823 0.0
C149 C 0.80112 0.06893 0.54406 0.0
C150 C 0.78922 0.04689 0.56558 0.0
C151 C 0.91105 0.17301 0.63736 0.0
C152 C 0.06271 0.27074 0.64403 0.0
C153 C 0.08789 0.25542 0.63753 0.0
C154 C 0.12448 0.26763 0.64984 0.0
C155 C 0.13509 0.2957 0.66874 0.0
C156 C 0.07444 0.29898 0.66266 0.0
C157 C 0.11045 0.31136 0.67489 0.0
C158 C 0.94489 0.23288 0.57992 0.0
C159 C 1.02342 0.25521 0.63207 0.0
H160 H 0.72036 0.19201 0.6213 0.0
H161 H 0.64644 0.10678 0.56662 0.0
H162 H 0.77035 0.14373 0.57079 0.0
H163 H 0.70471 0.10321 0.55215 0.0
H164 H 0.07877 0.23402 0.62286 0.0
H165 H 0.16212 0.30519 0.6792 0.0
H166 H 0.0556 0.3111 0.66791 0.0
H167 H 0.1191 0.33285 0.68946 0.0
Tb168 Tb 0.67931 0.8548 0.10902 0.0
C169 C 0.70805 0.99384 0.17906 0.0
C170 C 0.66698 1.0195 0.16297 0.0
C171 C 0.68281 0.02624 0.20579 0.0
C172 C 0.68891 0.99947 0.15983 0.0
C173 C 0.70589 1.00772 0.20226 0.0
C174 C 0.66333 0.03211 0.18615 0.0
C175 C 0.75144 0.98622 0.21632 0.0
N176 N 0.73001 0.97589 0.1748 0.0
C177 C 0.75256 0.97292 0.19299 0.0
C178 C 0.72766 1.00332 0.22106 0.0
Tb179 Tb 0.72947 0.95409 0.13605 0.0
N180 N 0.69374 0.98732 0.13776 0.0
C181 C 0.67983 0.99733 0.11773 0.0
C182 C 0.65049 0.02737 0.14265 0.0
C183 C 0.6575 1.01676 0.11987 0.0
H184 H 0.77102 0.95966 0.18991 0.0
H185 H 0.64567 0.02348 0.10392 0.0
H186 H 0.64635 0.04725 0.18897 0.0
H187 H 0.76882 0.98311 0.23066 0.0
H188 H 0.68465 0.9895 0.09994 0.0
H189 H 0.74136 0.7693 0.14867 0.0
H190 H 0.63334 0.04257 0.14426 0.0
H191 H 0.65649 0.86188 0.05201 0.0
H192 H 0.70909 0.81046 0.14909 0.0
H193 H 0.67088 0.84537 0.01153 0.0
H194 H 0.68051 0.03685 0.2235 0.0
H195 H 0.76213 0.75327 0.11002 0.0
H196 H 0.76603 0.75929 0.06479 0.0
H197 H 0.72682 1.01358 0.23914 0.0
H198 H 0.74791 0.78109 0.02739 0.0
N199 N 0.71234 0.81916 0.11094 0.0
C200 C 0.71809 0.80409 0.13201 0.0
C201 C 0.74823 0.77174 0.11005 0.0
C202 C 0.7412 0.78612 0.08848 0.0
C203 C 0.7364 0.78058 0.13189 0.0
C204 C 0.72252 0.80962 0.08953 0.0
H205 H 0.71214 0.81297 0.00734 0.0
N206 N 0.69154 0.84148 0.07053 0.0
C207 C 0.683 0.83884 0.02742 0.0
C208 C 0.71234 0.82175 0.06859 0.0
C209 C 0.67491 0.84814 0.05037 0.0
C210 C 0.70639 0.82066 0.02513 0.0
C211 C 0.72054 0.81096 0.04587 0.0
O212 O 0.62005 0.8172 0.09673 0.0
O213 O 0.6728 0.90308 0.12414 0.0
O214 O 0.68946 0.91458 0.16371 0.0
O215 O 0.67909 0.85264 0.14972 0.0
O216 O 0.63961 0.87481 0.09421 0.0
O217 O 0.64319 0.79854 0.12601 0.0
O218 O 0.79184 0.99037 0.14209 0.0
O219 O 0.73427 0.9039 0.12231 0.0
O220 O 0.72237 0.89981 0.08265 0.0
O221 O 0.72163 0.95588 0.09709 0.0
O222 O 0.76886 0.93345 0.15121 0.0
O223 O 0.76201 1.00622 0.11513 0.0
C224 C 0.64633 0.90189 0.10999 0.0
C225 C 0.59654 0.74715 0.09977 0.0
C226 C 0.55097 0.67368 0.0997 0.0
C227 C 0.56621 0.71171 0.1111 0.0
C228 C 0.56638 0.67219 0.07692 0.0
C229 C 0.61043 0.74386 0.07696 0.0
C230 C 0.59571 0.70684 0.06576 0.0
C231 C 0.67871 0.87648 0.16725 0.0
C232 C 0.61333 0.78764 0.11111 0.0
C233 C 0.74101 0.78937 0.04467 0.0
C234 C 0.75124 0.77688 0.06595 0.0
C235 C 0.76024 0.90462 0.13652 0.0
C236 C 0.82186 0.05932 0.13209 0.0
C237 C 0.86393 0.07742 0.12974 0.0
C238 C 0.88894 0.11894 0.13362 0.0
C239 C 0.87142 0.14195 0.14019 0.0
C240 C 0.80516 0.08283 0.1391 0.0
C241 C 0.82989 0.12391 0.14312 0.0
C242 C 0.72878 0.93694 0.07969 0.0
C243 C 0.79596 1.01653 0.12586 0.0
H244 H 0.55477 0.71369 0.12859 0.0
H245 H 0.555 0.64408 0.0673 0.0
H246 H 0.63226 0.76996 0.06742 0.0
H247 H 0.60679 0.70507 0.04812 0.0
H248 H 0.87708 0.05946 0.12435 0.0
H249 H 0.89 0.17388 0.14333 0.0
H250 H 0.773 0.06956 0.14115 0.0
H251 H 0.81679 0.14192 0.14837 0.0
Tb252 Tb 0.85578 0.67163 0.61112 0.0
C253 C 0.72682 0.68028 0.6734 0.0
C254 C 0.66506 0.64199 0.65115 0.0
C255 C 0.66336 0.64599 0.69489 0.0
C256 C 0.70724 0.66587 0.65181 0.0
C257 C 0.70521 0.6712 0.69522 0.0
C258 C 0.64329 0.63139 0.67286 0.0
C259 C 0.76756 0.71477 0.7157 0.0
N260 N 0.76714 0.70457 0.67285 0.0
C261 C 0.7876 0.72291 0.69355 0.0
C262 C 0.72623 0.68843 0.71659 0.0
Tb263 Tb 0.79792 0.71458 0.63599 0.0
N264 N 0.72943 0.67723 0.63134 0.0
C265 C 0.71064 0.66834 0.60935 0.0
C266 C 0.64601 0.63062 0.6287 0.0
C267 C 0.66889 0.64445 0.6077 0.0
H268 H 0.81959 0.74299 0.69326 0.0
H269 H 0.65441 0.63663 0.5902 0.0
H270 H 0.61091 0.61277 0.67275 0.0
H271 H 0.78407 0.72867 0.73207 0.0
H272 H 0.72749 0.67846 0.59281 0.0
H273 H 0.99704 0.73479 0.65896 0.0
H274 H 0.61368 0.6122 0.62737 0.0
H275 H 0.83764 0.64872 0.55311 0.0
H276 H 0.92388 0.69806 0.65483 0.0
H277 H 0.87483 0.6686 0.51463 0.0
H278 H 0.6462 0.63836 0.71147 0.0
H279 H 0.03989 0.76451 0.62307 0.0
H280 H 0.04491 0.7749 0.57807 0.0
H281 H 0.71078 0.68218 0.73376 0.0
H282 H 1.01129 0.75751 0.53845 0.0
N283 N 0.9241 0.70796 0.61696 0.0
C284 C 0.94171 0.71107 0.63894 0.0
C285 C 1.00755 0.74887 0.62114 0.0
C286 C 0.9896 0.74404 0.5985 0.0
C287 C 0.98347 0.73191 0.6414 0.0
C288 C 0.94734 0.72276 0.597 0.0
H289 H 0.94776 0.71705 0.51455 0.0
N290 N 0.88845 0.68744 0.57457 0.0
C291 C 0.89035 0.68138 0.53145 0.0
C292 C 0.92868 0.71242 0.57489 0.0
C293 C 0.8694 0.67015 0.55331 0.0
C294 C 0.93146 0.70889 0.53146 0.0
C295 C 0.95138 0.72388 0.55343 0.0
O296 O 0.84284 0.61533 0.59693 0.0
O297 O 0.79752 0.66167 0.62207 0.0
O298 O 0.79483 0.67089 0.6621 0.0
O299 O 0.85296 0.66964 0.65159 0.0
O300 O 0.79958 0.6321 0.59219 0.0
O301 O 0.86861 0.63356 0.63204 0.0
O302 O 0.81871 0.77431 0.64718 0.0
O303 O 0.85604 0.7237 0.62532 0.0
O304 O 0.85523 0.71458 0.58426 0.0
O305 O 0.79794 0.71591 0.59652 0.0
O306 O 0.85427 0.75357 0.65523 0.0
O307 O 0.78194 0.75029 0.61544 0.0
C308 C 0.77567 0.63681 0.60611 0.0
C309 C 0.88715 0.59269 0.61002 0.0
C310 C 0.90907 0.5427 0.61263 0.0
C311 C 0.87948 0.55382 0.61647 0.0
C312 C 0.94584 0.5707 0.60224 0.0
C313 C 0.92383 0.61922 0.59908 0.0
C314 C 0.95297 0.60848 0.59537 0.0
C315 C 0.82447 0.66417 0.66744 0.0
C316 C 0.858 0.6064 0.61532 0.0
C317 C 0.99331 0.74799 0.55472 0.0
C318 C 1.01244 0.7579 0.57727 0.0
C319 C 0.87784 0.74846 0.64128 0.0
C320 C 0.78239 0.80589 0.63421 0.0
C321 C 0.80555 0.84807 0.63259 0.0
C322 C 0.7874 0.87186 0.63482 0.0
C323 C 0.74591 0.85296 0.63906 0.0
C324 C 0.74114 0.7877 0.63883 0.0
C325 C 0.72309 0.81123 0.64129 0.0
C326 C 0.82655 0.72385 0.58066 0.0
C327 C 0.80144 0.78162 0.62926 0.0
H328 H 0.85108 0.53265 0.62463 0.0
H329 H 0.96884 0.56293 0.59887 0.0
H330 H 0.93012 0.64838 0.59339 0.0
H331 H 0.9812 0.62954 0.58703 0.0
H332 H 0.83743 0.86227 0.62891 0.0
H333 H 0.73124 0.87057 0.6409 0.0
H334 H 0.72286 0.75537 0.64016 0.0
H335 H 0.6912 0.79703 0.6447 0.0
Tb336 Tb 0.20545 0.84503 0.10906 0.0
C337 C 0.06528 0.72203 0.17207 0.0
C338 C 0.04849 0.65959 0.15253 0.0
C339 C 0.03692 0.66057 0.19558 0.0
C340 C 0.06435 0.70145 0.15169 0.0
C341 C 0.05046 0.70183 0.19417 0.0
C342 C 0.03597 0.63944 0.17475 0.0
C343 C 0.05883 0.76352 0.21073 0.0
N344 N 0.07798 0.76154 0.16971 0.0
C345 C 0.07291 0.78195 0.18829 0.0
C346 C 0.04823 0.72341 0.21383 0.0
Tb347 Tb 0.10397 0.79081 0.13309 0.0
N348 N 0.07603 0.72212 0.13067 0.0
C349 C 0.06877 0.70165 0.10932 0.0
C350 C 0.04413 0.63912 0.13091 0.0
C351 C 0.05357 0.66016 0.10916 0.0
H352 H 0.08071 0.81286 0.18604 0.0
H353 H 0.04925 0.64449 0.09223 0.0
H354 H 1.02417 0.60737 0.17584 0.0
H355 H 0.05607 0.78022 0.22558 0.0
H356 H 0.07586 0.71702 0.09223 0.0
H357 H 0.28478 0.98856 0.15439 0.0
H358 H 1.03221 0.60698 0.13073 0.0
H359 H 0.20593 0.82179 0.05147 0.0
H360 H 0.24477 0.91533 0.15205 0.0
H361 H 0.2258 0.85683 0.01224 0.0
H362 H 1.02585 0.64452 0.21245 0.0
H363 H 0.30399 0.02929 0.11716 0.0
H364 H 0.30237 0.03187 0.07187 0.0
H365 H 0.03704 0.70907 0.23115 0.0
H366 H 0.28487 0.99596 0.03305 0.0
N367 N 0.23959 0.91352 0.1136 0.0
C368 C 0.25236 0.93225 0.1355 0.0
C369 C 0.28596 0.99694 0.11594 0.0
C370 C 0.27391 0.97777 0.09355 0.0
C371 C 0.2753 0.97405 0.13698 0.0
C372 C 0.25086 0.93551 0.09298 0.0
H373 H 0.25655 0.93062 0.01061 0.0
N374 N 0.22212 0.87482 0.0717 0.0
C375 C 0.22993 0.87368 0.02867 0.0
C376 C 0.24114 0.91545 0.07124 0.0
C377 C 0.21858 0.85392 0.05091 0.0
C378 C 0.24718 0.91531 0.02782 0.0
C379 C 0.25403 0.93684 0.04932 0.0
O380 O 0.24442 0.82505 0.09681 0.0
O381 O 0.15746 0.78806 0.12273 0.0
O382 O 0.14158 0.79604 0.1637 0.0
O383 O 0.20548 0.84446 0.14961 0.0
O384 O 0.18673 0.78751 0.09204 0.0
O385 O 0.26065 0.86428 0.12723 0.0
O386 O 0.06582 0.81473 0.13926 0.0
O387 O 0.15401 0.8474 0.12141 0.0
O388 O 0.16267 0.84473 0.0816 0.0
O389 O 0.10478 0.78715 0.09374 0.0
O390 O 0.12091 0.84936 0.14945 0.0
O391 O 0.05174 0.77006 0.11204 0.0
C392 C 0.16027 0.76487 0.10756 0.0
C393 C 0.31411 0.87153 0.10209 0.0
C394 C 0.3874 0.89865 0.10353 0.0
C395 C 0.34854 0.87454 0.11366 0.0
C396 C 0.39078 0.91898 0.08176 0.0
C397 C 0.31928 0.8921 0.08029 0.0
C398 C 0.35711 0.91569 0.07033 0.0
C399 C 0.18003 0.82248 0.16715 0.0
C400 C 0.27281 0.8467 0.11217 0.0
C401 C 0.27503 0.97896 0.04969 0.0
C402 C 0.28508 0.9994 0.07179 0.0
C403 C 0.15084 0.8712 0.13569 0.0
C404 C 0.99715 0.77409 0.129 0.0
C405 C 0.97779 0.79689 0.12679 0.0
C406 C 0.93607 0.77902 0.13056 0.0
C407 C 0.91418 0.73825 0.13687 0.0
C408 C 0.97472 0.73363 0.13576 0.0
C409 C 0.93346 0.7159 0.13966 0.0
C410 C 0.12516 0.81531 0.07766 0.0
C411 C 0.04015 0.79249 0.12292 0.0
H412 H 0.34515 0.85851 0.13037 0.0
H413 H 0.41964 0.9369 0.07312 0.0
H414 H 0.29406 0.88958 0.07055 0.0
H415 H 0.36031 0.93117 0.05344 0.0
H416 H 0.99495 0.82819 0.12159 0.0
H417 H 0.88215 0.72381 0.13999 0.0
H418 H 0.98898 0.71563 0.13771 0.0
H419 H 0.91629 0.6846 0.14473 0.0
Tb420 Tb 0.39661 0.20178 0.61264 0.0
C421 C 0.38162 0.06855 0.6563 0.0
C422 C 0.40521 0.03963 0.62634 0.0
C423 C 0.42663 0.04414 0.668 0.0
C424 C 0.38302 0.0584 0.6327 0.0
C425 C 0.40203 0.05991 0.67444 0.0
C426 C 0.42822 0.03399 0.64393 0.0
C427 C 0.36651 0.07574 0.70409 0.0
N428 N 0.35719 0.08333 0.66173 0.0
C429 C 0.34661 0.08314 0.68542 0.0
C430 C 0.39536 0.06528 0.69857 0.0
Tb431 Tb 0.33044 0.10044 0.62923 0.0
N432 N 0.36078 0.06487 0.61622 0.0
C433 C 0.3549 0.04755 0.59387 0.0
C434 C 0.40267 0.02607 0.60268 0.0
C435 C 0.37651 0.02909 0.58655 0.0
H436 H 0.32263 0.08853 0.69027 0.0
H437 H 0.37242 1.0166 0.56858 0.0
H438 H 0.4461 1.02042 0.63928 0.0
H439 H 0.359 0.07739 0.72272 0.0
H440 H 0.3328 0.04661 0.58157 0.0
H441 H 0.38023 0.30287 0.6741 0.0
H442 H 0.41924 1.01157 0.59704 0.0
H443 H 0.3833 0.19692 0.55116 0.0
H444 H 0.40776 0.2618 0.66026 0.0
H445 H 0.34204 0.20714 0.52228 0.0
H446 H 0.44311 0.03804 0.68161 0.0
H447 H 0.33502 0.31423 0.64782 0.0
H448 H 0.30127 0.30417 0.60783 0.0
H449 H 0.41038 0.05899 0.71304 0.0
H450 H 0.28954 0.27668 0.56672 0.0
N451 N 0.37442 0.24391 0.62703 0.0
C452 C 0.38607 0.2636 0.64881 0.0
C453 C 0.34624 0.29494 0.64173 0.0
C454 C 0.33716 0.27787 0.61873 0.0
C455 C 0.37142 0.28832 0.65666 0.0
C456 C 0.35242 0.25276 0.61168 0.0
H457 H 0.30406 0.24005 0.53479 0.0
N458 N 0.36307 0.21536 0.58221 0.0
C459 C 0.34181 0.21481 0.54106 0.0
C460 C 0.346 0.23746 0.58864 0.0
C461 C 0.36404 0.20732 0.55811 0.0
C462 C 0.32075 0.23366 0.54812 0.0
C463 C 0.32392 0.24668 0.57193 0.0
O464 O 0.44276 0.22997 0.58678 0.0
O465 O 0.39179 0.14297 0.61724 0.0
O466 O 0.33942 0.13877 0.66088 0.0
O467 O 0.39743 0.19912 0.65256 0.0
O468 O 0.43821 0.19199 0.63384 0.0
O469 O 0.44713 0.25814 0.62068 0.0
O470 O 0.2805 0.06821 0.65221 0.0
O471 O 0.33718 0.15988 0.62536 0.0
O472 O 0.38689 0.15972 0.58169 0.0
O473 O 0.32639 0.10234 0.59039 0.0
O474 O 0.28656 0.11272 0.6118 0.0
O475 O 0.28307 0.04519 0.6174 0.0
C476 C 0.42368 0.1544 0.62962 0.0
C477 C 0.47661 0.30185 0.58743 0.0
C478 C 0.52057 0.37549 0.586 0.0
C479 C 0.50755 0.33807 0.59761 0.0
C480 C 0.5022 0.37555 0.56397 0.0
C481 C 0.45909 0.30357 0.56555 0.0
C482 C 0.47178 0.34007 0.55401 0.0
C483 C 0.37058 0.17324 0.66792 0.0
C484 C 0.46299 0.26252 0.59951 0.0
C485 C 0.30695 0.26981 0.57922 0.0
C486 C 0.31369 0.28552 0.60258 0.0
C487 C 0.30432 0.15072 0.61519 0.0
C488 C 0.24072 0.99771 0.64594 0.0
C489 C 0.19863 0.97542 0.64396 0.0
C490 C 0.17752 0.93445 0.64989 0.0
C491 C 0.19889 0.9161 0.65824 0.0
C492 C 0.26163 0.97907 0.65448 0.0
C493 C 0.24067 0.93843 0.66073 0.0
C494 C 0.35398 0.12584 0.57497 0.0
C495 C 0.26198 0.03909 0.63683 0.0
H496 H 0.52113 0.33705 0.61454 0.0
H497 H 0.51186 0.40308 0.55402 0.0
H498 H 0.43578 0.27668 0.55712 0.0
H499 H 0.45819 0.34084 0.53704 0.0
H500 H 0.1824 0.98962 0.63706 0.0
H501 H 0.18322 0.88455 0.6629 0.0
H502 H 0.29404 0.99568 0.65588 0.0
H503 H 0.25689 0.92404 0.6672 0.0
Tb504 Tb 0.68687 0.8432 0.40234 0.0
C505 C 0.71245 0.72604 0.33654 0.0
C506 C 0.66883 0.66079 0.35382 0.0
C507 C 0.68598 0.66653 0.31126 0.0
C508 C 0.69212 0.70287 0.35607 0.0
C509 C 0.71039 0.70822 0.31395 0.0
C510 C 0.66516 0.64283 0.33118 0.0
C511 C 0.7588 0.77366 0.29894 0.0
N512 N 0.73564 0.76608 0.33998 0.0
C513 C 0.75971 0.78989 0.32169 0.0
C514 C 0.73364 0.7327 0.29495 0.0
Tb515 Tb 0.73487 0.79043 0.37777 0.0
N516 N 0.69704 0.72145 0.3776 0.0
C517 C 0.68178 0.69896 0.39807 0.0
C518 C 0.65101 0.63801 0.37451 0.0
C519 C 0.65804 0.65718 0.3968 0.0
H520 H 0.77931 0.82161 0.32423 0.0
H521 H 0.64515 0.63983 0.41305 0.0
H522 H 0.64714 0.6106 0.32904 0.0
H523 H 0.77741 0.79282 0.28448 0.0
H524 H 0.68657 0.71282 0.41551 0.0
H525 H 0.74943 0.9867 0.35735 0.0
H526 H 0.63277 0.60564 0.37357 0.0
H527 H 0.66538 0.8193 0.4602 0.0
H528 H 0.71664 0.91336 0.35958 0.0
H529 H 0.68118 0.85427 0.49948 0.0
H530 H 0.6837 0.65228 0.29401 0.0
H531 H 0.77135 0.0273 0.39464 0.0
H532 H 0.77632 0.02971 0.43992 0.0
H533 H 0.73297 0.7202 0.27732 0.0
H534 H 0.75899 0.99363 0.47869 0.0
N535 N 0.72067 0.91162 0.39796 0.0
C536 C 0.72614 0.93035 0.37612 0.0
C537 C 0.7572 0.99496 0.3958 0.0
C538 C 0.75053 0.97572 0.41814 0.0
C539 C 0.74474 0.97214 0.37472 0.0
C540 C 0.73155 0.93348 0.41862 0.0
H541 H 0.72326 0.92817 0.50109 0.0
N542 N 0.70061 0.87266 0.43984 0.0
C543 C 0.69309 0.87123 0.483 0.0
C544 C 0.72182 0.9133 0.44033 0.0
C545 C 0.68423 0.85154 0.46073 0.0
C546 C 0.71695 0.91293 0.48384 0.0
C547 C 0.73076 0.9346 0.46231 0.0
O548 O 0.62828 0.82364 0.41507 0.0
O549 O 0.67831 0.78653 0.3887 0.0
O550 O 0.69682 0.79014 0.34879 0.0
O551 O 0.68552 0.84169 0.36169 0.0
O552 O 0.64724 0.78538 0.41892 0.0
O553 O 0.65065 0.86221 0.38429 0.0
O554 O 0.79732 0.81523 0.37252 0.0
O555 O 0.74114 0.84683 0.38992 0.0
O556 O 0.72934 0.8418 0.42945 0.0
O557 O 0.72677 0.78327 0.41676 0.0
O558 O 0.77521 0.84931 0.3614 0.0
O559 O 0.76617 0.77056 0.39971 0.0
C560 C 0.65188 0.763 0.4036 0.0
C561 C 0.60545 0.87037 0.40983 0.0
C562 C 0.56057 0.89893 0.40821 0.0
C563 C 0.57488 0.87453 0.39802 0.0
C564 C 0.57714 0.91848 0.43024 0.0
C565 C 0.62046 0.8901 0.43192 0.0
C566 C 0.60669 0.91406 0.4419 0.0
C567 C 0.68554 0.81695 0.34466 0.0
C568 C 0.62135 0.84513 0.3997 0.0
C569 C 0.75153 0.97672 0.462 0.0
C570 C 0.7613 0.99725 0.43993 0.0
C571 C 0.7673 0.87088 0.37538 0.0
C572 C 0.82572 0.77523 0.38371 0.0
C573 C 0.86794 0.79848 0.38594 0.0
C574 C 0.89214 0.78081 0.3828 0.0
C575 C 0.87353 0.73983 0.37705 0.0
C576 C 0.80807 0.73455 0.37752 0.0
C577 C 0.83192 0.71706 0.37422 0.0
C578 C 0.73437 0.81047 0.4335 0.0
C579 C 0.80052 0.79328 0.3892 0.0
H580 H 0.56253 0.85911 0.38111 0.0
H581 H 0.56651 0.93661 0.43892 0.0
H582 H 0.64245 0.88661 0.44185 0.0
H583 H 0.61866 0.92892 0.459 0.0
H584 H 0.88184 0.82995 0.39068 0.0
H585 H 0.89134 0.72552 0.37441 0.0
H586 H 0.77583 0.71618 0.37555 0.0
H587 H 0.81805 0.6856 0.3696 0.0
Tb588 Tb 0.85581 0.66986 0.9038 0.0
C589 C 0.9843 0.67899 0.8337 0.0
C590 C 1.00791 0.63767 0.85217 0.0
C591 C 1.00931 0.64462 0.80851 0.0
C592 C 0.99112 0.66277 0.85409 0.0
C593 C 0.99398 0.67077 0.81067 0.0
C594 C 1.01623 0.62805 0.82924 0.0
C595 C 0.97525 0.71696 0.79389 0.0
N596 N 0.96938 0.70403 0.83659 0.0
C597 C 0.96623 0.72427 0.81713 0.0
C598 C 0.98872 0.68973 0.79059 0.0
Tb599 Tb 0.95394 0.71264 0.87536 0.0
N600 N 0.98285 0.67299 0.87588 0.0
C601 C 0.99359 0.66136 0.89662 0.0
C602 C 1.01669 0.6238 0.87335 0.0
C603 C 1.01001 0.63617 0.89567 0.0
H604 H 0.95579 0.74534 0.81925 0.0
H605 H 1.0174 0.62624 0.91218 0.0
H606 H 1.02881 0.60855 0.82738 0.0
H607 H 0.97173 0.7323 0.77852 0.0
H608 H 0.98866 0.67042 0.91409 0.0
H609 H 0.77471 0.73416 0.8608 0.0
H610 H 1.02944 0.60432 0.87267 0.0
H611 H 0.8552 0.64549 0.96108 0.0
H612 H 0.81169 0.69788 0.86239 0.0
H613 H 0.83875 0.66271 1.00073 0.0
H614 H 1.01663 0.63764 0.79096 0.0
H615 H 0.76295 0.76183 0.89809 0.0
H616 H 0.77036 0.77013 0.94317 0.0
H617 H 0.99573 0.68417 0.77257 0.0
H618 H 0.78879 0.75132 0.98158 0.0
N619 N 0.82344 0.70624 0.90022 0.0
C620 C 0.80771 0.71011 0.87889 0.0
C621 C 0.78003 0.74649 0.89891 0.0
C622 C 0.7944 0.74085 0.92089 0.0
C623 C 0.78639 0.73068 0.87786 0.0
C624 C 0.81584 0.71998 0.92095 0.0
H625 H 0.81343 0.71031 1.00327 0.0
N626 N 0.84119 0.6844 0.94135 0.0
C627 C 0.8351 0.67616 0.98447 0.0
C628 C 0.82549 0.70893 0.94239 0.0
C629 C 0.84431 0.66642 0.96195 0.0
C630 C 0.82105 0.70321 0.98585 0.0
C631 C 0.815 0.71911 0.96459 0.0
O632 O 0.81301 0.61349 0.91826 0.0
O633 O 0.90241 0.65951 0.8901 0.0
O634 O 0.91127 0.67063 0.84959 0.0
O635 O 0.85294 0.66878 0.86319 0.0
O636 O 0.87341 0.62952 0.92051 0.0
O637 O 0.80383 0.63193 0.88363 0.0
O638 O 0.98949 0.77473 0.8689 0.0
O639 O 0.90695 0.72245 0.8895 0.0
O640 O 0.90245 0.71127 0.93026 0.0
O641 O 0.95883 0.71165 0.91465 0.0
O642 O 0.93501 0.75226 0.85863 0.0
O643 O 1.01307 0.74375 0.88911 0.0
C644 C 0.90007 0.63365 0.90511 0.0
C645 C 0.74532 0.5903 0.90628 0.0
C646 C 0.67335 0.53979 0.90421 0.0
C647 C 0.71407 0.55141 0.89974 0.0
C648 C 0.66465 0.56733 0.91531 0.0
C649 C 0.73523 0.61634 0.9179 0.0
C650 C 0.69535 0.6051 0.92224 0.0
C651 C 0.87436 0.66357 0.84605 0.0
C652 C 0.78811 0.60455 0.90029 0.0
C653 C 0.79669 0.74279 0.96472 0.0
C654 C 0.7862 0.7535 0.94286 0.0
C655 C 0.90821 0.74733 0.87417 0.0
C656 C 0.05931 0.80227 0.86748 0.0
C657 C 0.08405 0.84319 0.87341 0.0
C658 C 0.11968 0.86783 0.86033 0.0
C659 C 0.12955 0.85021 0.84116 0.0
C660 C 0.07057 0.78568 0.84869 0.0
C661 C 0.10546 0.80958 0.83563 0.0
C662 C 0.94069 0.72008 0.93199 0.0
C663 C 1.02067 0.77803 0.88 0.0
H664 H 0.72128 0.53065 0.89101 0.0
H665 H 0.63391 0.55923 0.91916 0.0
H666 H 0.75814 0.64551 0.92363 0.0
H667 H 0.68821 0.62578 0.93111 0.0
H668 H 0.07533 0.85559 0.8882 0.0
H669 H 0.1556 0.86785 0.82997 0.0
H670 H 0.05214 0.75443 0.84389 0.0
H671 H 0.11364 0.79666 0.82088 0.0
Tb672 Tb 0.22699 0.8562 0.40298 0.0
C673 C 0.33245 0.98434 0.32816 0.0
C674 C 0.39993 1.01363 0.34383 0.0
C675 C 0.38895 1.01115 0.30049 0.0
C676 C 0.35811 0.99414 0.34751 0.0
C677 C 0.34747 0.99326 0.30441 0.0
C678 C 0.41517 1.02133 0.32019 0.0
C679 C 0.27971 0.96867 0.2904 0.0
N680 N 0.29265 0.96721 0.33278 0.0
C681 C 0.26631 0.96052 0.31431 0.0
C682 C 0.32042 0.9847 0.28539 0.0
Tb683 Tb 0.27328 0.95288 0.37248 0.0
N684 N 0.34213 0.98654 0.37001 0.0
C685 C 0.36686 1.00066 0.38971 0.0
C686 C 0.42518 0.02586 0.364 0.0
C687 C 0.40856 1.01993 0.38703 0.0
H688 H 0.23472 0.94793 0.31772 0.0
H689 H 0.42782 0.03006 0.40277 0.0
H690 H 0.44719 0.03597 0.31699 0.0
H691 H 0.25859 0.96243 0.27586 0.0
H692 H 0.35489 0.99642 0.40772 0.0
H693 H 0.07561 0.76835 0.36885 0.0
H694 H 0.45747 0.04086 0.36198 0.0
H695 H 0.26152 0.86328 0.45881 0.0
H696 H 0.14897 0.80824 0.36594 0.0
H697 H 0.23472 0.84982 0.5003 0.0
H698 H 0.40111 1.01799 0.28237 0.0
H699 H 0.04243 0.75674 0.40857 0.0
H700 H 0.04888 0.76648 0.45357 0.0
H701 H 0.33072 0.99101 0.26686 0.0
H702 H 0.09241 0.7897 0.48952 0.0
N703 N 0.15808 0.82091 0.40364 0.0
C704 C 0.13524 0.80386 0.38345 0.0
C705 C 0.07479 0.77474 0.40741 0.0
C706 C 0.09826 0.7907 0.42814 0.0
C707 C 0.09342 0.78105 0.38499 0.0
C708 C 0.14033 0.81345 0.42562 0.0
H709 H 0.16185 0.82041 0.50715 0.0
N710 N 0.2048 0.84454 0.44228 0.0
C711 C 0.21467 0.84336 0.48512 0.0
C712 C 0.16461 0.82627 0.4457 0.0
C713 C 0.22975 0.85101 0.46157 0.0
C714 C 0.17355 0.82689 0.48892 0.0
C715 C 0.14781 0.81708 0.46906 0.0
O716 O 0.24965 0.81899 0.41444 0.0
O717 O 0.28048 0.90424 0.38666 0.0
O718 O 0.27427 0.91034 0.34722 0.0
O719 O 0.22086 0.85121 0.3625 0.0
O720 O 0.28782 0.87761 0.41645 0.0
O721 O 0.20624 0.79972 0.38615 0.0
O722 O 0.24427 0.9857 0.36472 0.0
O723 O 0.21946 0.90424 0.38893 0.0
O724 O 0.23341 0.90287 0.4294 0.0
O725 O 0.28424 0.961 0.41135 0.0
O726 O 0.21238 0.92926 0.3582 0.0
O727 O 0.29589 1.01048 0.38782 0.0
C728 C 0.30695 0.90474 0.40048 0.0
C729 C 0.20306 0.74879 0.41207 0.0
C730 C 0.17548 0.67532 0.41253 0.0
C731 C 0.19801 0.71323 0.4009 0.0
C732 C 0.15896 0.67414 0.43538 0.0
C733 C 0.18603 0.74574 0.4349 0.0
C734 C 0.16419 0.70889 0.44636 0.0
C735 C 0.24537 0.87275 0.34449 0.0
C736 C 0.22613 0.78915 0.40045 0.0
C737 C 0.10592 0.79668 0.47174 0.0
C738 C 0.08115 0.78341 0.45128 0.0
C739 C 0.19327 0.90293 0.37454 0.0
C740 C 0.28316 0.05609 0.36578 0.0
C741 C 0.26607 0.0799 0.37216 0.0
C742 C 0.27749 0.11656 0.36009 0.0
C743 C 0.3061 0.12826 0.34142 0.0
C744 C 0.31204 0.06919 0.34748 0.0
C745 C 0.32333 0.105 0.33539 0.0
C746 C 0.26198 0.94144 0.43015 0.0
C747 C 0.26912 1.01669 0.37736 0.0
H748 H 0.21113 0.715 0.38334 0.0
H749 H 0.14244 0.64616 0.44516 0.0
H750 H 0.18995 0.77192 0.4442 0.0
H751 H 0.15147 0.7073 0.46402 0.0
H752 H 0.24405 0.06978 0.3865 0.0
H753 H 0.31489 0.15518 0.331 0.0
H754 H 0.32548 0.05148 0.34233 0.0
H755 H 0.34526 0.1146 0.32103 0.0
Tb756 Tb 0.38112 0.19139 0.90528 0.0
C757 C 0.37176 0.3165 0.83933 0.0
C758 C 0.41141 0.37991 0.85971 0.0
C759 C 0.40547 0.37812 0.81598 0.0
C760 C 0.38706 0.33779 0.86033 0.0
C761 C 0.38021 0.33631 0.81688 0.0
C762 C 0.42107 0.3999 0.83738 0.0
C763 C 0.33644 0.27234 0.79816 0.0
N764 N 0.34764 0.27626 0.84104 0.0
C765 C 0.3289 0.25413 0.82089 0.0
C766 C 0.36254 0.31358 0.7961 0.0
Tb767 Tb 0.33855 0.24858 0.87884 0.0
N768 N 0.37693 0.31726 0.88145 0.0
C769 C 0.38813 0.33772 0.90288 0.0
C770 C 0.42465 0.40067 0.88155 0.0
C771 C 0.41253 0.37949 0.90323 0.0
H772 H 0.30901 0.22217 0.8221 0.0
H773 H 0.42206 0.39529 0.92027 0.0
H774 H 0.43999 0.4322 0.83651 0.0
H775 H 0.32226 0.2545 0.78224 0.0
H776 H 0.37946 0.32222 0.91992 0.0
H777 H 0.31773 0.04574 0.86288 0.0
H778 H 0.44354 0.433 0.88188 0.0
H779 H 0.40712 0.21438 0.96264 0.0
H780 H 0.35522 0.11915 0.86439 0.0
H781 H 0.38815 0.18091 1.00232 0.0
H782 H 0.41258 0.39392 0.79889 0.0
H783 H 0.28642 1.00649 0.89988 0.0
H784 H 0.27658 1.00587 0.94476 0.0
H785 H 0.36834 0.32762 0.77848 0.0
H786 H 0.29567 0.04312 0.98316 0.0
N787 N 0.34446 0.12265 0.90184 0.0
C788 C 0.34162 0.10292 0.88074 0.0
C789 C 0.30267 0.03895 0.90065 0.0
C790 C 0.30779 0.05908 0.92249 0.0
C791 C 0.32042 0.06099 0.87978 0.0
C792 C 0.32963 0.10139 0.92251 0.0
H793 H 0.33829 0.1085 1.00487 0.0
N794 N 0.36668 0.16205 0.94288 0.0
C795 C 0.37442 0.16398 0.98605 0.0
C796 C 0.341 0.12203 0.94394 0.0
C797 C 0.38517 0.18283 0.9635 0.0
C798 C 0.34611 0.12318 0.98743 0.0
C799 C 0.32991 0.1014 0.96615 0.0
O800 O 0.4377 0.20435 0.91909 0.0
O801 O 0.39175 0.24914 0.89255 0.0
O802 O 0.38108 0.24882 0.85302 0.0
O803 O 0.37962 0.18986 0.86474 0.0
O804 O 0.42215 0.24877 0.92245 0.0
O805 O 0.41846 0.1777 0.88431 0.0
O806 O 0.27853 0.22751 0.86821 0.0
O807 O 0.32884 0.19091 0.89115 0.0
O808 O 0.33993 0.19527 0.93218 0.0
O809 O 0.33908 0.25199 0.91821 0.0
O810 O 0.29747 0.19096 0.86143 0.0
O811 O 0.30448 0.26772 0.89841 0.0
C812 C 0.41785 0.27203 0.90769 0.0
C813 C 0.45981 0.15957 0.90628 0.0
C814 C 0.50973 0.13752 0.90356 0.0
C815 C 0.49845 0.16695 0.89948 0.0
C816 C 0.48204 0.10117 0.91454 0.0
C817 C 0.4336 0.12334 0.91779 0.0
C818 C 0.44449 0.09434 0.92174 0.0
C819 C 0.38558 0.21768 0.84823 0.0
C820 C 0.44607 0.18865 0.9008 0.0
C821 C 0.30496 0.05952 0.96629 0.0
C822 C 0.29404 0.03833 0.94444 0.0
C823 C 0.30276 0.16818 0.87601 0.0
C824 C 0.24859 0.26618 0.87901 0.0
C825 C 0.20636 0.24325 0.88018 0.0
C826 C 0.18279 0.26136 0.8765 0.0
C827 C 0.20198 0.30255 0.87127 0.0
C828 C 0.2671 0.30711 0.87337 0.0
C829 C 0.2438 0.32511 0.86949 0.0
C830 C 0.33152 0.22471 0.93495 0.0
C831 C 0.27248 0.24716 0.88521 0.0
H832 H 0.51931 0.19502 0.89085 0.0
H833 H 0.48988 0.07828 0.91814 0.0
H834 H 0.40459 0.11731 0.92375 0.0
H835 H 0.42372 0.06644 0.93053 0.0
H836 H 0.1919 0.21162 0.88462 0.0
H837 H 0.18453 0.31718 0.86834 0.0
H838 H 0.29948 0.3252 0.87232 0.0
H839 H 0.25822 0.35677 0.8653 0.0
Tb840 Tb 0.20833 0.37528 0.40328 0.0
C841 C 0.07664 0.36025 0.33218 0.0
C842 C 0.05056 0.40005 0.34955 0.0
C843 C 0.04937 0.39153 0.30603 0.0
C844 C 0.06903 0.37654 0.35211 0.0
C845 C 0.06652 0.36704 0.30887 0.0
C846 C 0.04138 0.40802 0.32637 0.0
C847 C 0.08914 0.32335 0.29314 0.0
N848 N 0.09317 0.33681 0.33578 0.0
C849 C 0.09853 0.31744 0.31665 0.0
C850 C 0.07339 0.34854 0.28919 0.0
Tb851 Tb 0.1098 0.33057 0.3748 0.0
N852 N 0.07814 0.36783 0.37411 0.0
C853 C 0.06677 0.37959 0.3945 0.0
C854 C 0.04097 0.41396 0.37036 0.0
C855 C 0.04863 0.4032 0.39294 0.0
H856 H 0.11112 0.29824 0.3192 0.0
H857 H 0.04067 0.41317 0.4092 0.0
H858 H 1.02744 0.42623 0.32401 0.0
H859 H 0.09428 0.3086 0.27808 0.0
H860 H 0.07238 0.37194 0.4122 0.0
H861 H 0.29467 0.31211 0.3669 0.0
H862 H 1.02686 0.43219 0.3692 0.0
H863 H 0.20463 0.40161 0.45984 0.0
H864 H 0.25777 0.34872 0.36544 0.0
H865 H 0.21651 0.38424 0.50074 0.0
H866 H 0.04158 0.39733 0.28827 0.0
H867 H 0.3 0.28213 0.40526 0.0
H868 H 0.28746 0.27378 0.45002 0.0
H869 H 0.06615 0.35307 0.27097 0.0
H870 H 0.26585 0.29352 0.48682 0.0
N871 N 0.24097 0.33912 0.40256 0.0
C872 C 0.25958 0.33592 0.38237 0.0
C873 C 0.28356 0.29816 0.40474 0.0
C874 C 0.26674 0.30375 0.42569 0.0
C875 C 0.28073 0.31514 0.3831 0.0
C876 C 0.24596 0.32517 0.42401 0.0
H877 H 0.24037 0.33579 0.50598 0.0
N878 N 0.21992 0.36205 0.44202 0.0
C879 C 0.2216 0.37055 0.4851 0.0
C880 C 0.23478 0.33696 0.44459 0.0
C881 C 0.21505 0.38043 0.46187 0.0
C882 C 0.23483 0.34301 0.48799 0.0
C883 C 0.24263 0.32665 0.46757 0.0
O884 O 0.25181 0.43192 0.41707 0.0
O885 O 0.16136 0.38457 0.38882 0.0
O886 O 0.15297 0.37322 0.34943 0.0
O887 O 0.21079 0.37359 0.36275 0.0
O888 O 0.1915 0.41762 0.41813 0.0
O889 O 0.26052 0.41174 0.38292 0.0
O890 O 0.07102 0.26971 0.36551 0.0
O891 O 0.15812 0.3224 0.38849 0.0
O892 O 0.16131 0.33319 0.42921 0.0
O893 O 0.10662 0.33582 0.41386 0.0
O894 O 0.12754 0.28917 0.35922 0.0
O895 O 0.05712 0.29703 0.39493 0.0
C896 C 0.16392 0.41162 0.40291 0.0
C897 C 0.31925 0.45314 0.40554 0.0
C898 C 0.39181 0.50107 0.40222 0.0
C899 C 0.35142 0.49032 0.39729 0.0
C900 C 0.39924 0.47431 0.41543 0.0
C901 C 0.32812 0.42804 0.41933 0.0
C902 C 0.36767 0.43833 0.42405 0.0
C903 C 0.18937 0.37896 0.34559 0.0
C904 C 0.27669 0.43964 0.39925 0.0
C905 C 0.25999 0.30219 0.46934 0.0
C906 C 0.27222 0.29089 0.44839 0.0
C907 C 0.15567 0.29582 0.3741 0.0
C908 C 1.00247 0.23935 0.37718 0.0
C909 C 0.98356 0.19721 0.37949 0.0
C910 C 0.9416 0.173 0.37687 0.0
C911 C 0.919 0.19154 0.37153 0.0
C912 C 0.97929 0.25702 0.37147 0.0
C913 C 0.93779 0.23314 0.36864 0.0
C914 C 0.12392 0.32659 0.43133 0.0
C915 C 0.0457 0.26426 0.38262 0.0
H916 H 0.34514 0.51045 0.38695 0.0
H917 H 0.42969 0.48178 0.4197 0.0
H918 H 0.30447 0.40037 0.42653 0.0
H919 H 0.37388 0.41837 0.43458 0.0
H920 H 1.0013 0.1834 0.38402 0.0
H921 H 0.88676 0.17372 0.36931 0.0
H922 H 0.99317 0.28926 0.3696 0.0
H923 H 0.92002 0.24698 0.36439 0.0
Tb924 Tb 0.85928 0.19675 0.90041 0.0
C925 C 0.7323 0.0573 0.83781 0.0
C926 C 0.66957 0.03489 0.85869 0.0
C927 C 0.66976 0.02678 0.81519 0.0
C928 C 0.71175 0.05307 0.85889 0.0
C929 C 0.71163 0.04368 0.8157 0.0
C930 C 0.64875 1.02241 0.83667 0.0
C931 C 0.77497 0.0624 0.79664 0.0
N932 N 0.77265 0.07385 0.83912 0.0
C933 C 0.79406 0.0754 0.81902 0.0
C934 C 0.73361 0.04684 0.79491 0.0
Tb935 Tb 0.80163 0.09563 0.87637 0.0
N936 N 0.73304 0.06539 0.87972 0.0
C937 C 0.71334 0.05757 0.90135 0.0
C938 C 0.64958 0.029 0.88067 0.0
C939 C 0.67156 0.03992 0.90212 0.0
H940 H 0.82607 0.08767 0.81998 0.0
H941 H 0.65636 0.03486 0.91928 0.0
H942 H 0.61638 1.00867 0.83612 0.0
H943 H 0.79221 0.06455 0.78072 0.0
H944 H 0.72948 0.06579 0.91821 0.0
H945 H 1.00142 0.27077 0.85353 0.0
H946 H 0.61723 1.0153 0.88132 0.0
H947 H 0.83989 0.20377 0.95782 0.0
H948 H 0.92823 0.23461 0.85696 0.0
H949 H 0.87637 0.22341 0.9966 0.0
H950 H 0.65331 1.01638 0.79837 0.0
H951 H 0.04356 0.28664 0.89006 0.0
H952 H 0.04774 0.28484 0.93533 0.0
H953 H 0.71889 0.0368 0.77756 0.0
H954 H 1.01338 0.27077 0.97458 0.0
N955 N 0.92766 0.22774 0.89519 0.0
C956 C 0.9457 0.24059 0.87317 0.0
C957 C 1.01119 0.27006 0.89173 0.0
C958 C 0.9928 0.25855 0.91433 0.0
C959 C 0.98751 0.26137 0.87109 0.0
C960 C 0.95051 0.2375 0.91546 0.0
H961 H 0.94939 0.2485 0.99763 0.0
N962 N 0.89118 0.21515 0.93719 0.0
C963 C 0.89224 0.22537 0.98008 0.0
C964 C 0.93143 0.23055 0.93735 0.0
C965 C 0.87168 0.21432 0.95805 0.0
C966 C 0.93339 0.2393 0.98061 0.0
C967 C 0.95373 0.24315 0.95899 0.0
O968 O 0.84665 0.24098 0.91344 0.0
O969 O 0.80106 0.14887 0.88885 0.0
O970 O 0.79959 0.13518 0.84919 0.0
O971 O 0.85743 0.19478 0.85982 0.0
O972 O 0.8028 0.18109 0.91837 0.0
O973 O 0.87321 0.24713 0.87873 0.0
O974 O 0.82266 0.05618 0.86702 0.0
O975 O 0.85953 0.14415 0.88788 0.0
O976 O 0.8568 0.15377 0.92847 0.0
O977 O 0.79979 0.09518 0.91581 0.0
O978 O 0.85897 0.11205 0.85859 0.0
O979 O 0.78246 0.04347 0.897 0.0
C980 C 0.77892 0.15279 0.90419 0.0
C981 C 0.89143 0.30742 0.89972 0.0
C982 C 0.91212 0.37903 0.89725 0.0
C983 C 0.88267 0.33811 0.89393 0.0
C984 C 0.94984 0.38856 0.90652 0.0
C985 C 0.92913 0.31832 0.90947 0.0
C986 C 0.9581 0.35841 0.91273 0.0
C987 C 0.8293 0.17142 0.84381 0.0
C988 C 0.86233 0.26437 0.89483 0.0
C989 C 0.9957 0.26118 0.95815 0.0
C990 C 1.01525 0.26915 0.93581 0.0
C991 C 0.88209 0.14072 0.87276 0.0
C992 C 0.78325 0.98807 0.87883 0.0
C993 C 0.80593 0.96858 0.8803 0.0
C994 C 0.78737 0.92671 0.8775 0.0
C995 C 0.74597 0.90464 0.87284 0.0
C996 C 0.74207 0.96558 0.87376 0.0
C997 C 0.72362 0.92406 0.87075 0.0
C998 C 0.82772 0.11594 0.93206 0.0
C999 C 0.80278 0.03124 0.88431 0.0
H1000 H 0.85353 0.33032 0.88664 0.0
H1001 H 0.97278 0.41951 0.9095 0.0
H1002 H 0.9364 0.29591 0.91454 0.0
H1003 H 0.98711 0.36614 0.92017 0.0
H1004 H 0.83775 0.98581 0.8843 0.0
H1005 H 0.73103 0.8724 0.87056 0.0
H1006 H 0.72414 0.98001 0.87251 0.0
H1007 H 0.69178 0.90678 0.867 0.0
H1008 H 0.16979 0.92437 0.17199 0.0
H1009 H 0.16555 0.91636 0.09436 0.0
H1010 H 0.19626 0.99669 0.16948 0.0
H1011 H 0.19247 0.98912 0.09165 0.0
H1012 H 0.29328 0.12485 0.10176 0.0
H1013 H 0.2574 0.05153 0.10056 0.0
H1014 H 0.17884 0.04797 0.15723 0.0
H1015 H 0.21413 0.12153 0.15781 0.0
C1016 C 0.17465 0.93823 0.15436 0.0
C1017 C 0.16727 0.91509 0.13338 0.0
C1018 C 0.18949 0.97963 0.15289 0.0
C1019 C 0.19686 0.99896 0.13036 0.0
C1020 C 0.18776 0.97539 0.1093 0.0
C1021 C 0.17262 0.93379 0.11081 0.0
C1022 C 0.26802 0.10833 0.11374 0.0
C1023 C 0.25661 0.12891 0.12995 0.0
C1024 C 0.2474 0.06628 0.11306 0.0
C1025 C 0.21558 0.04366 0.12908 0.0
C1026 C 0.20353 0.06437 0.14486 0.0
C1027 C 0.22354 0.10647 0.14511 0.0
H1028 H 0.30225 0.19027 0.65589 0.0
H1029 H 0.24827 0.15067 0.58567 0.0
H1030 H 0.25874 0.21865 0.66362 0.0
H1031 H 0.20416 0.17831 0.59352 0.0
H1032 H 0.10307 0.19188 0.63285 0.0
H1033 H 0.14666 0.16451 0.62384 0.0
H1034 H 0.25002 0.2764 0.64475 0.0
H1035 H 0.20716 0.30491 0.65242 0.0
C1036 C 0.28141 0.18809 0.64201 0.0
C1037 C 0.2796 0.16962 0.61981 0.0
C1038 C 0.25637 0.20412 0.64647 0.0
C1039 C 0.22822 0.20098 0.62909 0.0
C1040 C 0.22553 0.18123 0.60723 0.0
C1041 C 0.25087 0.16563 0.60269 0.0
C1042 C 0.1351 0.21114 0.63509 0.0
C1043 C 0.15118 0.2508 0.64355 0.0
C1044 C 0.16008 0.19522 0.63007 0.0
C1045 C 0.20174 0.21819 0.63376 0.0
C1046 C 0.21797 0.25776 0.64205 0.0
C1047 C 0.19316 0.27398 0.6466 0.0
H1048 H 0.93635 0.1766 0.1012 0.0
H1049 H 0.94145 0.10683 0.16051 0.0
H1050 H 1.00973 0.21483 0.0997 0.0
H1051 H 1.01499 0.14596 0.15968 0.0
H1052 H 0.146 0.26174 0.09543 0.0
H1053 H 0.07352 0.21397 0.09262 0.0
H1054 H 0.06449 0.21594 0.17026 0.0
H1055 H 0.1364 0.26349 0.17285 0.0
C1056 C 0.95332 0.16928 0.11377 0.0
C1057 C 0.9333 0.13884 0.131 0.0
C1058 C 0.99537 0.1912 0.11296 0.0
C1059 C 1.01844 0.18409 0.12987 0.0
C1060 C 0.99824 0.15267 0.14661 0.0
C1061 C 0.95616 0.13006 0.14701 0.0
C1062 C 0.12825 0.2522 0.11179 0.0
C1063 C 0.14636 0.26758 0.13429 0.0
C1064 C 0.08686 0.22464 0.11024 0.0
C1065 C 0.06298 0.21119 0.13122 0.0
C1066 C 0.08179 0.22534 0.15374 0.0
C1067 C 0.12294 0.25291 0.15524 0.0
H1068 H 0.77834 0.9194 0.60184 0.0
H1069 H 0.84974 0.92449 0.66318 0.0
H1070 H 0.81341 0.99274 0.60038 0.0
H1071 H 0.88397 0.99798 0.66239 0.0
H1072 H 0.90339 0.12882 0.5965 0.0
H1073 H 0.87847 0.05632 0.59417 0.0
H1074 H 0.86314 0.0476 0.67158 0.0
H1075 H 0.88766 0.11952 0.6737 0.0
C1076 C 0.80172 0.93635 0.61494 0.0
C1077 C 0.81122 0.91633 0.6327 0.0
C1078 C 0.82183 0.97838 0.61413 0.0
C1079 C 0.85101 1.00142 0.63156 0.0
C1080 C 0.86125 0.98123 0.64891 0.0
C1081 C 0.84185 0.93919 0.64931 0.0
C1082 C 0.89428 0.11116 0.61291 0.0
C1083 C 0.89589 0.12938 0.63518 0.0
C1084 C 0.88027 0.06974 0.61164 0.0
C1085 C 0.86856 0.04595 0.63269 0.0
C1086 C 0.87207 0.06485 0.65502 0.0
C1087 C 0.8858 0.10602 0.65624 0.0
H1088 H 0.95059 0.84629 0.15539 0.0
H1089 H 0.87328 0.76388 0.10087 0.0
H1090 H 0.91056 0.87974 0.15511 0.0
H1091 H 0.83405 0.79806 0.09994 0.0
H1092 H 0.79076 0.89181 0.09446 0.0
H1093 H 0.83678 0.86506 0.09086 0.0
H1094 H 0.8396 0.85706 0.1685 0.0
H1095 H 0.79326 0.88276 0.17192 0.0
C1096 C 0.92547 0.83584 0.14304 0.0
C1097 C 0.91493 0.8024 0.12824 0.0
C1098 C 0.9024 0.8548 0.14296 0.0
C1099 C 0.86876 0.8413 0.12769 0.0
C1100 C 0.85956 0.80913 0.11199 0.0
C1101 C 0.88201 0.78954 0.11252 0.0
C1102 C 0.80081 0.88368 0.11065 0.0
C1103 C 0.78717 0.88773 0.13343 0.0
C1104 C 0.82739 0.86872 0.10864 0.0
C1105 C 0.84182 0.85879 0.12941 0.0
C1106 C 0.82931 0.86455 0.15215 0.0
C1107 C 0.80252 0.87897 0.15412 0.0
H1108 H 0.92683 0.77631 0.67985 0.0
H1109 H 0.92637 0.78719 0.60243 0.0
H1110 H 0.99869 0.82457 0.68081 0.0
H1111 H 0.99876 0.83574 0.60321 0.0
H1112 H 0.13537 0.87678 0.61632 0.0
H1113 H 0.06235 0.83522 0.6124 0.0
H1114 H 0.04742 0.89616 0.67348 0.0
H1115 H 0.12052 0.93848 0.67678 0.0
C1116 C 0.9423 0.78907 0.66301 0.0
C1117 C 0.92153 0.77689 0.64099 0.0
C1118 C 0.98338 0.81697 0.66356 0.0
C1119 C 1.00465 0.83391 0.64208 0.0
C1120 C 0.98343 0.82284 0.62005 0.0
C1121 C 0.94213 0.79491 0.61954 0.0
C1122 C 0.11631 0.88136 0.62874 0.0
C1123 C 0.13335 0.91055 0.64693 0.0
C1124 C 0.07454 0.85765 0.6265 0.0
C1125 C 0.04894 0.86189 0.64285 0.0
C1126 C 0.06623 0.89172 0.6608 0.0
C1127 C 0.10798 0.91603 0.66267 0.0
H1128 H 0.15165 0.89379 0.41706 0.0
H1129 H 0.13683 0.87839 0.33995 0.0
H1130 H 0.07909 0.86828 0.42137 0.0
H1131 H 0.06517 0.85407 0.34406 0.0
H1132 H 0.94502 0.84672 0.35688 0.0
H1133 H 1.0185 0.87943 0.35673 0.0
H1134 H 1.01337 0.80088 0.41392 0.0
H1135 H 0.93991 0.7674 0.41345 0.0
C1136 C 0.13282 0.88457 0.40111 0.0
C1137 C 0.14958 0.88662 0.37825 0.0
C1138 C 0.0914 0.87032 0.40352 0.0
C1139 C 0.06623 0.8591 0.38304 0.0
C1140 C 0.08356 0.86265 0.36019 0.0
C1141 C 0.12459 0.87631 0.35785 0.0
C1142 C 0.95969 0.83688 0.36963 0.0
C1143 C 0.93674 0.80445 0.38511 0.0
C1144 C 1.00173 0.8554 0.36947 0.0
C1145 C 1.0219 0.8425 0.38515 0.0
C1146 C 0.99893 0.8115 0.40156 0.0
C1147 C 0.95685 0.79233 0.4013 0.0
H1148 H 0.20177 0.91427 0.85514 0.0
H1149 H 0.09878 0.92215 0.87862 0.0
H1150 H 0.24374 0.98635 0.85961 0.0
H1151 H 0.14225 0.99436 0.88489 0.0
H1152 H 0.26034 0.1186 0.91377 0.0
H1153 H 0.2135 0.04555 0.91197 0.0
H1154 H 0.23751 0.04658 0.83586 0.0
H1155 H 0.28294 0.11923 0.83753 0.0
C1156 C 0.18781 0.93105 0.86127 0.0
C1157 C 0.14624 0.91176 0.86595 0.0
C1158 C 0.21222 0.97252 0.86413 0.0
C1159 C 0.19629 0.99598 0.87256 0.0
C1160 C 0.15535 0.9769 0.87846 0.0
C1161 C 0.13051 0.93536 0.87497 0.0
C1162 C 0.25568 0.10298 0.89676 0.0
C1163 C 0.27645 0.12409 0.87598 0.0
C1164 C 0.2286 0.06142 0.89566 0.0
C1165 C 0.22226 0.0404 0.87381 0.0
C1166 C 0.2422 0.06192 0.85297 0.0
C1167 C 0.26832 0.10338 0.85396 0.0
H1168 H 0.16156 0.25315 0.41227 0.0
H1169 H 0.18914 0.27876 0.33671 0.0
H1170 H 0.18893 0.20724 0.41132 0.0
H1171 H 0.21747 0.23425 0.33592 0.0
H1172 H 0.31352 0.19897 0.35801 0.0
H1173 H 0.28285 0.24043 0.36256 0.0
H1174 H 0.17094 0.13659 0.38252 0.0
H1175 H 0.20063 0.09385 0.37632 0.0
C1176 C 0.17404 0.2494 0.39562 0.0
C1177 C 0.17478 0.27067 0.37479 0.0
C1178 C 0.18919 0.22283 0.39499 0.0
C1179 C 0.20565 0.21748 0.37358 0.0
C1180 C 0.20538 0.23809 0.35271 0.0
C1181 C 0.18938 0.26369 0.35319 0.0
C1182 C 0.2822 0.18445 0.36304 0.0
C1183 C 0.25955 0.14248 0.36616 0.0
C1184 C 0.26478 0.20854 0.36594 0.0
C1185 C 0.22449 0.19178 0.3728 0.0
C1186 C 0.20217 0.15032 0.3773 0.0
C1187 C 0.21936 0.12589 0.37384 0.0
H1188 H 0.13042 0.19737 0.84905 0.0
H1189 H 0.13493 0.27268 0.90789 0.0
H1190 H 0.05686 0.16315 0.84945 0.0
H1191 H 0.06164 0.23777 0.90895 0.0
H1192 H 0.93472 0.1585 0.83626 0.0
H1193 H 1.0065 0.18196 0.83862 0.0
H1194 H 0.99858 0.17406 0.9164 0.0
H1195 H 0.92643 0.15051 0.91383 0.0
C1196 C 0.11558 0.20615 0.86228 0.0
C1197 C 0.13828 0.23783 0.87831 0.0
C1198 C 0.0735 0.18675 0.86246 0.0
C1199 C 0.05316 0.19805 0.87902 0.0
C1200 C 0.07609 0.22842 0.89585 0.0
C1201 C 0.11811 0.24847 0.89525 0.0
C1202 C 0.94839 0.16172 0.85384 0.0
C1203 C 0.92546 0.15436 0.8749 0.0
C1204 C 0.98946 0.17482 0.85522 0.0
C1205 C 1.00858 0.18033 0.87772 0.0
C1206 C 0.98504 0.17083 0.89879 0.0
C1207 C 0.9438 0.15757 0.89737 0.0
H1208 H 0.87991 0.12566 0.40726 0.0
H1209 H 0.95616 0.11989 0.35241 0.0
H1210 H 0.84171 0.05232 0.40916 0.0
H1211 H 0.91718 0.04639 0.3537 0.0
H1212 H 0.80109 0.92377 0.339 0.0
H1213 H 0.8473 0.99601 0.34122 0.0
H1214 H 0.84446 0.98932 0.41906 0.0
H1215 H 0.7984 0.91644 0.41666 0.0
C1216 C 0.8886 0.10861 0.39571 0.0
C1217 C 0.92092 0.12851 0.3796 0.0
C1218 C 0.86674 0.06658 0.39681 0.0
C1219 C 0.8759 0.04332 0.38133 0.0
C1220 C 0.90898 0.06332 0.36568 0.0
C1221 C 0.93147 0.1054 0.36502 0.0
C1222 C 0.81037 0.93777 0.35658 0.0
C1223 C 0.79486 0.9148 0.37765 0.0
C1224 C 0.83711 0.97913 0.35787 0.0
C1225 C 0.84948 0.99867 0.38031 0.0
C1226 C 0.83515 0.97535 0.40148 0.0
C1227 C 0.80857 0.93372 0.40014 0.0
H1228 H 0.88572 0.77843 0.83792 0.0
H1229 H 0.9014 0.78399 0.91515 0.0
H1230 H 0.86209 0.82651 0.84026 0.0
H1231 H 0.87744 0.8323 0.91769 0.0
H1232 H 0.77748 0.86932 0.91002 0.0
H1233 H 0.8123 0.83082 0.91135 0.0
H1234 H 0.88368 0.89713 0.84993 0.0
H1235 H 0.84971 0.93661 0.84928 0.0
C1236 C 0.88407 0.79006 0.85543 0.0
C1237 C 0.8938 0.77634 0.87645 0.0
C1238 C 0.87087 0.81788 0.85678 0.0
C1239 C 0.86758 0.83316 0.87918 0.0
C1240 C 0.87909 0.82073 0.90018 0.0
C1241 C 0.89253 0.79292 0.89878 0.0
C1242 C 0.80097 0.87589 0.89702 0.0
C1243 C 0.81079 0.90571 0.87946 0.0
C1244 C 0.82095 0.85387 0.89776 0.0
C1245 C 0.85029 0.86028 0.88045 0.0
C1246 C 0.86084 0.891 0.86331 0.0
C1247 C 0.84158 0.91373 0.86298 0.0
H1248 H 0.16018 0.71481 0.07395 0.0
H1249 H 0.15157 0.72441 0.15103 0.0
H1250 H 0.16413 0.65417 0.07933 0.0
H1251 H 0.15401 0.66196 0.15642 0.0
H1252 H 0.11217 0.52037 0.14051 0.0
H1253 H 0.11151 0.5837 0.14277 0.0
H1254 H 0.21824 0.64076 0.09895 0.0
H1255 H 0.21922 0.57761 0.09706 0.0
C1256 C 0.15845 0.70353 0.0921 0.0
C1257 C 0.15527 0.72439 0.11203 0.0
C1258 C 0.16108 0.6689 0.09518 0.0
C1259 C 0.16016 0.65356 0.1183 0.0
C1260 C 0.15508 0.6732 0.13836 0.0
C1261 C 0.15327 0.70869 0.13528 0.0
C1262 C 0.13626 0.54684 0.13206 0.0
C1263 C 0.16596 0.54404 0.11873 0.0
C1264 C 0.13581 0.58308 0.13332 0.0
C1265 C 0.16456 0.6172 0.12086 0.0
C1266 C 0.19549 0.61493 0.10863 0.0
C1267 C 0.19635 0.57889 0.10774 0.0
H1268 H 0.63437 0.1706 0.56695 0.0
H1269 H 0.64017 0.13132 0.6389 0.0
H1270 H 0.57015 0.16546 0.57608 0.0
H1271 H 0.5747 0.12438 0.64805 0.0
H1272 H 0.47681 0.15849 0.66273 0.0
H1273 H 0.53826 0.15665 0.65567 0.0
H1274 H 0.50186 0.12148 0.58166 0.0
H1275 H 0.44122 0.12542 0.58874 0.0
C1276 C 0.62187 0.16106 0.58485 0.0
C1277 C 0.64258 0.15177 0.60227 0.0
C1278 C 0.58457 0.15741 0.59002 0.0
C1279 C 0.56629 0.14374 0.61273 0.0
C1280 C 0.58758 0.13528 0.63039 0.0
C1281 C 0.62531 0.13941 0.62525 0.0
C1282 C 0.48155 0.14933 0.64512 0.0
C1283 C 0.45388 0.14153 0.62641 0.0
C1284 C 0.51694 0.14829 0.64101 0.0
C1285 C 0.52592 0.13959 0.61793 0.0
C1286 C 0.49684 0.12938 0.59954 0.0
C1287 C 0.46151 0.13078 0.60365 0.0
H1288 H 0.54748 0.60101 0.10117 0.0
H1289 H 0.47952 0.65792 0.12111 0.0
H1290 H 0.48858 0.53524 0.10791 0.0
H1291 H 0.42062 0.59147 0.12878 0.0
H1292 H 0.33114 0.453 0.15151 0.0
H1293 H 0.39546 0.51662 0.15521 0.0
H1294 H 0.41945 0.50931 0.07994 0.0
H1295 H 0.35502 0.4473 0.07607 0.0
C1296 C 0.52023 0.5996 0.10756 0.0
C1297 C 0.51821 0.635 0.11012 0.0
C1298 C 0.48652 0.5618 0.11151 0.0
C1299 C 0.4499 0.55811 0.11872 0.0
C1300 C 0.44855 0.59339 0.12337 0.0
C1301 C 0.48234 0.63149 0.11904 0.0
C1302 C 0.35075 0.46453 0.13599 0.0
C1303 C 0.33846 0.4448 0.11358 0.0
C1304 C 0.38727 0.50113 0.13803 0.0
C1305 C 0.41245 0.51801 0.11783 0.0
C1306 C 0.40085 0.49706 0.09583 0.0
C1307 C 0.36408 0.46142 0.09364 0.0
H1308 H 0.95324 0.52275 0.64222 0.0
H1309 H 0.85192 0.47108 0.59379 0.0
H1310 H 0.95241 0.45864 0.64374 0.0
H1311 H 0.85148 0.40717 0.59493 0.0
H1312 H 0.90918 0.3315 0.5727 0.0
H1313 H 0.90649 0.39295 0.57779 0.0
H1314 H 0.90673 0.38028 0.65516 0.0
H1315 H 0.90778 0.31728 0.65001 0.0
C1316 C 0.93008 0.4973 0.63244 0.0
C1317 C 0.90242 0.50184 0.61802 0.0
C1318 C 0.92969 0.46066 0.63328 0.0
C1319 C 0.90217 0.42795 0.61928 0.0
C1320 C 0.87326 0.43193 0.6058 0.0
C1321 C 0.87318 0.46836 0.60532 0.0
C1322 C 0.9091 0.34198 0.59084 0.0
C1323 C 0.90927 0.31971 0.61092 0.0
C1324 C 0.90718 0.37702 0.59374 0.0
C1325 C 0.90575 0.3912 0.61685 0.0
C1326 C 0.90763 0.36999 0.6371 0.0
C1327 C 0.9087 0.33417 0.63417 0.0
H1328 H 0.61139 0.92789 0.07851 0.0
H1329 H 0.60624 0.89314 0.15298 0.0
H1330 H 0.54946 0.93003 0.08361 0.0
H1331 H 0.54265 0.89358 0.15787 0.0
H1332 H 0.40121 0.83923 0.12093 0.0
H1333 H 0.46702 0.84508 0.12838 0.0
H1334 H 0.525 0.97243 0.11594 0.0
H1335 H 0.45979 0.96708 0.10941 0.0
C1336 C 0.59739 0.92158 0.09615 0.0
C1337 C 0.61414 0.91124 0.11546 0.0
C1338 C 0.56182 0.92255 0.09903 0.0
C1339 C 0.54108 0.91173 0.12107 0.0
C1340 C 0.55803 0.90203 0.14067 0.0
C1341 C 0.59459 0.90225 0.13796 0.0
C1342 C 0.42783 0.86866 0.12076 0.0
C1343 C 0.42509 0.90256 0.11421 0.0
C1344 C 0.46554 0.872 0.12495 0.0
C1345 C 0.50116 0.90922 0.12258 0.0
C1346 C 0.49814 0.94339 0.11784 0.0
C1347 C 0.46068 0.94019 0.114 0.0
H1348 H 0.73505 0.59236 0.64623 0.0
H1349 H 0.72223 0.60535 0.56996 0.0
H1350 H 0.67031 0.52879 0.64613 0.0
H1351 H 0.65739 0.54331 0.57004 0.0
H1352 H 0.52626 0.44956 0.58479 0.0
H1353 H 0.58471 0.51476 0.59332 0.0
H1354 H 0.64875 0.45695 0.61908 0.0
H1355 H 0.59073 0.39111 0.60942 0.0
C1356 C 0.71778 0.58238 0.62968 0.0
C1357 C 0.73328 0.60416 0.60816 0.0
C1358 C 0.68103 0.54583 0.62956 0.0
C1359 C 0.65883 0.53104 0.60804 0.0
C1360 C 0.67363 0.55396 0.5869 0.0
C1361 C 0.71065 0.58958 0.58688 0.0
C1362 C 0.55266 0.4504 0.59227 0.0
C1363 C 0.55379 0.41466 0.59577 0.0
C1364 C 0.58607 0.48794 0.59738 0.0
C1365 C 0.62138 0.49104 0.60675 0.0
C1366 C 0.6218 0.45547 0.61201 0.0
C1367 C 0.58845 0.4177 0.60649 0.0
H1368 H 0.37048 0.93796 0.4302 0.0
H1369 H 0.33565 0.89025 0.35828 0.0
H1370 H 0.43455 0.94011 0.42533 0.0
H1371 H 0.39967 0.8907 0.35372 0.0
H1372 H 0.48751 0.84096 0.38964 0.0
H1373 H 0.42857 0.84823 0.38159 0.0
H1374 H 0.49937 0.97506 0.39562 0.0
H1375 H 0.5582 0.96826 0.40283 0.0
C1376 C 0.37712 0.92902 0.41305 0.0
C1377 C 0.34854 0.91502 0.39441 0.0
C1378 C 0.41369 0.92998 0.41031 0.0
C1379 C 0.42215 0.91543 0.38918 0.0
C1380 C 0.39399 0.90214 0.37019 0.0
C1381 C 0.35764 0.90238 0.37267 0.0
C1382 C 0.49087 0.8706 0.39009 0.0
C1383 C 0.52756 0.90388 0.39729 0.0
C1384 C 0.45706 0.87476 0.38554 0.0
C1385 C 0.45925 0.91219 0.38824 0.0
C1386 C 0.49663 0.94582 0.39358 0.0
C1387 C 0.53032 0.9418 0.39778 0.0
H1388 H 0.66018 0.46755 0.9213 0.0
H1389 H 0.60777 0.52021 0.87593 0.0
H1390 H 0.59719 0.40312 0.91977 0.0
H1391 H 0.54496 0.45563 0.87403 0.0
H1392 H 0.44985 0.31451 0.86497 0.0
H1393 H 0.51289 0.37882 0.86068 0.0
H1394 H 0.52803 0.38519 0.93802 0.0
H1395 H 0.46485 0.32235 0.94231 0.0
C1396 C 0.63566 0.46501 0.91037 0.0
C1397 C 0.63907 0.49891 0.89864 0.0
C1398 C 0.59941 0.42826 0.90969 0.0
C1399 C 0.56587 0.42432 0.89694 0.0
C1400 C 0.57016 0.45756 0.88392 0.0
C1401 C 0.60617 0.49451 0.88498 0.0
C1402 C 0.46602 0.33028 0.88104 0.0
C1403 C 0.45188 0.3136 0.90404 0.0
C1404 C 0.50239 0.36689 0.87858 0.0
C1405 C 0.52591 0.38678 0.89901 0.0
C1406 C 0.51112 0.37038 0.9219 0.0
C1407 C 0.47467 0.33452 0.92436 0.0
H1408 H 0.23047 0.65849 0.39103 0.0
H1409 H 0.10578 0.60308 0.41124 0.0
H1410 H 0.22183 0.59162 0.38329 0.0
H1411 H 0.09775 0.53694 0.40435 0.0
H1412 H 0.13646 0.4445 0.4349 0.0
H1413 H 0.13558 0.50725 0.43123 0.0
H1414 H 0.17546 0.51901 0.35743 0.0
H1415 H 0.17467 0.45467 0.36089 0.0
C1416 C 0.20103 0.6323 0.39316 0.0
C1417 C 0.16904 0.63638 0.40216 0.0
C1418 C 0.19609 0.59393 0.3888 0.0
C1419 C 0.15917 0.55889 0.39349 0.0
C1420 C 0.12663 0.56321 0.40078 0.0
C1421 C 0.13137 0.60127 0.40479 0.0
C1422 C 0.14366 0.45972 0.41761 0.0
C1423 C 0.15459 0.44406 0.39803 0.0
C1424 C 0.14343 0.49584 0.41554 0.0
C1425 C 0.15565 0.51832 0.39408 0.0
C1426 C 0.16593 0.50242 0.37421 0.0
C1427 C 0.16495 0.46535 0.37608 0.0
H1428 H 0.73047 0.15138 0.93935 0.0
H1429 H 0.73408 0.13947 0.86211 0.0
H1430 H 0.66709 0.15076 0.93574 0.0
H1431 H 0.66921 0.13728 0.85854 0.0
H1432 H 0.52852 0.0902 0.87607 0.0
H1433 H 0.59336 0.0927 0.8735 0.0
H1434 H 0.64733 0.20017 0.91683 0.0
H1435 H 0.58261 0.19796 0.91908 0.0
C1436 C 0.71727 0.14783 0.92158 0.0
C1437 C 0.73715 0.14491 0.90108 0.0
C1438 C 0.6811 0.14786 0.91951 0.0
C1439 C 0.66334 0.14462 0.89684 0.0
C1440 C 0.68221 0.13998 0.87627 0.0
C1441 C 0.71914 0.14077 0.87832 0.0
C1442 C 0.55453 0.11497 0.88449 0.0
C1443 C 0.55047 0.14401 0.89771 0.0
C1444 C 0.59164 0.11636 0.88301 0.0
C1445 C 0.62542 0.14636 0.89516 0.0
C1446 C 0.62177 0.17645 0.90744 0.0
C1447 C 0.58483 0.17547 0.90854 0.0
H1448 H 0.45728 0.51484 0.37547 0.0
H1449 H 0.40723 0.57619 0.41463 0.0
H1450 H 0.52155 0.57784 0.37211 0.0
H1451 H 0.47166 0.63894 0.41171 0.0
H1452 H 0.60372 0.71288 0.43767 0.0
H1453 H 0.53963 0.65138 0.43288 0.0
H1454 H 0.55669 0.6571 0.35576 0.0
H1455 H 0.62109 0.72047 0.36051 0.0
C1456 C 0.4597 0.54206 0.38276 0.0
C1457 C 0.42703 0.54056 0.39521 0.0
C1458 C 0.49652 0.5781 0.38084 0.0
C1459 C 0.50183 0.61332 0.39179 0.0
C1460 C 0.46855 0.61225 0.40315 0.0
C1461 C 0.43151 0.57641 0.40465 0.0
C1462 C 0.59416 0.70092 0.41964 0.0
C1463 C 0.61768 0.72162 0.39951 0.0
C1464 C 0.55721 0.66579 0.41691 0.0
C1465 C 0.54263 0.64973 0.39394 0.0
C1466 C 0.56702 0.66897 0.3737 0.0
C1467 C 0.60404 0.70499 0.37642 0.0
H1468 H 0.90628 0.58709 0.93885 0.0
H1469 H 0.90527 0.60053 0.86158 0.0
H1470 H 0.90517 0.52371 0.93356 0.0
H1471 H 0.90569 0.5373 0.85622 0.0
H1472 H 0.9543 0.44364 0.86773 0.0
H1473 H 0.95183 0.50605 0.86688 0.0
H1474 H 0.85233 0.45432 0.91657 0.0
H1475 H 0.85452 0.39174 0.91713 0.0
C1476 C 0.90662 0.57684 0.92068 0.0
C1477 C 0.90656 0.59924 0.90067 0.0
C1478 C 0.90559 0.54031 0.91766 0.0
C1479 C 0.90473 0.52513 0.89449 0.0
C1480 C 0.90622 0.54818 0.87432 0.0
C1481 C 0.90645 0.58461 0.87737 0.0
C1482 C 0.93114 0.44526 0.87789 0.0
C1483 C 0.90444 0.41271 0.89241 0.0
C1484 C 0.92979 0.48101 0.87743 0.0
C1485 C 0.90221 0.48531 0.89186 0.0
C1486 C 0.87419 0.45203 0.90542 0.0
C1487 C 0.8751 0.41604 0.90555 0.0
H1488 H 0.24325 0.36265 0.32292 0.0
H1489 H 0.16661 0.41288 0.31044 0.0
H1490 H 0.25738 0.36666 0.27961 0.0
H1491 H 0.18067 0.41698 0.26742 0.0
H1492 H 0.17299 0.36702 0.19024 0.0
H1493 H 0.16394 0.37155 0.23356 0.0
H1494 H 0.2892 0.41116 0.24554 0.0
H1495 H 0.29816 0.40663 0.20243 0.0
C1496 C 0.23017 0.37538 0.31105 0.0
C1497 C 0.2037 0.38727 0.32018 0.0
C1498 C 0.23812 0.37758 0.28617 0.0
C1499 C 0.2198 0.39175 0.26987 0.0
C1500 C 0.1947 0.40518 0.27926 0.0
C1501 C 0.18689 0.4031 0.30402 0.0
C1502 C 0.19872 0.37739 0.20204 0.0
C1503 C 0.23618 0.38613 0.19277 0.0
C1504 C 0.19358 0.37995 0.22695 0.0
C1505 C 0.22579 0.39138 0.24319 0.0
C1506 C 0.26354 0.40153 0.23373 0.0
C1507 C 0.26868 0.39912 0.20891 0.0
H1508 H 0.89708 0.27953 0.69967 0.0
H1509 H 0.82291 0.15216 0.68785 0.0
H1510 H 0.88344 0.26983 0.74274 0.0
H1511 H 0.80919 0.14229 0.7312 0.0
H1512 H 0.77077 0.1408 0.8092 0.0
H1513 H 0.77771 0.15378 0.76595 0.0
H1514 H 0.90244 0.24273 0.77625 0.0
H1515 H 0.89543 0.22968 0.8196 0.0
C1516 C 0.87732 0.2494 0.70623 0.0
C1517 C 0.8612 0.21657 0.69022 0.0
C1518 C 0.86977 0.24383 0.73103 0.0
C1519 C 0.84566 0.20523 0.74065 0.0
C1520 C 0.82773 0.17253 0.72449 0.0
C1521 C 0.83541 0.17814 0.69955 0.0
C1522 C 0.79972 0.1633 0.80231 0.0
C1523 C 0.83271 0.18384 0.818 0.0
C1524 C 0.80369 0.17061 0.77741 0.0
C1525 C 0.8407 0.19904 0.76742 0.0
C1526 C 0.87332 0.22082 0.78324 0.0
C1527 C 0.86936 0.21335 0.80819 0.0
H1528 H 0.66221 0.80328 0.18637 0.0
H1529 H 0.6714 0.91581 0.20615 0.0
H1530 H 0.6538 0.78386 0.22856 0.0
H1531 H 0.66922 0.89986 0.24795 0.0
H1532 H 0.6609 0.86757 0.32559 0.0
H1533 H 0.6488 0.87568 0.28358 0.0
H1534 H 0.67802 0.78432 0.26383 0.0
H1535 H 0.6839 0.7728 0.3056 0.0
C1536 C 0.66299 0.82416 0.19973 0.0
C1537 C 0.66903 0.86178 0.19269 0.0
C1538 C 0.6589 0.8134 0.22429 0.0
C1539 C 0.66212 0.84052 0.24268 0.0
C1540 C 0.66627 0.87738 0.23518 0.0
C1541 C 0.66859 0.88724 0.21074 0.0
C1542 C 0.66409 0.84888 0.31219 0.0
C1543 C 0.67489 0.82051 0.31916 0.0
C1544 C 0.65778 0.8539 0.28772 0.0
C1545 C 0.66352 0.83172 0.26927 0.0
C1546 C 0.67285 0.8023 0.27668 0.0
C1547 C 0.67738 0.79622 0.30108 0.0
H1548 H 0.89115 0.67345 0.69154 0.0
H1549 H 0.76586 0.63462 0.702 0.0
H1550 H 0.89881 0.6679 0.73478 0.0
H1551 H 0.77343 0.62898 0.74529 0.0
H1552 H 0.81922 0.678 0.82305 0.0
H1553 H 0.8045 0.67266 0.77982 0.0
H1554 H 0.88176 0.62281 0.76845 0.0
H1555 H 0.89649 0.62835 0.81144 0.0
C1556 C 0.86504 0.66304 0.70294 0.0
C1557 C 0.82803 0.65497 0.69318 0.0
C1558 C 0.86939 0.65981 0.72786 0.0
C1559 C 0.8368 0.64829 0.74371 0.0
C1560 C 0.79939 0.63865 0.73379 0.0
C1561 C 0.79504 0.64174 0.70888 0.0
C1562 C 0.8323 0.66506 0.81143 0.0
C1563 C 0.85926 0.65392 0.82078 0.0
C1564 C 0.82396 0.66205 0.78656 0.0
C1565 C 0.84235 0.64777 0.77047 0.0
C1566 C 0.86768 0.63475 0.78011 0.0
C1567 C 0.87593 0.6377 0.80486 0.0
H1568 H 0.14522 0.83952 0.20392 0.0
H1569 H 0.24629 0.82447 0.188 0.0
H1570 H 0.1608 0.84485 0.24671 0.0
H1571 H 0.2632 0.83113 0.23135 0.0
H1572 H 0.2996 0.8943 0.30792 0.0
H1573 H 0.28593 0.88064 0.26492 0.0
H1574 H 0.16018 0.80334 0.28059 0.0
H1575 H 0.17386 0.81768 0.32369 0.0
C1576 C 0.17037 0.83652 0.20969 0.0
C1577 C 0.1936 0.83014 0.19269 0.0
C1578 C 0.17951 0.8398 0.23428 0.0
C1579 C 0.21269 0.83741 0.24269 0.0
C1580 C 0.23721 0.83279 0.22554 0.0
C1581 C 0.22771 0.82915 0.20074 0.0
C1582 C 0.2691 0.87372 0.30225 0.0
C1583 C 0.23775 0.85723 0.31929 0.0
C1584 C 0.26131 0.86579 0.27754 0.0
C1585 C 0.2219 0.84127 0.26916 0.0
C1586 C 0.19086 0.8229 0.28636 0.0
C1587 C 0.1987 0.83067 0.31113 0.0
H1588 H 0.35737 0.14652 0.82394 0.0
H1589 H 0.42468 0.2748 0.81387 0.0
H1590 H 0.35581 0.13708 0.78015 0.0
H1591 H 0.42318 0.26539 0.77019 0.0
H1592 H 0.43848 0.22656 0.69267 0.0
H1593 H 0.44649 0.23735 0.73642 0.0
H1594 H 0.32076 0.15204 0.74631 0.0
H1595 H 0.31247 0.14218 0.70276 0.0
C1596 C 0.37274 0.17264 0.81246 0.0
C1597 C 0.39125 0.21137 0.82241 0.0
C1598 C 0.3714 0.16728 0.78734 0.0
C1599 C 0.38908 0.20051 0.77164 0.0
C1600 C 0.40948 0.23917 0.78172 0.0
C1601 C 0.41034 0.24453 0.80677 0.0
C1602 C 0.41246 0.21048 0.70416 0.0
C1603 C 0.37497 0.18297 0.69418 0.0
C1604 C 0.4171 0.21652 0.72924 0.0
C1605 C 0.38443 0.19494 0.74491 0.0
C1606 C 0.34676 0.16836 0.73483 0.0
C1607 C 0.34203 0.16278 0.70982 0.0
H1608 H 0.3586 0.23387 0.98193 0.0
H1609 H 0.26346 0.2289 0.93837 0.0
H1610 H 0.3353 0.25631 0.01641 0.0
H1611 H 0.2409 0.25274 0.97239 0.0
H1612 H 0.19676 0.27577 0.04633 0.0
H1613 H 0.21154 0.24357 0.01253 0.0
H1614 H 0.33827 0.31795 0.02679 0.0
H1615 H 0.32359 0.34936 0.05995 0.0
C1616 C 0.33199 0.23632 0.97989 0.0
C1617 C 0.31273 0.22911 0.95741 0.0
C1618 C 0.31897 0.25005 0.99955 0.0
C1619 C 0.28645 0.25717 0.99725 0.0
C1620 C 0.26586 0.24765 0.97507 0.0
C1621 C 0.27894 0.23404 0.95547 0.0
C1622 C 0.22771 0.28555 0.04192 0.0
C1623 C 0.2589 0.31489 0.05614 0.0
C1624 C 0.23628 0.26692 0.02264 0.0
C1625 C 0.27623 0.27721 0.01719 0.0
C1626 C 0.30714 0.30794 0.0308 0.0
C1627 C 0.29864 0.32635 0.04982 0.0
H1628 H 0.14209 0.30004 0.47405 0.0
H1629 H 0.0477 0.31178 0.43958 0.0
H1630 H 0.09895 0.27157 0.50983 0.0
H1631 H 1.0052 0.28248 0.47424 0.0
H1632 H 0.92375 0.19955 0.53364 0.0
H1633 H 0.96726 0.21774 0.49799 0.0
H1634 H 0.06928 0.29708 0.54167 0.0
H1635 H 1.02628 0.28038 0.57662 0.0
C1636 C 0.11245 0.29664 0.47394 0.0
C1637 C 0.09899 0.3087 0.45367 0.0
C1638 C 0.08753 0.28004 0.4944 0.0
C1639 C 0.04821 0.27418 0.49485 0.0
C1640 C 0.03478 0.28564 0.47447 0.0
C1641 C 0.0597 0.30284 0.45446 0.0
C1642 C 0.95528 0.22093 0.53566 0.0
C1643 C 0.97075 0.23915 0.55814 0.0
C1644 C 0.98043 0.23126 0.51522 0.0
C1645 C 1.02197 0.25914 0.51688 0.0
C1646 C 0.03768 0.27542 0.53961 0.0
C1647 C 1.01257 0.26587 0.55976 0.0
H1648 H 0.71455 0.9945 0.06245 0.0
H1649 H 0.77784 0.93203 0.0445 0.0
H1650 H 0.74463 0.03901 0.02856 0.0
H1651 H 0.80911 0.97775 0.01005 0.0
H1652 H 0.82073 0.04259 0.93623 0.0
H1653 H 0.79876 0.9983 0.97114 0.0
H1654 H 0.80505 0.09419 0.01479 0.0
H1655 H 0.82514 0.13778 0.97929 0.0
C1656 C 0.73511 0.99025 0.05127 0.0
C1657 C 0.74395 0.95969 0.05653 0.0
C1658 C 0.75285 1.01632 0.03179 0.0
C1659 C 0.78038 1.01312 0.01668 0.0
C1660 C 0.78821 0.98148 0.02127 0.0
C1661 C 0.77015 0.95503 0.04096 0.0
C1662 C 0.81791 0.05443 0.95336 0.0
C1663 C 0.82464 0.09386 0.95485 0.0
C1664 C 0.80551 0.02895 0.97352 0.0
C1665 C 0.79928 0.04205 0.99594 0.0
C1666 C 0.80855 0.08247 0.99778 0.0
C1667 C 0.82093 0.10798 0.97749 0.0
H1668 H 0.81974 0.69798 0.53368 0.0
H1669 H 0.82548 0.79352 0.57703 0.0
H1670 H 0.80068 0.72339 0.49861 0.0
H1671 H 0.80517 0.81835 0.5423 0.0
H1672 H 0.78917 0.86482 0.4666 0.0
H1673 H 0.81856 0.84855 0.50143 0.0
H1674 H 0.73926 0.72236 0.4881 0.0
H1675 H 0.71048 0.73844 0.45406 0.0
C1676 C 0.81824 0.72514 0.53556 0.0
C1677 C 0.82455 0.74387 0.55812 0.0
C1678 C 0.80651 0.7394 0.51555 0.0
C1679 C 0.80062 0.77269 0.51759 0.0
C1680 C 0.8094 0.79282 0.53987 0.0
C1681 C 0.82096 0.77845 0.55985 0.0
C1682 C 0.77769 0.83371 0.47147 0.0
C1683 C 0.7478 0.80298 0.45728 0.0
C1684 C 0.7947 0.82429 0.4913 0.0
C1685 C 0.78222 0.78398 0.49724 0.0
C1686 C 0.75087 0.75365 0.48369 0.0
C1687 C 0.73401 0.76298 0.46417 0.0
H1688 H 0.92014 0.71447 0.98086 0.0
H1689 H 1.02065 0.77283 0.93236 0.0
H1690 H 0.96606 0.74227 0.01529 0.0
H1691 H 0.06608 0.80087 0.96621 0.0
H1692 H 0.14072 0.80078 0.03141 0.0
H1693 H 0.09559 0.78115 0.9967 0.0
H1694 H 1.01175 0.79974 0.03861 0.0
H1695 H 0.05713 0.81921 0.07319 0.0
C1696 C 0.95173 0.73369 0.97743 0.0
C1697 C 0.96636 0.74072 0.95363 0.0
C1698 C 0.97834 0.74975 0.99724 0.0
C1699 C 1.02029 0.7735 0.99376 0.0
C1700 C 1.03439 0.78191 0.96989 0.0
C1701 C 1.00801 0.76581 0.95031 0.0
C1702 C 0.11344 0.80216 0.03292 0.0
C1703 C 0.10307 0.81249 0.05496 0.0
C1704 C 0.08711 0.79044 0.01303 0.0
C1705 C 0.04949 0.78848 0.01464 0.0
C1706 C 0.03989 0.8001 0.03658 0.0
C1707 C 0.06622 0.81179 0.05639 0.0
H1708 H 0.25265 1.00582 0.43644 0.0
H1709 H 0.29498 0.93532 0.47299 0.0
H1710 H 0.27872 0.05511 0.46908 0.0
H1711 H 0.32127 0.98473 0.50596 0.0
H1712 H 0.39939 0.10226 0.54861 0.0
H1713 H 0.37567 0.05612 0.51391 0.0
H1714 H 0.26733 0.06319 0.51167 0.0
H1715 H 0.29083 0.10844 0.54627 0.0
C1716 C 0.26657 1.0003 0.45186 0.0
C1717 C 0.27046 0.96591 0.4525 0.0
C1718 C 0.28186 0.02877 0.47053 0.0
C1719 C 0.3024 0.02426 0.49026 0.0
C1720 C 0.306 0.98953 0.49101 0.0
C1721 C 0.29016 0.96068 0.47237 0.0
C1722 C 0.37128 0.09514 0.54005 0.0
C1723 C 0.34738 0.10972 0.54989 0.0
C1724 C 0.3572 0.06798 0.52049 0.0
C1725 C 0.31923 0.05536 0.51002 0.0
C1726 C 0.2967 0.07214 0.51902 0.0
C1727 C 0.31038 0.09851 0.53876 0.0
loop_
_geom_bond_atom_site_label_1
_geom_bond_atom_site_label_2
_geom_bond_distance
_geom_bond_site_symmetry_2
_ccdc_geom_bond_type
Tb0 N31 2.660 . S
Tb0 N38 2.600 . S
Tb0 O44 2.546 . S
Tb0 O45 2.610 . S
Tb0 O47 2.320 . S
Tb0 O48 2.552 . S
Tb0 O49 2.413 . S
Tb0 O51 2.362 . S
Tb0 O52 2.421 . S
Tb0 C64 2.833 . S
C1 C4 1.432 . S
C1 C5 1.414 . S
C1 N8 1.359 . S
C2 C4 1.417 . S
C2 C6 1.432 . S
C2 C14 1.410 . S
C3 C5 1.444 . S
C3 C6 1.317 . S
C3 H26 0.929 . S
C4 C1 1.432 . S
C4 C2 1.417 . S
C4 N12 1.360 . S
C5 C1 1.414 . S
C5 C3 1.444 . S
C5 C10 1.385 . S
C6 C2 1.432 . S
C6 C3 1.317 . S
C6 H18 0.930 . S
C7 C9 1.392 . S
C7 C10 1.370 . S
C7 H19 0.931 . S
N8 C1 1.359 . S
N8 C9 1.327 . S
N8 Tb11 2.600 . S
C9 C7 1.392 . S
C9 N8 1.327 . S
C9 H16 0.930 . S
C10 C5 1.385 . S
C10 C7 1.370 . S
C10 H29 0.930 . S
Tb11 N8 2.600 . S
Tb11 N12 2.660 . S
Tb11 O45 2.362 . S
Tb11 O46 2.421 . S
Tb11 O50 2.546 . S
Tb11 O51 2.610 . S
Tb11 O53 2.320 . S
Tb11 O54 2.552 . S
Tb11 O55 2.413 . S
Tb11 C75 2.833 . S
N12 C4 1.360 . S
N12 Tb11 2.660 . S
N12 C13 1.305 . S
C13 N12 1.305 . S
C13 C15 1.407 . S
C13 H20 0.930 . S
C14 C2 1.410 . S
C14 C15 1.345 . S
C14 H22 0.930 . S
C15 C13 1.407 . S
C15 C14 1.345 . S
C15 H17 0.930 . S
H16 C9 0.930 . S
H17 C15 0.930 . S
H18 C6 0.930 . S
H19 C7 0.931 . S
H20 C13 0.930 . S
H21 C35 0.930 . S
H22 C14 0.930 . S
H23 C41 0.930 . S
H24 C32 0.930 . S
H25 C39 0.931 . S
H26 C3 0.929 . S
H27 C33 0.930 1_655 S
H28 C66 0.930 . S
H29 C10 0.930 . S
H30 C65 0.929 1_655 S
N31 Tb0 2.660 . S
N31 C32 1.305 . S
N31 C36 1.360 . S
C32 H24 0.930 . S
C32 N31 1.305 . S
C32 C35 1.407 . S
C33 H27 0.930 1_455 S
C33 C34 1.410 . S
C33 C35 1.345 . S
C34 C33 1.410 . S
C34 C36 1.417 . S
C34 C66 1.432 1_455 S
C35 H21 0.930 . S
C35 C32 1.407 . S
C35 C33 1.345 . S
C36 N31 1.360 . S
C36 C34 1.417 . S
C36 C40 1.432 . S
H37 C42 0.930 . S
N38 Tb0 2.600 . S
N38 C40 1.359 . S
N38 C41 1.327 . S
C39 H25 0.931 . S
C39 C41 1.392 . S
C39 C42 1.370 . S
C40 C36 1.432 . S
C40 N38 1.359 . S
C40 C43 1.414 . S
C41 H23 0.930 . S
C41 N38 1.327 . S
C41 C39 1.392 . S
C42 H37 0.930 . S
C42 C39 1.370 . S
C42 C43 1.385 . S
C43 C40 1.414 . S
C43 C42 1.385 . S
C43 C65 1.444 . S
O44 Tb0 2.546 . S
O44 C64 1.251 . S
O45 Tb0 2.610 . S
O45 Tb11 2.362 . S
O45 C56 1.283 . S
O46 Tb11 2.421 . S
O46 C63 1.262 . S
O47 Tb0 2.320 . S
O47 C63 1.260 . S
O48 Tb0 2.552 . S
O48 C56 1.243 . S
O49 Tb0 2.413 . S
O49 C64 1.256 . S
O50 Tb11 2.546 . S
O50 C75 1.251 . S
O51 Tb0 2.362 . S
O51 Tb11 2.610 . S
O51 C67 1.283 . S
O52 Tb0 2.421 . S
O52 C74 1.262 . S
O53 Tb11 2.320 . S
O53 C74 1.260 . S
O54 Tb11 2.552 . S
O54 C67 1.243 . S
O55 Tb11 2.413 . S
O55 C75 1.256 . S
C56 O45 1.283 . S
C56 O48 1.243 . S
C57 C59 1.382 . S
C57 C61 1.393 . S
C57 C64 1.500 . S
C58 C59 1.400 . S
C58 C60 1.384 . S
C59 C57 1.382 . S
C59 C58 1.400 . S
C59 H76 0.930 . S
C60 C58 1.384 . S
C60 C62 1.392 . S
C60 H77 0.931 . S
C61 C57 1.393 . S
C61 C62 1.401 . S
C61 H78 0.930 . S
C62 C60 1.392 . S
C62 C61 1.401 . S
C62 H79 0.930 . S
C63 O46 1.262 . S
C63 O47 1.260 . S
C64 Tb0 2.833 . S
C64 O44 1.251 . S
C64 O49 1.256 . S
C64 C57 1.500 . S
C65 H30 0.929 1_455 S
C65 C43 1.444 . S
C65 C66 1.317 1_455 S
C66 H28 0.930 . S
C66 C34 1.432 1_655 S
C66 C65 1.317 1_655 S
C67 O51 1.283 . S
C67 O54 1.243 . S
C68 C69 1.382 . S
C68 C72 1.393 . S
C68 C75 1.500 . S
C69 C68 1.382 . S
C69 C70 1.400 . S
C69 H80 0.930 . S
C70 C69 1.400 . S
C70 C71 1.384 . S
C71 C70 1.384 . S
C71 C73 1.392 . S
C71 H81 0.931 . S
C72 C68 1.393 . S
C72 C73 1.401 . S
C72 H82 0.930 . S
C73 C71 1.392 . S
C73 C72 1.401 . S
C73 H83 0.930 . S
C74 O52 1.262 . S
C74 O53 1.260 . S
C75 Tb11 2.833 . S
C75 O50 1.251 . S
C75 O55 1.256 . S
C75 C68 1.500 . S
H76 C59 0.930 . S
H77 C60 0.931 . S
H78 C61 0.930 . S
H79 C62 0.930 . S
H80 C69 0.930 . S
H81 C71 0.931 . S
H82 C72 0.930 . S
H83 C73 0.930 . S
Tb84 N115 2.660 . S
Tb84 N122 2.600 . S
Tb84 O128 2.546 . S
Tb84 O129 2.610 . S
Tb84 O131 2.320 . S
Tb84 O132 2.552 . S
Tb84 O133 2.413 . S
Tb84 O135 2.362 . S
Tb84 O136 2.421 . S
Tb84 C148 2.833 . S
C85 C88 1.432 . S
C85 C89 1.414 . S
C85 N92 1.359 . S
C86 C88 1.417 . S
C86 C90 1.432 . S
C86 C98 1.410 . S
C87 C89 1.444 . S
C87 C90 1.317 . S
C87 H110 0.929 1_655 S
C88 C85 1.432 . S
C88 C86 1.417 . S
C88 N96 1.360 . S
C89 C85 1.414 . S
C89 C87 1.444 . S
C89 C94 1.385 . S
C90 C86 1.432 . S
C90 C87 1.317 . S
C90 H102 0.930 1_655 S
C91 C93 1.392 . S
C91 C94 1.370 . S
C91 H103 0.931 . S
N92 C85 1.359 . S
N92 C93 1.327 . S
N92 Tb95 2.600 . S
C93 C91 1.392 . S
C93 N92 1.327 . S
C93 H100 0.930 . S
C94 C89 1.385 . S
C94 C91 1.370 . S
C94 H113 0.930 . S
Tb95 N92 2.600 . S
Tb95 N96 2.660 . S
Tb95 O129 2.362 . S
Tb95 O130 2.421 . S
Tb95 O134 2.546 . S
Tb95 O135 2.610 . S
Tb95 O137 2.320 . S
Tb95 O138 2.552 . S
Tb95 O139 2.413 . S
Tb95 C159 2.833 . S
N96 C88 1.360 . S
N96 Tb95 2.660 . S
N96 C97 1.305 . S
C97 N96 1.305 . S
C97 C99 1.407 . S
C97 H104 0.930 . S
C98 C86 1.410 . S
C98 C99 1.345 . S
C98 H106 0.930 . S
C99 C97 1.407 . S
C99 C98 1.345 . S
C99 H101 0.930 . S
H100 C93 0.930 . S
H101 C99 0.930 . S
H102 C90 0.930 1_455 S
H103 C91 0.931 . S
H104 C97 0.930 . S
H105 C119 0.930 . S
H106 C98 0.930 . S
H107 C125 0.930 . S
H108 C116 0.930 . S
H109 C123 0.931 . S
H110 C87 0.929 1_455 S
H111 C117 0.930 1_565 S
H112 C150 0.930 . S
H113 C94 0.930 . S
H114 C149 0.929 1_565 S
N115 Tb84 2.660 . S
N115 C116 1.305 . S
N115 C120 1.360 . S
C116 H108 0.930 . S
C116 N115 1.305 . S
C116 C119 1.407 . S
C117 H111 0.930 1_545 S
C117 C118 1.410 . S
C117 C119 1.345 . S
C118 C117 1.410 . S
C118 C120 1.417 . S
C118 C150 1.432 1_545 S
C119 H105 0.930 . S
C119 C116 1.407 . S
C119 C117 1.345 . S
C120 N115 1.360 . S
C120 C118 1.417 . S
C120 C124 1.432 . S
H121 C126 0.930 . S
N122 Tb84 2.600 . S
N122 C124 1.359 . S
N122 C125 1.327 . S
C123 H109 0.931 . S
C123 C125 1.392 . S
C123 C126 1.370 . S
C124 C120 1.432 . S
C124 N122 1.359 . S
C124 C127 1.414 . S
C125 H107 0.930 . S
C125 N122 1.327 . S
C125 C123 1.392 . S
C126 H121 0.930 . S
C126 C123 1.370 . S
C126 C127 1.385 . S
C127 C124 1.414 . S
C127 C126 1.385 . S
C127 C149 1.444 . S
O128 Tb84 2.546 . S
O128 C148 1.251 . S
O129 Tb84 2.610 . S
O129 Tb95 2.362 . S
O129 C140 1.283 . S
O130 Tb95 2.421 . S
O130 C147 1.262 . S
O131 Tb84 2.320 . S
O131 C147 1.260 . S
O132 Tb84 2.552 . S
O132 C140 1.243 . S
O133 Tb84 2.413 . S
O133 C148 1.256 . S
O134 Tb95 2.546 . S
O134 C159 1.251 . S
O135 Tb84 2.362 . S
O135 Tb95 2.610 . S
O135 C151 1.283 . S
O136 Tb84 2.421 . S
O136 C158 1.262 . S
O137 Tb95 2.320 . S
O137 C158 1.260 . S
O138 Tb95 2.552 . S
O138 C151 1.243 . S
O139 Tb95 2.413 . S
O139 C159 1.256 . S
C140 O129 1.283 . S
C140 O132 1.243 . S
C141 C143 1.382 . S
C141 C145 1.393 . S
C141 C148 1.500 . S
C142 C143 1.400 . S
C142 C144 1.384 . S
C143 C141 1.382 . S
C143 C142 1.400 . S
C143 H160 0.930 . S
C144 C142 1.384 . S
C144 C146 1.392 . S
C144 H161 0.931 . S
C145 C141 1.393 . S
C145 C146 1.401 . S
C145 H162 0.930 . S
C146 C144 1.392 . S
C146 C145 1.401 . S
C146 H163 0.930 . S
C147 O130 1.262 . S
C147 O131 1.260 . S
C148 Tb84 2.833 . S
C148 O128 1.251 . S
C148 O133 1.256 . S
C148 C141 1.500 . S
C149 H114 0.929 1_545 S
C149 C127 1.444 . S
C149 C150 1.317 1_545 S
C150 H112 0.930 . S
C150 C118 1.432 1_565 S
C150 C149 1.317 1_565 S
C151 O135 1.283 . S
C151 O138 1.243 . S
C152 C153 1.382 . S
C152 C156 1.393 . S
C152 C159 1.500 1_455 S
C153 C152 1.382 . S
C153 C154 1.400 . S
C153 H164 0.930 . S
C154 C153 1.400 . S
C154 C155 1.384 . S
C155 C154 1.384 . S
C155 C157 1.392 . S
C155 H165 0.931 . S
C156 C152 1.393 . S
C156 C157 1.401 . S
C156 H166 0.930 . S
C157 C155 1.392 . S
C157 C156 1.401 . S
C157 H167 0.930 . S
C158 O136 1.262 . S
C158 O137 1.260 . S
C159 Tb95 2.833 . S
C159 O134 1.251 . S
C159 O139 1.256 . S
C159 C152 1.500 1_655 S
H160 C143 0.930 . S
H161 C144 0.931 . S
H162 C145 0.930 . S
H163 C146 0.930 . S
H164 C153 0.930 . S
H165 C155 0.931 . S
H166 C156 0.930 . S
H167 C157 0.930 . S
Tb168 N199 2.660 . S
Tb168 N206 2.600 . S
Tb168 O212 2.546 . S
Tb168 O213 2.610 . S
Tb168 O215 2.320 . S
Tb168 O216 2.552 . S
Tb168 O217 2.413 . S
Tb168 O219 2.362 . S
Tb168 O220 2.421 . S
Tb168 C232 2.833 . S
C169 C172 1.432 . S
C169 C173 1.414 . S
C169 N176 1.359 . S
C170 C172 1.417 . S
C170 C174 1.432 . S
C170 C182 1.410 . S
C171 C173 1.444 . S
C171 C174 1.317 . S
C171 H194 0.929 1_565 S
C172 C169 1.432 . S
C172 C170 1.417 . S
C172 N180 1.360 . S
C173 C169 1.414 . S
C173 C171 1.444 . S
C173 C178 1.385 . S
C174 C170 1.432 . S
C174 C171 1.317 . S
C174 H186 0.930 1_565 S
C175 C177 1.392 . S
C175 C178 1.370 . S
C175 H187 0.931 . S
N176 C169 1.359 . S
N176 C177 1.327 . S
N176 Tb179 2.600 . S
C177 C175 1.392 . S
C177 N176 1.327 . S
C177 H184 0.930 . S
C178 C173 1.385 . S
C178 C175 1.370 . S
C178 H197 0.930 . S
Tb179 N176 2.600 . S
Tb179 N180 2.660 . S
Tb179 O213 2.362 . S
Tb179 O214 2.421 . S
Tb179 O218 2.546 . S
Tb179 O219 2.610 . S
Tb179 O221 2.320 . S
Tb179 O222 2.552 . S
Tb179 O223 2.413 . S
Tb179 C243 2.833 . S
N180 C172 1.360 . S
N180 Tb179 2.660 . S
N180 C181 1.305 . S
C181 N180 1.305 . S
C181 C183 1.407 . S
C181 H188 0.930 . S
C182 C170 1.410 . S
C182 C183 1.345 . S
C182 H190 0.930 . S
C183 C181 1.407 . S
C183 C182 1.345 . S
C183 H185 0.930 . S
H184 C177 0.930 . S
H185 C183 0.930 . S
H186 C174 0.930 1_545 S
H187 C175 0.931 . S
H188 C181 0.930 . S
H189 C203 0.930 . S
H190 C182 0.930 . S
H191 C209 0.930 . S
H192 C200 0.930 . S
H193 C207 0.931 . S
H194 C171 0.929 1_545 S
H195 C201 0.930 . S
H196 C234 0.930 . S
H197 C178 0.930 . S
H198 C233 0.929 . S
N199 Tb168 2.660 . S
N199 C200 1.305 . S
N199 C204 1.360 . S
C200 H192 0.930 . S
C200 N199 1.305 . S
C200 C203 1.407 . S
C201 H195 0.930 . S
C201 C202 1.410 . S
C201 C203 1.345 . S
C202 C201 1.410 . S
C202 C204 1.417 . S
C202 C234 1.432 . S
C203 H189 0.930 . S
C203 C200 1.407 . S
C203 C201 1.345 . S
C204 N199 1.360 . S
C204 C202 1.417 . S
C204 C208 1.432 . S
H205 C210 0.930 . S
N206 Tb168 2.600 . S
N206 C208 1.359 . S
N206 C209 1.327 . S
C207 H193 0.931 . S
C207 C209 1.392 . S
C207 C210 1.370 . S
C208 C204 1.432 . S
C208 N206 1.359 . S
C208 C211 1.414 . S
C209 H191 0.930 . S
C209 N206 1.327 . S
C209 C207 1.392 . S
C210 H205 0.930 . S
C210 C207 1.370 . S
C210 C211 1.385 . S
C211 C208 1.414 . S
C211 C210 1.385 . S
C211 C233 1.444 . S
O212 Tb168 2.546 . S
O212 C232 1.251 . S
O213 Tb168 2.610 . S
O213 Tb179 2.362 . S
O213 C224 1.283 . S
O214 Tb179 2.421 . S
O214 C231 1.262 . S
O215 Tb168 2.320 . S
O215 C231 1.260 . S
O216 Tb168 2.552 . S
O216 C224 1.243 . S
O217 Tb168 2.413 . S
O217 C232 1.256 . S
O218 Tb179 2.546 . S
O218 C243 1.251 . S
O219 Tb168 2.362 . S
O219 Tb179 2.610 . S
O219 C235 1.283 . S
O220 Tb168 2.421 . S
O220 C242 1.262 . S
O221 Tb179 2.320 . S
O221 C242 1.260 . S
O222 Tb179 2.552 . S
O222 C235 1.243 . S
O223 Tb179 2.413 . S
O223 C243 1.256 . S
C224 O213 1.283 . S
C224 O216 1.243 . S
C225 C227 1.382 . S
C225 C229 1.393 . S
C225 C232 1.500 . S
C226 C227 1.400 . S
C226 C228 1.384 . S
C227 C225 1.382 . S
C227 C226 1.400 . S
C227 H244 0.930 . S
C228 C226 1.384 . S
C228 C230 1.392 . S
C228 H245 0.931 . S
C229 C225 1.393 . S
C229 C230 1.401 . S
C229 H246 0.930 . S
C230 C228 1.392 . S
C230 C229 1.401 . S
C230 H247 0.930 . S
C231 O214 1.262 . S
C231 O215 1.260 . S
C232 Tb168 2.833 . S
C232 O212 1.251 . S
C232 O217 1.256 . S
C232 C225 1.500 . S
C233 H198 0.929 . S
C233 C211 1.444 . S
C233 C234 1.317 . S
C234 H196 0.930 . S
C234 C202 1.432 . S
C234 C233 1.317 . S
C235 O219 1.283 . S
C235 O222 1.243 . S
C236 C237 1.382 . S
C236 C240 1.393 . S
C236 C243 1.500 1_545 S
C237 C236 1.382 . S
C237 C238 1.400 . S
C237 H248 0.930 . S
C238 C237 1.400 . S
C238 C239 1.384 . S
C239 C238 1.384 . S
C239 C241 1.392 . S
C239 H249 0.931 . S
C240 C236 1.393 . S
C240 C241 1.401 . S
C240 H250 0.930 . S
C241 C239 1.392 . S
C241 C240 1.401 . S
C241 H251 0.930 . S
C242 O220 1.262 . S
C242 O221 1.260 . S
C243 Tb179 2.833 . S
C243 O218 1.251 . S
C243 O223 1.256 . S
C243 C236 1.500 1_565 S
H244 C227 0.930 . S
H245 C228 0.931 . S
H246 C229 0.930 . S
H247 C230 0.930 . S
H248 C237 0.930 . S
H249 C239 0.931 . S
H250 C240 0.930 . S
H251 C241 0.930 . S
Tb252 N283 2.660 . S
Tb252 N290 2.600 . S
Tb252 O296 2.546 . S
Tb252 O297 2.610 . S
Tb252 O299 2.320 . S
Tb252 O300 2.552 . S
Tb252 O301 2.413 . S
Tb252 O303 2.362 . S
Tb252 O304 2.421 . S
Tb252 C316 2.833 . S
C253 C256 1.432 . S
C253 C257 1.414 . S
C253 N260 1.359 . S
C254 C256 1.417 . S
C254 C258 1.432 . S
C254 C266 1.410 . S
C255 C257 1.444 . S
C255 C258 1.317 . S
C255 H278 0.929 . S
C256 C253 1.432 . S
C256 C254 1.417 . S
C256 N264 1.360 . S
C257 C253 1.414 . S
C257 C255 1.444 . S
C257 C262 1.385 . S
C258 C254 1.432 . S
C258 C255 1.317 . S
C258 H270 0.930 . S
C259 C261 1.392 . S
C259 C262 1.370 . S
C259 H271 0.931 . S
N260 C253 1.359 . S
N260 C261 1.327 . S
N260 Tb263 2.600 . S
C261 C259 1.392 . S
C261 N260 1.327 . S
C261 H268 0.930 . S
C262 C257 1.385 . S
C262 C259 1.370 . S
C262 H281 0.930 . S
Tb263 N260 2.600 . S
Tb263 N264 2.660 . S
Tb263 O297 2.362 . S
Tb263 O298 2.421 . S
Tb263 O302 2.546 . S
Tb263 O303 2.610 . S
Tb263 O305 2.320 . S
Tb263 O306 2.552 . S
Tb263 O307 2.413 . S
Tb263 C327 2.833 . S
N264 C256 1.360 . S
N264 Tb263 2.660 . S
N264 C265 1.305 . S
C265 N264 1.305 . S
C265 C267 1.407 . S
C265 H272 0.930 . S
C266 C254 1.410 . S
C266 C267 1.345 . S
C266 H274 0.930 . S
C267 C265 1.407 . S
C267 C266 1.345 . S
C267 H269 0.930 . S
H268 C261 0.930 . S
H269 C267 0.930 . S
H270 C258 0.930 . S
H271 C259 0.931 . S
H272 C265 0.930 . S
H273 C287 0.930 . S
H274 C266 0.930 . S
H275 C293 0.930 . S
H276 C284 0.930 . S
H277 C291 0.931 . S
H278 C255 0.929 . S
H279 C285 0.930 1_455 S
H280 C318 0.930 . S
H281 C262 0.930 . S
H282 C317 0.929 1_455 S
N283 Tb252 2.660 . S
N283 C284 1.305 . S
N283 C288 1.360 . S
C284 H276 0.930 . S
C284 N283 1.305 . S
C284 C287 1.407 . S
C285 H279 0.930 1_655 S
C285 C286 1.410 . S
C285 C287 1.345 . S
C286 C285 1.410 . S
C286 C288 1.417 . S
C286 C318 1.432 1_655 S
C287 H273 0.930 . S
C287 C284 1.407 . S
C287 C285 1.345 . S
C288 N283 1.360 . S
C288 C286 1.417 . S
C288 C292 1.432 . S
H289 C294 0.930 . S
N290 Tb252 2.600 . S
N290 C292 1.359 . S
N290 C293 1.327 . S
C291 H277 0.931 . S
C291 C293 1.392 . S
C291 C294 1.370 . S
C292 C288 1.432 . S
C292 N290 1.359 . S
C292 C295 1.414 . S
C293 H275 0.930 . S
C293 N290 1.327 . S
C293 C291 1.392 . S
C294 H289 0.930 . S
C294 C291 1.370 . S
C294 C295 1.385 . S
C295 C292 1.414 . S
C295 C294 1.385 . S
C295 C317 1.444 . S
O296 Tb252 2.546 . S
O296 C316 1.251 . S
O297 Tb252 2.610 . S
O297 Tb263 2.362 . S
O297 C308 1.283 . S
O298 Tb263 2.421 . S
O298 C315 1.262 . S
O299 Tb252 2.320 . S
O299 C315 1.260 . S
O300 Tb252 2.552 . S
O300 C308 1.243 . S
O301 Tb252 2.413 . S
O301 C316 1.256 . S
O302 Tb263 2.546 . S
O302 C327 1.251 . S
O303 Tb252 2.362 . S
O303 Tb263 2.610 . S
O303 C319 1.283 . S
O304 Tb252 2.421 . S
O304 C326 1.262 . S
O305 Tb263 2.320 . S
O305 C326 1.260 . S
O306 Tb263 2.552 . S
O306 C319 1.243 . S
O307 Tb263 2.413 . S
O307 C327 1.256 . S
C308 O297 1.283 . S
C308 O300 1.243 . S
C309 C311 1.382 . S
C309 C313 1.393 . S
C309 C316 1.500 . S
C310 C311 1.400 . S
C310 C312 1.384 . S
C311 C309 1.382 . S
C311 C310 1.400 . S
C311 H328 0.930 . S
C312 C310 1.384 . S
C312 C314 1.392 . S
C312 H329 0.931 . S
C313 C309 1.393 . S
C313 C314 1.401 . S
C313 H330 0.930 . S
C314 C312 1.392 . S
C314 C313 1.401 . S
C314 H331 0.930 . S
C315 O298 1.262 . S
C315 O299 1.260 . S
C316 Tb252 2.833 . S
C316 O296 1.251 . S
C316 O301 1.256 . S
C316 C309 1.500 . S
C317 H282 0.929 1_655 S
C317 C295 1.444 . S
C317 C318 1.317 1_655 S
C318 H280 0.930 . S
C318 C286 1.432 1_455 S
C318 C317 1.317 1_455 S
C319 O303 1.283 . S
C319 O306 1.243 . S
C320 C321 1.382 . S
C320 C324 1.393 . S
C320 C327 1.500 . S
C321 C320 1.382 . S
C321 C322 1.400 . S
C321 H332 0.930 . S
C322 C321 1.400 . S
C322 C323 1.384 . S
C323 C322 1.384 . S
C323 C325 1.392 . S
C323 H333 0.931 . S
C324 C320 1.393 . S
C324 C325 1.401 . S
C324 H334 0.930 . S
C325 C323 1.392 . S
C325 C324 1.401 . S
C325 H335 0.930 . S
C326 O304 1.262 . S
C326 O305 1.260 . S
C327 Tb263 2.833 . S
C327 O302 1.251 . S
C327 O307 1.256 . S
C327 C320 1.500 . S
H328 C311 0.930 . S
H329 C312 0.931 . S
H330 C313 0.930 . S
H331 C314 0.930 . S
H332 C321 0.930 . S
H333 C323 0.931 . S
H334 C324 0.930 . S
H335 C325 0.930 . S
Tb336 N367 2.660 . S
Tb336 N374 2.600 . S
Tb336 O380 2.546 . S
Tb336 O381 2.610 . S
Tb336 O383 2.320 . S
Tb336 O384 2.552 . S
Tb336 O385 2.413 . S
Tb336 O387 2.362 . S
Tb336 O388 2.421 . S
Tb336 C400 2.833 . S
C337 C340 1.432 . S
C337 C341 1.414 . S
C337 N344 1.359 . S
C338 C340 1.417 . S
C338 C342 1.432 . S
C338 C350 1.410 . S
C339 C341 1.444 . S
C339 C342 1.317 . S
C339 H362 0.929 1_455 S
C340 C337 1.432 . S
C340 C338 1.417 . S
C340 N348 1.360 . S
C341 C337 1.414 . S
C341 C339 1.444 . S
C341 C346 1.385 . S
C342 C338 1.432 . S
C342 C339 1.317 . S
C342 H354 0.930 1_455 S
C343 C345 1.392 . S
C343 C346 1.370 . S
C343 H355 0.931 . S
N344 C337 1.359 . S
N344 C345 1.327 . S
N344 Tb347 2.600 . S
C345 C343 1.392 . S
C345 N344 1.327 . S
C345 H352 0.930 . S
C346 C341 1.385 . S
C346 C343 1.370 . S
C346 H365 0.930 . S
Tb347 N344 2.600 . S
Tb347 N348 2.660 . S
Tb347 O381 2.362 . S
Tb347 O382 2.421 . S
Tb347 O386 2.546 . S
Tb347 O387 2.610 . S
Tb347 O389 2.320 . S
Tb347 O390 2.552 . S
Tb347 O391 2.413 . S
Tb347 C411 2.833 . S
N348 C340 1.360 . S
N348 Tb347 2.660 . S
N348 C349 1.305 . S
C349 N348 1.305 . S
C349 C351 1.407 . S
C349 H356 0.930 . S
C350 C338 1.410 . S
C350 C351 1.345 . S
C350 H358 0.930 . S
C351 C349 1.407 . S
C351 C350 1.345 . S
C351 H353 0.930 . S
H352 C345 0.930 . S
H353 C351 0.930 . S
H354 C342 0.930 1_655 S
H355 C343 0.931 . S
H356 C349 0.930 . S
H357 C371 0.930 . S
H358 C350 0.930 . S
H359 C377 0.930 . S
H360 C368 0.930 . S
H361 C375 0.931 . S
H362 C339 0.929 1_655 S
H363 C369 0.930 1_545 S
H364 C402 0.930 . S
H365 C346 0.930 . S
H366 C401 0.929 1_545 S
N367 Tb336 2.660 . S
N367 C368 1.305 . S
N367 C372 1.360 . S
C368 H360 0.930 . S
C368 N367 1.305 . S
C368 C371 1.407 . S
C369 H363 0.930 1_565 S
C369 C370 1.410 . S
C369 C371 1.345 . S
C370 C369 1.410 . S
C370 C372 1.417 . S
C370 C402 1.432 1_565 S
C371 H357 0.930 . S
C371 C368 1.407 . S
C371 C369 1.345 . S
C372 N367 1.360 . S
C372 C370 1.417 . S
C372 C376 1.432 . S
H373 C378 0.930 . S
N374 Tb336 2.600 . S
N374 C376 1.359 . S
N374 C377 1.327 . S
C375 H361 0.931 . S
C375 C377 1.392 . S
C375 C378 1.370 . S
C376 C372 1.432 . S
C376 N374 1.359 . S
C376 C379 1.414 . S
C377 H359 0.930 . S
C377 N374 1.327 . S
C377 C375 1.392 . S
C378 H373 0.930 . S
C378 C375 1.370 . S
C378 C379 1.385 . S
C379 C376 1.414 . S
C379 C378 1.385 . S
C379 C401 1.444 . S
O380 Tb336 2.546 . S
O380 C400 1.251 . S
O381 Tb336 2.610 . S
O381 Tb347 2.362 . S
O381 C392 1.283 . S
O382 Tb347 2.421 . S
O382 C399 1.262 . S
O383 Tb336 2.320 . S
O383 C399 1.260 . S
O384 Tb336 2.552 . S
O384 C392 1.243 . S
O385 Tb336 2.413 . S
O385 C400 1.256 . S
O386 Tb347 2.546 . S
O386 C411 1.251 . S
O387 Tb336 2.362 . S
O387 Tb347 2.610 . S
O387 C403 1.283 . S
O388 Tb336 2.421 . S
O388 C410 1.262 . S
O389 Tb347 2.320 . S
O389 C410 1.260 . S
O390 Tb347 2.552 . S
O390 C403 1.243 . S
O391 Tb347 2.413 . S
O391 C411 1.256 . S
C392 O381 1.283 . S
C392 O384 1.243 . S
C393 C395 1.382 . S
C393 C397 1.393 . S
C393 C400 1.500 . S
C394 C395 1.400 . S
C394 C396 1.384 . S
C395 C393 1.382 . S
C395 C394 1.400 . S
C395 H412 0.930 . S
C396 C394 1.384 . S
C396 C398 1.392 . S
C396 H413 0.931 . S
C397 C393 1.393 . S
C397 C398 1.401 . S
C397 H414 0.930 . S
C398 C396 1.392 . S
C398 C397 1.401 . S
C398 H415 0.930 . S
C399 O382 1.262 . S
C399 O383 1.260 . S
C400 Tb336 2.833 . S
C400 O380 1.251 . S
C400 O385 1.256 . S
C400 C393 1.500 . S
C401 H366 0.929 1_565 S
C401 C379 1.444 . S
C401 C402 1.317 1_565 S
C402 H364 0.930 . S
C402 C370 1.432 1_545 S
C402 C401 1.317 1_545 S
C403 O387 1.283 . S
C403 O390 1.243 . S
C404 C405 1.382 . S
C404 C408 1.393 . S
C404 C411 1.500 1_655 S
C405 C404 1.382 . S
C405 C406 1.400 . S
C405 H416 0.930 . S
C406 C405 1.400 . S
C406 C407 1.384 . S
C407 C406 1.384 . S
C407 C409 1.392 . S
C407 H417 0.931 . S
C408 C404 1.393 . S
C408 C409 1.401 . S
C408 H418 0.930 . S
C409 C407 1.392 . S
C409 C408 1.401 . S
C409 H419 0.930 . S
C410 O388 1.262 . S
C410 O389 1.260 . S
C411 Tb347 2.833 . S
C411 O386 1.251 . S
C411 O391 1.256 . S
C411 C404 1.500 1_455 S
H412 C395 0.930 . S
H413 C396 0.931 . S
H414 C397 0.930 . S
H415 C398 0.930 . S
H416 C405 0.930 . S
H417 C407 0.931 . S
H418 C408 0.930 . S
H419 C409 0.930 . S
Tb420 N451 2.660 . S
Tb420 N458 2.600 . S
Tb420 O464 2.546 . S
Tb420 O465 2.610 . S
Tb420 O467 2.320 . S
Tb420 O468 2.552 . S
Tb420 O469 2.413 . S
Tb420 O471 2.362 . S
Tb420 O472 2.421 . S
Tb420 C484 2.833 . S
C421 C424 1.432 . S
C421 C425 1.414 . S
C421 N428 1.359 . S
C422 C424 1.417 . S
C422 C426 1.432 . S
C422 C434 1.410 . S
C423 C425 1.444 . S
C423 C426 1.317 . S
C423 H446 0.929 1_545 S
C424 C421 1.432 . S
C424 C422 1.417 . S
C424 N432 1.360 . S
C425 C421 1.414 . S
C425 C423 1.444 . S
C425 C430 1.385 . S
C426 C422 1.432 . S
C426 C423 1.317 . S
C426 H438 0.930 1_545 S
C427 C429 1.392 . S
C427 C430 1.370 . S
C427 H439 0.931 . S
N428 C421 1.359 . S
N428 C429 1.327 . S
N428 Tb431 2.600 . S
C429 C427 1.392 . S
C429 N428 1.327 . S
C429 H436 0.930 . S
C430 C425 1.385 . S
C430 C427 1.370 . S
C430 H449 0.930 . S
Tb431 N428 2.600 . S
Tb431 N432 2.660 . S
Tb431 O465 2.362 . S
Tb431 O466 2.421 . S
Tb431 O470 2.546 . S
Tb431 O471 2.610 . S
Tb431 O473 2.320 . S
Tb431 O474 2.552 . S
Tb431 O475 2.413 . S
Tb431 C495 2.833 . S
N432 C424 1.360 . S
N432 Tb431 2.660 . S
N432 C433 1.305 . S
C433 N432 1.305 . S
C433 C435 1.407 . S
C433 H440 0.930 . S
C434 C422 1.410 . S
C434 C435 1.345 . S
C434 H442 0.930 . S
C435 C433 1.407 . S
C435 C434 1.345 . S
C435 H437 0.930 . S
H436 C429 0.930 . S
H437 C435 0.930 . S
H438 C426 0.930 1_565 S
H439 C427 0.931 . S
H440 C433 0.930 . S
H441 C455 0.930 . S
H442 C434 0.930 . S
H443 C461 0.930 . S
H444 C452 0.930 . S
H445 C459 0.931 . S
H446 C423 0.929 1_565 S
H447 C453 0.930 . S
H448 C486 0.930 . S
H449 C430 0.930 . S
H450 C485 0.929 . S
N451 Tb420 2.660 . S
N451 C452 1.305 . S
N451 C456 1.360 . S
C452 H444 0.930 . S
C452 N451 1.305 . S
C452 C455 1.407 . S
C453 H447 0.930 . S
C453 C454 1.410 . S
C453 C455 1.345 . S
C454 C453 1.410 . S
C454 C456 1.417 . S
C454 C486 1.432 . S
C455 H441 0.930 . S
C455 C452 1.407 . S
C455 C453 1.345 . S
C456 N451 1.360 . S
C456 C454 1.417 . S
C456 C460 1.432 . S
H457 C462 0.930 . S
N458 Tb420 2.600 . S
N458 C460 1.359 . S
N458 C461 1.327 . S
C459 H445 0.931 . S
C459 C461 1.392 . S
C459 C462 1.370 . S
C460 C456 1.432 . S
C460 N458 1.359 . S
C460 C463 1.414 . S
C461 H443 0.930 . S
C461 N458 1.327 . S
C461 C459 1.392 . S
C462 H457 0.930 . S
C462 C459 1.370 . S
C462 C463 1.385 . S
C463 C460 1.414 . S
C463 C462 1.385 . S
C463 C485 1.444 . S
O464 Tb420 2.546 . S
O464 C484 1.251 . S
O465 Tb420 2.610 . S
O465 Tb431 2.362 . S
O465 C476 1.283 . S
O466 Tb431 2.421 . S
O466 C483 1.262 . S
O467 Tb420 2.320 . S
O467 C483 1.260 . S
O468 Tb420 2.552 . S
O468 C476 1.243 . S
O469 Tb420 2.413 . S
O469 C484 1.256 . S
O470 Tb431 2.546 . S
O470 C495 1.251 . S
O471 Tb420 2.362 . S
O471 Tb431 2.610 . S
O471 C487 1.283 . S
O472 Tb420 2.421 . S
O472 C494 1.262 . S
O473 Tb431 2.320 . S
O473 C494 1.260 . S
O474 Tb431 2.552 . S
O474 C487 1.243 . S
O475 Tb431 2.413 . S
O475 C495 1.256 . S
C476 O465 1.283 . S
C476 O468 1.243 . S
C477 C479 1.382 . S
C477 C481 1.393 . S
C477 C484 1.500 . S
C478 C479 1.400 . S
C478 C480 1.384 . S
C479 C477 1.382 . S
C479 C478 1.400 . S
C479 H496 0.930 . S
C480 C478 1.384 . S
C480 C482 1.392 . S
C480 H497 0.931 . S
C481 C477 1.393 . S
C481 C482 1.401 . S
C481 H498 0.930 . S
C482 C480 1.392 . S
C482 C481 1.401 . S
C482 H499 0.930 . S
C483 O466 1.262 . S
C483 O467 1.260 . S
C484 Tb420 2.833 . S
C484 O464 1.251 . S
C484 O469 1.256 . S
C484 C477 1.500 . S
C485 H450 0.929 . S
C485 C463 1.444 . S
C485 C486 1.317 . S
C486 H448 0.930 . S
C486 C454 1.432 . S
C486 C485 1.317 . S
C487 O471 1.283 . S
C487 O474 1.243 . S
C488 C489 1.382 . S
C488 C492 1.393 . S
C488 C495 1.500 1_565 S
C489 C488 1.382 . S
C489 C490 1.400 . S
C489 H500 0.930 . S
C490 C489 1.400 . S
C490 C491 1.384 . S
C491 C490 1.384 . S
C491 C493 1.392 . S
C491 H501 0.931 . S
C492 C488 1.393 . S
C492 C493 1.401 . S
C492 H502 0.930 . S
C493 C491 1.392 . S
C493 C492 1.401 . S
C493 H503 0.930 . S
C494 O472 1.262 . S
C494 O473 1.260 . S
C495 Tb431 2.833 . S
C495 O470 1.251 . S
C495 O475 1.256 . S
C495 C488 1.500 1_545 S
H496 C479 0.930 . S
H497 C480 0.931 . S
H498 C481 0.930 . S
H499 C482 0.930 . S
H500 C489 0.930 . S
H501 C491 0.931 . S
H502 C492 0.930 . S
H503 C493 0.930 . S
Tb504 N535 2.660 . S
Tb504 N542 2.600 . S
Tb504 O548 2.546 . S
Tb504 O549 2.610 . S
Tb504 O551 2.320 . S
Tb504 O552 2.552 . S
Tb504 O553 2.413 . S
Tb504 O555 2.362 . S
Tb504 O556 2.421 . S
Tb504 C568 2.833 . S
C505 C508 1.432 . S
C505 C509 1.414 . S
C505 N512 1.359 . S
C506 C508 1.417 . S
C506 C510 1.432 . S
C506 C518 1.410 . S
C507 C509 1.444 . S
C507 C510 1.317 . S
C507 H530 0.929 . S
C508 C505 1.432 . S
C508 C506 1.417 . S
C508 N516 1.360 . S
C509 C505 1.414 . S
C509 C507 1.444 . S
C509 C514 1.385 . S
C510 C506 1.432 . S
C510 C507 1.317 . S
C510 H522 0.930 . S
C511 C513 1.392 . S
C511 C514 1.370 . S
C511 H523 0.931 . S
N512 C505 1.359 . S
N512 C513 1.327 . S
N512 Tb515 2.600 . S
C513 C511 1.392 . S
C513 N512 1.327 . S
C513 H520 0.930 . S
C514 C509 1.385 . S
C514 C511 1.370 . S
C514 H533 0.930 . S
Tb515 N512 2.600 . S
Tb515 N516 2.660 . S
Tb515 O549 2.362 . S
Tb515 O550 2.421 . S
Tb515 O554 2.546 . S
Tb515 O555 2.610 . S
Tb515 O557 2.320 . S
Tb515 O558 2.552 . S
Tb515 O559 2.413 . S
Tb515 C579 2.833 . S
N516 C508 1.360 . S
N516 Tb515 2.660 . S
N516 C517 1.305 . S
C517 N516 1.305 . S
C517 C519 1.407 . S
C517 H524 0.930 . S
C518 C506 1.410 . S
C518 C519 1.345 . S
C518 H526 0.930 . S
C519 C517 1.407 . S
C519 C518 1.345 . S
C519 H521 0.930 . S
H520 C513 0.930 . S
H521 C519 0.930 . S
H522 C510 0.930 . S
H523 C511 0.931 . S
H524 C517 0.930 . S
H525 C539 0.930 . S
H526 C518 0.930 . S
H527 C545 0.930 . S
H528 C536 0.930 . S
H529 C543 0.931 . S
H530 C507 0.929 . S
H531 C537 0.930 1_545 S
H532 C570 0.930 . S
H533 C514 0.930 . S
H534 C569 0.929 1_545 S
N535 Tb504 2.660 . S
N535 C536 1.305 . S
N535 C540 1.360 . S
C536 H528 0.930 . S
C536 N535 1.305 . S
C536 C539 1.407 . S
C537 H531 0.930 1_565 S
C537 C538 1.410 . S
C537 C539 1.345 . S
C538 C537 1.410 . S
C538 C540 1.417 . S
C538 C570 1.432 1_565 S
C539 H525 0.930 . S
C539 C536 1.407 . S
C539 C537 1.345 . S
C540 N535 1.360 . S
C540 C538 1.417 . S
C540 C544 1.432 . S
H541 C546 0.930 . S
N542 Tb504 2.600 . S
N542 C544 1.359 . S
N542 C545 1.327 . S
C543 H529 0.931 . S
C543 C545 1.392 . S
C543 C546 1.370 . S
C544 C540 1.432 . S
C544 N542 1.359 . S
C544 C547 1.414 . S
C545 H527 0.930 . S
C545 N542 1.327 . S
C545 C543 1.392 . S
C546 H541 0.930 . S
C546 C543 1.370 . S
C546 C547 1.385 . S
C547 C544 1.414 . S
C547 C546 1.385 . S
C547 C569 1.444 . S
O548 Tb504 2.546 . S
O548 C568 1.251 . S
O549 Tb504 2.610 . S
O549 Tb515 2.362 . S
O549 C560 1.283 . S
O550 Tb515 2.421 . S
O550 C567 1.262 . S
O551 Tb504 2.320 . S
O551 C567 1.260 . S
O552 Tb504 2.552 . S
O552 C560 1.243 . S
O553 Tb504 2.413 . S
O553 C568 1.256 . S
O554 Tb515 2.546 . S
O554 C579 1.251 . S
O555 Tb504 2.362 . S
O555 Tb515 2.610 . S
O555 C571 1.283 . S
O556 Tb504 2.421 . S
O556 C578 1.262 . S
O557 Tb515 2.320 . S
O557 C578 1.260 . S
O558 Tb515 2.552 . S
O558 C571 1.243 . S
O559 Tb515 2.413 . S
O559 C579 1.256 . S
C560 O549 1.283 . S
C560 O552 1.243 . S
C561 C563 1.382 . S
C561 C565 1.393 . S
C561 C568 1.500 . S
C562 C563 1.400 . S
C562 C564 1.384 . S
C563 C561 1.382 . S
C563 C562 1.400 . S
C563 H580 0.930 . S
C564 C562 1.384 . S
C564 C566 1.392 . S
C564 H581 0.931 . S
C565 C561 1.393 . S
C565 C566 1.401 . S
C565 H582 0.930 . S
C566 C564 1.392 . S
C566 C565 1.401 . S
C566 H583 0.930 . S
C567 O550 1.262 . S
C567 O551 1.260 . S
C568 Tb504 2.833 . S
C568 O548 1.251 . S
C568 O553 1.256 . S
C568 C561 1.500 . S
C569 H534 0.929 1_565 S
C569 C547 1.444 . S
C569 C570 1.317 1_565 S
C570 H532 0.930 . S
C570 C538 1.432 1_545 S
C570 C569 1.317 1_545 S
C571 O555 1.283 . S
C571 O558 1.243 . S
C572 C573 1.382 . S
C572 C576 1.393 . S
C572 C579 1.500 . S
C573 C572 1.382 . S
C573 C574 1.400 . S
C573 H584 0.930 . S
C574 C573 1.400 . S
C574 C575 1.384 . S
C575 C574 1.384 . S
C575 C577 1.392 . S
C575 H585 0.931 . S
C576 C572 1.393 . S
C576 C577 1.401 . S
C576 H586 0.930 . S
C577 C575 1.392 . S
C577 C576 1.401 . S
C577 H587 0.930 . S
C578 O556 1.262 . S
C578 O557 1.260 . S
C579 Tb515 2.833 . S
C579 O554 1.251 . S
C579 O559 1.256 . S
C579 C572 1.500 . S
H580 C563 0.930 . S
H581 C564 0.931 . S
H582 C565 0.930 . S
H583 C566 0.930 . S
H584 C573 0.930 . S
H585 C575 0.931 . S
H586 C576 0.930 . S
H587 C577 0.930 . S
Tb588 N619 2.660 . S
Tb588 N626 2.600 . S
Tb588 O632 2.546 . S
Tb588 O633 2.610 . S
Tb588 O635 2.320 . S
Tb588 O636 2.552 . S
Tb588 O637 2.413 . S
Tb588 O639 2.362 . S
Tb588 O640 2.421 . S
Tb588 C652 2.833 . S
C589 C592 1.432 . S
C589 C593 1.414 . S
C589 N596 1.359 . S
C590 C592 1.417 . S
C590 C594 1.432 . S
C590 C602 1.410 . S
C591 C593 1.444 . S
C591 C594 1.317 . S
C591 H614 0.929 1_655 S
C592 C589 1.432 . S
C592 C590 1.417 . S
C592 N600 1.360 . S
C593 C589 1.414 . S
C593 C591 1.444 . S
C593 C598 1.385 . S
C594 C590 1.432 . S
C594 C591 1.317 . S
C594 H606 0.930 1_655 S
C595 C597 1.392 . S
C595 C598 1.370 . S
C595 H607 0.931 . S
N596 C589 1.359 . S
N596 C597 1.327 . S
N596 Tb599 2.600 . S
C597 C595 1.392 . S
C597 N596 1.327 . S
C597 H604 0.930 . S
C598 C593 1.385 . S
C598 C595 1.370 . S
C598 H617 0.930 . S
Tb599 N596 2.600 . S
Tb599 N600 2.660 . S
Tb599 O633 2.362 . S
Tb599 O634 2.421 . S
Tb599 O638 2.546 . S
Tb599 O639 2.610 . S
Tb599 O641 2.320 . S
Tb599 O642 2.552 . S
Tb599 O643 2.413 . S
Tb599 C663 2.833 . S
N600 C592 1.360 . S
N600 Tb599 2.660 . S
N600 C601 1.305 . S
C601 N600 1.305 . S
C601 C603 1.407 . S
C601 H608 0.930 . S
C602 C590 1.410 . S
C602 C603 1.345 . S
C602 H610 0.930 . S
C603 C601 1.407 . S
C603 C602 1.345 . S
C603 H605 0.930 . S
H604 C597 0.930 . S
H605 C603 0.930 . S
H606 C594 0.930 1_455 S
H607 C595 0.931 . S
H608 C601 0.930 . S
H609 C623 0.930 . S
H610 C602 0.930 . S
H611 C629 0.930 . S
H612 C620 0.930 . S
H613 C627 0.931 . S
H614 C591 0.929 1_455 S
H615 C621 0.930 . S
H616 C654 0.930 . S
H617 C598 0.930 . S
H618 C653 0.929 . S
N619 Tb588 2.660 . S
N619 C620 1.305 . S
N619 C624 1.360 . S
C620 H612 0.930 . S
C620 N619 1.305 . S
C620 C623 1.407 . S
C621 H615 0.930 . S
C621 C622 1.410 . S
C621 C623 1.345 . S
C622 C621 1.410 . S
C622 C624 1.417 . S
C622 C654 1.432 . S
C623 H609 0.930 . S
C623 C620 1.407 . S
C623 C621 1.345 . S
C624 N619 1.360 . S
C624 C622 1.417 . S
C624 C628 1.432 . S
H625 C630 0.930 . S
N626 Tb588 2.600 . S
N626 C628 1.359 . S
N626 C629 1.327 . S
C627 H613 0.931 . S
C627 C629 1.392 . S
C627 C630 1.370 . S
C628 C624 1.432 . S
C628 N626 1.359 . S
C628 C631 1.414 . S
C629 H611 0.930 . S
C629 N626 1.327 . S
C629 C627 1.392 . S
C630 H625 0.930 . S
C630 C627 1.370 . S
C630 C631 1.385 . S
C631 C628 1.414 . S
C631 C630 1.385 . S
C631 C653 1.444 . S
O632 Tb588 2.546 . S
O632 C652 1.251 . S
O633 Tb588 2.610 . S
O633 Tb599 2.362 . S
O633 C644 1.283 . S
O634 Tb599 2.421 . S
O634 C651 1.262 . S
O635 Tb588 2.320 . S
O635 C651 1.260 . S
O636 Tb588 2.552 . S
O636 C644 1.243 . S
O637 Tb588 2.413 . S
O637 C652 1.256 . S
O638 Tb599 2.546 . S
O638 C663 1.251 . S
O639 Tb588 2.362 . S
O639 Tb599 2.610 . S
O639 C655 1.283 . S
O640 Tb588 2.421 . S
O640 C662 1.262 . S
O641 Tb599 2.320 . S
O641 C662 1.260 . S
O642 Tb599 2.552 . S
O642 C655 1.243 . S
O643 Tb599 2.413 . S
O643 C663 1.256 . S
C644 O633 1.283 . S
C644 O636 1.243 . S
C645 C647 1.382 . S
C645 C649 1.393 . S
C645 C652 1.500 . S
C646 C647 1.400 . S
C646 C648 1.384 . S
C647 C645 1.382 . S
C647 C646 1.400 . S
C647 H664 0.930 . S
C648 C646 1.384 . S
C648 C650 1.392 . S
C648 H665 0.931 . S
C649 C645 1.393 . S
C649 C650 1.401 . S
C649 H666 0.930 . S
C650 C648 1.392 . S
C650 C649 1.401 . S
C650 H667 0.930 . S
C651 O634 1.262 . S
C651 O635 1.260 . S
C652 Tb588 2.833 . S
C652 O632 1.251 . S
C652 O637 1.256 . S
C652 C645 1.500 . S
C653 H618 0.929 . S
C653 C631 1.444 . S
C653 C654 1.317 . S
C654 H616 0.930 . S
C654 C622 1.432 . S
C654 C653 1.317 . S
C655 O639 1.283 . S
C655 O642 1.243 . S
C656 C657 1.382 . S
C656 C660 1.393 . S
C656 C663 1.500 1_455 S
C657 C656 1.382 . S
C657 C658 1.400 . S
C657 H668 0.930 . S
C658 C657 1.400 . S
C658 C659 1.384 . S
C659 C658 1.384 . S
C659 C661 1.392 . S
C659 H669 0.931 . S
C660 C656 1.393 . S
C660 C661 1.401 . S
C660 H670 0.930 . S
C661 C659 1.392 . S
C661 C660 1.401 . S
C661 H671 0.930 . S
C662 O640 1.262 . S
C662 O641 1.260 . S
C663 Tb599 2.833 . S
C663 O638 1.251 . S
C663 O643 1.256 . S
C663 C656 1.500 1_655 S
H664 C647 0.930 . S
H665 C648 0.931 . S
H666 C649 0.930 . S
H667 C650 0.930 . S
H668 C657 0.930 . S
H669 C659 0.931 . S
H670 C660 0.930 . S
H671 C661 0.930 . S
Tb672 N703 2.660 . S
Tb672 N710 2.600 . S
Tb672 O716 2.546 . S
Tb672 O717 2.610 . S
Tb672 O719 2.320 . S
Tb672 O720 2.552 . S
Tb672 O721 2.413 . S
Tb672 O723 2.362 . S
Tb672 O724 2.421 . S
Tb672 C736 2.833 . S
C673 C676 1.432 . S
C673 C677 1.414 . S
C673 N680 1.359 . S
C674 C676 1.417 . S
C674 C678 1.432 . S
C674 C686 1.410 . S
C675 C677 1.444 . S
C675 C678 1.317 . S
C675 H698 0.929 1_565 S
C676 C673 1.432 . S
C676 C674 1.417 . S
C676 N684 1.360 . S
C677 C673 1.414 . S
C677 C675 1.444 . S
C677 C682 1.385 . S
C678 C674 1.432 . S
C678 C675 1.317 . S
C678 H690 0.930 1_565 S
C679 C681 1.392 . S
C679 C682 1.370 . S
C679 H691 0.931 . S
N680 C673 1.359 . S
N680 C681 1.327 . S
N680 Tb683 2.600 . S
C681 C679 1.392 . S
C681 N680 1.327 . S
C681 H688 0.930 . S
C682 C677 1.385 . S
C682 C679 1.370 . S
C682 H701 0.930 . S
Tb683 N680 2.600 . S
Tb683 N684 2.660 . S
Tb683 O717 2.362 . S
Tb683 O718 2.421 . S
Tb683 O722 2.546 . S
Tb683 O723 2.610 . S
Tb683 O725 2.320 . S
Tb683 O726 2.552 . S
Tb683 O727 2.413 . S
Tb683 C747 2.833 . S
N684 C676 1.360 . S
N684 Tb683 2.660 . S
N684 C685 1.305 . S
C685 N684 1.305 . S
C685 C687 1.407 . S
C685 H692 0.930 . S
C686 C674 1.410 . S
C686 C687 1.345 . S
C686 H694 0.930 . S
C687 C685 1.407 . S
C687 C686 1.345 . S
C687 H689 0.930 . S
H688 C681 0.930 . S
H689 C687 0.930 . S
H690 C678 0.930 1_545 S
H691 C679 0.931 . S
H692 C685 0.930 . S
H693 C707 0.930 . S
H694 C686 0.930 . S
H695 C713 0.930 . S
H696 C704 0.930 . S
H697 C711 0.931 . S
H698 C675 0.929 1_545 S
H699 C705 0.930 1_655 S
H700 C738 0.930 . S
H701 C682 0.930 . S
H702 C737 0.929 1_655 S
N703 Tb672 2.660 . S
N703 C704 1.305 . S
N703 C708 1.360 . S
C704 H696 0.930 . S
C704 N703 1.305 . S
C704 C707 1.407 . S
C705 H699 0.930 1_455 S
C705 C706 1.410 . S
C705 C707 1.345 . S
C706 C705 1.410 . S
C706 C708 1.417 . S
C706 C738 1.432 1_455 S
C707 H693 0.930 . S
C707 C704 1.407 . S
C707 C705 1.345 . S
C708 N703 1.360 . S
C708 C706 1.417 . S
C708 C712 1.432 . S
H709 C714 0.930 . S
N710 Tb672 2.600 . S
N710 C712 1.359 . S
N710 C713 1.327 . S
C711 H697 0.931 . S
C711 C713 1.392 . S
C711 C714 1.370 . S
C712 C708 1.432 . S
C712 N710 1.359 . S
C712 C715 1.414 . S
C713 H695 0.930 . S
C713 N710 1.327 . S
C713 C711 1.392 . S
C714 H709 0.930 . S
C714 C711 1.370 . S
C714 C715 1.385 . S
C715 C712 1.414 . S
C715 C714 1.385 . S
C715 C737 1.444 . S
O716 Tb672 2.546 . S
O716 C736 1.251 . S
O717 Tb672 2.610 . S
O717 Tb683 2.362 . S
O717 C728 1.283 . S
O718 Tb683 2.421 . S
O718 C735 1.262 . S
O719 Tb672 2.320 . S
O719 C735 1.260 . S
O720 Tb672 2.552 . S
O720 C728 1.243 . S
O721 Tb672 2.413 . S
O721 C736 1.256 . S
O722 Tb683 2.546 . S
O722 C747 1.251 . S
O723 Tb672 2.362 . S
O723 Tb683 2.610 . S
O723 C739 1.283 . S
O724 Tb672 2.421 . S
O724 C746 1.262 . S
O725 Tb683 2.320 . S
O725 C746 1.260 . S
O726 Tb683 2.552 . S
O726 C739 1.243 . S
O727 Tb683 2.413 . S
O727 C747 1.256 . S
C728 O717 1.283 . S
C728 O720 1.243 . S
C729 C731 1.382 . S
C729 C733 1.393 . S
C729 C736 1.500 . S
C730 C731 1.400 . S
C730 C732 1.384 . S
C731 C729 1.382 . S
C731 C730 1.400 . S
C731 H748 0.930 . S
C732 C730 1.384 . S
C732 C734 1.392 . S
C732 H749 0.931 . S
C733 C729 1.393 . S
C733 C734 1.401 . S
C733 H750 0.930 . S
C734 C732 1.392 . S
C734 C733 1.401 . S
C734 H751 0.930 . S
C735 O718 1.262 . S
C735 O719 1.260 . S
C736 Tb672 2.833 . S
C736 O716 1.251 . S
C736 O721 1.256 . S
C736 C729 1.500 . S
C737 H702 0.929 1_455 S
C737 C715 1.444 . S
C737 C738 1.317 1_455 S
C738 H700 0.930 . S
C738 C706 1.432 1_655 S
C738 C737 1.317 1_655 S
C739 O723 1.283 . S
C739 O726 1.243 . S
C740 C741 1.382 . S
C740 C744 1.393 . S
C740 C747 1.500 1_545 S
C741 C740 1.382 . S
C741 C742 1.400 . S
C741 H752 0.930 . S
C742 C741 1.400 . S
C742 C743 1.384 . S
C743 C742 1.384 . S
C743 C745 1.392 . S
C743 H753 0.931 . S
C744 C740 1.393 . S
C744 C745 1.401 . S
C744 H754 0.930 . S
C745 C743 1.392 . S
C745 C744 1.401 . S
C745 H755 0.930 . S
C746 O724 1.262 . S
C746 O725 1.260 . S
C747 Tb683 2.833 . S
C747 O722 1.251 . S
C747 O727 1.256 . S
C747 C740 1.500 1_565 S
H748 C731 0.930 . S
H749 C732 0.931 . S
H750 C733 0.930 . S
H751 C734 0.930 . S
H752 C741 0.930 . S
H753 C743 0.931 . S
H754 C744 0.930 . S
H755 C745 0.930 . S
Tb756 N787 2.660 . S
Tb756 N794 2.600 . S
Tb756 O800 2.546 . S
Tb756 O801 2.610 . S
Tb756 O803 2.320 . S
Tb756 O804 2.552 . S
Tb756 O805 2.413 . S
Tb756 O807 2.362 . S
Tb756 O808 2.421 . S
Tb756 C820 2.833 . S
C757 C760 1.432 . S
C757 C761 1.414 . S
C757 N764 1.359 . S
C758 C760 1.417 . S
C758 C762 1.432 . S
C758 C770 1.410 . S
C759 C761 1.444 . S
C759 C762 1.317 . S
C759 H782 0.929 . S
C760 C757 1.432 . S
C760 C758 1.417 . S
C760 N768 1.360 . S
C761 C757 1.414 . S
C761 C759 1.444 . S
C761 C766 1.385 . S
C762 C758 1.432 . S
C762 C759 1.317 . S
C762 H774 0.930 . S
C763 C765 1.392 . S
C763 C766 1.370 . S
C763 H775 0.931 . S
N764 C757 1.359 . S
N764 C765 1.327 . S
N764 Tb767 2.600 . S
C765 C763 1.392 . S
C765 N764 1.327 . S
C765 H772 0.930 . S
C766 C761 1.385 . S
C766 C763 1.370 . S
C766 H785 0.930 . S
Tb767 N764 2.600 . S
Tb767 N768 2.660 . S
Tb767 O801 2.362 . S
Tb767 O802 2.421 . S
Tb767 O806 2.546 . S
Tb767 O807 2.610 . S
Tb767 O809 2.320 . S
Tb767 O810 2.552 . S
Tb767 O811 2.413 . S
Tb767 C831 2.833 . S
N768 C760 1.360 . S
N768 Tb767 2.660 . S
N768 C769 1.305 . S
C769 N768 1.305 . S
C769 C771 1.407 . S
C769 H776 0.930 . S
C770 C758 1.410 . S
C770 C771 1.345 . S
C770 H778 0.930 . S
C771 C769 1.407 . S
C771 C770 1.345 . S
C771 H773 0.930 . S
H772 C765 0.930 . S
H773 C771 0.930 . S
H774 C762 0.930 . S
H775 C763 0.931 . S
H776 C769 0.930 . S
H777 C791 0.930 . S
H778 C770 0.930 . S
H779 C797 0.930 . S
H780 C788 0.930 . S
H781 C795 0.931 . S
H782 C759 0.929 . S
H783 C789 0.930 1_565 S
H784 C822 0.930 . S
H785 C766 0.930 . S
H786 C821 0.929 1_565 S
N787 Tb756 2.660 . S
N787 C788 1.305 . S
N787 C792 1.360 . S
C788 H780 0.930 . S
C788 N787 1.305 . S
C788 C791 1.407 . S
C789 H783 0.930 1_545 S
C789 C790 1.410 . S
C789 C791 1.345 . S
C790 C789 1.410 . S
C790 C792 1.417 . S
C790 C822 1.432 1_545 S
C791 H777 0.930 . S
C791 C788 1.407 . S
C791 C789 1.345 . S
C792 N787 1.360 . S
C792 C790 1.417 . S
C792 C796 1.432 . S
H793 C798 0.930 . S
N794 Tb756 2.600 . S
N794 C796 1.359 . S
N794 C797 1.327 . S
C795 H781 0.931 . S
C795 C797 1.392 . S
C795 C798 1.370 . S
C796 C792 1.432 . S
C796 N794 1.359 . S
C796 C799 1.414 . S
C797 H779 0.930 . S
C797 N794 1.327 . S
C797 C795 1.392 . S
C798 H793 0.930 . S
C798 C795 1.370 . S
C798 C799 1.385 . S
C799 C796 1.414 . S
C799 C798 1.385 . S
C799 C821 1.444 . S
O800 Tb756 2.546 . S
O800 C820 1.251 . S
O801 Tb756 2.610 . S
O801 Tb767 2.362 . S
O801 C812 1.283 . S
O802 Tb767 2.421 . S
O802 C819 1.262 . S
O803 Tb756 2.320 . S
O803 C819 1.260 . S
O804 Tb756 2.552 . S
O804 C812 1.243 . S
O805 Tb756 2.413 . S
O805 C820 1.256 . S
O806 Tb767 2.546 . S
O806 C831 1.251 . S
O807 Tb756 2.362 . S
O807 Tb767 2.610 . S
O807 C823 1.283 . S
O808 Tb756 2.421 . S
O808 C830 1.262 . S
O809 Tb767 2.320 . S
O809 C830 1.260 . S
O810 Tb767 2.552 . S
O810 C823 1.243 . S
O811 Tb767 2.413 . S
O811 C831 1.256 . S
C812 O801 1.283 . S
C812 O804 1.243 . S
C813 C815 1.382 . S
C813 C817 1.393 . S
C813 C820 1.500 . S
C814 C815 1.400 . S
C814 C816 1.384 . S
C815 C813 1.382 . S
C815 C814 1.400 . S
C815 H832 0.930 . S
C816 C814 1.384 . S
C816 C818 1.392 . S
C816 H833 0.931 . S
C817 C813 1.393 . S
C817 C818 1.401 . S
C817 H834 0.930 . S
C818 C816 1.392 . S
C818 C817 1.401 . S
C818 H835 0.930 . S
C819 O802 1.262 . S
C819 O803 1.260 . S
C820 Tb756 2.833 . S
C820 O800 1.251 . S
C820 O805 1.256 . S
C820 C813 1.500 . S
C821 H786 0.929 1_545 S
C821 C799 1.444 . S
C821 C822 1.317 1_545 S
C822 H784 0.930 . S
C822 C790 1.432 1_565 S
C822 C821 1.317 1_565 S
C823 O807 1.283 . S
C823 O810 1.243 . S
C824 C825 1.382 . S
C824 C828 1.393 . S
C824 C831 1.500 . S
C825 C824 1.382 . S
C825 C826 1.400 . S
C825 H836 0.930 . S
C826 C825 1.400 . S
C826 C827 1.384 . S
C827 C826 1.384 . S
C827 C829 1.392 . S
C827 H837 0.931 . S
C828 C824 1.393 . S
C828 C829 1.401 . S
C828 H838 0.930 . S
C829 C827 1.392 . S
C829 C828 1.401 . S
C829 H839 0.930 . S
C830 O808 1.262 . S
C830 O809 1.260 . S
C831 Tb767 2.833 . S
C831 O806 1.251 . S
C831 O811 1.256 . S
C831 C824 1.500 . S
H832 C815 0.930 . S
H833 C816 0.931 . S
H834 C817 0.930 . S
H835 C818 0.930 . S
H836 C825 0.930 . S
H837 C827 0.931 . S
H838 C828 0.930 . S
H839 C829 0.930 . S
Tb840 N871 2.660 . S
Tb840 N878 2.600 . S
Tb840 O884 2.546 . S
Tb840 O885 2.610 . S
Tb840 O887 2.320 . S
Tb840 O888 2.552 . S
Tb840 O889 2.413 . S
Tb840 O891 2.362 . S
Tb840 O892 2.421 . S
Tb840 C904 2.833 . S
C841 C844 1.432 . S
C841 C845 1.414 . S
C841 N848 1.359 . S
C842 C844 1.417 . S
C842 C846 1.432 . S
C842 C854 1.410 . S
C843 C845 1.444 . S
C843 C846 1.317 . S
C843 H866 0.929 1_455 S
C844 C841 1.432 . S
C844 C842 1.417 . S
C844 N852 1.360 . S
C845 C841 1.414 . S
C845 C843 1.444 . S
C845 C850 1.385 . S
C846 C842 1.432 . S
C846 C843 1.317 . S
C846 H858 0.930 1_455 S
C847 C849 1.392 . S
C847 C850 1.370 . S
C847 H859 0.931 . S
N848 C841 1.359 . S
N848 C849 1.327 . S
N848 Tb851 2.600 . S
C849 C847 1.392 . S
C849 N848 1.327 . S
C849 H856 0.930 . S
C850 C845 1.385 . S
C850 C847 1.370 . S
C850 H869 0.930 . S
Tb851 N848 2.600 . S
Tb851 N852 2.660 . S
Tb851 O885 2.362 . S
Tb851 O886 2.421 . S
Tb851 O890 2.546 . S
Tb851 O891 2.610 . S
Tb851 O893 2.320 . S
Tb851 O894 2.552 . S
Tb851 O895 2.413 . S
Tb851 C915 2.833 . S
N852 C844 1.360 . S
N852 Tb851 2.660 . S
N852 C853 1.305 . S
C853 N852 1.305 . S
C853 C855 1.407 . S
C853 H860 0.930 . S
C854 C842 1.410 . S
C854 C855 1.345 . S
C854 H862 0.930 . S
C855 C853 1.407 . S
C855 C854 1.345 . S
C855 H857 0.930 . S
H856 C849 0.930 . S
H857 C855 0.930 . S
H858 C846 0.930 1_655 S
H859 C847 0.931 . S
H860 C853 0.930 . S
H861 C875 0.930 . S
H862 C854 0.930 . S
H863 C881 0.930 . S
H864 C872 0.930 . S
H865 C879 0.931 . S
H866 C843 0.929 1_655 S
H867 C873 0.930 . S
H868 C906 0.930 . S
H869 C850 0.930 . S
H870 C905 0.929 . S
N871 Tb840 2.660 . S
N871 C872 1.305 . S
N871 C876 1.360 . S
C872 H864 0.930 . S
C872 N871 1.305 . S
C872 C875 1.407 . S
C873 H867 0.930 . S
C873 C874 1.410 . S
C873 C875 1.345 . S
C874 C873 1.410 . S
C874 C876 1.417 . S
C874 C906 1.432 . S
C875 H861 0.930 . S
C875 C872 1.407 . S
C875 C873 1.345 . S
C876 N871 1.360 . S
C876 C874 1.417 . S
C876 C880 1.432 . S
H877 C882 0.930 . S
N878 Tb840 2.600 . S
N878 C880 1.359 . S
N878 C881 1.327 . S
C879 H865 0.931 . S
C879 C881 1.392 . S
C879 C882 1.370 . S
C880 C876 1.432 . S
C880 N878 1.359 . S
C880 C883 1.414 . S
C881 H863 0.930 . S
C881 N878 1.327 . S
C881 C879 1.392 . S
C882 H877 0.930 . S
C882 C879 1.370 . S
C882 C883 1.385 . S
C883 C880 1.414 . S
C883 C882 1.385 . S
C883 C905 1.444 . S
O884 Tb840 2.546 . S
O884 C904 1.251 . S
O885 Tb840 2.610 . S
O885 Tb851 2.362 . S
O885 C896 1.283 . S
O886 Tb851 2.421 . S
O886 C903 1.262 . S
O887 Tb840 2.320 . S
O887 C903 1.260 . S
O888 Tb840 2.552 . S
O888 C896 1.243 . S
O889 Tb840 2.413 . S
O889 C904 1.256 . S
O890 Tb851 2.546 . S
O890 C915 1.251 . S
O891 Tb840 2.362 . S
O891 Tb851 2.610 . S
O891 C907 1.283 . S
O892 Tb840 2.421 . S
O892 C914 1.262 . S
O893 Tb851 2.320 . S
O893 C914 1.260 . S
O894 Tb851 2.552 . S
O894 C907 1.243 . S
O895 Tb851 2.413 . S
O895 C915 1.256 . S
C896 O885 1.283 . S
C896 O888 1.243 . S
C897 C899 1.382 . S
C897 C901 1.393 . S
C897 C904 1.500 . S
C898 C899 1.400 . S
C898 C900 1.384 . S
C899 C897 1.382 . S
C899 C898 1.400 . S
C899 H916 0.930 . S
C900 C898 1.384 . S
C900 C902 1.392 . S
C900 H917 0.931 . S
C901 C897 1.393 . S
C901 C902 1.401 . S
C901 H918 0.930 . S
C902 C900 1.392 . S
C902 C901 1.401 . S
C902 H919 0.930 . S
C903 O886 1.262 . S
C903 O887 1.260 . S
C904 Tb840 2.833 . S
C904 O884 1.251 . S
C904 O889 1.256 . S
C904 C897 1.500 . S
C905 H870 0.929 . S
C905 C883 1.444 . S
C905 C906 1.317 . S
C906 H868 0.930 . S
C906 C874 1.432 . S
C906 C905 1.317 . S
C907 O891 1.283 . S
C907 O894 1.243 . S
C908 C909 1.382 . S
C908 C912 1.393 . S
C908 C915 1.500 1_655 S
C909 C908 1.382 . S
C909 C910 1.400 . S
C909 H920 0.930 . S
C910 C909 1.400 . S
C910 C911 1.384 . S
C911 C910 1.384 . S
C911 C913 1.392 . S
C911 H921 0.931 . S
C912 C908 1.393 . S
C912 C913 1.401 . S
C912 H922 0.930 . S
C913 C911 1.392 . S
C913 C912 1.401 . S
C913 H923 0.930 . S
C914 O892 1.262 . S
C914 O893 1.260 . S
C915 Tb851 2.833 . S
C915 O890 1.251 . S
C915 O895 1.256 . S
C915 C908 1.500 1_455 S
H916 C899 0.930 . S
H917 C900 0.931 . S
H918 C901 0.930 . S
H919 C902 0.930 . S
H920 C909 0.930 . S
H921 C911 0.931 . S
H922 C912 0.930 . S
H923 C913 0.930 . S
Tb924 N955 2.660 . S
Tb924 N962 2.600 . S
Tb924 O968 2.546 . S
Tb924 O969 2.610 . S
Tb924 O971 2.320 . S
Tb924 O972 2.552 . S
Tb924 O973 2.413 . S
Tb924 O975 2.362 . S
Tb924 O976 2.421 . S
Tb924 C988 2.833 . S
C925 C928 1.432 . S
C925 C929 1.414 . S
C925 N932 1.359 . S
C926 C928 1.417 . S
C926 C930 1.432 . S
C926 C938 1.410 . S
C927 C929 1.444 . S
C927 C930 1.317 . S
C927 H950 0.929 1_545 S
C928 C925 1.432 . S
C928 C926 1.417 . S
C928 N936 1.360 . S
C929 C925 1.414 . S
C929 C927 1.444 . S
C929 C934 1.385 . S
C930 C926 1.432 . S
C930 C927 1.317 . S
C930 H942 0.930 1_545 S
C931 C933 1.392 . S
C931 C934 1.370 . S
C931 H943 0.931 . S
N932 C925 1.359 . S
N932 C933 1.327 . S
N932 Tb935 2.600 . S
C933 C931 1.392 . S
C933 N932 1.327 . S
C933 H940 0.930 . S
C934 C929 1.385 . S
C934 C931 1.370 . S
C934 H953 0.930 . S
Tb935 N932 2.600 . S
Tb935 N936 2.660 . S
Tb935 O969 2.362 . S
Tb935 O970 2.421 . S
Tb935 O974 2.546 . S
Tb935 O975 2.610 . S
Tb935 O977 2.320 . S
Tb935 O978 2.552 . S
Tb935 O979 2.413 . S
Tb935 C999 2.833 . S
N936 C928 1.360 . S
N936 Tb935 2.660 . S
N936 C937 1.305 . S
C937 N936 1.305 . S
C937 C939 1.407 . S
C937 H944 0.930 . S
C938 C926 1.410 . S
C938 C939 1.345 . S
C938 H946 0.930 . S
C939 C937 1.407 . S
C939 C938 1.345 . S
C939 H941 0.930 . S
H940 C933 0.930 . S
H941 C939 0.930 . S
H942 C930 0.930 1_565 S
H943 C931 0.931 . S
H944 C937 0.930 . S
H945 C959 0.930 . S
H946 C938 0.930 . S
H947 C965 0.930 . S
H948 C956 0.930 . S
H949 C963 0.931 . S
H950 C927 0.929 1_565 S
H951 C957 0.930 1_455 S
H952 C990 0.930 . S
H953 C934 0.930 . S
H954 C989 0.929 1_455 S
N955 Tb924 2.660 . S
N955 C956 1.305 . S
N955 C960 1.360 . S
C956 H948 0.930 . S
C956 N955 1.305 . S
C956 C959 1.407 . S
C957 H951 0.930 1_655 S
C957 C958 1.410 . S
C957 C959 1.345 . S
C958 C957 1.410 . S
C958 C960 1.417 . S
C958 C990 1.432 1_655 S
C959 H945 0.930 . S
C959 C956 1.407 . S
C959 C957 1.345 . S
C960 N955 1.360 . S
C960 C958 1.417 . S
C960 C964 1.432 . S
H961 C966 0.930 . S
N962 Tb924 2.600 . S
N962 C964 1.359 . S
N962 C965 1.327 . S
C963 H949 0.931 . S
C963 C965 1.392 . S
C963 C966 1.370 . S
C964 C960 1.432 . S
C964 N962 1.359 . S
C964 C967 1.414 . S
C965 H947 0.930 . S
C965 N962 1.327 . S
C965 C963 1.392 . S
C966 H961 0.930 . S
C966 C963 1.370 . S
C966 C967 1.385 . S
C967 C964 1.414 . S
C967 C966 1.385 . S
C967 C989 1.444 . S
O968 Tb924 2.546 . S
O968 C988 1.251 . S
O969 Tb924 2.610 . S
O969 Tb935 2.362 . S
O969 C980 1.283 . S
O970 Tb935 2.421 . S
O970 C987 1.262 . S
O971 Tb924 2.320 . S
O971 C987 1.260 . S
O972 Tb924 2.552 . S
O972 C980 1.243 . S
O973 Tb924 2.413 . S
O973 C988 1.256 . S
O974 Tb935 2.546 . S
O974 C999 1.251 . S
O975 Tb924 2.362 . S
O975 Tb935 2.610 . S
O975 C991 1.283 . S
O976 Tb924 2.421 . S
O976 C998 1.262 . S
O977 Tb935 2.320 . S
O977 C998 1.260 . S
O978 Tb935 2.552 . S
O978 C991 1.243 . S
O979 Tb935 2.413 . S
O979 C999 1.256 . S
C980 O969 1.283 . S
C980 O972 1.243 . S
C981 C983 1.382 . S
C981 C985 1.393 . S
C981 C988 1.500 . S
C982 C983 1.400 . S
C982 C984 1.384 . S
C983 C981 1.382 . S
C983 C982 1.400 . S
C983 H1000 0.930 . S
C984 C982 1.384 . S
C984 C986 1.392 . S
C984 H1001 0.931 . S
C985 C981 1.393 . S
C985 C986 1.401 . S
C985 H1002 0.930 . S
C986 C984 1.392 . S
C986 C985 1.401 . S
C986 H1003 0.930 . S
C987 O970 1.262 . S
C987 O971 1.260 . S
C988 Tb924 2.833 . S
C988 O968 1.251 . S
C988 O973 1.256 . S
C988 C981 1.500 . S
C989 H954 0.929 1_655 S
C989 C967 1.444 . S
C989 C990 1.317 1_655 S
C990 H952 0.930 . S
C990 C958 1.432 1_455 S
C990 C989 1.317 1_455 S
C991 O975 1.283 . S
C991 O978 1.243 . S
C992 C993 1.382 . S
C992 C996 1.393 . S
C992 C999 1.500 1_565 S
C993 C992 1.382 . S
C993 C994 1.400 . S
C993 H1004 0.930 . S
C994 C993 1.400 . S
C994 C995 1.384 . S
C995 C994 1.384 . S
C995 C997 1.392 . S
C995 H1005 0.931 . S
C996 C992 1.393 . S
C996 C997 1.401 . S
C996 H1006 0.930 . S
C997 C995 1.392 . S
C997 C996 1.401 . S
C997 H1007 0.930 . S
C998 O976 1.262 . S
C998 O977 1.260 . S
C999 Tb935 2.833 . S
C999 O974 1.251 . S
C999 O979 1.256 . S
C999 C992 1.500 1_545 S
H1000 C983 0.930 . S
H1001 C984 0.931 . S
H1002 C985 0.930 . S
H1003 C986 0.930 . S
H1004 C993 0.930 . S
H1005 C995 0.931 . S
H1006 C996 0.930 . S
H1007 C997 0.930 . S
H1008 C1016 0.950 . S
H1009 C1021 0.950 . S
H1010 C1018 0.950 . S
H1011 C1020 0.950 1_545 S
H1012 C1022 0.950 . S
H1013 C1024 0.950 . S
H1014 C1026 0.950 . S
H1015 C1027 0.950 . S
C1016 H1008 0.950 . S
C1016 C1017 1.386 . S
C1016 C1018 1.391 . S
C1017 C1016 1.386 . S
C1017 C1021 1.393 . S
C1018 H1010 0.950 . S
C1018 C1016 1.391 . S
C1018 C1019 1.400 . S
C1019 C1018 1.400 . S
C1019 C1020 1.398 . S
C1019 C1025 1.491 1_565 S
C1020 H1011 0.950 1_565 S
C1020 C1019 1.398 . S
C1020 C1021 1.391 . S
C1021 H1009 0.950 . S
C1021 C1017 1.393 . S
C1021 C1020 1.391 . S
C1022 H1012 0.950 . S
C1022 C1023 1.386 . S
C1022 C1024 1.391 . S
C1023 C1022 1.386 . S
C1023 C1027 1.393 . S
C1024 H1013 0.950 . S
C1024 C1022 1.391 . S
C1024 C1025 1.400 . S
C1025 C1019 1.491 1_545 S
C1025 C1024 1.400 . S
C1025 C1026 1.398 . S
C1026 H1014 0.950 . S
C1026 C1025 1.398 . S
C1026 C1027 1.391 . S
C1027 H1015 0.950 . S
C1027 C1023 1.393 . S
C1027 C1026 1.391 . S
H1028 C1036 0.950 . S
H1029 C1041 0.950 . S
H1030 C1038 0.950 . S
H1031 C1040 0.950 . S
H1032 C1042 0.950 . S
H1033 C1044 0.950 . S
H1034 C1046 0.950 . S
H1035 C1047 0.950 . S
C1036 H1028 0.950 . S
C1036 C1037 1.386 . S
C1036 C1038 1.391 . S
C1037 C1036 1.386 . S
C1037 C1041 1.393 . S
C1038 H1030 0.950 . S
C1038 C1036 1.391 . S
C1038 C1039 1.400 . S
C1039 C1038 1.400 . S
C1039 C1040 1.398 . S
C1039 C1045 1.491 . S
C1040 H1031 0.950 . S
C1040 C1039 1.398 . S
C1040 C1041 1.391 . S
C1041 H1029 0.950 . S
C1041 C1037 1.393 . S
C1041 C1040 1.391 . S
C1042 H1032 0.950 . S
C1042 C1043 1.386 . S
C1042 C1044 1.391 . S
C1043 C1042 1.386 . S
C1043 C1047 1.393 . S
C1044 H1033 0.950 . S
C1044 C1042 1.391 . S
C1044 C1045 1.400 . S
C1045 C1039 1.491 . S
C1045 C1044 1.400 . S
C1045 C1046 1.398 . S
C1046 H1034 0.950 . S
C1046 C1045 1.398 . S
C1046 C1047 1.391 . S
C1047 H1035 0.950 . S
C1047 C1043 1.393 . S
C1047 C1046 1.391 . S
H1048 C1056 0.950 . S
H1049 C1061 0.950 . S
H1050 C1058 0.950 . S
H1051 C1060 0.950 . S
H1052 C1062 0.950 . S
H1053 C1064 0.950 . S
H1054 C1066 0.950 . S
H1055 C1067 0.950 . S
C1056 H1048 0.950 . S
C1056 C1057 1.386 . S
C1056 C1058 1.391 . S
C1057 C1056 1.386 . S
C1057 C1061 1.393 . S
C1058 H1050 0.950 . S
C1058 C1056 1.391 . S
C1058 C1059 1.400 . S
C1059 C1058 1.400 . S
C1059 C1060 1.398 . S
C1059 C1065 1.491 1_655 S
C1060 H1051 0.950 . S
C1060 C1059 1.398 . S
C1060 C1061 1.391 . S
C1061 H1049 0.950 . S
C1061 C1057 1.393 . S
C1061 C1060 1.391 . S
C1062 H1052 0.950 . S
C1062 C1063 1.386 . S
C1062 C1064 1.391 . S
C1063 C1062 1.386 . S
C1063 C1067 1.393 . S
C1064 H1053 0.950 . S
C1064 C1062 1.391 . S
C1064 C1065 1.400 . S
C1065 C1059 1.491 1_455 S
C1065 C1064 1.400 . S
C1065 C1066 1.398 . S
C1066 H1054 0.950 . S
C1066 C1065 1.398 . S
C1066 C1067 1.391 . S
C1067 H1055 0.950 . S
C1067 C1063 1.393 . S
C1067 C1066 1.391 . S
H1068 C1076 0.950 . S
H1069 C1081 0.950 . S
H1070 C1078 0.950 . S
H1071 C1080 0.950 . S
H1072 C1082 0.950 . S
H1073 C1084 0.950 . S
H1074 C1086 0.950 . S
H1075 C1087 0.950 . S
C1076 H1068 0.950 . S
C1076 C1077 1.386 . S
C1076 C1078 1.391 . S
C1077 C1076 1.386 . S
C1077 C1081 1.393 . S
C1078 H1070 0.950 . S
C1078 C1076 1.391 . S
C1078 C1079 1.400 . S
C1079 C1078 1.400 . S
C1079 C1080 1.398 . S
C1079 C1085 1.491 1_565 S
C1080 H1071 0.950 . S
C1080 C1079 1.398 . S
C1080 C1081 1.391 . S
C1081 H1069 0.950 . S
C1081 C1077 1.393 . S
C1081 C1080 1.391 . S
C1082 H1072 0.950 . S
C1082 C1083 1.386 . S
C1082 C1084 1.391 . S
C1083 C1082 1.386 . S
C1083 C1087 1.393 . S
C1084 H1073 0.950 . S
C1084 C1082 1.391 . S
C1084 C1085 1.400 . S
C1085 C1079 1.491 1_545 S
C1085 C1084 1.400 . S
C1085 C1086 1.398 . S
C1086 H1074 0.950 . S
C1086 C1085 1.398 . S
C1086 C1087 1.391 . S
C1087 H1075 0.950 . S
C1087 C1083 1.393 . S
C1087 C1086 1.391 . S
H1088 C1096 0.950 . S
H1089 C1101 0.950 . S
H1090 C1098 0.950 . S
H1091 C1100 0.950 . S
H1092 C1102 0.950 . S
H1093 C1104 0.950 . S
H1094 C1106 0.950 . S
H1095 C1107 0.950 . S
C1096 H1088 0.950 . S
C1096 C1097 1.386 . S
C1096 C1098 1.391 . S
C1097 C1096 1.386 . S
C1097 C1101 1.393 . S
C1098 H1090 0.950 . S
C1098 C1096 1.391 . S
C1098 C1099 1.400 . S
C1099 C1098 1.400 . S
C1099 C1100 1.398 . S
C1099 C1105 1.491 . S
C1100 H1091 0.950 . S
C1100 C1099 1.398 . S
C1100 C1101 1.391 . S
C1101 H1089 0.950 . S
C1101 C1097 1.393 . S
C1101 C1100 1.391 . S
C1102 H1092 0.950 . S
C1102 C1103 1.386 . S
C1102 C1104 1.391 . S
C1103 C1102 1.386 . S
C1103 C1107 1.393 . S
C1104 H1093 0.950 . S
C1104 C1102 1.391 . S
C1104 C1105 1.400 . S
C1105 C1099 1.491 . S
C1105 C1104 1.400 . S
C1105 C1106 1.398 . S
C1106 H1094 0.950 . S
C1106 C1105 1.398 . S
C1106 C1107 1.391 . S
C1107 H1095 0.950 . S
C1107 C1103 1.393 . S
C1107 C1106 1.391 . S
H1108 C1116 0.950 . S
H1109 C1121 0.950 . S
H1110 C1118 0.950 . S
H1111 C1120 0.950 . S
H1112 C1122 0.950 . S
H1113 C1124 0.950 . S
H1114 C1126 0.950 . S
H1115 C1127 0.950 . S
C1116 H1108 0.950 . S
C1116 C1117 1.386 . S
C1116 C1118 1.391 . S
C1117 C1116 1.386 . S
C1117 C1121 1.393 . S
C1118 H1110 0.950 . S
C1118 C1116 1.391 . S
C1118 C1119 1.400 . S
C1119 C1118 1.400 . S
C1119 C1120 1.398 . S
C1119 C1125 1.491 1_655 S
C1120 H1111 0.950 . S
C1120 C1119 1.398 . S
C1120 C1121 1.391 . S
C1121 H1109 0.950 . S
C1121 C1117 1.393 . S
C1121 C1120 1.391 . S
C1122 H1112 0.950 . S
C1122 C1123 1.386 . S
C1122 C1124 1.391 . S
C1123 C1122 1.386 . S
C1123 C1127 1.393 . S
C1124 H1113 0.950 . S
C1124 C1122 1.391 . S
C1124 C1125 1.400 . S
C1125 C1119 1.491 1_455 S
C1125 C1124 1.400 . S
C1125 C1126 1.398 . S
C1126 H1114 0.950 . S
C1126 C1125 1.398 . S
C1126 C1127 1.391 . S
C1127 H1115 0.950 . S
C1127 C1123 1.393 . S
C1127 C1126 1.391 . S
H1128 C1136 0.950 . S
H1129 C1141 0.950 . S
H1130 C1138 0.950 . S
H1131 C1140 0.950 . S
H1132 C1142 0.950 . S
H1133 C1144 0.950 . S
H1134 C1146 0.950 . S
H1135 C1147 0.950 . S
C1136 H1128 0.950 . S
C1136 C1137 1.386 . S
C1136 C1138 1.391 . S
C1137 C1136 1.386 . S
C1137 C1141 1.393 . S
C1138 H1130 0.950 . S
C1138 C1136 1.391 . S
C1138 C1139 1.400 . S
C1139 C1138 1.400 . S
C1139 C1140 1.398 . S
C1139 C1145 1.491 1_455 S
C1140 H1131 0.950 . S
C1140 C1139 1.398 . S
C1140 C1141 1.391 . S
C1141 H1129 0.950 . S
C1141 C1137 1.393 . S
C1141 C1140 1.391 . S
C1142 H1132 0.950 . S
C1142 C1143 1.386 . S
C1142 C1144 1.391 . S
C1143 C1142 1.386 . S
C1143 C1147 1.393 . S
C1144 H1133 0.950 . S
C1144 C1142 1.391 . S
C1144 C1145 1.400 . S
C1145 C1139 1.491 1_655 S
C1145 C1144 1.400 . S
C1145 C1146 1.398 . S
C1146 H1134 0.950 . S
C1146 C1145 1.398 . S
C1146 C1147 1.391 . S
C1147 H1135 0.950 . S
C1147 C1143 1.393 . S
C1147 C1146 1.391 . S
H1148 C1156 0.950 . S
H1149 C1161 0.950 . S
H1150 C1158 0.950 . S
H1151 C1160 0.950 . S
H1152 C1162 0.950 . S
H1153 C1164 0.950 . S
H1154 C1166 0.950 . S
H1155 C1167 0.950 . S
C1156 H1148 0.950 . S
C1156 C1157 1.386 . S
C1156 C1158 1.391 . S
C1157 C1156 1.386 . S
C1157 C1161 1.393 . S
C1158 H1150 0.950 . S
C1158 C1156 1.391 . S
C1158 C1159 1.400 . S
C1159 C1158 1.400 . S
C1159 C1160 1.398 . S
C1159 C1165 1.491 1_565 S
C1160 H1151 0.950 . S
C1160 C1159 1.398 . S
C1160 C1161 1.391 . S
C1161 H1149 0.950 . S
C1161 C1157 1.393 . S
C1161 C1160 1.391 . S
C1162 H1152 0.950 . S
C1162 C1163 1.386 . S
C1162 C1164 1.391 . S
C1163 C1162 1.386 . S
C1163 C1167 1.393 . S
C1164 H1153 0.950 . S
C1164 C1162 1.391 . S
C1164 C1165 1.400 . S
C1165 C1159 1.491 1_545 S
C1165 C1164 1.400 . S
C1165 C1166 1.398 . S
C1166 H1154 0.950 . S
C1166 C1165 1.398 . S
C1166 C1167 1.391 . S
C1167 H1155 0.950 . S
C1167 C1163 1.393 . S
C1167 C1166 1.391 . S
H1168 C1176 0.950 . S
H1169 C1181 0.950 . S
H1170 C1178 0.950 . S
H1171 C1180 0.950 . S
H1172 C1182 0.950 . S
H1173 C1184 0.950 . S
H1174 C1186 0.950 . S
H1175 C1187 0.950 . S
C1176 H1168 0.950 . S
C1176 C1177 1.386 . S
C1176 C1178 1.391 . S
C1177 C1176 1.386 . S
C1177 C1181 1.393 . S
C1178 H1170 0.950 . S
C1178 C1176 1.391 . S
C1178 C1179 1.400 . S
C1179 C1178 1.400 . S
C1179 C1180 1.398 . S
C1179 C1185 1.491 . S
C1180 H1171 0.950 . S
C1180 C1179 1.398 . S
C1180 C1181 1.391 . S
C1181 H1169 0.950 . S
C1181 C1177 1.393 . S
C1181 C1180 1.391 . S
C1182 H1172 0.950 . S
C1182 C1183 1.386 . S
C1182 C1184 1.391 . S
C1183 C1182 1.386 . S
C1183 C1187 1.393 . S
C1184 H1173 0.950 . S
C1184 C1182 1.391 . S
C1184 C1185 1.400 . S
C1185 C1179 1.491 . S
C1185 C1184 1.400 . S
C1185 C1186 1.398 . S
C1186 H1174 0.950 . S
C1186 C1185 1.398 . S
C1186 C1187 1.391 . S
C1187 H1175 0.950 . S
C1187 C1183 1.393 . S
C1187 C1186 1.391 . S
H1188 C1196 0.950 . S
H1189 C1201 0.950 . S
H1190 C1198 0.950 . S
H1191 C1200 0.950 . S
H1192 C1202 0.950 . S
H1193 C1204 0.950 . S
H1194 C1206 0.950 . S
H1195 C1207 0.950 . S
C1196 H1188 0.950 . S
C1196 C1197 1.386 . S
C1196 C1198 1.391 . S
C1197 C1196 1.386 . S
C1197 C1201 1.393 . S
C1198 H1190 0.950 . S
C1198 C1196 1.391 . S
C1198 C1199 1.400 . S
C1199 C1198 1.400 . S
C1199 C1200 1.398 . S
C1199 C1205 1.491 1_455 S
C1200 H1191 0.950 . S
C1200 C1199 1.398 . S
C1200 C1201 1.391 . S
C1201 H1189 0.950 . S
C1201 C1197 1.393 . S
C1201 C1200 1.391 . S
C1202 H1192 0.950 . S
C1202 C1203 1.386 . S
C1202 C1204 1.391 . S
C1203 C1202 1.386 . S
C1203 C1207 1.393 . S
C1204 H1193 0.950 . S
C1204 C1202 1.391 . S
C1204 C1205 1.400 . S
C1205 C1199 1.491 1_655 S
C1205 C1204 1.400 . S
C1205 C1206 1.398 . S
C1206 H1194 0.950 . S
C1206 C1205 1.398 . S
C1206 C1207 1.391 . S
C1207 H1195 0.950 . S
C1207 C1203 1.393 . S
C1207 C1206 1.391 . S
H1208 C1216 0.950 . S
H1209 C1221 0.950 . S
H1210 C1218 0.950 . S
H1211 C1220 0.950 . S
H1212 C1222 0.950 . S
H1213 C1224 0.950 . S
H1214 C1226 0.950 . S
H1215 C1227 0.950 . S
C1216 H1208 0.950 . S
C1216 C1217 1.386 . S
C1216 C1218 1.391 . S
C1217 C1216 1.386 . S
C1217 C1221 1.393 . S
C1218 H1210 0.950 . S
C1218 C1216 1.391 . S
C1218 C1219 1.400 . S
C1219 C1218 1.400 . S
C1219 C1220 1.398 . S
C1219 C1225 1.491 1_545 S
C1220 H1211 0.950 . S
C1220 C1219 1.398 . S
C1220 C1221 1.391 . S
C1221 H1209 0.950 . S
C1221 C1217 1.393 . S
C1221 C1220 1.391 . S
C1222 H1212 0.950 . S
C1222 C1223 1.386 . S
C1222 C1224 1.391 . S
C1223 C1222 1.386 . S
C1223 C1227 1.393 . S
C1224 H1213 0.950 . S
C1224 C1222 1.391 . S
C1224 C1225 1.400 . S
C1225 C1219 1.491 1_565 S
C1225 C1224 1.400 . S
C1225 C1226 1.398 . S
C1226 H1214 0.950 . S
C1226 C1225 1.398 . S
C1226 C1227 1.391 . S
C1227 H1215 0.950 . S
C1227 C1223 1.393 . S
C1227 C1226 1.391 . S
H1228 C1236 0.950 . S
H1229 C1241 0.950 . S
H1230 C1238 0.950 . S
H1231 C1240 0.950 . S
H1232 C1242 0.950 . S
H1233 C1244 0.950 . S
H1234 C1246 0.950 . S
H1235 C1247 0.950 . S
C1236 H1228 0.950 . S
C1236 C1237 1.386 . S
C1236 C1238 1.391 . S
C1237 C1236 1.386 . S
C1237 C1241 1.393 . S
C1238 H1230 0.950 . S
C1238 C1236 1.391 . S
C1238 C1239 1.400 . S
C1239 C1238 1.400 . S
C1239 C1240 1.398 . S
C1239 C1245 1.491 . S
C1240 H1231 0.950 . S
C1240 C1239 1.398 . S
C1240 C1241 1.391 . S
C1241 H1229 0.950 . S
C1241 C1237 1.393 . S
C1241 C1240 1.391 . S
C1242 H1232 0.950 . S
C1242 C1243 1.386 . S
C1242 C1244 1.391 . S
C1243 C1242 1.386 . S
C1243 C1247 1.393 . S
C1244 H1233 0.950 . S
C1244 C1242 1.391 . S
C1244 C1245 1.400 . S
C1245 C1239 1.491 . S
C1245 C1244 1.400 . S
C1245 C1246 1.398 . S
C1246 H1234 0.950 . S
C1246 C1245 1.398 . S
C1246 C1247 1.391 . S
C1247 H1235 0.950 . S
C1247 C1243 1.393 . S
C1247 C1246 1.391 . S
H1248 C1256 0.950 . S
H1249 C1261 0.950 . S
H1250 C1258 0.950 . S
H1251 C1260 0.950 . S
H1252 C1262 0.950 . S
H1253 C1264 0.950 . S
H1254 C1266 0.950 . S
H1255 C1267 0.950 . S
C1256 H1248 0.950 . S
C1256 C1257 1.386 . S
C1256 C1258 1.391 . S
C1257 C1256 1.386 . S
C1257 C1261 1.393 . S
C1258 H1250 0.950 . S
C1258 C1256 1.391 . S
C1258 C1259 1.400 . S
C1259 C1258 1.400 . S
C1259 C1260 1.398 . S
C1259 C1265 1.491 . S
C1260 H1251 0.950 . S
C1260 C1259 1.398 . S
C1260 C1261 1.391 . S
C1261 H1249 0.950 . S
C1261 C1257 1.393 . S
C1261 C1260 1.391 . S
C1262 H1252 0.950 . S
C1262 C1263 1.386 . S
C1262 C1264 1.391 . S
C1263 C1262 1.386 . S
C1263 C1267 1.393 . S
C1264 H1253 0.950 . S
C1264 C1262 1.391 . S
C1264 C1265 1.400 . S
C1265 C1259 1.491 . S
C1265 C1264 1.400 . S
C1265 C1266 1.398 . S
C1266 H1254 0.950 . S
C1266 C1265 1.398 . S
C1266 C1267 1.391 . S
C1267 H1255 0.950 . S
C1267 C1263 1.393 . S
C1267 C1266 1.391 . S
H1268 C1276 0.950 . S
H1269 C1281 0.950 . S
H1270 C1278 0.950 . S
H1271 C1280 0.950 . S
H1272 C1282 0.950 . S
H1273 C1284 0.950 . S
H1274 C1286 0.950 . S
H1275 C1287 0.950 . S
C1276 H1268 0.950 . S
C1276 C1277 1.386 . S
C1276 C1278 1.391 . S
C1277 C1276 1.386 . S
C1277 C1281 1.393 . S
C1278 H1270 0.950 . S
C1278 C1276 1.391 . S
C1278 C1279 1.400 . S
C1279 C1278 1.400 . S
C1279 C1280 1.398 . S
C1279 C1285 1.491 . S
C1280 H1271 0.950 . S
C1280 C1279 1.398 . S
C1280 C1281 1.391 . S
C1281 H1269 0.950 . S
C1281 C1277 1.393 . S
C1281 C1280 1.391 . S
C1282 H1272 0.950 . S
C1282 C1283 1.386 . S
C1282 C1284 1.391 . S
C1283 C1282 1.386 . S
C1283 C1287 1.393 . S
C1284 H1273 0.950 . S
C1284 C1282 1.391 . S
C1284 C1285 1.400 . S
C1285 C1279 1.491 . S
C1285 C1284 1.400 . S
C1285 C1286 1.398 . S
C1286 H1274 0.950 . S
C1286 C1285 1.398 . S
C1286 C1287 1.391 . S
C1287 H1275 0.950 . S
C1287 C1283 1.393 . S
C1287 C1286 1.391 . S
H1288 C1296 0.950 . S
H1289 C1301 0.950 . S
H1290 C1298 0.950 . S
H1291 C1300 0.950 . S
H1292 C1302 0.950 . S
H1293 C1304 0.950 . S
H1294 C1306 0.950 . S
H1295 C1307 0.950 . S
C1296 H1288 0.950 . S
C1296 C1297 1.386 . S
C1296 C1298 1.391 . S
C1297 C1296 1.386 . S
C1297 C1301 1.393 . S
C1298 H1290 0.950 . S
C1298 C1296 1.391 . S
C1298 C1299 1.400 . S
C1299 C1298 1.400 . S
C1299 C1300 1.398 . S
C1299 C1305 1.491 . S
C1300 H1291 0.950 . S
C1300 C1299 1.398 . S
C1300 C1301 1.391 . S
C1301 H1289 0.950 . S
C1301 C1297 1.393 . S
C1301 C1300 1.391 . S
C1302 H1292 0.950 . S
C1302 C1303 1.386 . S
C1302 C1304 1.391 . S
C1303 C1302 1.386 . S
C1303 C1307 1.393 . S
C1304 H1293 0.950 . S
C1304 C1302 1.391 . S
C1304 C1305 1.400 . S
C1305 C1299 1.491 . S
C1305 C1304 1.400 . S
C1305 C1306 1.398 . S
C1306 H1294 0.950 . S
C1306 C1305 1.398 . S
C1306 C1307 1.391 . S
C1307 H1295 0.950 . S
C1307 C1303 1.393 . S
C1307 C1306 1.391 . S
H1308 C1316 0.950 . S
H1309 C1321 0.950 . S
H1310 C1318 0.950 . S
H1311 C1320 0.950 . S
H1312 C1322 0.950 . S
H1313 C1324 0.950 . S
H1314 C1326 0.950 . S
H1315 C1327 0.950 . S
C1316 H1308 0.950 . S
C1316 C1317 1.386 . S
C1316 C1318 1.391 . S
C1317 C1316 1.386 . S
C1317 C1321 1.393 . S
C1318 H1310 0.950 . S
C1318 C1316 1.391 . S
C1318 C1319 1.400 . S
C1319 C1318 1.400 . S
C1319 C1320 1.398 . S
C1319 C1325 1.491 . S
C1320 H1311 0.950 . S
C1320 C1319 1.398 . S
C1320 C1321 1.391 . S
C1321 H1309 0.950 . S
C1321 C1317 1.393 . S
C1321 C1320 1.391 . S
C1322 H1312 0.950 . S
C1322 C1323 1.386 . S
C1322 C1324 1.391 . S
C1323 C1322 1.386 . S
C1323 C1327 1.393 . S
C1324 H1313 0.950 . S
C1324 C1322 1.391 . S
C1324 C1325 1.400 . S
C1325 C1319 1.491 . S
C1325 C1324 1.400 . S
C1325 C1326 1.398 . S
C1326 H1314 0.950 . S
C1326 C1325 1.398 . S
C1326 C1327 1.391 . S
C1327 H1315 0.950 . S
C1327 C1323 1.393 . S
C1327 C1326 1.391 . S
H1328 C1336 0.950 . S
H1329 C1341 0.950 . S
H1330 C1338 0.950 . S
H1331 C1340 0.950 . S
H1332 C1342 0.950 . S
H1333 C1344 0.950 . S
H1334 C1346 0.950 . S
H1335 C1347 0.950 . S
C1336 H1328 0.950 . S
C1336 C1337 1.386 . S
C1336 C1338 1.391 . S
C1337 C1336 1.386 . S
C1337 C1341 1.393 . S
C1338 H1330 0.950 . S
C1338 C1336 1.391 . S
C1338 C1339 1.400 . S
C1339 C1338 1.400 . S
C1339 C1340 1.398 . S
C1339 C1345 1.491 . S
C1340 H1331 0.950 . S
C1340 C1339 1.398 . S
C1340 C1341 1.391 . S
C1341 H1329 0.950 . S
C1341 C1337 1.393 . S
C1341 C1340 1.391 . S
C1342 H1332 0.950 . S
C1342 C1343 1.386 . S
C1342 C1344 1.391 . S
C1343 C1342 1.386 . S
C1343 C1347 1.393 . S
C1344 H1333 0.950 . S
C1344 C1342 1.391 . S
C1344 C1345 1.400 . S
C1345 C1339 1.491 . S
C1345 C1344 1.400 . S
C1345 C1346 1.398 . S
C1346 H1334 0.950 . S
C1346 C1345 1.398 . S
C1346 C1347 1.391 . S
C1347 H1335 0.950 . S
C1347 C1343 1.393 . S
C1347 C1346 1.391 . S
H1348 C1356 0.950 . S
H1349 C1361 0.950 . S
H1350 C1358 0.950 . S
H1351 C1360 0.950 . S
H1352 C1362 0.950 . S
H1353 C1364 0.950 . S
H1354 C1366 0.950 . S
H1355 C1367 0.950 . S
C1356 H1348 0.950 . S
C1356 C1357 1.386 . S
C1356 C1358 1.391 . S
C1357 C1356 1.386 . S
C1357 C1361 1.393 . S
C1358 H1350 0.950 . S
C1358 C1356 1.391 . S
C1358 C1359 1.400 . S
C1359 C1358 1.400 . S
C1359 C1360 1.398 . S
C1359 C1365 1.491 . S
C1360 H1351 0.950 . S
C1360 C1359 1.398 . S
C1360 C1361 1.391 . S
C1361 H1349 0.950 . S
C1361 C1357 1.393 . S
C1361 C1360 1.391 . S
C1362 H1352 0.950 . S
C1362 C1363 1.386 . S
C1362 C1364 1.391 . S
C1363 C1362 1.386 . S
C1363 C1367 1.393 . S
C1364 H1353 0.950 . S
C1364 C1362 1.391 . S
C1364 C1365 1.400 . S
C1365 C1359 1.491 . S
C1365 C1364 1.400 . S
C1365 C1366 1.398 . S
C1366 H1354 0.950 . S
C1366 C1365 1.398 . S
C1366 C1367 1.391 . S
C1367 H1355 0.950 . S
C1367 C1363 1.393 . S
C1367 C1366 1.391 . S
H1368 C1376 0.950 . S
H1369 C1381 0.950 . S
H1370 C1378 0.950 . S
H1371 C1380 0.950 . S
H1372 C1382 0.950 . S
H1373 C1384 0.950 . S
H1374 C1386 0.950 . S
H1375 C1387 0.950 . S
C1376 H1368 0.950 . S
C1376 C1377 1.386 . S
C1376 C1378 1.391 . S
C1377 C1376 1.386 . S
C1377 C1381 1.393 . S
C1378 H1370 0.950 . S
C1378 C1376 1.391 . S
C1378 C1379 1.400 . S
C1379 C1378 1.400 . S
C1379 C1380 1.398 . S
C1379 C1385 1.491 . S
C1380 H1371 0.950 . S
C1380 C1379 1.398 . S
C1380 C1381 1.391 . S
C1381 H1369 0.950 . S
C1381 C1377 1.393 . S
C1381 C1380 1.391 . S
C1382 H1372 0.950 . S
C1382 C1383 1.386 . S
C1382 C1384 1.391 . S
C1383 C1382 1.386 . S
C1383 C1387 1.393 . S
C1384 H1373 0.950 . S
C1384 C1382 1.391 . S
C1384 C1385 1.400 . S
C1385 C1379 1.491 . S
C1385 C1384 1.400 . S
C1385 C1386 1.398 . S
C1386 H1374 0.950 . S
C1386 C1385 1.398 . S
C1386 C1387 1.391 . S
C1387 H1375 0.950 . S
C1387 C1383 1.393 . S
C1387 C1386 1.391 . S
H1388 C1396 0.950 . S
H1389 C1401 0.950 . S
H1390 C1398 0.950 . S
H1391 C1400 0.950 . S
H1392 C1402 0.950 . S
H1393 C1404 0.950 . S
H1394 C1406 0.950 . S
H1395 C1407 0.950 . S
C1396 H1388 0.950 . S
C1396 C1397 1.386 . S
C1396 C1398 1.391 . S
C1397 C1396 1.386 . S
C1397 C1401 1.393 . S
C1398 H1390 0.950 . S
C1398 C1396 1.391 . S
C1398 C1399 1.400 . S
C1399 C1398 1.400 . S
C1399 C1400 1.398 . S
C1399 C1405 1.491 . S
C1400 H1391 0.950 . S
C1400 C1399 1.398 . S
C1400 C1401 1.391 . S
C1401 H1389 0.950 . S
C1401 C1397 1.393 . S
C1401 C1400 1.391 . S
C1402 H1392 0.950 . S
C1402 C1403 1.386 . S
C1402 C1404 1.391 . S
C1403 C1402 1.386 . S
C1403 C1407 1.393 . S
C1404 H1393 0.950 . S
C1404 C1402 1.391 . S
C1404 C1405 1.400 . S
C1405 C1399 1.491 . S
C1405 C1404 1.400 . S
C1405 C1406 1.398 . S
C1406 H1394 0.950 . S
C1406 C1405 1.398 . S
C1406 C1407 1.391 . S
C1407 H1395 0.950 . S
C1407 C1403 1.393 . S
C1407 C1406 1.391 . S
H1408 C1416 0.950 . S
H1409 C1421 0.950 . S
H1410 C1418 0.950 . S
H1411 C1420 0.950 . S
H1412 C1422 0.950 . S
H1413 C1424 0.950 . S
H1414 C1426 0.950 . S
H1415 C1427 0.950 . S
C1416 H1408 0.950 . S
C1416 C1417 1.386 . S
C1416 C1418 1.391 . S
C1417 C1416 1.386 . S
C1417 C1421 1.393 . S
C1418 H1410 0.950 . S
C1418 C1416 1.391 . S
C1418 C1419 1.400 . S
C1419 C1418 1.400 . S
C1419 C1420 1.398 . S
C1419 C1425 1.491 . S
C1420 H1411 0.950 . S
C1420 C1419 1.398 . S
C1420 C1421 1.391 . S
C1421 H1409 0.950 . S
C1421 C1417 1.393 . S
C1421 C1420 1.391 . S
C1422 H1412 0.950 . S
C1422 C1423 1.386 . S
C1422 C1424 1.391 . S
C1423 C1422 1.386 . S
C1423 C1427 1.393 . S
C1424 H1413 0.950 . S
C1424 C1422 1.391 . S
C1424 C1425 1.400 . S
C1425 C1419 1.491 . S
C1425 C1424 1.400 . S
C1425 C1426 1.398 . S
C1426 H1414 0.950 . S
C1426 C1425 1.398 . S
C1426 C1427 1.391 . S
C1427 H1415 0.950 . S
C1427 C1423 1.393 . S
C1427 C1426 1.391 . S
H1428 C1436 0.950 . S
H1429 C1441 0.950 . S
H1430 C1438 0.950 . S
H1431 C1440 0.950 . S
H1432 C1442 0.950 . S
H1433 C1444 0.950 . S
H1434 C1446 0.950 . S
H1435 C1447 0.950 . S
C1436 H1428 0.950 . S
C1436 C1437 1.386 . S
C1436 C1438 1.391 . S
C1437 C1436 1.386 . S
C1437 C1441 1.393 . S
C1438 H1430 0.950 . S
C1438 C1436 1.391 . S
C1438 C1439 1.400 . S
C1439 C1438 1.400 . S
C1439 C1440 1.398 . S
C1439 C1445 1.491 . S
C1440 H1431 0.950 . S
C1440 C1439 1.398 . S
C1440 C1441 1.391 . S
C1441 H1429 0.950 . S
C1441 C1437 1.393 . S
C1441 C1440 1.391 . S
C1442 H1432 0.950 . S
C1442 C1443 1.386 . S
C1442 C1444 1.391 . S
C1443 C1442 1.386 . S
C1443 C1447 1.393 . S
C1444 H1433 0.950 . S
C1444 C1442 1.391 . S
C1444 C1445 1.400 . S
C1445 C1439 1.491 . S
C1445 C1444 1.400 . S
C1445 C1446 1.398 . S
C1446 H1434 0.950 . S
C1446 C1445 1.398 . S
C1446 C1447 1.391 . S
C1447 H1435 0.950 . S
C1447 C1443 1.393 . S
C1447 C1446 1.391 . S
H1448 C1456 0.950 . S
H1449 C1461 0.950 . S
H1450 C1458 0.950 . S
H1451 C1460 0.950 . S
H1452 C1462 0.950 . S
H1453 C1464 0.950 . S
H1454 C1466 0.950 . S
H1455 C1467 0.950 . S
C1456 H1448 0.950 . S
C1456 C1457 1.386 . S
C1456 C1458 1.391 . S
C1457 C1456 1.386 . S
C1457 C1461 1.393 . S
C1458 H1450 0.950 . S
C1458 C1456 1.391 . S
C1458 C1459 1.400 . S
C1459 C1458 1.400 . S
C1459 C1460 1.398 . S
C1459 C1465 1.491 . S
C1460 H1451 0.950 . S
C1460 C1459 1.398 . S
C1460 C1461 1.391 . S
C1461 H1449 0.950 . S
C1461 C1457 1.393 . S
C1461 C1460 1.391 . S
C1462 H1452 0.950 . S
C1462 C1463 1.386 . S
C1462 C1464 1.391 . S
C1463 C1462 1.386 . S
C1463 C1467 1.393 . S
C1464 H1453 0.950 . S
C1464 C1462 1.391 . S
C1464 C1465 1.400 . S
C1465 C1459 1.491 . S
C1465 C1464 1.400 . S
C1465 C1466 1.398 . S
C1466 H1454 0.950 . S
C1466 C1465 1.398 . S
C1466 C1467 1.391 . S
C1467 H1455 0.950 . S
C1467 C1463 1.393 . S
C1467 C1466 1.391 . S
H1468 C1476 0.950 . S
H1469 C1481 0.950 . S
H1470 C1478 0.950 . S
H1471 C1480 0.950 . S
H1472 C1482 0.950 . S
H1473 C1484 0.950 . S
H1474 C1486 0.950 . S
H1475 C1487 0.950 . S
C1476 H1468 0.950 . S
C1476 C1477 1.386 . S
C1476 C1478 1.391 . S
C1477 C1476 1.386 . S
C1477 C1481 1.393 . S
C1478 H1470 0.950 . S
C1478 C1476 1.391 . S
C1478 C1479 1.400 . S
C1479 C1478 1.400 . S
C1479 C1480 1.398 . S
C1479 C1485 1.491 . S
C1480 H1471 0.950 . S
C1480 C1479 1.398 . S
C1480 C1481 1.391 . S
C1481 H1469 0.950 . S
C1481 C1477 1.393 . S
C1481 C1480 1.391 . S
C1482 H1472 0.950 . S
C1482 C1483 1.386 . S
C1482 C1484 1.391 . S
C1483 C1482 1.386 . S
C1483 C1487 1.393 . S
C1484 H1473 0.950 . S
C1484 C1482 1.391 . S
C1484 C1485 1.400 . S
C1485 C1479 1.491 . S
C1485 C1484 1.400 . S
C1485 C1486 1.398 . S
C1486 H1474 0.950 . S
C1486 C1485 1.398 . S
C1486 C1487 1.391 . S
C1487 H1475 0.950 . S
C1487 C1483 1.393 . S
C1487 C1486 1.391 . S
H1488 C1496 0.950 . S
H1489 C1501 0.950 . S
H1490 C1498 0.950 . S
H1491 C1500 0.950 . S
H1492 C1502 0.950 . S
H1493 C1504 0.950 . S
H1494 C1506 0.950 . S
H1495 C1507 0.950 . S
C1496 H1488 0.950 . S
C1496 C1497 1.386 . S
C1496 C1498 1.391 . S
C1497 C1496 1.386 . S
C1497 C1501 1.393 . S
C1498 H1490 0.950 . S
C1498 C1496 1.391 . S
C1498 C1499 1.400 . S
C1499 C1498 1.400 . S
C1499 C1500 1.398 . S
C1499 C1505 1.491 . S
C1500 H1491 0.950 . S
C1500 C1499 1.398 . S
C1500 C1501 1.391 . S
C1501 H1489 0.950 . S
C1501 C1497 1.393 . S
C1501 C1500 1.391 . S
C1502 H1492 0.950 . S
C1502 C1503 1.386 . S
C1502 C1504 1.391 . S
C1503 C1502 1.386 . S
C1503 C1507 1.393 . S
C1504 H1493 0.950 . S
C1504 C1502 1.391 . S
C1504 C1505 1.400 . S
C1505 C1499 1.491 . S
C1505 C1504 1.400 . S
C1505 C1506 1.398 . S
C1506 H1494 0.950 . S
C1506 C1505 1.398 . S
C1506 C1507 1.391 . S
C1507 H1495 0.950 . S
C1507 C1503 1.393 . S
C1507 C1506 1.391 . S
H1508 C1516 0.950 . S
H1509 C1521 0.950 . S
H1510 C1518 0.950 . S
H1511 C1520 0.950 . S
H1512 C1522 0.950 . S
H1513 C1524 0.950 . S
H1514 C1526 0.950 . S
H1515 C1527 0.950 . S
C1516 H1508 0.950 . S
C1516 C1517 1.386 . S
C1516 C1518 1.391 . S
C1517 C1516 1.386 . S
C1517 C1521 1.393 . S
C1518 H1510 0.950 . S
C1518 C1516 1.391 . S
C1518 C1519 1.400 . S
C1519 C1518 1.400 . S
C1519 C1520 1.398 . S
C1519 C1525 1.491 . S
C1520 H1511 0.950 . S
C1520 C1519 1.398 . S
C1520 C1521 1.391 . S
C1521 H1509 0.950 . S
C1521 C1517 1.393 . S
C1521 C1520 1.391 . S
C1522 H1512 0.950 . S
C1522 C1523 1.386 . S
C1522 C1524 1.391 . S
C1523 C1522 1.386 . S
C1523 C1527 1.393 . S
C1524 H1513 0.950 . S
C1524 C1522 1.391 . S
C1524 C1525 1.400 . S
C1525 C1519 1.491 . S
C1525 C1524 1.400 . S
C1525 C1526 1.398 . S
C1526 H1514 0.950 . S
C1526 C1525 1.398 . S
C1526 C1527 1.391 . S
C1527 H1515 0.950 . S
C1527 C1523 1.393 . S
C1527 C1526 1.391 . S
H1528 C1536 0.950 . S
H1529 C1541 0.950 . S
H1530 C1538 0.950 . S
H1531 C1540 0.950 . S
H1532 C1542 0.950 . S
H1533 C1544 0.950 . S
H1534 C1546 0.950 . S
H1535 C1547 0.950 . S
C1536 H1528 0.950 . S
C1536 C1537 1.386 . S
C1536 C1538 1.391 . S
C1537 C1536 1.386 . S
C1537 C1541 1.393 . S
C1538 H1530 0.950 . S
C1538 C1536 1.391 . S
C1538 C1539 1.400 . S
C1539 C1538 1.400 . S
C1539 C1540 1.398 . S
C1539 C1545 1.491 . S
C1540 H1531 0.950 . S
C1540 C1539 1.398 . S
C1540 C1541 1.391 . S
C1541 H1529 0.950 . S
C1541 C1537 1.393 . S
C1541 C1540 1.391 . S
C1542 H1532 0.950 . S
C1542 C1543 1.386 . S
C1542 C1544 1.391 . S
C1543 C1542 1.386 . S
C1543 C1547 1.393 . S
C1544 H1533 0.950 . S
C1544 C1542 1.391 . S
C1544 C1545 1.400 . S
C1545 C1539 1.491 . S
C1545 C1544 1.400 . S
C1545 C1546 1.398 . S
C1546 H1534 0.950 . S
C1546 C1545 1.398 . S
C1546 C1547 1.391 . S
C1547 H1535 0.950 . S
C1547 C1543 1.393 . S
C1547 C1546 1.391 . S
H1548 C1556 0.950 . S
H1549 C1561 0.950 . S
H1550 C1558 0.950 . S
H1551 C1560 0.950 . S
H1552 C1562 0.950 . S
H1553 C1564 0.950 . S
H1554 C1566 0.950 . S
H1555 C1567 0.950 . S
C1556 H1548 0.950 . S
C1556 C1557 1.386 . S
C1556 C1558 1.391 . S
C1557 C1556 1.386 . S
C1557 C1561 1.393 . S
C1558 H1550 0.950 . S
C1558 C1556 1.391 . S
C1558 C1559 1.400 . S
C1559 C1558 1.400 . S
C1559 C1560 1.398 . S
C1559 C1565 1.491 . S
C1560 H1551 0.950 . S
C1560 C1559 1.398 . S
C1560 C1561 1.391 . S
C1561 H1549 0.950 . S
C1561 C1557 1.393 . S
C1561 C1560 1.391 . S
C1562 H1552 0.950 . S
C1562 C1563 1.386 . S
C1562 C1564 1.391 . S
C1563 C1562 1.386 . S
C1563 C1567 1.393 . S
C1564 H1553 0.950 . S
C1564 C1562 1.391 . S
C1564 C1565 1.400 . S
C1565 C1559 1.491 . S
C1565 C1564 1.400 . S
C1565 C1566 1.398 . S
C1566 H1554 0.950 . S
C1566 C1565 1.398 . S
C1566 C1567 1.391 . S
C1567 H1555 0.950 . S
C1567 C1563 1.393 . S
C1567 C1566 1.391 . S
H1568 C1576 0.950 . S
H1569 C1581 0.950 . S
H1570 C1578 0.950 . S
H1571 C1580 0.950 . S
H1572 C1582 0.950 . S
H1573 C1584 0.950 . S
H1574 C1586 0.950 . S
H1575 C1587 0.950 . S
C1576 H1568 0.950 . S
C1576 C1577 1.386 . S
C1576 C1578 1.391 . S
C1577 C1576 1.386 . S
C1577 C1581 1.393 . S
C1578 H1570 0.950 . S
C1578 C1576 1.391 . S
C1578 C1579 1.400 . S
C1579 C1578 1.400 . S
C1579 C1580 1.398 . S
C1579 C1585 1.491 . S
C1580 H1571 0.950 . S
C1580 C1579 1.398 . S
C1580 C1581 1.391 . S
C1581 H1569 0.950 . S
C1581 C1577 1.393 . S
C1581 C1580 1.391 . S
C1582 H1572 0.950 . S
C1582 C1583 1.386 . S
C1582 C1584 1.391 . S
C1583 C1582 1.386 . S
C1583 C1587 1.393 . S
C1584 H1573 0.950 . S
C1584 C1582 1.391 . S
C1584 C1585 1.400 . S
C1585 C1579 1.491 . S
C1585 C1584 1.400 . S
C1585 C1586 1.398 . S
C1586 H1574 0.950 . S
C1586 C1585 1.398 . S
C1586 C1587 1.391 . S
C1587 H1575 0.950 . S
C1587 C1583 1.393 . S
C1587 C1586 1.391 . S
H1588 C1596 0.950 . S
H1589 C1601 0.950 . S
H1590 C1598 0.950 . S
H1591 C1600 0.950 . S
H1592 C1602 0.950 . S
H1593 C1604 0.950 . S
H1594 C1606 0.950 . S
H1595 C1607 0.950 . S
C1596 H1588 0.950 . S
C1596 C1597 1.386 . S
C1596 C1598 1.391 . S
C1597 C1596 1.386 . S
C1597 C1601 1.393 . S
C1598 H1590 0.950 . S
C1598 C1596 1.391 . S
C1598 C1599 1.400 . S
C1599 C1598 1.400 . S
C1599 C1600 1.398 . S
C1599 C1605 1.491 . S
C1600 H1591 0.950 . S
C1600 C1599 1.398 . S
C1600 C1601 1.391 . S
C1601 H1589 0.950 . S
C1601 C1597 1.393 . S
C1601 C1600 1.391 . S
C1602 H1592 0.950 . S
C1602 C1603 1.386 . S
C1602 C1604 1.391 . S
C1603 C1602 1.386 . S
C1603 C1607 1.393 . S
C1604 H1593 0.950 . S
C1604 C1602 1.391 . S
C1604 C1605 1.400 . S
C1605 C1599 1.491 . S
C1605 C1604 1.400 . S
C1605 C1606 1.398 . S
C1606 H1594 0.950 . S
C1606 C1605 1.398 . S
C1606 C1607 1.391 . S
C1607 H1595 0.950 . S
C1607 C1603 1.393 . S
C1607 C1606 1.391 . S
H1608 C1616 0.950 . S
H1609 C1621 0.950 . S
H1610 C1618 0.926 1_554 S
H1611 C1620 0.950 . S
H1612 C1622 0.950 . S
H1613 C1624 0.926 1_556 S
H1614 C1626 0.950 . S
H1615 C1627 0.950 . S
C1616 H1608 0.950 . S
C1616 C1617 1.386 . S
C1616 C1618 1.391 . S
C1617 C1616 1.386 . S
C1617 C1621 1.393 . S
C1618 H1610 0.926 1_556 S
C1618 C1616 1.391 . S
C1618 C1619 1.400 . S
C1619 C1618 1.400 . S
C1619 C1620 1.398 . S
C1619 C1625 1.491 1_556 S
C1620 H1611 0.950 . S
C1620 C1619 1.398 . S
C1620 C1621 1.391 . S
C1621 H1609 0.950 . S
C1621 C1617 1.393 . S
C1621 C1620 1.391 . S
C1622 H1612 0.950 . S
C1622 C1623 1.386 . S
C1622 C1624 1.391 . S
C1623 C1622 1.386 . S
C1623 C1627 1.393 . S
C1624 H1613 0.926 1_554 S
C1624 C1622 1.391 . S
C1624 C1625 1.400 . S
C1625 C1619 1.491 1_554 S
C1625 C1624 1.400 . S
C1625 C1626 1.398 . S
C1626 H1614 0.950 . S
C1626 C1625 1.398 . S
C1626 C1627 1.391 . S
C1627 H1615 0.950 . S
C1627 C1623 1.393 . S
C1627 C1626 1.391 . S
H1628 C1636 0.950 . S
H1629 C1641 0.950 . S
H1630 C1638 0.950 . S
H1631 C1640 0.950 . S
H1632 C1642 0.950 . S
H1633 C1644 0.950 . S
H1634 C1646 0.950 . S
H1635 C1647 0.950 . S
C1636 H1628 0.950 . S
C1636 C1637 1.386 . S
C1636 C1638 1.391 . S
C1637 C1636 1.386 . S
C1637 C1641 1.393 . S
C1638 H1630 0.950 . S
C1638 C1636 1.391 . S
C1638 C1639 1.400 . S
C1639 C1638 1.400 . S
C1639 C1640 1.398 . S
C1639 C1645 1.491 1_455 S
C1640 H1631 0.950 . S
C1640 C1639 1.398 . S
C1640 C1641 1.391 . S
C1641 H1629 0.950 . S
C1641 C1637 1.393 . S
C1641 C1640 1.391 . S
C1642 H1632 0.950 . S
C1642 C1643 1.386 . S
C1642 C1644 1.391 . S
C1643 C1642 1.386 . S
C1643 C1647 1.393 . S
C1644 H1633 0.950 . S
C1644 C1642 1.391 . S
C1644 C1645 1.400 . S
C1645 C1639 1.491 1_655 S
C1645 C1644 1.400 . S
C1645 C1646 1.398 . S
C1646 H1634 0.950 . S
C1646 C1645 1.398 . S
C1646 C1647 1.391 . S
C1647 H1635 0.950 . S
C1647 C1643 1.393 . S
C1647 C1646 1.391 . S
H1648 C1656 0.950 . S
H1649 C1661 0.950 . S
H1650 C1658 0.950 . S
H1651 C1660 0.950 . S
H1652 C1662 0.950 . S
H1653 C1664 0.950 . S
H1654 C1666 0.950 . S
H1655 C1667 0.950 . S
C1656 H1648 0.950 . S
C1656 C1657 1.386 . S
C1656 C1658 1.391 . S
C1657 C1656 1.386 . S
C1657 C1661 1.393 . S
C1658 H1650 0.950 . S
C1658 C1656 1.391 . S
C1658 C1659 1.400 . S
C1659 C1658 1.400 . S
C1659 C1660 1.398 . S
C1659 C1665 1.491 1_564 S
C1660 H1651 0.950 . S
C1660 C1659 1.398 . S
C1660 C1661 1.391 . S
C1661 H1649 0.950 . S
C1661 C1657 1.393 . S
C1661 C1660 1.391 . S
C1662 H1652 0.950 . S
C1662 C1663 1.386 . S
C1662 C1664 1.391 . S
C1663 C1662 1.386 . S
C1663 C1667 1.393 . S
C1664 H1653 0.950 . S
C1664 C1662 1.391 . S
C1664 C1665 1.400 . S
C1665 C1659 1.491 1_546 S
C1665 C1664 1.400 . S
C1665 C1666 1.398 . S
C1666 H1654 0.950 . S
C1666 C1665 1.398 . S
C1666 C1667 1.391 . S
C1667 H1655 0.950 . S
C1667 C1663 1.393 . S
C1667 C1666 1.391 . S
H1668 C1676 0.950 . S
H1669 C1681 0.950 . S
H1670 C1678 0.950 . S
H1671 C1680 0.950 . S
H1672 C1682 0.950 . S
H1673 C1684 0.950 . S
H1674 C1686 0.950 . S
H1675 C1687 0.950 . S
C1676 H1668 0.950 . S
C1676 C1677 1.386 . S
C1676 C1678 1.391 . S
C1677 C1676 1.386 . S
C1677 C1681 1.393 . S
C1678 H1670 0.950 . S
C1678 C1676 1.391 . S
C1678 C1679 1.400 . S
C1679 C1678 1.400 . S
C1679 C1680 1.398 . S
C1679 C1685 1.491 . S
C1680 H1671 0.950 . S
C1680 C1679 1.398 . S
C1680 C1681 1.391 . S
C1681 H1669 0.950 . S
C1681 C1677 1.393 . S
C1681 C1680 1.391 . S
C1682 H1672 0.950 . S
C1682 C1683 1.386 . S
C1682 C1684 1.391 . S
C1683 C1682 1.386 . S
C1683 C1687 1.393 . S
C1684 H1673 0.950 . S
C1684 C1682 1.391 . S
C1684 C1685 1.400 . S
C1685 C1679 1.491 . S
C1685 C1684 1.400 . S
C1685 C1686 1.398 . S
C1686 H1674 0.950 . S
C1686 C1685 1.398 . S
C1686 C1687 1.391 . S
C1687 H1675 0.950 . S
C1687 C1683 1.393 . S
C1687 C1686 1.391 . S
H1688 C1696 0.950 . S
H1689 C1701 0.950 . S
H1690 C1698 0.988 . S
H1691 C1700 0.950 1_455 S
H1692 C1702 0.950 . S
H1693 C1704 0.988 . S
H1694 C1706 0.950 1_655 S
H1695 C1707 0.950 . S
C1696 H1688 0.950 . S
C1696 C1697 1.386 . S
C1696 C1698 1.368 1_556 S
C1697 C1696 1.386 . S
C1697 C1701 1.393 . S
C1698 H1690 0.988 . S
C1698 C1696 1.368 1_554 S
C1698 C1699 1.387 1_554 S
C1699 C1698 1.387 1_556 S
C1699 C1700 1.398 . S
C1699 C1705 1.491 1_656 S
C1700 H1691 0.950 1_655 S
C1700 C1699 1.398 . S
C1700 C1701 1.391 . S
C1701 H1689 0.950 . S
C1701 C1697 1.393 . S
C1701 C1700 1.391 . S
C1702 H1692 0.950 . S
C1702 C1703 1.386 . S
C1702 C1704 1.368 1_554 S
C1703 C1702 1.386 . S
C1703 C1707 1.393 . S
C1704 H1693 0.988 . S
C1704 C1702 1.368 1_556 S
C1704 C1705 1.387 1_556 S
C1705 C1699 1.491 1_454 S
C1705 C1704 1.387 1_554 S
C1705 C1706 1.398 . S
C1706 H1694 0.950 1_455 S
C1706 C1705 1.398 . S
C1706 C1707 1.391 . S
C1707 H1695 0.950 . S
C1707 C1703 1.393 . S
C1707 C1706 1.391 . S
H1708 C1716 0.950 . S
H1709 C1721 0.950 . S
H1710 C1718 0.950 . S
H1711 C1720 0.950 . S
H1712 C1722 0.950 . S
H1713 C1724 0.950 . S
H1714 C1726 0.950 . S
H1715 C1727 0.950 . S
C1716 H1708 0.950 . S
C1716 C1717 1.386 . S
C1716 C1718 1.391 . S
C1717 C1716 1.386 . S
C1717 C1721 1.393 . S
C1718 H1710 0.950 . S
C1718 C1716 1.391 . S
C1718 C1719 1.400 . S
C1719 C1718 1.400 . S
C1719 C1720 1.398 . S
C1719 C1725 1.491 1_565 S
C1720 H1711 0.950 . S
C1720 C1719 1.398 . S
C1720 C1721 1.391 . S
C1721 H1709 0.950 . S
C1721 C1717 1.393 . S
C1721 C1720 1.391 . S
C1722 H1712 0.950 . S
C1722 C1723 1.386 . S
C1722 C1724 1.391 . S
C1723 C1722 1.386 . S
C1723 C1727 1.393 . S
C1724 H1713 0.950 . S
C1724 C1722 1.391 . S
C1724 C1725 1.400 . S
C1725 C1719 1.491 1_545 S
C1725 C1724 1.400 . S
C1725 C1726 1.398 . S
C1726 H1714 0.950 . S
C1726 C1725 1.398 . S
C1726 C1727 1.391 . S
C1727 H1715 0.950 . S
C1727 C1723 1.393 . S
C1727 C1726 1.391 . S
C1017 C403 1.334 . S
C1023 C70 1.280 . S
C1037 C487 1.359 . S
C1043 C154 1.239 . S
C1057 C238 1.252 . S
C1063 C67 1.357 . S
C1077 C322 1.253 . S
C1083 C151 1.356 . S
C1097 C406 1.270 . S
C1103 C235 1.347 . S
C1117 C319 1.348 . S
C1123 C490 1.269 . S
C1137 C739 1.346 . S
C1143 C574 1.238 . S
C1157 C658 1.252 . S
C1163 C823 1.357 . S
C1177 C907 1.330 . S
C1183 C742 1.265 . S
C1197 C826 1.262 . S
C1203 C991 1.331 . S
C1217 C910 1.236 . S
C1223 C571 1.349 . S
C1237 C655 1.337 . S
C1243 C994 1.279 . S
C1257 C392 1.394 . S
C1263 C58 1.314 . S
C1277 C142 1.308 . S
C1283 C476 1.398 . S
C1297 C226 1.327 . S
C1303 C56 1.388 . S
C1317 C310 1.331 . S
C1323 C140 1.420 . S
C1337 C224 1.388 . S
C1343 C394 1.329 . S
C1357 C308 1.418 . S
C1363 C478 1.303 . S
C1377 C728 1.389 . S
C1383 C562 1.338 . S
C1397 C646 1.301 . S
C1403 C812 1.410 . S
C1417 C730 1.310 . S
C1423 C896 1.422 . S
C1437 C980 1.414 . S
C1443 C814 1.301 . S
C1457 C898 1.347 . S
C1463 C560 1.405 . S
C1477 C644 1.410 . S
C1483 C982 1.301 . S
C1497 C903 1.879 . S
C1503 C63 1.887 . S
C1517 C147 1.893 . S
C1523 C987 1.882 . S
C1537 C231 1.880 . S
C1543 C567 1.886 . S
C1557 C315 1.873 . S
C1563 C651 1.897 . S
C1577 C399 1.890 . S
C1583 C735 1.876 . S
C1597 C819 1.888 . S
C1603 C483 1.878 . S
C1617 C830 2.018 . S
C1623 C74 2.024 . S
C1637 C914 2.030 . S
C1643 C158 2.038 . S
C1657 C242 2.023 . S
C1663 C998 2.019 . S
C1677 C326 2.019 . S
C1683 C578 2.022 . S
C1697 C662 2.018 . S
C1703 C410 2.036 . S
C1717 C746 2.038 . S
C1723 C494 2.030 . S
