# Generated by pormake.
# Topology pem, (4)-cn, num edge types: 1
# Building blocks:
#     Node 0, Type 0, BuildingBlock: CEKHIL_clean_sbu_0, # of connection points: 4
#     Node 1, Type 0, BuildingBlock: CEKHIL_clean_sbu_0, # of connection points: 4
#     Node 2, Type 0, BuildingBlock: CEKHIL_clean_sbu_0, # of connection points: 4
#     Node 3, Type 0, BuildingBlock: CEKHIL_clean_sbu_0, # of connection points: 4
#     Node 4, Type 0, BuildingBlock: CEKHIL_clean_sbu_0, # of connection points: 4
#     Node 5, Type 0, BuildingBlock: CEKHIL_clean_sbu_0, # of connection points: 4
#     Node 6, Type 0, BuildingBlock: CEKHIL_clean_sbu_0, # of connection points: 4
#     Node 7, Type 0, BuildingBlock: CEKHIL_clean_sbu_0, # of connection points: 4
#     Node 8, Type 0, BuildingBlock: CEKHIL_clean_sbu_0, # of connection points: 4
#     Node 9, Type 0, BuildingBlock: CEKHIL_clean_sbu_0, # of connection points: 4
#     Node 10, Type 0, BuildingBlock: CEKHIL_clean_sbu_0, # of connection points: 4
#     Node 11, Type 0, BuildingBlock: CEKHIL_clean_sbu_0, # of connection points: 4
#     Node 12, Type 0, BuildingBlock: CEKHIL_clean_sbu_0, # of connection points: 4
#     Node 13, Type 0, BuildingBlock: CEKHIL_clean_sbu_0, # of connection points: 4
#     Node 14, Type 0, BuildingBlock: CEKHIL_clean_sbu_0, # of connection points: 4
#     Node 15, Type 0, BuildingBlock: CEKHIL_clean_sbu_0, # of connection points: 4
#     Node 16, Type 0, BuildingBlock: CEKHIL_clean_sbu_0, # of connection points: 4
#     Node 17, Type 0, BuildingBlock: CEKHIL_clean_sbu_0, # of connection points: 4
#     Node 18, Type 0, BuildingBlock: CEKHIL_clean_sbu_0, # of connection points: 4
#     Node 19, Type 0, BuildingBlock: CEKHIL_clean_sbu_0, # of connection points: 4
#     Node 20, Type 0, BuildingBlock: CEKHIL_clean_sbu_0, # of connection points: 4
#     Node 21, Type 0, BuildingBlock: CEKHIL_clean_sbu_0, # of connection points: 4
#     Node 22, Type 0, BuildingBlock: CEKHIL_clean_sbu_0, # of connection points: 4
#     Node 23, Type 0, BuildingBlock: CEKHIL_clean_sbu_0, # of connection points: 4
#     Node 24, Type 0, BuildingBlock: CEKHIL_clean_sbu_0, # of connection points: 4
#     Node 25, Type 0, BuildingBlock: CEKHIL_clean_sbu_0, # of connection points: 4
#     Node 26, Type 0, BuildingBlock: CEKHIL_clean_sbu_0, # of connection points: 4
#     Node 27, Type 0, BuildingBlock: CEKHIL_clean_sbu_0, # of connection points: 4
#     Node 28, Type 0, BuildingBlock: CEKHIL_clean_sbu_0, # of connection points: 4
#     Node 29, Type 0, BuildingBlock: CEKHIL_clean_sbu_0, # of connection points: 4
#     Node 30, Type 0, BuildingBlock: CEKHIL_clean_sbu_0, # of connection points: 4
#     Node 31, Type 0, BuildingBlock: CEKHIL_clean_sbu_0, # of connection points: 4
#     Edge 32, Type (0, 0), BuildingBlock: XIVTED_clean_linker_0, # of connection points: 2
#     Edge 33, Type (0, 0), BuildingBlock: XIVTED_clean_linker_0, # of connection points: 2
#     Edge 34, Type (0, 0), BuildingBlock: XIVTED_clean_linker_0, # of connection points: 2
#     Edge 35, Type (0, 0), BuildingBlock: XIVTED_clean_linker_0, # of connection points: 2
#     Edge 36, Type (0, 0), BuildingBlock: XIVTED_clean_linker_0, # of connection points: 2
#     Edge 37, Type (0, 0), BuildingBlock: XIVTED_clean_linker_0, # of connection points: 2
#     Edge 38, Type (0, 0), BuildingBlock: XIVTED_clean_linker_0, # of connection points: 2
#     Edge 39, Type (0, 0), BuildingBlock: XIVTED_clean_linker_0, # of connection points: 2
#     Edge 40, Type (0, 0), BuildingBlock: XIVTED_clean_linker_0, # of connection points: 2
#     Edge 41, Type (0, 0), BuildingBlock: XIVTED_clean_linker_0, # of connection points: 2
#     Edge 42, Type (0, 0), BuildingBlock: XIVTED_clean_linker_0, # of connection points: 2
#     Edge 43, Type (0, 0), BuildingBlock: XIVTED_clean_linker_0, # of connection points: 2
#     Edge 44, Type (0, 0), BuildingBlock: XIVTED_clean_linker_0, # of connection points: 2
#     Edge 45, Type (0, 0), BuildingBlock: XIVTED_clean_linker_0, # of connection points: 2
#     Edge 46, Type (0, 0), BuildingBlock: XIVTED_clean_linker_0, # of connection points: 2
#     Edge 47, Type (0, 0), BuildingBlock: XIVTED_clean_linker_0, # of connection points: 2
#     Edge 48, Type (0, 0), BuildingBlock: XIVTED_clean_linker_0, # of connection points: 2
#     Edge 49, Type (0, 0), BuildingBlock: XIVTED_clean_linker_0, # of connection points: 2
#     Edge 50, Type (0, 0), BuildingBlock: XIVTED_clean_linker_0, # of connection points: 2
#     Edge 51, Type (0, 0), BuildingBlock: XIVTED_clean_linker_0, # of connection points: 2
#     Edge 52, Type (0, 0), BuildingBlock: XIVTED_clean_linker_0, # of connection points: 2
#     Edge 53, Type (0, 0), BuildingBlock: XIVTED_clean_linker_0, # of connection points: 2
#     Edge 54, Type (0, 0), BuildingBlock: XIVTED_clean_linker_0, # of connection points: 2
#     Edge 55, Type (0, 0), BuildingBlock: XIVTED_clean_linker_0, # of connection points: 2
#     Edge 56, Type (0, 0), BuildingBlock: XIVTED_clean_linker_0, # of connection points: 2
#     Edge 57, Type (0, 0), BuildingBlock: XIVTED_clean_linker_0, # of connection points: 2
#     Edge 58, Type (0, 0), BuildingBlock: XIVTED_clean_linker_0, # of connection points: 2
#     Edge 59, Type (0, 0), BuildingBlock: XIVTED_clean_linker_0, # of connection points: 2
#     Edge 60, Type (0, 0), BuildingBlock: XIVTED_clean_linker_0, # of connection points: 2
#     Edge 61, Type (0, 0), BuildingBlock: XIVTED_clean_linker_0, # of connection points: 2
#     Edge 62, Type (0, 0), BuildingBlock: XIVTED_clean_linker_0, # of connection points: 2
#     Edge 63, Type (0, 0), BuildingBlock: XIVTED_clean_linker_0, # of connection points: 2
#     Edge 64, Type (0, 0), BuildingBlock: XIVTED_clean_linker_0, # of connection points: 2
#     Edge 65, Type (0, 0), BuildingBlock: XIVTED_clean_linker_0, # of connection points: 2
#     Edge 66, Type (0, 0), BuildingBlock: XIVTED_clean_linker_0, # of connection points: 2
#     Edge 67, Type (0, 0), BuildingBlock: XIVTED_clean_linker_0, # of connection points: 2
#     Edge 68, Type (0, 0), BuildingBlock: XIVTED_clean_linker_0, # of connection points: 2
#     Edge 69, Type (0, 0), BuildingBlock: XIVTED_clean_linker_0, # of connection points: 2
#     Edge 70, Type (0, 0), BuildingBlock: XIVTED_clean_linker_0, # of connection points: 2
#     Edge 71, Type (0, 0), BuildingBlock: XIVTED_clean_linker_0, # of connection points: 2
#     Edge 72, Type (0, 0), BuildingBlock: XIVTED_clean_linker_0, # of connection points: 2
#     Edge 73, Type (0, 0), BuildingBlock: XIVTED_clean_linker_0, # of connection points: 2
#     Edge 74, Type (0, 0), BuildingBlock: XIVTED_clean_linker_0, # of connection points: 2
#     Edge 75, Type (0, 0), BuildingBlock: XIVTED_clean_linker_0, # of connection points: 2
#     Edge 76, Type (0, 0), BuildingBlock: XIVTED_clean_linker_0, # of connection points: 2
#     Edge 77, Type (0, 0), BuildingBlock: XIVTED_clean_linker_0, # of connection points: 2
#     Edge 78, Type (0, 0), BuildingBlock: XIVTED_clean_linker_0, # of connection points: 2
#     Edge 79, Type (0, 0), BuildingBlock: XIVTED_clean_linker_0, # of connection points: 2
#     Edge 80, Type (0, 0), BuildingBlock: XIVTED_clean_linker_0, # of connection points: 2
#     Edge 81, Type (0, 0), BuildingBlock: XIVTED_clean_linker_0, # of connection points: 2
#     Edge 82, Type (0, 0), BuildingBlock: XIVTED_clean_linker_0, # of connection points: 2
#     Edge 83, Type (0, 0), BuildingBlock: XIVTED_clean_linker_0, # of connection points: 2
#     Edge 84, Type (0, 0), BuildingBlock: XIVTED_clean_linker_0, # of connection points: 2
#     Edge 85, Type (0, 0), BuildingBlock: XIVTED_clean_linker_0, # of connection points: 2
#     Edge 86, Type (0, 0), BuildingBlock: XIVTED_clean_linker_0, # of connection points: 2
#     Edge 87, Type (0, 0), BuildingBlock: XIVTED_clean_linker_0, # of connection points: 2
#     Edge 88, Type (0, 0), BuildingBlock: XIVTED_clean_linker_0, # of connection points: 2
#     Edge 89, Type (0, 0), BuildingBlock: XIVTED_clean_linker_0, # of connection points: 2
#     Edge 90, Type (0, 0), BuildingBlock: XIVTED_clean_linker_0, # of connection points: 2
#     Edge 91, Type (0, 0), BuildingBlock: XIVTED_clean_linker_0, # of connection points: 2
#     Edge 92, Type (0, 0), BuildingBlock: XIVTED_clean_linker_0, # of connection points: 2
#     Edge 93, Type (0, 0), BuildingBlock: XIVTED_clean_linker_0, # of connection points: 2
#     Edge 94, Type (0, 0), BuildingBlock: XIVTED_clean_linker_0, # of connection points: 2
#     Edge 95, Type (0, 0), BuildingBlock: XIVTED_clean_linker_0, # of connection points: 2
# Relax obj value: 0.211
# Max RMSD: 0.173
# Mean RMSD: 0.151
data_MOF--net-pem--node1-CEKHIL_clean_sbu_0--edge1-XIVTED_clean_linker_0
_symmetry_space_group_name_H-M    P1
_symmetry_Int_Tables_number       1
_symmetry_cell_setting            triclinic
loop_
_symmetry_equiv_pos_as_xyz
'x, y, z'
_cell_length_a     46.062128
_cell_length_b     38.836732
_cell_length_c     38.834338
_cell_angle_alpha  93.606768
_cell_angle_beta   91.683145
_cell_angle_gamma 91.570689
loop_
_atom_site_label
_atom_site_type_symbol
_atom_site_fract_x
_atom_site_fract_y
_atom_site_fract_z
_atom_type_partial_charge
Co0 Co 0.09795 0.07365 0.14331 0.0
O1 O 0.13057 0.04822 0.12395 0.0
O2 O 0.1243 0.10347 0.11918 0.0
C3 C 0.10039 0.04531 0.19403 0.0
O4 O 0.0677 0.11136 0.15762 0.0
Co5 Co 0.04067 0.04186 0.16507 0.0
O6 O 0.02565 0.08865 0.17484 0.0
C7 C 0.065 0.0305 0.09616 0.0
C8 C 0.13959 0.07667 0.11135 0.0
C9 C 0.04122 0.11473 0.16797 0.0
O10 O 0.07568 0.06123 0.10013 0.0
O11 O 0.05182 0.01649 0.12053 0.0
O12 O 0.1165 0.07281 0.18974 0.0
O13 O 0.0827 0.03695 0.16851 0.0
Co14 Co 0.21031 0.82701 0.40045 0.0
O15 O 0.23243 0.80753 0.43814 0.0
O16 O 0.2323 0.86277 0.42964 0.0
C17 C 0.16796 0.79476 0.40398 0.0
O18 O 0.19035 0.85718 0.36412 0.0
Co19 Co 0.18969 0.78071 0.33497 0.0
O20 O 0.17158 0.82308 0.3191 0.0
C21 C 0.25099 0.79082 0.3577 0.0
C22 C 0.24314 0.83823 0.44697 0.0
C23 C 0.17579 0.85269 0.33481 0.0
O24 O 0.24478 0.82034 0.37153 0.0
O25 O 0.23144 0.76923 0.34488 0.0
O26 O 0.17345 0.82206 0.42452 0.0
O27 O 0.1891 0.78654 0.38466 0.0
Co28 Co 0.4618 0.87807 0.6489 0.0
O29 O 0.42949 0.90094 0.62646 0.0
O30 O 0.4432 0.8495 0.60987 0.0
C31 C 0.44777 0.89218 0.70545 0.0
O32 O 0.49295 0.84292 0.66244 0.0
Co33 Co 0.50848 0.91034 0.69961 0.0
O34 O 0.52324 0.86358 0.70541 0.0
C35 C 0.50342 0.9306 0.62719 0.0
C36 C 0.42505 0.87389 0.60543 0.0
C37 C 0.51426 0.83901 0.68424 0.0
O38 O 0.48896 0.9024 0.61832 0.0
O39 O 0.51089 0.93936 0.65863 0.0
O40 O 0.43707 0.86569 0.687 0.0
O41 O 0.46687 0.9095 0.68958 0.0
Co42 Co 0.33353 0.11233 0.87811 0.0
O43 O 0.3658 0.1346 0.85472 0.0
O44 O 0.35245 0.15115 0.90638 0.0
C45 C 0.34683 0.05549 0.86435 0.0
O46 O 0.30306 0.09887 0.91397 0.0
Co47 Co 0.28623 0.06116 0.84699 0.0
O48 O 0.27398 0.05426 0.89455 0.0
C49 C 0.28843 0.13444 0.8284 0.0
C50 C 0.3705 0.15549 0.88192 0.0
C51 C 0.28278 0.07603 0.91868 0.0
O52 O 0.30581 0.14314 0.85435 0.0
O53 O 0.28026 0.10311 0.82026 0.0
O54 O 0.35845 0.07416 0.89015 0.0
O55 O 0.32766 0.0715 0.84721 0.0
Co56 Co 0.08666 0.86883 0.43333 0.0
O57 O 0.0632 0.8315 0.45176 0.0
O58 O 0.06539 0.83991 0.39668 0.0
C59 C 0.12788 0.86384 0.46736 0.0
O60 O 0.10802 0.90444 0.40378 0.0
Co61 Co 0.10854 0.9339 0.47984 0.0
O62 O 0.12812 0.9485 0.43806 0.0
C63 C 0.0464 0.91674 0.46578 0.0
C64 C 0.05369 0.82249 0.42056 0.0
C65 C 0.12349 0.93303 0.40842 0.0
O66 O 0.05269 0.89905 0.43821 0.0
O67 O 0.06567 0.92945 0.4878 0.0
O68 O 0.12275 0.84361 0.43975 0.0
O69 O 0.10713 0.88413 0.47465 0.0
Co70 Co 0.35906 0.84627 0.66455 0.0
O71 O 0.39327 0.82872 0.68763 0.0
O72 O 0.37808 0.80951 0.63615 0.0
C73 C 0.36796 0.90495 0.6779 0.0
O74 O 0.32412 0.85595 0.63211 0.0
Co75 Co 0.31198 0.8866 0.70612 0.0
O76 O 0.29229 0.88975 0.66039 0.0
C77 C 0.33346 0.8183 0.72145 0.0
C78 C 0.39703 0.80731 0.66134 0.0
C79 C 0.3005 0.87333 0.63306 0.0
O80 O 0.33636 0.8121 0.68899 0.0
O81 O 0.32586 0.84783 0.7341 0.0
O82 O 0.37996 0.88881 0.65203 0.0
O83 O 0.3528 0.88488 0.69577 0.0
Co84 Co 0.4349 0.09447 0.91323 0.0
O85 O 0.40062 0.07057 0.9297 0.0
O86 O 0.4151 0.12219 0.94961 0.0
C87 C 0.42739 0.08182 0.85434 0.0
O88 O 0.46948 0.12772 0.90466 0.0
Co89 Co 0.48352 0.05444 0.87351 0.0
O90 O 0.50182 0.10082 0.87045 0.0
C91 C 0.46035 0.03731 0.9405 0.0
C92 C 0.39638 0.09672 0.9512 0.0
C93 C 0.493 0.12767 0.88713 0.0
O94 O 0.45733 0.06965 0.94758 0.0
O95 O 0.46878 0.02559 0.911 0.0
O96 O 0.41443 0.10709 0.87033 0.0
O97 O 0.44251 0.06409 0.87463 0.0
Co98 Co 0.19392 0.12258 0.18289 0.0
O99 O 0.16115 0.1423 0.20763 0.0
O100 O 0.167 0.14478 0.152 0.0
C101 C 0.19287 0.0731 0.21324 0.0
O102 O 0.22434 0.10718 0.146 0.0
Co103 Co 0.25183 0.10455 0.21645 0.0
O104 O 0.26681 0.09259 0.17007 0.0
C105 C 0.22494 0.17228 0.22439 0.0
C106 C 0.15185 0.15359 0.17866 0.0
C107 C 0.25103 0.09736 0.14346 0.0
O108 O 0.21539 0.16666 0.19333 0.0
O109 O 0.23861 0.14918 0.23989 0.0
O110 O 0.17639 0.07591 0.18567 0.0
O111 O 0.20981 0.09949 0.2207 0.0
Co112 Co 0.58503 0.36124 0.93218 0.0
O113 O 0.56193 0.32441 0.95193 0.0
O114 O 0.56272 0.33215 0.8966 0.0
C115 C 0.62712 0.35693 0.96512 0.0
O116 O 0.60579 0.39626 0.90123 0.0
Co117 Co 0.60742 0.42727 0.97672 0.0
O118 O 0.62524 0.4419 0.93385 0.0
C119 C 0.54605 0.40424 0.9687 0.0
C120 C 0.55142 0.31534 0.92115 0.0
C121 C 0.62069 0.42537 0.90471 0.0
O122 O 0.55134 0.39138 0.93851 0.0
O123 O 0.56614 0.41691 0.98963 0.0
O124 O 0.62116 0.33605 0.93823 0.0
O125 O 0.6065 0.37733 0.97262 0.0
Co126 Co 0.85888 0.34788 0.16352 0.0
O127 O 0.8935 0.33136 0.18705 0.0
O128 O 0.87833 0.31074 0.13602 0.0
C129 C 0.86712 0.40721 0.17497 0.0
O130 O 0.82386 0.35625 0.13046 0.0
Co131 Co 0.81174 0.38958 0.20351 0.0
O132 O 0.79251 0.39172 0.15735 0.0
C133 C 0.82877 0.3196 0.21995 0.0
C134 C 0.89733 0.30931 0.16129 0.0
C135 C 0.80044 0.37406 0.13062 0.0
O136 O 0.83615 0.31357 0.18858 0.0
O137 O 0.82153 0.34956 0.23186 0.0
O138 O 0.87932 0.39035 0.14972 0.0
O139 O 0.85236 0.38748 0.1936 0.0
Co140 Co 0.93775 0.59564 0.40649 0.0
O141 O 0.90371 0.57148 0.42341 0.0
O142 O 0.91855 0.6224 0.44439 0.0
C143 C 0.92927 0.58467 0.34709 0.0
O144 O 0.97231 0.62914 0.39838 0.0
Co145 Co 0.98559 0.55661 0.36468 0.0
O146 O 1.00464 0.60288 0.36376 0.0
C147 C 0.96328 0.53722 0.43127 0.0
C148 C 0.89985 0.5969 0.44583 0.0
C149 C 0.99598 0.6294 0.38116 0.0
O150 O 0.96055 0.56946 0.43928 0.0
O151 O 0.9715 0.52632 0.40141 0.0
O152 O 0.91681 0.60955 0.3643 0.0
O153 O 0.94458 0.56625 0.36652 0.0
Co154 Co 0.83763 0.61688 0.37313 0.0
O155 O 0.87029 0.63972 0.35094 0.0
O156 O 0.85647 0.65467 0.4028 0.0
C157 C 0.85036 0.55988 0.35848 0.0
O158 O 0.80679 0.60284 0.40793 0.0
Co159 Co 0.79003 0.56825 0.33922 0.0
O160 O 0.77621 0.56072 0.38611 0.0
C161 C 0.79452 0.64178 0.32283 0.0
C162 C 0.87481 0.65971 0.37882 0.0
C163 C 0.78558 0.58094 0.41128 0.0
O164 O 0.81057 0.64887 0.35024 0.0
O165 O 0.78627 0.61091 0.31281 0.0
O166 O 0.86178 0.57804 0.38471 0.0
O167 O 0.83183 0.57668 0.34107 0.0
Co168 Co 0.70588 0.32573 0.88867 0.0
O169 O 0.72749 0.30717 0.92722 0.0
O170 O 0.72781 0.36207 0.91705 0.0
C171 C 0.66361 0.29425 0.89294 0.0
O172 O 0.68632 0.35498 0.85149 0.0
Co173 Co 0.68546 0.27809 0.82394 0.0
O174 O 0.6678 0.32015 0.80687 0.0
C175 C 0.74608 0.28674 0.84957 0.0
C176 C 0.73815 0.33801 0.93543 0.0
C177 C 0.67194 0.34997 0.82216 0.0
O178 O 0.74022 0.31748 0.86028 0.0
O179 O 0.72646 0.26536 0.83654 0.0
O180 O 0.66918 0.32216 0.91261 0.0
O181 O 0.68458 0.28509 0.87373 0.0
Co182 Co 0.93219 0.9319 0.88388 0.0
O183 O 0.96505 0.9204 0.85587 0.0
O184 O 0.93824 0.88252 0.88201 0.0
C185 C 0.91402 0.97094 0.84831 0.0
O186 O 0.8964 0.93312 0.91482 0.0
Co187 Co 0.92503 0.00552 0.9168 0.0
O188 O 0.88979 0.98673 0.93798 0.0
C189 C 0.97635 0.96427 0.92761 0.0
C190 C 0.96099 0.88877 0.86407 0.0
C191 C 0.88239 0.9548 0.93429 0.0
O192 O 0.95927 0.93776 0.92434 0.0
O193 O 0.9674 0.99454 0.92271 0.0
O194 O 0.90811 0.93801 0.84221 0.0
O195 O 0.93153 0.97847 0.8741 0.0
Co196 Co 0.87823 0.19841 0.64738 0.0
O197 O 0.90771 0.18428 0.68032 0.0
O198 O 0.87192 0.15084 0.65676 0.0
C199 C 0.90902 0.2298 0.6158 0.0
O200 O 0.84346 0.20005 0.61336 0.0
Co201 Co 0.86006 0.27211 0.63699 0.0
O202 O 0.82731 0.25301 0.60653 0.0
C203 C 0.86028 0.24174 0.70382 0.0
C204 C 0.89353 0.15469 0.67889 0.0
C205 C 0.8249 0.22044 0.60072 0.0
O206 O 0.8545 0.21283 0.68709 0.0
O207 O 0.86583 0.26916 0.68834 0.0
O208 O 0.90628 0.19635 0.6101 0.0
O209 O 0.89374 0.24263 0.64032 0.0
Co210 Co 0.60029 0.12675 0.40695 0.0
O211 O 0.56498 0.13203 0.37915 0.0
O212 O 0.58601 0.17381 0.41264 0.0
C213 C 0.62275 0.09611 0.36359 0.0
O214 O 0.63728 0.13302 0.4384 0.0
Co215 Co 0.62582 0.0559 0.42259 0.0
O216 O 0.65967 0.08284 0.4434 0.0
C217 C 0.57096 0.07929 0.45288 0.0
C218 C 0.56487 0.16402 0.39099 0.0
C219 C 0.65864 0.11538 0.44954 0.0
O220 O 0.5765 0.1109 0.44627 0.0
O221 O 0.58602 0.05393 0.4418 0.0
O222 O 0.62374 0.12962 0.36523 0.0
O223 O 0.60875 0.08282 0.38774 0.0
Co224 Co 0.69642 0.87964 0.14319 0.0
O225 O 0.73355 0.90193 0.13428 0.0
O226 O 0.70722 0.86985 0.09553 0.0
C227 C 0.67898 0.92649 0.17329 0.0
O228 O 0.65674 0.85297 0.14075 0.0
Co229 Co 0.67291 0.86988 0.21662 0.0
O230 O 0.63683 0.85076 0.19274 0.0
C231 C 0.72292 0.83093 0.19062 0.0
C232 C 0.73052 0.88887 0.1027 0.0
C233 C 0.63584 0.84392 0.1602 0.0
O234 O 0.71684 0.83764 0.15912 0.0
O235 O 0.71035 0.84492 0.21668 0.0
O236 O 0.67751 0.92468 0.13968 0.0
O237 O 0.69133 0.90123 0.18685 0.0
Co238 Co 0.88402 0.13532 0.5388 0.0
O239 O 0.85598 0.1008 0.55417 0.0
O240 O 0.8913 0.12608 0.58664 0.0
C241 C 0.85002 0.16426 0.50762 0.0
O242 O 0.91847 0.17038 0.53677 0.0
Co243 Co 0.90004 0.14977 0.46549 0.0
O244 O 0.93256 0.18103 0.48384 0.0
C245 C 0.90948 0.08235 0.49367 0.0
C246 C 0.87053 0.10284 0.58358 0.0
C247 C 0.93634 0.18455 0.51644 0.0
O248 O 0.90934 0.09699 0.52416 0.0
O249 O 0.90338 0.09827 0.46663 0.0
O250 O 0.85422 0.17132 0.54075 0.0
O251 O 0.86696 0.14145 0.49462 0.0
Co252 Co 0.63191 0.20796 0.32321 0.0
O253 O 0.66519 0.18001 0.33303 0.0
O254 O 0.64258 0.21105 0.3727 0.0
C255 C 0.61028 0.16809 0.2835 0.0
O256 O 0.59672 0.2402 0.32277 0.0
Co257 Co 0.62194 0.23239 0.24889 0.0
O258 O 0.58826 0.25624 0.26866 0.0
C259 C 0.67546 0.24461 0.29067 0.0
C260 C 0.66451 0.1918 0.36497 0.0
C261 C 0.58217 0.25705 0.30053 0.0
O262 O 0.65928 0.24708 0.31675 0.0
O263 O 0.6649 0.23582 0.26045 0.0
O264 O 0.60602 0.16612 0.31635 0.0
O265 O 0.62755 0.193 0.27665 0.0
Co266 Co 0.599 0.91806 0.07504 0.0
O267 O 0.56245 0.90863 0.09613 0.0
O268 O 0.58973 0.86815 0.07331 0.0
C269 C 0.61317 0.96051 0.11588 0.0
O270 O 0.63884 0.92024 0.05057 0.0
Co271 Co 0.60718 0.99215 0.04815 0.0
O272 O 0.64546 0.97484 0.03437 0.0
C273 C 0.55927 0.94348 0.02796 0.0
C274 C 0.56521 0.87632 0.08731 0.0
C275 C 0.65405 0.944 0.0363 0.0
O276 O 0.57798 0.92015 0.03014 0.0
O277 O 0.566 0.97509 0.03666 0.0
O278 O 0.6173 0.92823 0.12169 0.0
O279 O 0.59961 0.96496 0.08734 0.0
Co280 Co 0.8364 0.90118 0.81677 0.0
O281 O 0.8059 0.9305 0.83482 0.0
O282 O 0.83741 0.90408 0.86702 0.0
C283 C 0.84927 0.93543 0.7728 0.0
O284 O 0.87088 0.86816 0.80992 0.0
Co285 Co 0.83361 0.86633 0.74342 0.0
O286 O 0.86946 0.84216 0.7566 0.0
C287 C 0.78912 0.85438 0.79408 0.0
C288 C 0.81406 0.92205 0.86542 0.0
C289 C 0.88092 0.84631 0.78694 0.0
O290 O 0.80866 0.86139 0.81766 0.0
O291 O 0.79371 0.8585 0.76222 0.0
O292 O 0.85991 0.94177 0.80406 0.0
O293 O 0.83068 0.91016 0.7697 0.0
Co294 Co 0.42813 0.62144 0.08029 0.0
O295 O 0.40197 0.58325 0.0888 0.0
O296 O 0.43234 0.60907 0.12787 0.0
C297 C 0.3946 0.64943 0.04949 0.0
O298 O 0.45873 0.66183 0.08285 0.0
Co299 Co 0.44594 0.63915 0.0074 0.0
O300 O 0.47308 0.6743 0.03015 0.0
C301 C 0.45248 0.57142 0.03539 0.0
C302 C 0.41298 0.58464 0.12005 0.0
C303 C 0.475 0.67897 0.06289 0.0
O304 O 0.45696 0.58738 0.06499 0.0
O305 O 0.44537 0.58746 0.00877 0.0
O306 O 0.39582 0.65262 0.08316 0.0
O307 O 0.41301 0.6289 0.03582 0.0
Co308 Co 0.18432 0.69403 0.85811 0.0
O309 O 0.21662 0.66606 0.87006 0.0
O310 O 0.1982 0.70639 0.90511 0.0
C311 C 0.1579 0.65124 0.83045 0.0
O312 O 0.1498 0.72676 0.85387 0.0
Co313 Co 0.17108 0.70267 0.77965 0.0
O314 O 0.13843 0.73016 0.7972 0.0
C315 C 0.22696 0.71835 0.81503 0.0
C316 C 0.21804 0.68356 0.89956 0.0
C317 C 0.13382 0.73773 0.82901 0.0
O318 O 0.21226 0.72806 0.84106 0.0
O319 O 0.21455 0.70482 0.78733 0.0
O320 O 0.15733 0.6551 0.86394 0.0
O321 O 0.17587 0.67102 0.816 0.0
Co322 Co 0.1082 0.43586 0.57327 0.0
O323 O 0.07362 0.42334 0.59726 0.0
O324 O 0.10294 0.38583 0.57244 0.0
C325 C 0.1216 0.47868 0.61416 0.0
O326 O 0.14636 0.4385 0.54585 0.0
Co327 Co 0.1155 0.50728 0.54523 0.0
O328 O 0.15177 0.49077 0.52475 0.0
C329 C 0.06593 0.45987 0.5295 0.0
C330 C 0.07905 0.39149 0.58873 0.0
C331 C 0.1603 0.46014 0.52772 0.0
O332 O 0.0844 0.43618 0.53031 0.0
O333 O 0.07353 0.49135 0.53754 0.0
O334 O 0.12851 0.44679 0.61747 0.0
O335 O 0.10647 0.48356 0.58661 0.0
Co336 Co 0.17866 0.34526 0.62637 0.0
O337 O 0.21539 0.37129 0.62647 0.0
O338 O 0.19512 0.34343 0.58041 0.0
C339 C 0.15789 0.38849 0.6584 0.0
O340 O 0.13986 0.3171 0.61399 0.0
Co341 Co 0.14737 0.32544 0.69183 0.0
O342 O 0.11438 0.30883 0.66131 0.0
C343 C 0.20159 0.29174 0.67069 0.0
C344 C 0.21608 0.36368 0.59355 0.0
C345 C 0.11694 0.30548 0.62875 0.0
O346 O 0.19959 0.30288 0.64013 0.0
O347 O 0.1847 0.30058 0.69505 0.0
O348 O 0.15909 0.38919 0.62501 0.0
O349 O 0.16874 0.36184 0.67121 0.0
Co350 Co 0.33898 0.71097 0.11343 0.0
O351 O 0.36615 0.70025 0.15071 0.0
O352 O 0.33504 0.66279 0.12434 0.0
C353 C 0.37289 0.74396 0.08627 0.0
O354 O 0.30654 0.70824 0.0749 0.0
Co355 Co 0.31864 0.78174 0.09648 0.0
O356 O 0.28827 0.75951 0.06474 0.0
C357 C 0.31545 0.75446 0.16478 0.0
C358 C 0.35455 0.66921 0.14882 0.0
C359 C 0.28746 0.72679 0.06013 0.0
O360 O 0.31101 0.72491 0.14882 0.0
O361 O 0.32112 0.78123 0.14832 0.0
O362 O 0.37057 0.71073 0.08075 0.0
O363 O 0.35394 0.75657 0.10693 0.0
Co364 Co 0.60197 0.57769 0.63503 0.0
O365 O 0.63437 0.55257 0.61549 0.0
O366 O 0.63006 0.60864 0.61481 0.0
C367 C 0.60199 0.54563 0.68327 0.0
O368 O 0.57161 0.61452 0.65097 0.0
Co369 Co 0.5439 0.54349 0.64992 0.0
O370 O 0.5289 0.58964 0.66338 0.0
C371 C 0.56744 0.54295 0.58033 0.0
C372 C 0.64465 0.58159 0.60552 0.0
C373 C 0.54466 0.61655 0.65997 0.0
O374 O 0.58142 0.57086 0.58984 0.0
O375 O 0.55317 0.52557 0.60151 0.0
O376 O 0.61868 0.57317 0.68179 0.0
O377 O 0.58558 0.539 0.65616 0.0
Co378 Co 0.95682 0.38435 0.13604 0.0
O379 O 0.92306 0.40614 0.11554 0.0
O380 O 0.93656 0.35422 0.09966 0.0
C381 C 0.94695 0.39894 0.19386 0.0
O382 O 0.98906 0.35053 0.14883 0.0
Co383 Co 1.00597 0.4218 0.17894 0.0
O384 O 0.02129 0.37569 0.18748 0.0
C385 C 0.99517 0.43661 0.10606 0.0
C386 C 0.918 0.3783 0.0957 0.0
C387 C 1.01147 0.34912 0.16954 0.0
O388 O 0.98136 0.40732 0.10142 0.0
O389 O 1.00476 0.44837 0.13593 0.0
O390 O 0.93501 0.37233 0.17666 0.0
O391 O 0.9638 0.41694 0.1754 0.0
Co392 Co 0.70053 0.61367 0.68272 0.0
O393 O 0.66902 0.63395 0.70946 0.0
O394 O 0.67435 0.63982 0.65427 0.0
C395 C 0.69686 0.56237 0.70989 0.0
O396 O 0.72972 0.59877 0.644 0.0
Co397 Co 0.75757 0.58908 0.71304 0.0
O398 O 0.7717 0.58004 0.66574 0.0
C399 C 0.73561 0.65882 0.72595 0.0
C400 C 0.65971 0.6475 0.68164 0.0
C401 C 0.75598 0.5878 0.64006 0.0
O402 O 0.72454 0.65545 0.69534 0.0
O403 O 0.74842 0.63386 0.73944 0.0
O404 O 0.68046 0.5681 0.68295 0.0
O405 O 0.71549 0.58691 0.7184 0.0
Co406 Co 0.39764 0.47196 0.38046 0.0
O407 O 0.43126 0.46297 0.35212 0.0
O408 O 0.40827 0.424 0.38102 0.0
C409 C 0.37521 0.50758 0.34291 0.0
O410 O 0.3633 0.46829 0.4128 0.0
Co411 Co 0.38262 0.5431 0.41229 0.0
O412 O 0.35345 0.51908 0.43993 0.0
C413 C 0.43875 0.51173 0.4222 0.0
C414 C 0.42992 0.43154 0.36194 0.0
C415 C 0.34956 0.48646 0.43567 0.0
O416 O 0.42454 0.48301 0.42014 0.0
O417 O 0.42632 0.54009 0.417 0.0
O418 O 0.37181 0.47414 0.33874 0.0
O419 O 0.39183 0.51788 0.36893 0.0
Co420 Co 0.06345 0.62925 0.86467 0.0
O421 O 0.02738 0.63672 0.83851 0.0
O422 O 0.04893 0.67565 0.87472 0.0
C423 C 0.08679 0.60302 0.81829 0.0
O424 O 0.10087 0.63424 0.89614 0.0
Co425 Co 0.09123 0.55833 0.87387 0.0
O426 O 0.12265 0.58384 0.90182 0.0
C427 C 0.0381 0.57718 0.91052 0.0
C428 C 0.02766 0.66798 0.85265 0.0
C429 C 0.1213 0.6162 0.90909 0.0
O430 O 0.04131 0.60929 0.90389 0.0
O431 O 0.05317 0.55313 0.8967 0.0
O432 O 0.08579 0.63655 0.82259 0.0
O433 O 0.07313 0.5871 0.84111 0.0
Co434 Co 0.35416 0.36993 0.32881 0.0
O435 O 0.32177 0.40038 0.33678 0.0
O436 O 0.34588 0.37553 0.37785 0.0
C437 C 0.37516 0.40218 0.28829 0.0
O438 O 0.38912 0.33728 0.3315 0.0
Co439 Co 0.36245 0.3322 0.2576 0.0
O440 O 0.39701 0.31177 0.27915 0.0
C441 C 0.30932 0.32758 0.29681 0.0
C442 C 0.32399 0.39399 0.36912 0.0
C443 C 0.40363 0.31673 0.31124 0.0
O444 O 0.32571 0.3308 0.32394 0.0
O445 O 0.31951 0.33011 0.26673 0.0
O446 O 0.3803 0.40934 0.32106 0.0
O447 O 0.35697 0.37689 0.28149 0.0
H448 H 0.05774 0.96071 0.08539 0.0
H449 H 1.00269 0.9069 0.95055 0.0
H450 H 0.09221 0.05018 0.03832 0.0
H451 H 0.02136 0.00994 0.92037 0.0
H452 H 0.05077 0.90661 0.9785 0.0
H453 H 0.06191 0.92715 0.03156 0.0
C454 C 0.06611 0.97336 0.0635 0.0
C455 C 0.07199 0.00901 0.06524 0.0
C456 C 0.04444 0.92934 0.96575 0.0
C457 C 0.07627 0.97088 1.00289 0.0
C458 C 0.01693 0.9295 0.94987 0.0
C459 C 1.00711 0.95996 0.93654 0.0
C460 C 0.06092 0.96049 0.9698 0.0
C461 C 0.02719 0.98715 0.93338 0.0
C462 C 0.06907 0.95394 0.03261 0.0
C463 C 0.08517 0.0233 0.03718 0.0
N464 N 0.05304 0.98715 0.95075 0.0
N465 N 0.08614 1.00436 0.00673 0.0
H466 H 0.32002 0.70082 0.20703 0.0
H467 H 0.27533 0.72769 0.35519 0.0
H468 H 0.32944 0.81172 0.2068 0.0
H469 H 0.29661 0.83563 0.34821 0.0
H470 H 0.31664 0.71311 0.32075 0.0
H471 H 0.33093 0.70454 0.26848 0.0
C472 C 0.32398 0.72606 0.22005 0.0
C473 C 0.32198 0.75619 0.20212 0.0
C474 C 0.31285 0.74009 0.32684 0.0
C475 C 0.33375 0.76095 0.27309 0.0
C476 C 0.2892 0.74835 0.34682 0.0
C477 C 0.28131 0.78282 0.35162 0.0
C478 C 0.32687 0.76657 0.30992 0.0
C479 C 0.30095 0.80861 0.34279 0.0
C480 C 0.33051 0.72824 0.25536 0.0
C481 C 0.32916 0.78791 0.21989 0.0
N482 N 0.32248 0.79998 0.3211 0.0
N483 N 0.33411 0.78949 0.25446 0.0
H484 H 0.53231 0.99291 0.63748 0.0
H485 H 0.52581 0.03416 0.44024 0.0
H486 H 0.48748 0.92714 0.55795 0.0
H487 H 0.56764 0.10105 0.52054 0.0
H488 H 0.5034 1.00063 0.48404 0.0
H489 H 0.53954 0.03645 0.59617 0.0
C490 C 0.52409 0.98743 0.61123 0.0
C491 C 0.50955 0.95593 0.60115 0.0
C492 C 0.51676 0.02322 0.49222 0.0
C493 C 0.51759 0.00635 0.55354 0.0
C494 C 0.52915 0.04268 0.46722 0.0
C495 C 0.54848 0.07034 0.47696 0.0
C496 C 0.52425 0.03118 0.52714 0.0
C497 C 0.55262 0.08007 0.51209 0.0
C498 C 0.52803 0.01259 0.58769 0.0
C499 C 0.49916 0.95076 0.56682 0.0
N500 N 0.54112 0.05998 0.53602 0.0
N501 N 0.50355 0.97564 0.54419 0.0
H502 H 0.31259 0.19904 0.81979 0.0
H503 H 0.25352 0.30932 0.70164 0.0
H504 H 0.24335 0.12851 0.78137 0.0
H505 H 0.199 0.22192 0.66576 0.0
H506 H 0.28005 0.27295 0.73969 0.0
H507 H 0.2997 0.23765 0.77487 0.0
C508 C 0.29435 0.192 0.80229 0.0
C509 C 0.27892 0.1606 0.80461 0.0
C510 C 0.26306 0.26109 0.72284 0.0
C511 C 0.26401 0.20449 0.75256 0.0
C512 C 0.2482 0.2819 0.70057 0.0
C513 C 0.22447 0.26834 0.68017 0.0
C514 C 0.25371 0.22651 0.72495 0.0
C515 C 0.21759 0.23311 0.68059 0.0
C516 C 0.28705 0.21398 0.77629 0.0
C517 C 0.2559 0.15243 0.78072 0.0
N518 N 0.23184 0.21354 0.70305 0.0
N519 N 0.24923 0.17414 0.75587 0.0
H520 H 0.02194 0.93191 0.52734 0.0
H521 H 0.91068 0.03536 0.54309 0.0
H522 H 1.00167 0.91848 0.41806 0.0
H523 H 0.92446 0.04603 0.43469 0.0
H524 H 0.93047 0.97779 0.5376 0.0
H525 H 0.9754 0.95768 0.53611 0.0
C526 C 1.00728 0.93379 0.50524 0.0
C527 C 0.01601 0.92462 0.47178 0.0
C528 C 0.92926 0.99274 0.51504 0.0
C529 C 0.96237 0.95379 0.48145 0.0
C530 C 0.91799 0.0256 0.51815 0.0
C531 C 0.91747 0.04609 0.48968 0.0
C532 C 0.94087 0.98102 0.48353 0.0
C533 C 0.9256 0.03157 0.45761 0.0
C534 C 0.98033 0.94805 0.51028 0.0
C535 C 0.99597 0.92631 0.44418 0.0
N536 N 0.93766 1.00015 0.45558 0.0
N537 N 0.97031 0.94178 0.44949 0.0
H538 H 0.35108 0.82881 0.78905 0.0
H539 H 0.26329 0.75586 0.86146 0.0
H540 H 0.3388 0.74853 0.70781 0.0
H541 H 0.26275 0.67392 0.78137 0.0
H542 H 0.3157 0.76171 0.85787 0.0
H543 H 0.35171 0.78529 0.83129 0.0
C544 C 0.34823 0.80189 0.78016 0.0
C545 C 0.34151 0.7922 0.74538 0.0
C546 C 0.30444 0.74217 0.84105 0.0
C547 C 0.33998 0.74291 0.79351 0.0
C548 C 0.27433 0.73913 0.84303 0.0
C549 C 0.25865 0.71711 0.81892 0.0
C550 C 0.3182 0.72445 0.81344 0.0
C551 C 0.27398 0.69375 0.79796 0.0
C552 C 0.34878 0.77693 0.8043 0.0
C553 C 0.3413 0.75714 0.73482 0.0
N554 N 0.303 0.69844 0.7952 0.0
N555 N 0.33964 0.73355 0.75901 0.0
H556 H 0.4355 0.97379 0.92397 0.0
H557 H 0.52721 0.90183 0.98064 0.0
H558 H 0.45761 0.04464 0.01118 0.0
H559 H 0.52221 0.95763 0.07942 0.0
H560 H 0.47444 0.9009 0.9751 0.0
H561 H 0.43259 0.92672 0.96249 0.0
C562 C 0.43973 0.97939 0.95138 0.0
C563 C 0.44994 0.01223 0.96429 0.0
C564 C 0.48452 0.91276 0.99857 0.0
C565 C 0.44854 0.95857 0.00749 0.0
C566 C 0.5148 0.91348 1.00135 0.0
C567 C 0.52861 0.93304 0.02871 0.0
C568 C 0.46892 0.93403 0.02203 0.0
C569 C 0.51196 0.94519 0.05627 0.0
C570 C 0.43774 0.95258 0.9734 0.0
C571 C 0.45216 0.01895 0.99998 0.0
N572 N 0.48271 0.94588 0.05212 0.0
N573 N 0.45232 0.99196 0.0205 0.0
H574 H 0.2796 0.30581 0.3523 0.0
H575 H 0.22187 0.18058 0.29438 0.0
H576 H 0.26649 0.34354 0.25121 0.0
H577 H 0.20014 0.23043 0.20137 0.0
H578 H 0.21311 0.23346 0.32797 0.0
H579 H 0.22942 0.28391 0.34991 0.0
C580 C 0.26612 0.30937 0.32954 0.0
C581 C 0.27789 0.32274 0.30015 0.0
C582 C 0.21006 0.2333 0.30027 0.0
C583 C 0.22175 0.29589 0.29629 0.0
C584 C 0.21557 0.20298 0.28097 0.0
C585 C 0.2148 0.20241 0.24485 0.0
C586 C 0.20608 0.26373 0.28304 0.0
C587 C 0.20356 0.23082 0.2291 0.0
C588 C 0.23739 0.29695 0.32813 0.0
C589 C 0.25893 0.32997 0.27291 0.0
N590 N 0.20037 0.26081 0.24828 0.0
N591 N 0.23176 0.31577 0.27127 0.0
H592 H 0.47023 0.52664 0.08303 0.0
H593 H 0.52721 0.39101 0.03213 0.0
H594 H 0.42655 0.53006 0.98355 0.0
H595 H 0.49668 0.41657 0.93128 0.0
H596 H 0.48224 0.41162 0.05632 0.0
H597 H 0.47238 0.46457 0.0741 0.0
C598 C 0.46097 0.51418 0.05932 0.0
C599 C 0.45036 0.53359 0.0328 0.0
C600 C 0.48513 0.41269 0.02888 0.0
C601 C 0.45236 0.46229 0.02212 0.0
C602 C 0.51074 0.40074 0.01507 0.0
C603 C 0.51624 0.40488 0.98028 0.0
C604 C 0.46644 0.43104 0.00798 0.0
C605 C 0.49376 0.41504 0.95871 0.0
C606 C 0.46171 0.4784 0.05429 0.0
C607 C 0.43689 0.51616 1.00363 0.0
N608 N 0.47003 0.42904 0.97316 0.0
N609 N 0.43887 0.48154 0.99871 0.0
H610 H 0.81756 0.25126 0.20129 0.0
H611 H 0.70704 0.19064 0.26812 0.0
H612 H 0.83224 0.3224 0.29018 0.0
H613 H 0.71369 0.28666 0.33 0.0
H614 H 0.75987 0.18775 0.2695 0.0
H615 H 0.79218 0.21217 0.23686 0.0
C616 C 0.81625 0.25809 0.22867 0.0
C617 C 0.82483 0.29102 0.24244 0.0
C618 C 0.74995 0.20954 0.28276 0.0
C619 C 0.79509 0.24716 0.28333 0.0
C620 C 0.71985 0.21126 0.28184 0.0
C621 C 0.70651 0.2403 0.2968 0.0
C622 C 0.76653 0.23807 0.29702 0.0
C623 C 0.7235 0.2649 0.3165 0.0
C624 C 0.80171 0.23563 0.24933 0.0
C625 C 0.82395 0.29801 0.27824 0.0
N626 N 0.75286 0.26384 0.31512 0.0
N627 N 0.80831 0.27672 0.29739 0.0
H628 H 0.03577 0.40732 0.49235 0.0
H629 H 0.94686 0.54781 0.49872 0.0
H630 H 0.0268 0.48605 0.57408 0.0
H631 H 0.95307 0.46801 0.4172 0.0
H632 H 0.94437 0.50341 0.54031 0.0
H633 H 0.98278 0.40196 0.4862 0.0
C634 C 0.02254 0.4233 0.50912 0.0
C635 C 0.03515 0.44997 0.53089 0.0
C636 C 0.94565 0.49543 0.51316 0.0
C637 C 0.97542 0.44503 0.5233 0.0
C638 C 0.9477 0.52094 0.48955 0.0
C639 C 0.95389 0.51156 0.45521 0.0
C640 C 0.95278 0.4614 0.50244 0.0
C641 C 0.95173 0.47645 0.4442 0.0
C642 C 0.99231 0.41985 0.5062 0.0
C643 C 0.01751 0.46779 0.55427 0.0
N644 N 0.95198 0.4524 0.46795 0.0
N645 N 0.9883 0.46543 0.54954 0.0
H646 H 0.76093 0.63637 0.26332 0.0
H647 H 0.76894 0.83739 0.23531 0.0
H648 H 0.81103 0.71068 0.32979 0.0
H649 H 0.72103 0.76319 0.16706 0.0
H650 H 0.79083 0.79029 0.26466 0.0
H651 H 0.75047 0.68137 0.22434 0.0
C652 C 0.76967 0.66219 0.26989 0.0
C653 C 0.7867 0.66973 0.30023 0.0
C654 C 0.7761 0.78415 0.24276 0.0
C655 C 0.77495 0.7215 0.25512 0.0
C656 C 0.76393 0.81103 0.22571 0.0
C657 C 0.74333 0.804 0.19871 0.0
C658 C 0.76714 0.74999 0.23313 0.0
C659 C 0.73711 0.76956 0.18753 0.0
C660 C 0.76383 0.68786 0.24737 0.0
C661 C 0.79756 0.70368 0.30699 0.0
N662 N 0.74856 0.74373 0.20526 0.0
N663 N 0.79139 0.72832 0.28468 0.0
H664 H 0.85775 0.18791 0.74621 0.0
H665 H 0.7645 0.22073 0.84921 0.0
H666 H 0.87007 0.29855 0.74816 0.0
H667 H 0.79605 0.32644 0.86105 0.0
H668 H 0.81332 0.20237 0.83944 0.0
H669 H 0.85121 0.19243 0.80823 0.0
C670 C 0.85881 0.21322 0.75969 0.0
C671 C 0.86168 0.24326 0.74169 0.0
C672 C 0.8101 0.22964 0.84459 0.0
C673 C 0.85274 0.24876 0.81203 0.0
C674 C 0.7819 0.24012 0.84978 0.0
C675 C 0.77606 0.27534 0.85253 0.0
C676 C 0.83196 0.25481 0.83987 0.0
C677 C 0.79948 0.29912 0.85624 0.0
C678 C 0.8552 0.21584 0.79522 0.0
C679 C 0.86559 0.27495 0.7607 0.0
N680 N 0.82648 0.2885 0.84869 0.0
N681 N 0.86018 0.277 0.79479 0.0
H682 H 0.77882 0.81783 0.85076 0.0
H683 H 0.69677 0.7084 0.71165 0.0
H684 H 0.737 0.85214 0.75874 0.0
H685 H 0.75386 0.67542 0.79265 0.0
H686 H 0.68632 0.75968 0.74785 0.0
H687 H 0.74251 0.77105 0.85129 0.0
C688 C 0.76143 0.81618 0.83128 0.0
C689 C 0.76214 0.83666 0.80286 0.0
C690 C 0.70067 0.74086 0.758 0.0
C691 C 0.72153 0.78332 0.80292 0.0
C692 C 0.70716 0.71192 0.73705 0.0
C693 C 0.72773 0.68878 0.74835 0.0
C694 C 0.71577 0.74734 0.78977 0.0
C695 C 0.73912 0.69361 0.78219 0.0
C696 C 0.74055 0.78963 0.83174 0.0
C697 C 0.73833 0.83492 0.77957 0.0
N698 N 0.73357 0.72286 0.80141 0.0
N699 N 0.71927 0.8078 0.77946 0.0
H700 H 0.47262 0.45546 0.427 0.0
H701 H 0.58124 0.58057 0.52559 0.0
H702 H 0.47745 0.56665 0.42631 0.0
H703 H 0.55434 0.47835 0.55163 0.0
H704 H 0.56739 0.56511 0.46537 0.0
H705 H 0.52364 0.45589 0.44532 0.0
C706 C 0.48446 0.47999 0.43042 0.0
C707 C 0.47037 0.51135 0.4277 0.0
C708 C 0.56555 0.54568 0.48409 0.0
C709 C 0.5285 0.51175 0.44813 0.0
C710 C 0.57303 0.5546 0.51851 0.0
C711 C 0.56671 0.53142 0.54371 0.0
C712 C 0.55121 0.51382 0.47548 0.0
C713 C 0.5576 0.49768 0.5331 0.0
C714 C 0.51372 0.4801 0.44015 0.0
C715 C 0.48711 0.54206 0.43026 0.0
N716 N 0.54939 0.49007 0.49972 0.0
N717 N 0.51524 0.54159 0.44128 0.0
H718 H 0.03839 0.60391 0.97732 0.0
H719 H 0.97491 0.4243 0.0388 0.0
H720 H 0.99932 0.52335 0.90837 0.0
H721 H 0.0214 0.50096 0.10625 0.0
H722 H 0.9776 0.46356 0.99205 0.0
H723 H 0.02398 0.57135 0.02656 0.0
C724 C 0.02559 0.58016 0.97261 0.0
C725 C 0.01989 0.56635 0.93879 0.0
C726 C 0.98718 0.47179 0.01711 0.0
C727 C 1.00446 0.52825 0.99472 0.0
C728 C 0.98587 0.44923 0.04378 0.0
C729 C 0.99824 0.45902 0.07655 0.0
C730 C 1.00089 0.50453 0.02313 0.0
C731 C 1.01176 0.492 0.08143 0.0
C732 C 0.01788 0.5612 1.00067 0.0
C733 C 1.00399 0.53494 0.9341 0.0
N734 N 1.01277 0.51344 0.05508 0.0
N735 N 0.99722 0.51673 0.96167 0.0
H736 H 0.07261 0.01463 0.24682 0.0
H737 H 0.20576 0.89479 0.29361 0.0
H738 H 0.1497 0.00836 0.18718 0.0
H739 H 0.11999 0.87614 0.33061 0.0
H740 H 0.18611 0.93806 0.25636 0.0
H741 H 0.08909 0.96551 0.27899 0.0
C742 C 0.09324 1.00331 0.24089 0.0
C743 C 0.11059 0.017 0.21557 0.0
C744 C 0.17153 0.92478 0.27278 0.0
C745 C 0.12944 0.96005 0.25184 0.0
C746 C 0.18287 0.9004 0.29449 0.0
C747 C 0.16475 0.88269 0.31634 0.0
C748 C 0.14173 0.93214 0.27304 0.0
C749 C 0.13496 0.88996 0.31508 0.0
C750 C 0.10252 0.97499 0.25901 0.0
C751 C 0.13635 0.99991 0.20771 0.0
N752 N 0.1245 0.91436 0.29431 0.0
N753 N 0.14519 0.97294 0.22604 0.0
H754 H 0.38568 0.92295 0.58748 0.0
H755 H 0.27775 0.78957 0.47464 0.0
H756 H 0.40405 0.81567 0.56642 0.0
H757 H 0.26842 0.89972 0.47629 0.0
H758 H 0.32166 0.79846 0.51173 0.0
H759 H 0.34144 0.91498 0.55045 0.0
C760 C 0.38065 0.89773 0.57488 0.0
C761 C 0.39905 0.86999 0.58034 0.0
C762 C 0.31007 0.82077 0.5041 0.0
C763 C 0.34758 0.86053 0.53762 0.0
C764 C 0.28472 0.81571 0.48296 0.0
C765 C 0.26894 0.84388 0.47207 0.0
C766 C 0.32009 0.85437 0.51511 0.0
C767 C 0.27961 0.8771 0.48382 0.0
C768 C 0.3552 0.89319 0.55371 0.0
C769 C 0.39089 0.83795 0.56316 0.0
N770 N 0.30425 0.88136 0.50464 0.0
N771 N 0.36592 0.83412 0.54298 0.0
H772 H 0.32207 0.00744 0.81609 0.0
H773 H 0.39743 0.87068 0.73707 0.0
H774 H 0.39864 0.02466 0.88155 0.0
H775 H 0.46737 0.94653 0.75025 0.0
H776 H 0.37059 0.90292 0.78138 0.0
H777 H 0.34539 0.95831 0.78656 0.0
C778 C 0.34387 1.00115 0.82424 0.0
C779 C 0.35877 0.0216 0.85064 0.0
C780 C 0.39197 0.9123 0.77491 0.0
C781 C 0.38676 0.96676 0.81447 0.0
C782 C 0.4074 0.89387 0.7493 0.0
C783 C 0.43429 0.90656 0.73823 0.0
C784 C 0.404 0.94308 0.79104 0.0
C785 C 0.44643 0.93602 0.75693 0.0
C786 C 0.35735 0.97316 0.80706 0.0
C787 C 0.38675 0.01115 0.86035 0.0
N788 N 0.43128 0.95313 0.78223 0.0
N789 N 0.40027 0.98567 0.84142 0.0
H790 H 0.25887 0.02088 0.94941 0.0
H791 H 0.16418 0.13311 0.08192 0.0
H792 H 0.26965 0.13145 0.96356 0.0
H793 H 0.17165 0.02292 0.08467 0.0
H794 H 0.20256 0.13367 0.03935 0.0
H795 H 0.22741 0.02145 0.99913 0.0
C796 C 0.25486 0.04533 0.96319 0.0
C797 C 0.26705 0.07617 0.95205 0.0
C798 C 0.19598 0.10939 0.04946 0.0
C799 C 0.22999 0.07712 0.00902 0.0
C800 C 0.17404 0.10903 0.07392 0.0
C801 C 0.16451 0.0779 0.08722 0.0
C802 C 0.20833 0.07831 0.03746 0.0
C803 C 0.17814 0.04758 0.07537 0.0
C804 C 0.23679 0.04563 0.99167 0.0
C805 C 0.26094 0.107 0.97117 0.0
N806 N 0.199 0.04852 0.05109 0.0
N807 N 0.24252 0.10675 0.99824 0.0
H808 H 0.14552 0.0829 0.25263 0.0
H809 H 0.17963 0.93815 0.38665 0.0
H810 H 0.22014 0.01916 0.24305 0.0
H811 H 0.09351 0.97281 0.36483 0.0
H812 H 0.19845 0.97469 0.34201 0.0
H813 H 0.1302 0.05091 0.30192 0.0
C814 C 0.15849 0.06179 0.26061 0.0
C815 C 0.18328 0.05244 0.24237 0.0
C816 C 0.17543 0.97427 0.34694 0.0
C817 C 0.16662 0.01662 0.3003 0.0
C818 C 0.16463 0.95309 0.37211 0.0
C819 C 0.13474 0.95128 0.37851 0.0
C820 C 0.15638 0.99482 0.32868 0.0
C821 C 0.1165 0.97235 0.35988 0.0
C822 C 0.1499 0.04379 0.28907 0.0
C823 C 0.20019 0.02625 0.25535 0.0
N824 N 0.12757 0.9932 0.33607 0.0
N825 N 0.19148 0.00913 0.28326 0.0
H826 H 0.28493 0.81865 0.58691 0.0
H827 H 0.15778 0.92133 0.49479 0.0
H828 H 0.26848 0.92607 0.61071 0.0
H829 H 0.16112 0.81045 0.48936 0.0
H830 H 0.20244 0.92447 0.53085 0.0
H831 H 0.24424 0.81608 0.54417 0.0
C832 C 0.27323 0.84188 0.58257 0.0
C833 C 0.28016 0.87263 0.60243 0.0
C834 C 0.19356 0.8994 0.52148 0.0
C835 C 0.23354 0.86993 0.55355 0.0
C836 C 0.16799 0.89759 0.50086 0.0
C837 C 0.15581 0.86556 0.48818 0.0
C838 C 0.20715 0.86892 0.52994 0.0
C839 C 0.16999 0.83572 0.49743 0.0
C840 C 0.24981 0.84033 0.55842 0.0
C841 C 0.26392 0.90181 0.596 0.0
N842 N 0.19483 0.83809 0.51759 0.0
N843 N 0.24149 0.89975 0.57224 0.0
H844 H 0.46329 0.04622 0.81109 0.0
H845 H 0.41682 0.94603 0.66666 0.0
H846 H 0.3776 0.08745 0.81318 0.0
H847 H 0.33578 0.94841 0.71892 0.0
H848 H 0.4331 0.99863 0.6999 0.0
H849 H 0.44984 0.01366 0.75686 0.0
C850 C 0.4417 0.04889 0.79993 0.0
C851 C 0.42139 0.06924 0.81745 0.0
C852 C 0.41156 0.98801 0.70378 0.0
C853 C 0.40502 0.02989 0.75596 0.0
C854 C 0.40207 0.95778 0.68445 0.0
C855 C 0.37522 0.9416 0.69067 0.0
C856 C 0.39378 1.00285 0.72915 0.0
C857 C 0.35702 0.95921 0.71382 0.0
C858 C 0.43392 0.03009 0.76885 0.0
C859 C 0.39387 0.07177 0.80127 0.0
N860 N 0.36665 0.98866 0.73223 0.0
N861 N 0.38612 0.05131 0.77234 0.0
H862 H 0.36371 0.04131 0.97102 0.0
H863 H 0.25684 0.14734 0.09644 0.0
H864 H 0.37284 0.15165 0.98951 0.0
H865 H 0.28169 0.04376 0.11408 0.0
H866 H 0.29055 0.14794 0.04815 0.0
H867 H 0.32551 0.04055 0.0139 0.0
C868 C 0.35765 0.06548 0.98391 0.0
C869 C 0.37201 0.09658 0.97659 0.0
C870 C 0.28829 0.12487 0.06224 0.0
C871 C 0.32742 0.09586 0.02591 0.0
C872 C 0.26868 0.12432 0.08956 0.0
C873 C 0.26593 0.09524 0.10929 0.0
C874 C 0.30494 0.09581 0.05372 0.0
C875 C 0.28265 0.06659 0.09949 0.0
C876 C 0.33579 0.06497 0.00856 0.0
C877 C 0.36279 0.12698 0.99434 0.0
N878 N 0.30112 0.06751 0.0725 0.0
N879 N 0.34116 0.12588 0.01788 0.0
H880 H 0.92973 0.29023 0.2172 0.0
H881 H 0.03652 0.16056 0.11637 0.0
H882 H 0.92062 0.26908 0.10714 0.0
H883 H 1.00942 0.1457 0.21963 0.0
H884 H 1.00312 0.20916 0.11358 0.0
H885 H 0.96731 0.24671 0.21934 0.0
C886 C 0.93566 0.27662 0.19335 0.0
C887 C 0.92143 0.28342 0.16196 0.0
C888 C 1.00482 0.1956 0.13704 0.0
C889 C 0.96549 0.23328 0.16427 0.0
C890 C 0.02425 0.16808 0.13886 0.0
C891 C 0.02631 0.14902 0.16852 0.0
C892 C 0.98766 0.20502 0.16541 0.0
C893 C 1.00902 0.1597 0.19639 0.0
C894 C 0.9572 0.2516 0.19466 0.0
C895 C 0.93055 0.2647 0.13203 0.0
N896 N 0.99079 0.18684 0.19425 0.0
N897 N 0.95193 0.24078 0.1339 0.0
H898 H 0.51622 0.28746 0.9692 0.0
H899 H 0.41089 0.17302 0.83368 0.0
H900 H 0.52687 0.28598 0.8593 0.0
H901 H 0.39095 0.19416 0.94047 0.0
H902 H 0.45486 0.21046 0.84257 0.0
H903 H 0.47272 0.2498 0.95941 0.0
C904 C 0.50963 0.27909 0.94294 0.0
C905 C 0.52568 0.29017 0.91512 0.0
C906 C 0.4408 0.20714 0.86404 0.0
C907 C 0.47502 0.24641 0.90355 0.0
C908 C 0.41551 0.18572 0.85896 0.0
C909 C 0.39666 0.18032 0.88624 0.0
C910 C 0.44783 0.22344 0.8968 0.0
C911 C 0.40439 0.19749 0.91845 0.0
C912 C 0.48451 0.2576 0.93735 0.0
C913 C 0.51547 0.27833 0.88169 0.0
N914 N 0.42918 0.2179 0.92279 0.0
N915 N 0.49109 0.25716 0.87692 0.0
H916 H 0.02874 0.65278 0.32983 0.0
H917 H 0.12972 0.77931 0.45527 0.0
H918 H 1.00934 0.67612 0.43649 0.0
H919 H 0.14157 0.76348 0.3459 0.0
H920 H 0.08442 0.74486 0.44901 0.0
H921 H 0.06789 0.6966 0.33484 0.0
C922 C 0.03247 0.66753 0.35426 0.0
C923 C 0.01573 0.66059 0.38281 0.0
C924 C 0.09678 0.74919 0.42631 0.0
C925 C 0.06144 0.71052 0.3891 0.0
C926 C 0.12267 0.76921 0.42984 0.0
C927 C 0.13949 0.77508 0.40102 0.0
C928 C 0.08768 0.7343 0.39372 0.0
C929 C 0.12943 0.75994 0.3689 0.0
C930 C 0.05498 0.69252 0.35716 0.0
C931 C 0.02161 0.68063 0.41378 0.0
N932 N 0.10437 0.74033 0.36616 0.0
N933 N 0.04424 0.7043 0.41625 0.0
H934 H 0.04299 0.32777 0.22473 0.0
H935 H 0.12316 0.17589 0.12091 0.0
H936 H 0.01778 0.29556 0.11963 0.0
H937 H 0.12444 0.18791 0.23205 0.0
H938 H 0.0857 0.21971 0.11882 0.0
H939 H 0.07367 0.27751 0.22715 0.0
C940 C 0.04374 0.31001 0.20214 0.0
C941 C 0.0277 0.31623 0.17187 0.0
C942 C 0.09399 0.21255 0.14366 0.0
C943 C 0.0637 0.25839 0.17427 0.0
C944 C 0.11542 0.18743 0.14491 0.0
C945 C 0.12712 0.17794 0.17674 0.0
C946 C 0.08447 0.22904 0.17444 0.0
C947 C 0.11614 0.19412 0.20689 0.0
C948 C 0.06132 0.28118 0.20358 0.0
C949 C 0.02962 0.29196 0.14355 0.0
N950 N 0.09584 0.21899 0.20497 0.0
N951 N 0.04761 0.26454 0.14525 0.0
H952 H 0.62942 0.67369 0.73698 0.0
H953 H 0.5245 0.7931 0.6286 0.0
H954 H 0.63379 0.67854 0.62667 0.0
H955 H 0.543 0.81034 0.73783 0.0
H956 H 0.55792 0.74453 0.62717 0.0
H957 H 0.5914 0.7167 0.73743 0.0
C958 C 0.62224 0.68346 0.71275 0.0
C959 C 0.63503 0.67216 0.68174 0.0
C960 C 0.55439 0.75872 0.65152 0.0
C961 C 0.59101 0.72186 0.68208 0.0
C962 C 0.53511 0.78635 0.6524 0.0
C963 C 0.53087 0.80614 0.68338 0.0
C964 C 0.56904 0.75 0.68199 0.0
C965 C 0.54556 0.79609 0.71329 0.0
C966 C 0.6005 0.7082 0.71305 0.0
C967 C 0.62464 0.68617 0.65124 0.0
N968 N 0.56377 0.76889 0.71186 0.0
N969 N 0.60335 0.71011 0.65217 0.0
H970 H 0.89449 0.69601 0.43885 0.0
H971 H 0.03157 0.79314 0.35758 0.0
H972 H 0.91586 0.67946 0.33196 0.0
H973 H 0.01804 0.79217 0.46678 0.0
H974 H 0.98896 0.75368 0.34685 0.0
H975 H 0.93814 0.73341 0.44857 0.0
C976 C 0.90815 0.70041 0.41723 0.0
C977 C 0.90096 0.68442 0.38439 0.0
C978 C 0.99529 0.76205 0.37318 0.0
C979 C 0.95184 0.72793 0.39553 0.0
C980 C 0.01978 0.78465 0.37937 0.0
C981 C 0.02878 0.79634 0.41324 0.0
C982 C 0.97902 0.75117 0.40095 0.0
C983 C 1.01229 0.78406 0.44022 0.0
C984 C 0.93334 0.72176 0.4229 0.0
C985 C 0.92012 0.69118 0.3577 0.0
N986 N 0.98838 0.76261 0.43353 0.0
N987 N 0.94438 0.71233 0.36379 0.0
H988 H 0.50975 0.17241 0.94242 0.0
H989 H 0.63131 0.26979 0.8362 0.0
H990 H 0.52185 0.15271 0.83344 0.0
H991 H 0.63283 0.27057 0.94715 0.0
H992 H 0.5866 0.23381 0.8342 0.0
H993 H 0.54976 0.21595 0.94419 0.0
C994 C 0.52034 0.17785 0.91873 0.0
C995 C 0.51247 0.15891 0.88774 0.0
C996 C 0.59654 0.24217 0.85905 0.0
C997 C 0.55829 0.20852 0.88952 0.0
C998 C 0.62208 0.26274 0.86018 0.0
C999 C 0.63556 0.27403 0.89192 0.0
C1000 C 0.58441 0.23234 0.88992 0.0
C1001 C 0.6228 0.26354 0.92216 0.0
C1002 C 0.54338 0.2024 0.9198 0.0
C1003 C 0.52723 0.16669 0.8579 0.0
N1004 N 0.598 0.24342 0.92044 0.0
N1005 N 0.54935 0.19078 0.85953 0.0
H1006 H 0.94445 0.13986 0.71329 0.0
H1007 H 0.95582 0.9928 0.80724 0.0
H1008 H 0.85349 0.11065 0.70347 0.0
H1009 H 0.86634 0.00865 0.83138 0.0
H1010 H 0.95347 0.0387 0.76702 0.0
H1011 H 0.95101 0.09588 0.75541 0.0
C1012 C 0.92595 0.12401 0.71984 0.0
C1013 C 0.89857 0.12835 0.70431 0.0
C1014 C 0.93436 0.03252 0.78123 0.0
C1015 C 0.90573 0.07795 0.7524 0.0
C1016 C 0.93557 0.0059 0.80375 0.0
C1017 C 0.91099 0.99633 0.82178 0.0
C1018 C 0.90839 0.05013 0.77694 0.0
C1019 C 0.88549 0.0146 0.81711 0.0
C1020 C 0.92969 0.0987 0.74368 0.0
C1021 C 0.87513 0.10767 0.71431 0.0
N1022 N 0.88475 0.04043 0.79485 0.0
N1023 N 0.87922 0.0835 0.73773 0.0
H1024 H 0.66304 0.18283 0.47777 0.0
H1025 H 0.81149 0.1519 0.58377 0.0
H1026 H 0.70869 0.08714 0.47326 0.0
H1027 H 0.77869 0.25364 0.57164 0.0
H1028 H 0.77042 0.12723 0.54867 0.0
H1029 H 0.70189 0.20875 0.51671 0.0
C1030 C 0.68114 0.16725 0.48484 0.0
C1031 C 0.68242 0.13265 0.472 0.0
C1032 C 0.77211 0.15496 0.55371 0.0
C1033 C 0.72679 0.16208 0.51708 0.0
C1034 C 0.79574 0.16918 0.57369 0.0
C1035 C 0.79925 0.20513 0.58 0.0
C1036 C 0.7512 0.17662 0.54032 0.0
C1037 C 0.77737 0.22587 0.56697 0.0
C1038 C 0.70327 0.18205 0.50722 0.0
C1039 C 0.70652 0.11384 0.48234 0.0
N1040 N 0.75437 0.21136 0.54775 0.0
N1041 N 0.72756 0.12872 0.50415 0.0
H1042 H 0.64327 0.91644 0.22517 0.0
H1043 H 0.59424 0.03793 0.34037 0.0
H1044 H 0.68819 0.99742 0.17552 0.0
H1045 H 0.66669 0.10365 0.31576 0.0
H1046 H 0.60384 0.9995 0.29137 0.0
H1047 H 0.63024 0.95747 0.27082 0.0
C1048 C 0.64961 0.94329 0.22338 0.0
C1049 C 0.66617 0.9536 0.19604 0.0
C1050 C 0.61854 0.02145 0.297 0.0
C1051 C 0.65059 1.00204 0.24857 0.0
C1052 C 0.61281 0.04383 0.32505 0.0
C1053 C 0.63014 0.07369 0.33288 0.0
C1054 C 0.64265 0.02779 0.27679 0.0
C1055 C 0.65311 0.08057 0.31099 0.0
C1056 C 0.64195 0.96707 0.24952 0.0
C1057 C 0.6746 0.98866 0.19569 0.0
N1058 N 0.65895 0.0575 0.28405 0.0
N1059 N 0.6668 0.01171 0.2217 0.0
H1060 H 0.86122 0.88792 0.94046 0.0
H1061 H 0.7407 0.85097 0.04218 0.0
H1062 H 0.84802 0.99326 0.97761 0.0
H1063 H 0.76961 0.94324 0.10233 0.0
H1064 H 0.77663 0.86357 0.99888 0.0
H1065 H 0.82413 0.8688 0.97978 0.0
C1066 C 0.85036 0.9071 0.95649 0.0
C1067 C 0.85796 0.94235 0.95546 0.0
C1068 C 0.77541 0.88086 0.02171 0.0
C1069 C 0.81523 0.92056 1.00071 0.0
C1070 C 0.75471 0.8738 0.04636 0.0
C1071 C 0.75228 0.89591 0.07614 0.0
C1072 C 0.79343 0.91074 0.02644 0.0
C1073 C 0.77086 0.92528 0.07999 0.0
C1074 C 0.82907 0.89613 0.97896 0.0
C1075 C 0.8431 0.96583 0.97724 0.0
N1076 N 0.79035 0.93199 0.05534 0.0
N1077 N 0.82278 0.95452 0.99901 0.0
H1078 H 0.91121 0.08412 0.63007 0.0
H1079 H 0.80792 0.95391 0.72652 0.0
H1080 H 0.828 0.04121 0.62736 0.0
H1081 H 0.89905 0.96918 0.75214 0.0
H1082 H 0.81286 0.99308 0.67984 0.0
H1083 H 0.90758 0.04232 0.67397 0.0
C1084 C 0.89054 0.07068 0.63262 0.0
C1085 C 0.86668 0.07746 0.61068 0.0
C1086 C 0.83182 0.98809 0.6957 0.0
C1087 C 0.86234 0.02891 0.66222 0.0
C1088 C 0.82905 0.96565 0.72242 0.0
C1089 C 0.85299 0.95897 0.74407 0.0
C1090 C 0.85888 1.00398 0.69007 0.0
C1091 C 0.87982 0.97465 0.7371 0.0
C1092 C 0.88864 0.04652 0.65776 0.0
C1093 C 0.83996 0.05956 0.61365 0.0
N1094 N 0.88203 0.99645 0.71088 0.0
N1095 N 0.83855 0.03601 0.63968 0.0
H1096 H 0.81679 0.22376 0.50789 0.0
H1097 H 0.70136 0.1379 0.36473 0.0
H1098 H 0.82004 0.12005 0.46208 0.0
H1099 H 0.68629 0.23535 0.41947 0.0
H1100 H 0.74601 0.13287 0.39941 0.0
H1101 H 0.77092 0.23123 0.4745 0.0
C1102 C 0.80786 0.20257 0.49105 0.0
C1103 C 0.82231 0.17114 0.48815 0.0
C1104 C 0.733 0.15538 0.4041 0.0
C1105 C 0.7699 0.17945 0.44972 0.0
C1106 C 0.7073 0.15814 0.38434 0.0
C1107 C 0.68969 0.18686 0.38937 0.0
C1108 C 0.7419 0.18188 0.42892 0.0
C1109 C 0.69887 0.21246 0.41503 0.0
C1110 C 0.78175 0.20687 0.47184 0.0
C1111 C 0.80988 0.1448 0.46533 0.0
N1112 N 0.72439 0.20955 0.43357 0.0
N1113 N 0.78462 0.14949 0.44735 0.0
H1114 H 0.64053 0.02217 0.10984 0.0
H1115 H 0.62017 0.16825 0.215 0.0
H1116 H 0.59019 0.96588 0.18038 0.0
H1117 H 0.58695 0.10202 0.29047 0.0
H1118 H 0.62104 0.1195 0.17348 0.0
H1119 H 0.63809 0.07376 0.14813 0.0
C1120 C 0.62914 0.02078 0.13376 0.0
C1121 C 0.61616 0.98962 0.14233 0.0
C1122 C 0.61412 0.11487 0.19915 0.0
C1123 C 0.61078 0.04987 0.1857 0.0
C1124 C 0.61305 0.14321 0.22293 0.0
C1125 C 0.60442 0.13917 0.25685 0.0
C1126 C 0.6069 0.08159 0.20917 0.0
C1127 C 0.59465 0.10617 0.26498 0.0
C1128 C 0.62705 0.05061 0.1555 0.0
C1129 C 0.6011 0.98932 0.17327 0.0
N1130 N 0.59651 0.07857 0.24149 0.0
N1131 N 0.59868 0.019 0.19372 0.0
H1132 H 0.67384 0.88195 0.00594 0.0
H1133 H 0.7894 0.98049 0.89417 0.0
H1134 H 0.69798 0.98974 0.02455 0.0
H1135 H 0.792 0.87062 0.90253 0.0
H1136 H 0.75338 0.98373 0.93973 0.0
H1137 H 0.715 0.87569 0.96674 0.0
C1138 C 0.688 0.90409 1.00244 0.0
C1139 C 0.682 0.93651 0.0185 0.0
C1140 C 0.76195 0.95888 0.93183 0.0
C1141 C 0.72874 0.92975 0.97291 0.0
C1142 C 0.78256 0.95711 0.90583 0.0
C1143 C 0.79411 0.92538 0.89498 0.0
C1144 C 0.75193 0.92853 0.94637 0.0
C1145 C 0.78402 0.89573 0.9106 0.0
C1146 C 0.71135 0.9006 0.97976 0.0
C1147 C 0.70125 0.96428 0.01254 0.0
N1148 N 0.76334 0.89793 0.93513 0.0
N1149 N 0.72326 0.96037 0.99012 0.0
H1150 H 0.97645 0.83618 0.90432 0.0
H1151 H 0.10989 0.78265 0.78631 0.0
H1152 H 0.99876 0.88427 0.81128 0.0
H1153 H 0.10008 0.74459 0.88747 0.0
H1154 H 0.06724 0.81704 0.79458 0.0
H1155 H 0.01919 0.79985 0.89821 0.0
C1156 C 0.98996 0.83853 0.88218 0.0
C1157 C 0.98386 0.86304 0.85803 0.0
C1158 C 0.07432 0.80137 0.81516 0.0
C1159 C 0.03266 0.82144 0.85078 0.0
C1160 C 0.09882 0.78156 0.81047 0.0
C1161 C 0.10883 0.76055 0.83625 0.0
C1162 C 0.05915 0.80037 0.84588 0.0
C1163 C 0.09339 0.76059 0.867 0.0
C1164 C 1.01451 0.81804 0.87892 0.0
C1165 C 1.00248 0.86556 0.83034 0.0
N1166 N 0.06921 0.78005 0.8709 0.0
N1167 N 0.02583 0.84497 0.82741 0.0
H1168 H 0.52198 0.70461 0.03043 0.0
H1169 H 0.58419 0.82818 0.19043 0.0
H1170 H 0.48131 0.71059 0.12922 0.0
H1171 H 0.62985 0.80893 0.09605 0.0
H1172 H 0.54506 0.78836 0.16785 0.0
H1173 H 0.56011 0.74482 0.05363 0.0
C1174 C 0.52094 0.7144 0.05708 0.0
C1175 C 0.49814 0.70395 0.07781 0.0
C1176 C 0.56363 0.7928 0.15209 0.0
C1177 C 0.54234 0.75075 0.10475 0.0
C1178 C 0.58602 0.81575 0.16487 0.0
C1179 C 0.61061 0.82215 0.14518 0.0
C1180 C 0.56562 0.77585 0.11927 0.0
C1181 C 0.61144 0.80512 0.11221 0.0
C1182 C 0.54295 0.73738 0.07037 0.0
C1183 C 0.4984 0.71767 0.11224 0.0
N1184 N 0.58941 0.78283 0.10041 0.0
N1185 N 0.52001 0.74046 0.12454 0.0
H1186 H 0.05906 0.36663 0.64806 0.0
H1187 H 0.92106 0.2641 0.55756 0.0
H1188 H 0.04635 0.35715 0.53758 0.0
H1189 H 0.95608 0.24237 0.65763 0.0
H1190 H 0.96321 0.30349 0.55041 0.0
H1191 H 0.0176 0.32624 0.65338 0.0
C1192 C 0.04767 0.35567 0.62495 0.0
C1193 C 0.05648 0.36435 0.59233 0.0
C1194 C 0.96173 0.28983 0.57378 0.0
C1195 C 1.00832 0.31952 0.59811 0.0
C1196 C 0.93789 0.26719 0.57767 0.0
C1197 C 0.93568 0.2493 0.60776 0.0
C1198 C 0.98295 0.29521 0.60061 0.0
C1199 C 0.95746 0.25508 0.63367 0.0
C1200 C 0.02394 0.33285 0.62793 0.0
C1201 C 0.04057 0.35032 0.56314 0.0
N1202 N 0.98007 0.27754 0.62958 0.0
N1203 N 0.01712 0.32878 0.56668 0.0
H1204 H 0.9896 0.66498 0.79654 0.0
H1205 H 0.91284 0.80476 0.74334 0.0
H1206 H 0.01535 0.73058 0.88645 0.0
H1207 H 0.90389 0.83245 0.85167 0.0
H1208 H 0.94814 0.76198 0.75803 0.0
H1209 H 0.95525 0.70833 0.77968 0.0
C1210 C 0.98806 0.6885 0.81282 0.0
C1211 C 1.0057 0.69399 0.84293 0.0
C1212 C 0.93843 0.77717 0.77873 0.0
C1213 C 0.96617 0.74458 0.82343 0.0
C1214 C 0.91834 0.80208 0.77033 0.0
C1215 C 0.90511 0.82271 0.79621 0.0
C1216 C 0.94568 0.77227 0.81349 0.0
C1217 C 0.91363 0.81769 0.83069 0.0
C1218 C 0.96855 0.71357 0.80295 0.0
C1219 C 1.00243 0.72515 0.86291 0.0
N1220 N 0.93328 0.79313 0.83828 0.0
N1221 N 0.98297 0.74898 0.85301 0.0
H1222 H 0.42336 0.31111 0.37932 0.0
H1223 H 0.53399 0.16108 0.32972 0.0
H1224 H 0.44069 0.2753 0.27469 0.0
H1225 H 0.54294 0.22103 0.42683 0.0
H1226 H 0.49557 0.19898 0.31157 0.0
H1227 H 0.46296 0.27521 0.39975 0.0
C1228 C 0.4354 0.2959 0.36061 0.0
C1229 C 0.42841 0.29654 0.32509 0.0
C1230 C 0.50583 0.2039 0.33691 0.0
C1231 C 0.47345 0.25464 0.3485 0.0
C1232 C 0.52778 0.18217 0.34733 0.0
C1233 C 0.54181 0.18779 0.37987 0.0
C1234 C 0.49707 0.23124 0.3594 0.0
C1235 C 0.53284 0.21578 0.40145 0.0
C1236 C 0.45801 0.27534 0.37234 0.0
C1237 C 0.44494 0.27591 0.30228 0.0
N1238 N 0.51089 0.2362 0.39102 0.0
N1239 N 0.46632 0.25587 0.31431 0.0
H1240 H 0.96227 0.177 0.57985 0.0
H1241 H 0.10325 0.3008 0.55756 0.0
H1242 H 0.97481 0.22988 0.48684 0.0
H1243 H 0.07476 0.26419 0.65396 0.0
H1244 H 0.06109 0.26951 0.52796 0.0
H1245 H 1.00787 0.2029 0.60385 0.0
C1246 C 0.97444 0.19432 0.56447 0.0
C1247 C 0.96399 0.20178 0.53146 0.0
C1248 C 0.06433 0.26821 0.55557 0.0
C1249 C 0.01732 0.23151 0.55896 0.0
C1250 C 0.08846 0.28606 0.5725 0.0
C1251 C 0.0927 0.28569 0.60856 0.0
C1252 C 0.04447 0.24945 0.57472 0.0
C1253 C 0.07254 0.26594 0.62631 0.0
C1254 C 1.00077 0.20898 0.57816 0.0
C1255 C 0.98157 0.22376 0.51261 0.0
N1256 N 0.04962 0.24891 0.60938 0.0
N1257 N 1.00716 0.238 0.52666 0.0
H1258 H 0.42026 0.72518 0.047 0.0
H1259 H 0.52177 0.88051 0.13289 0.0
H1260 H 0.39045 0.80688 0.11638 0.0
H1261 H 0.54854 0.81929 0.04367 0.0
H1262 H 0.47528 0.84873 0.13017 0.0
H1263 H 0.46757 0.75617 0.04549 0.0
C1264 C 0.42346 0.74965 0.06167 0.0
C1265 C 0.40097 0.76341 0.08161 0.0
C1266 C 0.49127 0.84194 0.11122 0.0
C1267 C 0.456 0.79775 0.08195 0.0
C1268 C 0.51804 0.85992 0.11297 0.0
C1269 C 0.53939 0.85235 0.08878 0.0
C1270 C 0.48527 0.81605 0.08483 0.0
C1271 C 0.53297 0.82565 0.06325 0.0
C1272 C 0.45069 0.76708 0.06119 0.0
C1273 C 0.40684 0.79511 0.10047 0.0
N1274 N 0.50649 0.80854 0.06185 0.0
N1275 N 0.43368 0.81077 0.10052 0.0
H1276 H 0.61627 0.37347 0.81943 0.0
H1277 H 0.64859 0.50542 0.6723 0.0
H1278 H 0.70116 0.39128 0.77953 0.0
H1279 H 0.57507 0.51607 0.73757 0.0
H1280 H 0.6639 0.45579 0.70379 0.0
H1281 H 0.59702 0.41803 0.78302 0.0
C1282 C 0.63092 0.3871 0.80333 0.0
C1283 C 0.66062 0.37959 0.80355 0.0
C1284 C 0.64441 0.46889 0.71132 0.0
C1285 C 0.63845 0.42945 0.76042 0.0
C1286 C 0.6358 0.49747 0.69354 0.0
C1287 C 0.61127 0.51598 0.70335 0.0
C1288 C 0.62806 0.45793 0.73884 0.0
C1289 C 0.59473 0.50338 0.72998 0.0
C1290 C 0.61986 0.41223 0.78225 0.0
C1291 C 0.67837 0.39708 0.78113 0.0
N1292 N 0.6035 0.47536 0.74693 0.0
N1293 N 0.66706 0.421 0.76055 0.0
H1294 H 0.87716 0.42608 0.07891 0.0
H1295 H 0.77145 0.29018 0.96633 0.0
H1296 H 0.8969 0.31903 0.05889 0.0
H1297 H 0.76268 0.40016 0.96389 0.0
H1298 H 0.81437 0.30005 1.00489 0.0
H1299 H 0.83301 0.41699 0.04182 0.0
C1300 C 0.87241 0.40068 0.06659 0.0
C1301 C 0.89129 0.37342 0.07199 0.0
C1302 C 0.8031 0.32211 0.99604 0.0
C1303 C 0.84001 0.36265 0.02936 0.0
C1304 C 0.77832 0.31649 0.97407 0.0
C1305 C 0.76311 0.34432 0.96149 0.0
C1306 C 0.81299 0.35593 0.00629 0.0
C1307 C 0.77353 0.37779 0.97266 0.0
C1308 C 0.84706 0.39551 0.04535 0.0
C1309 C 0.88343 0.34102 0.05541 0.0
N1310 N 0.79759 0.38261 0.99433 0.0
N1311 N 0.85857 0.33659 0.03515 0.0
H1312 H 0.90069 0.5272 0.37863 0.0
H1313 H 0.89951 0.37681 0.23029 0.0
H1314 H 0.82813 0.51365 0.30645 0.0
H1315 H 0.9692 0.45308 0.23777 0.0
H1316 H 0.8745 0.40935 0.27578 0.0
H1317 H 0.92664 0.4831 0.34518 0.0
C1318 C 0.88992 0.51495 0.35607 0.0
C1319 C 0.86272 0.52624 0.34444 0.0
C1320 C 0.89557 0.41854 0.26797 0.0
C1321 C 0.89159 0.47268 0.30737 0.0
C1322 C 0.90992 0.40004 0.24155 0.0
C1323 C 0.93588 0.41295 0.22821 0.0
C1324 C 0.9082 0.4492 0.28325 0.0
C1325 C 0.94881 0.44241 0.24609 0.0
C1326 C 0.9048 0.48931 0.33708 0.0
C1327 C 0.84942 0.507 0.31603 0.0
N1328 N 0.93492 0.45936 0.2726 0.0
N1329 N 0.86388 0.48124 0.29868 0.0
H1330 H 0.75727 0.52629 0.4381 0.0
H1331 H 0.67229 0.63853 0.58001 0.0
H1332 H 0.77703 0.6347 0.45993 0.0
H1333 H 0.67418 0.52743 0.57616 0.0
H1334 H 0.71019 0.6387 0.53662 0.0
H1335 H 0.72666 0.5268 0.48852 0.0
C1336 C 0.75537 0.55021 0.45366 0.0
C1337 C 0.76981 0.5805 0.44451 0.0
C1338 C 0.70247 0.61432 0.54551 0.0
C1339 C 0.73386 0.58151 0.50235 0.0
C1340 C 0.68082 0.61419 0.57038 0.0
C1341 C 0.66979 0.58289 0.58186 0.0
C1342 C 0.71294 0.58291 0.53145 0.0
C1343 C 0.68181 0.55222 0.5682 0.0
C1344 C 0.73782 0.5505 0.48256 0.0
C1345 C 0.76644 0.61068 0.46593 0.0
N1346 N 0.70235 0.553 0.54362 0.0
N1347 N 0.74849 0.61055 0.49341 0.0
H1348 H 0.59103 0.46692 0.86261 0.0
H1349 H 0.72385 0.50886 0.74043 0.0
H1350 H 0.67604 0.42687 0.87966 0.0
H1351 H 0.64747 0.56992 0.74654 0.0
H1352 H 0.70703 0.4771 0.7896 0.0
H1353 H 0.61074 0.50276 0.8183 0.0
C1354 C 0.61373 0.46505 0.85642 0.0
C1355 C 0.63161 0.44276 0.87402 0.0
C1356 C 0.69382 0.49729 0.78007 0.0
C1357 C 0.65474 0.4845 0.82339 0.0
C1358 C 0.70329 0.51517 0.75171 0.0
C1359 C 0.68627 0.54083 0.73799 0.0
C1360 C 0.66707 0.5051 0.79508 0.0
C1361 C 0.66057 0.54914 0.75499 0.0
C1362 C 0.62513 0.48595 0.83144 0.0
C1363 C 0.66122 0.44274 0.86596 0.0
N1364 N 0.6516 0.53111 0.78209 0.0
N1365 N 0.67173 0.46279 0.84103 0.0
H1366 H 0.76753 0.426 0.10858 0.0
H1367 H 0.66633 0.3052 0.97665 0.0
H1368 H 0.78582 0.31933 0.08329 0.0
H1369 H 0.6526 0.41315 1.001 0.0
H1370 H 0.71144 0.30983 0.0119 0.0
H1371 H 0.72786 0.42218 0.06537 0.0
C1372 C 0.76344 0.4018 0.09356 0.0
C1373 C 0.78011 0.37294 0.09978 0.0
C1374 C 0.69867 0.33258 0.00931 0.0
C1375 C 0.73372 0.36802 0.05036 0.0
C1376 C 0.67288 0.33001 0.98887 0.0
C1377 C 0.65552 0.35891 0.98523 0.0
C1378 C 0.7073 0.3643 0.02656 0.0
C1379 C 0.66509 0.39011 1.0028 0.0
C1380 C 0.7406 0.39958 0.0689 0.0
C1381 C 0.77368 0.34231 0.07935 0.0
N1382 N 0.69013 0.39193 0.02254 0.0
N1383 N 0.75078 0.34051 0.05593 0.0
H1384 H 0.96345 0.54918 0.30108 0.0
H1385 H 0.8326 0.45195 0.21171 0.0
H1386 H 0.87901 0.59323 0.30724 0.0
H1387 H 0.91529 0.44936 0.16325 0.0
H1388 H 0.847 0.5081 0.24053 0.0
H1389 H 0.94796 0.51867 0.24608 0.0
C1390 C 0.94162 0.55257 0.29097 0.0
C1391 C 0.9222 0.57302 0.30995 0.0
C1392 C 0.86221 0.49505 0.22389 0.0
C1393 C 0.90333 0.53496 0.24838 0.0
C1394 C 0.85385 0.46303 0.20706 0.0
C1395 C 0.87321 0.44472 0.18595 0.0
C1396 C 0.89101 0.50772 0.22207 0.0
C1397 C 0.90004 0.46135 0.18029 0.0
C1398 C 0.93265 0.53476 0.25964 0.0
C1399 C 0.89448 0.57692 0.29465 0.0
N1400 N 0.90867 0.4909 0.19938 0.0
N1401 N 0.88546 0.55695 0.26581 0.0
H1402 H 0.8679 0.54053 0.46456 0.0
H1403 H 0.76183 0.64076 0.59601 0.0
H1404 H 0.87646 0.65046 0.48672 0.0
H1405 H 0.78624 0.5358 0.60713 0.0
H1406 H 0.79529 0.64402 0.54762 0.0
H1407 H 0.83022 0.53783 0.50786 0.0
C1408 C 0.86183 0.56423 0.47836 0.0
C1409 C 0.8759 0.59577 0.47186 0.0
C1410 C 0.79298 0.62009 0.5603 0.0
C1411 C 0.83178 0.5928 0.52183 0.0
C1412 C 0.7735 0.61803 0.58769 0.0
C1413 C 0.77065 0.58773 0.60564 0.0
C1414 C 0.80947 0.59139 0.5499 0.0
C1415 C 0.78723 0.55954 0.59398 0.0
C1416 C 0.84024 0.5626 0.50327 0.0
C1417 C 0.86665 0.62548 0.49084 0.0
N1418 N 0.80557 0.56197 0.567 0.0
N1419 N 0.84526 0.62329 0.51466 0.0
H1420 H 0.53596 0.66154 0.60886 0.0
H1421 H 0.43082 0.78818 0.71618 0.0
H1422 H 0.5156 0.64715 0.71449 0.0
H1423 H 0.41923 0.76754 0.60629 0.0
H1424 H 0.46923 0.74553 0.71665 0.0
H1425 H 0.50128 0.70888 0.60827 0.0
C1426 C 0.52494 0.66901 0.63231 0.0
C1427 C 0.52934 0.65051 0.662 0.0
C1428 C 0.45835 0.75031 0.69239 0.0
C1429 C 0.48909 0.705 0.66143 0.0
C1430 C 0.43634 0.77483 0.69203 0.0
C1431 C 0.42126 0.7816 0.66116 0.0
C1432 C 0.46618 0.73245 0.66154 0.0
C1433 C 0.42986 0.76324 0.6308 0.0
C1434 C 0.50474 0.69576 0.63177 0.0
C1435 C 0.51348 0.6609 0.69119 0.0
N1436 N 0.45167 0.73982 0.63173 0.0
N1437 N 0.49442 0.68738 0.69026 0.0
H1438 H 0.39224 0.67656 0.20516 0.0
H1439 H 0.38571 0.57702 0.34588 0.0
H1440 H 0.32954 0.60442 0.15462 0.0
H1441 H 0.35012 0.49433 0.27674 0.0
H1442 H 0.38208 0.61612 0.29987 0.0
H1443 H 0.39738 0.63833 0.25218 0.0
C1444 C 0.37951 0.65262 0.20392 0.0
C1445 C 0.36024 0.64406 0.17585 0.0
C1446 C 0.37554 0.58939 0.29415 0.0
C1447 C 0.3649 0.60016 0.23112 0.0
C1448 C 0.37714 0.56693 0.32087 0.0
C1449 C 0.36872 0.5319 0.3153 0.0
C1450 C 0.36561 0.57707 0.26093 0.0
C1451 C 0.3573 0.52091 0.28227 0.0
C1452 C 0.38206 0.63085 0.23126 0.0
C1453 C 0.34454 0.61235 0.17579 0.0
N1454 N 0.35622 0.54331 0.25635 0.0
N1455 N 0.34711 0.59172 0.20295 0.0
H1456 H 0.27168 0.65737 0.05105 0.0
H1457 H 0.127 0.68459 0.93492 0.0
H1458 H 0.24432 0.75732 0.02276 0.0
H1459 H 0.16853 0.5867 0.93969 0.0
H1460 H 0.16544 0.711 0.97412 0.0
H1461 H 0.23026 0.63066 0.01706 0.0
C1462 C 0.25723 0.67376 0.03747 0.0
C1463 C 0.26237 0.70972 0.03909 0.0
C1464 C 0.16603 0.68369 0.96669 0.0
C1465 C 0.21369 0.67917 1.00107 0.0
C1466 C 0.14404 0.66854 0.94418 0.0
C1467 C 0.14432 0.63322 0.93351 0.0
C1468 C 0.18871 0.66356 0.97881 0.0
C1469 C 0.16719 0.61399 0.94679 0.0
C1470 C 0.2333 0.65846 0.01831 0.0
C1471 C 0.24184 0.72949 0.02194 0.0
N1472 N 0.18829 0.62932 0.96849 0.0
N1473 N 0.21862 0.71405 1.00376 0.0
H1474 H 0.17462 0.61089 0.75998 0.0
H1475 H 0.18723 0.44969 0.65554 0.0
H1476 H 0.07394 0.52891 0.79687 0.0
H1477 H 0.12374 0.39772 0.7145 0.0
H1478 H 0.18469 0.50062 0.6949 0.0
H1479 H 0.18942 0.54527 0.7322 0.0
C1480 C 0.15935 0.58899 0.76133 0.0
C1481 C 0.10482 0.5821 0.79225 0.0
C1482 C 0.17154 0.47823 0.69999 0.0
C1483 C 0.14579 0.51038 0.74847 0.0
C1484 C 0.17256 0.44927 0.67684 0.0
C1485 C 0.15485 0.42006 0.68111 0.0
C1486 C 0.15234 0.4782 0.72752 0.0
C1487 C 0.13706 0.42024 0.70978 0.0
C1488 C 0.16889 0.5475 0.74472 0.0
C1489 C 0.09407 0.53765 0.7862 0.0
N1490 N 0.1358 0.44912 0.73147 0.0
N1491 N 0.11427 0.50958 0.76656 0.0
H1492 H 0.24805 0.33434 0.54106 0.0
H1493 H 0.30796 0.51409 0.47816 0.0
H1494 H 0.23329 0.43147 0.59658 0.0
H1495 H 0.34829 0.41787 0.44997 0.0
H1496 H 0.27812 0.48423 0.51894 0.0
H1497 H 0.28333 0.36375 0.5056 0.0
C1498 C 0.25214 0.36186 0.54563 0.0
C1499 C 0.23783 0.38046 0.57187 0.0
C1500 C 0.29359 0.46967 0.50393 0.0
C1501 C 0.277 0.41467 0.53022 0.0
C1502 C 0.31053 0.48668 0.4804 0.0
C1503 C 0.33037 0.46845 0.45986 0.0
C1504 C 0.29622 0.43399 0.50705 0.0
C1505 C 0.33289 0.43297 0.46453 0.0
C1506 C 0.27224 0.37868 0.52538 0.0
C1507 C 0.24403 0.41611 0.57678 0.0
N1508 N 0.31594 0.41693 0.48732 0.0
N1509 N 0.26271 0.4321 0.55586 0.0
H1510 H 0.34934 0.40454 0.22477 0.0
H1511 H 0.37936 0.52625 0.10657 0.0
H1512 H 0.41676 0.45536 0.28999 0.0
H1513 H 0.43098 0.5807 0.18808 0.0
H1514 H 0.3709 0.4796 0.1437 0.0
H1515 H 0.35613 0.44721 0.18305 0.0
C1516 C 0.36614 0.4244 0.23006 0.0
C1517 C 0.38248 0.42625 0.26124 0.0
C1518 C 0.38358 0.50179 0.1542 0.0
C1519 C 0.39117 0.47585 0.21236 0.0
C1520 C 0.38853 0.52865 0.13264 0.0
C1521 C 0.40579 0.55762 0.14417 0.0
C1522 C 0.39568 0.50383 0.18805 0.0
C1523 C 0.41747 0.55889 0.17809 0.0
C1524 C 0.37016 0.44905 0.20589 0.0
C1525 C 0.40361 0.45293 0.26657 0.0
N1526 N 0.41222 0.53241 0.19877 0.0
N1527 N 0.40731 0.47668 0.24248 0.0
H1528 H 0.34404 0.61223 0.04633 0.0
H1529 H 0.25332 0.7345 0.93104 0.0
H1530 H 0.38549 0.70083 0.0052 0.0
H1531 H 0.24056 0.624 0.92046 0.0
H1532 H 0.29755 0.72709 0.96679 0.0
H1533 H 0.30121 0.61996 0.00865 0.0
C1534 C 0.34382 0.63372 0.02983 0.0
C1535 C 0.36795 0.6564 0.02932 0.0
C1536 C 0.28498 0.70453 0.95666 0.0
C1537 C 0.31904 0.66578 0.98683 0.0
C1538 C 0.25964 0.70875 0.93672 0.0
C1539 C 0.24308 0.67981 0.9235 0.0
C1540 C 0.29322 0.67121 0.96421 0.0
C1541 C 0.25257 0.64694 0.93069 0.0
C1542 C 0.31955 0.63797 0.00824 0.0
C1543 C 0.36701 0.68331 0.00688 0.0
N1544 N 0.27675 0.64351 0.95103 0.0
N1545 N 0.34272 0.68765 0.98688 0.0
H1546 H 0.08108 0.47464 0.66343 0.0
H1547 H 0.12403 0.66141 0.76921 0.0
H1548 H 0.15282 0.53816 0.63338 0.0
H1549 H 0.16237 0.5767 0.84257 0.0
H1550 H 0.10503 0.61659 0.71667 0.0
H1551 H 0.07691 0.51257 0.71622 0.0
C1552 C 0.09621 0.49637 0.6683 0.0
C1553 C 0.11837 0.50236 0.64509 0.0
C1554 C 0.11432 0.60666 0.73983 0.0
C1555 C 0.11482 0.54452 0.70611 0.0
C1556 C 0.12632 0.6342 0.77271 0.0
C1557 C 0.1434 0.62313 0.80976 0.0
C1558 C 0.11936 0.56342 0.74208 0.0
C1559 C 0.15054 0.58219 0.81917 0.0
C1560 C 0.09381 0.51796 0.69839 0.0
C1561 C 0.13633 0.5318 0.65143 0.0
N1562 N 0.14125 0.55196 0.79085 0.0
N1563 N 0.13447 0.55143 0.68158 0.0
H1564 H 0.19684 0.50123 0.49262 0.0
H1565 H 0.29751 0.35245 0.41407 0.0
H1566 H 0.18263 0.3945 0.51411 0.0
H1567 H 0.29497 0.45467 0.37736 0.0
H1568 H 0.25642 0.36617 0.4512 0.0
H1569 H 0.23492 0.48434 0.45359 0.0
C1570 C 0.20171 0.47412 0.48936 0.0
C1571 C 0.18602 0.44933 0.50692 0.0
C1572 C 0.26514 0.38579 0.43549 0.0
C1573 C 0.23027 0.4296 0.46112 0.0
C1574 C 0.28867 0.37802 0.41435 0.0
C1575 C 0.30021 0.40277 0.39319 0.0
C1576 C 0.25369 0.41904 0.43664 0.0
C1577 C 0.28713 0.43501 0.39365 0.0
C1578 C 0.2235 0.46448 0.46666 0.0
C1579 C 0.19392 0.41466 0.50133 0.0
N1580 N 0.26505 0.44238 0.4154 0.0
N1581 N 0.21539 0.40585 0.47895 0.0
H1582 H 0.46136 0.42419 0.30296 0.0
H1583 H 0.56438 0.27643 0.36678 0.0
H1584 H 0.44992 0.38061 0.40114 0.0
H1585 H 0.54547 0.29199 0.25942 0.0
H1586 H 0.52733 0.3188 0.38264 0.0
H1587 H 0.49767 0.38076 0.28906 0.0
C1588 C 0.46653 0.40555 0.32162 0.0
C1589 C 0.4523 0.40578 0.35305 0.0
C1590 C 0.53138 0.31277 0.35564 0.0
C1591 C 0.49454 0.35649 0.33779 0.0
C1592 C 0.55244 0.28845 0.34656 0.0
C1593 C 0.55828 0.28038 0.31167 0.0
C1594 C 0.51637 0.32955 0.3297 0.0
C1595 C 0.54204 0.29717 0.28668 0.0
C1596 C 0.48724 0.38071 0.31369 0.0
C1597 C 0.46011 0.38109 0.3764 0.0
N1598 N 0.52217 0.32094 0.29616 0.0
N1599 N 0.4809 0.35773 0.3685 0.0
loop_
_geom_bond_atom_site_label_1
_geom_bond_atom_site_label_2
_geom_bond_distance
_geom_bond_site_symmetry_2
_ccdc_geom_bond_type
Co0 O1 2.216 . S
Co0 O2 2.091 . S
Co0 O4 2.004 . S
Co0 O10 2.021 . S
Co0 O12 2.137 . S
Co0 O13 2.244 . S
O1 Co0 2.216 . S
O1 C8 1.247 . S
O2 Co0 2.091 . S
O2 C8 1.261 . S
C3 O12 1.247 . S
C3 O13 1.272 . S
O4 Co0 2.004 . S
O4 C9 1.259 . S
Co5 O6 2.061 . S
Co5 O11 2.052 . S
Co5 O13 2.135 . S
O6 Co5 2.061 . S
O6 C9 1.235 . S
C7 O10 1.238 . S
C7 O11 1.241 . S
C8 O1 1.247 . S
C8 O2 1.261 . S
C9 O4 1.259 . S
C9 O6 1.235 . S
O10 Co0 2.021 . S
O10 C7 1.238 . S
O11 Co5 2.052 . S
O11 C7 1.241 . S
O12 Co0 2.137 . S
O12 C3 1.247 . S
O13 Co0 2.244 . S
O13 C3 1.272 . S
O13 Co5 2.135 . S
Co14 O15 2.216 . S
Co14 O16 2.091 . S
Co14 O18 2.004 . S
Co14 O24 2.021 . S
Co14 O26 2.137 . S
Co14 O27 2.244 . S
O15 Co14 2.216 . S
O15 C22 1.247 . S
O16 Co14 2.091 . S
O16 C22 1.261 . S
C17 O26 1.247 . S
C17 O27 1.272 . S
O18 Co14 2.004 . S
O18 C23 1.259 . S
Co19 O20 2.061 . S
Co19 O25 2.052 . S
Co19 O27 2.135 . S
O20 Co19 2.061 . S
O20 C23 1.235 . S
C21 O24 1.238 . S
C21 O25 1.241 . S
C22 O15 1.247 . S
C22 O16 1.261 . S
C23 O18 1.259 . S
C23 O20 1.235 . S
O24 Co14 2.021 . S
O24 C21 1.238 . S
O25 Co19 2.052 . S
O25 C21 1.241 . S
O26 Co14 2.137 . S
O26 C17 1.247 . S
O27 Co14 2.244 . S
O27 C17 1.272 . S
O27 Co19 2.135 . S
Co28 O29 2.216 . S
Co28 O30 2.091 . S
Co28 O32 2.004 . S
Co28 O38 2.021 . S
Co28 O40 2.137 . S
Co28 O41 2.244 . S
O29 Co28 2.216 . S
O29 C36 1.247 . S
O30 Co28 2.091 . S
O30 C36 1.261 . S
C31 O40 1.247 . S
C31 O41 1.272 . S
O32 Co28 2.004 . S
O32 C37 1.259 . S
Co33 O34 2.061 . S
Co33 O39 2.052 . S
Co33 O41 2.135 . S
O34 Co33 2.061 . S
O34 C37 1.235 . S
C35 O38 1.238 . S
C35 O39 1.241 . S
C36 O29 1.247 . S
C36 O30 1.261 . S
C37 O32 1.259 . S
C37 O34 1.235 . S
O38 Co28 2.021 . S
O38 C35 1.238 . S
O39 Co33 2.052 . S
O39 C35 1.241 . S
O40 Co28 2.137 . S
O40 C31 1.247 . S
O41 Co28 2.244 . S
O41 C31 1.272 . S
O41 Co33 2.135 . S
Co42 O43 2.216 . S
Co42 O44 2.091 . S
Co42 O46 2.004 . S
Co42 O52 2.021 . S
Co42 O54 2.137 . S
Co42 O55 2.244 . S
O43 Co42 2.216 . S
O43 C50 1.247 . S
O44 Co42 2.091 . S
O44 C50 1.261 . S
C45 O54 1.247 . S
C45 O55 1.272 . S
O46 Co42 2.004 . S
O46 C51 1.259 . S
Co47 O48 2.061 . S
Co47 O53 2.052 . S
Co47 O55 2.135 . S
O48 Co47 2.061 . S
O48 C51 1.235 . S
C49 O52 1.238 . S
C49 O53 1.241 . S
C50 O43 1.247 . S
C50 O44 1.261 . S
C51 O46 1.259 . S
C51 O48 1.235 . S
O52 Co42 2.021 . S
O52 C49 1.238 . S
O53 Co47 2.052 . S
O53 C49 1.241 . S
O54 Co42 2.137 . S
O54 C45 1.247 . S
O55 Co42 2.244 . S
O55 C45 1.272 . S
O55 Co47 2.135 . S
Co56 O57 2.216 . S
Co56 O58 2.091 . S
Co56 O60 2.004 . S
Co56 O66 2.021 . S
Co56 O68 2.137 . S
Co56 O69 2.244 . S
O57 Co56 2.216 . S
O57 C64 1.247 . S
O58 Co56 2.091 . S
O58 C64 1.261 . S
C59 O68 1.247 . S
C59 O69 1.272 . S
O60 Co56 2.004 . S
O60 C65 1.259 . S
Co61 O62 2.061 . S
Co61 O67 2.052 . S
Co61 O69 2.135 . S
O62 Co61 2.061 . S
O62 C65 1.235 . S
C63 O66 1.238 . S
C63 O67 1.241 . S
C64 O57 1.247 . S
C64 O58 1.261 . S
C65 O60 1.259 . S
C65 O62 1.235 . S
O66 Co56 2.021 . S
O66 C63 1.238 . S
O67 Co61 2.052 . S
O67 C63 1.241 . S
O68 Co56 2.137 . S
O68 C59 1.247 . S
O69 Co56 2.244 . S
O69 C59 1.272 . S
O69 Co61 2.135 . S
Co70 O71 2.216 . S
Co70 O72 2.091 . S
Co70 O74 2.004 . S
Co70 O80 2.021 . S
Co70 O82 2.137 . S
Co70 O83 2.244 . S
O71 Co70 2.216 . S
O71 C78 1.247 . S
O72 Co70 2.091 . S
O72 C78 1.261 . S
C73 O82 1.247 . S
C73 O83 1.272 . S
O74 Co70 2.004 . S
O74 C79 1.259 . S
Co75 O76 2.061 . S
Co75 O81 2.052 . S
Co75 O83 2.135 . S
O76 Co75 2.061 . S
O76 C79 1.235 . S
C77 O80 1.238 . S
C77 O81 1.241 . S
C78 O71 1.247 . S
C78 O72 1.261 . S
C79 O74 1.259 . S
C79 O76 1.235 . S
O80 Co70 2.021 . S
O80 C77 1.238 . S
O81 Co75 2.052 . S
O81 C77 1.241 . S
O82 Co70 2.137 . S
O82 C73 1.247 . S
O83 Co70 2.244 . S
O83 C73 1.272 . S
O83 Co75 2.135 . S
Co84 O85 2.216 . S
Co84 O86 2.091 . S
Co84 O88 2.004 . S
Co84 O94 2.021 . S
Co84 O96 2.137 . S
Co84 O97 2.244 . S
O85 Co84 2.216 . S
O85 C92 1.247 . S
O86 Co84 2.091 . S
O86 C92 1.261 . S
C87 O96 1.247 . S
C87 O97 1.272 . S
O88 Co84 2.004 . S
O88 C93 1.259 . S
Co89 O90 2.061 . S
Co89 O95 2.052 . S
Co89 O97 2.135 . S
O90 Co89 2.061 . S
O90 C93 1.235 . S
C91 O94 1.238 . S
C91 O95 1.241 . S
C92 O85 1.247 . S
C92 O86 1.261 . S
C93 O88 1.259 . S
C93 O90 1.235 . S
O94 Co84 2.021 . S
O94 C91 1.238 . S
O95 Co89 2.052 . S
O95 C91 1.241 . S
O96 Co84 2.137 . S
O96 C87 1.247 . S
O97 Co84 2.244 . S
O97 C87 1.272 . S
O97 Co89 2.135 . S
Co98 O99 2.216 . S
Co98 O100 2.091 . S
Co98 O102 2.004 . S
Co98 O108 2.021 . S
Co98 O110 2.137 . S
Co98 O111 2.244 . S
O99 Co98 2.216 . S
O99 C106 1.247 . S
O100 Co98 2.091 . S
O100 C106 1.261 . S
C101 O110 1.247 . S
C101 O111 1.272 . S
O102 Co98 2.004 . S
O102 C107 1.259 . S
Co103 O104 2.061 . S
Co103 O109 2.052 . S
Co103 O111 2.135 . S
O104 Co103 2.061 . S
O104 C107 1.235 . S
C105 O108 1.238 . S
C105 O109 1.241 . S
C106 O99 1.247 . S
C106 O100 1.261 . S
C107 O102 1.259 . S
C107 O104 1.235 . S
O108 Co98 2.021 . S
O108 C105 1.238 . S
O109 Co103 2.052 . S
O109 C105 1.241 . S
O110 Co98 2.137 . S
O110 C101 1.247 . S
O111 Co98 2.244 . S
O111 C101 1.272 . S
O111 Co103 2.135 . S
Co112 O113 2.216 . S
Co112 O114 2.091 . S
Co112 O116 2.004 . S
Co112 O122 2.021 . S
Co112 O124 2.137 . S
Co112 O125 2.244 . S
O113 Co112 2.216 . S
O113 C120 1.247 . S
O114 Co112 2.091 . S
O114 C120 1.261 . S
C115 O124 1.247 . S
C115 O125 1.272 . S
O116 Co112 2.004 . S
O116 C121 1.259 . S
Co117 O118 2.061 . S
Co117 O123 2.052 . S
Co117 O125 2.135 . S
O118 Co117 2.061 . S
O118 C121 1.235 . S
C119 O122 1.238 . S
C119 O123 1.241 . S
C120 O113 1.247 . S
C120 O114 1.261 . S
C121 O116 1.259 . S
C121 O118 1.235 . S
O122 Co112 2.021 . S
O122 C119 1.238 . S
O123 Co117 2.052 . S
O123 C119 1.241 . S
O124 Co112 2.137 . S
O124 C115 1.247 . S
O125 Co112 2.244 . S
O125 C115 1.272 . S
O125 Co117 2.135 . S
Co126 O127 2.216 . S
Co126 O128 2.091 . S
Co126 O130 2.004 . S
Co126 O136 2.021 . S
Co126 O138 2.137 . S
Co126 O139 2.244 . S
O127 Co126 2.216 . S
O127 C134 1.247 . S
O128 Co126 2.091 . S
O128 C134 1.261 . S
C129 O138 1.247 . S
C129 O139 1.272 . S
O130 Co126 2.004 . S
O130 C135 1.259 . S
Co131 O132 2.061 . S
Co131 O137 2.052 . S
Co131 O139 2.135 . S
O132 Co131 2.061 . S
O132 C135 1.235 . S
C133 O136 1.238 . S
C133 O137 1.241 . S
C134 O127 1.247 . S
C134 O128 1.261 . S
C135 O130 1.259 . S
C135 O132 1.235 . S
O136 Co126 2.021 . S
O136 C133 1.238 . S
O137 Co131 2.052 . S
O137 C133 1.241 . S
O138 Co126 2.137 . S
O138 C129 1.247 . S
O139 Co126 2.244 . S
O139 C129 1.272 . S
O139 Co131 2.135 . S
Co140 O141 2.216 . S
Co140 O142 2.091 . S
Co140 O144 2.004 . S
Co140 O150 2.021 . S
Co140 O152 2.137 . S
Co140 O153 2.244 . S
O141 Co140 2.216 . S
O141 C148 1.247 . S
O142 Co140 2.091 . S
O142 C148 1.261 . S
C143 O152 1.247 . S
C143 O153 1.272 . S
O144 Co140 2.004 . S
O144 C149 1.259 . S
Co145 O146 2.061 . S
Co145 O151 2.052 . S
Co145 O153 2.135 . S
O146 Co145 2.061 . S
O146 C149 1.235 . S
C147 O150 1.238 . S
C147 O151 1.241 . S
C148 O141 1.247 . S
C148 O142 1.261 . S
C149 O144 1.259 . S
C149 O146 1.235 . S
O150 Co140 2.021 . S
O150 C147 1.238 . S
O151 Co145 2.052 . S
O151 C147 1.241 . S
O152 Co140 2.137 . S
O152 C143 1.247 . S
O153 Co140 2.244 . S
O153 C143 1.272 . S
O153 Co145 2.135 . S
Co154 O155 2.216 . S
Co154 O156 2.091 . S
Co154 O158 2.004 . S
Co154 O164 2.021 . S
Co154 O166 2.137 . S
Co154 O167 2.244 . S
O155 Co154 2.216 . S
O155 C162 1.247 . S
O156 Co154 2.091 . S
O156 C162 1.261 . S
C157 O166 1.247 . S
C157 O167 1.272 . S
O158 Co154 2.004 . S
O158 C163 1.259 . S
Co159 O160 2.061 . S
Co159 O165 2.052 . S
Co159 O167 2.135 . S
O160 Co159 2.061 . S
O160 C163 1.235 . S
C161 O164 1.238 . S
C161 O165 1.241 . S
C162 O155 1.247 . S
C162 O156 1.261 . S
C163 O158 1.259 . S
C163 O160 1.235 . S
O164 Co154 2.021 . S
O164 C161 1.238 . S
O165 Co159 2.052 . S
O165 C161 1.241 . S
O166 Co154 2.137 . S
O166 C157 1.247 . S
O167 Co154 2.244 . S
O167 C157 1.272 . S
O167 Co159 2.135 . S
Co168 O169 2.216 . S
Co168 O170 2.091 . S
Co168 O172 2.004 . S
Co168 O178 2.021 . S
Co168 O180 2.137 . S
Co168 O181 2.244 . S
O169 Co168 2.216 . S
O169 C176 1.247 . S
O170 Co168 2.091 . S
O170 C176 1.261 . S
C171 O180 1.247 . S
C171 O181 1.272 . S
O172 Co168 2.004 . S
O172 C177 1.259 . S
Co173 O174 2.061 . S
Co173 O179 2.052 . S
Co173 O181 2.135 . S
O174 Co173 2.061 . S
O174 C177 1.235 . S
C175 O178 1.238 . S
C175 O179 1.241 . S
C176 O169 1.247 . S
C176 O170 1.261 . S
C177 O172 1.259 . S
C177 O174 1.235 . S
O178 Co168 2.021 . S
O178 C175 1.238 . S
O179 Co173 2.052 . S
O179 C175 1.241 . S
O180 Co168 2.137 . S
O180 C171 1.247 . S
O181 Co168 2.244 . S
O181 C171 1.272 . S
O181 Co173 2.135 . S
Co182 O183 2.216 . S
Co182 O184 2.091 . S
Co182 O186 2.004 . S
Co182 O192 2.021 . S
Co182 O194 2.137 . S
Co182 O195 2.244 . S
O183 Co182 2.216 . S
O183 C190 1.247 . S
O184 Co182 2.091 . S
O184 C190 1.261 . S
C185 O194 1.247 . S
C185 O195 1.272 . S
O186 Co182 2.004 . S
O186 C191 1.259 . S
Co187 O188 2.061 . S
Co187 O193 2.052 . S
Co187 O195 2.135 . S
O188 Co187 2.061 . S
O188 C191 1.235 . S
C189 O192 1.238 . S
C189 O193 1.241 . S
C190 O183 1.247 . S
C190 O184 1.261 . S
C191 O186 1.259 . S
C191 O188 1.235 . S
O192 Co182 2.021 . S
O192 C189 1.238 . S
O193 Co187 2.052 . S
O193 C189 1.241 . S
O194 Co182 2.137 . S
O194 C185 1.247 . S
O195 Co182 2.244 . S
O195 C185 1.272 . S
O195 Co187 2.135 . S
Co196 O197 2.216 . S
Co196 O198 2.091 . S
Co196 O200 2.004 . S
Co196 O206 2.021 . S
Co196 O208 2.137 . S
Co196 O209 2.244 . S
O197 Co196 2.216 . S
O197 C204 1.247 . S
O198 Co196 2.091 . S
O198 C204 1.261 . S
C199 O208 1.247 . S
C199 O209 1.272 . S
O200 Co196 2.004 . S
O200 C205 1.259 . S
Co201 O202 2.061 . S
Co201 O207 2.052 . S
Co201 O209 2.135 . S
O202 Co201 2.061 . S
O202 C205 1.235 . S
C203 O206 1.238 . S
C203 O207 1.241 . S
C204 O197 1.247 . S
C204 O198 1.261 . S
C205 O200 1.259 . S
C205 O202 1.235 . S
O206 Co196 2.021 . S
O206 C203 1.238 . S
O207 Co201 2.052 . S
O207 C203 1.241 . S
O208 Co196 2.137 . S
O208 C199 1.247 . S
O209 Co196 2.244 . S
O209 C199 1.272 . S
O209 Co201 2.135 . S
Co210 O211 2.216 . S
Co210 O212 2.091 . S
Co210 O214 2.004 . S
Co210 O220 2.021 . S
Co210 O222 2.137 . S
Co210 O223 2.244 . S
O211 Co210 2.216 . S
O211 C218 1.247 . S
O212 Co210 2.091 . S
O212 C218 1.261 . S
C213 O222 1.247 . S
C213 O223 1.272 . S
O214 Co210 2.004 . S
O214 C219 1.259 . S
Co215 O216 2.061 . S
Co215 O221 2.052 . S
Co215 O223 2.135 . S
O216 Co215 2.061 . S
O216 C219 1.235 . S
C217 O220 1.238 . S
C217 O221 1.241 . S
C218 O211 1.247 . S
C218 O212 1.261 . S
C219 O214 1.259 . S
C219 O216 1.235 . S
O220 Co210 2.021 . S
O220 C217 1.238 . S
O221 Co215 2.052 . S
O221 C217 1.241 . S
O222 Co210 2.137 . S
O222 C213 1.247 . S
O223 Co210 2.244 . S
O223 C213 1.272 . S
O223 Co215 2.135 . S
Co224 O225 2.216 . S
Co224 O226 2.091 . S
Co224 O228 2.004 . S
Co224 O234 2.021 . S
Co224 O236 2.137 . S
Co224 O237 2.244 . S
O225 Co224 2.216 . S
O225 C232 1.247 . S
O226 Co224 2.091 . S
O226 C232 1.261 . S
C227 O236 1.247 . S
C227 O237 1.272 . S
O228 Co224 2.004 . S
O228 C233 1.259 . S
Co229 O230 2.061 . S
Co229 O235 2.052 . S
Co229 O237 2.135 . S
O230 Co229 2.061 . S
O230 C233 1.235 . S
C231 O234 1.238 . S
C231 O235 1.241 . S
C232 O225 1.247 . S
C232 O226 1.261 . S
C233 O228 1.259 . S
C233 O230 1.235 . S
O234 Co224 2.021 . S
O234 C231 1.238 . S
O235 Co229 2.052 . S
O235 C231 1.241 . S
O236 Co224 2.137 . S
O236 C227 1.247 . S
O237 Co224 2.244 . S
O237 C227 1.272 . S
O237 Co229 2.135 . S
Co238 O239 2.216 . S
Co238 O240 2.091 . S
Co238 O242 2.004 . S
Co238 O248 2.021 . S
Co238 O250 2.137 . S
Co238 O251 2.244 . S
O239 Co238 2.216 . S
O239 C246 1.247 . S
O240 Co238 2.091 . S
O240 C246 1.261 . S
C241 O250 1.247 . S
C241 O251 1.272 . S
O242 Co238 2.004 . S
O242 C247 1.259 . S
Co243 O244 2.061 . S
Co243 O249 2.052 . S
Co243 O251 2.135 . S
O244 Co243 2.061 . S
O244 C247 1.235 . S
C245 O248 1.238 . S
C245 O249 1.241 . S
C246 O239 1.247 . S
C246 O240 1.261 . S
C247 O242 1.259 . S
C247 O244 1.235 . S
O248 Co238 2.021 . S
O248 C245 1.238 . S
O249 Co243 2.052 . S
O249 C245 1.241 . S
O250 Co238 2.137 . S
O250 C241 1.247 . S
O251 Co238 2.244 . S
O251 C241 1.272 . S
O251 Co243 2.135 . S
Co252 O253 2.216 . S
Co252 O254 2.091 . S
Co252 O256 2.004 . S
Co252 O262 2.021 . S
Co252 O264 2.137 . S
Co252 O265 2.244 . S
O253 Co252 2.216 . S
O253 C260 1.247 . S
O254 Co252 2.091 . S
O254 C260 1.261 . S
C255 O264 1.247 . S
C255 O265 1.272 . S
O256 Co252 2.004 . S
O256 C261 1.259 . S
Co257 O258 2.061 . S
Co257 O263 2.052 . S
Co257 O265 2.135 . S
O258 Co257 2.061 . S
O258 C261 1.235 . S
C259 O262 1.238 . S
C259 O263 1.241 . S
C260 O253 1.247 . S
C260 O254 1.261 . S
C261 O256 1.259 . S
C261 O258 1.235 . S
O262 Co252 2.021 . S
O262 C259 1.238 . S
O263 Co257 2.052 . S
O263 C259 1.241 . S
O264 Co252 2.137 . S
O264 C255 1.247 . S
O265 Co252 2.244 . S
O265 C255 1.272 . S
O265 Co257 2.135 . S
Co266 O267 2.216 . S
Co266 O268 2.091 . S
Co266 O270 2.004 . S
Co266 O276 2.021 . S
Co266 O278 2.137 . S
Co266 O279 2.244 . S
O267 Co266 2.216 . S
O267 C274 1.247 . S
O268 Co266 2.091 . S
O268 C274 1.261 . S
C269 O278 1.247 . S
C269 O279 1.272 . S
O270 Co266 2.004 . S
O270 C275 1.259 . S
Co271 O272 2.061 . S
Co271 O277 2.052 . S
Co271 O279 2.135 . S
O272 Co271 2.061 . S
O272 C275 1.235 . S
C273 O276 1.238 . S
C273 O277 1.241 . S
C274 O267 1.247 . S
C274 O268 1.261 . S
C275 O270 1.259 . S
C275 O272 1.235 . S
O276 Co266 2.021 . S
O276 C273 1.238 . S
O277 Co271 2.052 . S
O277 C273 1.241 . S
O278 Co266 2.137 . S
O278 C269 1.247 . S
O279 Co266 2.244 . S
O279 C269 1.272 . S
O279 Co271 2.135 . S
Co280 O281 2.216 . S
Co280 O282 2.091 . S
Co280 O284 2.004 . S
Co280 O290 2.021 . S
Co280 O292 2.137 . S
Co280 O293 2.244 . S
O281 Co280 2.216 . S
O281 C288 1.247 . S
O282 Co280 2.091 . S
O282 C288 1.261 . S
C283 O292 1.247 . S
C283 O293 1.272 . S
O284 Co280 2.004 . S
O284 C289 1.259 . S
Co285 O286 2.061 . S
Co285 O291 2.052 . S
Co285 O293 2.135 . S
O286 Co285 2.061 . S
O286 C289 1.235 . S
C287 O290 1.238 . S
C287 O291 1.241 . S
C288 O281 1.247 . S
C288 O282 1.261 . S
C289 O284 1.259 . S
C289 O286 1.235 . S
O290 Co280 2.021 . S
O290 C287 1.238 . S
O291 Co285 2.052 . S
O291 C287 1.241 . S
O292 Co280 2.137 . S
O292 C283 1.247 . S
O293 Co280 2.244 . S
O293 C283 1.272 . S
O293 Co285 2.135 . S
Co294 O295 2.216 . S
Co294 O296 2.091 . S
Co294 O298 2.004 . S
Co294 O304 2.021 . S
Co294 O306 2.137 . S
Co294 O307 2.244 . S
O295 Co294 2.216 . S
O295 C302 1.247 . S
O296 Co294 2.091 . S
O296 C302 1.261 . S
C297 O306 1.247 . S
C297 O307 1.272 . S
O298 Co294 2.004 . S
O298 C303 1.259 . S
Co299 O300 2.061 . S
Co299 O305 2.052 . S
Co299 O307 2.135 . S
O300 Co299 2.061 . S
O300 C303 1.235 . S
C301 O304 1.238 . S
C301 O305 1.241 . S
C302 O295 1.247 . S
C302 O296 1.261 . S
C303 O298 1.259 . S
C303 O300 1.235 . S
O304 Co294 2.021 . S
O304 C301 1.238 . S
O305 Co299 2.052 . S
O305 C301 1.241 . S
O306 Co294 2.137 . S
O306 C297 1.247 . S
O307 Co294 2.244 . S
O307 C297 1.272 . S
O307 Co299 2.135 . S
Co308 O309 2.216 . S
Co308 O310 2.091 . S
Co308 O312 2.004 . S
Co308 O318 2.021 . S
Co308 O320 2.137 . S
Co308 O321 2.244 . S
O309 Co308 2.216 . S
O309 C316 1.247 . S
O310 Co308 2.091 . S
O310 C316 1.261 . S
C311 O320 1.247 . S
C311 O321 1.272 . S
O312 Co308 2.004 . S
O312 C317 1.259 . S
Co313 O314 2.061 . S
Co313 O319 2.052 . S
Co313 O321 2.135 . S
O314 Co313 2.061 . S
O314 C317 1.235 . S
C315 O318 1.238 . S
C315 O319 1.241 . S
C316 O309 1.247 . S
C316 O310 1.261 . S
C317 O312 1.259 . S
C317 O314 1.235 . S
O318 Co308 2.021 . S
O318 C315 1.238 . S
O319 Co313 2.052 . S
O319 C315 1.241 . S
O320 Co308 2.137 . S
O320 C311 1.247 . S
O321 Co308 2.244 . S
O321 C311 1.272 . S
O321 Co313 2.135 . S
Co322 O323 2.216 . S
Co322 O324 2.091 . S
Co322 O326 2.004 . S
Co322 O332 2.021 . S
Co322 O334 2.137 . S
Co322 O335 2.244 . S
O323 Co322 2.216 . S
O323 C330 1.247 . S
O324 Co322 2.091 . S
O324 C330 1.261 . S
C325 O334 1.247 . S
C325 O335 1.272 . S
O326 Co322 2.004 . S
O326 C331 1.259 . S
Co327 O328 2.061 . S
Co327 O333 2.052 . S
Co327 O335 2.135 . S
O328 Co327 2.061 . S
O328 C331 1.235 . S
C329 O332 1.238 . S
C329 O333 1.241 . S
C330 O323 1.247 . S
C330 O324 1.261 . S
C331 O326 1.259 . S
C331 O328 1.235 . S
O332 Co322 2.021 . S
O332 C329 1.238 . S
O333 Co327 2.052 . S
O333 C329 1.241 . S
O334 Co322 2.137 . S
O334 C325 1.247 . S
O335 Co322 2.244 . S
O335 C325 1.272 . S
O335 Co327 2.135 . S
Co336 O337 2.216 . S
Co336 O338 2.091 . S
Co336 O340 2.004 . S
Co336 O346 2.021 . S
Co336 O348 2.137 . S
Co336 O349 2.244 . S
O337 Co336 2.216 . S
O337 C344 1.247 . S
O338 Co336 2.091 . S
O338 C344 1.261 . S
C339 O348 1.247 . S
C339 O349 1.272 . S
O340 Co336 2.004 . S
O340 C345 1.259 . S
Co341 O342 2.061 . S
Co341 O347 2.052 . S
Co341 O349 2.135 . S
O342 Co341 2.061 . S
O342 C345 1.235 . S
C343 O346 1.238 . S
C343 O347 1.241 . S
C344 O337 1.247 . S
C344 O338 1.261 . S
C345 O340 1.259 . S
C345 O342 1.235 . S
O346 Co336 2.021 . S
O346 C343 1.238 . S
O347 Co341 2.052 . S
O347 C343 1.241 . S
O348 Co336 2.137 . S
O348 C339 1.247 . S
O349 Co336 2.244 . S
O349 C339 1.272 . S
O349 Co341 2.135 . S
Co350 O351 2.216 . S
Co350 O352 2.091 . S
Co350 O354 2.004 . S
Co350 O360 2.021 . S
Co350 O362 2.137 . S
Co350 O363 2.244 . S
O351 Co350 2.216 . S
O351 C358 1.247 . S
O352 Co350 2.091 . S
O352 C358 1.261 . S
C353 O362 1.247 . S
C353 O363 1.272 . S
O354 Co350 2.004 . S
O354 C359 1.259 . S
Co355 O356 2.061 . S
Co355 O361 2.052 . S
Co355 O363 2.135 . S
O356 Co355 2.061 . S
O356 C359 1.235 . S
C357 O360 1.238 . S
C357 O361 1.241 . S
C358 O351 1.247 . S
C358 O352 1.261 . S
C359 O354 1.259 . S
C359 O356 1.235 . S
O360 Co350 2.021 . S
O360 C357 1.238 . S
O361 Co355 2.052 . S
O361 C357 1.241 . S
O362 Co350 2.137 . S
O362 C353 1.247 . S
O363 Co350 2.244 . S
O363 C353 1.272 . S
O363 Co355 2.135 . S
Co364 O365 2.216 . S
Co364 O366 2.091 . S
Co364 O368 2.004 . S
Co364 O374 2.021 . S
Co364 O376 2.137 . S
Co364 O377 2.244 . S
O365 Co364 2.216 . S
O365 C372 1.247 . S
O366 Co364 2.091 . S
O366 C372 1.261 . S
C367 O376 1.247 . S
C367 O377 1.272 . S
O368 Co364 2.004 . S
O368 C373 1.259 . S
Co369 O370 2.061 . S
Co369 O375 2.052 . S
Co369 O377 2.135 . S
O370 Co369 2.061 . S
O370 C373 1.235 . S
C371 O374 1.238 . S
C371 O375 1.241 . S
C372 O365 1.247 . S
C372 O366 1.261 . S
C373 O368 1.259 . S
C373 O370 1.235 . S
O374 Co364 2.021 . S
O374 C371 1.238 . S
O375 Co369 2.052 . S
O375 C371 1.241 . S
O376 Co364 2.137 . S
O376 C367 1.247 . S
O377 Co364 2.244 . S
O377 C367 1.272 . S
O377 Co369 2.135 . S
Co378 O379 2.216 . S
Co378 O380 2.091 . S
Co378 O382 2.004 . S
Co378 O388 2.021 . S
Co378 O390 2.137 . S
Co378 O391 2.244 . S
O379 Co378 2.216 . S
O379 C386 1.247 . S
O380 Co378 2.091 . S
O380 C386 1.261 . S
C381 O390 1.247 . S
C381 O391 1.272 . S
O382 Co378 2.004 . S
O382 C387 1.259 . S
Co383 O384 2.061 . S
Co383 O389 2.052 . S
Co383 O391 2.135 . S
O384 Co383 2.061 . S
O384 C387 1.235 . S
C385 O388 1.238 . S
C385 O389 1.241 . S
C386 O379 1.247 . S
C386 O380 1.261 . S
C387 O382 1.259 . S
C387 O384 1.235 . S
O388 Co378 2.021 . S
O388 C385 1.238 . S
O389 Co383 2.052 . S
O389 C385 1.241 . S
O390 Co378 2.137 . S
O390 C381 1.247 . S
O391 Co378 2.244 . S
O391 C381 1.272 . S
O391 Co383 2.135 . S
Co392 O393 2.216 . S
Co392 O394 2.091 . S
Co392 O396 2.004 . S
Co392 O402 2.021 . S
Co392 O404 2.137 . S
Co392 O405 2.244 . S
O393 Co392 2.216 . S
O393 C400 1.247 . S
O394 Co392 2.091 . S
O394 C400 1.261 . S
C395 O404 1.247 . S
C395 O405 1.272 . S
O396 Co392 2.004 . S
O396 C401 1.259 . S
Co397 O398 2.061 . S
Co397 O403 2.052 . S
Co397 O405 2.135 . S
O398 Co397 2.061 . S
O398 C401 1.235 . S
C399 O402 1.238 . S
C399 O403 1.241 . S
C400 O393 1.247 . S
C400 O394 1.261 . S
C401 O396 1.259 . S
C401 O398 1.235 . S
O402 Co392 2.021 . S
O402 C399 1.238 . S
O403 Co397 2.052 . S
O403 C399 1.241 . S
O404 Co392 2.137 . S
O404 C395 1.247 . S
O405 Co392 2.244 . S
O405 C395 1.272 . S
O405 Co397 2.135 . S
Co406 O407 2.216 . S
Co406 O408 2.091 . S
Co406 O410 2.004 . S
Co406 O416 2.021 . S
Co406 O418 2.137 . S
Co406 O419 2.244 . S
O407 Co406 2.216 . S
O407 C414 1.247 . S
O408 Co406 2.091 . S
O408 C414 1.261 . S
C409 O418 1.247 . S
C409 O419 1.272 . S
O410 Co406 2.004 . S
O410 C415 1.259 . S
Co411 O412 2.061 . S
Co411 O417 2.052 . S
Co411 O419 2.135 . S
O412 Co411 2.061 . S
O412 C415 1.235 . S
C413 O416 1.238 . S
C413 O417 1.241 . S
C414 O407 1.247 . S
C414 O408 1.261 . S
C415 O410 1.259 . S
C415 O412 1.235 . S
O416 Co406 2.021 . S
O416 C413 1.238 . S
O417 Co411 2.052 . S
O417 C413 1.241 . S
O418 Co406 2.137 . S
O418 C409 1.247 . S
O419 Co406 2.244 . S
O419 C409 1.272 . S
O419 Co411 2.135 . S
Co420 O421 2.216 . S
Co420 O422 2.091 . S
Co420 O424 2.004 . S
Co420 O430 2.021 . S
Co420 O432 2.137 . S
Co420 O433 2.244 . S
O421 Co420 2.216 . S
O421 C428 1.247 . S
O422 Co420 2.091 . S
O422 C428 1.261 . S
C423 O432 1.247 . S
C423 O433 1.272 . S
O424 Co420 2.004 . S
O424 C429 1.259 . S
Co425 O426 2.061 . S
Co425 O431 2.052 . S
Co425 O433 2.135 . S
O426 Co425 2.061 . S
O426 C429 1.235 . S
C427 O430 1.238 . S
C427 O431 1.241 . S
C428 O421 1.247 . S
C428 O422 1.261 . S
C429 O424 1.259 . S
C429 O426 1.235 . S
O430 Co420 2.021 . S
O430 C427 1.238 . S
O431 Co425 2.052 . S
O431 C427 1.241 . S
O432 Co420 2.137 . S
O432 C423 1.247 . S
O433 Co420 2.244 . S
O433 C423 1.272 . S
O433 Co425 2.135 . S
Co434 O435 2.216 . S
Co434 O436 2.091 . S
Co434 O438 2.004 . S
Co434 O444 2.021 . S
Co434 O446 2.137 . S
Co434 O447 2.244 . S
O435 Co434 2.216 . S
O435 C442 1.247 . S
O436 Co434 2.091 . S
O436 C442 1.261 . S
C437 O446 1.247 . S
C437 O447 1.272 . S
O438 Co434 2.004 . S
O438 C443 1.259 . S
Co439 O440 2.061 . S
Co439 O445 2.052 . S
Co439 O447 2.135 . S
O440 Co439 2.061 . S
O440 C443 1.235 . S
C441 O444 1.238 . S
C441 O445 1.241 . S
C442 O435 1.247 . S
C442 O436 1.261 . S
C443 O438 1.259 . S
C443 O440 1.235 . S
O444 Co434 2.021 . S
O444 C441 1.238 . S
O445 Co439 2.052 . S
O445 C441 1.241 . S
O446 Co434 2.137 . S
O446 C437 1.247 . S
O447 Co434 2.244 . S
O447 C437 1.272 . S
O447 Co439 2.135 . S
H448 C454 0.930 . S
H449 C458 0.930 . S
H450 C463 0.929 . S
H451 C461 0.929 . S
H452 C456 0.926 1_554 S
H453 C462 0.929 . S
C454 H448 0.930 . S
C454 C455 1.367 . S
C454 C462 1.378 1_554 S
C455 C454 1.367 . S
C455 C463 1.433 . S
C456 H452 0.926 1_556 S
C456 C458 1.379 . S
C456 C460 1.351 . S
C457 C460 1.463 1_444 S
C457 C462 1.350 1_554 S
C457 N465 1.427 . S
C458 H449 0.930 . S
C458 C456 1.379 . S
C458 C459 1.367 . S
C459 C458 1.367 . S
C459 C461 1.433 . S
C460 C456 1.351 . S
C460 C457 1.463 1_666 S
C460 N464 1.427 . S
C461 H451 0.929 . S
C461 C459 1.433 . S
C461 N464 1.384 . S
C462 H453 0.929 . S
C462 C454 1.378 1_556 S
C462 C457 1.350 1_556 S
C463 H450 0.929 . S
C463 C455 1.433 . S
C463 N465 1.384 . S
N464 C460 1.427 . S
N464 C461 1.384 . S
N465 C457 1.427 . S
N465 C463 1.384 . S
H466 C472 0.930 . S
H467 C476 0.930 . S
H468 C481 0.929 . S
H469 C479 0.929 . S
H470 C474 0.929 . S
H471 C480 0.929 . S
C472 H466 0.930 . S
C472 C473 1.367 . S
C472 C480 1.378 . S
C473 C472 1.367 . S
C473 C481 1.433 . S
C474 H470 0.929 . S
C474 C476 1.378 . S
C474 C478 1.350 . S
C475 C478 1.463 . S
C475 C480 1.350 . S
C475 N483 1.427 . S
C476 H467 0.930 . S
C476 C474 1.378 . S
C476 C477 1.367 . S
C477 C476 1.367 . S
C477 C479 1.433 . S
C478 C474 1.350 . S
C478 C475 1.463 . S
C478 N482 1.427 . S
C479 H469 0.929 . S
C479 C477 1.433 . S
C479 N482 1.384 . S
C480 H471 0.929 . S
C480 C472 1.378 . S
C480 C475 1.350 . S
C481 H468 0.929 . S
C481 C473 1.433 . S
C481 N483 1.384 . S
N482 C478 1.427 . S
N482 C479 1.384 . S
N483 C475 1.427 . S
N483 C481 1.384 . S
H484 C490 0.930 . S
H485 C494 0.930 . S
H486 C499 0.929 . S
H487 C497 0.929 . S
H488 C492 0.929 1_565 S
H489 C498 0.929 1_545 S
C490 H484 0.930 . S
C490 C491 1.367 . S
C490 C498 1.378 . S
C491 C490 1.367 . S
C491 C499 1.433 . S
C492 H488 0.929 1_545 S
C492 C494 1.378 . S
C492 C496 1.350 . S
C493 C496 1.463 1_565 S
C493 C498 1.350 . S
C493 N501 1.427 . S
C494 H485 0.930 . S
C494 C492 1.378 . S
C494 C495 1.367 . S
C495 C494 1.367 . S
C495 C497 1.433 . S
C496 C492 1.350 . S
C496 C493 1.463 1_545 S
C496 N500 1.427 . S
C497 H487 0.929 . S
C497 C495 1.433 . S
C497 N500 1.384 . S
C498 H489 0.929 1_565 S
C498 C490 1.378 . S
C498 C493 1.350 . S
C499 H486 0.929 . S
C499 C491 1.433 . S
C499 N501 1.384 . S
N500 C496 1.427 . S
N500 C497 1.384 . S
N501 C493 1.427 . S
N501 C499 1.384 . S
H502 C508 0.930 . S
H503 C512 0.930 . S
H504 C517 0.929 . S
H505 C515 0.929 . S
H506 C510 0.929 . S
H507 C516 0.929 . S
C508 H502 0.930 . S
C508 C509 1.367 . S
C508 C516 1.378 . S
C509 C508 1.367 . S
C509 C517 1.433 . S
C510 H506 0.929 . S
C510 C512 1.378 . S
C510 C514 1.350 . S
C511 C514 1.463 . S
C511 C516 1.350 . S
C511 N519 1.427 . S
C512 H503 0.930 . S
C512 C510 1.378 . S
C512 C513 1.367 . S
C513 C512 1.367 . S
C513 C515 1.433 . S
C514 C510 1.350 . S
C514 C511 1.463 . S
C514 N518 1.427 . S
C515 H505 0.929 . S
C515 C513 1.433 . S
C515 N518 1.384 . S
C516 H507 0.929 . S
C516 C508 1.378 . S
C516 C511 1.350 . S
C517 H504 0.929 . S
C517 C509 1.433 . S
C517 N519 1.384 . S
N518 C514 1.427 . S
N518 C515 1.384 . S
N519 C511 1.427 . S
N519 C517 1.384 . S
H520 C526 0.930 . S
H521 C530 0.930 . S
H522 C535 0.929 . S
H523 C533 0.929 . S
H524 C528 0.929 . S
H525 C534 0.929 1_655 S
C526 H520 0.930 . S
C526 C527 1.367 . S
C526 C534 1.378 . S
C527 C526 1.367 . S
C527 C535 1.433 . S
C528 H524 0.929 . S
C528 C530 1.378 1_455 S
C528 C532 1.350 1_455 S
C529 C532 1.463 1_465 S
C529 C534 1.350 . S
C529 N537 1.427 1_565 S
C530 H521 0.930 . S
C530 C528 1.378 1_655 S
C530 C531 1.367 . S
C531 C530 1.367 . S
C531 C533 1.433 . S
C532 C528 1.350 1_655 S
C532 C529 1.463 1_645 S
C532 N536 1.427 1_545 S
C533 H523 0.929 . S
C533 C531 1.433 . S
C533 N536 1.384 1_545 S
C534 H525 0.929 1_455 S
C534 C526 1.378 . S
C534 C529 1.350 . S
C535 H522 0.929 . S
C535 C527 1.433 . S
C535 N537 1.384 1_565 S
N536 C532 1.427 1_565 S
N536 C533 1.384 1_565 S
N537 C529 1.427 1_545 S
N537 C535 1.384 1_545 S
H538 C544 0.930 . S
H539 C548 0.930 . S
H540 C553 0.929 . S
H541 C551 0.929 . S
H542 C546 0.929 . S
H543 C552 0.929 . S
C544 H538 0.930 . S
C544 C545 1.367 . S
C544 C552 1.378 . S
C545 C544 1.367 . S
C545 C553 1.433 . S
C546 H542 0.929 . S
C546 C548 1.378 . S
C546 C550 1.350 . S
C547 C550 1.463 . S
C547 C552 1.350 . S
C547 N555 1.427 . S
C548 H539 0.930 . S
C548 C546 1.378 . S
C548 C549 1.367 . S
C549 C548 1.367 . S
C549 C551 1.433 . S
C550 C546 1.350 . S
C550 C547 1.463 . S
C550 N554 1.427 . S
C551 H541 0.929 . S
C551 C549 1.433 . S
C551 N554 1.384 . S
C552 H543 0.929 . S
C552 C544 1.378 . S
C552 C547 1.350 . S
C553 H540 0.929 . S
C553 C545 1.433 . S
C553 N555 1.384 . S
N554 C550 1.427 . S
N554 C551 1.384 . S
N555 C547 1.427 . S
N555 C553 1.384 . S
H556 C562 0.926 1_554 S
H557 C566 0.930 1_556 S
H558 C571 0.929 . S
H559 C569 0.929 . S
H560 C564 0.929 . S
H561 C570 0.929 . S
C562 H556 0.926 1_556 S
C562 C563 1.367 . S
C562 C570 1.378 1_556 S
C563 C562 1.367 . S
C563 C571 1.433 . S
C564 H560 0.929 . S
C564 C566 1.378 1_556 S
C564 C568 1.350 1_556 S
C565 C568 1.463 1_546 S
C565 C570 1.350 1_556 S
C565 N573 1.427 . S
C566 H557 0.930 1_554 S
C566 C564 1.378 1_554 S
C566 C567 1.367 . S
C567 C566 1.367 . S
C567 C569 1.433 . S
C568 C564 1.350 1_554 S
C568 C565 1.463 1_564 S
C568 N572 1.427 . S
C569 H559 0.929 . S
C569 C567 1.433 . S
C569 N572 1.384 . S
C570 H561 0.929 . S
C570 C562 1.378 1_554 S
C570 C565 1.350 1_554 S
C571 H558 0.929 . S
C571 C563 1.433 . S
C571 N573 1.384 . S
N572 C568 1.427 . S
N572 C569 1.384 . S
N573 C565 1.427 . S
N573 C571 1.384 . S
H574 C580 0.930 . S
H575 C584 0.930 . S
H576 C589 0.929 . S
H577 C587 0.929 . S
H578 C582 0.929 . S
H579 C588 0.929 . S
C580 H574 0.930 . S
C580 C581 1.367 . S
C580 C588 1.378 . S
C581 C580 1.367 . S
C581 C589 1.433 . S
C582 H578 0.929 . S
C582 C584 1.378 . S
C582 C586 1.350 . S
C583 C586 1.463 . S
C583 C588 1.350 . S
C583 N591 1.427 . S
C584 H575 0.930 . S
C584 C582 1.378 . S
C584 C585 1.367 . S
C585 C584 1.367 . S
C585 C587 1.433 . S
C586 C582 1.350 . S
C586 C583 1.463 . S
C586 N590 1.427 . S
C587 H577 0.929 . S
C587 C585 1.433 . S
C587 N590 1.384 . S
C588 H579 0.929 . S
C588 C580 1.378 . S
C588 C583 1.350 . S
C589 H576 0.929 . S
C589 C581 1.433 . S
C589 N591 1.384 . S
N590 C586 1.427 . S
N590 C587 1.384 . S
N591 C583 1.427 . S
N591 C589 1.384 . S
H592 C598 0.930 . S
H593 C602 0.930 . S
H594 C607 0.929 . S
H595 C605 0.929 . S
H596 C600 0.927 1_554 S
H597 C606 0.929 . S
C598 H592 0.930 . S
C598 C599 1.367 . S
C598 C606 1.378 . S
C599 C598 1.367 . S
C599 C607 1.433 . S
C600 H596 0.927 1_556 S
C600 C602 1.378 . S
C600 C604 1.350 . S
C601 C604 1.463 1_554 S
C601 C606 1.350 . S
C601 N609 1.427 . S
C602 H593 0.930 . S
C602 C600 1.378 . S
C602 C603 1.367 . S
C603 C602 1.367 . S
C603 C605 1.433 . S
C604 C600 1.350 . S
C604 C601 1.463 1_556 S
C604 N608 1.427 . S
C605 H595 0.929 . S
C605 C603 1.433 . S
C605 N608 1.384 . S
C606 H597 0.929 . S
C606 C598 1.378 . S
C606 C601 1.350 . S
C607 H594 0.929 . S
C607 C599 1.433 . S
C607 N609 1.384 . S
N608 C604 1.427 . S
N608 C605 1.384 . S
N609 C601 1.427 . S
N609 C607 1.384 . S
H610 C616 0.930 . S
H611 C620 0.930 . S
H612 C625 0.929 . S
H613 C623 0.929 . S
H614 C618 0.929 . S
H615 C624 0.929 . S
C616 H610 0.930 . S
C616 C617 1.367 . S
C616 C624 1.378 . S
C617 C616 1.367 . S
C617 C625 1.433 . S
C618 H614 0.929 . S
C618 C620 1.378 . S
C618 C622 1.350 . S
C619 C622 1.463 . S
C619 C624 1.350 . S
C619 N627 1.427 . S
C620 H611 0.930 . S
C620 C618 1.378 . S
C620 C621 1.367 . S
C621 C620 1.367 . S
C621 C623 1.433 . S
C622 C618 1.350 . S
C622 C619 1.463 . S
C622 N626 1.427 . S
C623 H613 0.929 . S
C623 C621 1.433 . S
C623 N626 1.384 . S
C624 H615 0.929 . S
C624 C616 1.378 . S
C624 C619 1.350 . S
C625 H612 0.929 . S
C625 C617 1.433 . S
C625 N627 1.384 . S
N626 C622 1.427 . S
N626 C623 1.384 . S
N627 C619 1.427 . S
N627 C625 1.384 . S
H628 C634 0.930 . S
H629 C638 0.930 . S
H630 C643 0.929 . S
H631 C641 0.929 . S
H632 C636 0.929 . S
H633 C642 0.929 1_655 S
C634 H628 0.930 . S
C634 C635 1.367 . S
C634 C642 1.378 . S
C635 C634 1.367 . S
C635 C643 1.433 . S
C636 H632 0.929 . S
C636 C638 1.378 . S
C636 C640 1.350 . S
C637 C640 1.463 1_455 S
C637 C642 1.350 . S
C637 N645 1.427 . S
C638 H629 0.930 . S
C638 C636 1.378 . S
C638 C639 1.367 . S
C639 C638 1.367 . S
C639 C641 1.433 . S
C640 C636 1.350 . S
C640 C637 1.463 1_655 S
C640 N644 1.427 . S
C641 H631 0.929 . S
C641 C639 1.433 . S
C641 N644 1.384 . S
C642 H633 0.929 1_455 S
C642 C634 1.378 . S
C642 C637 1.350 . S
C643 H630 0.929 . S
C643 C635 1.433 . S
C643 N645 1.384 . S
N644 C640 1.427 . S
N644 C641 1.384 . S
N645 C637 1.427 . S
N645 C643 1.384 . S
H646 C652 0.930 . S
H647 C656 0.930 . S
H648 C661 0.929 . S
H649 C659 0.929 . S
H650 C654 0.929 . S
H651 C660 0.929 . S
C652 H646 0.930 . S
C652 C653 1.367 . S
C652 C660 1.378 . S
C653 C652 1.367 . S
C653 C661 1.433 . S
C654 H650 0.929 . S
C654 C656 1.378 . S
C654 C658 1.350 . S
C655 C658 1.463 . S
C655 C660 1.350 . S
C655 N663 1.427 . S
C656 H647 0.930 . S
C656 C654 1.378 . S
C656 C657 1.367 . S
C657 C656 1.367 . S
C657 C659 1.433 . S
C658 C654 1.350 . S
C658 C655 1.463 . S
C658 N662 1.427 . S
C659 H649 0.929 . S
C659 C657 1.433 . S
C659 N662 1.384 . S
C660 H651 0.929 . S
C660 C652 1.378 . S
C660 C655 1.350 . S
C661 H648 0.929 . S
C661 C653 1.433 . S
C661 N663 1.384 . S
N662 C658 1.427 . S
N662 C659 1.384 . S
N663 C655 1.427 . S
N663 C661 1.384 . S
H664 C670 0.930 . S
H665 C674 0.930 . S
H666 C679 0.929 . S
H667 C677 0.929 . S
H668 C672 0.929 . S
H669 C678 0.929 . S
C670 H664 0.930 . S
C670 C671 1.367 . S
C670 C678 1.378 . S
C671 C670 1.367 . S
C671 C679 1.433 . S
C672 H668 0.929 . S
C672 C674 1.378 . S
C672 C676 1.350 . S
C673 C676 1.463 . S
C673 C678 1.350 . S
C673 N681 1.427 . S
C674 H665 0.930 . S
C674 C672 1.378 . S
C674 C675 1.367 . S
C675 C674 1.367 . S
C675 C677 1.433 . S
C676 C672 1.350 . S
C676 C673 1.463 . S
C676 N680 1.427 . S
C677 H667 0.929 . S
C677 C675 1.433 . S
C677 N680 1.384 . S
C678 H669 0.929 . S
C678 C670 1.378 . S
C678 C673 1.350 . S
C679 H666 0.929 . S
C679 C671 1.433 . S
C679 N681 1.384 . S
N680 C676 1.427 . S
N680 C677 1.384 . S
N681 C673 1.427 . S
N681 C679 1.384 . S
H682 C688 0.930 . S
H683 C692 0.930 . S
H684 C697 0.929 . S
H685 C695 0.929 . S
H686 C690 0.929 . S
H687 C696 0.929 . S
C688 H682 0.930 . S
C688 C689 1.367 . S
C688 C696 1.378 . S
C689 C688 1.367 . S
C689 C697 1.433 . S
C690 H686 0.929 . S
C690 C692 1.378 . S
C690 C694 1.350 . S
C691 C694 1.463 . S
C691 C696 1.350 . S
C691 N699 1.427 . S
C692 H683 0.930 . S
C692 C690 1.378 . S
C692 C693 1.367 . S
C693 C692 1.367 . S
C693 C695 1.433 . S
C694 C690 1.350 . S
C694 C691 1.463 . S
C694 N698 1.427 . S
C695 H685 0.929 . S
C695 C693 1.433 . S
C695 N698 1.384 . S
C696 H687 0.929 . S
C696 C688 1.378 . S
C696 C691 1.350 . S
C697 H684 0.929 . S
C697 C689 1.433 . S
C697 N699 1.384 . S
N698 C694 1.427 . S
N698 C695 1.384 . S
N699 C691 1.427 . S
N699 C697 1.384 . S
H700 C706 0.930 . S
H701 C710 0.930 . S
H702 C715 0.929 . S
H703 C713 0.929 . S
H704 C708 0.929 . S
H705 C714 0.929 . S
C706 H700 0.930 . S
C706 C707 1.367 . S
C706 C714 1.378 . S
C707 C706 1.367 . S
C707 C715 1.433 . S
C708 H704 0.929 . S
C708 C710 1.378 . S
C708 C712 1.350 . S
C709 C712 1.463 . S
C709 C714 1.350 . S
C709 N717 1.427 . S
C710 H701 0.930 . S
C710 C708 1.378 . S
C710 C711 1.367 . S
C711 C710 1.367 . S
C711 C713 1.433 . S
C712 C708 1.350 . S
C712 C709 1.463 . S
C712 N716 1.427 . S
C713 H703 0.929 . S
C713 C711 1.433 . S
C713 N716 1.384 . S
C714 H705 0.929 . S
C714 C706 1.378 . S
C714 C709 1.350 . S
C715 H702 0.929 . S
C715 C707 1.433 . S
C715 N717 1.384 . S
N716 C712 1.427 . S
N716 C713 1.384 . S
N717 C709 1.427 . S
N717 C715 1.384 . S
H718 C724 0.930 . S
H719 C728 0.930 . S
H720 C733 0.929 . S
H721 C731 0.929 . S
H722 C726 0.929 . S
H723 C732 0.944 . S
C724 H718 0.930 . S
C724 C725 1.367 . S
C724 C732 1.378 1_556 S
C725 C724 1.367 . S
C725 C733 1.433 . S
C726 H722 0.929 . S
C726 C728 1.378 1_556 S
C726 C730 1.350 1_556 S
C727 C730 1.463 1_456 S
C727 C732 1.350 1_556 S
C727 N735 1.427 . S
C728 H719 0.930 . S
C728 C726 1.378 1_554 S
C728 C729 1.367 . S
C729 C728 1.367 . S
C729 C731 1.433 . S
C730 C726 1.350 1_554 S
C730 C727 1.463 1_654 S
C730 N734 1.427 . S
C731 H721 0.929 . S
C731 C729 1.433 . S
C731 N734 1.384 . S
C732 H723 0.944 . S
C732 C724 1.378 1_554 S
C732 C727 1.350 1_554 S
C733 H720 0.929 . S
C733 C725 1.433 . S
C733 N735 1.384 . S
N734 C730 1.427 . S
N734 C731 1.384 . S
N735 C727 1.427 . S
N735 C733 1.384 . S
H736 C742 0.930 . S
H737 C746 0.930 . S
H738 C751 0.929 . S
H739 C749 0.929 . S
H740 C744 0.929 . S
H741 C750 0.929 . S
C742 H736 0.930 . S
C742 C743 1.367 . S
C742 C750 1.378 . S
C743 C742 1.367 . S
C743 C751 1.433 . S
C744 H740 0.929 . S
C744 C746 1.378 . S
C744 C748 1.350 . S
C745 C748 1.463 . S
C745 C750 1.350 1_565 S
C745 N753 1.427 . S
C746 H737 0.930 . S
C746 C744 1.378 . S
C746 C747 1.367 . S
C747 C746 1.367 . S
C747 C749 1.433 . S
C748 C744 1.350 . S
C748 C745 1.463 . S
C748 N752 1.427 . S
C749 H739 0.929 . S
C749 C747 1.433 . S
C749 N752 1.384 . S
C750 H741 0.929 . S
C750 C742 1.378 . S
C750 C745 1.350 1_545 S
C751 H738 0.929 . S
C751 C743 1.433 . S
C751 N753 1.384 1_545 S
N752 C748 1.427 . S
N752 C749 1.384 . S
N753 C745 1.427 . S
N753 C751 1.384 1_565 S
H754 C760 0.930 . S
H755 C764 0.930 . S
H756 C769 0.929 . S
H757 C767 0.929 . S
H758 C762 0.929 . S
H759 C768 0.929 . S
C760 H754 0.930 . S
C760 C761 1.367 . S
C760 C768 1.378 . S
C761 C760 1.367 . S
C761 C769 1.433 . S
C762 H758 0.929 . S
C762 C764 1.378 . S
C762 C766 1.350 . S
C763 C766 1.463 . S
C763 C768 1.350 . S
C763 N771 1.427 . S
C764 H755 0.930 . S
C764 C762 1.378 . S
C764 C765 1.367 . S
C765 C764 1.367 . S
C765 C767 1.433 . S
C766 C762 1.350 . S
C766 C763 1.463 . S
C766 N770 1.427 . S
C767 H757 0.929 . S
C767 C765 1.433 . S
C767 N770 1.384 . S
C768 H759 0.929 . S
C768 C760 1.378 . S
C768 C763 1.350 . S
C769 H756 0.929 . S
C769 C761 1.433 . S
C769 N771 1.384 . S
N770 C766 1.427 . S
N770 C767 1.384 . S
N771 C763 1.427 . S
N771 C769 1.384 . S
H772 C778 0.930 . S
H773 C782 0.930 . S
H774 C787 0.929 . S
H775 C785 0.929 . S
H776 C780 0.929 . S
H777 C786 0.929 . S
C778 H772 0.930 . S
C778 C779 1.367 . S
C778 C786 1.378 . S
C779 C778 1.367 . S
C779 C787 1.433 . S
C780 H776 0.929 . S
C780 C782 1.378 . S
C780 C784 1.350 . S
C781 C784 1.463 1_545 S
C781 C786 1.350 . S
C781 N789 1.427 1_545 S
C782 H773 0.930 . S
C782 C780 1.378 . S
C782 C783 1.367 . S
C783 C782 1.367 . S
C783 C785 1.433 . S
C784 C780 1.350 . S
C784 C781 1.463 1_565 S
C784 N788 1.427 . S
C785 H775 0.929 . S
C785 C783 1.433 . S
C785 N788 1.384 . S
C786 H777 0.929 . S
C786 C778 1.378 . S
C786 C781 1.350 . S
C787 H774 0.929 . S
C787 C779 1.433 . S
C787 N789 1.384 1_545 S
N788 C784 1.427 . S
N788 C785 1.384 . S
N789 C781 1.427 1_565 S
N789 C787 1.384 1_565 S
H790 C796 0.930 . S
H791 C800 0.930 . S
H792 C805 0.929 . S
H793 C803 0.929 . S
H794 C798 0.929 1_556 S
H795 C804 0.929 . S
C796 H790 0.930 . S
C796 C797 1.367 . S
C796 C804 1.378 . S
C797 C796 1.367 . S
C797 C805 1.433 . S
C798 H794 0.929 1_554 S
C798 C800 1.378 . S
C798 C802 1.350 . S
C799 C802 1.463 1_556 S
C799 C804 1.350 . S
C799 N807 1.427 . S
C800 H791 0.930 . S
C800 C798 1.378 . S
C800 C801 1.367 . S
C801 C800 1.367 . S
C801 C803 1.433 . S
C802 C798 1.350 . S
C802 C799 1.463 1_554 S
C802 N806 1.427 . S
C803 H793 0.929 . S
C803 C801 1.433 . S
C803 N806 1.384 . S
C804 H795 0.929 . S
C804 C796 1.378 . S
C804 C799 1.350 . S
C805 H792 0.929 . S
C805 C797 1.433 . S
C805 N807 1.384 . S
N806 C802 1.427 . S
N806 C803 1.384 . S
N807 C799 1.427 . S
N807 C805 1.384 . S
H808 C814 0.930 . S
H809 C818 0.930 . S
H810 C823 0.929 . S
H811 C821 0.929 . S
H812 C816 0.929 . S
H813 C822 0.929 . S
C814 H808 0.930 . S
C814 C815 1.367 . S
C814 C822 1.378 . S
C815 C814 1.367 . S
C815 C823 1.433 . S
C816 H812 0.929 . S
C816 C818 1.378 . S
C816 C820 1.350 . S
C817 C820 1.463 1_545 S
C817 C822 1.350 . S
C817 N825 1.427 . S
C818 H809 0.930 . S
C818 C816 1.378 . S
C818 C819 1.367 . S
C819 C818 1.367 . S
C819 C821 1.433 . S
C820 C816 1.350 . S
C820 C817 1.463 1_565 S
C820 N824 1.427 1_565 S
C821 H811 0.929 . S
C821 C819 1.433 . S
C821 N824 1.384 1_565 S
C822 H813 0.929 . S
C822 C814 1.378 . S
C822 C817 1.350 . S
C823 H810 0.929 . S
C823 C815 1.433 . S
C823 N825 1.384 . S
N824 C820 1.427 1_545 S
N824 C821 1.384 1_545 S
N825 C817 1.427 . S
N825 C823 1.384 . S
H826 C832 0.930 . S
H827 C836 0.930 . S
H828 C841 0.929 . S
H829 C839 0.929 . S
H830 C834 0.929 . S
H831 C840 0.929 . S
C832 H826 0.930 . S
C832 C833 1.367 . S
C832 C840 1.378 . S
C833 C832 1.367 . S
C833 C841 1.433 . S
C834 H830 0.929 . S
C834 C836 1.378 . S
C834 C838 1.350 . S
C835 C838 1.463 . S
C835 C840 1.350 . S
C835 N843 1.427 . S
C836 H827 0.930 . S
C836 C834 1.378 . S
C836 C837 1.367 . S
C837 C836 1.367 . S
C837 C839 1.433 . S
C838 C834 1.350 . S
C838 C835 1.463 . S
C838 N842 1.427 . S
C839 H829 0.929 . S
C839 C837 1.433 . S
C839 N842 1.384 . S
C840 H831 0.929 . S
C840 C832 1.378 . S
C840 C835 1.350 . S
C841 H828 0.929 . S
C841 C833 1.433 . S
C841 N843 1.384 . S
N842 C838 1.427 . S
N842 C839 1.384 . S
N843 C835 1.427 . S
N843 C841 1.384 . S
H844 C850 0.930 . S
H845 C854 0.930 . S
H846 C859 0.929 . S
H847 C857 0.929 . S
H848 C852 0.929 1_545 S
H849 C858 0.929 . S
C850 H844 0.930 . S
C850 C851 1.367 . S
C850 C858 1.378 1_545 S
C851 C850 1.367 . S
C851 C859 1.433 . S
C852 H848 0.929 1_565 S
C852 C854 1.378 . S
C852 C856 1.350 . S
C853 C856 1.463 1_545 S
C853 C858 1.350 1_545 S
C853 N861 1.427 . S
C854 H845 0.930 . S
C854 C852 1.378 . S
C854 C855 1.367 . S
C855 C854 1.367 . S
C855 C857 1.433 . S
C856 C852 1.350 . S
C856 C853 1.463 1_565 S
C856 N860 1.427 . S
C857 H847 0.929 . S
C857 C855 1.433 . S
C857 N860 1.384 . S
C858 H849 0.929 . S
C858 C850 1.378 1_565 S
C858 C853 1.350 1_565 S
C859 H846 0.929 . S
C859 C851 1.433 . S
C859 N861 1.384 . S
N860 C856 1.427 . S
N860 C857 1.384 . S
N861 C853 1.427 . S
N861 C859 1.384 . S
H862 C868 0.930 . S
H863 C872 0.930 . S
H864 C877 0.929 . S
H865 C875 0.929 . S
H866 C870 0.929 . S
H867 C876 0.929 . S
C868 H862 0.930 . S
C868 C869 1.367 1_554 S
C868 C876 1.378 . S
C869 C868 1.367 1_556 S
C869 C877 1.433 . S
C870 H866 0.929 . S
C870 C872 1.378 . S
C870 C874 1.350 . S
C871 C874 1.463 . S
C871 C876 1.350 . S
C871 N879 1.427 1_554 S
C872 H863 0.930 . S
C872 C870 1.378 . S
C872 C873 1.367 . S
C873 C872 1.367 . S
C873 C875 1.433 . S
C874 C870 1.350 . S
C874 C871 1.463 . S
C874 N878 1.427 . S
C875 H865 0.929 . S
C875 C873 1.433 . S
C875 N878 1.384 . S
C876 H867 0.929 . S
C876 C868 1.378 . S
C876 C871 1.350 . S
C877 H864 0.929 . S
C877 C869 1.433 . S
C877 N879 1.384 . S
N878 C874 1.427 . S
N878 C875 1.384 . S
N879 C871 1.427 1_556 S
N879 C877 1.384 . S
H880 C886 0.930 . S
H881 C890 0.930 . S
H882 C895 0.929 . S
H883 C893 0.929 . S
H884 C888 0.929 . S
H885 C894 0.929 . S
C886 H880 0.930 . S
C886 C887 1.367 . S
C886 C894 1.378 . S
C887 C886 1.367 . S
C887 C895 1.433 . S
C888 H884 0.929 . S
C888 C890 1.378 1_655 S
C888 C892 1.350 . S
C889 C892 1.463 . S
C889 C894 1.350 . S
C889 N897 1.427 . S
C890 H881 0.930 . S
C890 C888 1.378 1_455 S
C890 C891 1.367 . S
C891 C890 1.367 . S
C891 C893 1.433 . S
C892 C888 1.350 . S
C892 C889 1.463 . S
C892 N896 1.427 . S
C893 H883 0.929 . S
C893 C891 1.433 . S
C893 N896 1.384 1_455 S
C894 H885 0.929 . S
C894 C886 1.378 . S
C894 C889 1.350 . S
C895 H882 0.929 . S
C895 C887 1.433 . S
C895 N897 1.384 . S
N896 C892 1.427 . S
N896 C893 1.384 1_655 S
N897 C889 1.427 . S
N897 C895 1.384 . S
H898 C904 0.930 . S
H899 C908 0.930 . S
H900 C913 0.929 . S
H901 C911 0.929 . S
H902 C906 0.929 . S
H903 C912 0.929 . S
C904 H898 0.930 . S
C904 C905 1.367 . S
C904 C912 1.378 . S
C905 C904 1.367 . S
C905 C913 1.433 . S
C906 H902 0.929 . S
C906 C908 1.378 . S
C906 C910 1.350 . S
C907 C910 1.463 . S
C907 C912 1.350 . S
C907 N915 1.427 . S
C908 H899 0.930 . S
C908 C906 1.378 . S
C908 C909 1.367 . S
C909 C908 1.367 . S
C909 C911 1.433 . S
C910 C906 1.350 . S
C910 C907 1.463 . S
C910 N914 1.427 . S
C911 H901 0.929 . S
C911 C909 1.433 . S
C911 N914 1.384 . S
C912 H903 0.929 . S
C912 C904 1.378 . S
C912 C907 1.350 . S
C913 H900 0.929 . S
C913 C905 1.433 . S
C913 N915 1.384 . S
N914 C910 1.427 . S
N914 C911 1.384 . S
N915 C907 1.427 . S
N915 C913 1.384 . S
H916 C922 0.930 . S
H917 C926 0.930 . S
H918 C931 0.929 . S
H919 C929 0.929 . S
H920 C924 0.929 . S
H921 C930 0.924 1_455 S
C922 H916 0.930 . S
C922 C923 1.367 . S
C922 C930 1.378 . S
C923 C922 1.367 . S
C923 C931 1.433 . S
C924 H920 0.929 . S
C924 C926 1.378 . S
C924 C928 1.350 . S
C925 C928 1.463 . S
C925 C930 1.350 1_455 S
C925 N933 1.427 . S
C926 H917 0.930 . S
C926 C924 1.378 . S
C926 C927 1.367 . S
C927 C926 1.367 . S
C927 C929 1.433 . S
C928 C924 1.350 . S
C928 C925 1.463 . S
C928 N932 1.427 . S
C929 H919 0.929 . S
C929 C927 1.433 . S
C929 N932 1.384 . S
C930 H921 0.924 1_655 S
C930 C922 1.378 . S
C930 C925 1.350 1_655 S
C931 H918 0.929 . S
C931 C923 1.433 . S
C931 N933 1.384 1_655 S
N932 C928 1.427 . S
N932 C929 1.384 . S
N933 C925 1.427 . S
N933 C931 1.384 1_455 S
H934 C940 0.930 . S
H935 C944 0.930 . S
H936 C949 0.929 . S
H937 C947 0.929 . S
H938 C942 0.929 . S
H939 C948 0.929 . S
C940 H934 0.930 . S
C940 C941 1.367 . S
C940 C948 1.378 1_655 S
C941 C940 1.367 . S
C941 C949 1.433 . S
C942 H938 0.929 . S
C942 C944 1.378 . S
C942 C946 1.350 . S
C943 C946 1.463 . S
C943 C948 1.350 . S
C943 N951 1.429 1_455 S
C944 H935 0.930 . S
C944 C942 1.378 . S
C944 C945 1.367 . S
C945 C944 1.367 . S
C945 C947 1.433 . S
C946 C942 1.350 . S
C946 C943 1.463 . S
C946 N950 1.427 . S
C947 H937 0.929 . S
C947 C945 1.433 . S
C947 N950 1.384 . S
C948 H939 0.929 . S
C948 C940 1.378 1_455 S
C948 C943 1.350 . S
C949 H936 0.929 . S
C949 C941 1.433 . S
C949 N951 1.381 . S
N950 C946 1.427 . S
N950 C947 1.384 . S
N951 C943 1.429 1_655 S
N951 C949 1.381 . S
H952 C958 0.930 . S
H953 C962 0.930 . S
H954 C967 0.929 . S
H955 C965 0.929 . S
H956 C960 0.929 . S
H957 C966 0.929 . S
C958 H952 0.930 . S
C958 C959 1.367 . S
C958 C966 1.378 . S
C959 C958 1.367 . S
C959 C967 1.433 . S
C960 H956 0.929 . S
C960 C962 1.378 . S
C960 C964 1.350 . S
C961 C964 1.463 . S
C961 C966 1.350 . S
C961 N969 1.427 . S
C962 H953 0.930 . S
C962 C960 1.378 . S
C962 C963 1.367 . S
C963 C962 1.367 . S
C963 C965 1.433 . S
C964 C960 1.350 . S
C964 C961 1.463 . S
C964 N968 1.427 . S
C965 H955 0.929 . S
C965 C963 1.433 . S
C965 N968 1.384 . S
C966 H957 0.929 . S
C966 C958 1.378 . S
C966 C961 1.350 . S
C967 H954 0.929 . S
C967 C959 1.433 . S
C967 N969 1.384 . S
N968 C964 1.427 . S
N968 C965 1.384 . S
N969 C961 1.427 . S
N969 C967 1.384 . S
H970 C976 0.930 . S
H971 C980 0.930 . S
H972 C985 0.929 . S
H973 C983 0.929 . S
H974 C978 0.929 . S
H975 C984 0.929 . S
C976 H970 0.930 . S
C976 C977 1.367 . S
C976 C984 1.378 . S
C977 C976 1.367 . S
C977 C985 1.433 . S
C978 H974 0.929 . S
C978 C980 1.378 1_655 S
C978 C982 1.350 . S
C979 C982 1.463 . S
C979 C984 1.350 . S
C979 N987 1.427 . S
C980 H971 0.930 . S
C980 C978 1.378 1_455 S
C980 C981 1.367 . S
C981 C980 1.367 . S
C981 C983 1.433 . S
C982 C978 1.350 . S
C982 C979 1.463 . S
C982 N986 1.427 1_655 S
C983 H973 0.929 . S
C983 C981 1.433 . S
C983 N986 1.384 . S
C984 H975 0.929 . S
C984 C976 1.378 . S
C984 C979 1.350 . S
C985 H972 0.929 . S
C985 C977 1.433 . S
C985 N987 1.384 . S
N986 C982 1.427 1_455 S
N986 C983 1.384 . S
N987 C979 1.427 . S
N987 C985 1.384 . S
H988 C994 0.930 . S
H989 C998 0.930 . S
H990 C1003 0.929 . S
H991 C1001 0.929 . S
H992 C996 0.929 . S
H993 C1002 0.929 . S
C994 H988 0.930 . S
C994 C995 1.367 . S
C994 C1002 1.378 . S
C995 C994 1.367 . S
C995 C1003 1.433 . S
C996 H992 0.929 . S
C996 C998 1.378 . S
C996 C1000 1.350 . S
C997 C1000 1.463 . S
C997 C1002 1.350 . S
C997 N1005 1.427 . S
C998 H989 0.930 . S
C998 C996 1.378 . S
C998 C999 1.367 . S
C999 C998 1.367 . S
C999 C1001 1.433 . S
C1000 C996 1.350 . S
C1000 C997 1.463 . S
C1000 N1004 1.427 . S
C1001 H991 0.929 . S
C1001 C999 1.433 . S
C1001 N1004 1.384 . S
C1002 H993 0.929 . S
C1002 C994 1.378 . S
C1002 C997 1.350 . S
C1003 H990 0.929 . S
C1003 C995 1.433 . S
C1003 N1005 1.384 . S
N1004 C1000 1.427 . S
N1004 C1001 1.384 . S
N1005 C997 1.427 . S
N1005 C1003 1.384 . S
H1006 C1012 0.930 . S
H1007 C1016 0.930 . S
H1008 C1021 0.929 . S
H1009 C1019 0.929 . S
H1010 C1014 0.929 . S
H1011 C1020 0.929 . S
C1012 H1006 0.930 . S
C1012 C1013 1.367 . S
C1012 C1020 1.378 . S
C1013 C1012 1.367 . S
C1013 C1021 1.433 . S
C1014 H1010 0.929 . S
C1014 C1016 1.378 . S
C1014 C1018 1.350 1_565 S
C1015 C1018 1.463 . S
C1015 C1020 1.350 . S
C1015 N1023 1.427 . S
C1016 H1007 0.930 . S
C1016 C1014 1.378 . S
C1016 C1017 1.367 . S
C1017 C1016 1.367 . S
C1017 C1019 1.433 . S
C1018 C1014 1.350 1_545 S
C1018 C1015 1.463 . S
C1018 N1022 1.427 . S
C1019 H1009 0.929 . S
C1019 C1017 1.433 . S
C1019 N1022 1.384 1_565 S
C1020 H1011 0.929 . S
C1020 C1012 1.378 . S
C1020 C1015 1.350 . S
C1021 H1008 0.929 . S
C1021 C1013 1.433 . S
C1021 N1023 1.384 . S
N1022 C1018 1.427 . S
N1022 C1019 1.384 1_545 S
N1023 C1015 1.427 . S
N1023 C1021 1.384 . S
H1024 C1030 0.930 . S
H1025 C1034 0.930 . S
H1026 C1039 0.929 . S
H1027 C1037 0.929 . S
H1028 C1032 0.929 . S
H1029 C1038 0.929 . S
C1030 H1024 0.930 . S
C1030 C1031 1.367 . S
C1030 C1038 1.378 . S
C1031 C1030 1.367 . S
C1031 C1039 1.433 . S
C1032 H1028 0.929 . S
C1032 C1034 1.378 . S
C1032 C1036 1.350 . S
C1033 C1036 1.463 . S
C1033 C1038 1.350 . S
C1033 N1041 1.427 . S
C1034 H1025 0.930 . S
C1034 C1032 1.378 . S
C1034 C1035 1.367 . S
C1035 C1034 1.367 . S
C1035 C1037 1.433 . S
C1036 C1032 1.350 . S
C1036 C1033 1.463 . S
C1036 N1040 1.427 . S
C1037 H1027 0.929 . S
C1037 C1035 1.433 . S
C1037 N1040 1.384 . S
C1038 H1029 0.929 . S
C1038 C1030 1.378 . S
C1038 C1033 1.350 . S
C1039 H1026 0.929 . S
C1039 C1031 1.433 . S
C1039 N1041 1.384 . S
N1040 C1036 1.427 . S
N1040 C1037 1.384 . S
N1041 C1033 1.427 . S
N1041 C1039 1.384 . S
H1042 C1048 0.930 . S
H1043 C1052 0.930 . S
H1044 C1057 0.929 . S
H1045 C1055 0.929 . S
H1046 C1050 0.929 . S
H1047 C1056 0.929 . S
C1048 H1042 0.930 . S
C1048 C1049 1.367 . S
C1048 C1056 1.378 . S
C1049 C1048 1.367 . S
C1049 C1057 1.433 . S
C1050 H1046 0.929 . S
C1050 C1052 1.378 . S
C1050 C1054 1.350 . S
C1051 C1054 1.463 1_565 S
C1051 C1056 1.350 . S
C1051 N1059 1.427 1_565 S
C1052 H1043 0.930 . S
C1052 C1050 1.378 . S
C1052 C1053 1.367 . S
C1053 C1052 1.367 . S
C1053 C1055 1.433 . S
C1054 C1050 1.350 . S
C1054 C1051 1.463 1_545 S
C1054 N1058 1.427 . S
C1055 H1045 0.929 . S
C1055 C1053 1.433 . S
C1055 N1058 1.384 . S
C1056 H1047 0.929 . S
C1056 C1048 1.378 . S
C1056 C1051 1.350 . S
C1057 H1044 0.929 . S
C1057 C1049 1.433 . S
C1057 N1059 1.384 1_565 S
N1058 C1054 1.427 . S
N1058 C1055 1.384 . S
N1059 C1051 1.427 1_545 S
N1059 C1057 1.384 1_545 S
H1060 C1066 0.930 . S
H1061 C1070 0.930 . S
H1062 C1075 0.929 . S
H1063 C1073 0.929 . S
H1064 C1068 0.929 1_556 S
H1065 C1074 0.929 . S
C1066 H1060 0.930 . S
C1066 C1067 1.367 . S
C1066 C1074 1.378 1_556 S
C1067 C1066 1.367 . S
C1067 C1075 1.433 . S
C1068 H1064 0.929 1_554 S
C1068 C1070 1.378 . S
C1068 C1072 1.350 . S
C1069 C1072 1.463 1_556 S
C1069 C1074 1.350 1_556 S
C1069 N1077 1.427 . S
C1070 H1061 0.930 . S
C1070 C1068 1.378 . S
C1070 C1071 1.367 . S
C1071 C1070 1.367 . S
C1071 C1073 1.433 . S
C1072 C1068 1.350 . S
C1072 C1069 1.463 1_554 S
C1072 N1076 1.427 . S
C1073 H1063 0.929 . S
C1073 C1071 1.433 . S
C1073 N1076 1.384 . S
C1074 H1065 0.929 . S
C1074 C1066 1.378 1_554 S
C1074 C1069 1.350 1_554 S
C1075 H1062 0.929 . S
C1075 C1067 1.433 . S
C1075 N1077 1.384 . S
N1076 C1072 1.427 . S
N1076 C1073 1.384 . S
N1077 C1069 1.427 . S
N1077 C1075 1.384 . S
H1078 C1084 0.930 . S
H1079 C1088 0.930 . S
H1080 C1093 0.929 . S
H1081 C1091 0.929 . S
H1082 C1086 0.929 1_545 S
H1083 C1092 0.929 . S
C1084 H1078 0.930 . S
C1084 C1085 1.367 . S
C1084 C1092 1.378 1_545 S
C1085 C1084 1.367 . S
C1085 C1093 1.433 . S
C1086 H1082 0.929 1_565 S
C1086 C1088 1.378 . S
C1086 C1090 1.350 . S
C1087 C1090 1.463 1_545 S
C1087 C1092 1.350 1_545 S
C1087 N1095 1.427 . S
C1088 H1079 0.930 . S
C1088 C1086 1.378 . S
C1088 C1089 1.367 . S
C1089 C1088 1.367 . S
C1089 C1091 1.433 . S
C1090 C1086 1.350 . S
C1090 C1087 1.463 1_565 S
C1090 N1094 1.427 . S
C1091 H1081 0.929 . S
C1091 C1089 1.433 . S
C1091 N1094 1.384 . S
C1092 H1083 0.929 . S
C1092 C1084 1.378 1_565 S
C1092 C1087 1.350 1_565 S
C1093 H1080 0.929 . S
C1093 C1085 1.433 . S
C1093 N1095 1.384 . S
N1094 C1090 1.427 . S
N1094 C1091 1.384 . S
N1095 C1087 1.427 . S
N1095 C1093 1.384 . S
H1096 C1102 0.930 . S
H1097 C1106 0.930 . S
H1098 C1111 0.929 . S
H1099 C1109 0.929 . S
H1100 C1104 0.929 . S
H1101 C1110 0.929 . S
C1102 H1096 0.930 . S
C1102 C1103 1.367 . S
C1102 C1110 1.378 . S
C1103 C1102 1.367 . S
C1103 C1111 1.433 . S
C1104 H1100 0.929 . S
C1104 C1106 1.378 . S
C1104 C1108 1.350 . S
C1105 C1108 1.463 . S
C1105 C1110 1.350 . S
C1105 N1113 1.427 . S
C1106 H1097 0.930 . S
C1106 C1104 1.378 . S
C1106 C1107 1.367 . S
C1107 C1106 1.367 . S
C1107 C1109 1.433 . S
C1108 C1104 1.350 . S
C1108 C1105 1.463 . S
C1108 N1112 1.427 . S
C1109 H1099 0.929 . S
C1109 C1107 1.433 . S
C1109 N1112 1.384 . S
C1110 H1101 0.929 . S
C1110 C1102 1.378 . S
C1110 C1105 1.350 . S
C1111 H1098 0.929 . S
C1111 C1103 1.433 . S
C1111 N1113 1.384 . S
N1112 C1108 1.427 . S
N1112 C1109 1.384 . S
N1113 C1105 1.427 . S
N1113 C1111 1.384 . S
H1114 C1120 0.930 . S
H1115 C1124 0.930 . S
H1116 C1129 0.929 . S
H1117 C1127 0.929 . S
H1118 C1122 0.936 . S
H1119 C1128 0.929 . S
C1120 H1114 0.930 . S
C1120 C1121 1.367 . S
C1120 C1128 1.378 1_565 S
C1121 C1120 1.367 . S
C1121 C1129 1.433 . S
C1122 H1118 0.936 . S
C1122 C1124 1.378 . S
C1122 C1126 1.350 . S
C1123 C1126 1.478 . S
C1123 C1128 1.356 . S
C1123 N1131 1.405 1_545 S
C1124 H1115 0.930 . S
C1124 C1122 1.378 . S
C1124 C1125 1.367 . S
C1125 C1124 1.367 . S
C1125 C1127 1.433 . S
C1126 C1122 1.350 . S
C1126 C1123 1.478 . S
C1126 N1130 1.427 . S
C1127 H1117 0.929 . S
C1127 C1125 1.433 . S
C1127 N1130 1.384 . S
C1128 H1119 0.929 . S
C1128 C1120 1.378 1_545 S
C1128 C1123 1.356 . S
C1129 H1116 0.929 . S
C1129 C1121 1.433 . S
C1129 N1131 1.384 . S
N1130 C1126 1.427 . S
N1130 C1127 1.384 . S
N1131 C1123 1.405 1_565 S
N1131 C1129 1.384 . S
H1132 C1138 0.930 . S
H1133 C1142 0.930 . S
H1134 C1147 0.929 . S
H1135 C1145 0.929 . S
H1136 C1140 0.929 . S
H1137 C1146 0.929 . S
C1138 H1132 0.930 . S
C1138 C1139 1.367 . S
C1138 C1146 1.378 1_554 S
C1139 C1138 1.367 . S
C1139 C1147 1.433 . S
C1140 H1136 0.929 . S
C1140 C1142 1.378 . S
C1140 C1144 1.350 . S
C1141 C1144 1.463 . S
C1141 C1146 1.350 . S
C1141 N1149 1.427 1_556 S
C1142 H1133 0.930 . S
C1142 C1140 1.378 . S
C1142 C1143 1.367 . S
C1143 C1142 1.367 . S
C1143 C1145 1.433 . S
C1144 C1140 1.350 . S
C1144 C1141 1.463 . S
C1144 N1148 1.427 . S
C1145 H1135 0.929 . S
C1145 C1143 1.433 . S
C1145 N1148 1.384 . S
C1146 H1137 0.929 . S
C1146 C1138 1.378 1_556 S
C1146 C1141 1.350 . S
C1147 H1134 0.929 . S
C1147 C1139 1.433 . S
C1147 N1149 1.384 . S
N1148 C1144 1.427 . S
N1148 C1145 1.384 . S
N1149 C1141 1.427 1_554 S
N1149 C1147 1.384 . S
H1150 C1156 0.925 1_655 S
H1151 C1160 0.930 . S
H1152 C1165 0.929 . S
H1153 C1163 0.929 . S
H1154 C1158 0.929 . S
H1155 C1164 0.929 . S
C1156 H1150 0.925 1_455 S
C1156 C1157 1.367 1_455 S
C1156 C1164 1.378 . S
C1157 C1156 1.367 1_655 S
C1157 C1165 1.433 . S
C1158 H1154 0.929 . S
C1158 C1160 1.378 . S
C1158 C1162 1.350 . S
C1159 C1162 1.463 . S
C1159 C1164 1.350 . S
C1159 N1167 1.427 . S
C1160 H1151 0.930 . S
C1160 C1158 1.378 . S
C1160 C1161 1.367 . S
C1161 C1160 1.367 . S
C1161 C1163 1.433 . S
C1162 C1158 1.350 . S
C1162 C1159 1.463 . S
C1162 N1166 1.427 . S
C1163 H1153 0.929 . S
C1163 C1161 1.433 . S
C1163 N1166 1.384 . S
C1164 H1155 0.929 . S
C1164 C1156 1.378 . S
C1164 C1159 1.350 . S
C1165 H1152 0.929 . S
C1165 C1157 1.433 . S
C1165 N1167 1.384 1_655 S
N1166 C1162 1.427 . S
N1166 C1163 1.384 . S
N1167 C1159 1.427 . S
N1167 C1165 1.384 1_455 S
H1168 C1174 0.930 . S
H1169 C1178 0.930 . S
H1170 C1183 0.929 . S
H1171 C1181 0.929 . S
H1172 C1176 0.929 . S
H1173 C1182 0.929 . S
C1174 H1168 0.930 . S
C1174 C1175 1.367 . S
C1174 C1182 1.378 . S
C1175 C1174 1.367 . S
C1175 C1183 1.433 . S
C1176 H1172 0.929 . S
C1176 C1178 1.378 . S
C1176 C1180 1.350 . S
C1177 C1180 1.463 . S
C1177 C1182 1.350 . S
C1177 N1185 1.427 . S
C1178 H1169 0.930 . S
C1178 C1176 1.378 . S
C1178 C1179 1.367 . S
C1179 C1178 1.367 . S
C1179 C1181 1.433 . S
C1180 C1176 1.350 . S
C1180 C1177 1.463 . S
C1180 N1184 1.427 . S
C1181 H1171 0.929 . S
C1181 C1179 1.433 . S
C1181 N1184 1.384 . S
C1182 H1173 0.929 . S
C1182 C1174 1.378 . S
C1182 C1177 1.350 . S
C1183 H1170 0.929 . S
C1183 C1175 1.433 . S
C1183 N1185 1.384 . S
N1184 C1180 1.427 . S
N1184 C1181 1.384 . S
N1185 C1177 1.427 . S
N1185 C1183 1.384 . S
H1186 C1192 0.926 1_455 S
H1187 C1196 0.930 . S
H1188 C1201 0.929 . S
H1189 C1199 0.929 . S
H1190 C1194 0.929 . S
H1191 C1200 0.929 . S
C1192 H1186 0.926 1_655 S
C1192 C1193 1.344 1_655 S
C1192 C1200 1.406 . S
C1193 C1192 1.344 1_455 S
C1193 C1201 1.433 . S
C1194 H1190 0.929 . S
C1194 C1196 1.378 . S
C1194 C1198 1.350 . S
C1195 C1198 1.463 . S
C1195 C1200 1.350 . S
C1195 N1203 1.427 . S
C1196 H1187 0.930 . S
C1196 C1194 1.378 . S
C1196 C1197 1.367 . S
C1197 C1196 1.367 . S
C1197 C1199 1.433 . S
C1198 C1194 1.350 . S
C1198 C1195 1.463 . S
C1198 N1202 1.427 . S
C1199 H1189 0.929 . S
C1199 C1197 1.433 . S
C1199 N1202 1.384 . S
C1200 H1191 0.929 . S
C1200 C1192 1.406 . S
C1200 C1195 1.350 . S
C1201 H1188 0.929 . S
C1201 C1193 1.433 . S
C1201 N1203 1.384 1_455 S
N1202 C1198 1.427 . S
N1202 C1199 1.384 . S
N1203 C1195 1.427 . S
N1203 C1201 1.384 1_655 S
H1204 C1210 0.930 . S
H1205 C1214 0.930 . S
H1206 C1219 0.929 . S
H1207 C1217 0.929 . S
H1208 C1212 0.929 . S
H1209 C1218 0.929 . S
C1210 H1204 0.930 . S
C1210 C1211 1.367 1_655 S
C1210 C1218 1.378 . S
C1211 C1210 1.367 1_455 S
C1211 C1219 1.433 . S
C1212 H1208 0.929 . S
C1212 C1214 1.378 . S
C1212 C1216 1.350 . S
C1213 C1216 1.463 . S
C1213 C1218 1.350 . S
C1213 N1221 1.427 1_655 S
C1214 H1205 0.930 . S
C1214 C1212 1.378 . S
C1214 C1215 1.367 . S
C1215 C1214 1.367 . S
C1215 C1217 1.433 . S
C1216 C1212 1.350 . S
C1216 C1213 1.463 . S
C1216 N1220 1.427 . S
C1217 H1207 0.929 . S
C1217 C1215 1.433 . S
C1217 N1220 1.384 . S
C1218 H1209 0.929 . S
C1218 C1210 1.378 . S
C1218 C1213 1.350 . S
C1219 H1206 0.929 . S
C1219 C1211 1.433 . S
C1219 N1221 1.384 . S
N1220 C1216 1.427 . S
N1220 C1217 1.384 . S
N1221 C1213 1.427 1_455 S
N1221 C1219 1.384 . S
H1222 C1228 0.930 . S
H1223 C1232 0.930 . S
H1224 C1237 0.929 . S
H1225 C1235 0.929 . S
H1226 C1230 0.929 . S
H1227 C1236 0.929 . S
C1228 H1222 0.930 . S
C1228 C1229 1.367 . S
C1228 C1236 1.378 . S
C1229 C1228 1.367 . S
C1229 C1237 1.433 . S
C1230 H1226 0.929 . S
C1230 C1232 1.378 . S
C1230 C1234 1.350 . S
C1231 C1234 1.463 . S
C1231 C1236 1.350 . S
C1231 N1239 1.427 . S
C1232 H1223 0.930 . S
C1232 C1230 1.378 . S
C1232 C1233 1.367 . S
C1233 C1232 1.367 . S
C1233 C1235 1.433 . S
C1234 C1230 1.350 . S
C1234 C1231 1.463 . S
C1234 N1238 1.427 . S
C1235 H1225 0.929 . S
C1235 C1233 1.433 . S
C1235 N1238 1.384 . S
C1236 H1227 0.929 . S
C1236 C1228 1.378 . S
C1236 C1231 1.350 . S
C1237 H1224 0.929 . S
C1237 C1229 1.433 . S
C1237 N1239 1.384 . S
N1238 C1234 1.427 . S
N1238 C1235 1.384 . S
N1239 C1231 1.427 . S
N1239 C1237 1.384 . S
H1240 C1246 0.930 . S
H1241 C1250 0.930 . S
H1242 C1255 0.929 . S
H1243 C1253 0.929 . S
H1244 C1248 0.929 . S
H1245 C1254 0.929 . S
C1246 H1240 0.930 . S
C1246 C1247 1.367 . S
C1246 C1254 1.378 1_655 S
C1247 C1246 1.367 . S
C1247 C1255 1.433 . S
C1248 H1244 0.929 . S
C1248 C1250 1.378 . S
C1248 C1252 1.350 . S
C1249 C1252 1.463 . S
C1249 C1254 1.350 . S
C1249 N1257 1.427 1_455 S
C1250 H1241 0.930 . S
C1250 C1248 1.378 . S
C1250 C1251 1.367 . S
C1251 C1250 1.367 . S
C1251 C1253 1.433 . S
C1252 C1248 1.350 . S
C1252 C1249 1.463 . S
C1252 N1256 1.427 . S
C1253 H1243 0.929 . S
C1253 C1251 1.433 . S
C1253 N1256 1.384 . S
C1254 H1245 0.929 . S
C1254 C1246 1.378 1_455 S
C1254 C1249 1.350 . S
C1255 H1242 0.929 . S
C1255 C1247 1.433 . S
C1255 N1257 1.384 . S
N1256 C1252 1.427 . S
N1256 C1253 1.384 . S
N1257 C1249 1.427 1_655 S
N1257 C1255 1.384 . S
H1258 C1264 0.930 . S
H1259 C1268 0.930 . S
H1260 C1273 0.929 . S
H1261 C1271 0.929 . S
H1262 C1266 0.929 . S
H1263 C1272 0.929 . S
C1264 H1258 0.930 . S
C1264 C1265 1.367 . S
C1264 C1272 1.378 . S
C1265 C1264 1.367 . S
C1265 C1273 1.433 . S
C1266 H1262 0.929 . S
C1266 C1268 1.378 . S
C1266 C1270 1.350 . S
C1267 C1270 1.463 . S
C1267 C1272 1.350 . S
C1267 N1275 1.427 . S
C1268 H1259 0.930 . S
C1268 C1266 1.378 . S
C1268 C1269 1.367 . S
C1269 C1268 1.367 . S
C1269 C1271 1.433 . S
C1270 C1266 1.350 . S
C1270 C1267 1.463 . S
C1270 N1274 1.427 . S
C1271 H1261 0.929 . S
C1271 C1269 1.433 . S
C1271 N1274 1.384 . S
C1272 H1263 0.929 . S
C1272 C1264 1.378 . S
C1272 C1267 1.350 . S
C1273 H1260 0.929 . S
C1273 C1265 1.433 . S
C1273 N1275 1.384 . S
N1274 C1270 1.427 . S
N1274 C1271 1.384 . S
N1275 C1267 1.427 . S
N1275 C1273 1.384 . S
H1276 C1282 0.930 . S
H1277 C1286 0.930 . S
H1278 C1291 0.929 . S
H1279 C1289 0.929 . S
H1280 C1284 0.929 . S
H1281 C1290 0.929 . S
C1282 H1276 0.930 . S
C1282 C1283 1.367 . S
C1282 C1290 1.378 . S
C1283 C1282 1.367 . S
C1283 C1291 1.433 . S
C1284 H1280 0.929 . S
C1284 C1286 1.378 . S
C1284 C1288 1.350 . S
C1285 C1288 1.463 . S
C1285 C1290 1.350 . S
C1285 N1293 1.427 . S
C1286 H1277 0.930 . S
C1286 C1284 1.378 . S
C1286 C1287 1.367 . S
C1287 C1286 1.367 . S
C1287 C1289 1.433 . S
C1288 C1284 1.350 . S
C1288 C1285 1.463 . S
C1288 N1292 1.427 . S
C1289 H1279 0.929 . S
C1289 C1287 1.433 . S
C1289 N1292 1.384 . S
C1290 H1281 0.929 . S
C1290 C1282 1.378 . S
C1290 C1285 1.350 . S
C1291 H1278 0.929 . S
C1291 C1283 1.433 . S
C1291 N1293 1.384 . S
N1292 C1288 1.427 . S
N1292 C1289 1.384 . S
N1293 C1285 1.427 . S
N1293 C1291 1.384 . S
H1294 C1300 0.930 . S
H1295 C1304 0.930 . S
H1296 C1309 0.929 . S
H1297 C1307 0.929 . S
H1298 C1302 0.929 . S
H1299 C1308 0.943 . S
C1300 H1294 0.930 . S
C1300 C1301 1.367 . S
C1300 C1308 1.369 1_554 S
C1301 C1300 1.367 . S
C1301 C1309 1.433 . S
C1302 H1298 0.929 . S
C1302 C1304 1.378 1_554 S
C1302 C1306 1.350 1_554 S
C1303 C1306 1.463 1_554 S
C1303 C1308 1.344 1_554 S
C1303 N1311 1.427 . S
C1304 H1295 0.930 . S
C1304 C1302 1.378 1_556 S
C1304 C1305 1.367 . S
C1305 C1304 1.367 . S
C1305 C1307 1.433 . S
C1306 C1302 1.350 1_556 S
C1306 C1303 1.463 1_556 S
C1306 N1310 1.427 . S
C1307 H1297 0.929 . S
C1307 C1305 1.433 . S
C1307 N1310 1.384 . S
C1308 H1299 0.943 . S
C1308 C1300 1.369 1_556 S
C1308 C1303 1.344 1_556 S
C1309 H1296 0.929 . S
C1309 C1301 1.433 . S
C1309 N1311 1.384 . S
N1310 C1306 1.427 . S
N1310 C1307 1.384 . S
N1311 C1303 1.427 . S
N1311 C1309 1.384 . S
H1312 C1318 0.930 . S
H1313 C1322 0.930 . S
H1314 C1327 0.929 . S
H1315 C1325 0.929 . S
H1316 C1320 0.929 . S
H1317 C1326 0.929 . S
C1318 H1312 0.930 . S
C1318 C1319 1.367 . S
C1318 C1326 1.378 . S
C1319 C1318 1.367 . S
C1319 C1327 1.433 . S
C1320 H1316 0.929 . S
C1320 C1322 1.378 . S
C1320 C1324 1.350 . S
C1321 C1324 1.463 . S
C1321 C1326 1.350 . S
C1321 N1329 1.427 . S
C1322 H1313 0.930 . S
C1322 C1320 1.378 . S
C1322 C1323 1.367 . S
C1323 C1322 1.367 . S
C1323 C1325 1.433 . S
C1324 C1320 1.350 . S
C1324 C1321 1.463 . S
C1324 N1328 1.427 . S
C1325 H1315 0.929 . S
C1325 C1323 1.433 . S
C1325 N1328 1.384 . S
C1326 H1317 0.929 . S
C1326 C1318 1.378 . S
C1326 C1321 1.350 . S
C1327 H1314 0.929 . S
C1327 C1319 1.433 . S
C1327 N1329 1.384 . S
N1328 C1324 1.427 . S
N1328 C1325 1.384 . S
N1329 C1321 1.427 . S
N1329 C1327 1.384 . S
H1330 C1336 0.930 . S
H1331 C1340 0.930 . S
H1332 C1345 0.929 . S
H1333 C1343 0.929 . S
H1334 C1338 0.929 . S
H1335 C1344 0.929 . S
C1336 H1330 0.930 . S
C1336 C1337 1.367 . S
C1336 C1344 1.378 . S
C1337 C1336 1.367 . S
C1337 C1345 1.433 . S
C1338 H1334 0.929 . S
C1338 C1340 1.378 . S
C1338 C1342 1.350 . S
C1339 C1342 1.463 . S
C1339 C1344 1.350 . S
C1339 N1347 1.427 . S
C1340 H1331 0.930 . S
C1340 C1338 1.378 . S
C1340 C1341 1.367 . S
C1341 C1340 1.367 . S
C1341 C1343 1.433 . S
C1342 C1338 1.350 . S
C1342 C1339 1.463 . S
C1342 N1346 1.427 . S
C1343 H1333 0.929 . S
C1343 C1341 1.433 . S
C1343 N1346 1.384 . S
C1344 H1335 0.929 . S
C1344 C1336 1.378 . S
C1344 C1339 1.350 . S
C1345 H1332 0.929 . S
C1345 C1337 1.433 . S
C1345 N1347 1.384 . S
N1346 C1342 1.427 . S
N1346 C1343 1.384 . S
N1347 C1339 1.427 . S
N1347 C1345 1.384 . S
H1348 C1354 0.930 . S
H1349 C1358 0.930 . S
H1350 C1363 0.929 . S
H1351 C1361 0.929 . S
H1352 C1356 0.929 . S
H1353 C1362 0.929 . S
C1354 H1348 0.930 . S
C1354 C1355 1.367 . S
C1354 C1362 1.378 . S
C1355 C1354 1.367 . S
C1355 C1363 1.433 . S
C1356 H1352 0.929 . S
C1356 C1358 1.378 . S
C1356 C1360 1.350 . S
C1357 C1360 1.463 . S
C1357 C1362 1.350 . S
C1357 N1365 1.427 . S
C1358 H1349 0.930 . S
C1358 C1356 1.378 . S
C1358 C1359 1.367 . S
C1359 C1358 1.367 . S
C1359 C1361 1.433 . S
C1360 C1356 1.350 . S
C1360 C1357 1.463 . S
C1360 N1364 1.427 . S
C1361 H1351 0.929 . S
C1361 C1359 1.433 . S
C1361 N1364 1.384 . S
C1362 H1353 0.929 . S
C1362 C1354 1.378 . S
C1362 C1357 1.350 . S
C1363 H1350 0.929 . S
C1363 C1355 1.433 . S
C1363 N1365 1.384 . S
N1364 C1360 1.427 . S
N1364 C1361 1.384 . S
N1365 C1357 1.427 . S
N1365 C1363 1.384 . S
H1366 C1372 0.930 . S
H1367 C1376 0.930 . S
H1368 C1381 0.929 . S
H1369 C1379 0.929 . S
H1370 C1374 0.929 . S
H1371 C1380 0.929 . S
C1372 H1366 0.930 . S
C1372 C1373 1.367 . S
C1372 C1380 1.378 . S
C1373 C1372 1.367 . S
C1373 C1381 1.433 . S
C1374 H1370 0.929 . S
C1374 C1376 1.378 1_554 S
C1374 C1378 1.350 . S
C1375 C1378 1.463 . S
C1375 C1380 1.350 . S
C1375 N1383 1.427 . S
C1376 H1367 0.930 . S
C1376 C1374 1.378 1_556 S
C1376 C1377 1.367 . S
C1377 C1376 1.367 . S
C1377 C1379 1.433 . S
C1378 C1374 1.350 . S
C1378 C1375 1.463 . S
C1378 N1382 1.427 1_554 S
C1379 H1369 0.929 . S
C1379 C1377 1.433 . S
C1379 N1382 1.384 . S
C1380 H1371 0.929 . S
C1380 C1372 1.378 . S
C1380 C1375 1.350 . S
C1381 H1368 0.929 . S
C1381 C1373 1.433 . S
C1381 N1383 1.384 . S
N1382 C1378 1.427 1_556 S
N1382 C1379 1.384 . S
N1383 C1375 1.427 . S
N1383 C1381 1.384 . S
H1384 C1390 0.930 . S
H1385 C1394 0.930 . S
H1386 C1399 0.929 . S
H1387 C1397 0.929 . S
H1388 C1392 0.929 . S
H1389 C1398 0.929 . S
C1390 H1384 0.930 . S
C1390 C1391 1.367 . S
C1390 C1398 1.378 . S
C1391 C1390 1.367 . S
C1391 C1399 1.433 . S
C1392 H1388 0.929 . S
C1392 C1394 1.378 . S
C1392 C1396 1.350 . S
C1393 C1396 1.463 . S
C1393 C1398 1.350 . S
C1393 N1401 1.427 . S
C1394 H1385 0.930 . S
C1394 C1392 1.378 . S
C1394 C1395 1.367 . S
C1395 C1394 1.367 . S
C1395 C1397 1.433 . S
C1396 C1392 1.350 . S
C1396 C1393 1.463 . S
C1396 N1400 1.427 . S
C1397 H1387 0.929 . S
C1397 C1395 1.433 . S
C1397 N1400 1.384 . S
C1398 H1389 0.929 . S
C1398 C1390 1.378 . S
C1398 C1393 1.350 . S
C1399 H1386 0.929 . S
C1399 C1391 1.433 . S
C1399 N1401 1.384 . S
N1400 C1396 1.427 . S
N1400 C1397 1.384 . S
N1401 C1393 1.427 . S
N1401 C1399 1.384 . S
H1402 C1408 0.930 . S
H1403 C1412 0.930 . S
H1404 C1417 0.929 . S
H1405 C1415 0.929 . S
H1406 C1410 0.929 . S
H1407 C1416 0.929 . S
C1408 H1402 0.930 . S
C1408 C1409 1.367 . S
C1408 C1416 1.378 . S
C1409 C1408 1.367 . S
C1409 C1417 1.433 . S
C1410 H1406 0.929 . S
C1410 C1412 1.378 . S
C1410 C1414 1.350 . S
C1411 C1414 1.463 . S
C1411 C1416 1.350 . S
C1411 N1419 1.427 . S
C1412 H1403 0.930 . S
C1412 C1410 1.378 . S
C1412 C1413 1.367 . S
C1413 C1412 1.367 . S
C1413 C1415 1.433 . S
C1414 C1410 1.350 . S
C1414 C1411 1.463 . S
C1414 N1418 1.427 . S
C1415 H1405 0.929 . S
C1415 C1413 1.433 . S
C1415 N1418 1.384 . S
C1416 H1407 0.929 . S
C1416 C1408 1.378 . S
C1416 C1411 1.350 . S
C1417 H1404 0.929 . S
C1417 C1409 1.433 . S
C1417 N1419 1.384 . S
N1418 C1414 1.427 . S
N1418 C1415 1.384 . S
N1419 C1411 1.427 . S
N1419 C1417 1.384 . S
H1420 C1426 0.930 . S
H1421 C1430 0.930 . S
H1422 C1435 0.929 . S
H1423 C1433 0.929 . S
H1424 C1428 0.929 . S
H1425 C1434 0.929 . S
C1426 H1420 0.930 . S
C1426 C1427 1.367 . S
C1426 C1434 1.378 . S
C1427 C1426 1.367 . S
C1427 C1435 1.433 . S
C1428 H1424 0.929 . S
C1428 C1430 1.378 . S
C1428 C1432 1.350 . S
C1429 C1432 1.463 . S
C1429 C1434 1.350 . S
C1429 N1437 1.427 . S
C1430 H1421 0.930 . S
C1430 C1428 1.378 . S
C1430 C1431 1.367 . S
C1431 C1430 1.367 . S
C1431 C1433 1.433 . S
C1432 C1428 1.350 . S
C1432 C1429 1.463 . S
C1432 N1436 1.427 . S
C1433 H1423 0.929 . S
C1433 C1431 1.433 . S
C1433 N1436 1.384 . S
C1434 H1425 0.929 . S
C1434 C1426 1.378 . S
C1434 C1429 1.350 . S
C1435 H1422 0.929 . S
C1435 C1427 1.433 . S
C1435 N1437 1.384 . S
N1436 C1432 1.427 . S
N1436 C1433 1.384 . S
N1437 C1429 1.427 . S
N1437 C1435 1.384 . S
H1438 C1444 0.930 . S
H1439 C1448 0.930 . S
H1440 C1453 0.929 . S
H1441 C1451 0.929 . S
H1442 C1446 0.929 . S
H1443 C1452 0.929 . S
C1444 H1438 0.930 . S
C1444 C1445 1.367 . S
C1444 C1452 1.378 . S
C1445 C1444 1.367 . S
C1445 C1453 1.433 . S
C1446 H1442 0.929 . S
C1446 C1448 1.378 . S
C1446 C1450 1.350 . S
C1447 C1450 1.463 . S
C1447 C1452 1.350 . S
C1447 N1455 1.427 . S
C1448 H1439 0.930 . S
C1448 C1446 1.378 . S
C1448 C1449 1.367 . S
C1449 C1448 1.367 . S
C1449 C1451 1.433 . S
C1450 C1446 1.350 . S
C1450 C1447 1.463 . S
C1450 N1454 1.427 . S
C1451 H1441 0.929 . S
C1451 C1449 1.433 . S
C1451 N1454 1.384 . S
C1452 H1443 0.929 . S
C1452 C1444 1.378 . S
C1452 C1447 1.350 . S
C1453 H1440 0.929 . S
C1453 C1445 1.433 . S
C1453 N1455 1.384 . S
N1454 C1450 1.427 . S
N1454 C1451 1.384 . S
N1455 C1447 1.427 . S
N1455 C1453 1.384 . S
H1456 C1462 0.930 . S
H1457 C1466 0.930 . S
H1458 C1471 0.929 . S
H1459 C1469 0.929 . S
H1460 C1464 0.929 1_554 S
H1461 C1470 0.929 . S
C1462 H1456 0.930 . S
C1462 C1463 1.367 . S
C1462 C1470 1.378 1_554 S
C1463 C1462 1.367 . S
C1463 C1471 1.433 . S
C1464 H1460 0.929 1_556 S
C1464 C1466 1.378 . S
C1464 C1468 1.350 . S
C1465 C1468 1.463 1_554 S
C1465 C1470 1.350 1_554 S
C1465 N1473 1.427 . S
C1466 H1457 0.930 . S
C1466 C1464 1.378 . S
C1466 C1467 1.367 . S
C1467 C1466 1.367 . S
C1467 C1469 1.433 . S
C1468 C1464 1.350 . S
C1468 C1465 1.463 1_556 S
C1468 N1472 1.427 . S
C1469 H1459 0.929 . S
C1469 C1467 1.433 . S
C1469 N1472 1.384 . S
C1470 H1461 0.929 . S
C1470 C1462 1.378 1_556 S
C1470 C1465 1.350 1_556 S
C1471 H1458 0.929 . S
C1471 C1463 1.433 . S
C1471 N1473 1.384 . S
N1472 C1468 1.427 . S
N1472 C1469 1.384 . S
N1473 C1465 1.427 . S
N1473 C1471 1.384 . S
H1474 C1480 0.930 . S
H1475 C1484 0.930 . S
H1476 C1489 0.929 . S
H1477 C1487 0.929 . S
H1478 C1482 0.929 . S
H1479 C1488 0.929 . S
C1480 H1474 0.930 . S
C1480 C1481 1.367 . S
C1480 C1488 1.378 . S
C1481 C1480 1.367 . S
C1481 C1489 1.433 . S
C1482 H1478 0.929 . S
C1482 C1484 1.378 . S
C1482 C1486 1.350 . S
C1483 C1486 1.463 . S
C1483 C1488 1.350 . S
C1483 N1491 1.427 . S
C1484 H1475 0.930 . S
C1484 C1482 1.378 . S
C1484 C1485 1.367 . S
C1485 C1484 1.367 . S
C1485 C1487 1.433 . S
C1486 C1482 1.350 . S
C1486 C1483 1.463 . S
C1486 N1490 1.427 . S
C1487 H1477 0.929 . S
C1487 C1485 1.433 . S
C1487 N1490 1.384 . S
C1488 H1479 0.929 . S
C1488 C1480 1.378 . S
C1488 C1483 1.350 . S
C1489 H1476 0.929 . S
C1489 C1481 1.433 . S
C1489 N1491 1.384 . S
N1490 C1486 1.427 . S
N1490 C1487 1.384 . S
N1491 C1483 1.427 . S
N1491 C1489 1.384 . S
H1492 C1498 0.930 . S
H1493 C1502 0.930 . S
H1494 C1507 0.929 . S
H1495 C1505 0.929 . S
H1496 C1500 0.929 . S
H1497 C1506 0.929 . S
C1498 H1492 0.930 . S
C1498 C1499 1.367 . S
C1498 C1506 1.378 . S
C1499 C1498 1.367 . S
C1499 C1507 1.433 . S
C1500 H1496 0.929 . S
C1500 C1502 1.378 . S
C1500 C1504 1.350 . S
C1501 C1504 1.463 . S
C1501 C1506 1.350 . S
C1501 N1509 1.427 . S
C1502 H1493 0.930 . S
C1502 C1500 1.378 . S
C1502 C1503 1.367 . S
C1503 C1502 1.367 . S
C1503 C1505 1.433 . S
C1504 C1500 1.350 . S
C1504 C1501 1.463 . S
C1504 N1508 1.427 . S
C1505 H1495 0.929 . S
C1505 C1503 1.433 . S
C1505 N1508 1.384 . S
C1506 H1497 0.929 . S
C1506 C1498 1.378 . S
C1506 C1501 1.350 . S
C1507 H1494 0.929 . S
C1507 C1499 1.433 . S
C1507 N1509 1.384 . S
N1508 C1504 1.427 . S
N1508 C1505 1.384 . S
N1509 C1501 1.427 . S
N1509 C1507 1.384 . S
H1510 C1516 0.930 . S
H1511 C1520 0.930 . S
H1512 C1525 0.929 . S
H1513 C1523 0.929 . S
H1514 C1518 0.929 . S
H1515 C1524 0.929 . S
C1516 H1510 0.930 . S
C1516 C1517 1.367 . S
C1516 C1524 1.378 . S
C1517 C1516 1.367 . S
C1517 C1525 1.433 . S
C1518 H1514 0.929 . S
C1518 C1520 1.378 . S
C1518 C1522 1.350 . S
C1519 C1522 1.463 . S
C1519 C1524 1.350 . S
C1519 N1527 1.427 . S
C1520 H1511 0.930 . S
C1520 C1518 1.378 . S
C1520 C1521 1.367 . S
C1521 C1520 1.367 . S
C1521 C1523 1.433 . S
C1522 C1518 1.350 . S
C1522 C1519 1.463 . S
C1522 N1526 1.427 . S
C1523 H1513 0.929 . S
C1523 C1521 1.433 . S
C1523 N1526 1.384 . S
C1524 H1515 0.929 . S
C1524 C1516 1.378 . S
C1524 C1519 1.350 . S
C1525 H1512 0.929 . S
C1525 C1517 1.433 . S
C1525 N1527 1.384 . S
N1526 C1522 1.427 . S
N1526 C1523 1.384 . S
N1527 C1519 1.427 . S
N1527 C1525 1.384 . S
H1528 C1534 0.930 . S
H1529 C1538 0.930 . S
H1530 C1543 0.929 . S
H1531 C1541 0.929 . S
H1532 C1536 0.929 . S
H1533 C1542 0.929 . S
C1534 H1528 0.930 . S
C1534 C1535 1.367 . S
C1534 C1542 1.378 . S
C1535 C1534 1.367 . S
C1535 C1543 1.433 . S
C1536 H1532 0.929 . S
C1536 C1538 1.378 . S
C1536 C1540 1.350 . S
C1537 C1540 1.463 . S
C1537 C1542 1.350 1_556 S
C1537 N1545 1.427 1_556 S
C1538 H1529 0.930 . S
C1538 C1536 1.378 . S
C1538 C1539 1.367 . S
C1539 C1538 1.367 . S
C1539 C1541 1.433 . S
C1540 C1536 1.350 . S
C1540 C1537 1.463 . S
C1540 N1544 1.427 . S
C1541 H1531 0.929 . S
C1541 C1539 1.433 . S
C1541 N1544 1.384 . S
C1542 H1533 0.929 . S
C1542 C1534 1.378 . S
C1542 C1537 1.350 1_554 S
C1543 H1530 0.929 . S
C1543 C1535 1.433 . S
C1543 N1545 1.384 . S
N1544 C1540 1.427 . S
N1544 C1541 1.384 . S
N1545 C1537 1.427 1_554 S
N1545 C1543 1.384 . S
H1546 C1552 0.930 . S
H1547 C1556 0.930 . S
H1548 C1561 0.929 . S
H1549 C1559 0.929 . S
H1550 C1554 0.929 . S
H1551 C1560 0.929 . S
C1552 H1546 0.930 . S
C1552 C1553 1.367 . S
C1552 C1560 1.378 . S
C1553 C1552 1.367 . S
C1553 C1561 1.433 . S
C1554 H1550 0.929 . S
C1554 C1556 1.378 . S
C1554 C1558 1.350 . S
C1555 C1558 1.463 . S
C1555 C1560 1.350 . S
C1555 N1563 1.427 . S
C1556 H1547 0.930 . S
C1556 C1554 1.378 . S
C1556 C1557 1.367 . S
C1557 C1556 1.367 . S
C1557 C1559 1.433 . S
C1558 C1554 1.350 . S
C1558 C1555 1.463 . S
C1558 N1562 1.427 . S
C1559 H1549 0.929 . S
C1559 C1557 1.433 . S
C1559 N1562 1.384 . S
C1560 H1551 0.929 . S
C1560 C1552 1.378 . S
C1560 C1555 1.350 . S
C1561 H1548 0.929 . S
C1561 C1553 1.433 . S
C1561 N1563 1.384 . S
N1562 C1558 1.427 . S
N1562 C1559 1.384 . S
N1563 C1555 1.427 . S
N1563 C1561 1.384 . S
H1564 C1570 0.930 . S
H1565 C1574 0.930 . S
H1566 C1579 0.929 . S
H1567 C1577 0.929 . S
H1568 C1572 0.929 . S
H1569 C1578 0.929 . S
C1570 H1564 0.930 . S
C1570 C1571 1.367 . S
C1570 C1578 1.378 . S
C1571 C1570 1.367 . S
C1571 C1579 1.433 . S
C1572 H1568 0.929 . S
C1572 C1574 1.378 . S
C1572 C1576 1.350 . S
C1573 C1576 1.463 . S
C1573 C1578 1.350 . S
C1573 N1581 1.427 . S
C1574 H1565 0.930 . S
C1574 C1572 1.378 . S
C1574 C1575 1.367 . S
C1575 C1574 1.367 . S
C1575 C1577 1.433 . S
C1576 C1572 1.350 . S
C1576 C1573 1.463 . S
C1576 N1580 1.427 . S
C1577 H1567 0.929 . S
C1577 C1575 1.433 . S
C1577 N1580 1.384 . S
C1578 H1569 0.929 . S
C1578 C1570 1.378 . S
C1578 C1573 1.350 . S
C1579 H1566 0.929 . S
C1579 C1571 1.433 . S
C1579 N1581 1.384 . S
N1580 C1576 1.427 . S
N1580 C1577 1.384 . S
N1581 C1573 1.427 . S
N1581 C1579 1.384 . S
H1582 C1588 0.930 . S
H1583 C1592 0.930 . S
H1584 C1597 0.929 . S
H1585 C1595 0.929 . S
H1586 C1590 0.929 . S
H1587 C1596 0.929 . S
C1588 H1582 0.930 . S
C1588 C1589 1.367 . S
C1588 C1596 1.378 . S
C1589 C1588 1.367 . S
C1589 C1597 1.433 . S
C1590 H1586 0.929 . S
C1590 C1592 1.378 . S
C1590 C1594 1.350 . S
C1591 C1594 1.463 . S
C1591 C1596 1.350 . S
C1591 N1599 1.427 . S
C1592 H1583 0.930 . S
C1592 C1590 1.378 . S
C1592 C1593 1.367 . S
C1593 C1592 1.367 . S
C1593 C1595 1.433 . S
C1594 C1590 1.350 . S
C1594 C1591 1.463 . S
C1594 N1598 1.427 . S
C1595 H1585 0.929 . S
C1595 C1593 1.433 . S
C1595 N1598 1.384 . S
C1596 H1587 0.929 . S
C1596 C1588 1.378 . S
C1596 C1591 1.350 . S
C1597 H1584 0.929 . S
C1597 C1589 1.433 . S
C1597 N1599 1.384 . S
N1598 C1594 1.427 . S
N1598 C1595 1.384 . S
N1599 C1591 1.427 . S
N1599 C1597 1.384 . S
C455 C7 0.625 . S
C459 C189 0.599 . S
C473 C357 1.129 . S
C477 C21 1.151 . S
C491 C35 1.924 . S
C495 C217 1.918 . S
C509 C49 1.932 . S
C513 C343 1.926 . S
C527 C63 1.155 . S
C531 C245 1.134 . S
C545 C77 0.895 . S
C549 C315 0.891 . S
C563 C91 0.908 . S
C567 C273 0.900 . S
C581 C441 0.587 . S
C585 C105 0.619 . S
C599 C301 1.132 . S
C603 C119 1.154 . S
C617 C133 0.903 . S
C621 C259 0.917 . S
C635 C329 0.916 . S
C639 C147 0.910 . S
C653 C161 1.924 . S
C657 C231 1.919 . S
C671 C203 1.131 . S
C675 C175 1.153 . S
C689 C287 0.609 . S
C693 C399 0.619 . S
C707 C413 0.608 . S
C711 C371 0.620 . S
C725 C427 1.925 . S
C729 C385 1.935 . S
C743 C3 1.425 . S
C747 C23 1.432 . S
C761 C36 1.577 . S
C765 C22 1.568 . S
C779 C45 1.189 . S
C783 C31 1.199 . S
C797 C51 1.701 . S
C801 C8 1.716 . S
C815 C101 1.421 . S
C819 C65 1.439 . S
C833 C79 1.669 . S
C837 C59 1.678 . S
C851 C87 1.345 . S
C855 C73 1.354 . S
C869 C92 1.746 . S
C873 C107 1.725 . S
C887 C134 1.747 . S
C891 C9 1.720 . S
C905 C120 1.563 . S
C909 C50 1.578 . S
C923 C149 1.678 . S
C927 C17 1.678 . S
C941 C387 1.697 . S
C945 C106 1.718 . S
C959 C400 1.718 . S
C963 C37 1.694 . S
C977 C162 1.578 . S
C981 C64 1.561 . S
C995 C93 1.669 . S
C999 C171 1.675 . S
C1013 C204 1.418 . S
C1017 C185 1.408 . S
C1031 C219 1.623 . S
C1035 C205 1.616 . S
C1049 C227 1.269 . S
C1053 C213 1.276 . S
C1067 C191 1.703 . S
C1071 C232 1.718 . S
C1085 C246 1.414 . S
C1089 C283 1.405 . S
C1103 C241 1.665 . S
C1107 C260 1.674 . S
C1121 C269 1.327 . S
C1125 C255 1.333 . S
C1139 C275 1.701 . S
C1143 C288 1.707 . S
C1157 C190 1.699 . S
C1161 C317 1.694 . S
C1175 C303 1.609 . S
C1179 C233 1.617 . S
C1193 C330 1.674 . S
C1197 C199 1.665 . S
C1211 C428 1.720 . S
C1215 C289 1.706 . S
C1229 C443 1.704 . S
C1233 C218 1.720 . S
C1247 C247 1.611 . S
C1251 C345 1.624 . S
C1265 C353 1.663 . S
C1269 C274 1.673 . S
C1283 C177 1.438 . S
C1287 C367 1.419 . S
C1301 C386 1.577 . S
C1305 C176 1.568 . S
C1319 C157 1.196 . S
C1323 C381 1.195 . S
C1337 C163 1.701 . S
C1341 C372 1.716 . S
C1355 C121 1.431 . S
C1359 C395 1.426 . S
C1373 C135 1.677 . S
C1377 C115 1.678 . S
C1391 C143 1.346 . S
C1395 C129 1.347 . S
C1409 C148 1.748 . S
C1413 C401 1.719 . S
C1427 C373 1.720 . S
C1431 C78 1.747 . S
C1445 C358 1.415 . S
C1449 C409 1.407 . S
C1463 C359 1.616 . S
C1467 C429 1.623 . S
C1481 C423 1.277 . S
C1485 C339 1.277 . S
C1499 C344 1.716 . S
C1503 C415 1.702 . S
C1517 C437 1.408 . S
C1521 C302 1.417 . S
C1535 C297 1.655 . S
C1539 C316 1.665 . S
C1553 C325 1.336 . S
C1557 C311 1.329 . S
C1571 C331 1.696 . S
C1575 C442 1.701 . S
C1589 C414 1.706 . S
C1593 C261 1.701 . S
