# Generated by pormake.
# Topology unj, (4)-cn, num edge types: 1
# Building blocks:
#     Node 0, Type 0, BuildingBlock: CEKHIL_clean_sbu_0, # of connection points: 4
#     Node 1, Type 0, BuildingBlock: CEKHIL_clean_sbu_0, # of connection points: 4
#     Node 2, Type 0, BuildingBlock: CEKHIL_clean_sbu_0, # of connection points: 4
#     Node 3, Type 0, BuildingBlock: CEKHIL_clean_sbu_0, # of connection points: 4
#     Node 4, Type 0, BuildingBlock: CEKHIL_clean_sbu_0, # of connection points: 4
#     Node 5, Type 0, BuildingBlock: CEKHIL_clean_sbu_0, # of connection points: 4
#     Edge 6, Type (0, 0), BuildingBlock: ZUJKAS_clean_linker_0, # of connection points: 2
#     Edge 7, Type (0, 0), BuildingBlock: ZUJKAS_clean_linker_0, # of connection points: 2
#     Edge 8, Type (0, 0), BuildingBlock: ZUJKAS_clean_linker_0, # of connection points: 2
#     Edge 9, Type (0, 0), BuildingBlock: ZUJKAS_clean_linker_0, # of connection points: 2
#     Edge 10, Type (0, 0), BuildingBlock: ZUJKAS_clean_linker_0, # of connection points: 2
#     Edge 11, Type (0, 0), BuildingBlock: ZUJKAS_clean_linker_0, # of connection points: 2
#     Edge 12, Type (0, 0), BuildingBlock: ZUJKAS_clean_linker_0, # of connection points: 2
#     Edge 13, Type (0, 0), BuildingBlock: ZUJKAS_clean_linker_0, # of connection points: 2
#     Edge 14, Type (0, 0), BuildingBlock: ZUJKAS_clean_linker_0, # of connection points: 2
#     Edge 15, Type (0, 0), BuildingBlock: ZUJKAS_clean_linker_0, # of connection points: 2
#     Edge 16, Type (0, 0), BuildingBlock: ZUJKAS_clean_linker_0, # of connection points: 2
#     Edge 17, Type (0, 0), BuildingBlock: ZUJKAS_clean_linker_0, # of connection points: 2
# Relax obj value: 0.029
# Max RMSD: 0.081
# Mean RMSD: 0.081
data_MOF--net-unj--node1-CEKHIL_clean_sbu_0--edge1-ZUJKAS_clean_linker_0
_symmetry_space_group_name_H-M    P1
_symmetry_Int_Tables_number       1
_symmetry_cell_setting            triclinic
loop_
_symmetry_equiv_pos_as_xyz
'x, y, z'
_cell_length_a     42.157702
_cell_length_b     42.191816
_cell_length_c     47.111242
_cell_angle_alpha  89.873992
_cell_angle_beta   90.025395
_cell_angle_gamma 119.98821
loop_
_atom_site_label
_atom_site_type_symbol
_atom_site_fract_x
_atom_site_fract_y
_atom_site_fract_z
_atom_type_partial_charge
Co0 Co 0.49963 0.25892 0.58701 0.0
O1 O 0.50688 0.30213 0.60677 0.0
O2 O 0.45562 0.24875 0.60752 0.0
C3 C 0.52455 0.28869 0.54572 0.0
O4 O 0.4803 0.20851 0.56847 0.0
Co5 Co 0.56333 0.25108 0.5618 0.0
O6 O 0.52439 0.20713 0.54273 0.0
C7 C 0.54862 0.24186 0.62375 0.0
C8 C 0.47307 0.28295 0.61507 0.0
C9 C 0.49124 0.19246 0.55096 0.0
O10 O 0.51948 0.24432 0.62076 0.0
O11 O 0.57025 0.24586 0.60324 0.0
O12 O 0.49059 0.27801 0.5518 0.0
O13 O 0.54255 0.28266 0.56506 0.0
Co14 Co 0.25344 0.49959 0.7518 0.0
O15 O 0.21621 0.50547 0.77101 0.0
O16 O 0.22086 0.45564 0.77298 0.0
C17 C 0.24743 0.52272 0.70993 0.0
O18 O 0.28611 0.48166 0.73399 0.0
Co19 Co 0.32349 0.56442 0.72567 0.0
O20 O 0.33162 0.52631 0.70857 0.0
C21 C 0.31693 0.55345 0.78815 0.0
C22 C 0.20289 0.47208 0.78 0.0
C23 C 0.31374 0.49321 0.717 0.0
O24 O 0.28775 0.52181 0.78544 0.0
O25 O 0.33267 0.575 0.76715 0.0
O26 O 0.22532 0.48858 0.71633 0.0
O27 O 0.27098 0.54168 0.72919 0.0
Co28 Co 0.76651 0.24694 0.91809 0.0
O29 O 0.72306 0.21024 0.93737 0.0
O30 O 0.77673 0.21295 0.93842 0.0
C31 C 0.73707 0.24268 0.87671 0.0
O32 O 0.81724 0.27881 0.90005 0.0
Co33 Co 0.77391 0.31846 0.89308 0.0
O34 O 0.81913 0.32505 0.875 0.0
C35 C 0.78013 0.31116 0.95531 0.0
C36 C 0.74238 0.1958 0.94574 0.0
C37 C 0.83372 0.30645 0.88309 0.0
O38 O 0.78003 0.2807 0.95217 0.0
O39 O 0.7753 0.32816 0.93472 0.0
O40 O 0.74825 0.21968 0.88238 0.0
O41 O 0.74275 0.26613 0.89633 0.0
Co42 Co 0.52913 0.76064 0.08672 0.0
O43 O 0.52326 0.71696 0.10493 0.0
O44 O 0.57413 0.77067 0.1057 0.0
C45 C 0.50259 0.73212 0.04544 0.0
O46 O 0.54684 0.8115 0.06943 0.0
Co47 Co 0.46304 0.76733 0.06525 0.0
O48 O 0.50055 0.81402 0.04796 0.0
C49 C 0.47734 0.76767 0.12675 0.0
C50 C 0.55727 0.7362 0.11265 0.0
C51 C 0.53435 0.82839 0.05428 0.0
O52 O 0.50986 0.77317 0.12191 0.0
O53 O 0.45374 0.76078 0.10714 0.0
O54 O 0.53698 0.74322 0.05013 0.0
O55 O 0.48548 0.73713 0.06599 0.0
Co56 Co 0.77667 0.52045 0.25218 0.0
O57 O 0.81417 0.51539 0.27191 0.0
O58 O 0.81042 0.56582 0.2709 0.0
C59 C 0.78044 0.49398 0.21146 0.0
O60 O 0.74389 0.53763 0.23348 0.0
Co61 Co 0.70494 0.45422 0.22976 0.0
O62 O 0.69587 0.49128 0.21151 0.0
C63 C 0.71689 0.46845 0.29143 0.0
C64 C 0.82814 0.54952 0.27901 0.0
C65 C 0.71506 0.52508 0.21775 0.0
O66 O 0.7437 0.50113 0.28681 0.0
O67 O 0.70096 0.44492 0.27168 0.0
O68 O 0.80339 0.52836 0.21631 0.0
O69 O 0.75762 0.47669 0.23165 0.0
Co70 Co 0.26456 0.77431 0.41911 0.0
O71 O 0.30765 0.80965 0.43949 0.0
O72 O 0.25413 0.80733 0.44036 0.0
C73 C 0.29509 0.78057 0.37801 0.0
O74 O 0.21424 0.74408 0.40028 0.0
Co75 Co 0.25564 0.7038 0.39143 0.0
O76 O 0.21499 0.70341 0.37007 0.0
C77 C 0.24641 0.70664 0.45385 0.0
C78 C 0.28827 0.8239 0.44813 0.0
C79 C 0.1997 0.72037 0.3802 0.0
O80 O 0.24959 0.73865 0.45204 0.0
O81 O 0.24977 0.68969 0.43257 0.0
O82 O 0.28423 0.8036 0.38442 0.0
O83 O 0.2883 0.75565 0.39673 0.0
H84 H 0.50634 0.14891 0.5173 0.0
H85 H 0.4657 0.08538 0.50393 0.0
H86 H 0.37677 0.08529 0.54901 0.0
H87 H 0.41748 0.14933 0.56287 0.0
H88 H 0.42209 0.02457 0.54782 0.0
H89 H 0.33967 0.04395 0.46421 0.0
H90 H 0.38542 0.07981 0.47302 0.0
H91 H 0.3485 0.06846 0.49725 0.0
C92 C 0.4781 0.1357 0.52431 0.0
C93 C 0.46531 0.15447 0.54128 0.0
C94 C 0.45492 0.09925 0.51663 0.0
C95 C 0.41827 0.08067 0.52543 0.0
C96 C 0.40498 0.09927 0.54188 0.0
H97 H 0.25426 0.85858 0.47169 0.0
H98 H 0.28322 0.91918 0.4939 0.0
C99 C 0.4283 0.13586 0.54979 0.0
C100 C 0.39473 0.04147 0.51801 0.0
H101 H 0.32906 0.98427 0.47134 0.0
C102 C 0.40147 0.01562 0.53129 0.0
C103 C 0.3677 0.0299 0.49665 0.0
C104 C 0.3597 0.05681 0.48176 0.0
C105 C 0.38233 0.97854 0.52343 0.0
C106 C 0.35651 0.96714 0.50102 0.0
C107 C 0.34891 0.99289 0.48841 0.0
C108 C 0.3386 0.92925 0.48931 0.0
C109 C 0.38995 0.95201 0.53938 0.0
C110 C 0.35994 0.91456 0.47932 0.0
C111 C 0.34344 0.87979 0.46697 0.0
C112 C 0.30519 0.85911 0.46382 0.0
C113 C 0.28377 0.87371 0.47393 0.0
C114 C 0.30031 0.90842 0.48655 0.0
H115 H 0.39962 0.96174 0.5613 0.0
H116 H 0.36522 0.9244 0.54062 0.0
H117 H 0.41193 0.94969 0.52831 0.0
H118 H 0.38954 0.93038 0.48037 0.0
H119 H 0.36082 0.86963 0.45908 0.0
H120 H 0.50165 0.35515 0.62812 0.0
H121 H 0.46964 0.38509 0.64769 0.0
H122 H 0.3706 0.28066 0.65491 0.0
H123 H 0.40241 0.2503 0.63507 0.0
H124 H 0.39997 0.37553 0.6204 0.0
H125 H 0.38645 0.33596 0.73456 0.0
H126 H 0.42237 0.33783 0.71243 0.0
H127 H 0.37613 0.30147 0.70797 0.0
C128 C 0.4732 0.33838 0.63423 0.0
C129 C 0.45459 0.30028 0.63 0.0
C130 C 0.45494 0.35559 0.64537 0.0
C131 C 0.41782 0.3351 0.65284 0.0
C132 C 0.39935 0.29693 0.64951 0.0
H133 H 0.27964 0.4182 0.72363 0.0
H134 H 0.30156 0.3772 0.70742 0.0
C135 C 0.41757 0.27965 0.63814 0.0
C136 C 0.39811 0.35419 0.66225 0.0
H137 H 0.36306 0.37395 0.7206 0.0
C138 C 0.39171 0.37506 0.64227 0.0
C139 C 0.38691 0.35308 0.69068 0.0
C140 C 0.3933 0.33105 0.71284 0.0
C141 C 0.37494 0.39535 0.65003 0.0
C142 C 0.36527 0.39573 0.67879 0.0
C143 C 0.37061 0.37387 0.69862 0.0
C144 C 0.35163 0.42026 0.68883 0.0
C145 C 0.36755 0.41599 0.6272 0.0
C146 C 0.37268 0.45814 0.68426 0.0
C147 C 0.36014 0.4815 0.69321 0.0
C148 C 0.3264 0.46771 0.70745 0.0
C149 C 0.30564 0.42979 0.71263 0.0
C150 C 0.31816 0.40631 0.70341 0.0
H151 H 0.36476 0.40329 0.60603 0.0
H152 H 0.34225 0.41703 0.63172 0.0
H153 H 0.39093 0.44442 0.62607 0.0
H154 H 0.39908 0.46979 0.67385 0.0
H155 H 0.37723 0.51053 0.68916 0.0
H156 H 0.87956 0.36836 0.85321 0.0
H157 H 0.94307 0.39078 0.83967 0.0
H158 H 0.9391 0.29601 0.87789 0.0
H159 H 0.87508 0.27313 0.89191 0.0
H160 H 1.00329 0.40113 0.88253 0.0
H161 H 0.97995 0.30752 0.79167 0.0
H162 H 0.94548 0.31845 0.80267 0.0
H163 H 0.9549 0.28914 0.82427 0.0
C164 C 0.89189 0.35197 0.85868 0.0
C165 C 0.87196 0.3188 0.87372 0.0
C166 C 0.92834 0.36498 0.85093 0.0
C167 C 0.94574 0.34506 0.85771 0.0
C168 C 0.92604 0.31171 0.87235 0.0
H169 H 0.16673 0.40155 0.80035 0.0
H170 H 0.10586 0.36918 0.82241 0.0
C171 C 0.88948 0.29871 0.88036 0.0
C172 C 0.98483 0.36009 0.84992 0.0
H173 H 0.04052 0.35407 0.80019 0.0
C174 C 1.01155 0.39065 0.86471 0.0
C175 C 0.9955 0.34619 0.82683 0.0
C176 C 0.96763 0.31357 0.81024 0.0
C177 C 0.04862 0.40815 0.85668 0.0
C178 C 0.05917 0.39541 0.83267 0.0
C179 C 0.03253 0.36399 0.8185 0.0
C180 C 0.09709 0.41551 0.82091 0.0
C181 C 0.07611 0.44012 0.8741 0.0
C182 C 0.11253 0.45232 0.81265 0.0
C183 C 0.14733 0.4709 0.80026 0.0
C184 C 0.16743 0.45301 0.79547 0.0
C185 C 0.1521 0.41621 0.80389 0.0
C186 C 0.11724 0.39763 0.81642 0.0
H187 H 0.06646 0.43844 0.89629 0.0
H188 H 0.10311 0.44152 0.8745 0.0
H189 H 0.07978 0.46589 0.86472 0.0
H190 H 0.09726 0.46652 0.81513 0.0
H191 H 0.15807 0.49909 0.79378 0.0
H192 H 0.60978 0.86843 0.05809 0.0
H193 H 0.65038 0.93204 0.04295 0.0
H194 H 0.55695 0.93844 0.01355 0.0
H195 H 0.51636 0.87535 0.02833 0.0
H196 H 0.65544 0.96416 0.98505 0.0
H197 H 0.61308 0.02705 0.06942 0.0
H198 H 0.60632 0.98136 0.07237 0.0
H199 H 0.57613 0.98972 0.05076 0.0
C200 C 0.59786 0.88334 0.04839 0.0
C201 C 0.55968 0.86661 0.04457 0.0
C202 C 0.62112 0.91969 0.03973 0.0
C203 C 0.60662 0.9401 0.02746 0.0
C204 C 0.56869 0.92337 0.02332 0.0
H205 H 0.67014 0.15178 0.95888 0.0
H206 H 0.64067 0.0907 0.97995 0.0
C207 C 0.54552 0.88713 0.03171 0.0
C208 C 0.63075 0.97883 0.01865 0.0
H209 H 0.64743 0.0656 0.03105 0.0
C210 C 0.65415 0.98649 0.99529 0.0
C211 C 0.62885 1.00783 0.03199 0.0
C212 C 0.60499 1.00129 0.05769 0.0
C213 C 0.67447 0.02217 0.98411 0.0
C214 C 0.67201 0.05115 0.99712 0.0
C215 C 0.64936 0.04351 0.02103 0.0
C216 C 0.69084 0.0891 0.98533 0.0
C217 C 0.69697 0.02809 0.95767 0.0
C218 C 0.72909 0.10914 0.98185 0.0
C219 C 0.74608 0.14418 0.96959 0.0
C220 C 0.72519 0.16006 0.96089 0.0
C221 C 0.6871 0.14044 0.96532 0.0
C222 C 0.67016 0.10542 0.97738 0.0
H223 H 0.68878 1.00199 0.94643 0.0
H224 H 0.69429 0.04703 0.94275 0.0
H225 H 0.72625 0.0404 0.96361 0.0
H226 H 0.74581 0.09762 0.98846 0.0
H227 H 0.77549 0.15861 0.96662 0.0
H228 H 0.65087 0.50727 0.19066 0.0
H229 H 0.62966 0.54804 0.17382 0.0
H230 H 0.72948 0.64134 0.20324 0.0
H231 H 0.75079 0.60043 0.22093 0.0
H232 H 0.66957 0.64678 0.21703 0.0
H233 H 0.66181 0.61064 0.10354 0.0
H234 H 0.63591 0.57088 0.12523 0.0
H235 H 0.68489 0.59764 0.12935 0.0
C236 C 0.66859 0.53645 0.19346 0.0
C237 C 0.70277 0.55047 0.20702 0.0
C238 C 0.65642 0.55982 0.18362 0.0
C239 C 0.67826 0.59789 0.18664 0.0
C240 C 0.71224 0.61208 0.20044 0.0
H241 H 0.62859 0.76868 0.13126 0.0
H242 H 0.66067 0.73819 0.15052 0.0
C243 C 0.72441 0.58863 0.21051 0.0
C244 C 0.6649 0.62245 0.17598 0.0
H245 H 0.62861 0.64064 0.11745 0.0
C246 C 0.66113 0.64585 0.19516 0.0
C247 C 0.65407 0.62151 0.14737 0.0
C248 C 0.65974 0.5991 0.12513 0.0
C249 C 0.64525 0.66691 0.1868 0.0
C250 C 0.63292 0.66456 0.15856 0.0
C251 C 0.63776 0.64212 0.13918 0.0
C252 C 0.61336 0.68377 0.14888 0.0
C253 C 0.64045 0.6905 0.20841 0.0
C254 C 0.57616 0.66334 0.14169 0.0
C255 C 0.55777 0.68062 0.13086 0.0
C256 C 0.57629 0.71875 0.12667 0.0
C257 C 0.61348 0.73931 0.13433 0.0
C258 C 0.63184 0.72194 0.14538 0.0
H259 H 0.64719 0.68579 0.23025 0.0
H260 H 0.65867 0.71975 0.20291 0.0
H261 H 0.61182 0.68507 0.20811 0.0
H262 H 0.56141 0.63385 0.14415 0.0
H263 H 0.5292 0.66389 0.12512 0.0
H264 H 0.17292 0.70117 0.32656 0.0
H265 H 0.10993 0.67766 0.31055 0.0
H266 H 0.0784 0.68803 0.39569 0.0
H267 H 0.14199 0.71393 0.41121 0.0
H268 H 0.05333 0.61874 0.32282 0.0
H269 H 0.02424 0.72741 0.35515 0.0
H270 H 0.06982 0.73385 0.35618 0.0
H271 H 0.03826 0.71098 0.38497 0.0
C272 C 0.15265 0.69919 0.34168 0.0
C273 C 0.1624 0.70966 0.37006 0.0
C274 C 0.11656 0.68559 0.33257 0.0
C275 C 0.0891 0.68133 0.35174 0.0
C276 C 0.09897 0.69206 0.38014 0.0
H277 H 0.86067 0.52138 0.3129 0.0
H278 H 0.9226 0.55357 0.33268 0.0
C279 C 0.13537 0.70668 0.38909 0.0
C280 C 0.05 0.66315 0.34233 0.0
H281 H 0.97219 0.6694 0.34369 0.0
C282 C 0.03579 0.63013 0.3272 0.0
C283 C 0.02687 0.67793 0.34764 0.0
C284 C 0.04072 0.71468 0.36159 0.0
C285 C 0.9995 0.61159 0.31732 0.0
C286 C 0.97578 0.62528 0.32398 0.0
C287 C 0.98999 0.65843 0.33894 0.0
C288 C 0.93664 0.60633 0.31472 0.0
C289 C 0.9876 0.5782 0.29897 0.0
C290 C 0.92268 0.62558 0.29975 0.0
C291 C 0.88675 0.60743 0.28934 0.0
C292 C 0.86419 0.56953 0.2933 0.0
C293 C 0.8776 0.55053 0.30921 0.0
C294 C 0.91319 0.56887 0.32025 0.0
H295 H 1.01136 0.57866 0.28836 0.0
H296 H 0.97423 0.5533 0.31246 0.0
H297 H 0.96796 0.57609 0.28236 0.0
H298 H 0.93995 0.65451 0.29533 0.0
H299 H 0.8772 0.62279 0.2771 0.0
H300 H 0.50032 0.32109 0.50763 0.0
H301 H 0.53331 0.35831 0.46618 0.0
H302 H 0.62256 0.33856 0.48309 0.0
H303 H 0.5904 0.30256 0.5249 0.0
H304 H 0.64767 0.40948 0.4709 0.0
H305 H 0.54496 0.32222 0.39021 0.0
H306 H 0.52734 0.33908 0.4173 0.0
H307 H 0.54283 0.30765 0.4265 0.0
C308 C 0.52681 0.32443 0.5023 0.0
C309 C 0.54267 0.30871 0.51939 0.0
C310 C 0.54563 0.34566 0.47859 0.0
C311 C 0.58028 0.35093 0.47129 0.0
C312 C 0.59593 0.33499 0.4883 0.0
H313 H 0.68908 0.40024 0.3127 0.0
H314 H 0.65795 0.37658 0.35778 0.0
C315 C 0.5774 0.31421 0.51211 0.0
C316 C 0.60056 0.37292 0.44602 0.0
H317 H 0.59631 0.37622 0.37381 0.0
C318 C 0.6364 0.40234 0.44965 0.0
C319 C 0.58589 0.36351 0.4183 0.0
C320 C 0.54829 0.33122 0.4127 0.0
C321 C 0.65831 0.4219 0.4263 0.0
C322 C 0.64369 0.41225 0.39861 0.0
C323 C 0.60745 0.38366 0.39508 0.0
C324 C 0.66623 0.42863 0.37272 0.0
C325 C 0.69737 0.45154 0.43138 0.0
C326 C 0.68232 0.46617 0.36635 0.0
C327 C 0.70081 0.48002 0.34049 0.0
C328 C 0.70276 0.45633 0.32053 0.0
C329 C 0.68771 0.41913 0.32751 0.0
C330 C 0.66982 0.40552 0.35328 0.0
H331 H 0.70663 0.45046 0.45327 0.0
H332 H 0.71615 0.44929 0.41606 0.0
H333 H 0.6996 0.47866 0.42833 0.0
H334 H 0.67949 0.48446 0.38086 0.0
H335 H 0.71192 0.50873 0.33554 0.0
H336 H 0.26811 0.73758 0.50675 0.0
H337 H 0.26486 0.70547 0.55127 0.0
H338 H 0.20555 0.60184 0.50815 0.0
H339 H 0.20959 0.63353 0.4638 0.0
H340 H 0.20904 0.65236 0.58414 0.0
H341 H 0.29336 0.59798 0.53839 0.0
H342 H 0.28793 0.63315 0.52109 0.0
H343 H 0.25294 0.58582 0.51801 0.0
C344 C 0.25396 0.70795 0.50694 0.0
C345 C 0.23962 0.68809 0.48173 0.0
C346 C 0.25222 0.68964 0.53232 0.0
C347 C 0.23591 0.65129 0.53281 0.0
C348 C 0.21932 0.63146 0.50808 0.0
H349 H 0.20332 0.4901 0.66357 0.0
H350 H 0.19881 0.52068 0.62044 0.0
C351 C 0.22146 0.64964 0.48278 0.0
C352 C 0.23726 0.63184 0.5587 0.0
H353 H 0.2654 0.57343 0.583 0.0
C354 C 0.22148 0.63523 0.58392 0.0
C355 C 0.25371 0.6096 0.55845 0.0
C356 C 0.27327 0.60667 0.53262 0.0
C357 C 0.22113 0.61644 0.60871 0.0
C358 C 0.23697 0.59378 0.60822 0.0
C359 C 0.25282 0.59044 0.58311 0.0
C360 C 0.23933 0.57505 0.63406 0.0
C361 C 0.20368 0.62067 0.63529 0.0
C362 C 0.26406 0.59548 0.65555 0.0
C363 C 0.26698 0.57818 0.67986 0.0
C364 C 0.24509 0.54004 0.68326 0.0
C365 C 0.22051 0.51949 0.66155 0.0
C366 C 0.21785 0.53689 0.637 0.0
H367 H 0.18726 0.63411 0.63099 0.0
H368 H 0.18575 0.59355 0.64524 0.0
H369 H 0.22543 0.63761 0.6508 0.0
H370 H 0.28118 0.62489 0.65347 0.0
H371 H 0.28619 0.59485 0.69617 0.0
H372 H 0.72247 0.19844 0.82997 0.0
H373 H 0.68705 0.19593 0.78769 0.0
H374 H 0.66953 0.28012 0.82315 0.0
H375 H 0.70549 0.28355 0.86464 0.0
H376 H 0.6158 0.17927 0.78279 0.0
H377 H 0.7068 0.32127 0.74552 0.0
H378 H 0.72061 0.30019 0.77246 0.0
H379 H 0.69236 0.31955 0.78155 0.0
C380 C 0.71141 0.21667 0.82852 0.0
C381 C 0.71711 0.24143 0.85049 0.0
C382 C 0.69107 0.21514 0.80445 0.0
C383 C 0.67617 0.23832 0.80201 0.0
C384 C 0.68155 0.26268 0.82413 0.0
H385 H 0.5382 0.26462 0.67577 0.0
H386 H 0.56497 0.26089 0.72128 0.0
C387 C 0.70203 0.26446 0.84795 0.0
C388 C 0.65421 0.23665 0.77677 0.0
H389 H 0.64775 0.28913 0.72421 0.0
C390 C 0.62289 0.20325 0.76991 0.0
C391 C 0.66342 0.26799 0.75995 0.0
C392 C 0.69783 0.30416 0.76504 0.0
C393 C 0.60042 0.20048 0.74689 0.0
C394 C 0.60946 0.23188 0.7304 0.0
C395 C 0.6406 0.26526 0.73726 0.0
C396 C 0.58906 0.2301 0.70431 0.0
C397 C 0.56708 0.1641 0.74028 0.0
C398 C 0.59342 0.21365 0.67999 0.0
C399 C 0.57867 0.21612 0.65413 0.0
C400 C 0.55898 0.23486 0.6521 0.0
C401 C 0.553 0.24978 0.67679 0.0
C402 C 0.56835 0.24779 0.7027 0.0
H403 H 0.55996 0.14425 0.75801 0.0
H404 H 0.54319 0.16766 0.7357 0.0
H405 H 0.5725 0.15238 0.72107 0.0
H406 H 0.6096 0.20021 0.68075 0.0
H407 H 0.5836 0.20422 0.63548 0.0
H408 H 0.38041 0.61634 0.79972 0.0
H409 H 0.40796 0.64083 0.84541 0.0
H410 H 0.32083 0.54661 0.88735 0.0
H411 H 0.29241 0.52124 0.84101 0.0
H412 H 0.37194 0.65648 0.89052 0.0
H413 H 0.41963 0.55963 0.92138 0.0
H414 H 0.40924 0.56479 0.88504 0.0
H415 H 0.3728 0.54074 0.91002 0.0
C416 C 0.36687 0.60042 0.81848 0.0
C417 C 0.3339 0.5667 0.81653 0.0
C418 C 0.38284 0.61462 0.84467 0.0
C419 C 0.36656 0.59556 0.86972 0.0
C420 C 0.334 0.56159 0.86816 0.0
H421 H 0.4303 0.70392 0.03397 0.0
H422 H 0.39633 0.66926 0.99243 0.0
C423 C 0.31776 0.5472 0.8417 0.0
C424 C 0.38349 0.61278 0.8972 0.0
H425 H 0.43427 0.60899 0.95225 0.0
C426 C 0.38526 0.64593 0.90421 0.0
C427 C 0.40129 0.59919 0.91467 0.0
C428 C 0.401 0.56424 0.9075 0.0
C429 C 0.40481 0.66621 0.92801 0.0
C430 C 0.42265 0.65268 0.94557 0.0
C431 C 0.42057 0.61929 0.93875 0.0
C432 C 0.44348 0.67293 0.97111 0.0
C433 C 0.40715 0.70255 0.9336 0.0
C434 C 0.48128 0.68592 0.97325 0.0
C435 C 0.50092 0.70573 0.99719 0.0
C436 C 0.48297 0.7127 0.01936 0.0
C437 C 0.44509 0.69939 0.01715 0.0
C438 C 0.42556 0.67957 0.99338 0.0
H439 H 0.40035 0.7133 0.9144 0.0
H440 H 0.38731 0.69903 0.9505 0.0
H441 H 0.43498 0.72321 0.9409 0.0
H442 H 0.49561 0.68099 0.95629 0.0
H443 H 0.53 0.71539 0.99839 0.0
H444 H 0.79946 0.38156 0.96688 0.0
H445 H 0.80157 0.40888 0.01263 0.0
H446 H 0.77502 0.30769 0.05459 0.0
H447 H 0.77264 0.27952 0.00826 0.0
H448 H 0.73719 0.3766 0.05075 0.0
H449 H 0.86562 0.39414 0.09921 0.0
H450 H 0.85852 0.39092 0.06124 0.0
H451 H 0.83423 0.35093 0.08298 0.0
C452 C 0.7943 0.36494 0.98574 0.0
C453 C 0.78545 0.3281 0.9838 0.0
C454 C 0.79564 0.38076 0.01192 0.0
C455 C 0.78841 0.36034 0.03692 0.0
C456 C 0.78093 0.32396 0.03545 0.0
H457 H 0.73204 0.42384 0.19644 0.0
H458 H 0.73398 0.39046 0.15483 0.0
C459 C 0.77958 0.30793 0.00901 0.0
C460 C 0.78625 0.37699 0.06397 0.0
H461 H 0.83281 0.41622 0.12516 0.0
C462 C 0.75787 0.38495 0.06718 0.0
C463 C 0.81356 0.38821 0.08509 0.0
C464 C 0.84492 0.38088 0.08214 0.0
C465 C 0.75626 0.40424 0.09083 0.0
C466 C 0.78363 0.41563 0.11194 0.0
C467 C 0.8119 0.40743 0.10889 0.0
C468 C 0.78307 0.43601 0.13734 0.0
C469 C 0.72581 0.41314 0.09271 0.0
C470 C 0.81024 0.4727 0.14139 0.0
C471 C 0.80915 0.49203 0.16518 0.0
C472 C 0.78103 0.4748 0.18537 0.0
C473 C 0.75398 0.43801 0.18121 0.0
C474 C 0.75501 0.41883 0.15745 0.0
H475 H 0.71154 0.40919 0.07208 0.0
H476 H 0.70537 0.39488 0.10861 0.0
H477 H 0.7366 0.44184 0.09972 0.0
H478 H 0.83213 0.48641 0.12605 0.0
H479 H 0.83049 0.52024 0.16792 0.0
H480 H 0.31447 0.73181 0.35921 0.0
H481 H 0.35227 0.73735 0.31833 0.0
H482 H 0.36196 0.84136 0.29719 0.0
H483 H 0.32326 0.83563 0.33811 0.0
H484 H 0.34809 0.79879 0.25093 0.0
H485 H 0.46196 0.80103 0.3106 0.0
H486 H 0.41895 0.76184 0.31991 0.0
H487 H 0.42697 0.80707 0.32759 0.0
C488 C 0.32456 0.7559 0.34589 0.0
C489 C 0.31601 0.78339 0.35197 0.0
C490 C 0.34655 0.75921 0.32266 0.0
C491 C 0.36089 0.79026 0.30515 0.0
C492 C 0.35161 0.81738 0.31067 0.0
H493 H 0.51709 0.81673 0.16889 0.0
H494 H 0.49235 0.82654 0.21334 0.0
C495 C 0.32938 0.81401 0.33394 0.0
C496 C 0.38406 0.79321 0.2804 0.0
H497 H 0.45756 0.7846 0.26102 0.0
C498 C 0.37235 0.79627 0.25319 0.0
C499 C 0.41623 0.79073 0.28328 0.0
C500 C 0.43199 0.79041 0.31196 0.0
C501 C 0.39058 0.79469 0.22878 0.0
C502 C 0.42083 0.78898 0.23163 0.0
C503 C 0.43397 0.78824 0.25883 0.0
C504 C 0.43738 0.78139 0.20659 0.0
C505 C 0.37691 0.79873 0.20014 0.0
C506 C 0.41522 0.75175 0.18893 0.0
C507 C 0.42911 0.74636 0.16372 0.0
C508 C 0.46571 0.77 0.15586 0.0
C509 C 0.48881 0.79806 0.17454 0.0
C510 C 0.47465 0.80379 0.19977 0.0
H511 H 0.36253 0.81469 0.20167 0.0
H512 H 0.39971 0.81244 0.18467 0.0
H513 H 0.35705 0.7712 0.19185 0.0
H514 H 0.38675 0.73336 0.19422 0.0
H515 H 0.41083 0.72421 0.14988 0.0
loop_
_geom_bond_atom_site_label_1
_geom_bond_atom_site_label_2
_geom_bond_distance
_geom_bond_site_symmetry_2
_ccdc_geom_bond_type
Co0 O1 2.216 . S
Co0 O2 2.091 . S
Co0 O4 2.004 . S
Co0 O10 2.021 . S
Co0 O12 2.137 . S
Co0 O13 2.244 . S
O1 Co0 2.216 . S
O1 C8 1.247 . S
O2 Co0 2.091 . S
O2 C8 1.261 . S
C3 O12 1.247 . S
C3 O13 1.272 . S
O4 Co0 2.004 . S
O4 C9 1.259 . S
Co5 O6 2.061 . S
Co5 O11 2.052 . S
Co5 O13 2.135 . S
O6 Co5 2.061 . S
O6 C9 1.235 . S
C7 O10 1.238 . S
C7 O11 1.241 . S
C8 O1 1.247 . S
C8 O2 1.261 . S
C9 O4 1.259 . S
C9 O6 1.235 . S
O10 Co0 2.021 . S
O10 C7 1.238 . S
O11 Co5 2.052 . S
O11 C7 1.241 . S
O12 Co0 2.137 . S
O12 C3 1.247 . S
O13 Co0 2.244 . S
O13 C3 1.272 . S
O13 Co5 2.135 . S
Co14 O15 2.216 . S
Co14 O16 2.091 . S
Co14 O18 2.004 . S
Co14 O24 2.021 . S
Co14 O26 2.137 . S
Co14 O27 2.244 . S
O15 Co14 2.216 . S
O15 C22 1.247 . S
O16 Co14 2.091 . S
O16 C22 1.261 . S
C17 O26 1.247 . S
C17 O27 1.272 . S
O18 Co14 2.004 . S
O18 C23 1.259 . S
Co19 O20 2.061 . S
Co19 O25 2.052 . S
Co19 O27 2.135 . S
O20 Co19 2.061 . S
O20 C23 1.235 . S
C21 O24 1.238 . S
C21 O25 1.241 . S
C22 O15 1.247 . S
C22 O16 1.261 . S
C23 O18 1.259 . S
C23 O20 1.235 . S
O24 Co14 2.021 . S
O24 C21 1.238 . S
O25 Co19 2.052 . S
O25 C21 1.241 . S
O26 Co14 2.137 . S
O26 C17 1.247 . S
O27 Co14 2.244 . S
O27 C17 1.272 . S
O27 Co19 2.135 . S
Co28 O29 2.216 . S
Co28 O30 2.091 . S
Co28 O32 2.004 . S
Co28 O38 2.021 . S
Co28 O40 2.137 . S
Co28 O41 2.244 . S
O29 Co28 2.216 . S
O29 C36 1.247 . S
O30 Co28 2.091 . S
O30 C36 1.261 . S
C31 O40 1.247 . S
C31 O41 1.272 . S
O32 Co28 2.004 . S
O32 C37 1.259 . S
Co33 O34 2.061 . S
Co33 O39 2.052 . S
Co33 O41 2.135 . S
O34 Co33 2.061 . S
O34 C37 1.235 . S
C35 O38 1.238 . S
C35 O39 1.241 . S
C36 O29 1.247 . S
C36 O30 1.261 . S
C37 O32 1.259 . S
C37 O34 1.235 . S
O38 Co28 2.021 . S
O38 C35 1.238 . S
O39 Co33 2.052 . S
O39 C35 1.241 . S
O40 Co28 2.137 . S
O40 C31 1.247 . S
O41 Co28 2.244 . S
O41 C31 1.272 . S
O41 Co33 2.135 . S
Co42 O43 2.216 . S
Co42 O44 2.091 . S
Co42 O46 2.004 . S
Co42 O52 2.021 . S
Co42 O54 2.137 . S
Co42 O55 2.244 . S
O43 Co42 2.216 . S
O43 C50 1.247 . S
O44 Co42 2.091 . S
O44 C50 1.261 . S
C45 O54 1.247 . S
C45 O55 1.272 . S
O46 Co42 2.004 . S
O46 C51 1.259 . S
Co47 O48 2.061 . S
Co47 O53 2.052 . S
Co47 O55 2.135 . S
O48 Co47 2.061 . S
O48 C51 1.235 . S
C49 O52 1.238 . S
C49 O53 1.241 . S
C50 O43 1.247 . S
C50 O44 1.261 . S
C51 O46 1.259 . S
C51 O48 1.235 . S
O52 Co42 2.021 . S
O52 C49 1.238 . S
O53 Co47 2.052 . S
O53 C49 1.241 . S
O54 Co42 2.137 . S
O54 C45 1.247 . S
O55 Co42 2.244 . S
O55 C45 1.272 . S
O55 Co47 2.135 . S
Co56 O57 2.216 . S
Co56 O58 2.091 . S
Co56 O60 2.004 . S
Co56 O66 2.021 . S
Co56 O68 2.137 . S
Co56 O69 2.244 . S
O57 Co56 2.216 . S
O57 C64 1.247 . S
O58 Co56 2.091 . S
O58 C64 1.261 . S
C59 O68 1.247 . S
C59 O69 1.272 . S
O60 Co56 2.004 . S
O60 C65 1.259 . S
Co61 O62 2.061 . S
Co61 O67 2.052 . S
Co61 O69 2.135 . S
O62 Co61 2.061 . S
O62 C65 1.235 . S
C63 O66 1.238 . S
C63 O67 1.241 . S
C64 O57 1.247 . S
C64 O58 1.261 . S
C65 O60 1.259 . S
C65 O62 1.235 . S
O66 Co56 2.021 . S
O66 C63 1.238 . S
O67 Co61 2.052 . S
O67 C63 1.241 . S
O68 Co56 2.137 . S
O68 C59 1.247 . S
O69 Co56 2.244 . S
O69 C59 1.272 . S
O69 Co61 2.135 . S
Co70 O71 2.216 . S
Co70 O72 2.091 . S
Co70 O74 2.004 . S
Co70 O80 2.021 . S
Co70 O82 2.137 . S
Co70 O83 2.244 . S
O71 Co70 2.216 . S
O71 C78 1.247 . S
O72 Co70 2.091 . S
O72 C78 1.261 . S
C73 O82 1.247 . S
C73 O83 1.272 . S
O74 Co70 2.004 . S
O74 C79 1.259 . S
Co75 O76 2.061 . S
Co75 O81 2.052 . S
Co75 O83 2.135 . S
O76 Co75 2.061 . S
O76 C79 1.235 . S
C77 O80 1.238 . S
C77 O81 1.241 . S
C78 O71 1.247 . S
C78 O72 1.261 . S
C79 O74 1.259 . S
C79 O76 1.235 . S
O80 Co70 2.021 . S
O80 C77 1.238 . S
O81 Co75 2.052 . S
O81 C77 1.241 . S
O82 Co70 2.137 . S
O82 C73 1.247 . S
O83 Co70 2.244 . S
O83 C73 1.272 . S
O83 Co75 2.135 . S
H84 C92 0.929 . S
H85 C94 0.930 . S
H86 C96 0.930 . S
H87 C99 0.929 . S
H88 C102 0.930 . S
H89 C104 0.960 . S
H90 C104 0.960 . S
H91 C104 0.960 . S
C92 H84 0.929 . S
C92 C93 1.377 . S
C92 C94 1.384 . S
C93 C92 1.377 . S
C93 C99 1.390 . S
C94 H85 0.930 . S
C94 C92 1.384 . S
C94 C95 1.372 . S
C95 C94 1.372 . S
C95 C96 1.400 . S
C95 C100 1.490 . S
C96 H86 0.930 . S
C96 C95 1.400 . S
C96 C99 1.386 . S
H97 C113 0.930 . S
H98 C114 0.931 . S
C99 H87 0.929 . S
C99 C93 1.390 . S
C99 C96 1.386 . S
C100 C95 1.490 . S
C100 C102 1.395 . S
C100 C103 1.403 . S
H101 C107 0.930 . S
C102 H88 0.930 . S
C102 C100 1.395 . S
C102 C105 1.403 1_545 S
C103 C100 1.403 . S
C103 C104 1.524 . S
C103 C107 1.400 1_545 S
C104 H89 0.960 . S
C104 H90 0.960 . S
C104 H91 0.960 . S
C104 C103 1.524 . S
C105 C102 1.403 1_565 S
C105 C106 1.392 . S
C105 C109 1.495 . S
C106 C105 1.392 . S
C106 C107 1.385 . S
C106 C108 1.478 . S
C107 H101 0.930 . S
C107 C103 1.400 1_565 S
C107 C106 1.385 . S
C108 C106 1.478 . S
C108 C110 1.381 . S
C108 C114 1.383 . S
C109 C105 1.495 . S
C109 H115 0.959 1_565 S
C109 H116 0.961 . S
C109 H117 0.960 . S
C110 C108 1.381 . S
C110 C111 1.394 . S
C110 H118 0.930 . S
C111 C110 1.394 . S
C111 C112 1.383 . S
C111 H119 0.929 . S
C112 C111 1.383 . S
C112 C113 1.377 . S
C113 H97 0.930 . S
C113 C112 1.377 . S
C113 C114 1.379 . S
C114 H98 0.931 . S
C114 C108 1.383 . S
C114 C113 1.379 . S
H115 C109 0.959 1_545 S
H116 C109 0.961 . S
H117 C109 0.960 . S
H118 C110 0.930 . S
H119 C111 0.929 . S
H120 C128 0.929 . S
H121 C130 0.930 . S
H122 C132 0.930 . S
H123 C135 0.929 . S
H124 C138 0.930 . S
H125 C140 0.960 . S
H126 C140 0.960 . S
H127 C140 0.960 . S
C128 H120 0.929 . S
C128 C129 1.377 . S
C128 C130 1.384 . S
C129 C128 1.377 . S
C129 C135 1.390 . S
C130 H121 0.930 . S
C130 C128 1.384 . S
C130 C131 1.372 . S
C131 C130 1.372 . S
C131 C132 1.400 . S
C131 C136 1.490 . S
C132 H122 0.930 . S
C132 C131 1.400 . S
C132 C135 1.386 . S
H133 C149 0.930 . S
H134 C150 0.931 . S
C135 H123 0.929 . S
C135 C129 1.390 . S
C135 C132 1.386 . S
C136 C131 1.490 . S
C136 C138 1.395 . S
C136 C139 1.403 . S
H137 C143 0.930 . S
C138 H124 0.930 . S
C138 C136 1.395 . S
C138 C141 1.403 . S
C139 C136 1.403 . S
C139 C140 1.524 . S
C139 C143 1.400 . S
C140 H125 0.960 . S
C140 H126 0.960 . S
C140 H127 0.960 . S
C140 C139 1.524 . S
C141 C138 1.403 . S
C141 C142 1.392 . S
C141 C145 1.495 . S
C142 C141 1.392 . S
C142 C143 1.385 . S
C142 C144 1.478 . S
C143 H137 0.930 . S
C143 C139 1.400 . S
C143 C142 1.385 . S
C144 C142 1.478 . S
C144 C146 1.381 . S
C144 C150 1.383 . S
C145 C141 1.495 . S
C145 H151 0.959 . S
C145 H152 0.961 . S
C145 H153 0.960 . S
C146 C144 1.381 . S
C146 C147 1.394 . S
C146 H154 0.930 . S
C147 C146 1.394 . S
C147 C148 1.383 . S
C147 H155 0.929 . S
C148 C147 1.383 . S
C148 C149 1.377 . S
C149 H133 0.930 . S
C149 C148 1.377 . S
C149 C150 1.379 . S
C150 H134 0.931 . S
C150 C144 1.383 . S
C150 C149 1.379 . S
H151 C145 0.959 . S
H152 C145 0.961 . S
H153 C145 0.960 . S
H154 C146 0.930 . S
H155 C147 0.929 . S
H156 C164 0.929 . S
H157 C166 0.930 . S
H158 C168 0.930 . S
H159 C171 0.929 . S
H160 C174 0.930 . S
H161 C176 0.960 . S
H162 C176 0.960 . S
H163 C176 0.960 . S
C164 H156 0.929 . S
C164 C165 1.377 . S
C164 C166 1.384 . S
C165 C164 1.377 . S
C165 C171 1.390 . S
C166 H157 0.930 . S
C166 C164 1.384 . S
C166 C167 1.372 . S
C167 C166 1.372 . S
C167 C168 1.400 . S
C167 C172 1.490 . S
C168 H158 0.930 . S
C168 C167 1.400 . S
C168 C171 1.386 . S
H169 C185 0.930 . S
H170 C186 0.931 . S
C171 H159 0.929 . S
C171 C165 1.390 . S
C171 C168 1.386 . S
C172 C167 1.490 . S
C172 C174 1.395 . S
C172 C175 1.403 . S
H173 C179 0.930 . S
C174 H160 0.930 . S
C174 C172 1.395 . S
C174 C177 1.403 1_655 S
C175 C172 1.403 . S
C175 C176 1.524 . S
C175 C179 1.400 1_655 S
C176 H161 0.960 . S
C176 H162 0.960 . S
C176 H163 0.960 . S
C176 C175 1.524 . S
C177 C174 1.403 1_455 S
C177 C178 1.392 . S
C177 C181 1.495 . S
C178 C177 1.392 . S
C178 C179 1.385 . S
C178 C180 1.478 . S
C179 H173 0.930 . S
C179 C175 1.400 1_455 S
C179 C178 1.385 . S
C180 C178 1.478 . S
C180 C182 1.381 . S
C180 C186 1.383 . S
C181 C177 1.495 . S
C181 H187 0.959 . S
C181 H188 0.961 . S
C181 H189 0.960 . S
C182 C180 1.381 . S
C182 C183 1.394 . S
C182 H190 0.930 . S
C183 C182 1.394 . S
C183 C184 1.383 . S
C183 H191 0.929 . S
C184 C183 1.383 . S
C184 C185 1.377 . S
C185 H169 0.930 . S
C185 C184 1.377 . S
C185 C186 1.379 . S
C186 H170 0.931 . S
C186 C180 1.383 . S
C186 C185 1.379 . S
H187 C181 0.959 . S
H188 C181 0.961 . S
H189 C181 0.960 . S
H190 C182 0.930 . S
H191 C183 0.929 . S
H192 C200 0.929 . S
H193 C202 0.930 . S
H194 C204 0.930 . S
H195 C207 0.929 . S
H196 C210 0.930 . S
H197 C212 0.960 1_545 S
H198 C212 0.960 . S
H199 C212 0.960 . S
C200 H192 0.929 . S
C200 C201 1.377 . S
C200 C202 1.384 . S
C201 C200 1.377 . S
C201 C207 1.390 . S
C202 H193 0.930 . S
C202 C200 1.384 . S
C202 C203 1.372 . S
C203 C202 1.372 . S
C203 C204 1.400 . S
C203 C208 1.490 . S
C204 H194 0.930 . S
C204 C203 1.400 . S
C204 C207 1.386 . S
H205 C221 0.930 . S
H206 C222 0.931 . S
C207 H195 0.929 . S
C207 C201 1.390 . S
C207 C204 1.386 . S
C208 C203 1.490 . S
C208 C210 1.395 1_554 S
C208 C211 1.403 . S
H209 C215 0.930 . S
C210 H196 0.930 . S
C210 C208 1.395 1_556 S
C210 C213 1.403 1_565 S
C211 C208 1.403 . S
C211 C212 1.524 . S
C211 C215 1.400 1_565 S
C212 H197 0.960 1_565 S
C212 H198 0.960 . S
C212 H199 0.960 . S
C212 C211 1.524 . S
C213 C210 1.403 1_545 S
C213 C214 1.392 . S
C213 C217 1.495 . S
C214 C213 1.392 . S
C214 C215 1.385 1_556 S
C214 C216 1.478 . S
C215 H209 0.930 . S
C215 C211 1.400 1_545 S
C215 C214 1.385 1_554 S
C216 C214 1.478 . S
C216 C218 1.381 . S
C216 C222 1.383 . S
C217 C213 1.495 . S
C217 H223 0.959 1_545 S
C217 H224 0.961 . S
C217 H225 0.960 . S
C218 C216 1.381 . S
C218 C219 1.394 . S
C218 H226 0.930 . S
C219 C218 1.394 . S
C219 C220 1.383 . S
C219 H227 0.929 . S
C220 C219 1.383 . S
C220 C221 1.377 . S
C221 H205 0.930 . S
C221 C220 1.377 . S
C221 C222 1.379 . S
C222 H206 0.931 . S
C222 C216 1.383 . S
C222 C221 1.379 . S
H223 C217 0.959 1_565 S
H224 C217 0.961 . S
H225 C217 0.960 . S
H226 C218 0.930 . S
H227 C219 0.929 . S
H228 C236 0.929 . S
H229 C238 0.930 . S
H230 C240 0.930 . S
H231 C243 0.929 . S
H232 C246 0.930 . S
H233 C248 0.960 . S
H234 C248 0.960 . S
H235 C248 0.960 . S
C236 H228 0.929 . S
C236 C237 1.377 . S
C236 C238 1.384 . S
C237 C236 1.377 . S
C237 C243 1.390 . S
C238 H229 0.930 . S
C238 C236 1.384 . S
C238 C239 1.372 . S
C239 C238 1.372 . S
C239 C240 1.400 . S
C239 C244 1.490 . S
C240 H230 0.930 . S
C240 C239 1.400 . S
C240 C243 1.386 . S
H241 C257 0.930 . S
H242 C258 0.931 . S
C243 H231 0.929 . S
C243 C237 1.390 . S
C243 C240 1.386 . S
C244 C239 1.490 . S
C244 C246 1.395 . S
C244 C247 1.403 . S
H245 C251 0.930 . S
C246 H232 0.930 . S
C246 C244 1.395 . S
C246 C249 1.403 . S
C247 C244 1.403 . S
C247 C248 1.524 . S
C247 C251 1.400 . S
C248 H233 0.960 . S
C248 H234 0.960 . S
C248 H235 0.960 . S
C248 C247 1.524 . S
C249 C246 1.403 . S
C249 C250 1.392 . S
C249 C253 1.495 . S
C250 C249 1.392 . S
C250 C251 1.385 . S
C250 C252 1.478 . S
C251 H245 0.930 . S
C251 C247 1.400 . S
C251 C250 1.385 . S
C252 C250 1.478 . S
C252 C254 1.381 . S
C252 C258 1.383 . S
C253 C249 1.495 . S
C253 H259 0.959 . S
C253 H260 0.961 . S
C253 H261 0.960 . S
C254 C252 1.381 . S
C254 C255 1.394 . S
C254 H262 0.930 . S
C255 C254 1.394 . S
C255 C256 1.383 . S
C255 H263 0.929 . S
C256 C255 1.383 . S
C256 C257 1.377 . S
C257 H241 0.930 . S
C257 C256 1.377 . S
C257 C258 1.379 . S
C258 H242 0.931 . S
C258 C252 1.383 . S
C258 C257 1.379 . S
H259 C253 0.959 . S
H260 C253 0.961 . S
H261 C253 0.960 . S
H262 C254 0.930 . S
H263 C255 0.929 . S
H264 C272 0.929 . S
H265 C274 0.930 . S
H266 C276 0.930 . S
H267 C279 0.929 . S
H268 C282 0.930 . S
H269 C284 0.960 1_655 S
H270 C284 0.960 . S
H271 C284 0.960 . S
C272 H264 0.929 . S
C272 C273 1.377 . S
C272 C274 1.384 . S
C273 C272 1.377 . S
C273 C279 1.390 . S
C274 H265 0.930 . S
C274 C272 1.384 . S
C274 C275 1.372 . S
C275 C274 1.372 . S
C275 C276 1.400 . S
C275 C280 1.490 . S
C276 H266 0.930 . S
C276 C275 1.400 . S
C276 C279 1.386 . S
H277 C293 0.930 . S
H278 C294 0.931 . S
C279 H267 0.929 . S
C279 C273 1.390 . S
C279 C276 1.386 . S
C280 C275 1.490 . S
C280 C282 1.395 . S
C280 C283 1.403 . S
H281 C287 0.930 . S
C282 H268 0.930 . S
C282 C280 1.395 . S
C282 C285 1.382 1_455 S
C283 C280 1.403 . S
C283 C284 1.524 . S
C283 C287 1.400 1_455 S
C284 H269 0.960 1_455 S
C284 H270 0.960 . S
C284 H271 0.960 . S
C284 C283 1.524 . S
C285 C282 1.382 1_655 S
C285 C286 1.420 . S
C285 C289 1.489 . S
C286 C285 1.420 . S
C286 C287 1.385 . S
C286 C288 1.478 . S
C287 H281 0.930 . S
C287 C283 1.400 1_655 S
C287 C286 1.385 . S
C288 C286 1.478 . S
C288 C290 1.381 . S
C288 C294 1.383 . S
C289 C285 1.489 . S
C289 H295 0.959 1_655 S
C289 H296 0.961 . S
C289 H297 0.960 . S
C290 C288 1.381 . S
C290 C291 1.394 . S
C290 H298 0.930 . S
C291 C290 1.394 . S
C291 C292 1.383 . S
C291 H299 0.929 . S
C292 C291 1.383 . S
C292 C293 1.377 . S
C293 H277 0.930 . S
C293 C292 1.377 . S
C293 C294 1.379 . S
C294 H278 0.931 . S
C294 C288 1.383 . S
C294 C293 1.379 . S
H295 C289 0.959 1_455 S
H296 C289 0.961 . S
H297 C289 0.960 . S
H298 C290 0.930 . S
H299 C291 0.929 . S
H300 C308 0.929 . S
H301 C310 0.930 . S
H302 C312 0.930 . S
H303 C315 0.929 . S
H304 C318 0.930 . S
H305 C320 0.960 . S
H306 C320 0.960 . S
H307 C320 0.960 . S
C308 H300 0.929 . S
C308 C309 1.377 . S
C308 C310 1.384 . S
C309 C308 1.377 . S
C309 C315 1.390 . S
C310 H301 0.930 . S
C310 C308 1.384 . S
C310 C311 1.372 . S
C311 C310 1.372 . S
C311 C312 1.400 . S
C311 C316 1.490 . S
C312 H302 0.930 . S
C312 C311 1.400 . S
C312 C315 1.386 . S
H313 C329 0.930 . S
H314 C330 0.931 . S
C315 H303 0.929 . S
C315 C309 1.390 . S
C315 C312 1.386 . S
C316 C311 1.490 . S
C316 C318 1.395 . S
C316 C319 1.403 . S
H317 C323 0.930 . S
C318 H304 0.930 . S
C318 C316 1.395 . S
C318 C321 1.403 . S
C319 C316 1.403 . S
C319 C320 1.524 . S
C319 C323 1.400 . S
C320 H305 0.960 . S
C320 H306 0.960 . S
C320 H307 0.960 . S
C320 C319 1.524 . S
C321 C318 1.403 . S
C321 C322 1.392 . S
C321 C325 1.495 . S
C322 C321 1.392 . S
C322 C323 1.385 . S
C322 C324 1.478 . S
C323 H317 0.930 . S
C323 C319 1.400 . S
C323 C322 1.385 . S
C324 C322 1.478 . S
C324 C326 1.381 . S
C324 C330 1.383 . S
C325 C321 1.495 . S
C325 H331 0.959 . S
C325 H332 0.961 . S
C325 H333 0.960 . S
C326 C324 1.381 . S
C326 C327 1.394 . S
C326 H334 0.930 . S
C327 C326 1.394 . S
C327 C328 1.383 . S
C327 H335 0.929 . S
C328 C327 1.383 . S
C328 C329 1.377 . S
C329 H313 0.930 . S
C329 C328 1.377 . S
C329 C330 1.379 . S
C330 H314 0.931 . S
C330 C324 1.383 . S
C330 C329 1.379 . S
H331 C325 0.959 . S
H332 C325 0.961 . S
H333 C325 0.960 . S
H334 C326 0.930 . S
H335 C327 0.929 . S
H336 C344 0.929 . S
H337 C346 0.930 . S
H338 C348 0.930 . S
H339 C351 0.929 . S
H340 C354 0.930 . S
H341 C356 0.960 . S
H342 C356 0.960 . S
H343 C356 0.960 . S
C344 H336 0.929 . S
C344 C345 1.377 . S
C344 C346 1.384 . S
C345 C344 1.377 . S
C345 C351 1.390 . S
C346 H337 0.930 . S
C346 C344 1.384 . S
C346 C347 1.372 . S
C347 C346 1.372 . S
C347 C348 1.400 . S
C347 C352 1.490 . S
C348 H338 0.930 . S
C348 C347 1.400 . S
C348 C351 1.386 . S
H349 C365 0.930 . S
H350 C366 0.931 . S
C351 H339 0.929 . S
C351 C345 1.390 . S
C351 C348 1.386 . S
C352 C347 1.490 . S
C352 C354 1.395 . S
C352 C355 1.403 . S
H353 C359 0.930 . S
C354 H340 0.930 . S
C354 C352 1.395 . S
C354 C357 1.403 . S
C355 C352 1.403 . S
C355 C356 1.524 . S
C355 C359 1.400 . S
C356 H341 0.960 . S
C356 H342 0.960 . S
C356 H343 0.960 . S
C356 C355 1.524 . S
C357 C354 1.403 . S
C357 C358 1.392 . S
C357 C361 1.495 . S
C358 C357 1.392 . S
C358 C359 1.385 . S
C358 C360 1.478 . S
C359 H353 0.930 . S
C359 C355 1.400 . S
C359 C358 1.385 . S
C360 C358 1.478 . S
C360 C362 1.381 . S
C360 C366 1.383 . S
C361 C357 1.495 . S
C361 H367 0.959 . S
C361 H368 0.961 . S
C361 H369 0.960 . S
C362 C360 1.381 . S
C362 C363 1.394 . S
C362 H370 0.930 . S
C363 C362 1.394 . S
C363 C364 1.383 . S
C363 H371 0.929 . S
C364 C363 1.383 . S
C364 C365 1.377 . S
C365 H349 0.930 . S
C365 C364 1.377 . S
C365 C366 1.379 . S
C366 H350 0.931 . S
C366 C360 1.383 . S
C366 C365 1.379 . S
H367 C361 0.959 . S
H368 C361 0.961 . S
H369 C361 0.960 . S
H370 C362 0.930 . S
H371 C363 0.929 . S
H372 C380 0.929 . S
H373 C382 0.930 . S
H374 C384 0.930 . S
H375 C387 0.929 . S
H376 C390 0.930 . S
H377 C392 0.960 . S
H378 C392 0.960 . S
H379 C392 0.960 . S
C380 H372 0.929 . S
C380 C381 1.377 . S
C380 C382 1.384 . S
C381 C380 1.377 . S
C381 C387 1.390 . S
C382 H373 0.930 . S
C382 C380 1.384 . S
C382 C383 1.372 . S
C383 C382 1.372 . S
C383 C384 1.400 . S
C383 C388 1.490 . S
C384 H374 0.930 . S
C384 C383 1.400 . S
C384 C387 1.386 . S
H385 C401 0.930 . S
H386 C402 0.931 . S
C387 H375 0.929 . S
C387 C381 1.390 . S
C387 C384 1.386 . S
C388 C383 1.490 . S
C388 C390 1.395 . S
C388 C391 1.403 . S
H389 C395 0.930 . S
C390 H376 0.930 . S
C390 C388 1.395 . S
C390 C393 1.403 . S
C391 C388 1.403 . S
C391 C392 1.524 . S
C391 C395 1.400 . S
C392 H377 0.960 . S
C392 H378 0.960 . S
C392 H379 0.960 . S
C392 C391 1.524 . S
C393 C390 1.403 . S
C393 C394 1.392 . S
C393 C397 1.495 . S
C394 C393 1.392 . S
C394 C395 1.385 . S
C394 C396 1.478 . S
C395 H389 0.930 . S
C395 C391 1.400 . S
C395 C394 1.385 . S
C396 C394 1.478 . S
C396 C398 1.381 . S
C396 C402 1.383 . S
C397 C393 1.495 . S
C397 H403 0.959 . S
C397 H404 0.961 . S
C397 H405 0.960 . S
C398 C396 1.381 . S
C398 C399 1.394 . S
C398 H406 0.930 . S
C399 C398 1.394 . S
C399 C400 1.383 . S
C399 H407 0.929 . S
C400 C399 1.383 . S
C400 C401 1.377 . S
C401 H385 0.930 . S
C401 C400 1.377 . S
C401 C402 1.379 . S
C402 H386 0.931 . S
C402 C396 1.383 . S
C402 C401 1.379 . S
H403 C397 0.959 . S
H404 C397 0.961 . S
H405 C397 0.960 . S
H406 C398 0.930 . S
H407 C399 0.929 . S
H408 C416 0.929 . S
H409 C418 0.930 . S
H410 C420 0.930 . S
H411 C423 0.929 . S
H412 C426 0.930 . S
H413 C428 0.960 . S
H414 C428 0.960 . S
H415 C428 0.960 . S
C416 H408 0.929 . S
C416 C417 1.377 . S
C416 C418 1.384 . S
C417 C416 1.377 . S
C417 C423 1.390 . S
C418 H409 0.930 . S
C418 C416 1.384 . S
C418 C419 1.372 . S
C419 C418 1.372 . S
C419 C420 1.400 . S
C419 C424 1.490 . S
C420 H410 0.930 . S
C420 C419 1.400 . S
C420 C423 1.386 . S
H421 C437 0.930 . S
H422 C438 0.931 . S
C423 H411 0.929 . S
C423 C417 1.390 . S
C423 C420 1.386 . S
C424 C419 1.490 . S
C424 C426 1.395 . S
C424 C427 1.403 . S
H425 C431 0.930 . S
C426 H412 0.930 . S
C426 C424 1.395 . S
C426 C429 1.403 . S
C427 C424 1.403 . S
C427 C428 1.524 . S
C427 C431 1.400 . S
C428 H413 0.960 . S
C428 H414 0.960 . S
C428 H415 0.960 . S
C428 C427 1.524 . S
C429 C426 1.403 . S
C429 C430 1.392 . S
C429 C433 1.495 . S
C430 C429 1.392 . S
C430 C431 1.385 . S
C430 C432 1.478 . S
C431 H425 0.930 . S
C431 C427 1.400 . S
C431 C430 1.385 . S
C432 C430 1.478 . S
C432 C434 1.381 . S
C432 C438 1.383 . S
C433 C429 1.495 . S
C433 H439 0.959 . S
C433 H440 0.961 . S
C433 H441 0.960 . S
C434 C432 1.381 . S
C434 C435 1.394 . S
C434 H442 0.930 . S
C435 C434 1.394 . S
C435 C436 1.383 1_556 S
C435 H443 0.929 . S
C436 C435 1.383 1_554 S
C436 C437 1.377 . S
C437 H421 0.930 . S
C437 C436 1.377 . S
C437 C438 1.379 1_554 S
C438 H422 0.931 . S
C438 C432 1.383 . S
C438 C437 1.379 1_556 S
H439 C433 0.959 . S
H440 C433 0.961 . S
H441 C433 0.960 . S
H442 C434 0.930 . S
H443 C435 0.929 . S
H444 C452 0.929 . S
H445 C454 0.930 . S
H446 C456 0.930 . S
H447 C459 0.929 . S
H448 C462 0.930 . S
H449 C464 0.960 . S
H450 C464 0.960 . S
H451 C464 0.960 . S
C452 H444 0.929 . S
C452 C453 1.377 . S
C452 C454 1.384 1_556 S
C453 C452 1.377 . S
C453 C459 1.390 1_556 S
C454 H445 0.930 . S
C454 C452 1.384 1_554 S
C454 C455 1.372 . S
C455 C454 1.372 . S
C455 C456 1.400 . S
C455 C460 1.490 . S
C456 H446 0.930 . S
C456 C455 1.400 . S
C456 C459 1.386 . S
H457 C473 0.930 . S
H458 C474 0.931 . S
C459 H447 0.929 . S
C459 C453 1.390 1_554 S
C459 C456 1.386 . S
C460 C455 1.490 . S
C460 C462 1.395 . S
C460 C463 1.403 . S
H461 C467 0.930 . S
C462 H448 0.930 . S
C462 C460 1.395 . S
C462 C465 1.403 . S
C463 C460 1.403 . S
C463 C464 1.524 . S
C463 C467 1.400 . S
C464 H449 0.960 . S
C464 H450 0.960 . S
C464 H451 0.960 . S
C464 C463 1.524 . S
C465 C462 1.403 . S
C465 C466 1.392 . S
C465 C469 1.495 . S
C466 C465 1.392 . S
C466 C467 1.385 . S
C466 C468 1.478 . S
C467 H461 0.930 . S
C467 C463 1.400 . S
C467 C466 1.385 . S
C468 C466 1.478 . S
C468 C470 1.381 . S
C468 C474 1.383 . S
C469 C465 1.495 . S
C469 H475 0.959 . S
C469 H476 0.961 . S
C469 H477 0.960 . S
C470 C468 1.381 . S
C470 C471 1.394 . S
C470 H478 0.930 . S
C471 C470 1.394 . S
C471 C472 1.383 . S
C471 H479 0.929 . S
C472 C471 1.383 . S
C472 C473 1.377 . S
C473 H457 0.930 . S
C473 C472 1.377 . S
C473 C474 1.379 . S
C474 H458 0.931 . S
C474 C468 1.383 . S
C474 C473 1.379 . S
H475 C469 0.959 . S
H476 C469 0.961 . S
H477 C469 0.960 . S
H478 C470 0.930 . S
H479 C471 0.929 . S
H480 C488 0.929 . S
H481 C490 0.930 . S
H482 C492 0.930 . S
H483 C495 0.929 . S
H484 C498 0.930 . S
H485 C500 0.960 . S
H486 C500 0.960 . S
H487 C500 0.960 . S
C488 H480 0.929 . S
C488 C489 1.377 . S
C488 C490 1.384 . S
C489 C488 1.377 . S
C489 C495 1.390 . S
C490 H481 0.930 . S
C490 C488 1.384 . S
C490 C491 1.372 . S
C491 C490 1.372 . S
C491 C492 1.400 . S
C491 C496 1.490 . S
C492 H482 0.930 . S
C492 C491 1.400 . S
C492 C495 1.386 . S
H493 C509 0.930 . S
H494 C510 0.931 . S
C495 H483 0.929 . S
C495 C489 1.390 . S
C495 C492 1.386 . S
C496 C491 1.490 . S
C496 C498 1.395 . S
C496 C499 1.403 . S
H497 C503 0.930 . S
C498 H484 0.930 . S
C498 C496 1.395 . S
C498 C501 1.403 . S
C499 C496 1.403 . S
C499 C500 1.524 . S
C499 C503 1.400 . S
C500 H485 0.960 . S
C500 H486 0.960 . S
C500 H487 0.960 . S
C500 C499 1.524 . S
C501 C498 1.403 . S
C501 C502 1.392 . S
C501 C505 1.495 . S
C502 C501 1.392 . S
C502 C503 1.385 . S
C502 C504 1.478 . S
C503 H497 0.930 . S
C503 C499 1.400 . S
C503 C502 1.385 . S
C504 C502 1.478 . S
C504 C506 1.381 . S
C504 C510 1.383 . S
C505 C501 1.495 . S
C505 H511 0.959 . S
C505 H512 0.961 . S
C505 H513 0.960 . S
C506 C504 1.381 . S
C506 C507 1.394 . S
C506 H514 0.930 . S
C507 C506 1.394 . S
C507 C508 1.383 . S
C507 H515 0.929 . S
C508 C507 1.383 . S
C508 C509 1.377 . S
C509 H493 0.930 . S
C509 C508 1.377 . S
C509 C510 1.379 . S
C510 H494 0.931 . S
C510 C504 1.383 . S
C510 C509 1.379 . S
H511 C505 0.959 . S
H512 C505 0.961 . S
H513 C505 0.960 . S
H514 C506 0.930 . S
H515 C507 0.929 . S
C93 C9 1.639 . S
C112 C78 1.648 . S
C129 C8 1.648 . S
C148 C23 1.625 . S
C165 C37 1.636 . S
C184 C22 1.645 . S
C201 C51 1.640 . S
C220 C36 1.639 . S
C237 C65 1.637 . S
C256 C50 1.641 . S
C273 C79 1.639 . S
C292 C64 1.647 . S
C309 C3 1.441 . S
C328 C63 1.428 . S
C345 C77 1.413 . S
C364 C17 1.438 . S
C381 C31 1.441 . S
C400 C7 1.416 . S
C417 C21 1.407 . S
C436 C45 1.439 . S
C453 C35 1.409 . S
C472 C59 1.438 . S
C489 C73 1.441 . S
C508 C49 1.389 . S
