# Generated by pormake.
# Topology uog, (4)-cn, num edge types: 1
# Building blocks:
#     Node 0, Type 0, BuildingBlock: QUQFOY_clean_sbu_3, # of connection points: 4
#     Node 1, Type 0, BuildingBlock: QUQFOY_clean_sbu_3, # of connection points: 4
#     Node 2, Type 0, BuildingBlock: QUQFOY_clean_sbu_3, # of connection points: 4
#     Node 3, Type 0, BuildingBlock: QUQFOY_clean_sbu_3, # of connection points: 4
#     Node 4, Type 0, BuildingBlock: QUQFOY_clean_sbu_3, # of connection points: 4
#     Node 5, Type 0, BuildingBlock: QUQFOY_clean_sbu_3, # of connection points: 4
#     Edge 6, Type (0, 0), BuildingBlock: TEMPAE_clean_linker_10, # of connection points: 2
#     Edge 7, Type (0, 0), BuildingBlock: TEMPAE_clean_linker_10, # of connection points: 2
#     Edge 8, Type (0, 0), BuildingBlock: TEMPAE_clean_linker_10, # of connection points: 2
#     Edge 9, Type (0, 0), BuildingBlock: TEMPAE_clean_linker_10, # of connection points: 2
#     Edge 10, Type (0, 0), BuildingBlock: TEMPAE_clean_linker_10, # of connection points: 2
#     Edge 11, Type (0, 0), BuildingBlock: TEMPAE_clean_linker_10, # of connection points: 2
#     Edge 12, Type (0, 0), BuildingBlock: TEMPAE_clean_linker_10, # of connection points: 2
#     Edge 13, Type (0, 0), BuildingBlock: TEMPAE_clean_linker_10, # of connection points: 2
#     Edge 14, Type (0, 0), BuildingBlock: TEMPAE_clean_linker_10, # of connection points: 2
#     Edge 15, Type (0, 0), BuildingBlock: TEMPAE_clean_linker_10, # of connection points: 2
#     Edge 16, Type (0, 0), BuildingBlock: TEMPAE_clean_linker_10, # of connection points: 2
#     Edge 17, Type (0, 0), BuildingBlock: TEMPAE_clean_linker_10, # of connection points: 2
# Relax obj value: 0.081
# Max RMSD: 0.177
# Mean RMSD: 0.177
data_MOF--net-uog--node1-QUQFOY_clean_sbu_3--edge1-TEMPAE_clean_linker_10
_symmetry_space_group_name_H-M    P1
_symmetry_Int_Tables_number       1
_symmetry_cell_setting            triclinic
loop_
_symmetry_equiv_pos_as_xyz
'x, y, z'
_cell_length_a     29.745905
_cell_length_b     29.808393
_cell_length_c     44.658929
_cell_angle_alpha  89.850361
_cell_angle_beta   90.070008
_cell_angle_gamma 120.28509
loop_
_atom_site_label
_atom_site_type_symbol
_atom_site_fract_x
_atom_site_fract_y
_atom_site_fract_z
_atom_type_partial_charge
C0 C 0.68836 0.33114 0.19512 0.0
O1 O 0.72729 0.36635 0.18112 0.0
Cd2 Cd 0.70526 0.39414 0.1348 0.0
O3 O 0.64374 0.3099 0.18313 0.0
Cd4 Cd 0.59547 0.30164 0.13825 0.0
C5 C 0.60567 0.41375 0.15821 0.0
O6 O 0.65788 0.32976 0.09642 0.0
O7 O 0.58654 0.33253 0.0909 0.0
O8 O 0.58475 0.21717 0.14331 0.0
C9 C 0.6278 0.33746 0.0795 0.0
O10 O 0.65232 0.43188 0.14916 0.0
C11 C 0.53573 0.19139 0.14038 0.0
O12 O 0.57432 0.36474 0.15938 0.0
O13 O 0.51245 0.21683 0.13566 0.0
C14 C 0.30902 0.68715 0.52524 0.0
O15 O 0.32324 0.72464 0.50709 0.0
Cd16 Cd 0.27758 0.69716 0.45971 0.0
O17 O 0.28463 0.6408 0.51576 0.0
Cd18 Cd 0.26488 0.59476 0.46839 0.0
C19 C 0.1561 0.5948 0.47907 0.0
O20 O 0.30487 0.65377 0.42522 0.0
O21 O 0.23076 0.58244 0.41884 0.0
O22 O 0.3397 0.58798 0.48041 0.0
C23 C 0.26955 0.62206 0.40747 0.0
O24 O 0.18417 0.64142 0.46982 0.0
C25 C 0.31836 0.53926 0.47689 0.0
O26 O 0.17587 0.56599 0.48318 0.0
O27 O 0.27051 0.51477 0.46929 0.0
C28 C 0.62879 0.33063 0.85834 0.0
O29 O 0.58872 0.31302 0.84179 0.0
Cd30 Cd 0.58455 0.27274 0.79395 0.0
O31 O 0.6684 0.32845 0.85003 0.0
Cd32 Cd 0.70285 0.30116 0.80939 0.0
C33 C 0.60678 0.17687 0.82056 0.0
O34 O 0.66341 0.31728 0.76581 0.0
O35 O 0.70016 0.27075 0.75952 0.0
O36 O 0.7781 0.38711 0.80892 0.0
C37 C 0.67632 0.29204 0.74827 0.0
O38 O 0.57776 0.19122 0.80782 0.0
C39 C 0.81122 0.37398 0.8159 0.0
O40 O 0.65434 0.20938 0.8268 0.0
O41 O 0.794 0.32578 0.82047 0.0
C42 C 0.29763 0.62574 0.18448 0.0
O43 O 0.27603 0.58449 0.16892 0.0
Cd44 Cd 0.30345 0.58 0.11854 0.0
O45 O 0.33469 0.66768 0.17384 0.0
Cd46 Cd 0.38714 0.70446 0.129 0.0
C47 C 0.43055 0.61963 0.13732 0.0
O48 O 0.32241 0.65533 0.09049 0.0
O49 O 0.40288 0.70225 0.07642 0.0
O50 O 0.37064 0.77502 0.13843 0.0
C51 C 0.35589 0.67091 0.06956 0.0
O52 O 0.38643 0.58595 0.12685 0.0
C53 C 0.41752 0.8113 0.13542 0.0
O54 O 0.44124 0.66591 0.1433 0.0
O55 O 0.45122 0.79802 0.13 0.0
C56 C 0.63343 0.28947 0.52593 0.0
O57 O 0.63756 0.25671 0.50978 0.0
Cd58 Cd 0.66587 0.27802 0.45805 0.0
O59 O 0.63598 0.32959 0.5143 0.0
Cd60 Cd 0.64157 0.37292 0.46729 0.0
C61 C 0.76702 0.40438 0.47037 0.0
O62 O 0.61375 0.30318 0.43054 0.0
O63 O 0.65477 0.38305 0.41462 0.0
O64 O 0.55883 0.36413 0.48096 0.0
C65 C 0.63295 0.33499 0.40877 0.0
O66 O 0.74996 0.35737 0.46259 0.0
C67 C 0.57254 0.41139 0.47632 0.0
O68 O 0.73615 0.42136 0.47599 0.0
O69 O 0.61941 0.44168 0.46815 0.0
C70 C 0.34892 0.61787 0.85659 0.0
O71 O 0.38805 0.62515 0.84142 0.0
Cd72 Cd 0.40905 0.68262 0.79821 0.0
O73 O 0.32168 0.63691 0.84759 0.0
Cd74 Cd 0.30765 0.68367 0.80831 0.0
C75 C 0.41678 0.79151 0.82978 0.0
O76 O 0.34099 0.66545 0.76229 0.0
O77 O 0.32885 0.7317 0.76307 0.0
O78 O 0.22342 0.60972 0.79872 0.0
C79 C 0.34005 0.70236 0.74823 0.0
O80 O 0.43901 0.76888 0.81799 0.0
C81 C 0.19672 0.62807 0.80956 0.0
O82 O 0.36718 0.76843 0.8316 0.0
O83 O 0.22161 0.67419 0.81983 0.0
C84 C 0.52514 0.11152 0.16402 0.0
C85 C 0.50855 0.13434 0.14251 0.0
C86 C 0.50607 0.05792 0.16416 0.0
C87 C 0.47074 0.02657 0.14163 0.0
C88 C 0.45244 0.04918 0.12042 0.0
C89 C 0.47113 0.10296 0.12136 0.0
C90 C 0.52543 0.03526 0.18772 0.0
C91 C 0.41551 0.01716 0.09574 0.0
C92 C 0.4762 0.9051 0.12298 0.0
C93 C 0.43146 0.86635 0.13728 0.0
C94 C 0.48848 0.95718 0.12344 0.0
C95 C 0.45595 0.97097 0.13928 0.0
C96 C 0.41098 0.93201 0.15402 0.0
C97 C 0.39892 0.88005 0.15252 0.0
C98 C 0.53633 -0.00252 0.10701 0.0
C99 C 0.37618 0.94533 0.17183 0.0
H100 H 0.554 0.13596 0.18045 0.0
H101 H 0.45886 0.12085 0.10454 0.0
H102 H 0.49222 0.00083 0.19836 0.0
H103 H 0.55047 0.02207 0.17712 0.0
H104 H 0.54835 0.06385 0.20545 0.0
H105 H 0.40212 0.0397 0.08236 0.0
H106 H 0.43524 0.00309 0.08054 0.0
H107 H 0.381 0.98244 0.10518 0.0
H108 H 0.50112 0.89456 0.1109 0.0
H109 H 0.36433 0.85015 0.16369 0.0
H110 H 0.56477 0.02573 0.1232 0.0
H111 H 0.52576 0.01956 0.09128 0.0
H112 H 0.55561 0.97995 0.0942 0.0
H113 H 0.39877 0.97228 0.19025 0.0
H114 H 0.34225 0.91037 0.18163 0.0
H115 H 0.36166 0.96563 0.15738 0.0
C116 C 0.3911 0.53418 0.50068 0.0
C117 C 0.34947 0.5137 0.48041 0.0
C118 C 0.42543 0.51498 0.50207 0.0
C119 C 0.41882 0.4754 0.48206 0.0
C120 C 0.37592 0.45352 0.46208 0.0
C121 C 0.3412 0.47252 0.46179 0.0
C122 C 0.46974 0.53828 0.5243 0.0
C123 C 0.3682 0.41194 0.44001 0.0
C124 C 0.54136 0.47223 0.4624 0.0
C125 C 0.5346 0.42926 0.47892 0.0
C126 C 0.5035 0.48711 0.46287 0.0
C127 C 0.45855 0.45916 0.48093 0.0
C128 C 0.45218 0.4165 0.49823 0.0
C129 C 0.48999 0.40162 0.4967 0.0
C130 C 0.51125 0.53229 0.44369 0.0
C131 C 0.40557 0.38673 0.51842 0.0
H132 H 0.39727 0.56587 0.51523 0.0
H133 H 0.30927 0.45707 0.44592 0.0
H134 H 0.47104 0.50713 0.53724 0.0
H135 H 0.50729 0.56031 0.51221 0.0
H136 H 0.46635 0.565 0.54022 0.0
H137 H 0.33158 0.39725 0.42701 0.0
H138 H 0.40142 0.42784 0.42413 0.0
H139 H 0.36745 0.3788 0.45183 0.0
H140 H 0.57556 0.49331 0.4484 0.0
H141 H 0.48479 0.36845 0.50959 0.0
H142 H 0.51319 0.56354 0.45804 0.0
H143 H 0.47759 0.5197 0.42838 0.0
H144 H 0.5474 0.54872 0.4301 0.0
H145 H 0.40333 0.41357 0.53472 0.0
H146 H 0.40709 0.3553 0.53097 0.0
H147 H 0.36925 0.36924 0.505 0.0
C148 C 0.88552 0.46182 0.80349 0.0
C149 C 0.86726 0.41341 0.81741 0.0
C150 C 0.93866 0.49926 0.80328 0.0
C151 C 0.97441 0.48851 0.81789 0.0
C152 C 0.95605 0.44037 0.83287 0.0
C153 C 0.90267 0.40307 0.83215 0.0
C154 C 0.95671 0.54954 0.78645 0.0
C155 C -0.00707 0.42792 0.84917 0.0
C156 C 0.11374 0.55525 0.79001 0.0
C157 C 0.13941 0.59558 0.81075 0.0
C158 C 0.05999 0.52078 0.79185 0.0
C159 C 0.03128 0.52598 0.81548 0.0
C160 C 0.05688 0.56695 0.83639 0.0
C161 C 0.11072 0.60176 0.83356 0.0
C162 C 0.03402 0.47853 0.76862 0.0
C163 C 0.02766 0.57314 0.86215 0.0
H164 H 0.85835 0.46999 0.79194 0.0
H165 H 0.88867 0.36589 0.84315 0.0
H166 H 0.98018 0.5832 0.8013 0.0
H167 H 0.98215 0.55218 0.76756 0.0
H168 H 0.92372 0.55283 0.77735 0.0
H169 H 0.97205 0.39086 0.86189 0.0
H170 H 0.01937 0.42487 0.83287 0.0
H171 H 0.01756 0.45968 0.86493 0.0
H172 H 0.13584 0.55053 0.77225 0.0
H173 H 0.13065 0.63259 0.84981 0.0
H174 H 0.00171 0.48089 0.75775 0.0
H175 H 0.01689 0.43985 0.7795 0.0
H176 H 0.06158 0.48113 0.75101 0.0
H177 H -0.00477 0.57781 0.85359 0.0
H178 H 0.05317 0.60712 0.87641 0.0
H179 H 0.01017 0.53761 0.87627 0.0
C180 C 0.0749 0.59682 0.46815 0.0
C181 C 0.09945 0.57319 0.48274 0.0
C182 C 0.02057 0.57378 0.46827 0.0
C183 C -0.00987 0.5265 0.48386 0.0
C184 C 0.01485 0.50415 0.5002 0.0
C185 C 0.06927 0.52747 0.49917 0.0
C186 C -0.0043 0.59831 0.45009 0.0
C187 C 0.98368 0.45429 0.51762 0.0
C188 C 0.84566 0.47671 0.49528 0.0
C189 C 0.82383 0.43875 0.47291 0.0
C190 C 0.89994 0.50573 0.4993 0.0
C191 C 0.9327 0.49725 0.48 0.0
C192 C 0.91067 0.46017 0.45675 0.0
C193 C 0.85652 0.43098 0.45375 0.0
C194 C 0.92214 0.54427 0.52465 0.0
C195 C 0.94424 0.45083 0.43521 0.0
H196 H 0.09797 0.63213 0.45534 0.0
H197 H 0.08809 0.50936 0.51077 0.0
H198 H 0.9753 0.5733 0.43055 0.0
H199 H 0.96616 0.60148 0.46359 0.0
H200 H 0.02476 0.63759 0.44175 0.0
H201 H 0.00871 0.44582 0.53228 0.0
H202 H 0.95396 0.45624 0.53166 0.0
H203 H 0.96275 0.42144 0.50184 0.0
H204 H 0.82029 0.48231 0.51028 0.0
H205 H 0.83961 0.40186 0.43629 0.0
H206 H 0.9509 0.58328 0.51595 0.0
H207 H 0.94308 0.53242 0.54047 0.0
H208 H 0.89152 0.54729 0.53716 0.0
H209 H 0.97294 0.48787 0.42432 0.0
H210 H 0.92098 0.42239 0.41749 0.0
H211 H 0.96649 0.436 0.44756 0.0
C212 C 0.50194 0.87461 0.82952 0.0
C213 C 0.44929 0.84709 0.83805 0.0
C214 C 0.53137 0.92882 0.83172 0.0
C215 C 0.508 0.95627 0.84333 0.0
C216 C 0.45649 0.92844 0.85466 0.0
C217 C 0.42746 0.8741 0.85159 0.0
C218 C 0.58581 0.95683 0.81891 0.0
C219 C 0.43073 0.95629 0.868 0.0
C220 C 0.59547 0.10272 0.85293 0.0
C221 C 0.58405 0.12091 0.8267 0.0
C222 C 0.57005 0.04909 0.85925 0.0
C223 C 0.53375 0.01332 0.8384 0.0
C224 C 0.52312 0.03181 0.81164 0.0
C225 C 0.54789 0.08527 0.80635 0.0
C226 C 0.5813 0.03074 0.88831 0.0
C227 C 0.48577 -0.00488 0.78838 0.0
H228 H 0.5195 0.85421 0.81926 0.0
H229 H 0.3871 0.85315 0.85866 0.0
H230 H 0.58565 0.97558 0.79743 0.0
H231 H 0.61309 0.98793 0.83422 0.0
H232 H 0.6008 0.93005 0.81458 0.0
H233 H 0.39528 0.92947 0.88095 0.0
H234 H 0.45809 0.9882 0.8829 0.0
H235 H 0.41925 0.97388 0.84978 0.0
H236 H 0.62298 0.13039 0.86883 0.0
H237 H 0.53927 0.09933 0.78595 0.0
H238 H 0.59639 0.00415 0.88379 0.0
H239 H 0.54475 0.00839 0.9013 0.0
H240 H 0.61011 0.06349 0.90227 0.0
H241 H 0.49858 0.96788 0.78084 0.0
H242 H 0.48284 0.01592 0.76847 0.0
H243 H 0.44638 0.97151 0.79824 0.0
C244 C 0.47421 0.57202 0.12131 0.0
C245 C 0.46831 0.60251 0.14295 0.0
C246 C 0.50176 0.54651 0.12759 0.0
C247 C 0.52298 0.55067 0.15654 0.0
C248 C 0.51902 0.58324 0.17818 0.0
C249 C 0.49192 0.60927 0.17101 0.0
C250 C 0.50611 0.51325 0.10358 0.0
C251 C 0.5407 0.58821 0.20933 0.0
C252 C 0.53515 0.43253 0.17245 0.0
C253 C 0.58687 0.45054 0.16399 0.0
C254 C 0.51489 0.46612 0.17272 0.0
C255 C 0.54697 0.5187 0.16397 0.0
C256 C 0.60018 0.53796 0.15769 0.0
C257 C 0.61956 0.50375 0.15794 0.0
C258 C 0.45814 0.44437 0.1802 0.0
C259 C 0.63568 0.59365 0.14817 0.0
H260 H 0.45578 0.56688 0.09962 0.0
H261 H 0.48653 0.63225 0.18787 0.0
H262 H 0.54736 0.52395 0.10058 0.0
H263 H 0.48407 0.47182 0.11045 0.0
H264 H 0.4907 0.51722 0.08167 0.0
H265 H 0.5404 0.61992 0.22217 0.0
H266 H 0.51694 0.55115 0.22162 0.0
H267 H 0.58114 0.59557 0.20847 0.0
H268 H 0.50976 0.3917 0.17754 0.0
H269 H 0.65979 0.51836 0.15168 0.0
H270 H 0.43616 0.44067 0.15937 0.0
H271 H 0.45322 0.47098 0.19539 0.0
H272 H 0.44075 0.40548 0.19094 0.0
H273 H 0.62578 0.59902 0.12497 0.0
H274 H 0.67733 0.60459 0.14871 0.0
H275 H 0.63031 0.62065 0.16277 0.0
C276 C 0.6741 0.38465 0.90268 0.0
C277 C 0.62783 0.34659 0.88932 0.0
C278 C 0.67753 0.39186 0.93377 0.0
C279 C 0.63411 0.35901 0.95181 0.0
C280 C 0.58633 0.32265 0.93824 0.0
C281 C 0.58358 0.31739 0.907 0.0
C282 C 0.72847 0.4324 0.94735 0.0
C283 C 0.53932 0.2865 0.95679 0.0
C284 C 0.65622 0.32331 0.02979 0.0
C285 C 0.63789 0.34933 0.04746 0.0
C286 C 0.65657 0.32729 -0.00154 0.0
C287 C 0.63965 0.35927 -0.01517 0.0
C288 C 0.6247 0.3885 0.00281 0.0
C289 C 0.62313 0.38245 0.03396 0.0
C290 C 0.67208 0.29493 -0.02005 0.0
C291 C 0.60829 0.42443 -0.01085 0.0
H292 H 0.7083 0.40731 0.8889 0.0
H293 H 0.54801 0.28754 0.89665 0.0
H294 H 0.72172 0.45469 0.96486 0.0
H295 H 0.74782 0.41311 0.95823 0.0
H296 H 0.75538 0.45999 0.93024 0.0
H297 H 0.50435 0.26266 0.94277 0.0
H298 H 0.54789 0.25999 0.96989 0.0
H299 H 0.53017 0.30886 0.97301 0.0
H300 H 0.66716 0.2974 0.04034 0.0
H301 H 0.60928 0.40284 0.0478 0.0
H302 H 0.70345 0.31997 0.96403 0.0
H303 H 0.63828 0.26647 0.96651 0.0
H304 H 0.68582 0.2734 -0.006 0.0
H305 H 0.6367 0.44956 0.97186 0.0
H306 H 0.60474 0.44952 0.00621 0.0
H307 H 0.57006 0.40123 -0.02208 0.0
C308 C 0.2905 0.6698 0.22991 0.0
C309 C 0.28425 0.62468 0.21628 0.0
C310 C 0.28549 0.67211 0.26098 0.0
C311 C 0.27557 0.62877 0.27881 0.0
C312 C 0.26778 0.5826 0.26506 0.0
C313 C 0.2715 0.58087 0.23382 0.0
C314 C 0.29229 0.72136 0.27477 0.0
C315 C 0.25796 0.53588 0.28342 0.0
C316 C 0.32008 0.65037 0.35984 0.0
C317 C 0.27248 0.62978 0.37486 0.0
C318 C 0.3218 0.65104 0.32842 0.0
C319 C 0.27494 0.63209 0.31192 0.0
C320 C 0.22717 0.61398 0.32713 0.0
C321 C 0.22643 0.61228 0.35846 0.0
C322 C 0.37335 0.66974 0.31292 0.0
C323 C 0.17669 0.59509 0.31033 0.0
H324 H 0.30023 0.70366 0.21627 0.0
H325 H 0.26734 0.54623 0.22331 0.0
H326 H 0.25923 0.71229 0.28993 0.0
H327 H 0.32828 0.74008 0.28847 0.0
H328 H 0.29496 0.74962 0.25758 0.0
H329 H 0.25197 0.50274 0.26924 0.0
H330 H 0.29157 0.54655 0.29849 0.0
H331 H 0.22316 0.52295 0.29778 0.0
H332 H 0.35556 0.66349 0.37263 0.0
H333 H 0.18963 0.59674 0.3702 0.0
H334 H 0.38102 0.70121 0.29682 0.0
H335 H 0.37202 0.63741 0.29991 0.0
H336 H 0.40632 0.68442 0.32897 0.0
H337 H 0.18091 0.62435 0.29344 0.0
H338 H 0.14387 0.5871 0.32549 0.0
H339 H 0.16664 0.55888 0.29809 0.0
C340 C 0.62003 0.2872 0.70544 0.0
C341 C 0.66425 0.28708 0.71609 0.0
C342 C 0.60834 0.28177 0.67473 0.0
C343 C 0.64274 0.27799 0.65436 0.0
C344 C 0.68726 0.27753 0.66515 0.0
C345 C 0.697 0.28126 0.69597 0.0
C346 C 0.55976 0.28092 0.66403 0.0
C347 C 0.72579 0.27526 0.64409 0.0
C348 C 0.60955 0.23657 0.57317 0.0
C349 C 0.63146 0.28492 0.55883 0.0
C350 C 0.61039 0.23342 0.60456 0.0
C351 C 0.63538 0.27974 0.62163 0.0
C352 C 0.65706 0.32853 0.60716 0.0
C353 C 0.65411 0.33045 0.576 0.0
C354 C 0.58551 0.18074 0.61942 0.0
C355 C 0.68548 0.37886 0.62443 0.0
H356 H 0.59431 0.29091 0.72113 0.0
H357 H 0.73127 0.28125 0.70428 0.0
H358 H 0.57054 0.31677 0.6511 0.0
H359 H 0.53735 0.2475 0.6488 0.0
H360 H 0.5342 0.27827 0.68289 0.0
H361 H 0.75769 0.27383 0.65621 0.0
H362 H 0.7058 0.24061 0.62949 0.0
H363 H 0.74322 0.30998 0.62931 0.0
H364 H 0.59174 0.20138 0.55988 0.0
H365 H 0.6716 0.36797 0.56495 0.0
H366 H 0.55937 0.17859 0.63777 0.0
H367 H 0.61601 0.17456 0.62957 0.0
H368 H 0.56273 0.14875 0.60334 0.0
H369 H 0.6597 0.38034 0.64182 0.0
H370 H 0.69943 0.41352 0.60975 0.0
H371 H 0.71955 0.38115 0.63609 0.0
C372 C 0.29151 0.58274 0.90097 0.0
C373 C 0.33899 0.59588 0.88716 0.0
C374 C 0.28697 0.58109 0.93217 0.0
C375 C 0.3307 0.59175 0.94982 0.0
C376 C 0.37573 0.59645 0.93597 0.0
C377 C 0.3796 0.59888 0.90458 0.0
C378 C 0.23797 0.57528 0.94594 0.0
C379 C 0.42218 0.60525 0.95421 0.0
C380 C 0.36071 0.68338 0.01492 0.0
C381 C 0.34319 0.64936 0.03928 0.0
C382 C 0.35549 0.66464 -0.01429 0.0
C383 C 0.33394 0.61059 -0.01908 0.0
C384 C 0.31573 0.57589 0.00558 0.0
C385 C 0.32005 0.59578 0.03462 0.0
C386 C 0.37394 0.70299 0.96001 0.0
C387 C 0.29421 0.51837 0.00154 0.0
H388 H 0.2594 0.57892 0.8875 0.0
H389 H 0.4161 0.60813 0.89403 0.0
H390 H 0.22708 0.55111 0.9665 0.0
H391 H 0.2449 0.61422 0.95237 0.0
H392 H 0.20471 0.55764 0.93005 0.0
H393 H 0.44857 0.59652 0.9411 0.0
H394 H 0.44449 0.64652 0.96129 0.0
H395 H 0.40963 0.58084 0.97472 0.0
H396 H 0.37902 0.72485 0.01881 0.0
H397 H 0.30778 0.56979 0.05376 0.0
H398 H 0.3423 0.69135 0.94333 0.0
H399 H 0.4071 0.70325 0.94851 0.0
H400 H 0.38671 0.74316 0.96754 0.0
H401 H 0.26751 0.5033 -0.01794 0.0
H402 H 0.27316 0.49593 0.02181 0.0
H403 H 0.32685 0.51135 -0.00289 0.0
C404 C 0.66031 0.28906 0.37325 0.0
C405 C 0.63681 0.31889 0.3784 0.0
C406 C 0.67417 0.28308 0.34406 0.0
C407 C 0.66322 0.3068 0.31981 0.0
C408 C 0.63692 0.33462 0.32501 0.0
C409 C 0.6248 0.34096 0.35433 0.0
C410 C 0.70307 0.25412 0.3395 0.0
C411 C 0.62309 0.35929 0.29972 0.0
C412 C 0.73084 0.35312 0.24557 0.0
C413 C 0.69185 0.31747 0.22649 0.0
C414 C 0.72519 0.34667 0.27678 0.0
C415 C 0.6794 0.30402 0.28878 0.0
C416 C 0.64353 0.26466 0.26953 0.0
C417 C 0.65037 0.27176 0.23856 0.0
C418 C 0.76531 0.38843 0.29676 0.0
C419 C 0.59453 0.21827 0.28134 0.0
H420 H 0.67064 0.27313 0.39214 0.0
H421 H 0.607 0.36437 0.35859 0.0
H422 H 0.6884 0.22863 0.31955 0.0
H423 H 0.74486 0.28253 0.33558 0.0
H424 H 0.69995 0.23015 0.35934 0.0
H425 H 0.59983 0.37675 0.30748 0.0
H426 H 0.65915 0.39023 0.28902 0.0
H427 H 0.60047 0.32994 0.28231 0.0
H428 H 0.76337 0.38812 0.23634 0.0
H429 H 0.62077 0.24329 0.22381 0.0
H430 H 0.77246 0.37111 0.31693 0.0
H431 H 0.75065 0.41413 0.30441 0.0
H432 H 0.80278 0.41266 0.28485 0.0
H433 H 0.60263 0.20244 0.30183 0.0
H434 H 0.5762 0.18683 0.26441 0.0
H435 H 0.56611 0.2305 0.2874 0.0
C436 C 0.3276 0.73709 0.70022 0.0
C437 C 0.34573 0.70801 0.71539 0.0
C438 C 0.32766 0.73919 0.66892 0.0
C439 C 0.34738 0.71247 0.65239 0.0
C440 C 0.36875 0.68572 0.66758 0.0
C441 C 0.36707 0.68323 0.699 0.0
C442 C 0.30337 0.7671 0.65361 0.0
C443 C 0.39119 0.65778 0.65062 0.0
C444 C 0.28392 0.65841 0.57761 0.0
C445 C 0.31934 0.69571 0.55758 0.0
C446 C 0.29277 0.66363 0.60846 0.0
C447 C 0.33891 0.70666 0.61956 0.0
C448 C 0.37517 0.74441 0.59946 0.0
C449 C 0.36457 0.73886 0.56856 0.0
C450 C 0.25239 0.62325 0.62917 0.0
C451 C 0.42524 0.79015 0.61059 0.0
H452 H 0.31109 0.75642 0.71277 0.0
H453 H 0.38173 0.66129 0.71069 0.0
H454 H 0.32968 0.79377 0.63607 0.0
H455 H 0.26677 0.73829 0.64238 0.0
H456 H 0.29415 0.78983 0.66959 0.0
H457 H 0.41306 0.64557 0.66551 0.0
H458 H 0.35926 0.62264 0.63981 0.0
H459 H 0.41757 0.683 0.63261 0.0
H460 H 0.24871 0.62519 0.56911 0.0
H461 H 0.39218 0.76739 0.55299 0.0
H462 H 0.23864 0.64207 0.64525 0.0
H463 H 0.2698 0.6043 0.64242 0.0
H464 H 0.21816 0.5927 0.61686 0.0
H465 H 0.41662 0.81407 0.62591 0.0
H466 H 0.45002 0.81522 0.59199 0.0
H467 H 0.44762 0.77618 0.6236 0.0
loop_
_geom_bond_atom_site_label_1
_geom_bond_atom_site_label_2
_geom_bond_distance
_geom_bond_site_symmetry_2
_ccdc_geom_bond_type
C0 O1 1.306 . S
C0 O3 1.160 . S
O1 C0 1.306 . S
O1 Cd2 2.228 . S
Cd2 O1 2.228 . S
Cd2 O6 2.273 . S
Cd2 O10 2.277 . S
O3 C0 1.160 . S
O3 Cd4 2.203 . S
Cd4 O3 2.203 . S
Cd4 O6 2.411 . S
Cd4 O7 2.333 . S
Cd4 O8 2.352 . S
Cd4 O12 2.277 . S
Cd4 O13 2.356 . S
C5 O10 1.209 . S
C5 O12 1.226 . S
O6 Cd2 2.273 . S
O6 Cd4 2.411 . S
O6 C9 1.320 . S
O7 Cd4 2.333 . S
O7 C9 1.214 . S
O8 Cd4 2.352 . S
O8 C11 1.258 . S
C9 O6 1.320 . S
C9 O7 1.214 . S
O10 Cd2 2.277 . S
O10 C5 1.209 . S
C11 O8 1.258 . S
C11 O13 1.282 . S
O12 Cd4 2.277 . S
O12 C5 1.226 . S
O13 Cd4 2.356 . S
O13 C11 1.282 . S
C14 O15 1.306 . S
C14 O17 1.160 . S
O15 C14 1.306 . S
O15 Cd16 2.228 . S
Cd16 O15 2.228 . S
Cd16 O20 2.273 . S
Cd16 O24 2.277 . S
O17 C14 1.160 . S
O17 Cd18 2.203 . S
Cd18 O17 2.203 . S
Cd18 O20 2.411 . S
Cd18 O21 2.333 . S
Cd18 O22 2.352 . S
Cd18 O26 2.277 . S
Cd18 O27 2.356 . S
C19 O24 1.209 . S
C19 O26 1.226 . S
O20 Cd16 2.273 . S
O20 Cd18 2.411 . S
O20 C23 1.320 . S
O21 Cd18 2.333 . S
O21 C23 1.214 . S
O22 Cd18 2.352 . S
O22 C25 1.258 . S
C23 O20 1.320 . S
C23 O21 1.214 . S
O24 Cd16 2.277 . S
O24 C19 1.209 . S
C25 O22 1.258 . S
C25 O27 1.282 . S
O26 Cd18 2.277 . S
O26 C19 1.226 . S
O27 Cd18 2.356 . S
O27 C25 1.282 . S
C28 O29 1.306 . S
C28 O31 1.160 . S
O29 C28 1.306 . S
O29 Cd30 2.228 . S
Cd30 O29 2.228 . S
Cd30 O34 2.273 . S
Cd30 O38 2.277 . S
O31 C28 1.160 . S
O31 Cd32 2.203 . S
Cd32 O31 2.203 . S
Cd32 O34 2.411 . S
Cd32 O35 2.333 . S
Cd32 O36 2.352 . S
Cd32 O40 2.277 . S
Cd32 O41 2.356 . S
C33 O38 1.209 . S
C33 O40 1.226 . S
O34 Cd30 2.273 . S
O34 Cd32 2.411 . S
O34 C37 1.320 . S
O35 Cd32 2.333 . S
O35 C37 1.214 . S
O36 Cd32 2.352 . S
O36 C39 1.258 . S
C37 O34 1.320 . S
C37 O35 1.214 . S
O38 Cd30 2.277 . S
O38 C33 1.209 . S
C39 O36 1.258 . S
C39 O41 1.282 . S
O40 Cd32 2.277 . S
O40 C33 1.226 . S
O41 Cd32 2.356 . S
O41 C39 1.282 . S
C42 O43 1.306 . S
C42 O45 1.160 . S
O43 C42 1.306 . S
O43 Cd44 2.228 . S
Cd44 O43 2.228 . S
Cd44 O48 2.273 . S
Cd44 O52 2.277 . S
O45 C42 1.160 . S
O45 Cd46 2.203 . S
Cd46 O45 2.203 . S
Cd46 O48 2.411 . S
Cd46 O49 2.333 . S
Cd46 O50 2.352 . S
Cd46 O54 2.277 . S
Cd46 O55 2.356 . S
C47 O52 1.209 . S
C47 O54 1.226 . S
O48 Cd44 2.273 . S
O48 Cd46 2.411 . S
O48 C51 1.320 . S
O49 Cd46 2.333 . S
O49 C51 1.214 . S
O50 Cd46 2.352 . S
O50 C53 1.258 . S
C51 O48 1.320 . S
C51 O49 1.214 . S
O52 Cd44 2.277 . S
O52 C47 1.209 . S
C53 O50 1.258 . S
C53 O55 1.282 . S
O54 Cd46 2.277 . S
O54 C47 1.226 . S
O55 Cd46 2.356 . S
O55 C53 1.282 . S
C56 O57 1.306 . S
C56 O59 1.160 . S
O57 C56 1.306 . S
O57 Cd58 2.228 . S
Cd58 O57 2.228 . S
Cd58 O62 2.273 . S
Cd58 O66 2.277 . S
O59 C56 1.160 . S
O59 Cd60 2.203 . S
Cd60 O59 2.203 . S
Cd60 O62 2.411 . S
Cd60 O63 2.333 . S
Cd60 O64 2.352 . S
Cd60 O68 2.277 . S
Cd60 O69 2.356 . S
C61 O66 1.209 . S
C61 O68 1.226 . S
O62 Cd58 2.273 . S
O62 Cd60 2.411 . S
O62 C65 1.320 . S
O63 Cd60 2.333 . S
O63 C65 1.214 . S
O64 Cd60 2.352 . S
O64 C67 1.258 . S
C65 O62 1.320 . S
C65 O63 1.214 . S
O66 Cd58 2.277 . S
O66 C61 1.209 . S
C67 O64 1.258 . S
C67 O69 1.282 . S
O68 Cd60 2.277 . S
O68 C61 1.226 . S
O69 Cd60 2.356 . S
O69 C67 1.282 . S
C70 O71 1.306 . S
C70 O73 1.160 . S
O71 C70 1.306 . S
O71 Cd72 2.228 . S
Cd72 O71 2.228 . S
Cd72 O76 2.273 . S
Cd72 O80 2.277 . S
O73 C70 1.160 . S
O73 Cd74 2.203 . S
Cd74 O73 2.203 . S
Cd74 O76 2.411 . S
Cd74 O77 2.333 . S
Cd74 O78 2.352 . S
Cd74 O82 2.277 . S
Cd74 O83 2.356 . S
C75 O80 1.209 . S
C75 O82 1.226 . S
O76 Cd72 2.273 . S
O76 Cd74 2.411 . S
O76 C79 1.320 . S
O77 Cd74 2.333 . S
O77 C79 1.214 . S
O78 Cd74 2.352 . S
O78 C81 1.258 . S
C79 O76 1.320 . S
C79 O77 1.214 . S
O80 Cd72 2.277 . S
O80 C75 1.209 . S
C81 O78 1.258 . S
C81 O83 1.282 . S
O82 Cd74 2.277 . S
O82 C75 1.226 . S
O83 Cd74 2.356 . S
O83 C81 1.282 . S
C84 C85 1.391 . S
C84 C86 1.394 . S
C84 H100 0.931 . S
C85 C84 1.391 . S
C85 C89 1.376 . S
C86 C84 1.394 . S
C86 C87 1.369 . S
C86 C90 1.531 . S
C87 C86 1.369 . S
C87 C88 1.410 . S
C87 C95 1.503 1_545 S
C88 C87 1.410 . S
C88 C89 1.392 . S
C88 C91 1.511 . S
C89 C85 1.376 . S
C89 C88 1.392 . S
C89 H101 0.929 . S
C90 C86 1.531 . S
C90 H102 0.960 . S
C90 H103 0.962 . S
C90 H104 0.960 . S
C91 C88 1.511 . S
C91 H105 0.961 . S
C91 H106 0.961 1_545 S
C91 H107 0.961 1_545 S
C92 C93 1.370 . S
C92 C94 1.363 . S
C92 H108 0.931 . S
C93 C92 1.370 . S
C93 C97 1.408 . S
C94 C92 1.363 . S
C94 C95 1.370 . S
C94 C98 1.524 . S
C95 C87 1.503 1_565 S
C95 C94 1.370 . S
C95 C96 1.403 . S
C96 C95 1.403 . S
C96 C97 1.404 . S
C96 C99 1.539 . S
C97 C93 1.408 . S
C97 C96 1.404 . S
C97 H109 0.930 . S
C98 C94 1.524 . S
C98 H110 0.956 1_565 S
C98 H111 0.961 1_565 S
C98 H112 0.961 . S
C99 C96 1.539 . S
C99 H113 0.958 . S
C99 H114 0.961 . S
C99 H115 0.960 . S
H100 C84 0.931 . S
H101 C89 0.929 . S
H102 C90 0.960 . S
H103 C90 0.962 . S
H104 C90 0.960 . S
H105 C91 0.961 . S
H106 C91 0.961 1_565 S
H107 C91 0.961 1_565 S
H108 C92 0.931 . S
H109 C97 0.930 . S
H110 C98 0.956 1_545 S
H111 C98 0.961 1_545 S
H112 C98 0.961 . S
H113 C99 0.958 . S
H114 C99 0.961 . S
H115 C99 0.960 . S
C116 C117 1.391 . S
C116 C118 1.394 . S
C116 H132 0.931 . S
C117 C116 1.391 . S
C117 C121 1.376 . S
C118 C116 1.394 . S
C118 C119 1.369 . S
C118 C122 1.531 . S
C119 C118 1.369 . S
C119 C120 1.410 . S
C119 C127 1.503 . S
C120 C119 1.410 . S
C120 C121 1.392 . S
C120 C123 1.511 . S
C121 C117 1.376 . S
C121 C120 1.392 . S
C121 H133 0.929 . S
C122 C118 1.531 . S
C122 H134 0.960 . S
C122 H135 0.962 . S
C122 H136 0.960 . S
C123 C120 1.511 . S
C123 H137 0.961 . S
C123 H138 0.961 . S
C123 H139 0.961 . S
C124 C125 1.370 . S
C124 C126 1.363 . S
C124 H140 0.931 . S
C125 C124 1.370 . S
C125 C129 1.408 . S
C126 C124 1.363 . S
C126 C127 1.370 . S
C126 C130 1.524 . S
C127 C119 1.503 . S
C127 C126 1.370 . S
C127 C128 1.403 . S
C128 C127 1.403 . S
C128 C129 1.404 . S
C128 C131 1.539 . S
C129 C125 1.408 . S
C129 C128 1.404 . S
C129 H141 0.930 . S
C130 C126 1.524 . S
C130 H142 0.956 . S
C130 H143 0.961 . S
C130 H144 0.961 . S
C131 C128 1.539 . S
C131 H145 0.958 . S
C131 H146 0.961 . S
C131 H147 0.960 . S
H132 C116 0.931 . S
H133 C121 0.929 . S
H134 C122 0.960 . S
H135 C122 0.962 . S
H136 C122 0.960 . S
H137 C123 0.961 . S
H138 C123 0.961 . S
H139 C123 0.961 . S
H140 C124 0.931 . S
H141 C129 0.930 . S
H142 C130 0.956 . S
H143 C130 0.961 . S
H144 C130 0.961 . S
H145 C131 0.958 . S
H146 C131 0.961 . S
H147 C131 0.960 . S
C148 C149 1.391 . S
C148 C150 1.394 . S
C148 H164 0.931 . S
C149 C148 1.391 . S
C149 C153 1.376 . S
C150 C148 1.394 . S
C150 C151 1.369 . S
C150 C154 1.531 . S
C151 C150 1.369 . S
C151 C152 1.410 . S
C151 C159 1.503 1_655 S
C152 C151 1.410 . S
C152 C153 1.392 . S
C152 C155 1.511 . S
C153 C149 1.376 . S
C153 C152 1.392 . S
C153 H165 0.929 . S
C154 C150 1.531 . S
C154 H166 0.960 . S
C154 H167 0.962 . S
C154 H168 0.960 . S
C155 C152 1.511 . S
C155 H169 0.961 . S
C155 H170 0.961 1_655 S
C155 H171 0.961 . S
C156 C157 1.370 . S
C156 C158 1.363 . S
C156 H172 0.931 . S
C157 C156 1.370 . S
C157 C161 1.408 . S
C158 C156 1.363 . S
C158 C159 1.370 . S
C158 C162 1.524 . S
C159 C151 1.503 1_455 S
C159 C158 1.370 . S
C159 C160 1.403 . S
C160 C159 1.403 . S
C160 C161 1.404 . S
C160 C163 1.539 . S
C161 C157 1.408 . S
C161 C160 1.404 . S
C161 H173 0.930 . S
C162 C158 1.524 . S
C162 H174 0.956 . S
C162 H175 0.961 . S
C162 H176 0.961 . S
C163 C160 1.539 . S
C163 H177 0.958 . S
C163 H178 0.961 . S
C163 H179 0.960 1_455 S
H164 C148 0.931 . S
H165 C153 0.929 . S
H166 C154 0.960 . S
H167 C154 0.962 . S
H168 C154 0.960 . S
H169 C155 0.961 . S
H170 C155 0.961 1_455 S
H171 C155 0.961 . S
H172 C156 0.931 . S
H173 C161 0.930 . S
H174 C162 0.956 . S
H175 C162 0.961 . S
H176 C162 0.961 . S
H177 C163 0.958 . S
H178 C163 0.961 . S
H179 C163 0.960 1_655 S
C180 C181 1.391 . S
C180 C182 1.394 . S
C180 H196 0.931 . S
C181 C180 1.391 . S
C181 C185 1.376 . S
C182 C180 1.394 . S
C182 C183 1.369 . S
C182 C186 1.531 . S
C183 C182 1.369 . S
C183 C184 1.410 . S
C183 C191 1.503 1_455 S
C184 C183 1.410 . S
C184 C185 1.392 . S
C184 C187 1.511 . S
C185 C181 1.376 . S
C185 C184 1.392 . S
C185 H197 0.929 . S
C186 C182 1.531 . S
C186 H198 0.960 . S
C186 H199 0.962 . S
C186 H200 0.960 . S
C187 C184 1.511 . S
C187 H201 0.961 . S
C187 H202 0.961 1_455 S
C187 H203 0.961 . S
C188 C189 1.370 . S
C188 C190 1.363 . S
C188 H204 0.931 . S
C189 C188 1.370 . S
C189 C193 1.408 . S
C190 C188 1.363 . S
C190 C191 1.370 . S
C190 C194 1.524 . S
C191 C183 1.503 1_655 S
C191 C190 1.370 . S
C191 C192 1.403 . S
C192 C191 1.403 . S
C192 C193 1.404 . S
C192 C195 1.539 . S
C193 C189 1.408 . S
C193 C192 1.404 . S
C193 H205 0.930 . S
C194 C190 1.524 . S
C194 H206 0.956 1_655 S
C194 H207 0.961 . S
C194 H208 0.961 . S
C195 C192 1.539 . S
C195 H209 0.958 . S
C195 H210 0.961 . S
C195 H211 0.960 . S
H196 C180 0.931 . S
H197 C185 0.929 . S
H198 C186 0.960 . S
H199 C186 0.962 . S
H200 C186 0.960 . S
H201 C187 0.961 . S
H202 C187 0.961 1_655 S
H203 C187 0.961 . S
H204 C188 0.931 . S
H205 C193 0.930 . S
H206 C194 0.956 1_455 S
H207 C194 0.961 . S
H208 C194 0.961 . S
H209 C195 0.958 . S
H210 C195 0.961 . S
H211 C195 0.960 . S
C212 C213 1.391 . S
C212 C214 1.394 . S
C212 H228 0.931 . S
C213 C212 1.391 . S
C213 C217 1.376 . S
C214 C212 1.394 . S
C214 C215 1.369 . S
C214 C218 1.531 . S
C215 C214 1.369 . S
C215 C216 1.410 . S
C215 C223 1.503 1_565 S
C216 C215 1.410 . S
C216 C217 1.392 . S
C216 C219 1.511 . S
C217 C213 1.376 . S
C217 C216 1.392 . S
C217 H229 0.929 . S
C218 C214 1.531 . S
C218 H230 0.960 . S
C218 H231 0.962 . S
C218 H232 0.960 . S
C219 C216 1.511 . S
C219 H233 0.961 . S
C219 H234 0.961 1_565 S
C219 H235 0.968 . S
C220 C221 1.370 . S
C220 C222 1.363 . S
C220 H236 0.931 . S
C221 C220 1.370 . S
C221 C225 1.408 . S
C222 C220 1.363 . S
C222 C223 1.370 . S
C222 C226 1.524 . S
C223 C215 1.503 1_545 S
C223 C222 1.370 . S
C223 C224 1.403 . S
C224 C223 1.403 . S
C224 C225 1.404 . S
C224 C227 1.539 . S
C225 C221 1.408 . S
C225 C224 1.404 . S
C225 H237 0.930 . S
C226 C222 1.524 . S
C226 H238 0.956 1_545 S
C226 H239 0.961 1_545 S
C226 H240 0.961 . S
C227 C224 1.539 . S
C227 H241 0.958 . S
C227 H242 0.961 . S
C227 H243 0.960 . S
H228 C212 0.931 . S
H229 C217 0.929 . S
H230 C218 0.960 . S
H231 C218 0.962 . S
H232 C218 0.960 . S
H233 C219 0.961 . S
H234 C219 0.961 1_545 S
H235 C219 0.968 . S
H236 C220 0.931 . S
H237 C225 0.930 . S
H238 C226 0.956 1_565 S
H239 C226 0.961 1_565 S
H240 C226 0.961 . S
H241 C227 0.958 . S
H242 C227 0.961 . S
H243 C227 0.960 . S
C244 C245 1.391 . S
C244 C246 1.394 . S
C244 H260 0.931 . S
C245 C244 1.391 . S
C245 C249 1.376 . S
C246 C244 1.394 . S
C246 C247 1.369 . S
C246 C250 1.531 . S
C247 C246 1.369 . S
C247 C248 1.410 . S
C247 C255 1.503 . S
C248 C247 1.410 . S
C248 C249 1.392 . S
C248 C251 1.511 . S
C249 C245 1.376 . S
C249 C248 1.392 . S
C249 H261 0.929 . S
C250 C246 1.531 . S
C250 H262 0.960 . S
C250 H263 0.962 . S
C250 H264 0.960 . S
C251 C248 1.511 . S
C251 H265 0.961 . S
C251 H266 0.961 . S
C251 H267 0.961 . S
C252 C253 1.370 . S
C252 C254 1.363 . S
C252 H268 0.931 . S
C253 C252 1.370 . S
C253 C257 1.408 . S
C254 C252 1.363 . S
C254 C255 1.370 . S
C254 C258 1.524 . S
C255 C247 1.503 . S
C255 C254 1.370 . S
C255 C256 1.403 . S
C256 C255 1.403 . S
C256 C257 1.404 . S
C256 C259 1.539 . S
C257 C253 1.408 . S
C257 C256 1.404 . S
C257 H269 0.930 . S
C258 C254 1.524 . S
C258 H270 0.956 . S
C258 H271 0.961 . S
C258 H272 0.961 . S
C259 C256 1.539 . S
C259 H273 0.958 . S
C259 H274 0.961 . S
C259 H275 0.960 . S
H260 C244 0.931 . S
H261 C249 0.929 . S
H262 C250 0.960 . S
H263 C250 0.962 . S
H264 C250 0.960 . S
H265 C251 0.961 . S
H266 C251 0.961 . S
H267 C251 0.961 . S
H268 C252 0.931 . S
H269 C257 0.930 . S
H270 C258 0.956 . S
H271 C258 0.961 . S
H272 C258 0.961 . S
H273 C259 0.958 . S
H274 C259 0.961 . S
H275 C259 0.960 . S
C276 C277 1.391 . S
C276 C278 1.394 . S
C276 H292 0.931 . S
C277 C276 1.391 . S
C277 C281 1.376 . S
C278 C276 1.394 . S
C278 C279 1.369 . S
C278 C282 1.531 . S
C279 C278 1.369 . S
C279 C280 1.410 . S
C279 C287 1.503 1_556 S
C280 C279 1.410 . S
C280 C281 1.392 . S
C280 C283 1.511 . S
C281 C277 1.376 . S
C281 C280 1.392 . S
C281 H293 0.929 . S
C282 C278 1.531 . S
C282 H294 0.934 1_556 S
C282 H295 0.962 . S
C282 H296 0.960 . S
C283 C280 1.511 . S
C283 H297 0.961 . S
C283 H298 0.961 1_556 S
C283 H299 0.961 . S
C284 C285 1.370 . S
C284 C286 1.363 . S
C284 H300 0.931 . S
C285 C284 1.370 . S
C285 C289 1.408 . S
C286 C284 1.363 . S
C286 C287 1.370 . S
C286 C290 1.524 . S
C287 C279 1.503 1_554 S
C287 C286 1.370 . S
C287 C288 1.403 . S
C288 C287 1.403 . S
C288 C289 1.404 . S
C288 C291 1.539 . S
C289 C285 1.408 . S
C289 C288 1.404 . S
C289 H301 0.930 . S
C290 C286 1.524 . S
C290 H302 0.956 . S
C290 H303 0.959 1_554 S
C290 H304 0.961 . S
C291 C288 1.539 . S
C291 H305 0.958 . S
C291 H306 0.961 . S
C291 H307 0.960 . S
H292 C276 0.931 . S
H293 C281 0.929 . S
H294 C282 0.934 1_554 S
H295 C282 0.962 . S
H296 C282 0.960 . S
H297 C283 0.961 . S
H298 C283 0.961 1_554 S
H299 C283 0.961 . S
H300 C284 0.931 . S
H301 C289 0.930 . S
H302 C290 0.956 . S
H303 C290 0.959 1_556 S
H304 C290 0.961 . S
H305 C291 0.958 . S
H306 C291 0.961 . S
H307 C291 0.960 . S
C308 C309 1.391 . S
C308 C310 1.394 . S
C308 H324 0.931 . S
C309 C308 1.391 . S
C309 C313 1.376 . S
C310 C308 1.394 . S
C310 C311 1.369 . S
C310 C314 1.531 . S
C311 C310 1.369 . S
C311 C312 1.410 . S
C311 C319 1.503 . S
C312 C311 1.410 . S
C312 C313 1.392 . S
C312 C315 1.511 . S
C313 C309 1.376 . S
C313 C312 1.392 . S
C313 H325 0.929 . S
C314 C310 1.531 . S
C314 H326 0.960 . S
C314 H327 0.962 . S
C314 H328 0.960 . S
C315 C312 1.511 . S
C315 H329 0.961 . S
C315 H330 0.961 . S
C315 H331 0.961 . S
C316 C317 1.370 . S
C316 C318 1.363 . S
C316 H332 0.931 . S
C317 C316 1.370 . S
C317 C321 1.408 . S
C318 C316 1.363 . S
C318 C319 1.370 . S
C318 C322 1.524 . S
C319 C311 1.503 . S
C319 C318 1.370 . S
C319 C320 1.403 . S
C320 C319 1.403 . S
C320 C321 1.404 . S
C320 C323 1.539 . S
C321 C317 1.408 . S
C321 C320 1.404 . S
C321 H333 0.930 . S
C322 C318 1.524 . S
C322 H334 0.956 . S
C322 H335 0.961 . S
C322 H336 0.961 . S
C323 C320 1.539 . S
C323 H337 0.958 . S
C323 H338 0.961 . S
C323 H339 0.960 . S
H324 C308 0.931 . S
H325 C313 0.929 . S
H326 C314 0.960 . S
H327 C314 0.962 . S
H328 C314 0.960 . S
H329 C315 0.961 . S
H330 C315 0.961 . S
H331 C315 0.961 . S
H332 C316 0.931 . S
H333 C321 0.930 . S
H334 C322 0.956 . S
H335 C322 0.961 . S
H336 C322 0.961 . S
H337 C323 0.958 . S
H338 C323 0.961 . S
H339 C323 0.960 . S
C340 C341 1.391 . S
C340 C342 1.394 . S
C340 H356 0.931 . S
C341 C340 1.391 . S
C341 C345 1.376 . S
C342 C340 1.394 . S
C342 C343 1.369 . S
C342 C346 1.531 . S
C343 C342 1.369 . S
C343 C344 1.410 . S
C343 C351 1.503 . S
C344 C343 1.410 . S
C344 C345 1.392 . S
C344 C347 1.511 . S
C345 C341 1.376 . S
C345 C344 1.392 . S
C345 H357 0.929 . S
C346 C342 1.531 . S
C346 H358 0.960 . S
C346 H359 0.962 . S
C346 H360 0.960 . S
C347 C344 1.511 . S
C347 H361 0.961 . S
C347 H362 0.961 . S
C347 H363 0.961 . S
C348 C349 1.370 . S
C348 C350 1.363 . S
C348 H364 0.931 . S
C349 C348 1.370 . S
C349 C353 1.408 . S
C350 C348 1.363 . S
C350 C351 1.370 . S
C350 C354 1.524 . S
C351 C343 1.503 . S
C351 C350 1.370 . S
C351 C352 1.403 . S
C352 C351 1.403 . S
C352 C353 1.404 . S
C352 C355 1.539 . S
C353 C349 1.408 . S
C353 C352 1.404 . S
C353 H365 0.930 . S
C354 C350 1.524 . S
C354 H366 0.956 . S
C354 H367 0.961 . S
C354 H368 0.961 . S
C355 C352 1.539 . S
C355 H369 0.958 . S
C355 H370 0.961 . S
C355 H371 0.960 . S
H356 C340 0.931 . S
H357 C345 0.929 . S
H358 C346 0.960 . S
H359 C346 0.962 . S
H360 C346 0.960 . S
H361 C347 0.961 . S
H362 C347 0.961 . S
H363 C347 0.961 . S
H364 C348 0.931 . S
H365 C353 0.930 . S
H366 C354 0.956 . S
H367 C354 0.961 . S
H368 C354 0.961 . S
H369 C355 0.958 . S
H370 C355 0.961 . S
H371 C355 0.960 . S
C372 C373 1.391 . S
C372 C374 1.394 . S
C372 H388 0.931 . S
C373 C372 1.391 . S
C373 C377 1.376 . S
C374 C372 1.394 . S
C374 C375 1.369 . S
C374 C378 1.531 . S
C375 C374 1.369 . S
C375 C376 1.410 . S
C375 C383 1.503 1_556 S
C376 C375 1.410 . S
C376 C377 1.392 . S
C376 C379 1.511 . S
C377 C373 1.376 . S
C377 C376 1.392 . S
C377 H389 0.929 . S
C378 C374 1.531 . S
C378 H390 0.936 1_556 S
C378 H391 0.962 . S
C378 H392 0.960 . S
C379 C376 1.511 . S
C379 H393 0.961 . S
C379 H394 0.961 1_556 S
C379 H395 0.961 . S
C380 C381 1.370 . S
C380 C382 1.363 . S
C380 H396 0.931 . S
C381 C380 1.370 . S
C381 C385 1.408 . S
C382 C380 1.363 . S
C382 C383 1.370 . S
C382 C386 1.524 . S
C383 C375 1.503 1_554 S
C383 C382 1.370 . S
C383 C384 1.403 . S
C384 C383 1.403 . S
C384 C385 1.404 . S
C384 C387 1.539 . S
C385 C381 1.408 . S
C385 C384 1.404 . S
C385 H397 0.930 . S
C386 C382 1.524 . S
C386 H398 0.956 . S
C386 H399 0.966 . S
C386 H400 0.961 . S
C387 C384 1.539 . S
C387 H401 0.958 . S
C387 H402 0.961 . S
C387 H403 0.974 . S
H388 C372 0.931 . S
H389 C377 0.929 . S
H390 C378 0.936 1_554 S
H391 C378 0.962 . S
H392 C378 0.960 . S
H393 C379 0.961 . S
H394 C379 0.961 1_554 S
H395 C379 0.961 . S
H396 C380 0.931 . S
H397 C385 0.930 . S
H398 C386 0.956 . S
H399 C386 0.966 . S
H400 C386 0.961 . S
H401 C387 0.958 . S
H402 C387 0.961 . S
H403 C387 0.974 . S
C404 C405 1.391 . S
C404 C406 1.394 . S
C404 H420 0.931 . S
C405 C404 1.391 . S
C405 C409 1.376 . S
C406 C404 1.394 . S
C406 C407 1.369 . S
C406 C410 1.531 . S
C407 C406 1.369 . S
C407 C408 1.410 . S
C407 C415 1.503 . S
C408 C407 1.410 . S
C408 C409 1.392 . S
C408 C411 1.511 . S
C409 C405 1.376 . S
C409 C408 1.392 . S
C409 H421 0.929 . S
C410 C406 1.531 . S
C410 H422 0.960 . S
C410 H423 0.962 . S
C410 H424 0.960 . S
C411 C408 1.511 . S
C411 H425 0.961 . S
C411 H426 0.961 . S
C411 H427 0.961 . S
C412 C413 1.370 . S
C412 C414 1.363 . S
C412 H428 0.931 . S
C413 C412 1.370 . S
C413 C417 1.408 . S
C414 C412 1.363 . S
C414 C415 1.370 . S
C414 C418 1.524 . S
C415 C407 1.503 . S
C415 C414 1.370 . S
C415 C416 1.403 . S
C416 C415 1.403 . S
C416 C417 1.404 . S
C416 C419 1.539 . S
C417 C413 1.408 . S
C417 C416 1.404 . S
C417 H429 0.930 . S
C418 C414 1.524 . S
C418 H430 0.956 . S
C418 H431 0.961 . S
C418 H432 0.961 . S
C419 C416 1.539 . S
C419 H433 0.958 . S
C419 H434 0.961 . S
C419 H435 0.960 . S
H420 C404 0.931 . S
H421 C409 0.929 . S
H422 C410 0.960 . S
H423 C410 0.962 . S
H424 C410 0.960 . S
H425 C411 0.961 . S
H426 C411 0.961 . S
H427 C411 0.961 . S
H428 C412 0.931 . S
H429 C417 0.930 . S
H430 C418 0.956 . S
H431 C418 0.961 . S
H432 C418 0.961 . S
H433 C419 0.958 . S
H434 C419 0.961 . S
H435 C419 0.960 . S
C436 C437 1.391 . S
C436 C438 1.394 . S
C436 H452 0.931 . S
C437 C436 1.391 . S
C437 C441 1.376 . S
C438 C436 1.394 . S
C438 C439 1.369 . S
C438 C442 1.531 . S
C439 C438 1.369 . S
C439 C440 1.410 . S
C439 C447 1.503 . S
C440 C439 1.410 . S
C440 C441 1.392 . S
C440 C443 1.511 . S
C441 C437 1.376 . S
C441 C440 1.392 . S
C441 H453 0.929 . S
C442 C438 1.531 . S
C442 H454 0.960 . S
C442 H455 0.962 . S
C442 H456 0.960 . S
C443 C440 1.511 . S
C443 H457 0.961 . S
C443 H458 0.961 . S
C443 H459 0.961 . S
C444 C445 1.370 . S
C444 C446 1.363 . S
C444 H460 0.931 . S
C445 C444 1.370 . S
C445 C449 1.408 . S
C446 C444 1.363 . S
C446 C447 1.370 . S
C446 C450 1.524 . S
C447 C439 1.503 . S
C447 C446 1.370 . S
C447 C448 1.403 . S
C448 C447 1.403 . S
C448 C449 1.404 . S
C448 C451 1.539 . S
C449 C445 1.408 . S
C449 C448 1.404 . S
C449 H461 0.930 . S
C450 C446 1.524 . S
C450 H462 0.956 . S
C450 H463 0.961 . S
C450 H464 0.961 . S
C451 C448 1.539 . S
C451 H465 0.958 . S
C451 H466 0.961 . S
C451 H467 0.960 . S
H452 C436 0.931 . S
H453 C441 0.929 . S
H454 C442 0.960 . S
H455 C442 0.962 . S
H456 C442 0.960 . S
H457 C443 0.961 . S
H458 C443 0.961 . S
H459 C443 0.961 . S
H460 C444 0.931 . S
H461 C449 0.930 . S
H462 C450 0.956 . S
H463 C450 0.961 . S
H464 C450 0.961 . S
H465 C451 0.958 . S
H466 C451 0.961 . S
H467 C451 0.960 . S
C85 C11 1.358 . S
C93 C53 1.357 . S
C117 C25 1.357 . S
C125 C67 1.357 . S
C149 C39 1.352 . S
C157 C81 1.357 . S
C181 C19 1.543 . S
C189 C61 1.545 . S
C213 C75 1.547 . S
C221 C33 1.543 . S
C245 C47 1.547 . S
C253 C5 1.542 . S
C277 C28 1.292 . S
C285 C9 1.233 . S
C309 C42 1.289 . S
C317 C23 1.218 . S
C341 C37 1.233 . S
C349 C56 1.261 . S
C373 C70 1.289 . S
C381 C51 1.237 . S
C405 C65 1.271 . S
C413 C0 1.264 . S
C437 C79 1.232 . S
C445 C14 1.281 . S
