# Generated by pormake.
# Topology wfa, (4)-cn, num edge types: 1
# Building blocks:
#     Node 0, Type 0, BuildingBlock: NAWXER_clean_sbu_0, # of connection points: 4
#     Node 1, Type 0, BuildingBlock: NAWXER_clean_sbu_0, # of connection points: 4
#     Node 2, Type 0, BuildingBlock: NAWXER_clean_sbu_0, # of connection points: 4
#     Node 3, Type 0, BuildingBlock: NAWXER_clean_sbu_0, # of connection points: 4
#     Node 4, Type 0, BuildingBlock: NAWXER_clean_sbu_0, # of connection points: 4
#     Node 5, Type 0, BuildingBlock: NAWXER_clean_sbu_0, # of connection points: 4
#     Node 6, Type 0, BuildingBlock: NAWXER_clean_sbu_0, # of connection points: 4
#     Node 7, Type 0, BuildingBlock: NAWXER_clean_sbu_0, # of connection points: 4
#     Node 8, Type 0, BuildingBlock: NAWXER_clean_sbu_0, # of connection points: 4
#     Node 9, Type 0, BuildingBlock: NAWXER_clean_sbu_0, # of connection points: 4
#     Node 10, Type 0, BuildingBlock: NAWXER_clean_sbu_0, # of connection points: 4
#     Node 11, Type 0, BuildingBlock: NAWXER_clean_sbu_0, # of connection points: 4
#     Node 12, Type 0, BuildingBlock: NAWXER_clean_sbu_0, # of connection points: 4
#     Node 13, Type 0, BuildingBlock: NAWXER_clean_sbu_0, # of connection points: 4
#     Node 14, Type 0, BuildingBlock: NAWXER_clean_sbu_0, # of connection points: 4
#     Node 15, Type 0, BuildingBlock: NAWXER_clean_sbu_0, # of connection points: 4
#     Edge 16, Type (0, 0), BuildingBlock: OJICUG_clean_linker_0, # of connection points: 2
#     Edge 17, Type (0, 0), BuildingBlock: OJICUG_clean_linker_0, # of connection points: 2
#     Edge 18, Type (0, 0), BuildingBlock: OJICUG_clean_linker_0, # of connection points: 2
#     Edge 19, Type (0, 0), BuildingBlock: OJICUG_clean_linker_0, # of connection points: 2
#     Edge 20, Type (0, 0), BuildingBlock: OJICUG_clean_linker_0, # of connection points: 2
#     Edge 21, Type (0, 0), BuildingBlock: OJICUG_clean_linker_0, # of connection points: 2
#     Edge 22, Type (0, 0), BuildingBlock: OJICUG_clean_linker_0, # of connection points: 2
#     Edge 23, Type (0, 0), BuildingBlock: OJICUG_clean_linker_0, # of connection points: 2
#     Edge 24, Type (0, 0), BuildingBlock: OJICUG_clean_linker_0, # of connection points: 2
#     Edge 25, Type (0, 0), BuildingBlock: OJICUG_clean_linker_0, # of connection points: 2
#     Edge 26, Type (0, 0), BuildingBlock: OJICUG_clean_linker_0, # of connection points: 2
#     Edge 27, Type (0, 0), BuildingBlock: OJICUG_clean_linker_0, # of connection points: 2
#     Edge 28, Type (0, 0), BuildingBlock: OJICUG_clean_linker_0, # of connection points: 2
#     Edge 29, Type (0, 0), BuildingBlock: OJICUG_clean_linker_0, # of connection points: 2
#     Edge 30, Type (0, 0), BuildingBlock: OJICUG_clean_linker_0, # of connection points: 2
#     Edge 31, Type (0, 0), BuildingBlock: OJICUG_clean_linker_0, # of connection points: 2
#     Edge 32, Type (0, 0), BuildingBlock: OJICUG_clean_linker_0, # of connection points: 2
#     Edge 33, Type (0, 0), BuildingBlock: OJICUG_clean_linker_0, # of connection points: 2
#     Edge 34, Type (0, 0), BuildingBlock: OJICUG_clean_linker_0, # of connection points: 2
#     Edge 35, Type (0, 0), BuildingBlock: OJICUG_clean_linker_0, # of connection points: 2
#     Edge 36, Type (0, 0), BuildingBlock: OJICUG_clean_linker_0, # of connection points: 2
#     Edge 37, Type (0, 0), BuildingBlock: OJICUG_clean_linker_0, # of connection points: 2
#     Edge 38, Type (0, 0), BuildingBlock: OJICUG_clean_linker_0, # of connection points: 2
#     Edge 39, Type (0, 0), BuildingBlock: OJICUG_clean_linker_0, # of connection points: 2
#     Edge 40, Type (0, 0), BuildingBlock: OJICUG_clean_linker_0, # of connection points: 2
#     Edge 41, Type (0, 0), BuildingBlock: OJICUG_clean_linker_0, # of connection points: 2
#     Edge 42, Type (0, 0), BuildingBlock: OJICUG_clean_linker_0, # of connection points: 2
#     Edge 43, Type (0, 0), BuildingBlock: OJICUG_clean_linker_0, # of connection points: 2
#     Edge 44, Type (0, 0), BuildingBlock: OJICUG_clean_linker_0, # of connection points: 2
#     Edge 45, Type (0, 0), BuildingBlock: OJICUG_clean_linker_0, # of connection points: 2
#     Edge 46, Type (0, 0), BuildingBlock: OJICUG_clean_linker_0, # of connection points: 2
#     Edge 47, Type (0, 0), BuildingBlock: OJICUG_clean_linker_0, # of connection points: 2
# Relax obj value: 0.153
# Max RMSD: 0.233
# Mean RMSD: 0.220
data_MOF--net-wfa--node1-NAWXER_clean_sbu_0--edge1-OJICUG_clean_linker_0
_symmetry_space_group_name_H-M    P1
_symmetry_Int_Tables_number       1
_symmetry_cell_setting            triclinic
loop_
_symmetry_equiv_pos_as_xyz
'x, y, z'
_cell_length_a     35.206878
_cell_length_b     35.202448
_cell_length_c     16.533959
_cell_angle_alpha  89.251529
_cell_angle_beta   89.256819
_cell_angle_gamma 89.303258
loop_
_atom_site_label
_atom_site_type_symbol
_atom_site_fract_x
_atom_site_fract_y
_atom_site_fract_z
_atom_type_partial_charge
C0 C 0.64705 0.08797 0.11641 0.0
C1 C 0.69011 0.02879 0.86778 0.0
O2 O 0.6551 0.10461 0.04972 0.0
Zn3 Zn 0.66484 0.05839 0.99216 0.0
O4 O 0.64687 0.05157 0.12144 0.0
Zn5 Zn 0.65867 1.00378 0.04279 0.0
O6 O 0.69799 0.9796 0.10697 0.0
O7 O 0.71289 0.03689 0.06185 0.0
O8 O 0.683 1.0034 0.92213 0.0
O9 O 0.68253 0.06329 0.88262 0.0
O10 O 0.60781 0.03801 0.98717 0.0
O11 O 0.60885 0.9801 0.03826 0.0
C12 C 0.72113 1.00712 0.10427 0.0
C13 C 0.5901 0.00782 0.00826 0.0
C14 C 0.51246 0.72147 0.09563 0.0
C15 C 0.50946 0.59031 1.00258 0.0
O16 O 0.53948 0.69712 0.09742 0.0
Zn17 Zn 0.51463 0.6588 0.03497 0.0
O18 O 0.48256 0.71439 0.05488 0.0
Zn19 Zn 0.46033 0.66708 0.98675 0.0
O20 O 0.41377 0.65928 0.04628 0.0
O21 O 0.46639 0.64894 0.11597 0.0
O22 O 0.47964 0.60915 0.98236 0.0
O23 O 0.53754 0.60808 0.03037 0.0
O24 O 0.51581 0.68286 0.91393 0.0
O25 O 0.45605 0.68455 0.87697 0.0
C26 C 0.43001 0.65044 0.11231 0.0
C27 C 0.49067 0.6908 0.86054 0.0
C28 C 0.79286 0.51298 0.09288 0.0
C29 C 0.92492 0.50999 0.99828 0.0
O30 O 0.81636 0.54018 0.09371 0.0
Zn31 Zn 0.85572 0.51542 0.03016 0.0
O32 O 0.80101 0.48312 0.05185 0.0
Zn33 Zn 0.8495 0.46095 0.98289 0.0
O34 O 0.85759 0.41455 0.04294 0.0
O35 O 0.86594 0.46744 0.11173 0.0
O36 O 0.9071 0.48005 0.97864 0.0
O37 O 0.90601 0.53829 0.02466 0.0
O38 O 0.83203 0.51612 0.91005 0.0
O39 O 0.83308 0.45631 0.87349 0.0
C40 C 0.86523 0.43105 0.10869 0.0
C41 C 0.82533 0.49077 0.85714 0.0
C42 C 0.08672 0.86588 0.11271 0.0
C43 C 0.02852 0.82482 0.86374 0.0
O44 O 0.10368 0.85767 0.04664 0.0
Zn45 Zn 0.05771 0.84934 0.9879 0.0
O46 O 0.0503 0.86675 0.11684 0.0
Zn47 Zn 1.0029 0.8564 0.03709 0.0
O48 O 0.97833 0.81755 0.10182 0.0
O49 O 0.03583 0.80146 0.05843 0.0
O50 O 1.00297 0.83229 0.91751 0.0
O51 O 0.0629 0.83201 0.87855 0.0
O52 O 0.03746 0.90697 0.98215 0.0
O53 O 0.97913 0.90667 0.03097 0.0
C54 C 1.00581 0.79373 0.1003 0.0
C55 C 1.00714 0.92513 1.00239 0.0
C56 C 0.14901 0.92807 0.39671 0.0
C57 C 0.19039 0.9861 0.64561 0.0
O58 O 0.1572 0.91108 0.46276 0.0
Zn59 Zn 0.1657 0.95702 0.5215 0.0
O60 O 0.14825 0.9645 0.3926 0.0
Zn61 Zn 0.15877 0.01186 0.47237 0.0
O62 O 0.19765 0.03635 0.40758 0.0
O63 O 0.2136 0.97878 0.45086 0.0
O64 O 0.18295 0.01168 0.59189 0.0
O65 O 0.1831 0.95174 0.63078 0.0
O66 O 0.10814 0.97746 0.52746 0.0
O67 O 0.10859 0.03579 0.47865 0.0
C68 C 0.22139 0.0088 0.40901 0.0
C69 C 0.09006 0.00784 0.5073 0.0
C70 C 0.5013 0.22241 0.41851 0.0
C71 C 0.5048 0.09027 0.51269 0.0
O72 O 0.47419 0.19881 0.41757 0.0
Zn73 Zn 0.49908 0.15949 0.48106 0.0
O74 O 0.53117 0.21434 0.45959 0.0
Zn75 Zn 0.55351 0.16588 0.52841 0.0
O76 O 0.59994 0.15803 0.46838 0.0
O77 O 0.5471 0.14952 0.39951 0.0
O78 O 0.53465 0.1082 0.53241 0.0
O79 O 0.47642 0.10909 0.48638 0.0
O80 O 0.49826 0.18312 0.60123 0.0
O81 O 0.55805 0.18223 0.63788 0.0
C82 C 0.58348 0.15036 0.40259 0.0
C83 C 0.52357 0.18986 0.6542 0.0
C84 C 0.42487 0.50609 0.5075 0.0
C85 C 0.29377 0.50356 0.4141 0.0
O86 O 0.40701 0.47808 0.47967 0.0
Zn87 Zn 0.3564 0.50119 0.4749 0.0
O88 O 0.40614 0.53599 0.52763 0.0
Zn89 Zn 0.34829 0.55554 0.52302 0.0
O90 O 0.33076 0.55992 0.63275 0.0
O91 O 0.33229 0.50014 0.59589 0.0
O92 O 0.30094 0.53346 0.4548 0.0
O93 O 0.31802 0.47646 0.41243 0.0
O94 O 0.36648 0.54938 0.39386 0.0
O95 O 0.35629 0.60206 0.46346 0.0
C96 C 0.32441 0.52531 0.64923 0.0
C97 C 0.36511 0.58577 0.39747 0.0
C98 C 0.92797 0.36773 0.39478 0.0
C99 C 0.98739 0.32507 0.64344 0.0
O100 O 0.91138 0.35966 0.46153 0.0
Zn101 Zn 0.95766 0.35013 0.51903 0.0
O102 O 0.96436 0.36804 0.38968 0.0
Zn103 Zn 0.01222 0.35646 0.46828 0.0
O104 O 0.0365 0.31718 0.40417 0.0
O105 O 0.97929 0.30211 0.44947 0.0
O106 O 0.01274 0.33221 0.58901 0.0
O107 O 0.95287 0.33254 0.62863 0.0
O108 O 0.97782 0.40726 0.52372 0.0
O109 O 0.03571 0.40639 0.47258 0.0
C110 C 0.00906 0.29394 0.407 0.0
C111 C 0.00792 0.42507 0.50251 0.0
C112 C 0.36794 0.92727 0.89448 0.0
C113 C 0.32487 0.98649 0.14308 0.0
O114 O 0.36809 0.96367 0.88942 0.0
Zn115 Zn 0.35627 0.01147 0.96802 0.0
O116 O 0.35989 0.91064 0.96118 0.0
Zn117 Zn 0.35012 0.95687 0.0187 0.0
O118 O 0.30207 0.97832 0.949 0.0
O119 O 0.31693 0.03561 0.90384 0.0
O120 O 0.33244 0.95199 0.12825 0.0
O121 O 0.33197 0.01187 0.08869 0.0
O122 O 0.40609 0.03518 0.9725 0.0
O123 O 0.40715 0.97728 0.02366 0.0
C124 C 0.2938 0.00808 0.90655 0.0
C125 C 0.42484 1.00746 1.00253 0.0
C126 C 0.50262 0.29398 0.91526 0.0
C127 C 0.50564 0.42514 0.00826 0.0
O128 O 0.53254 0.30106 0.95597 0.0
Zn129 Zn 0.55478 0.34838 0.02404 0.0
O130 O 0.4756 0.31832 0.91348 0.0
Zn131 Zn 0.50046 0.35665 0.97589 0.0
O132 O 0.54867 0.3665 0.89482 0.0
O133 O 0.60132 0.35617 0.96442 0.0
O134 O 0.47756 0.40737 0.98051 0.0
O135 O 0.53546 0.40631 0.02845 0.0
O136 O 0.55909 0.33091 0.13383 0.0
O137 O 0.49932 0.33259 0.09693 0.0
C138 C 0.58505 0.365 0.89841 0.0
C139 C 0.52447 0.32466 0.1503 0.0
C140 C 0.18959 0.52447 0.15306 0.0
C141 C 0.14986 0.58416 0.90138 0.0
O142 O 0.18289 0.49911 0.10016 0.0
Zn143 Zn 0.15923 0.4998 0.98002 0.0
O144 O 0.18186 0.55893 0.13667 0.0
Zn145 Zn 0.16547 0.55427 0.02725 0.0
O146 O 0.10785 0.53523 0.03141 0.0
O147 O 0.10892 0.47698 0.98547 0.0
O148 O 0.15748 0.60067 0.96714 0.0
O149 O 0.14911 0.54777 0.89837 0.0
O150 O 0.19859 0.47499 0.91656 0.0
O151 O 0.21398 0.53203 0.95841 0.0
C152 C 0.09002 0.5053 0.01178 0.0
C153 C 0.22211 0.50216 0.91741 0.0
C154 C 0.98711 0.19058 0.14606 0.0
C155 C 0.92879 0.14948 0.89729 0.0
O156 O 0.01264 0.18312 0.09226 0.0
Zn157 Zn 0.01266 0.15899 0.97268 0.0
O158 O 0.95273 0.18338 0.1313 0.0
Zn159 Zn 0.95788 0.16605 0.02197 0.0
O160 O 0.97814 0.10843 0.0277 0.0
O161 O 0.03644 0.10872 0.97879 0.0
O162 O 0.91189 0.15772 0.9634 0.0
O163 O 0.96521 0.14862 0.89304 0.0
O164 O 0.03722 0.19782 0.90787 0.0
O165 O 0.97974 0.21393 0.95134 0.0
C166 C 0.00844 0.09026 0.00741 0.0
C167 C 0.00974 0.22165 0.90942 0.0
C168 C 0.79363 1.00646 0.60187 0.0
C169 C 0.92493 1.00727 0.50337 0.0
O170 O 0.80142 0.03646 0.55997 0.0
Zn171 Zn 0.84932 0.05815 0.48918 0.0
O172 O 0.81736 0.97889 0.60331 0.0
Zn173 Zn 0.85623 1.00333 0.53841 0.0
O174 O 0.86684 0.05072 0.61804 0.0
O175 O 0.85789 0.1041 0.54776 0.0
O176 O 0.90639 0.97935 0.5321 0.0
O177 O 0.90686 0.03766 0.48317 0.0
O178 O 0.83189 0.06339 0.37993 0.0
O179 O 0.83202 1.00347 0.4189 0.0
C180 C 0.86611 0.08715 0.61382 0.0
C181 C 0.82458 0.02904 0.36516 0.0
C182 C 0.51386 0.79304 0.59232 0.0
C183 C 0.51027 0.92518 0.49825 0.0
O184 O 0.48399 0.80109 0.55125 0.0
Zn185 Zn 0.46161 0.84955 0.48247 0.0
O186 O 0.54095 0.81665 0.59328 0.0
Zn187 Zn 0.51604 0.85596 0.52981 0.0
O188 O 0.46801 0.86588 0.61139 0.0
O189 O 0.41517 0.85735 0.54251 0.0
O190 O 0.53866 0.90637 0.52453 0.0
O191 O 0.48043 0.90725 0.47852 0.0
O192 O 0.45707 0.83322 0.373 0.0
O193 O 0.51686 0.83234 0.40963 0.0
C194 C 0.43163 0.86501 0.60831 0.0
C195 C 0.49154 0.8256 0.35666 0.0
C196 C 0.64981 0.42951 0.61294 0.0
C197 C 0.69053 0.48985 0.36105 0.0
O198 O 0.64844 0.4659 0.61646 0.0
Zn199 Zn 0.65852 0.51404 0.53532 0.0
O200 O 0.65862 0.41318 0.54698 0.0
Zn201 Zn 0.66662 0.45967 0.4873 0.0
O202 O 0.71398 0.48178 0.55546 0.0
O203 O 0.6969 0.5388 0.59775 0.0
O204 O 0.68416 0.45525 0.37757 0.0
O205 O 0.68263 0.51504 0.41433 0.0
O206 O 0.60791 0.53715 0.53049 0.0
O207 O 0.60877 0.47922 0.48263 0.0
C208 C 0.72114 0.51169 0.59611 0.0
C209 C 0.59004 0.50913 0.50271 0.0
C210 C 0.02816 0.69033 0.36631 0.0
C211 C 0.08752 0.64761 0.61504 0.0
O212 O 1.00281 0.6832 0.42074 0.0
Zn213 Zn 1.00329 0.65897 0.54147 0.0
O214 O 0.06268 0.68286 0.38114 0.0
Zn215 Zn 0.05787 0.66526 0.49075 0.0
O216 O 0.03766 0.60815 0.48602 0.0
O217 O 0.97977 0.60904 0.53716 0.0
O218 O 0.10413 0.65567 0.54831 0.0
O219 O 0.05113 0.64734 0.62008 0.0
O220 O 0.97905 0.69828 0.60556 0.0
O221 O 0.03628 0.71329 0.5603 0.0
C222 C 1.00755 0.59036 0.50722 0.0
C223 C 1.00651 0.72149 0.60276 0.0
C224 C 0.59316 0.15362 0.25397 0.0
C225 C 0.60536 0.1404 0.32996 0.0
H226 H 0.59813 0.14793 0.12526 0.0
C227 C 0.63501 0.11363 0.33477 0.0
H228 H 0.57023 0.17433 0.24937 0.0
C229 C 0.65011 0.09787 0.26419 0.0
C230 C 0.6365 0.10965 0.1883 0.0
H231 H 0.64453 0.10292 0.3929 0.0
H232 H 0.67132 0.07541 0.2689 0.0
C233 C 0.60911 0.13872 0.18332 0.0
C234 C 0.4027 0.63681 0.33093 0.0
C235 C 0.37592 0.60789 0.32537 0.0
H236 H 0.4415 0.67281 0.26591 0.0
C237 C 0.36341 0.59669 0.24907 0.0
H238 H 0.41291 0.64553 0.3893 0.0
C239 C 0.37886 0.613 0.17883 0.0
C240 C 0.40785 0.63971 0.18439 0.0
H241 H 0.34274 0.57431 0.24385 0.0
H242 H 0.37012 0.6028 0.12047 0.0
C243 C 0.41906 0.65221 0.26069 0.0
C244 C 0.86208 0.42137 0.25731 0.0
C245 C 0.87531 0.40922 0.18131 0.0
H246 H 0.86784 0.41643 0.38601 0.0
C247 C 0.90218 0.37966 0.17646 0.0
H248 H 0.84129 0.44423 0.26194 0.0
C249 C 0.91802 0.36462 0.24702 0.0
C250 C 0.90622 0.37819 0.32292 0.0
H251 H 0.9129 0.37017 0.11832 0.0
H252 H 0.94056 0.34348 0.24228 0.0
C253 C 0.87706 0.40548 0.32794 0.0
C254 C 0.09612 0.86303 0.26115 0.0
C255 C 0.10806 0.87623 0.18451 0.0
H256 H 0.10106 0.86846 0.38966 0.0
C257 C 0.13704 0.90306 0.17834 0.0
H258 H 0.07369 0.84231 0.2669 0.0
C259 C 0.15181 0.91872 0.24825 0.0
C260 C 0.13862 0.90677 0.32489 0.0
H261 H 0.14636 0.91379 0.11974 0.0
H262 H 0.17254 0.94114 0.2425 0.0
C263 C 0.11178 0.87779 0.33106 0.0
C264 C 0.36486 0.91732 0.74673 0.0
C265 C 0.37851 0.9056 0.82262 0.0
H266 H 0.37043 0.91227 0.61803 0.0
C267 C 0.406 0.87661 0.8276 0.0
H268 H 0.34358 0.93972 0.74202 0.0
C269 C 0.42198 0.86175 0.75695 0.0
C270 C 0.40974 0.87492 0.68096 0.0
H271 H 0.41701 0.86745 0.88566 0.0
H272 H 0.44498 0.84111 0.76155 0.0
C273 C 0.38 0.9016 0.67615 0.0
C274 C 0.65158 0.41868 0.76135 0.0
C275 C 0.63904 0.40743 0.68511 0.0
H276 H 0.64493 0.41265 0.88999 0.0
C277 C 0.61225 0.3785 0.6797 0.0
H278 H 0.67224 0.44107 0.76646 0.0
C279 C 0.59593 0.36314 0.75002 0.0
C280 C 0.60718 0.37569 0.82626 0.0
H281 H 0.60202 0.36974 0.62138 0.0
H282 H 0.5735 0.34253 0.74491 0.0
C283 C 0.63617 0.40241 0.83167 0.0
C284 C 0.13824 0.60968 0.68203 0.0
C285 C 0.10921 0.63713 0.68693 0.0
H286 H 0.17379 0.57078 0.74818 0.0
C287 C 0.09745 0.65079 0.76278 0.0
H288 H 0.14742 0.59866 0.624 0.0
C289 C 0.11318 0.6357 0.8334 0.0
C290 C 0.1399 0.606 0.82867 0.0
H291 H 0.07502 0.67204 0.76742 0.0
H292 H 0.10248 0.64527 0.8915 0.0
C293 C 0.15311 0.59375 0.75272 0.0
C294 C 0.87836 0.11232 0.83202 0.0
C295 C 0.90739 0.13909 0.82561 0.0
H296 H 0.84271 0.07427 0.76819 0.0
C297 C 0.91929 0.15218 0.74887 0.0
H298 H 0.86907 0.10167 0.8907 0.0
C299 C 0.90353 0.1374 0.67909 0.0
C300 C 0.87662 0.10848 0.68551 0.0
H301 H 0.94176 0.17286 0.74293 0.0
H302 H 0.91421 0.14665 0.62041 0.0
C303 C 0.86348 0.09664 0.76225 0.0
C304 C 0.71265 0.0458 0.72813 0.0
C305 C 0.71046 0.01897 0.79164 0.0
H306 H 0.73976 0.06234 0.61712 0.0
C307 C 0.73133 0.98481 0.78496 0.0
H308 H 0.69655 0.07218 0.7308 0.0
C309 C 0.75641 0.97915 0.71949 0.0
C310 C 0.76086 1.00747 0.65933 0.0
H311 H 0.73015 0.9635 0.83275 0.0
H312 H 0.77396 0.95368 0.71879 0.0
C313 C 0.7374 0.04005 0.66263 0.0
C314 C 0.48055 0.73732 0.65456 0.0
C315 C 0.51292 0.76033 0.65007 0.0
H316 H 0.44829 0.69725 0.72431 0.0
C317 C 0.54084 0.75569 0.70971 0.0
H318 H 0.45855 0.73982 0.60954 0.0
C319 C 0.53495 0.73094 0.77579 0.0
C320 C 0.50093 0.71061 0.78368 0.0
H321 H 0.56614 0.7729 0.70816 0.0
H322 H 0.55591 0.72966 0.82316 0.0
C323 C 0.47455 0.71293 0.7207 0.0
C324 C 0.78336 0.5342 0.77445 0.0
C325 C 0.80488 0.50043 0.78153 0.0
H326 H 0.74002 0.56462 0.70945 0.0
C327 C 0.80301 0.47362 0.71951 0.0
H328 H 0.78422 0.55548 0.82111 0.0
C329 C 0.778 0.47896 0.65534 0.0
C330 C 0.75394 0.51111 0.65186 0.0
H331 H 0.81957 0.4475 0.72251 0.0
H332 H 0.77595 0.45666 0.61113 0.0
C333 C 0.75802 0.53945 0.71032 0.0
C334 C 0.98484 0.78436 0.78276 0.0
C335 C 0.01902 0.80437 0.78875 0.0
H336 H 0.9537 0.74256 0.71857 0.0
C337 C 0.04608 0.80121 0.72589 0.0
H338 H 0.96335 0.78624 0.83006 0.0
C339 C 0.04043 0.77653 0.66174 0.0
C340 C 0.0077 0.75405 0.65909 0.0
H341 H 0.07253 0.81656 0.72803 0.0
H342 H 0.06286 0.77349 0.61674 0.0
C343 C 0.97928 0.75934 0.71869 0.0
C344 C 0.23084 0.02977 0.72668 0.0
C345 C 0.21091 0.99553 0.72056 0.0
H346 H 0.27258 0.06094 0.79096 0.0
C347 C 0.21418 0.9684 0.78327 0.0
H348 H 0.22887 0.05132 0.67951 0.0
C349 C 0.23888 0.97404 0.84739 0.0
C350 C 0.26126 1.00683 0.85018 0.0
H351 H 0.1989 0.94191 0.78103 0.0
H352 H 0.242 0.95156 0.89227 0.0
C353 C 0.25587 0.03531 0.79073 0.0
C354 C 0.48012 0.23186 0.73677 0.0
C355 C 0.51384 0.21025 0.72985 0.0
H356 H 0.44975 0.27527 0.80165 0.0
C357 C 0.54057 0.212 0.79204 0.0
H358 H 0.45891 0.23109 0.68996 0.0
C359 C 0.53522 0.237 0.85623 0.0
C360 C 0.50314 0.26116 0.85955 0.0
H361 H 0.56664 0.19537 0.78916 0.0
H362 H 0.55746 0.23897 0.90058 0.0
C363 C 0.47486 0.25719 0.80091 0.0
C364 C 0.3021 0.54158 0.78887 0.0
C365 C 0.30454 0.51513 0.72606 0.0
H366 H 0.27512 0.55766 0.89987 0.0
C367 C 0.2843 0.48105 0.73411 0.0
H368 H 0.31772 0.56789 0.78515 0.0
C369 C 0.25954 0.47517 0.80017 0.0
C370 C 0.2548 0.50316 0.85964 0.0
H371 H 0.28567 0.46003 0.68688 0.0
H372 H 0.24241 0.44982 0.80184 0.0
C373 C 0.27771 0.5356 0.85499 0.0
C374 C 0.03139 0.28383 0.72617 0.0
C375 C 0.99729 0.30479 0.71963 0.0
H376 H 0.06247 0.24112 0.79225 0.0
C377 C 0.97055 0.30274 0.78332 0.0
H378 H 0.05263 0.28491 0.67823 0.0
C379 C 0.97631 0.27802 0.84885 0.0
C380 C 0.00881 0.25443 0.852 0.0
H381 H 0.94422 0.31893 0.78075 0.0
H382 H 0.95408 0.27575 0.8945 0.0
C383 C 0.03706 0.25877 0.79167 0.0
C384 C 0.27766 0.97526 0.3483 0.0
C385 C 0.25416 0.00782 0.35158 0.0
H386 H 0.31852 0.94314 0.28013 0.0
C387 C 0.25858 0.03612 0.29137 0.0
H388 H 0.27533 0.95299 0.39385 0.0
C389 C 0.28365 0.03047 0.22588 0.0
C390 C 0.30454 0.99632 0.21923 0.0
H391 H 0.241 0.06158 0.29205 0.0
H392 H 0.28479 0.05176 0.17806 0.0
C393 C 0.3024 0.96952 0.28279 0.0
C394 C 0.47431 0.25978 0.30117 0.0
C395 C 0.50225 0.25511 0.36076 0.0
H396 H 0.45922 0.28583 0.18776 0.0
C397 C 0.53464 0.2781 0.35623 0.0
H398 H 0.449 0.24259 0.30275 0.0
C399 C 0.54063 0.30249 0.29009 0.0
C400 C 0.51423 0.30484 0.22716 0.0
H401 H 0.55665 0.27557 0.40121 0.0
H402 H 0.56691 0.31816 0.28645 0.0
C403 C 0.4802 0.28453 0.23509 0.0
C404 C 0.25688 0.47579 0.29992 0.0
C405 C 0.26097 0.50415 0.35836 0.0
H406 H 0.23067 0.45975 0.18916 0.0
C407 C 0.23692 0.53631 0.35484 0.0
H408 H 0.27487 0.45062 0.30082 0.0
C409 C 0.21191 0.54164 0.29068 0.0
C410 C 0.21003 0.51482 0.22869 0.0
H411 H 0.23899 0.55862 0.39904 0.0
H412 H 0.19536 0.56776 0.28765 0.0
C413 C 0.23154 0.48103 0.2358 0.0
C414 C 0.03078 0.2311 0.22696 0.0
C415 C 0.99662 0.21104 0.22104 0.0
H416 H 0.06186 0.27296 0.29109 0.0
C417 C 0.96958 0.21414 0.28396 0.0
H418 H 0.05225 0.22927 0.17961 0.0
C419 C 0.97522 0.23883 0.3481 0.0
C420 C 0.00791 0.26137 0.35068 0.0
H421 H 0.94316 0.19875 0.28188 0.0
H422 H 0.95281 0.24183 0.39314 0.0
C423 C 0.03632 0.25613 0.29102 0.0
C424 C 0.75902 0.97987 0.22014 0.0
C425 C 0.75368 0.00834 0.16063 0.0
H426 H 0.78599 0.96386 0.33138 0.0
C427 C 0.77612 0.04109 0.16336 0.0
H428 H 0.74227 0.95427 0.21995 0.0
C429 C 0.80083 0.04671 0.22747 0.0
C430 C 0.80405 0.0196 0.29022 0.0
H431 H 0.77303 0.06355 0.11844 0.0
H432 H 0.81615 0.07318 0.22965 0.0
C433 C 0.78407 0.9854 0.28417 0.0
C434 C 0.53499 0.78359 0.27409 0.0
C435 C 0.50127 0.8052 0.28102 0.0
H436 H 0.56534 0.74017 0.20922 0.0
C437 C 0.47453 0.80345 0.21883 0.0
H438 H 0.5562 0.78437 0.32089 0.0
C439 C 0.47988 0.77845 0.15465 0.0
C440 C 0.51195 0.75428 0.15133 0.0
H441 H 0.44847 0.82009 0.22172 0.0
H442 H 0.45763 0.77648 0.11031 0.0
C443 C 0.54024 0.75826 0.20995 0.0
C444 C 0.71291 0.47351 0.22148 0.0
C445 C 0.71041 0.5 0.28422 0.0
H446 H 0.73994 0.45741 0.11056 0.0
C447 C 0.73062 0.5341 0.27611 0.0
H448 H 0.69732 0.44718 0.22525 0.0
C449 C 0.75538 0.53997 0.21006 0.0
C450 C 0.76017 0.51196 0.15066 0.0
H451 H 0.72921 0.55515 0.32328 0.0
H452 H 0.77248 0.56535 0.20834 0.0
C453 C 0.73731 0.47949 0.15538 0.0
C454 C 0.97849 0.75661 0.21804 0.0
C455 C 1.00674 0.76094 0.15771 0.0
H456 H 0.96291 0.73048 0.33148 0.0
C457 C 0.03924 0.73736 0.16089 0.0
H458 H 0.95307 0.77424 0.21743 0.0
C459 C 0.04501 0.71265 0.22644 0.0
C460 C 0.01827 0.7106 0.29012 0.0
H461 H 0.06148 0.73963 0.11524 0.0
H462 H 0.07135 0.69647 0.22902 0.0
C463 C 0.98416 0.73155 0.28355 0.0
C464 C 0.48752 0.0396 0.97676 0.0
C465 C 0.46709 0.00818 0.00636 0.0
H466 H 0.54205 0.06394 0.9531 0.0
C467 C 0.4876 0.97622 0.03496 0.0
H468 H 0.47277 0.06456 0.95367 0.0
C469 C 0.52742 0.97569 0.03404 0.0
C470 C 0.54785 1.00711 1.00444 0.0
H471 H 0.4729 0.95135 0.0577 0.0
H472 H 0.54217 0.95073 0.05713 0.0
C473 C 0.52734 0.03907 0.97584 0.0
C474 C 0.47508 0.48895 0.98004 0.0
C475 C 0.50594 0.46744 0.00951 0.0
H476 H 0.45219 0.54428 0.95358 0.0
C477 C 0.53844 0.48676 0.03482 0.0
H478 H 0.44974 0.4751 0.95936 0.0
C479 C 0.54002 0.5265 0.03081 0.0
C480 C 0.50916 0.54802 1.00133 0.0
H481 H 0.56291 0.47117 0.05727 0.0
H482 H 0.56536 0.54035 0.05149 0.0
C483 C 0.47666 0.52869 0.97603 0.0
C484 C 0.98775 0.47668 0.9756 0.0
C485 C 0.96725 0.5095 0.99876 0.0
H486 H 0.04218 0.44929 0.96261 0.0
C487 C 0.98753 0.54044 0.02828 0.0
H488 H 0.97313 0.45212 0.95324 0.0
C489 C 0.02719 0.53863 0.03441 0.0
C490 C 0.04769 0.50581 0.01126 0.0
H491 H 0.97275 0.56602 0.04741 0.0
H492 H 0.04181 0.56318 0.05677 0.0
C493 C 0.02741 0.47487 0.98173 0.0
C494 C 0.04021 0.02725 0.97905 0.0
C495 C 0.0088 0.04795 0.00902 0.0
H496 H 0.06412 0.97257 0.95221 0.0
C497 C 0.97636 0.02786 0.03479 0.0
H498 H 0.06552 0.04171 0.95797 0.0
C499 C 0.97537 0.98814 0.03075 0.0
C500 C 1.00679 0.96744 1.00078 0.0
H501 H 0.95146 0.04282 0.05759 0.0
H502 H 0.95007 0.97368 0.05183 0.0
C503 C 0.03923 0.98753 0.97501 0.0
C504 C 0.02715 0.03989 0.47936 0.0
C505 C 0.04776 0.00837 0.50915 0.0
H506 H 0.97254 0.06405 0.45293 0.0
C507 C 0.02756 0.97601 0.53503 0.0
H508 H 0.0417 0.06514 0.45821 0.0
C509 C 0.98784 0.97521 0.53127 0.0
C510 C 0.96723 1.00673 0.50149 0.0
H511 H 0.04245 0.95105 0.5577 0.0
H512 H 0.97329 0.94996 0.55243 0.0
C513 C 0.98743 0.03909 0.4756 0.0
C514 C 0.47667 0.98789 0.47591 0.0
C515 C 0.50958 0.96752 0.49899 0.0
H516 H 0.44902 0.04223 0.46319 0.0
C517 C 0.5404 0.98791 0.52869 0.0
H518 H 0.4522 0.97319 0.45341 0.0
C519 C 0.53839 0.02756 0.53506 0.0
C520 C 0.50549 0.04794 0.51197 0.0
H521 H 0.56604 0.97323 0.54778 0.0
H522 H 0.56287 0.04226 0.55756 0.0
C523 C 0.47466 0.02755 0.48228 0.0
C524 C 0.52636 0.54001 0.53052 0.0
C525 C 0.54776 0.50903 0.50124 0.0
H526 H 0.47111 0.56317 0.55663 0.0
C527 C 0.52831 0.47661 0.47589 0.0
H528 H 0.5403 0.56529 0.55122 0.0
C529 C 0.48856 0.47522 0.47967 0.0
C530 C 0.46716 0.5062 0.50896 0.0
H531 H 0.5438 0.45205 0.45357 0.0
H532 H 0.47461 0.44993 0.45897 0.0
C533 C 0.48661 0.53861 0.53431 0.0
C534 C 0.9757 0.52757 0.5334 0.0
C535 C 1.00701 0.5481 0.50363 0.0
H536 H 0.95162 0.47295 0.55744 0.0
C537 C 0.03905 0.52769 0.47512 0.0
H538 H 0.95068 0.54224 0.55643 0.0
C539 C 0.03976 0.48786 0.4763 0.0
C540 C 0.00845 0.46733 0.50608 0.0
H541 H 0.06384 0.54248 0.45226 0.0
H542 H 0.06478 0.47319 0.45328 0.0
C543 C 0.9764 0.48774 0.53458 0.0
loop_
_geom_bond_atom_site_label_1
_geom_bond_atom_site_label_2
_geom_bond_distance
_geom_bond_site_symmetry_2
_ccdc_geom_bond_type
C0 O2 1.247 . S
C0 O4 1.258 1_545 S
C1 O8 1.247 1_556 S
C1 O9 1.258 1_565 S
O2 C0 1.247 . S
O2 Zn3 2.028 . S
Zn3 O2 2.028 . S
Zn3 O7 2.035 . S
Zn3 O9 2.035 1_554 S
Zn3 O10 2.028 . S
O4 C0 1.258 1_565 S
O4 Zn5 2.035 . S
Zn5 O4 2.035 . S
Zn5 O6 2.028 . S
Zn5 O8 2.028 . S
Zn5 O11 2.035 . S
O6 Zn5 2.028 . S
O6 C12 1.247 1_565 S
O7 Zn3 2.035 . S
O7 C12 1.258 . S
O8 C1 1.247 1_554 S
O8 Zn5 2.028 . S
O9 C1 1.258 1_545 S
O9 Zn3 2.035 1_556 S
O10 Zn3 2.028 . S
O10 C13 1.247 1_545 S
O11 Zn5 2.035 . S
O11 C13 1.258 . S
C12 O6 1.247 1_545 S
C12 O7 1.258 . S
C13 O10 1.247 1_565 S
C13 O11 1.258 . S
C14 O16 1.247 . S
C14 O18 1.258 . S
C15 O22 1.247 . S
C15 O23 1.258 . S
O16 C14 1.247 . S
O16 Zn17 2.028 . S
Zn17 O16 2.028 . S
Zn17 O21 2.035 . S
Zn17 O23 2.035 . S
Zn17 O24 2.028 . S
O18 C14 1.258 . S
O18 Zn19 2.035 . S
Zn19 O18 2.035 . S
Zn19 O20 2.028 . S
Zn19 O22 2.028 . S
Zn19 O25 2.035 . S
O20 Zn19 2.028 . S
O20 C26 1.247 . S
O21 Zn17 2.035 . S
O21 C26 1.258 . S
O22 C15 1.247 . S
O22 Zn19 2.028 . S
O23 C15 1.258 . S
O23 Zn17 2.035 . S
O24 Zn17 2.028 . S
O24 C27 1.247 1_554 S
O25 Zn19 2.035 . S
O25 C27 1.258 1_554 S
C26 O20 1.247 . S
C26 O21 1.258 . S
C27 O24 1.247 1_556 S
C27 O25 1.258 1_556 S
C28 O30 1.247 . S
C28 O32 1.258 . S
C29 O36 1.247 . S
C29 O37 1.258 . S
O30 C28 1.247 . S
O30 Zn31 2.028 . S
Zn31 O30 2.028 . S
Zn31 O35 2.035 . S
Zn31 O37 2.035 . S
Zn31 O38 2.028 . S
O32 C28 1.258 . S
O32 Zn33 2.035 . S
Zn33 O32 2.035 . S
Zn33 O34 2.028 . S
Zn33 O36 2.028 . S
Zn33 O39 2.035 . S
O34 Zn33 2.028 . S
O34 C40 1.247 . S
O35 Zn31 2.035 . S
O35 C40 1.258 . S
O36 C29 1.247 . S
O36 Zn33 2.028 . S
O37 C29 1.258 . S
O37 Zn31 2.035 . S
O38 Zn31 2.028 . S
O38 C41 1.247 1_554 S
O39 Zn33 2.035 . S
O39 C41 1.258 1_554 S
C40 O34 1.247 . S
C40 O35 1.258 . S
C41 O38 1.247 1_556 S
C41 O39 1.258 1_556 S
C42 O44 1.247 . S
C42 O46 1.258 1_455 S
C43 O50 1.247 1_556 S
C43 O51 1.258 1_655 S
O44 C42 1.247 . S
O44 Zn45 2.028 . S
Zn45 O44 2.028 . S
Zn45 O49 2.035 . S
Zn45 O51 2.035 1_554 S
Zn45 O52 2.028 . S
O46 C42 1.258 1_655 S
O46 Zn47 2.035 . S
Zn47 O46 2.035 . S
Zn47 O48 2.028 . S
Zn47 O50 2.028 . S
Zn47 O53 2.035 . S
O48 Zn47 2.028 . S
O48 C54 1.247 1_655 S
O49 Zn45 2.035 . S
O49 C54 1.258 . S
O50 C43 1.247 1_554 S
O50 Zn47 2.028 . S
O51 C43 1.258 1_455 S
O51 Zn45 2.035 1_556 S
O52 Zn45 2.028 . S
O52 C55 1.247 1_455 S
O53 Zn47 2.035 . S
O53 C55 1.258 . S
C54 O48 1.247 1_455 S
C54 O49 1.258 . S
C55 O52 1.247 1_655 S
C55 O53 1.258 . S
C56 O58 1.247 . S
C56 O60 1.258 1_565 S
C57 O64 1.247 . S
C57 O65 1.258 1_545 S
O58 C56 1.247 . S
O58 Zn59 2.028 . S
Zn59 O58 2.028 . S
Zn59 O63 2.035 . S
Zn59 O65 2.035 . S
Zn59 O66 2.028 . S
O60 C56 1.258 1_545 S
O60 Zn61 2.035 . S
Zn61 O60 2.035 . S
Zn61 O62 2.028 . S
Zn61 O64 2.028 . S
Zn61 O67 2.035 . S
O62 Zn61 2.028 . S
O62 C68 1.247 1_545 S
O63 Zn59 2.035 . S
O63 C68 1.258 . S
O64 C57 1.247 . S
O64 Zn61 2.028 . S
O65 C57 1.258 1_565 S
O65 Zn59 2.035 . S
O66 Zn59 2.028 . S
O66 C69 1.247 1_565 S
O67 Zn61 2.035 . S
O67 C69 1.258 . S
C68 O62 1.247 1_565 S
C68 O63 1.258 . S
C69 O66 1.247 1_545 S
C69 O67 1.258 . S
C70 O72 1.247 . S
C70 O74 1.258 . S
C71 O78 1.247 . S
C71 O79 1.258 . S
O72 C70 1.247 . S
O72 Zn73 2.028 . S
Zn73 O72 2.028 . S
Zn73 O77 2.035 . S
Zn73 O79 2.035 . S
Zn73 O80 2.028 . S
O74 C70 1.258 . S
O74 Zn75 2.035 . S
Zn75 O74 2.035 . S
Zn75 O76 2.028 . S
Zn75 O78 2.028 . S
Zn75 O81 2.035 . S
O76 Zn75 2.028 . S
O76 C82 1.247 . S
O77 Zn73 2.035 . S
O77 C82 1.258 . S
O78 C71 1.247 . S
O78 Zn75 2.028 . S
O79 C71 1.258 . S
O79 Zn73 2.035 . S
O80 Zn73 2.028 . S
O80 C83 1.247 . S
O81 Zn75 2.035 . S
O81 C83 1.258 . S
C82 O76 1.247 . S
C82 O77 1.258 . S
C83 O80 1.247 . S
C83 O81 1.258 . S
C84 O86 1.247 . S
C84 O88 1.258 . S
C85 O92 1.247 . S
C85 O93 1.258 . S
O86 C84 1.247 . S
O86 Zn87 2.028 . S
Zn87 O86 2.028 . S
Zn87 O91 2.035 . S
Zn87 O93 2.035 . S
Zn87 O94 2.028 . S
O88 C84 1.258 . S
O88 Zn89 2.035 . S
Zn89 O88 2.035 . S
Zn89 O90 2.028 . S
Zn89 O92 2.028 . S
Zn89 O95 2.035 . S
O90 Zn89 2.028 . S
O90 C96 1.247 . S
O91 Zn87 2.035 . S
O91 C96 1.258 . S
O92 C85 1.247 . S
O92 Zn89 2.028 . S
O93 C85 1.258 . S
O93 Zn87 2.035 . S
O94 Zn87 2.028 . S
O94 C97 1.247 . S
O95 Zn89 2.035 . S
O95 C97 1.258 . S
C96 O90 1.247 . S
C96 O91 1.258 . S
C97 O94 1.247 . S
C97 O95 1.258 . S
C98 O100 1.247 . S
C98 O102 1.258 1_655 S
C99 O106 1.247 . S
C99 O107 1.258 1_455 S
O100 C98 1.247 . S
O100 Zn101 2.028 . S
Zn101 O100 2.028 . S
Zn101 O105 2.035 . S
Zn101 O107 2.035 . S
Zn101 O108 2.028 . S
O102 C98 1.258 1_455 S
O102 Zn103 2.035 . S
Zn103 O102 2.035 . S
Zn103 O104 2.028 . S
Zn103 O106 2.028 . S
Zn103 O109 2.035 . S
O104 Zn103 2.028 . S
O104 C110 1.247 1_455 S
O105 Zn101 2.035 . S
O105 C110 1.258 . S
O106 C99 1.247 . S
O106 Zn103 2.028 . S
O107 C99 1.258 1_655 S
O107 Zn101 2.035 . S
O108 Zn101 2.028 . S
O108 C111 1.247 1_655 S
O109 Zn103 2.035 . S
O109 C111 1.258 . S
C110 O104 1.247 1_655 S
C110 O105 1.258 . S
C111 O108 1.247 1_455 S
C111 O109 1.258 . S
C112 O114 1.247 1_565 S
C112 O116 1.258 . S
C113 O120 1.247 1_545 S
C113 O121 1.258 1_554 S
O114 C112 1.247 1_545 S
O114 Zn115 2.028 . S
Zn115 O114 2.028 . S
Zn115 O119 2.035 . S
Zn115 O121 2.035 . S
Zn115 O122 2.028 . S
O116 C112 1.258 . S
O116 Zn117 2.035 . S
Zn117 O116 2.035 . S
Zn117 O118 2.028 . S
Zn117 O120 2.028 1_556 S
Zn117 O123 2.035 . S
O118 Zn117 2.028 . S
O118 C124 1.247 . S
O119 Zn115 2.035 . S
O119 C124 1.258 1_545 S
O120 C113 1.247 1_565 S
O120 Zn117 2.028 1_554 S
O121 C113 1.258 1_556 S
O121 Zn115 2.035 . S
O122 Zn115 2.028 . S
O122 C125 1.247 . S
O123 Zn117 2.035 . S
O123 C125 1.258 1_565 S
C124 O118 1.247 . S
C124 O119 1.258 1_565 S
C125 O122 1.247 . S
C125 O123 1.258 1_545 S
C126 O128 1.247 . S
C126 O130 1.258 . S
C127 O134 1.247 . S
C127 O135 1.258 . S
O128 C126 1.247 . S
O128 Zn129 2.028 . S
Zn129 O128 2.028 . S
Zn129 O133 2.035 . S
Zn129 O135 2.035 . S
Zn129 O136 2.028 . S
O130 C126 1.258 . S
O130 Zn131 2.035 . S
Zn131 O130 2.035 . S
Zn131 O132 2.028 . S
Zn131 O134 2.028 . S
Zn131 O137 2.035 . S
O132 Zn131 2.028 . S
O132 C138 1.247 . S
O133 Zn129 2.035 . S
O133 C138 1.258 . S
O134 C127 1.247 . S
O134 Zn131 2.028 . S
O135 C127 1.258 . S
O135 Zn129 2.035 . S
O136 Zn129 2.028 . S
O136 C139 1.247 1_556 S
O137 Zn131 2.035 . S
O137 C139 1.258 1_556 S
C138 O132 1.247 . S
C138 O133 1.258 . S
C139 O136 1.247 1_554 S
C139 O137 1.258 1_554 S
C140 O142 1.247 1_554 S
C140 O144 1.258 1_554 S
C141 O148 1.247 . S
C141 O149 1.258 . S
O142 C140 1.247 1_556 S
O142 Zn143 2.028 . S
Zn143 O142 2.028 . S
Zn143 O147 2.035 . S
Zn143 O149 2.035 . S
Zn143 O150 2.028 . S
O144 C140 1.258 1_556 S
O144 Zn145 2.035 . S
Zn145 O144 2.035 . S
Zn145 O146 2.028 . S
Zn145 O148 2.028 . S
Zn145 O151 2.035 . S
O146 Zn145 2.028 . S
O146 C152 1.247 . S
O147 Zn143 2.035 . S
O147 C152 1.258 . S
O148 C141 1.247 . S
O148 Zn145 2.028 . S
O149 C141 1.258 . S
O149 Zn143 2.035 . S
O150 Zn143 2.028 . S
O150 C153 1.247 . S
O151 Zn145 2.035 . S
O151 C153 1.258 . S
C152 O146 1.247 . S
C152 O147 1.258 . S
C153 O150 1.247 . S
C153 O151 1.258 . S
C154 O156 1.247 1_554 S
C154 O158 1.258 1_455 S
C155 O162 1.247 . S
C155 O163 1.258 1_655 S
O156 C154 1.247 1_556 S
O156 Zn157 2.028 . S
Zn157 O156 2.028 . S
Zn157 O161 2.035 . S
Zn157 O163 2.035 . S
Zn157 O164 2.028 . S
O158 C154 1.258 1_655 S
O158 Zn159 2.035 1_554 S
Zn159 O158 2.035 1_556 S
Zn159 O160 2.028 . S
Zn159 O162 2.028 . S
Zn159 O165 2.035 . S
O160 Zn159 2.028 . S
O160 C166 1.247 1_655 S
O161 Zn157 2.035 . S
O161 C166 1.258 . S
O162 C155 1.247 . S
O162 Zn159 2.028 . S
O163 C155 1.258 1_455 S
O163 Zn157 2.035 . S
O164 Zn157 2.028 . S
O164 C167 1.247 1_455 S
O165 Zn159 2.035 . S
O165 C167 1.258 . S
C166 O160 1.247 1_455 S
C166 O161 1.258 . S
C167 O164 1.247 1_655 S
C167 O165 1.258 . S
C168 O170 1.247 . S
C168 O172 1.258 1_545 S
C169 O176 1.247 . S
C169 O177 1.258 1_565 S
O170 C168 1.247 . S
O170 Zn171 2.028 . S
Zn171 O170 2.028 . S
Zn171 O175 2.035 . S
Zn171 O177 2.035 . S
Zn171 O178 2.028 . S
O172 C168 1.258 1_565 S
O172 Zn173 2.035 . S
Zn173 O172 2.035 . S
Zn173 O174 2.028 . S
Zn173 O176 2.028 . S
Zn173 O179 2.035 . S
O174 Zn173 2.028 . S
O174 C180 1.247 1_565 S
O175 Zn171 2.035 . S
O175 C180 1.258 . S
O176 C169 1.247 . S
O176 Zn173 2.028 . S
O177 C169 1.258 1_545 S
O177 Zn171 2.035 . S
O178 Zn171 2.028 . S
O178 C181 1.247 1_545 S
O179 Zn173 2.035 . S
O179 C181 1.258 . S
C180 O174 1.247 1_545 S
C180 O175 1.258 . S
C181 O178 1.247 1_565 S
C181 O179 1.258 . S
C182 O184 1.247 . S
C182 O186 1.258 . S
C183 O190 1.247 . S
C183 O191 1.258 . S
O184 C182 1.247 . S
O184 Zn185 2.028 . S
Zn185 O184 2.028 . S
Zn185 O189 2.035 . S
Zn185 O191 2.035 . S
Zn185 O192 2.028 . S
O186 C182 1.258 . S
O186 Zn187 2.035 . S
Zn187 O186 2.035 . S
Zn187 O188 2.028 . S
Zn187 O190 2.028 . S
Zn187 O193 2.035 . S
O188 Zn187 2.028 . S
O188 C194 1.247 . S
O189 Zn185 2.035 . S
O189 C194 1.258 . S
O190 C183 1.247 . S
O190 Zn187 2.028 . S
O191 C183 1.258 . S
O191 Zn185 2.035 . S
O192 Zn185 2.028 . S
O192 C195 1.247 . S
O193 Zn187 2.035 . S
O193 C195 1.258 . S
C194 O188 1.247 . S
C194 O189 1.258 . S
C195 O192 1.247 . S
C195 O193 1.258 . S
C196 O198 1.247 . S
C196 O200 1.258 . S
C197 O204 1.247 . S
C197 O205 1.258 . S
O198 C196 1.247 . S
O198 Zn199 2.028 . S
Zn199 O198 2.028 . S
Zn199 O203 2.035 . S
Zn199 O205 2.035 . S
Zn199 O206 2.028 . S
O200 C196 1.258 . S
O200 Zn201 2.035 . S
Zn201 O200 2.035 . S
Zn201 O202 2.028 . S
Zn201 O204 2.028 . S
Zn201 O207 2.035 . S
O202 Zn201 2.028 . S
O202 C208 1.247 . S
O203 Zn199 2.035 . S
O203 C208 1.258 . S
O204 C197 1.247 . S
O204 Zn201 2.028 . S
O205 C197 1.258 . S
O205 Zn199 2.035 . S
O206 Zn199 2.028 . S
O206 C209 1.247 . S
O207 Zn201 2.035 . S
O207 C209 1.258 . S
C208 O202 1.247 . S
C208 O203 1.258 . S
C209 O206 1.247 . S
C209 O207 1.258 . S
C210 O212 1.247 . S
C210 O214 1.258 1_655 S
C211 O218 1.247 . S
C211 O219 1.258 1_455 S
O212 C210 1.247 . S
O212 Zn213 2.028 . S
Zn213 O212 2.028 . S
Zn213 O217 2.035 . S
Zn213 O219 2.035 . S
Zn213 O220 2.028 . S
O214 C210 1.258 1_455 S
O214 Zn215 2.035 . S
Zn215 O214 2.035 . S
Zn215 O216 2.028 . S
Zn215 O218 2.028 . S
Zn215 O221 2.035 . S
O216 Zn215 2.028 . S
O216 C222 1.247 1_455 S
O217 Zn213 2.035 . S
O217 C222 1.258 . S
O218 C211 1.247 . S
O218 Zn215 2.028 . S
O219 C211 1.258 1_655 S
O219 Zn213 2.035 . S
O220 Zn213 2.028 . S
O220 C223 1.247 1_655 S
O221 Zn215 2.035 . S
O221 C223 1.258 . S
C222 O216 1.247 1_655 S
C222 O217 1.258 . S
C223 O220 1.247 1_455 S
C223 O221 1.258 . S
C224 C225 1.387 . S
C224 H228 0.950 . S
C224 C233 1.390 . S
C225 C224 1.387 . S
C225 C227 1.387 . S
H226 C233 0.950 . S
C227 C225 1.387 . S
C227 C229 1.390 . S
C227 H231 0.950 . S
H228 C224 0.950 . S
C229 C227 1.390 . S
C229 C230 1.387 . S
C229 H232 0.950 . S
C230 C229 1.387 . S
C230 C233 1.387 . S
H231 C227 0.950 . S
H232 C229 0.950 . S
C233 C224 1.390 . S
C233 H226 0.950 . S
C233 C230 1.387 . S
C234 C235 1.387 . S
C234 H238 0.950 . S
C234 C243 1.390 . S
C235 C234 1.387 . S
C235 C237 1.387 . S
H236 C243 0.950 . S
C237 C235 1.387 . S
C237 C239 1.390 . S
C237 H241 0.950 . S
H238 C234 0.950 . S
C239 C237 1.390 . S
C239 C240 1.387 . S
C239 H242 0.950 . S
C240 C239 1.387 . S
C240 C243 1.387 . S
H241 C237 0.950 . S
H242 C239 0.950 . S
C243 C234 1.390 . S
C243 H236 0.950 . S
C243 C240 1.387 . S
C244 C245 1.387 . S
C244 H248 0.950 . S
C244 C253 1.390 . S
C245 C244 1.387 . S
C245 C247 1.387 . S
H246 C253 0.950 . S
C247 C245 1.387 . S
C247 C249 1.390 . S
C247 H251 0.950 . S
H248 C244 0.950 . S
C249 C247 1.390 . S
C249 C250 1.387 . S
C249 H252 0.950 . S
C250 C249 1.387 . S
C250 C253 1.387 . S
H251 C247 0.950 . S
H252 C249 0.950 . S
C253 C244 1.390 . S
C253 H246 0.950 . S
C253 C250 1.387 . S
C254 C255 1.387 . S
C254 H258 0.950 . S
C254 C263 1.390 . S
C255 C254 1.387 . S
C255 C257 1.387 . S
H256 C263 0.950 . S
C257 C255 1.387 . S
C257 C259 1.390 . S
C257 H261 0.950 . S
H258 C254 0.950 . S
C259 C257 1.390 . S
C259 C260 1.387 . S
C259 H262 0.950 . S
C260 C259 1.387 . S
C260 C263 1.387 . S
H261 C257 0.950 . S
H262 C259 0.950 . S
C263 C254 1.390 . S
C263 H256 0.950 . S
C263 C260 1.387 . S
C264 C265 1.387 . S
C264 H268 0.950 . S
C264 C273 1.390 . S
C265 C264 1.387 . S
C265 C267 1.387 . S
H266 C273 0.950 . S
C267 C265 1.387 . S
C267 C269 1.390 . S
C267 H271 0.950 . S
H268 C264 0.950 . S
C269 C267 1.390 . S
C269 C270 1.387 . S
C269 H272 0.950 . S
C270 C269 1.387 . S
C270 C273 1.387 . S
H271 C267 0.950 . S
H272 C269 0.950 . S
C273 C264 1.390 . S
C273 H266 0.950 . S
C273 C270 1.387 . S
C274 C275 1.387 . S
C274 H278 0.950 . S
C274 C283 1.390 . S
C275 C274 1.387 . S
C275 C277 1.387 . S
H276 C283 0.950 . S
C277 C275 1.387 . S
C277 C279 1.390 . S
C277 H281 0.950 . S
H278 C274 0.950 . S
C279 C277 1.390 . S
C279 C280 1.387 . S
C279 H282 0.950 . S
C280 C279 1.387 . S
C280 C283 1.387 . S
H281 C277 0.950 . S
H282 C279 0.950 . S
C283 C274 1.390 . S
C283 H276 0.950 . S
C283 C280 1.387 . S
C284 C285 1.387 . S
C284 H288 0.950 . S
C284 C293 1.390 . S
C285 C284 1.387 . S
C285 C287 1.387 . S
H286 C293 0.950 . S
C287 C285 1.387 . S
C287 C289 1.390 . S
C287 H291 0.950 . S
H288 C284 0.950 . S
C289 C287 1.390 . S
C289 C290 1.387 . S
C289 H292 0.950 . S
C290 C289 1.387 . S
C290 C293 1.387 . S
H291 C287 0.950 . S
H292 C289 0.950 . S
C293 C284 1.390 . S
C293 H286 0.950 . S
C293 C290 1.387 . S
C294 C295 1.387 . S
C294 H298 0.950 . S
C294 C303 1.390 . S
C295 C294 1.387 . S
C295 C297 1.387 . S
H296 C303 0.950 . S
C297 C295 1.387 . S
C297 C299 1.390 . S
C297 H301 0.950 . S
H298 C294 0.950 . S
C299 C297 1.390 . S
C299 C300 1.387 . S
C299 H302 0.950 . S
C300 C299 1.387 . S
C300 C303 1.387 . S
H301 C297 0.950 . S
H302 C299 0.950 . S
C303 C294 1.390 . S
C303 H296 0.950 . S
C303 C300 1.387 . S
C304 C305 1.387 1_545 S
C304 H308 0.950 . S
C304 C313 1.390 . S
C305 C304 1.387 1_565 S
C305 C307 1.387 . S
H306 C313 0.950 . S
C307 C305 1.387 . S
C307 C309 1.390 . S
C307 H311 0.950 . S
H308 C304 0.950 . S
C309 C307 1.390 . S
C309 C310 1.387 . S
C309 H312 0.950 . S
C310 C309 1.387 . S
C310 C313 1.387 1_565 S
H311 C307 0.950 . S
H312 C309 0.950 . S
C313 C304 1.390 . S
C313 H306 0.950 . S
C313 C310 1.387 1_545 S
C314 C315 1.387 . S
C314 H318 0.950 . S
C314 C323 1.390 . S
C315 C314 1.387 . S
C315 C317 1.387 . S
H316 C323 0.950 . S
C317 C315 1.387 . S
C317 C319 1.390 . S
C317 H321 0.950 . S
H318 C314 0.950 . S
C319 C317 1.390 . S
C319 C320 1.387 . S
C319 H322 0.950 . S
C320 C319 1.387 . S
C320 C323 1.387 . S
H321 C317 0.950 . S
H322 C319 0.950 . S
C323 C314 1.390 . S
C323 H316 0.950 . S
C323 C320 1.387 . S
C324 C325 1.387 . S
C324 H328 0.950 . S
C324 C333 1.390 . S
C325 C324 1.387 . S
C325 C327 1.387 . S
H326 C333 0.950 . S
C327 C325 1.387 . S
C327 C329 1.390 . S
C327 H331 0.950 . S
H328 C324 0.950 . S
C329 C327 1.390 . S
C329 C330 1.387 . S
C329 H332 0.950 . S
C330 C329 1.387 . S
C330 C333 1.387 . S
H331 C327 0.950 . S
H332 C329 0.950 . S
C333 C324 1.390 . S
C333 H326 0.950 . S
C333 C330 1.387 . S
C334 C335 1.387 . S
C334 H338 0.950 . S
C334 C343 1.390 . S
C335 C334 1.387 . S
C335 C337 1.387 1_655 S
H336 C343 0.950 . S
C337 C335 1.387 1_455 S
C337 C339 1.390 . S
C337 H341 0.950 . S
H338 C334 0.950 . S
C339 C337 1.390 . S
C339 C340 1.387 1_455 S
C339 H342 0.950 . S
C340 C339 1.387 1_655 S
C340 C343 1.387 . S
H341 C337 0.950 . S
H342 C339 0.950 . S
C343 C334 1.390 . S
C343 H336 0.950 . S
C343 C340 1.387 . S
C344 C345 1.387 . S
C344 H348 0.950 . S
C344 C353 1.390 . S
C345 C344 1.387 . S
C345 C347 1.387 1_545 S
H346 C353 0.950 . S
C347 C345 1.387 1_565 S
C347 C349 1.390 . S
C347 H351 0.950 . S
H348 C344 0.950 . S
C349 C347 1.390 . S
C349 C350 1.387 1_565 S
C349 H352 0.950 . S
C350 C349 1.387 1_545 S
C350 C353 1.387 . S
H351 C347 0.950 . S
H352 C349 0.950 . S
C353 C344 1.390 . S
C353 H346 0.950 . S
C353 C350 1.387 . S
C354 C355 1.387 . S
C354 H358 0.950 . S
C354 C363 1.390 . S
C355 C354 1.387 . S
C355 C357 1.387 . S
H356 C363 0.950 . S
C357 C355 1.387 . S
C357 C359 1.390 . S
C357 H361 0.950 . S
H358 C354 0.950 . S
C359 C357 1.390 . S
C359 C360 1.387 . S
C359 H362 0.950 . S
C360 C359 1.387 . S
C360 C363 1.387 . S
H361 C357 0.950 . S
H362 C359 0.950 . S
C363 C354 1.390 . S
C363 H356 0.950 . S
C363 C360 1.387 . S
C364 C365 1.387 . S
C364 H368 0.950 . S
C364 C373 1.390 . S
C365 C364 1.387 . S
C365 C367 1.387 . S
H366 C373 0.950 . S
C367 C365 1.387 . S
C367 C369 1.390 . S
C367 H371 0.950 . S
H368 C364 0.950 . S
C369 C367 1.390 . S
C369 C370 1.387 . S
C369 H372 0.950 . S
C370 C369 1.387 . S
C370 C373 1.387 . S
H371 C367 0.950 . S
H372 C369 0.950 . S
C373 C364 1.390 . S
C373 H366 0.950 . S
C373 C370 1.387 . S
C374 C375 1.387 . S
C374 H378 0.950 . S
C374 C383 1.390 . S
C375 C374 1.387 . S
C375 C377 1.387 1_455 S
H376 C383 0.950 . S
C377 C375 1.387 1_655 S
C377 C379 1.390 . S
C377 H381 0.950 . S
H378 C374 0.950 . S
C379 C377 1.390 . S
C379 C380 1.387 1_655 S
C379 H382 0.950 . S
C380 C379 1.387 1_455 S
C380 C383 1.387 . S
H381 C377 0.950 . S
H382 C379 0.950 . S
C383 C374 1.390 . S
C383 H376 0.950 . S
C383 C380 1.387 . S
C384 C385 1.387 1_565 S
C384 H388 0.950 . S
C384 C393 1.390 . S
C385 C384 1.387 1_545 S
C385 C387 1.387 . S
H386 C393 0.950 . S
C387 C385 1.387 . S
C387 C389 1.390 . S
C387 H391 0.950 . S
H388 C384 0.950 . S
C389 C387 1.390 . S
C389 C390 1.387 . S
C389 H392 0.950 . S
C390 C389 1.387 . S
C390 C393 1.387 1_545 S
H391 C387 0.950 . S
H392 C389 0.950 . S
C393 C384 1.390 . S
C393 H386 0.950 . S
C393 C390 1.387 1_565 S
C394 C395 1.387 . S
C394 H398 0.950 . S
C394 C403 1.390 . S
C395 C394 1.387 . S
C395 C397 1.387 . S
H396 C403 0.950 . S
C397 C395 1.387 . S
C397 C399 1.390 . S
C397 H401 0.950 . S
H398 C394 0.950 . S
C399 C397 1.390 . S
C399 C400 1.387 . S
C399 H402 0.950 . S
C400 C399 1.387 . S
C400 C403 1.387 . S
H401 C397 0.950 . S
H402 C399 0.950 . S
C403 C394 1.390 . S
C403 H396 0.950 . S
C403 C400 1.387 . S
C404 C405 1.387 . S
C404 H408 0.950 . S
C404 C413 1.390 . S
C405 C404 1.387 . S
C405 C407 1.387 . S
H406 C413 0.950 . S
C407 C405 1.387 . S
C407 C409 1.390 . S
C407 H411 0.950 . S
H408 C404 0.950 . S
C409 C407 1.390 . S
C409 C410 1.387 . S
C409 H412 0.950 . S
C410 C409 1.387 . S
C410 C413 1.387 . S
H411 C407 0.950 . S
H412 C409 0.950 . S
C413 C404 1.390 . S
C413 H406 0.950 . S
C413 C410 1.387 . S
C414 C415 1.387 . S
C414 H418 0.950 . S
C414 C423 1.390 . S
C415 C414 1.387 . S
C415 C417 1.387 . S
H416 C423 0.950 . S
C417 C415 1.387 . S
C417 C419 1.390 . S
C417 H421 0.950 . S
H418 C414 0.950 . S
C419 C417 1.390 . S
C419 C420 1.387 . S
C419 H422 0.950 1_455 S
C420 C419 1.387 . S
C420 C423 1.387 . S
H421 C417 0.950 . S
H422 C419 0.950 1_655 S
C423 C414 1.390 . S
C423 H416 0.950 . S
C423 C420 1.387 . S
C424 C425 1.387 . S
C424 H428 0.950 . S
C424 C433 1.390 . S
C425 C424 1.387 . S
C425 C427 1.387 1_565 S
H426 C433 0.950 . S
C427 C425 1.387 1_545 S
C427 C429 1.390 . S
C427 H431 0.950 . S
H428 C424 0.950 . S
C429 C427 1.390 . S
C429 C430 1.387 1_545 S
C429 H432 0.950 . S
C430 C429 1.387 1_565 S
C430 C433 1.387 . S
H431 C427 0.950 . S
H432 C429 0.950 . S
C433 C424 1.390 . S
C433 H426 0.950 . S
C433 C430 1.387 . S
C434 C435 1.387 . S
C434 H438 0.950 . S
C434 C443 1.390 . S
C435 C434 1.387 . S
C435 C437 1.387 . S
H436 C443 0.950 . S
C437 C435 1.387 . S
C437 C439 1.390 . S
C437 H441 0.950 . S
H438 C434 0.950 . S
C439 C437 1.390 . S
C439 C440 1.387 . S
C439 H442 0.950 . S
C440 C439 1.387 . S
C440 C443 1.387 . S
H441 C437 0.950 . S
H442 C439 0.950 . S
C443 C434 1.390 . S
C443 H436 0.950 . S
C443 C440 1.387 . S
C444 C445 1.387 . S
C444 H448 0.950 . S
C444 C453 1.390 . S
C445 C444 1.387 . S
C445 C447 1.387 . S
H446 C453 0.950 . S
C447 C445 1.387 . S
C447 C449 1.390 . S
C447 H451 0.950 . S
H448 C444 0.950 . S
C449 C447 1.390 . S
C449 C450 1.387 . S
C449 H452 0.950 . S
C450 C449 1.387 . S
C450 C453 1.387 . S
H451 C447 0.950 . S
H452 C449 0.950 . S
C453 C444 1.390 . S
C453 H446 0.950 . S
C453 C450 1.387 . S
C454 C455 1.387 . S
C454 H458 0.950 . S
C454 C463 1.390 . S
C455 C454 1.387 . S
C455 C457 1.387 . S
H456 C463 0.950 . S
C457 C455 1.387 . S
C457 C459 1.390 . S
C457 H461 0.954 . S
H458 C454 0.950 . S
C459 C457 1.390 . S
C459 C460 1.387 . S
C459 H462 0.950 . S
C460 C459 1.387 . S
C460 C463 1.387 . S
H461 C457 0.954 . S
H462 C459 0.950 . S
C463 C454 1.390 . S
C463 H456 0.950 . S
C463 C460 1.387 . S
C464 C465 1.411 1_556 S
C464 H468 0.950 . S
C464 C473 1.390 . S
C465 C464 1.411 1_554 S
C465 C467 1.363 1_545 S
H466 C473 0.950 . S
C467 C465 1.363 1_565 S
C467 C469 1.390 . S
C467 H471 0.950 . S
H468 C464 0.950 . S
C469 C467 1.390 . S
C469 C470 1.387 1_554 S
C469 H472 0.950 . S
C470 C469 1.387 1_556 S
C470 C473 1.387 1_565 S
H471 C467 0.950 . S
H472 C469 0.950 . S
C473 C464 1.390 . S
C473 H466 0.950 . S
C473 C470 1.387 1_545 S
C474 C475 1.387 1_556 S
C474 H478 0.950 . S
C474 C483 1.390 . S
C475 C474 1.387 1_554 S
C475 C477 1.387 . S
H476 C483 0.950 . S
C477 C475 1.387 . S
C477 C479 1.390 . S
C477 H481 0.950 . S
H478 C474 0.950 . S
C479 C477 1.390 . S
C479 C480 1.387 1_554 S
C479 H482 0.950 . S
C480 C479 1.387 1_556 S
C480 C483 1.387 . S
H481 C477 0.950 . S
H482 C479 0.950 . S
C483 C474 1.390 . S
C483 H476 0.950 . S
C483 C480 1.387 . S
C484 C485 1.387 . S
C484 H488 0.950 . S
C484 C493 1.390 1_655 S
C485 C484 1.387 . S
C485 C487 1.387 1_556 S
H486 C493 0.950 . S
C487 C485 1.387 1_554 S
C487 C489 1.390 1_655 S
C487 H491 0.950 . S
H488 C484 0.950 . S
C489 C487 1.390 1_455 S
C489 C490 1.387 . S
C489 H492 0.950 . S
C490 C489 1.387 . S
C490 C493 1.387 1_554 S
H491 C487 0.950 . S
H492 C489 0.950 . S
C493 C484 1.390 1_455 S
C493 H486 0.950 . S
C493 C490 1.387 1_556 S
C494 C495 1.398 . S
C494 H498 0.950 . S
C494 C503 1.390 1_545 S
C495 C494 1.398 . S
C495 C497 1.376 1_454 S
H496 C503 0.950 . S
C497 C495 1.376 1_656 S
C497 C499 1.390 1_545 S
C497 H501 0.950 . S
H498 C494 0.950 . S
C499 C497 1.390 1_565 S
C499 C500 1.405 . S
C499 H502 0.950 . S
C500 C499 1.405 . S
C500 C503 1.370 1_656 S
H501 C497 0.950 . S
H502 C499 0.950 . S
C503 C494 1.390 1_565 S
C503 H496 0.950 . S
C503 C500 1.370 1_454 S
C504 C505 1.399 . S
C504 H508 0.950 . S
C504 C513 1.390 1_455 S
C505 C504 1.399 . S
C505 C507 1.376 1_545 S
H506 C513 0.950 . S
C507 C505 1.376 1_565 S
C507 C509 1.390 1_455 S
C507 H511 0.950 . S
H508 C504 0.950 . S
C509 C507 1.390 1_655 S
C509 C510 1.405 . S
C509 H512 0.950 . S
C510 C509 1.405 . S
C510 C513 1.370 1_565 S
H511 C507 0.950 . S
H512 C509 0.950 . S
C513 C504 1.390 1_655 S
C513 H506 0.950 . S
C513 C510 1.370 1_545 S
C514 C515 1.387 . S
C514 H518 0.950 . S
C514 C523 1.390 1_565 S
C515 C514 1.387 . S
C515 C517 1.387 . S
H516 C523 0.950 . S
C517 C515 1.387 . S
C517 C519 1.390 1_565 S
C517 H521 0.950 . S
H518 C514 0.950 . S
C519 C517 1.390 1_545 S
C519 C520 1.387 . S
C519 H522 0.950 . S
C520 C519 1.387 . S
C520 C523 1.387 . S
H521 C517 0.950 . S
H522 C519 0.950 . S
C523 C514 1.390 1_545 S
C523 H516 0.950 . S
C523 C520 1.387 . S
C524 C525 1.387 . S
C524 H528 0.950 . S
C524 C533 1.390 . S
C525 C524 1.387 . S
C525 C527 1.387 . S
H526 C533 0.950 . S
C527 C525 1.387 . S
C527 C529 1.390 . S
C527 H531 0.950 . S
H528 C524 0.950 . S
C529 C527 1.390 . S
C529 C530 1.387 . S
C529 H532 0.950 . S
C530 C529 1.387 . S
C530 C533 1.387 . S
H531 C527 0.950 . S
H532 C529 0.950 . S
C533 C524 1.390 . S
C533 H526 0.950 . S
C533 C530 1.387 . S
C534 C535 1.394 . S
C534 H538 0.950 . S
C534 C543 1.390 . S
C535 C534 1.394 . S
C535 C537 1.381 1_655 S
H536 C543 0.950 . S
C537 C535 1.381 1_455 S
C537 C539 1.390 . S
C537 H541 0.950 . S
H538 C534 0.950 . S
C539 C537 1.390 . S
C539 C540 1.397 . S
C539 H542 0.950 . S
C540 C539 1.397 . S
C540 C543 1.379 1_455 S
H541 C537 0.950 . S
H542 C539 0.950 . S
C543 C534 1.390 . S
C543 H536 0.950 . S
C543 C540 1.379 1_655 S
C225 C82 1.105 . S
C230 C0 1.127 . S
C235 C97 1.292 . S
C240 C26 1.291 . S
C245 C40 1.105 . S
C250 C98 1.128 . S
C255 C42 0.887 . S
C260 C56 0.880 . S
C265 C112 1.130 . S
C270 C194 1.105 . S
C275 C196 1.292 . S
C280 C138 1.294 . S
C285 C211 1.130 . S
C290 C141 1.100 . S
C295 C155 0.886 . S
C300 C180 0.880 . S
C305 C1 1.823 . S
C310 C168 1.832 1_565 S
C315 C182 1.931 . S
C320 C27 1.909 . S
C325 C41 1.988 . S
C330 C208 2.036 . S
C335 C43 1.876 . S
C340 C223 1.898 1_655 S
C345 C57 1.877 . S
C350 C124 1.900 1_545 S
C355 C83 1.988 . S
C360 C126 2.036 . S
C365 C96 1.904 . S
C370 C153 1.929 . S
C375 C99 1.824 . S
C380 C167 1.833 1_455 S
C385 C68 1.833 1_545 S
C390 C113 1.822 . S
C395 C70 1.929 . S
C400 C139 1.905 . S
C405 C85 2.035 . S
C410 C140 1.987 . S
C415 C154 1.877 . S
C420 C110 1.897 1_455 S
C425 C12 1.896 1_565 S
C430 C181 1.872 . S
C435 C195 1.984 . S
C440 C14 2.034 . S
C445 C197 1.906 . S
C450 C28 1.931 . S
C455 C54 1.832 1_655 S
C460 C210 1.825 . S
C465 C125 1.582 1_554 S
C470 C13 1.583 1_556 S
C475 C127 1.668 1_554 S
C480 C15 1.668 1_556 S
C485 C29 1.886 1_556 S
C490 C152 1.886 1_554 S
C495 C166 1.767 1_554 S
C500 C55 1.767 1_556 S
C505 C69 1.770 . S
C510 C169 1.769 . S
C515 C183 1.888 . S
C520 C71 1.887 . S
C525 C209 1.668 . S
C530 C84 1.668 . S
C535 C222 1.584 . S
C540 C111 1.584 . S
