# Generated by pormake.
# Topology wjf, (4)-cn, num edge types: 1
# Building blocks:
#     Node 0, Type 0, BuildingBlock: ICAMEG_clean_sbu_1, # of connection points: 4
#     Node 1, Type 0, BuildingBlock: ICAMEG_clean_sbu_1, # of connection points: 4
#     Node 2, Type 0, BuildingBlock: ICAMEG_clean_sbu_1, # of connection points: 4
#     Node 3, Type 0, BuildingBlock: ICAMEG_clean_sbu_1, # of connection points: 4
#     Node 4, Type 0, BuildingBlock: ICAMEG_clean_sbu_1, # of connection points: 4
#     Node 5, Type 0, BuildingBlock: ICAMEG_clean_sbu_1, # of connection points: 4
#     Node 6, Type 0, BuildingBlock: ICAMEG_clean_sbu_1, # of connection points: 4
#     Node 7, Type 0, BuildingBlock: ICAMEG_clean_sbu_1, # of connection points: 4
#     Node 8, Type 0, BuildingBlock: ICAMEG_clean_sbu_1, # of connection points: 4
#     Node 9, Type 0, BuildingBlock: ICAMEG_clean_sbu_1, # of connection points: 4
#     Node 10, Type 0, BuildingBlock: ICAMEG_clean_sbu_1, # of connection points: 4
#     Node 11, Type 0, BuildingBlock: ICAMEG_clean_sbu_1, # of connection points: 4
#     Edge 12, Type (0, 0), BuildingBlock: CIFDUS_clean_linker_0, # of connection points: 2
#     Edge 13, Type (0, 0), BuildingBlock: CIFDUS_clean_linker_0, # of connection points: 2
#     Edge 14, Type (0, 0), BuildingBlock: CIFDUS_clean_linker_0, # of connection points: 2
#     Edge 15, Type (0, 0), BuildingBlock: CIFDUS_clean_linker_0, # of connection points: 2
#     Edge 16, Type (0, 0), BuildingBlock: CIFDUS_clean_linker_0, # of connection points: 2
#     Edge 17, Type (0, 0), BuildingBlock: CIFDUS_clean_linker_0, # of connection points: 2
#     Edge 18, Type (0, 0), BuildingBlock: CIFDUS_clean_linker_0, # of connection points: 2
#     Edge 19, Type (0, 0), BuildingBlock: CIFDUS_clean_linker_0, # of connection points: 2
#     Edge 20, Type (0, 0), BuildingBlock: CIFDUS_clean_linker_0, # of connection points: 2
#     Edge 21, Type (0, 0), BuildingBlock: CIFDUS_clean_linker_0, # of connection points: 2
#     Edge 22, Type (0, 0), BuildingBlock: CIFDUS_clean_linker_0, # of connection points: 2
#     Edge 23, Type (0, 0), BuildingBlock: CIFDUS_clean_linker_0, # of connection points: 2
#     Edge 24, Type (0, 0), BuildingBlock: CIFDUS_clean_linker_0, # of connection points: 2
#     Edge 25, Type (0, 0), BuildingBlock: CIFDUS_clean_linker_0, # of connection points: 2
#     Edge 26, Type (0, 0), BuildingBlock: CIFDUS_clean_linker_0, # of connection points: 2
#     Edge 27, Type (0, 0), BuildingBlock: CIFDUS_clean_linker_0, # of connection points: 2
#     Edge 28, Type (0, 0), BuildingBlock: CIFDUS_clean_linker_0, # of connection points: 2
#     Edge 29, Type (0, 0), BuildingBlock: CIFDUS_clean_linker_0, # of connection points: 2
#     Edge 30, Type (0, 0), BuildingBlock: CIFDUS_clean_linker_0, # of connection points: 2
#     Edge 31, Type (0, 0), BuildingBlock: CIFDUS_clean_linker_0, # of connection points: 2
#     Edge 32, Type (0, 0), BuildingBlock: CIFDUS_clean_linker_0, # of connection points: 2
#     Edge 33, Type (0, 0), BuildingBlock: CIFDUS_clean_linker_0, # of connection points: 2
#     Edge 34, Type (0, 0), BuildingBlock: CIFDUS_clean_linker_0, # of connection points: 2
#     Edge 35, Type (0, 0), BuildingBlock: CIFDUS_clean_linker_0, # of connection points: 2
# Relax obj value: 0.052
# Max RMSD: 0.072
# Mean RMSD: 0.072
data_MOF--net-wjf--node1-ICAMEG_clean_sbu_1--edge1-CIFDUS_clean_linker_0
_symmetry_space_group_name_H-M    P1
_symmetry_Int_Tables_number       1
_symmetry_cell_setting            triclinic
loop_
_symmetry_equiv_pos_as_xyz
'x, y, z'
_cell_length_a     48.340301
_cell_length_b     48.311264
_cell_length_c     26.570404
_cell_angle_alpha  89.987369
_cell_angle_beta   90.008704
_cell_angle_gamma 119.98415
loop_
_atom_site_label
_atom_site_type_symbol
_atom_site_fract_x
_atom_site_fract_y
_atom_site_fract_z
_atom_type_partial_charge
Co0 Co 0.3539 0.36313 0.08716 0.0
Co1 Co 0.33094 0.41536 0.03778 0.0
O2 O 0.32566 0.38158 0.08487 0.0
C3 C 0.35866 0.38843 0.19014 0.0
O4 O 0.35794 0.41306 0.17076 0.0
C5 C 0.26134 0.36442 0.02956 0.0
O6 O 0.26679 0.34309 0.0507 0.0
O7 O 0.33762 0.39292 0.97984 0.0
O8 O 0.35322 0.36011 0.01282 0.0
H9 H 0.38564 0.49473 0.89858 0.0
H10 H 0.29597 0.33391 0.1512 0.0
O11 O 0.35607 0.36592 0.16213 0.0
H12 H 0.28276 0.24854 0.03504 0.0
H13 H 0.39267 0.29135 0.15593 0.0
H14 H 0.41006 0.37255 0.02817 0.0
H15 H 0.33087 0.30196 0.03097 0.0
H16 H 0.35727 0.31438 0.15188 0.0
O17 O 0.28398 0.39287 0.02217 0.0
H18 H 0.37826 0.45265 0.9587 0.0
H19 H 0.29488 0.4495 0.01688 0.0
H20 H 0.44588 0.34997 0.03064 0.0
H21 H 0.2477 0.28067 0.15709 0.0
H22 H 0.4373 0.30906 0.09489 0.0
H23 H 0.24081 0.23758 0.09856 0.0
O24 O 0.39291 0.40613 0.08362 0.0
H25 H 0.2758 0.42226 0.1938 0.0
H26 H 0.36429 0.48262 0.07494 0.0
H27 H 0.35722 0.51051 0.14717 0.0
H28 H 0.31264 0.4803 0.20715 0.0
H29 H 0.284 0.39526 0.12147 0.0
H30 H 0.30123 0.49134 0.95713 0.0
H31 H 0.34694 0.51434 0.89755 0.0
O32 O 0.3777 0.43954 0.05161 0.0
C33 C 0.34693 0.37252 0.97548 0.0
C34 C 0.36569 0.48497 0.92447 0.0
C35 C 0.31828 0.48304 0.95728 0.0
N36 N 0.33632 0.44879 0.99152 0.0
C37 C 0.36144 0.46121 0.95869 0.0
C38 C 0.31478 0.4593 0.99095 0.0
C39 C 0.34394 0.49594 0.92387 0.0
C40 C 0.2933 0.31517 0.12598 0.0
N41 N 0.31622 0.32103 0.09084 0.0
C42 C 0.26584 0.28512 0.12932 0.0
C43 C 0.26197 0.26098 0.09641 0.0
C44 C 0.28548 0.26712 0.06071 0.0
C45 C 0.3126 0.29747 0.05843 0.0
C46 C 0.39662 0.30911 0.12769 0.0
C47 C 0.40605 0.35462 0.05605 0.0
C48 C 0.37668 0.32227 0.12525 0.0
N49 N 0.38145 0.34463 0.08957 0.0
C50 C 0.42646 0.34198 0.05734 0.0
C51 C 0.42165 0.31905 0.09343 0.0
C52 C 0.39876 0.43367 0.06902 0.0
C53 C 0.29524 0.43572 0.16782 0.0
C54 C 0.34491 0.46927 0.10096 0.0
C55 C 0.34097 0.48522 0.14172 0.0
C56 C 0.31595 0.46827 0.17534 0.0
N57 N 0.32445 0.43735 0.09373 0.0
C58 C 0.29989 0.42057 0.12659 0.0
Co59 Co 0.00565 0.36328 0.41182 0.0
Co60 Co 0.93397 0.35474 0.36976 0.0
O61 O 0.95899 0.34357 0.41464 0.0
C62 C 0.99443 0.37847 0.51307 0.0
O63 O 0.97339 0.38491 0.49332 0.0
C64 C 0.90159 0.28361 0.35287 0.0
O65 O 0.9291 0.28519 0.34434 0.0
O66 O 0.95665 0.35102 0.30957 0.0
O67 O 0.00442 0.36039 0.33786 0.0
H68 H 0.91895 0.41374 0.22635 0.0
H69 H 0.96819 0.30738 0.47796 0.0
O70 O 0.00836 0.36742 0.4861 0.0
H71 H 0.02272 0.27309 0.35742 0.0
H72 H 0.11187 0.37942 0.46983 0.0
H73 H 0.05711 0.41336 0.34913 0.0
H74 H 0.0309 0.3277 0.35395 0.0
H75 H 0.05321 0.35481 0.47128 0.0
O76 O 0.90045 0.30872 0.3635 0.0
H77 H 0.94979 0.39956 0.28435 0.0
H78 H 0.86443 0.33277 0.35875 0.0
H79 H 0.11579 0.43843 0.34606 0.0
H80 H 0.9595 0.25258 0.48302 0.0
H81 H 0.14355 0.42145 0.40674 0.0
H82 H 0.98683 0.23512 0.42236 0.0
O83 O 0.01169 0.40718 0.40754 0.0
H84 H 0.87789 0.31896 0.53632 0.0
H85 H 0.9153 0.40193 0.40488 0.0
H86 H 0.88908 0.40744 0.48073 0.0
H87 H 0.87012 0.36569 0.54714 0.0
H88 H 0.90468 0.31471 0.46012 0.0
H89 H 0.83264 0.34597 0.30126 0.0
H90 H 0.85994 0.38685 0.23461 0.0
O91 O 0.96597 0.40118 0.37586 0.0
C92 C 0.98461 0.35512 0.30266 0.0
C93 C 0.90679 0.39595 0.25532 0.0
C94 C 0.85835 0.35787 0.2973 0.0
N95 N 0.90896 0.36548 0.32506 0.0
C96 C 0.92413 0.38788 0.28834 0.0
C97 C 0.87647 0.35041 0.32963 0.0
C98 C 0.87368 0.38082 0.25994 0.0
C99 C 0.98035 0.30001 0.45172 0.0
N100 N 1.00014 0.32073 0.4159 0.0
C101 C 0.97526 0.26893 0.45464 0.0
C102 C 0.99057 0.25914 0.42056 0.0
C103 C 0.0107 0.28042 0.38409 0.0
C104 C 0.01519 0.31129 0.38225 0.0
C105 C 0.10004 0.38691 0.44304 0.0
C106 C 0.069 0.40563 0.37531 0.0
C107 C 0.06684 0.37307 0.44368 0.0
N108 N 0.05173 0.38231 0.4098 0.0
C109 C 0.10224 0.42001 0.37354 0.0
C110 C 0.1178 0.4105 0.40764 0.0
C111 C 0.99446 0.41851 0.39181 0.0
C112 C 0.88611 0.33734 0.50771 0.0
C113 C 0.90752 0.38394 0.43386 0.0
C114 C 0.89246 0.38704 0.47659 0.0
C115 C 0.88178 0.36358 0.51378 0.0
N116 N 0.91186 0.35825 0.42829 0.0
C117 C 0.90123 0.33503 0.46443 0.0
Co118 Co 0.62984 0.99988 0.72897 0.0
Co119 Co 0.57826 0.92023 0.70196 0.0
O120 O 0.61415 0.95418 0.73932 0.0
C121 C 0.61789 0.99064 0.839 0.0
O122 O 0.59203 0.96332 0.82941 0.0
C123 C 0.62706 0.90075 0.67888 0.0
O124 O 0.64581 0.92852 0.65761 0.0
O125 O 0.59776 0.94118 0.63642 0.0
O126 O 0.6248 0.99357 0.65467 0.0
H127 H 0.49221 0.87624 0.57016 0.0
H128 H 0.66789 0.97923 0.78915 0.0
O129 O 0.6357 0.00791 0.80329 0.0
H130 H 0.73768 0.0414 0.64809 0.0
H131 H 0.70255 0.11736 0.76127 0.0
H132 H 0.61025 0.03704 0.66416 0.0
H133 H 0.68365 0.03417 0.65643 0.0
H134 H 0.68285 0.05983 0.77309 0.0
O135 O 0.60075 0.89494 0.69886 0.0
H136 H 0.53691 0.91868 0.61835 0.0
H137 H 0.54419 0.8489 0.70559 0.0
H138 H 0.62932 0.09433 0.65087 0.0
H139 H 0.72188 0.98608 0.78249 0.0
H140 H 0.67581 0.13494 0.69964 0.0
H141 H 0.75715 0.01732 0.7115 0.0
O142 O 0.58585 0.99331 0.73456 0.0
H143 H 0.57961 0.87902 0.87504 0.0
H144 H 0.51319 0.89247 0.74749 0.0
H145 H 0.4894 0.86775 0.82909 0.0
H146 H 0.52268 0.86082 0.89353 0.0
H147 H 0.60254 0.90404 0.79316 0.0
H148 H 0.49979 0.80573 0.65804 0.0
H149 H 0.47338 0.81929 0.58991 0.0
O150 O 0.55408 0.94378 0.70488 0.0
C151 C 0.61401 0.97051 0.62337 0.0
C152 C 0.50346 0.87003 0.59986 0.0
C153 C 0.50774 0.83045 0.64913 0.0
N154 N 0.54299 0.8863 0.66498 0.0
C155 C 0.52872 0.89395 0.62736 0.0
C156 C 0.53293 0.85501 0.67585 0.0
C157 C 0.49293 0.83808 0.61093 0.0
C158 C 0.68321 0.99305 0.75838 0.0
N159 N 0.67271 0.00643 0.72341 0.0
C160 C 0.7137 0.99676 0.7547 0.0
C161 C 0.73346 0.01426 0.71483 0.0
C162 C 0.72255 0.02777 0.67923 0.0
C163 C 0.6919 0.02353 0.68409 0.0
C164 C 0.68232 0.0999 0.73973 0.0
C165 C 0.63061 0.05458 0.6853 0.0
C166 C 0.67101 0.06729 0.74633 0.0
N167 N 0.64557 0.04512 0.71906 0.0
C168 C 0.64125 0.08698 0.67771 0.0
C169 C 0.66731 0.10975 0.70513 0.0
C170 C 0.55864 0.9707 0.72048 0.0
C171 C 0.56486 0.88188 0.84726 0.0
C172 C 0.5279 0.88984 0.77547 0.0
C173 C 0.51426 0.87565 0.82153 0.0
C174 C 0.53293 0.87173 0.85764 0.0
N175 N 0.55926 0.89985 0.76561 0.0
C176 C 0.57767 0.89593 0.80075 0.0
Co177 Co 0.63242 0.6263 0.09368 0.0
Co178 Co 0.65453 0.5746 0.04255 0.0
O179 O 0.65837 0.60567 0.09319 0.0
C180 C 0.61758 0.59672 0.19468 0.0
O181 O 0.60922 0.56916 0.17319 0.0
C182 C 0.72536 0.61701 0.0221 0.0
O183 O 0.72065 0.63684 0.99454 0.0
O184 O 0.65733 0.6036 0.98664 0.0
O185 O 0.6354 0.631 0.01945 0.0
H186 H 0.61221 0.50969 0.88449 0.0
H187 H 0.68931 0.65084 0.15958 0.0
O188 O 0.62864 0.6221 0.16847 0.0
H189 H 0.70935 0.74109 0.04922 0.0
H190 H 0.59738 0.70107 0.16222 0.0
H191 H 0.57916 0.6213 0.0314 0.0
H192 H 0.65938 0.68938 0.04183 0.0
H193 H 0.63024 0.67514 0.15958 0.0
O194 O 0.70205 0.59324 0.04369 0.0
H195 H 0.61636 0.54796 0.94959 0.0
H196 H 0.68639 0.53583 0.02728 0.0
H197 H 0.54592 0.64682 0.03243 0.0
H198 H 0.73951 0.70224 0.16856 0.0
H199 H 0.55495 0.68703 0.09819 0.0
H200 H 0.74979 0.74779 0.11306 0.0
O201 O 0.59229 0.5844 0.08614 0.0
H202 H 0.68554 0.54762 0.20818 0.0
H203 H 0.61176 0.50514 0.06402 0.0
H204 H 0.60625 0.46918 0.13391 0.0
H205 H 0.64338 0.49038 0.20666 0.0
H206 H 0.68995 0.58281 0.13768 0.0
H207 H 0.68318 0.49763 0.96281 0.0
H208 H 0.64579 0.48424 0.89087 0.0
O209 O 0.60704 0.55429 0.04188 0.0
C210 C 0.64636 0.62269 0.98249 0.0
C211 C 0.62853 0.51526 0.91574 0.0
C212 C 0.6684 0.50853 0.95965 0.0
N213 N 0.65145 0.544 0.99236 0.0
C214 C 0.63092 0.53685 0.95279 0.0
C215 C 0.67017 0.53026 0.99598 0.0
C216 C 0.6474 0.50102 0.91931 0.0
C217 C 0.69355 0.67063 0.13551 0.0
N218 N 0.6714 0.66717 0.10039 0.0
C219 C 0.72204 0.69964 0.14067 0.0
C220 C 0.72781 0.72518 0.10949 0.0
C221 C 0.70513 0.72143 0.07364 0.0
C222 C 0.67692 0.69206 0.06954 0.0
C223 C 0.59327 0.68364 0.13331 0.0
C224 C 0.58337 0.63892 0.05995 0.0
C225 C 0.61176 0.66884 0.13167 0.0
N226 N 0.6068 0.64694 0.0951 0.0
C227 C 0.56441 0.65322 0.06043 0.0
C228 C 0.56947 0.67576 0.09736 0.0
C229 C 0.58582 0.55896 0.06219 0.0
C230 C 0.66922 0.53809 0.1767 0.0
C231 C 0.62781 0.5146 0.09568 0.0
C232 C 0.62468 0.49409 0.13507 0.0
C233 C 0.64554 0.50599 0.17585 0.0
N234 N 0.65106 0.54607 0.09676 0.0
C235 C 0.67163 0.55789 0.13661 0.0
Co236 Co 0.01662 0.65161 0.42246 0.0
Co237 Co 0.09149 0.66552 0.38625 0.0
O238 O 0.06341 0.67483 0.42715 0.0
C239 C 0.03059 0.64411 0.52894 0.0
O240 O 0.05367 0.64006 0.51135 0.0
C241 C 0.11678 0.73558 0.37039 0.0
O242 O 0.0878 0.73125 0.37404 0.0
O243 O 0.06849 0.66472 0.32362 0.0
O244 O 0.01897 0.65292 0.34658 0.0
H245 H 0.1159 0.60688 0.25329 0.0
H246 H 0.04872 0.7094 0.48666 0.0
O247 O 0.01309 0.64921 0.49862 0.0
H248 H 0.99077 0.73404 0.35779 0.0
H249 H 0.90623 0.6265 0.47379 0.0
H250 H 0.96889 0.59927 0.35825 0.0
H251 H 0.98807 0.68168 0.35863 0.0
H252 H 0.96508 0.65528 0.47832 0.0
O253 O 0.1218 0.71223 0.37549 0.0
H254 H 0.08103 0.61872 0.30587 0.0
H255 H 0.16214 0.69346 0.37907 0.0
H256 H 0.91011 0.57009 0.35207 0.0
H257 H 0.05182 0.76195 0.48754 0.0
H258 H 0.87837 0.58366 0.41016 0.0
H259 H 0.02278 0.77457 0.42265 0.0
O260 O 0.01458 0.60948 0.4219 0.0
H261 H 0.146 0.71167 0.5511 0.0
H262 H 0.11285 0.62266 0.43128 0.0
H263 H 0.14008 0.62293 0.50992 0.0
H264 H 0.15688 0.66771 0.57046 0.0
H265 H 0.1184 0.71025 0.47222 0.0
H266 H 0.19788 0.68264 0.32695 0.0
H267 H 0.17478 0.63897 0.26366 0.0
O268 O 0.06246 0.61857 0.39514 0.0
C269 C 0.04019 0.6585 0.31309 0.0
C270 C 0.12625 0.62589 0.28086 0.0
C271 C 0.17226 0.66843 0.32216 0.0
N272 N 0.11951 0.65656 0.3458 0.0
C273 C 0.10662 0.63264 0.31085 0.0
C274 C 0.1519 0.67449 0.3515 0.0
C275 C 0.15928 0.64393 0.28667 0.0
C276 C 0.03576 0.71461 0.45864 0.0
N277 N 0.01812 0.69247 0.4228 0.0
C278 C 0.03772 0.74445 0.45917 0.0
C279 C 0.02146 0.75153 0.42271 0.0
C280 C 0.00352 0.72881 0.38627 0.0
C281 C 0.00215 0.69925 0.38685 0.0
C282 C 0.91979 0.62041 0.44821 0.0
C283 C 0.95525 0.60545 0.38342 0.0
C284 C 0.95311 0.63657 0.45068 0.0
N285 N 0.97039 0.62911 0.41833 0.0
C286 C 0.92197 0.58878 0.37985 0.0
C287 C 0.90418 0.59638 0.41249 0.0
C288 C 0.03378 0.59987 0.40908 0.0
C289 C 0.13887 0.69207 0.52497 0.0
C290 C 0.11995 0.64214 0.45752 0.0
C291 C 0.13546 0.64222 0.50192 0.0
C292 C 0.14491 0.66737 0.53585 0.0
N293 N 0.11408 0.66644 0.44714 0.0
C294 C 0.12336 0.69121 0.48015 0.0
Co295 Co 0.35654 0.99862 0.74224 0.0
Co296 Co 0.4093 0.0775 0.70986 0.0
O297 O 0.37422 0.04485 0.7503 0.0
C298 C 0.38042 0.01056 0.84606 0.0
O299 O 0.40509 0.03728 0.83044 0.0
C300 C 0.36132 0.09724 0.6794 0.0
O301 O 0.34342 0.06993 0.65638 0.0
O302 O 0.38968 0.05352 0.64603 0.0
O303 O 0.35471 0.0029 0.66881 0.0
H304 H 0.49436 0.11684 0.57657 0.0
H305 H 0.32654 0.02309 0.81312 0.0
O306 O 0.35806 0.99291 0.81603 0.0
H307 H 0.24229 0.95759 0.69058 0.0
H308 H 0.285 0.88284 0.78771 0.0
H309 H 0.36754 0.95808 0.67058 0.0
H310 H 0.29578 0.96323 0.68415 0.0
H311 H 0.30742 0.94098 0.79717 0.0
O312 O 0.38634 0.10229 0.70308 0.0
H313 H 0.45061 0.0762 0.6285 0.0
H314 H 0.44239 0.14882 0.70547 0.0
H315 H 0.34557 0.90012 0.65949 0.0
H316 H 0.27327 0.01785 0.82134 0.0
H317 H 0.304 0.86206 0.71834 0.0
H318 H 0.23074 0.98496 0.75969 0.0
O319 O 0.40004 0.00338 0.73637 0.0
H320 H 0.40853 0.12389 0.87873 0.0
H321 H 0.47503 0.10875 0.75347 0.0
H322 H 0.49933 0.13655 0.83307 0.0
H323 H 0.46599 0.14429 0.89636 0.0
H324 H 0.38515 0.09592 0.79881 0.0
H325 H 0.48585 0.1902 0.65409 0.0
H326 H 0.51225 0.17431 0.5892 0.0
O327 O 0.43378 0.05469 0.71677 0.0
C328 C 0.36872 0.02459 0.63588 0.0
C329 C 0.48308 0.12407 0.60478 0.0
C330 C 0.47827 0.16523 0.64823 0.0
N331 N 0.44397 0.11009 0.67006 0.0
C332 C 0.45833 0.10116 0.63436 0.0
C333 C 0.45358 0.14167 0.6771 0.0
C334 C 0.49309 0.1563 0.61185 0.0
C335 C 0.30809 0.00862 0.78632 0.0
N336 N 0.31424 0.99349 0.7482 0.0
C337 C 0.27801 0.00579 0.79109 0.0
C338 C 0.25416 0.98736 0.75646 0.0
C339 C 0.26063 0.97202 0.71765 0.0
C340 C 0.291 0.9754 0.71405 0.0
C341 C 0.30306 0.89918 0.76177 0.0
C342 C 0.34931 0.94166 0.69614 0.0
C343 C 0.3159 0.93212 0.76701 0.0
N344 N 0.33861 0.95289 0.73423 0.0
C345 C 0.33703 0.90887 0.68977 0.0
C346 C 0.31372 0.88754 0.72283 0.0
C347 C 0.42796 0.02649 0.72659 0.0
C348 C 0.42331 0.12067 0.85145 0.0
C349 C 0.46034 0.11181 0.78096 0.0
C350 C 0.47425 0.1277 0.82588 0.0
C351 C 0.45554 0.13207 0.86135 0.0
N352 N 0.42869 0.10061 0.77157 0.0
C353 C 0.41023 0.10493 0.80607 0.0
Co354 Co 0.62557 0.64581 0.58257 0.0
Co355 Co 0.56906 0.6601 0.6385 0.0
O356 O 0.60316 0.67014 0.58956 0.0
C357 C 0.59904 0.63587 0.47896 0.0
O358 O 0.57005 0.62103 0.49768 0.0
C359 C 0.61448 0.73103 0.65281 0.0
O360 O 0.63862 0.72936 0.63374 0.0
O361 O 0.59491 0.65633 0.69379 0.0
O362 O 0.62851 0.64309 0.65679 0.0
H363 H 0.49496 0.59693 0.77941 0.0
H364 H 0.65008 0.70678 0.52658 0.0
O365 O 0.62342 0.64804 0.50754 0.0
H366 H 0.73785 0.72256 0.63931 0.0
H367 H 0.7056 0.6212 0.50385 0.0
H368 H 0.6215 0.58894 0.63252 0.0
H369 H 0.68708 0.67131 0.63853 0.0
H370 H 0.67741 0.65151 0.5149 0.0
O371 O 0.58689 0.70627 0.65597 0.0
H372 H 0.53739 0.61023 0.71663 0.0
H373 H 0.52857 0.68872 0.66511 0.0
H374 H 0.64923 0.55809 0.62298 0.0
H375 H 0.70064 0.75826 0.52561 0.0
H376 H 0.69163 0.57418 0.55825 0.0
H377 H 0.74491 0.76644 0.58243 0.0
O378 O 0.58464 0.60405 0.58329 0.0
H379 H 0.55253 0.71251 0.48713 0.0
H380 H 0.50117 0.62173 0.6048 0.0
H381 H 0.4697 0.62588 0.5352 0.0
H382 H 0.49538 0.67162 0.47583 0.0
H383 H 0.58317 0.70713 0.5569 0.0
H384 H 0.48628 0.67644 0.72764 0.0
H385 H 0.46912 0.63017 0.78521 0.0
O386 O 0.54931 0.61368 0.62302 0.0
C387 C 0.61641 0.64835 0.69562 0.0
C388 C 0.50215 0.61708 0.75442 0.0
C389 C 0.49732 0.66174 0.72542 0.0
N390 N 0.53528 0.65005 0.68696 0.0
C391 C 0.52609 0.62467 0.71869 0.0
C392 C 0.52134 0.66862 0.69016 0.0
C393 C 0.48769 0.63577 0.75769 0.0
C394 C 0.66936 0.71004 0.55103 0.0
N395 N 0.66563 0.68604 0.58251 0.0
C396 C 0.69787 0.73929 0.55049 0.0
C397 C 0.72268 0.74389 0.58244 0.0
C398 C 0.71872 0.71929 0.61441 0.0
C399 C 0.68986 0.69037 0.61396 0.0
C400 C 0.68724 0.614 0.53228 0.0
C401 C 0.64008 0.59624 0.60452 0.0
C402 C 0.67116 0.63105 0.53868 0.0
N403 N 0.64804 0.62219 0.57468 0.0
C404 C 0.65563 0.57861 0.59918 0.0
C405 C 0.67939 0.58763 0.56282 0.0
C406 C 0.55695 0.59491 0.60144 0.0
C407 C 0.54107 0.69246 0.51274 0.0
C408 C 0.51258 0.64146 0.57882 0.0
C409 C 0.4946 0.64381 0.53964 0.0
C410 C 0.50902 0.6695 0.50638 0.0
N411 N 0.54401 0.66406 0.58482 0.0
C412 C 0.55828 0.68933 0.55239 0.0
Co413 Co 0.9903 0.63282 0.92482 0.0
Co414 Co 0.91257 0.57847 0.96087 0.0
O415 O 0.94374 0.61444 0.92005 0.0
C416 C 0.9746 0.61326 0.81764 0.0
O417 O 0.94947 0.58735 0.83439 0.0
C418 C 0.89303 0.6285 0.97243 0.0
O419 O 0.92208 0.65174 0.96292 0.0
O420 O 0.93677 0.59904 0.02353 0.0
O421 O 0.98782 0.63175 0.00062 0.0
H422 H 0.87924 0.49378 0.09394 0.0
H423 H 0.96476 0.6653 0.86107 0.0
O424 O 0.99389 0.63421 0.84871 0.0
H425 H 0.02972 0.74397 0.99112 0.0
H426 H 0.10431 0.70787 0.87433 0.0
H427 H 0.03335 0.62061 0.98872 0.0
H428 H 0.02483 0.69066 0.98962 0.0
H429 H 0.04586 0.68453 0.86967 0.0
O430 O 0.88633 0.59945 0.97189 0.0
H431 H 0.91761 0.53868 0.04121 0.0
H432 H 0.84132 0.54231 0.96814 0.0
H433 H 0.09167 0.64342 0.99497 0.0
H434 H 0.96935 0.7185 0.86077 0.0
H435 H 0.12758 0.68737 0.93746 0.0
H436 H 0.00192 0.75821 0.92627 0.0
O437 O 0.98655 0.58979 0.92443 0.0
H438 H 0.86188 0.57734 0.79523 0.0
H439 H 0.88306 0.51295 0.91657 0.0
H440 H 0.85431 0.48808 0.83786 0.0
H441 H 0.84351 0.52036 0.77655 0.0
H442 H 0.89092 0.60131 0.87414 0.0
H443 H 0.80217 0.4977 0.02042 0.0
H444 H 0.82106 0.47302 0.08371 0.0
O445 O 0.93701 0.55565 0.95169 0.0
C446 C 0.96597 0.61857 0.03407 0.0
C447 C 0.87071 0.50426 0.06636 0.0
C448 C 0.82746 0.50648 0.02515 0.0
N449 N 0.88173 0.54292 0.00133 0.0
C450 C 0.89232 0.52961 0.03629 0.0
C451 C 0.84976 0.53179 0.99572 0.0
C452 C 0.83807 0.49264 0.06064 0.0
C453 C 0.97926 0.68258 0.88935 0.0
N454 N 0.99459 0.67492 0.9252 0.0
C455 C 0.98164 0.71261 0.88914 0.0
C456 C 0.99988 0.73486 0.92596 0.0
C457 C 0.01545 0.72687 0.96239 0.0
C458 C 0.0125 0.6966 0.96145 0.0
C459 C 0.08892 0.68877 0.89965 0.0
C460 C 0.04884 0.63987 0.9638 0.0
C461 C 0.05581 0.67542 0.89711 0.0
N462 N 0.03625 0.65138 0.92912 0.0
C463 C 0.08183 0.65263 0.96741 0.0
C464 C 0.10196 0.67726 0.9351 0.0
C465 C 0.96466 0.56192 0.93723 0.0
C466 C 0.86641 0.56301 0.82167 0.0
C467 C 0.87869 0.52719 0.88992 0.0
C468 C 0.86225 0.51295 0.84551 0.0
C469 C 0.85616 0.53106 0.81117 0.0
N470 N 0.88876 0.55857 0.8999 0.0
C471 C 0.88273 0.57642 0.86651 0.0
Co472 Co 0.37688 0.99188 0.2471 0.0
Co473 Co 0.35654 0.91638 0.28645 0.0
O474 O 0.34946 0.94529 0.24367 0.0
C475 C 0.37769 0.97906 0.13952 0.0
O476 O 0.38144 0.95482 0.15181 0.0
C477 C 0.28611 0.88818 0.30856 0.0
O478 O 0.29058 0.91515 0.32782 0.0
O479 O 0.35519 0.93948 0.34789 0.0
O480 O 0.38158 0.99034 0.32085 0.0
H481 H 0.40778 0.88941 0.42824 0.0
H482 H 0.31409 0.964 0.19636 0.0
O483 O 0.3737 0.99538 0.17316 0.0
H484 H 0.30931 0.02974 0.33436 0.0
H485 H 0.40974 0.10537 0.20117 0.0
H486 H 0.43717 0.03603 0.30001 0.0
H487 H 0.35808 0.02663 0.31998 0.0
H488 H 0.37509 0.04677 0.19895 0.0
O489 O 0.30945 0.88622 0.29041 0.0
H490 H 0.39902 0.92528 0.37282 0.0
H491 H 0.32779 0.84546 0.29224 0.0
H492 H 0.47235 0.09449 0.30362 0.0
H493 H 0.26487 0.96663 0.20914 0.0
H494 H 0.45871 0.1296 0.25395 0.0
H495 H 0.26228 0.99965 0.27863 0.0
O496 O 0.41567 0.98831 0.23725 0.0
H497 H 0.31766 0.86426 0.11774 0.0
H498 H 0.40001 0.89361 0.24855 0.0
H499 H 0.40269 0.86679 0.17132 0.0
H500 H 0.36124 0.85186 0.10525 0.0
H501 H 0.31618 0.89152 0.19531 0.0
H502 H 0.33554 0.80873 0.3471 0.0
H503 H 0.37589 0.83067 0.41556 0.0
O504 O 0.404 0.9447 0.28264 0.0
C505 C 0.37001 0.96959 0.35566 0.0
C506 C 0.39016 0.87956 0.39849 0.0
C507 C 0.34959 0.83428 0.353 0.0
N508 N 0.363 0.88751 0.3292 0.0
C509 C 0.38514 0.89975 0.36692 0.0
C510 C 0.34522 0.8552 0.32216 0.0
C511 C 0.37224 0.8466 0.39138 0.0
C512 C 0.31318 0.9786 0.22642 0.0
N513 N 0.33895 0.99527 0.25718 0.0
C514 C 0.28524 0.97993 0.23358 0.0
C515 C 0.28379 0.99842 0.27262 0.0
C516 C 0.31016 0.01531 0.30391 0.0
C517 C 0.33769 0.0134 0.29564 0.0
C518 C 0.41588 0.09033 0.22311 0.0
C519 C 0.43093 0.05114 0.2786 0.0
C520 C 0.39638 0.05713 0.22197 0.0
N521 N 0.40392 0.038 0.24974 0.0
C522 C 0.45101 0.08423 0.28065 0.0
C523 C 0.44336 0.10391 0.25273 0.0
C524 C 0.42366 0.96973 0.25857 0.0
C525 C 0.33585 0.87063 0.14626 0.0
C526 C 0.38209 0.88748 0.21983 0.0
C527 C 0.38362 0.87213 0.17626 0.0
C528 C 0.36033 0.86372 0.13924 0.0
N529 N 0.35806 0.89426 0.22641 0.0
C530 C 0.33508 0.88597 0.19034 0.0
Co531 Co 0.37126 0.35743 0.57518 0.0
Co532 Co 0.42679 0.33972 0.62657 0.0
O533 O 0.39179 0.33107 0.57982 0.0
C534 C 0.3951 0.36009 0.47162 0.0
O535 O 0.42087 0.36153 0.49052 0.0
C536 C 0.37954 0.26882 0.64057 0.0
O537 O 0.35647 0.27059 0.6175 0.0
O538 O 0.40356 0.34578 0.6839 0.0
O539 O 0.36939 0.35916 0.64953 0.0
H540 H 0.50635 0.40157 0.7623 0.0
H541 H 0.34361 0.29724 0.51668 0.0
O542 O 0.37265 0.35704 0.50018 0.0
H543 H 0.25866 0.28376 0.6339 0.0
H544 H 0.29403 0.38838 0.50361 0.0
H545 H 0.37904 0.41477 0.62866 0.0
H546 H 0.3107 0.33367 0.63336 0.0
H547 H 0.3197 0.35545 0.51077 0.0
O548 O 0.4071 0.29345 0.64552 0.0
H549 H 0.46266 0.38983 0.70278 0.0
H550 H 0.46493 0.30803 0.64981 0.0
H551 H 0.35385 0.44821 0.62305 0.0
H552 H 0.29173 0.24709 0.51545 0.0
H553 H 0.31101 0.43508 0.56014 0.0
H554 H 0.24887 0.24007 0.57453 0.0
O555 O 0.41324 0.39787 0.57514 0.0
H556 H 0.43597 0.28296 0.47445 0.0
H557 H 0.4936 0.37538 0.58755 0.0
H558 H 0.52205 0.36856 0.5159 0.0
H559 H 0.49321 0.32201 0.45881 0.0
H560 H 0.40839 0.29097 0.54614 0.0
H561 H 0.50842 0.31872 0.70908 0.0
H562 H 0.52951 0.36585 0.76572 0.0
O563 O 0.44844 0.38616 0.61004 0.0
C564 C 0.38232 0.35405 0.68737 0.0
C565 C 0.49743 0.38101 0.7377 0.0
C566 C 0.49856 0.33449 0.70788 0.0
N567 N 0.46142 0.34844 0.67258 0.0
C568 C 0.47277 0.3743 0.70382 0.0
C569 C 0.47388 0.32852 0.67448 0.0
C570 C 0.5104 0.36095 0.73963 0.0
C571 C 0.32495 0.29448 0.54212 0.0
N572 N 0.33016 0.31836 0.57497 0.0
C573 C 0.29568 0.26598 0.54143 0.0
C574 C 0.27166 0.26203 0.57464 0.0
C575 C 0.27715 0.28652 0.60801 0.0
C576 C 0.30673 0.31468 0.60767 0.0
C577 C 0.3126 0.39429 0.53127 0.0
C578 C 0.36026 0.40877 0.60145 0.0
C579 C 0.32725 0.37575 0.53547 0.0
N580 N 0.35065 0.38301 0.57043 0.0
C581 C 0.34615 0.42785 0.59834 0.0
C582 C 0.32214 0.42049 0.563 0.0
C583 C 0.44123 0.40576 0.59039 0.0
C584 C 0.44883 0.3033 0.49913 0.0
C585 C 0.48084 0.3552 0.56272 0.0
C586 C 0.4971 0.35138 0.52231 0.0
C587 C 0.48092 0.32524 0.49033 0.0
N588 N 0.44937 0.33356 0.57118 0.0
C589 C 0.43335 0.30787 0.53996 0.0
Co590 Co 0.99928 0.36703 0.9033 0.0
Co591 Co 0.07695 0.41591 0.94508 0.0
O592 O 0.04561 0.38484 0.89806 0.0
C593 C 0.01558 0.40016 0.80647 0.0
O594 O 0.04145 0.42323 0.82731 0.0
C595 C 0.10806 0.38 0.98258 0.0
O596 O 0.09709 0.38051 0.02754 0.0
O597 O 0.05049 0.39079 0.00376 0.0
O598 O 1.00052 0.35896 0.97561 0.0
H599 H 0.11198 0.48668 0.0978 0.0
H600 H 0.02509 0.34245 0.82511 0.0
O601 O 0.99673 0.37515 0.83085 0.0
H602 H 0.95564 0.24924 0.93081 0.0
H603 H 0.88547 0.30084 0.84439 0.0
H604 H 0.95636 0.3731 0.97662 0.0
H605 H 0.96215 0.3022 0.94945 0.0
H606 H 0.94378 0.32321 0.83925 0.0
O607 O 0.10045 0.39123 0.94488 0.0
H608 H 0.07305 0.44835 0.03713 0.0
H609 H 0.14815 0.44903 0.95318 0.0
H610 H 0.89819 0.35107 0.98347 0.0
H611 H 0.01904 0.28986 0.80484 0.0
H612 H 0.86231 0.31465 0.91702 0.0
H613 H 0.98413 0.24281 0.85793 0.0
O614 O 0.00442 0.4097 0.91843 0.0
H615 H 0.12933 0.42973 0.77642 0.0
H616 H 0.10941 0.48483 0.91586 0.0
H617 H 0.14004 0.51579 0.84187 0.0
H618 H 0.15023 0.48822 0.7715 0.0
H619 H 0.09854 0.39965 0.85092 0.0
H620 H 0.18786 0.48723 0.01304 0.0
H621 H 0.16985 0.50635 0.08595 0.0
O622 O 0.05478 0.44149 0.94495 0.0
C623 C 0.02121 0.36971 0.0105 0.0
C624 C 0.12013 0.47856 0.06614 0.0
C625 C 0.16272 0.47886 0.01859 0.0
N626 N 0.10831 0.44653 0.99159 0.0
C627 C 0.09821 0.4569 0.03163 0.0
C628 C 0.14011 0.4572 0.98485 0.0
C629 C 0.15259 0.48958 0.05949 0.0
C630 C 0.00972 0.32203 0.84821 0.0
N631 N 0.99388 0.32534 0.88825 0.0
C632 C 0.00646 0.29234 0.83663 0.0
C633 C 0.98688 0.26596 0.86647 0.0
C634 C 0.97091 0.26956 0.90739 0.0
C635 C 0.97476 0.29962 0.91784 0.0
C636 C 0.90084 0.3166 0.87366 0.0
C637 C 0.94088 0.35707 0.94776 0.0
C638 C 0.93387 0.32936 0.87093 0.0
N639 N 0.95341 0.34915 0.9079 0.0
C640 C 0.90797 0.34476 0.95175 0.0
C641 C 0.88786 0.32436 0.91443 0.0
C642 C 0.02696 0.4365 0.93401 0.0
C643 C 0.12512 0.44203 0.8069 0.0
C644 C 0.1136 0.47264 0.88531 0.0
C645 C 0.13106 0.49031 0.84358 0.0
C646 C 0.1368 0.47483 0.80413 0.0
N647 N 0.10226 0.44048 0.8878 0.0
C648 C 0.10781 0.42514 0.84927 0.0
Co649 Co 0.65961 0.01621 0.24075 0.0
Co650 Co 0.67836 0.09413 0.26664 0.0
O651 O 0.68595 0.06272 0.23195 0.0
C652 C 0.6528 0.02602 0.13267 0.0
O653 O 0.65209 0.05185 0.14568 0.0
C654 C 0.74695 0.11542 0.29161 0.0
O655 O 0.74136 0.0859 0.29026 0.0
O656 O 0.67223 0.07176 0.33245 0.0
O657 O 0.66059 0.0215 0.31521 0.0
H658 H 0.61964 0.12866 0.38366 0.0
H659 H 0.71776 0.04218 0.17758 0.0
O660 O 0.65707 0.00948 0.1659 0.0
H661 H 0.73579 0.98523 0.31637 0.0
H662 H 0.62661 0.90164 0.20325 0.0
H663 H 0.6049 0.97363 0.30608 0.0
H664 H 0.68555 0.98662 0.31109 0.0
H665 H 0.6592 0.96012 0.19314 0.0
O666 O 0.72485 0.1217 0.28211 0.0
H667 H 0.62959 0.08978 0.33879 0.0
H668 H 0.71142 0.16547 0.26854 0.0
H669 H 0.57191 0.91534 0.31774 0.0
H670 H 0.76826 0.04116 0.18112 0.0
H671 H 0.58268 0.8789 0.26608 0.0
H672 H 0.77754 0.01259 0.25099 0.0
O673 O 0.61912 0.01753 0.2376 0.0
H674 H 0.73447 0.14137 0.10321 0.0
H675 H 0.64276 0.12014 0.21061 0.0
H676 H 0.64929 0.14628 0.12827 0.0
H677 H 0.69544 0.15708 0.07395 0.0
H678 H 0.7268 0.11496 0.18563 0.0
H679 H 0.70253 0.20515 0.313 0.0
H680 H 0.65627 0.18681 0.37089 0.0
O681 O 0.63183 0.0683 0.25242 0.0
C682 C 0.66504 0.04357 0.34605 0.0
C683 C 0.63981 0.13695 0.3584 0.0
C684 C 0.68636 0.17987 0.3188 0.0
N685 N 0.67092 0.12532 0.30081 0.0
C686 C 0.64552 0.11504 0.33279 0.0
C687 C 0.69131 0.15729 0.29381 0.0
C688 C 0.6604 0.16957 0.35127 0.0
C689 C 0.72154 0.02946 0.20781 0.0
N690 N 0.69872 0.01436 0.24393 0.0
C691 C 0.75021 0.02907 0.20975 0.0
C692 C 0.75542 0.01308 0.24901 0.0
C693 C 0.73202 0.99774 0.28572 0.0
C694 C 0.70366 0.99868 0.28261 0.0
C695 C 0.62173 0.91727 0.22606 0.0
C696 C 0.60987 0.95794 0.2837 0.0
C697 C 0.64006 0.95039 0.22044 0.0
N698 N 0.63413 0.97027 0.2493 0.0
C699 C 0.59105 0.92495 0.29036 0.0
C700 C 0.59709 0.90452 0.26133 0.0
C701 C 0.61172 0.03927 0.24258 0.0
C702 C 0.71428 0.13684 0.12656 0.0
C703 C 0.66279 0.12461 0.18708 0.0
C704 C 0.66644 0.13952 0.14057 0.0
C705 C 0.69236 0.1456 0.11014 0.0
N706 N 0.68437 0.11603 0.2029 0.0
C707 C 0.70989 0.122 0.17334 0.0
H708 H 0.38962 0.3615 0.23471 0.0
H709 H 0.33946 0.41236 0.26691 0.0
H710 H 0.34612 0.40763 0.35739 0.0
H711 H 0.36527 0.38803 0.42686 0.0
H712 H 0.41908 0.34089 0.39474 0.0
H713 H 0.41208 0.34524 0.30419 0.0
C714 C 0.38014 0.37152 0.26163 0.0
C715 C 0.36374 0.38692 0.24449 0.0
C716 C 0.38474 0.36936 0.31328 0.0
C717 C 0.35211 0.40038 0.27944 0.0
C718 C 0.35585 0.3976 0.33103 0.0
C719 C 0.37543 0.37869 0.39996 0.0
C720 C 0.39231 0.36379 0.41715 0.0
C721 C 0.37194 0.38196 0.3483 0.0
C722 C 0.40594 0.35237 0.38217 0.0
C723 C 0.40187 0.35479 0.33055 0.0
H724 H 0.95902 0.38099 0.58962 0.0
H725 H 0.05183 0.394 0.55355 0.0
H726 H 0.06832 0.40665 0.64123 0.0
H727 H 0.05506 0.41031 0.72916 0.0
H728 H 0.96045 0.39122 0.76673 0.0
H729 H 0.94597 0.38531 0.67745 0.0
C730 C 0.98288 0.38681 0.60109 0.0
C731 C 0.00411 0.38641 0.56568 0.0
C732 C 0.99188 0.39317 0.65168 0.0
C733 C 0.03495 0.39378 0.58061 0.0
C734 C 0.04447 0.40119 0.63056 0.0
C735 C 0.03157 0.40554 0.71736 0.0
C736 C 0.00888 0.40156 0.75348 0.0
C737 C 0.023 0.40053 0.66651 0.0
C738 C 0.97819 0.39458 0.73878 0.0
C739 C 0.96991 0.39103 0.68803 0.0
H740 H 0.60812 0.95503 0.92334 0.0
H741 H 0.64733 0.05209 0.87145 0.0
H742 H 0.66153 0.07175 0.95772 0.0
H743 H 0.66242 0.06135 0.04819 0.0
H744 H 0.62724 0.96471 0.09944 0.0
H745 H 0.61213 0.94492 0.01339 0.0
C746 C 0.61968 0.98045 0.93111 0.0
C747 C 0.6264 0.00207 0.89133 0.0
C748 C 0.62866 0.99167 0.98065 0.0
C749 C 0.64191 0.035 0.90158 0.0
C750 C 0.65001 0.04626 0.95086 0.0
C751 C 0.65155 0.03598 0.04042 0.0
C752 C 0.64582 0.01452 0.08009 0.0
C753 C 0.64349 0.02483 0.99072 0.0
C754 C 0.63204 0.98174 0.06947 0.0
C755 C 0.62324 0.97038 0.02032 0.0
H756 H 0.64458 0.64902 0.25444 0.0
H757 H 0.57585 0.54808 0.25547 0.0
H758 H 0.56196 0.55197 0.3427 0.0
H759 H 0.56943 0.58424 0.41874 0.0
H760 H 0.64128 0.68403 0.41951 0.0
H761 H 0.65353 0.68068 0.33101 0.0
C762 C 0.62664 0.62784 0.27383 0.0
C763 C 0.61121 0.59832 0.24859 0.0
C764 C 0.61904 0.6302 0.32396 0.0
C765 C 0.58822 0.57103 0.27425 0.0
C766 C 0.58009 0.57329 0.32395 0.0
C767 C 0.58739 0.60528 0.39909 0.0
C768 C 0.60404 0.63449 0.42478 0.0
C769 C 0.59521 0.60279 0.34905 0.0
C770 C 0.62796 0.66145 0.39987 0.0
C771 C 0.63507 0.65948 0.34955 0.0
H772 H 0.03149 0.64405 0.76753 0.0
H773 H 0.92963 0.59312 0.74387 0.0
H774 H 0.9377 0.60014 0.65282 0.0
H775 H 0.97383 0.61945 0.57915 0.0
H776 H 0.07551 0.66519 0.60261 0.0
H777 H 0.06755 0.6617 0.69385 0.0
C778 C 0.01111 0.63467 0.74237 0.0
C779 C 0.98001 0.61824 0.76249 0.0
C780 C 0.01593 0.63785 0.6898 0.0
C781 C 0.95382 0.60579 0.72937 0.0
C782 C 0.95841 0.60984 0.67726 0.0
C783 C 0.9942 0.62885 0.60435 0.0
C784 C 0.02523 0.6428 0.58416 0.0
C785 C 0.98936 0.62566 0.65693 0.0
C786 C 0.05139 0.65436 0.61722 0.0
C787 C 0.04685 0.65237 0.66943 0.0
H788 H 0.36042 0.9424 0.05559 0.0
H789 H 0.40284 0.03995 0.10676 0.0
H790 H 0.40925 0.05872 0.01998 0.0
H791 H 0.40184 0.04732 0.92941 0.0
H792 H 0.35496 0.94952 0.87847 0.0
H793 H 0.35128 0.93086 0.96502 0.0
C794 C 0.37112 0.96772 0.04749 0.0
C795 C 0.38116 0.98977 0.08709 0.0
C796 C 0.37391 0.97828 -0.00238 0.0
C797 C 0.39472 0.02253 0.07659 0.0
C798 C 0.3985 0.03331 0.02708 0.0
C799 C 0.391 0.02198 0.93746 0.0
C800 C 0.37882 0.9998 0.89809 0.0
C801 C 0.38806 0.01139 0.9873 0.0
C802 C 0.36438 0.96697 0.90858 0.0
C803 C 0.36232 0.95629 0.95791 0.0
H804 H 0.12262 0.3441 0.04463 0.0
H805 H 0.15406 0.40186 0.9101 0.0
H806 H 0.20353 0.39998 0.91059 0.0
H807 H 0.24045 0.38714 0.9546 0.0
H808 H 0.20857 0.32723 0.08651 0.0
H809 H 0.15658 0.32438 0.08141 0.0
C810 C 0.14006 0.35576 0.01493 0.0
C811 C 0.13479 0.37342 0.97779 0.0
C812 C 0.16848 0.35439 0.01517 0.0
C813 C 0.15745 0.38812 0.9392 0.0
C814 C 0.18589 0.38723 0.93958 0.0
C815 C 0.22185 0.37296 0.98162 0.0
C816 C 0.22831 0.35763 0.02109 0.0
C817 C 0.19204 0.37124 0.97817 0.0
C818 C 0.20405 0.33912 0.05567 0.0
C819 C 0.17443 0.33769 0.05297 0.0
H820 H 0.89108 0.22428 0.32304 0.0
H821 H 0.84241 0.27409 0.37236 0.0
H822 H 0.79121 0.2265 0.35918 0.0
H823 H 0.75973 0.17183 0.33062 0.0
H824 H 0.80582 0.11961 0.28255 0.0
H825 H 0.85837 0.1668 0.29891 0.0
C826 C 0.86927 0.2246 0.3312 0.0
C827 C 0.87085 0.25307 0.34802 0.0
C828 C 0.83935 0.19673 0.32374 0.0
C829 C 0.84222 0.25287 0.35877 0.0
C830 C 0.81274 0.22556 0.35134 0.0
C831 C 0.78123 0.17065 0.32368 0.0
C832 C 0.7789 0.14241 0.30478 0.0
C833 C 0.81101 0.19758 0.33322 0.0
C834 C 0.807 0.14113 0.29703 0.0
C835 C 0.83703 0.16815 0.3062 0.0
H836 H 0.59666 0.84418 0.72762 0.0
H837 H 0.6726 0.89712 0.6213 0.0
H838 H 0.67791 0.84981 0.60721 0.0
H839 H 0.65694 0.79152 0.61917 0.0
H840 H 0.57909 0.73955 0.72305 0.0
H841 H 0.57865 0.78832 0.74394 0.0
C842 C 0.61463 0.8456 0.70162 0.0
C843 C 0.63394 0.87411 0.67512 0.0
C844 C 0.61703 0.81828 0.69295 0.0
C845 C 0.65735 0.87548 0.64214 0.0
C846 C 0.66027 0.84835 0.63387 0.0
C847 C 0.64031 0.79109 0.64696 0.0
C848 C 0.61791 0.76188 0.66919 0.0
C849 C 0.63968 0.81934 0.65818 0.0
C850 C 0.59634 0.76162 0.70496 0.0
C851 C 0.59606 0.78952 0.717 0.0
H852 H 0.78127 0.66049 0.97511 0.0
H853 H 0.74106 0.5782 0.07355 0.0
H854 H 0.79003 0.57609 0.06897 0.0
H855 H 0.84239 0.59432 0.0321 0.0
H856 H 0.88476 0.67708 0.93558 0.0
H857 H 0.83711 0.68254 0.94488 0.0
C858 C 0.7834 0.64239 0.99606 0.0
C859 C 0.75715 0.61926 0.02395 0.0
C860 C 0.81197 0.64124 0.99347 0.0
C861 C 0.76054 0.59613 0.05124 0.0
C862 C 0.78862 0.59482 0.04869 0.0
C863 C 0.84133 0.61377 0.01343 0.0
C864 C 0.86678 0.63503 0.98272 0.0
C865 C 0.81413 0.61673 0.01907 0.0
C866 C 0.86539 0.66041 0.95943 0.0
C867 C 0.83809 0.6634 0.96454 0.0
H868 H 0.16958 0.74792 0.3192 0.0
H869 H 0.12556 0.79467 0.39569 0.0
H870 H 0.17373 0.84686 0.38169 0.0
H871 H 0.22993 0.87868 0.35143 0.0
H872 H 0.27115 0.82997 0.27157 0.0
H873 H 0.22254 0.77933 0.28304 0.0
C874 C 0.17046 0.76955 0.33273 0.0
C875 C 0.14431 0.76749 0.35901 0.0
C876 C 0.19784 0.79919 0.32403 0.0
C877 C 0.1455 0.79571 0.37542 0.0
C878 C 0.17306 0.8255 0.36755 0.0
C879 C 0.22813 0.85704 0.33614 0.0
C880 C 0.25458 0.85833 0.31144 0.0
C881 C 0.19963 0.82751 0.34242 0.0
C882 C 0.25157 0.82994 0.29145 0.0
C883 C 0.22368 0.80077 0.2979 0.0
H884 H 0.39193 0.1545 0.72654 0.0
H885 H 0.31804 0.10162 0.61711 0.0
H886 H 0.31471 0.14958 0.59851 0.0
H887 H 0.33684 0.20819 0.60767 0.0
H888 H 0.41276 0.26014 0.71468 0.0
H889 H 0.41119 0.21096 0.73968 0.0
C890 C 0.37483 0.15323 0.69886 0.0
C891 C 0.35552 0.12449 0.67288 0.0
C892 C 0.37361 0.18094 0.68756 0.0
C893 C 0.33327 0.1234 0.63764 0.0
C894 C 0.33148 0.1509 0.62679 0.0
C895 C 0.35263 0.20857 0.63699 0.0
C896 C 0.37505 0.23787 0.65897 0.0
C897 C 0.35211 0.18006 0.65065 0.0
C898 C 0.3955 0.23801 0.69675 0.0
C899 C 0.39463 0.20987 0.71116 0.0
H900 H 0.39108 0.33287 0.77791 0.0
H901 H 0.35077 0.38607 0.71008 0.0
H902 H 0.33547 0.39572 0.79255 0.0
H903 H 0.33472 0.39047 0.88439 0.0
H904 H 0.37319 0.33548 0.952 0.0
H905 H 0.38761 0.32507 0.86945 0.0
C906 C 0.37894 0.34656 0.78118 0.0
C907 C 0.37238 0.3589 0.73779 0.0
C908 C 0.36972 0.35172 0.82881 0.0
C909 C 0.35626 0.37628 0.74274 0.0
C910 C 0.34745 0.38187 0.78998 0.0
C911 C 0.34604 0.37601 0.88112 0.0
C912 C 0.35298 0.36405 0.92461 0.0
C913 C 0.3542 0.36986 0.83333 0.0
C914 C 0.36756 0.34519 0.91938 0.0
C915 C 0.37595 0.33922 0.87208 0.0
H916 H 0.94903 0.33141 0.21757 0.0
H917 H 0.04627 0.3807 0.27195 0.0
H918 H 0.06623 0.38749 0.18651 0.0
H919 H 0.05639 0.38355 0.09619 0.0
H920 H 0.95933 0.33218 0.04108 0.0
H921 H 0.93923 0.32185 0.12686 0.0
C922 C 0.97455 0.34342 0.21067 0.0
C923 C 0.99602 0.35601 0.251 0.0
C924 C 0.98604 0.34697 0.1613 0.0
C925 C 0.02909 0.371 0.24161 0.0
C926 C 0.04064 0.37495 0.19268 0.0
C927 C 0.03087 0.36966 0.10281 0.0
C928 C 0.00953 0.3592 0.06218 0.0
C929 C 0.01935 0.36362 0.15221 0.0
C930 C 0.97646 0.34093 0.07161 0.0
C931 C 0.96482 0.33502 0.12072 0.0
H932 H 0.64357 0.02981 0.58114 0.0
H933 H 0.60167 0.92977 0.54363 0.0
H934 H 0.61523 0.94378 0.45512 0.0
H935 H 0.63842 0.98427 0.38851 0.0
H936 H 0.67878 0.08413 0.42612 0.0
H937 H 0.66665 0.07015 0.5148 0.0
C938 C 0.63736 0.01094 0.55378 0.0
C939 C 0.62158 0.9787 0.56931 0.0
C940 C 0.64511 0.01913 0.50298 0.0
C941 C 0.61372 0.95475 0.53295 0.0
C942 C 0.62155 0.96275 0.48229 0.0
C943 C 0.64478 0.00308 0.416 0.0
C944 C 0.65959 0.03528 0.40038 0.0
C945 C 0.63723 0.99486 0.4669 0.0
C946 C 0.66742 0.05918 0.43683 0.0
C947 C 0.66042 0.05121 0.48762 0.0
H948 H 0.60932 0.67001 0.78648 0.0
H949 H 0.64813 0.61613 0.71649 0.0
H950 H 0.66279 0.60504 0.79867 0.0
H951 H 0.66169 0.60787 0.89101 0.0
H952 H 0.62406 0.66319 0.96018 0.0
H953 H 0.61235 0.67662 0.87795 0.0
C954 C 0.6211 0.65595 0.78916 0.0
C955 C 0.62721 0.64363 0.74538 0.0
C956 C 0.62978 0.64987 0.83653 0.0
C957 C 0.64295 0.62584 0.74955 0.0
C958 C 0.65136 0.61943 0.7966 0.0
C959 C 0.65132 0.6232 0.88813 0.0
C960 C 0.6435 0.63409 0.93199 0.0
C961 C 0.6445 0.63095 0.84044 0.0
C962 C 0.63018 0.65411 0.9273 0.0
C963 C 0.62334 0.66184 0.88015 0.0
H964 H 0.98033 0.63194 0.27156 0.0
H965 H 0.08028 0.67952 0.2318 0.0
H966 H 0.06638 0.67259 0.1427 0.0
H967 H 0.02593 0.65115 0.07553 0.0
H968 H 0.92593 0.6018 0.11539 0.0
H969 H 0.93988 0.61135 0.20432 0.0
C970 C 0.99912 0.64108 0.24349 0.0
C971 C 0.03135 0.65624 0.2588 0.0
C972 C 0.99098 0.63654 0.19196 0.0
C973 C 0.05526 0.66767 0.22149 0.0
C974 C 0.04735 0.6637 0.17032 0.0
C975 C 0.00713 0.64262 0.10356 0.0
C976 C 0.97488 0.6257 0.0883 0.0
C977 C 0.01528 0.64785 0.15504 0.0
C978 C 0.95098 0.61479 0.12559 0.0
C979 C 0.95891 0.62026 0.17669 0.0
H980 H 0.327 0.94871 0.43201 0.0
H981 H 0.42332 0.01985 0.39267 0.0
H982 H 0.43046 0.04568 0.47425 0.0
H983 H 0.40966 0.04758 0.55731 0.0
H984 H 0.31336 0.97661 0.59723 0.0
H985 H 0.30553 0.95173 0.51466 0.0
C986 C 0.34961 0.96958 0.44183 0.0
C987 C 0.37469 0.98223 0.407 0.0
C988 C 0.35334 0.98474 0.48843 0.0
C989 C 0.40373 0.00969 0.4193 0.0
C990 C 0.40778 0.02459 0.46572 0.0
C991 C 0.38677 0.02711 0.5475 0.0
C992 C 0.36217 0.01397 0.58317 0.0
C993 C 0.3827 0.01245 0.50046 0.0
C994 C 0.33272 0.98712 0.57029 0.0
C995 C 0.32828 0.97272 0.52325 0.0
H996 H 0.45232 0.43196 0.0463 0.0
H997 H 0.41919 0.49518 0.09658 0.0
H998 H 0.4742 0.53978 0.09938 0.0
H999 H 0.53183 0.56068 0.08737 0.0
H1000 H 0.56384 0.49777 0.02988 0.0
H1001 H 0.50935 0.45339 0.02998 0.0
C1002 C 0.45724 0.45548 0.05814 0.0
C1003 C 0.43193 0.46033 0.07159 0.0
C1004 C 0.48875 0.48112 0.05827 0.0
C1005 C 0.43841 0.49099 0.08596 0.0
C1006 C 0.46982 0.51645 0.08762 0.0
C1007 C 0.52691 0.53729 0.07485 0.0
C1008 C 0.55216 0.53263 0.05957 0.0
C1009 C 0.49522 0.51181 0.07374 0.0
C1010 C 0.54514 0.50216 0.04266 0.0
C1011 C 0.51387 0.47663 0.04257 0.0
H1012 H 0.06853 0.56938 0.40701 0.0
H1013 H 0.97169 0.5518 0.40812 0.0
H1014 H 0.95138 0.49456 0.40095 0.0
H1015 H 0.96094 0.4498 0.39305 0.0
H1016 H 0.05716 0.46609 0.39745 0.0
H1017 H 0.07795 0.52375 0.40334 0.0
C1018 C 0.04299 0.55305 0.40593 0.0
C1019 C 0.02171 0.565 0.40801 0.0
C1020 C 0.03137 0.52 0.40246 0.0
C1021 C 0.98866 0.54338 0.40682 0.0
C1022 C 0.97698 0.5106 0.40248 0.0
C1023 C 0.98644 0.4658 0.39532 0.0
C1024 C 0.00739 0.45352 0.39459 0.0
C1025 C 0.99811 0.4987 0.4 0.0
C1026 C 0.04045 0.47485 0.39791 0.0
C1027 C 0.05235 0.50782 0.40131 0.0
H1028 H 0.55891 0.02696 0.73174 0.0
H1029 H 0.4953 0.92574 0.71095 0.0
H1030 H 0.4494 0.93371 0.71307 0.0
H1031 H 0.427 0.96952 0.71961 0.0
H1032 H 0.49116 0.07106 0.73484 0.0
H1033 H 0.53677 0.06276 0.73599 0.0
C1034 C 0.53503 0.00658 0.72792 0.0
C1035 C 0.53074 0.97576 0.72185 0.0
C1036 C 0.50863 0.01137 0.72802 0.0
C1037 C 0.4995 0.94975 0.71619 0.0
C1038 C 0.47311 0.95426 0.71727 0.0
C1039 C 0.45095 0.98981 0.72342 0.0
C1040 C 0.45546 0.02084 0.72746 0.0
C1041 C 0.47736 0.98497 0.72308 0.0
C1042 C 0.48678 0.04688 0.73172 0.0
C1043 C 0.51301 0.04219 0.73241 0.0
H1044 H 0.56454 0.54297 0.58851 0.0
H1045 H 0.49247 0.57026 0.60349 0.0
H1046 H 0.45058 0.5147 0.59742 0.0
H1047 H 0.43405 0.45797 0.59133 0.0
H1048 H 0.50565 0.42977 0.58296 0.0
H1049 H 0.54784 0.48576 0.5827 0.0
C1050 C 0.53967 0.53675 0.5901 0.0
C1051 C 0.53179 0.56091 0.59633 0.0
C1052 C 0.51549 0.50445 0.58786 0.0
C1053 C 0.49938 0.55233 0.59884 0.0
C1054 C 0.47529 0.52046 0.59532 0.0
C1055 C 0.45886 0.46407 0.58892 0.0
C1056 C 0.46664 0.43969 0.58701 0.0
C1057 C 0.48304 0.49629 0.59026 0.0
C1058 C 0.49897 0.44804 0.58463 0.0
C1059 C 0.52315 0.48009 0.58447 0.0
H1060 H 0.02282 0.56536 0.93928 0.0
H1061 H 0.92157 0.4981 0.93324 0.0
H1062 H 0.93192 0.45376 0.93202 0.0
H1063 H 0.96943 0.43379 0.93243 0.0
H1064 H 0.07067 0.50039 0.94294 0.0
H1065 H 0.06052 0.54507 0.94313 0.0
C1066 C 0.00303 0.54101 0.93741 0.0
C1067 C 0.97146 0.5352 0.93578 0.0
C1068 C 0.00911 0.5154 0.93783 0.0
C1069 C 0.94611 0.50342 0.93424 0.0
C1070 C 0.95199 0.47795 0.93363 0.0
C1071 C 0.98934 0.45805 0.9348 0.0
C1072 C 0.02079 0.46361 0.93723 0.0
C1073 C 0.98336 0.48364 0.93541 0.0
C1074 C 0.0462 0.49528 0.94091 0.0
C1075 C 0.04044 0.52092 0.94089 0.0
H1076 H 0.55999 0.98226 0.26581 0.0
H1077 H 0.58756 0.07665 0.21114 0.0
H1078 H 0.53167 0.06313 0.20931 0.0
H1079 H 0.47514 0.02506 0.22598 0.0
H1080 H 0.44836 0.93208 0.28701 0.0
H1081 H 0.50364 0.94448 0.28339 0.0
C1082 C 0.55371 0.99973 0.25298 0.0
C1083 C 0.57782 0.03034 0.23845 0.0
C1084 C 0.52164 0.99209 0.25332 0.0
C1085 C 0.56941 0.05294 0.22267 0.0
C1086 C 0.53747 0.04523 0.2216 0.0
C1087 C 0.48133 0.00742 0.23824 0.0
C1088 C 0.45742 0.97753 0.25612 0.0
C1089 C 0.5134 0.01497 0.23733 0.0
C1090 C 0.46606 0.95516 0.27249 0.0
C1091 C 0.49777 0.96223 0.27059 0.0
loop_
_geom_bond_atom_site_label_1
_geom_bond_atom_site_label_2
_geom_bond_distance
_geom_bond_site_symmetry_2
_ccdc_geom_bond_type
Co0 O2 2.143 . S
Co0 O8 2.074 1_554 S
Co0 O11 2.093 . S
Co0 O24 2.097 . S
Co0 N41 2.151 . S
Co0 N49 2.214 . S
Co1 O2 2.160 . S
Co1 O7 2.058 1_554 S
Co1 O17 2.057 . S
Co1 O32 2.037 . S
Co1 N36 2.145 1_554 S
Co1 N57 2.257 . S
O2 Co0 2.143 . S
O2 Co1 2.160 . S
C3 O4 1.278 . S
C3 O11 1.224 . S
O4 C3 1.278 . S
C5 O6 1.245 . S
C5 O17 1.232 . S
O6 C5 1.245 . S
O7 Co1 2.058 1_556 S
O7 C33 1.269 . S
O8 Co0 2.074 1_556 S
O8 C33 1.257 . S
H9 C34 0.930 . S
H10 C40 0.930 . S
O11 Co0 2.093 . S
O11 C3 1.224 . S
H12 C44 0.929 . S
H13 C46 0.930 . S
H14 C47 0.930 . S
H15 C45 0.929 . S
H16 C48 0.928 . S
O17 Co1 2.057 . S
O17 C5 1.232 . S
H18 C37 0.929 . S
H19 C38 0.929 . S
H20 C50 0.931 . S
H21 C42 0.929 . S
H22 C51 0.930 . S
H23 C43 0.931 . S
O24 Co0 2.097 . S
O24 C52 1.214 . S
H25 C53 0.929 . S
H26 C54 0.929 . S
H27 C55 0.930 . S
H28 C56 0.929 . S
H29 C58 0.930 . S
H30 C35 0.930 . S
H31 C39 0.930 . S
O32 Co1 2.037 . S
O32 C52 1.234 . S
C33 O7 1.269 . S
C33 O8 1.257 . S
C34 H9 0.930 . S
C34 C37 1.388 . S
C34 C39 1.418 . S
C35 H30 0.930 . S
C35 C38 1.404 . S
C35 C39 1.353 . S
N36 Co1 2.145 1_556 S
N36 C37 1.397 . S
N36 C38 1.334 . S
C37 H18 0.929 . S
C37 C34 1.388 . S
C37 N36 1.397 . S
C38 H19 0.929 . S
C38 C35 1.404 . S
C38 N36 1.334 . S
C39 H31 0.930 . S
C39 C34 1.418 . S
C39 C35 1.353 . S
C40 H10 0.930 . S
C40 N41 1.330 . S
C40 C42 1.446 . S
N41 Co0 2.151 . S
N41 C40 1.330 . S
N41 C45 1.418 . S
C42 H21 0.929 . S
C42 C40 1.446 . S
C42 C43 1.332 . S
C43 H23 0.931 . S
C43 C42 1.332 . S
C43 C44 1.267 . S
C44 H12 0.929 . S
C44 C43 1.267 . S
C44 C45 1.251 . S
C45 H15 0.929 . S
C45 N41 1.418 . S
C45 C44 1.251 . S
C46 H13 0.930 . S
C46 C48 1.406 . S
C46 C51 1.261 . S
C47 H14 0.930 . S
C47 N49 1.325 . S
C47 C50 1.357 . S
C48 H16 0.928 . S
C48 C46 1.406 . S
C48 N49 1.261 . S
N49 Co0 2.214 . S
N49 C47 1.325 . S
N49 C48 1.261 . S
C50 H20 0.931 . S
C50 C47 1.357 . S
C50 C51 1.312 . S
C51 H22 0.930 . S
C51 C46 1.261 . S
C51 C50 1.312 . S
C52 O24 1.214 . S
C52 O32 1.234 . S
C53 H25 0.929 . S
C53 C56 1.391 . S
C53 C58 1.391 . S
C54 H26 0.929 . S
C54 C55 1.390 . S
C54 N57 1.391 . S
C55 H27 0.930 . S
C55 C54 1.390 . S
C55 C56 1.392 . S
C56 H28 0.929 . S
C56 C53 1.391 . S
C56 C55 1.392 . S
N57 Co1 2.257 . S
N57 C54 1.391 . S
N57 C58 1.388 . S
C58 H29 0.930 . S
C58 C53 1.391 . S
C58 N57 1.388 . S
Co59 O61 2.143 1_455 S
Co59 O67 2.074 . S
Co59 O70 2.093 . S
Co59 O83 2.097 1_455 S
Co59 N100 2.151 . S
Co59 N108 2.214 . S
Co60 O61 2.160 . S
Co60 O66 2.058 . S
Co60 O76 2.057 . S
Co60 O91 2.037 . S
Co60 N95 2.145 . S
Co60 N116 2.257 . S
O61 Co59 2.143 1_655 S
O61 Co60 2.160 . S
C62 O63 1.278 . S
C62 O70 1.224 1_655 S
O63 C62 1.278 . S
C64 O65 1.245 . S
C64 O76 1.232 . S
O65 C64 1.245 . S
O66 Co60 2.058 . S
O66 C92 1.269 . S
O67 Co59 2.074 . S
O67 C92 1.257 1_455 S
H68 C93 0.930 . S
H69 C99 0.930 1_655 S
O70 Co59 2.093 . S
O70 C62 1.224 1_455 S
H71 C103 0.929 . S
H72 C105 0.930 . S
H73 C106 0.930 . S
H74 C104 0.929 . S
H75 C107 0.928 . S
O76 Co60 2.057 . S
O76 C64 1.232 . S
H77 C96 0.929 . S
H78 C97 0.929 . S
H79 C109 0.931 . S
H80 C101 0.929 . S
H81 C110 0.930 . S
H82 C102 0.931 . S
O83 Co59 2.097 1_655 S
O83 C111 1.214 . S
H84 C112 0.929 . S
H85 C113 0.929 . S
H86 C114 0.930 . S
H87 C115 0.929 . S
H88 C117 0.930 . S
H89 C94 0.930 . S
H90 C98 0.930 . S
O91 Co60 2.037 . S
O91 C111 1.234 . S
C92 O66 1.269 . S
C92 O67 1.257 1_655 S
C93 H68 0.930 . S
C93 C96 1.388 . S
C93 C98 1.418 . S
C94 H89 0.930 . S
C94 C97 1.404 . S
C94 C98 1.353 . S
N95 Co60 2.145 . S
N95 C96 1.397 . S
N95 C97 1.334 . S
C96 H77 0.929 . S
C96 C93 1.388 . S
C96 N95 1.397 . S
C97 H78 0.929 . S
C97 C94 1.404 . S
C97 N95 1.334 . S
C98 H90 0.930 . S
C98 C93 1.418 . S
C98 C94 1.353 . S
C99 H69 0.930 1_455 S
C99 N100 1.330 . S
C99 C101 1.446 . S
N100 Co59 2.151 . S
N100 C99 1.330 . S
N100 C104 1.418 . S
C101 H80 0.929 . S
C101 C99 1.446 . S
C101 C102 1.332 . S
C102 H82 0.931 . S
C102 C101 1.332 . S
C102 C103 1.267 . S
C103 H71 0.929 . S
C103 C102 1.267 . S
C103 C104 1.251 . S
C104 H74 0.929 . S
C104 N100 1.418 . S
C104 C103 1.251 . S
C105 H72 0.930 . S
C105 C107 1.406 . S
C105 C110 1.261 . S
C106 H73 0.930 . S
C106 N108 1.325 . S
C106 C109 1.357 . S
C107 H75 0.928 . S
C107 C105 1.406 . S
C107 N108 1.261 . S
N108 Co59 2.214 . S
N108 C106 1.325 . S
N108 C107 1.261 . S
C109 H79 0.931 . S
C109 C106 1.357 . S
C109 C110 1.312 . S
C110 H81 0.930 . S
C110 C105 1.261 . S
C110 C109 1.312 . S
C111 O83 1.214 . S
C111 O91 1.234 . S
C112 H84 0.929 . S
C112 C115 1.391 . S
C112 C117 1.391 . S
C113 H85 0.929 . S
C113 C114 1.390 . S
C113 N116 1.391 . S
C114 H86 0.930 . S
C114 C113 1.390 . S
C114 C115 1.392 . S
C115 H87 0.929 . S
C115 C112 1.391 . S
C115 C114 1.392 . S
N116 Co60 2.257 . S
N116 C113 1.391 . S
N116 C117 1.388 . S
C117 H88 0.930 . S
C117 C112 1.391 . S
C117 N116 1.388 . S
Co118 O120 2.143 1_545 S
Co118 O126 2.074 . S
Co118 O129 2.093 . S
Co118 O142 2.097 1_545 S
Co118 N159 2.151 . S
Co118 N167 2.214 . S
Co119 O120 2.160 . S
Co119 O125 2.058 . S
Co119 O135 2.057 . S
Co119 O150 2.037 . S
Co119 N154 2.145 . S
Co119 N175 2.257 . S
O120 Co118 2.143 1_565 S
O120 Co119 2.160 . S
C121 O122 1.278 . S
C121 O129 1.224 1_565 S
O122 C121 1.278 . S
C123 O124 1.245 . S
C123 O135 1.232 . S
O124 C123 1.245 . S
O125 Co119 2.058 . S
O125 C151 1.269 . S
O126 Co118 2.074 . S
O126 C151 1.257 1_545 S
H127 C152 0.930 . S
H128 C158 0.930 1_565 S
O129 Co118 2.093 . S
O129 C121 1.224 1_545 S
H130 C162 0.929 . S
H131 C164 0.930 . S
H132 C165 0.930 . S
H133 C163 0.929 . S
H134 C166 0.928 . S
O135 Co119 2.057 . S
O135 C123 1.232 . S
H136 C155 0.929 . S
H137 C156 0.929 . S
H138 C168 0.931 . S
H139 C160 0.929 . S
H140 C169 0.930 . S
H141 C161 0.931 . S
O142 Co118 2.097 1_565 S
O142 C170 1.214 . S
H143 C171 0.929 . S
H144 C172 0.929 . S
H145 C173 0.930 . S
H146 C174 0.929 . S
H147 C176 0.930 . S
H148 C153 0.930 . S
H149 C157 0.930 . S
O150 Co119 2.037 . S
O150 C170 1.234 . S
C151 O125 1.269 . S
C151 O126 1.257 1_565 S
C152 H127 0.930 . S
C152 C155 1.388 . S
C152 C157 1.418 . S
C153 H148 0.930 . S
C153 C156 1.404 . S
C153 C157 1.353 . S
N154 Co119 2.145 . S
N154 C155 1.397 . S
N154 C156 1.334 . S
C155 H136 0.929 . S
C155 C152 1.388 . S
C155 N154 1.397 . S
C156 H137 0.929 . S
C156 C153 1.404 . S
C156 N154 1.334 . S
C157 H149 0.930 . S
C157 C152 1.418 . S
C157 C153 1.353 . S
C158 H128 0.930 1_545 S
C158 N159 1.330 . S
C158 C160 1.446 . S
N159 Co118 2.151 . S
N159 C158 1.330 . S
N159 C163 1.418 . S
C160 H139 0.929 . S
C160 C158 1.446 . S
C160 C161 1.332 . S
C161 H141 0.931 . S
C161 C160 1.332 . S
C161 C162 1.267 . S
C162 H130 0.929 . S
C162 C161 1.267 . S
C162 C163 1.251 . S
C163 H133 0.929 . S
C163 N159 1.418 . S
C163 C162 1.251 . S
C164 H131 0.930 . S
C164 C166 1.406 . S
C164 C169 1.261 . S
C165 H132 0.930 . S
C165 N167 1.325 . S
C165 C168 1.357 . S
C166 H134 0.928 . S
C166 C164 1.406 . S
C166 N167 1.261 . S
N167 Co118 2.214 . S
N167 C165 1.325 . S
N167 C166 1.261 . S
C168 H138 0.931 . S
C168 C165 1.357 . S
C168 C169 1.312 . S
C169 H140 0.930 . S
C169 C164 1.261 . S
C169 C168 1.312 . S
C170 O142 1.214 . S
C170 O150 1.234 . S
C171 H143 0.929 . S
C171 C174 1.391 . S
C171 C176 1.391 . S
C172 H144 0.929 . S
C172 C173 1.390 . S
C172 N175 1.391 . S
C173 H145 0.930 . S
C173 C172 1.390 . S
C173 C174 1.392 . S
C174 H146 0.929 . S
C174 C171 1.391 . S
C174 C173 1.392 . S
N175 Co119 2.257 . S
N175 C172 1.391 . S
N175 C176 1.388 . S
C176 H147 0.930 . S
C176 C171 1.391 . S
C176 N175 1.388 . S
Co177 O179 2.143 . S
Co177 O185 2.074 1_554 S
Co177 O188 2.093 . S
Co177 O201 2.097 . S
Co177 N218 2.151 . S
Co177 N226 2.214 . S
Co178 O179 2.160 . S
Co178 O184 2.058 1_554 S
Co178 O194 2.057 . S
Co178 O209 2.037 . S
Co178 N213 2.145 1_554 S
Co178 N234 2.257 . S
O179 Co177 2.143 . S
O179 Co178 2.160 . S
C180 O181 1.278 . S
C180 O188 1.224 . S
O181 C180 1.278 . S
C182 O183 1.245 . S
C182 O194 1.232 . S
O183 C182 1.245 . S
O184 Co178 2.058 1_556 S
O184 C210 1.269 . S
O185 Co177 2.074 1_556 S
O185 C210 1.257 . S
H186 C211 0.930 . S
H187 C217 0.930 . S
O188 Co177 2.093 . S
O188 C180 1.224 . S
H189 C221 0.929 . S
H190 C223 0.930 . S
H191 C224 0.930 . S
H192 C222 0.929 . S
H193 C225 0.928 . S
O194 Co178 2.057 . S
O194 C182 1.232 . S
H195 C214 0.929 . S
H196 C215 0.929 . S
H197 C227 0.931 . S
H198 C219 0.929 . S
H199 C228 0.930 . S
H200 C220 0.931 . S
O201 Co177 2.097 . S
O201 C229 1.214 . S
H202 C230 0.929 . S
H203 C231 0.929 . S
H204 C232 0.930 . S
H205 C233 0.929 . S
H206 C235 0.930 . S
H207 C212 0.930 . S
H208 C216 0.930 . S
O209 Co178 2.037 . S
O209 C229 1.234 . S
C210 O184 1.269 . S
C210 O185 1.257 . S
C211 H186 0.930 . S
C211 C214 1.388 . S
C211 C216 1.418 . S
C212 H207 0.930 . S
C212 C215 1.404 . S
C212 C216 1.353 . S
N213 Co178 2.145 1_556 S
N213 C214 1.397 . S
N213 C215 1.334 . S
C214 H195 0.929 . S
C214 C211 1.388 . S
C214 N213 1.397 . S
C215 H196 0.929 . S
C215 C212 1.404 . S
C215 N213 1.334 . S
C216 H208 0.930 . S
C216 C211 1.418 . S
C216 C212 1.353 . S
C217 H187 0.930 . S
C217 N218 1.330 . S
C217 C219 1.446 . S
N218 Co177 2.151 . S
N218 C217 1.330 . S
N218 C222 1.418 . S
C219 H198 0.929 . S
C219 C217 1.446 . S
C219 C220 1.332 . S
C220 H200 0.931 . S
C220 C219 1.332 . S
C220 C221 1.267 . S
C221 H189 0.929 . S
C221 C220 1.267 . S
C221 C222 1.251 . S
C222 H192 0.929 . S
C222 N218 1.418 . S
C222 C221 1.251 . S
C223 H190 0.930 . S
C223 C225 1.406 . S
C223 C228 1.261 . S
C224 H191 0.930 . S
C224 N226 1.325 . S
C224 C227 1.357 . S
C225 H193 0.928 . S
C225 C223 1.406 . S
C225 N226 1.261 . S
N226 Co177 2.214 . S
N226 C224 1.325 . S
N226 C225 1.261 . S
C227 H197 0.931 . S
C227 C224 1.357 . S
C227 C228 1.312 . S
C228 H199 0.930 . S
C228 C223 1.261 . S
C228 C227 1.312 . S
C229 O201 1.214 . S
C229 O209 1.234 . S
C230 H202 0.929 . S
C230 C233 1.391 . S
C230 C235 1.391 . S
C231 H203 0.929 . S
C231 C232 1.390 . S
C231 N234 1.391 . S
C232 H204 0.930 . S
C232 C231 1.390 . S
C232 C233 1.392 . S
C233 H205 0.929 . S
C233 C230 1.391 . S
C233 C232 1.392 . S
N234 Co178 2.257 . S
N234 C231 1.391 . S
N234 C235 1.388 . S
C235 H206 0.930 . S
C235 C230 1.391 . S
C235 N234 1.388 . S
Co236 O238 2.143 1_655 S
Co236 O244 2.074 . S
Co236 O247 2.093 . S
Co236 O260 2.097 1_655 S
Co236 N277 2.151 . S
Co236 N285 2.214 . S
Co237 O238 2.160 . S
Co237 O243 2.058 . S
Co237 O253 2.057 . S
Co237 O268 2.037 . S
Co237 N272 2.145 . S
Co237 N293 2.257 . S
O238 Co236 2.143 1_455 S
O238 Co237 2.160 . S
C239 O240 1.278 . S
C239 O247 1.224 1_455 S
O240 C239 1.278 . S
C241 O242 1.245 . S
C241 O253 1.232 . S
O242 C241 1.245 . S
O243 Co237 2.058 . S
O243 C269 1.269 . S
O244 Co236 2.074 . S
O244 C269 1.257 1_655 S
H245 C270 0.930 . S
H246 C276 0.930 1_455 S
O247 Co236 2.093 . S
O247 C239 1.224 1_655 S
H248 C280 0.929 . S
H249 C282 0.930 . S
H250 C283 0.930 . S
H251 C281 0.929 . S
H252 C284 0.928 . S
O253 Co237 2.057 . S
O253 C241 1.232 . S
H254 C273 0.929 . S
H255 C274 0.929 . S
H256 C286 0.931 . S
H257 C278 0.929 . S
H258 C287 0.930 . S
H259 C279 0.931 . S
O260 Co236 2.097 1_455 S
O260 C288 1.214 . S
H261 C289 0.929 . S
H262 C290 0.929 . S
H263 C291 0.930 . S
H264 C292 0.929 . S
H265 C294 0.930 . S
H266 C271 0.930 . S
H267 C275 0.930 . S
O268 Co237 2.037 . S
O268 C288 1.234 . S
C269 O243 1.269 . S
C269 O244 1.257 1_455 S
C270 H245 0.930 . S
C270 C273 1.388 . S
C270 C275 1.418 . S
C271 H266 0.930 . S
C271 C274 1.404 . S
C271 C275 1.353 . S
N272 Co237 2.145 . S
N272 C273 1.397 . S
N272 C274 1.334 . S
C273 H254 0.929 . S
C273 C270 1.388 . S
C273 N272 1.397 . S
C274 H255 0.929 . S
C274 C271 1.404 . S
C274 N272 1.334 . S
C275 H267 0.930 . S
C275 C270 1.418 . S
C275 C271 1.353 . S
C276 H246 0.930 1_655 S
C276 N277 1.330 . S
C276 C278 1.446 . S
N277 Co236 2.151 . S
N277 C276 1.330 . S
N277 C281 1.418 . S
C278 H257 0.929 . S
C278 C276 1.446 . S
C278 C279 1.332 . S
C279 H259 0.931 . S
C279 C278 1.332 . S
C279 C280 1.267 . S
C280 H248 0.929 . S
C280 C279 1.267 . S
C280 C281 1.251 . S
C281 H251 0.929 . S
C281 N277 1.418 . S
C281 C280 1.251 . S
C282 H249 0.930 . S
C282 C284 1.406 . S
C282 C287 1.261 . S
C283 H250 0.930 . S
C283 N285 1.325 . S
C283 C286 1.357 . S
C284 H252 0.928 . S
C284 C282 1.406 . S
C284 N285 1.261 . S
N285 Co236 2.214 . S
N285 C283 1.325 . S
N285 C284 1.261 . S
C286 H256 0.931 . S
C286 C283 1.357 . S
C286 C287 1.312 . S
C287 H258 0.930 . S
C287 C282 1.261 . S
C287 C286 1.312 . S
C288 O260 1.214 . S
C288 O268 1.234 . S
C289 H261 0.929 . S
C289 C292 1.391 . S
C289 C294 1.391 . S
C290 H262 0.929 . S
C290 C291 1.390 . S
C290 N293 1.391 . S
C291 H263 0.930 . S
C291 C290 1.390 . S
C291 C292 1.392 . S
C292 H264 0.929 . S
C292 C289 1.391 . S
C292 C291 1.392 . S
N293 Co237 2.257 . S
N293 C290 1.391 . S
N293 C294 1.388 . S
C294 H265 0.930 . S
C294 C289 1.391 . S
C294 N293 1.388 . S
Co295 O297 2.143 1_565 S
Co295 O303 2.074 . S
Co295 O306 2.093 . S
Co295 O319 2.097 1_565 S
Co295 N336 2.151 . S
Co295 N344 2.214 . S
Co296 O297 2.160 . S
Co296 O302 2.058 . S
Co296 O312 2.057 . S
Co296 O327 2.037 . S
Co296 N331 2.145 . S
Co296 N352 2.257 . S
O297 Co295 2.143 1_545 S
O297 Co296 2.160 . S
C298 O299 1.278 . S
C298 O306 1.224 1_545 S
O299 C298 1.278 . S
C300 O301 1.245 . S
C300 O312 1.232 . S
O301 C300 1.245 . S
O302 Co296 2.058 . S
O302 C328 1.269 . S
O303 Co295 2.074 . S
O303 C328 1.257 1_565 S
H304 C329 0.930 . S
H305 C335 0.930 1_545 S
O306 Co295 2.093 . S
O306 C298 1.224 1_565 S
H307 C339 0.929 . S
H308 C341 0.930 . S
H309 C342 0.930 . S
H310 C340 0.929 . S
H311 C343 0.928 . S
O312 Co296 2.057 . S
O312 C300 1.232 . S
H313 C332 0.929 . S
H314 C333 0.929 . S
H315 C345 0.931 . S
H316 C337 0.929 . S
H317 C346 0.930 . S
H318 C338 0.931 . S
O319 Co295 2.097 1_545 S
O319 C347 1.214 . S
H320 C348 0.929 . S
H321 C349 0.929 . S
H322 C350 0.930 . S
H323 C351 0.929 . S
H324 C353 0.930 . S
H325 C330 0.930 . S
H326 C334 0.930 . S
O327 Co296 2.037 . S
O327 C347 1.234 . S
C328 O302 1.269 . S
C328 O303 1.257 1_545 S
C329 H304 0.930 . S
C329 C332 1.388 . S
C329 C334 1.418 . S
C330 H325 0.930 . S
C330 C333 1.404 . S
C330 C334 1.353 . S
N331 Co296 2.145 . S
N331 C332 1.397 . S
N331 C333 1.334 . S
C332 H313 0.929 . S
C332 C329 1.388 . S
C332 N331 1.397 . S
C333 H314 0.929 . S
C333 C330 1.404 . S
C333 N331 1.334 . S
C334 H326 0.930 . S
C334 C329 1.418 . S
C334 C330 1.353 . S
C335 H305 0.930 1_565 S
C335 N336 1.330 . S
C335 C337 1.446 . S
N336 Co295 2.151 . S
N336 C335 1.330 . S
N336 C340 1.418 . S
C337 H316 0.929 . S
C337 C335 1.446 . S
C337 C338 1.332 . S
C338 H318 0.931 . S
C338 C337 1.332 . S
C338 C339 1.267 . S
C339 H307 0.929 . S
C339 C338 1.267 . S
C339 C340 1.251 . S
C340 H310 0.929 . S
C340 N336 1.418 . S
C340 C339 1.251 . S
C341 H308 0.930 . S
C341 C343 1.406 . S
C341 C346 1.261 . S
C342 H309 0.930 . S
C342 N344 1.325 . S
C342 C345 1.357 . S
C343 H311 0.928 . S
C343 C341 1.406 . S
C343 N344 1.261 . S
N344 Co295 2.214 . S
N344 C342 1.325 . S
N344 C343 1.261 . S
C345 H315 0.931 . S
C345 C342 1.357 . S
C345 C346 1.312 . S
C346 H317 0.930 . S
C346 C341 1.261 . S
C346 C345 1.312 . S
C347 O319 1.214 . S
C347 O327 1.234 . S
C348 H320 0.929 . S
C348 C351 1.391 . S
C348 C353 1.391 . S
C349 H321 0.929 . S
C349 C350 1.390 . S
C349 N352 1.391 . S
C350 H322 0.930 . S
C350 C349 1.390 . S
C350 C351 1.392 . S
C351 H323 0.929 . S
C351 C348 1.391 . S
C351 C350 1.392 . S
N352 Co296 2.257 . S
N352 C349 1.391 . S
N352 C353 1.388 . S
C353 H324 0.930 . S
C353 C348 1.391 . S
C353 N352 1.388 . S
Co354 O356 2.143 . S
Co354 O362 2.074 . S
Co354 O365 2.093 . S
Co354 O378 2.097 . S
Co354 N395 2.151 . S
Co354 N403 2.214 . S
Co355 O356 2.160 . S
Co355 O361 2.058 . S
Co355 O371 2.057 . S
Co355 O386 2.037 . S
Co355 N390 2.145 . S
Co355 N411 2.257 . S
O356 Co354 2.143 . S
O356 Co355 2.160 . S
C357 O358 1.278 . S
C357 O365 1.224 . S
O358 C357 1.278 . S
C359 O360 1.245 . S
C359 O371 1.232 . S
O360 C359 1.245 . S
O361 Co355 2.058 . S
O361 C387 1.269 . S
O362 Co354 2.074 . S
O362 C387 1.257 . S
H363 C388 0.930 . S
H364 C394 0.930 . S
O365 Co354 2.093 . S
O365 C357 1.224 . S
H366 C398 0.929 . S
H367 C400 0.930 . S
H368 C401 0.930 . S
H369 C399 0.929 . S
H370 C402 0.928 . S
O371 Co355 2.057 . S
O371 C359 1.232 . S
H372 C391 0.929 . S
H373 C392 0.929 . S
H374 C404 0.931 . S
H375 C396 0.929 . S
H376 C405 0.930 . S
H377 C397 0.931 . S
O378 Co354 2.097 . S
O378 C406 1.214 . S
H379 C407 0.929 . S
H380 C408 0.929 . S
H381 C409 0.930 . S
H382 C410 0.929 . S
H383 C412 0.930 . S
H384 C389 0.930 . S
H385 C393 0.930 . S
O386 Co355 2.037 . S
O386 C406 1.234 . S
C387 O361 1.269 . S
C387 O362 1.257 . S
C388 H363 0.930 . S
C388 C391 1.388 . S
C388 C393 1.418 . S
C389 H384 0.930 . S
C389 C392 1.404 . S
C389 C393 1.353 . S
N390 Co355 2.145 . S
N390 C391 1.397 . S
N390 C392 1.334 . S
C391 H372 0.929 . S
C391 C388 1.388 . S
C391 N390 1.397 . S
C392 H373 0.929 . S
C392 C389 1.404 . S
C392 N390 1.334 . S
C393 H385 0.930 . S
C393 C388 1.418 . S
C393 C389 1.353 . S
C394 H364 0.930 . S
C394 N395 1.330 . S
C394 C396 1.446 . S
N395 Co354 2.151 . S
N395 C394 1.330 . S
N395 C399 1.418 . S
C396 H375 0.929 . S
C396 C394 1.446 . S
C396 C397 1.332 . S
C397 H377 0.931 . S
C397 C396 1.332 . S
C397 C398 1.267 . S
C398 H366 0.929 . S
C398 C397 1.267 . S
C398 C399 1.251 . S
C399 H369 0.929 . S
C399 N395 1.418 . S
C399 C398 1.251 . S
C400 H367 0.930 . S
C400 C402 1.406 . S
C400 C405 1.261 . S
C401 H368 0.930 . S
C401 N403 1.325 . S
C401 C404 1.357 . S
C402 H370 0.928 . S
C402 C400 1.406 . S
C402 N403 1.261 . S
N403 Co354 2.214 . S
N403 C401 1.325 . S
N403 C402 1.261 . S
C404 H374 0.931 . S
C404 C401 1.357 . S
C404 C405 1.312 . S
C405 H376 0.930 . S
C405 C400 1.261 . S
C405 C404 1.312 . S
C406 O378 1.214 . S
C406 O386 1.234 . S
C407 H379 0.929 . S
C407 C410 1.391 . S
C407 C412 1.391 . S
C408 H380 0.929 . S
C408 C409 1.390 . S
C408 N411 1.391 . S
C409 H381 0.930 . S
C409 C408 1.390 . S
C409 C410 1.392 . S
C410 H382 0.929 . S
C410 C407 1.391 . S
C410 C409 1.392 . S
N411 Co355 2.257 . S
N411 C408 1.391 . S
N411 C412 1.388 . S
C412 H383 0.930 . S
C412 C407 1.391 . S
C412 N411 1.388 . S
Co413 O415 2.143 1_455 S
Co413 O421 2.074 1_556 S
Co413 O424 2.093 . S
Co413 O437 2.097 1_455 S
Co413 N454 2.151 . S
Co413 N462 2.214 . S
Co414 O415 2.160 . S
Co414 O420 2.058 1_556 S
Co414 O430 2.057 . S
Co414 O445 2.037 . S
Co414 N449 2.145 1_556 S
Co414 N470 2.257 . S
O415 Co413 2.143 1_655 S
O415 Co414 2.160 . S
C416 O417 1.278 . S
C416 O424 1.224 1_655 S
O417 C416 1.278 . S
C418 O419 1.245 . S
C418 O430 1.232 . S
O419 C418 1.245 . S
O420 Co414 2.058 1_554 S
O420 C446 1.269 . S
O421 Co413 2.074 1_554 S
O421 C446 1.257 1_455 S
H422 C447 0.930 . S
H423 C453 0.930 1_655 S
O424 Co413 2.093 . S
O424 C416 1.224 1_455 S
H425 C457 0.929 . S
H426 C459 0.930 . S
H427 C460 0.930 . S
H428 C458 0.929 . S
H429 C461 0.928 . S
O430 Co414 2.057 . S
O430 C418 1.232 . S
H431 C450 0.929 . S
H432 C451 0.929 . S
H433 C463 0.931 . S
H434 C455 0.929 . S
H435 C464 0.930 . S
H436 C456 0.931 . S
O437 Co413 2.097 1_655 S
O437 C465 1.214 . S
H438 C466 0.929 . S
H439 C467 0.929 . S
H440 C468 0.930 . S
H441 C469 0.929 . S
H442 C471 0.930 . S
H443 C448 0.930 . S
H444 C452 0.930 . S
O445 Co414 2.037 . S
O445 C465 1.234 . S
C446 O420 1.269 . S
C446 O421 1.257 1_655 S
C447 H422 0.930 . S
C447 C450 1.388 . S
C447 C452 1.418 . S
C448 H443 0.930 . S
C448 C451 1.404 . S
C448 C452 1.353 . S
N449 Co414 2.145 1_554 S
N449 C450 1.397 . S
N449 C451 1.334 . S
C450 H431 0.929 . S
C450 C447 1.388 . S
C450 N449 1.397 . S
C451 H432 0.929 . S
C451 C448 1.404 . S
C451 N449 1.334 . S
C452 H444 0.930 . S
C452 C447 1.418 . S
C452 C448 1.353 . S
C453 H423 0.930 1_455 S
C453 N454 1.330 . S
C453 C455 1.446 . S
N454 Co413 2.151 . S
N454 C453 1.330 . S
N454 C458 1.418 . S
C455 H434 0.929 . S
C455 C453 1.446 . S
C455 C456 1.332 . S
C456 H436 0.931 . S
C456 C455 1.332 . S
C456 C457 1.267 . S
C457 H425 0.929 . S
C457 C456 1.267 . S
C457 C458 1.251 . S
C458 H428 0.929 . S
C458 N454 1.418 . S
C458 C457 1.251 . S
C459 H426 0.930 . S
C459 C461 1.406 . S
C459 C464 1.261 . S
C460 H427 0.930 . S
C460 N462 1.325 . S
C460 C463 1.357 . S
C461 H429 0.928 . S
C461 C459 1.406 . S
C461 N462 1.261 . S
N462 Co413 2.214 . S
N462 C460 1.325 . S
N462 C461 1.261 . S
C463 H433 0.931 . S
C463 C460 1.357 . S
C463 C464 1.312 . S
C464 H435 0.930 . S
C464 C459 1.261 . S
C464 C463 1.312 . S
C465 O437 1.214 . S
C465 O445 1.234 . S
C466 H438 0.929 . S
C466 C469 1.391 . S
C466 C471 1.391 . S
C467 H439 0.929 . S
C467 C468 1.390 . S
C467 N470 1.391 . S
C468 H440 0.930 . S
C468 C467 1.390 . S
C468 C469 1.392 . S
C469 H441 0.929 . S
C469 C466 1.391 . S
C469 C468 1.392 . S
N470 Co414 2.257 . S
N470 C467 1.391 . S
N470 C471 1.388 . S
C471 H442 0.930 . S
C471 C466 1.391 . S
C471 N470 1.388 . S
Co472 O474 2.143 1_545 S
Co472 O480 2.074 . S
Co472 O483 2.093 . S
Co472 O496 2.097 1_545 S
Co472 N513 2.151 . S
Co472 N521 2.214 . S
Co473 O474 2.160 . S
Co473 O479 2.058 . S
Co473 O489 2.057 . S
Co473 O504 2.037 . S
Co473 N508 2.145 . S
Co473 N529 2.257 . S
O474 Co472 2.143 1_565 S
O474 Co473 2.160 . S
C475 O476 1.278 . S
C475 O483 1.224 1_565 S
O476 C475 1.278 . S
C477 O478 1.245 . S
C477 O489 1.232 . S
O478 C477 1.245 . S
O479 Co473 2.058 . S
O479 C505 1.269 . S
O480 Co472 2.074 . S
O480 C505 1.257 1_545 S
H481 C506 0.930 . S
H482 C512 0.930 1_565 S
O483 Co472 2.093 . S
O483 C475 1.224 1_545 S
H484 C516 0.929 . S
H485 C518 0.930 . S
H486 C519 0.930 . S
H487 C517 0.929 . S
H488 C520 0.928 . S
O489 Co473 2.057 . S
O489 C477 1.232 . S
H490 C509 0.929 . S
H491 C510 0.929 . S
H492 C522 0.931 . S
H493 C514 0.929 . S
H494 C523 0.930 . S
H495 C515 0.931 . S
O496 Co472 2.097 1_565 S
O496 C524 1.214 . S
H497 C525 0.929 . S
H498 C526 0.929 . S
H499 C527 0.930 . S
H500 C528 0.929 . S
H501 C530 0.930 . S
H502 C507 0.930 . S
H503 C511 0.930 . S
O504 Co473 2.037 . S
O504 C524 1.234 . S
C505 O479 1.269 . S
C505 O480 1.257 1_565 S
C506 H481 0.930 . S
C506 C509 1.388 . S
C506 C511 1.418 . S
C507 H502 0.930 . S
C507 C510 1.404 . S
C507 C511 1.353 . S
N508 Co473 2.145 . S
N508 C509 1.397 . S
N508 C510 1.334 . S
C509 H490 0.929 . S
C509 C506 1.388 . S
C509 N508 1.397 . S
C510 H491 0.929 . S
C510 C507 1.404 . S
C510 N508 1.334 . S
C511 H503 0.930 . S
C511 C506 1.418 . S
C511 C507 1.353 . S
C512 H482 0.930 1_545 S
C512 N513 1.330 . S
C512 C514 1.446 . S
N513 Co472 2.151 . S
N513 C512 1.330 . S
N513 C517 1.418 . S
C514 H493 0.929 . S
C514 C512 1.446 . S
C514 C515 1.332 . S
C515 H495 0.931 . S
C515 C514 1.332 . S
C515 C516 1.267 . S
C516 H484 0.929 . S
C516 C515 1.267 . S
C516 C517 1.251 . S
C517 H487 0.929 . S
C517 N513 1.418 . S
C517 C516 1.251 . S
C518 H485 0.930 . S
C518 C520 1.406 . S
C518 C523 1.261 . S
C519 H486 0.930 . S
C519 N521 1.325 . S
C519 C522 1.357 . S
C520 H488 0.928 . S
C520 C518 1.406 . S
C520 N521 1.261 . S
N521 Co472 2.214 . S
N521 C519 1.325 . S
N521 C520 1.261 . S
C522 H492 0.931 . S
C522 C519 1.357 . S
C522 C523 1.312 . S
C523 H494 0.930 . S
C523 C518 1.261 . S
C523 C522 1.312 . S
C524 O496 1.214 . S
C524 O504 1.234 . S
C525 H497 0.929 . S
C525 C528 1.391 . S
C525 C530 1.391 . S
C526 H498 0.929 . S
C526 C527 1.390 . S
C526 N529 1.391 . S
C527 H499 0.930 . S
C527 C526 1.390 . S
C527 C528 1.392 . S
C528 H500 0.929 . S
C528 C525 1.391 . S
C528 C527 1.392 . S
N529 Co473 2.257 . S
N529 C526 1.391 . S
N529 C530 1.388 . S
C530 H501 0.930 . S
C530 C525 1.391 . S
C530 N529 1.388 . S
Co531 O533 2.143 . S
Co531 O539 2.074 . S
Co531 O542 2.093 . S
Co531 O555 2.097 . S
Co531 N572 2.151 . S
Co531 N580 2.214 . S
Co532 O533 2.160 . S
Co532 O538 2.058 . S
Co532 O548 2.057 . S
Co532 O563 2.037 . S
Co532 N567 2.145 . S
Co532 N588 2.257 . S
O533 Co531 2.143 . S
O533 Co532 2.160 . S
C534 O535 1.278 . S
C534 O542 1.224 . S
O535 C534 1.278 . S
C536 O537 1.245 . S
C536 O548 1.232 . S
O537 C536 1.245 . S
O538 Co532 2.058 . S
O538 C564 1.269 . S
O539 Co531 2.074 . S
O539 C564 1.257 . S
H540 C565 0.930 . S
H541 C571 0.930 . S
O542 Co531 2.093 . S
O542 C534 1.224 . S
H543 C575 0.929 . S
H544 C577 0.930 . S
H545 C578 0.930 . S
H546 C576 0.929 . S
H547 C579 0.928 . S
O548 Co532 2.057 . S
O548 C536 1.232 . S
H549 C568 0.929 . S
H550 C569 0.929 . S
H551 C581 0.931 . S
H552 C573 0.929 . S
H553 C582 0.930 . S
H554 C574 0.931 . S
O555 Co531 2.097 . S
O555 C583 1.214 . S
H556 C584 0.929 . S
H557 C585 0.929 . S
H558 C586 0.930 . S
H559 C587 0.929 . S
H560 C589 0.930 . S
H561 C566 0.930 . S
H562 C570 0.930 . S
O563 Co532 2.037 . S
O563 C583 1.234 . S
C564 O538 1.269 . S
C564 O539 1.257 . S
C565 H540 0.930 . S
C565 C568 1.388 . S
C565 C570 1.418 . S
C566 H561 0.930 . S
C566 C569 1.404 . S
C566 C570 1.353 . S
N567 Co532 2.145 . S
N567 C568 1.397 . S
N567 C569 1.334 . S
C568 H549 0.929 . S
C568 C565 1.388 . S
C568 N567 1.397 . S
C569 H550 0.929 . S
C569 C566 1.404 . S
C569 N567 1.334 . S
C570 H562 0.930 . S
C570 C565 1.418 . S
C570 C566 1.353 . S
C571 H541 0.930 . S
C571 N572 1.330 . S
C571 C573 1.446 . S
N572 Co531 2.151 . S
N572 C571 1.330 . S
N572 C576 1.418 . S
C573 H552 0.929 . S
C573 C571 1.446 . S
C573 C574 1.332 . S
C574 H554 0.931 . S
C574 C573 1.332 . S
C574 C575 1.267 . S
C575 H543 0.929 . S
C575 C574 1.267 . S
C575 C576 1.251 . S
C576 H546 0.929 . S
C576 N572 1.418 . S
C576 C575 1.251 . S
C577 H544 0.930 . S
C577 C579 1.406 . S
C577 C582 1.261 . S
C578 H545 0.930 . S
C578 N580 1.325 . S
C578 C581 1.357 . S
C579 H547 0.928 . S
C579 C577 1.406 . S
C579 N580 1.261 . S
N580 Co531 2.214 . S
N580 C578 1.325 . S
N580 C579 1.261 . S
C581 H551 0.931 . S
C581 C578 1.357 . S
C581 C582 1.312 . S
C582 H553 0.930 . S
C582 C577 1.261 . S
C582 C581 1.312 . S
C583 O555 1.214 . S
C583 O563 1.234 . S
C584 H556 0.929 . S
C584 C587 1.391 . S
C584 C589 1.391 . S
C585 H557 0.929 . S
C585 C586 1.390 . S
C585 N588 1.391 . S
C586 H558 0.930 . S
C586 C585 1.390 . S
C586 C587 1.392 . S
C587 H559 0.929 . S
C587 C584 1.391 . S
C587 C586 1.392 . S
N588 Co532 2.257 . S
N588 C585 1.391 . S
N588 C589 1.388 . S
C589 H560 0.930 . S
C589 C584 1.391 . S
C589 N588 1.388 . S
Co590 O592 2.143 1_655 S
Co590 O598 2.074 1_556 S
Co590 O601 2.093 . S
Co590 O614 2.097 1_655 S
Co590 N631 2.151 . S
Co590 N639 2.214 . S
Co591 O592 2.160 . S
Co591 O597 2.058 1_556 S
Co591 O607 2.057 . S
Co591 O622 2.037 . S
Co591 N626 2.145 1_556 S
Co591 N647 2.257 . S
O592 Co590 2.143 1_455 S
O592 Co591 2.160 . S
C593 O594 1.278 . S
C593 O601 1.224 1_455 S
O594 C593 1.278 . S
C595 O596 1.245 . S
C595 O607 1.232 . S
O596 C595 1.245 . S
O597 Co591 2.058 1_554 S
O597 C623 1.269 . S
O598 Co590 2.074 1_554 S
O598 C623 1.257 1_655 S
H599 C624 0.930 . S
H600 C630 0.930 1_455 S
O601 Co590 2.093 . S
O601 C593 1.224 1_655 S
H602 C634 0.929 . S
H603 C636 0.930 . S
H604 C637 0.930 . S
H605 C635 0.929 . S
H606 C638 0.928 . S
O607 Co591 2.057 . S
O607 C595 1.232 . S
H608 C627 0.929 . S
H609 C628 0.929 . S
H610 C640 0.931 . S
H611 C632 0.929 . S
H612 C641 0.930 . S
H613 C633 0.931 . S
O614 Co590 2.097 1_455 S
O614 C642 1.214 . S
H615 C643 0.929 . S
H616 C644 0.929 . S
H617 C645 0.930 . S
H618 C646 0.929 . S
H619 C648 0.930 . S
H620 C625 0.930 . S
H621 C629 0.930 . S
O622 Co591 2.037 . S
O622 C642 1.234 . S
C623 O597 1.269 . S
C623 O598 1.257 1_455 S
C624 H599 0.930 . S
C624 C627 1.388 . S
C624 C629 1.418 . S
C625 H620 0.930 . S
C625 C628 1.404 . S
C625 C629 1.353 . S
N626 Co591 2.145 1_554 S
N626 C627 1.397 . S
N626 C628 1.334 . S
C627 H608 0.929 . S
C627 C624 1.388 . S
C627 N626 1.397 . S
C628 H609 0.929 . S
C628 C625 1.404 . S
C628 N626 1.334 . S
C629 H621 0.930 . S
C629 C624 1.418 . S
C629 C625 1.353 . S
C630 H600 0.930 1_655 S
C630 N631 1.330 . S
C630 C632 1.446 . S
N631 Co590 2.151 . S
N631 C630 1.330 . S
N631 C635 1.418 . S
C632 H611 0.929 . S
C632 C630 1.446 . S
C632 C633 1.332 . S
C633 H613 0.931 . S
C633 C632 1.332 . S
C633 C634 1.267 . S
C634 H602 0.929 . S
C634 C633 1.267 . S
C634 C635 1.251 . S
C635 H605 0.929 . S
C635 N631 1.418 . S
C635 C634 1.251 . S
C636 H603 0.930 . S
C636 C638 1.406 . S
C636 C641 1.261 . S
C637 H604 0.930 . S
C637 N639 1.325 . S
C637 C640 1.357 . S
C638 H606 0.928 . S
C638 C636 1.406 . S
C638 N639 1.261 . S
N639 Co590 2.214 . S
N639 C637 1.325 . S
N639 C638 1.261 . S
C640 H610 0.931 . S
C640 C637 1.357 . S
C640 C641 1.312 . S
C641 H612 0.930 . S
C641 C636 1.261 . S
C641 C640 1.312 . S
C642 O614 1.214 . S
C642 O622 1.234 . S
C643 H615 0.929 . S
C643 C646 1.391 . S
C643 C648 1.391 . S
C644 H616 0.929 . S
C644 C645 1.390 . S
C644 N647 1.391 . S
C645 H617 0.930 . S
C645 C644 1.390 . S
C645 C646 1.392 . S
C646 H618 0.929 . S
C646 C643 1.391 . S
C646 C645 1.392 . S
N647 Co591 2.257 . S
N647 C644 1.391 . S
N647 C648 1.388 . S
C648 H619 0.930 . S
C648 C643 1.391 . S
C648 N647 1.388 . S
Co649 O651 2.143 1_565 S
Co649 O657 2.074 . S
Co649 O660 2.093 . S
Co649 O673 2.097 1_565 S
Co649 N690 2.151 . S
Co649 N698 2.214 . S
Co650 O651 2.160 . S
Co650 O656 2.058 . S
Co650 O666 2.057 . S
Co650 O681 2.037 . S
Co650 N685 2.145 . S
Co650 N706 2.257 . S
O651 Co649 2.143 1_545 S
O651 Co650 2.160 . S
C652 O653 1.278 . S
C652 O660 1.224 1_545 S
O653 C652 1.278 . S
C654 O655 1.245 . S
C654 O666 1.232 . S
O655 C654 1.245 . S
O656 Co650 2.058 . S
O656 C682 1.269 . S
O657 Co649 2.074 . S
O657 C682 1.257 1_565 S
H658 C683 0.930 . S
H659 C689 0.930 1_545 S
O660 Co649 2.093 . S
O660 C652 1.224 1_565 S
H661 C693 0.929 . S
H662 C695 0.930 . S
H663 C696 0.930 . S
H664 C694 0.929 . S
H665 C697 0.928 . S
O666 Co650 2.057 . S
O666 C654 1.232 . S
H667 C686 0.929 . S
H668 C687 0.929 . S
H669 C699 0.931 . S
H670 C691 0.929 . S
H671 C700 0.930 . S
H672 C692 0.931 . S
O673 Co649 2.097 1_545 S
O673 C701 1.214 . S
H674 C702 0.929 . S
H675 C703 0.929 . S
H676 C704 0.930 . S
H677 C705 0.929 . S
H678 C707 0.930 . S
H679 C684 0.930 . S
H680 C688 0.930 . S
O681 Co650 2.037 . S
O681 C701 1.234 . S
C682 O656 1.269 . S
C682 O657 1.257 1_545 S
C683 H658 0.930 . S
C683 C686 1.388 . S
C683 C688 1.418 . S
C684 H679 0.930 . S
C684 C687 1.404 . S
C684 C688 1.353 . S
N685 Co650 2.145 . S
N685 C686 1.397 . S
N685 C687 1.334 . S
C686 H667 0.929 . S
C686 C683 1.388 . S
C686 N685 1.397 . S
C687 H668 0.929 . S
C687 C684 1.404 . S
C687 N685 1.334 . S
C688 H680 0.930 . S
C688 C683 1.418 . S
C688 C684 1.353 . S
C689 H659 0.930 1_565 S
C689 N690 1.330 . S
C689 C691 1.446 . S
N690 Co649 2.151 . S
N690 C689 1.330 . S
N690 C694 1.418 . S
C691 H670 0.929 . S
C691 C689 1.446 . S
C691 C692 1.332 . S
C692 H672 0.931 . S
C692 C691 1.332 . S
C692 C693 1.267 . S
C693 H661 0.929 . S
C693 C692 1.267 . S
C693 C694 1.251 . S
C694 H664 0.929 . S
C694 N690 1.418 . S
C694 C693 1.251 . S
C695 H662 0.930 . S
C695 C697 1.406 . S
C695 C700 1.261 . S
C696 H663 0.930 . S
C696 N698 1.325 . S
C696 C699 1.357 . S
C697 H665 0.928 . S
C697 C695 1.406 . S
C697 N698 1.261 . S
N698 Co649 2.214 . S
N698 C696 1.325 . S
N698 C697 1.261 . S
C699 H669 0.931 . S
C699 C696 1.357 . S
C699 C700 1.312 . S
C700 H671 0.930 . S
C700 C695 1.261 . S
C700 C699 1.312 . S
C701 O673 1.214 . S
C701 O681 1.234 . S
C702 H674 0.929 . S
C702 C705 1.391 . S
C702 C707 1.391 . S
C703 H675 0.929 . S
C703 C704 1.390 . S
C703 N706 1.391 . S
C704 H676 0.930 . S
C704 C703 1.390 . S
C704 C705 1.392 . S
C705 H677 0.929 . S
C705 C702 1.391 . S
C705 C704 1.392 . S
N706 Co650 2.257 . S
N706 C703 1.391 . S
N706 C707 1.388 . S
C707 H678 0.930 . S
C707 C702 1.391 . S
C707 N706 1.388 . S
H708 C714 0.930 . S
H709 C717 0.930 . S
H710 C718 0.930 . S
H711 C719 0.930 . S
H712 C722 0.930 . S
H713 C723 0.930 . S
C714 H708 0.930 . S
C714 C715 1.355 . S
C714 C716 1.415 . S
C715 C714 1.355 . S
C715 C717 1.419 . S
C716 C714 1.415 . S
C716 C721 1.425 . S
C716 C723 1.409 . S
C717 H709 0.930 . S
C717 C715 1.419 . S
C717 C718 1.362 . S
C718 H710 0.930 . S
C718 C717 1.362 . S
C718 C721 1.409 . S
C719 H711 0.930 . S
C719 C720 1.355 . S
C719 C721 1.415 . S
C720 C719 1.355 . S
C720 C722 1.419 . S
C721 C716 1.425 . S
C721 C718 1.409 . S
C721 C719 1.415 . S
C722 H712 0.930 . S
C722 C720 1.419 . S
C722 C723 1.362 . S
C723 H713 0.930 . S
C723 C716 1.409 . S
C723 C722 1.362 . S
H724 C730 0.930 . S
H725 C733 0.930 . S
H726 C734 0.930 . S
H727 C735 0.930 . S
H728 C738 0.930 . S
H729 C739 0.930 . S
C730 H724 0.930 . S
C730 C731 1.355 . S
C730 C732 1.415 . S
C731 C730 1.355 . S
C731 C733 1.419 1_655 S
C732 C730 1.415 . S
C732 C737 1.425 1_655 S
C732 C739 1.409 . S
C733 H725 0.930 . S
C733 C731 1.419 1_455 S
C733 C734 1.362 . S
C734 H726 0.930 . S
C734 C733 1.362 . S
C734 C737 1.409 . S
C735 H727 0.930 . S
C735 C736 1.355 . S
C735 C737 1.415 . S
C736 C735 1.355 . S
C736 C738 1.419 1_455 S
C737 C732 1.425 1_455 S
C737 C734 1.409 . S
C737 C735 1.415 . S
C738 H728 0.930 . S
C738 C736 1.419 1_655 S
C738 C739 1.362 . S
C739 H729 0.930 . S
C739 C732 1.409 . S
C739 C738 1.362 . S
H740 C746 0.930 . S
H741 C749 0.930 . S
H742 C750 0.930 . S
H743 C751 0.930 . S
H744 C754 0.930 . S
H745 C755 0.930 . S
C746 H740 0.930 . S
C746 C747 1.355 . S
C746 C748 1.415 . S
C747 C746 1.355 . S
C747 C749 1.419 1_565 S
C748 C746 1.415 . S
C748 C753 1.425 1_566 S
C748 C755 1.409 1_556 S
C749 H741 0.930 . S
C749 C747 1.419 1_545 S
C749 C750 1.362 . S
C750 H742 0.930 . S
C750 C749 1.362 . S
C750 C753 1.409 1_556 S
C751 H743 0.930 . S
C751 C752 1.355 . S
C751 C753 1.415 . S
C752 C751 1.355 . S
C752 C754 1.419 1_545 S
C753 C748 1.425 1_544 S
C753 C750 1.409 1_554 S
C753 C751 1.415 . S
C754 H744 0.930 . S
C754 C752 1.419 1_565 S
C754 C755 1.362 . S
C755 H745 0.930 . S
C755 C748 1.409 1_554 S
C755 C754 1.362 . S
H756 C762 0.930 . S
H757 C765 0.930 . S
H758 C766 0.930 . S
H759 C767 0.930 . S
H760 C770 0.930 . S
H761 C771 0.930 . S
C762 H756 0.930 . S
C762 C763 1.355 . S
C762 C764 1.415 . S
C763 C762 1.355 . S
C763 C765 1.419 . S
C764 C762 1.415 . S
C764 C769 1.425 . S
C764 C771 1.409 . S
C765 H757 0.930 . S
C765 C763 1.419 . S
C765 C766 1.362 . S
C766 H758 0.930 . S
C766 C765 1.362 . S
C766 C769 1.409 . S
C767 H759 0.930 . S
C767 C768 1.355 . S
C767 C769 1.415 . S
C768 C767 1.355 . S
C768 C770 1.419 . S
C769 C764 1.425 . S
C769 C766 1.409 . S
C769 C767 1.415 . S
C770 H760 0.930 . S
C770 C768 1.419 . S
C770 C771 1.362 . S
C771 H761 0.930 . S
C771 C764 1.409 . S
C771 C770 1.362 . S
H772 C778 0.930 . S
H773 C781 0.930 . S
H774 C782 0.930 . S
H775 C783 0.930 . S
H776 C786 0.930 . S
H777 C787 0.930 . S
C778 H772 0.930 . S
C778 C779 1.355 1_455 S
C778 C780 1.415 . S
C779 C778 1.355 1_655 S
C779 C781 1.419 . S
C780 C778 1.415 . S
C780 C785 1.425 1_455 S
C780 C787 1.409 . S
C781 H773 0.930 . S
C781 C779 1.419 . S
C781 C782 1.362 . S
C782 H774 0.930 . S
C782 C781 1.362 . S
C782 C785 1.409 . S
C783 H775 0.930 . S
C783 C784 1.355 1_655 S
C783 C785 1.415 . S
C784 C783 1.355 1_455 S
C784 C786 1.419 . S
C785 C780 1.425 1_655 S
C785 C782 1.409 . S
C785 C783 1.415 . S
C786 H776 0.930 . S
C786 C784 1.419 . S
C786 C787 1.362 . S
C787 H777 0.930 . S
C787 C780 1.409 . S
C787 C786 1.362 . S
H788 C794 0.930 . S
H789 C797 0.930 . S
H790 C798 0.930 . S
H791 C799 0.930 . S
H792 C802 0.930 . S
H793 C803 0.930 . S
C794 H788 0.930 . S
C794 C795 1.355 . S
C794 C796 1.415 . S
C795 C794 1.355 . S
C795 C797 1.419 1_565 S
C796 C794 1.415 . S
C796 C801 1.425 1_564 S
C796 C803 1.409 1_554 S
C797 H789 0.930 . S
C797 C795 1.419 1_545 S
C797 C798 1.362 . S
C798 H790 0.930 . S
C798 C797 1.362 . S
C798 C801 1.409 1_554 S
C799 H791 0.930 . S
C799 C800 1.355 . S
C799 C801 1.415 . S
C800 C799 1.355 . S
C800 C802 1.419 1_545 S
C801 C796 1.425 1_546 S
C801 C798 1.409 1_556 S
C801 C799 1.415 . S
C802 H792 0.930 . S
C802 C800 1.419 1_565 S
C802 C803 1.362 . S
C803 H793 0.930 . S
C803 C796 1.409 1_556 S
C803 C802 1.362 . S
H804 C810 0.930 . S
H805 C813 0.930 . S
H806 C814 0.930 . S
H807 C815 0.930 . S
H808 C818 0.930 . S
H809 C819 0.930 . S
C810 H804 0.930 . S
C810 C811 1.355 1_554 S
C810 C812 1.415 . S
C811 C810 1.355 1_556 S
C811 C813 1.419 . S
C812 C810 1.415 . S
C812 C817 1.425 1_554 S
C812 C819 1.409 . S
C813 H805 0.930 . S
C813 C811 1.419 . S
C813 C814 1.362 . S
C814 H806 0.930 . S
C814 C813 1.362 . S
C814 C817 1.409 . S
C815 H807 0.930 . S
C815 C816 1.355 1_556 S
C815 C817 1.415 . S
C816 C815 1.355 1_554 S
C816 C818 1.419 . S
C817 C812 1.425 1_556 S
C817 C814 1.409 . S
C817 C815 1.415 . S
C818 H808 0.930 . S
C818 C816 1.419 . S
C818 C819 1.362 . S
C819 H809 0.930 . S
C819 C812 1.409 . S
C819 C818 1.362 . S
H820 C826 0.930 . S
H821 C829 0.930 . S
H822 C830 0.930 . S
H823 C831 0.930 . S
H824 C834 0.930 . S
H825 C835 0.930 . S
C826 H820 0.930 . S
C826 C827 1.355 . S
C826 C828 1.415 . S
C827 C826 1.355 . S
C827 C829 1.419 . S
C828 C826 1.415 . S
C828 C833 1.425 . S
C828 C835 1.409 . S
C829 H821 0.930 . S
C829 C827 1.419 . S
C829 C830 1.362 . S
C830 H822 0.930 . S
C830 C829 1.362 . S
C830 C833 1.409 . S
C831 H823 0.930 . S
C831 C832 1.355 . S
C831 C833 1.415 . S
C832 C831 1.355 . S
C832 C834 1.419 . S
C833 C828 1.425 . S
C833 C830 1.409 . S
C833 C831 1.415 . S
C834 H824 0.930 . S
C834 C832 1.419 . S
C834 C835 1.362 . S
C835 H825 0.930 . S
C835 C828 1.409 . S
C835 C834 1.362 . S
H836 C842 0.930 . S
H837 C845 0.930 . S
H838 C846 0.930 . S
H839 C847 0.930 . S
H840 C850 0.930 . S
H841 C851 0.930 . S
C842 H836 0.930 . S
C842 C843 1.355 . S
C842 C844 1.415 . S
C843 C842 1.355 . S
C843 C845 1.419 . S
C844 C842 1.415 . S
C844 C849 1.425 . S
C844 C851 1.409 . S
C845 H837 0.930 . S
C845 C843 1.419 . S
C845 C846 1.362 . S
C846 H838 0.930 . S
C846 C845 1.362 . S
C846 C849 1.409 . S
C847 H839 0.930 . S
C847 C848 1.355 . S
C847 C849 1.415 . S
C848 C847 1.355 . S
C848 C850 1.419 . S
C849 C844 1.425 . S
C849 C846 1.409 . S
C849 C847 1.415 . S
C850 H840 0.930 . S
C850 C848 1.419 . S
C850 C851 1.362 . S
C851 H841 0.930 . S
C851 C844 1.409 . S
C851 C850 1.362 . S
H852 C858 0.930 . S
H853 C861 0.930 . S
H854 C862 0.930 . S
H855 C863 0.930 . S
H856 C866 0.930 . S
H857 C867 0.930 . S
C858 H852 0.930 . S
C858 C859 1.355 1_556 S
C858 C860 1.415 . S
C859 C858 1.355 1_554 S
C859 C861 1.419 . S
C860 C858 1.415 . S
C860 C865 1.425 1_556 S
C860 C867 1.409 . S
C861 H853 0.930 . S
C861 C859 1.419 . S
C861 C862 1.362 . S
C862 H854 0.930 . S
C862 C861 1.362 . S
C862 C865 1.409 . S
C863 H855 0.930 . S
C863 C864 1.355 1_554 S
C863 C865 1.415 . S
C864 C863 1.355 1_556 S
C864 C866 1.419 . S
C865 C860 1.425 1_554 S
C865 C862 1.409 . S
C865 C863 1.415 . S
C866 H856 0.930 . S
C866 C864 1.419 . S
C866 C867 1.362 . S
C867 H857 0.930 . S
C867 C860 1.409 . S
C867 C866 1.362 . S
H868 C874 0.930 . S
H869 C877 0.930 . S
H870 C878 0.930 . S
H871 C879 0.930 . S
H872 C882 0.930 . S
H873 C883 0.930 . S
C874 H868 0.930 . S
C874 C875 1.355 . S
C874 C876 1.415 . S
C875 C874 1.355 . S
C875 C877 1.419 . S
C876 C874 1.415 . S
C876 C881 1.425 . S
C876 C883 1.409 . S
C877 H869 0.930 . S
C877 C875 1.419 . S
C877 C878 1.362 . S
C878 H870 0.930 . S
C878 C877 1.362 . S
C878 C881 1.409 . S
C879 H871 0.930 . S
C879 C880 1.355 . S
C879 C881 1.415 . S
C880 C879 1.355 . S
C880 C882 1.419 . S
C881 C876 1.425 . S
C881 C878 1.409 . S
C881 C879 1.415 . S
C882 H872 0.930 . S
C882 C880 1.419 . S
C882 C883 1.362 . S
C883 H873 0.930 . S
C883 C876 1.409 . S
C883 C882 1.362 . S
H884 C890 0.930 . S
H885 C893 0.930 . S
H886 C894 0.930 . S
H887 C895 0.930 . S
H888 C898 0.930 . S
H889 C899 0.930 . S
C890 H884 0.930 . S
C890 C891 1.355 . S
C890 C892 1.415 . S
C891 C890 1.355 . S
C891 C893 1.419 . S
C892 C890 1.415 . S
C892 C897 1.425 . S
C892 C899 1.409 . S
C893 H885 0.930 . S
C893 C891 1.419 . S
C893 C894 1.362 . S
C894 H886 0.930 . S
C894 C893 1.362 . S
C894 C897 1.409 . S
C895 H887 0.930 . S
C895 C896 1.355 . S
C895 C897 1.415 . S
C896 C895 1.355 . S
C896 C898 1.419 . S
C897 C892 1.425 . S
C897 C894 1.409 . S
C897 C895 1.415 . S
C898 H888 0.930 . S
C898 C896 1.419 . S
C898 C899 1.362 . S
C899 H889 0.930 . S
C899 C892 1.409 . S
C899 C898 1.362 . S
H900 C906 0.930 . S
H901 C909 0.930 . S
H902 C910 0.930 . S
H903 C911 0.930 . S
H904 C914 0.930 . S
H905 C915 0.930 . S
C906 H900 0.930 . S
C906 C907 1.355 . S
C906 C908 1.415 . S
C907 C906 1.355 . S
C907 C909 1.419 . S
C908 C906 1.415 . S
C908 C913 1.425 . S
C908 C915 1.409 . S
C909 H901 0.930 . S
C909 C907 1.419 . S
C909 C910 1.362 . S
C910 H902 0.930 . S
C910 C909 1.362 . S
C910 C913 1.409 . S
C911 H903 0.930 . S
C911 C912 1.355 . S
C911 C913 1.415 . S
C912 C911 1.355 . S
C912 C914 1.419 . S
C913 C908 1.425 . S
C913 C910 1.409 . S
C913 C911 1.415 . S
C914 H904 0.930 . S
C914 C912 1.419 . S
C914 C915 1.362 . S
C915 H905 0.930 . S
C915 C908 1.409 . S
C915 C914 1.362 . S
H916 C922 0.930 . S
H917 C925 0.930 . S
H918 C926 0.930 . S
H919 C927 0.930 . S
H920 C930 0.930 . S
H921 C931 0.930 . S
C922 H916 0.930 . S
C922 C923 1.355 . S
C922 C924 1.415 . S
C923 C922 1.355 . S
C923 C925 1.419 1_655 S
C924 C922 1.415 . S
C924 C929 1.425 1_655 S
C924 C931 1.409 . S
C925 H917 0.930 . S
C925 C923 1.419 1_455 S
C925 C926 1.362 . S
C926 H918 0.930 . S
C926 C925 1.362 . S
C926 C929 1.409 . S
C927 H919 0.930 . S
C927 C928 1.355 . S
C927 C929 1.415 . S
C928 C927 1.355 . S
C928 C930 1.419 1_455 S
C929 C924 1.425 1_455 S
C929 C926 1.409 . S
C929 C927 1.415 . S
C930 H920 0.930 . S
C930 C928 1.419 1_655 S
C930 C931 1.362 . S
C931 H921 0.930 . S
C931 C924 1.409 . S
C931 C930 1.362 . S
H932 C938 0.930 . S
H933 C941 0.930 . S
H934 C942 0.930 . S
H935 C943 0.930 . S
H936 C946 0.930 . S
H937 C947 0.930 . S
C938 H932 0.930 . S
C938 C939 1.355 1_545 S
C938 C940 1.415 . S
C939 C938 1.355 1_565 S
C939 C941 1.419 . S
C940 C938 1.415 . S
C940 C945 1.425 1_545 S
C940 C947 1.409 . S
C941 H933 0.930 . S
C941 C939 1.419 . S
C941 C942 1.362 . S
C942 H934 0.930 . S
C942 C941 1.362 . S
C942 C945 1.409 . S
C943 H935 0.930 . S
C943 C944 1.355 1_565 S
C943 C945 1.415 . S
C944 C943 1.355 1_545 S
C944 C946 1.419 . S
C945 C940 1.425 1_565 S
C945 C942 1.409 . S
C945 C943 1.415 . S
C946 H936 0.930 . S
C946 C944 1.419 . S
C946 C947 1.362 . S
C947 H937 0.930 . S
C947 C940 1.409 . S
C947 C946 1.362 . S
H948 C954 0.930 . S
H949 C957 0.930 . S
H950 C958 0.930 . S
H951 C959 0.930 . S
H952 C962 0.930 . S
H953 C963 0.930 . S
C954 H948 0.930 . S
C954 C955 1.355 . S
C954 C956 1.415 . S
C955 C954 1.355 . S
C955 C957 1.419 . S
C956 C954 1.415 . S
C956 C961 1.425 . S
C956 C963 1.409 . S
C957 H949 0.930 . S
C957 C955 1.419 . S
C957 C958 1.362 . S
C958 H950 0.930 . S
C958 C957 1.362 . S
C958 C961 1.409 . S
C959 H951 0.930 . S
C959 C960 1.355 . S
C959 C961 1.415 . S
C960 C959 1.355 . S
C960 C962 1.419 . S
C961 C956 1.425 . S
C961 C958 1.409 . S
C961 C959 1.415 . S
C962 H952 0.930 . S
C962 C960 1.419 . S
C962 C963 1.362 . S
C963 H953 0.930 . S
C963 C956 1.409 . S
C963 C962 1.362 . S
H964 C970 0.930 . S
H965 C973 0.930 . S
H966 C974 0.930 . S
H967 C975 0.930 . S
H968 C978 0.930 . S
H969 C979 0.930 . S
C970 H964 0.930 . S
C970 C971 1.355 1_655 S
C970 C972 1.415 . S
C971 C970 1.355 1_455 S
C971 C973 1.419 . S
C972 C970 1.415 . S
C972 C977 1.425 1_655 S
C972 C979 1.409 . S
C973 H965 0.930 . S
C973 C971 1.419 . S
C973 C974 1.362 . S
C974 H966 0.930 . S
C974 C973 1.362 . S
C974 C977 1.409 . S
C975 H967 0.930 . S
C975 C976 1.355 1_455 S
C975 C977 1.415 . S
C976 C975 1.355 1_655 S
C976 C978 1.419 . S
C977 C972 1.425 1_455 S
C977 C974 1.409 . S
C977 C975 1.415 . S
C978 H968 0.930 . S
C978 C976 1.419 . S
C978 C979 1.362 . S
C979 H969 0.930 . S
C979 C972 1.409 . S
C979 C978 1.362 . S
H980 C986 0.930 . S
H981 C989 0.930 . S
H982 C990 0.930 . S
H983 C991 0.930 . S
H984 C994 0.930 . S
H985 C995 0.930 . S
C986 H980 0.930 . S
C986 C987 1.355 . S
C986 C988 1.415 . S
C987 C986 1.355 . S
C987 C989 1.419 1_565 S
C988 C986 1.415 . S
C988 C993 1.425 1_565 S
C988 C995 1.409 . S
C989 H981 0.930 . S
C989 C987 1.419 1_545 S
C989 C990 1.362 . S
C990 H982 0.930 . S
C990 C989 1.362 . S
C990 C993 1.409 . S
C991 H983 0.930 . S
C991 C992 1.355 . S
C991 C993 1.415 . S
C992 C991 1.355 . S
C992 C994 1.419 1_545 S
C993 C988 1.425 1_545 S
C993 C990 1.409 . S
C993 C991 1.415 . S
C994 H984 0.930 . S
C994 C992 1.419 1_565 S
C994 C995 1.362 . S
C995 H985 0.930 . S
C995 C988 1.409 . S
C995 C994 1.362 . S
H996 C1002 0.930 1_556 S
H997 C1005 0.930 . S
H998 C1006 0.930 . S
H999 C1007 0.930 . S
H1000 C1010 0.930 . S
H1001 C1011 0.930 . S
C1002 H996 0.930 1_554 S
C1002 C1003 1.355 . S
C1002 C1004 1.415 . S
C1003 C1002 1.355 . S
C1003 C1005 1.419 . S
C1004 C1002 1.415 . S
C1004 C1009 1.425 . S
C1004 C1011 1.409 1_554 S
C1005 H997 0.930 . S
C1005 C1003 1.419 . S
C1005 C1006 1.362 . S
C1006 H998 0.930 . S
C1006 C1005 1.362 . S
C1006 C1009 1.409 . S
C1007 H999 0.930 . S
C1007 C1008 1.355 . S
C1007 C1009 1.415 . S
C1008 C1007 1.355 . S
C1008 C1010 1.419 1_554 S
C1009 C1004 1.425 . S
C1009 C1006 1.409 . S
C1009 C1007 1.415 . S
C1010 H1000 0.930 . S
C1010 C1008 1.419 1_556 S
C1010 C1011 1.362 . S
C1011 H1001 0.930 . S
C1011 C1004 1.409 1_556 S
C1011 C1010 1.362 . S
H1012 C1018 0.930 . S
H1013 C1021 0.930 . S
H1014 C1022 0.930 . S
H1015 C1023 0.930 . S
H1016 C1026 0.930 . S
H1017 C1027 0.930 . S
C1018 H1012 0.930 . S
C1018 C1019 1.355 . S
C1018 C1020 1.415 . S
C1019 C1018 1.355 . S
C1019 C1021 1.419 1_455 S
C1020 C1018 1.415 . S
C1020 C1025 1.425 1_455 S
C1020 C1027 1.409 . S
C1021 H1013 0.930 . S
C1021 C1019 1.419 1_655 S
C1021 C1022 1.362 . S
C1022 H1014 0.930 . S
C1022 C1021 1.362 . S
C1022 C1025 1.409 . S
C1023 H1015 0.930 . S
C1023 C1024 1.355 . S
C1023 C1025 1.415 . S
C1024 C1023 1.355 . S
C1024 C1026 1.419 1_655 S
C1025 C1020 1.425 1_655 S
C1025 C1022 1.409 . S
C1025 C1023 1.415 . S
C1026 H1016 0.930 . S
C1026 C1024 1.419 1_455 S
C1026 C1027 1.362 . S
C1027 H1017 0.930 . S
C1027 C1020 1.409 . S
C1027 C1026 1.362 . S
H1028 C1034 0.930 . S
H1029 C1037 0.930 . S
H1030 C1038 0.930 . S
H1031 C1039 0.930 . S
H1032 C1042 0.930 . S
H1033 C1043 0.930 . S
C1034 H1028 0.930 . S
C1034 C1035 1.355 1_545 S
C1034 C1036 1.415 . S
C1035 C1034 1.355 1_565 S
C1035 C1037 1.419 . S
C1036 C1034 1.415 . S
C1036 C1041 1.425 1_545 S
C1036 C1043 1.409 . S
C1037 H1029 0.930 . S
C1037 C1035 1.419 . S
C1037 C1038 1.362 . S
C1038 H1030 0.930 . S
C1038 C1037 1.362 . S
C1038 C1041 1.409 . S
C1039 H1031 0.930 . S
C1039 C1040 1.355 1_565 S
C1039 C1041 1.415 . S
C1040 C1039 1.355 1_545 S
C1040 C1042 1.419 . S
C1041 C1036 1.425 1_565 S
C1041 C1038 1.409 . S
C1041 C1039 1.415 . S
C1042 H1032 0.930 . S
C1042 C1040 1.419 . S
C1042 C1043 1.362 . S
C1043 H1033 0.930 . S
C1043 C1036 1.409 . S
C1043 C1042 1.362 . S
H1044 C1050 0.930 . S
H1045 C1053 0.930 . S
H1046 C1054 0.930 . S
H1047 C1055 0.930 . S
H1048 C1058 0.930 . S
H1049 C1059 0.930 . S
C1050 H1044 0.930 . S
C1050 C1051 1.355 . S
C1050 C1052 1.415 . S
C1051 C1050 1.355 . S
C1051 C1053 1.419 . S
C1052 C1050 1.415 . S
C1052 C1057 1.425 . S
C1052 C1059 1.409 . S
C1053 H1045 0.930 . S
C1053 C1051 1.419 . S
C1053 C1054 1.362 . S
C1054 H1046 0.930 . S
C1054 C1053 1.362 . S
C1054 C1057 1.409 . S
C1055 H1047 0.930 . S
C1055 C1056 1.355 . S
C1055 C1057 1.415 . S
C1056 C1055 1.355 . S
C1056 C1058 1.419 . S
C1057 C1052 1.425 . S
C1057 C1054 1.409 . S
C1057 C1055 1.415 . S
C1058 H1048 0.930 . S
C1058 C1056 1.419 . S
C1058 C1059 1.362 . S
C1059 H1049 0.930 . S
C1059 C1052 1.409 . S
C1059 C1058 1.362 . S
H1060 C1066 0.930 . S
H1061 C1069 0.930 . S
H1062 C1070 0.930 . S
H1063 C1071 0.930 1_554 S
H1064 C1074 0.930 . S
H1065 C1075 0.930 . S
C1066 H1060 0.930 . S
C1066 C1067 1.355 . S
C1066 C1068 1.415 1_655 S
C1067 C1066 1.355 . S
C1067 C1069 1.419 1_556 S
C1068 C1066 1.415 1_455 S
C1068 C1073 1.425 1_455 S
C1068 C1075 1.409 . S
C1069 H1061 0.930 . S
C1069 C1067 1.419 1_554 S
C1069 C1070 1.362 . S
C1070 H1062 0.930 . S
C1070 C1069 1.362 . S
C1070 C1073 1.409 1_554 S
C1071 H1063 0.930 1_556 S
C1071 C1072 1.355 . S
C1071 C1073 1.415 1_455 S
C1072 C1071 1.355 . S
C1072 C1074 1.419 . S
C1073 C1068 1.425 1_655 S
C1073 C1070 1.409 1_556 S
C1073 C1071 1.415 1_655 S
C1074 H1064 0.930 . S
C1074 C1072 1.419 . S
C1074 C1075 1.362 . S
C1075 H1065 0.930 . S
C1075 C1068 1.409 . S
C1075 C1074 1.362 . S
H1076 C1082 0.930 . S
H1077 C1085 0.930 . S
H1078 C1086 0.930 . S
H1079 C1087 0.930 . S
H1080 C1090 0.930 . S
H1081 C1091 0.930 . S
C1082 H1076 0.930 . S
C1082 C1083 1.355 1_565 S
C1082 C1084 1.415 . S
C1083 C1082 1.355 1_545 S
C1083 C1085 1.419 . S
C1084 C1082 1.415 . S
C1084 C1089 1.425 1_565 S
C1084 C1091 1.409 . S
C1085 H1077 0.930 . S
C1085 C1083 1.419 . S
C1085 C1086 1.362 . S
C1086 H1078 0.930 . S
C1086 C1085 1.362 . S
C1086 C1089 1.409 . S
C1087 H1079 0.930 . S
C1087 C1088 1.355 1_545 S
C1087 C1089 1.415 . S
C1088 C1087 1.355 1_565 S
C1088 C1090 1.419 . S
C1089 C1084 1.425 1_545 S
C1089 C1086 1.409 . S
C1089 C1087 1.415 . S
C1090 H1080 0.930 . S
C1090 C1088 1.419 . S
C1090 C1091 1.362 . S
C1091 H1081 0.930 . S
C1091 C1084 1.409 . S
C1091 C1090 1.362 . S
C715 C3 1.556 . S
C720 C534 1.585 . S
C731 C62 1.561 . S
C736 C593 1.569 . S
C747 C121 1.565 . S
C752 C652 1.565 . S
C763 C180 1.544 . S
C768 C357 1.591 . S
C779 C416 1.579 . S
C784 C239 1.564 . S
C795 C475 1.550 . S
C800 C298 1.581 . S
C811 C595 1.593 . S
C816 C5 1.595 . S
C827 C64 1.583 . S
C832 C654 1.588 . S
C843 C123 1.574 . S
C848 C359 1.570 . S
C859 C182 1.591 . S
C864 C418 1.593 . S
C875 C241 1.584 . S
C880 C477 1.579 . S
C891 C300 1.582 . S
C896 C536 1.577 . S
C907 C564 1.006 . S
C912 C33 0.991 . S
C923 C92 0.992 . S
C928 C623 1.006 . S
C939 C151 0.939 . S
C944 C682 0.945 . S
C955 C387 0.980 . S
C960 C210 1.004 . S
C971 C269 0.956 . S
C976 C446 0.938 . S
C987 C505 0.994 . S
C992 C328 1.006 . S
C1003 C52 1.573 . S
C1008 C229 1.587 . S
C1019 C288 1.589 . S
C1024 C111 1.577 . S
C1035 C170 1.571 . S
C1040 C347 1.578 . S
C1051 C406 1.575 . S
C1056 C583 1.573 . S
C1067 C465 1.583 . S
C1072 C642 1.571 . S
C1083 C701 1.572 . S
C1088 C524 1.576 . S
