# Generated by pormake.
# Topology wje, (4)-cn, num edge types: 1
# Building blocks:
#     Node 0, Type 0, BuildingBlock: ICAMEG_clean_sbu_1, # of connection points: 4
#     Node 1, Type 0, BuildingBlock: ICAMEG_clean_sbu_1, # of connection points: 4
#     Node 2, Type 0, BuildingBlock: ICAMEG_clean_sbu_1, # of connection points: 4
#     Node 3, Type 0, BuildingBlock: ICAMEG_clean_sbu_1, # of connection points: 4
#     Node 4, Type 0, BuildingBlock: ICAMEG_clean_sbu_1, # of connection points: 4
#     Node 5, Type 0, BuildingBlock: ICAMEG_clean_sbu_1, # of connection points: 4
#     Node 6, Type 0, BuildingBlock: ICAMEG_clean_sbu_1, # of connection points: 4
#     Node 7, Type 0, BuildingBlock: ICAMEG_clean_sbu_1, # of connection points: 4
#     Node 8, Type 0, BuildingBlock: ICAMEG_clean_sbu_1, # of connection points: 4
#     Node 9, Type 0, BuildingBlock: ICAMEG_clean_sbu_1, # of connection points: 4
#     Node 10, Type 0, BuildingBlock: ICAMEG_clean_sbu_1, # of connection points: 4
#     Node 11, Type 0, BuildingBlock: ICAMEG_clean_sbu_1, # of connection points: 4
#     Edge 12, Type (0, 0), BuildingBlock: KIFKEQ_clean_linker_1, # of connection points: 2
#     Edge 13, Type (0, 0), BuildingBlock: KIFKEQ_clean_linker_1, # of connection points: 2
#     Edge 14, Type (0, 0), BuildingBlock: KIFKEQ_clean_linker_1, # of connection points: 2
#     Edge 15, Type (0, 0), BuildingBlock: KIFKEQ_clean_linker_1, # of connection points: 2
#     Edge 16, Type (0, 0), BuildingBlock: KIFKEQ_clean_linker_1, # of connection points: 2
#     Edge 17, Type (0, 0), BuildingBlock: KIFKEQ_clean_linker_1, # of connection points: 2
#     Edge 18, Type (0, 0), BuildingBlock: KIFKEQ_clean_linker_1, # of connection points: 2
#     Edge 19, Type (0, 0), BuildingBlock: KIFKEQ_clean_linker_1, # of connection points: 2
#     Edge 20, Type (0, 0), BuildingBlock: KIFKEQ_clean_linker_1, # of connection points: 2
#     Edge 21, Type (0, 0), BuildingBlock: KIFKEQ_clean_linker_1, # of connection points: 2
#     Edge 22, Type (0, 0), BuildingBlock: KIFKEQ_clean_linker_1, # of connection points: 2
#     Edge 23, Type (0, 0), BuildingBlock: KIFKEQ_clean_linker_1, # of connection points: 2
#     Edge 24, Type (0, 0), BuildingBlock: KIFKEQ_clean_linker_1, # of connection points: 2
#     Edge 25, Type (0, 0), BuildingBlock: KIFKEQ_clean_linker_1, # of connection points: 2
#     Edge 26, Type (0, 0), BuildingBlock: KIFKEQ_clean_linker_1, # of connection points: 2
#     Edge 27, Type (0, 0), BuildingBlock: KIFKEQ_clean_linker_1, # of connection points: 2
#     Edge 28, Type (0, 0), BuildingBlock: KIFKEQ_clean_linker_1, # of connection points: 2
#     Edge 29, Type (0, 0), BuildingBlock: KIFKEQ_clean_linker_1, # of connection points: 2
#     Edge 30, Type (0, 0), BuildingBlock: KIFKEQ_clean_linker_1, # of connection points: 2
#     Edge 31, Type (0, 0), BuildingBlock: KIFKEQ_clean_linker_1, # of connection points: 2
#     Edge 32, Type (0, 0), BuildingBlock: KIFKEQ_clean_linker_1, # of connection points: 2
#     Edge 33, Type (0, 0), BuildingBlock: KIFKEQ_clean_linker_1, # of connection points: 2
#     Edge 34, Type (0, 0), BuildingBlock: KIFKEQ_clean_linker_1, # of connection points: 2
#     Edge 35, Type (0, 0), BuildingBlock: KIFKEQ_clean_linker_1, # of connection points: 2
# Relax obj value: 0.126
# Max RMSD: 0.100
# Mean RMSD: 0.100
data_MOF--net-wje--node1-ICAMEG_clean_sbu_1--edge1-KIFKEQ_clean_linker_1
_symmetry_space_group_name_H-M    P1
_symmetry_Int_Tables_number       1
_symmetry_cell_setting            triclinic
loop_
_symmetry_equiv_pos_as_xyz
'x, y, z'
_cell_length_a     42.978171
_cell_length_b     42.970311
_cell_length_c     41.343318
_cell_angle_alpha  89.968291
_cell_angle_beta   89.977051
_cell_angle_gamma 119.94913
loop_
_atom_site_label
_atom_site_type_symbol
_atom_site_fract_x
_atom_site_fract_y
_atom_site_fract_z
_atom_type_partial_charge
Co0 Co 0.31864 0.99013 0.32633 0.0
Co1 Co 0.31731 0.06957 0.33849 0.0
O2 O 0.33466 0.04067 0.31584 0.0
C3 C 0.39859 0.02418 0.33094 0.0
O4 O 0.40049 0.0534 0.34282 0.0
C5 C 0.30481 0.07839 0.26843 0.0
O6 O 0.29713 0.04524 0.26287 0.0
O7 O 0.26591 0.0308 0.33383 0.0
O8 O 0.26839 0.97982 0.33112 0.0
H9 H 0.24409 0.09093 0.42095 0.0
H10 H 0.36176 0.02174 0.26712 0.0
O11 O 0.36857 0.99794 0.32205 0.0
H12 H 0.2459 0.92214 0.22909 0.0
H13 H 0.31407 0.87139 0.3128 0.0
H14 H 0.26874 0.93854 0.37487 0.0
H15 H 0.25721 0.93511 0.28734 0.0
H16 H 0.33425 0.93469 0.2998 0.0
O17 O 0.31364 0.09166 0.29672 0.0
H18 H 0.26577 0.05531 0.39183 0.0
H19 H 0.33298 0.14539 0.33308 0.0
H20 H 0.24762 0.87518 0.3885 0.0
H21 H 0.35174 0.00943 0.20861 0.0
H22 H 0.27031 0.84117 0.35734 0.0
H23 H 0.2934 0.95939 0.18928 0.0
O24 O 0.32737 1.00126 0.37339 0.0
H25 H 0.44259 0.15215 0.29849 0.0
H26 H 0.36229 0.1151 0.3933 0.0
H27 H 0.42573 0.16206 0.39944 0.0
H28 H 0.46635 0.18094 0.35177 0.0
H29 H 0.37902 0.10498 0.29355 0.0
H30 H 0.31175 0.18185 0.36133 0.0
H31 H 0.2671 0.15467 0.40572 0.0
O32 O 0.32059 0.04927 0.38103 0.0
C33 C 0.25114 0.99667 0.33273 0.0
C34 C 0.26361 0.1031 0.4017 0.0
C35 C 0.30155 0.15411 0.36821 0.0
N36 N 0.30076 0.09829 0.36091 0.0
C37 C 0.27605 0.08309 0.38518 0.0
C38 C 0.31339 0.13329 0.35224 0.0
C39 C 0.27651 0.13885 0.39312 0.0
C40 C 0.33647 0.99969 0.25888 0.0
N41 N 0.31019 0.9791 0.2806 0.0
C42 C 0.33088 0.99294 0.22573 0.0
C43 C 0.29811 0.96489 0.21489 0.0
C44 C 0.27144 0.944 0.23722 0.0
C45 C 0.27797 0.95155 0.27017 0.0
C46 C 0.30394 0.88591 0.32652 0.0
C47 C 0.2786 0.92386 0.36109 0.0
C48 C 0.31533 0.92178 0.31931 0.0
N49 N 0.30252 0.94024 0.33643 0.0
C50 C 0.26661 0.88802 0.36898 0.0
C51 C 0.27938 0.86896 0.35151 0.0
C52 C 0.32569 0.0243 0.39165 0.0
C53 C 0.42514 0.14421 0.31942 0.0
C54 C 0.37982 0.123 0.37251 0.0
C55 C 0.41571 0.14971 0.37609 0.0
C56 C 0.43847 0.16032 0.34933 0.0
N57 N 0.36694 0.10734 0.34309 0.0
C58 C 0.38909 0.11762 0.31674 0.0
Co59 Co 0.34466 0.31476 0.65125 0.0
Co60 Co 0.26592 0.31573 0.66846 0.0
O61 O 0.31065 0.33201 0.6439 0.0
C62 C 0.39109 0.39342 0.66251 0.0
O63 O 0.3646 0.39272 0.67896 0.0
C64 C 0.23869 0.298 0.60044 0.0
O65 O 0.26002 0.28477 0.59551 0.0
O66 O 0.25265 0.26394 0.66476 0.0
O67 O 0.30423 0.26452 0.65374 0.0
H68 H 0.17552 0.24555 0.75494 0.0
H69 H 0.35473 0.36193 0.59533 0.0
O70 O 0.38683 0.36497 0.64886 0.0
H71 H 0.33881 0.24943 0.54832 0.0
H72 H 0.45788 0.31004 0.63126 0.0
H73 H 0.34597 0.26058 0.69476 0.0
H74 H 0.33827 0.25662 0.60747 0.0
H75 H 0.41528 0.33193 0.62259 0.0
O76 O 0.23856 0.31163 0.62776 0.0
H77 H 0.23125 0.26605 0.72359 0.0
H78 H 0.20603 0.33199 0.66547 0.0
H79 H 0.38762 0.23763 0.70396 0.0
H80 H 0.35578 0.35604 0.53601 0.0
H81 H 0.44404 0.26239 0.67207 0.0
H82 H 0.34767 0.29941 0.51216 0.0
O83 O 0.34292 0.31978 0.69931 0.0
H84 H 0.30896 0.44051 0.62673 0.0
H85 H 0.26755 0.3622 0.72289 0.0
H86 H 0.28529 0.42609 0.72834 0.0
H87 H 0.30612 0.46572 0.67998 0.0
H88 H 0.29132 0.37651 0.62249 0.0
H89 H 0.14986 0.31194 0.69598 0.0
H90 H 0.13437 0.26852 0.74117 0.0
O91 O 0.2916 0.31983 0.70965 0.0
C92 C 0.27058 0.24812 0.65912 0.0
C93 C 0.182 0.26451 0.73533 0.0
C94 C 0.16757 0.30173 0.70221 0.0
N95 N 0.22194 0.30024 0.69277 0.0
C96 C 0.21355 0.27626 0.71753 0.0
C97 C 0.19935 0.31288 0.68493 0.0
C98 C 0.1589 0.27739 0.72757 0.0
C99 C 0.35147 0.33733 0.5851 0.0
N100 N 0.34655 0.3097 0.6048 0.0
C101 C 0.35197 0.3341 0.55151 0.0
C102 C 0.34737 0.3023 0.53815 0.0
C103 C 0.34237 0.27424 0.55842 0.0
C104 C 0.34199 0.27842 0.59189 0.0
C105 C 0.43337 0.29901 0.64529 0.0
C106 C 0.37039 0.27138 0.68069 0.0
C107 C 0.4092 0.31139 0.64056 0.0
N108 N 0.37809 0.29744 0.65806 0.0
C109 C 0.39392 0.25834 0.68606 0.0
C110 C 0.42558 0.27227 0.66818 0.0
C111 C 0.32051 0.32108 0.71879 0.0
C112 C 0.29992 0.42352 0.64797 0.0
C113 C 0.27686 0.37932 0.70183 0.0
C114 C 0.28671 0.41545 0.70501 0.0
C115 C 0.29836 0.43766 0.67787 0.0
N116 N 0.2785 0.36566 0.67244 0.0
C117 C 0.28981 0.38725 0.64571 0.0
Co118 Co 0.02399 0.33372 1.00016 0.0
Co119 Co 0.94793 0.25097 1.00464 0.0
O120 O 0.97546 0.2989 0.98494 0.0
C121 C 0.98876 0.37856 0.99881 0.0
O122 O 0.95933 0.35132 0.01047 0.0
C123 C 0.93965 0.23062 0.93447 0.0
O124 O 0.97461 0.2503 0.93089 0.0
O125 O 0.98793 0.24111 0.99574 0.0
O126 O 0.03495 0.29446 0.00935 0.0
H127 H 0.93116 0.14937 0.07652 0.0
H128 H 0.99992 0.34414 0.93615 0.0
O129 O 0.01573 0.37507 0.9919 0.0
H130 H 0.10619 0.33208 0.91411 0.0
H131 H 0.14233 0.44948 0.99631 0.0
H132 H 0.06885 0.33627 0.05574 0.0
H133 H 0.08523 0.32986 0.97004 0.0
H134 H 0.08168 0.40544 0.97715 0.0
O135 O 0.9253 0.22934 0.96178 0.0
H136 H 0.96488 0.2095 0.05175 0.0
H137 H 0.87256 0.19037 0.99837 0.0
H138 H 0.12947 0.37944 0.07558 0.0
H139 H 0.02017 0.34688 0.8798 0.0
H140 H 0.16667 0.43652 0.04578 0.0
H141 H 0.07362 0.34072 0.86852 0.0
O142 O 1.00578 0.32994 0.04502 0.0
H143 H 0.86122 0.29282 0.97592 0.0
H144 H 0.90346 0.24418 0.0627 0.0
H145 H 0.85524 0.25785 0.07418 0.0
H146 H 0.83374 0.28227 0.03058 0.0
H147 H 0.90969 0.27915 0.96558 0.0
H148 H 0.83795 0.12991 0.02231 0.0
H149 H 0.86722 0.10911 0.06181 0.0
O150 O 0.96869 0.27048 0.0485 0.0
C151 C 0.02086 0.26106 1.00328 0.0
C152 C 0.91809 0.15815 0.05939 0.0
C153 C 0.86579 0.14721 0.02894 0.0
N154 N 0.92068 0.20353 0.02376 0.0
C155 C 0.93702 0.1922 0.04533 0.0
C156 C 0.88556 0.18144 0.01538 0.0
C157 C 0.88222 0.13556 0.05111 0.0
C158 C 0.02339 0.34178 0.9314 0.0
N159 N 0.04147 0.33704 0.95632 0.0
C160 C 0.03465 0.34321 0.89946 0.0
C161 C 0.06462 0.33971 0.89315 0.0
C162 C 0.0829 0.33485 0.91872 0.0
C163 C 0.07085 0.33353 0.95034 0.0
C164 C 0.1264 0.42468 0.00947 0.0
C165 C 0.08491 0.36097 0.04255 0.0
C166 C 0.09201 0.39966 0.99879 0.0
N167 N 0.0718 0.36819 0.0152 0.0
C168 C 0.1192 0.38535 0.05395 0.0
C169 C 0.14005 0.41738 0.03723 0.0
C170 C 0.98695 0.30145 0.06145 0.0
C171 C 0.87029 0.2821 0.99509 0.0
C172 C 0.8944 0.25498 0.04364 0.0
C173 C 0.867 0.26256 0.05026 0.0
C174 C 0.85493 0.27623 0.02578 0.0
N175 N 0.90931 0.26079 0.01346 0.0
C176 C 0.89762 0.27418 0.98934 0.0
Co177 Co 0.69694 0.02568 0.32369 0.0
Co178 Co 0.69642 0.94522 0.33645 0.0
O179 O 0.68003 0.97487 0.31366 0.0
C180 C 0.6168 0.99142 0.32962 0.0
O181 O 0.61445 0.96094 0.3383 0.0
C182 C 0.711 0.93854 0.26635 0.0
O183 O 0.71653 0.97099 0.26081 0.0
O184 O 0.74803 0.98424 0.3345 0.0
O185 O 0.74714 0.0354 0.32555 0.0
H186 H 0.76504 0.92074 0.42144 0.0
H187 H 0.65028 0.9926 0.26668 0.0
O188 O 0.64702 0.01838 0.32222 0.0
H189 H 0.76339 0.09166 0.22312 0.0
H190 H 0.70222 0.14488 0.31096 0.0
H191 H 0.75037 0.07806 0.36953 0.0
H192 H 0.75571 0.07992 0.28181 0.0
H193 H 0.68028 0.08107 0.29876 0.0
O194 O 0.70269 0.92499 0.29461 0.0
H195 H 0.74465 0.95732 0.3921 0.0
H196 H 0.68164 0.86985 0.32934 0.0
H197 H 0.77333 0.14195 0.38224 0.0
H198 H 0.65664 1.00364 0.20782 0.0
H199 H 0.74925 0.17581 0.35283 0.0
H200 H 0.71358 0.05341 0.1857 0.0
O201 O 0.691 0.01572 0.37126 0.0
H202 H 0.57373 0.86361 0.29064 0.0
H203 H 0.64857 0.89751 0.3889 0.0
H204 H 0.58502 0.84993 0.39202 0.0
H205 H 0.54716 0.83263 0.34261 0.0
H206 H 0.63731 0.91134 0.28872 0.0
H207 H 0.70161 0.83246 0.35781 0.0
H208 H 0.7435 0.85783 0.40431 0.0
O209 O 0.69065 0.96379 0.37881 0.0
C210 C 0.76367 0.01812 0.33001 0.0
C211 C 0.74672 0.90936 0.40126 0.0
C212 C 0.71116 0.85982 0.36552 0.0
N213 N 0.71186 0.91571 0.35913 0.0
C214 C 0.73503 0.92991 0.38459 0.0
C215 C 0.70003 0.88117 0.34943 0.0
C216 C 0.73465 0.87407 0.39162 0.0
C217 C 0.67499 0.01452 0.25723 0.0
N218 N 0.70253 0.03564 0.27764 0.0
C219 C 0.6785 0.02055 0.22389 0.0
C220 C 0.71048 0.04844 0.21149 0.0
C221 C 0.73845 0.0699 0.23247 0.0
C222 C 0.73399 0.06304 0.26567 0.0
C223 C 0.71297 0.13043 0.3239 0.0
C224 C 0.73987 0.09265 0.35652 0.0
C225 C 0.70058 0.09426 0.31716 0.0
N226 N 0.7142 0.0759 0.33327 0.0
C227 C 0.75291 0.1288 0.36388 0.0
C228 C 0.73936 0.14777 0.34739 0.0
C229 C 0.68905 0.99077 0.38945 0.0
C230 C 0.58997 0.87085 0.31232 0.0
C231 C 0.63223 0.89029 0.36735 0.0
C232 C 0.59629 0.86323 0.36923 0.0
C233 C 0.57507 0.85351 0.3415 0.0
N234 N 0.64667 0.90713 0.33864 0.0
C235 C 0.62603 0.89775 0.31135 0.0
Co236 Co 0.68107 0.69737 0.65376 0.0
Co237 Co 0.76268 0.70147 0.669 0.0
O238 O 0.71688 0.68256 0.64544 0.0
C239 C 0.63665 0.61807 0.66436 0.0
O240 O 0.66309 0.61921 0.68124 0.0
C241 C 0.78526 0.71389 0.59916 0.0
O242 O 0.75886 0.71995 0.59266 0.0
O243 O 0.77344 0.75238 0.66425 0.0
O244 O 0.71977 0.74844 0.65654 0.0
H245 H 0.85379 0.77663 0.75311 0.0
H246 H 0.67224 0.65173 0.59701 0.0
O247 O 0.64044 0.64643 0.65091 0.0
H248 H 0.68209 0.7627 0.55221 0.0
H249 H 0.56459 0.6964 0.63605 0.0
H250 H 0.67704 0.74883 0.69885 0.0
H251 H 0.68406 0.75496 0.61115 0.0
H252 H 0.60942 0.67769 0.62587 0.0
O253 O 0.78983 0.70615 0.62787 0.0
H254 H 0.79697 0.753 0.72289 0.0
H255 H 0.82491 0.68881 0.66524 0.0
H256 H 0.63311 0.76859 0.70958 0.0
H257 H 0.6697 0.65814 0.53789 0.0
H258 H 0.57641 0.74233 0.67805 0.0
H259 H 0.67479 0.71401 0.51514 0.0
O260 O 0.68362 0.69166 0.70164 0.0
H261 H 0.72444 0.57684 0.62979 0.0
H262 H 0.76426 0.6575 0.72429 0.0
H263 H 0.7497 0.59462 0.73095 0.0
H264 H 0.72969 0.55382 0.68344 0.0
H265 H 0.73895 0.63985 0.62432 0.0
H266 H 0.88216 0.71199 0.69463 0.0
H267 H 0.89685 0.75612 0.73901 0.0
O268 O 0.73767 0.69719 0.71074 0.0
C269 C 0.75369 0.76648 0.66012 0.0
C270 C 0.84767 0.75737 0.73385 0.0
C271 C 0.86361 0.72113 0.70101 0.0
N272 N 0.80756 0.71947 0.6924 0.0
C273 C 0.81551 0.74384 0.7167 0.0
C274 C 0.83119 0.70818 0.68438 0.0
C275 C 0.87183 0.74587 0.72592 0.0
C276 C 0.67416 0.67598 0.58727 0.0
N277 N 0.6783 0.70293 0.60747 0.0
C278 C 0.67284 0.67952 0.55379 0.0
C279 C 0.67575 0.7109 0.54104 0.0
C280 C 0.67989 0.73824 0.56182 0.0
C281 C 0.68114 0.73378 0.59517 0.0
C282 C 0.58921 0.70806 0.64993 0.0
C283 C 0.65249 0.73738 0.68494 0.0
C284 C 0.61464 0.69748 0.64435 0.0
N285 N 0.64589 0.71225 0.66167 0.0
C286 C 0.62768 0.74862 0.69117 0.0
C287 C 0.59586 0.73384 0.67349 0.0
C288 C 0.70774 0.69305 0.72061 0.0
C289 C 0.73319 0.59437 0.65066 0.0
C290 C 0.7554 0.63988 0.70356 0.0
C291 C 0.7473 0.60432 0.70744 0.0
C292 C 0.7361 0.58146 0.68078 0.0
N293 N 0.75253 0.65237 0.67394 0.0
C294 C 0.74156 0.6301 0.64769 0.0
Co295 Co 0.98136 0.67241 0.98631 0.0
Co296 Co 0.0608 0.75261 1.0009 0.0
O297 O 0.03241 0.70673 0.97765 0.0
C298 C 0.01637 0.62738 0.99428 0.0
O299 O 0.04619 0.6557 1.0038 0.0
C300 C 0.07024 0.77434 0.93073 0.0
O301 O 0.03834 0.7471 0.92414 0.0
O302 O 0.02145 0.76467 0.9974 0.0
O303 O 0.97098 0.71254 0.98709 0.0
H304 H 0.0808 0.84472 0.08546 0.0
H305 H 0.01717 0.65981 0.9308 0.0
O306 O 0.9894 0.6302 0.9858 0.0
H307 H 0.91854 0.67202 0.88336 0.0
H308 H 0.8636 0.55766 0.97129 0.0
H309 H 0.92687 0.67267 0.03004 0.0
H310 H 0.92811 0.67604 0.94238 0.0
H311 H 0.92762 0.60019 0.96063 0.0
O312 O 0.08242 0.77956 0.9595 0.0
H313 H 0.04601 0.78784 0.05566 0.0
H314 H 0.13606 0.81386 0.99568 0.0
H315 H 0.86273 0.63107 0.0412 0.0
H316 H 0.00832 0.65518 0.87165 0.0
H317 H 0.83066 0.57311 0.01169 0.0
H318 H 0.95877 0.66144 0.84757 0.0
O319 O 0.98944 0.67624 0.03416 0.0
H320 H 0.14474 0.71256 0.9585 0.0
H321 H 0.10742 0.75337 0.05478 0.0
H322 H 0.1553 0.73794 0.05976 0.0
H323 H 0.17432 0.71744 0.01134 0.0
H324 H 0.09664 0.72784 0.95474 0.0
H325 H 0.1717 0.87114 0.02464 0.0
H326 H 0.14411 0.88684 0.06997 0.0
O327 O 0.04094 0.72781 0.04289 0.0
C328 C 0.9878 0.74631 0.99175 0.0
C329 C 0.09314 0.83815 0.0658 0.0
C330 C 0.14414 0.853 0.03163 0.0
N331 N 0.08901 0.79744 0.02405 0.0
C332 C 0.07361 0.80594 0.04888 0.0
C333 C 0.12378 0.82056 0.01526 0.0
C334 C 0.12866 0.86178 0.05707 0.0
C335 C 0.99536 0.66221 0.92049 0.0
N336 N 0.97316 0.66812 0.93999 0.0
C337 C 0.99056 0.65972 0.88699 0.0
C338 C 0.96279 0.66329 0.8735 0.0
C339 C 0.94023 0.66927 0.89356 0.0
C340 C 0.94587 0.67166 0.92695 0.0
C341 C 0.87726 0.58287 0.98425 0.0
C342 C 0.91305 0.64757 0.01698 0.0
C343 C 0.91354 0.60703 0.97839 0.0
N344 N 0.93092 0.639 0.99455 0.0
C345 C 0.87676 0.62409 0.02346 0.0
C346 C 0.85879 0.59155 0.00692 0.0
C347 C 0.01368 0.69907 0.05291 0.0
C348 C 0.13673 0.72151 0.97976 0.0
C349 C 0.11534 0.74421 0.03368 0.0
C350 C 0.14259 0.73566 0.0366 0.0
C351 C 0.15328 0.7242 0.00943 0.0
N352 N 0.09924 0.74151 1.00451 0.0
C353 C 0.10961 0.73034 0.97775 0.0
Co354 Co 0.03247 0.69243 0.35888 0.0
Co355 Co 0.95767 0.70226 0.3514 0.0
O356 O 0.9842 0.68153 0.37287 0.0
C357 C 0.99373 0.61211 0.36042 0.0
O358 O 0.96497 0.61123 0.34856 0.0
C359 C 0.94949 0.71286 0.42251 0.0
O360 O 0.98074 0.71574 0.42876 0.0
O361 O 0.99945 0.75216 0.35634 0.0
O362 O 0.04612 0.74314 0.34921 0.0
H363 H 0.94278 0.782 0.27149 0.0
H364 H 1.00605 0.65737 0.42244 0.0
O365 O 0.02138 0.64194 0.36744 0.0
H366 H 0.11406 0.77349 0.44653 0.0
H367 H 0.14741 0.68851 0.36729 0.0
H368 H 0.07987 0.73217 0.30364 0.0
H369 H 0.09389 0.75617 0.39023 0.0
H370 H 0.08701 0.67507 0.38451 0.0
O371 O 0.93741 0.7074 0.39371 0.0
H372 H 0.9751 0.75565 0.29908 0.0
H373 H 0.88408 0.69255 0.35832 0.0
H374 H 0.14034 0.74653 0.28571 0.0
H375 H 0.02556 0.67339 0.4791 0.0
H376 H 0.17455 0.72465 0.31766 0.0
H377 H 0.07986 0.7319 0.49142 0.0
O378 O 0.01577 0.67887 0.31352 0.0
H379 H 0.86887 0.57841 0.39065 0.0
H380 H 0.90882 0.66041 0.29698 0.0
H381 H 0.85829 0.59863 0.29069 0.0
H382 H 0.83792 0.55717 0.3378 0.0
H383 H 0.91961 0.64031 0.39571 0.0
H384 H 0.85093 0.71849 0.33159 0.0
H385 H 0.88023 0.76344 0.28773 0.0
O386 O 0.97584 0.69765 0.30797 0.0
C387 C 0.03271 0.76366 0.35109 0.0
C388 C 0.92969 0.76238 0.29052 0.0
C389 C 0.87816 0.72677 0.32428 0.0
N390 N 0.93146 0.72245 0.33016 0.0
C391 C 0.94783 0.74731 0.30618 0.0
C392 C 0.89712 0.71225 0.33939 0.0
C393 C 0.89461 0.75198 0.29966 0.0
C394 C 0.02992 0.6827 0.42762 0.0
N395 N 0.04883 0.70575 0.40308 0.0
C396 C 0.04074 0.6917 0.45974 0.0
C397 C 0.07117 0.72456 0.46664 0.0
C398 C 0.09035 0.74793 0.44147 0.0
C399 C 0.07871 0.73804 0.40964 0.0
C400 C 0.13283 0.69831 0.35324 0.0
C401 C 0.09471 0.72283 0.31782 0.0
C402 C 0.09859 0.69076 0.36285 0.0
N403 N 0.08009 0.70323 0.34531 0.0
C404 C 0.12888 0.73091 0.30748 0.0
C405 C 0.14804 0.71859 0.32539 0.0
C406 C 0.99559 0.68603 0.29621 0.0
C407 C 0.87745 0.59624 0.36996 0.0
C408 C 0.90032 0.64248 0.3175 0.0
C409 C 0.87157 0.60756 0.31385 0.0
C410 C 0.86013 0.58432 0.34029 0.0
N411 N 0.91716 0.65399 0.34669 0.0
C412 C 0.90608 0.63136 0.37272 0.0
Co413 Co 0.33973 0.0285 0.70165 0.0
Co414 Co 0.25882 0.95056 0.6857 0.0
O415 O 0.30445 0.97763 0.70943 0.0
C416 C 0.38453 0.99428 0.68986 0.0
O417 O 0.35788 0.96893 0.67328 0.0
C418 C 0.23615 0.94016 0.75545 0.0
O419 O 0.2627 0.97245 0.76209 0.0
O420 O 0.24755 0.99037 0.69027 0.0
O421 O 0.30054 0.04024 0.69971 0.0
H422 H 0.16799 0.93409 0.60102 0.0
H423 H 0.34955 0.99108 0.75745 0.0
O424 O 0.3808 0.01874 0.70362 0.0
H425 H 0.33823 0.09037 0.8046 0.0
H426 H 0.45546 0.14439 0.72007 0.0
H427 H 0.34263 0.08447 0.65782 0.0
H428 H 0.33606 0.08179 0.7455 0.0
H429 H 0.41135 0.0805 0.72949 0.0
O430 O 0.23152 0.92798 0.72671 0.0
H431 H 0.22459 0.96751 0.63147 0.0
H432 H 0.19691 0.87556 0.68934 0.0
H433 H 0.38581 0.14852 0.64789 0.0
H434 H 0.35231 0.99891 0.81671 0.0
H435 H 0.44269 0.1789 0.67915 0.0
H436 H 0.34649 0.04877 0.84064 0.0
O437 O 0.33704 0.02118 0.65365 0.0
H438 H 0.29787 0.86484 0.72533 0.0
H439 H 0.25782 0.9052 0.63056 0.0
H440 H 0.2729 0.85721 0.62409 0.0
H441 H 0.29303 0.83667 0.67173 0.0
H442 H 0.28285 0.91302 0.7306 0.0
H443 H 0.13987 0.84126 0.65971 0.0
H444 H 0.12516 0.87049 0.6151 0.0
O445 O 0.28404 0.9715 0.64412 0.0
C446 C 0.26672 0.02408 0.69538 0.0
C447 C 0.17412 0.92103 0.62037 0.0
C448 C 0.15832 0.86895 0.65334 0.0
N449 N 0.21413 0.9235 0.66209 0.0
C450 C 0.20616 0.9398 0.63766 0.0
C451 C 0.19062 0.88855 0.6701 0.0
C452 C 0.15009 0.88536 0.6283 0.0
C453 C 0.34732 0.01302 0.7677 0.0
N454 N 0.34266 0.03595 0.74807 0.0
C455 C 0.34876 0.01724 0.80126 0.0
C456 C 0.34544 0.04519 0.81467 0.0
C457 C 0.34077 0.06852 0.79447 0.0
C458 C 0.33941 0.06345 0.76103 0.0
C459 C 0.43075 0.13146 0.70632 0.0
C460 C 0.36726 0.09754 0.67162 0.0
C461 C 0.40573 0.09525 0.71146 0.0
N462 N 0.37437 0.0788 0.69431 0.0
C463 C 0.39165 0.13379 0.66583 0.0
C464 C 0.42357 0.15081 0.68336 0.0
C465 C 0.31352 0.99811 0.6345 0.0
C466 C 0.28907 0.87351 0.7044 0.0
C467 C 0.26674 0.89656 0.65134 0.0
C468 C 0.27513 0.86928 0.64757 0.0
C469 C 0.2864 0.85775 0.67431 0.0
N470 N 0.26939 0.91186 0.68093 0.0
C471 C 0.28042 0.9007 0.70726 0.0
Co472 Co 0.32 0.34011 0.02327 0.0
Co473 Co 0.31366 0.25702 0.01712 0.0
O474 O 0.33252 0.3042 0.03831 0.0
C475 C 0.39989 0.38411 0.02592 0.0
O476 O 0.40197 0.35696 0.01383 0.0
C477 C 0.30325 0.2389 0.08829 0.0
O478 O 0.29891 0.26653 0.09399 0.0
O479 O 0.26319 0.24712 0.02199 0.0
O480 O 0.27014 0.30167 0.01251 0.0
H481 H 0.23646 0.16041 0.9379 0.0
H482 H 0.3531 0.35016 0.08795 0.0
O483 O 0.3695 0.38073 0.03286 0.0
H484 H 0.23407 0.33734 0.10767 0.0
H485 H 0.31901 0.45674 0.02862 0.0
H486 H 0.28017 0.34521 0.96682 0.0
H487 H 0.25392 0.33518 0.05218 0.0
H488 H 0.334 0.4114 0.04761 0.0
O489 O 0.3094 0.23235 0.05969 0.0
H490 H 0.26081 0.21916 0.96493 0.0
H491 H 0.32638 0.19507 0.02476 0.0
H492 H 0.26437 0.38972 0.9471 0.0
H493 H 0.33453 0.35303 0.14386 0.0
H494 H 0.28383 0.44598 0.97809 0.0
H495 H 0.27455 0.34644 0.15399 0.0
O496 O 0.33565 0.33765 0.97868 0.0
H497 H 0.43849 0.29671 0.05656 0.0
H498 H 0.35682 0.25176 0.96286 0.0
H499 H 0.41941 0.26528 0.95673 0.0
H500 H 0.46071 0.28784 1.00384 0.0
H501 H 0.37576 0.28323 0.06148 0.0
H502 H 0.30247 0.13594 0.99859 0.0
H503 H 0.25729 0.11833 0.95472 0.0
O504 O 0.31752 0.27912 0.97336 0.0
C505 C 0.25065 0.26776 0.01548 0.0
C506 C 0.2562 0.16781 0.95693 0.0
C507 C 0.29322 0.15406 0.99102 0.0
N508 N 0.29514 0.21065 0.99626 0.0
C509 C 0.27015 0.20108 0.97227 0.0
C510 C 0.30658 0.18755 0.00581 0.0
C511 C 0.26788 0.1442 0.9664 0.0
C512 C 0.32712 0.34765 0.09218 0.0
N513 N 0.30466 0.34255 0.06686 0.0
C514 C 0.31668 0.34913 0.12388 0.0
C515 C 0.283 0.34537 0.12955 0.0
C516 C 0.26025 0.34022 0.10358 0.0
C517 C 0.27159 0.33886 0.07221 0.0
C518 C 0.3103 0.4323 0.01495 0.0
C519 C 0.28855 0.36951 0.98056 0.0
C520 C 0.31875 0.40654 0.02555 0.0
N521 N 0.30773 0.37553 0.00848 0.0
C522 C 0.2796 0.39467 0.96922 0.0
C523 C 0.29056 0.42624 0.9866 0.0
C524 C 0.32925 0.31048 0.96152 0.0
C525 C 0.42073 0.28681 0.03587 0.0
C526 C 0.37466 0.26177 0.98341 0.0
C527 C 0.41005 0.26926 0.97983 0.0
C528 C 0.4332 0.28188 0.00628 0.0
N529 N 0.36261 0.26662 0.01253 0.0
C530 C 0.38515 0.279 0.03855 0.0
Co531 Co 0.97988 0.30732 0.3709 0.0
Co532 Co 0.05817 0.30462 0.3566 0.0
O533 O 0.03074 0.32347 0.3794 0.0
C534 C 0.01481 0.38705 0.36341 0.0
O535 O 0.04326 0.3877 0.35107 0.0
C536 C 0.06987 0.29214 0.42566 0.0
O537 O 0.03525 0.27794 0.43085 0.0
O538 O 0.01976 0.25366 0.36436 0.0
O539 O 0.96905 0.25658 0.36825 0.0
H540 H 0.07522 0.22531 0.27781 0.0
H541 H 0.01599 0.35293 0.42777 0.0
O542 O 0.98838 0.35767 0.37335 0.0
H543 H 0.9158 0.24114 0.47219 0.0
H544 H 0.86243 0.30474 0.3875 0.0
H545 H 0.92554 0.25462 0.32586 0.0
H546 H 0.92558 0.24927 0.41327 0.0
H547 H 0.92632 0.32538 0.39799 0.0
O548 O 0.0829 0.30454 0.39783 0.0
H549 H 0.04112 0.24899 0.3065 0.0
H550 H 0.13445 0.32145 0.35892 0.0
H551 H 0.86152 0.23292 0.31486 0.0
H552 H 1.00703 0.34612 0.48689 0.0
H553 H 0.82954 0.258 0.34582 0.0
H554 H 0.95668 0.28984 0.50943 0.0
O555 O 0.98855 0.31346 0.32321 0.0
H556 H 0.14381 0.43246 0.38808 0.0
H557 H 0.0989 0.34555 0.29814 0.0
H558 H 0.14536 0.40836 0.28753 0.0
H559 H 0.16819 0.45228 0.33271 0.0
H560 H 0.09706 0.36946 0.39756 0.0
H561 H 0.16953 0.29837 0.33102 0.0
H562 H 0.13994 0.25004 0.29003 0.0
O563 O 0.03499 0.3043 0.31477 0.0
C564 C 0.98571 0.23904 0.3669 0.0
C565 C 0.08844 0.24641 0.29558 0.0
C566 C 0.14135 0.28739 0.32547 0.0
N567 N 0.08575 0.28664 0.33428 0.0
C568 C 0.06926 0.25996 0.31187 0.0
C569 C 0.12132 0.30027 0.34126 0.0
C570 C 0.12474 0.26028 0.30247 0.0
C571 C 0.99389 0.32848 0.43743 0.0
N572 N 0.97133 0.30155 0.41714 0.0
C573 C 0.989 0.32473 0.47091 0.0
C574 C 0.96077 0.29313 0.48354 0.0
C575 C 0.93784 0.26578 0.46266 0.0
C576 C 0.94358 0.27048 0.42933 0.0
C577 C 0.87606 0.29355 0.37389 0.0
C578 C 0.91175 0.26554 0.33955 0.0
C579 C 0.91226 0.30521 0.37965 0.0
N580 N 0.92958 0.29104 0.3627 0.0
C581 C 0.87553 0.25321 0.33315 0.0
C582 C 0.85761 0.26733 0.35051 0.0
C583 C 0.00992 0.30941 0.30454 0.0
C584 C 0.13415 0.41355 0.36822 0.0
C585 C 0.10856 0.36454 0.31791 0.0
C586 C 0.13496 0.40005 0.31176 0.0
C587 C 0.14778 0.42467 0.33713 0.0
N588 N 0.09537 0.35383 0.34848 0.0
C589 C 0.1078 0.37781 0.37347 0.0
Co590 Co 0.67583 0.98157 0.69926 0.0
Co591 Co 0.75596 0.06067 0.68476 0.0
O592 O 0.71025 0.03236 0.708 0.0
C593 C 0.63001 0.01473 0.68886 0.0
O594 O 0.65647 0.04045 0.67234 0.0
C595 C 0.78029 0.06987 0.75379 0.0
O596 O 0.75882 0.0353 0.75839 0.0
O597 O 0.76873 0.02191 0.68983 0.0
O598 O 0.71578 0.97094 0.69627 0.0
H599 H 0.84981 0.08074 0.60193 0.0
H600 H 0.66583 0.01708 0.75643 0.0
O601 O 0.63413 0.99031 0.70222 0.0
H602 H 0.6789 0.91739 0.80012 0.0
H603 H 0.56134 0.864 0.71597 0.0
H604 H 0.6741 0.92745 0.65378 0.0
H605 H 0.68043 0.92746 0.74127 0.0
H606 H 0.60459 0.92783 0.72664 0.0
O607 O 0.78166 0.08374 0.7262 0.0
H608 H 0.79282 0.04559 0.63156 0.0
H609 H 0.81576 0.13666 0.68877 0.0
H610 H 0.63178 0.86351 0.64256 0.0
H611 H 0.6638 0.00779 0.81549 0.0
H612 H 0.57493 0.83135 0.67379 0.0
H613 H 0.67047 0.9577 0.83767 0.0
O614 O 0.67835 0.9903 0.65148 0.0
H615 H 0.7122 0.14312 0.7229 0.0
H616 H 0.7559 0.10504 0.62912 0.0
H617 H 0.73864 0.15139 0.62194 0.0
H618 H 0.71665 0.17077 0.66907 0.0
H619 H 0.72944 0.0966 0.72891 0.0
H620 H 0.87315 0.17271 0.65997 0.0
H621 H 0.89043 0.14479 0.61611 0.0
O622 O 0.73205 0.03937 0.6428 0.0
C623 C 0.74981 0.98787 0.69329 0.0
C624 C 0.84256 0.09322 0.62097 0.0
C625 C 0.85568 0.14482 0.65358 0.0
N626 N 0.80093 0.08905 0.66183 0.0
C627 C 0.8103 0.07347 0.6378 0.0
C628 C 0.82321 0.12423 0.66988 0.0
C629 C 0.86535 0.12915 0.62895 0.0
C630 C 0.66849 0.99508 0.76593 0.0
N631 N 0.67319 0.97282 0.74546 0.0
C632 C 0.66742 0.99001 0.79938 0.0
C633 C 0.67121 0.96193 0.81181 0.0
C634 C 0.67597 0.93931 0.79076 0.0
C635 C 0.67693 0.94522 0.75746 0.0
C636 C 0.58604 0.87771 0.70223 0.0
C637 C 0.64949 0.9136 0.66757 0.0
C638 C 0.61058 0.91388 0.70809 0.0
N639 N 0.64192 0.9313 0.69095 0.0
C640 C 0.62559 0.87741 0.66105 0.0
C641 C 0.59368 0.8594 0.67856 0.0
C642 C 0.70247 0.01334 0.63269 0.0
C643 C 0.7218 0.13495 0.70219 0.0
C644 C 0.7462 0.11319 0.6497 0.0
C645 C 0.73657 0.13954 0.64551 0.0
C646 C 0.72426 0.15042 0.67197 0.0
N647 N 0.74374 0.09816 0.67941 0.0
C648 C 0.73172 0.10871 0.70547 0.0
Co649 Co 0.70084 0.67784 0.02988 0.0
Co650 Co 0.7016 0.75827 0.01628 0.0
O651 O 0.68439 0.71225 0.03931 0.0
C652 C 0.62061 0.63279 0.0245 0.0
O653 O 0.61862 0.66104 0.0155 0.0
C654 C 0.7148 0.77951 0.08636 0.0
O655 O 0.72066 0.75283 0.09211 0.0
O656 O 0.75305 0.77045 0.01942 0.0
O657 O 0.75123 0.71787 0.02782 0.0
H658 H 0.7726 0.85103 0.93173 0.0
H659 H 0.65432 0.66562 0.08683 0.0
O660 O 0.65072 0.63566 0.03168 0.0
H661 H 0.76683 0.67857 0.1308 0.0
H662 H 0.70475 0.56334 0.04414 0.0
H663 H 0.75401 0.67766 0.98436 0.0
H664 H 0.75924 0.68198 0.07202 0.0
H665 H 0.68341 0.60588 0.05565 0.0
O666 O 0.70693 0.78477 0.05793 0.0
H667 H 0.75129 0.79412 0.9614 0.0
H668 H 0.68712 0.81919 0.02219 0.0
H669 H 0.77637 0.63605 0.97232 0.0
H670 H 0.66059 0.6616 0.14578 0.0
H671 H 0.75174 0.57844 1.00235 0.0
H672 H 0.71724 0.66823 0.16811 0.0
O673 O 0.69502 0.6814 0.98223 0.0
H674 H 0.57799 0.71821 0.05954 0.0
H675 H 0.65519 0.75852 0.96263 0.0
H676 H 0.59185 0.743 0.95812 0.0
H677 H 0.55279 0.72276 0.00685 0.0
H678 H 0.64138 0.73357 0.06285 0.0
H679 H 0.708 0.87651 0.99336 0.0
H680 H 0.75094 0.89268 0.94769 0.0
O681 O 0.6967 0.73389 0.97405 0.0
C682 C 0.76821 0.75173 0.02386 0.0
C683 C 0.75384 0.84425 0.95155 0.0
C684 C 0.71762 0.85857 0.98617 0.0
N685 N 0.71786 0.80325 0.9934 0.0
C686 C 0.74161 0.81203 0.9684 0.0
C687 C 0.70597 0.82612 1.00246 0.0
C688 C 0.7417 0.86762 0.96053 0.0
C689 C 0.67889 0.66816 0.09636 0.0
N690 N 0.70632 0.67392 0.07602 0.0
C691 C 0.68236 0.66602 0.12976 0.0
C692 C 0.71417 0.6698 0.14228 0.0
C693 C 0.74202 0.67564 0.12136 0.0
C694 C 0.73761 0.67767 0.08811 0.0
C695 C 0.71574 0.58839 0.03093 0.0
C696 C 0.74327 0.65271 0.99764 0.0
C697 C 0.70369 0.61255 0.03728 0.0
N698 N 0.71762 0.64434 0.02084 0.0
C699 C 0.75597 0.62922 0.99065 0.0
C700 C 0.74211 0.59688 0.00748 0.0
C701 C 0.69423 0.7048 0.96373 0.0
C702 C 0.59475 0.72707 0.03815 0.0
C703 C 0.63833 0.74951 0.98388 0.0
C704 C 0.60251 0.74089 0.98122 0.0
C705 C 0.58062 0.72958 0.00857 0.0
N706 N 0.65201 0.74701 0.01299 0.0
C707 C 0.63071 0.73596 0.03991 0.0
H708 H 0.31401 0.07358 0.20339 0.0
H709 H 0.2924 0.13449 0.27371 0.0
H710 H 0.31418 0.11255 0.1605 0.0
H711 H 0.28984 0.17189 0.23092 0.0
H712 H 0.31921 0.25574 0.15234 0.0
H713 H 0.32028 0.21744 0.19529 0.0
H714 H 0.28263 0.12907 0.12765 0.0
H715 H 0.28428 0.16832 0.08459 0.0
C716 C 0.30873 0.09501 0.20958 0.0
C717 C 0.30332 0.10099 0.24194 0.0
C718 C 0.30853 0.11736 0.18491 0.0
C719 C 0.30197 0.14579 0.1918 0.0
C720 C 0.2959 0.15112 0.22432 0.0
C721 C 0.29702 0.12937 0.24901 0.0
C722 C 0.31115 0.22809 0.14679 0.0
C723 C 0.30178 0.21513 0.11507 0.0
C724 C 0.31149 0.20586 0.17151 0.0
C725 C 0.30158 0.16972 0.16537 0.0
C726 C 0.2914 0.15676 0.13357 0.0
C727 C 0.29196 0.17924 0.10876 0.0
H728 H 0.18684 0.31698 0.60515 0.0
H729 H 0.23409 0.27602 0.53727 0.0
H730 H 0.14601 0.31502 0.5634 0.0
H731 H 0.19278 0.27374 0.49543 0.0
H732 H 0.14136 0.31394 0.42079 0.0
H733 H 0.18147 0.31463 0.46264 0.0
H734 H 0.09411 0.27233 0.53136 0.0
H735 H 0.0538 0.27192 0.4894 0.0
C736 C 0.18853 0.30748 0.58132 0.0
C737 C 0.2139 0.2967 0.57463 0.0
C738 C 0.16485 0.30611 0.55741 0.0
C739 C 0.16596 0.29415 0.52602 0.0
C740 C 0.19138 0.28343 0.51926 0.0
C741 C 0.21498 0.28458 0.54329 0.0
C742 C 0.13057 0.30479 0.44481 0.0
C743 C 0.09422 0.29289 0.45165 0.0
C744 C 0.15362 0.30495 0.46879 0.0
C745 C 0.14109 0.29342 0.5004 0.0
C746 C 0.10478 0.28169 0.50735 0.0
C747 C 0.0816 0.28132 0.48325 0.0
H748 H 0.78113 0.05241 0.81769 0.0
H749 H 0.83259 0.14061 0.75016 0.0
H750 H 0.81994 0.09127 0.86087 0.0
H751 H 0.87098 0.17932 0.79324 0.0
H752 H 0.95901 0.2272 0.87166 0.0
H753 H 0.92087 0.1881 0.82827 0.0
H754 H 0.82964 0.14355 0.89276 0.0
H755 H 0.86757 0.18224 0.93604 0.0
C756 C 0.80065 0.08004 0.81202 0.0
C757 C 0.80363 0.09327 0.78038 0.0
C758 C 0.82281 0.1024 0.83683 0.0
C759 C 0.84869 0.1385 0.83058 0.0
C760 C 0.85172 0.15161 0.7989 0.0
C761 C 0.82945 0.12938 0.77419 0.0
C762 C 0.93081 0.20915 0.87656 0.0
C763 C 0.91649 0.20797 0.90743 0.0
C764 C 0.90888 0.18679 0.85164 0.0
C765 C 0.87214 0.1625 0.85701 0.0
C766 C 0.85786 0.16149 0.88784 0.0
C767 C 0.87967 0.18396 0.91264 0.0
H768 H 0.73046 0.84912 0.08177 0.0
H769 H 0.70213 0.76388 0.15089 0.0
H770 H 0.73207 0.88847 0.12471 0.0
H771 H 0.70099 0.80211 0.19377 0.0
H772 H 0.72801 0.88556 0.2711 0.0
H773 H 0.73147 0.84884 0.22817 0.0
H774 H 0.7002 0.90356 0.15868 0.0
H775 H 0.69949 0.94198 0.20162 0.0
C776 C 0.72424 0.8387 0.10623 0.0
C777 C 0.71628 0.80341 0.11295 0.0
C778 C 0.72478 0.86121 0.13097 0.0
C779 C 0.71644 0.84882 0.16313 0.0
C780 C 0.70837 0.81328 0.16968 0.0
C781 C 0.70875 0.79108 0.145 0.0
C782 C 0.72213 0.88985 0.24656 0.0
C783 C 0.71357 0.91674 0.23974 0.0
C784 C 0.72375 0.86847 0.22181 0.0
C785 C 0.71589 0.87265 0.18953 0.0
C786 C 0.70723 0.89969 0.18288 0.0
C787 C 0.70654 0.92172 0.20758 0.0
H788 H 0.89863 0.73277 0.41749 0.0
H789 H 0.94943 0.69758 0.48697 0.0
H790 H 0.86062 0.73518 0.45973 0.0
H791 H 0.90974 0.69749 0.52915 0.0
H792 H 0.85396 0.7271 0.60567 0.0
H793 H 0.89455 0.72913 0.56372 0.0
H794 H 0.8118 0.70332 0.49205 0.0
H795 H 0.77227 0.70381 0.53402 0.0
C796 C 0.90144 0.72523 0.44187 0.0
C797 C 0.92712 0.71503 0.44887 0.0
C798 C 0.87929 0.72625 0.4662 0.0
C799 C 0.88149 0.71626 0.49823 0.0
C800 C 0.90739 0.70609 0.50512 0.0
C801 C 0.93015 0.70589 0.48085 0.0
C802 C 0.84455 0.72206 0.58088 0.0
C803 C 0.80989 0.7154 0.57318 0.0
C804 C 0.8678 0.72289 0.5567 0.0
C805 C 0.85682 0.71623 0.52409 0.0
C806 C 0.82189 0.70939 0.51656 0.0
C807 C 0.79895 0.7094 0.5407 0.0
H808 H 0.16679 0.88634 0.74887 0.0
H809 H 0.24954 0.94152 0.82036 0.0
H810 H 0.12593 0.84776 0.79063 0.0
H811 H 0.20972 0.90133 0.8621 0.0
H812 H 0.12301 0.84419 0.93687 0.0
H813 H 0.16154 0.8849 0.89502 0.0
H814 H 0.1097 0.80006 0.82418 0.0
H815 H 0.06951 0.76034 0.86599 0.0
C816 C 0.17635 0.88997 0.77359 0.0
C817 C 0.21138 0.91707 0.78133 0.0
C818 C 0.15296 0.86752 0.79766 0.0
C819 C 0.16416 0.87088 0.83014 0.0
C820 C 0.19947 0.89808 0.83771 0.0
C821 C 0.22257 0.92112 0.81369 0.0
C822 C 0.11973 0.83437 0.91226 0.0
C823 C 0.09312 0.79906 0.90473 0.0
C824 C 0.14216 0.85768 0.88815 0.0
C825 C 0.13931 0.84612 0.85583 0.0
C826 C 0.11256 0.81057 0.84845 0.0
C827 C 0.08951 0.78752 0.8725 0.0
H828 H 0.40072 0.96268 0.33959 0.0
H829 H 0.46877 0.07577 0.32062 0.0
H830 H 0.45268 0.95468 0.34014 0.0
H831 H 0.52095 0.06765 0.31828 0.0
H832 H 0.61393 0.05153 0.34408 0.0
H833 H 0.56188 0.05944 0.34507 0.0
H834 H 0.49531 0.94948 0.31317 0.0
H835 H 0.54735 0.94114 0.31507 0.0
C836 C 0.42692 0.9858 0.33496 0.0
C837 C 0.43071 0.01988 0.33009 0.0
C838 C 0.45692 0.98119 0.33495 0.0
C839 C 0.49161 0.01037 0.32909 0.0
C840 C 0.49512 0.04448 0.32369 0.0
C841 C 0.46512 0.04925 0.3247 0.0
C842 C 0.58805 0.02903 0.33743 0.0
C843 C 0.58465 0.99567 0.3296 0.0
C844 C 0.55804 0.03363 0.33764 0.0
C845 C 0.5238 0.00527 0.32904 0.0
C846 C 0.52072 0.97192 0.32074 0.0
C847 C 0.55065 0.96705 0.32153 0.0
H848 H 0.61908 0.54982 0.68332 0.0
H849 H 0.57343 0.61039 0.64178 0.0
H850 H 0.55975 0.49559 0.68231 0.0
H851 H 0.51451 0.55646 0.64089 0.0
H852 H 0.40888 0.46169 0.68097 0.0
H853 H 0.4684 0.5155 0.6809 0.0
H854 H 0.51405 0.45389 0.64202 0.0
H855 H 0.45473 0.40019 0.64199 0.0
C856 C 0.59651 0.55158 0.67387 0.0
C857 C 0.60114 0.58453 0.66263 0.0
C858 C 0.56253 0.52049 0.67319 0.0
C859 C 0.53235 0.52174 0.66165 0.0
C860 C 0.53707 0.55464 0.65028 0.0
C861 C 0.57101 0.58554 0.65059 0.0
C862 C 0.43157 0.45964 0.6723 0.0
C863 C 0.42692 0.42658 0.66143 0.0
C864 C 0.46567 0.49051 0.67216 0.0
C865 C 0.49601 0.48897 0.66153 0.0
C866 C 0.49133 0.45592 0.65067 0.0
C867 C 0.45722 0.42519 0.65043 0.0
H868 H 0.06831 0.60974 0.98211 0.0
H869 H 0.95636 0.5636 0.00673 0.0
H870 H 0.06141 0.54993 0.98052 0.0
H871 H 0.94974 0.50417 0.00804 0.0
H872 H 0.93693 0.39597 0.98502 0.0
H873 H 0.94394 0.45578 0.98164 0.0
H874 H 0.05601 0.50222 0.00783 0.0
H875 H 0.04925 0.44277 0.0083 0.0
C876 C 0.04233 0.58673 0.98767 0.0
C877 C 0.01289 0.59131 0.99443 0.0
C878 C 0.03828 0.55226 0.98705 0.0
C879 C 1.0049 0.5215 0.99422 0.0
C880 C 0.97567 0.52655 1.00149 0.0
C881 C 0.9795 0.56085 1.0011 0.0
C882 C 0.96305 0.41913 0.98975 0.0
C883 C 0.99254 0.41471 0.9967 0.0
C884 C 0.96715 0.45361 0.98817 0.0
C885 C 1.00065 0.48454 0.99458 0.0
C886 C 0.02998 0.47967 1.00186 0.0
C887 C 0.02608 0.44536 1.00243 0.0
H888 H 0.94076 0.54368 0.3755 0.0
H889 H 0.0525 0.60594 0.34906 0.0
H890 H 0.94605 0.48984 0.37886 0.0
H891 H 0.05745 0.55225 0.3494 0.0
H892 H 0.06812 0.45622 0.3741 0.0
H893 H 0.06265 0.50992 0.37629 0.0
H894 H 0.94951 0.44556 0.35335 0.0
H895 H 0.95486 0.39197 0.35425 0.0
C896 C 0.96635 0.54568 0.37005 0.0
C897 C 0.99623 0.57899 0.36228 0.0
C898 C 0.96946 0.5147 0.37163 0.0
C899 C 1.00228 0.51605 0.36437 0.0
C900 C 0.03194 0.54966 0.35613 0.0
C901 C 0.02908 0.58067 0.35561 0.0
C902 C 0.04212 0.45377 0.36974 0.0
C903 C 0.01195 0.41999 0.36411 0.0
C904 C 0.03888 0.48465 0.37066 0.0
C905 C 1.00555 0.48275 0.36481 0.0
C906 C 0.9755 0.44863 0.35882 0.0
C907 C 0.97857 0.4177 0.35899 0.0
H908 H 0.61227 0.06542 0.67072 0.0
H909 H 0.56652 0.95817 0.70988 0.0
H910 H 0.55281 0.05997 0.67135 0.0
H911 H 0.50732 0.95281 0.71041 0.0
H912 H 0.40197 0.94371 0.67035 0.0
H913 H 0.46134 0.94884 0.67056 0.0
H914 H 0.50705 0.055 0.71175 0.0
H915 H 0.44805 0.04998 0.71164 0.0
C916 C 0.58962 0.04076 0.67955 0.0
C917 C 0.59428 0.0123 0.69029 0.0
C918 C 0.55556 0.03767 0.68001 0.0
C919 C 0.52528 0.00589 0.69085 0.0
C920 C 0.52998 0.97749 0.7016 0.0
C921 C 0.56404 0.98072 0.70151 0.0
C922 C 0.42466 0.96807 0.67956 0.0
C923 C 0.42013 0.99637 0.691 0.0
C924 C 0.45866 0.97097 0.67978 0.0
C925 C 0.48897 1.00241 0.69105 0.0
C926 C 0.48437 0.03061 0.70256 0.0
C927 C 0.45041 0.02756 0.70271 0.0
H928 H 0.40318 0.44831 0.01753 0.0
H929 H 0.46949 0.40155 0.03799 0.0
H930 H 0.45574 0.50771 0.01692 0.0
H931 H 0.52231 0.4614 0.04021 0.0
H932 H 0.61632 0.56885 0.01159 0.0
H933 H 0.56359 0.5094 0.01222 0.0
H934 H 0.49909 0.5556 0.04322 0.0
H935 H 0.55177 0.61538 0.03973 0.0
C936 C 0.4291 0.45089 0.02262 0.0
C937 C 0.43223 0.42026 0.02783 0.0
C938 C 0.45945 0.48519 0.02254 0.0
C939 C 0.49387 0.49007 0.0286 0.0
C940 C 0.4967 0.45918 0.03461 0.0
C941 C 0.46634 0.4247 0.0337 0.0
C942 C 0.59075 0.56619 0.01839 0.0
C943 C 0.58809 0.59675 0.02547 0.0
C944 C 0.56037 0.5319 0.01913 0.0
C945 C 0.52651 0.52698 0.02794 0.0
C946 C 0.52419 0.55784 0.03553 0.0
C947 C 0.55448 0.59229 0.0338 0.0
H948 H 0.08794 0.79229 0.30899 0.0
H949 H 0.03443 0.8224 0.38028 0.0
H950 H 0.13425 0.85444 0.30284 0.0
H951 H 0.08155 0.88583 0.37404 0.0
H952 H 0.20806 0.97387 0.38558 0.0
H953 H 0.14797 0.92071 0.38797 0.0
H954 H 0.14692 0.91345 0.28373 0.0
H955 H 0.20721 0.96597 0.28169 0.0
C956 C 0.08587 0.81238 0.32313 0.0
C957 C 0.0577 0.80239 0.34533 0.0
C958 C 0.11229 0.8482 0.31932 0.0
C959 C 0.11159 0.87528 0.33778 0.0
C960 C 0.08282 0.86557 0.35945 0.0
C961 C 0.05581 0.82939 0.36292 0.0
C962 C 0.19414 0.96179 0.3632 0.0
C963 C 0.21183 0.97413 0.33343 0.0
C964 C 0.15979 0.9313 0.36452 0.0
C965 C 0.14283 0.91253 0.33606 0.0
C966 C 0.15943 0.92702 0.30612 0.0
C967 C 0.19373 0.95732 0.30485 0.0
H968 H 0.27535 0.20301 0.61631 0.0
H969 H 0.22833 0.20495 0.70791 0.0
H970 H 0.26063 0.14115 0.62632 0.0
H971 H 0.21411 0.14294 0.71837 0.0
H972 H 0.27504 0.0756 0.73793 0.0
H973 H 0.26217 0.1241 0.72831 0.0
H974 H 0.21132 0.07512 0.6378 0.0
H975 H 0.22371 0.026 0.64786 0.0
C976 C 0.26077 0.1897 0.63812 0.0
C977 C 0.25289 0.20863 0.66131 0.0
C978 C 0.25222 0.15424 0.64383 0.0
C979 C 0.23633 0.13723 0.67319 0.0
C980 C 0.22634 0.15541 0.69552 0.0
C981 C 0.23421 0.19073 0.68946 0.0
C982 C 0.25996 0.07454 0.71656 0.0
C983 C 0.25032 0.04711 0.69366 0.0
C984 C 0.25246 0.10223 0.71109 0.0
C985 C 0.23585 0.10348 0.68224 0.0
C986 C 0.22413 0.07479 0.66025 0.0
C987 C 0.23098 0.04659 0.6661 0.0
H988 H 0.19507 0.22027 0.05393 0.0
H989 H 0.219 0.28301 0.96654 0.0
H990 H 0.13218 0.20624 0.05065 0.0
H991 H 0.15661 0.26862 0.96284 0.0
H992 H 0.03923 0.22904 0.9559 0.0
H993 H 0.0907 0.2189 0.95705 0.0
H994 H 0.10898 0.25108 0.05733 0.0
H995 H 0.05824 0.26176 0.05583 0.0
C996 C 0.18658 0.23001 0.03351 0.0
C997 C 0.21173 0.25273 0.01052 0.0
C998 C 0.15074 0.22217 0.03169 0.0
C999 C 0.13946 0.23628 0.00644 0.0
C1000 C 0.16427 0.25694 0.98233 0.0
C1001 C 0.20005 0.26536 0.98453 0.0
C1002 C 0.05352 0.23258 0.97841 0.0
C1003 C 0.0448 0.24586 0.00585 0.0
C1004 C 0.08305 0.22706 0.97906 0.0
C1005 C 0.10386 0.23419 0.00731 0.0
C1006 C 0.09325 0.24487 0.03537 0.0
C1007 C 0.06428 0.25105 0.03452 0.0
H1008 H 0.93385 0.19611 0.40938 0.0
H1009 H 0.98508 0.19382 0.32045 0.0
H1010 H 0.88583 0.13452 0.39992 0.0
H1011 H 0.93659 0.13216 0.31057 0.0
H1012 H 0.80911 0.06801 0.28746 0.0
H1013 H 0.87064 0.11544 0.29806 0.0
H1014 H 0.86773 0.06745 0.39059 0.0
H1015 H 0.8061 0.01931 0.37948 0.0
C1016 C 0.93539 0.18193 0.38834 0.0
C1017 C 0.96313 0.1996 0.36568 0.0
C1018 C 0.90799 0.14663 0.38297 0.0
C1019 C 0.9074 0.12856 0.35444 0.0
C1020 C 0.93643 0.14545 0.33277 0.0
C1021 C 0.96429 0.1806 0.33852 0.0
C1022 C 0.82217 0.06685 0.30948 0.0
C1023 C 0.80306 0.04 0.33258 0.0
C1024 C 0.85741 0.09394 0.31555 0.0
C1025 C 0.87396 0.0952 0.3452 0.0
C1026 C 0.85561 0.06706 0.36751 0.0
C1027 C 0.82052 0.03941 0.36108 0.0
H1028 H 0.79527 0.81156 0.70812 0.0
H1029 H 0.74561 0.80931 0.6169 0.0
H1030 H 0.807 0.87293 0.71761 0.0
H1031 H 0.75782 0.87055 0.62594 0.0
H1032 H 0.79209 0.98577 0.64518 0.0
H1033 H 0.8057 0.93737 0.63571 0.0
H1034 H 0.75781 0.89016 0.7277 0.0
H1035 H 0.74374 0.93796 0.73672 0.0
C1036 C 0.78822 0.82474 0.68955 0.0
C1037 C 0.76962 0.80585 0.66176 0.0
C1038 C 0.79467 0.8597 0.69506 0.0
C1039 C 0.78328 0.87653 0.67254 0.0
C1040 C 0.76728 0.85853 0.64357 0.0
C1041 C 0.76017 0.82342 0.63842 0.0
C1042 C 0.78576 0.96576 0.66383 0.0
C1043 C 0.76699 0.96555 0.69171 0.0
C1044 C 0.79327 0.93795 0.65833 0.0
C1045 C 0.78276 0.90994 0.68094 0.0
C1046 C 0.76662 0.91152 0.71 0.0
C1047 C 0.75845 0.93881 0.71514 0.0
H1048 H 0.81217 0.74728 0.06809 0.0
H1049 H 0.81212 0.79184 0.97465 0.0
H1050 H 0.87348 0.7598 0.05896 0.0
H1051 H 0.87357 0.80385 0.96507 0.0
H1052 H 0.93671 0.73842 0.94893 0.0
H1053 H 0.88989 0.75391 0.95732 0.0
H1054 H 0.9401 0.80653 0.04692 0.0
H1055 H 0.98757 0.79145 0.03808 0.0
C1056 C 0.82587 0.76097 0.04608 0.0
C1057 C 0.80762 0.76878 0.02213 0.0
C1058 C 0.86099 0.76823 0.04085 0.0
C1059 C 0.87829 0.78269 0.01124 0.0
C1060 C 0.86087 0.79273 0.98813 0.0
C1061 C 0.82589 0.78613 0.99367 0.0
C1062 C 0.93841 0.75437 0.96984 0.0
C1063 C 0.96567 0.76373 0.99287 0.0
C1064 C 0.9117 0.76341 0.97459 0.0
C1065 C 0.91126 0.78135 1.00284 0.0
C1066 C 0.93982 0.79271 0.02493 0.0
C1067 C 0.96707 0.7843 0.01979 0.0
H1068 H 0.33237 0.0728 0.43804 0.0
H1069 H 0.32593 0.96976 0.42617 0.0
H1070 H 0.3341 0.06716 0.49649 0.0
H1071 H 0.32752 0.96422 0.48489 0.0
H1072 H 0.27674 0.94862 0.5874 0.0
H1073 H 0.28421 0.95581 0.52921 0.0
H1074 H 0.37171 0.06419 0.54211 0.0
H1075 H 0.36443 0.05704 0.60091 0.0
C1076 C 0.33171 0.0491 0.44779 0.0
C1077 C 0.32894 0.02169 0.42723 0.0
C1078 C 0.33292 0.04601 0.48138 0.0
C1079 C 0.33095 0.01527 0.49531 0.0
C1080 C 0.32886 0.98815 0.47484 0.0
C1081 C 0.32806 0.9914 0.44118 0.0
C1082 C 0.2979 0.97393 0.57805 0.0
C1083 C 0.31999 1.00226 0.59902 0.0
C1084 C 0.30228 0.97793 0.54457 0.0
C1085 C 0.32858 0.01051 0.53104 0.0
C1086 C 0.35107 0.03879 0.55187 0.0
C1087 C 0.347 0.03463 0.58553 0.0
H1088 H 0.34339 0.36959 0.92529 0.0
H1089 H 0.32556 0.26156 0.91682 0.0
H1090 H 0.34671 0.37531 0.86651 0.0
H1091 H 0.32917 0.26762 0.85809 0.0
H1092 H 0.36453 0.30306 0.75245 0.0
H1093 H 0.37171 0.30311 0.81135 0.0
H1094 H 0.29942 0.34466 0.82346 0.0
H1095 H 0.292 0.34436 0.76529 0.0
C1096 C 0.34061 0.34721 0.91101 0.0
C1097 C 0.33405 0.31504 0.92591 0.0
C1098 C 0.34244 0.35051 0.87731 0.0
C1099 C 0.33817 0.3219 0.85772 0.0
C1100 C 0.33295 0.29024 0.87257 0.0
C1101 C 0.33068 0.28675 0.90627 0.0
C1102 C 0.35053 0.31258 0.76771 0.0
C1103 C 0.32763 0.32365 0.75409 0.0
C1104 C 0.3545 0.31243 0.80138 0.0
C1105 C 0.33618 0.32398 0.82197 0.0
C1106 C 0.31421 0.33601 0.80825 0.0
C1107 C 0.30981 0.33563 0.77481 0.0
H1108 H 0.97454 0.33714 0.26983 0.0
H1109 H 0.03517 0.2823 0.25855 0.0
H1110 H 0.96759 0.33678 0.21076 0.0
H1111 H 0.02755 0.28142 0.20027 0.0
H1112 H 0.96528 0.2463 0.10449 0.0
H1113 H 0.96943 0.24959 0.16322 0.0
H1114 H 0.01388 0.36439 0.159 0.0
H1115 H 0.01039 0.36144 0.09971 0.0
C1116 C 0.98626 0.32497 0.25487 0.0
C1117 C 1.00534 0.30969 0.26898 0.0
C1118 C 0.98242 0.32493 0.22115 0.0
C1119 C 0.99692 0.30892 0.20111 0.0
C1120 C 0.0159 0.29369 0.21521 0.0
C1121 C 0.02032 0.29433 0.24865 0.0
C1122 C 0.97576 0.2723 0.11591 0.0
C1123 C 0.98772 0.30366 0.09729 0.0
C1124 C 0.97816 0.27412 0.14959 0.0
C1125 C 0.99201 0.30722 0.16555 0.0
C1126 C 1.00292 0.33852 0.14719 0.0
C1127 C 1.0011 0.33681 0.11332 0.0
H1128 H 0.69631 0.04832 0.42467 0.0
H1129 H 0.67507 0.93929 0.43517 0.0
H1130 H 0.6954 0.05351 0.48351 0.0
H1131 H 0.67426 0.94465 0.49364 0.0
H1132 H 0.64828 0.95761 0.59848 0.0
H1133 H 0.64077 0.95201 0.53968 0.0
H1134 H 0.73575 0.0559 0.52776 0.0
H1135 H 0.74341 0.06159 0.58597 0.0
C1136 C 0.69107 0.02535 0.43941 0.0
C1137 C 0.68589 0.99344 0.42504 0.0
C1138 C 0.69071 0.02838 0.47313 0.0
C1139 C 0.6848 0.99949 0.49325 0.0
C1140 C 0.67847 0.96725 0.47886 0.0
C1141 C 0.67917 0.96431 0.44524 0.0
C1142 C 0.66739 0.97938 0.58333 0.0
C1143 C 0.69643 0.01005 0.59713 0.0
C1144 C 0.66314 0.97611 0.54964 0.0
C1145 C 0.6876 1.00359 0.52906 0.0
C1146 C 0.71613 0.03449 0.5429 0.0
C1147 C 0.7206 0.03761 0.57641 0.0
H1148 H 0.70013 0.65326 0.92919 0.0
H1149 H 0.68199 0.74295 0.91734 0.0
H1150 H 0.69913 0.6464 0.87043 0.0
H1151 H 0.68099 0.73594 0.85895 0.0
H1152 H 0.65394 0.69576 0.75456 0.0
H1153 H 0.64645 0.69457 0.81336 0.0
H1154 H 0.74005 0.68327 0.82577 0.0
H1155 H 0.7477 0.68457 0.76756 0.0
C1156 C 0.69556 0.67127 0.91418 0.0
C1157 C 0.69124 0.69872 0.92816 0.0
C1158 C 0.69512 0.66741 0.88049 0.0
C1159 C 0.68998 0.69065 0.86002 0.0
C1160 C 0.68458 0.71734 0.87401 0.0
C1161 C 0.68539 0.72145 0.90759 0.0
C1162 C 0.67271 0.69268 0.76982 0.0
C1163 C 0.70142 0.69026 0.75616 0.0
C1164 C 0.66849 0.69214 0.8035 0.0
C1165 C 0.69261 0.68872 0.82423 0.0
C1166 C 0.72071 0.68542 0.81053 0.0
C1167 C 0.72518 0.68638 0.77702 0.0
H1168 H 0.9489 0.68732 0.25185 0.0
H1169 H 0.04379 0.67716 0.25934 0.0
H1170 H 0.95196 0.6856 0.19313 0.0
H1171 H 0.04704 0.67612 0.20034 0.0
H1172 H 0.06562 0.73199 0.09902 0.0
H1173 H 0.05976 0.72395 0.15733 0.0
H1174 H 0.94792 0.64412 0.14629 0.0
H1175 H 0.95374 0.65176 0.08744 0.0
C1176 C 0.97017 0.68428 0.24108 0.0
C1177 C 0.99608 0.68234 0.26049 0.0
C1178 C 0.97181 0.68317 0.20735 0.0
C1179 C 0.99972 0.68072 0.19215 0.0
C1180 C 0.02529 0.67816 0.21144 0.0
C1181 C 0.02333 0.67865 0.24523 0.0
C1182 C 0.0398 0.71241 0.10881 0.0
C1183 C 0.01014 0.69252 0.08838 0.0
C1184 C 0.03655 0.70769 0.14231 0.0
C1185 C 1.00343 0.68335 0.15636 0.0
C1186 C 0.97376 0.66315 0.13608 0.0
C1187 C 0.97715 0.66745 0.1024 0.0
loop_
_geom_bond_atom_site_label_1
_geom_bond_atom_site_label_2
_geom_bond_distance
_geom_bond_site_symmetry_2
_ccdc_geom_bond_type
Co0 O2 2.143 1_565 S
Co0 O8 2.074 . S
Co0 O11 2.093 1_565 S
Co0 O24 2.097 1_565 S
Co0 N41 2.151 . S
Co0 N49 2.214 . S
Co1 O2 2.160 . S
Co1 O7 2.058 . S
Co1 O17 2.057 . S
Co1 O32 2.037 . S
Co1 N36 2.145 . S
Co1 N57 2.257 . S
O2 Co0 2.143 1_545 S
O2 Co1 2.160 . S
C3 O4 1.278 . S
C3 O11 1.224 . S
O4 C3 1.278 . S
C5 O6 1.245 . S
C5 O17 1.232 . S
O6 C5 1.245 . S
O7 Co1 2.058 . S
O7 C33 1.269 1_545 S
O8 Co0 2.074 . S
O8 C33 1.257 . S
H9 C34 0.930 . S
H10 C40 0.930 . S
O11 Co0 2.093 1_545 S
O11 C3 1.224 . S
H12 C44 0.929 . S
H13 C46 0.930 . S
H14 C47 0.930 . S
H15 C45 0.929 . S
H16 C48 0.928 . S
O17 Co1 2.057 . S
O17 C5 1.232 . S
H18 C37 0.929 . S
H19 C38 0.929 . S
H20 C50 0.931 . S
H21 C42 0.929 . S
H22 C51 0.930 . S
H23 C43 0.931 . S
O24 Co0 2.097 1_545 S
O24 C52 1.214 . S
H25 C53 0.929 . S
H26 C54 0.929 . S
H27 C55 0.930 . S
H28 C56 0.929 . S
H29 C58 0.930 . S
H30 C35 0.930 . S
H31 C39 0.930 . S
O32 Co1 2.037 . S
O32 C52 1.234 . S
C33 O7 1.269 1_565 S
C33 O8 1.257 . S
C34 H9 0.930 . S
C34 C37 1.388 . S
C34 C39 1.418 . S
C35 H30 0.930 . S
C35 C38 1.404 . S
C35 C39 1.353 . S
N36 Co1 2.145 . S
N36 C37 1.397 . S
N36 C38 1.334 . S
C37 H18 0.929 . S
C37 C34 1.388 . S
C37 N36 1.397 . S
C38 H19 0.929 . S
C38 C35 1.404 . S
C38 N36 1.334 . S
C39 H31 0.930 . S
C39 C34 1.418 . S
C39 C35 1.353 . S
C40 H10 0.930 . S
C40 N41 1.330 . S
C40 C42 1.446 . S
N41 Co0 2.151 . S
N41 C40 1.330 . S
N41 C45 1.418 . S
C42 H21 0.929 . S
C42 C40 1.446 . S
C42 C43 1.332 . S
C43 H23 0.931 . S
C43 C42 1.332 . S
C43 C44 1.267 . S
C44 H12 0.929 . S
C44 C43 1.267 . S
C44 C45 1.251 . S
C45 H15 0.929 . S
C45 N41 1.418 . S
C45 C44 1.251 . S
C46 H13 0.930 . S
C46 C48 1.406 . S
C46 C51 1.261 . S
C47 H14 0.930 . S
C47 N49 1.325 . S
C47 C50 1.357 . S
C48 H16 0.928 . S
C48 C46 1.406 . S
C48 N49 1.261 . S
N49 Co0 2.214 . S
N49 C47 1.325 . S
N49 C48 1.261 . S
C50 H20 0.931 . S
C50 C47 1.357 . S
C50 C51 1.312 . S
C51 H22 0.930 . S
C51 C46 1.261 . S
C51 C50 1.312 . S
C52 O24 1.214 . S
C52 O32 1.234 . S
C53 H25 0.929 . S
C53 C56 1.391 . S
C53 C58 1.391 . S
C54 H26 0.929 . S
C54 C55 1.390 . S
C54 N57 1.391 . S
C55 H27 0.930 . S
C55 C54 1.390 . S
C55 C56 1.392 . S
C56 H28 0.929 . S
C56 C53 1.391 . S
C56 C55 1.392 . S
N57 Co1 2.257 . S
N57 C54 1.391 . S
N57 C58 1.388 . S
C58 H29 0.930 . S
C58 C53 1.391 . S
C58 N57 1.388 . S
Co59 O61 2.143 . S
Co59 O67 2.074 . S
Co59 O70 2.093 . S
Co59 O83 2.097 . S
Co59 N100 2.151 . S
Co59 N108 2.214 . S
Co60 O61 2.160 . S
Co60 O66 2.058 . S
Co60 O76 2.057 . S
Co60 O91 2.037 . S
Co60 N95 2.145 . S
Co60 N116 2.257 . S
O61 Co59 2.143 . S
O61 Co60 2.160 . S
C62 O63 1.278 . S
C62 O70 1.224 . S
O63 C62 1.278 . S
C64 O65 1.245 . S
C64 O76 1.232 . S
O65 C64 1.245 . S
O66 Co60 2.058 . S
O66 C92 1.269 . S
O67 Co59 2.074 . S
O67 C92 1.257 . S
H68 C93 0.930 . S
H69 C99 0.930 . S
O70 Co59 2.093 . S
O70 C62 1.224 . S
H71 C103 0.929 . S
H72 C105 0.930 . S
H73 C106 0.930 . S
H74 C104 0.929 . S
H75 C107 0.928 . S
O76 Co60 2.057 . S
O76 C64 1.232 . S
H77 C96 0.929 . S
H78 C97 0.929 . S
H79 C109 0.931 . S
H80 C101 0.929 . S
H81 C110 0.930 . S
H82 C102 0.931 . S
O83 Co59 2.097 . S
O83 C111 1.214 . S
H84 C112 0.929 . S
H85 C113 0.929 . S
H86 C114 0.930 . S
H87 C115 0.929 . S
H88 C117 0.930 . S
H89 C94 0.930 . S
H90 C98 0.930 . S
O91 Co60 2.037 . S
O91 C111 1.234 . S
C92 O66 1.269 . S
C92 O67 1.257 . S
C93 H68 0.930 . S
C93 C96 1.388 . S
C93 C98 1.418 . S
C94 H89 0.930 . S
C94 C97 1.404 . S
C94 C98 1.353 . S
N95 Co60 2.145 . S
N95 C96 1.397 . S
N95 C97 1.334 . S
C96 H77 0.929 . S
C96 C93 1.388 . S
C96 N95 1.397 . S
C97 H78 0.929 . S
C97 C94 1.404 . S
C97 N95 1.334 . S
C98 H90 0.930 . S
C98 C93 1.418 . S
C98 C94 1.353 . S
C99 H69 0.930 . S
C99 N100 1.330 . S
C99 C101 1.446 . S
N100 Co59 2.151 . S
N100 C99 1.330 . S
N100 C104 1.418 . S
C101 H80 0.929 . S
C101 C99 1.446 . S
C101 C102 1.332 . S
C102 H82 0.931 . S
C102 C101 1.332 . S
C102 C103 1.267 . S
C103 H71 0.929 . S
C103 C102 1.267 . S
C103 C104 1.251 . S
C104 H74 0.929 . S
C104 N100 1.418 . S
C104 C103 1.251 . S
C105 H72 0.930 . S
C105 C107 1.406 . S
C105 C110 1.261 . S
C106 H73 0.930 . S
C106 N108 1.325 . S
C106 C109 1.357 . S
C107 H75 0.928 . S
C107 C105 1.406 . S
C107 N108 1.261 . S
N108 Co59 2.214 . S
N108 C106 1.325 . S
N108 C107 1.261 . S
C109 H79 0.931 . S
C109 C106 1.357 . S
C109 C110 1.312 . S
C110 H81 0.930 . S
C110 C105 1.261 . S
C110 C109 1.312 . S
C111 O83 1.214 . S
C111 O91 1.234 . S
C112 H84 0.929 . S
C112 C115 1.391 . S
C112 C117 1.391 . S
C113 H85 0.929 . S
C113 C114 1.390 . S
C113 N116 1.391 . S
C114 H86 0.930 . S
C114 C113 1.390 . S
C114 C115 1.392 . S
C115 H87 0.929 . S
C115 C112 1.391 . S
C115 C114 1.392 . S
N116 Co60 2.257 . S
N116 C113 1.391 . S
N116 C117 1.388 . S
C117 H88 0.930 . S
C117 C112 1.391 . S
C117 N116 1.388 . S
Co118 O120 2.143 1_454 S
Co118 O126 2.074 . S
Co118 O129 2.093 1_454 S
Co118 O142 2.097 1_455 S
Co118 N159 2.151 1_554 S
Co118 N167 2.214 . S
Co119 O120 2.171 . S
Co119 O125 2.066 . S
Co119 O135 2.083 . S
Co119 O150 2.009 1_556 S
Co119 N154 2.135 1_556 S
Co119 N175 2.249 1_556 S
O120 Co118 2.143 1_656 S
O120 Co119 2.171 . S
C121 O122 1.278 . S
C121 O129 1.224 . S
O122 C121 1.278 . S
C123 O124 1.245 . S
C123 O135 1.232 . S
O124 C123 1.245 . S
O125 Co119 2.066 . S
O125 C151 1.269 1_655 S
O126 Co118 2.074 . S
O126 C151 1.257 1_554 S
H127 C152 0.930 . S
H128 C158 0.930 . S
O129 Co118 2.093 1_656 S
O129 C121 1.224 . S
H130 C162 0.929 . S
H131 C164 0.930 . S
H132 C165 0.930 . S
H133 C163 0.929 . S
H134 C166 0.928 . S
O135 Co119 2.083 . S
O135 C123 1.232 . S
H136 C155 0.929 . S
H137 C156 0.946 . S
H138 C168 0.931 . S
H139 C160 0.929 . S
H140 C169 0.930 . S
H141 C161 0.931 . S
O142 Co118 2.097 1_655 S
O142 C170 1.214 . S
H143 C171 0.929 1_556 S
H144 C172 0.929 . S
H145 C173 0.930 . S
H146 C174 0.929 . S
H147 C176 0.930 . S
H148 C153 0.930 1_556 S
H149 C157 0.930 . S
O150 Co119 2.009 1_554 S
O150 C170 1.234 . S
C151 O125 1.269 1_455 S
C151 O126 1.257 1_556 S
C152 H127 0.930 . S
C152 C155 1.388 . S
C152 C157 1.418 . S
C153 H148 0.930 1_554 S
C153 C156 1.397 1_554 S
C153 C157 1.353 . S
N154 Co119 2.135 1_554 S
N154 C155 1.397 . S
N154 C156 1.324 1_554 S
C155 H136 0.929 . S
C155 C152 1.388 . S
C155 N154 1.397 . S
C156 H137 0.946 . S
C156 C153 1.397 1_556 S
C156 N154 1.324 1_556 S
C157 H149 0.930 . S
C157 C152 1.418 . S
C157 C153 1.353 . S
C158 H128 0.930 . S
C158 N159 1.330 . S
C158 C160 1.446 . S
N159 Co118 2.151 1_556 S
N159 C158 1.330 . S
N159 C163 1.418 . S
C160 H139 0.929 . S
C160 C158 1.446 . S
C160 C161 1.332 . S
C161 H141 0.931 . S
C161 C160 1.332 . S
C161 C162 1.267 . S
C162 H130 0.929 . S
C162 C161 1.267 . S
C162 C163 1.251 . S
C163 H133 0.929 . S
C163 N159 1.418 . S
C163 C162 1.251 . S
C164 H131 0.930 . S
C164 C166 1.406 . S
C164 C169 1.261 . S
C165 H132 0.930 . S
C165 N167 1.325 . S
C165 C168 1.357 . S
C166 H134 0.928 . S
C166 C164 1.406 . S
C166 N167 1.261 . S
N167 Co118 2.214 . S
N167 C165 1.325 . S
N167 C166 1.261 . S
C168 H138 0.931 . S
C168 C165 1.357 . S
C168 C169 1.312 . S
C169 H140 0.930 . S
C169 C164 1.261 . S
C169 C168 1.312 . S
C170 O142 1.214 . S
C170 O150 1.234 . S
C171 H143 0.929 1_554 S
C171 C174 1.391 . S
C171 C176 1.391 1_554 S
C172 H144 0.929 . S
C172 C173 1.390 . S
C172 N175 1.391 . S
C173 H145 0.930 . S
C173 C172 1.390 . S
C173 C174 1.392 . S
C174 H146 0.929 . S
C174 C171 1.391 . S
C174 C173 1.392 . S
N175 Co119 2.249 1_554 S
N175 C172 1.391 . S
N175 C176 1.388 1_554 S
C176 H147 0.930 . S
C176 C171 1.391 1_556 S
C176 N175 1.388 1_556 S
Co177 O179 2.143 1_545 S
Co177 O185 2.074 . S
Co177 O188 2.093 1_545 S
Co177 O201 2.097 1_545 S
Co177 N218 2.151 . S
Co177 N226 2.214 . S
Co178 O179 2.160 . S
Co178 O184 2.058 . S
Co178 O194 2.057 . S
Co178 O209 2.037 . S
Co178 N213 2.145 . S
Co178 N234 2.257 . S
O179 Co177 2.143 1_565 S
O179 Co178 2.160 . S
C180 O181 1.278 . S
C180 O188 1.224 . S
O181 C180 1.278 . S
C182 O183 1.245 . S
C182 O194 1.232 . S
O183 C182 1.245 . S
O184 Co178 2.058 . S
O184 C210 1.269 1_565 S
O185 Co177 2.074 . S
O185 C210 1.257 . S
H186 C211 0.930 . S
H187 C217 0.930 . S
O188 Co177 2.093 1_565 S
O188 C180 1.224 . S
H189 C221 0.929 . S
H190 C223 0.930 . S
H191 C224 0.930 . S
H192 C222 0.929 . S
H193 C225 0.928 . S
O194 Co178 2.057 . S
O194 C182 1.232 . S
H195 C214 0.929 . S
H196 C215 0.929 . S
H197 C227 0.931 . S
H198 C219 0.929 . S
H199 C228 0.930 . S
H200 C220 0.931 . S
O201 Co177 2.097 1_565 S
O201 C229 1.214 . S
H202 C230 0.929 . S
H203 C231 0.929 . S
H204 C232 0.930 . S
H205 C233 0.929 . S
H206 C235 0.930 . S
H207 C212 0.930 . S
H208 C216 0.930 . S
O209 Co178 2.037 . S
O209 C229 1.234 . S
C210 O184 1.269 1_545 S
C210 O185 1.257 . S
C211 H186 0.930 . S
C211 C214 1.388 . S
C211 C216 1.418 . S
C212 H207 0.930 . S
C212 C215 1.404 . S
C212 C216 1.353 . S
N213 Co178 2.145 . S
N213 C214 1.397 . S
N213 C215 1.334 . S
C214 H195 0.929 . S
C214 C211 1.388 . S
C214 N213 1.397 . S
C215 H196 0.929 . S
C215 C212 1.404 . S
C215 N213 1.334 . S
C216 H208 0.930 . S
C216 C211 1.418 . S
C216 C212 1.353 . S
C217 H187 0.930 . S
C217 N218 1.330 . S
C217 C219 1.446 . S
N218 Co177 2.151 . S
N218 C217 1.330 . S
N218 C222 1.418 . S
C219 H198 0.929 . S
C219 C217 1.446 . S
C219 C220 1.332 . S
C220 H200 0.931 . S
C220 C219 1.332 . S
C220 C221 1.267 . S
C221 H189 0.929 . S
C221 C220 1.267 . S
C221 C222 1.251 . S
C222 H192 0.929 . S
C222 N218 1.418 . S
C222 C221 1.251 . S
C223 H190 0.930 . S
C223 C225 1.406 . S
C223 C228 1.261 . S
C224 H191 0.930 . S
C224 N226 1.325 . S
C224 C227 1.357 . S
C225 H193 0.928 . S
C225 C223 1.406 . S
C225 N226 1.261 . S
N226 Co177 2.214 . S
N226 C224 1.325 . S
N226 C225 1.261 . S
C227 H197 0.931 . S
C227 C224 1.357 . S
C227 C228 1.312 . S
C228 H199 0.930 . S
C228 C223 1.261 . S
C228 C227 1.312 . S
C229 O201 1.214 . S
C229 O209 1.234 . S
C230 H202 0.929 . S
C230 C233 1.391 . S
C230 C235 1.391 . S
C231 H203 0.929 . S
C231 C232 1.390 . S
C231 N234 1.391 . S
C232 H204 0.930 . S
C232 C231 1.390 . S
C232 C233 1.392 . S
C233 H205 0.929 . S
C233 C230 1.391 . S
C233 C232 1.392 . S
N234 Co178 2.257 . S
N234 C231 1.391 . S
N234 C235 1.388 . S
C235 H206 0.930 . S
C235 C230 1.391 . S
C235 N234 1.388 . S
Co236 O238 2.143 . S
Co236 O244 2.074 . S
Co236 O247 2.093 . S
Co236 O260 2.097 . S
Co236 N277 2.151 . S
Co236 N285 2.214 . S
Co237 O238 2.160 . S
Co237 O243 2.058 . S
Co237 O253 2.057 . S
Co237 O268 2.037 . S
Co237 N272 2.145 . S
Co237 N293 2.257 . S
O238 Co236 2.143 . S
O238 Co237 2.160 . S
C239 O240 1.278 . S
C239 O247 1.224 . S
O240 C239 1.278 . S
C241 O242 1.245 . S
C241 O253 1.232 . S
O242 C241 1.245 . S
O243 Co237 2.058 . S
O243 C269 1.269 . S
O244 Co236 2.074 . S
O244 C269 1.257 . S
H245 C270 0.930 . S
H246 C276 0.930 . S
O247 Co236 2.093 . S
O247 C239 1.224 . S
H248 C280 0.929 . S
H249 C282 0.930 . S
H250 C283 0.930 . S
H251 C281 0.929 . S
H252 C284 0.928 . S
O253 Co237 2.057 . S
O253 C241 1.232 . S
H254 C273 0.929 . S
H255 C274 0.929 . S
H256 C286 0.931 . S
H257 C278 0.929 . S
H258 C287 0.930 . S
H259 C279 0.931 . S
O260 Co236 2.097 . S
O260 C288 1.214 . S
H261 C289 0.929 . S
H262 C290 0.929 . S
H263 C291 0.930 . S
H264 C292 0.929 . S
H265 C294 0.930 . S
H266 C271 0.930 . S
H267 C275 0.930 . S
O268 Co237 2.037 . S
O268 C288 1.234 . S
C269 O243 1.269 . S
C269 O244 1.257 . S
C270 H245 0.930 . S
C270 C273 1.388 . S
C270 C275 1.418 . S
C271 H266 0.930 . S
C271 C274 1.404 . S
C271 C275 1.353 . S
N272 Co237 2.145 . S
N272 C273 1.397 . S
N272 C274 1.334 . S
C273 H254 0.929 . S
C273 C270 1.388 . S
C273 N272 1.397 . S
C274 H255 0.929 . S
C274 C271 1.404 . S
C274 N272 1.334 . S
C275 H267 0.930 . S
C275 C270 1.418 . S
C275 C271 1.353 . S
C276 H246 0.930 . S
C276 N277 1.330 . S
C276 C278 1.446 . S
N277 Co236 2.151 . S
N277 C276 1.330 . S
N277 C281 1.418 . S
C278 H257 0.929 . S
C278 C276 1.446 . S
C278 C279 1.332 . S
C279 H259 0.931 . S
C279 C278 1.332 . S
C279 C280 1.267 . S
C280 H248 0.929 . S
C280 C279 1.267 . S
C280 C281 1.251 . S
C281 H251 0.929 . S
C281 N277 1.418 . S
C281 C280 1.251 . S
C282 H249 0.930 . S
C282 C284 1.406 . S
C282 C287 1.261 . S
C283 H250 0.930 . S
C283 N285 1.325 . S
C283 C286 1.357 . S
C284 H252 0.928 . S
C284 C282 1.406 . S
C284 N285 1.261 . S
N285 Co236 2.214 . S
N285 C283 1.325 . S
N285 C284 1.261 . S
C286 H256 0.931 . S
C286 C283 1.357 . S
C286 C287 1.312 . S
C287 H258 0.930 . S
C287 C282 1.261 . S
C287 C286 1.312 . S
C288 O260 1.214 . S
C288 O268 1.234 . S
C289 H261 0.929 . S
C289 C292 1.391 . S
C289 C294 1.391 . S
C290 H262 0.929 . S
C290 C291 1.390 . S
C290 N293 1.391 . S
C291 H263 0.930 . S
C291 C290 1.390 . S
C291 C292 1.392 . S
C292 H264 0.929 . S
C292 C289 1.391 . S
C292 C291 1.392 . S
N293 Co237 2.257 . S
N293 C290 1.391 . S
N293 C294 1.388 . S
C294 H265 0.930 . S
C294 C289 1.391 . S
C294 N293 1.388 . S
Co295 O297 2.143 1_654 S
Co295 O303 2.074 . S
Co295 O306 2.093 1_654 S
Co295 O319 2.097 1_655 S
Co295 N336 2.151 1_554 S
Co295 N344 2.214 . S
Co296 O297 2.171 . S
Co296 O302 2.066 . S
Co296 O312 2.083 . S
Co296 O327 2.009 1_556 S
Co296 N331 2.135 1_556 S
Co296 N352 2.249 1_556 S
O297 Co295 2.143 1_456 S
O297 Co296 2.171 . S
C298 O299 1.278 . S
C298 O306 1.224 . S
O299 C298 1.278 . S
C300 O301 1.245 . S
C300 O312 1.232 . S
O301 C300 1.245 . S
O302 Co296 2.066 . S
O302 C328 1.269 1_455 S
O303 Co295 2.074 . S
O303 C328 1.257 1_554 S
H304 C329 0.930 . S
H305 C335 0.930 . S
O306 Co295 2.093 1_456 S
O306 C298 1.224 . S
H307 C339 0.929 . S
H308 C341 0.930 . S
H309 C342 0.930 . S
H310 C340 0.929 . S
H311 C343 0.928 . S
O312 Co296 2.083 . S
O312 C300 1.232 . S
H313 C332 0.929 . S
H314 C333 0.946 . S
H315 C345 0.931 . S
H316 C337 0.929 . S
H317 C346 0.930 . S
H318 C338 0.931 . S
O319 Co295 2.097 1_455 S
O319 C347 1.214 . S
H320 C348 0.929 1_556 S
H321 C349 0.929 . S
H322 C350 0.930 . S
H323 C351 0.929 . S
H324 C353 0.930 . S
H325 C330 0.930 1_556 S
H326 C334 0.930 . S
O327 Co296 2.009 1_554 S
O327 C347 1.234 . S
C328 O302 1.269 1_655 S
C328 O303 1.257 1_556 S
C329 H304 0.930 . S
C329 C332 1.388 . S
C329 C334 1.418 . S
C330 H325 0.930 1_554 S
C330 C333 1.397 1_554 S
C330 C334 1.353 . S
N331 Co296 2.135 1_554 S
N331 C332 1.397 . S
N331 C333 1.324 1_554 S
C332 H313 0.929 . S
C332 C329 1.388 . S
C332 N331 1.397 . S
C333 H314 0.946 . S
C333 C330 1.397 1_556 S
C333 N331 1.324 1_556 S
C334 H326 0.930 . S
C334 C329 1.418 . S
C334 C330 1.353 . S
C335 H305 0.930 . S
C335 N336 1.330 . S
C335 C337 1.446 . S
N336 Co295 2.151 1_556 S
N336 C335 1.330 . S
N336 C340 1.418 . S
C337 H316 0.929 . S
C337 C335 1.446 . S
C337 C338 1.332 . S
C338 H318 0.931 . S
C338 C337 1.332 . S
C338 C339 1.267 . S
C339 H307 0.929 . S
C339 C338 1.267 . S
C339 C340 1.251 . S
C340 H310 0.929 . S
C340 N336 1.418 . S
C340 C339 1.251 . S
C341 H308 0.930 . S
C341 C343 1.406 . S
C341 C346 1.261 . S
C342 H309 0.930 . S
C342 N344 1.325 . S
C342 C345 1.357 . S
C343 H311 0.928 . S
C343 C341 1.406 . S
C343 N344 1.261 . S
N344 Co295 2.214 . S
N344 C342 1.325 . S
N344 C343 1.261 . S
C345 H315 0.931 . S
C345 C342 1.357 . S
C345 C346 1.312 . S
C346 H317 0.930 . S
C346 C341 1.261 . S
C346 C345 1.312 . S
C347 O319 1.214 . S
C347 O327 1.234 . S
C348 H320 0.929 1_554 S
C348 C351 1.391 . S
C348 C353 1.391 1_554 S
C349 H321 0.929 . S
C349 C350 1.390 . S
C349 N352 1.391 . S
C350 H322 0.930 . S
C350 C349 1.390 . S
C350 C351 1.392 . S
C351 H323 0.929 . S
C351 C348 1.391 . S
C351 C350 1.392 . S
N352 Co296 2.249 1_554 S
N352 C349 1.391 . S
N352 C353 1.388 1_554 S
C353 H324 0.930 . S
C353 C348 1.391 1_556 S
C353 N352 1.388 1_556 S
Co354 O356 2.143 1_455 S
Co354 O362 2.074 . S
Co354 O365 2.093 1_455 S
Co354 O378 2.097 1_455 S
Co354 N395 2.151 . S
Co354 N403 2.214 . S
Co355 O356 2.160 . S
Co355 O361 2.058 . S
Co355 O371 2.057 . S
Co355 O386 2.037 . S
Co355 N390 2.145 . S
Co355 N411 2.257 . S
O356 Co354 2.143 1_655 S
O356 Co355 2.160 . S
C357 O358 1.278 . S
C357 O365 1.224 . S
O358 C357 1.278 . S
C359 O360 1.245 . S
C359 O371 1.232 . S
O360 C359 1.245 . S
O361 Co355 2.058 . S
O361 C387 1.269 1_655 S
O362 Co354 2.074 . S
O362 C387 1.257 . S
H363 C388 0.930 . S
H364 C394 0.930 . S
O365 Co354 2.093 1_655 S
O365 C357 1.224 . S
H366 C398 0.929 . S
H367 C400 0.930 . S
H368 C401 0.930 . S
H369 C399 0.929 . S
H370 C402 0.928 . S
O371 Co355 2.057 . S
O371 C359 1.232 . S
H372 C391 0.929 . S
H373 C392 0.929 . S
H374 C404 0.931 . S
H375 C396 0.929 . S
H376 C405 0.930 . S
H377 C397 0.931 . S
O378 Co354 2.097 1_655 S
O378 C406 1.214 . S
H379 C407 0.929 . S
H380 C408 0.929 . S
H381 C409 0.930 . S
H382 C410 0.929 . S
H383 C412 0.930 . S
H384 C389 0.930 . S
H385 C393 0.930 . S
O386 Co355 2.037 . S
O386 C406 1.234 . S
C387 O361 1.269 1_455 S
C387 O362 1.257 . S
C388 H363 0.930 . S
C388 C391 1.388 . S
C388 C393 1.418 . S
C389 H384 0.930 . S
C389 C392 1.404 . S
C389 C393 1.353 . S
N390 Co355 2.145 . S
N390 C391 1.397 . S
N390 C392 1.334 . S
C391 H372 0.929 . S
C391 C388 1.388 . S
C391 N390 1.397 . S
C392 H373 0.929 . S
C392 C389 1.404 . S
C392 N390 1.334 . S
C393 H385 0.930 . S
C393 C388 1.418 . S
C393 C389 1.353 . S
C394 H364 0.930 . S
C394 N395 1.330 . S
C394 C396 1.446 . S
N395 Co354 2.151 . S
N395 C394 1.330 . S
N395 C399 1.418 . S
C396 H375 0.929 . S
C396 C394 1.446 . S
C396 C397 1.332 . S
C397 H377 0.931 . S
C397 C396 1.332 . S
C397 C398 1.267 . S
C398 H366 0.929 . S
C398 C397 1.267 . S
C398 C399 1.251 . S
C399 H369 0.929 . S
C399 N395 1.418 . S
C399 C398 1.251 . S
C400 H367 0.930 . S
C400 C402 1.406 . S
C400 C405 1.261 . S
C401 H368 0.930 . S
C401 N403 1.325 . S
C401 C404 1.357 . S
C402 H370 0.928 . S
C402 C400 1.406 . S
C402 N403 1.261 . S
N403 Co354 2.214 . S
N403 C401 1.325 . S
N403 C402 1.261 . S
C404 H374 0.931 . S
C404 C401 1.357 . S
C404 C405 1.312 . S
C405 H376 0.930 . S
C405 C400 1.261 . S
C405 C404 1.312 . S
C406 O378 1.214 . S
C406 O386 1.234 . S
C407 H379 0.929 . S
C407 C410 1.391 . S
C407 C412 1.391 . S
C408 H380 0.929 . S
C408 C409 1.390 . S
C408 N411 1.391 . S
C409 H381 0.930 . S
C409 C408 1.390 . S
C409 C410 1.392 . S
C410 H382 0.929 . S
C410 C407 1.391 . S
C410 C409 1.392 . S
N411 Co355 2.257 . S
N411 C408 1.391 . S
N411 C412 1.388 . S
C412 H383 0.930 . S
C412 C407 1.391 . S
C412 N411 1.388 . S
Co413 O415 2.143 1_545 S
Co413 O421 2.074 . S
Co413 O424 2.093 1_545 S
Co413 O437 2.097 1_545 S
Co413 N454 2.151 . S
Co413 N462 2.214 . S
Co414 O415 2.160 . S
Co414 O420 2.058 . S
Co414 O430 2.057 . S
Co414 O445 2.037 . S
Co414 N449 2.145 . S
Co414 N470 2.257 . S
O415 Co413 2.143 1_565 S
O415 Co414 2.160 . S
C416 O417 1.278 . S
C416 O424 1.224 . S
O417 C416 1.278 . S
C418 O419 1.245 . S
C418 O430 1.232 . S
O419 C418 1.245 . S
O420 Co414 2.058 . S
O420 C446 1.269 1_565 S
O421 Co413 2.074 . S
O421 C446 1.257 . S
H422 C447 0.930 . S
H423 C453 0.930 . S
O424 Co413 2.093 1_565 S
O424 C416 1.224 . S
H425 C457 0.929 . S
H426 C459 0.930 . S
H427 C460 0.930 . S
H428 C458 0.929 . S
H429 C461 0.928 . S
O430 Co414 2.057 . S
O430 C418 1.232 . S
H431 C450 0.929 . S
H432 C451 0.929 . S
H433 C463 0.931 . S
H434 C455 0.929 . S
H435 C464 0.930 . S
H436 C456 0.931 . S
O437 Co413 2.097 1_565 S
O437 C465 1.214 . S
H438 C466 0.929 . S
H439 C467 0.929 . S
H440 C468 0.930 . S
H441 C469 0.929 . S
H442 C471 0.930 . S
H443 C448 0.930 . S
H444 C452 0.930 . S
O445 Co414 2.037 . S
O445 C465 1.234 . S
C446 O420 1.269 1_545 S
C446 O421 1.257 . S
C447 H422 0.930 . S
C447 C450 1.388 . S
C447 C452 1.418 . S
C448 H443 0.930 . S
C448 C451 1.404 . S
C448 C452 1.353 . S
N449 Co414 2.145 . S
N449 C450 1.397 . S
N449 C451 1.334 . S
C450 H431 0.929 . S
C450 C447 1.388 . S
C450 N449 1.397 . S
C451 H432 0.929 . S
C451 C448 1.404 . S
C451 N449 1.334 . S
C452 H444 0.930 . S
C452 C447 1.418 . S
C452 C448 1.353 . S
C453 H423 0.930 . S
C453 N454 1.330 . S
C453 C455 1.446 . S
N454 Co413 2.151 . S
N454 C453 1.330 . S
N454 C458 1.418 . S
C455 H434 0.929 . S
C455 C453 1.446 . S
C455 C456 1.332 . S
C456 H436 0.931 . S
C456 C455 1.332 . S
C456 C457 1.267 . S
C457 H425 0.929 . S
C457 C456 1.267 . S
C457 C458 1.251 . S
C458 H428 0.929 . S
C458 N454 1.418 . S
C458 C457 1.251 . S
C459 H426 0.930 . S
C459 C461 1.406 . S
C459 C464 1.261 . S
C460 H427 0.930 . S
C460 N462 1.325 . S
C460 C463 1.357 . S
C461 H429 0.928 . S
C461 C459 1.406 . S
C461 N462 1.261 . S
N462 Co413 2.214 . S
N462 C460 1.325 . S
N462 C461 1.261 . S
C463 H433 0.931 . S
C463 C460 1.357 . S
C463 C464 1.312 . S
C464 H435 0.930 . S
C464 C459 1.261 . S
C464 C463 1.312 . S
C465 O437 1.214 . S
C465 O445 1.234 . S
C466 H438 0.929 . S
C466 C469 1.391 . S
C466 C471 1.391 . S
C467 H439 0.929 . S
C467 C468 1.390 . S
C467 N470 1.391 . S
C468 H440 0.930 . S
C468 C467 1.390 . S
C468 C469 1.392 . S
C469 H441 0.929 . S
C469 C466 1.391 . S
C469 C468 1.392 . S
N470 Co414 2.257 . S
N470 C467 1.391 . S
N470 C471 1.388 . S
C471 H442 0.930 . S
C471 C466 1.391 . S
C471 N470 1.388 . S
Co472 O474 2.143 . S
Co472 O480 2.074 . S
Co472 O483 2.093 . S
Co472 O496 2.097 1_554 S
Co472 N513 2.151 . S
Co472 N521 2.214 1_554 S
Co473 O474 2.160 . S
Co473 O479 2.058 . S
Co473 O489 2.057 . S
Co473 O504 2.037 1_554 S
Co473 N508 2.145 1_554 S
Co473 N529 2.257 1_554 S
O474 Co472 2.143 . S
O474 Co473 2.160 . S
C475 O476 1.278 . S
C475 O483 1.224 . S
O476 C475 1.278 . S
C477 O478 1.245 . S
C477 O489 1.232 . S
O478 C477 1.245 . S
O479 Co473 2.058 . S
O479 C505 1.269 . S
O480 Co472 2.074 . S
O480 C505 1.257 . S
H481 C506 0.930 . S
H482 C512 0.930 . S
O483 Co472 2.093 . S
O483 C475 1.224 . S
H484 C516 0.929 . S
H485 C518 0.930 . S
H486 C519 0.930 . S
H487 C517 0.929 . S
H488 C520 0.928 1_554 S
O489 Co473 2.057 . S
O489 C477 1.232 . S
H490 C509 0.929 . S
H491 C510 0.929 . S
H492 C522 0.931 . S
H493 C514 0.929 . S
H494 C523 0.930 . S
H495 C515 0.931 . S
O496 Co472 2.097 1_556 S
O496 C524 1.214 . S
H497 C525 0.929 . S
H498 C526 0.929 . S
H499 C527 0.930 . S
H500 C528 0.929 . S
H501 C530 0.930 . S
H502 C507 0.939 . S
H503 C511 0.930 . S
O504 Co473 2.037 1_556 S
O504 C524 1.234 . S
C505 O479 1.269 . S
C505 O480 1.257 . S
C506 H481 0.930 . S
C506 C509 1.388 . S
C506 C511 1.418 . S
C507 H502 0.939 . S
C507 C510 1.409 . S
C507 C511 1.339 1_554 S
N508 Co473 2.145 1_556 S
N508 C509 1.397 . S
N508 C510 1.334 1_556 S
C509 H490 0.929 . S
C509 C506 1.388 . S
C509 N508 1.397 . S
C510 H491 0.929 . S
C510 C507 1.409 . S
C510 N508 1.334 1_554 S
C511 H503 0.930 . S
C511 C506 1.418 . S
C511 C507 1.339 1_556 S
C512 H482 0.930 . S
C512 N513 1.330 . S
C512 C514 1.446 . S
N513 Co472 2.151 . S
N513 C512 1.330 . S
N513 C517 1.418 . S
C514 H493 0.929 . S
C514 C512 1.446 . S
C514 C515 1.332 . S
C515 H495 0.931 . S
C515 C514 1.332 . S
C515 C516 1.267 . S
C516 H484 0.929 . S
C516 C515 1.267 . S
C516 C517 1.251 . S
C517 H487 0.929 . S
C517 N513 1.418 . S
C517 C516 1.251 . S
C518 H485 0.930 . S
C518 C520 1.406 . S
C518 C523 1.261 . S
C519 H486 0.930 . S
C519 N521 1.325 . S
C519 C522 1.357 . S
C520 H488 0.928 1_556 S
C520 C518 1.406 . S
C520 N521 1.261 . S
N521 Co472 2.214 1_556 S
N521 C519 1.325 . S
N521 C520 1.261 . S
C522 H492 0.931 . S
C522 C519 1.357 . S
C522 C523 1.312 . S
C523 H494 0.930 . S
C523 C518 1.261 . S
C523 C522 1.312 . S
C524 O496 1.214 . S
C524 O504 1.234 . S
C525 H497 0.929 . S
C525 C528 1.391 1_554 S
C525 C530 1.391 . S
C526 H498 0.929 . S
C526 C527 1.390 . S
C526 N529 1.391 . S
C527 H499 0.930 . S
C527 C526 1.390 . S
C527 C528 1.392 . S
C528 H500 0.929 . S
C528 C525 1.391 1_556 S
C528 C527 1.392 . S
N529 Co473 2.257 1_556 S
N529 C526 1.391 . S
N529 C530 1.388 1_556 S
C530 H501 0.930 . S
C530 C525 1.391 . S
C530 N529 1.388 1_554 S
Co531 O533 2.143 1_655 S
Co531 O539 2.074 . S
Co531 O542 2.093 1_655 S
Co531 O555 2.097 1_655 S
Co531 N572 2.151 . S
Co531 N580 2.214 . S
Co532 O533 2.160 . S
Co532 O538 2.058 . S
Co532 O548 2.057 . S
Co532 O563 2.037 . S
Co532 N567 2.145 . S
Co532 N588 2.257 . S
O533 Co531 2.143 1_455 S
O533 Co532 2.160 . S
C534 O535 1.278 . S
C534 O542 1.224 . S
O535 C534 1.278 . S
C536 O537 1.245 . S
C536 O548 1.232 . S
O537 C536 1.245 . S
O538 Co532 2.058 . S
O538 C564 1.269 1_455 S
O539 Co531 2.074 . S
O539 C564 1.257 . S
H540 C565 0.930 . S
H541 C571 0.930 . S
O542 Co531 2.093 1_455 S
O542 C534 1.224 . S
H543 C575 0.929 . S
H544 C577 0.930 . S
H545 C578 0.930 . S
H546 C576 0.929 . S
H547 C579 0.928 . S
O548 Co532 2.057 . S
O548 C536 1.232 . S
H549 C568 0.929 . S
H550 C569 0.929 . S
H551 C581 0.931 . S
H552 C573 0.929 . S
H553 C582 0.930 . S
H554 C574 0.931 . S
O555 Co531 2.097 1_455 S
O555 C583 1.214 . S
H556 C584 0.929 . S
H557 C585 0.929 . S
H558 C586 0.930 . S
H559 C587 0.929 . S
H560 C589 0.930 . S
H561 C566 0.930 . S
H562 C570 0.930 . S
O563 Co532 2.037 . S
O563 C583 1.234 . S
C564 O538 1.269 1_655 S
C564 O539 1.257 . S
C565 H540 0.930 . S
C565 C568 1.388 . S
C565 C570 1.418 . S
C566 H561 0.930 . S
C566 C569 1.404 . S
C566 C570 1.353 . S
N567 Co532 2.145 . S
N567 C568 1.397 . S
N567 C569 1.334 . S
C568 H549 0.929 . S
C568 C565 1.388 . S
C568 N567 1.397 . S
C569 H550 0.929 . S
C569 C566 1.404 . S
C569 N567 1.334 . S
C570 H562 0.930 . S
C570 C565 1.418 . S
C570 C566 1.353 . S
C571 H541 0.930 . S
C571 N572 1.330 . S
C571 C573 1.446 . S
N572 Co531 2.151 . S
N572 C571 1.330 . S
N572 C576 1.418 . S
C573 H552 0.929 . S
C573 C571 1.446 . S
C573 C574 1.332 . S
C574 H554 0.931 . S
C574 C573 1.332 . S
C574 C575 1.267 . S
C575 H543 0.929 . S
C575 C574 1.267 . S
C575 C576 1.251 . S
C576 H546 0.929 . S
C576 N572 1.418 . S
C576 C575 1.251 . S
C577 H544 0.930 . S
C577 C579 1.406 . S
C577 C582 1.261 . S
C578 H545 0.930 . S
C578 N580 1.325 . S
C578 C581 1.357 . S
C579 H547 0.928 . S
C579 C577 1.406 . S
C579 N580 1.261 . S
N580 Co531 2.214 . S
N580 C578 1.325 . S
N580 C579 1.261 . S
C581 H551 0.931 . S
C581 C578 1.357 . S
C581 C582 1.312 . S
C582 H553 0.930 . S
C582 C577 1.261 . S
C582 C581 1.312 . S
C583 O555 1.214 . S
C583 O563 1.234 . S
C584 H556 0.929 . S
C584 C587 1.391 . S
C584 C589 1.391 . S
C585 H557 0.929 . S
C585 C586 1.390 . S
C585 N588 1.391 . S
C586 H558 0.930 . S
C586 C585 1.390 . S
C586 C587 1.392 . S
C587 H559 0.929 . S
C587 C584 1.391 . S
C587 C586 1.392 . S
N588 Co532 2.257 . S
N588 C585 1.391 . S
N588 C589 1.388 . S
C589 H560 0.930 . S
C589 C584 1.391 . S
C589 N588 1.388 . S
Co590 O592 2.143 1_565 S
Co590 O598 2.074 . S
Co590 O601 2.093 1_565 S
Co590 O614 2.097 1_565 S
Co590 N631 2.151 . S
Co590 N639 2.214 . S
Co591 O592 2.160 . S
Co591 O597 2.058 . S
Co591 O607 2.057 . S
Co591 O622 2.037 . S
Co591 N626 2.145 . S
Co591 N647 2.257 . S
O592 Co590 2.143 1_545 S
O592 Co591 2.160 . S
C593 O594 1.278 . S
C593 O601 1.224 . S
O594 C593 1.278 . S
C595 O596 1.245 . S
C595 O607 1.232 . S
O596 C595 1.245 . S
O597 Co591 2.058 . S
O597 C623 1.269 1_545 S
O598 Co590 2.074 . S
O598 C623 1.257 . S
H599 C624 0.930 . S
H600 C630 0.930 . S
O601 Co590 2.093 1_545 S
O601 C593 1.224 . S
H602 C634 0.929 . S
H603 C636 0.930 . S
H604 C637 0.930 . S
H605 C635 0.929 . S
H606 C638 0.928 . S
O607 Co591 2.057 . S
O607 C595 1.232 . S
H608 C627 0.929 . S
H609 C628 0.929 . S
H610 C640 0.931 . S
H611 C632 0.929 . S
H612 C641 0.930 . S
H613 C633 0.931 . S
O614 Co590 2.097 1_545 S
O614 C642 1.214 . S
H615 C643 0.929 . S
H616 C644 0.929 . S
H617 C645 0.930 . S
H618 C646 0.929 . S
H619 C648 0.930 . S
H620 C625 0.930 . S
H621 C629 0.930 . S
O622 Co591 2.037 . S
O622 C642 1.234 . S
C623 O597 1.269 1_565 S
C623 O598 1.257 . S
C624 H599 0.930 . S
C624 C627 1.388 . S
C624 C629 1.418 . S
C625 H620 0.930 . S
C625 C628 1.404 . S
C625 C629 1.353 . S
N626 Co591 2.145 . S
N626 C627 1.397 . S
N626 C628 1.334 . S
C627 H608 0.929 . S
C627 C624 1.388 . S
C627 N626 1.397 . S
C628 H609 0.929 . S
C628 C625 1.404 . S
C628 N626 1.334 . S
C629 H621 0.930 . S
C629 C624 1.418 . S
C629 C625 1.353 . S
C630 H600 0.930 . S
C630 N631 1.330 . S
C630 C632 1.446 . S
N631 Co590 2.151 . S
N631 C630 1.330 . S
N631 C635 1.418 . S
C632 H611 0.929 . S
C632 C630 1.446 . S
C632 C633 1.332 . S
C633 H613 0.931 . S
C633 C632 1.332 . S
C633 C634 1.267 . S
C634 H602 0.929 . S
C634 C633 1.267 . S
C634 C635 1.251 . S
C635 H605 0.929 . S
C635 N631 1.418 . S
C635 C634 1.251 . S
C636 H603 0.930 . S
C636 C638 1.406 . S
C636 C641 1.261 . S
C637 H604 0.930 . S
C637 N639 1.325 . S
C637 C640 1.357 . S
C638 H606 0.928 . S
C638 C636 1.406 . S
C638 N639 1.261 . S
N639 Co590 2.214 . S
N639 C637 1.325 . S
N639 C638 1.261 . S
C640 H610 0.931 . S
C640 C637 1.357 . S
C640 C641 1.312 . S
C641 H612 0.930 . S
C641 C636 1.261 . S
C641 C640 1.312 . S
C642 O614 1.214 . S
C642 O622 1.234 . S
C643 H615 0.929 . S
C643 C646 1.391 . S
C643 C648 1.391 . S
C644 H616 0.929 . S
C644 C645 1.390 . S
C644 N647 1.391 . S
C645 H617 0.930 . S
C645 C644 1.390 . S
C645 C646 1.392 . S
C646 H618 0.929 . S
C646 C643 1.391 . S
C646 C645 1.392 . S
N647 Co591 2.257 . S
N647 C644 1.391 . S
N647 C648 1.388 . S
C648 H619 0.930 . S
C648 C643 1.391 . S
C648 N647 1.388 . S
Co649 O651 2.143 . S
Co649 O657 2.074 . S
Co649 O660 2.093 . S
Co649 O673 2.097 1_554 S
Co649 N690 2.151 . S
Co649 N698 2.214 1_554 S
Co650 O651 2.160 . S
Co650 O656 2.058 . S
Co650 O666 2.057 . S
Co650 O681 2.037 1_554 S
Co650 N685 2.145 1_554 S
Co650 N706 2.257 1_554 S
O651 Co649 2.143 . S
O651 Co650 2.160 . S
C652 O653 1.278 . S
C652 O660 1.224 . S
O653 C652 1.278 . S
C654 O655 1.245 . S
C654 O666 1.232 . S
O655 C654 1.245 . S
O656 Co650 2.058 . S
O656 C682 1.269 . S
O657 Co649 2.074 . S
O657 C682 1.257 . S
H658 C683 0.930 . S
H659 C689 0.930 . S
O660 Co649 2.093 . S
O660 C652 1.224 . S
H661 C693 0.929 . S
H662 C695 0.930 . S
H663 C696 0.930 . S
H664 C694 0.929 . S
H665 C697 0.928 1_554 S
O666 Co650 2.057 . S
O666 C654 1.232 . S
H667 C686 0.929 . S
H668 C687 0.929 . S
H669 C699 0.931 . S
H670 C691 0.929 . S
H671 C700 0.930 . S
H672 C692 0.931 . S
O673 Co649 2.097 1_556 S
O673 C701 1.214 . S
H674 C702 0.929 . S
H675 C703 0.929 . S
H676 C704 0.930 . S
H677 C705 0.929 . S
H678 C707 0.930 . S
H679 C684 0.939 . S
H680 C688 0.930 . S
O681 Co650 2.037 1_556 S
O681 C701 1.234 . S
C682 O656 1.269 . S
C682 O657 1.257 . S
C683 H658 0.930 . S
C683 C686 1.388 . S
C683 C688 1.418 . S
C684 H679 0.939 . S
C684 C687 1.409 . S
C684 C688 1.339 1_554 S
N685 Co650 2.145 1_556 S
N685 C686 1.397 . S
N685 C687 1.334 1_556 S
C686 H667 0.929 . S
C686 C683 1.388 . S
C686 N685 1.397 . S
C687 H668 0.929 . S
C687 C684 1.409 . S
C687 N685 1.334 1_554 S
C688 H680 0.930 . S
C688 C683 1.418 . S
C688 C684 1.339 1_556 S
C689 H659 0.930 . S
C689 N690 1.330 . S
C689 C691 1.446 . S
N690 Co649 2.151 . S
N690 C689 1.330 . S
N690 C694 1.418 . S
C691 H670 0.929 . S
C691 C689 1.446 . S
C691 C692 1.332 . S
C692 H672 0.931 . S
C692 C691 1.332 . S
C692 C693 1.267 . S
C693 H661 0.929 . S
C693 C692 1.267 . S
C693 C694 1.251 . S
C694 H664 0.929 . S
C694 N690 1.418 . S
C694 C693 1.251 . S
C695 H662 0.930 . S
C695 C697 1.406 . S
C695 C700 1.261 . S
C696 H663 0.930 . S
C696 N698 1.325 . S
C696 C699 1.357 . S
C697 H665 0.928 1_556 S
C697 C695 1.406 . S
C697 N698 1.261 . S
N698 Co649 2.214 1_556 S
N698 C696 1.325 . S
N698 C697 1.261 . S
C699 H669 0.931 . S
C699 C696 1.357 . S
C699 C700 1.312 . S
C700 H671 0.930 . S
C700 C695 1.261 . S
C700 C699 1.312 . S
C701 O673 1.214 . S
C701 O681 1.234 . S
C702 H674 0.929 . S
C702 C705 1.391 1_554 S
C702 C707 1.391 . S
C703 H675 0.929 . S
C703 C704 1.390 . S
C703 N706 1.391 . S
C704 H676 0.930 . S
C704 C703 1.390 . S
C704 C705 1.392 . S
C705 H677 0.929 . S
C705 C702 1.391 1_556 S
C705 C704 1.392 . S
N706 Co650 2.257 1_556 S
N706 C703 1.391 . S
N706 C707 1.388 1_556 S
C707 H678 0.930 . S
C707 C702 1.391 . S
C707 N706 1.388 1_554 S
H708 C716 0.950 . S
H709 C721 0.950 . S
H710 C718 0.950 . S
H711 C720 0.950 . S
H712 C722 0.950 . S
H713 C724 0.950 . S
H714 C726 0.950 . S
H715 C727 0.950 . S
C716 H708 0.950 . S
C716 C717 1.386 . S
C716 C718 1.391 . S
C717 C716 1.386 . S
C717 C721 1.393 . S
C718 H710 0.950 . S
C718 C716 1.391 . S
C718 C719 1.400 . S
C719 C718 1.400 . S
C719 C720 1.398 . S
C719 C725 1.491 . S
C720 H711 0.950 . S
C720 C719 1.398 . S
C720 C721 1.391 . S
C721 H709 0.950 . S
C721 C717 1.393 . S
C721 C720 1.391 . S
C722 H712 0.950 . S
C722 C723 1.386 . S
C722 C724 1.391 . S
C723 C722 1.386 . S
C723 C727 1.393 . S
C724 H713 0.950 . S
C724 C722 1.391 . S
C724 C725 1.400 . S
C725 C719 1.491 . S
C725 C724 1.400 . S
C725 C726 1.398 . S
C726 H714 0.950 . S
C726 C725 1.398 . S
C726 C727 1.391 . S
C727 H715 0.950 . S
C727 C723 1.393 . S
C727 C726 1.391 . S
H728 C736 0.950 . S
H729 C741 0.950 . S
H730 C738 0.950 . S
H731 C740 0.950 . S
H732 C742 0.950 . S
H733 C744 0.950 . S
H734 C746 0.950 . S
H735 C747 0.950 . S
C736 H728 0.950 . S
C736 C737 1.386 . S
C736 C738 1.391 . S
C737 C736 1.386 . S
C737 C741 1.393 . S
C738 H730 0.950 . S
C738 C736 1.391 . S
C738 C739 1.400 . S
C739 C738 1.400 . S
C739 C740 1.398 . S
C739 C745 1.491 . S
C740 H731 0.950 . S
C740 C739 1.398 . S
C740 C741 1.391 . S
C741 H729 0.950 . S
C741 C737 1.393 . S
C741 C740 1.391 . S
C742 H732 0.950 . S
C742 C743 1.386 . S
C742 C744 1.391 . S
C743 C742 1.386 . S
C743 C747 1.393 . S
C744 H733 0.950 . S
C744 C742 1.391 . S
C744 C745 1.400 . S
C745 C739 1.491 . S
C745 C744 1.400 . S
C745 C746 1.398 . S
C746 H734 0.950 . S
C746 C745 1.398 . S
C746 C747 1.391 . S
C747 H735 0.950 . S
C747 C743 1.393 . S
C747 C746 1.391 . S
H748 C756 0.950 . S
H749 C761 0.950 . S
H750 C758 0.950 . S
H751 C760 0.950 . S
H752 C762 0.950 . S
H753 C764 0.950 . S
H754 C766 0.950 . S
H755 C767 0.950 . S
C756 H748 0.950 . S
C756 C757 1.386 . S
C756 C758 1.391 . S
C757 C756 1.386 . S
C757 C761 1.393 . S
C758 H750 0.950 . S
C758 C756 1.391 . S
C758 C759 1.400 . S
C759 C758 1.400 . S
C759 C760 1.398 . S
C759 C765 1.491 . S
C760 H751 0.950 . S
C760 C759 1.398 . S
C760 C761 1.391 . S
C761 H749 0.950 . S
C761 C757 1.393 . S
C761 C760 1.391 . S
C762 H752 0.950 . S
C762 C763 1.386 . S
C762 C764 1.391 . S
C763 C762 1.386 . S
C763 C767 1.393 . S
C764 H753 0.950 . S
C764 C762 1.391 . S
C764 C765 1.400 . S
C765 C759 1.491 . S
C765 C764 1.400 . S
C765 C766 1.398 . S
C766 H754 0.950 . S
C766 C765 1.398 . S
C766 C767 1.391 . S
C767 H755 0.950 . S
C767 C763 1.393 . S
C767 C766 1.391 . S
H768 C776 0.950 . S
H769 C781 0.950 . S
H770 C778 0.950 . S
H771 C780 0.950 . S
H772 C782 0.950 . S
H773 C784 0.950 . S
H774 C786 0.950 . S
H775 C787 0.950 . S
C776 H768 0.950 . S
C776 C777 1.386 . S
C776 C778 1.391 . S
C777 C776 1.386 . S
C777 C781 1.393 . S
C778 H770 0.950 . S
C778 C776 1.391 . S
C778 C779 1.400 . S
C779 C778 1.400 . S
C779 C780 1.398 . S
C779 C785 1.491 . S
C780 H771 0.950 . S
C780 C779 1.398 . S
C780 C781 1.391 . S
C781 H769 0.950 . S
C781 C777 1.393 . S
C781 C780 1.391 . S
C782 H772 0.950 . S
C782 C783 1.386 . S
C782 C784 1.391 . S
C783 C782 1.386 . S
C783 C787 1.393 . S
C784 H773 0.950 . S
C784 C782 1.391 . S
C784 C785 1.400 . S
C785 C779 1.491 . S
C785 C784 1.400 . S
C785 C786 1.398 . S
C786 H774 0.950 . S
C786 C785 1.398 . S
C786 C787 1.391 . S
C787 H775 0.950 . S
C787 C783 1.393 . S
C787 C786 1.391 . S
H788 C796 0.950 . S
H789 C801 0.950 . S
H790 C798 0.950 . S
H791 C800 0.950 . S
H792 C802 0.950 . S
H793 C804 0.950 . S
H794 C806 0.950 . S
H795 C807 0.950 . S
C796 H788 0.950 . S
C796 C797 1.386 . S
C796 C798 1.391 . S
C797 C796 1.386 . S
C797 C801 1.393 . S
C798 H790 0.950 . S
C798 C796 1.391 . S
C798 C799 1.400 . S
C799 C798 1.400 . S
C799 C800 1.398 . S
C799 C805 1.491 . S
C800 H791 0.950 . S
C800 C799 1.398 . S
C800 C801 1.391 . S
C801 H789 0.950 . S
C801 C797 1.393 . S
C801 C800 1.391 . S
C802 H792 0.950 . S
C802 C803 1.386 . S
C802 C804 1.391 . S
C803 C802 1.386 . S
C803 C807 1.393 . S
C804 H793 0.950 . S
C804 C802 1.391 . S
C804 C805 1.400 . S
C805 C799 1.491 . S
C805 C804 1.400 . S
C805 C806 1.398 . S
C806 H794 0.950 . S
C806 C805 1.398 . S
C806 C807 1.391 . S
C807 H795 0.950 . S
C807 C803 1.393 . S
C807 C806 1.391 . S
H808 C816 0.950 . S
H809 C821 0.950 . S
H810 C818 0.950 . S
H811 C820 0.950 . S
H812 C822 0.950 . S
H813 C824 0.950 . S
H814 C826 0.950 . S
H815 C827 0.950 . S
C816 H808 0.950 . S
C816 C817 1.386 . S
C816 C818 1.391 . S
C817 C816 1.386 . S
C817 C821 1.393 . S
C818 H810 0.950 . S
C818 C816 1.391 . S
C818 C819 1.400 . S
C819 C818 1.400 . S
C819 C820 1.398 . S
C819 C825 1.491 . S
C820 H811 0.950 . S
C820 C819 1.398 . S
C820 C821 1.391 . S
C821 H809 0.950 . S
C821 C817 1.393 . S
C821 C820 1.391 . S
C822 H812 0.950 . S
C822 C823 1.386 . S
C822 C824 1.391 . S
C823 C822 1.386 . S
C823 C827 1.393 . S
C824 H813 0.950 . S
C824 C822 1.391 . S
C824 C825 1.400 . S
C825 C819 1.491 . S
C825 C824 1.400 . S
C825 C826 1.398 . S
C826 H814 0.950 . S
C826 C825 1.398 . S
C826 C827 1.391 . S
C827 H815 0.950 . S
C827 C823 1.393 . S
C827 C826 1.391 . S
H828 C836 0.950 . S
H829 C841 0.950 . S
H830 C838 0.950 1_565 S
H831 C840 0.950 . S
H832 C842 0.950 . S
H833 C844 0.950 1_545 S
H834 C846 0.950 . S
H835 C847 0.950 . S
C836 H828 0.950 . S
C836 C837 1.386 . S
C836 C838 1.391 . S
C837 C836 1.386 . S
C837 C841 1.393 . S
C838 H830 0.950 1_545 S
C838 C836 1.391 . S
C838 C839 1.400 . S
C839 C838 1.400 . S
C839 C840 1.398 . S
C839 C845 1.491 1_545 S
C840 H831 0.950 . S
C840 C839 1.398 . S
C840 C841 1.391 . S
C841 H829 0.950 . S
C841 C837 1.393 . S
C841 C840 1.391 . S
C842 H832 0.950 . S
C842 C843 1.386 . S
C842 C844 1.391 . S
C843 C842 1.386 . S
C843 C847 1.393 . S
C844 H833 0.950 1_565 S
C844 C842 1.391 . S
C844 C845 1.400 . S
C845 C839 1.491 1_565 S
C845 C844 1.400 . S
C845 C846 1.398 . S
C846 H834 0.950 . S
C846 C845 1.398 . S
C846 C847 1.391 . S
C847 H835 0.950 . S
C847 C843 1.393 . S
C847 C846 1.391 . S
H848 C856 0.950 . S
H849 C861 0.950 . S
H850 C858 0.950 . S
H851 C860 0.950 . S
H852 C862 0.950 . S
H853 C864 0.950 . S
H854 C866 0.950 . S
H855 C867 0.950 . S
C856 H848 0.950 . S
C856 C857 1.386 . S
C856 C858 1.391 . S
C857 C856 1.386 . S
C857 C861 1.393 . S
C858 H850 0.950 . S
C858 C856 1.391 . S
C858 C859 1.400 . S
C859 C858 1.400 . S
C859 C860 1.398 . S
C859 C865 1.491 . S
C860 H851 0.950 . S
C860 C859 1.398 . S
C860 C861 1.391 . S
C861 H849 0.950 . S
C861 C857 1.393 . S
C861 C860 1.391 . S
C862 H852 0.950 . S
C862 C863 1.386 . S
C862 C864 1.391 . S
C863 C862 1.386 . S
C863 C867 1.393 . S
C864 H853 0.950 . S
C864 C862 1.391 . S
C864 C865 1.400 . S
C865 C859 1.491 . S
C865 C864 1.400 . S
C865 C866 1.398 . S
C866 H854 0.950 . S
C866 C865 1.398 . S
C866 C867 1.391 . S
C867 H855 0.950 . S
C867 C863 1.393 . S
C867 C866 1.391 . S
H868 C876 0.950 1_554 S
H869 C881 0.950 . S
H870 C878 0.950 1_554 S
H871 C880 0.950 . S
H872 C882 0.950 . S
H873 C884 0.950 . S
H874 C886 0.950 1_554 S
H875 C887 0.950 1_554 S
C876 H868 0.950 1_556 S
C876 C877 1.386 . S
C876 C878 1.391 . S
C877 C876 1.386 . S
C877 C881 1.393 1_455 S
C878 H870 0.950 1_556 S
C878 C876 1.391 . S
C878 C879 1.400 . S
C879 C878 1.400 . S
C879 C880 1.398 1_455 S
C879 C885 1.491 1_455 S
C880 H871 0.950 . S
C880 C879 1.398 1_655 S
C880 C881 1.391 . S
C881 H869 0.950 . S
C881 C877 1.393 1_655 S
C881 C880 1.391 . S
C882 H872 0.950 . S
C882 C883 1.386 . S
C882 C884 1.391 . S
C883 C882 1.386 . S
C883 C887 1.393 1_655 S
C884 H873 0.950 . S
C884 C882 1.391 . S
C884 C885 1.400 . S
C885 C879 1.491 1_655 S
C885 C884 1.400 . S
C885 C886 1.398 1_655 S
C886 H874 0.950 1_556 S
C886 C885 1.398 1_455 S
C886 C887 1.391 . S
C887 H875 0.950 1_556 S
C887 C883 1.393 1_455 S
C887 C886 1.391 . S
H888 C896 0.950 . S
H889 C901 0.950 . S
H890 C898 0.950 . S
H891 C900 0.950 . S
H892 C902 0.950 . S
H893 C904 0.950 . S
H894 C906 0.950 . S
H895 C907 0.950 . S
C896 H888 0.950 . S
C896 C897 1.386 . S
C896 C898 1.391 . S
C897 C896 1.386 . S
C897 C901 1.393 1_655 S
C898 H890 0.950 . S
C898 C896 1.391 . S
C898 C899 1.400 . S
C899 C898 1.400 . S
C899 C900 1.398 1_655 S
C899 C905 1.491 1_655 S
C900 H891 0.950 . S
C900 C899 1.398 1_455 S
C900 C901 1.391 . S
C901 H889 0.950 . S
C901 C897 1.393 1_455 S
C901 C900 1.391 . S
C902 H892 0.950 . S
C902 C903 1.386 . S
C902 C904 1.391 . S
C903 C902 1.386 . S
C903 C907 1.393 1_455 S
C904 H893 0.950 . S
C904 C902 1.391 . S
C904 C905 1.400 . S
C905 C899 1.491 1_455 S
C905 C904 1.400 . S
C905 C906 1.398 1_455 S
C906 H894 0.950 . S
C906 C905 1.398 1_655 S
C906 C907 1.391 . S
C907 H895 0.950 . S
C907 C903 1.393 1_655 S
C907 C906 1.391 . S
H908 C916 0.950 . S
H909 C921 0.950 . S
H910 C918 0.950 . S
H911 C920 0.950 . S
H912 C922 0.950 . S
H913 C924 0.950 . S
H914 C926 0.950 . S
H915 C927 0.950 . S
C916 H908 0.950 . S
C916 C917 1.386 . S
C916 C918 1.391 . S
C917 C916 1.386 . S
C917 C921 1.393 1_545 S
C918 H910 0.950 . S
C918 C916 1.391 . S
C918 C919 1.400 . S
C919 C918 1.400 . S
C919 C920 1.398 1_545 S
C919 C925 1.491 1_545 S
C920 H911 0.950 . S
C920 C919 1.398 1_565 S
C920 C921 1.391 . S
C921 H909 0.950 . S
C921 C917 1.393 1_565 S
C921 C920 1.391 . S
C922 H912 0.950 . S
C922 C923 1.386 . S
C922 C924 1.391 . S
C923 C922 1.386 . S
C923 C927 1.393 1_565 S
C924 H913 0.950 . S
C924 C922 1.391 . S
C924 C925 1.400 . S
C925 C919 1.491 1_565 S
C925 C924 1.400 . S
C925 C926 1.398 1_565 S
C926 H914 0.950 . S
C926 C925 1.398 1_545 S
C926 C927 1.391 . S
C927 H915 0.950 . S
C927 C923 1.393 1_545 S
C927 C926 1.391 . S
H928 C936 0.950 . S
H929 C941 0.950 1_556 S
H930 C938 0.950 . S
H931 C940 0.950 1_556 S
H932 C942 0.950 1_556 S
H933 C944 0.950 1_556 S
H934 C946 0.950 . S
H935 C947 0.950 . S
C936 H928 0.950 . S
C936 C937 1.386 . S
C936 C938 1.391 . S
C937 C936 1.386 . S
C937 C941 1.393 . S
C938 H930 0.950 . S
C938 C936 1.391 . S
C938 C939 1.400 . S
C939 C938 1.400 . S
C939 C940 1.398 . S
C939 C945 1.491 . S
C940 H931 0.950 1_554 S
C940 C939 1.398 . S
C940 C941 1.391 . S
C941 H929 0.950 1_554 S
C941 C937 1.393 . S
C941 C940 1.391 . S
C942 H932 0.950 1_554 S
C942 C943 1.386 . S
C942 C944 1.391 . S
C943 C942 1.386 . S
C943 C947 1.393 . S
C944 H933 0.950 1_554 S
C944 C942 1.391 . S
C944 C945 1.400 . S
C945 C939 1.491 . S
C945 C944 1.400 . S
C945 C946 1.398 . S
C946 H934 0.950 . S
C946 C945 1.398 . S
C946 C947 1.391 . S
C947 H935 0.950 . S
C947 C943 1.393 . S
C947 C946 1.391 . S
H948 C956 0.950 . S
H949 C961 0.950 . S
H950 C958 0.950 . S
H951 C960 0.950 . S
H952 C962 0.950 . S
H953 C964 0.950 . S
H954 C966 0.950 . S
H955 C967 0.950 . S
C956 H948 0.950 . S
C956 C957 1.386 . S
C956 C958 1.391 . S
C957 C956 1.386 . S
C957 C961 1.393 . S
C958 H950 0.950 . S
C958 C956 1.391 . S
C958 C959 1.400 . S
C959 C958 1.400 . S
C959 C960 1.398 . S
C959 C965 1.491 . S
C960 H951 0.950 . S
C960 C959 1.398 . S
C960 C961 1.391 . S
C961 H949 0.950 . S
C961 C957 1.393 . S
C961 C960 1.391 . S
C962 H952 0.950 . S
C962 C963 1.386 . S
C962 C964 1.391 . S
C963 C962 1.386 . S
C963 C967 1.393 . S
C964 H953 0.950 . S
C964 C962 1.391 . S
C964 C965 1.400 . S
C965 C959 1.491 . S
C965 C964 1.400 . S
C965 C966 1.398 . S
C966 H954 0.950 . S
C966 C965 1.398 . S
C966 C967 1.391 . S
C967 H955 0.950 . S
C967 C963 1.393 . S
C967 C966 1.391 . S
H968 C976 0.950 . S
H969 C981 0.950 . S
H970 C978 0.950 . S
H971 C980 0.950 . S
H972 C982 0.950 . S
H973 C984 0.950 . S
H974 C986 0.950 . S
H975 C987 0.950 . S
C976 H968 0.950 . S
C976 C977 1.386 . S
C976 C978 1.391 . S
C977 C976 1.386 . S
C977 C981 1.393 . S
C978 H970 0.950 . S
C978 C976 1.391 . S
C978 C979 1.400 . S
C979 C978 1.400 . S
C979 C980 1.398 . S
C979 C985 1.491 . S
C980 H971 0.950 . S
C980 C979 1.398 . S
C980 C981 1.391 . S
C981 H969 0.950 . S
C981 C977 1.393 . S
C981 C980 1.391 . S
C982 H972 0.950 . S
C982 C983 1.386 . S
C982 C984 1.391 . S
C983 C982 1.386 . S
C983 C987 1.393 . S
C984 H973 0.950 . S
C984 C982 1.391 . S
C984 C985 1.400 . S
C985 C979 1.491 . S
C985 C984 1.400 . S
C985 C986 1.398 . S
C986 H974 0.950 . S
C986 C985 1.398 . S
C986 C987 1.391 . S
C987 H975 0.950 . S
C987 C983 1.393 . S
C987 C986 1.391 . S
H988 C996 0.950 . S
H989 C1001 0.950 . S
H990 C998 0.950 . S
H991 C1000 0.950 . S
H992 C1002 0.950 . S
H993 C1004 0.950 . S
H994 C1006 0.950 . S
H995 C1007 0.950 . S
C996 H988 0.950 . S
C996 C997 1.386 . S
C996 C998 1.391 . S
C997 C996 1.386 . S
C997 C1001 1.393 1_554 S
C998 H990 0.950 . S
C998 C996 1.391 . S
C998 C999 1.400 . S
C999 C998 1.400 . S
C999 C1000 1.398 1_554 S
C999 C1005 1.491 . S
C1000 H991 0.950 . S
C1000 C999 1.398 1_556 S
C1000 C1001 1.391 . S
C1001 H989 0.950 . S
C1001 C997 1.393 1_556 S
C1001 C1000 1.391 . S
C1002 H992 0.950 . S
C1002 C1003 1.386 . S
C1002 C1004 1.391 . S
C1003 C1002 1.386 . S
C1003 C1007 1.393 1_556 S
C1004 H993 0.950 . S
C1004 C1002 1.391 . S
C1004 C1005 1.400 1_556 S
C1005 C999 1.491 . S
C1005 C1004 1.400 1_554 S
C1005 C1006 1.398 . S
C1006 H994 0.950 . S
C1006 C1005 1.398 . S
C1006 C1007 1.391 . S
C1007 H995 0.950 . S
C1007 C1003 1.393 1_554 S
C1007 C1006 1.391 . S
H1008 C1016 0.950 . S
H1009 C1021 0.950 . S
H1010 C1018 0.950 . S
H1011 C1020 0.950 . S
H1012 C1022 0.950 . S
H1013 C1024 0.950 . S
H1014 C1026 0.950 . S
H1015 C1027 0.950 . S
C1016 H1008 0.950 . S
C1016 C1017 1.386 . S
C1016 C1018 1.391 . S
C1017 C1016 1.386 . S
C1017 C1021 1.393 . S
C1018 H1010 0.950 . S
C1018 C1016 1.391 . S
C1018 C1019 1.400 . S
C1019 C1018 1.400 . S
C1019 C1020 1.398 . S
C1019 C1025 1.491 . S
C1020 H1011 0.950 . S
C1020 C1019 1.398 . S
C1020 C1021 1.391 . S
C1021 H1009 0.950 . S
C1021 C1017 1.393 . S
C1021 C1020 1.391 . S
C1022 H1012 0.950 . S
C1022 C1023 1.386 . S
C1022 C1024 1.391 . S
C1023 C1022 1.386 . S
C1023 C1027 1.393 . S
C1024 H1013 0.950 . S
C1024 C1022 1.391 . S
C1024 C1025 1.400 . S
C1025 C1019 1.491 . S
C1025 C1024 1.400 . S
C1025 C1026 1.398 . S
C1026 H1014 0.950 . S
C1026 C1025 1.398 . S
C1026 C1027 1.391 . S
C1027 H1015 0.950 . S
C1027 C1023 1.393 . S
C1027 C1026 1.391 . S
H1028 C1036 0.950 . S
H1029 C1041 0.950 . S
H1030 C1038 0.950 . S
H1031 C1040 0.950 . S
H1032 C1042 0.950 . S
H1033 C1044 0.950 . S
H1034 C1046 0.950 . S
H1035 C1047 0.950 . S
C1036 H1028 0.950 . S
C1036 C1037 1.386 . S
C1036 C1038 1.391 . S
C1037 C1036 1.386 . S
C1037 C1041 1.393 . S
C1038 H1030 0.950 . S
C1038 C1036 1.391 . S
C1038 C1039 1.400 . S
C1039 C1038 1.400 . S
C1039 C1040 1.398 . S
C1039 C1045 1.491 . S
C1040 H1031 0.950 . S
C1040 C1039 1.398 . S
C1040 C1041 1.391 . S
C1041 H1029 0.950 . S
C1041 C1037 1.393 . S
C1041 C1040 1.391 . S
C1042 H1032 0.950 . S
C1042 C1043 1.386 . S
C1042 C1044 1.391 . S
C1043 C1042 1.386 . S
C1043 C1047 1.393 . S
C1044 H1033 0.950 . S
C1044 C1042 1.391 . S
C1044 C1045 1.400 . S
C1045 C1039 1.491 . S
C1045 C1044 1.400 . S
C1045 C1046 1.398 . S
C1046 H1034 0.950 . S
C1046 C1045 1.398 . S
C1046 C1047 1.391 . S
C1047 H1035 0.950 . S
C1047 C1043 1.393 . S
C1047 C1046 1.391 . S
H1048 C1056 0.950 . S
H1049 C1061 0.950 . S
H1050 C1058 0.950 . S
H1051 C1060 0.950 . S
H1052 C1062 0.950 . S
H1053 C1064 0.950 . S
H1054 C1066 0.950 . S
H1055 C1067 0.950 . S
C1056 H1048 0.950 . S
C1056 C1057 1.386 . S
C1056 C1058 1.391 . S
C1057 C1056 1.386 . S
C1057 C1061 1.393 1_554 S
C1058 H1050 0.950 . S
C1058 C1056 1.391 . S
C1058 C1059 1.400 . S
C1059 C1058 1.400 . S
C1059 C1060 1.398 1_554 S
C1059 C1065 1.491 . S
C1060 H1051 0.950 . S
C1060 C1059 1.398 1_556 S
C1060 C1061 1.391 . S
C1061 H1049 0.950 . S
C1061 C1057 1.393 1_556 S
C1061 C1060 1.391 . S
C1062 H1052 0.950 . S
C1062 C1063 1.386 . S
C1062 C1064 1.391 . S
C1063 C1062 1.386 . S
C1063 C1067 1.393 1_556 S
C1064 H1053 0.950 . S
C1064 C1062 1.391 . S
C1064 C1065 1.400 1_556 S
C1065 C1059 1.491 . S
C1065 C1064 1.400 1_554 S
C1065 C1066 1.398 . S
C1066 H1054 0.950 . S
C1066 C1065 1.398 . S
C1066 C1067 1.391 . S
C1067 H1055 0.950 . S
C1067 C1063 1.393 1_554 S
C1067 C1066 1.391 . S
H1068 C1076 0.950 . S
H1069 C1081 0.950 1_565 S
H1070 C1078 0.950 . S
H1071 C1080 0.950 . S
H1072 C1082 0.950 . S
H1073 C1084 0.950 . S
H1074 C1086 0.950 . S
H1075 C1087 0.950 1_545 S
C1076 H1068 0.950 . S
C1076 C1077 1.386 . S
C1076 C1078 1.391 . S
C1077 C1076 1.386 . S
C1077 C1081 1.393 . S
C1078 H1070 0.950 . S
C1078 C1076 1.391 . S
C1078 C1079 1.400 . S
C1079 C1078 1.400 . S
C1079 C1080 1.398 1_545 S
C1079 C1085 1.491 1_545 S
C1080 H1071 0.950 . S
C1080 C1079 1.398 1_565 S
C1080 C1081 1.391 1_565 S
C1081 H1069 0.950 1_545 S
C1081 C1077 1.393 . S
C1081 C1080 1.391 1_545 S
C1082 H1072 0.950 . S
C1082 C1083 1.386 . S
C1082 C1084 1.391 . S
C1083 C1082 1.386 . S
C1083 C1087 1.393 . S
C1084 H1073 0.950 . S
C1084 C1082 1.391 . S
C1084 C1085 1.400 . S
C1085 C1079 1.491 1_565 S
C1085 C1084 1.400 . S
C1085 C1086 1.398 1_565 S
C1086 H1074 0.950 . S
C1086 C1085 1.398 1_545 S
C1086 C1087 1.391 1_545 S
C1087 H1075 0.950 1_565 S
C1087 C1083 1.393 . S
C1087 C1086 1.391 1_565 S
H1088 C1096 0.950 . S
H1089 C1101 0.950 . S
H1090 C1098 0.950 . S
H1091 C1100 0.950 . S
H1092 C1102 0.950 . S
H1093 C1104 0.950 . S
H1094 C1106 0.950 . S
H1095 C1107 0.950 . S
C1096 H1088 0.950 . S
C1096 C1097 1.386 . S
C1096 C1098 1.391 . S
C1097 C1096 1.386 . S
C1097 C1101 1.393 . S
C1098 H1090 0.950 . S
C1098 C1096 1.391 . S
C1098 C1099 1.400 . S
C1099 C1098 1.400 . S
C1099 C1100 1.398 . S
C1099 C1105 1.491 . S
C1100 H1091 0.950 . S
C1100 C1099 1.398 . S
C1100 C1101 1.391 . S
C1101 H1089 0.950 . S
C1101 C1097 1.393 . S
C1101 C1100 1.391 . S
C1102 H1092 0.950 . S
C1102 C1103 1.386 . S
C1102 C1104 1.391 . S
C1103 C1102 1.386 . S
C1103 C1107 1.393 . S
C1104 H1093 0.950 . S
C1104 C1102 1.391 . S
C1104 C1105 1.400 . S
C1105 C1099 1.491 . S
C1105 C1104 1.400 . S
C1105 C1106 1.398 . S
C1106 H1094 0.950 . S
C1106 C1105 1.398 . S
C1106 C1107 1.391 . S
C1107 H1095 0.950 . S
C1107 C1103 1.393 . S
C1107 C1106 1.391 . S
H1108 C1116 0.950 . S
H1109 C1121 0.950 . S
H1110 C1118 0.950 . S
H1111 C1120 0.950 . S
H1112 C1122 0.950 . S
H1113 C1124 0.950 . S
H1114 C1126 0.950 . S
H1115 C1127 0.950 . S
C1116 H1108 0.950 . S
C1116 C1117 1.386 . S
C1116 C1118 1.391 . S
C1117 C1116 1.386 . S
C1117 C1121 1.393 1_455 S
C1118 H1110 0.950 . S
C1118 C1116 1.391 . S
C1118 C1119 1.400 . S
C1119 C1118 1.400 . S
C1119 C1120 1.398 1_455 S
C1119 C1125 1.491 1_455 S
C1120 H1111 0.950 . S
C1120 C1119 1.398 1_655 S
C1120 C1121 1.391 . S
C1121 H1109 0.950 . S
C1121 C1117 1.393 1_655 S
C1121 C1120 1.391 . S
C1122 H1112 0.950 . S
C1122 C1123 1.386 . S
C1122 C1124 1.391 . S
C1123 C1122 1.386 . S
C1123 C1127 1.393 1_655 S
C1124 H1113 0.950 . S
C1124 C1122 1.391 . S
C1124 C1125 1.400 . S
C1125 C1119 1.491 1_655 S
C1125 C1124 1.400 . S
C1125 C1126 1.398 1_655 S
C1126 H1114 0.950 . S
C1126 C1125 1.398 1_455 S
C1126 C1127 1.391 . S
C1127 H1115 0.950 . S
C1127 C1123 1.393 1_455 S
C1127 C1126 1.391 . S
H1128 C1136 0.943 1_545 S
H1129 C1141 0.950 . S
H1130 C1138 0.950 . S
H1131 C1140 0.950 . S
H1132 C1142 0.943 1_565 S
H1133 C1144 0.950 . S
H1134 C1146 0.950 . S
H1135 C1147 0.950 . S
C1136 H1128 0.943 1_565 S
C1136 C1137 1.386 . S
C1136 C1138 1.391 1_565 S
C1137 C1136 1.386 . S
C1137 C1141 1.393 . S
C1138 H1130 0.950 . S
C1138 C1136 1.391 1_545 S
C1138 C1139 1.400 1_545 S
C1139 C1138 1.400 1_565 S
C1139 C1140 1.398 . S
C1139 C1145 1.491 1_565 S
C1140 H1131 0.950 . S
C1140 C1139 1.398 . S
C1140 C1141 1.391 . S
C1141 H1129 0.950 . S
C1141 C1137 1.393 . S
C1141 C1140 1.391 . S
C1142 H1132 0.943 1_545 S
C1142 C1143 1.386 . S
C1142 C1144 1.391 1_545 S
C1143 C1142 1.386 . S
C1143 C1147 1.393 . S
C1144 H1133 0.950 . S
C1144 C1142 1.391 1_565 S
C1144 C1145 1.400 1_565 S
C1145 C1139 1.491 1_545 S
C1145 C1144 1.400 1_545 S
C1145 C1146 1.398 . S
C1146 H1134 0.950 . S
C1146 C1145 1.398 . S
C1146 C1147 1.391 . S
C1147 H1135 0.950 . S
C1147 C1143 1.393 . S
C1147 C1146 1.391 . S
H1148 C1156 0.950 . S
H1149 C1161 0.950 . S
H1150 C1158 0.950 . S
H1151 C1160 0.950 . S
H1152 C1162 0.950 . S
H1153 C1164 0.950 . S
H1154 C1166 0.950 . S
H1155 C1167 0.950 . S
C1156 H1148 0.950 . S
C1156 C1157 1.386 . S
C1156 C1158 1.391 . S
C1157 C1156 1.386 . S
C1157 C1161 1.393 . S
C1158 H1150 0.950 . S
C1158 C1156 1.391 . S
C1158 C1159 1.400 . S
C1159 C1158 1.400 . S
C1159 C1160 1.398 . S
C1159 C1165 1.491 . S
C1160 H1151 0.950 . S
C1160 C1159 1.398 . S
C1160 C1161 1.391 . S
C1161 H1149 0.950 . S
C1161 C1157 1.393 . S
C1161 C1160 1.391 . S
C1162 H1152 0.950 . S
C1162 C1163 1.386 . S
C1162 C1164 1.391 . S
C1163 C1162 1.386 . S
C1163 C1167 1.393 . S
C1164 H1153 0.950 . S
C1164 C1162 1.391 . S
C1164 C1165 1.400 . S
C1165 C1159 1.491 . S
C1165 C1164 1.400 . S
C1165 C1166 1.398 . S
C1166 H1154 0.950 . S
C1166 C1165 1.398 . S
C1166 C1167 1.391 . S
C1167 H1155 0.950 . S
C1167 C1163 1.393 . S
C1167 C1166 1.391 . S
H1168 C1176 0.950 . S
H1169 C1181 0.950 . S
H1170 C1178 0.950 . S
H1171 C1180 0.950 . S
H1172 C1182 0.950 . S
H1173 C1184 0.950 . S
H1174 C1186 0.950 . S
H1175 C1187 0.950 . S
C1176 H1168 0.950 . S
C1176 C1177 1.386 . S
C1176 C1178 1.391 . S
C1177 C1176 1.386 . S
C1177 C1181 1.393 . S
C1178 H1170 0.950 . S
C1178 C1176 1.391 . S
C1178 C1179 1.400 . S
C1179 C1178 1.400 . S
C1179 C1180 1.398 . S
C1179 C1185 1.491 1_655 S
C1180 H1171 0.950 . S
C1180 C1179 1.398 . S
C1180 C1181 1.391 . S
C1181 H1169 0.950 . S
C1181 C1177 1.393 . S
C1181 C1180 1.391 . S
C1182 H1172 0.950 . S
C1182 C1183 1.386 . S
C1182 C1184 1.391 . S
C1183 C1182 1.386 . S
C1183 C1187 1.393 . S
C1184 H1173 0.950 . S
C1184 C1182 1.391 . S
C1184 C1185 1.400 . S
C1185 C1179 1.491 1_455 S
C1185 C1184 1.400 . S
C1185 C1186 1.398 . S
C1186 H1174 0.950 . S
C1186 C1185 1.398 . S
C1186 C1187 1.391 . S
C1187 H1175 0.950 . S
C1187 C1183 1.393 . S
C1187 C1186 1.391 . S
C717 C5 1.683 . S
C723 C477 1.684 . S
C737 C64 1.685 . S
C743 C536 1.682 . S
C757 C595 1.682 . S
C763 C123 1.684 . S
C777 C654 1.684 . S
C783 C182 1.683 . S
C797 C359 1.684 . S
C803 C241 1.682 . S
C817 C418 1.684 . S
C823 C300 1.682 . S
C837 C3 1.803 . S
C843 C180 1.801 . S
C857 C239 1.787 . S
C863 C62 1.799 . S
C877 C298 1.784 . S
C883 C121 1.795 . S
C897 C357 1.783 . S
C903 C534 1.792 . S
C917 C593 1.787 . S
C923 C416 1.800 . S
C937 C475 1.804 . S
C943 C652 1.797 . S
C957 C387 1.113 . S
C963 C33 1.107 . S
C977 C92 1.107 . S
C983 C446 1.120 . S
C997 C505 1.115 . S
C1003 C151 1.125 . S
C1017 C564 1.110 . S
C1023 C210 1.124 . S
C1037 C269 1.119 . S
C1043 C623 1.107 . S
C1057 C682 1.106 . S
C1063 C328 1.117 . S
C1077 C52 1.213 . S
C1083 C465 1.210 . S
C1097 C524 1.209 . S
C1103 C111 1.213 . S
C1117 C583 1.212 . S
C1123 C170 1.205 . S
C1137 C229 1.211 . S
C1143 C642 1.212 . S
C1157 C701 1.205 . S
C1163 C288 1.212 . S
C1177 C406 1.212 . S
C1183 C347 1.211 . S
