# Generated by pormake.
# Topology lcy-e, (6)-cn, num edge types: 1
# Building blocks:
#     Node 0, Type 0, BuildingBlock: KUMJIN_clean_sbu_1, # of connection points: 6
#     Node 1, Type 0, BuildingBlock: KUMJIN_clean_sbu_1, # of connection points: 6
#     Node 2, Type 0, BuildingBlock: KUMJIN_clean_sbu_1, # of connection points: 6
#     Node 3, Type 0, BuildingBlock: KUMJIN_clean_sbu_1, # of connection points: 6
#     Node 4, Type 0, BuildingBlock: KUMJIN_clean_sbu_1, # of connection points: 6
#     Node 5, Type 0, BuildingBlock: KUMJIN_clean_sbu_1, # of connection points: 6
#     Node 6, Type 0, BuildingBlock: KUMJIN_clean_sbu_1, # of connection points: 6
#     Node 7, Type 0, BuildingBlock: KUMJIN_clean_sbu_1, # of connection points: 6
#     Node 8, Type 0, BuildingBlock: KUMJIN_clean_sbu_1, # of connection points: 6
#     Node 9, Type 0, BuildingBlock: KUMJIN_clean_sbu_1, # of connection points: 6
#     Node 10, Type 0, BuildingBlock: KUMJIN_clean_sbu_1, # of connection points: 6
#     Node 11, Type 0, BuildingBlock: KUMJIN_clean_sbu_1, # of connection points: 6
#     Edge 12, Type (0, 0), BuildingBlock: XUDNAN_clean_linker_2, # of connection points: 2
#     Edge 13, Type (0, 0), BuildingBlock: XUDNAN_clean_linker_2, # of connection points: 2
#     Edge 14, Type (0, 0), BuildingBlock: XUDNAN_clean_linker_2, # of connection points: 2
#     Edge 15, Type (0, 0), BuildingBlock: XUDNAN_clean_linker_2, # of connection points: 2
#     Edge 16, Type (0, 0), BuildingBlock: XUDNAN_clean_linker_2, # of connection points: 2
#     Edge 17, Type (0, 0), BuildingBlock: XUDNAN_clean_linker_2, # of connection points: 2
#     Edge 18, Type (0, 0), BuildingBlock: XUDNAN_clean_linker_2, # of connection points: 2
#     Edge 19, Type (0, 0), BuildingBlock: XUDNAN_clean_linker_2, # of connection points: 2
#     Edge 20, Type (0, 0), BuildingBlock: XUDNAN_clean_linker_2, # of connection points: 2
#     Edge 21, Type (0, 0), BuildingBlock: XUDNAN_clean_linker_2, # of connection points: 2
#     Edge 22, Type (0, 0), BuildingBlock: XUDNAN_clean_linker_2, # of connection points: 2
#     Edge 23, Type (0, 0), BuildingBlock: XUDNAN_clean_linker_2, # of connection points: 2
#     Edge 24, Type (0, 0), BuildingBlock: XUDNAN_clean_linker_2, # of connection points: 2
#     Edge 25, Type (0, 0), BuildingBlock: XUDNAN_clean_linker_2, # of connection points: 2
#     Edge 26, Type (0, 0), BuildingBlock: XUDNAN_clean_linker_2, # of connection points: 2
#     Edge 27, Type (0, 0), BuildingBlock: XUDNAN_clean_linker_2, # of connection points: 2
#     Edge 28, Type (0, 0), BuildingBlock: XUDNAN_clean_linker_2, # of connection points: 2
#     Edge 29, Type (0, 0), BuildingBlock: XUDNAN_clean_linker_2, # of connection points: 2
#     Edge 30, Type (0, 0), BuildingBlock: XUDNAN_clean_linker_2, # of connection points: 2
#     Edge 31, Type (0, 0), BuildingBlock: XUDNAN_clean_linker_2, # of connection points: 2
#     Edge 32, Type (0, 0), BuildingBlock: XUDNAN_clean_linker_2, # of connection points: 2
#     Edge 33, Type (0, 0), BuildingBlock: XUDNAN_clean_linker_2, # of connection points: 2
#     Edge 34, Type (0, 0), BuildingBlock: XUDNAN_clean_linker_2, # of connection points: 2
#     Edge 35, Type (0, 0), BuildingBlock: XUDNAN_clean_linker_2, # of connection points: 2
#     Edge 36, Type (0, 0), BuildingBlock: XUDNAN_clean_linker_2, # of connection points: 2
#     Edge 37, Type (0, 0), BuildingBlock: XUDNAN_clean_linker_2, # of connection points: 2
#     Edge 38, Type (0, 0), BuildingBlock: XUDNAN_clean_linker_2, # of connection points: 2
#     Edge 39, Type (0, 0), BuildingBlock: XUDNAN_clean_linker_2, # of connection points: 2
#     Edge 40, Type (0, 0), BuildingBlock: XUDNAN_clean_linker_2, # of connection points: 2
#     Edge 41, Type (0, 0), BuildingBlock: XUDNAN_clean_linker_2, # of connection points: 2
#     Edge 42, Type (0, 0), BuildingBlock: XUDNAN_clean_linker_2, # of connection points: 2
#     Edge 43, Type (0, 0), BuildingBlock: XUDNAN_clean_linker_2, # of connection points: 2
#     Edge 44, Type (0, 0), BuildingBlock: XUDNAN_clean_linker_2, # of connection points: 2
#     Edge 45, Type (0, 0), BuildingBlock: XUDNAN_clean_linker_2, # of connection points: 2
#     Edge 46, Type (0, 0), BuildingBlock: XUDNAN_clean_linker_2, # of connection points: 2
#     Edge 47, Type (0, 0), BuildingBlock: XUDNAN_clean_linker_2, # of connection points: 2
# Relax obj value: 0.092
# Max RMSD: 0.241
# Mean RMSD: 0.240
data_MOF--net-lcy-e--node1-KUMJIN_clean_sbu_1--edge1-XUDNAN_clean_linker_2
_symmetry_space_group_name_H-M    P1
_symmetry_Int_Tables_number       1
_symmetry_cell_setting            triclinic
loop_
_symmetry_equiv_pos_as_xyz
'x, y, z'
_cell_length_a     43.936036
_cell_length_b     43.763457
_cell_length_c     43.962231
_cell_angle_alpha  90.179466
_cell_angle_beta   90.09691
_cell_angle_gamma 89.828005
loop_
_atom_site_label
_atom_site_type_symbol
_atom_site_fract_x
_atom_site_fract_y
_atom_site_fract_z
_atom_type_partial_charge
Eu0 Eu 0.14559 0.21288 0.53001 0.0
C1 C 0.05797 0.31005 0.46705 0.0
N2 N 0.07201 0.28565 0.45393 0.0
C3 C 0.02623 0.27308 0.42703 0.0
C4 C 0.02699 0.31632 0.46137 0.0
C5 C 0.05702 0.26792 0.43332 0.0
C6 C 0.01102 0.29716 0.44142 0.0
C7 C 0.06145 0.35544 0.49868 0.0
C8 C 0.07494 0.32931 0.48554 0.0
C9 C 0.03034 0.36124 0.49392 0.0
C10 C 0.01316 0.34174 0.47529 0.0
Eu11 Eu 0.12331 0.2771 0.46773 0.0
N12 N 0.10495 0.32293 0.48988 0.0
C13 C 0.07985 0.37539 0.51549 0.0
C14 C 0.12339 0.34374 0.50366 0.0
C15 C 0.11111 0.36985 0.51741 0.0
H16 H 0.0691 0.25036 0.42113 0.0
H17 H 0.12585 0.38593 0.52897 0.0
H18 H 0.20435 0.24054 0.56974 0.0
H19 H 0.14028 0.11696 0.4495 0.0
H20 H 0.14762 0.34088 0.50305 0.0
H21 H 0.07038 0.39573 0.52599 0.0
H22 H 0.12013 0.16073 0.47781 0.0
H23 H 0.01437 0.25869 0.41085 0.0
H24 H 0.01951 0.38109 0.50401 0.0
H25 H 0.98933 0.34682 0.47136 0.0
H26 H 0.25743 0.22572 0.58152 0.0
H27 H 0.9872 0.30123 0.43641 0.0
H28 H 0.1932 0.09974 0.45811 0.0
N29 N 0.19713 0.20315 0.53967 0.0
C30 C 0.20881 0.17767 0.52633 0.0
C31 C 0.24401 0.21204 0.56597 0.0
C32 C 0.23875 0.16808 0.53286 0.0
C33 C 0.21412 0.22053 0.55905 0.0
C34 C 0.2563 0.18555 0.55304 0.0
N35 N 0.16201 0.17119 0.49974 0.0
C36 C 0.14367 0.15499 0.48056 0.0
C37 C 0.20301 0.13545 0.49084 0.0
C38 C 0.19096 0.16149 0.50557 0.0
C39 C 0.18473 0.11976 0.46997 0.0
C40 C 0.1549 0.12951 0.46492 0.0
H41 H 0.27945 0.17896 0.55854 0.0
H42 H 0.27324 0.13381 0.52379 0.0
H43 H 0.24218 0.10552 0.48673 0.0
O44 O 0.12092 0.17461 0.55163 0.0
O45 O 0.18088 0.22681 0.49532 0.0
O46 O 0.14919 0.23388 0.45524 0.0
O47 O 0.1539 0.20181 0.57734 0.0
O48 O 0.10008 0.20757 0.50496 0.0
O49 O 0.10953 0.22836 0.458 0.0
O50 O 0.15642 0.30622 0.44474 0.0
O51 O 0.09087 0.27329 0.509 0.0
O52 O 0.11879 0.25217 0.54859 0.0
O53 O 0.11842 0.28804 0.41946 0.0
O54 O 0.16489 0.28612 0.49788 0.0
O55 O 0.15666 0.26175 0.5439 0.0
C56 C 0.17647 0.22829 0.46596 0.0
C57 C 0.12933 0.16149 0.60537 0.0
C58 C 0.11029 0.11631 0.63167 0.0
C59 C 0.12012 0.12908 0.65942 0.0
C60 C 0.1387 0.1737 0.63345 0.0
C61 C 0.1341 0.15755 0.66024 0.0
C62 C 0.11509 0.13267 0.60451 0.0
C63 C 0.09271 0.21165 0.47616 0.0
C64 C 0.13477 0.17925 0.57748 0.0
C65 C 0.25034 0.14165 0.51888 0.0
C66 C 0.23267 0.12559 0.49769 0.0
C67 C 0.09469 0.26609 0.53794 0.0
C68 C 0.13919 0.33447 0.40224 0.0
C69 C 0.15116 0.36607 0.35821 0.0
C70 C 0.13448 0.39018 0.37127 0.0
C71 C 0.1223 0.35865 0.41472 0.0
C72 C 0.1533 0.33809 0.37374 0.0
C73 C 0.11996 0.38636 0.39924 0.0
C74 C 0.16763 0.28459 0.5277 0.0
C75 C 0.14235 0.3054 0.41861 0.0
H76 H 0.11737 0.11683 0.68061 0.0
H77 H 0.14958 0.19584 0.63476 0.0
H78 H 0.14153 0.1671 0.68174 0.0
H79 H 0.10769 0.12312 0.58296 0.0
H80 H 0.13229 0.41182 0.35956 0.0
H81 H 0.11099 0.35615 0.43639 0.0
H82 H 0.16618 0.31936 0.36387 0.0
H83 H 0.10687 0.40496 0.40895 0.0
Eu84 Eu 0.0479 0.9008 0.77875 0.0
C85 C 0.95898 0.80491 0.71159 0.0
N86 N 0.98327 0.81968 0.6995 0.0
C87 C 0.99807 0.77434 0.67265 0.0
C88 C 0.95369 0.77381 0.70507 0.0
C89 C 1.00233 0.8052 0.67971 0.0
C90 C 0.97383 0.75848 0.68561 0.0
C91 C 0.91305 0.80665 0.74224 0.0
C92 C 0.93891 0.82111 0.73 0.0
C93 C 0.90807 0.77552 0.7363 0.0
C94 C 0.92834 0.75915 0.71778 0.0
Eu95 Eu 0.98912 0.8713 0.71356 0.0
N96 N 0.94462 0.8511 0.73582 0.0
C97 C 0.89279 0.82402 0.7598 0.0
C98 C 0.92423 0.8684 0.75163 0.0
C99 C 0.89825 0.85514 0.76421 0.0
H100 H 0.0203 0.81772 0.66876 0.0
H101 H 0.88239 0.86897 0.77715 0.0
H102 H 0.01928 0.96108 0.81597 0.0
H103 H 0.14597 0.89228 0.70232 0.0
H104 H 0.92767 0.89242 0.75416 0.0
H105 H 0.87268 0.81377 0.76963 0.0
H106 H 0.10172 0.87317 0.73029 0.0
H107 H 0.01322 0.7629 0.65693 0.0
H108 H 0.88844 0.76398 0.74566 0.0
H109 H 0.92399 0.73523 0.71312 0.0
H110 H 0.03214 0.01541 0.82455 0.0
H111 H 0.97052 0.7346 0.67999 0.0
H112 H 0.16169 0.94619 0.70808 0.0
N113 N 0.05713 0.95292 0.78701 0.0
C114 C 0.08232 0.96448 0.7734 0.0
C115 C 0.0464 1.00135 0.8101 0.0
C116 C 0.09064 0.99524 0.77791 0.0
C117 C 0.03905 0.9707 0.80503 0.0
C118 C 0.07238 0.01365 0.79661 0.0
N119 N 0.09054 0.91618 0.74988 0.0
C120 C 0.10737 0.8969 0.73216 0.0
C121 C 0.12522 0.9574 0.73929 0.0
C122 C 0.09945 0.94568 0.75429 0.0
C123 C 0.14178 0.93803 0.72005 0.0
C124 C 0.1329 0.90762 0.71662 0.0
H125 H 0.078 0.03742 0.80057 0.0
H126 H 0.12343 0.0303 0.76671 0.0
H127 H 0.15354 0.9973 0.73277 0.0
O128 O 0.08329 0.87452 0.80265 0.0
O129 O 0.0396 0.93057 0.73794 0.0
O130 O 0.033 0.89523 0.70024 0.0
O131 O 0.05887 0.91136 0.82612 0.0
O132 O 0.0539 0.85274 0.75906 0.0
O133 O 0.03815 0.85677 0.70933 0.0
O134 O 0.9599 0.90361 0.68929 0.0
O135 O 0.98951 0.8443 0.75917 0.0
O136 O 1.00468 0.8798 0.79475 0.0
O137 O 0.97842 0.86477 0.66526 0.0
O138 O 0.98075 0.91726 0.73619 0.0
O139 O 0.99844 0.91619 0.78584 0.0
C140 C 0.03869 0.92331 0.70908 0.0
C141 C 0.09818 0.88515 0.8553 0.0
C142 C 0.1423 0.86325 0.88124 0.0
C143 C 0.13386 0.8787 0.90794 0.0
C144 C 0.0901 0.90024 0.88237 0.0
C145 C 0.10781 0.89694 0.9085 0.0
C146 C 0.1243 0.86628 0.8549 0.0
C147 C 0.05283 0.84225 0.73096 0.0
C148 C 0.08015 0.89065 0.82745 0.0
C149 C 0.11664 1.00674 0.76343 0.0
C150 C 0.13375 0.98795 0.74404 0.0
C151 C 0.99491 0.85261 0.78767 0.0
C152 C 0.9324 0.88589 0.64647 0.0
C153 C 0.90059 0.89923 0.60262 0.0
C154 C 0.87674 0.8822 0.61538 0.0
C155 C 0.90835 0.86888 0.65857 0.0
C156 C 0.92862 0.9008 0.61826 0.0
C157 C 0.88071 0.86702 0.64302 0.0
C158 C 0.97879 0.92551 0.76486 0.0
C159 C 0.96117 0.88892 0.66346 0.0
H160 H 0.14739 0.87645 0.92845 0.0
H161 H 0.07017 0.91484 0.88334 0.0
H162 H 0.10142 0.9087 0.92923 0.0
H163 H 0.13095 0.8545 0.83421 0.0
H164 H 0.85507 0.88032 0.60374 0.0
H165 H 0.91088 0.85722 0.6801 0.0
H166 H 0.94716 0.91401 0.60883 0.0
H167 H 0.86221 0.85384 0.65247 0.0
Eu168 Eu 0.39261 0.73537 0.96206 0.0
C169 C 0.29552 0.80973 0.03915 0.0
N170 N 0.31345 0.82051 0.0165 0.0
C171 C 0.27156 0.84964 0.997 0.0
C172 C 0.26422 0.81693 0.04032 0.0
C173 C 0.3023 0.84147 0.99645 0.0
C174 C 0.25216 0.83649 0.01829 0.0
C175 C 0.29203 0.78631 0.08889 0.0
C176 C 0.30922 0.79484 0.06321 0.0
C177 C 0.26042 0.79104 0.08894 0.0
C178 C 0.24652 0.80641 0.06469 0.0
Eu179 Eu 0.36555 0.8066 0.0178 0.0
N180 N 0.33993 0.7917 0.06291 0.0
C181 C 0.30737 0.77509 0.11448 0.0
C182 C 0.35509 0.78364 0.08883 0.0
C183 C 0.33913 0.77446 0.1147 0.0
H184 H 0.31733 0.85248 0.98046 0.0
H185 H 0.35133 0.76712 0.13481 0.0
H186 H 0.45206 0.69919 0.99401 0.0
H187 H 0.38641 0.80739 0.86041 0.0
H188 H 0.37941 0.78379 0.08921 0.0
H189 H 0.29501 0.76835 0.13466 0.0
H190 H 0.36677 0.78422 0.90718 0.0
H191 H 0.26306 0.86682 0.98172 0.0
H192 H 0.24677 0.78435 0.10831 0.0
H193 H 0.22238 0.81142 0.06577 0.0
H194 H 0.50525 0.68684 0.9805 0.0
H195 H 0.22839 0.84315 0.01875 0.0
H196 H 0.43877 0.79587 0.8433 0.0
N197 N 0.44442 0.72598 0.95446 0.0
C198 C 0.45558 0.73635 0.92755 0.0
C199 C 0.49157 0.7009 0.96552 0.0
C200 C 0.48551 0.72902 0.91856 0.0
C201 C 0.46162 0.70829 0.97333 0.0
C202 C 0.50354 0.7112 0.93798 0.0
N203 N 0.40823 0.76159 0.91806 0.0
C204 C 0.38993 0.77982 0.90078 0.0
C205 C 0.44893 0.76671 0.88173 0.0
C206 C 0.43721 0.7548 0.90906 0.0
C207 C 0.43049 0.78609 0.86432 0.0
C208 C 0.40093 0.79272 0.87394 0.0
H209 H 0.52669 0.70521 0.9319 0.0
H210 H 0.51944 0.73411 0.88325 0.0
H211 H 0.48774 0.76755 0.85141 0.0
O212 O 0.37982 0.70958 0.92107 0.0
O213 O 0.42345 0.77651 0.96805 0.0
O214 O 0.38845 0.81471 0.97243 0.0
O215 O 0.39731 0.68547 0.96121 0.0
O216 O 0.34556 0.75548 0.95376 0.0
O217 O 0.34875 0.80595 0.9687 0.0
O218 O 0.3997 0.83211 0.04385 0.0
O219 O 0.35464 0.75791 0.03321 0.0
O220 O 0.34848 0.732 0.98833 0.0
O221 O 0.36067 0.85554 0.02601 0.0
O222 O 0.41075 0.78181 0.02492 0.0
O223 O 0.40832 0.73056 0.01206 0.0
C224 C 0.41652 0.8057 0.96754 0.0
C225 C 0.38543 0.65416 0.91644 0.0
C226 C 0.36619 0.62259 0.87436 0.0
C227 C 0.38537 0.59877 0.88398 0.0
C228 C 0.4041 0.62976 0.92552 0.0
C229 C 0.40418 0.60239 0.90926 0.0
C230 C 0.36651 0.6506 0.89047 0.0
C231 C 0.33417 0.78332 0.95543 0.0
C232 C 0.38801 0.68362 0.93296 0.0
C233 C 0.49657 0.73974 0.89063 0.0
C234 C 0.47852 0.75884 0.8725 0.0
C235 C 0.346 0.73347 0.01794 0.0
C236 C 0.38132 0.87469 0.07128 0.0
C237 C 0.39618 0.91676 0.1044 0.0
C238 C 0.37385 0.90768 0.12539 0.0
C239 C 0.35883 0.86627 0.09224 0.0
C240 C 0.3998 0.90013 0.07726 0.0
C241 C 0.35526 0.88264 0.11924 0.0
C242 C 0.41607 0.75285 0.03123 0.0
C243 C 0.38491 0.85782 0.04266 0.0
H244 H 0.38551 0.57709 0.87199 0.0
H245 H 0.4192 0.63206 0.9449 0.0
H246 H 0.41887 0.58382 0.91635 0.0
H247 H 0.35186 0.66916 0.88319 0.0
H248 H 0.3704 0.92034 0.14633 0.0
H249 H 0.34378 0.84738 0.08759 0.0
H250 H 0.41698 0.90687 0.06094 0.0
H251 H 0.33785 0.87608 0.13532 0.0
Eu252 Eu 0.45774 0.11366 0.27818 0.0
C253 C 0.55097 0.21274 0.21525 0.0
N254 N 0.52661 0.19735 0.20394 0.0
C255 C 0.51101 0.24178 0.17627 0.0
C256 C 0.55555 0.24385 0.20839 0.0
C257 C 0.5074 0.21098 0.18369 0.0
C258 C 0.53479 0.25848 0.18914 0.0
C259 C 0.59906 0.21155 0.24243 0.0
C260 C 0.57251 0.19684 0.23201 0.0
C261 C 0.60303 0.24285 0.23683 0.0
C262 C 0.58131 0.25897 0.21985 0.0
Eu263 Eu 0.52283 0.14534 0.21752 0.0
N264 N 0.56809 0.16656 0.23704 0.0
C265 C 0.6213 0.19411 0.25723 0.0
C266 C 0.59035 0.14908 0.24996 0.0
C267 C 0.61716 0.16267 0.26045 0.0
H268 H 0.48983 0.19786 0.17257 0.0
H269 H 0.63487 0.14895 0.27054 0.0
H270 H 0.48436 0.05096 0.31247 0.0
H271 H 0.36727 0.12758 0.19334 0.0
H272 H 0.58741 0.12469 0.25189 0.0
H273 H 0.64215 0.20449 0.26536 0.0
H274 H 0.41087 0.14433 0.22408 0.0
H275 H 0.49598 0.25245 0.16005 0.0
H276 H 0.6232 0.2546 0.24484 0.0
H277 H 0.58508 0.28291 0.21497 0.0
H278 H 0.46825 0.99724 0.31923 0.0
H279 H 0.53763 0.28228 0.18308 0.0
H280 H 0.34779 0.0749 0.19836 0.0
N281 N 0.44804 0.06155 0.28232 0.0
C282 C 0.42275 0.05177 0.26745 0.0
C283 C 0.4553 0.01233 0.30462 0.0
C284 C 0.41238 0.0216 0.27121 0.0
C285 C 0.46453 0.04256 0.30054 0.0
C286 C 0.42895 1.00187 0.29014 0.0
N287 N 0.41776 0.10104 0.24479 0.0
C288 C 0.4035 0.12105 0.22578 0.0
C289 C 0.38179 0.06167 0.23155 0.0
C290 C 0.40745 0.07184 0.24795 0.0
C291 C 0.36747 0.08193 0.21149 0.0
C292 C 0.37844 0.11168 0.20854 0.0
H293 H 0.42176 0.97847 0.29348 0.0
H294 H 0.37774 0.98884 0.25849 0.0
H295 H 0.35123 0.0237 0.22355 0.0
O296 O 0.41632 0.12987 0.30128 0.0
O297 O 0.47341 0.08369 0.2397 0.0
O298 O 0.47882 0.12148 0.20523 0.0
O299 O 0.4506 0.1033 0.32616 0.0
O300 O 0.45244 0.16241 0.26117 0.0
O301 O 0.47397 0.16194 0.21358 0.0
O302 O 0.55023 0.11107 0.19334 0.0
O303 O 0.53053 0.16491 0.26599 0.0
O304 O 0.48964 0.14842 0.29459 0.0
O305 O 0.5344 0.15097 0.16955 0.0
O306 O 0.53112 0.10132 0.24355 0.0
O307 O 0.50685 0.10069 0.29061 0.0
C308 C 0.47573 0.09239 0.21142 0.0
C309 C 0.40635 0.12003 0.35518 0.0
C310 C 0.36318 0.14066 0.38401 0.0
C311 C 0.37414 0.12545 0.41 0.0
C312 C 0.41669 0.10527 0.38157 0.0
C313 C 0.40064 0.10795 0.40872 0.0
C314 C 0.37936 0.13765 0.35643 0.0
C315 C 0.45885 0.17597 0.23532 0.0
C316 C 0.42472 0.11793 0.32711 0.0
C317 C 0.38614 0.01192 0.25574 0.0
C318 C 0.37109 0.03177 0.23577 0.0
C319 C 0.51405 0.16481 0.29114 0.0
C320 C 0.57988 0.12858 0.15199 0.0
C321 C 0.61276 0.11522 0.10908 0.0
C322 C 0.63562 0.1339 0.12157 0.0
C323 C 0.60295 0.14721 0.16383 0.0
C324 C 0.5847 0.11279 0.12441 0.0
C325 C 0.63066 0.14981 0.14867 0.0
C326 C 0.53073 0.09545 0.27291 0.0
C327 C 0.5505 0.12609 0.1678 0.0
H328 H 0.36197 0.12671 0.43137 0.0
H329 H 0.43737 0.09172 0.38133 0.0
H330 H 0.40878 0.09641 0.4289 0.0
H331 H 0.37134 0.14944 0.3363 0.0
H332 H 0.65724 0.1366 0.11009 0.0
H333 H 0.59952 0.1599 0.18464 0.0
H334 H 0.56684 0.09849 0.11509 0.0
H335 H 0.64834 0.16433 0.1579 0.0
Eu336 Eu 0.64762 0.30799 0.48865 0.0
C337 C 0.5646 0.20869 0.54724 0.0
N338 N 0.57617 0.23473 0.55958 0.0
C339 C 0.52761 0.24685 0.58133 0.0
C340 C 0.53349 0.20153 0.55032 0.0
C341 C 0.55865 0.25276 0.5779 0.0
C342 C 0.51483 0.22141 0.56702 0.0
C343 C 0.57326 0.16043 0.52122 0.0
C344 C 0.58429 0.18837 0.53276 0.0
C345 C 0.54203 0.15389 0.52302 0.0
C346 C 0.5222 0.1744 0.53751 0.0
Eu347 Eu 0.62862 0.24303 0.55151 0.0
N348 N 0.6144 0.19541 0.53103 0.0
C349 C 0.59418 0.13937 0.50932 0.0
C350 C 0.63498 0.17434 0.5212 0.0
C351 C 0.62525 0.14603 0.51024 0.0
H352 H 0.56868 0.2712 0.59061 0.0
H353 H 0.64182 0.12911 0.5033 0.0
H354 H 0.70611 0.27432 0.44857 0.0
H355 H 0.64382 0.42076 0.53959 0.0
H356 H 0.65894 0.17881 0.52324 0.0
H357 H 0.58671 0.11742 0.50068 0.0
H358 H 0.62308 0.37123 0.52142 0.0
H359 H 0.5137 0.26161 0.59544 0.0
H360 H 0.53311 0.13265 0.51401 0.0
H361 H 0.49831 0.16866 0.53942 0.0
H362 H 0.76117 0.28013 0.44358 0.0
H363 H 0.49082 0.21669 0.56998 0.0
H364 H 0.69922 0.43055 0.53656 0.0
N365 N 0.70083 0.31177 0.47956 0.0
C366 C 0.71446 0.33704 0.49145 0.0
C367 C 0.74841 0.29601 0.45757 0.0
C368 C 0.74593 0.34213 0.48766 0.0
C369 C 0.71705 0.29234 0.46124 0.0
C370 C 0.76303 0.32072 0.47127 0.0
N371 N 0.66642 0.35355 0.50929 0.0
C372 C 0.64728 0.37555 0.52028 0.0
C373 C 0.70945 0.38665 0.51599 0.0
C374 C 0.69659 0.35896 0.5058 0.0
C375 C 0.69021 0.40896 0.52854 0.0
C376 C 0.65892 0.4035 0.53038 0.0
H377 H 0.78725 0.32376 0.46794 0.0
H378 H 0.7833 0.37307 0.49675 0.0
H379 H 0.75131 0.41216 0.52132 0.0
O380 O 0.61117 0.33497 0.46749 0.0
O381 O 0.65951 0.31568 0.53822 0.0
O382 O 0.67383 0.26818 0.55346 0.0
O383 O 0.65528 0.33159 0.44573 0.0
O384 O 0.60163 0.30825 0.51303 0.0
O385 O 0.61211 0.29098 0.56138 0.0
O386 O 0.64952 0.20708 0.57841 0.0
O387 O 0.59975 0.24432 0.50717 0.0
O388 O 0.62962 0.26468 0.46889 0.0
O389 O 0.625 0.24342 0.6013 0.0
O390 O 0.67311 0.23971 0.5261 0.0
O391 O 0.66542 0.25922 0.47817 0.0
C392 C 0.67712 0.29789 0.55445 0.0
C393 C 0.6144 0.3509 0.41572 0.0
C394 C 0.59121 0.3891 0.38252 0.0
C395 C 0.59286 0.36813 0.35826 0.0
C396 C 0.61562 0.33016 0.39143 0.0
C397 C 0.60473 0.33879 0.36282 0.0
C398 C 0.60181 0.38012 0.41132 0.0
C399 C 0.59635 0.30817 0.54255 0.0
C400 C 0.62835 0.34403 0.44523 0.0
C401 C 0.75914 0.36894 0.49927 0.0
C402 C 0.74091 0.39125 0.51318 0.0
C403 C 0.60646 0.24834 0.47806 0.0
C404 C 0.62955 0.19536 0.62624 0.0
C405 C 0.64099 0.16248 0.66947 0.0
C406 C 0.61297 0.14763 0.66506 0.0
C407 C 0.60166 0.18043 0.62218 0.0
C408 C 0.64903 0.18651 0.65 0.0
C409 C 0.5934 0.15672 0.64166 0.0
C410 C 0.67677 0.23819 0.49662 0.0
C411 C 0.64036 0.21802 0.60435 0.0
H412 H 0.58482 0.37442 0.33582 0.0
H413 H 0.62542 0.30764 0.39451 0.0
H414 H 0.60587 0.32284 0.34399 0.0
H415 H 0.60137 0.39631 0.43006 0.0
H416 H 0.6061 0.12919 0.67991 0.0
H417 H 0.58658 0.18673 0.60377 0.0
H418 H 0.67087 0.1977 0.65273 0.0
H419 H 0.57188 0.14516 0.63844 0.0
Eu420 Eu 0.02597 0.36208 0.80666 0.0
C421 C 0.96412 0.46656 0.72514 0.0
N422 N 0.95367 0.44889 0.74815 0.0
C423 C 0.92818 0.49214 0.77003 0.0
C424 C 0.95866 0.49834 0.72487 0.0
C425 C 0.93415 0.46075 0.76924 0.0
C426 C 0.94118 0.51117 0.74825 0.0
C427 C 0.98726 0.46993 0.67523 0.0
C428 C 0.97793 0.45248 0.70044 0.0
C429 C 0.98372 0.50182 0.6758 0.0
C430 C 0.96939 0.516 0.70056 0.0
Eu431 Eu 0.9665 0.39653 0.74558 0.0
N432 N 0.98054 0.42154 0.70029 0.0
C433 C 0.99875 0.45469 0.64969 0.0
C434 C 0.99076 0.40646 0.67508 0.0
C435 C 0.99984 0.42283 0.64938 0.0
H436 H 0.9234 0.4461 0.78577 0.0
H437 H 1.00718 0.41096 0.62912 0.0
H438 H 0.06826 0.30479 0.77584 0.0
H439 H 0.96141 0.36671 0.91161 0.0
H440 H 0.99146 0.38183 0.67445 0.0
H441 H 1.00581 0.46723 0.62971 0.0
H442 H 0.98083 0.38636 0.86257 0.0
H443 H 0.91337 0.50162 0.78724 0.0
H444 H 0.99101 0.51561 0.65674 0.0
H445 H 0.96573 0.54049 0.70016 0.0
H446 H 0.0791 0.25074 0.78632 0.0
H447 H 0.93638 0.53546 0.74885 0.0
H448 H 0.97227 0.31335 0.92658 0.0
N449 N 0.03669 0.30968 0.81239 0.0
C450 C 0.02475 0.29677 0.83781 0.0
C451 C 0.06351 0.2633 0.80076 0.0
C452 C 0.03214 0.26642 0.84576 0.0
C453 C 0.05668 0.29382 0.79448 0.0
C454 C 0.05109 0.24948 0.82643 0.0
N455 N 0.99967 0.34366 0.84907 0.0
C456 C 0.98445 0.36268 0.86857 0.0
C457 C 0.99686 0.30267 0.88519 0.0
C458 C 1.00656 0.31446 0.85705 0.0
C459 C 0.98015 0.32165 0.90479 0.0
C460 C 0.97384 0.35175 0.89639 0.0
H461 H 0.05712 0.22606 0.8317 0.0
H462 H 0.02717 0.23113 0.87982 0.0
H463 H 0.99711 0.2631 0.91468 0.0
O464 O 0.04321 0.38956 0.84422 0.0
O465 O 0.97545 0.35076 0.80905 0.0
O466 O 0.96472 0.34667 0.75896 0.0
O467 O 0.07187 0.35418 0.82501 0.0
O468 O 0.01532 0.41253 0.80605 0.0
O469 O 0.96528 0.40923 0.79573 0.0
O470 O 0.93144 0.38841 0.70969 0.0
O471 O 0.0154 0.41671 0.74267 0.0
O472 O 0.04836 0.38156 0.76582 0.0
O473 O 0.91979 0.39012 0.75823 0.0
O474 O 0.99382 0.35822 0.72465 0.0
O475 O 0.03166 0.34051 0.75838 0.0
C476 C 0.96128 0.33691 0.78678 0.0
C477 C 0.09575 0.39477 0.85267 0.0
C478 C 0.12843 0.41817 0.8915 0.0
C479 C 0.14432 0.43324 0.86816 0.0
C480 C 0.11168 0.41018 0.82986 0.0
C481 C 0.13592 0.4293 0.83766 0.0
C482 C 0.104 0.39898 0.88333 0.0
C483 C 0.98795 0.42373 0.80842 0.0
C484 C 0.06929 0.37553 0.84564 0.0
C485 C 0.02156 0.25433 0.87329 0.0
C486 C 1.00449 0.27256 0.89319 0.0
C487 C 0.04284 0.40469 0.74765 0.0
C488 C 0.87791 0.37857 0.7248 0.0
C489 C 0.83628 0.36225 0.69173 0.0
C490 C 0.81748 0.3592 0.71728 0.0
C491 C 0.85836 0.37563 0.74997 0.0
C492 C 0.86658 0.3722 0.69538 0.0
C493 C 0.82843 0.36606 0.74617 0.0
C494 C 0.01752 0.34099 0.73143 0.0
C495 C 0.9104 0.38544 0.73045 0.0
H496 H 0.16354 0.44778 0.87335 0.0
H497 H 0.10527 0.40759 0.80618 0.0
H498 H 0.14829 0.44111 0.81999 0.0
H499 H 0.09089 0.38764 0.90082 0.0
H500 H 0.794 0.35207 0.71474 0.0
H501 H 0.86628 0.38024 0.77287 0.0
H502 H 0.88116 0.37447 0.67566 0.0
H503 H 0.81368 0.36386 0.76572 0.0
Eu504 Eu 0.86771 0.70933 0.98206 0.0
C505 C 0.95712 0.79854 0.04915 0.0
N506 N 0.94215 0.77427 0.06129 0.0
C507 C 0.98687 0.75951 0.08887 0.0
C508 C 0.98819 0.80339 0.05561 0.0
C509 C 0.95608 0.75568 0.08192 0.0
C510 C 1.00311 0.78323 0.07537 0.0
C511 C 0.95627 0.84449 0.01811 0.0
C512 C 0.94116 0.81924 0.0309 0.0
C513 C 0.98739 0.84883 0.02392 0.0
C514 C 1.00326 0.82843 0.04269 0.0
Eu515 Eu 0.89045 0.77042 0.04795 0.0
N516 N 0.91103 0.81438 0.02524 0.0
C517 C 0.9396 0.86471 0.99986 0.0
C518 C 0.89446 0.83461 1.00853 0.0
C519 C 0.90852 0.85986 0.99524 0.0
H520 H 0.94331 0.73832 0.0936 0.0
H521 H 0.89533 0.87568 0.98163 0.0
H522 H 0.80555 0.74525 0.95045 0.0
H523 H 0.87756 0.5935 0.02435 0.0
H524 H 0.87047 0.83145 1.00567 0.0
H525 H 0.95042 0.88433 0.98955 0.0
H526 H 0.89583 0.64475 0.00901 0.0
H527 H 0.99794 0.74442 0.10494 0.0
H528 H 0.99937 0.86808 0.01423 0.0
H529 H 0.02717 0.83239 0.04729 0.0
H530 H 0.75051 0.73802 0.9481 0.0
H531 H 0.02695 0.78625 0.08095 0.0
H532 H 0.82248 0.58177 0.02231 0.0
N533 N 0.81406 0.70476 0.97631 0.0
C534 C 0.80199 0.67786 0.98594 0.0
C535 C 0.76464 0.72115 0.95931 0.0
C536 C 0.77048 0.67211 0.98354 0.0
C537 C 0.79605 0.72555 0.96153 0.0
C538 C 0.75171 0.69454 0.97079 0.0
N539 N 0.85149 0.66155 0.99947 0.0
C540 C 0.87177 0.63967 1.00838 0.0
C541 C 0.8099 0.62651 1.0054 0.0
C542 C 0.82136 0.65532 0.99692 0.0
C543 C 0.83041 0.60416 0.01556 0.0
C544 C 0.86151 0.61072 0.01686 0.0
H545 H 0.72741 0.69102 0.96862 0.0
H546 H 0.73465 0.63917 0.99151 0.0
H547 H 0.76919 0.59922 0.01053 0.0
O548 O 0.90237 0.6848 0.95421 0.0
O549 O 0.8566 0.69838 0.03117 0.0
O550 O 0.84527 0.74511 0.05152 0.0
O551 O 0.85611 0.69203 0.93727 0.0
O552 O 0.91414 0.70471 1.00617 0.0
O553 O 0.90508 0.72169 0.05525 0.0
O554 O 0.87368 0.81022 0.07284 0.0
O555 O 0.91885 0.76817 1.00333 0.0
O556 O 0.88422 0.75488 0.96667 0.0
O557 O 0.89071 0.77096 0.09771 0.0
O558 O 0.84437 0.77555 0.02616 0.0
O559 O 0.84913 0.75881 0.9768 0.0
C560 C 0.84052 0.71557 0.04962 0.0
C561 C 0.88961 0.66474 0.90318 0.0
C562 C 0.913 0.62409 0.87259 0.0
C563 C 0.89801 0.63563 0.84681 0.0
C564 C 0.87496 0.67563 0.87693 0.0
C565 C 0.87917 0.66116 0.84901 0.0
C566 C 0.90877 0.63874 0.90101 0.0
C567 C 0.92019 0.70464 0.03571 0.0
C568 C 0.88268 0.6798 0.93256 0.0
C569 C 0.75881 0.64386 0.99302 0.0
C570 C 0.77848 0.62105 1.00374 0.0
C571 C 0.91023 0.76683 0.97451 0.0
C572 C 0.89047 0.81893 0.1232 0.0
C573 C 0.88075 0.84966 0.16874 0.0
C574 C 0.91125 0.85945 0.16801 0.0
C575 C 0.92067 0.82907 0.12285 0.0
C576 C 0.87059 0.82917 0.14616 0.0
C577 C 0.93097 0.8492 0.14525 0.0
C578 C 0.83767 0.77791 0.99733 0.0
C579 C 0.87886 0.79831 0.09952 0.0
H580 H 0.90091 0.62475 0.82482 0.0
H581 H 0.86006 0.69538 0.87802 0.0
H582 H 0.8677 0.66976 0.82896 0.0
H583 H 0.92006 0.62993 0.92111 0.0
H584 H 0.92001 0.87479 0.18529 0.0
H585 H 0.9362 0.82153 0.10532 0.0
H586 H 0.84711 0.82159 0.1461 0.0
H587 H 0.95435 0.8569 0.14498 0.0
Eu588 Eu 0.48838 0.65355 0.30432 0.0
C589 C 0.5734 0.55798 0.21686 0.0
N590 N 0.57896 0.57855 0.23943 0.0
C591 C 0.62424 0.55125 0.25334 0.0
C592 C 0.59242 0.53229 0.21265 0.0
C593 C 0.6044 0.57602 0.25703 0.0
C594 C 0.61801 0.52905 0.23135 0.0
C595 C 0.54288 0.54219 0.17346 0.0
C596 C 0.5494 0.56323 0.19701 0.0
C597 C 0.56112 0.51607 0.16993 0.0
C598 C 0.58593 0.51121 0.18937 0.0
Eu599 Eu 0.54769 0.62246 0.24008 0.0
N600 N 0.5326 0.58905 0.20045 0.0
C601 C 0.51829 0.54811 0.15404 0.0
C602 C 0.50821 0.59434 0.18214 0.0
C603 C 0.50073 0.57429 0.15856 0.0
H604 H 0.60892 0.59273 0.27454 0.0
H605 H 0.48123 0.57888 0.1442 0.0
H606 H 0.44804 0.71271 0.27456 0.0
H607 H 0.55342 0.65121 0.40982 0.0
H608 H 0.49354 0.61296 0.18703 0.0
H609 H 0.5125 0.53251 0.13575 0.0
H610 H 0.52578 0.62923 0.36566 0.0
H611 H 0.64429 0.54925 0.26753 0.0
H612 H 0.55646 0.49969 0.15199 0.0
H613 H 0.60018 0.49125 0.18597 0.0
H614 H 0.44763 0.76888 0.27771 0.0
H615 H 0.63332 0.50977 0.22868 0.0
H616 H 0.55786 0.70736 0.41521 0.0
N617 N 0.48386 0.70743 0.30689 0.0
C618 C 0.50044 0.72132 0.32909 0.0
C619 C 0.463 0.75584 0.29193 0.0
C620 C 0.49999 0.75337 0.33255 0.0
C621 C 0.46381 0.72398 0.28974 0.0
C622 C 0.48164 0.77066 0.31301 0.0
N623 N 0.51595 0.67252 0.34624 0.0
C624 C 0.52778 0.65374 0.36806 0.0
C625 C 0.53179 0.71688 0.37444 0.0
C626 C 0.5163 0.70335 0.34977 0.0
C627 C 0.54572 0.69782 0.39595 0.0
C628 C 0.54332 0.66611 0.39297 0.0
H629 H 0.48071 0.79533 0.3149 0.0
H630 H 0.51709 0.79166 0.3588 0.0
H631 H 0.54487 0.7597 0.39552 0.0
O632 O 0.46517 0.6231 0.3365 0.0
O633 O 0.53926 0.65809 0.30814 0.0
O634 O 0.54652 0.67081 0.25975 0.0
O635 O 0.44674 0.66802 0.32747 0.0
O636 O 0.50488 0.60445 0.3083 0.0
O637 O 0.55346 0.60272 0.28775 0.0
O638 O 0.57744 0.62894 0.19989 0.0
O639 O 0.50195 0.59654 0.24579 0.0
O640 O 0.46623 0.6315 0.26414 0.0
O641 O 0.58845 0.64977 0.24325 0.0
O642 O 0.51388 0.65374 0.21798 0.0
O643 O 0.48098 0.6739 0.25532 0.0
C644 C 0.55275 0.67536 0.28844 0.0
C645 C 0.41432 0.63307 0.35388 0.0
C646 C 0.38262 0.61346 0.39515 0.0
C647 C 0.3566 0.62004 0.37779 0.0
C648 C 0.38806 0.63903 0.33671 0.0
C649 C 0.35936 0.63244 0.34865 0.0
C650 C 0.41152 0.61975 0.38294 0.0
C651 C 0.53206 0.59188 0.30583 0.0
C652 C 0.44455 0.64322 0.34355 0.0
C653 C 0.51685 0.76705 0.35607 0.0
C654 C 0.5326 0.74885 0.37705 0.0
C655 C 0.47349 0.60541 0.25136 0.0
C656 C 0.63022 0.64075 0.21076 0.0
C657 C 0.67612 0.64714 0.18012 0.0
C658 C 0.69391 0.63803 0.205 0.0
C659 C 0.64888 0.63284 0.23566 0.0
C660 C 0.64414 0.64816 0.18281 0.0
C661 C 0.68033 0.6309 0.23257 0.0
C662 C 0.49165 0.67197 0.22677 0.0
C663 C 0.59703 0.64538 0.21523 0.0
H664 H 0.33414 0.61518 0.38666 0.0
H665 H 0.38971 0.64926 0.31437 0.0
H666 H 0.33914 0.63724 0.33538 0.0
H667 H 0.43173 0.61511 0.39638 0.0
H668 H 0.71848 0.63675 0.20312 0.0
H669 H 0.63945 0.6292 0.25798 0.0
H670 H 0.63036 0.65525 0.16361 0.0
H671 H 0.69429 0.62451 0.25186 0.0
Eu672 Eu 0.27949 0.46368 0.11798 0.0
C673 C 0.21851 0.55716 0.2091 0.0
N674 N 0.2079 0.53083 0.19663 0.0
C675 C 0.18601 0.51652 0.24428 0.0
C676 C 0.21514 0.56307 0.24045 0.0
C677 C 0.19066 0.51122 0.21331 0.0
C678 C 0.19912 0.54202 0.25817 0.0
C679 C 0.2407 0.60734 0.20214 0.0
C680 C 0.231 0.57912 0.19006 0.0
C681 C 0.23926 0.61246 0.23368 0.0
C682 C 0.22642 0.59041 0.25278 0.0
Eu683 Eu 0.21496 0.52493 0.14399 0.0
N684 N 0.23151 0.5738 0.15954 0.0
C685 C 0.25018 0.63013 0.18203 0.0
C686 C 0.23805 0.5968 0.13981 0.0
C687 C 0.24815 0.62508 0.15071 0.0
H688 H 0.17967 0.49193 0.20266 0.0
H689 H 0.25408 0.64305 0.13495 0.0
H690 H 0.30928 0.50449 0.05848 0.0
H691 H 0.22767 0.3513 0.11732 0.0
H692 H 0.23534 0.5935 0.11562 0.0
H693 H 0.25776 0.65214 0.1904 0.0
H694 H 0.24941 0.39827 0.14032 0.0
H695 H 0.1718 0.50126 0.25723 0.0
H696 H 0.24691 0.63389 0.24339 0.0
H697 H 0.22435 0.59519 0.27688 0.0
H698 H 0.30679 0.50389 1.00287 0.0
H699 H 0.19552 0.54597 0.28224 0.0
H700 H 0.22433 0.3464 0.06128 0.0
N701 N 0.28158 0.46486 0.06399 0.0
C702 C 0.26884 0.4404 0.04961 0.0
C703 C 0.2956 0.48613 0.01574 0.0
C704 C 0.26803 0.43855 0.01758 0.0
C705 C 0.29628 0.48675 0.04752 0.0
C706 C 0.28103 0.46218 1.00069 0.0
N707 N 0.25737 0.41938 0.09772 0.0
C708 C 0.2478 0.39612 0.11587 0.0
C709 C 0.24484 0.39052 0.05285 0.0
C710 C 0.25716 0.41668 0.06695 0.0
C711 C 0.23395 0.36687 0.07126 0.0
C712 C 0.23568 0.36959 0.10292 0.0
H713 H 0.28077 0.46165 0.97605 0.0
H714 H 0.25385 0.41133 0.97883 0.0
H715 H 0.23376 0.3692 0.0097 0.0
O716 O 0.30598 0.4322 0.14711 0.0
O717 O 0.22942 0.45742 0.10753 0.0
O718 O 0.21569 0.50585 0.09582 0.0
O719 O 0.32404 0.44732 0.10335 0.0
O720 O 0.25857 0.45656 0.16473 0.0
O721 O 0.20961 0.47528 0.15842 0.0
O722 O 0.18092 0.56077 0.1361 0.0
O723 O 0.25723 0.51937 0.17537 0.0
O724 O 0.29586 0.50548 0.14249 0.0
O725 O 0.16636 0.5145 0.14421 0.0
O726 O 0.2418 0.53857 0.10182 0.0
O727 O 0.28863 0.51421 0.10674 0.0
C728 C 0.2142 0.47647 0.09041 0.0
C729 C 0.3561 0.41237 0.13202 0.0
C730 C 0.38323 0.36824 0.1529 0.0
C731 C 0.40903 0.37648 0.13608 0.0
C732 C 0.38234 0.42015 0.11559 0.0
C733 C 0.40863 0.40239 0.11776 0.0
C734 C 0.35675 0.38649 0.15119 0.0
C735 C 0.22977 0.45825 0.17281 0.0
C736 C 0.32803 0.43052 0.12741 0.0
C737 C 0.25488 0.41297 1.0034 0.0
C738 C 0.24351 0.38893 0.02098 0.0
C739 C 0.28644 0.51702 0.16837 0.0
C740 C 0.13622 0.54476 0.11095 0.0
C741 C 0.09421 0.57158 0.08554 0.0
C742 C 0.0953 0.54969 0.06206 0.0
C743 C 0.13654 0.52322 0.08727 0.0
C744 C 0.11496 0.56896 0.11004 0.0
C745 C 0.11623 0.52571 0.06305 0.0
C746 C 0.2714 0.53727 0.09728 0.0
C747 C 0.158 0.54206 0.13649 0.0
H748 H 0.42964 0.36286 0.13728 0.0
H749 H 0.38251 0.43994 0.10085 0.0
H750 H 0.4287 0.4086 0.10498 0.0
H751 H 0.33665 0.38006 0.16388 0.0
H752 H 0.07929 0.5505 0.04331 0.0
H753 H 0.15227 0.50423 0.08768 0.0
H754 H 0.1146 0.58563 0.12833 0.0
H755 H 0.11638 0.50864 0.04524 0.0
Eu756 Eu 0.77897 0.04857 0.90132 0.0
C757 C 0.69346 0.96984 0.80336 0.0
N758 N 0.68545 0.99181 0.82368 0.0
C759 C 0.64485 1.0081 0.79102 0.0
C760 C 0.67783 0.96662 0.77552 0.0
C761 C 0.66171 0.01113 0.81782 0.0
C762 C 0.65303 0.98584 0.76969 0.0
C763 C 0.72474 0.92583 0.79095 0.0
C764 C 0.71623 0.94942 0.81116 0.0
C765 C 0.71039 0.92354 0.76248 0.0
C766 C 0.6868 0.94375 0.75487 0.0
Eu767 Eu 0.71223 0.99248 0.87031 0.0
N768 N 0.7289 0.9516 0.83924 0.0
C769 C 0.74676 0.90472 0.80036 0.0
C770 C 0.74863 0.92979 0.84936 0.0
C771 C 0.75856 0.90656 0.8298 0.0
H772 H 0.65529 0.02842 0.83425 0.0
H773 H 0.77513 0.88997 0.83735 0.0
H774 H 0.8209 0.01703 0.95667 0.0
H775 H 0.69424 0.14061 0.90713 0.0
H776 H 0.75699 0.93083 0.8723 0.0
H777 H 0.75416 0.88642 0.78542 0.0
H778 H 0.72071 0.097 0.88374 0.0
H779 H 0.62574 0.02314 0.78668 0.0
H780 H 0.71674 0.90567 0.74658 0.0
H781 H 0.67529 0.94116 0.73321 0.0
H782 H 0.83419 0.02805 0.01029 0.0
H783 H 0.64011 0.98377 0.74877 0.0
H784 H 0.70772 0.157 0.9593 0.0
N785 N 0.79109 0.05514 0.95281 0.0
C786 C 0.77822 0.07981 0.9666 0.0
C787 C 0.81844 0.04276 0.99826 0.0
C788 C 0.78554 0.08721 0.99696 0.0
C789 C 0.81071 0.03644 0.96805 0.0
C790 C 0.80598 0.06837 0.01272 0.0
N791 N 0.74916 0.08866 0.9218 0.0
C792 C 0.72711 0.10399 0.90619 0.0
C793 C 0.74218 0.12199 0.965 0.0
C794 C 0.75676 0.09707 0.95069 0.0
C795 C 0.71957 0.13785 0.94902 0.0
C796 C 0.71189 0.12867 0.91957 0.0
H797 H 0.81207 0.07325 0.03612 0.0
H798 H 0.77747 0.11895 0.034 0.0
H799 H 0.73949 0.1493 1.0061 0.0
O800 O 0.8001 0.08782 0.87819 0.0
O801 O 0.74056 0.03604 0.93326 0.0
O802 O 0.70382 0.03519 0.8976 0.0
O803 O 0.82682 0.05934 0.90924 0.0
O804 O 0.75881 0.05879 0.85465 0.0
O805 O 0.70929 0.04133 0.85441 0.0
O806 O 0.6939 0.95692 0.90008 0.0
O807 O 0.75633 0.99241 0.84191 0.0
O808 O 0.79554 0.00879 0.87387 0.0
O809 O 0.66323 0.9871 0.8765 0.0
O810 O 0.7404 0.97638 0.911 0.0
O811 O 0.78877 0.99839 0.91196 0.0
C812 C 0.71164 0.03592 0.92624 0.0
C813 C 0.85367 0.10197 0.88597 0.0
C814 C 0.8789 0.14708 0.86495 0.0
C815 C 0.90607 0.13792 0.87913 0.0
C816 C 0.88131 0.09336 0.89966 0.0
C817 C 0.90727 0.11118 0.89617 0.0
C818 C 0.85261 0.12887 0.86817 0.0
C819 C 0.73167 0.05684 0.84215 0.0
C820 C 0.82633 0.08293 0.89125 0.0
C821 C 0.77196 0.11279 0.01075 0.0
C822 C 0.7503 0.13007 0.99485 0.0
C823 C 0.78543 0.99514 0.84925 0.0
C824 C 0.64552 0.93762 0.88605 0.0
C825 C 0.59957 0.90778 0.8953 0.0
C826 C 0.60676 0.88951 0.8699 0.0
C827 C 0.65222 0.91904 0.8609 0.0
C828 C 0.61897 0.93217 0.90311 0.0
C829 C 0.63284 0.89521 0.85282 0.0
C830 C 0.76955 0.976 0.91818 0.0
C831 C 0.66555 0.96333 0.89389 0.0
H832 H 0.92654 0.15147 0.8768 0.0
H833 H 0.88291 0.07282 0.91327 0.0
H834 H 0.9284 0.1043 0.90686 0.0
H835 H 0.83153 0.13591 0.85741 0.0
H836 H 0.59202 0.8709 0.8631 0.0
H837 H 0.67238 0.92297 0.84749 0.0
H838 H 0.61368 0.94653 0.92255 0.0
H839 H 0.63806 0.88107 0.83326 0.0
Eu840 Eu 0.73365 0.96629 0.39678 0.0
C841 C 0.79947 0.05722 0.30082 0.0
N842 N 0.81384 0.03606 0.31829 0.0
C843 C 0.84952 0.02635 0.2782 0.0
C844 C 0.80841 0.06219 0.27043 0.0
C845 C 0.83965 0.022 0.30811 0.0
C846 C 0.83322 0.04573 0.25896 0.0
C847 C 0.76567 0.10104 0.29795 0.0
C848 C 0.77842 0.07655 0.31445 0.0
C849 C 0.77245 0.10431 0.26695 0.0
C850 C 0.79382 0.08491 0.2532 0.0
Eu851 Eu 0.79549 0.03065 0.36843 0.0
N852 N 0.77287 0.07335 0.34467 0.0
C853 C 0.7482 0.12272 0.31359 0.0
C854 C 0.7585 0.09602 0.36055 0.0
C855 C 0.74549 0.12071 0.34513 0.0
H856 H 0.85243 1.00712 0.32308 0.0
H857 H 0.73401 0.13858 0.35746 0.0
H858 H 0.69189 1.0017 0.45077 0.0
H859 H 0.81471 0.87107 0.40699 0.0
H860 H 0.75704 0.09481 0.385 0.0
H861 H 0.73829 0.14207 0.30184 0.0
H862 H 0.78833 0.9126 0.3807 0.0
H863 H 0.8698 0.01496 0.27004 0.0
H864 H 0.76254 0.12276 0.25383 0.0
H865 H 0.80008 0.08873 0.22969 0.0
H866 H 0.68102 0.9958 0.50528 0.0
H867 H 0.841 0.0491 0.23584 0.0
H868 H 0.80361 0.86056 0.46102 0.0
N869 N 0.72361 0.96482 0.44926 0.0
C870 C 0.73646 0.94104 0.46455 0.0
C871 C 0.69682 0.9804 0.49416 0.0
C872 C 0.72994 0.93623 0.49557 0.0
C873 C 0.70349 0.984 0.46332 0.0
C874 C 0.71011 0.95645 0.51037 0.0
N875 N 0.7626 0.9266 0.41933 0.0
C876 C 0.78316 0.90874 0.40418 0.0
C877 C 0.77079 0.89736 0.46503 0.0
C878 C 0.75648 0.9215 0.44927 0.0
C879 C 0.79196 0.87913 0.44959 0.0
C880 C 0.79829 0.88499 0.4191 0.0
H881 H 0.70467 0.95358 0.53422 0.0
H882 H 0.73832 0.90733 0.53464 0.0
H883 H 0.77426 0.87353 0.50801 0.0
O884 O 0.71167 0.92201 0.38886 0.0
O885 O 0.77373 0.98004 0.42661 0.0
O886 O 0.81177 0.98701 0.39169 0.0
O887 O 0.68409 0.96205 0.39721 0.0
O888 O 0.76075 0.95198 0.35492 0.0
O889 O 0.80266 0.98391 0.34524 0.0
O890 O 0.81622 0.05569 0.40645 0.0
O891 O 0.7458 0.03624 0.35289 0.0
O892 O 0.7333 0.9861 0.34946 0.0
O893 O 0.83851 0.05541 0.36323 0.0
O894 O 0.76782 0.03579 0.41166 0.0
O895 O 0.7196 0.01631 0.40606 0.0
C896 C 0.8027 0.97934 0.41918 0.0
C897 C 0.66159 0.9216 0.36779 0.0
C898 C 0.63349 0.87872 0.34416 0.0
C899 C 0.61482 0.90045 0.32947 0.0
C900 C 0.64287 0.94227 0.35211 0.0
C901 C 0.61978 0.93172 0.33311 0.0
C902 C 0.65702 0.8898 0.36345 0.0
C903 C 0.78619 0.95888 0.34029 0.0
C904 C 0.68417 0.93296 0.39039 0.0
C905 C 0.74324 0.91145 0.51086 0.0
C906 C 0.76369 0.89217 0.49568 0.0
C907 C 0.72718 0.01464 0.34367 0.0
C908 C 0.87001 0.0598 0.4064 0.0
C909 C 0.91882 0.0801 0.42406 0.0
C910 C 0.92603 0.05124 0.43604 0.0
C911 C 0.87815 0.03108 0.41779 0.0
C912 C 0.89067 0.08428 0.40909 0.0
C913 C 0.9059 0.02686 0.43269 0.0
C914 C 0.73817 0.03859 0.41443 0.0
C915 C 0.84023 0.06407 0.39136 0.0
H916 H 0.59573 0.89356 0.31554 0.0
H917 H 0.64559 0.96669 0.35499 0.0
H918 H 0.60518 0.94794 0.32156 0.0
H919 H 0.67174 0.87391 0.37531 0.0
H920 H 0.94765 0.04738 0.4473 0.0
H921 H 0.86301 0.01198 0.41499 0.0
H922 H 0.88484 0.10644 0.39975 0.0
H923 H 0.91191 1.00456 0.44148 0.0
Eu924 Eu 0.30652 0.49459 0.6489 0.0
C925 C 0.20475 0.54728 0.5578 0.0
N926 N 0.22924 0.56104 0.57068 0.0
C927 C 0.23998 0.5864 0.52377 0.0
C928 C 0.19817 0.55097 0.52662 0.0
C929 C 0.246 0.58147 0.5546 0.0
C930 C 0.21652 0.57044 0.50947 0.0
C931 C 0.15885 0.5174 0.56387 0.0
C932 C 0.18508 0.53116 0.5763 0.0
C933 C 0.15325 0.51934 0.53247 0.0
C934 C 0.17277 0.53628 0.51391 0.0
Eu935 Eu 0.23805 0.55096 0.62262 0.0
N936 N 0.19073 0.53041 0.60669 0.0
C937 C 0.13853 0.50293 0.5835 0.0
C938 C 0.16966 0.51866 0.62608 0.0
C939 C 0.14373 0.50401 0.61478 0.0
H940 H 0.26335 0.59467 0.56578 0.0
H941 H 0.12764 0.49368 0.63011 0.0
H942 H 0.27689 0.44774 0.70321 0.0
H943 H 0.40253 0.57244 0.65607 0.0
H944 H 0.17258 0.52083 0.65019 0.0
H945 H 0.11824 0.49186 0.57486 0.0
H946 H 0.3611 0.54375 0.63046 0.0
H947 H 0.25289 0.60295 0.51116 0.0
H948 H 0.13333 0.50872 0.52251 0.0
H949 H 0.16757 0.53858 0.48992 0.0
H950 H 0.28036 0.44126 0.75848 0.0
H951 H 0.21193 0.57435 0.48557 0.0
H952 H 0.40951 0.56798 0.71175 0.0
N953 N 0.30821 0.48493 0.70181 0.0
C954 C 0.32952 0.50104 0.71757 0.0
C955 C 0.29401 0.45846 0.74734 0.0
C956 C 0.3333 0.49684 0.74917 0.0
C957 C 0.29159 0.46277 0.71596 0.0
C958 C 0.31469 0.47582 0.7641 0.0
N959 N 0.3442 0.52507 0.67161 0.0
C960 C 0.36391 0.54224 0.65487 0.0
C961 C 0.37183 0.53671 0.71742 0.0
C962 C 0.34838 0.52114 0.70198 0.0
C963 C 0.39121 0.55565 0.70069 0.0
C964 C 0.38733 0.55829 0.66925 0.0
H965 H 0.31681 0.4721 0.78836 0.0
H966 H 0.35927 0.51005 0.789 0.0
H967 H 0.39368 0.5439 0.76109 0.0
O968 O 0.34531 0.48056 0.62125 0.0
O969 O 0.30294 0.54515 0.66124 0.0
O970 O 0.25325 0.54941 0.67158 0.0
O971 O 0.33026 0.45133 0.6576 0.0
O972 O 0.30626 0.51191 0.60084 0.0
O973 O 0.28623 0.56024 0.60423 0.0
O974 O 0.20047 0.58294 0.63129 0.0
O975 O 0.2443 0.50758 0.59356 0.0
O976 O 0.26815 0.47096 0.6239 0.0
O977 O 0.24726 0.59903 0.63107 0.0
O978 O 0.22623 0.52061 0.66312 0.0
O979 O 0.259 0.47842 0.6632 0.0
C980 C 0.28134 0.55469 0.67935 0.0
C981 C 0.35724 0.42834 0.61663 0.0
C982 C 0.39629 0.39467 0.59515 0.0
C983 C 0.37348 0.37941 0.5786 0.0
C984 C 0.33483 0.41288 0.59994 0.0
C985 C 0.34302 0.38843 0.58111 0.0
C986 C 0.38784 0.41917 0.61424 0.0
C987 C 0.30453 0.54013 0.59118 0.0
C988 C 0.34967 0.45499 0.63558 0.0
C989 C 0.35605 0.51303 0.76475 0.0
C990 C 0.37555 0.53249 0.74886 0.0
C991 C 0.25024 0.47896 0.60115 0.0
C992 C 0.20843 0.63647 0.62453 0.0
C993 C 0.18038 0.68368 0.63567 0.0
C994 C 0.19384 0.69701 0.60983 0.0
C995 C 0.22122 0.65023 0.59885 0.0
C996 C 0.18772 0.65307 0.6426 0.0
C997 C 0.21376 0.68028 0.59148 0.0
C998 C 0.2331 0.49218 0.6707 0.0
C999 C 0.21862 0.6062 0.6349 0.0
H1000 H 0.37912 0.36021 0.56404 0.0
H1001 H 0.31118 0.41982 0.60136 0.0
H1002 H 0.32573 0.37636 0.56839 0.0
H1003 H 0.40513 0.43154 0.62683 0.0
H1004 H 0.18972 0.72068 0.60407 0.0
H1005 H 0.23756 0.63814 0.58495 0.0
H1006 H 0.17783 0.64214 0.66232 0.0
H1007 H 0.22406 0.69093 0.57186 0.0
H1008 H 0.21413 0.3235 0.51084 0.0
H1009 H 0.14698 0.3074 0.58127 0.0
H1010 H 0.15953 0.35743 0.60441 0.0
H1011 H 0.26858 0.36122 0.56309 0.0
H1012 H 0.28176 0.3873 0.53431 0.0
H1013 H 0.2681 0.35002 0.52359 0.0
H1014 H 0.22966 0.37584 0.48688 0.0
H1015 H 0.24267 0.41315 0.4984 0.0
H1016 H 0.20295 0.40349 0.50163 0.0
H1017 H 0.17098 0.41189 0.61423 0.0
H1018 H 0.19649 0.4611 0.62315 0.0
H1019 H 0.26189 0.44025 0.55252 0.0
C1020 C 0.20224 0.33045 0.53129 0.0
C1021 C 0.17931 0.31175 0.54407 0.0
C1022 C 0.1645 0.32134 0.57104 0.0
C1023 C 0.17086 0.34992 0.58395 0.0
C1024 C 0.19212 0.36854 0.56985 0.0
C1025 C 0.20867 0.35879 0.54498 0.0
C1026 C 0.23227 0.38254 0.53622 0.0
C1027 C 0.2646 0.36949 0.53952 0.0
C1028 C 0.22653 0.39445 0.50385 0.0
C1029 C 0.22596 0.40723 0.55983 0.0
C1030 C 0.20192 0.3989 0.57824 0.0
C1031 C 0.19033 0.41835 0.60049 0.0
C1032 C 0.20479 0.44636 0.60528 0.0
C1033 C 0.23108 0.45433 0.58873 0.0
C1034 C 0.24157 0.43478 0.56528 0.0
H1035 H 0.83574 0.96505 0.86861 0.0
H1036 H 0.78989 0.99662 0.7871 0.0
H1037 H 0.83633 0.9849 0.75703 0.0
H1038 H 0.90773 0.99547 0.85284 0.0
H1039 H 0.92903 0.96372 0.86807 0.0
H1040 H 0.89174 0.97244 0.88271 0.0
H1041 H 0.87545 0.91815 0.87137 0.0
H1042 H 0.91153 0.90789 0.85516 0.0
H1043 H 0.87715 0.90266 0.83328 0.0
H1044 H 0.8895 0.97528 0.73761 0.0
H1045 H 0.94185 0.9582 0.72718 0.0
H1046 H 0.95223 0.93064 0.82144 0.0
C1047 C 0.83523 0.96877 0.84426 0.0
C1048 C 0.80933 0.98164 0.82997 0.0
C1049 C 0.80941 0.98638 0.79823 0.0
C1050 C 0.83577 0.98016 0.78116 0.0
C1051 C 0.86146 0.96888 0.79627 0.0
C1052 C 0.86111 0.96245 0.82697 0.0
C1053 C 0.89167 0.95044 0.83782 0.0
C1054 C 0.90587 0.97181 0.86177 0.0
C1055 C 0.88877 0.91775 0.85003 0.0
C1056 C 0.90942 0.95117 0.80845 0.0
C1057 C 0.89173 0.96238 0.7849 0.0
C1058 C 0.90335 0.96601 0.75577 0.0
C1059 C 0.93325 0.95646 0.75019 0.0
C1060 C 0.9511 0.94282 0.77348 0.0
C1061 C 0.9393 0.94113 0.80324 0.0
H1062 H 0.31755 0.68192 0.99536 0.0
H1063 H 0.3543 0.72137 0.07832 0.0
H1064 H 0.34034 0.67505 0.1064 0.0
H1065 H 0.25382 0.64345 0.02938 0.0
H1066 H 0.25675 0.61002 1.00548 0.0
H1067 H 0.2695 0.64649 0.99164 0.0
H1068 H 0.32265 0.62324 0.98039 0.0
H1069 H 0.31011 0.58673 0.99445 0.0
H1070 H 0.34338 0.6046 0.01053 0.0
H1071 H 0.32259 0.62523 0.12568 0.0
H1072 H 0.29984 0.5751 0.13584 0.0
H1073 H 0.27491 0.56568 0.0411 0.0
C1074 C 0.32247 0.68088 0.01948 0.0
C1075 C 0.33644 0.70575 0.03477 0.0
C1076 C 0.34279 0.70324 0.06625 0.0
C1077 C 0.33527 0.67677 0.08236 0.0
C1078 C 0.32156 0.65278 0.06666 0.0
C1079 C 0.31509 0.65449 0.03598 0.0
C1080 C 0.30012 0.62522 0.02481 0.0
C1081 C 0.26814 0.63169 0.01208 0.0
C1082 C 0.32026 0.60899 1.00113 0.0
C1083 C 0.29869 0.60708 0.05417 0.0
C1084 C 0.31169 0.6234 0.07782 0.0
C1085 C 0.31308 0.61191 0.10721 0.0
C1086 C 0.30071 0.58308 0.11269 0.0
C1087 C 0.28682 0.56604 0.08917 0.0
C1088 C 0.28577 0.57816 0.05942 0.0
H1089 H 0.57291 0.10958 0.31684 0.0
H1090 H 0.54666 0.0394 0.25231 0.0
H1091 H 0.59369 0.01045 0.26407 0.0
H1092 H 0.6522 0.10971 0.29963 0.0
H1093 H 0.66383 0.11573 0.33823 0.0
H1094 H 0.62705 0.1292 0.32596 0.0
H1095 H 0.60474 0.09865 0.37073 0.0
H1096 H 0.64028 0.08018 0.38074 0.0
H1097 H 0.60781 0.05753 0.3709 0.0
H1098 H 0.64436 0.98986 0.2818 0.0
H1099 H 0.69542 0.97981 0.30333 0.0
H1100 H 0.6915 0.06572 0.35239 0.0
C1101 C 0.57675 0.08765 0.30596 0.0
C1102 C 0.55589 0.07617 0.28429 0.0
C1103 C 0.56213 0.04809 0.26948 0.0
C1104 C 0.58883 0.03163 0.27588 0.0
C1105 C 0.60935 0.0438 0.29683 0.0
C1106 C 0.60369 0.07117 0.31163 0.0
C1107 C 0.63014 0.07959 0.33223 0.0
C1108 C 0.64402 0.11048 0.3235 0.0
C1109 C 0.62009 0.07906 0.36564 0.0
C1110 C 0.65206 0.05362 0.32559 0.0
C1111 C 0.63927 0.03276 0.30576 0.0
C1112 C 0.65465 1.00622 0.29716 0.0
C1113 C 0.6837 1.00076 0.3094 0.0
C1114 C 0.69749 0.02209 0.32939 0.0
C1115 C 0.68157 0.04909 0.33714 0.0
H1116 H 0.66172 0.2031 0.44647 0.0
H1117 H 0.72549 0.21015 0.52156 0.0
H1118 H 0.7443 0.15818 0.51062 0.0
H1119 H 0.64283 0.11924 0.45273 0.0
H1120 H 0.64003 0.12039 0.41229 0.0
H1121 H 0.63322 0.15451 0.43367 0.0
H1122 H 0.67393 0.17456 0.39382 0.0
H1123 H 0.68537 0.13719 0.38095 0.0
H1124 H 0.71285 0.16262 0.39822 0.0
H1125 H 0.7543 0.10539 0.49431 0.0
H1126 H 0.76166 0.05631 0.46794 0.0
H1127 H 0.69223 0.0812 0.40225 0.0
C1128 C 0.68018 0.1939 0.46003 0.0
C1129 C 0.6924 0.21071 0.48472 0.0
C1130 C 0.71609 0.19775 0.50237 0.0
C1131 C 0.7266 0.16809 0.4966 0.0
C1132 C 0.71318 0.15153 0.4731 0.0
C1133 C 0.69081 0.16395 0.45479 0.0
C1134 C 0.68141 0.14139 0.43018 0.0
C1135 C 0.64742 0.13348 0.43248 0.0
C1136 C 0.68886 0.15469 0.39887 0.0
C1137 C 0.7017 0.11405 0.43792 0.0
C1138 C 0.71956 0.12067 0.46301 0.0
C1139 C 0.74052 0.09986 0.47464 0.0
C1140 C 0.74436 0.07191 0.45964 0.0
C1141 C 0.72737 0.06471 0.43323 0.0
C1142 C 0.70509 0.08577 0.42268 0.0
H1143 H 0.0662 0.4633 0.73959 0.0
H1144 H 0.08342 0.36732 0.72156 0.0
H1145 H 0.13344 0.37943 0.70087 0.0
H1146 H 0.10568 0.49457 0.67659 0.0
H1147 H 0.12544 0.52519 0.6958 0.0
H1148 H 0.08913 0.51208 0.70956 0.0
H1149 H 0.10889 0.4993 0.76231 0.0
H1150 H 0.14538 0.51469 0.75177 0.0
H1151 H 0.14279 0.47644 0.76666 0.0
H1152 H 0.18284 0.40012 0.68569 0.0
H1153 H 0.22793 0.43004 0.67153 0.0
H1154 H 0.1828 0.51282 0.70273 0.0
C1155 C 0.08014 0.44515 0.73019 0.0
C1156 C 0.07002 0.41451 0.73048 0.0
C1157 C 0.08975 0.39111 0.71979 0.0
C1158 C 0.11861 0.39766 0.70857 0.0
C1159 C 0.12825 0.42776 0.70913 0.0
C1160 C 0.10986 0.45122 0.71971 0.0
C1161 C 0.12716 0.48122 0.7195 0.0
C1162 C 0.11098 0.50469 0.69913 0.0
C1163 C 0.13129 0.49364 0.75199 0.0
C1164 C 0.15754 0.47086 0.70625 0.0
C1165 C 0.15765 0.4398 0.70097 0.0
C1166 C 0.18309 0.42455 0.68951 0.0
C1167 C 0.2088 0.44172 0.68189 0.0
C1168 C 0.20875 0.47388 0.68531 0.0
C1169 C 0.18325 0.48835 0.69905 0.0
H1170 H 0.80243 0.92646 0.89759 0.0
H1171 H 0.75968 0.96511 0.9778 0.0
H1172 H 0.77026 0.91726 1.00597 0.0
H1173 H 0.76894 0.85088 0.90919 0.0
H1174 H 0.80132 0.83026 0.89435 0.0
H1175 H 0.79263 0.86793 0.88056 0.0
H1176 H 0.84581 0.88397 0.89289 0.0
H1177 H 0.85662 0.84857 0.91029 0.0
H1178 H 0.85993 0.88368 0.93152 0.0
H1179 H 0.7833 0.86488 0.02452 0.0
H1180 H 0.80236 0.81302 0.03429 0.0
H1181 H 0.83475 0.80653 0.94123 0.0
C1182 C 0.79547 0.92484 0.92113 0.0
C1183 C 0.78038 0.94944 0.93576 0.0
C1184 C 0.77155 0.94656 0.96648 0.0
C1185 C 0.7772 0.91942 0.98248 0.0
C1186 C 0.79099 0.89511 0.96712 0.0
C1187 C 0.79997 0.89745 0.93713 0.0
C1188 C 0.81312 0.8673 0.92579 0.0
C1189 C 0.79276 0.85325 0.90101 0.0
C1190 C 0.8459 0.87116 0.91454 0.0
C1191 C 0.81178 0.84832 0.95445 0.0
C1192 C 0.79824 0.86462 0.97779 0.0
C1193 C 0.79397 0.85196 1.0064 0.0
C1194 C 0.80476 0.82231 0.01162 0.0
C1195 C 0.82014 0.80558 0.98851 0.0
C1196 C 0.82285 0.81852 0.95925 0.0
H1197 H 0.44645 0.59564 0.19602 0.0
H1198 H 0.43935 0.57395 0.29168 0.0
H1199 H 0.38893 0.55022 0.2823 0.0
H1200 H 0.36923 0.61429 0.18452 0.0
H1201 H 0.36805 0.59834 0.14669 0.0
H1202 H 0.40328 0.61278 0.16177 0.0
H1203 H 0.42868 0.56019 0.15086 0.0
H1204 H 0.39329 0.54602 0.13597 0.0
H1205 H 0.41217 0.526 0.16647 0.0
H1206 H 0.33584 0.53351 0.26191 0.0
H1207 H 0.29067 0.51759 0.23133 0.0
H1208 H 0.33824 0.5442 0.14931 0.0
C1209 C 0.43527 0.58448 0.21473 0.0
C1210 C 0.44751 0.58532 0.24433 0.0
C1211 C 0.4307 0.57254 0.26862 0.0
C1212 C 0.40193 0.55938 0.26356 0.0
C1213 C 0.39026 0.55927 0.23403 0.0
C1214 C 0.40684 0.57094 0.20997 0.0
C1215 C 0.38946 0.56848 0.18042 0.0
C1216 C 0.38207 0.60037 0.16762 0.0
C1217 C 0.40693 0.54897 0.15708 0.0
C1218 C 0.36093 0.55274 0.19136 0.0
C1219 C 0.36103 0.54859 0.22245 0.0
C1220 C 0.33575 0.53636 0.23747 0.0
C1221 C 0.31012 0.5276 0.22005 0.0
C1222 C 0.31058 0.5302 0.188 0.0
C1223 C 0.33655 0.54272 0.1738 0.0
H1224 H 0.56842 0.19603 0.30643 0.0
H1225 H 0.48068 0.16788 0.34302 0.0
H1226 H 0.4962 0.18318 0.3934 0.0
H1227 H 0.61505 0.17644 0.37006 0.0
H1228 H 0.63769 0.21074 0.36927 0.0
H1229 H 0.62058 0.19657 0.33477 0.0
H1230 H 0.5939 0.24916 0.3268 0.0
H1231 H 0.61167 0.26289 0.36115 0.0
H1232 H 0.5709 0.2649 0.35699 0.0
H1233 H 0.52043 0.19785 0.44105 0.0
H1234 H 0.55093 0.21999 0.48277 0.0
H1235 H 0.62149 0.24332 0.41764 0.0
C1236 C 0.55242 0.19349 0.32493 0.0
C1237 C 0.52363 0.17981 0.32016 0.0
C1238 C 0.50327 0.17745 0.34536 0.0
C1239 C 0.51172 0.18612 0.37455 0.0
C1240 C 0.5403 0.19839 0.37869 0.0
C1241 C 0.56011 0.2031 0.3547 0.0
C1242 C 0.58868 0.21889 0.36607 0.0
C1243 C 0.61718 0.19946 0.35966 0.0
C1244 C 0.59144 0.25086 0.35191 0.0
C1245 C 0.58192 0.22089 0.40003 0.0
C1246 C 0.55387 0.20879 0.40668 0.0
C1247 C 0.54246 0.20772 0.43629 0.0
C1248 C 0.56 0.2201 0.45991 0.0
C1249 C 0.58855 0.23336 0.45371 0.0
C1250 C 0.59965 0.23345 0.4233 0.0
H1251 H 0.08903 0.32143 0.56607 0.0
H1252 H 0.05459 0.22894 0.56537 0.0
H1253 H 0.03166 0.2372 0.61613 0.0
H1254 H 0.1108 0.32142 0.641 0.0
H1255 H 0.10045 0.36027 0.65034 0.0
H1256 H 0.10978 0.35029 0.61177 0.0
H1257 H 0.05889 0.36907 0.59007 0.0
H1258 H 0.0516 0.38284 0.62792 0.0
H1259 H 0.0242 0.35837 0.60914 0.0
H1260 H 0.0188 0.25364 0.67051 0.0
H1261 H 0.0091 0.28021 0.71969 0.0
H1262 H 0.04817 0.36274 0.68274 0.0
C1263 C 0.07515 0.3036 0.5759 0.0
C1264 C 0.07242 0.27497 0.56134 0.0
C1265 C 0.05581 0.25142 0.57571 0.0
C1266 C 0.04315 0.25576 0.60475 0.0
C1267 C 0.04736 0.28383 0.61918 0.0
C1268 C 0.06226 0.30763 0.60487 0.0
C1269 C 0.06506 0.33496 0.62588 0.0
C1270 C 0.09857 0.34209 0.63273 0.0
C1271 C 0.04887 0.36295 0.61243 0.0
C1272 C 0.0491 0.32308 0.65396 0.0
C1273 C 0.03974 0.29326 0.65007 0.0
C1274 C 0.02593 0.27707 0.6737 0.0
C1275 C 0.02089 0.29211 0.70167 0.0
C1276 C 0.02935 0.32301 0.70555 0.0
C1277 C 0.04323 0.33862 0.68117 0.0
H1278 H 0.94179 0.82323 0.80437 0.0
H1279 H 0.03513 0.83926 0.83157 0.0
H1280 H 0.02435 0.81844 0.88245 0.0
H1281 H 0.9078 0.84528 0.87289 0.0
H1282 H 0.87866 0.81632 0.8718 0.0
H1283 H 0.89522 0.82974 0.83699 0.0
H1284 H 0.90899 0.77346 0.82328 0.0
H1285 H 0.89289 0.76067 0.8587 0.0
H1286 H 0.93172 0.75128 0.84937 0.0
H1287 H 1.00194 0.80172 0.93255 0.0
H1288 H 0.97071 0.78404 0.976 0.0
H1289 H 0.89214 0.77861 0.91615 0.0
C1290 C 0.96014 0.82109 0.82061 0.0
C1291 C 0.98942 0.83232 0.81388 0.0
C1292 C 0.01266 0.8303 0.83619 0.0
C1293 C 1.00671 0.81872 0.86524 0.0
C1294 C 0.97732 0.80905 0.87175 0.0
C1295 C 0.95453 0.80951 0.84992 0.0
C1296 C 0.9246 0.79894 0.86331 0.0
C1297 C 0.90016 0.8241 0.86113 0.0
C1298 C 0.91393 0.76932 0.84774 0.0
C1299 C 0.93404 0.79326 0.89609 0.0
C1300 C 0.96452 0.79921 0.90056 0.0
C1301 C 0.9781 0.79653 0.92925 0.0
C1302 C 0.96018 0.7867 0.95387 0.0
C1303 C 0.92908 0.77963 0.94958 0.0
C1304 C 0.91596 0.78341 0.92028 0.0
H1305 H 0.4812 0.65331 0.16794 0.0
H1306 H 0.47129 0.73215 0.22682 0.0
H1307 H 0.45354 0.7621 0.18223 0.0
H1308 H 0.50739 0.69175 0.10259 0.0
H1309 H 0.48745 0.6671 0.07646 0.0
H1310 H 0.49999 0.6526 0.11271 0.0
H1311 H 0.44503 0.63606 0.12552 0.0
H1312 H 0.43219 0.65009 0.08925 0.0
H1313 H 0.41456 0.66373 0.12374 0.0
H1314 H 0.44507 0.78411 0.12856 0.0
H1315 H 0.4312 0.79414 0.07559 0.0
H1316 H 0.43647 0.69723 0.05497 0.0
C1317 C 0.47477 0.67637 0.17234 0.0
C1318 C 0.47719 0.68979 0.20163 0.0
C1319 C 0.46895 0.7209 0.20504 0.0
C1320 C 0.45931 0.73817 0.17965 0.0
C1321 C 0.45767 0.72383 0.15116 0.0
C1322 C 0.46442 0.69335 0.14769 0.0
C1323 C 0.45992 0.68258 0.11512 0.0
C1324 C 0.4905 0.67293 0.1009 0.0
C1325 C 0.43651 0.65659 0.11331 0.0
C1326 C 0.4482 0.71164 0.10069 0.0
C1327 C 0.44874 0.73549 0.12151 0.0
C1328 C 0.44319 0.76535 0.11257 0.0
C1329 C 0.43528 0.77072 0.08217 0.0
C1330 C 0.43055 0.74626 0.06131 0.0
C1331 C 0.43828 0.71633 0.07056 0.0
H1332 H 0.19414 0.40808 0.34284 0.0
H1333 H 0.13949 0.33467 0.30573 0.0
H1334 H 0.15699 0.34779 0.25378 0.0
H1335 H 0.18035 0.46044 0.28952 0.0
H1336 H 0.21799 0.47686 0.28626 0.0
H1337 H 0.20635 0.45907 0.32109 0.0
H1338 H 0.25131 0.42171 0.32007 0.0
H1339 H 0.26497 0.44003 0.28608 0.0
H1340 H 0.25872 0.39933 0.28638 0.0
H1341 H 0.17419 0.37418 0.20577 0.0
H1342 H 0.19415 0.40825 0.16552 0.0
H1343 H 0.24035 0.46248 0.2339 0.0
C1344 C 0.18659 0.39429 0.32378 0.0
C1345 C 0.16553 0.37041 0.32807 0.0
C1346 C 0.15582 0.35291 0.30277 0.0
C1347 C 0.1656 0.36026 0.27326 0.0
C1348 C 0.18564 0.38467 0.26963 0.0
C1349 C 0.19672 0.40085 0.29432 0.0
C1350 C 0.21699 0.42688 0.28427 0.0
C1351 C 0.20468 0.45767 0.29591 0.0
C1352 C 0.24996 0.42166 0.29482 0.0
C1353 C 0.21428 0.42395 0.24998 0.0
C1354 C 0.19629 0.39927 0.242 0.0
C1355 C 0.18884 0.39311 0.21173 0.0
C1356 C 0.20014 0.41256 0.18906 0.0
C1357 C 0.21899 0.43751 0.19677 0.0
C1358 C 0.22639 0.44311 0.22754 0.0
H1359 H 0.85481 0.93877 0.58788 0.0
H1360 H 0.9343 0.89394 0.55025 0.0
H1361 H 0.92037 0.91291 0.49888 0.0
H1362 H 0.80547 0.92177 0.53292 0.0
H1363 H 0.7849 0.95762 0.5311 0.0
H1364 H 0.80342 0.94629 0.56575 0.0
H1365 H 0.83532 0.99536 0.5675 0.0
H1366 H 0.81569 0.00838 0.53389 0.0
H1367 H 0.85668 1.00676 0.53447 0.0
H1368 H 0.89353 0.93192 0.45047 0.0
H1369 H 0.85821 0.95107 0.41069 0.0
H1370 H 0.79659 0.98307 0.48088 0.0
C1371 C 0.86968 0.93362 0.56891 0.0
C1372 C 0.89559 0.91487 0.57296 0.0
C1373 C 0.91448 0.90848 0.54764 0.0
C1374 C 0.90667 0.9191 0.5184 0.0
C1375 C 0.88025 0.93664 0.515 0.0
C1376 C 0.86249 0.94445 0.5398 0.0
C1377 C 0.83444 0.96213 0.53015 0.0
C1378 C 0.80529 0.94597 0.54055 0.0
C1379 C 0.83562 0.99512 0.54222 0.0
C1380 C 0.83797 0.96133 0.49588 0.0
C1381 C 0.86488 0.94721 0.48749 0.0
C1382 C 0.87263 0.94335 0.45689 0.0
C1383 C 0.85245 0.95428 0.43443 0.0
C1384 C 0.82479 0.96877 0.44263 0.0
C1385 C 0.81763 0.97221 0.47382 0.0
H1386 H 0.32122 0.59912 0.69932 0.0
H1387 H 0.2568 0.53139 0.7307 0.0
H1388 H 0.26839 0.54521 0.78398 0.0
H1389 H 0.3786 0.59521 0.75784 0.0
H1390 H 0.38298 0.63586 0.75903 0.0
H1391 H 0.36977 0.61777 0.72466 0.0
H1392 H 0.32346 0.65564 0.72774 0.0
H1393 H 0.33658 0.67039 0.76378 0.0
H1394 H 0.29893 0.65451 0.76053 0.0
H1395 H 0.28917 0.5633 0.83333 0.0
H1396 H 0.31825 0.5846 0.87647 0.0
H1397 H 0.36738 0.64364 0.81485 0.0
C1398 C 0.30963 0.58735 0.71754 0.0
C1399 C 0.28832 0.56398 0.71104 0.0
C1400 C 0.2731 0.54937 0.73527 0.0
C1401 C 0.27956 0.55707 0.76557 0.0
C1402 C 0.30057 0.5802 0.77134 0.0
C1403 C 0.31515 0.59548 0.74809 0.0
C1404 C 0.33567 0.62043 0.76092 0.0
C1405 C 0.36868 0.61704 0.7499 0.0
C1406 C 0.3229 0.65212 0.75276 0.0
C1407 C 0.33277 0.61451 0.79492 0.0
C1408 C 0.31161 0.59181 0.80026 0.0
C1409 C 0.30546 0.58138 0.8295 0.0
C1410 C 0.32198 0.59368 0.85389 0.0
C1411 C 0.3446 0.61607 0.84908 0.0
C1412 C 0.34964 0.62712 0.81923 0.0
H1413 H 0.66274 0.08133 0.09419 0.0
H1414 H 0.57656 0.11314 0.05796 0.0
H1415 H 0.59041 0.09226 1.00728 0.0
H1416 H 0.70727 0.10073 0.03385 0.0
H1417 H 0.73193 0.06763 0.03523 0.0
H1418 H 0.71341 0.08091 0.06918 0.0
H1419 H 0.68933 0.02764 0.07692 0.0
H1420 H 0.70826 0.01406 0.04311 0.0
H1421 H 0.66755 0.01054 0.04656 0.0
H1422 H 0.61679 0.07244 0.95914 0.0
H1423 H 0.65221 0.05469 0.91896 0.0
H1424 H 0.72102 0.03701 0.98766 0.0
C1425 C 0.64654 0.08341 0.07571 0.0
C1426 C 0.61863 0.09891 0.07993 0.0
C1427 C 0.59796 0.10111 0.05525 0.0
C1428 C 0.6057 0.0894 0.0264 0.0
C1429 C 0.63396 0.07514 0.02279 0.0
C1430 C 0.65379 0.07169 0.047 0.0
C1431 C 0.68339 0.05704 0.03712 0.0
C1432 C 0.71062 0.07785 0.04424 0.0
C1433 C 0.68735 0.02544 0.0518 0.0
C1434 C 0.67791 0.05422 1.00326 0.0
C1435 C 0.64906 0.06416 0.9954 0.0
C1436 C 0.63929 0.06432 0.96516 0.0
C1437 C 0.65956 0.05422 0.94248 0.0
C1438 C 0.68938 0.04449 0.95013 0.0
C1439 C 0.69838 0.04428 0.98101 0.0
H1440 H 0.65898 0.10443 0.68338 0.0
H1441 H 0.66934 0.19873 0.7117 0.0
H1442 H 0.6993 0.18192 0.75641 0.0
H1443 H 0.64675 0.07084 0.75321 0.0
H1444 H 0.66921 0.03764 0.74314 0.0
H1445 H 0.65168 0.0597 0.71391 0.0
H1446 H 0.7067 0.06227 0.69066 0.0
H1447 H 0.72256 0.04256 0.72302 0.0
H1448 H 0.7368 0.07963 0.71257 0.0
H1449 H 0.72466 0.15428 0.80003 0.0
H1450 H 0.74042 0.11853 0.84045 0.0
H1451 H 0.70944 0.04213 0.78571 0.0
C1452 C 0.66793 0.1215 0.69884 0.0
C1453 C 0.66169 0.1528 0.69434 0.0
C1454 C 0.67403 0.17462 0.71472 0.0
C1455 C 0.6911 0.16528 0.74011 0.0
C1456 C 0.69607 0.13409 0.74441 0.0
C1457 C 0.68519 0.11258 0.72408 0.0
C1458 C 0.69206 0.08048 0.73477 0.0
C1459 C 0.66307 0.06114 0.73644 0.0
C1460 C 0.71595 0.06535 0.71401 0.0
C1461 C 0.70535 0.08708 0.76593 0.0
C1462 C 0.70899 0.11817 0.77032 0.0
C1463 C 0.72166 0.12993 0.79694 0.0
C1464 C 0.73025 0.10946 0.81991 0.0
C1465 C 0.72481 0.07775 0.81672 0.0
C1466 C 0.71277 0.06639 0.78912 0.0
H1467 H 0.19979 0.50473 0.03621 0.0
H1468 H 0.18801 0.42047 0.08639 0.0
H1469 H 0.1635 0.39686 0.04167 0.0
H1470 H 0.12578 0.49894 0.9927 0.0
H1471 H 0.14311 0.51631 0.96006 0.0
H1472 H 0.15631 0.526 0.99773 0.0
H1473 H 0.2111 0.51047 0.97959 0.0
H1474 H 0.19653 0.49912 0.94298 0.0
H1475 H 0.21754 0.47215 0.9658 0.0
H1476 H 0.14395 0.38107 0.99039 0.0
H1477 H 0.12824 0.37495 0.93691 0.0
H1478 H 0.14975 0.47029 0.9203 0.0
C1479 C 0.19149 0.48153 0.03789 0.0
C1480 C 0.19623 0.46423 0.06458 0.0
C1481 C 0.18507 0.43395 0.06597 0.0
C1482 C 0.17096 0.42038 0.04074 0.0
C1483 C 0.16751 0.43764 0.01441 0.0
C1484 C 0.17692 0.46772 0.01294 0.0
C1485 C 0.171 0.48088 0.98158 0.0
C1486 C 0.14769 0.50711 0.98315 0.0
C1487 C 0.20083 0.49126 0.96661 0.0
C1488 C 0.15771 0.45325 0.96547 0.0
C1489 C 0.15571 0.42862 0.9849 0.0
C1490 C 0.14495 0.40035 0.97507 0.0
C1491 C 0.13588 0.39716 0.94459 0.0
C1492 C 0.13751 0.42213 0.92412 0.0
C1493 C 0.14846 0.45058 0.93503 0.0
H1494 H 0.82372 0.9696 0.29157 0.0
H1495 H 0.76839 0.89894 0.33183 0.0
H1496 H 0.78377 0.86355 0.29073 0.0
H1497 H 0.80754 0.95062 0.21365 0.0
H1498 H 0.84536 0.9599 0.20091 0.0
H1499 H 0.82933 0.97936 0.23332 0.0
H1500 H 0.87577 0.96205 0.26726 0.0
H1501 H 0.8917 0.94455 0.23378 0.0
H1502 H 0.88603 0.9223 0.26774 0.0
H1503 H 0.80802 0.83508 0.24545 0.0
H1504 H 0.83869 0.81688 0.20172 0.0
H1505 H 0.87606 0.90785 0.19121 0.0
C1506 C 0.81524 0.94679 0.29231 0.0
C1507 C 0.79565 0.93723 0.31573 0.0
C1508 C 0.78399 0.90698 0.3146 0.0
C1509 C 0.79245 0.88667 0.29118 0.0
C1510 C 0.81215 0.89704 0.26864 0.0
C1511 C 0.82322 0.92652 0.26904 0.0
C1512 C 0.84413 0.9324 0.24245 0.0
C1513 C 0.8308 0.95703 0.22134 0.0
C1514 C 0.8763 0.94084 0.25344 0.0
C1515 C 0.8439 0.90136 0.22735 0.0
C1516 C 0.82518 0.88122 0.24254 0.0
C1517 C 0.82253 0.8508 0.2333 0.0
C1518 C 0.83996 0.84069 0.20836 0.0
C1519 C 0.85996 0.86088 0.19311 0.0
C1520 C 0.86129 0.89173 0.20252 0.0
H1521 H 0.3143 0.59693 0.56314 0.0
H1522 H 0.33558 0.50017 0.55504 0.0
H1523 H 0.36259 0.5099 0.50744 0.0
H1524 H 0.29776 0.60865 0.48367 0.0
H1525 H 0.31414 0.64625 0.48286 0.0
H1526 H 0.29879 0.63185 0.51787 0.0
H1527 H 0.35095 0.64229 0.54367 0.0
H1528 H 0.36623 0.65557 0.50806 0.0
H1529 H 0.38483 0.62491 0.52818 0.0
H1530 H 0.38506 0.52871 0.45896 0.0
H1531 H 0.39771 0.55542 0.41103 0.0
H1532 H 0.35871 0.63901 0.44703 0.0
C1533 C 0.32414 0.5777 0.55118 0.0
C1534 C 0.32198 0.54763 0.56294 0.0
C1535 C 0.33655 0.52346 0.54686 0.0
C1536 C 0.35211 0.5287 0.51961 0.0
C1537 C 0.35307 0.55829 0.50828 0.0
C1538 C 0.33934 0.58243 0.52334 0.0
C1539 C 0.34259 0.61172 0.50507 0.0
C1540 C 0.31141 0.62539 0.49692 0.0
C1541 C 0.36233 0.635 0.52228 0.0
C1542 C 0.35883 0.59982 0.4769 0.0
C1543 C 0.3655 0.5691 0.4797 0.0
C1544 C 0.38003 0.5528 0.45653 0.0
C1545 C 0.38719 0.5681 0.42944 0.0
C1546 C 0.37921 0.59914 0.42549 0.0
C1547 C 0.36521 0.61528 0.44968 0.0
H1548 H 0.23714 0.22722 0.47926 0.0
H1549 H 0.17274 0.20733 0.40704 0.0
H1550 H 0.21492 0.18786 0.37496 0.0
H1551 H 0.29948 0.25156 0.42824 0.0
H1552 H 0.32838 0.23539 0.45254 0.0
H1553 H 0.29349 0.24978 0.46876 0.0
H1554 H 0.28358 0.19728 0.49405 0.0
H1555 H 0.31886 0.18355 0.47861 0.0
H1556 H 0.28425 0.16317 0.47066 0.0
H1557 H 0.26399 0.16528 0.35317 0.0
H1558 H 0.31464 0.1419 0.34423 0.0
H1559 H 0.3467 0.17992 0.4296 0.0
C1560 C 0.23192 0.21913 0.45654 0.0
C1561 C 0.20165 0.21876 0.44562 0.0
C1562 C 0.19578 0.20799 0.41578 0.0
C1563 C 0.21961 0.19691 0.39742 0.0
C1564 C 0.24921 0.19733 0.40901 0.0
C1565 C 0.25541 0.20851 0.43781 0.0
C1566 C 0.28894 0.20579 0.44537 0.0
C1567 C 0.30343 0.23752 0.44892 0.0
C1568 C 0.29415 0.18627 0.4739 0.0
C1569 C 0.30039 0.1897 0.41713 0.0
C1570 C 0.27735 0.18537 0.39614 0.0
C1571 C 0.28227 0.16895 0.36929 0.0
C1572 C 0.31115 0.15583 0.36432 0.0
C1573 C 0.33459 0.15893 0.38628 0.0
C1574 C 0.32922 0.17698 0.41244 0.0
H1575 H 0.06722 0.0961 0.67103 0.0
H1576 H 0.12117 0.06726 0.5936 0.0
H1577 H 0.10316 0.01408 0.60062 0.0
H1578 H 0.08645 0.03666 0.71577 0.0
H1579 H 0.05028 0.03245 0.73471 0.0
H1580 H 0.06136 0.06898 0.71996 0.0
H1581 H 0.01281 0.07224 0.68703 0.0
H1582 H 1.00049 0.03619 0.70235 0.0
H1583 H 1.00327 0.04117 0.66176 0.0
H1584 H 0.08403 0.96249 0.62108 0.0
H1585 H 0.06643 0.91901 0.65282 0.0
H1586 H 0.02789 0.98328 0.71743 0.0
C1587 C 0.07475 0.07874 0.65509 0.0
C1588 C 0.09563 0.08576 0.63183 0.0
C1589 C 0.1049 0.06243 0.61141 0.0
C1590 C 0.09485 0.03216 0.6153 0.0
C1591 C 0.07535 0.02578 0.63951 0.0
C1592 C 0.0652 0.04865 0.65882 0.0
C1593 C 0.04716 0.03594 0.68505 0.0
C1594 C 0.06221 0.04396 0.71569 0.0
C1595 C 0.01396 0.04705 0.68396 0.0
C1596 C 0.04945 1.00222 0.67814 0.0
C1597 C 0.06525 0.99658 0.65155 0.0
C1598 C 0.07124 0.96674 0.64168 0.0
C1599 C 0.06112 0.9422 0.6597 0.0
C1600 C 0.04576 0.94788 0.68739 0.0
C1601 C 0.03951 0.97825 0.69626 0.0
H1602 H 0.20137 0.88157 0.87904 0.0
H1603 H 0.14427 0.80177 0.8883 0.0
H1604 H 0.18923 0.77105 0.90329 0.0
H1605 H 0.27356 0.83647 0.85267 0.0
H1606 H 0.29733 0.86322 0.87292 0.0
H1607 H 0.26233 0.876 0.85556 0.0
H1608 H 0.2487 0.89874 0.90626 0.0
H1609 H 0.27912 0.88223 0.92821 0.0
H1610 H 0.23974 0.87452 0.93768 0.0
H1611 H 0.23809 0.75139 0.92439 0.0
H1612 H 0.28802 0.7431 0.94866 0.0
H1613 H 0.31414 0.83595 0.92661 0.0
C1614 C 0.19879 0.85725 0.88271 0.0
C1615 C 0.16969 0.84369 0.88197 0.0
C1616 C 0.1666 0.81221 0.88811 0.0
C1617 C 0.19198 0.79468 0.89668 0.0
C1618 C 0.22028 0.80897 0.89845 0.0
C1619 C 0.22404 0.83935 0.89076 0.0
C1620 C 0.25623 0.84994 0.89755 0.0
C1621 C 0.27337 0.8568 0.86791 0.0
C1622 C 0.25605 0.87795 0.91876 0.0
C1623 C 0.26915 0.8216 0.91274 0.0
C1624 C 0.24833 0.79796 0.91198 0.0
C1625 C 0.25473 0.76957 0.92471 0.0
C1626 C 0.28317 0.76508 0.93844 0.0
C1627 C 0.30483 0.78894 0.93976 0.0
C1628 C 0.29781 0.81747 0.92638 0.0
H1629 H 0.47284 0.03092 0.21885 0.0
H1630 H 0.4654 0.10154 0.15015 0.0
H1631 H 0.45077 0.06222 0.1121 0.0
H1632 H 0.50166 0.9695 0.16772 0.0
H1633 H 0.4803 0.94079 0.18773 0.0
H1634 H 0.49437 0.97382 0.20786 0.0
H1635 H 0.44012 0.98557 0.2262 0.0
H1636 H 0.42534 0.9532 0.20603 0.0
H1637 H 0.4098 0.99061 0.19874 0.0
H1638 H 0.43075 0.01537 0.0835 0.0
H1639 H 0.40625 0.96667 0.06812 0.0
H1640 H 0.42767 0.92813 0.15622 0.0
C1641 C 0.46871 0.0382 0.19568 0.0
C1642 C 0.47018 0.06932 0.18743 0.0
C1643 C 0.46448 0.07779 0.1569 0.0
C1644 C 0.45625 0.0556 0.13517 0.0
C1645 C 0.45431 0.02512 0.14432 0.0
C1646 C 0.46068 0.01649 0.17387 0.0
C1647 C 0.45482 0.98288 0.17887 0.0
C1648 C 0.48457 0.96574 0.18595 0.0
C1649 C 0.43105 0.97781 0.20395 0.0
C1650 C 0.44253 0.97414 0.14804 0.0
C1651 C 0.44298 0.9985 0.12808 0.0
C1652 C 0.43072 0.99609 0.09885 0.0
C1653 C 0.41692 0.96839 0.09028 0.0
C1654 C 0.4151 0.94385 0.11111 0.0
C1655 C 0.42883 0.9466 0.13993 0.0
H1656 H 0.82178 0.30782 0.6647 0.0
H1657 H 0.81621 0.40598 0.65374 0.0
H1658 H 0.77652 0.39931 0.61448 0.0
H1659 H 0.80574 0.28898 0.58013 0.0
H1660 H 0.78454 0.25543 0.59059 0.0
H1661 H 0.81637 0.2676 0.61351 0.0
H1662 H 0.78123 0.26847 0.66073 0.0
H1663 H 0.7491 0.25738 0.63785 0.0
H1664 H 0.74738 0.29188 0.66029 0.0
H1665 H 0.72807 0.38313 0.59146 0.0
H1666 H 0.6835 0.35776 0.56949 0.0
H1667 H 0.72512 0.26931 0.58446 0.0
C1668 C 0.81339 0.32768 0.65264 0.0
C1669 C 0.82225 0.35743 0.66166 0.0
C1670 C 0.81011 0.3831 0.64651 0.0
C1671 C 0.78738 0.37951 0.62447 0.0
C1672 C 0.77774 0.35002 0.61738 0.0
C1673 C 0.79124 0.32439 0.62985 0.0
C1674 C 0.77532 0.29545 0.61912 0.0
C1675 C 0.79677 0.2757 0.59967 0.0
C1676 C 0.76251 0.27724 0.64611 0.0
C1677 C 0.74989 0.30903 0.60002 0.0
C1678 C 0.75149 0.34058 0.60002 0.0
C1679 C 0.72775 0.35851 0.58918 0.0
C1680 C 0.70261 0.34389 0.57635 0.0
C1681 C 0.70207 0.31183 0.57243 0.0
C1682 C 0.72566 0.29403 0.58542 0.0
H1683 H 0.94587 0.44619 0.84915 0.0
H1684 H 0.02054 0.47306 0.79086 0.0
H1685 H 0.01256 0.52709 0.80551 0.0
H1686 H 0.8962 0.50946 0.83691 0.0
H1687 H 0.88438 0.5116 0.87596 0.0
H1688 H 0.89722 0.47575 0.86038 0.0
H1689 H 0.93658 0.4731 0.90486 0.0
H1690 H 0.92428 0.50996 0.91869 0.0
H1691 H 0.96374 0.50356 0.90947 0.0
H1692 H 0.99419 0.57812 0.82305 0.0
H1693 H 0.966 0.62332 0.84172 0.0
H1694 H 0.90421 0.56445 0.89082 0.0
C1695 C 0.96067 0.46354 0.83984 0.0
C1696 C 0.9839 0.45562 0.81897 0.0
C1697 C 1.00291 0.47872 0.80715 0.0
C1698 C 0.99849 0.50943 0.81531 0.0
C1699 C 0.97542 0.51661 0.83592 0.0
C1700 C 0.95695 0.49437 0.84826 0.0
C1701 C 0.93376 0.50848 0.86983 0.0
C1702 C 0.90098 0.50084 0.86015 0.0
C1703 C 0.93996 0.49816 0.90266 0.0
C1704 C 0.94072 0.54227 0.86602 0.0
C1705 C 0.96531 0.54628 0.84684 0.0
C1706 C 0.97528 0.57527 0.83852 0.0
C1707 C 0.95926 0.60082 0.84935 0.0
C1708 C 0.93347 0.59738 0.86825 0.0
C1709 C 0.92445 0.56771 0.87719 0.0
H1710 H 0.79533 0.74367 0.08434 0.0
H1711 H 0.83099 0.65496 0.0587 0.0
H1712 H 0.78548 0.63018 0.07913 0.0
H1713 H 0.77319 0.71374 0.15801 0.0
H1714 H 0.74111 0.73917 0.16213 0.0
H1715 H 0.77355 0.75071 0.14005 0.0
H1716 H 0.73803 0.7608 0.09409 0.0
H1717 H 0.70555 0.74857 0.11586 0.0
H1718 H 0.71411 0.73049 0.07995 0.0
H1719 H 0.7364 0.61473 0.10097 0.0
H1720 H 0.69544 0.60658 0.1384 0.0
H1721 H 0.69574 0.70315 0.16033 0.0
C1722 C 0.79332 0.71906 0.08272 0.0
C1723 C 0.81538 0.70134 0.06706 0.0
C1724 C 0.81296 0.66915 0.06756 0.0
C1725 C 0.78732 0.65483 0.07957 0.0
C1726 C 0.76507 0.6729 0.09308 0.0
C1727 C 0.76856 0.70411 0.09638 0.0
C1728 C 0.74427 0.71708 0.1174 0.0
C1729 C 0.7589 0.73098 0.1461 0.0
C1730 C 0.72431 0.74063 0.10082 0.0
C1731 C 0.72644 0.68827 0.1248 0.0
C1732 C 0.73842 0.66333 0.1096 0.0
C1733 C 0.72674 0.634 0.11309 0.0
C1734 C 0.70329 0.6296 0.13408 0.0
C1735 C 0.69216 0.65428 0.15161 0.0
C1736 C 0.70327 0.68414 0.14639 0.0
H1737 H 0.60741 0.42896 0.33772 0.0
H1738 H 0.54869 0.42026 0.41631 0.0
H1739 H 0.52807 0.4722 0.40682 0.0
H1740 H 0.62413 0.50941 0.34954 0.0
H1741 H 0.62502 0.51792 0.30957 0.0
H1742 H 0.6356 0.48042 0.32265 0.0
H1743 H 0.59553 0.45586 0.28736 0.0
H1744 H 0.58422 0.49287 0.27363 0.0
H1745 H 0.55629 0.4678 0.28992 0.0
H1746 H 0.51183 0.52458 0.38617 0.0
H1747 H 0.50335 0.57271 0.35792 0.0
H1748 H 0.57274 0.54568 0.29354 0.0
C1749 C 0.59016 0.43797 0.35288 0.0
C1750 C 0.57939 0.42054 0.37755 0.0
C1751 C 0.55723 0.43331 0.39727 0.0
C1752 C 0.54539 0.46274 0.39203 0.0
C1753 C 0.55631 0.47925 0.36725 0.0
C1754 C 0.57842 0.46734 0.34822 0.0
C1755 C 0.58651 0.48955 0.32328 0.0
C1756 C 0.61979 0.49992 0.32645 0.0
C1757 C 0.58026 0.47569 0.29169 0.0
C1758 C 0.56473 0.51541 0.33047 0.0
C1759 C 0.54765 0.5093 0.35605 0.0
C1760 C 0.52541 0.52968 0.36632 0.0
C1761 C 0.52069 0.55695 0.35004 0.0
C1762 C 0.53809 0.56365 0.32373 0.0
C1763 C 0.56017 0.54232 0.31404 0.0
H1764 H 0.38807 0.30937 0.13344 0.0
H1765 H 0.38512 0.3652 0.21481 0.0
H1766 H 0.40051 0.32039 0.2457 0.0
H1767 H 0.36158 0.23561 0.17202 0.0
H1768 H 0.38598 0.21321 0.14763 0.0
H1769 H 0.36906 0.24807 0.13373 0.0
H1770 H 0.42199 0.2653 0.11887 0.0
H1771 H 0.44182 0.23376 0.13615 0.0
H1772 H 0.45007 0.2726 0.14761 0.0
H1773 H 0.42235 0.27124 0.2664 0.0
H1774 H 0.44683 0.22123 0.2759 0.0
H1775 H 0.4355 0.19715 0.18082 0.0
C1776 C 0.38942 0.31171 0.15794 0.0
C1777 C 0.38495 0.34045 0.17196 0.0
C1778 C 0.38783 0.34315 0.20388 0.0
C1779 C 0.39668 0.31786 0.2215 0.0
C1780 C 0.40202 0.29 0.20684 0.0
C1781 C 0.39773 0.28659 0.17585 0.0
C1782 C 0.40709 0.2549 0.16527 0.0
C1783 C 0.37927 0.23688 0.154 0.0
C1784 C 0.43175 0.25667 0.14055 0.0
C1785 C 0.41924 0.24165 0.19474 0.0
C1786 C 0.4154 0.26199 0.21858 0.0
C1787 C 0.42513 0.25504 0.24796 0.0
C1788 C 0.439 0.22658 0.25315 0.0
C1789 C 0.44342 0.20549 0.22906 0.0
C1790 C 0.43302 0.21307 0.19956 0.0
H1791 H 0.93964 0.31463 0.84161 0.0
H1792 H 0.94123 0.29551 0.74469 0.0
H1793 H 0.91283 0.24782 0.75339 0.0
H1794 H 0.95218 0.24246 0.86714 0.0
H1795 H 0.92571 0.24131 0.89844 0.0
H1796 H 0.9408 0.27715 0.88669 0.0
H1797 H 0.88968 0.30148 0.87697 0.0
H1798 H 0.87216 0.26715 0.89114 0.0
H1799 H 0.86184 0.28166 0.85418 0.0
H1800 H 0.88903 0.19903 0.77328 0.0
H1801 H 0.87437 0.15339 0.8032 0.0
H1802 H 0.88703 0.20459 0.88653 0.0
C1803 C 0.93387 0.30054 0.82219 0.0
C1804 C 0.94294 0.30887 0.79245 0.0
C1805 C 0.93458 0.28979 0.76769 0.0
C1806 C 0.9183 0.26262 0.77237 0.0
C1807 C 0.90993 0.25492 0.80193 0.0
C1808 C 0.91721 0.27347 0.82642 0.0
C1809 C 0.90653 0.25927 0.85599 0.0
C1810 C 0.93298 0.25468 0.87832 0.0
C1811 C 0.88103 0.27854 0.87042 0.0
C1812 C 0.89441 0.22898 0.84461 0.0
C1813 C 0.89567 0.22717 0.81326 0.0
C1814 C 0.8875 0.20046 0.7978 0.0
C1815 C 0.87902 0.17468 0.81491 0.0
C1816 C 0.8792 0.17576 0.84706 0.0
C1817 C 0.88614 0.2035 0.86193 0.0
H1818 H 0.07407 0.60538 0.03658 0.0
H1819 H 0.05889 0.59142 0.13308 0.0
H1820 H 0.014 0.62539 0.13076 0.0
H1821 H 0.04852 0.68623 0.03518 0.0
H1822 H 0.03114 0.68228 0.99821 0.0
H1823 H 0.06389 0.6594 1.00801 0.0
H1824 H 0.0338 0.61027 0.99507 0.0
H1825 H 1.00085 0.63283 0.98546 0.0
H1826 H 0.998 0.60323 0.01374 0.0
H1827 H 0.96748 0.65515 0.11683 0.0
H1828 H 0.92532 0.68402 0.09376 0.0
H1829 H 0.97056 0.68033 1.0061 0.0
C1830 C 0.06151 0.60975 0.05732 0.0
C1831 C 0.07002 0.59558 0.08504 0.0
C1832 C 0.05312 0.6022 0.11168 0.0
C1833 C 0.02742 0.62131 0.11053 0.0
C1834 C 0.01906 0.63391 0.08263 0.0
C1835 C 0.03587 0.62889 0.0566 0.0
C1836 C 0.02143 0.6446 0.02935 0.0
C1837 C 0.0425 0.66962 0.01696 0.0
C1838 C 0.01303 0.62134 1.00444 0.0
C1839 C 0.99321 0.65828 0.04391 0.0
C1840 C 0.99246 0.65189 0.0747 0.0
C1841 C 0.96813 0.66079 0.09289 0.0
C1842 C 0.94423 0.67715 0.07949 0.0
C1843 C 0.94479 0.68492 0.04818 0.0
C1844 C 0.96951 0.67493 0.03009 0.0
H1845 H 0.60806 0.84921 0.29402 0.0
H1846 H 0.64416 0.83072 0.38431 0.0
H1847 H 0.63124 0.77634 0.37777 0.0
H1848 H 0.5434 0.80168 0.30275 0.0
H1849 H 0.54236 0.78913 0.26368 0.0
H1850 H 0.55767 0.82609 0.27318 0.0
H1851 H 0.60854 0.81281 0.24693 0.0
H1852 H 0.59361 0.77593 0.23644 0.0
H1853 H 0.62871 0.77853 0.25757 0.0
H1854 H 0.61292 0.7235 0.36172 0.0
H1855 H 0.58757 0.6783 0.33947 0.0
H1856 H 0.55885 0.73236 0.2621 0.0
C1857 C 0.61314 0.83411 0.31277 0.0
C1858 C 0.62733 0.84501 0.3398 0.0
C1859 C 0.63398 0.82349 0.36307 0.0
C1860 C 0.62646 0.79237 0.35968 0.0
C1861 C 0.61197 0.78284 0.33301 0.0
C1862 C 0.60516 0.80319 0.31009 0.0
C1863 C 0.58772 0.78768 0.2845 0.0
C1864 C 0.5559 0.80198 0.28081 0.0
C1865 C 0.60573 0.78881 0.25459 0.0
C1866 C 0.58577 0.7553 0.2965 0.0
C1867 C 0.60025 0.75291 0.32438 0.0
C1868 C 0.60151 0.72526 0.33996 0.0
C1869 C 0.58701 0.69969 0.32714 0.0
C1870 C 0.571 0.70186 0.29923 0.0
C1871 C 0.57099 0.72995 0.28342 0.0
H1872 H 0.54527 0.32906 0.51235 0.0
H1873 H 0.58824 0.32661 0.60128 0.0
H1874 H 0.54249 0.34996 0.62405 0.0
H1875 H 0.50555 0.40301 0.52483 0.0
H1876 H 0.47248 0.39122 0.50358 0.0
H1877 H 0.50946 0.37618 0.49388 0.0
H1878 H 0.48894 0.3211 0.50006 0.0
H1879 H 0.45202 0.33588 0.51011 0.0
H1880 H 0.47154 0.31011 0.53548 0.0
H1881 H 0.49097 0.37038 0.63788 0.0
H1882 H 0.43766 0.38808 0.64141 0.0
H1883 H 0.42816 0.37858 0.54355 0.0
C1884 C 0.54527 0.33401 0.5365 0.0
C1885 C 0.57027 0.32576 0.55507 0.0
C1886 C 0.56929 0.33251 0.58662 0.0
C1887 C 0.5434 0.34579 0.59979 0.0
C1888 C 0.5188 0.3528 0.58106 0.0
C1889 C 0.51961 0.34753 0.55005 0.0
C1890 C 0.48976 0.35671 0.53523 0.0
C1891 C 0.49461 0.38336 0.51306 0.0
C1892 C 0.47468 0.32931 0.51929 0.0
C1893 C 0.47175 0.36691 0.56289 0.0
C1894 C 0.48907 0.3648 0.58905 0.0
C1895 C 0.47728 0.37246 0.6175 0.0
C1896 C 0.447 0.3826 0.61927 0.0
C1897 C 0.42869 0.38481 0.59278 0.0
C1898 C 0.44144 0.37692 0.56425 0.0
H1899 H 0.14094 0.72979 0.61895 0.0
H1900 H 0.17343 0.68034 0.69827 0.0
H1901 H 0.14205 0.71349 0.73117 0.0
H1902 H 0.14608 0.80307 0.65296 0.0
H1903 H 0.11299 0.81786 0.63359 0.0
H1904 H 0.1353 0.78796 0.6163 0.0
H1905 H 0.08703 0.75471 0.61161 0.0
H1906 H 0.0643 0.78388 0.62968 0.0
H1907 H 0.06538 0.74576 0.64515 0.0
H1908 H 0.10883 0.75456 0.75583 0.0
H1909 H 0.0773 0.7995 0.76953 0.0
H1910 H 0.07207 0.82457 0.67426 0.0
C1911 C 0.14178 0.72583 0.64322 0.0
C1912 C 0.1599 0.70222 0.65575 0.0
C1913 C 0.15944 0.69775 0.68775 0.0
C1914 C 0.14183 0.71669 0.70677 0.0
C1915 C 0.12497 0.74021 0.69356 0.0
C1916 C 0.12496 0.74484 0.6625 0.0
C1917 C 0.10645 0.77271 0.65394 0.0
C1918 C 0.1264 0.79682 0.63828 0.0
C1919 C 0.07916 0.76374 0.63391 0.0
C1920 C 0.09628 0.78333 0.68505 0.0
C1921 C 0.10681 0.76413 0.70766 0.0
C1922 C 0.10038 0.76964 0.73826 0.0
C1923 C 0.0826 0.7953 0.74583 0.0
C1924 C 0.07169 0.81527 0.72292 0.0
C1925 C 0.07911 0.80927 0.69225 0.0
H1926 H 0.47654 0.79313 0.9574 0.0
H1927 H 0.41269 0.86868 0.96415 0.0
H1928 H 0.45438 0.90479 0.95213 0.0
H1929 H 0.54271 0.83349 0.98946 0.0
H1930 H 0.56862 0.81427 0.96398 0.0
H1931 H 0.53442 0.79536 0.97628 0.0
H1932 H 0.52023 0.78656 0.921 0.0
H1933 H 0.55281 0.80649 0.90693 0.0
H1934 H 0.51515 0.81821 0.89523 0.0
H1935 H 0.50355 0.93213 0.93513 0.0
H1936 H 0.55325 0.94675 0.9126 0.0
H1937 H 0.58316 0.85253 0.91764 0.0
C1938 C 0.47116 0.81727 0.95664 0.0
C1939 C 0.44119 0.82801 0.96152 0.0
C1940 C 0.43542 0.85986 0.96034 0.0
C1941 C 0.45902 0.88055 0.9537 0.0
C1942 C 0.48827 0.86903 0.94859 0.0
C1943 C 0.49429 0.83806 0.95018 0.0
C1944 C 0.527 0.83096 0.94212 0.0
C1945 C 0.5442 0.81775 0.96961 0.0
C1946 C 0.52888 0.80935 0.91458 0.0
C1947 C 0.53826 0.86251 0.93439 0.0
C1948 C 0.51596 0.88442 0.93882 0.0
C1949 C 0.52115 0.9151 0.93183 0.0
C1950 C 0.54944 0.92324 0.91917 0.0
C1951 C 0.57187 0.90068 0.91325 0.0
C1952 C 0.56634 0.87019 0.9218 0.0
H1953 H 0.94517 0.10386 0.47548 0.0
H1954 H 0.94496 0.11107 0.3772 0.0
H1955 H 0.98915 0.14606 0.3799 0.0
H1956 H 0.96659 0.18481 0.4898 0.0
H1957 H 0.98937 0.17505 0.52252 0.0
H1958 H 0.95674 0.15218 0.51266 0.0
H1959 H 0.9911 0.10396 0.51122 0.0
H1960 H 0.02389 0.12674 0.52056 0.0
H1961 H 0.02398 0.10335 0.48674 0.0
H1962 H 0.0378 0.17345 0.39313 0.0
H1963 H 0.08183 0.19967 0.41586 0.0
H1964 H 0.0472 0.18028 0.50614 0.0
C1965 C 0.95411 0.11337 0.45461 0.0
C1966 C 0.94174 0.10488 0.42609 0.0
C1967 C 0.95399 0.11757 0.39922 0.0
C1968 C 0.97918 0.13725 0.40057 0.0
C1969 C 0.99142 0.14447 0.42901 0.0
C1970 C 0.9788 0.1336 0.45561 0.0
C1971 C 0.99628 0.14498 0.48322 0.0
C1972 C 0.97604 0.16548 0.50323 0.0
C1973 C 0.0096 0.11815 0.5015 0.0
C1974 C 0.02121 0.16329 0.46798 0.0
C1975 C 0.01814 0.16235 0.43669 0.0
C1976 C 0.03977 0.17531 0.41761 0.0
C1977 C 0.06465 0.19038 0.4308 0.0
C1978 C 0.06729 0.1935 0.46282 0.0
C1979 C 0.04547 0.17914 0.48159 0.0
loop_
_geom_bond_atom_site_label_1
_geom_bond_atom_site_label_2
_geom_bond_distance
_geom_bond_site_symmetry_2
_ccdc_geom_bond_type
Eu0 N29 2.600 . S
Eu0 N35 2.562 . S
Eu0 O44 2.462 . S
Eu0 O45 2.373 . S
Eu0 O47 2.432 . S
Eu0 O48 2.291 . S
Eu0 O52 2.335 . S
Eu0 O55 2.372 . S
Eu0 C64 2.787 . S
C1 N2 1.365 . S
C1 C4 1.405 . S
C1 C8 1.448 . S
N2 C1 1.365 . S
N2 C5 1.319 . S
N2 Eu11 2.600 . S
C3 C5 1.405 . S
C3 C6 1.363 1_455 S
C3 H23 0.926 1_455 S
C4 C1 1.405 . S
C4 C6 1.403 1_455 S
C4 C10 1.439 1_455 S
C5 N2 1.319 . S
C5 C3 1.405 . S
C5 H16 0.930 . S
C6 C3 1.363 1_655 S
C6 C4 1.403 1_655 S
C6 H27 0.929 . S
C7 C8 1.430 . S
C7 C9 1.387 . S
C7 C13 1.404 . S
C8 C1 1.448 . S
C8 C7 1.430 . S
C8 N12 1.351 . S
C9 C7 1.387 . S
C9 C10 1.374 1_455 S
C9 H24 0.916 1_455 S
C10 C4 1.439 1_655 S
C10 C9 1.374 1_655 S
C10 H25 0.931 . S
Eu11 N2 2.600 . S
Eu11 N12 2.562 . S
Eu11 O46 2.335 . S
Eu11 O49 2.372 . S
Eu11 O50 2.462 . S
Eu11 O51 2.373 . S
Eu11 O53 2.432 . S
Eu11 O54 2.291 . S
Eu11 C75 2.787 . S
N12 C8 1.351 . S
N12 Eu11 2.562 . S
N12 C14 1.325 . S
C13 C7 1.404 . S
C13 C15 1.366 . S
C13 H21 0.930 . S
C14 N12 1.325 . S
C14 C15 1.416 . S
C14 H20 0.929 . S
C15 C13 1.366 . S
C15 C14 1.416 . S
C15 H17 0.930 . S
H16 C5 0.930 . S
H17 C15 0.930 . S
H18 C33 0.930 . S
H19 C40 0.930 . S
H20 C14 0.929 . S
H21 C13 0.930 . S
H22 C36 0.929 . S
H23 C3 0.926 1_655 S
H24 C9 0.916 1_655 S
H25 C10 0.931 . S
H26 C31 0.931 . S
H27 C6 0.929 . S
H28 C39 0.930 . S
N29 Eu0 2.600 . S
N29 C30 1.365 . S
N29 C33 1.319 . S
C30 N29 1.365 . S
C30 C32 1.405 . S
C30 C38 1.448 . S
C31 H26 0.931 . S
C31 C33 1.397 . S
C31 C34 1.367 . S
C32 C30 1.405 . S
C32 C34 1.403 . S
C32 C65 1.439 . S
C33 H18 0.930 . S
C33 N29 1.319 . S
C33 C31 1.397 . S
C34 C31 1.367 . S
C34 C32 1.403 . S
C34 H41 0.929 . S
N35 Eu0 2.562 . S
N35 C36 1.325 . S
N35 C38 1.351 . S
C36 H22 0.929 . S
C36 N35 1.325 . S
C36 C40 1.416 . S
C37 C38 1.430 . S
C37 C39 1.404 . S
C37 C66 1.387 . S
C38 C30 1.448 . S
C38 N35 1.351 . S
C38 C37 1.430 . S
C39 H28 0.930 . S
C39 C37 1.404 . S
C39 C40 1.366 . S
C40 H19 0.930 . S
C40 C36 1.416 . S
C40 C39 1.366 . S
H41 C34 0.929 . S
H42 C65 0.931 . S
H43 C66 0.931 . S
O44 Eu0 2.462 . S
O44 C64 1.252 . S
O45 Eu0 2.373 . S
O45 C56 1.249 . S
O46 Eu11 2.335 . S
O46 C56 1.264 . S
O47 Eu0 2.432 . S
O47 C64 1.268 . S
O48 Eu0 2.291 . S
O48 C63 1.255 . S
O49 Eu11 2.372 . S
O49 C63 1.257 . S
O50 Eu11 2.462 . S
O50 C75 1.252 . S
O51 Eu11 2.373 . S
O51 C67 1.249 . S
O52 Eu0 2.335 . S
O52 C67 1.264 . S
O53 Eu11 2.432 . S
O53 C75 1.268 . S
O54 Eu11 2.291 . S
O54 C74 1.255 . S
O55 Eu0 2.372 . S
O55 C74 1.257 . S
C56 O45 1.249 . S
C56 O46 1.264 . S
C57 C60 1.382 . S
C57 C62 1.390 . S
C57 C64 1.506 . S
C58 C59 1.398 . S
C58 C62 1.392 . S
C59 C58 1.398 . S
C59 C61 1.372 . S
C59 H76 0.931 . S
C60 C57 1.382 . S
C60 C61 1.390 . S
C60 H77 0.931 . S
C61 C59 1.372 . S
C61 C60 1.390 . S
C61 H78 0.929 . S
C62 C57 1.390 . S
C62 C58 1.392 . S
C62 H79 0.930 . S
C63 O48 1.255 . S
C63 O49 1.257 . S
C64 Eu0 2.787 . S
C64 O44 1.252 . S
C64 O47 1.268 . S
C64 C57 1.506 . S
C65 C32 1.439 . S
C65 H42 0.931 . S
C65 C66 1.374 . S
C66 C37 1.387 . S
C66 H43 0.931 . S
C66 C65 1.374 . S
C67 O51 1.249 . S
C67 O52 1.264 . S
C68 C71 1.382 . S
C68 C72 1.390 . S
C68 C75 1.506 . S
C69 C70 1.398 . S
C69 C72 1.392 . S
C70 C69 1.398 . S
C70 C73 1.372 . S
C70 H80 0.931 . S
C71 C68 1.382 . S
C71 C73 1.390 . S
C71 H81 0.931 . S
C72 C68 1.390 . S
C72 C69 1.392 . S
C72 H82 0.930 . S
C73 C70 1.372 . S
C73 C71 1.390 . S
C73 H83 0.929 . S
C74 O54 1.255 . S
C74 O55 1.257 . S
C75 Eu11 2.787 . S
C75 O50 1.252 . S
C75 O53 1.268 . S
C75 C68 1.506 . S
H76 C59 0.931 . S
H77 C60 0.931 . S
H78 C61 0.929 . S
H79 C62 0.930 . S
H80 C70 0.931 . S
H81 C71 0.931 . S
H82 C72 0.930 . S
H83 C73 0.929 . S
Eu84 N113 2.600 . S
Eu84 N119 2.562 . S
Eu84 O128 2.462 . S
Eu84 O129 2.373 . S
Eu84 O131 2.432 . S
Eu84 O132 2.291 . S
Eu84 O136 2.335 . S
Eu84 O139 2.372 1_455 S
Eu84 C148 2.787 . S
C85 N86 1.365 . S
C85 C88 1.405 . S
C85 C92 1.448 . S
N86 C85 1.365 . S
N86 C89 1.319 . S
N86 Eu95 2.600 . S
C87 C89 1.397 . S
C87 C90 1.367 . S
C87 H107 0.931 1_655 S
C88 C85 1.405 . S
C88 C90 1.403 . S
C88 C94 1.439 . S
C89 N86 1.319 . S
C89 C87 1.397 . S
C89 H100 0.930 1_655 S
C90 C87 1.367 . S
C90 C88 1.403 . S
C90 H111 0.929 . S
C91 C92 1.430 . S
C91 C93 1.387 . S
C91 C97 1.404 . S
C92 C85 1.448 . S
C92 C91 1.430 . S
C92 N96 1.351 . S
C93 C91 1.387 . S
C93 C94 1.374 . S
C93 H108 0.931 . S
C94 C88 1.439 . S
C94 C93 1.374 . S
C94 H109 0.931 . S
Eu95 N86 2.600 . S
Eu95 N96 2.562 . S
Eu95 O130 2.335 1_655 S
Eu95 O133 2.372 1_655 S
Eu95 O134 2.462 . S
Eu95 O135 2.373 . S
Eu95 O137 2.432 . S
Eu95 O138 2.291 . S
Eu95 C159 2.787 . S
N96 C92 1.351 . S
N96 Eu95 2.562 . S
N96 C98 1.325 . S
C97 C91 1.404 . S
C97 C99 1.366 . S
C97 H105 0.930 . S
C98 N96 1.325 . S
C98 C99 1.416 . S
C98 H104 0.929 . S
C99 C97 1.366 . S
C99 C98 1.416 . S
C99 H101 0.930 . S
H100 C89 0.930 1_455 S
H101 C99 0.930 . S
H102 C117 0.930 . S
H103 C124 0.930 . S
H104 C98 0.929 . S
H105 C97 0.930 . S
H106 C120 0.929 . S
H107 C87 0.931 1_455 S
H108 C93 0.931 . S
H109 C94 0.931 . S
H110 C115 0.931 1_545 S
H111 C90 0.929 . S
H112 C123 0.930 . S
N113 Eu84 2.600 . S
N113 C114 1.365 . S
N113 C117 1.319 . S
C114 N113 1.365 . S
C114 C116 1.405 . S
C114 C122 1.448 . S
C115 H110 0.931 1_565 S
C115 C117 1.397 . S
C115 C118 1.367 1_565 S
C116 C114 1.405 . S
C116 C118 1.403 1_565 S
C116 C149 1.439 1_565 S
C117 H102 0.930 . S
C117 N113 1.319 . S
C117 C115 1.397 . S
C118 C115 1.367 1_545 S
C118 C116 1.403 1_545 S
C118 H125 0.929 . S
N119 Eu84 2.562 . S
N119 C120 1.325 . S
N119 C122 1.351 . S
C120 H106 0.929 . S
C120 N119 1.325 . S
C120 C124 1.416 . S
C121 C122 1.430 . S
C121 C123 1.404 . S
C121 C150 1.387 . S
C122 C114 1.448 . S
C122 N119 1.351 . S
C122 C121 1.430 . S
C123 H112 0.930 . S
C123 C121 1.404 . S
C123 C124 1.366 . S
C124 H103 0.930 . S
C124 C120 1.416 . S
C124 C123 1.366 . S
H125 C118 0.929 . S
H126 C149 0.931 . S
H127 C150 0.935 . S
O128 Eu84 2.462 . S
O128 C148 1.252 . S
O129 Eu84 2.373 . S
O129 C140 1.249 . S
O130 Eu95 2.335 1_455 S
O130 C140 1.264 . S
O131 Eu84 2.432 . S
O131 C148 1.268 . S
O132 Eu84 2.291 . S
O132 C147 1.255 . S
O133 Eu95 2.372 1_455 S
O133 C147 1.257 . S
O134 Eu95 2.462 . S
O134 C159 1.252 . S
O135 Eu95 2.373 . S
O135 C151 1.249 . S
O136 Eu84 2.335 . S
O136 C151 1.264 1_455 S
O137 Eu95 2.432 . S
O137 C159 1.268 . S
O138 Eu95 2.291 . S
O138 C158 1.255 . S
O139 Eu84 2.372 1_655 S
O139 C158 1.257 . S
C140 O129 1.249 . S
C140 O130 1.264 . S
C141 C144 1.382 . S
C141 C146 1.390 . S
C141 C148 1.506 . S
C142 C143 1.398 . S
C142 C146 1.392 . S
C143 C142 1.398 . S
C143 C145 1.372 . S
C143 H160 0.931 . S
C144 C141 1.382 . S
C144 C145 1.390 . S
C144 H161 0.931 . S
C145 C143 1.372 . S
C145 C144 1.390 . S
C145 H162 0.929 . S
C146 C141 1.390 . S
C146 C142 1.392 . S
C146 H163 0.930 . S
C147 O132 1.255 . S
C147 O133 1.257 . S
C148 Eu84 2.787 . S
C148 O128 1.252 . S
C148 O131 1.268 . S
C148 C141 1.506 . S
C149 C116 1.439 1_545 S
C149 H126 0.931 . S
C149 C150 1.374 1_545 S
C150 C121 1.387 . S
C150 H127 0.935 . S
C150 C149 1.374 1_565 S
C151 O135 1.249 . S
C151 O136 1.264 1_655 S
C152 C155 1.382 . S
C152 C156 1.390 . S
C152 C159 1.506 . S
C153 C154 1.398 . S
C153 C156 1.392 . S
C154 C153 1.398 . S
C154 C157 1.372 . S
C154 H164 0.931 . S
C155 C152 1.382 . S
C155 C157 1.390 . S
C155 H165 0.931 . S
C156 C152 1.390 . S
C156 C153 1.392 . S
C156 H166 0.930 . S
C157 C154 1.372 . S
C157 C155 1.390 . S
C157 H167 0.929 . S
C158 O138 1.255 . S
C158 O139 1.257 . S
C159 Eu95 2.787 . S
C159 O134 1.252 . S
C159 O137 1.268 . S
C159 C152 1.506 . S
H160 C143 0.931 . S
H161 C144 0.931 . S
H162 C145 0.929 . S
H163 C146 0.930 . S
H164 C154 0.931 . S
H165 C155 0.931 . S
H166 C156 0.930 . S
H167 C157 0.929 . S
Eu168 N197 2.600 . S
Eu168 N203 2.562 . S
Eu168 O212 2.462 . S
Eu168 O213 2.373 . S
Eu168 O215 2.432 . S
Eu168 O216 2.291 . S
Eu168 O220 2.335 . S
Eu168 O223 2.372 1_556 S
Eu168 C232 2.787 . S
C169 N170 1.365 . S
C169 C172 1.405 . S
C169 C176 1.448 . S
N170 C169 1.365 . S
N170 C173 1.319 . S
N170 Eu179 2.600 . S
C171 C173 1.397 . S
C171 C174 1.367 . S
C171 H191 0.931 1_554 S
C172 C169 1.405 . S
C172 C174 1.403 . S
C172 C178 1.439 . S
C173 N170 1.319 . S
C173 C171 1.397 . S
C173 H184 0.930 1_554 S
C174 C171 1.367 . S
C174 C172 1.403 . S
C174 H195 0.929 . S
C175 C176 1.430 . S
C175 C177 1.387 . S
C175 C181 1.404 . S
C176 C169 1.448 . S
C176 C175 1.430 . S
C176 N180 1.351 . S
C177 C175 1.387 . S
C177 C178 1.374 . S
C177 H192 0.931 . S
C178 C172 1.439 . S
C178 C177 1.374 . S
C178 H193 0.931 . S
Eu179 N170 2.600 . S
Eu179 N180 2.562 . S
Eu179 O214 2.335 1_554 S
Eu179 O217 2.372 1_554 S
Eu179 O218 2.462 . S
Eu179 O219 2.373 . S
Eu179 O221 2.432 . S
Eu179 O222 2.291 . S
Eu179 C243 2.787 . S
N180 C176 1.351 . S
N180 Eu179 2.562 . S
N180 C182 1.325 . S
C181 C175 1.404 . S
C181 C183 1.366 . S
C181 H189 0.930 . S
C182 N180 1.325 . S
C182 C183 1.416 . S
C182 H188 0.929 . S
C183 C181 1.366 . S
C183 C182 1.416 . S
C183 H185 0.930 . S
H184 C173 0.930 1_556 S
H185 C183 0.930 . S
H186 C201 0.930 . S
H187 C208 0.930 . S
H188 C182 0.929 . S
H189 C181 0.930 . S
H190 C204 0.929 . S
H191 C171 0.931 1_556 S
H192 C177 0.931 . S
H193 C178 0.931 . S
H194 C199 0.931 . S
H195 C174 0.929 . S
H196 C207 0.930 . S
N197 Eu168 2.600 . S
N197 C198 1.365 . S
N197 C201 1.319 . S
C198 N197 1.365 . S
C198 C200 1.405 . S
C198 C206 1.448 . S
C199 H194 0.931 . S
C199 C201 1.397 . S
C199 C202 1.367 . S
C200 C198 1.405 . S
C200 C202 1.403 . S
C200 C233 1.439 . S
C201 H186 0.930 . S
C201 N197 1.319 . S
C201 C199 1.397 . S
C202 C199 1.367 . S
C202 C200 1.403 . S
C202 H209 0.929 . S
N203 Eu168 2.562 . S
N203 C204 1.325 . S
N203 C206 1.351 . S
C204 H190 0.929 . S
C204 N203 1.325 . S
C204 C208 1.416 . S
C205 C206 1.430 . S
C205 C207 1.404 . S
C205 C234 1.387 . S
C206 C198 1.448 . S
C206 N203 1.351 . S
C206 C205 1.430 . S
C207 H196 0.930 . S
C207 C205 1.404 . S
C207 C208 1.366 . S
C208 H187 0.930 . S
C208 C204 1.416 . S
C208 C207 1.366 . S
H209 C202 0.929 . S
H210 C233 0.931 . S
H211 C234 0.931 . S
O212 Eu168 2.462 . S
O212 C232 1.252 . S
O213 Eu168 2.373 . S
O213 C224 1.249 . S
O214 Eu179 2.335 1_556 S
O214 C224 1.264 . S
O215 Eu168 2.432 . S
O215 C232 1.268 . S
O216 Eu168 2.291 . S
O216 C231 1.255 . S
O217 Eu179 2.372 1_556 S
O217 C231 1.257 . S
O218 Eu179 2.462 . S
O218 C243 1.252 . S
O219 Eu179 2.373 . S
O219 C235 1.249 . S
O220 Eu168 2.335 . S
O220 C235 1.264 1_556 S
O221 Eu179 2.432 . S
O221 C243 1.268 . S
O222 Eu179 2.291 . S
O222 C242 1.255 . S
O223 Eu168 2.372 1_554 S
O223 C242 1.257 . S
C224 O213 1.249 . S
C224 O214 1.264 . S
C225 C228 1.382 . S
C225 C230 1.390 . S
C225 C232 1.506 . S
C226 C227 1.398 . S
C226 C230 1.392 . S
C227 C226 1.398 . S
C227 C229 1.372 . S
C227 H244 0.931 . S
C228 C225 1.382 . S
C228 C229 1.390 . S
C228 H245 0.931 . S
C229 C227 1.372 . S
C229 C228 1.390 . S
C229 H246 0.929 . S
C230 C225 1.390 . S
C230 C226 1.392 . S
C230 H247 0.930 . S
C231 O216 1.255 . S
C231 O217 1.257 . S
C232 Eu168 2.787 . S
C232 O212 1.252 . S
C232 O215 1.268 . S
C232 C225 1.506 . S
C233 C200 1.439 . S
C233 H210 0.931 . S
C233 C234 1.374 . S
C234 C205 1.387 . S
C234 H211 0.931 . S
C234 C233 1.374 . S
C235 O219 1.249 . S
C235 O220 1.264 1_554 S
C236 C239 1.382 . S
C236 C240 1.390 . S
C236 C243 1.506 . S
C237 C238 1.398 . S
C237 C240 1.392 . S
C238 C237 1.398 . S
C238 C241 1.372 . S
C238 H248 0.931 . S
C239 C236 1.382 . S
C239 C241 1.390 . S
C239 H249 0.931 . S
C240 C236 1.390 . S
C240 C237 1.392 . S
C240 H250 0.930 . S
C241 C238 1.372 . S
C241 C239 1.390 . S
C241 H251 0.929 . S
C242 O222 1.255 . S
C242 O223 1.257 . S
C243 Eu179 2.787 . S
C243 O218 1.252 . S
C243 O221 1.268 . S
C243 C236 1.506 . S
H244 C227 0.931 . S
H245 C228 0.931 . S
H246 C229 0.929 . S
H247 C230 0.930 . S
H248 C238 0.931 . S
H249 C239 0.931 . S
H250 C240 0.930 . S
H251 C241 0.929 . S
Eu252 N281 2.600 . S
Eu252 N287 2.562 . S
Eu252 O296 2.462 . S
Eu252 O297 2.373 . S
Eu252 O299 2.432 . S
Eu252 O300 2.291 . S
Eu252 O304 2.335 . S
Eu252 O307 2.372 . S
Eu252 C316 2.787 . S
C253 N254 1.365 . S
C253 C256 1.405 . S
C253 C260 1.448 . S
N254 C253 1.365 . S
N254 C257 1.319 . S
N254 Eu263 2.600 . S
C255 C257 1.397 . S
C255 C258 1.367 . S
C255 H275 0.931 . S
C256 C253 1.405 . S
C256 C258 1.403 . S
C256 C262 1.439 . S
C257 N254 1.319 . S
C257 C255 1.397 . S
C257 H268 0.930 . S
C258 C255 1.367 . S
C258 C256 1.403 . S
C258 H279 0.929 . S
C259 C260 1.430 . S
C259 C261 1.387 . S
C259 C265 1.404 . S
C260 C253 1.448 . S
C260 C259 1.430 . S
C260 N264 1.351 . S
C261 C259 1.387 . S
C261 C262 1.374 . S
C261 H276 0.931 . S
C262 C256 1.439 . S
C262 C261 1.374 . S
C262 H277 0.931 . S
Eu263 N254 2.600 . S
Eu263 N264 2.562 . S
Eu263 O298 2.335 . S
Eu263 O301 2.372 . S
Eu263 O302 2.462 . S
Eu263 O303 2.373 . S
Eu263 O305 2.432 . S
Eu263 O306 2.291 . S
Eu263 C327 2.787 . S
N264 C260 1.351 . S
N264 Eu263 2.562 . S
N264 C266 1.325 . S
C265 C259 1.404 . S
C265 C267 1.366 . S
C265 H273 0.930 . S
C266 N264 1.325 . S
C266 C267 1.416 . S
C266 H272 0.929 . S
C267 C265 1.366 . S
C267 C266 1.416 . S
C267 H269 0.930 . S
H268 C257 0.930 . S
H269 C267 0.930 . S
H270 C285 0.930 . S
H271 C292 0.930 . S
H272 C266 0.929 . S
H273 C265 0.930 . S
H274 C288 0.929 . S
H275 C255 0.931 . S
H276 C261 0.931 . S
H277 C262 0.931 . S
H278 C283 0.931 1_565 S
H279 C258 0.929 . S
H280 C291 0.930 . S
N281 Eu252 2.600 . S
N281 C282 1.365 . S
N281 C285 1.319 . S
C282 N281 1.365 . S
C282 C284 1.405 . S
C282 C290 1.448 . S
C283 H278 0.931 1_545 S
C283 C285 1.397 . S
C283 C286 1.367 1_545 S
C284 C282 1.405 . S
C284 C286 1.403 1_545 S
C284 C317 1.439 1_545 S
C285 H270 0.930 . S
C285 N281 1.319 . S
C285 C283 1.397 . S
C286 C283 1.367 1_565 S
C286 C284 1.403 1_565 S
C286 H293 0.929 . S
N287 Eu252 2.562 . S
N287 C288 1.325 . S
N287 C290 1.351 . S
C288 H274 0.929 . S
C288 N287 1.325 . S
C288 C292 1.416 . S
C289 C290 1.430 . S
C289 C291 1.404 . S
C289 C318 1.387 . S
C290 C282 1.448 . S
C290 N287 1.351 . S
C290 C289 1.430 . S
C291 H280 0.930 . S
C291 C289 1.404 . S
C291 C292 1.366 . S
C292 H271 0.930 . S
C292 C288 1.416 . S
C292 C291 1.366 . S
H293 C286 0.929 . S
H294 C317 0.931 . S
H295 C318 0.944 . S
O296 Eu252 2.462 . S
O296 C316 1.252 . S
O297 Eu252 2.373 . S
O297 C308 1.249 . S
O298 Eu263 2.335 . S
O298 C308 1.264 . S
O299 Eu252 2.432 . S
O299 C316 1.268 . S
O300 Eu252 2.291 . S
O300 C315 1.255 . S
O301 Eu263 2.372 . S
O301 C315 1.257 . S
O302 Eu263 2.462 . S
O302 C327 1.252 . S
O303 Eu263 2.373 . S
O303 C319 1.249 . S
O304 Eu252 2.335 . S
O304 C319 1.264 . S
O305 Eu263 2.432 . S
O305 C327 1.268 . S
O306 Eu263 2.291 . S
O306 C326 1.255 . S
O307 Eu252 2.372 . S
O307 C326 1.257 . S
C308 O297 1.249 . S
C308 O298 1.264 . S
C309 C312 1.382 . S
C309 C314 1.390 . S
C309 C316 1.506 . S
C310 C311 1.398 . S
C310 C314 1.392 . S
C311 C310 1.398 . S
C311 C313 1.372 . S
C311 H328 0.931 . S
C312 C309 1.382 . S
C312 C313 1.390 . S
C312 H329 0.931 . S
C313 C311 1.372 . S
C313 C312 1.390 . S
C313 H330 0.929 . S
C314 C309 1.390 . S
C314 C310 1.392 . S
C314 H331 0.930 . S
C315 O300 1.255 . S
C315 O301 1.257 . S
C316 Eu252 2.787 . S
C316 O296 1.252 . S
C316 O299 1.268 . S
C316 C309 1.506 . S
C317 C284 1.439 1_565 S
C317 H294 0.931 . S
C317 C318 1.374 1_565 S
C318 C289 1.387 . S
C318 H295 0.944 . S
C318 C317 1.374 1_545 S
C319 O303 1.249 . S
C319 O304 1.264 . S
C320 C323 1.382 . S
C320 C324 1.390 . S
C320 C327 1.506 . S
C321 C322 1.398 . S
C321 C324 1.392 . S
C322 C321 1.398 . S
C322 C325 1.372 . S
C322 H332 0.931 . S
C323 C320 1.382 . S
C323 C325 1.390 . S
C323 H333 0.931 . S
C324 C320 1.390 . S
C324 C321 1.392 . S
C324 H334 0.930 . S
C325 C322 1.372 . S
C325 C323 1.390 . S
C325 H335 0.929 . S
C326 O306 1.255 . S
C326 O307 1.257 . S
C327 Eu263 2.787 . S
C327 O302 1.252 . S
C327 O305 1.268 . S
C327 C320 1.506 . S
H328 C311 0.931 . S
H329 C312 0.931 . S
H330 C313 0.929 . S
H331 C314 0.930 . S
H332 C322 0.931 . S
H333 C323 0.931 . S
H334 C324 0.930 . S
H335 C325 0.929 . S
Eu336 N365 2.600 . S
Eu336 N371 2.562 . S
Eu336 O380 2.462 . S
Eu336 O381 2.373 . S
Eu336 O383 2.432 . S
Eu336 O384 2.291 . S
Eu336 O388 2.335 . S
Eu336 O391 2.372 . S
Eu336 C400 2.787 . S
C337 N338 1.365 . S
C337 C340 1.405 . S
C337 C344 1.448 . S
N338 C337 1.365 . S
N338 C341 1.319 . S
N338 Eu347 2.600 . S
C339 C341 1.397 . S
C339 C342 1.367 . S
C339 H359 0.931 . S
C340 C337 1.405 . S
C340 C342 1.403 . S
C340 C346 1.439 . S
C341 N338 1.319 . S
C341 C339 1.397 . S
C341 H352 0.930 . S
C342 C339 1.367 . S
C342 C340 1.403 . S
C342 H363 0.929 . S
C343 C344 1.430 . S
C343 C345 1.387 . S
C343 C349 1.404 . S
C344 C337 1.448 . S
C344 C343 1.430 . S
C344 N348 1.351 . S
C345 C343 1.387 . S
C345 C346 1.374 . S
C345 H360 0.931 . S
C346 C340 1.439 . S
C346 C345 1.374 . S
C346 H361 0.931 . S
Eu347 N338 2.600 . S
Eu347 N348 2.562 . S
Eu347 O382 2.335 . S
Eu347 O385 2.372 . S
Eu347 O386 2.462 . S
Eu347 O387 2.373 . S
Eu347 O389 2.432 . S
Eu347 O390 2.291 . S
Eu347 C411 2.787 . S
N348 C344 1.351 . S
N348 Eu347 2.562 . S
N348 C350 1.325 . S
C349 C343 1.404 . S
C349 C351 1.366 . S
C349 H357 0.930 . S
C350 N348 1.325 . S
C350 C351 1.416 . S
C350 H356 0.929 . S
C351 C349 1.366 . S
C351 C350 1.416 . S
C351 H353 0.930 . S
H352 C341 0.930 . S
H353 C351 0.930 . S
H354 C369 0.930 . S
H355 C376 0.930 . S
H356 C350 0.929 . S
H357 C349 0.930 . S
H358 C372 0.929 . S
H359 C339 0.931 . S
H360 C345 0.931 . S
H361 C346 0.931 . S
H362 C367 0.931 . S
H363 C342 0.929 . S
H364 C375 0.930 . S
N365 Eu336 2.600 . S
N365 C366 1.365 . S
N365 C369 1.319 . S
C366 N365 1.365 . S
C366 C368 1.405 . S
C366 C374 1.448 . S
C367 H362 0.931 . S
C367 C369 1.397 . S
C367 C370 1.367 . S
C368 C366 1.405 . S
C368 C370 1.403 . S
C368 C401 1.439 . S
C369 H354 0.930 . S
C369 N365 1.319 . S
C369 C367 1.397 . S
C370 C367 1.367 . S
C370 C368 1.403 . S
C370 H377 0.929 . S
N371 Eu336 2.562 . S
N371 C372 1.325 . S
N371 C374 1.351 . S
C372 H358 0.929 . S
C372 N371 1.325 . S
C372 C376 1.416 . S
C373 C374 1.430 . S
C373 C375 1.404 . S
C373 C402 1.387 . S
C374 C366 1.448 . S
C374 N371 1.351 . S
C374 C373 1.430 . S
C375 H364 0.930 . S
C375 C373 1.404 . S
C375 C376 1.366 . S
C376 H355 0.930 . S
C376 C372 1.416 . S
C376 C375 1.366 . S
H377 C370 0.929 . S
H378 C401 0.931 . S
H379 C402 0.931 . S
O380 Eu336 2.462 . S
O380 C400 1.252 . S
O381 Eu336 2.373 . S
O381 C392 1.249 . S
O382 Eu347 2.335 . S
O382 C392 1.264 . S
O383 Eu336 2.432 . S
O383 C400 1.268 . S
O384 Eu336 2.291 . S
O384 C399 1.255 . S
O385 Eu347 2.372 . S
O385 C399 1.257 . S
O386 Eu347 2.462 . S
O386 C411 1.252 . S
O387 Eu347 2.373 . S
O387 C403 1.249 . S
O388 Eu336 2.335 . S
O388 C403 1.264 . S
O389 Eu347 2.432 . S
O389 C411 1.268 . S
O390 Eu347 2.291 . S
O390 C410 1.255 . S
O391 Eu336 2.372 . S
O391 C410 1.257 . S
C392 O381 1.249 . S
C392 O382 1.264 . S
C393 C396 1.382 . S
C393 C398 1.390 . S
C393 C400 1.506 . S
C394 C395 1.398 . S
C394 C398 1.392 . S
C395 C394 1.398 . S
C395 C397 1.372 . S
C395 H412 0.931 . S
C396 C393 1.382 . S
C396 C397 1.390 . S
C396 H413 0.931 . S
C397 C395 1.372 . S
C397 C396 1.390 . S
C397 H414 0.929 . S
C398 C393 1.390 . S
C398 C394 1.392 . S
C398 H415 0.930 . S
C399 O384 1.255 . S
C399 O385 1.257 . S
C400 Eu336 2.787 . S
C400 O380 1.252 . S
C400 O383 1.268 . S
C400 C393 1.506 . S
C401 C368 1.439 . S
C401 H378 0.931 . S
C401 C402 1.374 . S
C402 C373 1.387 . S
C402 H379 0.931 . S
C402 C401 1.374 . S
C403 O387 1.249 . S
C403 O388 1.264 . S
C404 C407 1.382 . S
C404 C408 1.390 . S
C404 C411 1.506 . S
C405 C406 1.398 . S
C405 C408 1.392 . S
C406 C405 1.398 . S
C406 C409 1.372 . S
C406 H416 0.931 . S
C407 C404 1.382 . S
C407 C409 1.390 . S
C407 H417 0.931 . S
C408 C404 1.390 . S
C408 C405 1.392 . S
C408 H418 0.930 . S
C409 C406 1.372 . S
C409 C407 1.390 . S
C409 H419 0.929 . S
C410 O390 1.255 . S
C410 O391 1.257 . S
C411 Eu347 2.787 . S
C411 O386 1.252 . S
C411 O389 1.268 . S
C411 C404 1.506 . S
H412 C395 0.931 . S
H413 C396 0.931 . S
H414 C397 0.929 . S
H415 C398 0.930 . S
H416 C406 0.931 . S
H417 C407 0.931 . S
H418 C408 0.930 . S
H419 C409 0.929 . S
Eu420 N449 2.600 . S
Eu420 N455 2.565 . S
Eu420 O464 2.462 . S
Eu420 O465 2.373 1_455 S
Eu420 O467 2.432 . S
Eu420 O468 2.291 1_455 S
Eu420 O472 2.335 . S
Eu420 O475 2.372 . S
Eu420 C484 2.787 . S
C421 N422 1.365 . S
C421 C424 1.405 . S
C421 C428 1.448 . S
N422 C421 1.365 . S
N422 C425 1.319 . S
N422 Eu431 2.600 . S
C423 C425 1.397 . S
C423 C426 1.367 . S
C423 H443 0.931 . S
C424 C421 1.405 . S
C424 C426 1.403 . S
C424 C430 1.439 . S
C425 N422 1.319 . S
C425 C423 1.397 . S
C425 H436 0.930 . S
C426 C423 1.367 . S
C426 C424 1.403 . S
C426 H447 0.929 . S
C427 C428 1.430 . S
C427 C429 1.387 . S
C427 C433 1.404 . S
C428 C421 1.448 . S
C428 C427 1.430 . S
C428 N432 1.351 . S
C429 C427 1.387 . S
C429 C430 1.374 . S
C429 H444 0.931 . S
C430 C424 1.439 . S
C430 C429 1.374 . S
C430 H445 0.931 . S
Eu431 N422 2.600 . S
Eu431 N432 2.562 . S
Eu431 O466 2.335 . S
Eu431 O469 2.372 . S
Eu431 O470 2.462 . S
Eu431 O471 2.373 . S
Eu431 O473 2.432 . S
Eu431 O474 2.291 . S
Eu431 C495 2.787 . S
N432 C428 1.351 . S
N432 Eu431 2.562 . S
N432 C434 1.325 . S
C433 C427 1.404 . S
C433 C435 1.366 . S
C433 H441 0.930 1_655 S
C434 N432 1.325 . S
C434 C435 1.416 . S
C434 H440 0.929 . S
C435 C433 1.366 . S
C435 C434 1.416 . S
C435 H437 0.930 1_655 S
H436 C425 0.930 . S
H437 C435 0.930 1_455 S
H438 C453 0.930 . S
H439 C460 0.930 . S
H440 C434 0.929 . S
H441 C433 0.930 1_455 S
H442 C456 0.929 . S
H443 C423 0.931 . S
H444 C429 0.931 . S
H445 C430 0.931 . S
H446 C451 0.931 . S
H447 C426 0.929 . S
H448 C459 0.930 . S
N449 Eu420 2.600 . S
N449 C450 1.365 . S
N449 C453 1.319 . S
C450 N449 1.365 . S
C450 C452 1.405 . S
C450 C458 1.448 . S
C451 H446 0.931 . S
C451 C453 1.397 . S
C451 C454 1.367 . S
C452 C450 1.405 . S
C452 C454 1.403 . S
C452 C485 1.439 . S
C453 H438 0.930 . S
C453 N449 1.319 . S
C453 C451 1.397 . S
C454 C451 1.367 . S
C454 C452 1.403 . S
C454 H461 0.929 . S
N455 Eu420 2.565 . S
N455 C456 1.319 1_455 S
N455 C458 1.352 . S
C456 H442 0.929 . S
C456 N455 1.319 1_655 S
C456 C460 1.416 . S
C457 C458 1.430 1_655 S
C457 C459 1.404 . S
C457 C486 1.387 . S
C458 C450 1.448 . S
C458 N455 1.352 . S
C458 C457 1.430 1_455 S
C459 H448 0.930 . S
C459 C457 1.404 . S
C459 C460 1.366 . S
C460 H439 0.930 . S
C460 C456 1.416 . S
C460 C459 1.366 . S
H461 C454 0.929 . S
H462 C485 0.931 . S
H463 C486 0.931 . S
O464 Eu420 2.462 . S
O464 C484 1.252 . S
O465 Eu420 2.373 1_655 S
O465 C476 1.249 . S
O466 Eu431 2.335 . S
O466 C476 1.264 . S
O467 Eu420 2.432 . S
O467 C484 1.268 . S
O468 Eu420 2.291 1_655 S
O468 C483 1.255 . S
O469 Eu431 2.372 . S
O469 C483 1.257 . S
O470 Eu431 2.462 . S
O470 C495 1.252 . S
O471 Eu431 2.373 . S
O471 C487 1.249 1_655 S
O472 Eu420 2.335 . S
O472 C487 1.264 . S
O473 Eu431 2.432 . S
O473 C495 1.268 . S
O474 Eu431 2.291 . S
O474 C494 1.255 1_655 S
O475 Eu420 2.372 . S
O475 C494 1.257 . S
C476 O465 1.249 . S
C476 O466 1.264 . S
C477 C480 1.382 . S
C477 C482 1.390 . S
C477 C484 1.506 . S
C478 C479 1.398 . S
C478 C482 1.392 . S
C479 C478 1.398 . S
C479 C481 1.372 . S
C479 H496 0.931 . S
C480 C477 1.382 . S
C480 C481 1.390 . S
C480 H497 0.931 . S
C481 C479 1.372 . S
C481 C480 1.390 . S
C481 H498 0.929 . S
C482 C477 1.390 . S
C482 C478 1.392 . S
C482 H499 0.930 . S
C483 O468 1.255 . S
C483 O469 1.257 . S
C484 Eu420 2.787 . S
C484 O464 1.252 . S
C484 O467 1.268 . S
C484 C477 1.506 . S
C485 C452 1.439 . S
C485 H462 0.931 . S
C485 C486 1.374 1_455 S
C486 C457 1.387 . S
C486 H463 0.931 . S
C486 C485 1.374 1_655 S
C487 O471 1.249 1_455 S
C487 O472 1.264 . S
C488 C491 1.382 . S
C488 C492 1.390 . S
C488 C495 1.506 . S
C489 C490 1.398 . S
C489 C492 1.392 . S
C490 C489 1.398 . S
C490 C493 1.372 . S
C490 H500 0.931 . S
C491 C488 1.382 . S
C491 C493 1.390 . S
C491 H501 0.931 . S
C492 C488 1.390 . S
C492 C489 1.392 . S
C492 H502 0.930 . S
C493 C490 1.372 . S
C493 C491 1.390 . S
C493 H503 0.929 . S
C494 O474 1.255 1_455 S
C494 O475 1.257 . S
C495 Eu431 2.787 . S
C495 O470 1.252 . S
C495 O473 1.268 . S
C495 C488 1.506 . S
H496 C479 0.931 . S
H497 C480 0.931 . S
H498 C481 0.929 . S
H499 C482 0.930 . S
H500 C490 0.931 . S
H501 C491 0.931 . S
H502 C492 0.930 . S
H503 C493 0.929 . S
Eu504 N533 2.600 . S
Eu504 N539 2.562 . S
Eu504 O548 2.462 . S
Eu504 O549 2.373 1_556 S
Eu504 O551 2.432 . S
Eu504 O552 2.291 1_556 S
Eu504 O556 2.335 . S
Eu504 O559 2.372 . S
Eu504 C568 2.787 . S
C505 N506 1.365 . S
C505 C508 1.405 . S
C505 C512 1.448 . S
N506 C505 1.365 . S
N506 C509 1.319 . S
N506 Eu515 2.600 . S
C507 C509 1.397 . S
C507 C510 1.367 1_655 S
C507 H527 0.931 1_655 S
C508 C505 1.405 . S
C508 C510 1.403 1_655 S
C508 C514 1.439 1_655 S
C509 N506 1.319 . S
C509 C507 1.397 . S
C509 H520 0.930 . S
C510 C507 1.367 1_455 S
C510 C508 1.403 1_455 S
C510 H531 0.929 . S
C511 C512 1.430 . S
C511 C513 1.387 . S
C511 C517 1.404 . S
C512 C505 1.448 . S
C512 C511 1.430 . S
C512 N516 1.351 . S
C513 C511 1.387 . S
C513 C514 1.374 1_655 S
C513 H528 0.931 . S
C514 C508 1.439 1_455 S
C514 C513 1.374 1_455 S
C514 H529 0.931 . S
Eu515 N506 2.600 . S
Eu515 N516 2.562 . S
Eu515 O550 2.335 . S
Eu515 O553 2.372 . S
Eu515 O554 2.462 . S
Eu515 O555 2.340 1_554 S
Eu515 O557 2.432 . S
Eu515 O558 2.291 . S
Eu515 C579 2.787 . S
N516 C512 1.351 . S
N516 Eu515 2.562 . S
N516 C518 1.325 . S
C517 C511 1.404 . S
C517 C519 1.367 . S
C517 H525 0.930 1_554 S
C518 N516 1.325 . S
C518 C519 1.422 . S
C518 H524 0.929 . S
C519 C517 1.367 . S
C519 C518 1.422 . S
C519 H521 0.923 1_554 S
H520 C509 0.930 . S
H521 C519 0.923 1_556 S
H522 C537 0.930 . S
H523 C544 0.930 . S
H524 C518 0.929 . S
H525 C517 0.930 1_556 S
H526 C540 0.929 . S
H527 C507 0.931 1_455 S
H528 C513 0.931 . S
H529 C514 0.931 . S
H530 C535 0.931 . S
H531 C510 0.929 . S
H532 C543 0.930 . S
N533 Eu504 2.600 . S
N533 C534 1.365 . S
N533 C537 1.319 . S
C534 N533 1.365 . S
C534 C536 1.405 . S
C534 C542 1.448 . S
C535 H530 0.931 . S
C535 C537 1.397 . S
C535 C538 1.367 . S
C536 C534 1.405 . S
C536 C538 1.403 . S
C536 C569 1.439 . S
C537 H522 0.930 . S
C537 N533 1.319 . S
C537 C535 1.397 . S
C538 C535 1.367 . S
C538 C536 1.403 . S
C538 H545 0.929 . S
N539 Eu504 2.562 . S
N539 C540 1.325 1_556 S
N539 C542 1.351 . S
C540 H526 0.929 . S
C540 N539 1.325 1_554 S
C540 C544 1.416 . S
C541 C542 1.430 1_554 S
C541 C543 1.404 . S
C541 C570 1.387 . S
C542 C534 1.448 . S
C542 N539 1.351 . S
C542 C541 1.430 1_556 S
C543 H532 0.930 . S
C543 C541 1.404 . S
C543 C544 1.366 . S
C544 H523 0.930 . S
C544 C540 1.416 . S
C544 C543 1.366 . S
H545 C538 0.929 . S
H546 C569 0.931 . S
H547 C570 0.931 . S
O548 Eu504 2.462 . S
O548 C568 1.252 . S
O549 Eu504 2.373 1_554 S
O549 C560 1.249 . S
O550 Eu515 2.335 . S
O550 C560 1.264 . S
O551 Eu504 2.432 . S
O551 C568 1.268 . S
O552 Eu504 2.291 1_554 S
O552 C567 1.255 . S
O553 Eu515 2.372 . S
O553 C567 1.257 . S
O554 Eu515 2.462 . S
O554 C579 1.252 . S
O555 Eu515 2.340 1_556 S
O555 C571 1.285 . S
O556 Eu504 2.335 . S
O556 C571 1.264 . S
O557 Eu515 2.432 . S
O557 C579 1.268 . S
O558 Eu515 2.291 . S
O558 C578 1.255 1_554 S
O559 Eu504 2.372 . S
O559 C578 1.257 . S
C560 O549 1.249 . S
C560 O550 1.264 . S
C561 C564 1.382 . S
C561 C566 1.390 . S
C561 C568 1.506 . S
C562 C563 1.398 . S
C562 C566 1.392 . S
C563 C562 1.398 . S
C563 C565 1.372 . S
C563 H580 0.931 . S
C564 C561 1.382 . S
C564 C565 1.390 . S
C564 H581 0.931 . S
C565 C563 1.372 . S
C565 C564 1.390 . S
C565 H582 0.929 . S
C566 C561 1.390 . S
C566 C562 1.392 . S
C566 H583 0.930 . S
C567 O552 1.255 . S
C567 O553 1.257 . S
C568 Eu504 2.787 . S
C568 O548 1.252 . S
C568 O551 1.268 . S
C568 C561 1.506 . S
C569 C536 1.439 . S
C569 H546 0.931 . S
C569 C570 1.374 1_556 S
C570 C541 1.387 . S
C570 H547 0.931 . S
C570 C569 1.374 1_554 S
C571 O555 1.285 . S
C571 O556 1.264 . S
C572 C575 1.382 . S
C572 C576 1.390 . S
C572 C579 1.506 . S
C573 C574 1.398 . S
C573 C576 1.392 . S
C574 C573 1.398 . S
C574 C577 1.372 . S
C574 H584 0.931 . S
C575 C572 1.382 . S
C575 C577 1.390 . S
C575 H585 0.931 . S
C576 C572 1.390 . S
C576 C573 1.392 . S
C576 H586 0.930 . S
C577 C574 1.372 . S
C577 C575 1.390 . S
C577 H587 0.929 . S
C578 O558 1.255 1_556 S
C578 O559 1.257 . S
C579 Eu515 2.787 . S
C579 O554 1.252 . S
C579 O557 1.268 . S
C579 C572 1.506 . S
H580 C563 0.931 . S
H581 C564 0.931 . S
H582 C565 0.929 . S
H583 C566 0.930 . S
H584 C574 0.931 . S
H585 C575 0.931 . S
H586 C576 0.930 . S
H587 C577 0.929 . S
Eu588 N617 2.600 . S
Eu588 N623 2.562 . S
Eu588 O632 2.462 . S
Eu588 O633 2.373 . S
Eu588 O635 2.432 . S
Eu588 O636 2.291 . S
Eu588 O640 2.335 . S
Eu588 O643 2.372 . S
Eu588 C652 2.787 . S
C589 N590 1.365 . S
C589 C592 1.405 . S
C589 C596 1.448 . S
N590 C589 1.365 . S
N590 C593 1.319 . S
N590 Eu599 2.600 . S
C591 C593 1.397 . S
C591 C594 1.367 . S
C591 H611 0.931 . S
C592 C589 1.405 . S
C592 C594 1.403 . S
C592 C598 1.439 . S
C593 N590 1.319 . S
C593 C591 1.397 . S
C593 H604 0.930 . S
C594 C591 1.367 . S
C594 C592 1.403 . S
C594 H615 0.929 . S
C595 C596 1.430 . S
C595 C597 1.387 . S
C595 C601 1.404 . S
C596 C589 1.448 . S
C596 C595 1.430 . S
C596 N600 1.351 . S
C597 C595 1.387 . S
C597 C598 1.374 . S
C597 H612 0.931 . S
C598 C592 1.439 . S
C598 C597 1.374 . S
C598 H613 0.931 . S
Eu599 N590 2.600 . S
Eu599 N600 2.562 . S
Eu599 O634 2.335 . S
Eu599 O637 2.372 . S
Eu599 O638 2.462 . S
Eu599 O639 2.373 . S
Eu599 O641 2.432 . S
Eu599 O642 2.291 . S
Eu599 C663 2.787 . S
N600 C596 1.351 . S
N600 Eu599 2.562 . S
N600 C602 1.325 . S
C601 C595 1.404 . S
C601 C603 1.366 . S
C601 H609 0.930 . S
C602 N600 1.325 . S
C602 C603 1.416 . S
C602 H608 0.929 . S
C603 C601 1.366 . S
C603 C602 1.416 . S
C603 H605 0.930 . S
H604 C593 0.930 . S
H605 C603 0.930 . S
H606 C621 0.930 . S
H607 C628 0.930 . S
H608 C602 0.929 . S
H609 C601 0.930 . S
H610 C624 0.929 . S
H611 C591 0.931 . S
H612 C597 0.931 . S
H613 C598 0.931 . S
H614 C619 0.931 . S
H615 C594 0.929 . S
H616 C627 0.930 . S
N617 Eu588 2.600 . S
N617 C618 1.365 . S
N617 C621 1.319 . S
C618 N617 1.365 . S
C618 C620 1.405 . S
C618 C626 1.448 . S
C619 H614 0.931 . S
C619 C621 1.397 . S
C619 C622 1.367 . S
C620 C618 1.405 . S
C620 C622 1.403 . S
C620 C653 1.439 . S
C621 H606 0.930 . S
C621 N617 1.319 . S
C621 C619 1.397 . S
C622 C619 1.367 . S
C622 C620 1.403 . S
C622 H629 0.929 . S
N623 Eu588 2.562 . S
N623 C624 1.325 . S
N623 C626 1.351 . S
C624 H610 0.929 . S
C624 N623 1.325 . S
C624 C628 1.416 . S
C625 C626 1.430 . S
C625 C627 1.404 . S
C625 C654 1.387 . S
C626 C618 1.448 . S
C626 N623 1.351 . S
C626 C625 1.430 . S
C627 H616 0.930 . S
C627 C625 1.404 . S
C627 C628 1.366 . S
C628 H607 0.930 . S
C628 C624 1.416 . S
C628 C627 1.366 . S
H629 C622 0.929 . S
H630 C653 0.931 . S
H631 C654 0.931 . S
O632 Eu588 2.462 . S
O632 C652 1.252 . S
O633 Eu588 2.373 . S
O633 C644 1.249 . S
O634 Eu599 2.335 . S
O634 C644 1.264 . S
O635 Eu588 2.432 . S
O635 C652 1.268 . S
O636 Eu588 2.291 . S
O636 C651 1.255 . S
O637 Eu599 2.372 . S
O637 C651 1.257 . S
O638 Eu599 2.462 . S
O638 C663 1.252 . S
O639 Eu599 2.373 . S
O639 C655 1.249 . S
O640 Eu588 2.335 . S
O640 C655 1.264 . S
O641 Eu599 2.432 . S
O641 C663 1.268 . S
O642 Eu599 2.291 . S
O642 C662 1.255 . S
O643 Eu588 2.372 . S
O643 C662 1.257 . S
C644 O633 1.249 . S
C644 O634 1.264 . S
C645 C648 1.382 . S
C645 C650 1.390 . S
C645 C652 1.506 . S
C646 C647 1.398 . S
C646 C650 1.392 . S
C647 C646 1.398 . S
C647 C649 1.372 . S
C647 H664 0.931 . S
C648 C645 1.382 . S
C648 C649 1.390 . S
C648 H665 0.931 . S
C649 C647 1.372 . S
C649 C648 1.390 . S
C649 H666 0.929 . S
C650 C645 1.390 . S
C650 C646 1.392 . S
C650 H667 0.930 . S
C651 O636 1.255 . S
C651 O637 1.257 . S
C652 Eu588 2.787 . S
C652 O632 1.252 . S
C652 O635 1.268 . S
C652 C645 1.506 . S
C653 C620 1.439 . S
C653 H630 0.931 . S
C653 C654 1.374 . S
C654 C625 1.387 . S
C654 H631 0.931 . S
C654 C653 1.374 . S
C655 O639 1.249 . S
C655 O640 1.264 . S
C656 C659 1.382 . S
C656 C660 1.390 . S
C656 C663 1.506 . S
C657 C658 1.398 . S
C657 C660 1.392 . S
C658 C657 1.398 . S
C658 C661 1.372 . S
C658 H668 0.931 . S
C659 C656 1.382 . S
C659 C661 1.390 . S
C659 H669 0.931 . S
C660 C656 1.390 . S
C660 C657 1.392 . S
C660 H670 0.930 . S
C661 C658 1.372 . S
C661 C659 1.390 . S
C661 H671 0.929 . S
C662 O642 1.255 . S
C662 O643 1.257 . S
C663 Eu599 2.787 . S
C663 O638 1.252 . S
C663 O641 1.268 . S
C663 C656 1.506 . S
H664 C647 0.931 . S
H665 C648 0.931 . S
H666 C649 0.929 . S
H667 C650 0.930 . S
H668 C658 0.931 . S
H669 C659 0.931 . S
H670 C660 0.930 . S
H671 C661 0.929 . S
Eu672 N701 2.600 . S
Eu672 N707 2.562 . S
Eu672 O716 2.462 . S
Eu672 O717 2.373 . S
Eu672 O719 2.432 . S
Eu672 O720 2.291 . S
Eu672 O724 2.335 . S
Eu672 O727 2.372 . S
Eu672 C736 2.787 . S
C673 N674 1.365 . S
C673 C676 1.405 . S
C673 C680 1.448 . S
N674 C673 1.365 . S
N674 C677 1.319 . S
N674 Eu683 2.600 . S
C675 C677 1.397 . S
C675 C678 1.367 . S
C675 H695 0.931 . S
C676 C673 1.405 . S
C676 C678 1.403 . S
C676 C682 1.439 . S
C677 N674 1.319 . S
C677 C675 1.397 . S
C677 H688 0.930 . S
C678 C675 1.367 . S
C678 C676 1.403 . S
C678 H699 0.929 . S
C679 C680 1.430 . S
C679 C681 1.387 . S
C679 C685 1.404 . S
C680 C673 1.448 . S
C680 C679 1.430 . S
C680 N684 1.351 . S
C681 C679 1.387 . S
C681 C682 1.374 . S
C681 H696 0.931 . S
C682 C676 1.439 . S
C682 C681 1.374 . S
C682 H697 0.931 . S
Eu683 N674 2.600 . S
Eu683 N684 2.562 . S
Eu683 O718 2.335 . S
Eu683 O721 2.372 . S
Eu683 O722 2.462 . S
Eu683 O723 2.373 . S
Eu683 O725 2.432 . S
Eu683 O726 2.291 . S
Eu683 C747 2.787 . S
N684 C680 1.351 . S
N684 Eu683 2.562 . S
N684 C686 1.325 . S
C685 C679 1.404 . S
C685 C687 1.366 . S
C685 H693 0.930 . S
C686 N684 1.325 . S
C686 C687 1.416 . S
C686 H692 0.929 . S
C687 C685 1.366 . S
C687 C686 1.416 . S
C687 H689 0.930 . S
H688 C677 0.930 . S
H689 C687 0.930 . S
H690 C705 0.930 . S
H691 C712 0.930 . S
H692 C686 0.929 . S
H693 C685 0.930 . S
H694 C708 0.929 . S
H695 C675 0.931 . S
H696 C681 0.931 . S
H697 C682 0.931 . S
H698 C703 0.931 1_556 S
H699 C678 0.929 . S
H700 C711 0.930 . S
N701 Eu672 2.600 . S
N701 C702 1.365 . S
N701 C705 1.319 . S
C702 N701 1.365 . S
C702 C704 1.405 . S
C702 C710 1.448 . S
C703 H698 0.931 1_554 S
C703 C705 1.397 . S
C703 C706 1.367 1_554 S
C704 C702 1.405 . S
C704 C706 1.403 1_554 S
C704 C737 1.439 1_554 S
C705 H690 0.930 . S
C705 N701 1.319 . S
C705 C703 1.397 . S
C706 C703 1.367 1_556 S
C706 C704 1.403 1_556 S
C706 H713 0.929 . S
N707 Eu672 2.562 . S
N707 C708 1.325 . S
N707 C710 1.351 . S
C708 H694 0.929 . S
C708 N707 1.325 . S
C708 C712 1.416 . S
C709 C710 1.430 . S
C709 C711 1.404 . S
C709 C738 1.387 . S
C710 C702 1.448 . S
C710 N707 1.351 . S
C710 C709 1.430 . S
C711 H700 0.930 . S
C711 C709 1.404 . S
C711 C712 1.366 . S
C712 H691 0.930 . S
C712 C708 1.416 . S
C712 C711 1.366 . S
H713 C706 0.929 . S
H714 C737 0.931 . S
H715 C738 0.934 . S
O716 Eu672 2.462 . S
O716 C736 1.252 . S
O717 Eu672 2.373 . S
O717 C728 1.249 . S
O718 Eu683 2.335 . S
O718 C728 1.264 . S
O719 Eu672 2.432 . S
O719 C736 1.268 . S
O720 Eu672 2.291 . S
O720 C735 1.255 . S
O721 Eu683 2.372 . S
O721 C735 1.257 . S
O722 Eu683 2.462 . S
O722 C747 1.252 . S
O723 Eu683 2.373 . S
O723 C739 1.249 . S
O724 Eu672 2.335 . S
O724 C739 1.264 . S
O725 Eu683 2.432 . S
O725 C747 1.268 . S
O726 Eu683 2.291 . S
O726 C746 1.255 . S
O727 Eu672 2.372 . S
O727 C746 1.257 . S
C728 O717 1.249 . S
C728 O718 1.264 . S
C729 C732 1.382 . S
C729 C734 1.390 . S
C729 C736 1.506 . S
C730 C731 1.398 . S
C730 C734 1.392 . S
C731 C730 1.398 . S
C731 C733 1.372 . S
C731 H748 0.931 . S
C732 C729 1.382 . S
C732 C733 1.390 . S
C732 H749 0.931 . S
C733 C731 1.372 . S
C733 C732 1.390 . S
C733 H750 0.929 . S
C734 C729 1.390 . S
C734 C730 1.392 . S
C734 H751 0.930 . S
C735 O720 1.255 . S
C735 O721 1.257 . S
C736 Eu672 2.787 . S
C736 O716 1.252 . S
C736 O719 1.268 . S
C736 C729 1.506 . S
C737 C704 1.439 1_556 S
C737 H714 0.931 . S
C737 C738 1.374 1_556 S
C738 C709 1.387 . S
C738 H715 0.934 . S
C738 C737 1.374 1_554 S
C739 O723 1.249 . S
C739 O724 1.264 . S
C740 C743 1.382 . S
C740 C744 1.390 . S
C740 C747 1.506 . S
C741 C742 1.398 . S
C741 C744 1.392 . S
C742 C741 1.398 . S
C742 C745 1.372 . S
C742 H752 0.931 . S
C743 C740 1.382 . S
C743 C745 1.390 . S
C743 H753 0.931 . S
C744 C740 1.390 . S
C744 C741 1.392 . S
C744 H754 0.930 . S
C745 C742 1.372 . S
C745 C743 1.390 . S
C745 H755 0.929 . S
C746 O726 1.255 . S
C746 O727 1.257 . S
C747 Eu683 2.787 . S
C747 O722 1.252 . S
C747 O725 1.268 . S
C747 C740 1.506 . S
H748 C731 0.931 . S
H749 C732 0.931 . S
H750 C733 0.929 . S
H751 C734 0.930 . S
H752 C742 0.931 . S
H753 C743 0.931 . S
H754 C744 0.930 . S
H755 C745 0.929 . S
Eu756 N785 2.600 . S
Eu756 N791 2.562 . S
Eu756 O800 2.462 . S
Eu756 O801 2.373 . S
Eu756 O803 2.432 . S
Eu756 O804 2.291 . S
Eu756 O808 2.335 . S
Eu756 O811 2.372 1_545 S
Eu756 C820 2.787 . S
C757 N758 1.365 . S
C757 C760 1.405 . S
C757 C764 1.448 . S
N758 C757 1.365 . S
N758 C761 1.319 . S
N758 Eu767 2.600 . S
C759 C761 1.397 . S
C759 C762 1.367 . S
C759 H779 0.931 1_565 S
C760 C757 1.405 . S
C760 C762 1.403 . S
C760 C766 1.439 . S
C761 N758 1.319 . S
C761 C759 1.397 . S
C761 H772 0.930 1_565 S
C762 C759 1.367 . S
C762 C760 1.403 . S
C762 H783 0.929 . S
C763 C764 1.430 . S
C763 C765 1.387 . S
C763 C769 1.404 . S
C764 C757 1.448 . S
C764 C763 1.430 . S
C764 N768 1.351 . S
C765 C763 1.387 . S
C765 C766 1.374 . S
C765 H780 0.931 . S
C766 C760 1.439 . S
C766 C765 1.374 . S
C766 H781 0.931 . S
Eu767 N758 2.600 . S
Eu767 N768 2.562 . S
Eu767 O802 2.335 1_565 S
Eu767 O805 2.372 1_565 S
Eu767 O806 2.462 . S
Eu767 O807 2.373 . S
Eu767 O809 2.432 . S
Eu767 O810 2.291 . S
Eu767 C831 2.787 . S
N768 C764 1.351 . S
N768 Eu767 2.562 . S
N768 C770 1.325 . S
C769 C763 1.404 . S
C769 C771 1.366 . S
C769 H777 0.930 . S
C770 N768 1.325 . S
C770 C771 1.416 . S
C770 H776 0.929 . S
C771 C769 1.366 . S
C771 C770 1.416 . S
C771 H773 0.930 . S
H772 C761 0.930 1_545 S
H773 C771 0.930 . S
H774 C789 0.930 . S
H775 C796 0.930 . S
H776 C770 0.929 . S
H777 C769 0.930 . S
H778 C792 0.929 . S
H779 C759 0.931 1_545 S
H780 C765 0.931 . S
H781 C766 0.931 . S
H782 C787 0.931 1_554 S
H783 C762 0.929 . S
H784 C795 0.930 . S
N785 Eu756 2.600 . S
N785 C786 1.365 . S
N785 C789 1.319 . S
C786 N785 1.365 . S
C786 C788 1.405 . S
C786 C794 1.448 . S
C787 H782 0.931 1_556 S
C787 C789 1.397 . S
C787 C790 1.367 1_556 S
C788 C786 1.405 . S
C788 C790 1.403 1_556 S
C788 C821 1.439 1_556 S
C789 H774 0.930 . S
C789 N785 1.319 . S
C789 C787 1.397 . S
C790 C787 1.367 1_554 S
C790 C788 1.403 1_554 S
C790 H797 0.929 . S
N791 Eu756 2.562 . S
N791 C792 1.325 . S
N791 C794 1.351 . S
C792 H778 0.929 . S
C792 N791 1.325 . S
C792 C796 1.416 . S
C793 C794 1.430 . S
C793 C795 1.404 . S
C793 C822 1.387 . S
C794 C786 1.448 . S
C794 N791 1.351 . S
C794 C793 1.430 . S
C795 H784 0.930 . S
C795 C793 1.404 . S
C795 C796 1.366 . S
C796 H775 0.930 . S
C796 C792 1.416 . S
C796 C795 1.366 . S
H797 C790 0.929 . S
H798 C821 0.931 . S
H799 C822 0.931 . S
O800 Eu756 2.462 . S
O800 C820 1.252 . S
O801 Eu756 2.373 . S
O801 C812 1.249 . S
O802 Eu767 2.335 1_545 S
O802 C812 1.264 . S
O803 Eu756 2.432 . S
O803 C820 1.268 . S
O804 Eu756 2.291 . S
O804 C819 1.255 . S
O805 Eu767 2.372 1_545 S
O805 C819 1.257 . S
O806 Eu767 2.462 . S
O806 C831 1.252 . S
O807 Eu767 2.373 . S
O807 C823 1.249 . S
O808 Eu756 2.335 . S
O808 C823 1.264 1_545 S
O809 Eu767 2.432 . S
O809 C831 1.268 . S
O810 Eu767 2.291 . S
O810 C830 1.255 . S
O811 Eu756 2.372 1_565 S
O811 C830 1.257 . S
C812 O801 1.249 . S
C812 O802 1.264 . S
C813 C816 1.382 . S
C813 C818 1.390 . S
C813 C820 1.506 . S
C814 C815 1.398 . S
C814 C818 1.392 . S
C815 C814 1.398 . S
C815 C817 1.372 . S
C815 H832 0.931 . S
C816 C813 1.382 . S
C816 C817 1.390 . S
C816 H833 0.931 . S
C817 C815 1.372 . S
C817 C816 1.390 . S
C817 H834 0.929 . S
C818 C813 1.390 . S
C818 C814 1.392 . S
C818 H835 0.930 . S
C819 O804 1.255 . S
C819 O805 1.257 . S
C820 Eu756 2.787 . S
C820 O800 1.252 . S
C820 O803 1.268 . S
C820 C813 1.506 . S
C821 C788 1.439 1_554 S
C821 H798 0.931 . S
C821 C822 1.374 1_554 S
C822 C793 1.387 . S
C822 H799 0.931 . S
C822 C821 1.374 1_556 S
C823 O807 1.249 . S
C823 O808 1.264 1_565 S
C824 C827 1.382 . S
C824 C828 1.390 . S
C824 C831 1.506 . S
C825 C826 1.398 . S
C825 C828 1.392 . S
C826 C825 1.398 . S
C826 C829 1.372 . S
C826 H836 0.931 . S
C827 C824 1.382 . S
C827 C829 1.390 . S
C827 H837 0.931 . S
C828 C824 1.390 . S
C828 C825 1.392 . S
C828 H838 0.930 . S
C829 C826 1.372 . S
C829 C827 1.390 . S
C829 H839 0.929 . S
C830 O810 1.255 . S
C830 O811 1.257 . S
C831 Eu767 2.787 . S
C831 O806 1.252 . S
C831 O809 1.268 . S
C831 C824 1.506 . S
H832 C815 0.931 . S
H833 C816 0.931 . S
H834 C817 0.929 . S
H835 C818 0.930 . S
H836 C826 0.931 . S
H837 C827 0.931 . S
H838 C828 0.930 . S
H839 C829 0.929 . S
Eu840 N869 2.600 . S
Eu840 N875 2.562 . S
Eu840 O884 2.462 . S
Eu840 O885 2.373 . S
Eu840 O887 2.432 . S
Eu840 O888 2.291 . S
Eu840 O892 2.335 . S
Eu840 O895 2.372 1_565 S
Eu840 C904 2.787 . S
C841 N842 1.365 . S
C841 C844 1.405 . S
C841 C848 1.448 . S
N842 C841 1.365 . S
N842 C845 1.319 . S
N842 Eu851 2.600 . S
C843 C845 1.397 . S
C843 C846 1.367 . S
C843 H863 0.931 1_545 S
C844 C841 1.405 . S
C844 C846 1.403 . S
C844 C850 1.439 . S
C845 N842 1.319 . S
C845 C843 1.397 . S
C845 H856 0.930 1_545 S
C846 C843 1.367 . S
C846 C844 1.403 . S
C846 H867 0.929 . S
C847 C848 1.430 . S
C847 C849 1.387 . S
C847 C853 1.404 . S
C848 C841 1.448 . S
C848 C847 1.430 . S
C848 N852 1.351 . S
C849 C847 1.387 . S
C849 C850 1.374 . S
C849 H864 0.931 . S
C850 C844 1.439 . S
C850 C849 1.374 . S
C850 H865 0.931 . S
Eu851 N842 2.600 . S
Eu851 N852 2.562 . S
Eu851 O886 2.335 1_545 S
Eu851 O889 2.372 1_545 S
Eu851 O890 2.462 . S
Eu851 O891 2.373 . S
Eu851 O893 2.432 . S
Eu851 O894 2.291 . S
Eu851 C915 2.787 . S
N852 C848 1.351 . S
N852 Eu851 2.562 . S
N852 C854 1.325 . S
C853 C847 1.404 . S
C853 C855 1.366 . S
C853 H861 0.930 . S
C854 N852 1.325 . S
C854 C855 1.416 . S
C854 H860 0.929 . S
C855 C853 1.366 . S
C855 C854 1.416 . S
C855 H857 0.930 . S
H856 C845 0.930 1_565 S
H857 C855 0.930 . S
H858 C873 0.930 . S
H859 C880 0.930 . S
H860 C854 0.929 . S
H861 C853 0.930 . S
H862 C876 0.929 . S
H863 C843 0.931 1_565 S
H864 C849 0.931 . S
H865 C850 0.931 . S
H866 C871 0.931 . S
H867 C846 0.929 . S
H868 C879 0.930 . S
N869 Eu840 2.600 . S
N869 C870 1.365 . S
N869 C873 1.319 . S
C870 N869 1.365 . S
C870 C872 1.405 . S
C870 C878 1.448 . S
C871 H866 0.931 . S
C871 C873 1.397 . S
C871 C874 1.367 . S
C872 C870 1.405 . S
C872 C874 1.403 . S
C872 C905 1.439 . S
C873 H858 0.930 . S
C873 N869 1.319 . S
C873 C871 1.397 . S
C874 C871 1.367 . S
C874 C872 1.403 . S
C874 H881 0.929 . S
N875 Eu840 2.562 . S
N875 C876 1.325 . S
N875 C878 1.351 . S
C876 H862 0.929 . S
C876 N875 1.325 . S
C876 C880 1.416 . S
C877 C878 1.430 . S
C877 C879 1.404 . S
C877 C906 1.387 . S
C878 C870 1.448 . S
C878 N875 1.351 . S
C878 C877 1.430 . S
C879 H868 0.930 . S
C879 C877 1.404 . S
C879 C880 1.366 . S
C880 H859 0.930 . S
C880 C876 1.416 . S
C880 C879 1.366 . S
H881 C874 0.929 . S
H882 C905 0.931 . S
H883 C906 0.931 . S
O884 Eu840 2.462 . S
O884 C904 1.252 . S
O885 Eu840 2.373 . S
O885 C896 1.249 . S
O886 Eu851 2.335 1_565 S
O886 C896 1.264 . S
O887 Eu840 2.432 . S
O887 C904 1.268 . S
O888 Eu840 2.291 . S
O888 C903 1.255 . S
O889 Eu851 2.372 1_565 S
O889 C903 1.257 . S
O890 Eu851 2.462 . S
O890 C915 1.252 . S
O891 Eu851 2.373 . S
O891 C907 1.249 . S
O892 Eu840 2.335 . S
O892 C907 1.264 1_565 S
O893 Eu851 2.432 . S
O893 C915 1.268 . S
O894 Eu851 2.291 . S
O894 C914 1.255 . S
O895 Eu840 2.372 1_545 S
O895 C914 1.257 . S
C896 O885 1.249 . S
C896 O886 1.264 . S
C897 C900 1.382 . S
C897 C902 1.390 . S
C897 C904 1.506 . S
C898 C899 1.398 . S
C898 C902 1.392 . S
C899 C898 1.398 . S
C899 C901 1.372 . S
C899 H916 0.931 . S
C900 C897 1.382 . S
C900 C901 1.390 . S
C900 H917 0.931 . S
C901 C899 1.372 . S
C901 C900 1.390 . S
C901 H918 0.929 . S
C902 C897 1.390 . S
C902 C898 1.392 . S
C902 H919 0.930 . S
C903 O888 1.255 . S
C903 O889 1.257 . S
C904 Eu840 2.787 . S
C904 O884 1.252 . S
C904 O887 1.268 . S
C904 C897 1.506 . S
C905 C872 1.439 . S
C905 H882 0.931 . S
C905 C906 1.374 . S
C906 C877 1.387 . S
C906 H883 0.931 . S
C906 C905 1.374 . S
C907 O891 1.249 . S
C907 O892 1.264 1_545 S
C908 C911 1.382 . S
C908 C912 1.390 . S
C908 C915 1.506 . S
C909 C910 1.398 . S
C909 C912 1.392 . S
C910 C909 1.398 . S
C910 C913 1.372 . S
C910 H920 0.931 . S
C911 C908 1.382 . S
C911 C913 1.390 . S
C911 H921 0.931 . S
C912 C908 1.390 . S
C912 C909 1.392 . S
C912 H922 0.930 . S
C913 C910 1.372 . S
C913 C911 1.390 . S
C913 H923 0.929 . S
C914 O894 1.255 . S
C914 O895 1.257 . S
C915 Eu851 2.787 . S
C915 O890 1.252 . S
C915 O893 1.268 . S
C915 C908 1.506 . S
H916 C899 0.931 . S
H917 C900 0.931 . S
H918 C901 0.929 . S
H919 C902 0.930 . S
H920 C910 0.931 . S
H921 C911 0.931 . S
H922 C912 0.930 . S
H923 C913 0.929 . S
Eu924 N953 2.600 . S
Eu924 N959 2.562 . S
Eu924 O968 2.462 . S
Eu924 O969 2.373 . S
Eu924 O971 2.432 . S
Eu924 O972 2.291 . S
Eu924 O976 2.335 . S
Eu924 O979 2.372 . S
Eu924 C988 2.787 . S
C925 N926 1.365 . S
C925 C928 1.405 . S
C925 C932 1.448 . S
N926 C925 1.365 . S
N926 C929 1.319 . S
N926 Eu935 2.600 . S
C927 C929 1.397 . S
C927 C930 1.367 . S
C927 H947 0.931 . S
C928 C925 1.405 . S
C928 C930 1.403 . S
C928 C934 1.439 . S
C929 N926 1.319 . S
C929 C927 1.397 . S
C929 H940 0.930 . S
C930 C927 1.367 . S
C930 C928 1.403 . S
C930 H951 0.929 . S
C931 C932 1.430 . S
C931 C933 1.387 . S
C931 C937 1.404 . S
C932 C925 1.448 . S
C932 C931 1.430 . S
C932 N936 1.351 . S
C933 C931 1.387 . S
C933 C934 1.374 . S
C933 H948 0.931 . S
C934 C928 1.439 . S
C934 C933 1.374 . S
C934 H949 0.931 . S
Eu935 N926 2.600 . S
Eu935 N936 2.562 . S
Eu935 O970 2.335 . S
Eu935 O973 2.372 . S
Eu935 O974 2.462 . S
Eu935 O975 2.373 . S
Eu935 O977 2.432 . S
Eu935 O978 2.291 . S
Eu935 C999 2.787 . S
N936 C932 1.351 . S
N936 Eu935 2.562 . S
N936 C938 1.325 . S
C937 C931 1.404 . S
C937 C939 1.366 . S
C937 H945 0.930 . S
C938 N936 1.325 . S
C938 C939 1.416 . S
C938 H944 0.929 . S
C939 C937 1.366 . S
C939 C938 1.416 . S
C939 H941 0.930 . S
H940 C929 0.930 . S
H941 C939 0.930 . S
H942 C957 0.930 . S
H943 C964 0.930 . S
H944 C938 0.929 . S
H945 C937 0.930 . S
H946 C960 0.929 . S
H947 C927 0.931 . S
H948 C933 0.931 . S
H949 C934 0.931 . S
H950 C955 0.931 . S
H951 C930 0.929 . S
H952 C963 0.930 . S
N953 Eu924 2.600 . S
N953 C954 1.365 . S
N953 C957 1.319 . S
C954 N953 1.365 . S
C954 C956 1.405 . S
C954 C962 1.448 . S
C955 H950 0.931 . S
C955 C957 1.397 . S
C955 C958 1.367 . S
C956 C954 1.405 . S
C956 C958 1.403 . S
C956 C989 1.439 . S
C957 H942 0.930 . S
C957 N953 1.319 . S
C957 C955 1.397 . S
C958 C955 1.367 . S
C958 C956 1.403 . S
C958 H965 0.929 . S
N959 Eu924 2.562 . S
N959 C960 1.325 . S
N959 C962 1.351 . S
C960 H946 0.929 . S
C960 N959 1.325 . S
C960 C964 1.416 . S
C961 C962 1.430 . S
C961 C963 1.404 . S
C961 C990 1.387 . S
C962 C954 1.448 . S
C962 N959 1.351 . S
C962 C961 1.430 . S
C963 H952 0.930 . S
C963 C961 1.404 . S
C963 C964 1.366 . S
C964 H943 0.930 . S
C964 C960 1.416 . S
C964 C963 1.366 . S
H965 C958 0.929 . S
H966 C989 0.931 . S
H967 C990 0.931 . S
O968 Eu924 2.462 . S
O968 C988 1.252 . S
O969 Eu924 2.373 . S
O969 C980 1.249 . S
O970 Eu935 2.335 . S
O970 C980 1.264 . S
O971 Eu924 2.432 . S
O971 C988 1.268 . S
O972 Eu924 2.291 . S
O972 C987 1.255 . S
O973 Eu935 2.372 . S
O973 C987 1.257 . S
O974 Eu935 2.462 . S
O974 C999 1.252 . S
O975 Eu935 2.373 . S
O975 C991 1.249 . S
O976 Eu924 2.335 . S
O976 C991 1.264 . S
O977 Eu935 2.432 . S
O977 C999 1.268 . S
O978 Eu935 2.291 . S
O978 C998 1.255 . S
O979 Eu924 2.372 . S
O979 C998 1.257 . S
C980 O969 1.249 . S
C980 O970 1.264 . S
C981 C984 1.382 . S
C981 C986 1.390 . S
C981 C988 1.506 . S
C982 C983 1.398 . S
C982 C986 1.392 . S
C983 C982 1.398 . S
C983 C985 1.372 . S
C983 H1000 0.931 . S
C984 C981 1.382 . S
C984 C985 1.390 . S
C984 H1001 0.931 . S
C985 C983 1.372 . S
C985 C984 1.390 . S
C985 H1002 0.929 . S
C986 C981 1.390 . S
C986 C982 1.392 . S
C986 H1003 0.930 . S
C987 O972 1.255 . S
C987 O973 1.257 . S
C988 Eu924 2.787 . S
C988 O968 1.252 . S
C988 O971 1.268 . S
C988 C981 1.506 . S
C989 C956 1.439 . S
C989 H966 0.931 . S
C989 C990 1.374 . S
C990 C961 1.387 . S
C990 H967 0.931 . S
C990 C989 1.374 . S
C991 O975 1.249 . S
C991 O976 1.264 . S
C992 C995 1.382 . S
C992 C996 1.390 . S
C992 C999 1.506 . S
C993 C994 1.398 . S
C993 C996 1.392 . S
C994 C993 1.398 . S
C994 C997 1.372 . S
C994 H1004 0.931 . S
C995 C992 1.382 . S
C995 C997 1.390 . S
C995 H1005 0.931 . S
C996 C992 1.390 . S
C996 C993 1.392 . S
C996 H1006 0.930 . S
C997 C994 1.372 . S
C997 C995 1.390 . S
C997 H1007 0.929 . S
C998 O978 1.255 . S
C998 O979 1.257 . S
C999 Eu935 2.787 . S
C999 O974 1.252 . S
C999 O977 1.268 . S
C999 C992 1.506 . S
H1000 C983 0.931 . S
H1001 C984 0.931 . S
H1002 C985 0.929 . S
H1003 C986 0.930 . S
H1004 C994 0.931 . S
H1005 C995 0.931 . S
H1006 C996 0.930 . S
H1007 C997 0.929 . S
H1008 C1020 0.930 . S
H1009 C1022 0.930 . S
H1010 C1023 0.930 . S
H1011 C1027 0.959 . S
H1012 C1027 0.959 . S
H1013 C1027 0.961 . S
H1014 C1028 0.960 . S
H1015 C1028 0.961 . S
H1016 C1028 0.959 . S
H1017 C1031 0.929 . S
H1018 C1032 0.931 . S
H1019 C1034 0.930 . S
C1020 H1008 0.930 . S
C1020 C1021 1.399 . S
C1020 C1025 1.399 . S
C1021 C1020 1.399 . S
C1021 C1022 1.376 . S
C1022 H1009 0.930 . S
C1022 C1021 1.376 . S
C1022 C1023 1.388 . S
C1023 H1010 0.930 . S
C1023 C1022 1.388 . S
C1023 C1024 1.390 . S
C1024 C1023 1.390 . S
C1024 C1025 1.394 . S
C1024 C1030 1.465 . S
C1025 C1020 1.399 . S
C1025 C1024 1.394 . S
C1025 C1026 1.516 . S
C1026 C1025 1.516 . S
C1026 C1027 1.502 . S
C1026 C1028 1.561 . S
C1026 C1029 1.526 . S
C1027 H1011 0.959 . S
C1027 H1012 0.959 . S
C1027 H1013 0.961 . S
C1027 C1026 1.502 . S
C1028 H1014 0.960 . S
C1028 H1015 0.961 . S
C1028 H1016 0.959 . S
C1028 C1026 1.561 . S
C1029 C1026 1.526 . S
C1029 C1030 1.396 . S
C1029 C1034 1.390 . S
C1030 C1024 1.465 . S
C1030 C1029 1.396 . S
C1030 C1031 1.399 . S
C1031 H1017 0.929 . S
C1031 C1030 1.399 . S
C1031 C1032 1.385 . S
C1032 H1018 0.931 . S
C1032 C1031 1.385 . S
C1032 C1033 1.389 . S
C1033 C1032 1.389 . S
C1033 C1034 1.387 . S
C1034 H1019 0.930 . S
C1034 C1029 1.390 . S
C1034 C1033 1.387 . S
H1035 C1047 0.930 . S
H1036 C1049 0.930 . S
H1037 C1050 0.930 . S
H1038 C1054 0.959 . S
H1039 C1054 0.959 . S
H1040 C1054 0.961 . S
H1041 C1055 0.960 . S
H1042 C1055 0.961 . S
H1043 C1055 0.959 . S
H1044 C1058 0.929 . S
H1045 C1059 0.931 . S
H1046 C1061 0.930 . S
C1047 H1035 0.930 . S
C1047 C1048 1.399 . S
C1047 C1052 1.399 . S
C1048 C1047 1.399 . S
C1048 C1049 1.376 . S
C1049 H1036 0.930 . S
C1049 C1048 1.376 . S
C1049 C1050 1.388 . S
C1050 H1037 0.930 . S
C1050 C1049 1.388 . S
C1050 C1051 1.390 . S
C1051 C1050 1.390 . S
C1051 C1052 1.394 . S
C1051 C1057 1.465 . S
C1052 C1047 1.399 . S
C1052 C1051 1.394 . S
C1052 C1053 1.516 . S
C1053 C1052 1.516 . S
C1053 C1054 1.502 . S
C1053 C1055 1.561 . S
C1053 C1056 1.526 . S
C1054 H1038 0.959 . S
C1054 H1039 0.959 . S
C1054 H1040 0.961 . S
C1054 C1053 1.502 . S
C1055 H1041 0.960 . S
C1055 H1042 0.961 . S
C1055 H1043 0.959 . S
C1055 C1053 1.561 . S
C1056 C1053 1.526 . S
C1056 C1057 1.396 . S
C1056 C1061 1.390 . S
C1057 C1051 1.465 . S
C1057 C1056 1.396 . S
C1057 C1058 1.399 . S
C1058 H1044 0.929 . S
C1058 C1057 1.399 . S
C1058 C1059 1.385 . S
C1059 H1045 0.931 . S
C1059 C1058 1.385 . S
C1059 C1060 1.389 . S
C1060 C1059 1.389 . S
C1060 C1061 1.387 . S
C1061 H1046 0.930 . S
C1061 C1056 1.390 . S
C1061 C1060 1.387 . S
H1062 C1074 0.930 1_556 S
H1063 C1076 0.930 . S
H1064 C1077 0.930 . S
H1065 C1081 0.959 . S
H1066 C1081 0.959 . S
H1067 C1081 0.961 . S
H1068 C1082 0.960 . S
H1069 C1082 0.961 . S
H1070 C1082 0.959 1_554 S
H1071 C1085 0.929 . S
H1072 C1086 0.931 . S
H1073 C1088 0.930 . S
C1074 H1062 0.930 1_554 S
C1074 C1075 1.399 . S
C1074 C1079 1.399 . S
C1075 C1074 1.399 . S
C1075 C1076 1.376 . S
C1076 H1063 0.930 . S
C1076 C1075 1.376 . S
C1076 C1077 1.388 . S
C1077 H1064 0.930 . S
C1077 C1076 1.388 . S
C1077 C1078 1.390 . S
C1078 C1077 1.390 . S
C1078 C1079 1.394 . S
C1078 C1084 1.465 . S
C1079 C1074 1.399 . S
C1079 C1078 1.394 . S
C1079 C1080 1.516 . S
C1080 C1079 1.516 . S
C1080 C1081 1.502 1_554 S
C1080 C1082 1.561 1_554 S
C1080 C1083 1.526 . S
C1081 H1065 0.959 . S
C1081 H1066 0.959 . S
C1081 H1067 0.961 . S
C1081 C1080 1.502 1_556 S
C1082 H1068 0.960 . S
C1082 H1069 0.961 . S
C1082 H1070 0.959 1_556 S
C1082 C1080 1.561 1_556 S
C1083 C1080 1.526 . S
C1083 C1084 1.396 . S
C1083 C1088 1.390 . S
C1084 C1078 1.465 . S
C1084 C1083 1.396 . S
C1084 C1085 1.399 . S
C1085 H1071 0.929 . S
C1085 C1084 1.399 . S
C1085 C1086 1.385 . S
C1086 H1072 0.931 . S
C1086 C1085 1.385 . S
C1086 C1087 1.389 . S
C1087 C1086 1.389 . S
C1087 C1088 1.387 . S
C1088 H1073 0.930 . S
C1088 C1083 1.390 . S
C1088 C1087 1.387 . S
H1089 C1101 0.930 . S
H1090 C1103 0.930 . S
H1091 C1104 0.946 . S
H1092 C1108 0.959 . S
H1093 C1108 0.959 . S
H1094 C1108 0.961 . S
H1095 C1109 0.960 . S
H1096 C1109 0.961 . S
H1097 C1109 0.959 . S
H1098 C1112 0.929 . S
H1099 C1113 0.931 . S
H1100 C1115 0.930 . S
C1101 H1089 0.930 . S
C1101 C1102 1.399 . S
C1101 C1106 1.399 . S
C1102 C1101 1.399 . S
C1102 C1103 1.376 . S
C1103 H1090 0.930 . S
C1103 C1102 1.376 . S
C1103 C1104 1.388 . S
C1104 H1091 0.946 . S
C1104 C1103 1.388 . S
C1104 C1105 1.390 . S
C1105 C1104 1.390 . S
C1105 C1106 1.394 . S
C1105 C1111 1.465 . S
C1106 C1101 1.399 . S
C1106 C1105 1.394 . S
C1106 C1107 1.516 . S
C1107 C1106 1.516 . S
C1107 C1108 1.502 . S
C1107 C1109 1.561 . S
C1107 C1110 1.526 . S
C1108 H1092 0.959 . S
C1108 H1093 0.959 . S
C1108 H1094 0.961 . S
C1108 C1107 1.502 . S
C1109 H1095 0.960 . S
C1109 H1096 0.961 . S
C1109 H1097 0.959 . S
C1109 C1107 1.561 . S
C1110 C1107 1.526 . S
C1110 C1111 1.396 . S
C1110 C1115 1.390 . S
C1111 C1105 1.465 . S
C1111 C1110 1.396 . S
C1111 C1112 1.399 1_545 S
C1112 H1098 0.929 . S
C1112 C1111 1.399 1_565 S
C1112 C1113 1.385 . S
C1113 H1099 0.931 . S
C1113 C1112 1.385 . S
C1113 C1114 1.389 1_565 S
C1114 C1113 1.389 1_545 S
C1114 C1115 1.387 . S
C1115 H1100 0.930 . S
C1115 C1110 1.390 . S
C1115 C1114 1.387 . S
H1116 C1128 0.930 . S
H1117 C1130 0.930 . S
H1118 C1131 0.930 . S
H1119 C1135 0.959 . S
H1120 C1135 0.959 . S
H1121 C1135 0.961 . S
H1122 C1136 0.960 . S
H1123 C1136 0.961 . S
H1124 C1136 0.959 . S
H1125 C1139 0.929 . S
H1126 C1140 0.931 . S
H1127 C1142 0.930 . S
C1128 H1116 0.930 . S
C1128 C1129 1.399 . S
C1128 C1133 1.399 . S
C1129 C1128 1.399 . S
C1129 C1130 1.376 . S
C1130 H1117 0.930 . S
C1130 C1129 1.376 . S
C1130 C1131 1.388 . S
C1131 H1118 0.930 . S
C1131 C1130 1.388 . S
C1131 C1132 1.390 . S
C1132 C1131 1.390 . S
C1132 C1133 1.394 . S
C1132 C1138 1.465 . S
C1133 C1128 1.399 . S
C1133 C1132 1.394 . S
C1133 C1134 1.516 . S
C1134 C1133 1.516 . S
C1134 C1135 1.502 . S
C1134 C1136 1.561 . S
C1134 C1137 1.526 . S
C1135 H1119 0.959 . S
C1135 H1120 0.959 . S
C1135 H1121 0.961 . S
C1135 C1134 1.502 . S
C1136 H1122 0.960 . S
C1136 H1123 0.961 . S
C1136 H1124 0.959 . S
C1136 C1134 1.561 . S
C1137 C1134 1.526 . S
C1137 C1138 1.396 . S
C1137 C1142 1.390 . S
C1138 C1132 1.465 . S
C1138 C1137 1.396 . S
C1138 C1139 1.399 . S
C1139 H1125 0.929 . S
C1139 C1138 1.399 . S
C1139 C1140 1.385 . S
C1140 H1126 0.931 . S
C1140 C1139 1.385 . S
C1140 C1141 1.389 . S
C1141 C1140 1.389 . S
C1141 C1142 1.387 . S
C1142 H1127 0.930 . S
C1142 C1137 1.390 . S
C1142 C1141 1.387 . S
H1143 C1155 0.930 . S
H1144 C1157 0.930 . S
H1145 C1158 0.930 . S
H1146 C1162 0.959 . S
H1147 C1162 0.959 . S
H1148 C1162 0.961 . S
H1149 C1163 0.960 . S
H1150 C1163 0.961 . S
H1151 C1163 0.959 . S
H1152 C1166 0.929 . S
H1153 C1167 0.931 . S
H1154 C1169 0.930 . S
C1155 H1143 0.930 . S
C1155 C1156 1.399 . S
C1155 C1160 1.399 . S
C1156 C1155 1.399 . S
C1156 C1157 1.376 . S
C1157 H1144 0.930 . S
C1157 C1156 1.376 . S
C1157 C1158 1.388 . S
C1158 H1145 0.930 . S
C1158 C1157 1.388 . S
C1158 C1159 1.390 . S
C1159 C1158 1.390 . S
C1159 C1160 1.394 . S
C1159 C1165 1.465 . S
C1160 C1155 1.399 . S
C1160 C1159 1.394 . S
C1160 C1161 1.516 . S
C1161 C1160 1.516 . S
C1161 C1162 1.502 . S
C1161 C1163 1.561 . S
C1161 C1164 1.526 . S
C1162 H1146 0.959 . S
C1162 H1147 0.959 . S
C1162 H1148 0.961 . S
C1162 C1161 1.502 . S
C1163 H1149 0.960 . S
C1163 H1150 0.961 . S
C1163 H1151 0.959 . S
C1163 C1161 1.561 . S
C1164 C1161 1.526 . S
C1164 C1165 1.396 . S
C1164 C1169 1.390 . S
C1165 C1159 1.465 . S
C1165 C1164 1.396 . S
C1165 C1166 1.399 . S
C1166 H1152 0.929 . S
C1166 C1165 1.399 . S
C1166 C1167 1.385 . S
C1167 H1153 0.931 . S
C1167 C1166 1.385 . S
C1167 C1168 1.389 . S
C1168 C1167 1.389 . S
C1168 C1169 1.387 . S
C1169 H1154 0.930 . S
C1169 C1164 1.390 . S
C1169 C1168 1.387 . S
H1170 C1182 0.930 . S
H1171 C1184 0.930 . S
H1172 C1185 0.930 . S
H1173 C1189 0.959 . S
H1174 C1189 0.959 . S
H1175 C1189 0.961 . S
H1176 C1190 0.960 . S
H1177 C1190 0.961 . S
H1178 C1190 0.959 . S
H1179 C1193 0.929 . S
H1180 C1194 0.931 . S
H1181 C1196 0.930 . S
C1182 H1170 0.930 . S
C1182 C1183 1.399 . S
C1182 C1187 1.399 . S
C1183 C1182 1.399 . S
C1183 C1184 1.376 . S
C1184 H1171 0.930 . S
C1184 C1183 1.376 . S
C1184 C1185 1.388 . S
C1185 H1172 0.930 . S
C1185 C1184 1.388 . S
C1185 C1186 1.390 . S
C1186 C1185 1.390 . S
C1186 C1187 1.394 . S
C1186 C1192 1.465 . S
C1187 C1182 1.399 . S
C1187 C1186 1.394 . S
C1187 C1188 1.516 . S
C1188 C1187 1.516 . S
C1188 C1189 1.502 . S
C1188 C1190 1.561 . S
C1188 C1191 1.526 . S
C1189 H1173 0.959 . S
C1189 H1174 0.959 . S
C1189 H1175 0.961 . S
C1189 C1188 1.502 . S
C1190 H1176 0.960 . S
C1190 H1177 0.961 . S
C1190 H1178 0.959 . S
C1190 C1188 1.561 . S
C1191 C1188 1.526 . S
C1191 C1192 1.396 . S
C1191 C1196 1.390 . S
C1192 C1186 1.465 . S
C1192 C1191 1.396 . S
C1192 C1193 1.399 1_556 S
C1193 H1179 0.929 . S
C1193 C1192 1.399 1_554 S
C1193 C1194 1.385 . S
C1194 H1180 0.931 . S
C1194 C1193 1.385 . S
C1194 C1195 1.389 1_554 S
C1195 C1194 1.389 1_556 S
C1195 C1196 1.387 . S
C1196 H1181 0.930 . S
C1196 C1191 1.390 . S
C1196 C1195 1.387 . S
H1197 C1209 0.930 . S
H1198 C1211 0.930 . S
H1199 C1212 0.930 . S
H1200 C1216 0.959 . S
H1201 C1216 0.959 . S
H1202 C1216 0.961 . S
H1203 C1217 0.960 . S
H1204 C1217 0.961 . S
H1205 C1217 0.959 . S
H1206 C1220 0.929 . S
H1207 C1221 0.931 . S
H1208 C1223 0.930 . S
C1209 H1197 0.930 . S
C1209 C1210 1.399 . S
C1209 C1214 1.399 . S
C1210 C1209 1.399 . S
C1210 C1211 1.376 . S
C1211 H1198 0.930 . S
C1211 C1210 1.376 . S
C1211 C1212 1.388 . S
C1212 H1199 0.930 . S
C1212 C1211 1.388 . S
C1212 C1213 1.390 . S
C1213 C1212 1.390 . S
C1213 C1214 1.394 . S
C1213 C1219 1.465 . S
C1214 C1209 1.399 . S
C1214 C1213 1.394 . S
C1214 C1215 1.516 . S
C1215 C1214 1.516 . S
C1215 C1216 1.502 . S
C1215 C1217 1.561 . S
C1215 C1218 1.526 . S
C1216 H1200 0.959 . S
C1216 H1201 0.959 . S
C1216 H1202 0.961 . S
C1216 C1215 1.502 . S
C1217 H1203 0.960 . S
C1217 H1204 0.961 . S
C1217 H1205 0.959 . S
C1217 C1215 1.561 . S
C1218 C1215 1.526 . S
C1218 C1219 1.396 . S
C1218 C1223 1.390 . S
C1219 C1213 1.465 . S
C1219 C1218 1.396 . S
C1219 C1220 1.399 . S
C1220 H1206 0.929 . S
C1220 C1219 1.399 . S
C1220 C1221 1.385 . S
C1221 H1207 0.931 . S
C1221 C1220 1.385 . S
C1221 C1222 1.389 . S
C1222 C1221 1.389 . S
C1222 C1223 1.387 . S
C1223 H1208 0.930 . S
C1223 C1218 1.390 . S
C1223 C1222 1.387 . S
H1224 C1236 0.930 . S
H1225 C1238 0.930 . S
H1226 C1239 0.930 . S
H1227 C1243 0.959 . S
H1228 C1243 0.959 . S
H1229 C1243 0.961 . S
H1230 C1244 0.960 . S
H1231 C1244 0.961 . S
H1232 C1244 0.959 . S
H1233 C1247 0.929 . S
H1234 C1248 0.931 . S
H1235 C1250 0.930 . S
C1236 H1224 0.930 . S
C1236 C1237 1.399 . S
C1236 C1241 1.399 . S
C1237 C1236 1.399 . S
C1237 C1238 1.376 . S
C1238 H1225 0.930 . S
C1238 C1237 1.376 . S
C1238 C1239 1.388 . S
C1239 H1226 0.930 . S
C1239 C1238 1.388 . S
C1239 C1240 1.390 . S
C1240 C1239 1.390 . S
C1240 C1241 1.394 . S
C1240 C1246 1.465 . S
C1241 C1236 1.399 . S
C1241 C1240 1.394 . S
C1241 C1242 1.516 . S
C1242 C1241 1.516 . S
C1242 C1243 1.502 . S
C1242 C1244 1.561 . S
C1242 C1245 1.526 . S
C1243 H1227 0.959 . S
C1243 H1228 0.959 . S
C1243 H1229 0.961 . S
C1243 C1242 1.502 . S
C1244 H1230 0.960 . S
C1244 H1231 0.961 . S
C1244 H1232 0.959 . S
C1244 C1242 1.561 . S
C1245 C1242 1.526 . S
C1245 C1246 1.396 . S
C1245 C1250 1.390 . S
C1246 C1240 1.465 . S
C1246 C1245 1.396 . S
C1246 C1247 1.399 . S
C1247 H1233 0.929 . S
C1247 C1246 1.399 . S
C1247 C1248 1.385 . S
C1248 H1234 0.931 . S
C1248 C1247 1.385 . S
C1248 C1249 1.389 . S
C1249 C1248 1.389 . S
C1249 C1250 1.387 . S
C1250 H1235 0.930 . S
C1250 C1245 1.390 . S
C1250 C1249 1.387 . S
H1251 C1263 0.930 . S
H1252 C1265 0.930 . S
H1253 C1266 0.930 . S
H1254 C1270 0.959 . S
H1255 C1270 0.959 . S
H1256 C1270 0.961 . S
H1257 C1271 0.960 . S
H1258 C1271 0.961 . S
H1259 C1271 0.959 . S
H1260 C1274 0.929 1_655 S
H1261 C1275 0.931 . S
H1262 C1277 0.930 . S
C1263 H1251 0.930 . S
C1263 C1264 1.399 . S
C1263 C1268 1.399 . S
C1264 C1263 1.399 . S
C1264 C1265 1.376 . S
C1265 H1252 0.930 . S
C1265 C1264 1.376 . S
C1265 C1266 1.388 . S
C1266 H1253 0.930 . S
C1266 C1265 1.388 . S
C1266 C1267 1.390 . S
C1267 C1266 1.390 . S
C1267 C1268 1.394 . S
C1267 C1273 1.465 . S
C1268 C1263 1.399 . S
C1268 C1267 1.394 . S
C1268 C1269 1.516 . S
C1269 C1268 1.516 . S
C1269 C1270 1.502 . S
C1269 C1271 1.561 . S
C1269 C1272 1.526 . S
C1270 H1254 0.959 . S
C1270 H1255 0.959 . S
C1270 H1256 0.961 . S
C1270 C1269 1.502 . S
C1271 H1257 0.960 . S
C1271 H1258 0.961 . S
C1271 H1259 0.959 . S
C1271 C1269 1.561 . S
C1272 C1269 1.526 . S
C1272 C1273 1.396 . S
C1272 C1277 1.390 . S
C1273 C1267 1.465 . S
C1273 C1272 1.396 . S
C1273 C1274 1.399 . S
C1274 H1260 0.929 1_455 S
C1274 C1273 1.399 . S
C1274 C1275 1.385 1_455 S
C1275 H1261 0.931 . S
C1275 C1274 1.385 1_655 S
C1275 C1276 1.389 1_655 S
C1276 C1275 1.389 1_455 S
C1276 C1277 1.387 . S
C1277 H1262 0.930 . S
C1277 C1272 1.390 . S
C1277 C1276 1.387 . S
H1278 C1290 0.930 . S
H1279 C1292 0.930 . S
H1280 C1293 0.930 . S
H1281 C1297 0.959 . S
H1282 C1297 0.959 . S
H1283 C1297 0.961 . S
H1284 C1298 0.960 . S
H1285 C1298 0.961 . S
H1286 C1298 0.959 . S
H1287 C1301 0.929 1_455 S
H1288 C1302 0.931 . S
H1289 C1304 0.930 . S
C1290 H1278 0.930 . S
C1290 C1291 1.399 . S
C1290 C1295 1.399 . S
C1291 C1290 1.399 . S
C1291 C1292 1.376 1_655 S
C1292 H1279 0.930 . S
C1292 C1291 1.376 1_455 S
C1292 C1293 1.388 . S
C1293 H1280 0.930 . S
C1293 C1292 1.388 . S
C1293 C1294 1.390 1_455 S
C1294 C1293 1.390 1_655 S
C1294 C1295 1.394 . S
C1294 C1300 1.465 . S
C1295 C1290 1.399 . S
C1295 C1294 1.394 . S
C1295 C1296 1.516 . S
C1296 C1295 1.516 . S
C1296 C1297 1.502 . S
C1296 C1298 1.561 . S
C1296 C1299 1.526 . S
C1297 H1281 0.959 . S
C1297 H1282 0.959 . S
C1297 H1283 0.961 . S
C1297 C1296 1.502 . S
C1298 H1284 0.960 . S
C1298 H1285 0.961 . S
C1298 H1286 0.959 . S
C1298 C1296 1.561 . S
C1299 C1296 1.526 . S
C1299 C1300 1.396 . S
C1299 C1304 1.390 . S
C1300 C1294 1.465 . S
C1300 C1299 1.396 . S
C1300 C1301 1.399 . S
C1301 H1287 0.929 1_655 S
C1301 C1300 1.399 . S
C1301 C1302 1.385 . S
C1302 H1288 0.931 . S
C1302 C1301 1.385 . S
C1302 C1303 1.389 . S
C1303 C1302 1.389 . S
C1303 C1304 1.387 . S
C1304 H1289 0.930 . S
C1304 C1299 1.390 . S
C1304 C1303 1.387 . S
H1305 C1317 0.930 . S
H1306 C1319 0.930 . S
H1307 C1320 0.930 . S
H1308 C1324 0.959 . S
H1309 C1324 0.959 . S
H1310 C1324 0.961 . S
H1311 C1325 0.960 . S
H1312 C1325 0.961 . S
H1313 C1325 0.959 . S
H1314 C1328 0.929 . S
H1315 C1329 0.931 . S
H1316 C1331 0.930 . S
C1317 H1305 0.930 . S
C1317 C1318 1.399 . S
C1317 C1322 1.399 . S
C1318 C1317 1.399 . S
C1318 C1319 1.376 . S
C1319 H1306 0.930 . S
C1319 C1318 1.376 . S
C1319 C1320 1.388 . S
C1320 H1307 0.930 . S
C1320 C1319 1.388 . S
C1320 C1321 1.390 . S
C1321 C1320 1.390 . S
C1321 C1322 1.394 . S
C1321 C1327 1.465 . S
C1322 C1317 1.399 . S
C1322 C1321 1.394 . S
C1322 C1323 1.516 . S
C1323 C1322 1.516 . S
C1323 C1324 1.502 . S
C1323 C1325 1.561 . S
C1323 C1326 1.526 . S
C1324 H1308 0.959 . S
C1324 H1309 0.959 . S
C1324 H1310 0.961 . S
C1324 C1323 1.502 . S
C1325 H1311 0.960 . S
C1325 H1312 0.961 . S
C1325 H1313 0.959 . S
C1325 C1323 1.561 . S
C1326 C1323 1.526 . S
C1326 C1327 1.396 . S
C1326 C1331 1.390 . S
C1327 C1321 1.465 . S
C1327 C1326 1.396 . S
C1327 C1328 1.399 . S
C1328 H1314 0.929 . S
C1328 C1327 1.399 . S
C1328 C1329 1.385 . S
C1329 H1315 0.931 . S
C1329 C1328 1.385 . S
C1329 C1330 1.389 . S
C1330 C1329 1.389 . S
C1330 C1331 1.387 . S
C1331 H1316 0.930 . S
C1331 C1326 1.390 . S
C1331 C1330 1.387 . S
H1332 C1344 0.930 . S
H1333 C1346 0.930 . S
H1334 C1347 0.930 . S
H1335 C1351 0.959 . S
H1336 C1351 0.959 . S
H1337 C1351 0.961 . S
H1338 C1352 0.960 . S
H1339 C1352 0.961 . S
H1340 C1352 0.959 . S
H1341 C1355 0.929 . S
H1342 C1356 0.931 . S
H1343 C1358 0.930 . S
C1344 H1332 0.930 . S
C1344 C1345 1.399 . S
C1344 C1349 1.399 . S
C1345 C1344 1.399 . S
C1345 C1346 1.376 . S
C1346 H1333 0.930 . S
C1346 C1345 1.376 . S
C1346 C1347 1.388 . S
C1347 H1334 0.930 . S
C1347 C1346 1.388 . S
C1347 C1348 1.390 . S
C1348 C1347 1.390 . S
C1348 C1349 1.394 . S
C1348 C1354 1.465 . S
C1349 C1344 1.399 . S
C1349 C1348 1.394 . S
C1349 C1350 1.516 . S
C1350 C1349 1.516 . S
C1350 C1351 1.502 . S
C1350 C1352 1.561 . S
C1350 C1353 1.526 . S
C1351 H1335 0.959 . S
C1351 H1336 0.959 . S
C1351 H1337 0.961 . S
C1351 C1350 1.502 . S
C1352 H1338 0.960 . S
C1352 H1339 0.961 . S
C1352 H1340 0.959 . S
C1352 C1350 1.561 . S
C1353 C1350 1.526 . S
C1353 C1354 1.396 . S
C1353 C1358 1.390 . S
C1354 C1348 1.465 . S
C1354 C1353 1.396 . S
C1354 C1355 1.399 . S
C1355 H1341 0.929 . S
C1355 C1354 1.399 . S
C1355 C1356 1.385 . S
C1356 H1342 0.931 . S
C1356 C1355 1.385 . S
C1356 C1357 1.389 . S
C1357 C1356 1.389 . S
C1357 C1358 1.387 . S
C1358 H1343 0.930 . S
C1358 C1353 1.390 . S
C1358 C1357 1.387 . S
H1359 C1371 0.930 . S
H1360 C1373 0.930 . S
H1361 C1374 0.930 . S
H1362 C1378 0.959 . S
H1363 C1378 0.959 . S
H1364 C1378 0.961 . S
H1365 C1379 0.960 . S
H1366 C1379 0.961 . S
H1367 C1379 0.959 . S
H1368 C1382 0.929 . S
H1369 C1383 0.931 . S
H1370 C1385 0.930 . S
C1371 H1359 0.930 . S
C1371 C1372 1.399 . S
C1371 C1376 1.399 . S
C1372 C1371 1.399 . S
C1372 C1373 1.376 . S
C1373 H1360 0.930 . S
C1373 C1372 1.376 . S
C1373 C1374 1.388 . S
C1374 H1361 0.930 . S
C1374 C1373 1.388 . S
C1374 C1375 1.390 . S
C1375 C1374 1.390 . S
C1375 C1376 1.394 . S
C1375 C1381 1.465 . S
C1376 C1371 1.399 . S
C1376 C1375 1.394 . S
C1376 C1377 1.516 . S
C1377 C1376 1.516 . S
C1377 C1378 1.502 . S
C1377 C1379 1.561 1_565 S
C1377 C1380 1.526 . S
C1378 H1362 0.959 . S
C1378 H1363 0.959 . S
C1378 H1364 0.961 . S
C1378 C1377 1.502 . S
C1379 H1365 0.960 . S
C1379 H1366 0.961 . S
C1379 H1367 0.959 . S
C1379 C1377 1.561 1_545 S
C1380 C1377 1.526 . S
C1380 C1381 1.396 . S
C1380 C1385 1.390 . S
C1381 C1375 1.465 . S
C1381 C1380 1.396 . S
C1381 C1382 1.399 . S
C1382 H1368 0.929 . S
C1382 C1381 1.399 . S
C1382 C1383 1.385 . S
C1383 H1369 0.931 . S
C1383 C1382 1.385 . S
C1383 C1384 1.389 . S
C1384 C1383 1.389 . S
C1384 C1385 1.387 . S
C1385 H1370 0.930 . S
C1385 C1380 1.390 . S
C1385 C1384 1.387 . S
H1386 C1398 0.930 . S
H1387 C1400 0.930 . S
H1388 C1401 0.930 . S
H1389 C1405 0.959 . S
H1390 C1405 0.959 . S
H1391 C1405 0.961 . S
H1392 C1406 0.960 . S
H1393 C1406 0.961 . S
H1394 C1406 0.959 . S
H1395 C1409 0.929 . S
H1396 C1410 0.931 . S
H1397 C1412 0.930 . S
C1398 H1386 0.930 . S
C1398 C1399 1.399 . S
C1398 C1403 1.399 . S
C1399 C1398 1.399 . S
C1399 C1400 1.376 . S
C1400 H1387 0.930 . S
C1400 C1399 1.376 . S
C1400 C1401 1.388 . S
C1401 H1388 0.930 . S
C1401 C1400 1.388 . S
C1401 C1402 1.390 . S
C1402 C1401 1.390 . S
C1402 C1403 1.394 . S
C1402 C1408 1.465 . S
C1403 C1398 1.399 . S
C1403 C1402 1.394 . S
C1403 C1404 1.516 . S
C1404 C1403 1.516 . S
C1404 C1405 1.502 . S
C1404 C1406 1.561 . S
C1404 C1407 1.526 . S
C1405 H1389 0.959 . S
C1405 H1390 0.959 . S
C1405 H1391 0.961 . S
C1405 C1404 1.502 . S
C1406 H1392 0.960 . S
C1406 H1393 0.961 . S
C1406 H1394 0.959 . S
C1406 C1404 1.561 . S
C1407 C1404 1.526 . S
C1407 C1408 1.396 . S
C1407 C1412 1.390 . S
C1408 C1402 1.465 . S
C1408 C1407 1.396 . S
C1408 C1409 1.399 . S
C1409 H1395 0.929 . S
C1409 C1408 1.399 . S
C1409 C1410 1.385 . S
C1410 H1396 0.931 . S
C1410 C1409 1.385 . S
C1410 C1411 1.389 . S
C1411 C1410 1.389 . S
C1411 C1412 1.387 . S
C1412 H1397 0.930 . S
C1412 C1407 1.390 . S
C1412 C1411 1.387 . S
H1413 C1425 0.930 . S
H1414 C1427 0.930 . S
H1415 C1428 0.930 . S
H1416 C1432 0.959 . S
H1417 C1432 0.959 . S
H1418 C1432 0.961 . S
H1419 C1433 0.960 . S
H1420 C1433 0.961 . S
H1421 C1433 0.959 . S
H1422 C1436 0.929 . S
H1423 C1437 0.931 . S
H1424 C1439 0.930 . S
C1425 H1413 0.930 . S
C1425 C1426 1.399 . S
C1425 C1430 1.399 . S
C1426 C1425 1.399 . S
C1426 C1427 1.376 . S
C1427 H1414 0.930 . S
C1427 C1426 1.376 . S
C1427 C1428 1.388 . S
C1428 H1415 0.930 . S
C1428 C1427 1.388 . S
C1428 C1429 1.390 . S
C1429 C1428 1.390 . S
C1429 C1430 1.394 . S
C1429 C1435 1.465 1_554 S
C1430 C1425 1.399 . S
C1430 C1429 1.394 . S
C1430 C1431 1.516 . S
C1431 C1430 1.516 . S
C1431 C1432 1.502 . S
C1431 C1433 1.561 1_545 S
C1431 C1434 1.526 1_554 S
C1432 H1416 0.959 . S
C1432 H1417 0.959 . S
C1432 H1418 0.961 . S
C1432 C1431 1.502 . S
C1433 H1419 0.960 . S
C1433 H1420 0.961 . S
C1433 H1421 0.959 . S
C1433 C1431 1.561 1_565 S
C1434 C1431 1.526 1_556 S
C1434 C1435 1.396 . S
C1434 C1439 1.390 . S
C1435 C1429 1.465 1_556 S
C1435 C1434 1.396 . S
C1435 C1436 1.399 . S
C1436 H1422 0.929 . S
C1436 C1435 1.399 . S
C1436 C1437 1.385 . S
C1437 H1423 0.931 . S
C1437 C1436 1.385 . S
C1437 C1438 1.389 . S
C1438 C1437 1.389 . S
C1438 C1439 1.387 . S
C1439 H1424 0.930 . S
C1439 C1434 1.390 . S
C1439 C1438 1.387 . S
H1440 C1452 0.930 . S
H1441 C1454 0.930 . S
H1442 C1455 0.930 . S
H1443 C1459 0.959 . S
H1444 C1459 0.959 . S
H1445 C1459 0.961 . S
H1446 C1460 0.960 . S
H1447 C1460 0.961 . S
H1448 C1460 0.959 . S
H1449 C1463 0.929 . S
H1450 C1464 0.931 . S
H1451 C1466 0.930 . S
C1452 H1440 0.930 . S
C1452 C1453 1.399 . S
C1452 C1457 1.399 . S
C1453 C1452 1.399 . S
C1453 C1454 1.376 . S
C1454 H1441 0.930 . S
C1454 C1453 1.376 . S
C1454 C1455 1.388 . S
C1455 H1442 0.930 . S
C1455 C1454 1.388 . S
C1455 C1456 1.390 . S
C1456 C1455 1.390 . S
C1456 C1457 1.394 . S
C1456 C1462 1.465 . S
C1457 C1452 1.399 . S
C1457 C1456 1.394 . S
C1457 C1458 1.516 . S
C1458 C1457 1.516 . S
C1458 C1459 1.502 . S
C1458 C1460 1.561 . S
C1458 C1461 1.526 . S
C1459 H1443 0.959 . S
C1459 H1444 0.959 . S
C1459 H1445 0.961 . S
C1459 C1458 1.502 . S
C1460 H1446 0.960 . S
C1460 H1447 0.961 . S
C1460 H1448 0.959 . S
C1460 C1458 1.561 . S
C1461 C1458 1.526 . S
C1461 C1462 1.396 . S
C1461 C1466 1.390 . S
C1462 C1456 1.465 . S
C1462 C1461 1.396 . S
C1462 C1463 1.399 . S
C1463 H1449 0.929 . S
C1463 C1462 1.399 . S
C1463 C1464 1.385 . S
C1464 H1450 0.931 . S
C1464 C1463 1.385 . S
C1464 C1465 1.389 . S
C1465 C1464 1.389 . S
C1465 C1466 1.387 . S
C1466 H1451 0.930 . S
C1466 C1461 1.390 . S
C1466 C1465 1.387 . S
H1467 C1479 0.930 . S
H1468 C1481 0.930 . S
H1469 C1482 0.930 . S
H1470 C1486 0.959 . S
H1471 C1486 0.959 . S
H1472 C1486 0.961 1_554 S
H1473 C1487 0.960 . S
H1474 C1487 0.961 . S
H1475 C1487 0.959 . S
H1476 C1490 0.929 . S
H1477 C1491 0.931 . S
H1478 C1493 0.930 . S
C1479 H1467 0.930 . S
C1479 C1480 1.399 . S
C1479 C1484 1.399 . S
C1480 C1479 1.399 . S
C1480 C1481 1.376 . S
C1481 H1468 0.930 . S
C1481 C1480 1.376 . S
C1481 C1482 1.388 . S
C1482 H1469 0.930 . S
C1482 C1481 1.388 . S
C1482 C1483 1.390 1_554 S
C1483 C1482 1.390 1_556 S
C1483 C1484 1.394 1_556 S
C1483 C1489 1.465 . S
C1484 C1479 1.399 . S
C1484 C1483 1.394 1_554 S
C1484 C1485 1.516 1_554 S
C1485 C1484 1.516 1_556 S
C1485 C1486 1.502 . S
C1485 C1487 1.561 . S
C1485 C1488 1.526 . S
C1486 H1470 0.959 . S
C1486 H1471 0.959 . S
C1486 H1472 0.961 1_556 S
C1486 C1485 1.502 . S
C1487 H1473 0.960 . S
C1487 H1474 0.961 . S
C1487 H1475 0.959 . S
C1487 C1485 1.561 . S
C1488 C1485 1.526 . S
C1488 C1489 1.396 . S
C1488 C1493 1.390 . S
C1489 C1483 1.465 . S
C1489 C1488 1.396 . S
C1489 C1490 1.399 . S
C1490 H1476 0.929 . S
C1490 C1489 1.399 . S
C1490 C1491 1.385 . S
C1491 H1477 0.931 . S
C1491 C1490 1.385 . S
C1491 C1492 1.389 . S
C1492 C1491 1.389 . S
C1492 C1493 1.387 . S
C1493 H1478 0.930 . S
C1493 C1488 1.390 . S
C1493 C1492 1.387 . S
H1494 C1506 0.930 . S
H1495 C1508 0.930 . S
H1496 C1509 0.930 . S
H1497 C1513 0.959 . S
H1498 C1513 0.959 . S
H1499 C1513 0.961 . S
H1500 C1514 0.960 . S
H1501 C1514 0.961 . S
H1502 C1514 0.959 . S
H1503 C1517 0.929 . S
H1504 C1518 0.931 . S
H1505 C1520 0.930 . S
C1506 H1494 0.930 . S
C1506 C1507 1.399 . S
C1506 C1511 1.399 . S
C1507 C1506 1.399 . S
C1507 C1508 1.376 . S
C1508 H1495 0.930 . S
C1508 C1507 1.376 . S
C1508 C1509 1.388 . S
C1509 H1496 0.930 . S
C1509 C1508 1.388 . S
C1509 C1510 1.390 . S
C1510 C1509 1.390 . S
C1510 C1511 1.394 . S
C1510 C1516 1.465 . S
C1511 C1506 1.399 . S
C1511 C1510 1.394 . S
C1511 C1512 1.516 . S
C1512 C1511 1.516 . S
C1512 C1513 1.502 . S
C1512 C1514 1.561 . S
C1512 C1515 1.526 . S
C1513 H1497 0.959 . S
C1513 H1498 0.959 . S
C1513 H1499 0.961 . S
C1513 C1512 1.502 . S
C1514 H1500 0.960 . S
C1514 H1501 0.961 . S
C1514 H1502 0.959 . S
C1514 C1512 1.561 . S
C1515 C1512 1.526 . S
C1515 C1516 1.396 . S
C1515 C1520 1.390 . S
C1516 C1510 1.465 . S
C1516 C1515 1.396 . S
C1516 C1517 1.399 . S
C1517 H1503 0.929 . S
C1517 C1516 1.399 . S
C1517 C1518 1.385 . S
C1518 H1504 0.931 . S
C1518 C1517 1.385 . S
C1518 C1519 1.389 . S
C1519 C1518 1.389 . S
C1519 C1520 1.387 . S
C1520 H1505 0.930 . S
C1520 C1515 1.390 . S
C1520 C1519 1.387 . S
H1521 C1533 0.930 . S
H1522 C1535 0.930 . S
H1523 C1536 0.930 . S
H1524 C1540 0.959 . S
H1525 C1540 0.959 . S
H1526 C1540 0.961 . S
H1527 C1541 0.960 . S
H1528 C1541 0.961 . S
H1529 C1541 0.959 . S
H1530 C1544 0.929 . S
H1531 C1545 0.931 . S
H1532 C1547 0.930 . S
C1533 H1521 0.930 . S
C1533 C1534 1.399 . S
C1533 C1538 1.399 . S
C1534 C1533 1.399 . S
C1534 C1535 1.376 . S
C1535 H1522 0.930 . S
C1535 C1534 1.376 . S
C1535 C1536 1.388 . S
C1536 H1523 0.930 . S
C1536 C1535 1.388 . S
C1536 C1537 1.390 . S
C1537 C1536 1.390 . S
C1537 C1538 1.394 . S
C1537 C1543 1.465 . S
C1538 C1533 1.399 . S
C1538 C1537 1.394 . S
C1538 C1539 1.516 . S
C1539 C1538 1.516 . S
C1539 C1540 1.502 . S
C1539 C1541 1.561 . S
C1539 C1542 1.526 . S
C1540 H1524 0.959 . S
C1540 H1525 0.959 . S
C1540 H1526 0.961 . S
C1540 C1539 1.502 . S
C1541 H1527 0.960 . S
C1541 H1528 0.961 . S
C1541 H1529 0.959 . S
C1541 C1539 1.561 . S
C1542 C1539 1.526 . S
C1542 C1543 1.396 . S
C1542 C1547 1.390 . S
C1543 C1537 1.465 . S
C1543 C1542 1.396 . S
C1543 C1544 1.399 . S
C1544 H1530 0.929 . S
C1544 C1543 1.399 . S
C1544 C1545 1.385 . S
C1545 H1531 0.931 . S
C1545 C1544 1.385 . S
C1545 C1546 1.389 . S
C1546 C1545 1.389 . S
C1546 C1547 1.387 . S
C1547 H1532 0.930 . S
C1547 C1542 1.390 . S
C1547 C1546 1.387 . S
H1548 C1560 0.930 . S
H1549 C1562 0.930 . S
H1550 C1563 0.930 . S
H1551 C1567 0.959 . S
H1552 C1567 0.959 . S
H1553 C1567 0.961 . S
H1554 C1568 0.960 . S
H1555 C1568 0.961 . S
H1556 C1568 0.959 . S
H1557 C1571 0.929 . S
H1558 C1572 0.931 . S
H1559 C1574 0.930 . S
C1560 H1548 0.930 . S
C1560 C1561 1.399 . S
C1560 C1565 1.399 . S
C1561 C1560 1.399 . S
C1561 C1562 1.376 . S
C1562 H1549 0.930 . S
C1562 C1561 1.376 . S
C1562 C1563 1.388 . S
C1563 H1550 0.930 . S
C1563 C1562 1.388 . S
C1563 C1564 1.390 . S
C1564 C1563 1.390 . S
C1564 C1565 1.394 . S
C1564 C1570 1.465 . S
C1565 C1560 1.399 . S
C1565 C1564 1.394 . S
C1565 C1566 1.516 . S
C1566 C1565 1.516 . S
C1566 C1567 1.502 . S
C1566 C1568 1.561 . S
C1566 C1569 1.526 . S
C1567 H1551 0.959 . S
C1567 H1552 0.959 . S
C1567 H1553 0.961 . S
C1567 C1566 1.502 . S
C1568 H1554 0.960 . S
C1568 H1555 0.961 . S
C1568 H1556 0.959 . S
C1568 C1566 1.561 . S
C1569 C1566 1.526 . S
C1569 C1570 1.396 . S
C1569 C1574 1.390 . S
C1570 C1564 1.465 . S
C1570 C1569 1.396 . S
C1570 C1571 1.399 . S
C1571 H1557 0.929 . S
C1571 C1570 1.399 . S
C1571 C1572 1.385 . S
C1572 H1558 0.931 . S
C1572 C1571 1.385 . S
C1572 C1573 1.389 . S
C1573 C1572 1.389 . S
C1573 C1574 1.387 . S
C1574 H1559 0.930 . S
C1574 C1569 1.390 . S
C1574 C1573 1.387 . S
H1575 C1587 0.930 . S
H1576 C1589 0.930 . S
H1577 C1590 0.930 . S
H1578 C1594 0.959 . S
H1579 C1594 0.959 . S
H1580 C1594 0.961 . S
H1581 C1595 0.957 1_655 S
H1582 C1595 0.961 1_655 S
H1583 C1595 0.959 1_655 S
H1584 C1598 0.929 . S
H1585 C1599 0.931 . S
H1586 C1601 0.930 . S
C1587 H1575 0.930 . S
C1587 C1588 1.399 . S
C1587 C1592 1.399 . S
C1588 C1587 1.399 . S
C1588 C1589 1.376 . S
C1589 H1576 0.930 . S
C1589 C1588 1.376 . S
C1589 C1590 1.388 . S
C1590 H1577 0.930 . S
C1590 C1589 1.388 . S
C1590 C1591 1.390 . S
C1591 C1590 1.390 . S
C1591 C1592 1.394 . S
C1591 C1597 1.465 1_545 S
C1592 C1587 1.399 . S
C1592 C1591 1.394 . S
C1592 C1593 1.516 . S
C1593 C1592 1.516 . S
C1593 C1594 1.502 . S
C1593 C1595 1.561 . S
C1593 C1596 1.526 1_545 S
C1594 H1578 0.959 . S
C1594 H1579 0.959 . S
C1594 H1580 0.961 . S
C1594 C1593 1.502 . S
C1595 H1581 0.957 1_455 S
C1595 H1582 0.961 1_455 S
C1595 H1583 0.959 1_455 S
C1595 C1593 1.561 . S
C1596 C1593 1.526 1_565 S
C1596 C1597 1.396 . S
C1596 C1601 1.390 . S
C1597 C1591 1.465 1_565 S
C1597 C1596 1.396 . S
C1597 C1598 1.399 . S
C1598 H1584 0.929 . S
C1598 C1597 1.399 . S
C1598 C1599 1.385 . S
C1599 H1585 0.931 . S
C1599 C1598 1.385 . S
C1599 C1600 1.389 . S
C1600 C1599 1.389 . S
C1600 C1601 1.387 . S
C1601 H1586 0.930 . S
C1601 C1596 1.390 . S
C1601 C1600 1.387 . S
H1602 C1614 0.930 . S
H1603 C1616 0.930 . S
H1604 C1617 0.930 . S
H1605 C1621 0.959 . S
H1606 C1621 0.959 . S
H1607 C1621 0.961 . S
H1608 C1622 0.960 . S
H1609 C1622 0.961 . S
H1610 C1622 0.959 . S
H1611 C1625 0.929 . S
H1612 C1626 0.931 . S
H1613 C1628 0.930 . S
C1614 H1602 0.930 . S
C1614 C1615 1.399 . S
C1614 C1619 1.399 . S
C1615 C1614 1.399 . S
C1615 C1616 1.376 . S
C1616 H1603 0.930 . S
C1616 C1615 1.376 . S
C1616 C1617 1.388 . S
C1617 H1604 0.930 . S
C1617 C1616 1.388 . S
C1617 C1618 1.390 . S
C1618 C1617 1.390 . S
C1618 C1619 1.394 . S
C1618 C1624 1.465 . S
C1619 C1614 1.399 . S
C1619 C1618 1.394 . S
C1619 C1620 1.516 . S
C1620 C1619 1.516 . S
C1620 C1621 1.502 . S
C1620 C1622 1.561 . S
C1620 C1623 1.526 . S
C1621 H1605 0.959 . S
C1621 H1606 0.959 . S
C1621 H1607 0.961 . S
C1621 C1620 1.502 . S
C1622 H1608 0.960 . S
C1622 H1609 0.961 . S
C1622 H1610 0.959 . S
C1622 C1620 1.561 . S
C1623 C1620 1.526 . S
C1623 C1624 1.396 . S
C1623 C1628 1.390 . S
C1624 C1618 1.465 . S
C1624 C1623 1.396 . S
C1624 C1625 1.399 . S
C1625 H1611 0.929 . S
C1625 C1624 1.399 . S
C1625 C1626 1.385 . S
C1626 H1612 0.931 . S
C1626 C1625 1.385 . S
C1626 C1627 1.389 . S
C1627 C1626 1.389 . S
C1627 C1628 1.387 . S
C1628 H1613 0.930 . S
C1628 C1623 1.390 . S
C1628 C1627 1.387 . S
H1629 C1641 0.930 . S
H1630 C1643 0.930 . S
H1631 C1644 0.930 . S
H1632 C1648 0.959 . S
H1633 C1648 0.959 . S
H1634 C1648 0.961 . S
H1635 C1649 0.960 . S
H1636 C1649 0.961 . S
H1637 C1649 0.959 . S
H1638 C1652 0.929 . S
H1639 C1653 0.931 . S
H1640 C1655 0.930 . S
C1641 H1629 0.930 . S
C1641 C1642 1.399 . S
C1641 C1646 1.399 . S
C1642 C1641 1.399 . S
C1642 C1643 1.376 . S
C1643 H1630 0.930 . S
C1643 C1642 1.376 . S
C1643 C1644 1.388 . S
C1644 H1631 0.930 . S
C1644 C1643 1.388 . S
C1644 C1645 1.390 . S
C1645 C1644 1.390 . S
C1645 C1646 1.394 . S
C1645 C1651 1.465 1_545 S
C1646 C1641 1.399 . S
C1646 C1645 1.394 . S
C1646 C1647 1.516 1_545 S
C1647 C1646 1.516 1_565 S
C1647 C1648 1.502 . S
C1647 C1649 1.561 . S
C1647 C1650 1.526 . S
C1648 H1632 0.959 . S
C1648 H1633 0.959 . S
C1648 H1634 0.961 . S
C1648 C1647 1.502 . S
C1649 H1635 0.960 . S
C1649 H1636 0.961 . S
C1649 H1637 0.959 . S
C1649 C1647 1.561 . S
C1650 C1647 1.526 . S
C1650 C1651 1.396 . S
C1650 C1655 1.390 . S
C1651 C1645 1.465 1_565 S
C1651 C1650 1.396 . S
C1651 C1652 1.399 . S
C1652 H1638 0.929 . S
C1652 C1651 1.399 . S
C1652 C1653 1.385 . S
C1653 H1639 0.931 . S
C1653 C1652 1.385 . S
C1653 C1654 1.389 . S
C1654 C1653 1.389 . S
C1654 C1655 1.387 . S
C1655 H1640 0.930 . S
C1655 C1650 1.390 . S
C1655 C1654 1.387 . S
H1656 C1668 0.930 . S
H1657 C1670 0.930 . S
H1658 C1671 0.930 . S
H1659 C1675 0.959 . S
H1660 C1675 0.959 . S
H1661 C1675 0.961 . S
H1662 C1676 0.960 . S
H1663 C1676 0.961 . S
H1664 C1676 0.959 . S
H1665 C1679 0.929 . S
H1666 C1680 0.931 . S
H1667 C1682 0.930 . S
C1668 H1656 0.930 . S
C1668 C1669 1.399 . S
C1668 C1673 1.399 . S
C1669 C1668 1.399 . S
C1669 C1670 1.376 . S
C1670 H1657 0.930 . S
C1670 C1669 1.376 . S
C1670 C1671 1.388 . S
C1671 H1658 0.930 . S
C1671 C1670 1.388 . S
C1671 C1672 1.390 . S
C1672 C1671 1.390 . S
C1672 C1673 1.394 . S
C1672 C1678 1.465 . S
C1673 C1668 1.399 . S
C1673 C1672 1.394 . S
C1673 C1674 1.516 . S
C1674 C1673 1.516 . S
C1674 C1675 1.502 . S
C1674 C1676 1.561 . S
C1674 C1677 1.526 . S
C1675 H1659 0.959 . S
C1675 H1660 0.959 . S
C1675 H1661 0.961 . S
C1675 C1674 1.502 . S
C1676 H1662 0.960 . S
C1676 H1663 0.961 . S
C1676 H1664 0.959 . S
C1676 C1674 1.561 . S
C1677 C1674 1.526 . S
C1677 C1678 1.396 . S
C1677 C1682 1.390 . S
C1678 C1672 1.465 . S
C1678 C1677 1.396 . S
C1678 C1679 1.399 . S
C1679 H1665 0.929 . S
C1679 C1678 1.399 . S
C1679 C1680 1.385 . S
C1680 H1666 0.931 . S
C1680 C1679 1.385 . S
C1680 C1681 1.389 . S
C1681 C1680 1.389 . S
C1681 C1682 1.387 . S
C1682 H1667 0.930 . S
C1682 C1677 1.390 . S
C1682 C1681 1.387 . S
H1683 C1695 0.930 . S
H1684 C1697 0.930 . S
H1685 C1698 0.930 . S
H1686 C1702 0.959 . S
H1687 C1702 0.959 . S
H1688 C1702 0.961 . S
H1689 C1703 0.960 . S
H1690 C1703 0.961 . S
H1691 C1703 0.959 . S
H1692 C1706 0.929 . S
H1693 C1707 0.931 . S
H1694 C1709 0.930 . S
C1695 H1683 0.930 . S
C1695 C1696 1.399 . S
C1695 C1700 1.399 . S
C1696 C1695 1.399 . S
C1696 C1697 1.376 . S
C1697 H1684 0.930 . S
C1697 C1696 1.376 . S
C1697 C1698 1.388 . S
C1698 H1685 0.930 . S
C1698 C1697 1.388 . S
C1698 C1699 1.390 . S
C1699 C1698 1.390 . S
C1699 C1700 1.394 . S
C1699 C1705 1.465 . S
C1700 C1695 1.399 . S
C1700 C1699 1.394 . S
C1700 C1701 1.516 . S
C1701 C1700 1.516 . S
C1701 C1702 1.502 . S
C1701 C1703 1.561 . S
C1701 C1704 1.526 . S
C1702 H1686 0.959 . S
C1702 H1687 0.959 . S
C1702 H1688 0.961 . S
C1702 C1701 1.502 . S
C1703 H1689 0.960 . S
C1703 H1690 0.961 . S
C1703 H1691 0.959 . S
C1703 C1701 1.561 . S
C1704 C1701 1.526 . S
C1704 C1705 1.396 . S
C1704 C1709 1.390 . S
C1705 C1699 1.465 . S
C1705 C1704 1.396 . S
C1705 C1706 1.399 . S
C1706 H1692 0.929 . S
C1706 C1705 1.399 . S
C1706 C1707 1.385 . S
C1707 H1693 0.931 . S
C1707 C1706 1.385 . S
C1707 C1708 1.389 . S
C1708 C1707 1.389 . S
C1708 C1709 1.387 . S
C1709 H1694 0.930 . S
C1709 C1704 1.390 . S
C1709 C1708 1.387 . S
H1710 C1722 0.930 . S
H1711 C1724 0.930 . S
H1712 C1725 0.930 . S
H1713 C1729 0.959 . S
H1714 C1729 0.959 . S
H1715 C1729 0.961 . S
H1716 C1730 0.960 . S
H1717 C1730 0.961 . S
H1718 C1730 0.959 . S
H1719 C1733 0.929 . S
H1720 C1734 0.931 . S
H1721 C1736 0.930 . S
C1722 H1710 0.930 . S
C1722 C1723 1.399 . S
C1722 C1727 1.399 . S
C1723 C1722 1.399 . S
C1723 C1724 1.376 . S
C1724 H1711 0.930 . S
C1724 C1723 1.376 . S
C1724 C1725 1.388 . S
C1725 H1712 0.930 . S
C1725 C1724 1.388 . S
C1725 C1726 1.390 . S
C1726 C1725 1.390 . S
C1726 C1727 1.394 . S
C1726 C1732 1.465 . S
C1727 C1722 1.399 . S
C1727 C1726 1.394 . S
C1727 C1728 1.516 . S
C1728 C1727 1.516 . S
C1728 C1729 1.502 . S
C1728 C1730 1.561 . S
C1728 C1731 1.526 . S
C1729 H1713 0.959 . S
C1729 H1714 0.959 . S
C1729 H1715 0.961 . S
C1729 C1728 1.502 . S
C1730 H1716 0.960 . S
C1730 H1717 0.961 . S
C1730 H1718 0.959 . S
C1730 C1728 1.561 . S
C1731 C1728 1.526 . S
C1731 C1732 1.396 . S
C1731 C1736 1.390 . S
C1732 C1726 1.465 . S
C1732 C1731 1.396 . S
C1732 C1733 1.399 . S
C1733 H1719 0.929 . S
C1733 C1732 1.399 . S
C1733 C1734 1.385 . S
C1734 H1720 0.931 . S
C1734 C1733 1.385 . S
C1734 C1735 1.389 . S
C1735 C1734 1.389 . S
C1735 C1736 1.387 . S
C1736 H1721 0.930 . S
C1736 C1731 1.390 . S
C1736 C1735 1.387 . S
H1737 C1749 0.930 . S
H1738 C1751 0.930 . S
H1739 C1752 0.930 . S
H1740 C1756 0.959 . S
H1741 C1756 0.959 . S
H1742 C1756 0.961 . S
H1743 C1757 0.960 . S
H1744 C1757 0.961 . S
H1745 C1757 0.959 . S
H1746 C1760 0.929 . S
H1747 C1761 0.931 . S
H1748 C1763 0.930 . S
C1749 H1737 0.930 . S
C1749 C1750 1.399 . S
C1749 C1754 1.399 . S
C1750 C1749 1.399 . S
C1750 C1751 1.376 . S
C1751 H1738 0.930 . S
C1751 C1750 1.376 . S
C1751 C1752 1.388 . S
C1752 H1739 0.930 . S
C1752 C1751 1.388 . S
C1752 C1753 1.390 . S
C1753 C1752 1.390 . S
C1753 C1754 1.394 . S
C1753 C1759 1.465 . S
C1754 C1749 1.399 . S
C1754 C1753 1.394 . S
C1754 C1755 1.516 . S
C1755 C1754 1.516 . S
C1755 C1756 1.502 . S
C1755 C1757 1.561 . S
C1755 C1758 1.526 . S
C1756 H1740 0.959 . S
C1756 H1741 0.959 . S
C1756 H1742 0.961 . S
C1756 C1755 1.502 . S
C1757 H1743 0.960 . S
C1757 H1744 0.961 . S
C1757 H1745 0.959 . S
C1757 C1755 1.561 . S
C1758 C1755 1.526 . S
C1758 C1759 1.396 . S
C1758 C1763 1.390 . S
C1759 C1753 1.465 . S
C1759 C1758 1.396 . S
C1759 C1760 1.399 . S
C1760 H1746 0.929 . S
C1760 C1759 1.399 . S
C1760 C1761 1.385 . S
C1761 H1747 0.931 . S
C1761 C1760 1.385 . S
C1761 C1762 1.389 . S
C1762 C1761 1.389 . S
C1762 C1763 1.387 . S
C1763 H1748 0.930 . S
C1763 C1758 1.390 . S
C1763 C1762 1.387 . S
H1764 C1776 0.930 . S
H1765 C1778 0.930 . S
H1766 C1779 0.930 . S
H1767 C1783 0.959 . S
H1768 C1783 0.959 . S
H1769 C1783 0.961 . S
H1770 C1784 0.960 . S
H1771 C1784 0.961 . S
H1772 C1784 0.959 . S
H1773 C1787 0.929 . S
H1774 C1788 0.931 . S
H1775 C1790 0.930 . S
C1776 H1764 0.930 . S
C1776 C1777 1.399 . S
C1776 C1781 1.399 . S
C1777 C1776 1.399 . S
C1777 C1778 1.376 . S
C1778 H1765 0.930 . S
C1778 C1777 1.376 . S
C1778 C1779 1.388 . S
C1779 H1766 0.930 . S
C1779 C1778 1.388 . S
C1779 C1780 1.390 . S
C1780 C1779 1.390 . S
C1780 C1781 1.394 . S
C1780 C1786 1.465 . S
C1781 C1776 1.399 . S
C1781 C1780 1.394 . S
C1781 C1782 1.516 . S
C1782 C1781 1.516 . S
C1782 C1783 1.502 . S
C1782 C1784 1.561 . S
C1782 C1785 1.526 . S
C1783 H1767 0.959 . S
C1783 H1768 0.959 . S
C1783 H1769 0.961 . S
C1783 C1782 1.502 . S
C1784 H1770 0.960 . S
C1784 H1771 0.961 . S
C1784 H1772 0.959 . S
C1784 C1782 1.561 . S
C1785 C1782 1.526 . S
C1785 C1786 1.396 . S
C1785 C1790 1.390 . S
C1786 C1780 1.465 . S
C1786 C1785 1.396 . S
C1786 C1787 1.399 . S
C1787 H1773 0.929 . S
C1787 C1786 1.399 . S
C1787 C1788 1.385 . S
C1788 H1774 0.931 . S
C1788 C1787 1.385 . S
C1788 C1789 1.389 . S
C1789 C1788 1.389 . S
C1789 C1790 1.387 . S
C1790 H1775 0.930 . S
C1790 C1785 1.390 . S
C1790 C1789 1.387 . S
H1791 C1803 0.930 . S
H1792 C1805 0.930 . S
H1793 C1806 0.930 . S
H1794 C1810 0.959 . S
H1795 C1810 0.959 . S
H1796 C1810 0.961 . S
H1797 C1811 0.960 . S
H1798 C1811 0.961 . S
H1799 C1811 0.959 . S
H1800 C1814 0.929 . S
H1801 C1815 0.931 . S
H1802 C1817 0.930 . S
C1803 H1791 0.930 . S
C1803 C1804 1.399 . S
C1803 C1808 1.399 . S
C1804 C1803 1.399 . S
C1804 C1805 1.376 . S
C1805 H1792 0.930 . S
C1805 C1804 1.376 . S
C1805 C1806 1.388 . S
C1806 H1793 0.930 . S
C1806 C1805 1.388 . S
C1806 C1807 1.390 . S
C1807 C1806 1.390 . S
C1807 C1808 1.394 . S
C1807 C1813 1.465 . S
C1808 C1803 1.399 . S
C1808 C1807 1.394 . S
C1808 C1809 1.516 . S
C1809 C1808 1.516 . S
C1809 C1810 1.502 . S
C1809 C1811 1.561 . S
C1809 C1812 1.526 . S
C1810 H1794 0.959 . S
C1810 H1795 0.959 . S
C1810 H1796 0.961 . S
C1810 C1809 1.502 . S
C1811 H1797 0.960 . S
C1811 H1798 0.961 . S
C1811 H1799 0.959 . S
C1811 C1809 1.561 . S
C1812 C1809 1.526 . S
C1812 C1813 1.396 . S
C1812 C1817 1.390 . S
C1813 C1807 1.465 . S
C1813 C1812 1.396 . S
C1813 C1814 1.399 . S
C1814 H1800 0.929 . S
C1814 C1813 1.399 . S
C1814 C1815 1.385 . S
C1815 H1801 0.931 . S
C1815 C1814 1.385 . S
C1815 C1816 1.389 . S
C1816 C1815 1.389 . S
C1816 C1817 1.387 . S
C1817 H1802 0.930 . S
C1817 C1812 1.390 . S
C1817 C1816 1.387 . S
H1818 C1830 0.930 . S
H1819 C1832 0.930 . S
H1820 C1833 0.930 . S
H1821 C1837 0.959 . S
H1822 C1837 0.959 1_556 S
H1823 C1837 0.950 1_556 S
H1824 C1838 0.960 . S
H1825 C1838 0.961 . S
H1826 C1838 0.959 1_554 S
H1827 C1841 0.929 . S
H1828 C1842 0.931 . S
H1829 C1844 0.930 . S
C1830 H1818 0.930 . S
C1830 C1831 1.399 . S
C1830 C1835 1.399 . S
C1831 C1830 1.399 . S
C1831 C1832 1.376 . S
C1832 H1819 0.930 . S
C1832 C1831 1.376 . S
C1832 C1833 1.388 . S
C1833 H1820 0.930 . S
C1833 C1832 1.388 . S
C1833 C1834 1.390 . S
C1834 C1833 1.390 . S
C1834 C1835 1.394 . S
C1834 C1840 1.465 1_455 S
C1835 C1830 1.399 . S
C1835 C1834 1.394 . S
C1835 C1836 1.516 . S
C1836 C1835 1.516 . S
C1836 C1837 1.502 . S
C1836 C1838 1.561 1_554 S
C1836 C1839 1.526 1_455 S
C1837 H1821 0.959 . S
C1837 H1822 0.959 1_554 S
C1837 H1823 0.950 1_554 S
C1837 C1836 1.502 . S
C1838 H1824 0.960 . S
C1838 H1825 0.961 . S
C1838 H1826 0.959 1_556 S
C1838 C1836 1.561 1_556 S
C1839 C1836 1.526 1_655 S
C1839 C1840 1.396 . S
C1839 C1844 1.390 . S
C1840 C1834 1.465 1_655 S
C1840 C1839 1.396 . S
C1840 C1841 1.399 . S
C1841 H1827 0.929 . S
C1841 C1840 1.399 . S
C1841 C1842 1.385 . S
C1842 H1828 0.931 . S
C1842 C1841 1.385 . S
C1842 C1843 1.389 . S
C1843 C1842 1.389 . S
C1843 C1844 1.387 . S
C1844 H1829 0.930 . S
C1844 C1839 1.390 . S
C1844 C1843 1.387 . S
H1845 C1857 0.930 . S
H1846 C1859 0.930 . S
H1847 C1860 0.930 . S
H1848 C1864 0.959 . S
H1849 C1864 0.959 . S
H1850 C1864 0.961 . S
H1851 C1865 0.960 . S
H1852 C1865 0.961 . S
H1853 C1865 0.959 . S
H1854 C1868 0.929 . S
H1855 C1869 0.931 . S
H1856 C1871 0.930 . S
C1857 H1845 0.930 . S
C1857 C1858 1.399 . S
C1857 C1862 1.399 . S
C1858 C1857 1.399 . S
C1858 C1859 1.376 . S
C1859 H1846 0.930 . S
C1859 C1858 1.376 . S
C1859 C1860 1.388 . S
C1860 H1847 0.930 . S
C1860 C1859 1.388 . S
C1860 C1861 1.390 . S
C1861 C1860 1.390 . S
C1861 C1862 1.394 . S
C1861 C1867 1.465 . S
C1862 C1857 1.399 . S
C1862 C1861 1.394 . S
C1862 C1863 1.516 . S
C1863 C1862 1.516 . S
C1863 C1864 1.502 . S
C1863 C1865 1.561 . S
C1863 C1866 1.526 . S
C1864 H1848 0.959 . S
C1864 H1849 0.959 . S
C1864 H1850 0.961 . S
C1864 C1863 1.502 . S
C1865 H1851 0.960 . S
C1865 H1852 0.961 . S
C1865 H1853 0.959 . S
C1865 C1863 1.561 . S
C1866 C1863 1.526 . S
C1866 C1867 1.396 . S
C1866 C1871 1.390 . S
C1867 C1861 1.465 . S
C1867 C1866 1.396 . S
C1867 C1868 1.399 . S
C1868 H1854 0.929 . S
C1868 C1867 1.399 . S
C1868 C1869 1.385 . S
C1869 H1855 0.931 . S
C1869 C1868 1.385 . S
C1869 C1870 1.389 . S
C1870 C1869 1.389 . S
C1870 C1871 1.387 . S
C1871 H1856 0.930 . S
C1871 C1866 1.390 . S
C1871 C1870 1.387 . S
H1872 C1884 0.930 . S
H1873 C1886 0.930 . S
H1874 C1887 0.930 . S
H1875 C1891 0.959 . S
H1876 C1891 0.959 . S
H1877 C1891 0.961 . S
H1878 C1892 0.960 . S
H1879 C1892 0.961 . S
H1880 C1892 0.959 . S
H1881 C1895 0.929 . S
H1882 C1896 0.931 . S
H1883 C1898 0.930 . S
C1884 H1872 0.930 . S
C1884 C1885 1.399 . S
C1884 C1889 1.399 . S
C1885 C1884 1.399 . S
C1885 C1886 1.376 . S
C1886 H1873 0.930 . S
C1886 C1885 1.376 . S
C1886 C1887 1.388 . S
C1887 H1874 0.930 . S
C1887 C1886 1.388 . S
C1887 C1888 1.390 . S
C1888 C1887 1.390 . S
C1888 C1889 1.394 . S
C1888 C1894 1.465 . S
C1889 C1884 1.399 . S
C1889 C1888 1.394 . S
C1889 C1890 1.516 . S
C1890 C1889 1.516 . S
C1890 C1891 1.502 . S
C1890 C1892 1.561 . S
C1890 C1893 1.526 . S
C1891 H1875 0.959 . S
C1891 H1876 0.959 . S
C1891 H1877 0.961 . S
C1891 C1890 1.502 . S
C1892 H1878 0.960 . S
C1892 H1879 0.961 . S
C1892 H1880 0.959 . S
C1892 C1890 1.561 . S
C1893 C1890 1.526 . S
C1893 C1894 1.396 . S
C1893 C1898 1.390 . S
C1894 C1888 1.465 . S
C1894 C1893 1.396 . S
C1894 C1895 1.399 . S
C1895 H1881 0.929 . S
C1895 C1894 1.399 . S
C1895 C1896 1.385 . S
C1896 H1882 0.931 . S
C1896 C1895 1.385 . S
C1896 C1897 1.389 . S
C1897 C1896 1.389 . S
C1897 C1898 1.387 . S
C1898 H1883 0.930 . S
C1898 C1893 1.390 . S
C1898 C1897 1.387 . S
H1899 C1911 0.930 . S
H1900 C1913 0.930 . S
H1901 C1914 0.930 . S
H1902 C1918 0.959 . S
H1903 C1918 0.959 . S
H1904 C1918 0.961 . S
H1905 C1919 0.960 . S
H1906 C1919 0.961 . S
H1907 C1919 0.959 . S
H1908 C1922 0.929 . S
H1909 C1923 0.931 . S
H1910 C1925 0.930 . S
C1911 H1899 0.930 . S
C1911 C1912 1.399 . S
C1911 C1916 1.399 . S
C1912 C1911 1.399 . S
C1912 C1913 1.376 . S
C1913 H1900 0.930 . S
C1913 C1912 1.376 . S
C1913 C1914 1.388 . S
C1914 H1901 0.930 . S
C1914 C1913 1.388 . S
C1914 C1915 1.390 . S
C1915 C1914 1.390 . S
C1915 C1916 1.394 . S
C1915 C1921 1.465 . S
C1916 C1911 1.399 . S
C1916 C1915 1.394 . S
C1916 C1917 1.516 . S
C1917 C1916 1.516 . S
C1917 C1918 1.502 . S
C1917 C1919 1.561 . S
C1917 C1920 1.526 . S
C1918 H1902 0.959 . S
C1918 H1903 0.959 . S
C1918 H1904 0.961 . S
C1918 C1917 1.502 . S
C1919 H1905 0.960 . S
C1919 H1906 0.961 . S
C1919 H1907 0.959 . S
C1919 C1917 1.561 . S
C1920 C1917 1.526 . S
C1920 C1921 1.396 . S
C1920 C1925 1.390 . S
C1921 C1915 1.465 . S
C1921 C1920 1.396 . S
C1921 C1922 1.399 . S
C1922 H1908 0.929 . S
C1922 C1921 1.399 . S
C1922 C1923 1.385 . S
C1923 H1909 0.931 . S
C1923 C1922 1.385 . S
C1923 C1924 1.389 . S
C1924 C1923 1.389 . S
C1924 C1925 1.387 . S
C1925 H1910 0.930 . S
C1925 C1920 1.390 . S
C1925 C1924 1.387 . S
H1926 C1938 0.930 . S
H1927 C1940 0.930 . S
H1928 C1941 0.930 . S
H1929 C1945 0.959 . S
H1930 C1945 0.959 . S
H1931 C1945 0.961 . S
H1932 C1946 0.960 . S
H1933 C1946 0.961 . S
H1934 C1946 0.959 . S
H1935 C1949 0.929 . S
H1936 C1950 0.931 . S
H1937 C1952 0.930 . S
C1938 H1926 0.930 . S
C1938 C1939 1.399 . S
C1938 C1943 1.399 . S
C1939 C1938 1.399 . S
C1939 C1940 1.376 . S
C1940 H1927 0.930 . S
C1940 C1939 1.376 . S
C1940 C1941 1.388 . S
C1941 H1928 0.930 . S
C1941 C1940 1.388 . S
C1941 C1942 1.390 . S
C1942 C1941 1.390 . S
C1942 C1943 1.394 . S
C1942 C1948 1.465 . S
C1943 C1938 1.399 . S
C1943 C1942 1.394 . S
C1943 C1944 1.516 . S
C1944 C1943 1.516 . S
C1944 C1945 1.502 . S
C1944 C1946 1.561 . S
C1944 C1947 1.526 . S
C1945 H1929 0.959 . S
C1945 H1930 0.959 . S
C1945 H1931 0.961 . S
C1945 C1944 1.502 . S
C1946 H1932 0.960 . S
C1946 H1933 0.961 . S
C1946 H1934 0.959 . S
C1946 C1944 1.561 . S
C1947 C1944 1.526 . S
C1947 C1948 1.396 . S
C1947 C1952 1.390 . S
C1948 C1942 1.465 . S
C1948 C1947 1.396 . S
C1948 C1949 1.399 . S
C1949 H1935 0.929 . S
C1949 C1948 1.399 . S
C1949 C1950 1.385 . S
C1950 H1936 0.931 . S
C1950 C1949 1.385 . S
C1950 C1951 1.389 . S
C1951 C1950 1.389 . S
C1951 C1952 1.387 . S
C1952 H1937 0.930 . S
C1952 C1947 1.390 . S
C1952 C1951 1.387 . S
H1953 C1965 0.930 . S
H1954 C1967 0.930 . S
H1955 C1968 0.930 . S
H1956 C1972 0.959 . S
H1957 C1972 0.959 . S
H1958 C1972 0.961 . S
H1959 C1973 0.960 . S
H1960 C1973 0.961 1_455 S
H1961 C1973 0.962 . S
H1962 C1976 0.929 . S
H1963 C1977 0.931 . S
H1964 C1979 0.930 . S
C1965 H1953 0.930 . S
C1965 C1966 1.399 . S
C1965 C1970 1.399 . S
C1966 C1965 1.399 . S
C1966 C1967 1.376 . S
C1967 H1954 0.930 . S
C1967 C1966 1.376 . S
C1967 C1968 1.388 . S
C1968 H1955 0.930 . S
C1968 C1967 1.388 . S
C1968 C1969 1.390 . S
C1969 C1968 1.390 . S
C1969 C1970 1.394 . S
C1969 C1975 1.465 1_655 S
C1970 C1965 1.399 . S
C1970 C1969 1.394 . S
C1970 C1971 1.516 . S
C1971 C1970 1.516 . S
C1971 C1972 1.502 . S
C1971 C1973 1.561 . S
C1971 C1974 1.526 1_655 S
C1972 H1956 0.959 . S
C1972 H1957 0.959 . S
C1972 H1958 0.961 . S
C1972 C1971 1.502 . S
C1973 H1959 0.960 . S
C1973 H1960 0.961 1_655 S
C1973 H1961 0.962 . S
C1973 C1971 1.561 . S
C1974 C1971 1.526 1_455 S
C1974 C1975 1.396 . S
C1974 C1979 1.390 . S
C1975 C1969 1.465 1_455 S
C1975 C1974 1.396 . S
C1975 C1976 1.399 . S
C1976 H1962 0.929 . S
C1976 C1975 1.399 . S
C1976 C1977 1.385 . S
C1977 H1963 0.931 . S
C1977 C1976 1.385 . S
C1977 C1978 1.389 . S
C1978 C1977 1.389 . S
C1978 C1979 1.387 . S
C1979 H1964 0.930 . S
C1979 C1974 1.390 . S
C1979 C1978 1.387 . S
C1021 C74 1.597 . S
C1033 C991 1.669 . S
C1048 C823 1.711 . S
C1060 C158 1.674 . S
C1075 C235 1.671 . S
C1087 C746 1.599 . S
C1102 C326 1.680 . S
C1114 C907 1.696 . S
C1129 C410 1.694 . S
C1141 C914 1.694 . S
C1156 C487 1.668 . S
C1168 C998 1.622 . S
C1183 C830 1.674 . S
C1195 C578 1.673 . S
C1210 C655 1.669 . S
C1222 C739 1.663 . S
C1237 C319 1.646 . S
C1249 C403 1.675 . S
C1264 C67 1.703 . S
C1276 C494 1.681 . S
C1291 C151 1.662 . S
C1303 C571 1.678 . S
C1318 C662 1.664 . S
C1330 C242 1.666 . S
C1345 C69 1.364 . S
C1357 C735 1.669 . S
C1372 C153 1.351 . S
C1384 C896 1.670 . S
C1399 C980 1.598 . S
C1411 C226 1.603 . S
C1426 C321 1.326 . S
C1438 C812 1.637 . S
C1453 C405 1.377 . S
C1465 C819 1.670 . S
C1480 C728 1.610 . S
C1492 C478 1.567 . S
C1507 C903 1.663 . S
C1519 C573 1.354 . S
C1534 C987 1.716 . S
C1546 C646 1.683 . S
C1561 C56 1.659 . S
C1573 C310 1.614 . S
C1588 C58 1.583 . S
C1600 C140 1.625 . S
C1615 C142 1.621 . S
C1627 C231 1.646 . S
C1642 C308 1.632 . S
C1654 C237 1.318 . S
C1669 C489 1.357 . S
C1681 C392 1.653 . S
C1696 C483 1.643 . S
C1708 C562 1.606 . S
C1723 C560 1.618 . S
C1735 C657 1.416 . S
C1750 C394 1.655 . S
C1762 C651 1.684 . S
C1777 C730 1.581 . S
C1789 C315 1.608 . S
C1804 C476 1.623 . S
C1816 C814 1.633 . S
C1831 C741 1.314 . S
C1843 C567 1.626 . S
C1858 C898 1.600 . S
C1870 C644 1.667 . S
C1885 C399 1.616 . S
C1897 C982 1.572 . S
C1912 C993 1.474 . S
C1924 C147 1.642 . S
C1939 C224 1.666 . S
C1951 C825 1.360 . S
C1966 C909 1.356 . S
C1978 C63 1.644 . S
