# Generated by pormake.
# Topology umm, (4)-cn, num edge types: 1
# Building blocks:
#     Node 0, Type 0, BuildingBlock: MUDLON_clean_sbu_0, # of connection points: 4
#     Node 1, Type 0, BuildingBlock: MUDLON_clean_sbu_0, # of connection points: 4
#     Node 2, Type 0, BuildingBlock: MUDLON_clean_sbu_0, # of connection points: 4
#     Node 3, Type 0, BuildingBlock: MUDLON_clean_sbu_0, # of connection points: 4
#     Node 4, Type 0, BuildingBlock: MUDLON_clean_sbu_0, # of connection points: 4
#     Node 5, Type 0, BuildingBlock: MUDLON_clean_sbu_0, # of connection points: 4
#     Node 6, Type 0, BuildingBlock: MUDLON_clean_sbu_0, # of connection points: 4
#     Node 7, Type 0, BuildingBlock: MUDLON_clean_sbu_0, # of connection points: 4
#     Node 8, Type 0, BuildingBlock: MUDLON_clean_sbu_0, # of connection points: 4
#     Node 9, Type 0, BuildingBlock: MUDLON_clean_sbu_0, # of connection points: 4
#     Node 10, Type 0, BuildingBlock: MUDLON_clean_sbu_0, # of connection points: 4
#     Node 11, Type 0, BuildingBlock: MUDLON_clean_sbu_0, # of connection points: 4
#     Edge 12, Type (0, 0), BuildingBlock: TEMPAE_clean_linker_10, # of connection points: 2
#     Edge 13, Type (0, 0), BuildingBlock: TEMPAE_clean_linker_10, # of connection points: 2
#     Edge 14, Type (0, 0), BuildingBlock: TEMPAE_clean_linker_10, # of connection points: 2
#     Edge 15, Type (0, 0), BuildingBlock: TEMPAE_clean_linker_10, # of connection points: 2
#     Edge 16, Type (0, 0), BuildingBlock: TEMPAE_clean_linker_10, # of connection points: 2
#     Edge 17, Type (0, 0), BuildingBlock: TEMPAE_clean_linker_10, # of connection points: 2
#     Edge 18, Type (0, 0), BuildingBlock: TEMPAE_clean_linker_10, # of connection points: 2
#     Edge 19, Type (0, 0), BuildingBlock: TEMPAE_clean_linker_10, # of connection points: 2
#     Edge 20, Type (0, 0), BuildingBlock: TEMPAE_clean_linker_10, # of connection points: 2
#     Edge 21, Type (0, 0), BuildingBlock: TEMPAE_clean_linker_10, # of connection points: 2
#     Edge 22, Type (0, 0), BuildingBlock: TEMPAE_clean_linker_10, # of connection points: 2
#     Edge 23, Type (0, 0), BuildingBlock: TEMPAE_clean_linker_10, # of connection points: 2
#     Edge 24, Type (0, 0), BuildingBlock: TEMPAE_clean_linker_10, # of connection points: 2
#     Edge 25, Type (0, 0), BuildingBlock: TEMPAE_clean_linker_10, # of connection points: 2
#     Edge 26, Type (0, 0), BuildingBlock: TEMPAE_clean_linker_10, # of connection points: 2
#     Edge 27, Type (0, 0), BuildingBlock: TEMPAE_clean_linker_10, # of connection points: 2
#     Edge 28, Type (0, 0), BuildingBlock: TEMPAE_clean_linker_10, # of connection points: 2
#     Edge 29, Type (0, 0), BuildingBlock: TEMPAE_clean_linker_10, # of connection points: 2
#     Edge 30, Type (0, 0), BuildingBlock: TEMPAE_clean_linker_10, # of connection points: 2
#     Edge 31, Type (0, 0), BuildingBlock: TEMPAE_clean_linker_10, # of connection points: 2
#     Edge 32, Type (0, 0), BuildingBlock: TEMPAE_clean_linker_10, # of connection points: 2
#     Edge 33, Type (0, 0), BuildingBlock: TEMPAE_clean_linker_10, # of connection points: 2
#     Edge 34, Type (0, 0), BuildingBlock: TEMPAE_clean_linker_10, # of connection points: 2
#     Edge 35, Type (0, 0), BuildingBlock: TEMPAE_clean_linker_10, # of connection points: 2
# Relax obj value: 0.065
# Max RMSD: 0.172
# Mean RMSD: 0.172
data_MOF--net-umm--node1-MUDLON_clean_sbu_0--edge1-TEMPAE_clean_linker_10
_symmetry_space_group_name_H-M    P1
_symmetry_Int_Tables_number       1
_symmetry_cell_setting            triclinic
loop_
_symmetry_equiv_pos_as_xyz
'x, y, z'
_cell_length_a     60.182929
_cell_length_b     60.146593
_cell_length_c     30.21284
_cell_angle_alpha  89.977651
_cell_angle_beta   89.999783
_cell_angle_gamma 119.95069
loop_
_atom_site_label
_atom_site_type_symbol
_atom_site_fract_x
_atom_site_fract_y
_atom_site_fract_z
_atom_type_partial_charge
Mg0 Mg 0.39878 0.53942 0.09051 0.0
C1 C 0.44661 0.53743 0.07837 0.0
O2 O 0.45336 0.56154 0.07117 0.0
C3 C 0.34229 0.52073 0.09466 0.0
O4 O 0.35112 0.5375 0.1271 0.0
C5 C 0.42219 0.56204 0.18176 0.0
O6 O 0.44133 0.56009 0.16531 0.0
O7 O 0.40278 0.55624 0.15727 0.0
O8 O 0.42316 0.52167 0.08746 0.0
O9 O 0.41148 0.5648 0.03263 0.0
C10 C 0.39588 0.56872 1.01003 0.0
O11 O 0.37329 0.56209 0.02684 0.0
O12 O 0.35771 0.51504 0.07563 0.0
Mg13 Mg 0.86224 0.39556 0.42569 0.0
C14 C 0.91262 0.44021 0.43274 0.0
O15 O 0.89577 0.448 0.43517 0.0
C16 C 0.81723 0.34771 0.40422 0.0
O17 O 0.81099 0.36575 0.40428 0.0
C18 C 0.85039 0.39292 0.52066 0.0
O19 O 0.85676 0.37522 0.51417 0.0
O20 O 0.84948 0.40532 0.48711 0.0
O21 O 0.9042 0.41614 0.42968 0.0
O22 O 0.85716 0.40862 0.36104 0.0
C23 C 0.84148 0.41451 0.34399 0.0
O24 O 0.82418 0.4156 0.36898 0.0
O25 O 0.83991 0.35376 0.41596 0.0
Mg26 Mg 0.46364 0.85597 0.76058 0.0
C27 C 0.47692 0.90971 0.78365 0.0
O28 O 0.45622 0.8957 0.80723 0.0
C29 C 0.46831 0.8134 0.72371 0.0
O30 O 0.44383 0.80618 0.72161 0.0
C31 C 0.42699 0.841 0.84266 0.0
O32 O 0.41256 0.846 0.81656 0.0
O33 O 0.44744 0.8426 0.82724 0.0
O34 O 0.48616 0.89832 0.761 0.0
O35 O 0.43732 0.84614 0.70457 0.0
C36 C 0.43692 0.86303 0.67976 0.0
O37 O 0.44807 0.88694 0.69335 0.0
O38 O 0.4836 0.83501 0.74146 0.0
Mg39 Mg 0.61405 0.46134 0.08958 0.0
C40 C 0.58752 0.49177 0.05948 0.0
O41 O 0.59681 0.49106 0.02048 0.0
C42 C 0.66246 0.4683 0.05339 0.0
O43 O 0.64576 0.4438 0.04881 0.0
C44 C 0.58915 0.43737 0.1778 0.0
O45 O 0.57022 0.43863 0.15859 0.0
O46 O 0.60956 0.44402 0.15565 0.0
O47 O 0.59348 0.48294 0.09293 0.0
O48 O 0.59879 0.43546 0.03243 0.0
C49 C 0.5791 0.43066 1.00969 0.0
O50 O 0.56262 0.43685 0.02565 0.0
O51 O 0.65532 0.48258 0.07268 0.0
Mg52 Mg 0.15602 0.60712 0.42558 0.0
C53 C 0.09879 0.57864 0.39749 0.0
O54 O 0.10815 0.58542 0.35732 0.0
C55 C 0.19882 0.65528 0.39551 0.0
O56 O 0.20625 0.63813 0.39423 0.0
C57 C 0.15387 0.58239 0.51394 0.0
O58 O 0.13167 0.56551 0.4969 0.0
O59 O 0.16938 0.60132 0.49008 0.0
O60 O 0.11404 0.58694 0.43037 0.0
O61 O 0.16601 0.59336 0.36595 0.0
C62 C 0.15298 0.57242 0.34502 0.0
O63 O 0.1323 0.5537 0.36342 0.0
O64 O 0.17663 0.64854 0.41106 0.0
Mg65 Mg 0.54451 0.1518 0.76072 0.0
C66 C 0.5379 0.10019 0.77484 0.0
O67 O 0.55945 0.11588 0.79512 0.0
C68 C 0.53335 0.19404 0.75342 0.0
O69 O 0.5553 0.20389 0.7746 0.0
C70 C 0.57718 0.17845 0.84843 0.0
O71 O 0.59395 0.19753 0.82394 0.0
O72 O 0.55768 0.15984 0.83017 0.0
O73 O 0.52561 0.10973 0.75584 0.0
O74 O 0.57156 0.16735 0.70536 0.0
C75 C 0.57581 0.15292 0.68014 0.0
O76 O 0.56867 0.12947 0.69316 0.0
O77 O 0.5216 0.17004 0.74522 0.0
Mg78 Mg 0.45923 0.60615 0.60027 0.0
C79 C 0.46894 0.5627 0.61648 0.0
O80 O 0.44628 0.55465 0.63417 0.0
C81 C 0.46556 0.65554 0.62423 0.0
O82 O 0.44092 0.63877 0.62581 0.0
C83 C 0.43332 0.57882 0.51408 0.0
O84 O 0.43611 0.56065 0.53283 0.0
O85 O 0.43941 0.59916 0.53608 0.0
O86 O 0.4806 0.58511 0.59946 0.0
O87 O 0.43785 0.59613 0.66284 0.0
C88 C 0.4169 0.5781 0.67824 0.0
O89 O 0.40165 0.55865 0.65291 0.0
O90 O 0.48078 0.64802 0.61043 0.0
Mg91 Mg 0.86523 0.46882 0.92865 0.0
C92 C 0.91496 0.47245 0.92528 0.0
O93 O 0.8975 0.44802 0.92798 0.0
C94 C 0.82102 0.4729 0.95193 0.0
O95 O 0.81426 0.44849 0.9519 0.0
C96 C 0.86548 0.45766 0.83362 0.0
O97 O 0.88523 0.4808 0.83908 0.0
O98 O 0.8517 0.4461 0.86728 0.0
O99 O 0.90733 0.48881 0.92459 0.0
O100 O 0.85946 0.45043 0.99327 0.0
C101 C 0.84357 0.42877 1.00979 0.0
O102 O 0.82657 0.41055 0.98422 0.0
O103 O 0.84365 0.48912 0.93919 0.0
Mg104 Mg 0.40113 0.85711 0.26358 0.0
C105 C 0.44166 0.91009 0.24336 0.0
O106 O 0.44968 0.89558 0.22493 0.0
C107 C 0.35339 0.8135 0.29552 0.0
O108 O 0.37117 0.80717 0.30097 0.0
C109 C 0.39354 0.83023 0.17265 0.0
O110 O 0.36979 0.81608 0.18645 0.0
O111 O 0.41017 0.84681 0.19879 0.0
O112 O 0.4199 0.89918 0.26267 0.0
O113 O 0.41586 0.84801 0.32307 0.0
C114 C 0.43243 0.86494 0.34873 0.0
O115 O 0.44537 0.88888 0.33535 0.0
O116 O 0.35954 0.8348 0.27666 0.0
Mg117 Mg 0.5425 0.39213 0.59568 0.0
C118 C 0.5338 0.4362 0.61215 0.0
O119 O 0.55654 0.44395 0.62923 0.0
C120 C 0.53285 0.33919 0.59585 0.0
O121 O 0.55587 0.35293 0.57871 0.0
C122 C 0.56907 0.4199 0.50978 0.0
O123 O 0.56485 0.43745 0.5272 0.0
O124 O 0.56359 0.39992 0.53247 0.0
O125 O 0.52179 0.41383 0.59509 0.0
O126 O 0.56186 0.39982 0.65995 0.0
C127 C 0.58214 0.41776 0.67744 0.0
O128 O 0.59813 0.43758 0.65348 0.0
O129 O 0.51988 0.35028 0.6034 0.0
Mg130 Mg 0.15619 0.53791 0.93071 0.0
C131 C 0.10012 0.51441 0.89986 0.0
O132 O 0.11091 0.51974 0.86058 0.0
C133 C 0.20037 0.53095 0.94192 0.0
O134 O 0.20919 0.55447 0.92729 0.0
C135 C 0.16157 0.56978 0.84641 0.0
O136 O 0.14788 0.57715 0.8695 0.0
O137 O 0.16859 0.55518 0.86466 0.0
O138 O 0.11401 0.5177 0.93381 0.0
O139 O 0.16885 0.56304 0.98854 0.0
C140 C 0.15273 0.5653 0.01263 0.0
O141 O 0.12949 0.55708 0.9973 0.0
O142 O 0.17612 0.51648 0.9449 0.0
Mg143 Mg 0.6101 0.15357 0.26769 0.0
C144 C 0.56712 0.10144 0.24731 0.0
O145 O 0.5602 0.11679 0.22873 0.0
C146 C 0.65836 0.19336 0.30772 0.0
O147 O 0.64217 0.20178 0.31291 0.0
C148 C 0.59297 0.17186 0.18254 0.0
O149 O 0.57615 0.17332 0.2083 0.0
O150 O 0.60847 0.16557 0.1993 0.0
O151 O 0.58881 0.11142 0.26674 0.0
O152 O 0.59399 0.1649 0.32278 0.0
C153 C 0.57867 0.14834 0.35042 0.0
O154 O 0.56789 0.12389 0.3404 0.0
O155 O 0.65088 0.17228 0.2871 0.0
C156 C 0.44477 0.57642 0.25472 0.0
C157 C 0.42234 0.56814 0.22966 0.0
C158 C 0.44488 0.5796 0.30082 0.0
C159 C 0.42197 0.57429 0.32286 0.0
C160 C 0.39947 0.56688 0.29762 0.0
C161 C 0.39992 0.56395 0.25134 0.0
C162 C 0.4694 0.58774 0.32617 0.0
C163 C 0.37464 0.56105 0.3197 0.0
C164 C 0.41934 0.55399 0.44305 0.0
C165 C 0.42689 0.57697 0.46603 0.0
C166 C 0.41649 0.5526 0.39676 0.0
C167 C 0.42139 0.57475 0.37246 0.0
C168 C 0.42784 0.5977 0.3956 0.0
C169 C 0.43046 0.59853 0.44206 0.0
C170 C 0.40938 0.52765 0.37368 0.0
C171 C 0.4332 0.62175 0.3711 0.0
H172 H 0.46226 0.57989 0.2384 0.0
H173 H 0.38247 0.55752 0.2324 0.0
H174 H 0.47394 0.60452 0.34743 0.0
H175 H 0.46693 0.57192 0.34825 0.0
H176 H 0.48597 0.59283 0.30394 0.0
H177 H 0.35953 0.55791 0.2953 0.0
H178 H 0.36759 0.54354 0.34033 0.0
H179 H 0.37775 0.57697 0.34207 0.0
H180 H 0.41635 0.53715 0.46113 0.0
H181 H 0.43631 0.6164 0.45936 0.0
H182 H 0.42581 0.53001 0.35346 0.0
H183 H 0.39304 0.52227 0.35084 0.0
H184 H 0.4041 0.51165 0.3974 0.0
H185 H 0.45122 0.62902 0.35188 0.0
H186 H 0.43522 0.63714 0.39389 0.0
H187 H 0.41761 0.61755 0.34716 0.0
C188 C 0.85029 0.38655 0.60257 0.0
C189 C 0.84721 0.39972 0.56679 0.0
C190 C 0.85037 0.3942 0.64652 0.0
C191 C 0.84704 0.41547 0.65533 0.0
C192 C 0.84256 0.42803 0.61957 0.0
C193 C 0.84282 0.4201 0.57572 0.0
C194 C 0.85546 0.38035 0.68338 0.0
C195 C 0.83858 0.45057 0.62751 0.0
C196 C 0.83558 0.4268 0.77591 0.0
C197 C 0.86021 0.4459 0.78879 0.0
C198 C 0.83076 0.41703 0.73231 0.0
C199 C 0.85116 0.42618 0.70126 0.0
C200 C 0.8761 0.44515 0.71451 0.0
C201 C 0.88022 0.45489 0.75778 0.0
C202 C 0.80384 0.39712 0.71931 0.0
C203 C 0.89858 0.45507 0.68305 0.0
H204 H 0.85355 0.37067 0.59628 0.0
H205 H 0.84029 0.43033 0.54843 0.0
H206 H 0.87441 0.3934 0.69851 0.0
H207 H 0.84084 0.37473 0.70981 0.0
H208 H 0.85546 0.36288 0.6715 0.0
H209 H 0.83225 0.45624 0.59711 0.0
H210 H 0.8241 0.44598 0.6539 0.0
H211 H 0.85679 0.46726 0.63899 0.0
H212 H 0.81998 0.41993 0.79956 0.0
H213 H 0.89936 0.46952 0.76749 0.0
H214 H 0.8034 0.37927 0.70859 0.0
H215 H 0.79746 0.40413 0.69076 0.0
H216 H 0.78999 0.39241 0.74689 0.0
H217 H 0.90107 0.43897 0.67134 0.0
H218 H 0.91679 0.46972 0.6986 0.0
H219 H 0.8949 0.46372 0.65351 0.0
C220 C 0.40467 0.84377 0.91088 0.0
C221 C 0.4212 0.83659 0.89088 0.0
C222 C 0.40055 0.84169 0.95691 0.0
C223 C 0.41283 0.83169 0.98376 0.0
C224 C 0.42896 0.82371 0.96362 0.0
C225 C 0.43317 0.8265 0.91756 0.0
C226 C 0.38352 0.85082 0.97695 0.0
C227 C 0.44201 0.81246 0.9908 0.0
C228 C 0.42146 0.85028 0.10595 0.0
C229 C 0.39997 0.82936 0.1253 0.0
C230 C 0.42612 0.85107 0.06015 0.0
C231 C 0.4092 0.83022 0.03297 0.0
C232 C 0.3881 0.80857 0.05263 0.0
C233 C 0.3836 0.80852 0.09839 0.0
C234 C 0.44862 0.8747 0.04061 0.0
C235 C 0.3699 0.7857 0.02514 0.0
H236 H 0.39549 0.85178 0.89069 0.0
H237 H 0.4459 0.82081 0.90244 0.0
H238 H 0.36754 0.83495 0.99541 0.0
H239 H 0.39466 0.86644 1.001 0.0
H240 H 0.37531 0.85804 0.95159 0.0
H241 H 0.45281 0.80587 0.96995 0.0
H242 H 0.45553 0.827 0.01452 0.0
H243 H 0.4276 0.79598 0.01052 0.0
H244 H 0.43414 0.86656 0.12633 0.0
H245 H 0.36701 0.79223 0.11302 0.0
H246 H 0.44158 0.88405 0.01723 0.0
H247 H 0.46098 0.86935 0.0215 0.0
H248 H 0.46049 0.88888 0.06634 0.0
H249 H 0.35932 0.79133 1.00184 0.0
H250 H 0.35574 0.76954 0.04584 0.0
H251 H 0.38075 0.7789 1.00499 0.0
C252 C 0.60944 0.43587 0.25012 0.0
C253 C 0.58757 0.43123 0.22599 0.0
C254 C 0.60852 0.43289 0.29653 0.0
C255 C 0.58518 0.42494 0.31946 0.0
C256 C 0.56285 0.41919 0.295 0.0
C257 C 0.56433 0.42246 0.24879 0.0
C258 C 0.63278 0.43924 0.32121 0.0
C259 C 0.53748 0.41047 0.31784 0.0
C260 C 0.57409 0.40057 0.43891 0.0
C261 C 0.57655 0.42191 0.4622 0.0
C262 C 0.57779 0.40151 0.39268 0.0
C263 C 0.58426 0.42435 0.36909 0.0
C264 C 0.58797 0.44627 0.3928 0.0
C265 C 0.58402 0.44476 0.43884 0.0
C266 C 0.57362 0.37769 0.36884 0.0
C267 C 0.59509 0.47111 0.36925 0.0
H268 H 0.62751 0.44269 0.23296 0.0
H269 H 0.54727 0.41865 0.23059 0.0
H270 H 0.63876 0.45658 0.34182 0.0
H271 H 0.62937 0.42334 0.34391 0.0
H272 H 0.64878 0.44291 0.29849 0.0
H273 H 0.52155 0.40504 0.29395 0.0
H274 H 0.53266 0.39376 0.3395 0.0
H275 H 0.53888 0.4261 0.33925 0.0
H276 H 0.56827 0.38279 0.45651 0.0
H277 H 0.58614 0.46143 0.45641 0.0
H278 H 0.59001 0.38226 0.34656 0.0
H279 H 0.5562 0.3702 0.34788 0.0
H280 H 0.57118 0.36233 0.39213 0.0
H281 H 0.61217 0.47696 0.34801 0.0
H282 H 0.59925 0.48695 0.39269 0.0
H283 H 0.57911 0.46833 0.34733 0.0
C284 C 0.14091 0.56022 0.58749 0.0
C285 C 0.15897 0.58085 0.56184 0.0
C286 C 0.14374 0.55949 0.63354 0.0
C287 C 0.16523 0.57984 0.65487 0.0
C288 C 0.18402 0.60032 0.62908 0.0
C289 C 0.18066 0.6006 0.58292 0.0
C290 C 0.12324 0.53724 0.65958 0.0
C291 C 0.20728 0.62231 0.65043 0.0
C292 C 0.15474 0.58838 0.77668 0.0
C293 C 0.16537 0.57509 0.79794 0.0
C294 C 0.15549 0.59095 0.73032 0.0
C295 C 0.16721 0.58003 0.70432 0.0
C296 C 0.17897 0.56757 0.72567 0.0
C297 C 0.17789 0.56523 0.77211 0.0
C298 C 0.14272 0.60442 0.70905 0.0
C299 C 0.19179 0.55578 0.69933 0.0
H300 H 0.1241 0.5448 0.57171 0.0
H301 H 0.19473 0.61664 0.56353 0.0
H302 H 0.13194 0.52811 0.67966 0.0
H303 H 0.11388 0.54429 0.68286 0.0
H304 H 0.10827 0.52241 0.6379 0.0
H305 H 0.22103 0.63579 0.62562 0.0
H306 H 0.20121 0.6331 0.67236 0.0
H307 H 0.21731 0.61493 0.67143 0.0
H308 H 0.14507 0.59615 0.79615 0.0
H309 H 0.18625 0.55498 0.78807 0.0
H310 H 0.12589 0.59041 0.68954 0.0
H311 H 0.15612 0.6194 0.68579 0.0
H312 H 0.13614 0.61351 0.73385 0.0
H313 H 0.17714 0.53923 0.68008 0.0
H314 H 0.20216 0.54898 0.72083 0.0
H315 H 0.20555 0.56986 0.67527 0.0
C316 C 0.60758 0.16965 0.10539 0.0
C317 C 0.59244 0.17522 0.13363 0.0
C318 C 0.60604 0.17102 0.05905 0.0
C319 C 0.5891 0.17834 0.04016 0.0
C320 C 0.57422 0.1846 0.06846 0.0
C321 C 0.576 0.18287 0.11472 0.0
C322 C 0.62213 0.16402 0.03025 0.0
C323 C 0.55606 0.19269 0.04983 0.0
C324 C 0.59921 0.20053 0.91942 0.0
C325 C 0.58055 0.17851 0.89741 0.0
C326 C 0.60214 0.20083 0.96576 0.0
C327 C 0.58622 0.1785 0.99086 0.0
C328 C 0.5675 0.15616 0.96876 0.0
C329 C 0.56483 0.15648 0.92252 0.0
C330 C 0.62219 0.2251 0.98794 0.0
C331 C 0.55028 0.13184 0.994 0.0
H332 H 0.62032 0.16365 0.11946 0.0
H333 H 0.56424 0.18728 0.13607 0.0
H334 H 0.60947 0.14706 1.00969 0.0
H335 H 0.63402 0.18001 1.00729 0.0
H336 H 0.63498 0.15952 0.04996 0.0
H337 H 0.54679 0.19814 0.07615 0.0
H338 H 0.56648 0.20922 0.02709 0.0
H339 H 0.54087 0.17675 0.03023 0.0
H340 H 0.61141 0.21769 0.90048 0.0
H341 H 0.55042 0.1393 0.90599 0.0
H342 H 0.63603 0.22135 1.00604 0.0
H343 H 0.61299 0.23156 0.01266 0.0
H344 H 0.63295 0.24089 0.9639 0.0
H345 H 0.56205 0.12544 0.01242 0.0
H346 H 0.53689 0.11602 0.97194 0.0
H347 H 0.53887 0.13552 0.01874 0.0
C348 C 0.30983 0.50172 0.0329 0.0
C349 C 0.31705 0.51382 0.07437 0.0
C350 C 0.28847 0.49968 1.00999 0.0
C351 C 0.27412 0.51018 0.02877 0.0
C352 C 0.28035 0.52087 0.07183 0.0
C353 C 0.30156 0.52241 0.09411 0.0
C354 C 0.28228 0.48773 0.96453 0.0
C355 C 0.26577 0.53245 0.09319 0.0
C356 C 0.24526 0.54052 0.95538 0.0
C357 C 0.2188 0.52336 0.95942 0.0
C358 C 0.26337 0.53584 0.97624 0.0
C359 C 0.25499 0.51326 1.00166 0.0
C360 C 0.22839 0.49512 1.00396 0.0
C361 C 0.21058 0.50043 0.98298 0.0
C362 C 0.29147 0.55581 0.9728 0.0
C363 C 0.2187 0.47059 0.02997 0.0
H364 H 0.32157 0.49495 0.01729 0.0
H365 H 0.30677 0.53162 0.12624 0.0
H366 H 0.26128 0.47504 0.96048 0.0
H367 H 0.28873 0.50306 0.93915 0.0
H368 H 0.29194 0.47642 0.95803 0.0
H369 H 0.27138 0.5378 0.12829 0.0
H370 H 0.26952 0.54995 0.07473 0.0
H371 H 0.24483 0.51884 0.09179 0.0
H372 H 0.25194 0.55821 0.937 0.0
H373 H 0.19022 0.487 0.98622 0.0
H374 H 0.30269 0.5469 0.96103 0.0
H375 H 0.29893 0.56407 1.00599 0.0
H376 H 0.29495 0.57169 0.94992 0.0
H377 H 0.22986 0.46104 0.02156 0.0
H378 H 0.19805 0.457 0.02372 0.0
H379 H 0.22134 0.47504 0.06587 0.0
C380 C 0.79733 0.29938 0.40287 0.0
C381 C 0.7982 0.32184 0.38767 0.0
C382 C 0.77708 0.27498 0.39028 0.0
C383 C 0.75758 0.27316 0.3615 0.0
C384 C 0.75943 0.29589 0.34411 0.0
C385 C 0.77952 0.3198 0.3576 0.0
C386 C 0.77582 0.25126 0.40957 0.0
C387 C 0.7394 0.29507 0.3129 0.0
C388 C 0.70635 0.21402 0.30135 0.0
C389 C 0.68457 0.20902 0.32585 0.0
C390 C 0.73093 0.23361 0.31449 0.0
C391 C 0.73362 0.24817 0.35316 0.0
C392 C 0.71185 0.24137 0.37998 0.0
C393 C 0.68764 0.2221 0.36578 0.0
C394 C 0.75359 0.24013 0.285 0.0
C395 C 0.71367 0.25597 0.42177 0.0
H396 H 0.81175 0.30086 0.42605 0.0
H397 H 0.78032 0.33708 0.34505 0.0
H398 H 0.76046 0.24292 0.43494 0.0
H399 H 0.77095 0.23649 0.38361 0.0
H400 H 0.7942 0.25554 0.4254 0.0
H401 H 0.74489 0.31429 0.29921 0.0
H402 H 0.7362 0.28185 0.28495 0.0
H403 H 0.7209 0.28767 0.33068 0.0
H404 H 0.70402 0.20399 0.27038 0.0
H405 H 0.67081 0.21805 0.38505 0.0
H406 H 0.77076 0.24443 0.30492 0.0
H407 H 0.75826 0.25756 0.26545 0.0
H408 H 0.74955 0.22431 0.26159 0.0
H409 H 0.73022 0.25881 0.44215 0.0
H410 H 0.69596 0.24595 0.4421 0.0
H411 H 0.71677 0.27523 0.41294 0.0
C412 C 0.46334 0.78065 0.66868 0.0
C413 C 0.47682 0.7961 0.70489 0.0
C414 C 0.46728 0.76075 0.6542 0.0
C415 C 0.48497 0.75579 0.67682 0.0
C416 C 0.50002 0.77249 0.71147 0.0
C417 C 0.49586 0.79261 0.72502 0.0
C418 C 0.451 0.74381 0.61675 0.0
C419 C 0.51916 0.76802 0.73632 0.0
C420 C 0.46096 0.68444 0.67712 0.0
C421 C 0.47447 0.68169 0.64174 0.0
C422 C 0.46572 0.70865 0.69102 0.0
C423 C 0.48428 0.7309 0.66858 0.0
C424 C 0.49918 0.72841 0.63456 0.0
C425 C 0.49421 0.70375 0.62166 0.0
C426 C 0.44955 0.71018 0.72786 0.0
C427 C 0.5192 0.7516 0.60989 0.0
H428 H 0.44887 0.78353 0.65254 0.0
H429 H 0.50632 0.80451 0.75302 0.0
H430 H 0.46299 0.74064 0.59254 0.0
H431 H 0.43662 0.72478 0.6301 0.0
H432 H 0.44065 0.75212 0.59907 0.0
H433 H 0.53257 0.78506 0.75613 0.0
H434 H 0.50879 0.75153 0.75917 0.0
H435 H 0.53041 0.76315 0.71319 0.0
H436 H 0.44595 0.66743 0.69326 0.0
H437 H 0.50471 0.7017 0.59431 0.0
H438 H 0.43611 0.71597 0.714 0.0
H439 H 0.46183 0.72491 0.75247 0.0
H440 H 0.43816 0.69154 0.74524 0.0
H441 H 0.50958 0.75846 0.5868 0.0
H442 H 0.53215 0.74716 0.59039 0.0
H443 H 0.53086 0.76751 0.63312 0.0
C444 C 0.69135 0.46647 0.99686 0.0
C445 C 0.68859 0.47808 0.0351 0.0
C446 C 0.71552 0.4714 0.98231 0.0
C447 C 0.73766 0.48812 1.00698 0.0
C448 C 0.73521 0.50134 0.04393 0.0
C449 C 0.71063 0.49627 0.05747 0.0
C450 C 0.71703 0.45707 0.94242 0.0
C451 C 0.75827 0.51935 0.0711 0.0
C452 C 0.7856 0.46486 1.00317 0.0
C453 C 0.80268 0.48029 0.97003 0.0
C454 C 0.76557 0.46855 0.01767 0.0
C455 C 0.7621 0.48801 0.99817 0.0
C456 C 0.78017 0.50469 0.96642 0.0
C457 C 0.80043 0.50074 0.95286 0.0
C458 C 0.74714 0.45047 0.05201 0.0
C459 C 0.77722 0.52568 0.94485 0.0
H460 H 0.67437 0.45263 0.97908 0.0
H461 H 0.70859 0.50526 0.08708 0.0
H462 H 0.73259 0.47028 0.91985 0.0
H463 H 0.72155 0.44216 0.95336 0.0
H464 H 0.69873 0.44753 0.9236 0.0
H465 H 0.75411 0.53164 0.09307 0.0
H466 H 0.76413 0.508 0.09206 0.0
H467 H 0.77474 0.53181 0.04943 0.0
H468 H 0.78751 0.44927 0.01714 0.0
H469 H 0.8136 0.51274 0.92728 0.0
H470 H 0.72826 0.43776 0.03636 0.0
H471 H 0.74409 0.46138 0.07859 0.0
H472 H 0.75406 0.43823 0.0673 0.0
H473 H 0.76116 0.51706 0.92081 0.0
H474 H 0.79488 0.53959 0.92693 0.0
H475 H 0.77246 0.53617 0.96984 0.0
C476 C 0.21731 0.7034 0.39423 0.0
C477 C 0.21622 0.6812 0.37717 0.0
C478 C 0.23673 0.72799 0.38052 0.0
C479 C 0.25517 0.73025 0.34881 0.0
C480 C 0.25283 0.70778 0.32933 0.0
C481 C 0.23356 0.68366 0.34389 0.0
C482 C 0.23843 0.75143 0.40193 0.0
C483 C 0.27174 0.70907 0.29507 0.0
C484 C 0.30511 0.79109 0.29017 0.0
C485 C 0.32736 0.79593 0.313 0.0
C486 C 0.28087 0.77081 0.3033 0.0
C487 C 0.27899 0.75535 0.34025 0.0
C488 C 0.30125 0.76171 0.36534 0.0
C489 C 0.32508 0.78172 0.35124 0.0
C490 C 0.25763 0.7648 0.27577 0.0
C491 C 0.30031 0.74613 0.40527 0.0
H492 H 0.20391 0.70161 0.41986 0.0
H493 H 0.23252 0.66656 0.32992 0.0
H494 H 0.25438 0.75944 0.42625 0.0
H495 H 0.24267 0.76654 0.37691 0.0
H496 H 0.22044 0.74688 0.41954 0.0
H497 H 0.26563 0.69009 0.27974 0.0
H498 H 0.27421 0.72286 0.26852 0.0
H499 H 0.29074 0.71599 0.31083 0.0
H500 H 0.3068 0.80205 0.26061 0.0
H501 H 0.34221 0.78569 0.36942 0.0
H502 H 0.24086 0.76002 0.29721 0.0
H503 H 0.2526 0.74779 0.25477 0.0
H504 H 0.26116 0.78107 0.25383 0.0
H505 H 0.28442 0.74307 0.42765 0.0
H506 H 0.31854 0.7555 0.42431 0.0
H507 H 0.29665 0.72697 0.39434 0.0
C508 C 0.50736 0.20384 0.69921 0.0
C509 C 0.52535 0.21168 0.73373 0.0
C510 C 0.50331 0.22182 0.67575 0.0
C511 C 0.51766 0.24823 0.68693 0.0
C512 C 0.53462 0.25591 0.72351 0.0
C513 C 0.53817 0.2376 0.7464 0.0
C514 C 0.48475 0.21274 0.63747 0.0
C515 C 0.55034 0.28377 0.73682 0.0
C516 C 0.5392 0.30129 0.60144 0.0
C517 C 0.52494 0.31308 0.6132 0.0
C518 C 0.53578 0.27919 0.62329 0.0
C519 C 0.51753 0.26835 0.65785 0.0
C520 C 0.50172 0.279 0.66772 0.0
C521 C 0.50564 0.30128 0.64534 0.0
C522 C 0.55306 0.26856 0.6114 0.0
C523 C 0.48177 0.26784 0.70379 0.0
H524 H 0.49733 0.18389 0.68913 0.0
H525 H 0.55192 0.24389 0.77328 0.0
H526 H 0.47273 0.22195 0.63823 0.0
H527 H 0.4956 0.21829 0.60589 0.0
H528 H 0.47203 0.19156 0.63769 0.0
H529 H 0.5611 0.28635 0.76806 0.0
H530 H 0.5643 0.29472 0.71023 0.0
H531 H 0.53782 0.29226 0.74114 0.0
H532 H 0.55398 0.31005 0.57635 0.0
H533 H 0.49449 0.31017 0.65469 0.0
H534 H 0.54161 0.24754 0.60601 0.0
H535 H 0.56643 0.2719 0.6392 0.0
H536 H 0.56455 0.27763 0.58116 0.0
H537 H 0.47074 0.24659 0.70151 0.0
H538 H 0.46821 0.27529 0.70227 0.0
H539 H 0.49138 0.27286 0.73654 0.0
C540 C 0.49263 0.54879 0.07672 0.0
C541 C 0.46661 0.52973 0.07746 0.0
C542 C 0.51216 0.5425 0.07511 0.0
C543 C 0.50568 0.51643 0.07369 0.0
C544 C 0.47946 0.49701 0.0747 0.0
C545 C 0.46022 0.50388 0.07685 0.0
C546 C 0.5398 0.56384 0.07464 0.0
C547 C 0.47173 0.469 0.07286 0.0
C548 C 0.55632 0.50297 0.02526 0.0
C549 C 0.56733 0.49912 0.06338 0.0
C550 C 0.53597 0.5081 0.02815 0.0
C551 C 0.52646 0.50972 0.07021 0.0
C552 C 0.53762 0.50608 0.10885 0.0
C553 C 0.5578 0.50072 0.10498 0.0
C554 C 0.5246 0.51174 0.98609 0.0
C555 C 0.52832 0.50797 0.15434 0.0
H556 H 0.49787 0.56884 0.07754 0.0
H557 H 0.44021 0.48903 0.07735 0.0
H558 H 0.55042 0.56136 0.10244 0.0
H559 H 0.54918 0.56309 0.04352 0.0
H560 H 0.54166 0.58312 0.07737 0.0
H561 H 0.4506 0.45621 0.07455 0.0
H562 H 0.47884 0.46497 0.04171 0.0
H563 H 0.48065 0.46421 0.10066 0.0
H564 H 0.56331 0.50155 0.99292 0.0
H565 H 0.56607 0.49769 0.13466 0.0
H566 H 0.52719 0.53133 0.98524 0.0
H567 H 0.50368 0.49798 0.98514 0.0
H568 H 0.53352 0.50898 0.95595 0.0
H569 H 0.53083 0.52738 0.1592 0.0
H570 H 0.53873 0.50428 0.1811 0.0
H571 H 0.50754 0.49398 0.15755 0.0
C572 C 0.94817 0.48581 0.4348 0.0
C573 C 0.94044 0.45965 0.43084 0.0
C574 C 0.97398 0.50496 0.43054 0.0
C575 C 0.99279 0.49794 0.42222 0.0
C576 C 0.98529 0.47157 0.41906 0.0
C577 C 0.95919 0.45272 0.42337 0.0
C578 C 0.98103 0.53278 0.43417 0.0
C579 C 0.0048 0.46331 0.41043 0.0
C580 C 0.05473 0.54866 0.36782 0.0
C581 C 0.0714 0.55876 0.40413 0.0
C582 C 0.02927 0.52867 0.37317 0.0
C583 C 0.02015 0.51838 0.41586 0.0
C584 C 0.03685 0.52851 0.45267 0.0
C585 C 0.0622 0.54857 0.4464 0.0
C586 C 0.01207 0.51861 0.33307 0.0
C587 C 0.02793 0.51815 0.49875 0.0
H588 H 0.93394 0.49149 0.4407 0.0
H589 H 0.95345 0.4326 0.42024 0.0
H590 H 0.99558 0.54243 0.46052 0.0
H591 H 0.98969 0.54287 0.40265 0.0
H592 H 0.96419 0.53503 0.44174 0.0
H593 H 0.99609 0.4421 0.41051 0.0
H594 H 0.0141 0.47077 0.37787 0.0
H595 H 0.02011 0.47153 0.43591 0.0
H596 H 0.06161 0.55626 0.33499 0.0
H597 H 0.07491 0.55605 0.47469 0.0
H598 H 0.99537 0.52149 0.33724 0.0
H599 H 0.00449 0.49767 0.32962 0.0
H600 H 0.02221 0.52824 0.30202 0.0
H601 H 0.01183 0.52109 0.50857 0.0
H602 H 0.04347 0.52752 0.52369 0.0
H603 H 0.02064 0.49718 0.49938 0.0
C604 C 0.50784 0.05505 0.74824 0.0
C605 C 0.52911 0.07224 0.77349 0.0
C606 C 0.49987 0.02866 0.74716 0.0
C607 C 0.51338 0.01921 0.77209 0.0
C608 C 0.53499 0.03654 0.79725 0.0
C609 C 0.54258 0.06273 0.79756 0.0
C610 C 0.47678 0.01083 0.7198 0.0
C611 C 0.54984 0.02735 0.82463 0.0
C612 C 0.47822 0.94966 0.81039 0.0
C613 C 0.4874 0.93794 0.78112 0.0
C614 C 0.48636 0.97592 0.80748 0.0
C615 C 0.50411 0.99106 0.77431 0.0
C616 C 0.51359 0.97944 0.74468 0.0
C617 C 0.50519 0.95303 0.74851 0.0
C618 C 0.47595 0.98748 0.8401 0.0
C619 C 0.53251 0.9949 0.70882 0.0
H620 H 0.49741 0.06219 0.72933 0.0
H621 H 0.55906 0.07576 0.8172 0.0
H622 H 0.48179 0.9997 0.69664 0.0
H623 H 0.46132 0.99683 0.74174 0.0
H624 H 0.4692 0.0213 0.7004 0.0
H625 H 0.56681 0.0434 0.84097 0.0
H626 H 0.53722 0.0139 0.85055 0.0
H627 H 0.55644 0.01669 0.80351 0.0
H628 H 0.4645 0.93824 0.83577 0.0
H629 H 0.51223 0.94413 0.72553 0.0
H630 H 0.46629 0.99641 0.82216 0.0
H631 H 0.49192 0.00288 0.85933 0.0
H632 H 0.46204 0.97304 0.86363 0.0
H633 H 0.52435 0.00402 0.68735 0.0
H634 H 0.53767 0.98298 0.68788 0.0
H635 H 0.55027 0.01057 0.72384 0.0
C636 C 0.46833 0.52281 0.64144 0.0
C637 C 0.47943 0.54494 0.61488 0.0
C638 C 0.47678 0.50489 0.63961 0.0
C639 C 0.49672 0.50892 0.61012 0.0
C640 C 0.50802 0.53119 0.58306 0.0
C641 C 0.49936 0.54904 0.58595 0.0
C642 C 0.46446 0.48171 0.66962 0.0
C643 C 0.52921 0.5361 0.55098 0.0
C644 C 0.5349 0.47605 0.6387 0.0
C645 C 0.52352 0.45415 0.61163 0.0
C646 C 0.52654 0.49405 0.63811 0.0
C647 C 0.50641 0.49035 0.60937 0.0
C648 C 0.49486 0.46834 0.58173 0.0
C649 C 0.50344 0.45039 0.58339 0.0
C650 C 0.53911 0.51694 0.66872 0.0
C651 C 0.47348 0.4638 0.55039 0.0
H652 H 0.45297 0.51946 0.66403 0.0
H653 H 0.50788 0.56594 0.56505 0.0
H654 H 0.45624 0.46387 0.64966 0.0
H655 H 0.47913 0.48167 0.69179 0.0
H656 H 0.44897 0.48122 0.69035 0.0
H657 H 0.53539 0.5538 0.53116 0.0
H658 H 0.54604 0.53796 0.56926 0.0
H659 H 0.52274 0.51958 0.52807 0.0
H660 H 0.55038 0.47913 0.66077 0.0
H661 H 0.4947 0.43367 0.56211 0.0
H662 H 0.52462 0.51674 0.69165 0.0
H663 H 0.54715 0.53497 0.64931 0.0
H664 H 0.55476 0.51722 0.68864 0.0
H665 H 0.45676 0.4617 0.56936 0.0
H666 H 0.46719 0.44634 0.52985 0.0
H667 H 0.47981 0.48058 0.52813 0.0
C668 C 0.05775 0.50419 0.86699 0.0
C669 C 0.07284 0.50779 0.90468 0.0
C670 C 0.03249 0.49959 0.8706 0.0
C671 C 0.02194 0.49862 0.91295 0.0
C672 C 0.03705 0.50222 0.95117 0.0
C673 C 0.06225 0.50669 0.9466 0.0
C674 C 0.01703 0.49562 0.829 0.0
C675 C 0.02656 0.50132 0.99693 0.0
C676 C 0.96214 0.50556 0.91972 0.0
C677 C 0.94255 0.47985 0.92277 0.0
C678 C 0.98812 0.51205 0.91698 0.0
C679 C 0.99464 0.49239 0.91722 0.0
C680 C 0.97492 0.46648 0.92055 0.0
C681 C 0.94926 0.46057 0.9233 0.0
C682 C 0.00859 0.53992 0.91356 0.0
C683 C 0.98088 0.44487 0.92081 0.0
H684 H 0.0657 0.50508 0.83443 0.0
H685 H 0.07377 0.50967 0.97594 0.0
H686 H 0.99979 0.47619 0.82928 0.0
H687 H 0.01024 0.50969 0.82764 0.0
H688 H 0.02822 0.49764 0.79853 0.0
H689 H 0.04101 0.5054 0.02322 0.0
H690 H 0.01994 0.5155 0.99955 0.0
H691 H 0.00969 0.48209 1.00308 0.0
H692 H 0.9572 0.52059 0.91933 0.0
H693 H 0.93438 0.44062 0.92569 0.0
H694 H 0.01928 0.54329 0.88205 0.0
H695 H 0.02262 0.54498 0.94088 0.0
H696 H 1.00051 0.55296 0.91487 0.0
H697 H 0.99075 0.44512 0.88964 0.0
H698 H 0.96337 0.42574 0.92426 0.0
H699 H 0.99408 0.44748 0.94848 0.0
C700 C 0.45495 0.95413 0.27336 0.0
C701 C 0.45894 0.93839 0.24401 0.0
C702 C 0.47247 0.98069 0.27572 0.0
C703 C 0.49434 0.99179 0.24776 0.0
C704 C 0.49821 0.97601 0.2177 0.0
C705 C 0.48058 0.94958 0.21634 0.0
C706 C 0.46773 0.99686 0.30836 0.0
C707 C 0.52101 0.98703 0.18685 0.0
C708 C 0.527 0.06301 0.22061 0.0
C709 C 0.54899 0.07329 0.24741 0.0
C710 C 0.509 0.03666 0.22082 0.0
C711 C 0.51286 0.02001 0.24878 0.0
C712 C 0.53496 0.03022 0.27613 0.0
C713 C 0.55283 0.05672 0.27496 0.0
C714 C 0.48594 0.02659 0.19071 0.0
C715 C 0.53971 0.01313 0.30657 0.0
H716 H 0.43841 0.94562 0.2951 0.0
H717 H 0.48382 0.93763 0.19342 0.0
H718 H 0.4843 0.00666 0.33119 0.0
H719 H 0.4659 0.012 0.29057 0.0
H720 H 0.45009 0.9853 0.32825 0.0
H721 H 0.52126 0.97216 0.1654 0.0
H722 H 0.52081 1.0019 0.1654 0.0
H723 H 0.53906 0.9965 0.20625 0.0
H724 H 0.52383 0.0756 0.19911 0.0
H725 H 0.56964 0.0645 0.29602 0.0
H726 H 0.46804 0.01643 0.2104 0.0
H727 H 0.48602 0.0125 0.16713 0.0
H728 H 0.48549 0.04212 0.17149 0.0
H729 H 0.52309 1.00251 0.32904 0.0
H730 H 0.55728 0.02412 0.32689 0.0
H731 H 0.54171 0.99866 0.28688 0.0
C732 C 0.39557 0.55561 0.74905 0.0
C733 C 0.41152 0.5784 0.72616 0.0
C734 C 0.39284 0.55557 0.79534 0.0
C735 C 0.40603 0.57894 0.81921 0.0
C736 C 0.42124 0.60215 0.79596 0.0
C737 C 0.42396 0.60157 0.74986 0.0
C738 C 0.37657 0.53037 0.81889 0.0
C739 C 0.43524 0.62754 0.81987 0.0
C740 C 0.38314 0.57878 0.93692 0.0
C741 C 0.40064 0.57506 0.96211 0.0
C742 C 0.38508 0.58084 0.89053 0.0
C743 C 0.40485 0.57891 0.86863 0.0
C744 C 0.42313 0.57611 0.89397 0.0
C745 C 0.4209 0.57439 0.94034 0.0
C746 C 0.36547 0.58427 0.86488 0.0
C747 C 0.44447 0.57389 0.87198 0.0
H748 H 0.38601 0.53764 0.73103 0.0
H749 H 0.43616 0.61933 0.73237 0.0
H750 H 0.38876 0.52648 0.84151 0.0
H751 H 0.36183 0.53138 0.83948 0.0
H752 H 0.36679 0.51404 0.79551 0.0
H753 H 0.44443 0.64404 0.79664 0.0
H754 H 0.42182 0.63012 0.84157 0.0
H755 H 0.45032 0.62784 0.84141 0.0
H756 H 0.36742 0.57935 0.95335 0.0
H757 H 0.43446 0.5714 0.95937 0.0
H758 H 0.35381 0.56709 0.84411 0.0
H759 H 0.37519 0.60097 0.84224 0.0
H760 H 0.35236 0.58719 0.88692 0.0
H761 H 0.43621 0.55652 0.85078 0.0
H762 H 0.45762 0.57263 0.89638 0.0
H763 H 0.45583 0.59068 0.8502 0.0
C764 C 0.85736 0.41181 0.26877 0.0
C765 C 0.84122 0.41703 0.29503 0.0
C766 C 0.85678 0.41274 0.22243 0.0
C767 C 0.83983 0.41931 0.20146 0.0
C768 C 0.82355 0.42474 0.2276 0.0
C769 C 0.82435 0.42344 0.27409 0.0
C770 C 0.87442 0.40673 0.19588 0.0
C771 C 0.80541 0.43209 0.20643 0.0
C772 C 0.8587 0.44686 0.08553 0.0
C773 C 0.8427 0.42573 0.05874 0.0
C774 C 0.85754 0.44512 0.13184 0.0
C775 C 0.84013 0.42158 0.15225 0.0
C776 C 0.82396 0.4001 0.12557 0.0
C777 C 0.82536 0.40245 0.07912 0.0
C778 C 0.87509 0.46851 0.15896 0.0
C779 C 0.80532 0.3746 0.14614 0.0
H780 H 0.87039 0.40669 0.2844 0.0
H781 H 0.81177 0.42743 0.294 0.0
H782 H 0.86311 0.39093 0.17225 0.0
H783 H 0.88785 0.42375 0.17612 0.0
H784 H 0.88583 0.40108 0.21718 0.0
H785 H 0.79371 0.43534 0.23127 0.0
H786 H 0.81642 0.44987 0.18666 0.0
H787 H 0.79232 0.4168 0.18333 0.0
H788 H 0.87209 0.46503 0.07032 0.0
H789 H 0.81287 0.38606 0.05881 0.0
H790 H 0.88814 0.46458 0.17916 0.0
H791 H 0.86366 0.47307 0.18222 0.0
H792 H 0.88689 0.48564 0.13805 0.0
H793 H 0.81591 0.36748 0.16627 0.0
H794 H 0.79376 0.35988 0.12093 0.0
H795 H 0.79211 0.37692 0.16881 0.0
C796 C 0.4343 0.83886 0.61077 0.0
C797 C 0.43047 0.85738 0.63222 0.0
C798 C 0.43342 0.83681 0.56437 0.0
C799 C 0.4279 0.85322 0.53885 0.0
C800 C 0.42227 0.87073 0.56058 0.0
C801 C 0.42402 0.87287 0.60693 0.0
C802 C 0.44006 0.81826 0.54266 0.0
C803 C 0.41553 0.88804 0.53475 0.0
C804 C 0.45411 0.8745 0.42251 0.0
C805 C 0.43262 0.85905 0.39634 0.0
C806 C 0.4532 0.87177 0.46878 0.0
C807 C 0.42999 0.85369 0.48955 0.0
C808 C 0.40847 0.83741 0.46314 0.0
C809 C 0.41015 0.84006 0.41682 0.0
C810 C 0.47684 0.88898 0.49557 0.0
C811 C 0.38321 0.81826 0.48384 0.0
H812 H 0.43963 0.82703 0.63005 0.0
H813 H 0.42101 0.88718 0.62335 0.0
H814 H 0.42554 0.80657 0.51736 0.0
H815 H 0.45876 0.82919 0.5254 0.0
H816 H 0.44146 0.80516 0.56701 0.0
H817 H 0.40883 0.89838 0.55657 0.0
H818 H 0.4326 0.90243 0.5162 0.0
H819 H 0.40031 0.87673 0.51016 0.0
H820 H 0.4715 0.88916 0.40683 0.0
H821 H 0.39334 0.82825 0.39684 0.0
H822 H 0.48088 0.87746 0.51953 0.0
H823 H 0.47355 0.90276 0.5149 0.0
H824 H 0.49401 0.90003 0.47436 0.0
H825 H 0.38603 0.80622 0.50848 0.0
H826 H 0.36904 0.80551 0.4588 0.0
H827 H 0.37506 0.82867 0.5017 0.0
C828 C 0.59983 0.44068 0.74958 0.0
C829 C 0.58496 0.41772 0.72635 0.0
C830 C 0.59947 0.44125 0.79616 0.0
C831 C 0.58414 0.41827 0.82014 0.0
C832 C 0.57018 0.39485 0.79688 0.0
C833 C 0.57063 0.39488 0.75037 0.0
C834 C 0.61458 0.46667 0.81963 0.0
C835 C 0.55395 0.36985 0.82104 0.0
C836 C 0.59703 0.41925 0.94394 0.0
C837 C 0.57821 0.4239 0.96206 0.0
C838 C 0.59882 0.41673 0.89797 0.0
C839 C 0.58147 0.41902 0.86925 0.0
C840 C 0.56188 0.42277 0.88741 0.0
C841 C 0.56042 0.42505 0.9335 0.0
C842 C 0.6198 0.41243 0.88008 0.0
C843 C 0.54299 0.42536 0.85802 0.0
H844 H 0.61085 0.45842 0.73136 0.0
H845 H 0.55921 0.377 0.73273 0.0
H846 H 0.60121 0.47151 0.83667 0.0
H847 H 0.62706 0.46541 0.84535 0.0
H848 H 0.62672 0.48252 0.79653 0.0
H849 H 0.54623 0.35304 0.79847 0.0
H850 H 0.56532 0.36729 0.84738 0.0
H851 H 0.5376 0.37018 0.83736 0.0
H852 H 0.6109 0.41832 0.9656 0.0
H853 H 0.54588 0.42874 0.94698 0.0
H854 H 0.63334 0.42921 0.85995 0.0
H855 H 0.61154 0.39543 0.85799 0.0
H856 H 0.63077 0.40954 0.90685 0.0
H857 H 0.55337 0.44239 0.83628 0.0
H858 H 0.52841 0.42744 0.8773 0.0
H859 H 0.53296 0.40832 0.83623 0.0
C860 C 0.17691 0.56819 0.08209 0.0
C861 C 0.15789 0.5712 0.06054 0.0
C862 C 0.17892 0.56914 0.12854 0.0
C863 C 0.16179 0.57361 0.15405 0.0
C864 C 0.1435 0.57806 0.1323 0.0
C865 C 0.14164 0.57659 0.08591 0.0
C866 C 0.19854 0.56407 0.15035 0.0
C867 C 0.12523 0.58346 0.15814 0.0
C868 C 0.14361 0.54916 0.27227 0.0
C869 C 0.15802 0.57165 0.29697 0.0
C870 C 0.14557 0.54929 0.22585 0.0
C871 C 0.16207 0.57253 0.20345 0.0
C872 C 0.17746 0.59503 0.22831 0.0
C873 C 0.1754 0.59428 0.27468 0.0
C874 C 0.12919 0.52475 0.20064 0.0
C875 C 0.19513 0.62026 0.20586 0.0
H876 H 0.18942 0.56378 0.06283 0.0
H877 H 0.12694 0.57899 0.06954 0.0
H878 H 0.21016 0.57946 0.17444 0.0
H879 H 0.18859 0.54577 0.16908 0.0
H880 H 0.21163 0.56275 0.12593 0.0
H881 H 0.11347 0.58838 0.13627 0.0
H882 H 0.11214 0.56635 0.17803 0.0
H883 H 0.13601 0.59953 0.18157 0.0
H884 H 0.13022 0.53158 0.2891 0.0
H885 H 0.18664 0.61182 0.29329 0.0
H886 H 0.14112 0.52115 0.17692 0.0
H887 H 0.11455 0.52655 0.18113 0.0
H888 H 0.1192 0.50789 0.22294 0.0
H889 H 0.20767 0.61792 0.18169 0.0
H890 H 0.20739 0.63547 0.22989 0.0
H891 H 0.18356 0.6268 0.18716 0.0
C892 C 0.59123 0.14642 0.60705 0.0
C893 C 0.58225 0.1597 0.63275 0.0
C894 C 0.59263 0.14872 0.5607 0.0
C895 C 0.58431 0.16426 0.53929 0.0
C896 C 0.57654 0.17882 0.56521 0.0
C897 C 0.57583 0.17655 0.61165 0.0
C898 C 0.60167 0.13334 0.53451 0.0
C899 C 0.56728 0.19542 0.54386 0.0
C900 C 0.59985 0.17648 0.41622 0.0
C901 C 0.57815 0.15566 0.39717 0.0
C902 C 0.60182 0.18024 0.46237 0.0
C903 C 0.58138 0.16309 0.49004 0.0
C904 C 0.55872 0.14316 0.47059 0.0
C905 C 0.55752 0.13951 0.42452 0.0
C906 C 0.62647 0.20149 0.48159 0.0
C907 C 0.5362 0.12478 0.49864 0.0
H908 H 0.59632 0.13345 0.62311 0.0
H909 H 0.56865 0.18674 0.63117 0.0
H910 H 0.58523 0.11773 0.51646 0.0
H911 H 0.61609 0.14567 0.50949 0.0
H912 H 0.61025 0.12462 0.55602 0.0
H913 H 0.56489 0.20787 0.56831 0.0
H914 H 0.58083 0.20772 0.51778 0.0
H915 H 0.54851 0.18299 0.52766 0.0
H916 H 0.61604 0.18887 0.3954 0.0
H917 H 0.5407 0.12341 0.40999 0.0
H918 H 0.637 0.19304 0.49814 0.0
H919 H 0.62246 0.21232 0.50702 0.0
H920 H 0.63912 0.2151 0.45579 0.0
H921 H 0.54148 0.11248 0.51817 0.0
H922 H 0.51906 0.11218 0.47833 0.0
H923 H 0.53103 0.13551 0.52244 0.0
loop_
_geom_bond_atom_site_label_1
_geom_bond_atom_site_label_2
_geom_bond_distance
_geom_bond_site_symmetry_2
_ccdc_geom_bond_type
Mg0 O7 2.141 . S
Mg0 O8 2.048 . S
Mg0 O9 2.071 . S
Mg0 O12 2.141 . S
C1 O2 1.313 . S
C1 O8 1.195 . S
O2 C1 1.313 . S
C3 O4 1.245 . S
C3 O12 1.289 . S
O4 C3 1.245 . S
C5 O6 1.245 . S
C5 O7 1.289 . S
O6 C5 1.245 . S
O7 Mg0 2.141 . S
O7 C5 1.289 . S
O8 Mg0 2.048 . S
O8 C1 1.195 . S
O9 Mg0 2.071 . S
O9 C10 1.179 1_554 S
C10 O9 1.179 1_556 S
C10 O11 1.313 . S
O11 C10 1.313 . S
O12 Mg0 2.141 . S
O12 C3 1.289 . S
Mg13 O20 2.141 . S
Mg13 O21 2.048 . S
Mg13 O22 2.048 . S
Mg13 O25 2.141 . S
C14 O15 1.313 . S
C14 O21 1.195 . S
O15 C14 1.313 . S
C16 O17 1.245 . S
C16 O25 1.289 . S
O17 C16 1.245 . S
C18 O19 1.245 . S
C18 O20 1.289 . S
O19 C18 1.245 . S
O20 Mg13 2.141 . S
O20 C18 1.289 . S
O21 Mg13 2.048 . S
O21 C14 1.195 . S
O22 Mg13 2.048 . S
O22 C23 1.195 . S
C23 O22 1.195 . S
C23 O24 1.313 . S
O24 C23 1.313 . S
O25 Mg13 2.141 . S
O25 C16 1.289 . S
Mg26 O33 2.141 . S
Mg26 O34 2.048 . S
Mg26 O35 2.048 . S
Mg26 O38 2.141 . S
C27 O28 1.313 . S
C27 O34 1.195 . S
O28 C27 1.313 . S
C29 O30 1.245 . S
C29 O38 1.289 . S
O30 C29 1.245 . S
C31 O32 1.245 . S
C31 O33 1.289 . S
O32 C31 1.245 . S
O33 Mg26 2.141 . S
O33 C31 1.289 . S
O34 Mg26 2.048 . S
O34 C27 1.195 . S
O35 Mg26 2.048 . S
O35 C36 1.195 . S
C36 O35 1.195 . S
C36 O37 1.313 . S
O37 C36 1.313 . S
O38 Mg26 2.141 . S
O38 C29 1.289 . S
Mg39 O46 2.141 . S
Mg39 O47 2.048 . S
Mg39 O48 2.071 . S
Mg39 O51 2.141 . S
C40 O41 1.313 . S
C40 O47 1.195 . S
O41 C40 1.313 . S
C42 O43 1.245 . S
C42 O51 1.289 . S
O43 C42 1.245 . S
C44 O45 1.245 . S
C44 O46 1.289 . S
O45 C44 1.245 . S
O46 Mg39 2.141 . S
O46 C44 1.289 . S
O47 Mg39 2.048 . S
O47 C40 1.195 . S
O48 Mg39 2.071 . S
O48 C49 1.179 1_554 S
C49 O48 1.179 1_556 S
C49 O50 1.313 . S
O50 C49 1.313 . S
O51 Mg39 2.141 . S
O51 C42 1.289 . S
Mg52 O59 2.141 . S
Mg52 O60 2.048 . S
Mg52 O61 2.048 . S
Mg52 O64 2.141 . S
C53 O54 1.313 . S
C53 O60 1.195 . S
O54 C53 1.313 . S
C55 O56 1.245 . S
C55 O64 1.289 . S
O56 C55 1.245 . S
C57 O58 1.245 . S
C57 O59 1.289 . S
O58 C57 1.245 . S
O59 Mg52 2.141 . S
O59 C57 1.289 . S
O60 Mg52 2.048 . S
O60 C53 1.195 . S
O61 Mg52 2.048 . S
O61 C62 1.195 . S
C62 O61 1.195 . S
C62 O63 1.313 . S
O63 C62 1.313 . S
O64 Mg52 2.141 . S
O64 C55 1.289 . S
Mg65 O72 2.141 . S
Mg65 O73 2.048 . S
Mg65 O74 2.048 . S
Mg65 O77 2.141 . S
C66 O67 1.313 . S
C66 O73 1.195 . S
O67 C66 1.313 . S
C68 O69 1.245 . S
C68 O77 1.289 . S
O69 C68 1.245 . S
C70 O71 1.245 . S
C70 O72 1.289 . S
O71 C70 1.245 . S
O72 Mg65 2.141 . S
O72 C70 1.289 . S
O73 Mg65 2.048 . S
O73 C66 1.195 . S
O74 Mg65 2.048 . S
O74 C75 1.195 . S
C75 O74 1.195 . S
C75 O76 1.313 . S
O76 C75 1.313 . S
O77 Mg65 2.141 . S
O77 C68 1.289 . S
Mg78 O85 2.141 . S
Mg78 O86 2.048 . S
Mg78 O87 2.048 . S
Mg78 O90 2.141 . S
C79 O80 1.313 . S
C79 O86 1.195 . S
O80 C79 1.313 . S
C81 O82 1.245 . S
C81 O90 1.289 . S
O82 C81 1.245 . S
C83 O84 1.245 . S
C83 O85 1.289 . S
O84 C83 1.245 . S
O85 Mg78 2.141 . S
O85 C83 1.289 . S
O86 Mg78 2.048 . S
O86 C79 1.195 . S
O87 Mg78 2.048 . S
O87 C88 1.195 . S
C88 O87 1.195 . S
C88 O89 1.313 . S
O89 C88 1.313 . S
O90 Mg78 2.141 . S
O90 C81 1.289 . S
Mg91 O98 2.141 . S
Mg91 O99 2.048 . S
Mg91 O100 2.070 . S
Mg91 O103 2.141 . S
C92 O93 1.313 . S
C92 O99 1.195 . S
O93 C92 1.313 . S
C94 O95 1.245 . S
C94 O103 1.289 . S
O95 C94 1.245 . S
C96 O97 1.245 . S
C96 O98 1.289 . S
O97 C96 1.245 . S
O98 Mg91 2.141 . S
O98 C96 1.289 . S
O99 Mg91 2.048 . S
O99 C92 1.195 . S
O100 Mg91 2.070 . S
O100 C101 1.180 1_556 S
C101 O100 1.180 1_554 S
C101 O102 1.313 . S
O102 C101 1.313 . S
O103 Mg91 2.141 . S
O103 C94 1.289 . S
Mg104 O111 2.141 . S
Mg104 O112 2.048 . S
Mg104 O113 2.048 . S
Mg104 O116 2.141 . S
C105 O106 1.313 . S
C105 O112 1.195 . S
O106 C105 1.313 . S
C107 O108 1.245 . S
C107 O116 1.289 . S
O108 C107 1.245 . S
C109 O110 1.245 . S
C109 O111 1.289 . S
O110 C109 1.245 . S
O111 Mg104 2.141 . S
O111 C109 1.289 . S
O112 Mg104 2.048 . S
O112 C105 1.195 . S
O113 Mg104 2.048 . S
O113 C114 1.195 . S
C114 O113 1.195 . S
C114 O115 1.313 . S
O115 C114 1.313 . S
O116 Mg104 2.141 . S
O116 C107 1.289 . S
Mg117 O124 2.141 . S
Mg117 O125 2.048 . S
Mg117 O126 2.048 . S
Mg117 O129 2.141 . S
C118 O119 1.313 . S
C118 O125 1.195 . S
O119 C118 1.313 . S
C120 O121 1.245 . S
C120 O129 1.289 . S
O121 C120 1.245 . S
C122 O123 1.245 . S
C122 O124 1.289 . S
O123 C122 1.245 . S
O124 Mg117 2.141 . S
O124 C122 1.289 . S
O125 Mg117 2.048 . S
O125 C118 1.195 . S
O126 Mg117 2.048 . S
O126 C127 1.195 . S
C127 O126 1.195 . S
C127 O128 1.313 . S
O128 C127 1.313 . S
O129 Mg117 2.141 . S
O129 C120 1.289 . S
Mg130 O137 2.141 . S
Mg130 O138 2.048 . S
Mg130 O139 2.070 . S
Mg130 O142 2.141 . S
C131 O132 1.313 . S
C131 O138 1.195 . S
O132 C131 1.313 . S
C133 O134 1.245 . S
C133 O142 1.289 . S
O134 C133 1.245 . S
C135 O136 1.245 . S
C135 O137 1.289 . S
O136 C135 1.245 . S
O137 Mg130 2.141 . S
O137 C135 1.289 . S
O138 Mg130 2.048 . S
O138 C131 1.195 . S
O139 Mg130 2.070 . S
O139 C140 1.180 1_556 S
C140 O139 1.180 1_554 S
C140 O141 1.313 . S
O141 C140 1.313 . S
O142 Mg130 2.141 . S
O142 C133 1.289 . S
Mg143 O150 2.141 . S
Mg143 O151 2.048 . S
Mg143 O152 2.048 . S
Mg143 O155 2.141 . S
C144 O145 1.313 . S
C144 O151 1.195 . S
O145 C144 1.313 . S
C146 O147 1.245 . S
C146 O155 1.289 . S
O147 C146 1.245 . S
C148 O149 1.245 . S
C148 O150 1.289 . S
O149 C148 1.245 . S
O150 Mg143 2.141 . S
O150 C148 1.289 . S
O151 Mg143 2.048 . S
O151 C144 1.195 . S
O152 Mg143 2.048 . S
O152 C153 1.195 . S
C153 O152 1.195 . S
C153 O154 1.313 . S
O154 C153 1.313 . S
O155 Mg143 2.141 . S
O155 C146 1.289 . S
C156 C157 1.391 . S
C156 C158 1.394 . S
C156 H172 0.931 . S
C157 C156 1.391 . S
C157 C161 1.376 . S
C158 C156 1.394 . S
C158 C159 1.369 . S
C158 C162 1.531 . S
C159 C158 1.369 . S
C159 C160 1.410 . S
C159 C167 1.503 . S
C160 C159 1.410 . S
C160 C161 1.392 . S
C160 C163 1.511 . S
C161 C157 1.376 . S
C161 C160 1.392 . S
C161 H173 0.929 . S
C162 C158 1.531 . S
C162 H174 0.960 . S
C162 H175 0.962 . S
C162 H176 0.960 . S
C163 C160 1.511 . S
C163 H177 0.961 . S
C163 H178 0.961 . S
C163 H179 0.961 . S
C164 C165 1.370 . S
C164 C166 1.363 . S
C164 H180 0.931 . S
C165 C164 1.370 . S
C165 C169 1.408 . S
C166 C164 1.363 . S
C166 C167 1.370 . S
C166 C170 1.524 . S
C167 C159 1.503 . S
C167 C166 1.370 . S
C167 C168 1.403 . S
C168 C167 1.403 . S
C168 C169 1.404 . S
C168 C171 1.539 . S
C169 C165 1.408 . S
C169 C168 1.404 . S
C169 H181 0.930 . S
C170 C166 1.524 . S
C170 H182 0.956 . S
C170 H183 0.961 . S
C170 H184 0.961 . S
C171 C168 1.539 . S
C171 H185 0.958 . S
C171 H186 0.961 . S
C171 H187 0.960 . S
H172 C156 0.931 . S
H173 C161 0.929 . S
H174 C162 0.960 . S
H175 C162 0.962 . S
H176 C162 0.960 . S
H177 C163 0.961 . S
H178 C163 0.961 . S
H179 C163 0.961 . S
H180 C164 0.931 . S
H181 C169 0.930 . S
H182 C170 0.956 . S
H183 C170 0.961 . S
H184 C170 0.961 . S
H185 C171 0.958 . S
H186 C171 0.961 . S
H187 C171 0.960 . S
C188 C189 1.391 . S
C188 C190 1.394 . S
C188 H204 0.931 . S
C189 C188 1.391 . S
C189 C193 1.376 . S
C190 C188 1.394 . S
C190 C191 1.369 . S
C190 C194 1.531 . S
C191 C190 1.369 . S
C191 C192 1.410 . S
C191 C199 1.503 . S
C192 C191 1.410 . S
C192 C193 1.392 . S
C192 C195 1.511 . S
C193 C189 1.376 . S
C193 C192 1.392 . S
C193 H205 0.929 . S
C194 C190 1.531 . S
C194 H206 0.960 . S
C194 H207 0.962 . S
C194 H208 0.960 . S
C195 C192 1.511 . S
C195 H209 0.961 . S
C195 H210 0.961 . S
C195 H211 0.961 . S
C196 C197 1.370 . S
C196 C198 1.363 . S
C196 H212 0.931 . S
C197 C196 1.370 . S
C197 C201 1.408 . S
C198 C196 1.363 . S
C198 C199 1.370 . S
C198 C202 1.524 . S
C199 C191 1.503 . S
C199 C198 1.370 . S
C199 C200 1.403 . S
C200 C199 1.403 . S
C200 C201 1.404 . S
C200 C203 1.539 . S
C201 C197 1.408 . S
C201 C200 1.404 . S
C201 H213 0.930 . S
C202 C198 1.524 . S
C202 H214 0.956 . S
C202 H215 0.961 . S
C202 H216 0.961 . S
C203 C200 1.539 . S
C203 H217 0.958 . S
C203 H218 0.961 . S
C203 H219 0.960 . S
H204 C188 0.931 . S
H205 C193 0.929 . S
H206 C194 0.960 . S
H207 C194 0.962 . S
H208 C194 0.960 . S
H209 C195 0.961 . S
H210 C195 0.961 . S
H211 C195 0.961 . S
H212 C196 0.931 . S
H213 C201 0.930 . S
H214 C202 0.956 . S
H215 C202 0.961 . S
H216 C202 0.961 . S
H217 C203 0.958 . S
H218 C203 0.961 . S
H219 C203 0.960 . S
C220 C221 1.391 . S
C220 C222 1.394 . S
C220 H236 0.931 . S
C221 C220 1.391 . S
C221 C225 1.376 . S
C222 C220 1.394 . S
C222 C223 1.369 . S
C222 C226 1.531 . S
C223 C222 1.369 . S
C223 C224 1.410 . S
C223 C231 1.503 1_556 S
C224 C223 1.410 . S
C224 C225 1.392 . S
C224 C227 1.511 . S
C225 C221 1.376 . S
C225 C224 1.392 . S
C225 H237 0.929 . S
C226 C222 1.531 . S
C226 H238 0.960 . S
C226 H239 0.962 . S
C226 H240 0.960 . S
C227 C224 1.511 . S
C227 H241 0.961 . S
C227 H242 0.961 1_556 S
C227 H243 0.961 . S
C228 C229 1.370 . S
C228 C230 1.363 . S
C228 H244 0.931 . S
C229 C228 1.370 . S
C229 C233 1.408 . S
C230 C228 1.363 . S
C230 C231 1.370 . S
C230 C234 1.524 . S
C231 C223 1.503 1_554 S
C231 C230 1.370 . S
C231 C232 1.403 . S
C232 C231 1.403 . S
C232 C233 1.404 . S
C232 C235 1.539 . S
C233 C229 1.408 . S
C233 C232 1.404 . S
C233 H245 0.930 . S
C234 C230 1.524 . S
C234 H246 0.956 1_554 S
C234 H247 0.961 1_554 S
C234 H248 0.961 . S
C235 C232 1.539 . S
C235 H249 0.958 . S
C235 H250 0.961 . S
C235 H251 0.960 . S
H236 C220 0.931 . S
H237 C225 0.929 . S
H238 C226 0.960 . S
H239 C226 0.962 . S
H240 C226 0.960 . S
H241 C227 0.961 . S
H242 C227 0.961 1_554 S
H243 C227 0.961 . S
H244 C228 0.931 . S
H245 C233 0.930 . S
H246 C234 0.956 1_556 S
H247 C234 0.961 1_556 S
H248 C234 0.961 . S
H249 C235 0.958 . S
H250 C235 0.961 . S
H251 C235 0.960 . S
C252 C253 1.391 . S
C252 C254 1.394 . S
C252 H268 0.931 . S
C253 C252 1.391 . S
C253 C257 1.376 . S
C254 C252 1.394 . S
C254 C255 1.369 . S
C254 C258 1.531 . S
C255 C254 1.369 . S
C255 C256 1.410 . S
C255 C263 1.503 . S
C256 C255 1.410 . S
C256 C257 1.392 . S
C256 C259 1.511 . S
C257 C253 1.376 . S
C257 C256 1.392 . S
C257 H269 0.929 . S
C258 C254 1.531 . S
C258 H270 0.960 . S
C258 H271 0.962 . S
C258 H272 0.960 . S
C259 C256 1.511 . S
C259 H273 0.961 . S
C259 H274 0.961 . S
C259 H275 0.961 . S
C260 C261 1.370 . S
C260 C262 1.363 . S
C260 H276 0.931 . S
C261 C260 1.370 . S
C261 C265 1.408 . S
C262 C260 1.363 . S
C262 C263 1.370 . S
C262 C266 1.524 . S
C263 C255 1.503 . S
C263 C262 1.370 . S
C263 C264 1.403 . S
C264 C263 1.403 . S
C264 C265 1.404 . S
C264 C267 1.539 . S
C265 C261 1.408 . S
C265 C264 1.404 . S
C265 H277 0.930 . S
C266 C262 1.524 . S
C266 H278 0.956 . S
C266 H279 0.961 . S
C266 H280 0.961 . S
C267 C264 1.539 . S
C267 H281 0.958 . S
C267 H282 0.961 . S
C267 H283 0.960 . S
H268 C252 0.931 . S
H269 C257 0.929 . S
H270 C258 0.960 . S
H271 C258 0.962 . S
H272 C258 0.960 . S
H273 C259 0.961 . S
H274 C259 0.961 . S
H275 C259 0.961 . S
H276 C260 0.931 . S
H277 C265 0.930 . S
H278 C266 0.956 . S
H279 C266 0.961 . S
H280 C266 0.961 . S
H281 C267 0.958 . S
H282 C267 0.961 . S
H283 C267 0.960 . S
C284 C285 1.391 . S
C284 C286 1.394 . S
C284 H300 0.931 . S
C285 C284 1.391 . S
C285 C289 1.376 . S
C286 C284 1.394 . S
C286 C287 1.369 . S
C286 C290 1.531 . S
C287 C286 1.369 . S
C287 C288 1.410 . S
C287 C295 1.503 . S
C288 C287 1.410 . S
C288 C289 1.392 . S
C288 C291 1.511 . S
C289 C285 1.376 . S
C289 C288 1.392 . S
C289 H301 0.929 . S
C290 C286 1.531 . S
C290 H302 0.960 . S
C290 H303 0.962 . S
C290 H304 0.960 . S
C291 C288 1.511 . S
C291 H305 0.961 . S
C291 H306 0.961 . S
C291 H307 0.961 . S
C292 C293 1.370 . S
C292 C294 1.363 . S
C292 H308 0.931 . S
C293 C292 1.370 . S
C293 C297 1.408 . S
C294 C292 1.363 . S
C294 C295 1.370 . S
C294 C298 1.524 . S
C295 C287 1.503 . S
C295 C294 1.370 . S
C295 C296 1.403 . S
C296 C295 1.403 . S
C296 C297 1.404 . S
C296 C299 1.539 . S
C297 C293 1.408 . S
C297 C296 1.404 . S
C297 H309 0.930 . S
C298 C294 1.524 . S
C298 H310 0.956 . S
C298 H311 0.961 . S
C298 H312 0.961 . S
C299 C296 1.539 . S
C299 H313 0.958 . S
C299 H314 0.961 . S
C299 H315 0.960 . S
H300 C284 0.931 . S
H301 C289 0.929 . S
H302 C290 0.960 . S
H303 C290 0.962 . S
H304 C290 0.960 . S
H305 C291 0.961 . S
H306 C291 0.961 . S
H307 C291 0.961 . S
H308 C292 0.931 . S
H309 C297 0.930 . S
H310 C298 0.956 . S
H311 C298 0.961 . S
H312 C298 0.961 . S
H313 C299 0.958 . S
H314 C299 0.961 . S
H315 C299 0.960 . S
C316 C317 1.391 . S
C316 C318 1.394 . S
C316 H332 0.931 . S
C317 C316 1.391 . S
C317 C321 1.376 . S
C318 C316 1.394 . S
C318 C319 1.369 . S
C318 C322 1.531 . S
C319 C318 1.369 . S
C319 C320 1.410 . S
C319 C327 1.503 1_554 S
C320 C319 1.410 . S
C320 C321 1.392 . S
C320 C323 1.511 . S
C321 C317 1.376 . S
C321 C320 1.392 . S
C321 H333 0.929 . S
C322 C318 1.531 . S
C322 H334 0.960 1_554 S
C322 H335 0.959 1_554 S
C322 H336 0.960 . S
C323 C320 1.511 . S
C323 H337 0.961 . S
C323 H338 0.961 . S
C323 H339 0.961 . S
C324 C325 1.370 . S
C324 C326 1.363 . S
C324 H340 0.931 . S
C325 C324 1.370 . S
C325 C329 1.408 . S
C326 C324 1.363 . S
C326 C327 1.370 . S
C326 C330 1.524 . S
C327 C319 1.503 1_556 S
C327 C326 1.370 . S
C327 C328 1.403 . S
C328 C327 1.403 . S
C328 C329 1.404 . S
C328 C331 1.539 . S
C329 C325 1.408 . S
C329 C328 1.404 . S
C329 H341 0.930 . S
C330 C326 1.524 . S
C330 H342 0.956 . S
C330 H343 0.949 1_556 S
C330 H344 0.961 . S
C331 C328 1.539 . S
C331 H345 0.958 . S
C331 H346 0.961 . S
C331 H347 0.960 1_556 S
H332 C316 0.931 . S
H333 C321 0.929 . S
H334 C322 0.960 1_556 S
H335 C322 0.959 1_556 S
H336 C322 0.960 . S
H337 C323 0.961 . S
H338 C323 0.961 . S
H339 C323 0.961 . S
H340 C324 0.931 . S
H341 C329 0.930 . S
H342 C330 0.956 . S
H343 C330 0.949 1_554 S
H344 C330 0.961 . S
H345 C331 0.958 . S
H346 C331 0.961 . S
H347 C331 0.960 1_554 S
C348 C349 1.391 1_556 S
C348 C350 1.394 . S
C348 H364 0.931 . S
C349 C348 1.391 1_554 S
C349 C353 1.376 . S
C350 C348 1.394 . S
C350 C351 1.369 1_556 S
C350 C354 1.531 . S
C351 C350 1.369 1_554 S
C351 C352 1.410 . S
C351 C359 1.503 1_554 S
C352 C351 1.410 . S
C352 C353 1.392 . S
C352 C355 1.511 . S
C353 C349 1.376 . S
C353 C352 1.392 . S
C353 H365 0.929 . S
C354 C350 1.531 . S
C354 H366 0.960 . S
C354 H367 0.962 . S
C354 H368 0.960 . S
C355 C352 1.511 . S
C355 H369 0.961 . S
C355 H370 0.961 . S
C355 H371 0.961 . S
C356 C357 1.370 . S
C356 C358 1.363 . S
C356 H372 0.931 . S
C357 C356 1.370 . S
C357 C361 1.408 . S
C358 C356 1.363 . S
C358 C359 1.370 . S
C358 C362 1.524 1_556 S
C359 C351 1.503 1_556 S
C359 C358 1.370 . S
C359 C360 1.403 . S
C360 C359 1.403 . S
C360 C361 1.404 . S
C360 C363 1.539 . S
C361 C357 1.408 . S
C361 C360 1.404 . S
C361 H373 0.930 . S
C362 C358 1.524 1_554 S
C362 H374 0.956 1_554 S
C362 H375 0.961 . S
C362 H376 0.961 . S
C363 C360 1.539 . S
C363 H377 0.958 . S
C363 H378 0.961 . S
C363 H379 0.960 . S
H364 C348 0.931 . S
H365 C353 0.929 . S
H366 C354 0.960 . S
H367 C354 0.962 . S
H368 C354 0.960 . S
H369 C355 0.961 . S
H370 C355 0.961 . S
H371 C355 0.961 . S
H372 C356 0.931 . S
H373 C361 0.930 . S
H374 C362 0.956 1_556 S
H375 C362 0.961 . S
H376 C362 0.961 . S
H377 C363 0.958 . S
H378 C363 0.961 . S
H379 C363 0.960 . S
C380 C381 1.391 . S
C380 C382 1.394 . S
C380 H396 0.931 . S
C381 C380 1.391 . S
C381 C385 1.376 . S
C382 C380 1.394 . S
C382 C383 1.369 . S
C382 C386 1.531 . S
C383 C382 1.369 . S
C383 C384 1.410 . S
C383 C391 1.503 . S
C384 C383 1.410 . S
C384 C385 1.392 . S
C384 C387 1.511 . S
C385 C381 1.376 . S
C385 C384 1.392 . S
C385 H397 0.929 . S
C386 C382 1.531 . S
C386 H398 0.960 . S
C386 H399 0.962 . S
C386 H400 0.960 . S
C387 C384 1.511 . S
C387 H401 0.961 . S
C387 H402 0.961 . S
C387 H403 0.961 . S
C388 C389 1.370 . S
C388 C390 1.363 . S
C388 H404 0.931 . S
C389 C388 1.370 . S
C389 C393 1.408 . S
C390 C388 1.363 . S
C390 C391 1.370 . S
C390 C394 1.524 . S
C391 C383 1.503 . S
C391 C390 1.370 . S
C391 C392 1.403 . S
C392 C391 1.403 . S
C392 C393 1.404 . S
C392 C395 1.539 . S
C393 C389 1.408 . S
C393 C392 1.404 . S
C393 H405 0.930 . S
C394 C390 1.524 . S
C394 H406 0.956 . S
C394 H407 0.961 . S
C394 H408 0.961 . S
C395 C392 1.539 . S
C395 H409 0.958 . S
C395 H410 0.961 . S
C395 H411 0.960 . S
H396 C380 0.931 . S
H397 C385 0.929 . S
H398 C386 0.960 . S
H399 C386 0.962 . S
H400 C386 0.960 . S
H401 C387 0.961 . S
H402 C387 0.961 . S
H403 C387 0.961 . S
H404 C388 0.931 . S
H405 C393 0.930 . S
H406 C394 0.956 . S
H407 C394 0.961 . S
H408 C394 0.961 . S
H409 C395 0.958 . S
H410 C395 0.961 . S
H411 C395 0.960 . S
C412 C413 1.391 . S
C412 C414 1.394 . S
C412 H428 0.931 . S
C413 C412 1.391 . S
C413 C417 1.376 . S
C414 C412 1.394 . S
C414 C415 1.369 . S
C414 C418 1.531 . S
C415 C414 1.369 . S
C415 C416 1.410 . S
C415 C423 1.503 . S
C416 C415 1.410 . S
C416 C417 1.392 . S
C416 C419 1.511 . S
C417 C413 1.376 . S
C417 C416 1.392 . S
C417 H429 0.929 . S
C418 C414 1.531 . S
C418 H430 0.960 . S
C418 H431 0.962 . S
C418 H432 0.960 . S
C419 C416 1.511 . S
C419 H433 0.961 . S
C419 H434 0.961 . S
C419 H435 0.961 . S
C420 C421 1.370 . S
C420 C422 1.363 . S
C420 H436 0.931 . S
C421 C420 1.370 . S
C421 C425 1.408 . S
C422 C420 1.363 . S
C422 C423 1.370 . S
C422 C426 1.524 . S
C423 C415 1.503 . S
C423 C422 1.370 . S
C423 C424 1.403 . S
C424 C423 1.403 . S
C424 C425 1.404 . S
C424 C427 1.539 . S
C425 C421 1.408 . S
C425 C424 1.404 . S
C425 H437 0.930 . S
C426 C422 1.524 . S
C426 H438 0.956 . S
C426 H439 0.961 . S
C426 H440 0.961 . S
C427 C424 1.539 . S
C427 H441 0.958 . S
C427 H442 0.961 . S
C427 H443 0.960 . S
H428 C412 0.931 . S
H429 C417 0.929 . S
H430 C418 0.960 . S
H431 C418 0.962 . S
H432 C418 0.960 . S
H433 C419 0.961 . S
H434 C419 0.961 . S
H435 C419 0.961 . S
H436 C420 0.931 . S
H437 C425 0.930 . S
H438 C426 0.956 . S
H439 C426 0.961 . S
H440 C426 0.961 . S
H441 C427 0.958 . S
H442 C427 0.961 . S
H443 C427 0.960 . S
C444 C445 1.391 . S
C444 C446 1.394 1_554 S
C444 H460 0.931 1_554 S
C445 C444 1.391 . S
C445 C449 1.376 . S
C446 C444 1.394 1_556 S
C446 C447 1.369 1_556 S
C446 C450 1.531 . S
C447 C446 1.369 1_554 S
C447 C448 1.410 . S
C447 C455 1.503 1_554 S
C448 C447 1.410 . S
C448 C449 1.392 . S
C448 C451 1.511 . S
C449 C445 1.376 . S
C449 C448 1.392 . S
C449 H461 0.929 . S
C450 C446 1.531 . S
C450 H462 0.960 . S
C450 H463 0.962 . S
C450 H464 0.960 . S
C451 C448 1.511 . S
C451 H465 0.961 . S
C451 H466 0.961 . S
C451 H467 0.961 . S
C452 C453 1.370 . S
C452 C454 1.363 1_556 S
C452 H468 0.931 1_556 S
C453 C452 1.370 . S
C453 C457 1.408 . S
C454 C452 1.363 1_554 S
C454 C455 1.370 1_554 S
C454 C458 1.524 . S
C455 C447 1.503 1_556 S
C455 C454 1.370 1_556 S
C455 C456 1.403 . S
C456 C455 1.403 . S
C456 C457 1.404 . S
C456 C459 1.539 . S
C457 C453 1.408 . S
C457 C456 1.404 . S
C457 H469 0.930 . S
C458 C454 1.524 . S
C458 H470 0.956 . S
C458 H471 0.961 . S
C458 H472 0.961 . S
C459 C456 1.539 . S
C459 H473 0.958 . S
C459 H474 0.961 . S
C459 H475 0.960 . S
H460 C444 0.931 1_556 S
H461 C449 0.929 . S
H462 C450 0.960 . S
H463 C450 0.962 . S
H464 C450 0.960 . S
H465 C451 0.961 . S
H466 C451 0.961 . S
H467 C451 0.961 . S
H468 C452 0.931 1_554 S
H469 C457 0.930 . S
H470 C458 0.956 . S
H471 C458 0.961 . S
H472 C458 0.961 . S
H473 C459 0.958 . S
H474 C459 0.961 . S
H475 C459 0.960 . S
C476 C477 1.391 . S
C476 C478 1.394 . S
C476 H492 0.931 . S
C477 C476 1.391 . S
C477 C481 1.376 . S
C478 C476 1.394 . S
C478 C479 1.369 . S
C478 C482 1.531 . S
C479 C478 1.369 . S
C479 C480 1.410 . S
C479 C487 1.503 . S
C480 C479 1.410 . S
C480 C481 1.392 . S
C480 C483 1.511 . S
C481 C477 1.376 . S
C481 C480 1.392 . S
C481 H493 0.929 . S
C482 C478 1.531 . S
C482 H494 0.960 . S
C482 H495 0.962 . S
C482 H496 0.960 . S
C483 C480 1.511 . S
C483 H497 0.961 . S
C483 H498 0.961 . S
C483 H499 0.961 . S
C484 C485 1.370 . S
C484 C486 1.363 . S
C484 H500 0.931 . S
C485 C484 1.370 . S
C485 C489 1.408 . S
C486 C484 1.363 . S
C486 C487 1.370 . S
C486 C490 1.524 . S
C487 C479 1.503 . S
C487 C486 1.370 . S
C487 C488 1.403 . S
C488 C487 1.403 . S
C488 C489 1.404 . S
C488 C491 1.539 . S
C489 C485 1.408 . S
C489 C488 1.404 . S
C489 H501 0.930 . S
C490 C486 1.524 . S
C490 H502 0.956 . S
C490 H503 0.961 . S
C490 H504 0.961 . S
C491 C488 1.539 . S
C491 H505 0.958 . S
C491 H506 0.961 . S
C491 H507 0.960 . S
H492 C476 0.931 . S
H493 C481 0.929 . S
H494 C482 0.960 . S
H495 C482 0.962 . S
H496 C482 0.960 . S
H497 C483 0.961 . S
H498 C483 0.961 . S
H499 C483 0.961 . S
H500 C484 0.931 . S
H501 C489 0.930 . S
H502 C490 0.956 . S
H503 C490 0.961 . S
H504 C490 0.961 . S
H505 C491 0.958 . S
H506 C491 0.961 . S
H507 C491 0.960 . S
C508 C509 1.391 . S
C508 C510 1.394 . S
C508 H524 0.931 . S
C509 C508 1.391 . S
C509 C513 1.376 . S
C510 C508 1.394 . S
C510 C511 1.369 . S
C510 C514 1.531 . S
C511 C510 1.369 . S
C511 C512 1.410 . S
C511 C519 1.503 . S
C512 C511 1.410 . S
C512 C513 1.392 . S
C512 C515 1.511 . S
C513 C509 1.376 . S
C513 C512 1.392 . S
C513 H525 0.929 . S
C514 C510 1.531 . S
C514 H526 0.960 . S
C514 H527 0.962 . S
C514 H528 0.960 . S
C515 C512 1.511 . S
C515 H529 0.961 . S
C515 H530 0.961 . S
C515 H531 0.961 . S
C516 C517 1.370 . S
C516 C518 1.363 . S
C516 H532 0.931 . S
C517 C516 1.370 . S
C517 C521 1.408 . S
C518 C516 1.363 . S
C518 C519 1.370 . S
C518 C522 1.524 . S
C519 C511 1.503 . S
C519 C518 1.370 . S
C519 C520 1.403 . S
C520 C519 1.403 . S
C520 C521 1.404 . S
C520 C523 1.539 . S
C521 C517 1.408 . S
C521 C520 1.404 . S
C521 H533 0.930 . S
C522 C518 1.524 . S
C522 H534 0.956 . S
C522 H535 0.961 . S
C522 H536 0.961 . S
C523 C520 1.539 . S
C523 H537 0.958 . S
C523 H538 0.961 . S
C523 H539 0.960 . S
H524 C508 0.931 . S
H525 C513 0.929 . S
H526 C514 0.960 . S
H527 C514 0.962 . S
H528 C514 0.960 . S
H529 C515 0.961 . S
H530 C515 0.961 . S
H531 C515 0.961 . S
H532 C516 0.931 . S
H533 C521 0.930 . S
H534 C522 0.956 . S
H535 C522 0.961 . S
H536 C522 0.961 . S
H537 C523 0.958 . S
H538 C523 0.961 . S
H539 C523 0.960 . S
C540 C541 1.391 . S
C540 C542 1.394 . S
C540 H556 0.931 . S
C541 C540 1.391 . S
C541 C545 1.376 . S
C542 C540 1.394 . S
C542 C543 1.369 . S
C542 C546 1.531 . S
C543 C542 1.369 . S
C543 C544 1.410 . S
C543 C551 1.503 . S
C544 C543 1.410 . S
C544 C545 1.392 . S
C544 C547 1.511 . S
C545 C541 1.376 . S
C545 C544 1.392 . S
C545 H557 0.929 . S
C546 C542 1.531 . S
C546 H558 0.960 . S
C546 H559 0.962 . S
C546 H560 0.960 . S
C547 C544 1.511 . S
C547 H561 0.961 . S
C547 H562 0.961 . S
C547 H563 0.961 . S
C548 C549 1.370 . S
C548 C550 1.363 . S
C548 H564 0.931 . S
C549 C548 1.370 . S
C549 C553 1.408 . S
C550 C548 1.363 . S
C550 C551 1.370 . S
C550 C554 1.522 1_554 S
C551 C543 1.503 . S
C551 C550 1.370 . S
C551 C552 1.403 . S
C552 C551 1.403 . S
C552 C553 1.404 . S
C552 C555 1.539 . S
C553 C549 1.408 . S
C553 C552 1.404 . S
C553 H565 0.930 . S
C554 C550 1.522 1_556 S
C554 H566 0.956 . S
C554 H567 0.960 1_556 S
C554 H568 0.963 . S
C555 C552 1.539 . S
C555 H569 0.958 . S
C555 H570 0.961 . S
C555 H571 0.960 . S
H556 C540 0.931 . S
H557 C545 0.929 . S
H558 C546 0.960 . S
H559 C546 0.962 . S
H560 C546 0.960 . S
H561 C547 0.961 . S
H562 C547 0.961 . S
H563 C547 0.961 . S
H564 C548 0.931 . S
H565 C553 0.930 . S
H566 C554 0.956 . S
H567 C554 0.960 1_554 S
H568 C554 0.963 . S
H569 C555 0.958 . S
H570 C555 0.961 . S
H571 C555 0.960 . S
C572 C573 1.391 . S
C572 C574 1.394 . S
C572 H588 0.931 . S
C573 C572 1.391 . S
C573 C577 1.376 . S
C574 C572 1.394 . S
C574 C575 1.369 . S
C574 C578 1.531 . S
C575 C574 1.369 . S
C575 C576 1.410 . S
C575 C583 1.503 1_655 S
C576 C575 1.410 . S
C576 C577 1.392 . S
C576 C579 1.511 . S
C577 C573 1.376 . S
C577 C576 1.392 . S
C577 H589 0.929 . S
C578 C574 1.531 . S
C578 H590 0.960 1_655 S
C578 H591 0.962 . S
C578 H592 0.960 . S
C579 C576 1.511 . S
C579 H593 0.961 . S
C579 H594 1.006 . S
C579 H595 0.961 . S
C580 C581 1.370 . S
C580 C582 1.363 . S
C580 H596 0.931 . S
C581 C580 1.370 . S
C581 C585 1.408 . S
C582 C580 1.363 . S
C582 C583 1.370 . S
C582 C586 1.524 . S
C583 C575 1.503 1_455 S
C583 C582 1.370 . S
C583 C584 1.403 . S
C584 C583 1.403 . S
C584 C585 1.404 . S
C584 C587 1.539 . S
C585 C581 1.408 . S
C585 C584 1.404 . S
C585 H597 0.930 . S
C586 C582 1.524 . S
C586 H598 0.956 . S
C586 H599 0.961 1_455 S
C586 H600 0.961 . S
C587 C584 1.539 . S
C587 H601 0.958 . S
C587 H602 0.961 . S
C587 H603 0.976 . S
H588 C572 0.931 . S
H589 C577 0.929 . S
H590 C578 0.960 1_455 S
H591 C578 0.962 . S
H592 C578 0.960 . S
H593 C579 0.961 . S
H594 C579 1.006 . S
H595 C579 0.961 . S
H596 C580 0.931 . S
H597 C585 0.930 . S
H598 C586 0.956 . S
H599 C586 0.961 1_655 S
H600 C586 0.961 . S
H601 C587 0.958 . S
H602 C587 0.961 . S
H603 C587 0.976 . S
C604 C605 1.391 . S
C604 C606 1.394 . S
C604 H620 0.931 . S
C605 C604 1.391 . S
C605 C609 1.376 . S
C606 C604 1.394 . S
C606 C607 1.369 . S
C606 C610 1.531 . S
C607 C606 1.369 . S
C607 C608 1.410 . S
C607 C615 1.503 1_545 S
C608 C607 1.410 . S
C608 C609 1.392 . S
C608 C611 1.511 . S
C609 C605 1.376 . S
C609 C608 1.392 . S
C609 H621 0.929 . S
C610 C606 1.531 . S
C610 H622 0.995 . S
C610 H623 0.962 . S
C610 H624 0.960 . S
C611 C608 1.511 . S
C611 H625 0.961 . S
C611 H626 0.961 1_545 S
C611 H627 0.961 . S
C612 C613 1.370 . S
C612 C614 1.363 . S
C612 H628 0.931 . S
C613 C612 1.370 . S
C613 C617 1.408 . S
C614 C612 1.363 . S
C614 C615 1.370 . S
C614 C618 1.524 . S
C615 C607 1.503 1_565 S
C615 C614 1.370 . S
C615 C616 1.403 . S
C616 C615 1.403 . S
C616 C617 1.404 . S
C616 C619 1.539 . S
C617 C613 1.408 . S
C617 C616 1.404 . S
C617 H629 0.930 . S
C618 C614 1.524 . S
C618 H630 0.956 1_565 S
C618 H631 0.961 1_565 S
C618 H632 0.961 . S
C619 C616 1.539 . S
C619 H633 0.958 . S
C619 H634 0.961 . S
C619 H635 0.960 . S
H620 C604 0.931 . S
H621 C609 0.929 . S
H622 C610 0.995 . S
H623 C610 0.962 . S
H624 C610 0.960 . S
H625 C611 0.961 . S
H626 C611 0.961 1_565 S
H627 C611 0.961 . S
H628 C612 0.931 . S
H629 C617 0.930 . S
H630 C618 0.956 1_545 S
H631 C618 0.961 1_545 S
H632 C618 0.961 . S
H633 C619 0.958 . S
H634 C619 0.961 . S
H635 C619 0.960 . S
C636 C637 1.391 . S
C636 C638 1.394 . S
C636 H652 0.931 . S
C637 C636 1.391 . S
C637 C641 1.376 . S
C638 C636 1.394 . S
C638 C639 1.369 . S
C638 C642 1.531 . S
C639 C638 1.369 . S
C639 C640 1.410 . S
C639 C647 1.503 . S
C640 C639 1.410 . S
C640 C641 1.392 . S
C640 C643 1.511 . S
C641 C637 1.376 . S
C641 C640 1.392 . S
C641 H653 0.929 . S
C642 C638 1.531 . S
C642 H654 0.960 . S
C642 H655 0.962 . S
C642 H656 0.960 . S
C643 C640 1.511 . S
C643 H657 0.961 . S
C643 H658 0.961 . S
C643 H659 0.961 . S
C644 C645 1.370 . S
C644 C646 1.363 . S
C644 H660 0.931 . S
C645 C644 1.370 . S
C645 C649 1.408 . S
C646 C644 1.363 . S
C646 C647 1.370 . S
C646 C650 1.524 . S
C647 C639 1.503 . S
C647 C646 1.370 . S
C647 C648 1.403 . S
C648 C647 1.403 . S
C648 C649 1.404 . S
C648 C651 1.539 . S
C649 C645 1.408 . S
C649 C648 1.404 . S
C649 H661 0.930 . S
C650 C646 1.524 . S
C650 H662 0.956 . S
C650 H663 0.961 . S
C650 H664 0.961 . S
C651 C648 1.539 . S
C651 H665 0.958 . S
C651 H666 0.961 . S
C651 H667 0.960 . S
H652 C636 0.931 . S
H653 C641 0.929 . S
H654 C642 0.960 . S
H655 C642 0.962 . S
H656 C642 0.960 . S
H657 C643 0.961 . S
H658 C643 0.961 . S
H659 C643 0.961 . S
H660 C644 0.931 . S
H661 C649 0.930 . S
H662 C650 0.956 . S
H663 C650 0.961 . S
H664 C650 0.961 . S
H665 C651 0.958 . S
H666 C651 0.961 . S
H667 C651 0.960 . S
C668 C669 1.391 . S
C668 C670 1.394 . S
C668 H684 0.931 . S
C669 C668 1.391 . S
C669 C673 1.376 . S
C670 C668 1.394 . S
C670 C671 1.369 . S
C670 C674 1.531 . S
C671 C670 1.369 . S
C671 C672 1.410 . S
C671 C679 1.503 1_455 S
C672 C671 1.410 . S
C672 C673 1.392 . S
C672 C675 1.511 1_556 S
C673 C669 1.376 . S
C673 C672 1.392 . S
C673 H685 0.929 . S
C674 C670 1.531 . S
C674 H686 0.960 1_455 S
C674 H687 0.962 . S
C674 H688 0.960 . S
C675 C672 1.511 1_554 S
C675 H689 0.961 . S
C675 H690 0.961 1_455 S
C675 H691 0.961 . S
C676 C677 1.370 . S
C676 C678 1.363 . S
C676 H692 0.931 . S
C677 C676 1.370 . S
C677 C681 1.408 . S
C678 C676 1.363 . S
C678 C679 1.370 . S
C678 C682 1.524 . S
C679 C671 1.503 1_655 S
C679 C678 1.370 . S
C679 C680 1.403 . S
C680 C679 1.403 . S
C680 C681 1.404 . S
C680 C683 1.539 . S
C681 C677 1.408 . S
C681 C680 1.404 . S
C681 H693 0.930 . S
C682 C678 1.524 . S
C682 H694 0.956 . S
C682 H695 0.961 . S
C682 H696 0.961 . S
C683 C680 1.539 . S
C683 H697 0.958 . S
C683 H698 0.961 . S
C683 H699 0.960 1_655 S
H684 C668 0.931 . S
H685 C673 0.929 . S
H686 C674 0.960 1_655 S
H687 C674 0.962 . S
H688 C674 0.960 . S
H689 C675 0.961 . S
H690 C675 0.961 1_655 S
H691 C675 0.961 . S
H692 C676 0.931 . S
H693 C681 0.930 . S
H694 C682 0.956 . S
H695 C682 0.961 . S
H696 C682 0.961 . S
H697 C683 0.958 . S
H698 C683 0.961 . S
H699 C683 0.960 1_455 S
C700 C701 1.391 . S
C700 C702 1.394 . S
C700 H716 0.931 . S
C701 C700 1.391 . S
C701 C705 1.376 . S
C702 C700 1.394 . S
C702 C703 1.369 . S
C702 C706 1.531 . S
C703 C702 1.369 . S
C703 C704 1.410 . S
C703 C711 1.503 1_565 S
C704 C703 1.410 . S
C704 C705 1.392 . S
C704 C707 1.511 . S
C705 C701 1.376 . S
C705 C704 1.392 . S
C705 H717 0.929 . S
C706 C702 1.531 . S
C706 H718 0.945 1_565 S
C706 H719 0.962 . S
C706 H720 0.960 . S
C707 C704 1.511 . S
C707 H721 0.961 . S
C707 H722 0.961 1_565 S
C707 H723 0.961 . S
C708 C709 1.370 . S
C708 C710 1.363 . S
C708 H724 0.931 . S
C709 C708 1.370 . S
C709 C713 1.408 . S
C710 C708 1.363 . S
C710 C711 1.370 . S
C710 C714 1.524 . S
C711 C703 1.503 1_545 S
C711 C710 1.370 . S
C711 C712 1.403 . S
C712 C711 1.403 . S
C712 C713 1.404 . S
C712 C715 1.539 . S
C713 C709 1.408 . S
C713 C712 1.404 . S
C713 H725 0.930 . S
C714 C710 1.524 . S
C714 H726 0.956 1_545 S
C714 H727 0.961 1_545 S
C714 H728 0.961 . S
C715 C712 1.539 . S
C715 H729 0.958 . S
C715 H730 0.961 . S
C715 H731 0.960 . S
H716 C700 0.931 . S
H717 C705 0.929 . S
H718 C706 0.945 1_545 S
H719 C706 0.962 . S
H720 C706 0.960 . S
H721 C707 0.961 . S
H722 C707 0.961 1_545 S
H723 C707 0.961 . S
H724 C708 0.931 . S
H725 C713 0.930 . S
H726 C714 0.956 1_565 S
H727 C714 0.961 1_565 S
H728 C714 0.961 . S
H729 C715 0.958 . S
H730 C715 0.961 . S
H731 C715 0.960 . S
C732 C733 1.391 . S
C732 C734 1.394 . S
C732 H748 0.931 . S
C733 C732 1.391 . S
C733 C737 1.376 . S
C734 C732 1.394 . S
C734 C735 1.369 . S
C734 C738 1.531 . S
C735 C734 1.369 . S
C735 C736 1.410 . S
C735 C743 1.503 . S
C736 C735 1.410 . S
C736 C737 1.392 . S
C736 C739 1.511 . S
C737 C733 1.376 . S
C737 C736 1.392 . S
C737 H749 0.929 . S
C738 C734 1.531 . S
C738 H750 0.960 . S
C738 H751 0.962 . S
C738 H752 0.960 . S
C739 C736 1.511 . S
C739 H753 0.961 . S
C739 H754 0.961 . S
C739 H755 0.961 . S
C740 C741 1.370 . S
C740 C742 1.363 . S
C740 H756 0.931 . S
C741 C740 1.370 . S
C741 C745 1.408 . S
C742 C740 1.363 . S
C742 C743 1.370 . S
C742 C746 1.524 . S
C743 C735 1.503 . S
C743 C742 1.370 . S
C743 C744 1.403 . S
C744 C743 1.403 . S
C744 C745 1.404 . S
C744 C747 1.539 . S
C745 C741 1.408 . S
C745 C744 1.404 . S
C745 H757 0.930 . S
C746 C742 1.524 . S
C746 H758 0.956 . S
C746 H759 0.961 . S
C746 H760 0.961 . S
C747 C744 1.539 . S
C747 H761 0.958 . S
C747 H762 0.961 . S
C747 H763 0.960 . S
H748 C732 0.931 . S
H749 C737 0.929 . S
H750 C738 0.960 . S
H751 C738 0.962 . S
H752 C738 0.960 . S
H753 C739 0.961 . S
H754 C739 0.961 . S
H755 C739 0.961 . S
H756 C740 0.931 . S
H757 C745 0.930 . S
H758 C746 0.956 . S
H759 C746 0.961 . S
H760 C746 0.961 . S
H761 C747 0.958 . S
H762 C747 0.961 . S
H763 C747 0.960 . S
C764 C765 1.391 . S
C764 C766 1.394 . S
C764 H780 0.931 . S
C765 C764 1.391 . S
C765 C769 1.376 . S
C766 C764 1.394 . S
C766 C767 1.369 . S
C766 C770 1.531 . S
C767 C766 1.369 . S
C767 C768 1.410 . S
C767 C775 1.503 . S
C768 C767 1.410 . S
C768 C769 1.392 . S
C768 C771 1.511 . S
C769 C765 1.376 . S
C769 C768 1.392 . S
C769 H781 0.929 . S
C770 C766 1.531 . S
C770 H782 0.960 . S
C770 H783 0.962 . S
C770 H784 0.960 . S
C771 C768 1.511 . S
C771 H785 0.961 . S
C771 H786 0.961 . S
C771 H787 0.961 . S
C772 C773 1.370 . S
C772 C774 1.363 . S
C772 H788 0.931 . S
C773 C772 1.370 . S
C773 C777 1.408 . S
C774 C772 1.363 . S
C774 C775 1.370 . S
C774 C778 1.524 . S
C775 C767 1.503 . S
C775 C774 1.370 . S
C775 C776 1.403 . S
C776 C775 1.403 . S
C776 C777 1.404 . S
C776 C779 1.539 . S
C777 C773 1.408 . S
C777 C776 1.404 . S
C777 H789 0.930 . S
C778 C774 1.524 . S
C778 H790 0.956 . S
C778 H791 0.961 . S
C778 H792 0.961 . S
C779 C776 1.539 . S
C779 H793 0.958 . S
C779 H794 0.961 . S
C779 H795 0.960 . S
H780 C764 0.931 . S
H781 C769 0.929 . S
H782 C770 0.960 . S
H783 C770 0.962 . S
H784 C770 0.960 . S
H785 C771 0.961 . S
H786 C771 0.961 . S
H787 C771 0.961 . S
H788 C772 0.931 . S
H789 C777 0.930 . S
H790 C778 0.956 . S
H791 C778 0.961 . S
H792 C778 0.961 . S
H793 C779 0.958 . S
H794 C779 0.961 . S
H795 C779 0.960 . S
C796 C797 1.391 . S
C796 C798 1.394 . S
C796 H812 0.931 . S
C797 C796 1.391 . S
C797 C801 1.376 . S
C798 C796 1.394 . S
C798 C799 1.369 . S
C798 C802 1.531 . S
C799 C798 1.369 . S
C799 C800 1.410 . S
C799 C807 1.503 . S
C800 C799 1.410 . S
C800 C801 1.392 . S
C800 C803 1.511 . S
C801 C797 1.376 . S
C801 C800 1.392 . S
C801 H813 0.929 . S
C802 C798 1.531 . S
C802 H814 0.960 . S
C802 H815 0.962 . S
C802 H816 0.960 . S
C803 C800 1.511 . S
C803 H817 0.961 . S
C803 H818 0.961 . S
C803 H819 0.961 . S
C804 C805 1.370 . S
C804 C806 1.363 . S
C804 H820 0.931 . S
C805 C804 1.370 . S
C805 C809 1.408 . S
C806 C804 1.363 . S
C806 C807 1.370 . S
C806 C810 1.524 . S
C807 C799 1.503 . S
C807 C806 1.370 . S
C807 C808 1.403 . S
C808 C807 1.403 . S
C808 C809 1.404 . S
C808 C811 1.539 . S
C809 C805 1.408 . S
C809 C808 1.404 . S
C809 H821 0.930 . S
C810 C806 1.524 . S
C810 H822 0.956 . S
C810 H823 0.961 . S
C810 H824 0.961 . S
C811 C808 1.539 . S
C811 H825 0.958 . S
C811 H826 0.961 . S
C811 H827 0.960 . S
H812 C796 0.931 . S
H813 C801 0.929 . S
H814 C802 0.960 . S
H815 C802 0.962 . S
H816 C802 0.960 . S
H817 C803 0.961 . S
H818 C803 0.961 . S
H819 C803 0.961 . S
H820 C804 0.931 . S
H821 C809 0.930 . S
H822 C810 0.956 . S
H823 C810 0.961 . S
H824 C810 0.961 . S
H825 C811 0.958 . S
H826 C811 0.961 . S
H827 C811 0.960 . S
C828 C829 1.391 . S
C828 C830 1.394 . S
C828 H844 0.931 . S
C829 C828 1.391 . S
C829 C833 1.376 . S
C830 C828 1.394 . S
C830 C831 1.369 . S
C830 C834 1.531 . S
C831 C830 1.369 . S
C831 C832 1.410 . S
C831 C839 1.503 . S
C832 C831 1.410 . S
C832 C833 1.392 . S
C832 C835 1.511 . S
C833 C829 1.376 . S
C833 C832 1.392 . S
C833 H845 0.929 . S
C834 C830 1.531 . S
C834 H846 0.960 . S
C834 H847 0.962 . S
C834 H848 0.960 . S
C835 C832 1.511 . S
C835 H849 0.961 . S
C835 H850 0.961 . S
C835 H851 0.961 . S
C836 C837 1.370 . S
C836 C838 1.363 . S
C836 H852 0.931 . S
C837 C836 1.370 . S
C837 C841 1.408 . S
C838 C836 1.363 . S
C838 C839 1.370 . S
C838 C842 1.524 . S
C839 C831 1.503 . S
C839 C838 1.370 . S
C839 C840 1.403 . S
C840 C839 1.403 . S
C840 C841 1.404 . S
C840 C843 1.539 . S
C841 C837 1.408 . S
C841 C840 1.404 . S
C841 H853 0.930 . S
C842 C838 1.524 . S
C842 H854 0.956 . S
C842 H855 0.961 . S
C842 H856 0.961 . S
C843 C840 1.539 . S
C843 H857 0.958 . S
C843 H858 0.961 . S
C843 H859 0.960 . S
H844 C828 0.931 . S
H845 C833 0.929 . S
H846 C834 0.960 . S
H847 C834 0.962 . S
H848 C834 0.960 . S
H849 C835 0.961 . S
H850 C835 0.961 . S
H851 C835 0.961 . S
H852 C836 0.931 . S
H853 C841 0.930 . S
H854 C842 0.956 . S
H855 C842 0.961 . S
H856 C842 0.961 . S
H857 C843 0.958 . S
H858 C843 0.961 . S
H859 C843 0.960 . S
C860 C861 1.391 . S
C860 C862 1.394 . S
C860 H876 0.931 . S
C861 C860 1.391 . S
C861 C865 1.376 . S
C862 C860 1.394 . S
C862 C863 1.369 . S
C862 C866 1.531 . S
C863 C862 1.369 . S
C863 C864 1.410 . S
C863 C871 1.503 . S
C864 C863 1.410 . S
C864 C865 1.392 . S
C864 C867 1.511 . S
C865 C861 1.376 . S
C865 C864 1.392 . S
C865 H877 0.929 . S
C866 C862 1.531 . S
C866 H878 0.960 . S
C866 H879 0.962 . S
C866 H880 0.960 . S
C867 C864 1.511 . S
C867 H881 0.961 . S
C867 H882 0.961 . S
C867 H883 0.961 . S
C868 C869 1.370 . S
C868 C870 1.363 . S
C868 H884 0.931 . S
C869 C868 1.370 . S
C869 C873 1.408 . S
C870 C868 1.363 . S
C870 C871 1.370 . S
C870 C874 1.524 . S
C871 C863 1.503 . S
C871 C870 1.370 . S
C871 C872 1.403 . S
C872 C871 1.403 . S
C872 C873 1.404 . S
C872 C875 1.539 . S
C873 C869 1.408 . S
C873 C872 1.404 . S
C873 H885 0.930 . S
C874 C870 1.524 . S
C874 H886 0.956 . S
C874 H887 0.961 . S
C874 H888 0.961 . S
C875 C872 1.539 . S
C875 H889 0.958 . S
C875 H890 0.961 . S
C875 H891 0.960 . S
H876 C860 0.931 . S
H877 C865 0.929 . S
H878 C866 0.960 . S
H879 C866 0.962 . S
H880 C866 0.960 . S
H881 C867 0.961 . S
H882 C867 0.961 . S
H883 C867 0.961 . S
H884 C868 0.931 . S
H885 C873 0.930 . S
H886 C874 0.956 . S
H887 C874 0.961 . S
H888 C874 0.961 . S
H889 C875 0.958 . S
H890 C875 0.961 . S
H891 C875 0.960 . S
C892 C893 1.391 . S
C892 C894 1.394 . S
C892 H908 0.931 . S
C893 C892 1.391 . S
C893 C897 1.376 . S
C894 C892 1.394 . S
C894 C895 1.369 . S
C894 C898 1.531 . S
C895 C894 1.369 . S
C895 C896 1.410 . S
C895 C903 1.503 . S
C896 C895 1.410 . S
C896 C897 1.392 . S
C896 C899 1.511 . S
C897 C893 1.376 . S
C897 C896 1.392 . S
C897 H909 0.929 . S
C898 C894 1.531 . S
C898 H910 0.960 . S
C898 H911 0.962 . S
C898 H912 0.960 . S
C899 C896 1.511 . S
C899 H913 0.961 . S
C899 H914 0.961 . S
C899 H915 0.961 . S
C900 C901 1.370 . S
C900 C902 1.363 . S
C900 H916 0.931 . S
C901 C900 1.370 . S
C901 C905 1.408 . S
C902 C900 1.363 . S
C902 C903 1.370 . S
C902 C906 1.524 . S
C903 C895 1.503 . S
C903 C902 1.370 . S
C903 C904 1.403 . S
C904 C903 1.403 . S
C904 C905 1.404 . S
C904 C907 1.539 . S
C905 C901 1.408 . S
C905 C904 1.404 . S
C905 H917 0.930 . S
C906 C902 1.524 . S
C906 H918 0.956 . S
C906 H919 0.961 . S
C906 H920 0.961 . S
C907 C904 1.539 . S
C907 H921 0.958 . S
C907 H922 0.961 . S
C907 H923 0.960 . S
H908 C892 0.931 . S
H909 C897 0.929 . S
H910 C898 0.960 . S
H911 C898 0.962 . S
H912 C898 0.960 . S
H913 C899 0.961 . S
H914 C899 0.961 . S
H915 C899 0.961 . S
H916 C900 0.931 . S
H917 C905 0.930 . S
H918 C906 0.956 . S
H919 C906 0.961 . S
H920 C906 0.961 . S
H921 C907 0.958 . S
H922 C907 0.961 . S
H923 C907 0.960 . S
C157 C5 1.742 . S
C165 C83 1.767 . S
C189 C18 1.778 . S
C197 C96 1.755 . S
C221 C31 1.764 . S
C229 C109 1.757 . S
C253 C44 1.779 . S
C261 C122 1.755 . S
C285 C57 1.738 . S
C293 C135 1.771 . S
C317 C148 1.753 . S
C325 C70 1.769 . S
C349 C3 1.801 . S
C357 C133 1.808 . S
C381 C16 1.814 . S
C389 C146 1.802 . S
C413 C29 1.791 . S
C421 C81 1.812 . S
C445 C42 1.794 . S
C453 C94 1.811 . S
C477 C55 1.814 . S
C485 C107 1.802 . S
C509 C68 1.813 . S
C517 C120 1.802 . S
C541 C1 1.792 . S
C549 C40 1.793 . S
C573 C14 1.794 . S
C581 C53 1.792 . S
C605 C66 1.783 . S
C613 C27 1.786 . S
C637 C79 1.795 . S
C645 C118 1.792 . S
C669 C131 1.776 . S
C677 C92 1.794 . S
C701 C105 1.788 . S
C709 C144 1.785 . S
C733 C88 0.884 . S
C741 C10 0.898 . S
C765 C23 0.902 . S
C773 C101 0.888 . S
C797 C36 0.874 . S
C805 C114 0.899 . S
C829 C127 0.905 . S
C837 C49 0.889 . S
C861 C140 0.860 . S
C869 C62 0.906 . S
C893 C75 0.911 . S
C901 C153 0.886 . S
