# Generated by pormake.
# Topology wiu, (6)-cn, num edge types: 1
# Building blocks:
#     Node 0, Type 0, BuildingBlock: BETDAH_clean_sbu_0, # of connection points: 6
#     Node 1, Type 0, BuildingBlock: BETDAH_clean_sbu_0, # of connection points: 6
#     Node 2, Type 0, BuildingBlock: BETDAH_clean_sbu_0, # of connection points: 6
#     Node 3, Type 0, BuildingBlock: BETDAH_clean_sbu_0, # of connection points: 6
#     Node 4, Type 0, BuildingBlock: BETDAH_clean_sbu_0, # of connection points: 6
#     Node 5, Type 0, BuildingBlock: BETDAH_clean_sbu_0, # of connection points: 6
#     Node 6, Type 0, BuildingBlock: BETDAH_clean_sbu_0, # of connection points: 6
#     Node 7, Type 0, BuildingBlock: BETDAH_clean_sbu_0, # of connection points: 6
#     Node 8, Type 0, BuildingBlock: BETDAH_clean_sbu_0, # of connection points: 6
#     Node 9, Type 0, BuildingBlock: BETDAH_clean_sbu_0, # of connection points: 6
#     Node 10, Type 0, BuildingBlock: BETDAH_clean_sbu_0, # of connection points: 6
#     Node 11, Type 0, BuildingBlock: BETDAH_clean_sbu_0, # of connection points: 6
#     Node 12, Type 0, BuildingBlock: BETDAH_clean_sbu_0, # of connection points: 6
#     Node 13, Type 0, BuildingBlock: BETDAH_clean_sbu_0, # of connection points: 6
#     Node 14, Type 0, BuildingBlock: BETDAH_clean_sbu_0, # of connection points: 6
#     Node 15, Type 0, BuildingBlock: BETDAH_clean_sbu_0, # of connection points: 6
#     Edge 16, Type (0, 0), BuildingBlock: XIVTED_clean_linker_0, # of connection points: 2
#     Edge 17, Type (0, 0), BuildingBlock: XIVTED_clean_linker_0, # of connection points: 2
#     Edge 18, Type (0, 0), BuildingBlock: XIVTED_clean_linker_0, # of connection points: 2
#     Edge 19, Type (0, 0), BuildingBlock: XIVTED_clean_linker_0, # of connection points: 2
#     Edge 20, Type (0, 0), BuildingBlock: XIVTED_clean_linker_0, # of connection points: 2
#     Edge 21, Type (0, 0), BuildingBlock: XIVTED_clean_linker_0, # of connection points: 2
#     Edge 22, Type (0, 0), BuildingBlock: XIVTED_clean_linker_0, # of connection points: 2
#     Edge 23, Type (0, 0), BuildingBlock: XIVTED_clean_linker_0, # of connection points: 2
#     Edge 24, Type (0, 0), BuildingBlock: XIVTED_clean_linker_0, # of connection points: 2
#     Edge 25, Type (0, 0), BuildingBlock: XIVTED_clean_linker_0, # of connection points: 2
#     Edge 26, Type (0, 0), BuildingBlock: XIVTED_clean_linker_0, # of connection points: 2
#     Edge 27, Type (0, 0), BuildingBlock: XIVTED_clean_linker_0, # of connection points: 2
#     Edge 28, Type (0, 0), BuildingBlock: XIVTED_clean_linker_0, # of connection points: 2
#     Edge 29, Type (0, 0), BuildingBlock: XIVTED_clean_linker_0, # of connection points: 2
#     Edge 30, Type (0, 0), BuildingBlock: XIVTED_clean_linker_0, # of connection points: 2
#     Edge 31, Type (0, 0), BuildingBlock: XIVTED_clean_linker_0, # of connection points: 2
#     Edge 32, Type (0, 0), BuildingBlock: XIVTED_clean_linker_0, # of connection points: 2
#     Edge 33, Type (0, 0), BuildingBlock: XIVTED_clean_linker_0, # of connection points: 2
#     Edge 34, Type (0, 0), BuildingBlock: XIVTED_clean_linker_0, # of connection points: 2
#     Edge 35, Type (0, 0), BuildingBlock: XIVTED_clean_linker_0, # of connection points: 2
#     Edge 36, Type (0, 0), BuildingBlock: XIVTED_clean_linker_0, # of connection points: 2
#     Edge 37, Type (0, 0), BuildingBlock: XIVTED_clean_linker_0, # of connection points: 2
#     Edge 38, Type (0, 0), BuildingBlock: XIVTED_clean_linker_0, # of connection points: 2
#     Edge 39, Type (0, 0), BuildingBlock: XIVTED_clean_linker_0, # of connection points: 2
#     Edge 40, Type (0, 0), BuildingBlock: XIVTED_clean_linker_0, # of connection points: 2
#     Edge 41, Type (0, 0), BuildingBlock: XIVTED_clean_linker_0, # of connection points: 2
#     Edge 42, Type (0, 0), BuildingBlock: XIVTED_clean_linker_0, # of connection points: 2
#     Edge 43, Type (0, 0), BuildingBlock: XIVTED_clean_linker_0, # of connection points: 2
#     Edge 44, Type (0, 0), BuildingBlock: XIVTED_clean_linker_0, # of connection points: 2
#     Edge 45, Type (0, 0), BuildingBlock: XIVTED_clean_linker_0, # of connection points: 2
#     Edge 46, Type (0, 0), BuildingBlock: XIVTED_clean_linker_0, # of connection points: 2
#     Edge 47, Type (0, 0), BuildingBlock: XIVTED_clean_linker_0, # of connection points: 2
#     Edge 48, Type (0, 0), BuildingBlock: XIVTED_clean_linker_0, # of connection points: 2
#     Edge 49, Type (0, 0), BuildingBlock: XIVTED_clean_linker_0, # of connection points: 2
#     Edge 50, Type (0, 0), BuildingBlock: XIVTED_clean_linker_0, # of connection points: 2
#     Edge 51, Type (0, 0), BuildingBlock: XIVTED_clean_linker_0, # of connection points: 2
#     Edge 52, Type (0, 0), BuildingBlock: XIVTED_clean_linker_0, # of connection points: 2
#     Edge 53, Type (0, 0), BuildingBlock: XIVTED_clean_linker_0, # of connection points: 2
#     Edge 54, Type (0, 0), BuildingBlock: XIVTED_clean_linker_0, # of connection points: 2
#     Edge 55, Type (0, 0), BuildingBlock: XIVTED_clean_linker_0, # of connection points: 2
#     Edge 56, Type (0, 0), BuildingBlock: XIVTED_clean_linker_0, # of connection points: 2
#     Edge 57, Type (0, 0), BuildingBlock: XIVTED_clean_linker_0, # of connection points: 2
#     Edge 58, Type (0, 0), BuildingBlock: XIVTED_clean_linker_0, # of connection points: 2
#     Edge 59, Type (0, 0), BuildingBlock: XIVTED_clean_linker_0, # of connection points: 2
#     Edge 60, Type (0, 0), BuildingBlock: XIVTED_clean_linker_0, # of connection points: 2
#     Edge 61, Type (0, 0), BuildingBlock: XIVTED_clean_linker_0, # of connection points: 2
#     Edge 62, Type (0, 0), BuildingBlock: XIVTED_clean_linker_0, # of connection points: 2
#     Edge 63, Type (0, 0), BuildingBlock: XIVTED_clean_linker_0, # of connection points: 2
# Relax obj value: 0.557
# Max RMSD: 0.324
# Mean RMSD: 0.324
data_MOF--net-wiu--node1-BETDAH_clean_sbu_0--edge1-XIVTED_clean_linker_0
_symmetry_space_group_name_H-M    P1
_symmetry_Int_Tables_number       1
_symmetry_cell_setting            triclinic
loop_
_symmetry_equiv_pos_as_xyz
'x, y, z'
_cell_length_a     38.255224
_cell_length_b     38.197017
_cell_length_c     54.968448
_cell_angle_alpha  90.114902
_cell_angle_beta   89.506481
_cell_angle_gamma 89.99164
loop_
_atom_site_label
_atom_site_type_symbol
_atom_site_fract_x
_atom_site_fract_y
_atom_site_fract_z
_atom_type_partial_charge
Ho0 Ho 0.32979 0.16406 0.31397 0.0
Ho1 Ho 0.36563 0.10466 0.29834 0.0
C2 C 0.35996 0.10769 0.3548 0.0
C3 C 0.29364 0.21607 0.33138 0.0
C4 C 0.28362 0.25004 0.32087 0.0
C5 C 0.25923 0.27141 0.3329 0.0
C6 C 0.24881 0.3032 0.3226 0.0
C7 C 0.26264 0.31425 0.30005 0.0
C8 C 0.28732 0.29277 0.28814 0.0
C9 C 0.29759 0.26092 0.29841 0.0
C10 C 0.3962 0.18212 0.29836 0.0
C11 C 0.31449 0.14047 0.25731 0.0
C12 C 0.40803 0.06065 0.27858 0.0
C13 C 0.40685 0.03674 0.25808 0.0
C14 C 0.38133 0.04035 0.24013 0.0
C15 C 0.38516 0.02263 0.21812 0.0
C16 C 0.41467 1.00147 0.21407 0.0
C17 C 0.4371 0.99405 0.23356 0.0
C18 C 0.43334 1.01194 0.25544 0.0
C19 C 0.29812 0.08879 0.31082 0.0
O20 O 0.33517 0.13136 0.34996 0.0
O21 O 0.38099 0.09821 0.33707 0.0
O22 O 0.27971 0.18866 0.32121 0.0
O23 O 0.32685 0.21165 0.33545 0.0
O24 O 0.36731 0.19659 0.29165 0.0
O25 O 0.38815 0.15578 0.31162 0.0
O26 O 0.33942 0.11706 0.26163 0.0
O27 O 0.3056 0.16235 0.2753 0.0
O28 O 0.38725 0.0527 0.29662 0.0
O29 O 0.40782 0.09405 0.27318 0.0
O30 O 0.3245 0.06831 0.31454 0.0
O31 O 0.30915 0.11532 0.29988 0.0
H32 H 0.24811 0.26342 0.35021 0.0
H33 H 0.23008 0.31927 0.33241 0.0
H34 H 0.29815 0.3002 0.27063 0.0
H35 H 0.31618 0.24461 0.28868 0.0
H36 H 0.36011 0.05876 0.24239 0.0
H37 H 0.36733 0.02841 0.20345 0.0
H38 H 0.46015 0.97792 0.23105 0.0
H39 H 0.45272 1.00846 0.2695 0.0
Ho40 Ho 0.60263 0.57801 0.56457 0.0
Ho41 Ho 0.66253 0.61382 0.54765 0.0
C42 C 0.66028 0.60646 0.6048 0.0
C43 C 0.55036 0.54177 0.58152 0.0
C44 C 0.51607 0.53236 0.57131 0.0
C45 C 0.49445 0.50844 0.58349 0.0
C46 C 0.46251 0.49825 0.57342 0.0
C47 C 0.45153 0.51182 0.55091 0.0
C48 C 0.47324 0.53612 0.53888 0.0
C49 C 0.50525 0.54616 0.54894 0.0
C50 C 0.5846 0.64413 0.54814 0.0
C51 C 0.62437 0.56502 0.50745 0.0
C52 C 0.70888 0.6563 0.5305 0.0
C53 C 0.71711 0.67574 0.50869 0.0
C54 C 0.69864 0.67003 0.48718 0.0
C55 C 0.70229 0.69351 0.468 0.0
C56 C 0.72409 0.72293 0.47044 0.0
C57 C 0.7441 0.72708 0.49154 0.0
C58 C 0.74062 0.70352 0.51056 0.0
C59 C 0.67749 0.54663 0.56111 0.0
O60 O 0.63546 0.58277 0.60021 0.0
O61 O 0.67162 0.6262 0.58691 0.0
O62 O 0.57734 0.52798 0.57054 0.0
O63 O 0.55526 0.5748 0.58647 0.0
O64 O 0.5695 0.61501 0.54244 0.0
O65 O 0.61119 0.6363 0.561 0.0
O66 O 0.64305 0.59411 0.51041 0.0
O67 O 0.60745 0.55219 0.52674 0.0
O68 O 0.71186 0.62238 0.52922 0.0
O69 O 0.68045 0.66643 0.54175 0.0
O70 O 0.69776 0.57312 0.56518 0.0
O71 O 0.65126 0.55753 0.54999 0.0
H72 H 0.50238 0.49742 0.60073 0.0
H73 H 0.44631 0.47983 0.58335 0.0
H74 H 0.4659 0.54676 0.52141 0.0
H75 H 0.52175 0.56435 0.53907 0.0
H76 H 0.68032 0.64853 0.48569 0.0
H77 H 0.68709 0.68946 0.4517 0.0
H78 H 0.76079 0.74968 0.49403 0.0
H79 H 0.75477 0.70813 0.52727 0.0
Ho80 Ho 0.18546 0.85531 0.81329 0.0
Ho81 Ho 0.14846 0.91332 0.79624 0.0
C82 C 0.15506 0.91357 0.85315 0.0
C83 C 0.22161 0.80372 0.83085 0.0
C84 C 0.23207 0.76943 0.82067 0.0
C85 C 0.2564 0.74864 0.83289 0.0
C86 C 0.26734 0.71661 0.82297 0.0
C87 C 0.25414 0.70466 0.80057 0.0
C88 C 0.22946 0.72554 0.78848 0.0
C89 C 0.21865 0.75765 0.79838 0.0
C90 C 0.11984 0.8358 0.79734 0.0
C91 C 0.20212 0.87719 0.75648 0.0
C92 C 0.10539 0.95436 0.77463 0.0
C93 C 0.10831 0.98132 0.75576 0.0
C94 C 0.1171 0.97284 0.73162 0.0
C95 C 0.1182 0.99896 0.71395 0.0
C96 C 0.11078 0.03395 0.72018 0.0
C97 C 0.10381 0.04252 0.74458 0.0
C98 C 0.10229 0.01639 0.76216 0.0
C99 C 0.21535 0.93191 0.8082 0.0
O100 O 0.17939 0.88915 0.84871 0.0
O101 O 0.13427 0.92269 0.83534 0.0
O102 O 0.23555 0.83096 0.82039 0.0
O103 O 0.18833 0.80813 0.8351 0.0
O104 O 0.14916 0.82162 0.79085 0.0
O105 O 0.12706 0.86244 0.81046 0.0
O106 O 0.17542 0.89908 0.75972 0.0
O107 O 0.21201 0.85776 0.77534 0.0
O108 O 0.12061 0.96212 0.79506 0.0
O109 O 0.11009 0.92166 0.76814 0.0
O110 O 0.1885 0.95236 0.81033 0.0
O111 O 0.20523 0.90416 0.79836 0.0
H112 H 0.26711 0.75727 0.85006 0.0
H113 H 0.28602 0.70107 0.83296 0.0
H114 H 0.21906 0.71746 0.77109 0.0
H115 H 0.2001 0.77346 0.7885 0.0
H116 H 0.12225 0.94603 0.72622 0.0
H117 H 0.12312 0.99139 0.69524 0.0
H118 H 0.09842 0.06928 0.74997 0.0
H119 H 0.09583 0.02356 0.78075 0.0
Ho120 Ho 0.91376 0.43776 1.06261 0.0
Ho121 Ho 0.855 0.40029 1.04769 0.0
C122 C 0.85765 0.40743 1.10413 0.0
C123 C 0.96529 0.47492 1.07912 0.0
C124 C 0.99941 0.48478 1.06848 0.0
C125 C 0.02064 0.50921 1.08031 0.0
C126 C 0.05254 0.51955 1.0699 0.0
C127 C 0.06386 0.50561 1.04742 0.0
C128 C 0.04252 0.48086 1.03572 0.0
C129 C 0.01056 0.47065 1.0461 0.0
C130 C 0.93275 0.37152 1.04711 0.0
C131 C 0.88873 0.45269 1.00624 0.0
C132 C 0.81267 0.35711 1.02762 0.0
C133 C 0.78438 0.36058 1.01002 0.0
C134 C 0.79104 0.36986 0.98575 0.0
C135 C 0.76375 0.37082 0.96917 0.0
C136 C 0.72942 0.36274 0.97668 0.0
C137 C 0.72256 0.35615 1.00136 0.0
C138 C 0.74988 0.35471 1.01783 0.0
C139 C 0.83747 0.46753 1.06003 0.0
O140 O 0.8812 0.43229 1.09888 0.0
O141 O 0.84829 0.38598 1.08673 0.0
O142 O 0.93804 0.48829 1.06855 0.0
O143 O 0.96096 0.44182 1.08401 0.0
O144 O 0.94683 0.40064 1.0402 0.0
O145 O 0.90649 0.37922 1.0606 0.0
O146 O 0.86564 0.42753 1.01097 0.0
O147 O 0.91088 0.46176 1.02382 0.0
O148 O 0.80651 0.37214 1.04853 0.0
O149 O 0.84482 0.3617 1.01979 0.0
O150 O 0.81709 0.44081 1.06314 0.0
O151 O 0.86436 0.45704 1.04917 0.0
H152 H 0.01246 0.52045 1.09755 0.0
H153 H 0.06847 0.53833 1.07958 0.0
H154 H 0.05014 0.46992 1.01827 0.0
H155 H 0.99438 0.45201 1.03653 0.0
H156 H 0.81737 0.37517 0.97935 0.0
H157 H 0.77001 0.37556 0.95021 0.0
H158 H 0.69632 0.35029 1.00768 0.0
H159 H 0.74413 0.34809 1.03661 0.0
Ho160 Ho 0.65252 0.91222 1.00323 0.0
Ho161 Ho 0.6894 0.85298 0.98829 0.0
C162 C 0.70327 0.87701 1.04487 0.0
C163 C 0.60919 0.95635 1.02167 0.0
C164 C 0.60782 0.98068 1.04192 0.0
C165 C 0.62862 0.97567 1.06248 0.0
C166 C 0.61977 0.99249 1.08416 0.0
C167 C 0.58978 0.01372 1.08526 0.0
C168 C 0.57307 0.02318 1.06355 0.0
C169 C 0.58193 1.00638 1.04195 0.0
C170 C 0.72007 0.92869 0.99126 0.0
C171 C 0.65856 0.90767 0.9471 0.0
C172 C 0.72629 0.80141 0.97098 0.0
C173 C 0.73606 0.76714 0.98115 0.0
C174 C 0.76086 0.74624 0.96914 0.0
C175 C 0.77137 0.71434 0.97922 0.0
C176 C 0.75726 0.70271 1.00155 0.0
C177 C 0.73209 0.72369 1.01341 0.0
C178 C 0.72171 0.75566 1.00335 0.0
C179 C 0.62274 0.83451 1.00345 0.0
O180 O 0.67812 0.90018 1.04034 0.0
O181 O 0.71269 0.85513 1.02704 0.0
O182 O 0.63112 0.96435 1.00428 0.0
O183 O 0.60932 0.92303 1.02737 0.0
O184 O 0.69357 0.94883 0.98705 0.0
O185 O 0.70912 0.90214 1.00222 0.0
O186 O 0.68532 0.88675 0.95271 0.0
O187 O 0.63595 0.91494 0.96439 0.0
O188 O 0.73972 0.82849 0.98188 0.0
O189 O 0.69326 0.80593 0.96627 0.0
O190 O 0.65159 0.82032 1.01054 0.0
O191 O 0.63097 0.86062 0.99001 0.0
H192 H 0.64942 0.95645 1.0624 0.0
H193 H 0.6335 0.98544 1.1006 0.0
H194 H 0.55002 0.03965 1.0637 0.0
H195 H 0.56627 1.01094 1.02592 0.0
H196 H 0.77229 0.75471 0.95204 0.0
H197 H 0.79046 0.69867 0.96943 0.0
H198 H 0.721 0.7158 1.03074 0.0
H199 H 0.7028 0.77163 1.01306 0.0
Ho200 Ho 0.35649 0.40289 0.75158 0.0
Ho201 Ho 0.415 0.44119 0.73646 0.0
C202 C 0.39111 0.4536 0.79335 0.0
C203 C 0.31494 0.35661 0.76942 0.0
C204 C 0.29558 0.34847 0.79143 0.0
C205 C 0.30623 0.36168 0.81397 0.0
C206 C 0.29572 0.34475 0.8352 0.0
C207 C 0.27487 0.31453 0.83377 0.0
C208 C 0.26027 0.30486 0.81138 0.0
C209 C 0.27073 0.32181 0.79024 0.0
C210 C 0.33883 0.47027 0.74045 0.0
C211 C 0.3598 0.41127 0.69528 0.0
C212 C 0.46622 0.47898 0.72011 0.0
C213 C 0.50044 0.48898 0.73057 0.0
C214 C 0.50619 0.52379 0.7377 0.0
C215 C 0.5377 0.53368 0.7484 0.0
C216 C 0.5646 0.50909 0.75198 0.0
C217 C 0.55877 0.47414 0.74491 0.0
C218 C 0.52704 0.46417 0.73438 0.0
C219 C 0.43485 0.37511 0.75154 0.0
O220 O 0.36875 0.42768 0.78891 0.0
O221 O 0.41216 0.46411 0.77535 0.0
O222 O 0.30402 0.3832 0.75676 0.0
O223 O 0.34901 0.35498 0.77118 0.0
O224 O 0.31919 0.44339 0.73597 0.0
O225 O 0.36564 0.45972 0.7511 0.0
O226 O 0.38153 0.43737 0.70099 0.0
O227 O 0.35187 0.38858 0.71229 0.0
O228 O 0.43873 0.49206 0.73096 0.0
O229 O 0.46173 0.44622 0.7141 0.0
O230 O 0.44865 0.40444 0.75824 0.0
O231 O 0.40862 0.38254 0.73816 0.0
H232 H 0.32515 0.38271 0.81502 0.0
H233 H 0.30664 0.35308 0.85239 0.0
H234 H 0.24412 0.28171 0.80972 0.0
H235 H 0.26219 0.3117 0.77283 0.0
H236 H 0.48609 0.54342 0.7352 0.0
H237 H 0.54078 0.56066 0.75406 0.0
H238 H 0.57892 0.45452 0.7471 0.0
H239 H 0.52344 0.43703 0.72926 0.0
Ho240 Ho 0.8703 0.10435 0.50735 0.0
Ho241 Ho 0.83223 0.1625 0.48865 0.0
C242 C 0.81817 0.1432 0.54596 0.0
C243 C 0.91826 0.06784 0.5279 0.0
C244 C 0.94428 0.07751 0.54576 0.0
C245 C 0.94496 0.11177 0.55498 0.0
C246 C 0.97078 0.12167 0.5713 0.0
C247 C 0.99624 0.09743 0.57845 0.0
C248 C 0.99556 0.06321 0.5689 0.0
C249 C 0.9697 0.05334 0.5526 0.0
C250 C 0.80451 0.08512 0.49451 0.0
C251 C 0.85977 0.10018 0.44997 0.0
C252 C 0.79515 0.21347 0.47118 0.0
C253 C 0.78474 0.24779 0.48136 0.0
C254 C 0.76031 0.26862 0.46924 0.0
C255 C 0.74977 0.30085 0.47909 0.0
C256 C 0.76353 0.31295 0.50128 0.0
C257 C 0.78818 0.29196 0.5133 0.0
C258 C 0.79854 0.25967 0.50349 0.0
C259 C 0.89706 0.18272 0.5057 0.0
O260 O 0.84801 0.12557 0.54363 0.0
O261 O 0.80517 0.15844 0.52624 0.0
O262 O 0.88586 0.06835 0.53556 0.0
O263 O 0.92246 0.08332 0.50696 0.0
O264 O 0.83145 0.0645 0.49324 0.0
O265 O 0.81394 0.11342 0.50402 0.0
O266 O 0.84027 0.12904 0.45318 0.0
O267 O 0.87619 0.08657 0.46865 0.0
O268 O 0.78171 0.18619 0.48193 0.0
O269 O 0.82839 0.20931 0.46656 0.0
O270 O 0.86756 0.19746 0.51099 0.0
O271 O 0.89023 0.15566 0.49296 0.0
H272 H 0.92558 0.13081 0.54946 0.0
H273 H 0.97078 0.14816 0.57838 0.0
H274 H 0.01445 0.04378 0.57453 0.0
H275 H 0.96949 0.02691 0.54539 0.0
H276 H 0.74928 0.2599 0.45218 0.0
H277 H 0.73103 0.31644 0.46919 0.0
H278 H 0.79896 0.30014 0.53055 0.0
H279 H 0.8171 0.24384 0.51334 0.0
Ho280 Ho 0.16296 0.61488 0.25241 0.0
Ho281 Ho 0.10315 0.57888 0.23769 0.0
C282 C 0.12755 0.56415 0.29425 0.0
C283 C 0.20675 0.65729 0.27151 0.0
C284 C 0.2311 0.65644 0.29168 0.0
C285 C 0.2202 0.64597 0.31494 0.0
C286 C 0.24109 0.65332 0.33484 0.0
C287 C 0.27289 0.6713 0.33153 0.0
C288 C 0.28623 0.67588 0.30788 0.0
C289 C 0.26508 0.66901 0.28799 0.0
C290 C 0.17848 0.54723 0.24032 0.0
C291 C 0.15975 0.60807 0.19614 0.0
C292 C 0.05121 0.54261 0.2209 0.0
C293 C 0.01694 0.5329 0.2313 0.0
C294 C 0.99647 0.5075 0.2198 0.0
C295 C 0.96446 0.49717 0.23002 0.0
C296 C 0.95228 0.51209 0.25197 0.0
C297 C 0.97285 0.53781 0.26334 0.0
C298 C 1.00493 0.548 0.25314 0.0
C299 C 0.08579 0.64566 0.25282 0.0
O300 O 0.15123 0.58877 0.28944 0.0
O301 O 0.10531 0.55538 0.27664 0.0
O302 O 0.21472 0.63677 0.25334 0.0
O303 O 0.1733 0.65749 0.27699 0.0
O304 O 0.19922 0.57345 0.23645 0.0
O305 O 0.15194 0.55842 0.25131 0.0
O306 O 0.13611 0.58339 0.20154 0.0
O307 O 0.16935 0.62952 0.21344 0.0
O308 O 0.07822 0.52876 0.23147 0.0
O309 O 0.05591 0.57574 0.21628 0.0
O310 O 0.07093 0.61697 0.25985 0.0
O311 O 0.1119 0.63719 0.23935 0.0
H312 H 0.19444 0.63496 0.31802 0.0
H313 H 0.23011 0.649 0.35281 0.0
H314 H 0.3111 0.6888 0.30488 0.0
H315 H 0.2742 0.67611 0.26994 0.0
H316 H 1.00534 0.49549 0.20297 0.0
H317 H 0.94912 0.47763 0.22061 0.0
H318 H 0.96453 0.54952 0.28038 0.0
H319 H 0.02054 0.56741 0.26246 0.0
Ho320 Ho 0.82508 0.66358 0.81319 0.0
Ho321 Ho 0.86587 0.60158 0.79655 0.0
C322 C 0.85622 0.60762 0.8539 0.0
C323 C 0.77698 0.70845 0.82482 0.0
C324 C 0.76923 0.74495 0.81765 0.0
C325 C 0.73558 0.75294 0.80944 0.0
C326 C 0.72776 0.78627 0.80062 0.0
C327 C 0.75335 0.81277 0.79997 0.0
C328 C 0.78719 0.80472 0.80825 0.0
C329 C 0.79509 0.77111 0.81693 0.0
C330 C 0.89116 0.69011 0.80315 0.0
C331 C 0.8165 0.6383 0.75566 0.0
C332 C 0.91115 0.558 0.77939 0.0
C333 C 0.93612 0.55725 0.75939 0.0
C334 C 0.92951 0.57501 0.73763 0.0
C335 C 0.95548 0.57708 0.7198 0.0
C336 C 0.9884 0.56185 0.72377 0.0
C337 C 0.99457 0.54379 0.74554 0.0
C338 C 0.9685 0.54138 0.76318 0.0
C339 C 0.79946 0.5863 0.81151 0.0
O340 O 0.83095 0.63076 0.84891 0.0
O341 O 0.87747 0.59727 0.83637 0.0
O342 O 0.77391 0.68558 0.80737 0.0
O343 O 0.80437 0.70257 0.83835 0.0
O344 O 0.86379 0.70732 0.80969 0.0
O345 O 0.88212 0.65788 0.80073 0.0
O346 O 0.84204 0.61544 0.75971 0.0
O347 O 0.80676 0.6605 0.77325 0.0
O348 O 0.8781 0.55714 0.7737 0.0
O349 O 0.91821 0.58108 0.79619 0.0
O350 O 0.82581 0.56546 0.81466 0.0
O351 O 0.81051 0.61237 0.80011 0.0
H352 H 0.71538 0.73305 0.80939 0.0
H353 H 0.70169 0.79099 0.79387 0.0
H354 H 0.80753 0.82442 0.80823 0.0
H355 H 0.82144 0.76557 0.82284 0.0
H356 H 0.90461 0.58775 0.73461 0.0
H357 H 0.94982 0.59062 0.703 0.0
H358 H 0.01982 0.53222 0.74924 0.0
H359 H 0.97396 0.52804 0.78012 0.0
Ho360 Ho 0.10251 0.08018 1.06513 0.0
Ho361 Ho 0.16009 0.11885 1.04901 0.0
C362 C 0.15731 0.11206 1.10548 0.0
C363 C 0.05116 0.04307 1.08247 0.0
C364 C 0.01669 0.03394 1.07239 0.0
C365 C 0.99533 1.00943 1.08423 0.0
C366 C 0.96331 0.99949 1.07415 0.0
C367 C 0.95198 0.01392 1.05199 0.0
C368 C 0.97337 0.03884 1.04033 0.0
C369 C 1.00545 0.04861 1.05038 0.0
C370 C 0.08227 0.14599 1.04956 0.0
C371 C 0.12484 0.06656 1.00814 0.0
C372 C 0.20334 0.16193 1.02932 0.0
C373 C 0.22858 0.15815 1.00966 0.0
C374 C 0.22853 0.12807 0.99498 0.0
C375 C 0.24943 0.12677 0.97415 0.0
C376 C 0.27055 0.15551 0.96801 0.0
C377 C 0.27324 0.18383 0.98433 0.0
C378 C 0.25214 0.18519 1.00501 0.0
C379 C 0.17884 0.05168 1.06033 0.0
O380 O 0.13686 0.08483 1.10008 0.0
O381 O 0.16331 0.13507 1.08823 0.0
O382 O 0.07797 0.02974 1.07101 0.0
O383 O 0.05605 0.07594 1.08788 0.0
O384 O 0.06878 0.11651 1.04295 0.0
O385 O 0.10855 0.13901 1.06285 0.0
O386 O 0.14527 0.09432 1.01177 0.0
O387 O 0.1062 0.05474 1.02699 0.0
O388 O 0.21054 0.14368 1.04862 0.0
O389 O 0.17045 0.15989 1.02302 0.0
O390 O 0.19859 0.0787 1.06369 0.0
O391 O 0.15172 0.06192 1.05005 0.0
H392 H 1.00356 0.99773 1.10119 0.0
H393 H 0.94734 0.98055 1.08378 0.0
H394 H 0.96576 0.05015 1.02312 0.0
H395 H 0.02171 0.06725 1.04075 0.0
H396 H 0.21101 0.10651 0.99889 0.0
H397 H 0.24699 0.1047 0.96186 0.0
H398 H 0.28895 0.20659 0.97995 0.0
H399 H 0.25279 0.20821 1.01656 0.0
Ho400 Ho 0.68852 0.3507 0.31525 0.0
Ho401 Ho 0.65127 0.40839 0.29903 0.0
C402 C 0.6577 0.40781 0.35546 0.0
C403 C 0.7251 0.29936 0.33266 0.0
C404 C 0.73469 0.26491 0.32247 0.0
C405 C 0.75967 0.24414 0.33405 0.0
C406 C 0.76987 0.21202 0.32392 0.0
C407 C 0.75522 0.20004 0.30199 0.0
C408 C 0.72993 0.22092 0.29055 0.0
C409 C 0.71989 0.25309 0.30064 0.0
C410 C 0.62276 0.33081 0.29973 0.0
C411 C 0.70386 0.37326 0.25831 0.0
C412 C 0.60873 0.45081 0.27874 0.0
C413 C 0.61225 0.47666 0.25939 0.0
C414 C 0.62246 0.46686 0.2358 0.0
C415 C 0.62135 0.49125 0.21711 0.0
C416 C 0.61013 0.5257 0.22187 0.0
C417 C 0.60437 0.53636 0.24602 0.0
C418 C 0.60491 0.51182 0.26463 0.0
C419 C 0.71825 0.42683 0.31074 0.0
O420 O 0.68304 0.38464 0.35065 0.0
O421 O 0.63601 0.41568 0.33798 0.0
O422 O 0.73873 0.32623 0.32157 0.0
O423 O 0.69206 0.30413 0.33761 0.0
O424 O 0.65214 0.31694 0.29305 0.0
O425 O 0.62992 0.35736 0.31293 0.0
O426 O 0.67666 0.39439 0.26195 0.0
O427 O 0.71465 0.35401 0.27704 0.0
O428 O 0.62574 0.45843 0.29847 0.0
O429 O 0.61098 0.41771 0.27259 0.0
O430 O 0.6914 0.44704 0.31362 0.0
O431 O 0.70806 0.3995 0.30048 0.0
H432 H 0.77147 0.25287 0.35085 0.0
H433 H 0.78912 0.19645 0.33336 0.0
H434 H 0.71846 0.21279 0.27351 0.0
H435 H 0.70089 0.26893 0.29122 0.0
H436 H 0.62934 0.44004 0.23146 0.0
H437 H 0.6259 0.48209 0.1987 0.0
H438 H 0.5963 0.56291 0.25018 0.0
H439 H 0.59794 0.51998 0.28294 0.0
Ho440 Ho 0.41735 0.93847 0.56427 0.0
Ho441 Ho 0.35874 0.9026 0.54813 0.0
C442 C 0.35981 0.90877 0.60458 0.0
C443 C 0.46888 0.97456 0.58189 0.0
C444 C 0.50325 0.98451 0.57179 0.0
C445 C 0.52295 1.01068 0.58311 0.0
C446 C 0.55505 0.02119 0.57313 0.0
C447 C 0.56806 1.0057 0.55161 0.0
C448 C 0.54823 0.97928 0.54039 0.0
C449 C 0.51607 0.9689 0.55034 0.0
C450 C 0.43586 0.87185 0.54895 0.0
C451 C 0.39564 0.95338 0.50736 0.0
C452 C 0.31491 0.86087 0.5282 0.0
C453 C 0.29439 0.86091 0.50607 0.0
C454 C 0.30922 0.8717 0.48395 0.0
C455 C 0.29283 0.86323 0.4623 0.0
C456 C 0.26164 0.84376 0.46276 0.0
C457 C 0.24397 0.8388 0.48499 0.0
C458 C 0.26064 0.84687 0.50668 0.0
C459 C 0.34239 0.97024 0.56021 0.0
O460 O 0.38344 0.93364 0.59982 0.0
O461 O 0.35112 0.88744 0.58694 0.0
O462 O 0.44201 0.98853 0.57127 0.0
O463 O 0.46416 0.94135 0.58615 0.0
O464 O 0.45058 0.90081 0.54228 0.0
O465 O 0.40918 0.87996 0.562 0.0
O466 O 0.37428 0.9264 0.51096 0.0
O467 O 0.41475 0.96424 0.52612 0.0
O468 O 0.30582 0.88416 0.54437 0.0
O469 O 0.34884 0.85782 0.52543 0.0
O470 O 0.32198 0.94376 0.56397 0.0
O471 O 0.36926 0.95924 0.54954 0.0
H472 H 0.51343 0.02312 0.59961 0.0
H473 H 0.56981 0.04131 0.5824 0.0
H474 H 0.55721 0.96713 0.52365 0.0
H475 H 0.50105 0.94893 0.54113 0.0
H476 H 0.33487 0.88365 0.48323 0.0
H477 H 0.30702 0.86783 0.44548 0.0
H478 H 0.21941 0.8247 0.48571 0.0
H479 H 0.24847 0.83949 0.52379 0.0
Ho480 Ho 0.14996 0.41593 0.5031 0.0
Ho481 Ho 0.19198 0.35487 0.48787 0.0
C482 C 0.20166 0.38259 0.54472 0.0
C483 C 0.10561 0.45914 0.52164 0.0
C484 C 0.10954 0.48765 0.53892 0.0
C485 C 0.14181 0.49348 0.55013 0.0
C486 C 0.14443 0.51811 0.56874 0.0
C487 C 0.11478 0.53711 0.57619 0.0
C488 C 0.08331 0.53315 0.56337 0.0
C489 C 0.08072 0.50843 0.54486 0.0
C490 C 0.2171 0.43302 0.49044 0.0
C491 C 0.15904 0.40808 0.44681 0.0
C492 C 0.24048 0.3103 0.4764 0.0
C493 C 0.24626 0.27336 0.4831 0.0
C494 C 0.2725 0.25388 0.47143 0.0
C495 C 0.28103 0.2203 0.47969 0.0
C496 C 0.26359 0.20558 0.49993 0.0
C497 C 0.23638 0.22482 0.51103 0.0
C498 C 0.22784 0.25836 0.5027 0.0
C499 C 0.12541 0.32783 0.49561 0.0
O500 O 0.17962 0.40827 0.539 0.0
O501 O 0.20804 0.35723 0.52848 0.0
O502 O 0.12121 0.46422 0.50077 0.0
O503 O 0.1108 0.42772 0.5304 0.0
O504 O 0.19059 0.45363 0.48735 0.0
O505 O 0.206 0.40633 0.50113 0.0
O506 O 0.18695 0.38883 0.45268 0.0
O507 O 0.13502 0.41358 0.46368 0.0
O508 O 0.24262 0.33229 0.49449 0.0
O509 O 0.21403 0.31717 0.46225 0.0
O510 O 0.15319 0.31072 0.48985 0.0
O511 O 0.13423 0.35995 0.49836 0.0
H512 H 0.1645 0.47793 0.54525 0.0
H513 H 0.16895 0.52076 0.5783 0.0
H514 H 0.05984 0.54699 0.56893 0.0
H515 H 0.05582 0.50437 0.53603 0.0
H516 H 0.28705 0.26499 0.45631 0.0
H517 H 0.30165 0.20605 0.47039 0.0
H518 H 0.22259 0.2146 0.52676 0.0
H519 H 0.20765 0.27309 0.51214 0.0
Ho520 Ho 0.85792 0.89869 0.25278 0.0
Ho521 Ho 0.91593 0.93771 0.23687 0.0
C522 C 0.89329 0.95047 0.29395 0.0
C523 C 0.81477 0.85562 0.27254 0.0
C524 C 0.78912 0.86058 0.29183 0.0
C525 C 0.78784 0.89233 0.30468 0.0
C526 C 0.76558 0.89586 0.32469 0.0
C527 C 0.7443 0.86773 0.33181 0.0
C528 C 0.74357 0.83714 0.31747 0.0
C529 C 0.76603 0.83357 0.2976 0.0
C530 C 0.83948 0.96613 0.24199 0.0
C531 C 0.86057 0.90667 0.19641 0.0
C532 C 0.96676 0.9755 0.21954 0.0
C533 C 1.00105 0.98525 0.22955 0.0
C534 C 0.02225 1.00951 0.21734 0.0
C535 C 0.0541 0.02011 0.22734 0.0
C536 C 0.06539 1.00663 0.24979 0.0
C537 C 0.04415 0.98194 0.26183 0.0
C538 C 0.01224 0.97147 0.25185 0.0
C539 C 0.93586 0.87148 0.25182 0.0
O540 O 0.87262 0.92296 0.29007 0.0
O541 O 0.91232 0.96236 0.27529 0.0
O542 O 0.80796 0.87293 0.25276 0.0
O543 O 0.84751 0.85809 0.27913 0.0
O544 O 0.81939 0.93934 0.23869 0.0
O545 O 0.86667 0.95556 0.25204 0.0
O546 O 0.88137 0.93356 0.20199 0.0
O547 O 0.85435 0.88336 0.21343 0.0
O548 O 0.93977 0.98845 0.23101 0.0
O549 O 0.96241 0.94251 0.21422 0.0
O550 O 0.94986 0.90075 0.25844 0.0
O551 O 0.90949 0.87891 0.2387 0.0
H552 H 0.80505 0.91378 0.29987 0.0
H553 H 0.76662 0.91958 0.3355 0.0
H554 H 0.72787 0.81478 0.32276 0.0
H555 H 0.76647 0.80921 0.28747 0.0
H556 H 0.01403 0.0205 0.20016 0.0
H557 H 0.06997 0.03882 0.21741 0.0
H558 H 0.05175 0.97134 0.27926 0.0
H559 H 0.99607 0.953 0.26173 0.0
Ho560 Ho 0.36337 0.60437 1.00109 0.0
Ho561 Ho 0.32499 0.66659 0.98527 0.0
C562 C 0.31419 0.64132 1.04256 0.0
C563 C 0.40474 0.55705 1.01774 0.0
C564 C 0.42023 0.54996 1.04106 0.0
C565 C 0.41245 0.57173 1.06086 0.0
C566 C 0.43081 0.56814 1.0823 0.0
C567 C 0.45725 0.54286 1.084 0.0
C568 C 0.46344 0.5196 1.06462 0.0
C569 C 0.44491 0.5232 1.04312 0.0
C570 C 0.29677 0.59062 0.98653 0.0
C571 C 0.35657 0.61143 0.94427 0.0
C572 C 0.2788 0.71285 0.97322 0.0
C573 C 0.27412 0.75003 0.97965 0.0
C574 C 0.24802 0.76977 0.96841 0.0
C575 C 0.23998 0.80345 0.97686 0.0
C576 C 0.25781 0.81796 0.99683 0.0
C577 C 0.28496 0.79853 1.0074 0.0
C578 C 0.29296 0.76487 0.99893 0.0
C579 C 0.39128 0.69239 0.99499 0.0
O580 O 0.34054 0.61927 1.03853 0.0
O581 O 0.30397 0.66243 1.02468 0.0
O582 O 0.3709 0.55355 1.0171 0.0
O583 O 0.41569 0.58577 1.00729 0.0
O584 O 0.32306 0.57018 0.98196 0.0
O585 O 0.30792 0.61618 0.99838 0.0
O586 O 0.3305 0.63352 0.94963 0.0
O587 O 0.37817 0.6023 0.96158 0.0
O588 O 0.27519 0.69143 0.99147 0.0
O589 O 0.30552 0.70471 0.9593 0.0
O590 O 0.36403 0.70983 0.98899 0.0
O591 O 0.3821 0.66014 0.99734 0.0
H592 H 0.39349 0.59259 1.05935 0.0
H593 H 0.4259 0.58663 1.09691 0.0
H594 H 0.48355 0.49971 1.06576 0.0
H595 H 0.45084 0.50618 1.02784 0.0
H596 H 0.23307 0.75871 0.95361 0.0
H597 H 0.21931 0.81788 0.96802 0.0
H598 H 0.29899 0.80863 1.02293 0.0
H599 H 0.31289 0.74987 1.00813 0.0
Ho600 Ho 0.66367 0.11867 0.75805 0.0
Ho601 Ho 0.60389 0.08297 0.74029 0.0
C602 C 0.62469 0.06788 0.79738 0.0
C603 C 0.70321 0.16402 0.7789 0.0
C604 C 0.69658 0.18615 0.79986 0.0
C605 C 0.66459 0.18323 0.8123 0.0
C606 C 0.65649 0.20627 0.83108 0.0
C607 C 0.68021 0.23262 0.83745 0.0
C608 C 0.71249 0.23513 0.82513 0.0
C609 C 0.72063 0.21195 0.80634 0.0
C610 C 0.67957 0.0519 0.7444 0.0
C611 C 0.66617 0.10959 0.70088 0.0
C612 C 0.55226 0.04699 0.7226 0.0
C613 C 0.51795 0.0361 0.73259 0.0
C614 C 0.49845 1.01031 0.72067 0.0
C615 C 0.46624 0.99922 0.73025 0.0
C616 C 0.45281 0.01372 0.752 0.0
C617 C 0.47248 0.03974 0.76384 0.0
C618 C 0.50476 0.05071 0.75428 0.0
C619 C 0.58539 0.14862 0.75747 0.0
O620 O 0.64468 0.09604 0.79456 0.0
O621 O 0.60657 0.05661 0.77825 0.0
O622 O 0.70481 0.13056 0.78344 0.0
O623 O 0.68352 0.17126 0.76032 0.0
O624 O 0.70095 0.07813 0.74212 0.0
O625 O 0.65226 0.06269 0.75471 0.0
O626 O 0.63705 0.09053 0.70436 0.0
O627 O 0.68044 0.12556 0.71948 0.0
O628 O 0.57952 0.03288 0.7327 0.0
O629 O 0.55654 0.08043 0.71894 0.0
O630 O 0.57031 0.11936 0.76293 0.0
O631 O 0.61246 0.14099 0.74465 0.0
H632 H 0.64556 0.16367 0.80709 0.0
H633 H 0.63142 0.20396 0.84026 0.0
H634 H 0.73145 0.25492 0.83007 0.0
H635 H 0.7453 0.21446 0.79667 0.0
H636 H 0.50816 0.99865 0.70395 0.0
H637 H 0.4517 0.97948 0.72044 0.0
H638 H 0.46327 0.05119 0.78076 0.0
H639 H 0.51953 0.07043 0.76393 0.0
H640 H 0.40453 0.25328 0.29254 0.0
H641 H 0.61484 0.25975 0.29293 0.0
H642 H 0.46605 0.1612 0.30653 0.0
H643 H 0.5527 0.35143 0.30779 0.0
H644 H 0.5616 0.2239 0.2937 0.0
H645 H 0.45774 0.289 0.29392 0.0
C646 C 0.42919 0.2403 0.29587 0.0
C647 C 0.43007 0.20362 0.29945 0.0
C648 C 0.55941 0.25181 0.29683 0.0
C649 C 0.49263 0.24546 0.30065 0.0
C650 C 0.59003 0.2726 0.29632 0.0
C651 C 0.58896 0.30919 0.30035 0.0
C652 C 0.52644 0.26726 0.30083 0.0
C653 C 0.55542 0.32358 0.30466 0.0
C654 C 0.45981 0.26103 0.29673 0.0
C655 C 0.46346 0.18911 0.30373 0.0
N656 N 0.52585 0.30284 0.30454 0.0
N657 N 0.49306 0.20982 0.30395 0.0
H658 H 0.60697 0.7137 0.55579 0.0
H659 H 0.41345 0.80245 0.55734 0.0
H660 H 0.51348 0.65417 0.54257 0.0
H661 H 0.50684 0.86167 0.54221 0.0
H662 H 0.44913 0.74829 0.55745 0.0
H663 H 0.57123 0.76781 0.55633 0.0
C664 C 0.57904 0.71175 0.55309 0.0
C665 C 0.56375 0.67862 0.54902 0.0
C666 C 0.46189 0.77315 0.55416 0.0
C667 C 0.52179 0.74147 0.5501 0.0
C668 C 0.44136 0.80432 0.55415 0.0
C669 C 0.45665 0.83737 0.54968 0.0
C670 C 0.49853 0.77448 0.55024 0.0
C671 C 0.49333 0.83725 0.54564 0.0
C672 C 0.55847 0.74289 0.55336 0.0
C673 C 0.52701 0.67864 0.54566 0.0
N674 N 0.51267 0.80687 0.5462 0.0
N675 N 0.50763 0.70901 0.54645 0.0
H676 H 0.05336 0.85366 0.81552 0.0
H677 H 0.95897 0.66606 0.78768 0.0
H678 H 0.10747 0.76898 0.77969 0.0
H679 H 0.90542 0.75807 0.81399 0.0
H680 H 0.01389 0.70088 0.78575 0.0
H681 H 0.99984 0.81761 0.8163 0.0
C682 C 0.05416 0.8276 0.80774 0.0
C683 C 0.08559 0.81486 0.79748 0.0
C684 C 0.99003 0.7134 0.79195 0.0
C685 C 0.02336 0.77235 0.79853 0.0
C686 C 0.95848 0.69334 0.79306 0.0
C687 C 0.92674 0.70865 0.80102 0.0
C688 C 0.99037 0.7492 0.79901 0.0
C689 C 0.92864 0.74451 0.80769 0.0
C690 C 0.02337 0.80678 0.80821 0.0
C691 C 0.08424 0.78041 0.78779 0.0
N692 N 0.95927 0.76306 0.80662 0.0
N693 N 0.05415 0.76064 0.78863 0.0
H694 H 0.01139 0.15335 1.04287 0.0
H695 H 1.00381 0.36372 1.04072 0.0
H696 H 0.10242 0.21614 1.05717 0.0
H697 H 0.91222 0.30175 1.05595 0.0
H698 H 0.03979 0.31063 1.0424 0.0
H699 H 0.9753 0.20647 1.04334 0.0
C700 C 0.02403 0.17829 1.04607 0.0
C701 C 0.0605 0.17963 1.05003 0.0
C702 C 0.01186 0.30845 1.0454 0.0
C703 C 0.01836 0.24191 1.05017 0.0
C704 C 0.99101 0.33897 1.04437 0.0
C705 C 0.95441 0.33786 1.04821 0.0
C706 C 0.99647 0.27558 1.04977 0.0
C707 C 0.94007 0.30444 1.05292 0.0
C708 C 1.00312 0.20882 1.04642 0.0
C709 C 0.07466 0.21327 1.05411 0.0
N710 N 0.96089 0.27494 1.05331 0.0
N711 N 0.05382 0.24275 1.05382 0.0
H712 H 0.60924 0.76864 1.02222 0.0
H713 H 0.4063 0.75957 0.98248 0.0
H714 H 0.55704 0.85092 0.98337 0.0
H715 H 0.45886 0.6694 1.01169 0.0
H716 H 0.46045 0.79274 0.98457 0.0
H717 H 0.55567 0.73313 1.02047 0.0
C718 C 0.58655 0.77954 1.01335 0.0
C719 C 0.58844 0.81344 1.00295 0.0
C720 C 0.46053 0.76576 0.99056 0.0
C721 C 0.5255 0.7718 1.00094 0.0
C722 C 0.42919 0.74637 0.98942 0.0
C723 C 0.42699 0.71094 0.99686 0.0
C724 C 0.49124 0.75046 0.99949 0.0
C725 C 0.4585 0.69632 1.00561 0.0
C726 C 0.55573 0.75891 1.01233 0.0
C727 C 0.55753 0.82531 0.99174 0.0
N728 N 0.48892 0.71602 1.00674 0.0
N729 N 0.52782 0.80481 0.99113 0.0
H730 H 0.51385 0.15657 0.76188 0.0
H731 H 0.50573 0.36751 0.75848 0.0
H732 H 0.60596 0.21904 0.74958 0.0
H733 H 0.41496 0.30429 0.74436 0.0
H734 H 0.54186 0.31447 0.75896 0.0
H735 H 0.47776 0.2095 0.75932 0.0
C736 C 0.52679 0.18137 0.7587 0.0
C737 C 0.56364 0.18251 0.75594 0.0
C738 C 0.5141 0.31196 0.7557 0.0
C739 C 0.52119 0.2449 0.7533 0.0
C740 C 0.49311 0.34252 0.75547 0.0
C741 C 0.45665 0.34119 0.75128 0.0
C742 C 0.49907 0.27868 0.75228 0.0
C743 C 0.44268 0.30732 0.74753 0.0
C744 C 0.50581 0.21186 0.75715 0.0
C745 C 0.57797 0.21615 0.75178 0.0
N746 N 0.46362 0.27782 0.74836 0.0
N747 N 0.55699 0.2456 0.75083 0.0
H748 H 0.05807 0.35247 0.51095 0.0
H749 H 0.96364 0.16348 0.48885 0.0
H750 H 0.11109 0.25948 0.48589 0.0
H751 H 0.9092 0.25076 0.52123 0.0
H752 H 0.01712 0.19941 0.48693 0.0
H753 H 1.00316 0.31786 0.51404 0.0
C754 C 0.05841 0.325 0.50606 0.0
C755 C 0.08996 0.30932 0.49811 0.0
C756 C 0.99354 0.21084 0.49452 0.0
C757 C 0.02642 0.26901 0.50155 0.0
C758 C 0.96278 0.19009 0.49565 0.0
C759 C 0.93127 0.20362 0.50525 0.0
C760 C 0.99346 0.24595 0.50288 0.0
C761 C 0.93252 0.23874 0.51369 0.0
C762 C 0.02688 0.30507 0.50786 0.0
C763 C 0.08797 0.27326 0.49214 0.0
N764 N 0.96262 0.25842 0.51224 0.0
N765 N 0.05735 0.2548 0.49391 0.0
H766 H 0.1081 0.71495 0.24423 0.0
H767 H 0.91432 0.80209 0.24357 0.0
H768 H 0.01481 0.65535 0.25902 0.0
H769 H 1.00675 0.86238 0.2586 0.0
H770 H 0.95051 0.74834 0.24343 0.0
H771 H 0.07212 0.76891 0.2437 0.0
C772 C 0.08016 0.71298 0.24725 0.0
C773 C 0.06494 0.67994 0.25176 0.0
C774 C 0.96293 0.77335 0.24671 0.0
C775 C 0.02283 0.74241 0.2507 0.0
C776 C 0.94214 0.80424 0.24673 0.0
C777 C 0.95704 0.8374 0.25118 0.0
C778 C 0.99944 0.77514 0.25057 0.0
C779 C 0.9936 0.83779 0.25518 0.0
C780 C 0.05949 0.74399 0.247 0.0
C781 C 0.02823 0.67981 0.25557 0.0
N782 N 0.01325 0.80764 0.2546 0.0
N783 N 1.00876 0.71003 0.25476 0.0
H784 H 0.44638 0.94384 0.19388 0.0
H785 H 0.55135 0.06884 1.1032 0.0
H786 H 0.41726 0.05077 0.17875 0.0
H787 H 0.57897 0.96121 1.11753 0.0
H788 H 0.50158 0.06284 1.13102 0.0
H789 H 0.49152 0.94769 0.16234 0.0
C790 C 0.44863 0.96762 0.18327 0.0
C791 C 0.42875 0.99724 0.18929 0.0
C792 C 0.51885 0.0407 1.12826 0.0
C793 C 0.48067 1.00232 0.15405 0.0
C794 C 0.54753 0.04434 1.11275 0.0
C795 C 0.5691 0.01547 1.1079 0.0
C796 C 0.51198 1.00801 1.13894 0.0
C797 C 0.5632 0.98429 1.1208 0.0
C798 C 0.47473 0.97007 0.1656 0.0
C799 C 0.43224 0.02734 0.17486 0.0
N800 N 0.53486 0.98125 1.13549 0.0
N801 N 0.45844 0.02943 0.15827 0.0
H802 H 0.77931 0.76095 0.45323 0.0
H803 H 0.67992 0.84456 0.34693 0.0
H804 H 0.66737 0.74952 0.4471 0.0
H805 H 0.77794 0.88493 0.37328 0.0
H806 H 0.67 0.81657 0.38627 0.0
H807 H 0.77712 0.81031 0.42544 0.0
C808 C 0.75425 0.76898 0.44611 0.0
C809 C 0.72353 0.75108 0.4523 0.0
C810 C 0.69304 0.83267 0.38374 0.0
C811 C 0.72075 0.80742 0.42056 0.0
C812 C 0.69855 0.84881 0.36138 0.0
C813 C 0.73026 0.86599 0.35672 0.0
C814 C 0.71971 0.8336 0.4011 0.0
C815 C 0.75338 0.87136 0.37602 0.0
C816 C 0.75293 0.79733 0.43042 0.0
C817 C 0.69178 0.76221 0.44233 0.0
N818 N 0.74821 0.85416 0.39721 0.0
N819 N 0.69124 0.78956 0.4267 0.0
H820 H 0.14876 0.04376 0.67805 0.0
H821 H 0.98367 0.13246 0.62087 0.0
H822 H 0.05942 0.08327 0.71808 0.0
H823 H 0.06607 0.08238 0.57949 0.0
H824 H 0.02171 0.13407 0.65612 0.0
H825 H 0.1293 0.07618 0.64235 0.0
C826 C 0.12552 0.05986 0.67949 0.0
C827 C 0.1052 0.0601 0.70085 0.0
C828 C 0.03183 0.12349 0.63918 0.0
C829 C 0.0829 0.0971 0.66029 0.0
C830 C 0.01017 0.12274 0.619 0.0
C831 C 0.02154 0.10637 0.59751 0.0
C832 C 0.06476 0.10729 0.63785 0.0
C833 C 0.05606 0.09422 0.59605 0.0
C834 C 0.11453 0.07847 0.65917 0.0
C835 C 0.07586 0.08211 0.70198 0.0
N836 N 0.07627 0.0942 0.61617 0.0
N837 N 0.06519 0.09914 0.6818 0.0
H838 H 0.71535 0.39715 0.93399 0.0
H839 H 0.65201 0.21711 0.8818 0.0
H840 H 0.68407 0.30791 0.97712 0.0
H841 H 0.68883 0.3034 0.83797 0.0
H842 H 0.64546 0.25675 0.91629 0.0
H843 H 0.68685 0.37081 0.89883 0.0
C844 C 0.70161 0.37255 0.93623 0.0
C845 C 0.70297 0.3542 0.95826 0.0
C846 C 0.6543 0.26723 0.89901 0.0
C847 C 0.67083 0.3239 0.91834 0.0
C848 C 0.65802 0.2446 0.87934 0.0
C849 C 0.67171 0.25702 0.85729 0.0
C850 C 0.66481 0.3023 0.89659 0.0
C851 C 0.67915 0.29276 0.85497 0.0
C852 C 0.68535 0.35753 0.9162 0.0
C853 C 0.68402 0.3229 0.96044 0.0
N854 N 0.67617 0.31411 0.87457 0.0
N855 N 0.66946 0.3083 0.94052 0.0
H856 H 0.22095 0.27387 0.85049 0.0
H857 H 0.3328 0.18113 0.95053 0.0
H858 H 0.33092 0.29465 0.86034 0.0
H859 H 0.23118 0.14512 0.92794 0.0
H860 H 0.33691 0.2163 0.91361 0.0
H861 H 0.22601 0.22332 0.87728 0.0
C862 C 0.24601 0.26801 0.85856 0.0
C863 C 0.27541 0.28862 0.85346 0.0
C864 C 0.31419 0.19983 0.91636 0.0
C865 C 0.28167 0.23069 0.8836 0.0
C866 C 0.31208 0.17946 0.93726 0.0
C867 C 0.28117 0.16125 0.94258 0.0
C868 C 0.28504 0.20191 0.90108 0.0
C869 C 0.25526 0.15933 0.92473 0.0
C870 C 0.24905 0.23893 0.87354 0.0
C871 C 0.30736 0.27995 0.86428 0.0
N872 N 0.25726 0.18044 0.90506 0.0
N873 N 0.30963 0.25162 0.87891 0.0
H874 H 0.24647 0.77459 0.46597 0.0
H875 H 0.29158 0.73962 0.3272 0.0
H876 H 0.265 0.85701 0.41366 0.0
H877 H 0.27803 0.65751 0.38046 0.0
H878 H 0.28698 0.78279 0.3592 0.0
H879 H 0.25601 0.73153 0.43437 0.0
C880 C 0.2513 0.78378 0.44762 0.0
C881 C 0.25515 0.81958 0.44245 0.0
C882 C 0.28564 0.75533 0.364 0.0
C883 C 0.26786 0.77009 0.40645 0.0
C884 C 0.28906 0.73045 0.34576 0.0
C885 C 0.28452 0.69477 0.35112 0.0
C886 C 0.27753 0.74444 0.38766 0.0
C887 C 0.28093 0.68479 0.37552 0.0
C888 C 0.25762 0.75901 0.42969 0.0
C889 C 0.26218 0.82966 0.41842 0.0
N890 N 0.27672 0.70964 0.39292 0.0
N891 N 0.26881 0.80493 0.40129 0.0
H892 H 0.08439 0.59971 0.58884 0.0
H893 H 0.03473 0.51128 0.70997 0.0
H894 H 0.14122 0.51215 0.6184 0.0
H895 H 1.0054 0.6184 0.69543 0.0
H896 H 0.07911 0.51502 0.67835 0.0
H897 H 0.0624 0.61328 0.62963 0.0
C898 C 0.0933 0.58421 0.60407 0.0
C899 C 0.11373 0.5542 0.60021 0.0
C900 C 0.06349 0.538 0.68235 0.0
C901 C 0.08842 0.56903 0.64649 0.0
C902 C 0.03806 0.53583 0.7004 0.0
C903 C 0.01626 0.56452 0.70523 0.0
C904 C 0.0667 0.56885 0.66867 0.0
C905 C 0.02123 0.59543 0.69189 0.0
C906 C 0.0807 0.59187 0.62731 0.0
C907 C 0.12513 0.53529 0.62049 0.0
N908 N 0.04568 0.59664 0.67391 0.0
N909 N 0.11147 0.54242 0.64273 0.0
H910 H 0.63579 0.535 0.17544 0.0
H911 H 0.44049 0.54927 1.13203 0.0
H912 H 0.54843 0.56066 0.22255 0.0
H913 H 0.52807 0.54124 1.08224 0.0
H914 H 0.4811 0.55857 0.16532 0.0
H915 H 0.59889 0.54612 1.14027 0.0
C916 C 0.60929 0.54419 0.17837 0.0
C917 C 0.59489 0.54597 0.20187 0.0
C918 C 0.49148 0.55496 1.1471 0.0
C919 C 0.55266 0.558 0.16211 0.0
C920 C 0.46834 0.54932 1.12822 0.0
C921 C 0.48115 0.54421 1.10458 0.0
C922 C 0.52758 0.55527 1.1422 0.0
C923 C 0.51732 0.54439 1.1004 0.0
C924 C 0.58818 0.55028 0.15834 0.0
C925 C 0.56067 0.55863 0.20478 0.0
N926 N 0.5394 0.54975 1.11913 0.0
N927 N 0.5404 0.5633 0.18507 0.0
H928 H 0.30221 0.36379 0.276 0.0
H929 H 0.13939 0.49182 0.25479 0.0
H930 H 0.19625 0.34112 0.29844 0.0
H931 H 0.24527 0.52023 0.23583 0.0
H932 H 0.15981 0.43442 0.26756 0.0
H933 H 0.28206 0.41904 0.25835 0.0
C934 C 0.27469 0.37029 0.2771 0.0
C935 C 0.25094 0.34777 0.28888 0.0
C936 C 0.17865 0.45296 0.2604 0.0
C937 C 0.22773 0.41108 0.26874 0.0
C938 C 0.16696 0.48575 0.25296 0.0
C939 C 0.19068 0.5109 0.24424 0.0
C940 C 0.21445 0.44498 0.25916 0.0
C941 C 0.2261 0.50157 0.24237 0.0
C942 C 0.26324 0.40192 0.26709 0.0
C943 C 0.21564 0.35782 0.28993 0.0
N944 N 0.23698 0.4694 0.24993 0.0
N945 N 0.20518 0.38863 0.28004 0.0
H946 H 0.4241 0.44554 0.54975 0.0
H947 H 0.24412 0.49997 0.48607 0.0
H948 H 0.40237 0.5512 0.52671 0.0
H949 H 0.27256 0.39424 0.50482 0.0
H950 H 0.30235 0.51965 0.49906 0.0
H951 H 0.36872 0.42672 0.53247 0.0
C952 C 0.40761 0.46487 0.54115 0.0
C953 C 0.41794 0.5001 0.53989 0.0
C954 C 0.29591 0.49209 0.50005 0.0
C955 C 0.35422 0.47853 0.51963 0.0
C956 C 0.26277 0.48084 0.49249 0.0
C957 C 0.25344 0.44539 0.49433 0.0
C958 C 0.31974 0.4677 0.50959 0.0
C959 C 0.27856 0.42179 0.50302 0.0
C960 C 0.37601 0.45404 0.53108 0.0
C961 C 0.39565 0.52374 0.528 0.0
N962 N 0.31029 0.43336 0.51046 0.0
N963 N 0.3648 0.51259 0.51846 0.0
H964 H 0.32085 0.67839 0.7997 0.0
H965 H 0.2714 0.49579 0.73604 0.0
H966 H 0.21615 0.65393 0.77654 0.0
H967 H 0.3759 0.52651 0.75572 0.0
H968 H 0.25021 0.55379 0.74916 0.0
H969 H 0.34096 0.62278 0.78289 0.0
C970 C 0.30199 0.66126 0.79118 0.0
C971 C 0.26665 0.67092 0.78975 0.0
C972 C 0.27782 0.54788 0.75037 0.0
C973 C 0.28973 0.60689 0.77001 0.0
C974 C 0.28993 0.51487 0.74274 0.0
C975 C 0.32547 0.50627 0.74477 0.0
C976 C 0.30144 0.57233 0.76014 0.0
C977 C 0.34828 0.53192 0.75381 0.0
C978 C 0.31357 0.62951 0.78138 0.0
C979 C 0.24367 0.64777 0.77795 0.0
N980 N 0.33588 0.56353 0.76127 0.0
N981 N 0.25555 0.6168 0.76866 0.0
H982 H 0.11353 0.4661 1.02318 0.0
H983 H 0.24124 0.62943 1.00114 0.0
H984 H 0.09081 0.57209 1.0456 0.0
H985 H 0.26982 0.52375 0.98169 0.0
H986 H 0.18401 0.60878 1.01428 0.0
H987 H 0.16877 0.48641 1.00517 0.0
C988 C 0.12 0.49366 1.02421 0.0
C989 C 0.09745 0.51737 1.03609 0.0
C990 C 0.20251 0.59002 1.00689 0.0
C991 C 0.16076 0.54075 1.01553 0.0
C992 C 0.23522 0.60187 0.9992 0.0
C993 C 0.26038 0.57831 0.99022 0.0
C994 C 0.1946 0.55418 1.00566 0.0
C995 C 0.25112 0.54284 0.98835 0.0
C996 C 0.15164 0.50519 1.014 0.0
C997 C 0.10751 0.5527 1.03703 0.0
N998 N 0.21902 0.53179 0.99617 0.0
N999 N 0.1383 0.56324 1.02694 0.0
H1000 H 0.77028 0.49365 1.06448 0.0
H1001 H 0.82394 0.67671 1.0034 0.0
H1002 H 0.87602 0.52388 1.04656 0.0
H1003 H 0.71802 0.65219 1.02493 0.0
H1004 H 0.84316 0.6211 1.02037 0.0
H1005 H 0.75031 0.55219 1.05218 0.0
C1006 C 0.78932 0.51274 1.05835 0.0
C1007 C 0.82484 0.50385 1.0565 0.0
C1008 C 0.81569 0.62784 1.02149 0.0
C1009 C 0.80223 0.57051 1.04206 0.0
C1010 C 0.80465 0.65956 1.01161 0.0
C1011 C 0.76923 0.66913 1.01252 0.0
C1012 C 0.79121 0.6052 1.03239 0.0
C1013 C 0.74561 0.64604 1.02392 0.0
C1014 C 0.77792 0.54607 1.0512 0.0
C1015 C 0.84837 0.52954 1.04827 0.0
N1016 N 0.75697 0.61508 1.03327 0.0
N1017 N 0.83664 0.56146 1.0412 0.0
H1018 H 0.59961 0.57092 0.74476 0.0
H1019 H 0.77145 0.5201 0.81801 0.0
H1020 H 0.60807 0.47267 0.78304 0.0
H1021 H 0.74475 0.62507 0.79618 0.0
H1022 H 0.71312 0.50049 0.80501 0.0
H1023 H 0.65465 0.58944 0.7623 0.0
C1024 C 0.61277 0.55329 0.75706 0.0
C1025 C 0.59872 0.52023 0.76254 0.0
C1026 C 0.72 0.52789 0.80341 0.0
C1027 C 0.66274 0.54123 0.78247 0.0
C1028 C 0.75315 0.5391 0.81096 0.0
C1029 C 0.76299 0.57428 0.80819 0.0
C1030 C 0.69688 0.55204 0.79284 0.0
C1031 C 0.73836 0.59774 0.79872 0.0
C1032 C 0.64444 0.56387 0.76702 0.0
C1033 C 0.61789 0.49826 0.77807 0.0
N1034 N 0.70675 0.58617 0.79118 0.0
N1035 N 0.64895 0.50911 0.78745 0.0
H1036 H 0.80291 0.36346 0.52428 0.0
H1037 H 0.63904 0.49034 0.54788 0.0
H1038 H 0.69715 0.34012 0.50292 0.0
H1039 H 0.74492 0.52077 0.56394 0.0
H1040 H 0.66008 0.43324 0.5345 0.0
H1041 H 0.78254 0.41915 0.54158 0.0
C1042 C 0.77539 0.3699 0.52332 0.0
C1043 C 0.75175 0.34698 0.51199 0.0
C1044 C 0.67881 0.45216 0.54116 0.0
C1045 C 0.72829 0.41083 0.53177 0.0
C1046 C 0.66676 0.48478 0.54895 0.0
C1047 C 0.69025 0.51041 0.55705 0.0
C1048 C 0.71476 0.44476 0.54149 0.0
C1049 C 0.72588 0.50171 0.55796 0.0
C1050 C 0.76382 0.4018 0.53312 0.0
C1051 C 0.71647 0.35705 0.5111 0.0
N1052 N 0.7371 0.46965 0.55013 0.0
N1053 N 0.70589 0.38808 0.52083 0.0
H1054 H 0.77507 0.3881 0.29856 0.0
H1055 H 0.90116 0.55212 0.27417 0.0
H1056 H 0.74364 0.49457 0.31318 0.0
H1057 H 0.92644 0.44532 0.25527 0.0
H1058 H 0.84545 0.53197 0.29154 0.0
H1059 H 0.83258 0.40891 0.28601 0.0
C1060 C 0.78046 0.41592 0.29946 0.0
C1061 C 0.75444 0.43964 0.30688 0.0
C1062 C 0.86324 0.51297 0.28363 0.0
C1063 C 0.82057 0.46386 0.29229 0.0
C1064 C 0.89514 0.52442 0.2738 0.0
C1065 C 0.91853 0.50042 0.26306 0.0
C1066 C 0.85469 0.47721 0.28288 0.0
C1067 C 0.90908 0.46489 0.26293 0.0
C1068 C 0.81334 0.42782 0.29217 0.0
C1069 C 0.76296 0.47538 0.30764 0.0
N1070 N 0.87799 0.45444 0.27263 0.0
N1071 N 0.79527 0.48645 0.30027 0.0
H1072 H 0.79438 0.85877 0.77321 0.0
H1073 H 0.63893 0.99654 0.75657 0.0
H1074 H 0.6917 0.84876 0.80573 0.0
H1075 H 0.74628 0.02389 0.74126 0.0
H1076 H 0.65769 0.93863 0.76928 0.0
H1077 H 0.77756 0.91641 0.75747 0.0
C1078 C 0.76842 0.86862 0.77719 0.0
C1079 C 0.74438 0.84846 0.79073 0.0
C1080 C 0.67723 0.95709 0.76298 0.0
C1081 C 0.72482 0.91415 0.77226 0.0
C1082 C 0.6665 0.99017 0.75553 0.0
C1083 C 0.69109 0.01521 0.74792 0.0
C1084 C 0.71292 0.94856 0.76272 0.0
C1085 C 0.72646 1.00535 0.74696 0.0
C1086 C 0.7588 0.90146 0.76804 0.0
C1087 C 0.71097 0.86267 0.79495 0.0
N1088 N 0.73639 0.97278 0.7544 0.0
N1089 N 0.70223 0.89438 0.7857 0.0
H1090 H 0.77588 0.89012 1.00486 0.0
H1091 H 0.90222 0.05383 1.0288 0.0
H1092 H 0.74617 0.99622 0.98806 0.0
H1093 H 0.92526 0.94743 1.04947 0.0
H1094 H 0.84716 0.0337 1.01098 0.0
H1095 H 0.83282 0.91096 1.01794 0.0
C1096 C 0.78157 0.91785 1.00356 0.0
C1097 C 0.75617 0.94146 0.99534 0.0
C1098 C 0.86432 0.0148 1.01939 0.0
C1099 C 0.82163 0.96576 1.01067 0.0
C1100 C 0.89584 0.02623 1.0295 0.0
C1101 C 0.91843 1.00234 1.04084 0.0
C1102 C 0.85534 0.97916 1.02047 0.0
C1103 C 0.90852 0.96695 1.04134 0.0
C1104 C 0.81411 0.92979 1.01119 0.0
C1105 C 0.76503 0.9771 0.99417 0.0
N1106 N 0.87784 0.95652 1.03135 0.0
N1107 N 0.79698 0.98823 1.00192 0.0
H1108 H 0.8783 0.02251 0.25449 0.0
H1109 H 0.71512 0.14939 0.27985 0.0
H1110 H 0.77197 0.99198 0.23995 0.0
H1111 H 0.82172 0.17361 0.29865 0.0
H1112 H 0.73504 0.09375 0.26225 0.0
H1113 H 0.85775 0.07994 0.26742 0.0
C1114 C 0.85057 0.02809 0.25369 0.0
C1115 C 0.8268 1.00233 0.24616 0.0
C1116 C 0.75404 0.11128 0.2702 0.0
C1117 C 0.80288 0.06839 0.26121 0.0
C1118 C 0.74273 0.14314 0.28017 0.0
C1119 C 0.76674 0.16622 0.29092 0.0
C1120 C 0.78967 0.10246 0.27083 0.0
C1121 C 0.80214 0.15649 0.29097 0.0
C1122 C 0.83881 0.06092 0.2612 0.0
C1123 C 0.79118 1.0111 0.24555 0.0
N1124 N 0.81245 0.12545 0.28113 0.0
N1125 N 0.78025 0.04336 0.25314 0.0
H1126 H 0.77995 0.01728 0.49295 0.0
H1127 H 0.59297 0.07268 0.54746 0.0
H1128 H 0.74675 0.12402 0.50442 0.0
H1129 H 0.62035 0.96557 0.53096 0.0
H1130 H 0.64913 0.09155 0.53082 0.0
H1131 H 0.72122 0.99734 0.50497 0.0
C1132 C 0.76017 0.03651 0.49759 0.0
C1133 C 0.76825 0.07234 0.49776 0.0
C1134 C 0.64288 0.0639 0.53072 0.0
C1135 C 0.70137 0.04981 0.51187 0.0
C1136 C 0.61085 0.05307 0.54041 0.0
C1137 C 0.60193 0.01744 0.54081 0.0
C1138 C 0.66645 0.03897 0.52133 0.0
C1139 C 0.62598 0.99334 0.53091 0.0
C1140 C 0.72674 0.02514 0.5046 0.0
C1141 C 0.74171 0.09613 0.5041 0.0
N1142 N 0.6572 1.00451 0.52171 0.0
N1143 N 0.70966 0.08445 0.51108 0.0
H1144 H 0.33035 0.18038 0.50439 0.0
H1145 H 0.27482 0.99571 0.56252 0.0
H1146 H 0.22296 0.15236 0.51921 0.0
H1147 H 0.38109 0.0267 0.54708 0.0
H1148 H 0.25489 0.05368 0.549 0.0
H1149 H 0.34891 0.12453 0.52118 0.0
C1150 C 0.31057 0.16239 0.51098 0.0
C1151 C 0.27494 0.17118 0.51011 0.0
C1152 C 0.28259 0.04785 0.54879 0.0
C1153 C 0.29625 0.10693 0.53 0.0
C1154 C 0.29397 0.01487 0.55668 0.0
C1155 C 0.32966 1.00636 0.55591 0.0
C1156 C 0.3071 0.0724 0.54007 0.0
C1157 C 0.35332 0.0321 0.54796 0.0
C1158 C 0.32126 0.13051 0.52081 0.0
C1159 C 0.25072 0.14693 0.5196 0.0
N1160 N 0.34163 0.06373 0.54023 0.0
N1161 N 0.26179 0.11592 0.52906 0.0
H1162 H 0.09163 0.07337 0.25102 0.0
H1163 H 0.27187 0.02168 0.31531 0.0
H1164 H 0.11523 0.96803 0.27389 0.0
H1165 H 0.24253 0.12698 0.29599 0.0
H1166 H 0.21408 1.00124 0.30209 0.0
H1167 H 0.14666 0.09312 0.26836 0.0
C1168 C 0.10847 0.05431 0.25959 0.0
C1169 C 0.09877 0.0189 0.26079 0.0
C1170 C 0.22021 0.02887 0.301 0.0
C1171 C 0.16202 0.04153 0.28112 0.0
C1172 C 0.2531 0.04055 0.30869 0.0
C1173 C 0.26203 0.07607 0.30674 0.0
C1174 C 0.19624 0.0529 0.29123 0.0
C1175 C 0.2368 0.09935 0.29781 0.0
C1176 C 0.13985 0.06567 0.26969 0.0
C1177 C 0.12146 0.99561 0.27264 0.0
N1178 N 0.20529 0.08735 0.29025 0.0
N1179 N 0.15207 1.00729 0.28223 0.0
H1180 H 0.24707 0.02773 1.06002 0.0
H1181 H 0.19116 0.84245 1.00344 0.0
H1182 H 0.14059 0.99431 1.04945 0.0
H1183 H 0.29884 0.87126 1.01507 0.0
H1184 H 0.17281 0.89788 1.0213 0.0
H1185 H 0.26725 0.96997 1.04578 0.0
C1186 C 0.22797 1.00806 1.05515 0.0
C1187 C 0.19211 0.0158 1.05591 0.0
C1188 C 0.20049 0.89218 1.02 0.0
C1189 C 0.21489 0.95014 1.03923 0.0
C1190 C 0.21103 0.86057 1.00954 0.0
C1191 C 0.24666 0.85217 1.00748 0.0
C1192 C 0.22566 0.91588 1.02857 0.0
C1193 C 0.27108 0.87649 1.01637 0.0
C1194 C 0.23947 0.97523 1.04684 0.0
C1195 C 0.16848 0.98949 1.04913 0.0
N1196 N 0.26015 0.90727 1.02645 0.0
N1197 N 0.18027 0.95806 1.04094 0.0
H1198 H 0.42705 0.94665 0.75382 0.0
H1199 H 0.24079 0.99947 0.81154 0.0
H1200 H 0.40046 0.05269 0.7739 0.0
H1201 H 0.27244 0.89357 0.79526 0.0
H1202 H 0.29943 0.01979 0.79947 0.0
H1203 H 0.37062 0.92711 0.76969 0.0
C1204 C 0.40931 0.96591 0.76147 0.0
C1205 C 0.41863 1.00147 0.76232 0.0
C1206 C 0.29359 0.99208 0.79874 0.0
C1207 C 0.35365 0.97906 0.78096 0.0
C1208 C 0.26018 0.98047 0.80576 0.0
C1209 C 0.25163 0.94478 0.80435 0.0
C1210 C 0.31856 0.96782 0.79018 0.0
C1211 C 0.27777 0.92134 0.79658 0.0
C1212 C 0.37709 0.95467 0.77073 0.0
C1213 C 0.39463 0.025 0.77298 0.0
N1214 N 0.30981 0.93326 0.78965 0.0
N1215 N 0.36325 0.01343 0.78176 0.0
H1216 H 0.30459 0.08227 0.22771 0.0
H1217 H 0.18163 0.17246 1.12722 0.0
H1218 H 0.27026 0.18916 0.23457 0.0
H1219 H 0.18076 0.06104 1.13862 0.0
H1220 H 0.21839 0.17948 0.16335 0.0
H1221 H 0.26541 0.07463 0.19285 0.0
C1222 C 0.28933 0.10447 0.2218 0.0
C1223 C 0.29172 0.13672 0.23444 0.0
C1224 C 0.21003 0.15345 0.15818 0.0
C1225 C 0.2457 0.12783 0.19351 0.0
C1226 C 0.18875 0.14932 1.13739 0.0
C1227 C 0.17708 0.11605 1.12957 0.0
C1228 C 0.22121 0.12407 0.1715 0.0
C1229 C 0.18819 0.08733 1.14381 0.0
C1230 C 0.26648 0.09987 0.20182 0.0
C1231 C 0.27004 0.16387 0.22567 0.0
N1232 N 0.20966 0.09195 0.16365 0.0
N1233 N 0.24858 0.15895 0.20588 0.0
H1234 H 0.66828 0.38925 0.40469 0.0
H1235 H 0.64391 0.58439 0.46009 0.0
H1236 H 0.64174 0.47745 0.35986 0.0
H1237 H 0.61613 0.49322 0.50193 0.0
H1238 H 0.65331 0.54637 0.42421 0.0
H1239 H 0.66004 0.4268 0.44121 0.0
C1240 C 0.66107 0.41644 0.40238 0.0
C1241 C 0.65553 0.42974 0.37879 0.0
C1242 C 0.64506 0.53464 0.44123 0.0
C1243 C 0.64661 0.47362 0.42099 0.0
C1244 C 0.63953 0.5565 0.46184 0.0
C1245 C 0.62846 0.54257 0.4844 0.0
C1246 C 0.64074 0.49795 0.44293 0.0
C1247 C 0.62399 0.50573 0.48511 0.0
C1248 C 0.65615 0.43796 0.42335 0.0
C1249 C 0.64606 0.46553 0.37743 0.0
N1250 N 0.63037 0.485 0.46503 0.0
N1251 N 0.64227 0.48593 0.39788 0.0
H1252 H 0.27284 0.8617 0.75112 0.0
H1253 H 0.28903 0.90179 0.60813 0.0
H1254 H 0.18648 0.9023 0.71012 0.0
H1255 H 0.37882 0.91148 0.6543 0.0
H1256 H 0.25162 0.89502 0.64426 0.0
H1257 H 0.31167 0.87202 0.71582 0.0
C1258 C 0.26172 0.87229 0.73464 0.0
C1259 C 0.2257 0.88057 0.73391 0.0
C1260 C 0.27944 0.89874 0.64666 0.0
C1261 C 0.27092 0.89251 0.69269 0.0
C1262 C 0.30106 0.90262 0.6259 0.0
C1263 C 0.33755 0.90743 0.62777 0.0
C1264 C 0.29397 0.89848 0.67008 0.0
C1265 C 0.35103 0.90817 0.65163 0.0
C1266 C 0.28421 0.87852 0.71445 0.0
C1267 C 0.21368 0.895 0.71184 0.0
N1268 N 0.32948 0.90329 0.67164 0.0
N1269 N 0.23588 0.90003 0.69231 0.0
H1270 H 0.91687 0.5874 0.87632 0.0
H1271 H 0.83078 0.45972 0.97655 0.0
H1272 H 0.80545 0.5835 0.88734 0.0
H1273 H 0.93549 0.49951 0.98375 0.0
H1274 H 0.82181 0.49916 0.94179 0.0
H1275 H 0.92473 0.55126 0.91276 0.0
C1276 C 0.89391 0.57947 0.88657 0.0
C1277 C 0.86038 0.58959 0.87857 0.0
C1278 C 0.84683 0.49925 0.95084 0.0
C1279 C 0.86941 0.54603 0.92072 0.0
C1280 C 0.85221 0.47634 0.97075 0.0
C1281 C 0.88426 0.47547 0.98344 0.0
C1282 C 0.87384 0.52156 0.94269 0.0
C1283 C 0.91042 0.49859 0.9748 0.0
C1284 C 0.89851 0.55851 0.90749 0.0
C1285 C 0.83188 0.57739 0.89278 0.0
N1286 N 0.90479 0.52007 0.95508 0.0
N1287 N 0.837 0.55616 0.91275 0.0
H1288 H 0.83861 0.9588 0.16377 0.0
H1289 H 0.74683 0.82794 1.06706 0.0
H1290 H 0.83433 0.84726 0.1743 0.0
H1291 H 0.71321 0.9349 1.07516 0.0
H1292 H 0.78535 0.83561 1.10244 0.0
H1293 H 0.80039 0.95214 1.12789 0.0
C1294 C 0.83031 0.93282 0.15842 0.0
C1295 C 0.84051 0.90357 0.17239 0.0
C1296 C 0.76948 0.85745 1.09659 0.0
C1297 C 0.79599 0.89562 1.13063 0.0
C1298 C 0.7472 0.85303 1.07626 0.0
C1299 C 0.72571 0.88049 1.06788 0.0
C1300 C 0.7717 0.89003 1.10872 0.0
C1301 C 0.72843 0.91253 1.08085 0.0
C1302 C 0.80803 0.92905 1.13792 0.0
C1303 C 0.82775 0.87075 0.16435 0.0
N1304 N 0.75089 0.91641 1.10018 0.0
N1305 N 0.80677 0.86773 1.14425 0.0
H1306 H 0.30522 0.58851 0.91175 0.0
H1307 H 0.43863 0.49923 0.81482 0.0
H1308 H 0.41669 0.58802 0.9217 0.0
H1309 H 0.33337 0.46137 0.82414 0.0
H1310 H 0.42968 0.53849 0.84997 0.0
H1311 H 0.3131 0.54989 0.87585 0.0
C1312 C 0.3314 0.58107 0.90617 0.0
C1313 C 0.36031 0.59235 0.91993 0.0
C1314 C 0.40852 0.52151 0.84443 0.0
C1315 C 0.36965 0.5474 0.87841 0.0
C1316 C 0.41368 0.49882 0.82428 0.0
C1317 C 0.38706 0.47602 0.81635 0.0
C1318 C 0.37599 0.52274 0.85676 0.0
C1319 C 0.3551 0.47769 0.82954 0.0
C1320 C 0.33588 0.55854 0.88574 0.0
C1321 C 0.39349 0.58061 0.9118 0.0
N1322 N 0.35044 0.50058 0.84869 0.0
N1323 N 0.39718 0.55933 0.89178 0.0
H1324 H 0.64321 0.10699 0.65185 0.0
H1325 H 0.83793 0.12435 0.59291 0.0
H1326 H 0.73668 0.11782 0.69433 0.0
H1327 H 0.74629 0.15206 0.55229 0.0
H1328 H 0.80069 0.1149 0.62907 0.0
H1329 H 0.67908 0.11569 0.61445 0.0
C1330 C 0.67114 0.11081 0.65346 0.0
C1331 C 0.68647 0.11172 0.67674 0.0
C1332 C 0.78861 0.12319 0.6123 0.0
C1333 C 0.72828 0.12156 0.63347 0.0
C1334 C 0.81006 0.12876 0.59149 0.0
C1335 C 0.79582 0.13971 0.56916 0.0
C1336 C 0.75196 0.1276 0.61114 0.0
C1337 C 0.75901 0.14429 0.56894 0.0
C1338 C 0.69171 0.11605 0.63199 0.0
C1339 C 0.72312 0.11708 0.67714 0.0
N1340 N 0.73864 0.13805 0.58928 0.0
N1341 N 0.74238 0.12152 0.65621 0.0
H1342 H 0.21081 0.43178 0.41413 0.0
H1343 H 0.07898 0.51942 0.31663 0.0
H1344 H 0.09912 0.43175 0.42424 0.0
H1345 H 0.18496 0.5553 0.32453 0.0
H1346 H 0.08697 0.48108 0.35226 0.0
H1347 H 0.20348 0.46955 0.37796 0.0
C1348 C 0.18468 0.43903 0.40862 0.0
C1349 C 0.15559 0.42776 0.42258 0.0
C1350 C 0.10852 0.49739 0.34629 0.0
C1351 C 0.14685 0.47179 0.38047 0.0
C1352 C 0.10391 0.51955 0.32581 0.0
C1353 C 0.13102 0.54158 0.31729 0.0
C1354 C 0.14093 0.49589 0.35842 0.0
C1355 C 0.16286 0.53958 0.33027 0.0
C1356 C 0.18051 0.46105 0.38796 0.0
C1357 C 0.12252 0.43918 0.41432 0.0
N1358 N 0.16693 0.51726 0.34973 0.0
N1359 N 0.11914 0.45999 0.39406 0.0
H1360 H 0.67961 0.55514 0.63874 0.0
H1361 H 0.77307 0.68735 0.7334 0.0
H1362 H 0.68643 0.66608 0.62605 0.0
H1363 H 0.80679 0.58033 0.72571 0.0
H1364 H 0.73411 0.67916 0.69831 0.0
H1365 H 0.7177 0.56246 0.67466 0.0
C1366 C 0.68833 0.58114 0.64371 0.0
C1367 C 0.679 0.61004 0.62916 0.0
C1368 C 0.75013 0.65744 0.7042 0.0
C1369 C 0.72331 0.61874 0.67074 0.0
C1370 C 0.77266 0.66218 0.72432 0.0
C1371 C 0.79426 0.63482 0.73267 0.0
C1372 C 0.74778 0.62467 0.69237 0.0
C1373 C 0.79149 0.60262 0.71996 0.0
C1374 C 0.71056 0.58528 0.66416 0.0
C1375 C 0.69233 0.64291 0.63656 0.0
N1376 N 0.76875 0.59842 0.70087 0.0
N1377 N 0.71323 0.64631 0.65662 0.0
H1378 H 0.16514 0.89317 0.90212 0.0
H1379 H 0.14588 0.08647 0.96125 0.0
H1380 H 0.13941 0.98333 0.85896 0.0
H1381 H 0.11413 0.99503 1.0014 0.0
H1382 H 0.1541 0.04947 0.92474 0.0
H1383 H 0.15751 0.92942 0.93933 0.0
C1384 C 0.15818 0.92051 0.90031 0.0
C1385 C 0.15273 0.93471 0.87693 0.0
C1386 C 0.14523 0.03742 0.94151 0.0
C1387 C 0.14461 0.97719 0.92004 0.0
C1388 C 0.14039 0.05872 0.96251 0.0
C1389 C 0.1285 0.04448 0.9848 0.0
C1390 C 0.13944 1.00089 0.94249 0.0
C1391 C 0.12262 1.0078 0.98482 0.0
C1392 C 0.15363 0.9413 0.9217 0.0
C1393 C 0.14364 0.97067 0.8763 0.0
N1394 N 0.1284 0.98757 0.96436 0.0
N1395 N 0.14027 0.99036 0.89715 0.0
H1396 H 0.87898 0.41431 0.15325 0.0
H1397 H 0.68501 0.39589 0.21206 0.0
H1398 H 0.78762 0.39537 1.11001 0.0
H1399 H 0.77546 0.36182 0.25159 0.0
H1400 H 0.72248 0.4056 0.17599 0.0
H1401 H 0.84274 0.40559 0.19049 0.0
C1402 C 0.85138 0.40875 0.15145 0.0
C1403 C 0.83675 0.40553 1.12804 0.0
C1404 C 0.73423 0.39586 0.1925 0.0
C1405 C 0.79445 0.39588 0.17112 0.0
C1406 C 0.71266 0.39013 0.21325 0.0
C1407 C 0.72646 0.37717 0.23521 0.0
C1408 C 0.77064 0.38984 0.19343 0.0
C1409 C 0.76304 0.37107 0.2352 0.0
C1410 C 0.83061 0.40349 0.17283 0.0
C1411 C 0.80053 0.39797 1.12737 0.0
N1412 N 0.7836 0.37766 0.21498 0.0
N1413 N 0.78096 0.39378 1.14822 0.0
H1414 H 0.37305 0.93449 0.46105 0.0
H1415 H 0.35388 0.12896 0.40419 0.0
H1416 H 0.40732 0.02501 0.50105 0.0
H1417 H 0.37193 0.03753 0.35993 0.0
H1418 H 0.36315 0.09254 0.441 0.0
H1419 H 0.36304 0.97208 0.42539 0.0
C1420 C 0.37879 0.96218 0.46243 0.0
C1421 C 0.39186 0.97596 0.48441 0.0
C1422 C 0.36493 0.08044 0.42321 0.0
C1423 C 0.37882 0.0203 0.44311 0.0
C1424 C 0.35935 0.1013 0.40208 0.0
C1425 C 0.36214 0.08671 0.3785 0.0
C1426 C 0.37246 0.04422 0.42109 0.0
C1427 C 0.36963 0.05042 0.37743 0.0
C1428 C 0.37288 0.98383 0.44192 0.0
C1429 C 0.39796 1.01259 0.48464 0.0
N1430 N 0.37415 0.03076 0.39805 0.0
N1431 N 0.39118 0.03323 0.46466 0.0
H1432 H 0.34039 0.46338 0.66178 0.0
H1433 H 0.24129 0.33204 0.56877 0.0
H1434 H 0.33221 0.35235 0.67382 0.0
H1435 H 0.21606 0.44178 0.57264 0.0
H1436 H 0.28047 0.33958 0.60376 0.0
H1437 H 0.30207 0.45698 0.62592 0.0
C1438 C 0.33124 0.43756 0.65674 0.0
C1439 C 0.34031 0.40836 0.67112 0.0
C1440 C 0.2663 0.36207 0.59706 0.0
C1441 C 0.29563 0.40074 0.62955 0.0
C1442 C 0.24364 0.35772 0.57696 0.0
C1443 C 0.22435 0.38606 0.56753 0.0
C1444 C 0.27102 0.39531 0.60789 0.0
C1445 C 0.22954 0.41879 0.57919 0.0
C1446 C 0.3089 0.43395 0.63628 0.0
C1447 C 0.3265 0.37576 0.66353 0.0
N1448 N 0.25226 0.42249 0.59835 0.0
N1449 N 0.3054 0.3729 0.64353 0.0
H1450 H 0.85858 0.12371 0.40112 0.0
H1451 H 0.86811 0.93067 0.33976 0.0
H1452 H 0.86701 0.02927 0.44328 0.0
H1453 H 0.90745 0.02126 0.30195 0.0
H1454 H 0.85889 0.96713 0.37632 0.0
H1455 H 0.86717 0.08836 0.36359 0.0
C1456 C 0.86184 0.09564 0.40263 0.0
C1457 C 0.86211 0.07989 0.42586 0.0
C1458 C 0.86968 0.97912 0.36008 0.0
C1459 C 0.87163 0.0386 0.38236 0.0
C1460 C 0.87513 0.95811 0.33904 0.0
C1461 C 0.88938 0.97223 0.3174 0.0
C1462 C 0.87741 0.01531 0.35979 0.0
C1463 C 0.89711 1.00855 0.31805 0.0
C1464 C 0.86701 0.07536 0.38108 0.0
C1465 C 0.86677 0.04309 0.42611 0.0
N1466 N 0.89084 0.02857 0.33854 0.0
N1467 N 0.87099 0.02406 0.40506 0.0
H1468 H 0.2308 0.60805 0.19155 0.0
H1469 H 0.24461 0.65965 1.04985 0.0
H1470 H 0.13916 0.61188 1.14681 0.0
H1471 H 0.33052 0.61287 1.08807 0.0
H1472 H 0.20663 0.64903 1.08549 0.0
H1473 H 0.26764 0.61539 0.15514 0.0
C1474 C 0.21825 0.61012 0.17401 0.0
C1475 C 0.18141 0.60885 0.17263 0.0
C1476 C 0.23381 0.64124 1.08621 0.0
C1477 C 0.22439 0.61868 1.13003 0.0
C1478 C 0.25586 0.64766 1.06581 0.0
C1479 C 0.29151 0.63775 1.06561 0.0
C1480 C 0.24714 0.62526 1.10729 0.0
C1481 C 0.30362 0.62148 1.08705 0.0
C1482 C 0.23953 0.61441 0.15309 0.0
C1483 C 0.16723 0.61213 1.14908 0.0
N1484 N 0.28184 0.61618 1.10681 0.0
N1485 N 0.18854 0.61727 1.12897 0.0
H1486 H 0.59806 0.9243 0.92302 0.0
H1487 H 0.6794 0.06583 0.83026 0.0
H1488 H 0.70933 0.93811 0.9163 0.0
H1489 H 0.58102 0.01526 0.8163 0.0
H1490 H 0.689 0.02543 0.86443 0.0
H1491 H 0.58982 0.96188 0.88728 0.0
C1492 C 0.62096 0.93473 0.91386 0.0
C1493 C 0.65458 0.9269 0.92282 0.0
C1494 C 0.66519 0.0232 0.85404 0.0
C1495 C 0.64498 0.9722 0.88158 0.0
C1496 C 0.6594 0.04667 0.83448 0.0
C1497 C 0.62896 0.0448 0.82007 0.0
C1498 C 0.6401 0.99754 0.86011 0.0
C1499 C 0.60473 0.01842 0.82667 0.0
C1500 C 0.61613 0.95651 0.89334 0.0
C1501 C 0.68292 0.94234 0.91005 0.0
N1502 N 0.61061 0.99644 0.8461 0.0
N1503 N 0.67747 0.96433 0.89051 0.0
loop_
_geom_bond_atom_site_label_1
_geom_bond_atom_site_label_2
_geom_bond_distance
_geom_bond_site_symmetry_2
_ccdc_geom_bond_type
Ho0 C3 2.811 . S
Ho0 O20 2.322 . S
Ho0 O22 2.378 . S
Ho0 O23 2.524 . S
Ho0 O24 2.381 . S
Ho0 O25 2.669 . S
Ho0 O27 2.346 . S
Ho0 O31 2.305 . S
Ho1 C12 2.811 . S
Ho1 O21 2.346 . S
Ho1 O25 2.305 . S
Ho1 O26 2.322 . S
Ho1 O28 2.378 . S
Ho1 O29 2.524 . S
Ho1 O30 2.381 . S
Ho1 O31 2.669 . S
C2 O20 1.259 . S
C2 O21 1.268 . S
C3 Ho0 2.811 . S
C3 C4 1.488 . S
C3 O22 1.215 . S
C3 O23 1.289 . S
C4 C3 1.488 . S
C4 C5 1.348 . S
C4 C9 1.413 . S
C5 C4 1.348 . S
C5 C6 1.442 . S
C5 H32 0.930 . S
C6 C5 1.442 . S
C6 C7 1.381 . S
C6 H33 0.931 . S
C7 C6 1.381 . S
C7 C8 1.321 . S
C8 C7 1.321 . S
C8 C9 1.403 . S
C8 H34 0.934 . S
C9 C4 1.413 . S
C9 C8 1.403 . S
C9 H35 0.930 . S
C10 O24 1.275 . S
C10 O25 1.256 . S
C11 O26 1.259 . S
C11 O27 1.268 . S
C12 Ho1 2.811 . S
C12 C13 1.488 . S
C12 O28 1.215 . S
C12 O29 1.289 . S
C13 C12 1.488 . S
C13 C14 1.348 . S
C13 C18 1.413 . S
C14 C13 1.348 . S
C14 C15 1.442 . S
C14 H36 0.930 . S
C15 C14 1.442 . S
C15 C16 1.350 1_545 S
C15 H37 0.931 . S
C16 C15 1.350 1_565 S
C16 C17 1.334 . S
C17 C16 1.334 . S
C17 C18 1.403 1_565 S
C17 H38 0.934 . S
C18 C13 1.413 . S
C18 C17 1.403 1_545 S
C18 H39 0.931 1_545 S
C19 O30 1.275 . S
C19 O31 1.256 . S
O20 Ho0 2.322 . S
O20 C2 1.259 . S
O21 Ho1 2.346 . S
O21 C2 1.268 . S
O22 Ho0 2.378 . S
O22 C3 1.215 . S
O23 Ho0 2.524 . S
O23 C3 1.289 . S
O24 Ho0 2.381 . S
O24 C10 1.275 . S
O25 Ho0 2.669 . S
O25 Ho1 2.305 . S
O25 C10 1.256 . S
O26 Ho1 2.322 . S
O26 C11 1.259 . S
O27 Ho0 2.346 . S
O27 C11 1.268 . S
O28 Ho1 2.378 . S
O28 C12 1.215 . S
O29 Ho1 2.524 . S
O29 C12 1.289 . S
O30 Ho1 2.381 . S
O30 C19 1.275 . S
O31 Ho0 2.305 . S
O31 Ho1 2.669 . S
O31 C19 1.256 . S
H32 C5 0.930 . S
H33 C6 0.931 . S
H34 C8 0.934 . S
H35 C9 0.930 . S
H36 C14 0.930 . S
H37 C15 0.931 . S
H38 C17 0.934 . S
H39 C18 0.931 1_565 S
Ho40 C43 2.811 . S
Ho40 O60 2.322 . S
Ho40 O62 2.378 . S
Ho40 O63 2.524 . S
Ho40 O64 2.381 . S
Ho40 O65 2.669 . S
Ho40 O67 2.346 . S
Ho40 O71 2.305 . S
Ho41 C52 2.811 . S
Ho41 O61 2.346 . S
Ho41 O65 2.305 . S
Ho41 O66 2.322 . S
Ho41 O68 2.378 . S
Ho41 O69 2.524 . S
Ho41 O70 2.381 . S
Ho41 O71 2.669 . S
C42 O60 1.259 . S
C42 O61 1.268 . S
C43 Ho40 2.811 . S
C43 C44 1.488 . S
C43 O62 1.215 . S
C43 O63 1.289 . S
C44 C43 1.488 . S
C44 C45 1.348 . S
C44 C49 1.413 . S
C45 C44 1.348 . S
C45 C46 1.442 . S
C45 H72 0.930 . S
C46 C45 1.442 . S
C46 C47 1.381 . S
C46 H73 0.931 . S
C47 C46 1.381 . S
C47 C48 1.321 . S
C48 C47 1.321 . S
C48 C49 1.403 . S
C48 H74 0.934 . S
C49 C44 1.413 . S
C49 C48 1.403 . S
C49 H75 0.930 . S
C50 O64 1.275 . S
C50 O65 1.256 . S
C51 O66 1.259 . S
C51 O67 1.268 . S
C52 Ho41 2.811 . S
C52 C53 1.488 . S
C52 O68 1.215 . S
C52 O69 1.289 . S
C53 C52 1.488 . S
C53 C54 1.348 . S
C53 C58 1.413 . S
C54 C53 1.348 . S
C54 C55 1.442 . S
C54 H76 0.930 . S
C55 C54 1.442 . S
C55 C56 1.381 . S
C55 H77 0.931 . S
C56 C55 1.381 . S
C56 C57 1.321 . S
C57 C56 1.321 . S
C57 C58 1.403 . S
C57 H78 0.934 . S
C58 C53 1.413 . S
C58 C57 1.403 . S
C58 H79 0.930 . S
C59 O70 1.275 . S
C59 O71 1.256 . S
O60 Ho40 2.322 . S
O60 C42 1.259 . S
O61 Ho41 2.346 . S
O61 C42 1.268 . S
O62 Ho40 2.378 . S
O62 C43 1.215 . S
O63 Ho40 2.524 . S
O63 C43 1.289 . S
O64 Ho40 2.381 . S
O64 C50 1.275 . S
O65 Ho40 2.669 . S
O65 Ho41 2.305 . S
O65 C50 1.256 . S
O66 Ho41 2.322 . S
O66 C51 1.259 . S
O67 Ho40 2.346 . S
O67 C51 1.268 . S
O68 Ho41 2.378 . S
O68 C52 1.215 . S
O69 Ho41 2.524 . S
O69 C52 1.289 . S
O70 Ho41 2.381 . S
O70 C59 1.275 . S
O71 Ho40 2.305 . S
O71 Ho41 2.669 . S
O71 C59 1.256 . S
H72 C45 0.930 . S
H73 C46 0.931 . S
H74 C48 0.934 . S
H75 C49 0.930 . S
H76 C54 0.930 . S
H77 C55 0.931 . S
H78 C57 0.934 . S
H79 C58 0.930 . S
Ho80 C83 2.811 . S
Ho80 O100 2.322 . S
Ho80 O102 2.378 . S
Ho80 O103 2.524 . S
Ho80 O104 2.381 . S
Ho80 O105 2.669 . S
Ho80 O107 2.346 . S
Ho80 O111 2.305 . S
Ho81 C92 2.811 . S
Ho81 O101 2.346 . S
Ho81 O105 2.305 . S
Ho81 O106 2.322 . S
Ho81 O108 2.378 . S
Ho81 O109 2.524 . S
Ho81 O110 2.381 . S
Ho81 O111 2.669 . S
C82 O100 1.259 . S
C82 O101 1.268 . S
C83 Ho80 2.811 . S
C83 C84 1.488 . S
C83 O102 1.215 . S
C83 O103 1.289 . S
C84 C83 1.488 . S
C84 C85 1.348 . S
C84 C89 1.413 . S
C85 C84 1.348 . S
C85 C86 1.442 . S
C85 H112 0.930 . S
C86 C85 1.442 . S
C86 C87 1.381 . S
C86 H113 0.931 . S
C87 C86 1.381 . S
C87 C88 1.321 . S
C88 C87 1.321 . S
C88 C89 1.403 . S
C88 H114 0.934 . S
C89 C84 1.413 . S
C89 C88 1.403 . S
C89 H115 0.930 . S
C90 O104 1.275 . S
C90 O105 1.256 . S
C91 O106 1.259 . S
C91 O107 1.268 . S
C92 Ho81 2.811 . S
C92 C93 1.488 . S
C92 O108 1.215 . S
C92 O109 1.289 . S
C93 C92 1.488 . S
C93 C94 1.348 . S
C93 C98 1.413 . S
C94 C93 1.348 . S
C94 C95 1.442 . S
C94 H116 0.930 . S
C95 C94 1.442 . S
C95 C96 1.350 1_565 S
C95 H117 0.931 . S
C96 C95 1.350 1_545 S
C96 C97 1.334 . S
C97 C96 1.334 . S
C97 C98 1.403 1_545 S
C97 H118 0.934 . S
C98 C93 1.413 . S
C98 C97 1.403 1_565 S
C98 H119 0.931 1_565 S
C99 O110 1.275 . S
C99 O111 1.256 . S
O100 Ho80 2.322 . S
O100 C82 1.259 . S
O101 Ho81 2.346 . S
O101 C82 1.268 . S
O102 Ho80 2.378 . S
O102 C83 1.215 . S
O103 Ho80 2.524 . S
O103 C83 1.289 . S
O104 Ho80 2.381 . S
O104 C90 1.275 . S
O105 Ho80 2.669 . S
O105 Ho81 2.305 . S
O105 C90 1.256 . S
O106 Ho81 2.322 . S
O106 C91 1.259 . S
O107 Ho80 2.346 . S
O107 C91 1.268 . S
O108 Ho81 2.378 . S
O108 C92 1.215 . S
O109 Ho81 2.524 . S
O109 C92 1.289 . S
O110 Ho81 2.381 . S
O110 C99 1.275 . S
O111 Ho80 2.305 . S
O111 Ho81 2.669 . S
O111 C99 1.256 . S
H112 C85 0.930 . S
H113 C86 0.931 . S
H114 C88 0.934 . S
H115 C89 0.930 . S
H116 C94 0.930 . S
H117 C95 0.931 . S
H118 C97 0.934 . S
H119 C98 0.931 1_545 S
Ho120 C123 2.811 . S
Ho120 O140 2.322 . S
Ho120 O142 2.378 . S
Ho120 O143 2.524 . S
Ho120 O144 2.381 . S
Ho120 O145 2.669 . S
Ho120 O147 2.346 . S
Ho120 O151 2.305 . S
Ho121 C132 2.811 . S
Ho121 O141 2.346 . S
Ho121 O145 2.305 . S
Ho121 O146 2.322 . S
Ho121 O148 2.378 . S
Ho121 O149 2.524 . S
Ho121 O150 2.381 . S
Ho121 O151 2.669 . S
C122 O140 1.259 . S
C122 O141 1.268 . S
C123 Ho120 2.811 . S
C123 C124 1.475 1_655 S
C123 O142 1.215 . S
C123 O143 1.289 . S
C124 C123 1.475 1_455 S
C124 C125 1.340 1_455 S
C124 C129 1.435 . S
C125 C124 1.340 1_655 S
C125 C126 1.442 1_655 S
C125 H152 0.930 . S
C126 C125 1.442 1_455 S
C126 C127 1.381 . S
C126 H153 0.941 . S
C127 C126 1.381 . S
C127 C128 1.321 . S
C128 C127 1.321 . S
C128 C129 1.403 . S
C128 H154 0.934 . S
C129 C124 1.435 . S
C129 C128 1.403 . S
C129 H155 0.930 . S
C130 O144 1.275 . S
C130 O145 1.256 . S
C131 O146 1.259 . S
C131 O147 1.268 . S
C132 Ho121 2.811 . S
C132 C133 1.488 . S
C132 O148 1.215 . S
C132 O149 1.289 . S
C133 C132 1.488 . S
C133 C134 1.348 . S
C133 C138 1.413 . S
C134 C133 1.348 . S
C134 C135 1.442 . S
C134 H156 0.930 . S
C135 C134 1.442 . S
C135 C136 1.381 . S
C135 H157 0.931 . S
C136 C135 1.381 . S
C136 C137 1.321 . S
C137 C136 1.321 . S
C137 C138 1.403 . S
C137 H158 0.934 . S
C138 C133 1.413 . S
C138 C137 1.403 . S
C138 H159 0.930 . S
C139 O150 1.275 . S
C139 O151 1.256 . S
O140 Ho120 2.322 . S
O140 C122 1.259 . S
O141 Ho121 2.346 . S
O141 C122 1.268 . S
O142 Ho120 2.378 . S
O142 C123 1.215 . S
O143 Ho120 2.524 . S
O143 C123 1.289 . S
O144 Ho120 2.381 . S
O144 C130 1.275 . S
O145 Ho120 2.669 . S
O145 Ho121 2.305 . S
O145 C130 1.256 . S
O146 Ho121 2.322 . S
O146 C131 1.259 . S
O147 Ho120 2.346 . S
O147 C131 1.268 . S
O148 Ho121 2.378 . S
O148 C132 1.215 . S
O149 Ho121 2.524 . S
O149 C132 1.289 . S
O150 Ho121 2.381 . S
O150 C139 1.275 . S
O151 Ho120 2.305 . S
O151 Ho121 2.669 . S
O151 C139 1.256 . S
H152 C125 0.930 . S
H153 C126 0.941 . S
H154 C128 0.934 . S
H155 C129 0.930 . S
H156 C134 0.930 . S
H157 C135 0.931 . S
H158 C137 0.934 . S
H159 C138 0.930 . S
Ho160 C163 2.811 . S
Ho160 O180 2.322 . S
Ho160 O182 2.378 . S
Ho160 O183 2.524 . S
Ho160 O184 2.381 . S
Ho160 O185 2.669 . S
Ho160 O187 2.346 . S
Ho160 O191 2.305 . S
Ho161 C172 2.811 . S
Ho161 O181 2.346 . S
Ho161 O185 2.305 . S
Ho161 O186 2.322 . S
Ho161 O188 2.378 . S
Ho161 O189 2.524 . S
Ho161 O190 2.381 . S
Ho161 O191 2.669 . S
C162 O180 1.259 . S
C162 O181 1.268 . S
C163 Ho160 2.811 . S
C163 C164 1.488 . S
C163 O182 1.215 . S
C163 O183 1.289 . S
C164 C163 1.488 . S
C164 C165 1.348 . S
C164 C169 1.413 . S
C165 C164 1.348 . S
C165 C166 1.442 . S
C165 H192 0.930 . S
C166 C165 1.442 . S
C166 C167 1.350 1_565 S
C166 H193 0.931 . S
C167 C166 1.350 1_545 S
C167 C168 1.334 . S
C168 C167 1.334 . S
C168 C169 1.403 1_545 S
C168 H194 0.934 . S
C169 C164 1.413 . S
C169 C168 1.403 1_565 S
C169 H195 0.931 1_565 S
C170 O184 1.275 . S
C170 O185 1.256 . S
C171 O186 1.259 . S
C171 O187 1.268 . S
C172 Ho161 2.811 . S
C172 C173 1.488 . S
C172 O188 1.215 . S
C172 O189 1.289 . S
C173 C172 1.488 . S
C173 C174 1.348 . S
C173 C178 1.413 . S
C174 C173 1.348 . S
C174 C175 1.442 . S
C174 H196 0.930 . S
C175 C174 1.442 . S
C175 C176 1.381 . S
C175 H197 0.931 . S
C176 C175 1.381 . S
C176 C177 1.321 . S
C177 C176 1.321 . S
C177 C178 1.403 . S
C177 H198 0.934 . S
C178 C173 1.413 . S
C178 C177 1.403 . S
C178 H199 0.930 . S
C179 O190 1.275 . S
C179 O191 1.256 . S
O180 Ho160 2.322 . S
O180 C162 1.259 . S
O181 Ho161 2.346 . S
O181 C162 1.268 . S
O182 Ho160 2.378 . S
O182 C163 1.215 . S
O183 Ho160 2.524 . S
O183 C163 1.289 . S
O184 Ho160 2.381 . S
O184 C170 1.275 . S
O185 Ho160 2.669 . S
O185 Ho161 2.305 . S
O185 C170 1.256 . S
O186 Ho161 2.322 . S
O186 C171 1.259 . S
O187 Ho160 2.346 . S
O187 C171 1.268 . S
O188 Ho161 2.378 . S
O188 C172 1.215 . S
O189 Ho161 2.524 . S
O189 C172 1.289 . S
O190 Ho161 2.381 . S
O190 C179 1.275 . S
O191 Ho160 2.305 . S
O191 Ho161 2.669 . S
O191 C179 1.256 . S
H192 C165 0.930 . S
H193 C166 0.931 . S
H194 C168 0.934 . S
H195 C169 0.931 1_545 S
H196 C174 0.930 . S
H197 C175 0.931 . S
H198 C177 0.934 . S
H199 C178 0.930 . S
Ho200 C203 2.811 . S
Ho200 O220 2.322 . S
Ho200 O222 2.378 . S
Ho200 O223 2.524 . S
Ho200 O224 2.381 . S
Ho200 O225 2.669 . S
Ho200 O227 2.346 . S
Ho200 O231 2.305 . S
Ho201 C212 2.811 . S
Ho201 O221 2.346 . S
Ho201 O225 2.305 . S
Ho201 O226 2.322 . S
Ho201 O228 2.378 . S
Ho201 O229 2.524 . S
Ho201 O230 2.381 . S
Ho201 O231 2.669 . S
C202 O220 1.259 . S
C202 O221 1.268 . S
C203 Ho200 2.811 . S
C203 C204 1.488 . S
C203 O222 1.215 . S
C203 O223 1.289 . S
C204 C203 1.488 . S
C204 C205 1.348 . S
C204 C209 1.413 . S
C205 C204 1.348 . S
C205 C206 1.442 . S
C205 H232 0.930 . S
C206 C205 1.442 . S
C206 C207 1.381 . S
C206 H233 0.931 . S
C207 C206 1.381 . S
C207 C208 1.321 . S
C208 C207 1.321 . S
C208 C209 1.403 . S
C208 H234 0.934 . S
C209 C204 1.413 . S
C209 C208 1.403 . S
C209 H235 0.930 . S
C210 O224 1.275 . S
C210 O225 1.256 . S
C211 O226 1.259 . S
C211 O227 1.268 . S
C212 Ho201 2.811 . S
C212 C213 1.488 . S
C212 O228 1.215 . S
C212 O229 1.289 . S
C213 C212 1.488 . S
C213 C214 1.348 . S
C213 C218 1.413 . S
C214 C213 1.348 . S
C214 C215 1.442 . S
C214 H236 0.930 . S
C215 C214 1.442 . S
C215 C216 1.381 . S
C215 H237 0.931 . S
C216 C215 1.381 . S
C216 C217 1.321 . S
C217 C216 1.321 . S
C217 C218 1.403 . S
C217 H238 0.934 . S
C218 C213 1.413 . S
C218 C217 1.403 . S
C218 H239 0.930 . S
C219 O230 1.275 . S
C219 O231 1.256 . S
O220 Ho200 2.322 . S
O220 C202 1.259 . S
O221 Ho201 2.346 . S
O221 C202 1.268 . S
O222 Ho200 2.378 . S
O222 C203 1.215 . S
O223 Ho200 2.524 . S
O223 C203 1.289 . S
O224 Ho200 2.381 . S
O224 C210 1.275 . S
O225 Ho200 2.669 . S
O225 Ho201 2.305 . S
O225 C210 1.256 . S
O226 Ho201 2.322 . S
O226 C211 1.259 . S
O227 Ho200 2.346 . S
O227 C211 1.268 . S
O228 Ho201 2.378 . S
O228 C212 1.215 . S
O229 Ho201 2.524 . S
O229 C212 1.289 . S
O230 Ho201 2.381 . S
O230 C219 1.275 . S
O231 Ho200 2.305 . S
O231 Ho201 2.669 . S
O231 C219 1.256 . S
H232 C205 0.930 . S
H233 C206 0.931 . S
H234 C208 0.934 . S
H235 C209 0.930 . S
H236 C214 0.930 . S
H237 C215 0.931 . S
H238 C217 0.934 . S
H239 C218 0.930 . S
Ho240 C243 2.811 . S
Ho240 O260 2.322 . S
Ho240 O262 2.378 . S
Ho240 O263 2.524 . S
Ho240 O264 2.381 . S
Ho240 O265 2.669 . S
Ho240 O267 2.346 . S
Ho240 O271 2.305 . S
Ho241 C252 2.811 . S
Ho241 O261 2.346 . S
Ho241 O265 2.305 . S
Ho241 O266 2.322 . S
Ho241 O268 2.378 . S
Ho241 O269 2.524 . S
Ho241 O270 2.381 . S
Ho241 O271 2.669 . S
C242 O260 1.259 . S
C242 O261 1.268 . S
C243 Ho240 2.811 . S
C243 C244 1.488 . S
C243 O262 1.215 . S
C243 O263 1.289 . S
C244 C243 1.488 . S
C244 C245 1.348 . S
C244 C249 1.413 . S
C245 C244 1.348 . S
C245 C246 1.442 . S
C245 H272 0.930 . S
C246 C245 1.442 . S
C246 C247 1.350 1_545 S
C246 H273 0.931 . S
C247 C246 1.350 1_565 S
C247 C248 1.334 . S
C248 C247 1.334 . S
C248 C249 1.403 1_565 S
C248 H274 0.934 . S
C249 C244 1.413 . S
C249 C248 1.403 1_545 S
C249 H275 0.931 1_545 S
C250 O264 1.275 . S
C250 O265 1.256 . S
C251 O266 1.259 . S
C251 O267 1.268 . S
C252 Ho241 2.811 . S
C252 C253 1.488 . S
C252 O268 1.215 . S
C252 O269 1.289 . S
C253 C252 1.488 . S
C253 C254 1.348 . S
C253 C258 1.413 . S
C254 C253 1.348 . S
C254 C255 1.442 . S
C254 H276 0.930 . S
C255 C254 1.442 . S
C255 C256 1.381 . S
C255 H277 0.931 . S
C256 C255 1.381 . S
C256 C257 1.321 . S
C257 C256 1.321 . S
C257 C258 1.403 . S
C257 H278 0.934 . S
C258 C253 1.413 . S
C258 C257 1.403 . S
C258 H279 0.930 . S
C259 O270 1.275 . S
C259 O271 1.256 . S
O260 Ho240 2.322 . S
O260 C242 1.259 . S
O261 Ho241 2.346 . S
O261 C242 1.268 . S
O262 Ho240 2.378 . S
O262 C243 1.215 . S
O263 Ho240 2.524 . S
O263 C243 1.289 . S
O264 Ho240 2.381 . S
O264 C250 1.275 . S
O265 Ho240 2.669 . S
O265 Ho241 2.305 . S
O265 C250 1.256 . S
O266 Ho241 2.322 . S
O266 C251 1.259 . S
O267 Ho240 2.346 . S
O267 C251 1.268 . S
O268 Ho241 2.378 . S
O268 C252 1.215 . S
O269 Ho241 2.524 . S
O269 C252 1.289 . S
O270 Ho241 2.381 . S
O270 C259 1.275 . S
O271 Ho240 2.305 . S
O271 Ho241 2.669 . S
O271 C259 1.256 . S
H272 C245 0.930 . S
H273 C246 0.931 . S
H274 C248 0.934 . S
H275 C249 0.931 1_565 S
H276 C254 0.930 . S
H277 C255 0.931 . S
H278 C257 0.934 . S
H279 C258 0.930 . S
Ho280 C283 2.811 . S
Ho280 O300 2.322 . S
Ho280 O302 2.378 . S
Ho280 O303 2.524 . S
Ho280 O304 2.381 . S
Ho280 O305 2.669 . S
Ho280 O307 2.346 . S
Ho280 O311 2.305 . S
Ho281 C292 2.811 . S
Ho281 O301 2.346 . S
Ho281 O305 2.305 . S
Ho281 O306 2.322 . S
Ho281 O308 2.378 . S
Ho281 O309 2.524 . S
Ho281 O310 2.381 . S
Ho281 O311 2.669 . S
C282 O300 1.259 . S
C282 O301 1.268 . S
C283 Ho280 2.811 . S
C283 C284 1.488 . S
C283 O302 1.215 . S
C283 O303 1.289 . S
C284 C283 1.488 . S
C284 C285 1.348 . S
C284 C289 1.413 . S
C285 C284 1.348 . S
C285 C286 1.442 . S
C285 H312 0.930 . S
C286 C285 1.442 . S
C286 C287 1.381 . S
C286 H313 0.931 . S
C287 C286 1.381 . S
C287 C288 1.321 . S
C288 C287 1.321 . S
C288 C289 1.403 . S
C288 H314 0.934 . S
C289 C284 1.413 . S
C289 C288 1.403 . S
C289 H315 0.930 . S
C290 O304 1.275 . S
C290 O305 1.256 . S
C291 O306 1.259 . S
C291 O307 1.268 . S
C292 Ho281 2.811 . S
C292 C293 1.475 1_455 S
C292 O308 1.215 . S
C292 O309 1.289 . S
C293 C292 1.475 1_655 S
C293 C294 1.340 1_655 S
C293 C298 1.435 . S
C294 C293 1.340 1_455 S
C294 C295 1.442 1_455 S
C294 H316 0.930 . S
C295 C294 1.442 1_655 S
C295 C296 1.381 . S
C295 H317 0.941 . S
C296 C295 1.381 . S
C296 C297 1.321 . S
C297 C296 1.321 . S
C297 C298 1.403 . S
C297 H318 0.934 . S
C298 C293 1.435 . S
C298 C297 1.403 . S
C298 H319 0.930 . S
C299 O310 1.275 . S
C299 O311 1.256 . S
O300 Ho280 2.322 . S
O300 C282 1.259 . S
O301 Ho281 2.346 . S
O301 C282 1.268 . S
O302 Ho280 2.378 . S
O302 C283 1.215 . S
O303 Ho280 2.524 . S
O303 C283 1.289 . S
O304 Ho280 2.381 . S
O304 C290 1.275 . S
O305 Ho280 2.669 . S
O305 Ho281 2.305 . S
O305 C290 1.256 . S
O306 Ho281 2.322 . S
O306 C291 1.259 . S
O307 Ho280 2.346 . S
O307 C291 1.268 . S
O308 Ho281 2.378 . S
O308 C292 1.215 . S
O309 Ho281 2.524 . S
O309 C292 1.289 . S
O310 Ho281 2.381 . S
O310 C299 1.275 . S
O311 Ho280 2.305 . S
O311 Ho281 2.669 . S
O311 C299 1.256 . S
H312 C285 0.930 . S
H313 C286 0.931 . S
H314 C288 0.934 . S
H315 C289 0.930 . S
H316 C294 0.930 . S
H317 C295 0.941 . S
H318 C297 0.934 . S
H319 C298 0.930 . S
Ho320 C323 2.811 . S
Ho320 O340 2.322 . S
Ho320 O342 2.378 . S
Ho320 O343 2.524 . S
Ho320 O344 2.381 . S
Ho320 O345 2.669 . S
Ho320 O347 2.346 . S
Ho320 O351 2.305 . S
Ho321 C332 2.811 . S
Ho321 O341 2.346 . S
Ho321 O345 2.305 . S
Ho321 O346 2.322 . S
Ho321 O348 2.378 . S
Ho321 O349 2.524 . S
Ho321 O350 2.381 . S
Ho321 O351 2.669 . S
C322 O340 1.259 . S
C322 O341 1.268 . S
C323 Ho320 2.811 . S
C323 C324 1.488 . S
C323 O342 1.215 . S
C323 O343 1.289 . S
C324 C323 1.488 . S
C324 C325 1.348 . S
C324 C329 1.413 . S
C325 C324 1.348 . S
C325 C326 1.442 . S
C325 H352 0.930 . S
C326 C325 1.442 . S
C326 C327 1.381 . S
C326 H353 0.931 . S
C327 C326 1.381 . S
C327 C328 1.321 . S
C328 C327 1.321 . S
C328 C329 1.403 . S
C328 H354 0.934 . S
C329 C324 1.413 . S
C329 C328 1.403 . S
C329 H355 0.930 . S
C330 O344 1.275 . S
C330 O345 1.256 . S
C331 O346 1.259 . S
C331 O347 1.268 . S
C332 Ho321 2.811 . S
C332 C333 1.488 . S
C332 O348 1.215 . S
C332 O349 1.289 . S
C333 C332 1.488 . S
C333 C334 1.348 . S
C333 C338 1.413 . S
C334 C333 1.348 . S
C334 C335 1.442 . S
C334 H356 0.930 . S
C335 C334 1.442 . S
C335 C336 1.381 . S
C335 H357 0.931 . S
C336 C335 1.381 . S
C336 C337 1.321 . S
C337 C336 1.321 . S
C337 C338 1.403 . S
C337 H358 0.934 . S
C338 C333 1.413 . S
C338 C337 1.403 . S
C338 H359 0.930 . S
C339 O350 1.275 . S
C339 O351 1.256 . S
O340 Ho320 2.322 . S
O340 C322 1.259 . S
O341 Ho321 2.346 . S
O341 C322 1.268 . S
O342 Ho320 2.378 . S
O342 C323 1.215 . S
O343 Ho320 2.524 . S
O343 C323 1.289 . S
O344 Ho320 2.381 . S
O344 C330 1.275 . S
O345 Ho320 2.669 . S
O345 Ho321 2.305 . S
O345 C330 1.256 . S
O346 Ho321 2.322 . S
O346 C331 1.259 . S
O347 Ho320 2.346 . S
O347 C331 1.268 . S
O348 Ho321 2.378 . S
O348 C332 1.215 . S
O349 Ho321 2.524 . S
O349 C332 1.289 . S
O350 Ho321 2.381 . S
O350 C339 1.275 . S
O351 Ho320 2.305 . S
O351 Ho321 2.669 . S
O351 C339 1.256 . S
H352 C325 0.930 . S
H353 C326 0.931 . S
H354 C328 0.934 . S
H355 C329 0.930 . S
H356 C334 0.930 . S
H357 C335 0.931 . S
H358 C337 0.934 . S
H359 C338 0.930 . S
Ho360 C363 2.811 . S
Ho360 O380 2.322 . S
Ho360 O382 2.378 . S
Ho360 O383 2.524 1_545 S
Ho360 O384 2.381 . S
Ho360 O385 2.669 . S
Ho360 O387 2.346 . S
Ho360 O391 2.305 . S
Ho361 C372 2.811 . S
Ho361 O381 2.346 . S
Ho361 O385 2.305 . S
Ho361 O386 2.322 . S
Ho361 O388 2.378 . S
Ho361 O389 2.524 . S
Ho361 O390 2.381 . S
Ho361 O391 2.669 . S
C362 O380 1.259 . S
C362 O381 1.268 . S
C363 Ho360 2.811 . S
C363 C364 1.475 1_445 S
C363 O382 1.215 . S
C363 O383 1.289 1_545 S
C364 C363 1.475 1_665 S
C364 C365 1.340 1_655 S
C364 C369 1.435 1_565 S
C365 C364 1.340 1_455 S
C365 C366 1.442 1_455 S
C365 H392 0.930 . S
C366 C365 1.442 1_655 S
C366 C367 1.381 . S
C366 H393 0.941 . S
C367 C366 1.381 . S
C367 C368 1.321 . S
C368 C367 1.321 . S
C368 C369 1.403 1_565 S
C368 H394 0.934 . S
C369 C364 1.435 1_545 S
C369 C368 1.403 1_545 S
C369 H395 0.930 . S
C370 O384 1.275 . S
C370 O385 1.256 . S
C371 O386 1.259 . S
C371 O387 1.268 . S
C372 Ho361 2.811 . S
C372 C373 1.488 . S
C372 O388 1.215 . S
C372 O389 1.289 . S
C373 C372 1.488 . S
C373 C374 1.348 . S
C373 C378 1.413 . S
C374 C373 1.348 . S
C374 C375 1.442 . S
C374 H396 0.930 . S
C375 C374 1.442 . S
C375 C376 1.381 . S
C375 H397 0.931 . S
C376 C375 1.381 . S
C376 C377 1.321 . S
C377 C376 1.321 . S
C377 C378 1.403 . S
C377 H398 0.934 . S
C378 C373 1.413 . S
C378 C377 1.403 . S
C378 H399 0.930 . S
C379 O390 1.275 . S
C379 O391 1.256 . S
O380 Ho360 2.322 . S
O380 C362 1.259 . S
O381 Ho361 2.346 . S
O381 C362 1.268 . S
O382 Ho360 2.378 . S
O382 C363 1.215 . S
O383 Ho360 2.524 1_565 S
O383 C363 1.289 1_565 S
O384 Ho360 2.381 . S
O384 C370 1.275 . S
O385 Ho360 2.669 . S
O385 Ho361 2.305 . S
O385 C370 1.256 . S
O386 Ho361 2.322 . S
O386 C371 1.259 . S
O387 Ho360 2.346 . S
O387 C371 1.268 . S
O388 Ho361 2.378 . S
O388 C372 1.215 . S
O389 Ho361 2.524 . S
O389 C372 1.289 . S
O390 Ho361 2.381 . S
O390 C379 1.275 . S
O391 Ho360 2.305 . S
O391 Ho361 2.669 . S
O391 C379 1.256 . S
H392 C365 0.930 . S
H393 C366 0.941 . S
H394 C368 0.934 . S
H395 C369 0.930 . S
H396 C374 0.930 . S
H397 C375 0.931 . S
H398 C377 0.934 . S
H399 C378 0.930 . S
Ho400 C403 2.811 . S
Ho400 O420 2.322 . S
Ho400 O422 2.378 . S
Ho400 O423 2.524 . S
Ho400 O424 2.381 . S
Ho400 O425 2.669 . S
Ho400 O427 2.346 . S
Ho400 O431 2.305 . S
Ho401 C412 2.811 . S
Ho401 O421 2.346 . S
Ho401 O425 2.305 . S
Ho401 O426 2.322 . S
Ho401 O428 2.378 . S
Ho401 O429 2.524 . S
Ho401 O430 2.381 . S
Ho401 O431 2.669 . S
C402 O420 1.259 . S
C402 O421 1.268 . S
C403 Ho400 2.811 . S
C403 C404 1.488 . S
C403 O422 1.215 . S
C403 O423 1.289 . S
C404 C403 1.488 . S
C404 C405 1.348 . S
C404 C409 1.413 . S
C405 C404 1.348 . S
C405 C406 1.442 . S
C405 H432 0.930 . S
C406 C405 1.442 . S
C406 C407 1.381 . S
C406 H433 0.931 . S
C407 C406 1.381 . S
C407 C408 1.321 . S
C408 C407 1.321 . S
C408 C409 1.403 . S
C408 H434 0.934 . S
C409 C404 1.413 . S
C409 C408 1.403 . S
C409 H435 0.930 . S
C410 O424 1.275 . S
C410 O425 1.256 . S
C411 O426 1.259 . S
C411 O427 1.268 . S
C412 Ho401 2.811 . S
C412 C413 1.488 . S
C412 O428 1.215 . S
C412 O429 1.289 . S
C413 C412 1.488 . S
C413 C414 1.348 . S
C413 C418 1.413 . S
C414 C413 1.348 . S
C414 C415 1.442 . S
C414 H436 0.930 . S
C415 C414 1.442 . S
C415 C416 1.381 . S
C415 H437 0.931 . S
C416 C415 1.381 . S
C416 C417 1.321 . S
C417 C416 1.321 . S
C417 C418 1.403 . S
C417 H438 0.934 . S
C418 C413 1.413 . S
C418 C417 1.403 . S
C418 H439 0.930 . S
C419 O430 1.275 . S
C419 O431 1.256 . S
O420 Ho400 2.322 . S
O420 C402 1.259 . S
O421 Ho401 2.346 . S
O421 C402 1.268 . S
O422 Ho400 2.378 . S
O422 C403 1.215 . S
O423 Ho400 2.524 . S
O423 C403 1.289 . S
O424 Ho400 2.381 . S
O424 C410 1.275 . S
O425 Ho400 2.669 . S
O425 Ho401 2.305 . S
O425 C410 1.256 . S
O426 Ho401 2.322 . S
O426 C411 1.259 . S
O427 Ho400 2.346 . S
O427 C411 1.268 . S
O428 Ho401 2.378 . S
O428 C412 1.215 . S
O429 Ho401 2.524 . S
O429 C412 1.289 . S
O430 Ho401 2.381 . S
O430 C419 1.275 . S
O431 Ho400 2.305 . S
O431 Ho401 2.669 . S
O431 C419 1.256 . S
H432 C405 0.930 . S
H433 C406 0.931 . S
H434 C408 0.934 . S
H435 C409 0.930 . S
H436 C414 0.930 . S
H437 C415 0.931 . S
H438 C417 0.934 . S
H439 C418 0.930 . S
Ho440 C443 2.811 . S
Ho440 O460 2.322 . S
Ho440 O462 2.378 . S
Ho440 O463 2.524 1_565 S
Ho440 O464 2.381 . S
Ho440 O465 2.669 . S
Ho440 O467 2.346 . S
Ho440 O471 2.305 . S
Ho441 C452 2.811 . S
Ho441 O461 2.346 . S
Ho441 O465 2.305 . S
Ho441 O466 2.322 . S
Ho441 O468 2.378 . S
Ho441 O469 2.524 . S
Ho441 O470 2.381 . S
Ho441 O471 2.669 . S
C442 O460 1.259 . S
C442 O461 1.268 . S
C443 Ho440 2.811 . S
C443 C444 1.488 1_565 S
C443 O462 1.215 . S
C443 O463 1.289 1_565 S
C444 C443 1.488 1_545 S
C444 C445 1.348 . S
C444 C449 1.413 1_545 S
C445 C444 1.348 . S
C445 C446 1.442 . S
C445 H472 0.930 . S
C446 C445 1.442 . S
C446 C447 1.381 . S
C446 H473 0.931 . S
C447 C446 1.381 . S
C447 C448 1.321 . S
C448 C447 1.321 . S
C448 C449 1.403 1_545 S
C448 H474 0.934 . S
C449 C444 1.413 1_565 S
C449 C448 1.403 1_565 S
C449 H475 0.930 . S
C450 O464 1.275 . S
C450 O465 1.256 . S
C451 O466 1.259 . S
C451 O467 1.268 . S
C452 Ho441 2.811 . S
C452 C453 1.488 . S
C452 O468 1.215 . S
C452 O469 1.289 . S
C453 C452 1.488 . S
C453 C454 1.348 . S
C453 C458 1.413 . S
C454 C453 1.348 . S
C454 C455 1.442 . S
C454 H476 0.930 . S
C455 C454 1.442 . S
C455 C456 1.381 . S
C455 H477 0.931 . S
C456 C455 1.381 . S
C456 C457 1.321 . S
C457 C456 1.321 . S
C457 C458 1.403 . S
C457 H478 0.934 . S
C458 C453 1.413 . S
C458 C457 1.403 . S
C458 H479 0.930 . S
C459 O470 1.275 . S
C459 O471 1.256 . S
O460 Ho440 2.322 . S
O460 C442 1.259 . S
O461 Ho441 2.346 . S
O461 C442 1.268 . S
O462 Ho440 2.378 . S
O462 C443 1.215 . S
O463 Ho440 2.524 1_545 S
O463 C443 1.289 1_545 S
O464 Ho440 2.381 . S
O464 C450 1.275 . S
O465 Ho440 2.669 . S
O465 Ho441 2.305 . S
O465 C450 1.256 . S
O466 Ho441 2.322 . S
O466 C451 1.259 . S
O467 Ho440 2.346 . S
O467 C451 1.268 . S
O468 Ho441 2.378 . S
O468 C452 1.215 . S
O469 Ho441 2.524 . S
O469 C452 1.289 . S
O470 Ho441 2.381 . S
O470 C459 1.275 . S
O471 Ho440 2.305 . S
O471 Ho441 2.669 . S
O471 C459 1.256 . S
H472 C445 0.930 . S
H473 C446 0.931 . S
H474 C448 0.934 . S
H475 C449 0.930 . S
H476 C454 0.930 . S
H477 C455 0.931 . S
H478 C457 0.934 . S
H479 C458 0.930 . S
Ho480 C483 2.811 . S
Ho480 O500 2.322 . S
Ho480 O502 2.378 . S
Ho480 O503 2.524 . S
Ho480 O504 2.381 . S
Ho480 O505 2.669 . S
Ho480 O507 2.346 . S
Ho480 O511 2.305 . S
Ho481 C492 2.811 . S
Ho481 O501 2.346 . S
Ho481 O505 2.305 . S
Ho481 O506 2.322 . S
Ho481 O508 2.378 . S
Ho481 O509 2.524 . S
Ho481 O510 2.381 . S
Ho481 O511 2.669 . S
C482 O500 1.259 . S
C482 O501 1.268 . S
C483 Ho480 2.811 . S
C483 C484 1.488 . S
C483 O502 1.215 . S
C483 O503 1.289 . S
C484 C483 1.488 . S
C484 C485 1.348 . S
C484 C489 1.413 . S
C485 C484 1.348 . S
C485 C486 1.442 . S
C485 H512 0.930 . S
C486 C485 1.442 . S
C486 C487 1.381 . S
C486 H513 0.931 . S
C487 C486 1.381 . S
C487 C488 1.321 . S
C488 C487 1.321 . S
C488 C489 1.403 . S
C488 H514 0.934 . S
C489 C484 1.413 . S
C489 C488 1.403 . S
C489 H515 0.930 . S
C490 O504 1.275 . S
C490 O505 1.256 . S
C491 O506 1.259 . S
C491 O507 1.268 . S
C492 Ho481 2.811 . S
C492 C493 1.488 . S
C492 O508 1.215 . S
C492 O509 1.289 . S
C493 C492 1.488 . S
C493 C494 1.348 . S
C493 C498 1.413 . S
C494 C493 1.348 . S
C494 C495 1.442 . S
C494 H516 0.930 . S
C495 C494 1.442 . S
C495 C496 1.381 . S
C495 H517 0.931 . S
C496 C495 1.381 . S
C496 C497 1.321 . S
C497 C496 1.321 . S
C497 C498 1.403 . S
C497 H518 0.934 . S
C498 C493 1.413 . S
C498 C497 1.403 . S
C498 H519 0.930 . S
C499 O510 1.275 . S
C499 O511 1.256 . S
O500 Ho480 2.322 . S
O500 C482 1.259 . S
O501 Ho481 2.346 . S
O501 C482 1.268 . S
O502 Ho480 2.378 . S
O502 C483 1.215 . S
O503 Ho480 2.524 . S
O503 C483 1.289 . S
O504 Ho480 2.381 . S
O504 C490 1.275 . S
O505 Ho480 2.669 . S
O505 Ho481 2.305 . S
O505 C490 1.256 . S
O506 Ho481 2.322 . S
O506 C491 1.259 . S
O507 Ho480 2.346 . S
O507 C491 1.268 . S
O508 Ho481 2.378 . S
O508 C492 1.215 . S
O509 Ho481 2.524 . S
O509 C492 1.289 . S
O510 Ho481 2.381 . S
O510 C499 1.275 . S
O511 Ho480 2.305 . S
O511 Ho481 2.669 . S
O511 C499 1.256 . S
H512 C485 0.930 . S
H513 C486 0.931 . S
H514 C488 0.934 . S
H515 C489 0.930 . S
H516 C494 0.930 . S
H517 C495 0.931 . S
H518 C497 0.934 . S
H519 C498 0.930 . S
Ho520 C523 2.811 . S
Ho520 O540 2.322 . S
Ho520 O542 2.378 . S
Ho520 O543 2.524 . S
Ho520 O544 2.381 . S
Ho520 O545 2.669 . S
Ho520 O547 2.346 . S
Ho520 O551 2.305 . S
Ho521 C532 2.811 . S
Ho521 O541 2.346 . S
Ho521 O545 2.305 . S
Ho521 O546 2.322 . S
Ho521 O548 2.378 . S
Ho521 O549 2.524 1_565 S
Ho521 O550 2.381 . S
Ho521 O551 2.669 . S
C522 O540 1.259 . S
C522 O541 1.268 . S
C523 Ho520 2.811 . S
C523 C524 1.488 . S
C523 O542 1.215 . S
C523 O543 1.289 . S
C524 C523 1.488 . S
C524 C525 1.348 . S
C524 C529 1.413 . S
C525 C524 1.348 . S
C525 C526 1.442 . S
C525 H552 0.930 . S
C526 C525 1.442 . S
C526 C527 1.381 . S
C526 H553 0.931 . S
C527 C526 1.381 . S
C527 C528 1.321 . S
C528 C527 1.321 . S
C528 C529 1.403 . S
C528 H554 0.934 . S
C529 C524 1.413 . S
C529 C528 1.403 . S
C529 H555 0.930 . S
C530 O544 1.275 . S
C530 O545 1.256 . S
C531 O546 1.259 . S
C531 O547 1.268 . S
C532 Ho521 2.811 . S
C532 C533 1.475 1_665 S
C532 O548 1.215 . S
C532 O549 1.289 1_565 S
C533 C532 1.475 1_445 S
C533 C534 1.340 1_455 S
C533 C538 1.435 1_545 S
C534 C533 1.340 1_655 S
C534 C535 1.442 1_655 S
C534 H556 0.930 . S
C535 C534 1.442 1_455 S
C535 C536 1.381 . S
C535 H557 0.941 . S
C536 C535 1.381 . S
C536 C537 1.321 . S
C537 C536 1.321 . S
C537 C538 1.403 1_545 S
C537 H558 0.934 . S
C538 C533 1.435 1_565 S
C538 C537 1.403 1_565 S
C538 H559 0.930 . S
C539 O550 1.275 . S
C539 O551 1.256 . S
O540 Ho520 2.322 . S
O540 C522 1.259 . S
O541 Ho521 2.346 . S
O541 C522 1.268 . S
O542 Ho520 2.378 . S
O542 C523 1.215 . S
O543 Ho520 2.524 . S
O543 C523 1.289 . S
O544 Ho520 2.381 . S
O544 C530 1.275 . S
O545 Ho520 2.669 . S
O545 Ho521 2.305 . S
O545 C530 1.256 . S
O546 Ho521 2.322 . S
O546 C531 1.259 . S
O547 Ho520 2.346 . S
O547 C531 1.268 . S
O548 Ho521 2.378 . S
O548 C532 1.215 . S
O549 Ho521 2.524 1_545 S
O549 C532 1.289 1_545 S
O550 Ho521 2.381 . S
O550 C539 1.275 . S
O551 Ho520 2.305 . S
O551 Ho521 2.669 . S
O551 C539 1.256 . S
H552 C525 0.930 . S
H553 C526 0.931 . S
H554 C528 0.934 . S
H555 C529 0.930 . S
H556 C534 0.930 . S
H557 C535 0.941 . S
H558 C537 0.934 . S
H559 C538 0.930 . S
Ho560 C563 2.811 . S
Ho560 O580 2.322 . S
Ho560 O582 2.378 . S
Ho560 O583 2.524 . S
Ho560 O584 2.381 . S
Ho560 O585 2.669 . S
Ho560 O587 2.346 . S
Ho560 O591 2.305 . S
Ho561 C572 2.811 . S
Ho561 O581 2.346 . S
Ho561 O585 2.305 . S
Ho561 O586 2.322 . S
Ho561 O588 2.378 . S
Ho561 O589 2.524 . S
Ho561 O590 2.381 . S
Ho561 O591 2.669 . S
C562 O580 1.259 . S
C562 O581 1.268 . S
C563 Ho560 2.811 . S
C563 C564 1.488 . S
C563 O582 1.215 . S
C563 O583 1.289 . S
C564 C563 1.488 . S
C564 C565 1.348 . S
C564 C569 1.413 . S
C565 C564 1.348 . S
C565 C566 1.442 . S
C565 H592 0.930 . S
C566 C565 1.442 . S
C566 C567 1.381 . S
C566 H593 0.931 . S
C567 C566 1.381 . S
C567 C568 1.321 . S
C568 C567 1.321 . S
C568 C569 1.403 . S
C568 H594 0.934 . S
C569 C564 1.413 . S
C569 C568 1.403 . S
C569 H595 0.930 . S
C570 O584 1.275 . S
C570 O585 1.256 . S
C571 O586 1.259 . S
C571 O587 1.268 . S
C572 Ho561 2.811 . S
C572 C573 1.488 . S
C572 O588 1.215 . S
C572 O589 1.289 . S
C573 C572 1.488 . S
C573 C574 1.348 . S
C573 C578 1.413 . S
C574 C573 1.348 . S
C574 C575 1.442 . S
C574 H596 0.930 . S
C575 C574 1.442 . S
C575 C576 1.381 . S
C575 H597 0.931 . S
C576 C575 1.381 . S
C576 C577 1.321 . S
C577 C576 1.321 . S
C577 C578 1.403 . S
C577 H598 0.934 . S
C578 C573 1.413 . S
C578 C577 1.403 . S
C578 H599 0.930 . S
C579 O590 1.275 . S
C579 O591 1.256 . S
O580 Ho560 2.322 . S
O580 C562 1.259 . S
O581 Ho561 2.346 . S
O581 C562 1.268 . S
O582 Ho560 2.378 . S
O582 C563 1.215 . S
O583 Ho560 2.524 . S
O583 C563 1.289 . S
O584 Ho560 2.381 . S
O584 C570 1.275 . S
O585 Ho560 2.669 . S
O585 Ho561 2.305 . S
O585 C570 1.256 . S
O586 Ho561 2.322 . S
O586 C571 1.259 . S
O587 Ho560 2.346 . S
O587 C571 1.268 . S
O588 Ho561 2.378 . S
O588 C572 1.215 . S
O589 Ho561 2.524 . S
O589 C572 1.289 . S
O590 Ho561 2.381 . S
O590 C579 1.275 . S
O591 Ho560 2.305 . S
O591 Ho561 2.669 . S
O591 C579 1.256 . S
H592 C565 0.930 . S
H593 C566 0.931 . S
H594 C568 0.934 . S
H595 C569 0.930 . S
H596 C574 0.930 . S
H597 C575 0.931 . S
H598 C577 0.934 . S
H599 C578 0.930 . S
Ho600 C603 2.811 . S
Ho600 O620 2.322 . S
Ho600 O622 2.378 . S
Ho600 O623 2.524 . S
Ho600 O624 2.381 . S
Ho600 O625 2.669 . S
Ho600 O627 2.346 . S
Ho600 O631 2.305 . S
Ho601 C612 2.811 . S
Ho601 O621 2.346 . S
Ho601 O625 2.305 . S
Ho601 O626 2.322 . S
Ho601 O628 2.378 . S
Ho601 O629 2.524 1_545 S
Ho601 O630 2.381 . S
Ho601 O631 2.669 . S
C602 O620 1.259 . S
C602 O621 1.268 . S
C603 Ho600 2.811 . S
C603 C604 1.488 . S
C603 O622 1.215 . S
C603 O623 1.289 . S
C604 C603 1.488 . S
C604 C605 1.348 . S
C604 C609 1.413 . S
C605 C604 1.348 . S
C605 C606 1.442 . S
C605 H632 0.930 . S
C606 C605 1.442 . S
C606 C607 1.381 . S
C606 H633 0.931 . S
C607 C606 1.381 . S
C607 C608 1.321 . S
C608 C607 1.321 . S
C608 C609 1.403 . S
C608 H634 0.934 . S
C609 C604 1.413 . S
C609 C608 1.403 . S
C609 H635 0.930 . S
C610 O624 1.275 . S
C610 O625 1.256 . S
C611 O626 1.259 . S
C611 O627 1.268 . S
C612 Ho601 2.811 . S
C612 C613 1.488 1_545 S
C612 O628 1.215 . S
C612 O629 1.289 1_545 S
C613 C612 1.488 1_565 S
C613 C614 1.348 . S
C613 C618 1.413 1_565 S
C614 C613 1.348 . S
C614 C615 1.442 . S
C614 H636 0.930 . S
C615 C614 1.442 . S
C615 C616 1.381 . S
C615 H637 0.931 . S
C616 C615 1.381 . S
C616 C617 1.321 . S
C617 C616 1.321 . S
C617 C618 1.403 1_565 S
C617 H638 0.934 . S
C618 C613 1.413 1_545 S
C618 C617 1.403 1_545 S
C618 H639 0.930 . S
C619 O630 1.275 . S
C619 O631 1.256 . S
O620 Ho600 2.322 . S
O620 C602 1.259 . S
O621 Ho601 2.346 . S
O621 C602 1.268 . S
O622 Ho600 2.378 . S
O622 C603 1.215 . S
O623 Ho600 2.524 . S
O623 C603 1.289 . S
O624 Ho600 2.381 . S
O624 C610 1.275 . S
O625 Ho600 2.669 . S
O625 Ho601 2.305 . S
O625 C610 1.256 . S
O626 Ho601 2.322 . S
O626 C611 1.259 . S
O627 Ho600 2.346 . S
O627 C611 1.268 . S
O628 Ho601 2.378 . S
O628 C612 1.215 . S
O629 Ho601 2.524 1_565 S
O629 C612 1.289 1_565 S
O630 Ho601 2.381 . S
O630 C619 1.275 . S
O631 Ho600 2.305 . S
O631 Ho601 2.669 . S
O631 C619 1.256 . S
H632 C605 0.930 . S
H633 C606 0.931 . S
H634 C608 0.934 . S
H635 C609 0.930 . S
H636 C614 0.930 . S
H637 C615 0.931 . S
H638 C617 0.934 . S
H639 C618 0.930 . S
H640 C646 0.930 . S
H641 C650 0.930 . S
H642 C655 0.929 . S
H643 C653 0.929 . S
H644 C648 0.929 . S
H645 C654 0.929 . S
C646 H640 0.930 . S
C646 C647 1.367 . S
C646 C654 1.378 . S
C647 C646 1.367 . S
C647 C655 1.433 . S
C648 H644 0.929 . S
C648 C650 1.378 . S
C648 C652 1.350 . S
C649 C652 1.463 . S
C649 C654 1.350 . S
C649 N657 1.427 . S
C650 H641 0.930 . S
C650 C648 1.378 . S
C650 C651 1.367 . S
C651 C650 1.367 . S
C651 C653 1.433 . S
C652 C648 1.350 . S
C652 C649 1.463 . S
C652 N656 1.427 . S
C653 H643 0.929 . S
C653 C651 1.433 . S
C653 N656 1.384 . S
C654 H645 0.929 . S
C654 C646 1.378 . S
C654 C649 1.350 . S
C655 H642 0.929 . S
C655 C647 1.433 . S
C655 N657 1.384 . S
N656 C652 1.427 . S
N656 C653 1.384 . S
N657 C649 1.427 . S
N657 C655 1.384 . S
H658 C664 0.930 . S
H659 C668 0.930 . S
H660 C673 0.929 . S
H661 C671 0.929 . S
H662 C666 0.929 . S
H663 C672 0.929 . S
C664 H658 0.930 . S
C664 C665 1.367 . S
C664 C672 1.378 . S
C665 C664 1.367 . S
C665 C673 1.433 . S
C666 H662 0.929 . S
C666 C668 1.378 . S
C666 C670 1.350 . S
C667 C670 1.463 . S
C667 C672 1.350 . S
C667 N675 1.427 . S
C668 H659 0.930 . S
C668 C666 1.378 . S
C668 C669 1.367 . S
C669 C668 1.367 . S
C669 C671 1.433 . S
C670 C666 1.350 . S
C670 C667 1.463 . S
C670 N674 1.427 . S
C671 H661 0.929 . S
C671 C669 1.433 . S
C671 N674 1.384 . S
C672 H663 0.929 . S
C672 C664 1.378 . S
C672 C667 1.350 . S
C673 H660 0.929 . S
C673 C665 1.433 . S
C673 N675 1.384 . S
N674 C670 1.427 . S
N674 C671 1.384 . S
N675 C667 1.427 . S
N675 C673 1.384 . S
H676 C682 0.930 . S
H677 C686 0.930 . S
H678 C691 0.929 . S
H679 C689 0.929 . S
H680 C684 0.929 . S
H681 C690 0.929 . S
C682 H676 0.930 . S
C682 C683 1.367 . S
C682 C690 1.378 . S
C683 C682 1.367 . S
C683 C691 1.433 . S
C684 H680 0.929 . S
C684 C686 1.378 . S
C684 C688 1.350 . S
C685 C688 1.463 1_455 S
C685 C690 1.350 . S
C685 N693 1.427 . S
C686 H677 0.930 . S
C686 C684 1.378 . S
C686 C687 1.367 . S
C687 C686 1.367 . S
C687 C689 1.433 . S
C688 C684 1.350 . S
C688 C685 1.463 1_655 S
C688 N692 1.427 . S
C689 H679 0.929 . S
C689 C687 1.433 . S
C689 N692 1.384 . S
C690 H681 0.929 . S
C690 C682 1.378 . S
C690 C685 1.350 . S
C691 H678 0.929 . S
C691 C683 1.433 . S
C691 N693 1.384 . S
N692 C688 1.427 . S
N692 C689 1.384 . S
N693 C685 1.427 . S
N693 C691 1.384 . S
H694 C700 0.930 1_655 S
H695 C704 0.930 1_455 S
H696 C709 0.929 . S
H697 C707 0.929 . S
H698 C702 0.929 . S
H699 C708 0.929 . S
C700 H694 0.930 1_455 S
C700 C701 1.367 . S
C700 C708 1.378 1_455 S
C701 C700 1.367 . S
C701 C709 1.433 . S
C702 H698 0.929 . S
C702 C704 1.378 1_455 S
C702 C706 1.350 1_455 S
C703 C706 1.463 1_455 S
C703 C708 1.350 1_455 S
C703 N711 1.427 . S
C704 H695 0.930 1_655 S
C704 C702 1.378 1_655 S
C704 C705 1.367 . S
C705 C704 1.367 . S
C705 C707 1.433 . S
C706 C702 1.350 1_655 S
C706 C703 1.463 1_655 S
C706 N710 1.427 . S
C707 H697 0.929 . S
C707 C705 1.433 . S
C707 N710 1.384 . S
C708 H699 0.929 . S
C708 C700 1.378 1_655 S
C708 C703 1.350 1_655 S
C709 H696 0.929 . S
C709 C701 1.433 . S
C709 N711 1.384 . S
N710 C706 1.427 . S
N710 C707 1.384 . S
N711 C703 1.427 . S
N711 C709 1.384 . S
H712 C718 0.930 . S
H713 C722 0.930 . S
H714 C727 0.929 . S
H715 C725 0.929 . S
H716 C720 0.929 . S
H717 C726 0.929 . S
C718 H712 0.930 . S
C718 C719 1.367 . S
C718 C726 1.378 . S
C719 C718 1.367 . S
C719 C727 1.433 . S
C720 H716 0.929 . S
C720 C722 1.378 . S
C720 C724 1.350 . S
C721 C724 1.463 . S
C721 C726 1.350 . S
C721 N729 1.427 . S
C722 H713 0.930 . S
C722 C720 1.378 . S
C722 C723 1.367 . S
C723 C722 1.367 . S
C723 C725 1.433 . S
C724 C720 1.350 . S
C724 C721 1.463 . S
C724 N728 1.427 . S
C725 H715 0.929 . S
C725 C723 1.433 . S
C725 N728 1.384 . S
C726 H717 0.929 . S
C726 C718 1.378 . S
C726 C721 1.350 . S
C727 H714 0.929 . S
C727 C719 1.433 . S
C727 N729 1.384 . S
N728 C724 1.427 . S
N728 C725 1.384 . S
N729 C721 1.427 . S
N729 C727 1.384 . S
H730 C736 0.930 . S
H731 C740 0.930 . S
H732 C745 0.929 . S
H733 C743 0.929 . S
H734 C738 0.929 . S
H735 C744 0.929 . S
C736 H730 0.930 . S
C736 C737 1.367 . S
C736 C744 1.378 . S
C737 C736 1.367 . S
C737 C745 1.433 . S
C738 H734 0.929 . S
C738 C740 1.378 . S
C738 C742 1.350 . S
C739 C742 1.463 . S
C739 C744 1.350 . S
C739 N747 1.427 . S
C740 H731 0.930 . S
C740 C738 1.378 . S
C740 C741 1.367 . S
C741 C740 1.367 . S
C741 C743 1.433 . S
C742 C738 1.350 . S
C742 C739 1.463 . S
C742 N746 1.427 . S
C743 H733 0.929 . S
C743 C741 1.433 . S
C743 N746 1.384 . S
C744 H735 0.929 . S
C744 C736 1.378 . S
C744 C739 1.350 . S
C745 H732 0.929 . S
C745 C737 1.433 . S
C745 N747 1.384 . S
N746 C742 1.427 . S
N746 C743 1.384 . S
N747 C739 1.427 . S
N747 C745 1.384 . S
H748 C754 0.930 . S
H749 C758 0.930 . S
H750 C763 0.929 . S
H751 C761 0.929 . S
H752 C756 0.937 . S
H753 C762 0.937 . S
C754 H748 0.930 . S
C754 C755 1.367 . S
C754 C762 1.378 . S
C755 C754 1.367 . S
C755 C763 1.433 . S
C756 H752 0.937 . S
C756 C758 1.378 . S
C756 C760 1.350 . S
C757 C760 1.463 1_455 S
C757 C762 1.350 . S
C757 N765 1.427 . S
C758 H749 0.930 . S
C758 C756 1.378 . S
C758 C759 1.367 . S
C759 C758 1.367 . S
C759 C761 1.433 . S
C760 C756 1.350 . S
C760 C757 1.463 1_655 S
C760 N764 1.427 . S
C761 H751 0.929 . S
C761 C759 1.433 . S
C761 N764 1.384 . S
C762 H753 0.937 . S
C762 C754 1.378 . S
C762 C757 1.350 . S
C763 H750 0.929 . S
C763 C755 1.433 . S
C763 N765 1.384 . S
N764 C760 1.427 . S
N764 C761 1.384 . S
N765 C757 1.427 . S
N765 C763 1.384 . S
H766 C772 0.930 . S
H767 C776 0.930 . S
H768 C781 0.929 . S
H769 C779 0.929 . S
H770 C774 0.929 . S
H771 C780 0.929 . S
C772 H766 0.930 . S
C772 C773 1.367 . S
C772 C780 1.378 . S
C773 C772 1.367 . S
C773 C781 1.433 . S
C774 H770 0.929 . S
C774 C776 1.378 . S
C774 C778 1.350 . S
C775 C778 1.463 1_455 S
C775 C780 1.350 . S
C775 N783 1.427 1_455 S
C776 H767 0.930 . S
C776 C774 1.378 . S
C776 C777 1.367 . S
C777 C776 1.367 . S
C777 C779 1.433 . S
C778 C774 1.350 . S
C778 C775 1.463 1_655 S
C778 N782 1.427 1_655 S
C779 H769 0.929 . S
C779 C777 1.433 . S
C779 N782 1.384 1_655 S
C780 H771 0.929 . S
C780 C772 1.378 . S
C780 C775 1.350 . S
C781 H768 0.929 . S
C781 C773 1.433 . S
C781 N783 1.384 1_455 S
N782 C778 1.427 1_455 S
N782 C779 1.384 1_455 S
N783 C775 1.427 1_655 S
N783 C781 1.384 1_655 S
H784 C790 0.930 . S
H785 C794 0.930 . S
H786 C799 0.929 . S
H787 C797 0.929 . S
H788 C792 0.929 . S
H789 C798 0.929 . S
C790 H784 0.930 . S
C790 C791 1.367 . S
C790 C798 1.378 . S
C791 C790 1.367 . S
C791 C799 1.433 1_564 S
C792 H788 0.929 . S
C792 C794 1.378 . S
C792 C796 1.350 . S
C793 C796 1.463 1_564 S
C793 C798 1.350 . S
C793 N801 1.427 1_564 S
C794 H785 0.930 . S
C794 C792 1.378 . S
C794 C795 1.367 . S
C795 C794 1.367 . S
C795 C797 1.433 1_546 S
C796 C792 1.350 . S
C796 C793 1.463 1_546 S
C796 N800 1.427 1_546 S
C797 H787 0.929 . S
C797 C795 1.433 1_564 S
C797 N800 1.384 . S
C798 H789 0.929 . S
C798 C790 1.378 . S
C798 C793 1.350 . S
C799 H786 0.929 . S
C799 C791 1.433 1_546 S
C799 N801 1.384 . S
N800 C796 1.427 1_564 S
N800 C797 1.384 . S
N801 C793 1.427 1_546 S
N801 C799 1.384 . S
H802 C808 0.930 . S
H803 C812 0.930 . S
H804 C817 0.929 . S
H805 C815 0.929 . S
H806 C810 0.929 . S
H807 C816 0.929 . S
C808 H802 0.930 . S
C808 C809 1.367 . S
C808 C816 1.378 . S
C809 C808 1.367 . S
C809 C817 1.433 . S
C810 H806 0.929 . S
C810 C812 1.378 . S
C810 C814 1.350 . S
C811 C814 1.463 . S
C811 C816 1.350 . S
C811 N819 1.427 . S
C812 H803 0.930 . S
C812 C810 1.378 . S
C812 C813 1.367 . S
C813 C812 1.367 . S
C813 C815 1.433 . S
C814 C810 1.350 . S
C814 C811 1.463 . S
C814 N818 1.427 . S
C815 H805 0.929 . S
C815 C813 1.433 . S
C815 N818 1.384 . S
C816 H807 0.929 . S
C816 C808 1.378 . S
C816 C811 1.350 . S
C817 H804 0.929 . S
C817 C809 1.433 . S
C817 N819 1.384 . S
N818 C814 1.427 . S
N818 C815 1.384 . S
N819 C811 1.427 . S
N819 C817 1.384 . S
H820 C826 0.930 . S
H821 C830 0.930 . S
H822 C835 0.929 . S
H823 C833 0.929 . S
H824 C828 0.929 . S
H825 C834 0.929 . S
C826 H820 0.930 . S
C826 C827 1.367 1_565 S
C826 C834 1.378 . S
C827 C826 1.367 1_545 S
C827 C835 1.433 . S
C828 H824 0.929 . S
C828 C830 1.378 . S
C828 C832 1.350 1_545 S
C829 C832 1.463 1_445 S
C829 C834 1.350 1_545 S
C829 N837 1.427 . S
C830 H821 0.930 . S
C830 C828 1.378 . S
C830 C831 1.367 1_545 S
C831 C830 1.367 1_565 S
C831 C833 1.433 . S
C832 C828 1.350 1_565 S
C832 C829 1.463 1_665 S
C832 N836 1.427 . S
C833 H823 0.929 . S
C833 C831 1.433 . S
C833 N836 1.384 . S
C834 H825 0.929 . S
C834 C826 1.378 . S
C834 C829 1.350 1_565 S
C835 H822 0.929 . S
C835 C827 1.433 . S
C835 N837 1.384 . S
N836 C832 1.427 . S
N836 C833 1.384 . S
N837 C829 1.427 . S
N837 C835 1.384 . S
H838 C844 0.930 . S
H839 C848 0.930 . S
H840 C853 0.929 . S
H841 C851 0.929 . S
H842 C846 0.929 . S
H843 C852 0.929 . S
C844 H838 0.930 . S
C844 C845 1.367 . S
C844 C852 1.378 . S
C845 C844 1.367 . S
C845 C853 1.433 . S
C846 H842 0.929 . S
C846 C848 1.378 . S
C846 C850 1.350 . S
C847 C850 1.463 . S
C847 C852 1.350 . S
C847 N855 1.427 . S
C848 H839 0.930 . S
C848 C846 1.378 . S
C848 C849 1.367 . S
C849 C848 1.367 . S
C849 C851 1.433 . S
C850 C846 1.350 . S
C850 C847 1.463 . S
C850 N854 1.427 . S
C851 H841 0.929 . S
C851 C849 1.433 . S
C851 N854 1.384 . S
C852 H843 0.929 . S
C852 C844 1.378 . S
C852 C847 1.350 . S
C853 H840 0.929 . S
C853 C845 1.433 . S
C853 N855 1.384 . S
N854 C850 1.427 . S
N854 C851 1.384 . S
N855 C847 1.427 . S
N855 C853 1.384 . S
H856 C862 0.930 . S
H857 C866 0.930 . S
H858 C871 0.929 . S
H859 C869 0.929 . S
H860 C864 0.929 . S
H861 C870 0.929 . S
C862 H856 0.930 . S
C862 C863 1.367 . S
C862 C870 1.378 . S
C863 C862 1.367 . S
C863 C871 1.433 . S
C864 H860 0.929 . S
C864 C866 1.378 . S
C864 C868 1.350 . S
C865 C868 1.463 . S
C865 C870 1.350 . S
C865 N873 1.427 . S
C866 H857 0.930 . S
C866 C864 1.378 . S
C866 C867 1.367 . S
C867 C866 1.367 . S
C867 C869 1.433 . S
C868 C864 1.350 . S
C868 C865 1.463 . S
C868 N872 1.427 . S
C869 H859 0.929 . S
C869 C867 1.433 . S
C869 N872 1.384 . S
C870 H861 0.929 . S
C870 C862 1.378 . S
C870 C865 1.350 . S
C871 H858 0.929 . S
C871 C863 1.433 . S
C871 N873 1.384 . S
N872 C868 1.427 . S
N872 C869 1.384 . S
N873 C865 1.427 . S
N873 C871 1.384 . S
H874 C880 0.930 . S
H875 C884 0.930 . S
H876 C889 0.929 . S
H877 C887 0.929 . S
H878 C882 0.929 . S
H879 C888 0.929 . S
C880 H874 0.930 . S
C880 C881 1.367 . S
C880 C888 1.378 . S
C881 C880 1.367 . S
C881 C889 1.433 . S
C882 H878 0.929 . S
C882 C884 1.378 . S
C882 C886 1.350 . S
C883 C886 1.463 . S
C883 C888 1.350 . S
C883 N891 1.427 . S
C884 H875 0.930 . S
C884 C882 1.378 . S
C884 C885 1.367 . S
C885 C884 1.367 . S
C885 C887 1.433 . S
C886 C882 1.350 . S
C886 C883 1.463 . S
C886 N890 1.427 . S
C887 H877 0.929 . S
C887 C885 1.433 . S
C887 N890 1.384 . S
C888 H879 0.929 . S
C888 C880 1.378 . S
C888 C883 1.350 . S
C889 H876 0.929 . S
C889 C881 1.433 . S
C889 N891 1.384 . S
N890 C886 1.427 . S
N890 C887 1.384 . S
N891 C883 1.427 . S
N891 C889 1.384 . S
H892 C898 0.930 . S
H893 C902 0.930 . S
H894 C907 0.929 . S
H895 C905 0.929 . S
H896 C900 0.929 . S
H897 C906 0.929 . S
C898 H892 0.930 . S
C898 C899 1.367 . S
C898 C906 1.378 . S
C899 C898 1.367 . S
C899 C907 1.433 . S
C900 H896 0.929 . S
C900 C902 1.378 . S
C900 C904 1.350 . S
C901 C904 1.463 1_455 S
C901 C906 1.350 . S
C901 N909 1.427 . S
C902 H893 0.930 . S
C902 C900 1.378 . S
C902 C903 1.367 . S
C903 C902 1.367 . S
C903 C905 1.433 . S
C904 C900 1.350 . S
C904 C901 1.463 1_655 S
C904 N908 1.427 . S
C905 H895 0.929 . S
C905 C903 1.433 . S
C905 N908 1.384 . S
C906 H897 0.929 . S
C906 C898 1.378 . S
C906 C901 1.350 . S
C907 H894 0.929 . S
C907 C899 1.433 . S
C907 N909 1.384 . S
N908 C904 1.427 . S
N908 C905 1.384 . S
N909 C901 1.427 . S
N909 C907 1.384 . S
H910 C916 0.930 . S
H911 C920 0.930 . S
H912 C925 0.929 . S
H913 C923 0.929 . S
H914 C918 0.929 . S
H915 C924 0.929 . S
C916 H910 0.930 . S
C916 C917 1.367 1_556 S
C916 C924 1.378 . S
C917 C916 1.367 1_554 S
C917 C925 1.433 . S
C918 H914 0.929 . S
C918 C920 1.378 . S
C918 C922 1.350 1_554 S
C919 C922 1.463 1_554 S
C919 C924 1.350 1_554 S
C919 N927 1.427 . S
C920 H911 0.930 . S
C920 C918 1.378 . S
C920 C921 1.367 1_554 S
C921 C920 1.367 1_556 S
C921 C923 1.433 . S
C922 C918 1.350 1_556 S
C922 C919 1.463 1_556 S
C922 N926 1.427 . S
C923 H913 0.929 . S
C923 C921 1.433 . S
C923 N926 1.384 . S
C924 H915 0.929 . S
C924 C916 1.378 . S
C924 C919 1.350 1_556 S
C925 H912 0.929 . S
C925 C917 1.433 . S
C925 N927 1.384 . S
N926 C922 1.427 . S
N926 C923 1.384 . S
N927 C919 1.427 . S
N927 C925 1.384 . S
H928 C934 0.930 . S
H929 C938 0.930 . S
H930 C943 0.929 . S
H931 C941 0.929 . S
H932 C936 0.929 . S
H933 C942 0.929 . S
C934 H928 0.930 . S
C934 C935 1.367 . S
C934 C942 1.378 . S
C935 C934 1.367 . S
C935 C943 1.433 . S
C936 H932 0.929 . S
C936 C938 1.378 . S
C936 C940 1.350 . S
C937 C940 1.463 . S
C937 C942 1.350 . S
C937 N945 1.427 . S
C938 H929 0.930 . S
C938 C936 1.378 . S
C938 C939 1.367 . S
C939 C938 1.367 . S
C939 C941 1.433 . S
C940 C936 1.350 . S
C940 C937 1.463 . S
C940 N944 1.427 . S
C941 H931 0.929 . S
C941 C939 1.433 . S
C941 N944 1.384 . S
C942 H933 0.929 . S
C942 C934 1.378 . S
C942 C937 1.350 . S
C943 H930 0.929 . S
C943 C935 1.433 . S
C943 N945 1.384 . S
N944 C940 1.427 . S
N944 C941 1.384 . S
N945 C937 1.427 . S
N945 C943 1.384 . S
H946 C952 0.930 . S
H947 C956 0.930 . S
H948 C961 0.929 . S
H949 C959 0.929 . S
H950 C954 0.929 . S
H951 C960 0.929 . S
C952 H946 0.930 . S
C952 C953 1.367 . S
C952 C960 1.378 . S
C953 C952 1.367 . S
C953 C961 1.433 . S
C954 H950 0.929 . S
C954 C956 1.378 . S
C954 C958 1.350 . S
C955 C958 1.463 . S
C955 C960 1.350 . S
C955 N963 1.427 . S
C956 H947 0.930 . S
C956 C954 1.378 . S
C956 C957 1.367 . S
C957 C956 1.367 . S
C957 C959 1.433 . S
C958 C954 1.350 . S
C958 C955 1.463 . S
C958 N962 1.427 . S
C959 H949 0.929 . S
C959 C957 1.433 . S
C959 N962 1.384 . S
C960 H951 0.929 . S
C960 C952 1.378 . S
C960 C955 1.350 . S
C961 H948 0.929 . S
C961 C953 1.433 . S
C961 N963 1.384 . S
N962 C958 1.427 . S
N962 C959 1.384 . S
N963 C955 1.427 . S
N963 C961 1.384 . S
H964 C970 0.930 . S
H965 C974 0.930 . S
H966 C979 0.929 . S
H967 C977 0.929 . S
H968 C972 0.929 . S
H969 C978 0.929 . S
C970 H964 0.930 . S
C970 C971 1.367 . S
C970 C978 1.378 . S
C971 C970 1.367 . S
C971 C979 1.433 . S
C972 H968 0.929 . S
C972 C974 1.378 . S
C972 C976 1.350 . S
C973 C976 1.463 . S
C973 C978 1.350 . S
C973 N981 1.427 . S
C974 H965 0.930 . S
C974 C972 1.378 . S
C974 C975 1.367 . S
C975 C974 1.367 . S
C975 C977 1.433 . S
C976 C972 1.350 . S
C976 C973 1.463 . S
C976 N980 1.427 . S
C977 H967 0.929 . S
C977 C975 1.433 . S
C977 N980 1.384 . S
C978 H969 0.929 . S
C978 C970 1.378 . S
C978 C973 1.350 . S
C979 H966 0.929 . S
C979 C971 1.433 . S
C979 N981 1.384 . S
N980 C976 1.427 . S
N980 C977 1.384 . S
N981 C973 1.427 . S
N981 C979 1.384 . S
H982 C988 0.930 . S
H983 C992 0.930 . S
H984 C997 0.929 . S
H985 C995 0.929 . S
H986 C990 0.929 . S
H987 C996 0.929 . S
C988 H982 0.930 . S
C988 C989 1.367 . S
C988 C996 1.378 . S
C989 C988 1.367 . S
C989 C997 1.433 . S
C990 H986 0.929 . S
C990 C992 1.378 . S
C990 C994 1.350 . S
C991 C994 1.463 . S
C991 C996 1.350 . S
C991 N999 1.427 . S
C992 H983 0.930 . S
C992 C990 1.378 . S
C992 C993 1.367 . S
C993 C992 1.367 . S
C993 C995 1.433 . S
C994 C990 1.350 . S
C994 C991 1.463 . S
C994 N998 1.427 . S
C995 H985 0.929 . S
C995 C993 1.433 . S
C995 N998 1.384 . S
C996 H987 0.929 . S
C996 C988 1.378 . S
C996 C991 1.350 . S
C997 H984 0.929 . S
C997 C989 1.433 . S
C997 N999 1.384 . S
N998 C994 1.427 . S
N998 C995 1.384 . S
N999 C991 1.427 . S
N999 C997 1.384 . S
H1000 C1006 0.930 . S
H1001 C1010 0.930 . S
H1002 C1015 0.929 . S
H1003 C1013 0.929 . S
H1004 C1008 0.929 . S
H1005 C1014 0.929 . S
C1006 H1000 0.930 . S
C1006 C1007 1.367 . S
C1006 C1014 1.378 . S
C1007 C1006 1.367 . S
C1007 C1015 1.433 . S
C1008 H1004 0.929 . S
C1008 C1010 1.378 . S
C1008 C1012 1.350 . S
C1009 C1012 1.463 . S
C1009 C1014 1.350 . S
C1009 N1017 1.427 . S
C1010 H1001 0.930 . S
C1010 C1008 1.378 . S
C1010 C1011 1.367 . S
C1011 C1010 1.367 . S
C1011 C1013 1.433 . S
C1012 C1008 1.350 . S
C1012 C1009 1.463 . S
C1012 N1016 1.427 . S
C1013 H1003 0.929 . S
C1013 C1011 1.433 . S
C1013 N1016 1.384 . S
C1014 H1005 0.929 . S
C1014 C1006 1.378 . S
C1014 C1009 1.350 . S
C1015 H1002 0.929 . S
C1015 C1007 1.433 . S
C1015 N1017 1.384 . S
N1016 C1012 1.427 . S
N1016 C1013 1.384 . S
N1017 C1009 1.427 . S
N1017 C1015 1.384 . S
H1018 C1024 0.930 . S
H1019 C1028 0.930 . S
H1020 C1033 0.929 . S
H1021 C1031 0.929 . S
H1022 C1026 0.929 . S
H1023 C1032 0.929 . S
C1024 H1018 0.930 . S
C1024 C1025 1.367 . S
C1024 C1032 1.378 . S
C1025 C1024 1.367 . S
C1025 C1033 1.433 . S
C1026 H1022 0.929 . S
C1026 C1028 1.378 . S
C1026 C1030 1.350 . S
C1027 C1030 1.463 . S
C1027 C1032 1.350 . S
C1027 N1035 1.427 . S
C1028 H1019 0.930 . S
C1028 C1026 1.378 . S
C1028 C1029 1.367 . S
C1029 C1028 1.367 . S
C1029 C1031 1.433 . S
C1030 C1026 1.350 . S
C1030 C1027 1.463 . S
C1030 N1034 1.427 . S
C1031 H1021 0.929 . S
C1031 C1029 1.433 . S
C1031 N1034 1.384 . S
C1032 H1023 0.929 . S
C1032 C1024 1.378 . S
C1032 C1027 1.350 . S
C1033 H1020 0.929 . S
C1033 C1025 1.433 . S
C1033 N1035 1.384 . S
N1034 C1030 1.427 . S
N1034 C1031 1.384 . S
N1035 C1027 1.427 . S
N1035 C1033 1.384 . S
H1036 C1042 0.930 . S
H1037 C1046 0.930 . S
H1038 C1051 0.929 . S
H1039 C1049 0.929 . S
H1040 C1044 0.929 . S
H1041 C1050 0.929 . S
C1042 H1036 0.930 . S
C1042 C1043 1.367 . S
C1042 C1050 1.378 . S
C1043 C1042 1.367 . S
C1043 C1051 1.433 . S
C1044 H1040 0.929 . S
C1044 C1046 1.378 . S
C1044 C1048 1.350 . S
C1045 C1048 1.463 . S
C1045 C1050 1.350 . S
C1045 N1053 1.427 . S
C1046 H1037 0.930 . S
C1046 C1044 1.378 . S
C1046 C1047 1.367 . S
C1047 C1046 1.367 . S
C1047 C1049 1.433 . S
C1048 C1044 1.350 . S
C1048 C1045 1.463 . S
C1048 N1052 1.427 . S
C1049 H1039 0.929 . S
C1049 C1047 1.433 . S
C1049 N1052 1.384 . S
C1050 H1041 0.929 . S
C1050 C1042 1.378 . S
C1050 C1045 1.350 . S
C1051 H1038 0.929 . S
C1051 C1043 1.433 . S
C1051 N1053 1.384 . S
N1052 C1048 1.427 . S
N1052 C1049 1.384 . S
N1053 C1045 1.427 . S
N1053 C1051 1.384 . S
H1054 C1060 0.930 . S
H1055 C1064 0.930 . S
H1056 C1069 0.929 . S
H1057 C1067 0.929 . S
H1058 C1062 0.929 . S
H1059 C1068 0.929 . S
C1060 H1054 0.930 . S
C1060 C1061 1.367 . S
C1060 C1068 1.378 . S
C1061 C1060 1.367 . S
C1061 C1069 1.433 . S
C1062 H1058 0.929 . S
C1062 C1064 1.378 . S
C1062 C1066 1.350 . S
C1063 C1066 1.463 . S
C1063 C1068 1.350 . S
C1063 N1071 1.427 . S
C1064 H1055 0.930 . S
C1064 C1062 1.378 . S
C1064 C1065 1.367 . S
C1065 C1064 1.367 . S
C1065 C1067 1.433 . S
C1066 C1062 1.350 . S
C1066 C1063 1.463 . S
C1066 N1070 1.427 . S
C1067 H1057 0.929 . S
C1067 C1065 1.433 . S
C1067 N1070 1.384 . S
C1068 H1059 0.929 . S
C1068 C1060 1.378 . S
C1068 C1063 1.350 . S
C1069 H1056 0.929 . S
C1069 C1061 1.433 . S
C1069 N1071 1.384 . S
N1070 C1066 1.427 . S
N1070 C1067 1.384 . S
N1071 C1063 1.427 . S
N1071 C1069 1.384 . S
H1072 C1078 0.930 . S
H1073 C1082 0.930 . S
H1074 C1087 0.929 . S
H1075 C1085 0.929 . S
H1076 C1080 0.929 . S
H1077 C1086 0.929 . S
C1078 H1072 0.930 . S
C1078 C1079 1.367 . S
C1078 C1086 1.378 . S
C1079 C1078 1.367 . S
C1079 C1087 1.433 . S
C1080 H1076 0.929 . S
C1080 C1082 1.378 . S
C1080 C1084 1.350 . S
C1081 C1084 1.463 . S
C1081 C1086 1.350 . S
C1081 N1089 1.427 . S
C1082 H1073 0.930 . S
C1082 C1080 1.378 . S
C1082 C1083 1.367 . S
C1083 C1082 1.367 . S
C1083 C1085 1.433 . S
C1084 C1080 1.350 . S
C1084 C1081 1.463 . S
C1084 N1088 1.427 . S
C1085 H1075 0.929 . S
C1085 C1083 1.433 . S
C1085 N1088 1.384 . S
C1086 H1077 0.929 . S
C1086 C1078 1.378 . S
C1086 C1081 1.350 . S
C1087 H1074 0.929 . S
C1087 C1079 1.433 . S
C1087 N1089 1.384 . S
N1088 C1084 1.427 . S
N1088 C1085 1.384 . S
N1089 C1081 1.427 . S
N1089 C1087 1.384 . S
H1090 C1096 0.930 . S
H1091 C1100 0.930 . S
H1092 C1105 0.929 . S
H1093 C1103 0.929 . S
H1094 C1098 0.929 . S
H1095 C1104 0.929 . S
C1096 H1090 0.930 . S
C1096 C1097 1.367 . S
C1096 C1104 1.378 . S
C1097 C1096 1.367 . S
C1097 C1105 1.433 . S
C1098 H1094 0.929 . S
C1098 C1100 1.378 . S
C1098 C1102 1.350 . S
C1099 C1102 1.463 . S
C1099 C1104 1.350 . S
C1099 N1107 1.427 . S
C1100 H1091 0.930 . S
C1100 C1098 1.378 . S
C1100 C1101 1.367 . S
C1101 C1100 1.367 . S
C1101 C1103 1.433 . S
C1102 C1098 1.350 . S
C1102 C1099 1.463 . S
C1102 N1106 1.427 . S
C1103 H1093 0.929 . S
C1103 C1101 1.433 . S
C1103 N1106 1.384 . S
C1104 H1095 0.929 . S
C1104 C1096 1.378 . S
C1104 C1099 1.350 . S
C1105 H1092 0.929 . S
C1105 C1097 1.433 . S
C1105 N1107 1.384 . S
N1106 C1102 1.427 . S
N1106 C1103 1.384 . S
N1107 C1099 1.427 . S
N1107 C1105 1.384 . S
H1108 C1114 0.930 . S
H1109 C1118 0.930 . S
H1110 C1123 0.929 . S
H1111 C1121 0.929 . S
H1112 C1116 0.929 . S
H1113 C1122 0.929 . S
C1114 H1108 0.930 . S
C1114 C1115 1.367 . S
C1114 C1122 1.378 . S
C1115 C1114 1.367 . S
C1115 C1123 1.433 . S
C1116 H1112 0.929 . S
C1116 C1118 1.378 . S
C1116 C1120 1.350 . S
C1117 C1120 1.463 . S
C1117 C1122 1.350 . S
C1117 N1125 1.427 . S
C1118 H1109 0.930 . S
C1118 C1116 1.378 . S
C1118 C1119 1.367 . S
C1119 C1118 1.367 . S
C1119 C1121 1.433 . S
C1120 C1116 1.350 . S
C1120 C1117 1.463 . S
C1120 N1124 1.427 . S
C1121 H1111 0.929 . S
C1121 C1119 1.433 . S
C1121 N1124 1.384 . S
C1122 H1113 0.929 . S
C1122 C1114 1.378 . S
C1122 C1117 1.350 . S
C1123 H1110 0.929 . S
C1123 C1115 1.433 . S
C1123 N1125 1.384 . S
N1124 C1120 1.427 . S
N1124 C1121 1.384 . S
N1125 C1117 1.427 . S
N1125 C1123 1.384 . S
H1126 C1132 0.930 . S
H1127 C1136 0.930 . S
H1128 C1141 0.929 . S
H1129 C1139 0.929 . S
H1130 C1134 0.929 . S
H1131 C1140 0.929 . S
C1132 H1126 0.930 . S
C1132 C1133 1.367 . S
C1132 C1140 1.378 . S
C1133 C1132 1.367 . S
C1133 C1141 1.433 . S
C1134 H1130 0.929 . S
C1134 C1136 1.378 . S
C1134 C1138 1.350 . S
C1135 C1138 1.463 . S
C1135 C1140 1.350 . S
C1135 N1143 1.427 . S
C1136 H1127 0.930 . S
C1136 C1134 1.378 . S
C1136 C1137 1.367 . S
C1137 C1136 1.367 . S
C1137 C1139 1.433 . S
C1138 C1134 1.350 . S
C1138 C1135 1.463 . S
C1138 N1142 1.427 . S
C1139 H1129 0.929 . S
C1139 C1137 1.433 . S
C1139 N1142 1.384 . S
C1140 H1131 0.929 . S
C1140 C1132 1.378 . S
C1140 C1135 1.350 . S
C1141 H1128 0.929 . S
C1141 C1133 1.433 . S
C1141 N1143 1.384 . S
N1142 C1138 1.427 . S
N1142 C1139 1.384 . S
N1143 C1135 1.427 . S
N1143 C1141 1.384 . S
H1144 C1150 0.930 . S
H1145 C1154 0.930 . S
H1146 C1159 0.929 . S
H1147 C1157 0.929 . S
H1148 C1152 0.929 . S
H1149 C1158 0.929 . S
C1150 H1144 0.930 . S
C1150 C1151 1.367 . S
C1150 C1158 1.378 . S
C1151 C1150 1.367 . S
C1151 C1159 1.433 . S
C1152 H1148 0.929 . S
C1152 C1154 1.378 . S
C1152 C1156 1.350 . S
C1153 C1156 1.463 . S
C1153 C1158 1.350 . S
C1153 N1161 1.427 . S
C1154 H1145 0.930 . S
C1154 C1152 1.378 . S
C1154 C1155 1.367 . S
C1155 C1154 1.367 . S
C1155 C1157 1.433 . S
C1156 C1152 1.350 . S
C1156 C1153 1.463 . S
C1156 N1160 1.427 . S
C1157 H1147 0.929 . S
C1157 C1155 1.433 . S
C1157 N1160 1.384 . S
C1158 H1149 0.929 . S
C1158 C1150 1.378 . S
C1158 C1153 1.350 . S
C1159 H1146 0.929 . S
C1159 C1151 1.433 . S
C1159 N1161 1.384 . S
N1160 C1156 1.427 . S
N1160 C1157 1.384 . S
N1161 C1153 1.427 . S
N1161 C1159 1.384 . S
H1162 C1168 0.930 . S
H1163 C1172 0.930 . S
H1164 C1177 0.929 . S
H1165 C1175 0.929 . S
H1166 C1170 0.929 . S
H1167 C1176 0.929 . S
C1168 H1162 0.930 . S
C1168 C1169 1.367 . S
C1168 C1176 1.378 . S
C1169 C1168 1.367 . S
C1169 C1177 1.433 . S
C1170 H1166 0.929 . S
C1170 C1172 1.378 . S
C1170 C1174 1.350 . S
C1171 C1174 1.463 . S
C1171 C1176 1.350 . S
C1171 N1179 1.427 . S
C1172 H1163 0.930 . S
C1172 C1170 1.378 . S
C1172 C1173 1.367 . S
C1173 C1172 1.367 . S
C1173 C1175 1.433 . S
C1174 C1170 1.350 . S
C1174 C1171 1.463 . S
C1174 N1178 1.427 . S
C1175 H1165 0.929 . S
C1175 C1173 1.433 . S
C1175 N1178 1.384 . S
C1176 H1167 0.929 . S
C1176 C1168 1.378 . S
C1176 C1171 1.350 . S
C1177 H1164 0.929 . S
C1177 C1169 1.433 . S
C1177 N1179 1.384 . S
N1178 C1174 1.427 . S
N1178 C1175 1.384 . S
N1179 C1171 1.427 . S
N1179 C1177 1.384 . S
H1180 C1186 0.930 . S
H1181 C1190 0.930 . S
H1182 C1195 0.929 . S
H1183 C1193 0.929 . S
H1184 C1188 0.929 . S
H1185 C1194 0.929 . S
C1186 H1180 0.930 . S
C1186 C1187 1.367 . S
C1186 C1194 1.378 . S
C1187 C1186 1.367 . S
C1187 C1195 1.433 . S
C1188 H1184 0.929 . S
C1188 C1190 1.378 . S
C1188 C1192 1.350 . S
C1189 C1192 1.463 . S
C1189 C1194 1.350 . S
C1189 N1197 1.427 . S
C1190 H1181 0.930 . S
C1190 C1188 1.378 . S
C1190 C1191 1.367 . S
C1191 C1190 1.367 . S
C1191 C1193 1.433 . S
C1192 C1188 1.350 . S
C1192 C1189 1.463 . S
C1192 N1196 1.427 . S
C1193 H1183 0.929 . S
C1193 C1191 1.433 . S
C1193 N1196 1.384 . S
C1194 H1185 0.929 . S
C1194 C1186 1.378 . S
C1194 C1189 1.350 . S
C1195 H1182 0.929 . S
C1195 C1187 1.433 . S
C1195 N1197 1.384 . S
N1196 C1192 1.427 . S
N1196 C1193 1.384 . S
N1197 C1189 1.427 . S
N1197 C1195 1.384 . S
H1198 C1204 0.930 . S
H1199 C1208 0.930 . S
H1200 C1213 0.929 . S
H1201 C1211 0.929 . S
H1202 C1206 0.929 . S
H1203 C1212 0.929 . S
C1204 H1198 0.930 . S
C1204 C1205 1.367 . S
C1204 C1212 1.378 . S
C1205 C1204 1.367 . S
C1205 C1213 1.433 . S
C1206 H1202 0.929 . S
C1206 C1208 1.378 . S
C1206 C1210 1.350 . S
C1207 C1210 1.463 . S
C1207 C1212 1.350 . S
C1207 N1215 1.427 . S
C1208 H1199 0.930 . S
C1208 C1206 1.378 . S
C1208 C1209 1.367 . S
C1209 C1208 1.367 . S
C1209 C1211 1.433 . S
C1210 C1206 1.350 . S
C1210 C1207 1.463 . S
C1210 N1214 1.427 . S
C1211 H1201 0.929 . S
C1211 C1209 1.433 . S
C1211 N1214 1.384 . S
C1212 H1203 0.929 . S
C1212 C1204 1.378 . S
C1212 C1207 1.350 . S
C1213 H1200 0.929 . S
C1213 C1205 1.433 . S
C1213 N1215 1.384 . S
N1214 C1210 1.427 . S
N1214 C1211 1.384 . S
N1215 C1207 1.427 . S
N1215 C1213 1.384 . S
H1216 C1222 0.930 . S
H1217 C1226 0.930 . S
H1218 C1231 0.929 . S
H1219 C1229 0.929 . S
H1220 C1224 0.929 . S
H1221 C1230 0.929 . S
C1222 H1216 0.930 . S
C1222 C1223 1.367 . S
C1222 C1230 1.378 1_554 S
C1223 C1222 1.367 . S
C1223 C1231 1.433 1_554 S
C1224 H1220 0.929 . S
C1224 C1226 1.378 . S
C1224 C1228 1.350 . S
C1225 C1228 1.463 . S
C1225 C1230 1.350 . S
C1225 N1233 1.427 . S
C1226 H1217 0.930 . S
C1226 C1224 1.378 . S
C1226 C1227 1.367 . S
C1227 C1226 1.367 . S
C1227 C1229 1.433 . S
C1228 C1224 1.350 . S
C1228 C1225 1.463 . S
C1228 N1232 1.427 . S
C1229 H1219 0.929 . S
C1229 C1227 1.433 . S
C1229 N1232 1.384 . S
C1230 H1221 0.929 . S
C1230 C1222 1.378 1_556 S
C1230 C1225 1.350 . S
C1231 H1218 0.929 . S
C1231 C1223 1.433 1_556 S
C1231 N1233 1.384 . S
N1232 C1228 1.427 . S
N1232 C1229 1.384 . S
N1233 C1225 1.427 . S
N1233 C1231 1.384 . S
H1234 C1240 0.930 . S
H1235 C1244 0.930 . S
H1236 C1249 0.929 . S
H1237 C1247 0.929 . S
H1238 C1242 0.929 . S
H1239 C1248 0.929 . S
C1240 H1234 0.930 . S
C1240 C1241 1.367 . S
C1240 C1248 1.378 . S
C1241 C1240 1.367 . S
C1241 C1249 1.433 . S
C1242 H1238 0.929 . S
C1242 C1244 1.378 . S
C1242 C1246 1.350 . S
C1243 C1246 1.463 . S
C1243 C1248 1.350 . S
C1243 N1251 1.427 . S
C1244 H1235 0.930 . S
C1244 C1242 1.378 . S
C1244 C1245 1.367 . S
C1245 C1244 1.367 . S
C1245 C1247 1.433 . S
C1246 C1242 1.350 . S
C1246 C1243 1.463 . S
C1246 N1250 1.427 . S
C1247 H1237 0.929 . S
C1247 C1245 1.433 . S
C1247 N1250 1.384 . S
C1248 H1239 0.929 . S
C1248 C1240 1.378 . S
C1248 C1243 1.350 . S
C1249 H1236 0.929 . S
C1249 C1241 1.433 . S
C1249 N1251 1.384 . S
N1250 C1246 1.427 . S
N1250 C1247 1.384 . S
N1251 C1243 1.427 . S
N1251 C1249 1.384 . S
H1252 C1258 0.930 . S
H1253 C1262 0.930 . S
H1254 C1267 0.929 . S
H1255 C1265 0.929 . S
H1256 C1260 0.929 . S
H1257 C1266 0.929 . S
C1258 H1252 0.930 . S
C1258 C1259 1.367 . S
C1258 C1266 1.378 . S
C1259 C1258 1.367 . S
C1259 C1267 1.433 . S
C1260 H1256 0.929 . S
C1260 C1262 1.378 . S
C1260 C1264 1.350 . S
C1261 C1264 1.463 . S
C1261 C1266 1.350 . S
C1261 N1269 1.427 . S
C1262 H1253 0.930 . S
C1262 C1260 1.378 . S
C1262 C1263 1.367 . S
C1263 C1262 1.367 . S
C1263 C1265 1.433 . S
C1264 C1260 1.350 . S
C1264 C1261 1.463 . S
C1264 N1268 1.427 . S
C1265 H1255 0.929 . S
C1265 C1263 1.433 . S
C1265 N1268 1.384 . S
C1266 H1257 0.929 . S
C1266 C1258 1.378 . S
C1266 C1261 1.350 . S
C1267 H1254 0.929 . S
C1267 C1259 1.433 . S
C1267 N1269 1.384 . S
N1268 C1264 1.427 . S
N1268 C1265 1.384 . S
N1269 C1261 1.427 . S
N1269 C1267 1.384 . S
H1270 C1276 0.930 . S
H1271 C1280 0.930 . S
H1272 C1285 0.929 . S
H1273 C1283 0.929 . S
H1274 C1278 0.929 . S
H1275 C1284 0.929 . S
C1276 H1270 0.930 . S
C1276 C1277 1.367 . S
C1276 C1284 1.378 . S
C1277 C1276 1.367 . S
C1277 C1285 1.433 . S
C1278 H1274 0.929 . S
C1278 C1280 1.378 . S
C1278 C1282 1.350 . S
C1279 C1282 1.463 . S
C1279 C1284 1.350 . S
C1279 N1287 1.427 . S
C1280 H1271 0.930 . S
C1280 C1278 1.378 . S
C1280 C1281 1.367 . S
C1281 C1280 1.367 . S
C1281 C1283 1.433 . S
C1282 C1278 1.350 . S
C1282 C1279 1.463 . S
C1282 N1286 1.427 . S
C1283 H1273 0.929 . S
C1283 C1281 1.433 . S
C1283 N1286 1.384 . S
C1284 H1275 0.929 . S
C1284 C1276 1.378 . S
C1284 C1279 1.350 . S
C1285 H1272 0.929 . S
C1285 C1277 1.433 . S
C1285 N1287 1.384 . S
N1286 C1282 1.427 . S
N1286 C1283 1.384 . S
N1287 C1279 1.427 . S
N1287 C1285 1.384 . S
H1288 C1294 0.930 . S
H1289 C1298 0.930 . S
H1290 C1303 0.929 . S
H1291 C1301 0.929 . S
H1292 C1296 0.929 . S
H1293 C1302 0.929 . S
C1294 H1288 0.930 . S
C1294 C1295 1.367 . S
C1294 C1302 1.378 . S
C1295 C1294 1.367 . S
C1295 C1303 1.433 . S
C1296 H1292 0.929 . S
C1296 C1298 1.378 . S
C1296 C1300 1.350 . S
C1297 C1300 1.463 . S
C1297 C1302 1.350 . S
C1297 N1305 1.427 . S
C1298 H1289 0.930 . S
C1298 C1296 1.378 . S
C1298 C1299 1.367 1_554 S
C1299 C1298 1.367 1_556 S
C1299 C1301 1.433 . S
C1300 C1296 1.350 . S
C1300 C1297 1.463 . S
C1300 N1304 1.427 . S
C1301 H1291 0.929 . S
C1301 C1299 1.433 . S
C1301 N1304 1.384 1_556 S
C1302 H1293 0.929 . S
C1302 C1294 1.378 . S
C1302 C1297 1.350 . S
C1303 H1290 0.929 . S
C1303 C1295 1.433 . S
C1303 N1305 1.384 . S
N1304 C1300 1.427 . S
N1304 C1301 1.384 1_554 S
N1305 C1297 1.427 . S
N1305 C1303 1.384 . S
H1306 C1312 0.930 . S
H1307 C1316 0.930 . S
H1308 C1321 0.929 . S
H1309 C1319 0.929 . S
H1310 C1314 0.929 . S
H1311 C1320 0.929 . S
C1312 H1306 0.930 . S
C1312 C1313 1.367 . S
C1312 C1320 1.378 . S
C1313 C1312 1.367 . S
C1313 C1321 1.433 . S
C1314 H1310 0.929 . S
C1314 C1316 1.378 . S
C1314 C1318 1.350 . S
C1315 C1318 1.463 . S
C1315 C1320 1.350 . S
C1315 N1323 1.427 . S
C1316 H1307 0.930 . S
C1316 C1314 1.378 . S
C1316 C1317 1.367 . S
C1317 C1316 1.367 . S
C1317 C1319 1.433 . S
C1318 C1314 1.350 . S
C1318 C1315 1.463 . S
C1318 N1322 1.427 . S
C1319 H1309 0.929 . S
C1319 C1317 1.433 . S
C1319 N1322 1.384 . S
C1320 H1311 0.929 . S
C1320 C1312 1.378 . S
C1320 C1315 1.350 . S
C1321 H1308 0.929 . S
C1321 C1313 1.433 . S
C1321 N1323 1.384 . S
N1322 C1318 1.427 . S
N1322 C1319 1.384 . S
N1323 C1315 1.427 . S
N1323 C1321 1.384 . S
H1324 C1330 0.930 . S
H1325 C1334 0.930 . S
H1326 C1339 0.929 . S
H1327 C1337 0.929 . S
H1328 C1332 0.929 . S
H1329 C1338 0.929 . S
C1330 H1324 0.930 . S
C1330 C1331 1.367 . S
C1330 C1338 1.378 . S
C1331 C1330 1.367 . S
C1331 C1339 1.433 . S
C1332 H1328 0.929 . S
C1332 C1334 1.378 . S
C1332 C1336 1.350 . S
C1333 C1336 1.463 . S
C1333 C1338 1.350 . S
C1333 N1341 1.427 . S
C1334 H1325 0.930 . S
C1334 C1332 1.378 . S
C1334 C1335 1.367 . S
C1335 C1334 1.367 . S
C1335 C1337 1.433 . S
C1336 C1332 1.350 . S
C1336 C1333 1.463 . S
C1336 N1340 1.427 . S
C1337 H1327 0.929 . S
C1337 C1335 1.433 . S
C1337 N1340 1.384 . S
C1338 H1329 0.929 . S
C1338 C1330 1.378 . S
C1338 C1333 1.350 . S
C1339 H1326 0.929 . S
C1339 C1331 1.433 . S
C1339 N1341 1.384 . S
N1340 C1336 1.427 . S
N1340 C1337 1.384 . S
N1341 C1333 1.427 . S
N1341 C1339 1.384 . S
H1342 C1348 0.930 . S
H1343 C1352 0.930 . S
H1344 C1357 0.929 . S
H1345 C1355 0.929 . S
H1346 C1350 0.929 . S
H1347 C1356 0.929 . S
C1348 H1342 0.930 . S
C1348 C1349 1.367 . S
C1348 C1356 1.378 . S
C1349 C1348 1.367 . S
C1349 C1357 1.433 . S
C1350 H1346 0.929 . S
C1350 C1352 1.378 . S
C1350 C1354 1.350 . S
C1351 C1354 1.463 . S
C1351 C1356 1.350 . S
C1351 N1359 1.427 . S
C1352 H1343 0.930 . S
C1352 C1350 1.378 . S
C1352 C1353 1.367 . S
C1353 C1352 1.367 . S
C1353 C1355 1.433 . S
C1354 C1350 1.350 . S
C1354 C1351 1.463 . S
C1354 N1358 1.427 . S
C1355 H1345 0.929 . S
C1355 C1353 1.433 . S
C1355 N1358 1.384 . S
C1356 H1347 0.929 . S
C1356 C1348 1.378 . S
C1356 C1351 1.350 . S
C1357 H1344 0.929 . S
C1357 C1349 1.433 . S
C1357 N1359 1.384 . S
N1358 C1354 1.427 . S
N1358 C1355 1.384 . S
N1359 C1351 1.427 . S
N1359 C1357 1.384 . S
H1360 C1366 0.930 . S
H1361 C1370 0.930 . S
H1362 C1375 0.929 . S
H1363 C1373 0.929 . S
H1364 C1368 0.929 . S
H1365 C1374 0.929 . S
C1366 H1360 0.930 . S
C1366 C1367 1.367 . S
C1366 C1374 1.378 . S
C1367 C1366 1.367 . S
C1367 C1375 1.433 . S
C1368 H1364 0.929 . S
C1368 C1370 1.378 . S
C1368 C1372 1.350 . S
C1369 C1372 1.463 . S
C1369 C1374 1.350 . S
C1369 N1377 1.427 . S
C1370 H1361 0.930 . S
C1370 C1368 1.378 . S
C1370 C1371 1.367 . S
C1371 C1370 1.367 . S
C1371 C1373 1.433 . S
C1372 C1368 1.350 . S
C1372 C1369 1.463 . S
C1372 N1376 1.427 . S
C1373 H1363 0.929 . S
C1373 C1371 1.433 . S
C1373 N1376 1.384 . S
C1374 H1365 0.929 . S
C1374 C1366 1.378 . S
C1374 C1369 1.350 . S
C1375 H1362 0.929 . S
C1375 C1367 1.433 . S
C1375 N1377 1.384 . S
N1376 C1372 1.427 . S
N1376 C1373 1.384 . S
N1377 C1369 1.427 . S
N1377 C1375 1.384 . S
H1378 C1384 0.930 . S
H1379 C1388 0.930 . S
H1380 C1393 0.929 . S
H1381 C1391 0.929 . S
H1382 C1386 0.929 1_545 S
H1383 C1392 0.929 . S
C1384 H1378 0.930 . S
C1384 C1385 1.367 . S
C1384 C1392 1.378 . S
C1385 C1384 1.367 . S
C1385 C1393 1.433 . S
C1386 H1382 0.929 1_565 S
C1386 C1388 1.378 1_565 S
C1386 C1390 1.350 . S
C1387 C1390 1.463 . S
C1387 C1392 1.350 . S
C1387 N1395 1.427 . S
C1388 H1379 0.930 . S
C1388 C1386 1.378 1_545 S
C1388 C1389 1.374 . S
C1389 C1388 1.374 . S
C1389 C1391 1.415 1_545 S
C1390 C1386 1.350 . S
C1390 C1387 1.463 . S
C1390 N1394 1.427 . S
C1391 H1381 0.929 . S
C1391 C1389 1.415 1_565 S
C1391 N1394 1.384 . S
C1392 H1383 0.929 . S
C1392 C1384 1.378 . S
C1392 C1387 1.350 . S
C1393 H1380 0.929 . S
C1393 C1385 1.433 . S
C1393 N1395 1.384 . S
N1394 C1390 1.427 . S
N1394 C1391 1.384 . S
N1395 C1387 1.427 . S
N1395 C1393 1.384 . S
H1396 C1402 0.930 . S
H1397 C1406 0.930 . S
H1398 C1411 0.929 . S
H1399 C1409 0.929 . S
H1400 C1404 0.929 . S
H1401 C1410 0.929 . S
C1402 H1396 0.930 . S
C1402 C1403 1.367 . S
C1402 C1410 1.378 . S
C1403 C1402 1.367 . S
C1403 C1411 1.433 . S
C1404 H1400 0.929 . S
C1404 C1406 1.378 . S
C1404 C1408 1.350 . S
C1405 C1408 1.463 . S
C1405 C1410 1.350 . S
C1405 N1413 1.427 . S
C1406 H1397 0.930 . S
C1406 C1404 1.378 . S
C1406 C1407 1.367 1_556 S
C1407 C1406 1.367 1_554 S
C1407 C1409 1.433 . S
C1408 C1404 1.350 . S
C1408 C1405 1.463 . S
C1408 N1412 1.427 . S
C1409 H1399 0.929 . S
C1409 C1407 1.433 . S
C1409 N1412 1.384 1_554 S
C1410 H1401 0.929 . S
C1410 C1402 1.378 . S
C1410 C1405 1.350 . S
C1411 H1398 0.929 . S
C1411 C1403 1.433 . S
C1411 N1413 1.384 . S
N1412 C1408 1.427 . S
N1412 C1409 1.384 1_556 S
N1413 C1405 1.427 . S
N1413 C1411 1.384 . S
H1414 C1420 0.930 . S
H1415 C1424 0.930 . S
H1416 C1429 0.929 . S
H1417 C1427 0.929 . S
H1418 C1422 0.929 . S
H1419 C1428 0.929 . S
C1420 H1414 0.930 . S
C1420 C1421 1.372 . S
C1420 C1428 1.378 1_565 S
C1421 C1420 1.372 . S
C1421 C1429 1.418 1_565 S
C1422 H1418 0.929 . S
C1422 C1424 1.378 . S
C1422 C1426 1.350 . S
C1423 C1426 1.463 . S
C1423 C1428 1.350 . S
C1423 N1431 1.427 . S
C1424 H1415 0.930 . S
C1424 C1422 1.378 . S
C1424 C1425 1.367 . S
C1425 C1424 1.367 . S
C1425 C1427 1.433 . S
C1426 C1422 1.350 . S
C1426 C1423 1.463 . S
C1426 N1430 1.427 . S
C1427 H1417 0.929 . S
C1427 C1425 1.433 . S
C1427 N1430 1.384 . S
C1428 H1419 0.929 . S
C1428 C1420 1.378 1_545 S
C1428 C1423 1.350 . S
C1429 H1416 0.929 . S
C1429 C1421 1.418 1_545 S
C1429 N1431 1.384 . S
N1430 C1426 1.427 . S
N1430 C1427 1.384 . S
N1431 C1423 1.427 . S
N1431 C1429 1.384 . S
H1432 C1438 0.930 . S
H1433 C1442 0.930 . S
H1434 C1447 0.929 . S
H1435 C1445 0.929 . S
H1436 C1440 0.929 . S
H1437 C1446 0.929 . S
C1438 H1432 0.930 . S
C1438 C1439 1.367 . S
C1438 C1446 1.378 . S
C1439 C1438 1.367 . S
C1439 C1447 1.433 . S
C1440 H1436 0.929 . S
C1440 C1442 1.378 . S
C1440 C1444 1.350 . S
C1441 C1444 1.463 . S
C1441 C1446 1.350 . S
C1441 N1449 1.427 . S
C1442 H1433 0.930 . S
C1442 C1440 1.378 . S
C1442 C1443 1.367 . S
C1443 C1442 1.367 . S
C1443 C1445 1.433 . S
C1444 C1440 1.350 . S
C1444 C1441 1.463 . S
C1444 N1448 1.427 . S
C1445 H1435 0.929 . S
C1445 C1443 1.433 . S
C1445 N1448 1.384 . S
C1446 H1437 0.929 . S
C1446 C1438 1.378 . S
C1446 C1441 1.350 . S
C1447 H1434 0.929 . S
C1447 C1439 1.433 . S
C1447 N1449 1.384 . S
N1448 C1444 1.427 . S
N1448 C1445 1.384 . S
N1449 C1441 1.427 . S
N1449 C1447 1.384 . S
H1450 C1456 0.930 . S
H1451 C1460 0.930 . S
H1452 C1465 0.929 . S
H1453 C1463 0.929 . S
H1454 C1458 0.929 1_565 S
H1455 C1464 0.929 . S
C1456 H1450 0.930 . S
C1456 C1457 1.367 . S
C1456 C1464 1.378 . S
C1457 C1456 1.367 . S
C1457 C1465 1.433 . S
C1458 H1454 0.929 1_545 S
C1458 C1460 1.378 1_545 S
C1458 C1462 1.350 . S
C1459 C1462 1.463 . S
C1459 C1464 1.350 . S
C1459 N1467 1.427 . S
C1460 H1451 0.930 . S
C1460 C1458 1.378 1_565 S
C1460 C1461 1.377 . S
C1461 C1460 1.377 . S
C1461 C1463 1.411 1_565 S
C1462 C1458 1.350 . S
C1462 C1459 1.463 . S
C1462 N1466 1.427 . S
C1463 H1453 0.929 . S
C1463 C1461 1.411 1_545 S
C1463 N1466 1.384 . S
C1464 H1455 0.929 . S
C1464 C1456 1.378 . S
C1464 C1459 1.350 . S
C1465 H1452 0.929 . S
C1465 C1457 1.433 . S
C1465 N1467 1.384 . S
N1466 C1462 1.427 . S
N1466 C1463 1.384 . S
N1467 C1459 1.427 . S
N1467 C1465 1.384 . S
H1468 C1474 0.930 . S
H1469 C1478 0.930 . S
H1470 C1483 0.929 . S
H1471 C1481 0.929 . S
H1472 C1476 0.929 . S
H1473 C1482 0.929 . S
C1474 H1468 0.930 . S
C1474 C1475 1.367 . S
C1474 C1482 1.378 . S
C1475 C1474 1.367 . S
C1475 C1483 1.433 . S
C1476 H1472 0.929 . S
C1476 C1478 1.378 1_554 S
C1476 C1480 1.350 . S
C1477 C1480 1.463 . S
C1477 C1482 1.350 . S
C1477 N1485 1.427 . S
C1478 H1469 0.930 . S
C1478 C1476 1.378 1_556 S
C1478 C1479 1.367 . S
C1479 C1478 1.367 . S
C1479 C1481 1.433 1_556 S
C1480 C1476 1.350 . S
C1480 C1477 1.463 . S
C1480 N1484 1.427 . S
C1481 H1471 0.929 . S
C1481 C1479 1.433 1_554 S
C1481 N1484 1.384 . S
C1482 H1473 0.929 . S
C1482 C1474 1.378 . S
C1482 C1477 1.350 . S
C1483 H1470 0.929 . S
C1483 C1475 1.433 . S
C1483 N1485 1.384 . S
N1484 C1480 1.427 . S
N1484 C1481 1.384 . S
N1485 C1477 1.427 . S
N1485 C1483 1.384 . S
H1486 C1492 0.930 . S
H1487 C1496 0.930 . S
H1488 C1501 0.929 . S
H1489 C1499 0.929 . S
H1490 C1494 0.929 . S
H1491 C1500 0.929 . S
C1492 H1486 0.930 . S
C1492 C1493 1.367 . S
C1492 C1500 1.378 . S
C1493 C1492 1.367 . S
C1493 C1501 1.433 . S
C1494 H1490 0.929 . S
C1494 C1496 1.378 1_565 S
C1494 C1498 1.350 . S
C1495 C1498 1.463 . S
C1495 C1500 1.350 . S
C1495 N1503 1.427 . S
C1496 H1487 0.930 . S
C1496 C1494 1.378 1_545 S
C1496 C1497 1.368 . S
C1497 C1496 1.368 . S
C1497 C1499 1.425 1_545 S
C1498 C1494 1.350 . S
C1498 C1495 1.463 . S
C1498 N1502 1.427 . S
C1499 H1489 0.929 . S
C1499 C1497 1.425 1_565 S
C1499 N1502 1.384 . S
C1500 H1491 0.929 . S
C1500 C1492 1.378 . S
C1500 C1495 1.350 . S
C1501 H1488 0.929 . S
C1501 C1493 1.433 . S
C1501 N1503 1.384 . S
N1502 C1498 1.427 . S
N1502 C1499 1.384 . S
N1503 C1495 1.427 . S
N1503 C1501 1.384 . S
C647 C10 2.655 . S
C651 C410 2.654 . S
C665 C50 2.657 . S
C669 C450 2.659 . S
C683 C90 2.657 . S
C687 C330 2.660 . S
C701 C370 2.654 . S
C705 C130 2.654 . S
C719 C179 2.659 . S
C723 C579 2.656 . S
C737 C619 2.654 . S
C741 C219 2.657 . S
C755 C499 2.660 . S
C759 C259 2.659 . S
C773 C299 2.660 . S
C777 C539 2.658 . S
C791 C16 0.985 . S
C795 C167 0.985 . S
C809 C56 0.971 . S
C813 C527 0.971 . S
C827 C96 0.967 . S
C831 C247 0.967 . S
C845 C136 0.962 . S
C849 C607 0.962 . S
C863 C207 0.959 . S
C867 C376 0.959 . S
C881 C456 0.954 . S
C885 C287 0.954 . S
C899 C487 0.956 . S
C903 C336 0.956 . S
C917 C416 0.987 . S
C921 C567 0.987 . S
C935 C7 1.100 . S
C939 C290 1.195 . S
C953 C47 1.069 . S
C957 C490 1.180 . S
C971 C87 1.077 . S
C975 C210 1.180 . S
C989 C127 1.073 . S
C993 C570 1.186 . S
C1007 C139 1.186 . S
C1011 C176 1.094 . S
C1025 C216 1.101 . S
C1029 C339 1.193 . S
C1043 C256 1.078 . S
C1047 C59 1.190 . S
C1061 C419 1.194 . S
C1065 C296 1.101 . S
C1079 C327 1.072 . S
C1083 C610 1.186 1_565 S
C1097 C170 1.195 . S
C1101 C367 1.097 . S
C1115 C530 1.186 1_545 S
C1119 C407 1.073 . S
C1133 C250 1.181 . S
C1137 C447 1.069 . S
C1151 C496 1.069 . S
C1155 C459 1.181 1_545 S
C1169 C536 1.069 . S
C1173 C19 1.180 . S
C1187 C379 1.179 1_565 S
C1191 C576 1.075 . S
C1205 C616 1.072 . S
C1209 C99 1.179 . S
C1223 C11 4.059 . S
C1227 C362 4.091 . S
C1241 C402 4.097 . S
C1245 C51 4.065 . S
C1259 C91 4.058 . S
C1263 C442 4.090 . S
C1277 C322 4.091 . S
C1281 C131 4.059 . S
C1295 C531 4.096 . S
C1299 C162 4.063 . S
C1313 C571 4.096 . S
C1317 C202 4.063 . S
C1331 C611 4.096 . S
C1335 C242 4.064 . S
C1349 C491 4.094 . S
C1353 C282 4.061 . S
C1367 C42 4.092 . S
C1371 C331 4.059 . S
C1385 C82 4.097 . S
C1389 C371 4.074 . S
C1403 C122 4.097 . S
C1407 C411 4.064 . S
C1421 C451 4.071 . S
C1425 C2 4.094 . S
C1439 C211 4.093 . S
C1443 C482 4.060 . S
C1457 C251 4.096 . S
C1461 C522 4.074 . S
C1475 C291 4.090 . S
C1479 C562 4.057 . S
C1493 C171 4.093 . S
C1497 C602 4.067 . S
