# Generated by pormake.
# Topology umw, (4)-cn, num edge types: 1
# Building blocks:
#     Node 0, Type 0, BuildingBlock: CEKHIL_clean_sbu_0, # of connection points: 4
#     Node 1, Type 0, BuildingBlock: CEKHIL_clean_sbu_0, # of connection points: 4
#     Node 2, Type 0, BuildingBlock: CEKHIL_clean_sbu_0, # of connection points: 4
#     Node 3, Type 0, BuildingBlock: CEKHIL_clean_sbu_0, # of connection points: 4
#     Node 4, Type 0, BuildingBlock: CEKHIL_clean_sbu_0, # of connection points: 4
#     Node 5, Type 0, BuildingBlock: CEKHIL_clean_sbu_0, # of connection points: 4
#     Node 6, Type 0, BuildingBlock: CEKHIL_clean_sbu_0, # of connection points: 4
#     Node 7, Type 0, BuildingBlock: CEKHIL_clean_sbu_0, # of connection points: 4
#     Edge 8, Type (0, 0), BuildingBlock: EZIPEK_clean_linker_0, # of connection points: 2
#     Edge 9, Type (0, 0), BuildingBlock: EZIPEK_clean_linker_0, # of connection points: 2
#     Edge 10, Type (0, 0), BuildingBlock: EZIPEK_clean_linker_0, # of connection points: 2
#     Edge 11, Type (0, 0), BuildingBlock: EZIPEK_clean_linker_0, # of connection points: 2
#     Edge 12, Type (0, 0), BuildingBlock: EZIPEK_clean_linker_0, # of connection points: 2
#     Edge 13, Type (0, 0), BuildingBlock: EZIPEK_clean_linker_0, # of connection points: 2
#     Edge 14, Type (0, 0), BuildingBlock: EZIPEK_clean_linker_0, # of connection points: 2
#     Edge 15, Type (0, 0), BuildingBlock: EZIPEK_clean_linker_0, # of connection points: 2
#     Edge 16, Type (0, 0), BuildingBlock: EZIPEK_clean_linker_0, # of connection points: 2
#     Edge 17, Type (0, 0), BuildingBlock: EZIPEK_clean_linker_0, # of connection points: 2
#     Edge 18, Type (0, 0), BuildingBlock: EZIPEK_clean_linker_0, # of connection points: 2
#     Edge 19, Type (0, 0), BuildingBlock: EZIPEK_clean_linker_0, # of connection points: 2
#     Edge 20, Type (0, 0), BuildingBlock: EZIPEK_clean_linker_0, # of connection points: 2
#     Edge 21, Type (0, 0), BuildingBlock: EZIPEK_clean_linker_0, # of connection points: 2
#     Edge 22, Type (0, 0), BuildingBlock: EZIPEK_clean_linker_0, # of connection points: 2
#     Edge 23, Type (0, 0), BuildingBlock: EZIPEK_clean_linker_0, # of connection points: 2
# Relax obj value: 0.130
# Max RMSD: 0.104
# Mean RMSD: 0.104
data_MOF--net-umw--node1-CEKHIL_clean_sbu_0--edge1-EZIPEK_clean_linker_0
_symmetry_space_group_name_H-M    P1
_symmetry_Int_Tables_number       1
_symmetry_cell_setting            triclinic
loop_
_symmetry_equiv_pos_as_xyz
'x, y, z'
_cell_length_a     29.24358
_cell_length_b     29.469078
_cell_length_c     18.751429
_cell_angle_alpha  89.782397
_cell_angle_beta   89.923059
_cell_angle_gamma 89.959424
loop_
_atom_site_label
_atom_site_type_symbol
_atom_site_fract_x
_atom_site_fract_y
_atom_site_fract_z
_atom_type_partial_charge
Co0 Co 0.43744 0.21374 0.29612 0.0
O1 O 0.42459 0.27609 0.32284 0.0
O2 O 0.37801 0.21842 0.34247 0.0
C3 C 0.46634 0.22845 0.18612 0.0
O4 O 0.43795 0.14473 0.27873 0.0
Co5 Co 0.53789 0.18192 0.26351 0.0
O6 O 0.51018 0.12054 0.26077 0.0
C7 C 0.50903 0.20347 0.40889 0.0
C8 C 0.38685 0.26129 0.35128 0.0
C9 C 0.46774 0.11271 0.27062 0.0
O10 O 0.46688 0.20385 0.39036 0.0
O11 O 0.5427 0.20008 0.36574 0.0
O12 O 0.42215 0.22614 0.19521 0.0
O13 O 0.49022 0.2254 0.24313 0.0
Co14 Co 0.82564 0.43314 0.54687 0.0
O15 O 0.76132 0.42319 0.57082 0.0
O16 O 0.8167 0.37383 0.59062 0.0
C17 C 0.81534 0.4652 0.43693 0.0
O18 O 0.89521 0.42908 0.53419 0.0
Co19 Co 0.86524 0.53098 0.52172 0.0
O20 O 0.92514 0.49961 0.53048 0.0
C21 C 0.83521 0.50159 0.66248 0.0
C22 C 0.7739 0.3845 0.59819 0.0
C23 C 0.92944 0.45666 0.53518 0.0
O24 O 0.83532 0.46016 0.64238 0.0
O25 O 0.8406 0.53558 0.62087 0.0
O26 O 0.81452 0.42113 0.44415 0.0
O27 O 0.8189 0.48736 0.49528 0.0
Co28 Co 0.60783 0.82132 0.77696 0.0
O29 O 0.61767 0.75724 0.79889 0.0
O30 O 0.66517 0.81255 0.82715 0.0
C31 C 0.58153 0.81274 0.66362 0.0
O32 O 0.61186 0.89056 0.76838 0.0
Co33 Co 0.51165 0.86196 0.739 0.0
O34 O 0.54294 0.92163 0.74579 0.0
C35 C 0.53225 0.82941 0.88313 0.0
C36 C 0.65479 0.76983 0.83162 0.0
C37 C 0.58532 0.92515 0.76045 0.0
O38 O 0.57517 0.82835 0.86928 0.0
O39 O 0.50109 0.83589 0.8364 0.0
O40 O 0.6255 0.81268 0.67564 0.0
O41 O 0.55616 0.81517 0.71909 0.0
Co42 Co 0.20914 0.60653 0.03654 0.0
O43 O 0.27268 0.62046 0.05948 0.0
O44 O 0.21342 0.66243 0.09079 0.0
C45 C 0.22201 0.58476 0.922 0.0
O46 O 0.13928 0.60524 0.02706 0.0
Co47 Co 0.17539 0.51007 0.98749 0.0
O48 O 0.11323 0.53676 -0.00735 0.0
C49 C 0.2072 0.52702 0.13347 0.0
C50 C 0.25723 0.65562 0.09371 0.0
C51 C 0.10651 0.57731 0.01345 0.0
O52 O 0.20419 0.57018 0.12544 0.0
O53 O 0.20363 0.49822 0.08291 0.0
O54 O 0.218 0.62784 0.937 0.0
O55 O 0.21969 0.55794 0.97557 0.0
Co56 Co 0.43168 0.81971 0.30685 0.0
O57 O 0.41337 0.75691 0.29184 0.0
O58 O 0.36982 0.81645 0.26931 0.0
C59 C 0.46603 0.81026 0.41459 0.0
O60 O 0.43724 0.88939 0.31078 0.0
Co61 Co 0.53431 0.8488 0.32215 0.0
O62 O 0.50973 0.91117 0.33238 0.0
C63 C 0.49584 0.82542 0.18164 0.0
C64 C 0.37562 0.77281 0.26484 0.0
C65 C 0.46791 0.92038 0.31986 0.0
O66 O 0.4557 0.82126 0.20793 0.0
O67 O 0.53189 0.8329 0.21836 0.0
O68 O 0.42174 0.81527 0.41102 0.0
O69 O 0.48684 0.80808 0.3545 0.0
Co70 Co 0.22328 0.43607 0.56317 0.0
O71 O 0.28766 0.42361 0.54528 0.0
O72 O 0.23255 0.37274 0.53816 0.0
C73 C 0.23443 0.48131 0.6612 0.0
O74 O 0.15317 0.43464 0.57447 0.0
Co75 Co 0.18244 0.53353 0.55823 0.0
O76 O 0.12354 0.50498 0.58278 0.0
C77 C 0.21102 0.48722 0.42688 0.0
C78 C 0.27525 0.38291 0.52698 0.0
C79 C 0.11899 0.46209 0.58134 0.0
O80 O 0.21578 0.44976 0.46038 0.0
O81 O 0.20213 0.52512 0.4569 0.0
O82 O 0.23287 0.43716 0.66734 0.0
O83 O 0.23054 0.49562 0.59685 0.0
Co84 Co 0.6101 0.21326 0.82311 0.0
O85 O 0.61957 0.27727 0.80067 0.0
O86 O 0.66929 0.22269 0.77834 0.0
C87 C 0.57917 0.22229 0.93386 0.0
O88 O 0.61442 0.14406 0.83379 0.0
Co89 Co 0.51214 0.17307 0.85095 0.0
O90 O 0.54371 0.11375 0.84082 0.0
C91 C 0.54026 0.2018 0.70819 0.0
C92 C 0.6582 0.26518 0.77179 0.0
C93 C 0.58688 0.10986 0.8338 0.0
O94 O 0.58204 0.20479 0.72781 0.0
O95 O 0.50658 0.19487 0.75033 0.0
O96 O 0.6235 0.22309 0.92566 0.0
O97 O 0.55609 0.21927 0.87608 0.0
Co98 Co 0.8145 0.60277 0.07034 0.0
O99 O 0.75093 0.61537 0.04563 0.0
O100 O 0.80911 0.66056 0.02088 0.0
C101 C 0.80258 0.57605 0.18274 0.0
O102 O 0.8842 0.60329 0.08258 0.0
Co103 Co 0.84933 0.50459 0.10788 0.0
O104 O 0.911 0.53283 0.10433 0.0
C105 C 0.82502 0.5294 0.96153 0.0
C106 C 0.76575 0.65209 0.01449 0.0
C107 C 0.9173 0.57469 0.09006 0.0
O108 O 0.82283 0.57147 0.97787 0.0
O109 O 0.82984 0.49699 0.0064 0.0
O110 O 0.80436 0.61975 0.17125 0.0
O111 O 0.8046 0.55131 0.12687 0.0
C112 C 0.53369 0.24316 0.51844 0.0
C113 C 0.51884 0.20286 0.48483 0.0
C114 C 0.5197 0.1615 0.59754 0.0
C115 C 0.53133 0.20263 0.63196 0.0
N116 N 0.54572 0.28319 0.62961 0.0
N117 N 0.49589 0.12426 0.48899 0.0
C118 C 0.53761 0.24367 0.59363 0.0
C119 C 0.51124 0.16216 0.52345 0.0
N120 N 0.54428 0.28057 0.47824 0.0
N121 N 0.51887 0.1216 0.63523 0.0
H122 H 0.49347 0.12219 0.43363 0.0
H123 H 0.48377 0.09539 0.51494 0.0
H124 H 0.5242 0.1197 0.6901 0.0
H125 H 0.51605 0.08974 0.61194 0.0
H126 H 0.55991 0.30948 0.49847 0.0
H127 H 0.54006 0.28179 0.42304 0.0
H128 H 0.54643 0.31509 0.60569 0.0
H129 H 0.54872 0.28466 0.68498 0.0
C130 C 0.78845 0.51262 0.77117 0.0
C131 C 0.83203 0.50991 0.73854 0.0
C132 C 0.86991 0.51196 0.85378 0.0
C133 C 0.82662 0.51875 0.88602 0.0
N134 N 0.74525 0.53116 0.87741 0.0
N135 N 0.91428 0.51442 0.74494 0.0
C136 C 0.78593 0.5207 0.84533 0.0
C137 C 0.87286 0.51167 0.77871 0.0
N138 N 0.74973 0.50654 0.73149 0.0
N139 N 0.908 0.50549 0.8949 0.0
H140 H 0.91773 0.5142 0.68956 0.0
H141 H 0.94494 0.52069 0.77127 0.0
H142 H 0.90755 0.50679 0.95044 0.0
H143 H 0.93954 0.49553 0.87438 0.0
H144 H 0.71727 0.50296 0.75366 0.0
H145 H 0.75037 0.50201 0.67634 0.0
H146 H 0.71546 0.53845 0.84926 0.0
H147 H 0.74187 0.53527 0.93241 0.0
C148 C 0.52556 0.78752 0.07273 0.0
C149 C 0.50039 0.82339 0.10413 0.0
C150 C 0.49528 0.86275 0.99004 0.0
C151 C 0.51854 0.82594 0.95784 0.0
N152 N 0.54712 0.74921 0.96367 0.0
N153 N 0.45139 0.88927 0.09042 0.0
C154 C 0.5312 0.78702 -0.00222 0.0
C155 C 0.48174 0.85893 0.06202 0.0
N156 N 0.54414 0.75415 0.11451 0.0
N157 N 0.48885 0.90258 0.95358 0.0
H158 H 0.4415 0.88932 0.14376 0.0
H159 H 0.43298 0.91234 0.0595 0.0
H160 H 0.49914 0.90762 0.90091 0.0
H161 H 0.47733 0.93227 0.9777 0.0
H162 H 0.5677 0.7305 0.09578 0.0
H163 H 0.53779 0.75145 0.16912 0.0
H164 H 0.55309 0.71834 0.98918 0.0
H165 H 0.55062 0.74744 0.90838 0.0
C166 C 0.18499 0.46535 0.30595 0.0
C167 C 0.21745 0.48733 0.34967 0.0
C168 C 0.25172 0.52333 0.24544 0.0
C169 C 0.21313 0.5096 0.20555 0.0
N170 N 0.13971 0.47181 0.19923 0.0
N171 N 0.28434 0.53447 0.36262 0.0
C172 C 0.17911 0.48115 0.2356 0.0
C173 C 0.25195 0.51528 0.31975 0.0
N174 N 0.15977 0.42969 0.33107 0.0
N175 N 0.28822 0.54312 0.21194 0.0
H176 H 0.28774 0.52607 0.41648 0.0
H177 H 0.30668 0.55978 0.34553 0.0
H178 H 0.28924 0.54853 0.15694 0.0
H179 H 0.31894 0.55054 0.23731 0.0
H180 H 0.13853 0.41034 0.29858 0.0
H181 H 0.16375 0.41605 0.38192 0.0
H182 H 0.11169 0.45577 0.2227 0.0
H183 H 0.13297 0.48375 0.14793 0.0
C184 C 0.34184 0.33364 0.36835 0.0
C185 C 0.35726 0.29155 0.39625 0.0
C186 C 0.31748 0.30835 0.5096 0.0
C187 C 0.30583 0.3523 0.48396 0.0
N188 N 0.31407 0.40945 0.39143 0.0
N189 N 0.36722 0.24277 0.49892 0.0
C190 C 0.32038 0.3658 0.41429 0.0
C191 C 0.34688 0.27979 0.46828 0.0
N192 N 0.34561 0.3421 0.29681 0.0
N193 N 0.30074 0.29384 0.57381 0.0
H194 H 0.38984 0.22165 0.47179 0.0
H195 H 0.36515 0.23533 0.55316 0.0
H196 H 0.28194 0.31468 0.60783 0.0
H197 H 0.30314 0.26034 0.59137 0.0
H198 H 0.33026 0.36971 0.27157 0.0
H199 H 0.36 0.31905 0.26115 0.0
H200 H 0.32871 0.42241 0.34497 0.0
H201 H 0.2977 0.43419 0.42131 0.0
C202 C 0.71506 0.3219 0.60889 0.0
C203 C 0.74217 0.35561 0.6421 0.0
C204 C 0.70971 0.3338 0.75924 0.0
C205 C 0.68617 0.29716 0.72698 0.0
N206 N 0.66867 0.25402 0.62114 0.0
N207 N 0.76957 0.39041 0.75016 0.0
C208 C 0.68952 0.29058 0.65176 0.0
C209 C 0.74047 0.36078 0.71762 0.0
N210 N 0.71303 0.32043 0.53607 0.0
N211 N 0.7027 0.34291 0.82987 0.0
H212 H 0.79202 0.41102 0.72193 0.0
H213 H 0.77406 0.3923 0.80512 0.0
H214 H 0.68255 0.32258 0.86294 0.0
H215 H 0.71418 0.37229 0.85475 0.0
H216 H 0.69016 0.3003 0.50788 0.0
H217 H 0.732 0.34212 0.50337 0.0
H218 H 0.67413 0.244 0.56866 0.0
H219 H 0.64771 0.23174 0.64927 0.0
C220 C 0.70419 0.71161 -0.00137 0.0
C221 C 0.73569 0.68077 0.96775 0.0
C222 C 0.70967 0.7041 0.84761 0.0
C223 C 0.68166 0.73815 0.87838 0.0
N224 N 0.65574 0.77778 0.98354 0.0
N225 N 0.77209 0.65058 0.86246 0.0
C226 C 0.67989 0.74282 0.95403 0.0
C227 C 0.73938 0.67781 0.89208 0.0
N228 N 0.69711 0.71077 0.07072 0.0
N229 N 0.70774 0.6967 0.77573 0.0
H230 H 0.79353 0.62991 0.89258 0.0
H231 H 0.78028 0.65066 0.80844 0.0
H232 H 0.68803 0.71649 0.74126 0.0
H233 H 0.723 0.66907 0.75072 0.0
H234 H 0.67083 0.72835 0.09598 0.0
H235 H 0.71546 0.68967 0.10513 0.0
H236 H 0.65723 0.78634 0.03728 0.0
H237 H 0.63636 0.80046 0.95358 0.0
C238 C 0.28879 0.6804 0.21317 0.0
C239 C 0.28769 0.68535 0.13762 0.0
C240 C 0.34032 0.75034 0.14642 0.0
C241 C 0.3441 0.74342 0.22163 0.0
N242 N 0.32591 0.69861 0.32554 0.0
N243 N 0.31698 0.72065 0.03117 0.0
C244 C 0.31958 0.70734 0.25458 0.0
C245 C 0.31483 0.71906 0.10401 0.0
N246 N 0.25963 0.6505 0.24563 0.0
N247 N 0.36067 0.78714 0.11511 0.0
H248 H 0.29759 0.69954 -0.00151 0.0
H249 H 0.34033 0.7404 0.00288 0.0
H250 H 0.38133 0.80985 0.14242 0.0
H251 H 0.35458 0.79727 0.06275 0.0
H252 H 0.25491 0.64846 0.30055 0.0
H253 H 0.23758 0.62948 0.21733 0.0
H254 H 0.31377 0.66964 0.3512 0.0
H255 H 0.34575 0.71917 0.3584 0.0
C256 C 0.43127 0.99671 0.34615 0.0
C257 C 0.4573 0.96851 0.30037 0.0
C258 C 0.4714 0.03402 0.22169 0.0
C259 C 0.45406 0.06365 0.27462 0.0
N260 N 0.41661 0.07294 0.38891 0.0
N261 N 0.50275 0.96035 0.19334 0.0
C262 C 0.43278 0.04496 0.33672 0.0
C263 C 0.47705 0.98713 0.23733 0.0
N264 N 0.40544 0.97746 0.39886 0.0
N265 N 0.48213 0.05094 0.15586 0.0
H266 H 0.50628 0.92546 0.20049 0.0
H267 H 0.5228 0.97304 0.1519 0.0
H268 H 0.47792 0.08509 0.14306 0.0
H269 H 0.49051 0.03074 0.11228 0.0
H270 H 0.38229 0.99555 0.42998 0.0
H271 H 0.40393 0.94247 0.40685 0.0
H272 H 0.40658 0.0615 0.43914 0.0
H273 H 0.41551 0.10809 0.3841 0.0
C274 C 0.99426 0.43357 0.61532 0.0
C275 C 0.97669 0.43917 0.5452 0.0
C276 C 0.05399 0.44743 0.49789 0.0
C277 C 0.07179 0.44526 0.56847 0.0
N278 N 0.06133 0.42603 0.69189 0.0
N279 N 0.9894 0.43408 0.41942 0.0
C280 C 0.04263 0.43448 0.62647 0.0
C281 C 1.00663 0.4401 0.48632 0.0
N282 N 0.96447 0.42944 0.67111 0.0
N283 N 0.08181 0.45963 0.44249 0.0
H284 H 0.95489 0.4269 0.41107 0.0
H285 H 1.00968 0.43092 0.37401 0.0
H286 H 0.11665 0.46549 0.44882 0.0
H287 H 0.06991 0.467 0.39142 0.0
H288 H 0.97413 0.42993 0.72446 0.0
H289 H 0.92925 0.42645 0.66353 0.0
H290 H 0.0427 0.41519 0.73606 0.0
H291 H 0.09659 0.42686 0.70046 0.0
C292 C 0.59892 0.98386 0.85459 0.0
C293 C 0.60199 0.97084 0.78179 0.0
C294 C 0.61186 0.05041 0.74644 0.0
C295 C 0.60446 0.06357 0.81838 0.0
N296 N 0.60719 0.04388 0.94233 0.0
N297 N 0.62659 0.98901 0.66305 0.0
C298 C 0.60339 0.03045 0.87302 0.0
C299 C 0.61353 1.00337 0.72909 0.0
N300 N 0.58966 0.95192 0.90562 0.0
N301 N 0.61507 0.08286 0.69446 0.0
H302 H 0.63018 0.95466 0.6513 0.0
H303 H 0.63849 1.0105 0.62297 0.0
H304 H 0.61629 0.11744 0.70584 0.0
H305 H 0.61476 0.07581 0.64012 0.0
H306 H 0.58118 0.95968 0.9581 0.0
H307 H 0.58868 0.9173 0.89466 0.0
H308 H 0.60982 0.02156 0.98528 0.0
H309 H 0.61285 0.07773 0.95574 0.0
C310 C 0.97843 0.5973 0.00121 0.0
C311 C 0.96518 0.58895 0.07334 0.0
C312 C 0.04593 0.58317 0.10801 0.0
C313 C 0.05906 0.58927 0.0355 0.0
N314 N 0.03994 0.61285 0.91669 0.0
N315 N 0.9856 0.58613 0.19713 0.0
C316 C 0.02586 0.60002 0.9833 0.0
C317 C 0.99888 0.58593 0.12729 0.0
N318 N 0.94584 0.59993 0.94918 0.0
N319 N 0.07825 0.57232 0.15789 0.0
H320 H 0.95136 0.58852 0.21199 0.0
H321 H 1.00817 0.58826 0.23985 0.0
H322 H 0.11315 0.57187 0.14678 0.0
H323 H 0.07056 0.56149 0.20942 0.0
H324 H 0.95313 0.60009 0.89485 0.0
H325 H 0.91091 0.59961 0.9599 0.0
H326 H 1.01809 0.62519 0.87739 0.0
H327 H 0.07447 0.6148 0.90275 0.0
C328 C 0.52651 0.18641 0.02223 0.0
C329 C 0.55469 0.22371 0.0036 0.0
C330 C 0.5211 0.26705 0.10233 0.0
C331 C 0.49005 0.23079 0.11607 0.0
N332 N 0.45645 0.16047 0.07727 0.0
N333 N 0.57493 0.30215 0.01995 0.0
C334 C 0.49039 0.19207 0.07191 0.0
C335 C 0.55106 0.26484 0.04218 0.0
N336 N 0.5364 0.14458 -0.00425 0.0
N337 N 0.52199 0.30354 0.14707 0.0
H338 H 0.59816 0.3012 0.97771 0.0
H339 H 0.56985 0.33452 0.04056 0.0
H340 H 0.49814 0.30803 0.18791 0.0
H341 H 0.54734 0.32832 0.14554 0.0
H342 H 0.51964 0.115 0.01158 0.0
H343 H 0.56571 0.13926 0.96551 0.0
H344 H 0.45264 0.13414 0.04079 0.0
H345 H 0.42977 0.16286 0.11391 0.0
C346 C 0.76583 0.52297 0.27084 0.0
C347 C 0.80199 0.55359 0.25401 0.0
C348 C 0.84903 0.51851 0.34688 0.0
C349 C 0.81203 0.49031 0.36778 0.0
N350 N 0.73263 0.47006 0.35621 0.0
N351 N 0.87394 0.58706 0.287 0.0
C352 C 0.76965 0.49364 0.33142 0.0
C353 C 0.84215 0.55363 0.29588 0.0
N354 N 0.7279 0.52177 0.22838 0.0
N355 N 0.89167 0.50972 0.37268 0.0
H356 H 0.87041 0.61304 0.24957 0.0
H357 H 0.90151 0.59142 0.32144 0.0
H358 H 0.89793 0.4816 0.40483 0.0
H359 H 0.92109 0.52627 0.35509 0.0
H360 H 0.70301 0.49661 0.23185 0.0
H361 H 0.72227 0.54516 0.18739 0.0
H362 H 0.69951 0.47496 0.33741 0.0
H363 H 0.73457 0.44734 0.3989 0.0
C364 C 0.54612 0.76965 0.56248 0.0
C365 C 0.55952 0.8118 0.59211 0.0
C366 C 0.5046 0.85141 0.51471 0.0
C367 C 0.49313 0.80975 0.48177 0.0
N368 N 0.50688 0.7296 0.46752 0.0
N369 N 0.55973 0.89298 0.5855 0.0
C370 C 0.51522 0.76896 0.50357 0.0
C371 C 0.54112 0.85275 0.56475 0.0
N372 N 0.56183 0.73023 0.5923 0.0
N373 N 0.4801 0.8896 0.49898 0.0
H374 H 0.58803 0.89397 0.61906 0.0
H375 H 0.55078 0.92431 0.56377 0.0
H376 H 0.45254 0.8893 0.46389 0.0
H377 H 0.4841 0.9203 0.52557 0.0
H378 H 0.54923 0.69827 0.57937 0.0
H379 H 0.58628 0.72974 0.6328 0.0
H380 H 0.52572 0.69996 0.4749 0.0
H381 H 0.48233 0.72716 0.42737 0.0
C382 C 0.26435 0.529 0.84609 0.0
C383 C 0.23214 0.5652 0.85046 0.0
C384 C 0.21903 0.55727 0.72274 0.0
C385 C 0.23993 0.51342 0.72328 0.0
N386 N 0.28987 0.4612 0.78542 0.0
N387 N 0.17436 0.61038 0.79155 0.0
C388 C 0.26457 0.50016 0.78523 0.0
C389 C 0.20815 0.5785 0.78845 0.0
N390 N 0.29654 0.52384 0.89835 0.0
N391 N 0.21352 0.58098 0.66083 0.0
H392 H 0.16457 0.62631 0.83866 0.0
H393 H 0.15341 0.61771 0.748 0.0
H394 H 0.23123 0.57261 0.61458 0.0
H395 H 0.19973 0.61362 0.65933 0.0
H396 H 0.32336 0.50065 0.89542 0.0
H397 H 0.29976 0.54647 0.94071 0.0
H398 H 0.30245 0.44635 0.83196 0.0
H399 H 0.29831 0.44366 0.73911 0.0
loop_
_geom_bond_atom_site_label_1
_geom_bond_atom_site_label_2
_geom_bond_distance
_geom_bond_site_symmetry_2
_ccdc_geom_bond_type
Co0 O1 2.216 . S
Co0 O2 2.091 . S
Co0 O4 2.004 . S
Co0 O10 2.021 . S
Co0 O12 2.137 . S
Co0 O13 2.244 . S
O1 Co0 2.216 . S
O1 C8 1.247 . S
O2 Co0 2.091 . S
O2 C8 1.261 . S
C3 O12 1.247 . S
C3 O13 1.272 . S
O4 Co0 2.004 . S
O4 C9 1.259 . S
Co5 O6 2.061 . S
Co5 O11 2.052 . S
Co5 O13 2.135 . S
O6 Co5 2.061 . S
O6 C9 1.235 . S
C7 O10 1.238 . S
C7 O11 1.241 . S
C8 O1 1.247 . S
C8 O2 1.261 . S
C9 O4 1.259 . S
C9 O6 1.235 . S
O10 Co0 2.021 . S
O10 C7 1.238 . S
O11 Co5 2.052 . S
O11 C7 1.241 . S
O12 Co0 2.137 . S
O12 C3 1.247 . S
O13 Co0 2.244 . S
O13 C3 1.272 . S
O13 Co5 2.135 . S
Co14 O15 2.216 . S
Co14 O16 2.091 . S
Co14 O18 2.004 . S
Co14 O24 2.021 . S
Co14 O26 2.137 . S
Co14 O27 2.244 . S
O15 Co14 2.216 . S
O15 C22 1.247 . S
O16 Co14 2.091 . S
O16 C22 1.261 . S
C17 O26 1.247 . S
C17 O27 1.272 . S
O18 Co14 2.004 . S
O18 C23 1.259 . S
Co19 O20 2.061 . S
Co19 O25 2.052 . S
Co19 O27 2.135 . S
O20 Co19 2.061 . S
O20 C23 1.235 . S
C21 O24 1.238 . S
C21 O25 1.241 . S
C22 O15 1.247 . S
C22 O16 1.261 . S
C23 O18 1.259 . S
C23 O20 1.235 . S
O24 Co14 2.021 . S
O24 C21 1.238 . S
O25 Co19 2.052 . S
O25 C21 1.241 . S
O26 Co14 2.137 . S
O26 C17 1.247 . S
O27 Co14 2.244 . S
O27 C17 1.272 . S
O27 Co19 2.135 . S
Co28 O29 2.216 . S
Co28 O30 2.091 . S
Co28 O32 2.004 . S
Co28 O38 2.021 . S
Co28 O40 2.137 . S
Co28 O41 2.244 . S
O29 Co28 2.216 . S
O29 C36 1.247 . S
O30 Co28 2.091 . S
O30 C36 1.261 . S
C31 O40 1.247 . S
C31 O41 1.272 . S
O32 Co28 2.004 . S
O32 C37 1.259 . S
Co33 O34 2.061 . S
Co33 O39 2.052 . S
Co33 O41 2.135 . S
O34 Co33 2.061 . S
O34 C37 1.235 . S
C35 O38 1.238 . S
C35 O39 1.241 . S
C36 O29 1.247 . S
C36 O30 1.261 . S
C37 O32 1.259 . S
C37 O34 1.235 . S
O38 Co28 2.021 . S
O38 C35 1.238 . S
O39 Co33 2.052 . S
O39 C35 1.241 . S
O40 Co28 2.137 . S
O40 C31 1.247 . S
O41 Co28 2.244 . S
O41 C31 1.272 . S
O41 Co33 2.135 . S
Co42 O43 2.216 . S
Co42 O44 2.091 . S
Co42 O46 2.004 . S
Co42 O52 2.021 . S
Co42 O54 2.137 1_554 S
Co42 O55 2.244 . S
O43 Co42 2.216 . S
O43 C50 1.247 . S
O44 Co42 2.091 . S
O44 C50 1.261 . S
C45 O54 1.247 . S
C45 O55 1.272 1_556 S
O46 Co42 2.004 . S
O46 C51 1.259 . S
Co47 O48 2.061 . S
Co47 O53 2.052 . S
Co47 O55 2.135 . S
O48 Co47 2.061 . S
O48 C51 1.235 . S
C49 O52 1.238 . S
C49 O53 1.241 . S
C50 O43 1.247 . S
C50 O44 1.261 . S
C51 O46 1.259 . S
C51 O48 1.235 . S
O52 Co42 2.021 . S
O52 C49 1.238 . S
O53 Co47 2.052 . S
O53 C49 1.241 . S
O54 Co42 2.137 1_556 S
O54 C45 1.247 . S
O55 Co42 2.244 . S
O55 C45 1.272 1_554 S
O55 Co47 2.135 . S
Co56 O57 2.216 . S
Co56 O58 2.091 . S
Co56 O60 2.004 . S
Co56 O66 2.021 . S
Co56 O68 2.137 . S
Co56 O69 2.244 . S
O57 Co56 2.216 . S
O57 C64 1.247 . S
O58 Co56 2.091 . S
O58 C64 1.261 . S
C59 O68 1.247 . S
C59 O69 1.272 . S
O60 Co56 2.004 . S
O60 C65 1.259 . S
Co61 O62 2.061 . S
Co61 O67 2.052 . S
Co61 O69 2.135 . S
O62 Co61 2.061 . S
O62 C65 1.235 . S
C63 O66 1.238 . S
C63 O67 1.241 . S
C64 O57 1.247 . S
C64 O58 1.261 . S
C65 O60 1.259 . S
C65 O62 1.235 . S
O66 Co56 2.021 . S
O66 C63 1.238 . S
O67 Co61 2.052 . S
O67 C63 1.241 . S
O68 Co56 2.137 . S
O68 C59 1.247 . S
O69 Co56 2.244 . S
O69 C59 1.272 . S
O69 Co61 2.135 . S
Co70 O71 2.216 . S
Co70 O72 2.091 . S
Co70 O74 2.004 . S
Co70 O80 2.021 . S
Co70 O82 2.137 . S
Co70 O83 2.244 . S
O71 Co70 2.216 . S
O71 C78 1.247 . S
O72 Co70 2.091 . S
O72 C78 1.261 . S
C73 O82 1.247 . S
C73 O83 1.272 . S
O74 Co70 2.004 . S
O74 C79 1.259 . S
Co75 O76 2.061 . S
Co75 O81 2.052 . S
Co75 O83 2.135 . S
O76 Co75 2.061 . S
O76 C79 1.235 . S
C77 O80 1.238 . S
C77 O81 1.241 . S
C78 O71 1.247 . S
C78 O72 1.261 . S
C79 O74 1.259 . S
C79 O76 1.235 . S
O80 Co70 2.021 . S
O80 C77 1.238 . S
O81 Co75 2.052 . S
O81 C77 1.241 . S
O82 Co70 2.137 . S
O82 C73 1.247 . S
O83 Co70 2.244 . S
O83 C73 1.272 . S
O83 Co75 2.135 . S
Co84 O85 2.216 . S
Co84 O86 2.091 . S
Co84 O88 2.004 . S
Co84 O94 2.021 . S
Co84 O96 2.137 . S
Co84 O97 2.244 . S
O85 Co84 2.216 . S
O85 C92 1.247 . S
O86 Co84 2.091 . S
O86 C92 1.261 . S
C87 O96 1.247 . S
C87 O97 1.272 . S
O88 Co84 2.004 . S
O88 C93 1.259 . S
Co89 O90 2.061 . S
Co89 O95 2.052 . S
Co89 O97 2.135 . S
O90 Co89 2.061 . S
O90 C93 1.235 . S
C91 O94 1.238 . S
C91 O95 1.241 . S
C92 O85 1.247 . S
C92 O86 1.261 . S
C93 O88 1.259 . S
C93 O90 1.235 . S
O94 Co84 2.021 . S
O94 C91 1.238 . S
O95 Co89 2.052 . S
O95 C91 1.241 . S
O96 Co84 2.137 . S
O96 C87 1.247 . S
O97 Co84 2.244 . S
O97 C87 1.272 . S
O97 Co89 2.135 . S
Co98 O99 2.216 . S
Co98 O100 2.091 . S
Co98 O102 2.004 . S
Co98 O108 2.021 1_554 S
Co98 O110 2.137 . S
Co98 O111 2.244 . S
O99 Co98 2.216 . S
O99 C106 1.247 . S
O100 Co98 2.091 . S
O100 C106 1.261 . S
C101 O110 1.247 . S
C101 O111 1.272 . S
O102 Co98 2.004 . S
O102 C107 1.259 . S
Co103 O104 2.061 . S
Co103 O109 2.052 1_554 S
Co103 O111 2.135 . S
O104 Co103 2.061 . S
O104 C107 1.235 . S
C105 O108 1.238 . S
C105 O109 1.241 . S
C106 O99 1.247 . S
C106 O100 1.261 . S
C107 O102 1.259 . S
C107 O104 1.235 . S
O108 Co98 2.021 1_556 S
O108 C105 1.238 . S
O109 Co103 2.052 1_556 S
O109 C105 1.241 . S
O110 Co98 2.137 . S
O110 C101 1.247 . S
O111 Co98 2.244 . S
O111 C101 1.272 . S
O111 Co103 2.135 . S
C112 C113 1.363 . S
C112 C118 1.379 . S
C112 N120 1.356 . S
C113 C112 1.363 . S
C113 C119 1.363 . S
C114 C115 1.363 . S
C114 C119 1.379 . S
C114 N121 1.356 . S
C115 C114 1.363 . S
C115 C118 1.363 . S
N116 C118 1.356 . S
N116 H128 0.984 . S
N116 H129 0.985 . S
N117 C119 1.356 . S
N117 H122 0.984 . S
N117 H123 0.985 . S
C118 C112 1.379 . S
C118 C115 1.363 . S
C118 N116 1.356 . S
C119 C113 1.363 . S
C119 C114 1.379 . S
C119 N117 1.356 . S
N120 C112 1.356 . S
N120 H126 0.984 . S
N120 H127 0.984 . S
N121 C114 1.356 . S
N121 H124 0.984 . S
N121 H125 0.985 . S
H122 N117 0.984 . S
H123 N117 0.985 . S
H124 N121 0.984 . S
H125 N121 0.985 . S
H126 N120 0.984 . S
H127 N120 0.984 . S
H128 N116 0.984 . S
H129 N116 0.985 . S
C130 C131 1.363 . S
C130 C136 1.379 . S
C130 N138 1.356 . S
C131 C130 1.363 . S
C131 C137 1.363 . S
C132 C133 1.363 . S
C132 C137 1.379 . S
C132 N139 1.356 . S
C133 C132 1.363 . S
C133 C136 1.363 . S
N134 C136 1.356 . S
N134 H146 0.984 . S
N134 H147 0.985 . S
N135 C137 1.356 . S
N135 H140 0.984 . S
N135 H141 0.985 . S
C136 C130 1.379 . S
C136 C133 1.363 . S
C136 N134 1.356 . S
C137 C131 1.363 . S
C137 C132 1.379 . S
C137 N135 1.356 . S
N138 C130 1.356 . S
N138 H144 0.984 . S
N138 H145 0.984 . S
N139 C132 1.356 . S
N139 H142 0.984 . S
N139 H143 0.985 . S
H140 N135 0.984 . S
H141 N135 0.985 . S
H142 N139 0.984 . S
H143 N139 0.985 . S
H144 N138 0.984 . S
H145 N138 0.984 . S
H146 N134 0.984 . S
H147 N134 0.985 . S
C148 C149 1.363 . S
C148 C154 1.379 . S
C148 N156 1.356 . S
C149 C148 1.363 . S
C149 C155 1.363 . S
C150 C151 1.363 1_554 S
C150 C155 1.379 . S
C150 N157 1.356 1_554 S
C151 C150 1.363 1_556 S
C151 C154 1.363 1_556 S
N152 C154 1.356 1_556 S
N152 H164 0.984 1_556 S
N152 H165 0.985 . S
N153 C155 1.356 . S
N153 H158 0.984 . S
N153 H159 0.985 . S
C154 C148 1.379 . S
C154 C151 1.363 1_554 S
C154 N152 1.356 1_554 S
C155 C149 1.363 . S
C155 C150 1.379 . S
C155 N153 1.356 . S
N156 C148 1.356 . S
N156 H162 0.984 . S
N156 H163 0.984 . S
N157 C150 1.356 1_556 S
N157 H160 0.984 . S
N157 H161 0.985 . S
H158 N153 0.984 . S
H159 N153 0.985 . S
H160 N157 0.984 . S
H161 N157 0.985 . S
H162 N156 0.984 . S
H163 N156 0.984 . S
H164 N152 0.984 1_554 S
H165 N152 0.985 . S
C166 C167 1.363 . S
C166 C172 1.379 . S
C166 N174 1.356 . S
C167 C166 1.363 . S
C167 C173 1.363 . S
C168 C169 1.363 . S
C168 C173 1.379 . S
C168 N175 1.356 . S
C169 C168 1.363 . S
C169 C172 1.363 . S
N170 C172 1.356 . S
N170 H182 0.984 . S
N170 H183 0.985 . S
N171 C173 1.356 . S
N171 H176 0.984 . S
N171 H177 0.985 . S
C172 C166 1.379 . S
C172 C169 1.363 . S
C172 N170 1.356 . S
C173 C167 1.363 . S
C173 C168 1.379 . S
C173 N171 1.356 . S
N174 C166 1.356 . S
N174 H180 0.984 . S
N174 H181 0.984 . S
N175 C168 1.356 . S
N175 H178 0.984 . S
N175 H179 0.985 . S
H176 N171 0.984 . S
H177 N171 0.985 . S
H178 N175 0.984 . S
H179 N175 0.985 . S
H180 N174 0.984 . S
H181 N174 0.984 . S
H182 N170 0.984 . S
H183 N170 0.985 . S
C184 C185 1.363 . S
C184 C190 1.379 . S
C184 N192 1.356 . S
C185 C184 1.363 . S
C185 C191 1.363 . S
C186 C187 1.363 . S
C186 C191 1.379 . S
C186 N193 1.356 . S
C187 C186 1.363 . S
C187 C190 1.363 . S
N188 C190 1.356 . S
N188 H200 0.984 . S
N188 H201 0.985 . S
N189 C191 1.356 . S
N189 H194 0.984 . S
N189 H195 0.985 . S
C190 C184 1.379 . S
C190 C187 1.363 . S
C190 N188 1.356 . S
C191 C185 1.363 . S
C191 C186 1.379 . S
C191 N189 1.356 . S
N192 C184 1.356 . S
N192 H198 0.984 . S
N192 H199 0.984 . S
N193 C186 1.356 . S
N193 H196 0.984 . S
N193 H197 0.985 . S
H194 N189 0.984 . S
H195 N189 0.985 . S
H196 N193 0.984 . S
H197 N193 0.985 . S
H198 N192 0.984 . S
H199 N192 0.984 . S
H200 N188 0.984 . S
H201 N188 0.985 . S
C202 C203 1.363 . S
C202 C208 1.379 . S
C202 N210 1.356 . S
C203 C202 1.363 . S
C203 C209 1.363 . S
C204 C205 1.363 . S
C204 C209 1.379 . S
C204 N211 1.356 . S
C205 C204 1.363 . S
C205 C208 1.363 . S
N206 C208 1.356 . S
N206 H218 0.984 . S
N206 H219 0.985 . S
N207 C209 1.356 . S
N207 H212 0.984 . S
N207 H213 0.985 . S
C208 C202 1.379 . S
C208 C205 1.363 . S
C208 N206 1.356 . S
C209 C203 1.363 . S
C209 C204 1.379 . S
C209 N207 1.356 . S
N210 C202 1.356 . S
N210 H216 0.984 . S
N210 H217 0.984 . S
N211 C204 1.356 . S
N211 H214 0.984 . S
N211 H215 0.985 . S
H212 N207 0.984 . S
H213 N207 0.985 . S
H214 N211 0.984 . S
H215 N211 0.985 . S
H216 N210 0.984 . S
H217 N210 0.984 . S
H218 N206 0.984 . S
H219 N206 0.985 . S
C220 C221 1.363 1_554 S
C220 C226 1.379 1_554 S
C220 N228 1.356 . S
C221 C220 1.363 1_556 S
C221 C227 1.363 . S
C222 C223 1.363 . S
C222 C227 1.379 . S
C222 N229 1.356 . S
C223 C222 1.363 . S
C223 C226 1.363 . S
N224 C226 1.356 . S
N224 H236 0.984 1_556 S
N224 H237 0.985 . S
N225 C227 1.356 . S
N225 H230 0.984 . S
N225 H231 0.985 . S
C226 C220 1.379 1_556 S
C226 C223 1.363 . S
C226 N224 1.356 . S
C227 C221 1.363 . S
C227 C222 1.379 . S
C227 N225 1.356 . S
N228 C220 1.356 . S
N228 H234 0.984 . S
N228 H235 0.984 . S
N229 C222 1.356 . S
N229 H232 0.984 . S
N229 H233 0.985 . S
H230 N225 0.984 . S
H231 N225 0.985 . S
H232 N229 0.984 . S
H233 N229 0.985 . S
H234 N228 0.984 . S
H235 N228 0.984 . S
H236 N224 0.984 1_554 S
H237 N224 0.985 . S
C238 C239 1.363 . S
C238 C244 1.379 . S
C238 N246 1.356 . S
C239 C238 1.363 . S
C239 C245 1.363 . S
C240 C241 1.363 . S
C240 C245 1.379 . S
C240 N247 1.356 . S
C241 C240 1.363 . S
C241 C244 1.363 . S
N242 C244 1.356 . S
N242 H254 0.984 . S
N242 H255 0.985 . S
N243 C245 1.356 . S
N243 H248 0.984 . S
N243 H249 0.985 . S
C244 C238 1.379 . S
C244 C241 1.363 . S
C244 N242 1.356 . S
C245 C239 1.363 . S
C245 C240 1.379 . S
C245 N243 1.356 . S
N246 C238 1.356 . S
N246 H252 0.984 . S
N246 H253 0.984 . S
N247 C240 1.356 . S
N247 H250 0.984 . S
N247 H251 0.985 . S
H248 N243 0.984 . S
H249 N243 0.985 . S
H250 N247 0.984 . S
H251 N247 0.985 . S
H252 N246 0.984 . S
H253 N246 0.984 . S
H254 N242 0.984 . S
H255 N242 0.985 . S
C256 C257 1.363 . S
C256 C262 1.379 1_565 S
C256 N264 1.356 . S
C257 C256 1.363 . S
C257 C263 1.363 . S
C258 C259 1.363 . S
C258 C263 1.379 1_545 S
C258 N265 1.356 . S
C259 C258 1.363 . S
C259 C262 1.363 . S
N260 C262 1.356 . S
N260 H272 0.984 . S
N260 H273 0.985 . S
N261 C263 1.356 . S
N261 H266 0.984 . S
N261 H267 0.985 . S
C262 C256 1.379 1_545 S
C262 C259 1.363 . S
C262 N260 1.356 . S
C263 C257 1.363 . S
C263 C258 1.379 1_565 S
C263 N261 1.356 . S
N264 C256 1.356 . S
N264 H270 0.984 . S
N264 H271 0.984 . S
N265 C258 1.356 . S
N265 H268 0.984 . S
N265 H269 0.985 . S
H266 N261 0.984 . S
H267 N261 0.985 . S
H268 N265 0.984 . S
H269 N265 0.985 . S
H270 N264 0.984 . S
H271 N264 0.984 . S
H272 N260 0.984 . S
H273 N260 0.985 . S
C274 C275 1.363 . S
C274 C280 1.379 1_655 S
C274 N282 1.356 . S
C275 C274 1.363 . S
C275 C281 1.363 . S
C276 C277 1.363 . S
C276 C281 1.379 1_455 S
C276 N283 1.356 . S
C277 C276 1.363 . S
C277 C280 1.363 . S
N278 C280 1.356 . S
N278 H290 0.984 . S
N278 H291 0.985 . S
N279 C281 1.356 . S
N279 H284 0.984 . S
N279 H285 0.985 . S
C280 C274 1.379 1_455 S
C280 C277 1.363 . S
C280 N278 1.356 . S
C281 C275 1.363 . S
C281 C276 1.379 1_655 S
C281 N279 1.356 . S
N282 C274 1.356 . S
N282 H288 0.984 . S
N282 H289 0.984 . S
N283 C276 1.356 . S
N283 H286 0.984 . S
N283 H287 0.985 . S
H284 N279 0.984 . S
H285 N279 0.985 . S
H286 N283 0.984 . S
H287 N283 0.985 . S
H288 N282 0.984 . S
H289 N282 0.984 . S
H290 N278 0.984 . S
H291 N278 0.985 . S
C292 C293 1.363 . S
C292 C298 1.379 1_565 S
C292 N300 1.356 . S
C293 C292 1.363 . S
C293 C299 1.363 . S
C294 C295 1.363 . S
C294 C299 1.379 1_545 S
C294 N301 1.356 . S
C295 C294 1.363 . S
C295 C298 1.363 . S
N296 C298 1.356 . S
N296 H308 0.984 . S
N296 H309 0.985 . S
N297 C299 1.356 . S
N297 H302 0.984 . S
N297 H303 0.985 . S
C298 C292 1.379 1_545 S
C298 C295 1.363 . S
C298 N296 1.356 . S
C299 C293 1.363 . S
C299 C294 1.379 1_565 S
C299 N297 1.356 . S
N300 C292 1.356 . S
N300 H306 0.984 . S
N300 H307 0.984 . S
N301 C294 1.356 . S
N301 H304 0.984 . S
N301 H305 0.985 . S
H302 N297 0.984 . S
H303 N297 0.985 . S
H304 N301 0.984 . S
H305 N301 0.985 . S
H306 N300 0.984 . S
H307 N300 0.984 . S
H308 N296 0.984 . S
H309 N296 0.985 . S
C310 C311 1.363 . S
C310 C316 1.379 1_655 S
C310 N318 1.356 1_554 S
C311 C310 1.363 . S
C311 C317 1.363 . S
C312 C313 1.363 . S
C312 C317 1.379 1_455 S
C312 N319 1.356 . S
C313 C312 1.363 . S
C313 C316 1.363 . S
N314 C316 1.356 1_556 S
N314 H326 0.984 . S
N314 H327 0.985 1_556 S
N315 C317 1.356 . S
N315 H320 0.984 . S
N315 H321 0.985 . S
C316 C310 1.379 1_455 S
C316 C313 1.363 . S
C316 N314 1.356 1_554 S
C317 C311 1.363 . S
C317 C312 1.379 1_655 S
C317 N315 1.356 . S
N318 C310 1.356 1_556 S
N318 H324 0.984 . S
N318 H325 0.983 1_556 S
N319 C312 1.356 . S
N319 H322 0.984 . S
N319 H323 0.985 . S
H320 N315 0.984 . S
H321 N315 0.985 . S
H322 N319 0.984 . S
H323 N319 0.985 . S
H324 N318 0.984 . S
H325 N318 0.983 1_554 S
H326 N314 0.984 . S
H327 N314 0.985 1_554 S
C328 C329 1.363 1_554 S
C328 C334 1.379 . S
C328 N336 1.356 1_554 S
C329 C328 1.363 1_556 S
C329 C335 1.363 1_556 S
C330 C331 1.363 . S
C330 C335 1.379 . S
C330 N337 1.356 . S
C331 C330 1.363 . S
C331 C334 1.363 . S
N332 C334 1.356 . S
N332 H344 0.984 . S
N332 H345 0.985 . S
N333 C335 1.356 . S
N333 H338 0.984 1_554 S
N333 H339 0.985 . S
C334 C328 1.379 . S
C334 C331 1.363 . S
C334 N332 1.356 . S
C335 C329 1.363 1_554 S
C335 C330 1.379 . S
C335 N333 1.356 . S
N336 C328 1.356 1_556 S
N336 H342 0.984 . S
N336 H343 0.984 . S
N337 C330 1.356 . S
N337 H340 0.984 . S
N337 H341 0.985 . S
H338 N333 0.984 1_556 S
H339 N333 0.985 . S
H340 N337 0.984 . S
H341 N337 0.985 . S
H342 N336 0.984 . S
H343 N336 0.984 . S
H344 N332 0.984 . S
H345 N332 0.985 . S
C346 C347 1.363 . S
C346 C352 1.379 . S
C346 N354 1.356 . S
C347 C346 1.363 . S
C347 C353 1.363 . S
C348 C349 1.363 . S
C348 C353 1.379 . S
C348 N355 1.356 . S
C349 C348 1.363 . S
C349 C352 1.363 . S
N350 C352 1.356 . S
N350 H362 0.984 . S
N350 H363 0.985 . S
N351 C353 1.356 . S
N351 H356 0.984 . S
N351 H357 0.985 . S
C352 C346 1.379 . S
C352 C349 1.363 . S
C352 N350 1.356 . S
C353 C347 1.363 . S
C353 C348 1.379 . S
C353 N351 1.356 . S
N354 C346 1.356 . S
N354 H360 0.984 . S
N354 H361 0.984 . S
N355 C348 1.356 . S
N355 H358 0.984 . S
N355 H359 0.985 . S
H356 N351 0.984 . S
H357 N351 0.985 . S
H358 N355 0.984 . S
H359 N355 0.985 . S
H360 N354 0.984 . S
H361 N354 0.984 . S
H362 N350 0.984 . S
H363 N350 0.985 . S
C364 C365 1.363 . S
C364 C370 1.379 . S
C364 N372 1.356 . S
C365 C364 1.363 . S
C365 C371 1.363 . S
C366 C367 1.363 . S
C366 C371 1.379 . S
C366 N373 1.356 . S
C367 C366 1.363 . S
C367 C370 1.363 . S
N368 C370 1.356 . S
N368 H380 0.984 . S
N368 H381 0.985 . S
N369 C371 1.356 . S
N369 H374 0.984 . S
N369 H375 0.985 . S
C370 C364 1.379 . S
C370 C367 1.363 . S
C370 N368 1.356 . S
C371 C365 1.363 . S
C371 C366 1.379 . S
C371 N369 1.356 . S
N372 C364 1.356 . S
N372 H378 0.984 . S
N372 H379 0.984 . S
N373 C366 1.356 . S
N373 H376 0.984 . S
N373 H377 0.985 . S
H374 N369 0.984 . S
H375 N369 0.985 . S
H376 N373 0.984 . S
H377 N373 0.985 . S
H378 N372 0.984 . S
H379 N372 0.984 . S
H380 N368 0.984 . S
H381 N368 0.985 . S
C382 C383 1.363 . S
C382 C388 1.379 . S
C382 N390 1.356 . S
C383 C382 1.363 . S
C383 C389 1.363 . S
C384 C385 1.363 . S
C384 C389 1.379 . S
C384 N391 1.356 . S
C385 C384 1.363 . S
C385 C388 1.363 . S
N386 C388 1.356 . S
N386 H398 0.984 . S
N386 H399 0.985 . S
N387 C389 1.356 . S
N387 H392 0.984 . S
N387 H393 0.985 . S
C388 C382 1.379 . S
C388 C385 1.363 . S
C388 N386 1.356 . S
C389 C383 1.363 . S
C389 C384 1.379 . S
C389 N387 1.356 . S
N390 C382 1.356 . S
N390 H396 0.984 . S
N390 H397 0.984 . S
N391 C384 1.356 . S
N391 H394 0.984 . S
N391 H395 0.985 . S
H392 N387 0.984 . S
H393 N387 0.985 . S
H394 N391 0.984 . S
H395 N391 0.985 . S
H396 N390 0.984 . S
H397 N390 0.984 . S
H398 N386 0.984 . S
H399 N386 0.985 . S
C113 C7 0.911 . S
C115 C91 0.911 . S
C131 C21 0.911 . S
C133 C105 0.911 . S
C149 C63 0.911 . S
C151 C35 0.911 . S
C167 C77 0.911 . S
C169 C49 0.911 . S
C185 C8 1.596 . S
C187 C78 1.596 . S
C203 C22 1.596 . S
C205 C92 1.596 . S
C221 C106 1.596 1_556 S
C223 C36 1.596 . S
C239 C50 1.596 . S
C241 C64 1.596 . S
C257 C65 1.498 . S
C259 C9 1.498 . S
C275 C23 1.498 . S
C277 C79 1.498 . S
C293 C37 1.498 . S
C295 C93 1.498 . S
C311 C107 1.498 . S
C313 C51 1.498 . S
C329 C87 1.539 . S
C331 C3 1.539 . S
C347 C101 1.539 . S
C349 C17 1.539 . S
C365 C31 1.539 . S
C367 C59 1.539 . S
C383 C45 1.539 . S
C385 C73 1.539 . S
