# Generated by pormake.
# Topology sml, (6)-cn, num edge types: 1
# Building blocks:
#     Node 0, Type 0, BuildingBlock: BETFAJ_clean_sbu_0, # of connection points: 6
#     Node 1, Type 0, BuildingBlock: BETFAJ_clean_sbu_0, # of connection points: 6
#     Node 2, Type 0, BuildingBlock: BETFAJ_clean_sbu_0, # of connection points: 6
#     Node 3, Type 0, BuildingBlock: BETFAJ_clean_sbu_0, # of connection points: 6
#     Node 4, Type 0, BuildingBlock: BETFAJ_clean_sbu_0, # of connection points: 6
#     Node 5, Type 0, BuildingBlock: BETFAJ_clean_sbu_0, # of connection points: 6
#     Edge 6, Type (0, 0), BuildingBlock: ZUJKAS_clean_linker_0, # of connection points: 2
#     Edge 7, Type (0, 0), BuildingBlock: ZUJKAS_clean_linker_0, # of connection points: 2
#     Edge 8, Type (0, 0), BuildingBlock: ZUJKAS_clean_linker_0, # of connection points: 2
#     Edge 9, Type (0, 0), BuildingBlock: ZUJKAS_clean_linker_0, # of connection points: 2
#     Edge 10, Type (0, 0), BuildingBlock: ZUJKAS_clean_linker_0, # of connection points: 2
#     Edge 11, Type (0, 0), BuildingBlock: ZUJKAS_clean_linker_0, # of connection points: 2
#     Edge 12, Type (0, 0), BuildingBlock: ZUJKAS_clean_linker_0, # of connection points: 2
#     Edge 13, Type (0, 0), BuildingBlock: ZUJKAS_clean_linker_0, # of connection points: 2
#     Edge 14, Type (0, 0), BuildingBlock: ZUJKAS_clean_linker_0, # of connection points: 2
#     Edge 15, Type (0, 0), BuildingBlock: ZUJKAS_clean_linker_0, # of connection points: 2
#     Edge 16, Type (0, 0), BuildingBlock: ZUJKAS_clean_linker_0, # of connection points: 2
#     Edge 17, Type (0, 0), BuildingBlock: ZUJKAS_clean_linker_0, # of connection points: 2
#     Edge 18, Type (0, 0), BuildingBlock: ZUJKAS_clean_linker_0, # of connection points: 2
#     Edge 19, Type (0, 0), BuildingBlock: ZUJKAS_clean_linker_0, # of connection points: 2
#     Edge 20, Type (0, 0), BuildingBlock: ZUJKAS_clean_linker_0, # of connection points: 2
#     Edge 21, Type (0, 0), BuildingBlock: ZUJKAS_clean_linker_0, # of connection points: 2
#     Edge 22, Type (0, 0), BuildingBlock: ZUJKAS_clean_linker_0, # of connection points: 2
#     Edge 23, Type (0, 0), BuildingBlock: ZUJKAS_clean_linker_0, # of connection points: 2
# Relax obj value: 0.153
# Max RMSD: 0.197
# Mean RMSD: 0.197
data_MOF--net-sml--node1-BETFAJ_clean_sbu_0--edge1-ZUJKAS_clean_linker_0
_symmetry_space_group_name_H-M    P1
_symmetry_Int_Tables_number       1
_symmetry_cell_setting            triclinic
loop_
_symmetry_equiv_pos_as_xyz
'x, y, z'
_cell_length_a     43.658433
_cell_length_b     43.69051
_cell_length_c     29.819348
_cell_angle_alpha  90.056871
_cell_angle_beta   90.056908
_cell_angle_gamma 120.06721
loop_
_atom_site_label
_atom_site_type_symbol
_atom_site_fract_x
_atom_site_fract_y
_atom_site_fract_z
_atom_type_partial_charge
Sm0 Sm 0.19346 0.41924 0.09324 0.0
Sm1 Sm 0.21424 0.39531 0.1883 0.0
C2 C 0.19736 0.44937 0.01507 0.0
C3 C 0.21105 0.45036 0.96981 0.0
C4 C 0.22341 0.42742 0.95765 0.0
C5 C 0.23167 0.42512 0.9129 0.0
C6 C 0.22765 0.44569 0.8796 0.0
C7 C 0.21672 0.46973 0.89249 0.0
C8 C 0.20845 0.47198 0.9372 0.0
C9 C 0.13504 0.37824 0.14624 0.0
C10 C 0.2018 0.3486 0.09501 0.0
C11 C 0.21733 0.36446 0.26313 0.0
C12 C 0.22055 0.37226 0.3114 0.0
C13 C 0.21573 0.39951 0.32838 0.0
C14 C 0.21852 0.40644 0.37448 0.0
C15 C 0.22621 0.38623 0.40436 0.0
C16 C 0.23125 0.35912 0.38693 0.0
C17 C 0.22843 0.35222 0.34086 0.0
C18 C 0.26805 0.446 0.13784 0.0
C19 C 0.20249 0.4632 0.18771 0.0
O20 O 0.22065 0.46529 0.04721 0.0
O21 O 0.17054 0.41879 0.0271 0.0
O22 O 0.16692 0.38871 0.15358 0.0
O23 O 0.13231 0.38961 0.10704 0.0
O24 O 0.20003 0.37286 0.07032 0.0
O25 O 0.20467 0.35037 0.13938 0.0
O26 O 0.18754 0.35796 0.24426 0.0
O27 O 0.2452 0.38462 0.23871 0.0
O28 O 0.24088 0.41915 0.12293 0.0
O29 O 0.26878 0.446 0.18152 0.0
O30 O 0.20115 0.43716 0.21201 0.0
O31 O 0.20438 0.46417 0.14318 0.0
H32 H 0.22552 0.41048 0.98248 0.0
H33 H 0.24049 0.4067 0.90422 0.0
H34 H 0.21292 0.48566 0.86774 0.0
H35 H 0.19872 0.48965 0.94601 0.0
H36 H 0.20961 0.41526 0.30602 0.0
H37 H 0.21406 0.42722 0.38677 0.0
H38 H 0.23771 0.34341 0.40886 0.0
H39 H 0.23239 0.33119 0.32823 0.0
Sm40 Sm 0.76689 0.21978 0.45734 0.0
Sm41 Sm 0.75583 0.17406 0.37166 0.0
C42 C 0.75875 0.24361 0.53564 0.0
C43 C 0.75926 0.23676 0.58388 0.0
C44 C 0.74688 0.20241 0.60028 0.0
C45 C 0.74748 0.19662 0.64635 0.0
C46 C 0.7606 0.2251 0.67679 0.0
C47 C 0.77293 0.25941 0.66006 0.0
C48 C 0.77223 0.26514 0.61407 0.0
C49 C 0.82807 0.23332 0.41634 0.0
C50 C 0.7582 0.13998 0.4663 0.0
C51 C 0.75409 0.14451 0.29318 0.0
C52 C 0.75893 0.15312 0.24517 0.0
C53 C 0.77425 0.18816 0.23013 0.0
C54 C 0.77637 0.19541 0.18412 0.0
C55 C 0.76312 0.16768 0.15251 0.0
C56 C 0.7485 0.1327 0.16799 0.0
C57 C 0.74637 0.12554 0.21387 0.0
C58 C 0.69621 0.16355 0.41582 0.0
C59 C 0.77002 0.25542 0.36212 0.0
O60 O 0.73245 0.21924 0.51222 0.0
O61 O 0.78907 0.25742 0.51461 0.0
O62 O 0.80112 0.20289 0.42003 0.0
O63 O 0.82484 0.25701 0.43881 0.0
O64 O 0.75641 0.16624 0.48588 0.0
O65 O 0.76223 0.13878 0.42258 0.0
O66 O 0.78226 0.15965 0.31871 0.0
O67 O 0.72635 0.14315 0.31177 0.0
O68 O 0.72317 0.1928 0.40744 0.0
O69 O 0.6997 0.13768 0.40039 0.0
O70 O 0.77357 0.2298 0.3436 0.0
O71 O 0.76163 0.25476 0.4048 0.0
H72 H 0.73677 0.18009 0.57752 0.0
H73 H 0.73811 0.16993 0.65807 0.0
H74 H 0.78271 0.28184 0.6826 0.0
H75 H 0.78174 0.2918 0.60205 0.0
H76 H 0.78404 0.20976 0.25395 0.0
H77 H 0.78753 0.2226 0.17339 0.0
H78 H 0.73863 0.11079 0.14462 0.0
H79 H 0.7345 0.09833 0.22494 0.0
Sm80 Sm 0.55179 0.75711 0.75825 0.0
Sm81 Sm 0.58422 0.80658 0.84241 0.0
C82 C 0.52282 0.72913 0.67962 0.0
C83 C 0.52899 0.73778 0.63157 0.0
C84 C 0.5003 0.72261 0.60179 0.0
C85 C 0.50553 0.72985 0.55589 0.0
C86 C 0.53964 0.75249 0.53882 0.0
C87 C 0.56832 0.76817 0.56903 0.0
C88 C 0.56303 0.76087 0.615 0.0
C89 C 0.60255 0.75082 0.80405 0.0
C90 C 0.6183 0.83978 0.74683 0.0
C91 C 0.6122 0.83517 0.92122 0.0
C92 C 0.60599 0.82659 0.96929 0.0
C93 C 0.63436 0.84315 0.99939 0.0
C94 C 0.62899 0.8363 0.04536 0.0
C95 C 0.59505 0.81272 0.06221 0.0
C96 C 0.56674 0.79563 0.03169 0.0
C97 C 0.57217 0.8025 0.98563 0.0
C98 C 0.53318 0.81226 0.79598 0.0
C99 C 0.51786 0.72392 0.85405 0.0
O100 O 0.51351 0.74822 0.7036 0.0
O101 O 0.54536 0.72252 0.70026 0.0
O102 O 0.60326 0.77942 0.79576 0.0
O103 O 0.57523 0.72402 0.78565 0.0
O104 O 0.59105 0.81176 0.72838 0.0
O105 O 0.6244 0.8426 0.79046 0.0
O106 O 0.62262 0.81686 0.89749 0.0
O107 O 0.58904 0.84068 0.90025 0.0
O108 O 0.53282 0.78402 0.80522 0.0
O109 O 0.56067 0.83947 0.81339 0.0
O110 O 0.54553 0.75161 0.87244 0.0
O111 O 0.51154 0.72166 0.81048 0.0
H112 H 0.47379 0.70499 0.61404 0.0
H113 H 0.48277 0.71784 0.53378 0.0
H114 H 0.59496 0.78551 0.55706 0.0
H115 H 0.58552 0.77295 0.63753 0.0
H116 H 0.6607 0.8616 0.98734 0.0
H117 H 0.65152 0.84941 0.06771 0.0
H118 H 0.54021 0.77754 0.04343 0.0
H119 H 0.54992 0.78934 0.96286 0.0
Sm120 Sm 0.76891 0.57817 0.14589 0.0
Sm121 Sm 0.81006 0.60174 0.05524 0.0
C122 C 0.73611 0.54676 0.22128 0.0
C123 C 0.74495 0.55041 0.26933 0.0
C124 C 0.77997 0.57183 0.28402 0.0
C125 C 0.7878 0.57623 0.32993 0.0
C126 C 0.76073 0.5593 0.36197 0.0
C127 C 0.72572 0.53763 0.34687 0.0
C128 C 0.71794 0.53327 0.30099 0.0
C129 C 0.76322 0.62906 0.09929 0.0
C130 C 0.84725 0.64598 0.14876 0.0
C131 C 0.8431 0.63301 0.97992 0.0
C132 C 0.83579 0.62747 0.93151 0.0
C133 C 0.80143 0.60466 0.91555 0.0
C134 C 0.79501 0.59909 0.86942 0.0
C135 C 0.82285 0.61617 0.8384 0.0
C136 C 0.85723 0.63903 0.85476 0.0
C137 C 0.86359 0.64459 0.90086 0.0
C138 C 0.81506 0.55018 0.10107 0.0
C139 C 0.73105 0.5341 0.05221 0.0
O140 O 0.75227 0.53492 0.19569 0.0
O141 O 0.73422 0.57303 0.20319 0.0
O142 O 0.76269 0.60238 0.0826 0.0
O143 O 0.76458 0.62871 0.14279 0.0
O144 O 0.82298 0.61932 0.17234 0.0
O145 O 0.8459 0.64684 0.10441 0.0
O146 O 0.82382 0.6427 1.0029 0.0
O147 O 0.84773 0.60924 1.00057 0.0
O148 O 0.81607 0.57699 0.1183 0.0
O149 O 0.81326 0.55072 0.05761 0.0
O150 O 0.75613 0.56001 0.02842 0.0
O151 O 0.7319 0.53372 0.09665 0.0
H152 H 0.80119 0.58531 0.25999 0.0
H153 H 0.81508 0.59277 0.34031 0.0
H154 H 0.70415 0.52461 0.37052 0.0
H155 H 0.69073 0.51683 0.29023 0.0
H156 H 0.77961 0.59115 0.93877 0.0
H157 H 0.76817 0.58165 0.85806 0.0
H158 H 0.87938 0.65221 0.83197 0.0
H159 H 0.89032 0.6621 0.91262 0.0
Sm160 Sm 0.23309 0.80772 0.40793 0.0
Sm161 Sm 0.18866 0.78496 0.49665 0.0
C162 C 0.26686 0.81165 0.33233 0.0
C163 C 0.25848 0.80752 0.28404 0.0
C164 C 0.2235 0.79332 0.26887 0.0
C165 C 0.21609 0.7906 0.22282 0.0
C166 C 0.24356 0.80216 0.19107 0.0
C167 C 0.27853 0.81608 0.20665 0.0
C168 C 0.28587 0.81873 0.25265 0.0
C169 C 0.23834 0.86178 0.46016 0.0
C170 C 0.15479 0.79805 0.40409 0.0
C171 C 0.15459 0.77978 0.57242 0.0
C172 C 0.16229 0.78227 0.62088 0.0
C173 C 0.19707 0.79608 0.63666 0.0
C174 C 0.20386 0.79755 0.6828 0.0
C175 C 0.17598 0.78512 0.71405 0.0
C176 C 0.1412 0.77143 0.69788 0.0
C177 C 0.13447 0.77002 0.65178 0.0
C178 C 0.18435 0.73111 0.44476 0.0
C179 C 0.26781 0.79646 0.50109 0.0
O180 O 0.25084 0.78297 0.35676 0.0
O181 O 0.26817 0.83915 0.35178 0.0
O182 O 0.23733 0.83417 0.47419 0.0
O183 O 0.23932 0.86311 0.41663 0.0
O184 O 0.18042 0.79822 0.38051 0.0
O185 O 0.15358 0.79595 0.44845 0.0
O186 O 0.17152 0.80913 0.54936 0.0
O187 O 0.15265 0.75251 0.55157 0.0
O188 O 0.18455 0.7583 0.43047 0.0
O189 O 0.18426 0.73039 0.48832 0.0
O190 O 0.24193 0.79615 0.5243 0.0
O191 O 0.2687 0.79768 0.45664 0.0
H192 H 0.20198 0.78467 0.29264 0.0
H193 H 0.18892 0.78011 0.21212 0.0
H194 H 0.30027 0.82475 0.18327 0.0
H195 H 0.31303 0.82972 0.26374 0.0
H196 H 0.21892 0.80549 0.61329 0.0
H197 H 0.2309 0.80786 0.69393 0.0
H198 H 0.11913 0.76209 0.72087 0.0
H199 H 0.10745 0.75928 0.64024 0.0
Sm200 Sm 0.43346 0.19077 0.8268 0.0
Sm201 Sm 0.40096 0.20685 0.74249 0.0
C202 C 0.46378 0.19402 0.90509 0.0
C203 C 0.45692 0.19483 0.9532 0.0
C204 C 0.42288 0.18468 0.969 0.0
C205 C 0.41682 0.18515 0.01504 0.0
C206 C 0.44472 0.19564 0.04601 0.0
C207 C 0.47884 0.20618 0.02976 0.0
C208 C 0.48486 0.20582 0.98379 0.0
C209 C 0.38362 0.13274 0.78143 0.0
C210 C 0.36459 0.20346 0.83734 0.0
C211 C 0.37426 0.20901 0.66339 0.0
C212 C 0.38029 0.20641 0.61528 0.0
C213 C 0.39293 0.18449 0.59946 0.0
C214 C 0.39846 0.1827 0.55347 0.0
C215 C 0.39159 0.20293 0.52259 0.0
C216 C 0.37888 0.22474 0.5388 0.0
C217 C 0.37331 0.22644 0.58464 0.0
C218 C 0.45214 0.26408 0.78853 0.0
C219 C 0.46562 0.18848 0.73097 0.0
O220 O 0.47017 0.22205 0.88196 0.0
O221 O 0.44334 0.16435 0.88389 0.0
O222 O 0.38227 0.16046 0.78881 0.0
O223 O 0.41065 0.13381 0.80139 0.0
O224 O 0.39195 0.20331 0.85645 0.0
O225 O 0.3596 0.20102 0.79351 0.0
O226 O 0.36246 0.18017 0.68728 0.0
O227 O 0.39823 0.23725 0.68432 0.0
O228 O 0.45268 0.23628 0.77929 0.0
O229 O 0.42413 0.26317 0.77205 0.0
O230 O 0.43795 0.18851 0.71285 0.0
O231 O 0.47297 0.19408 0.77422 0.0
H232 H 0.40099 0.17611 0.94578 0.0
H233 H 0.3902 0.17664 0.02643 0.0
H234 H 0.50101 0.21498 0.05259 0.0
H235 H 0.51136 0.21401 0.9721 0.0
H236 H 0.39861 0.16886 0.62259 0.0
H237 H 0.40859 0.16589 0.54219 0.0
H238 H 0.37278 0.24023 0.51598 0.0
H239 H 0.36345 0.24342 0.5962 0.0
H240 H 0.35655 0.19433 0.92802 0.0
H241 H 0.31721 0.20427 0.97624 0.0
H242 H 0.2767 0.23176 0.86044 0.0
H243 H 0.31511 0.22079 0.81188 0.0
H244 H 0.32144 0.26618 0.98653 0.0
H245 H 0.18643 0.17096 0.92727 0.0
H246 H 0.22451 0.1673 0.9121 0.0
H247 H 0.21442 0.19695 0.8821 0.0
C248 C 0.33886 0.20193 0.91273 0.0
C249 C 0.33901 0.20688 0.86615 0.0
C250 C 0.31629 0.20745 0.94032 0.0
C251 C 0.29359 0.2182 0.9219 0.0
C252 C 0.29317 0.22245 0.8753 0.0
H253 H 0.20053 0.33751 1.00454 0.0
H254 H 0.21705 0.29868 0.96595 0.0
C255 C 0.31544 0.21651 0.8476 0.0
C256 C 0.27378 0.22925 0.95168 0.0
H257 H 0.19282 0.22143 0.96891 0.0
C258 C 0.29317 0.25584 0.98333 0.0
C259 C 0.23693 0.21583 0.94728 0.0
C260 C 0.21433 0.18592 0.91564 0.0
C261 C 0.27711 0.27059 0.00924 0.0
C262 C 0.24058 0.25811 1.00365 0.0
C263 C 0.22084 0.2308 0.97304 0.0
C264 C 0.22357 0.27556 0.02671 0.0
C265 C 0.29971 0.30063 0.04085 0.0
C266 C 0.22035 0.27417 0.07352 0.0
C267 C 0.2111 0.29647 0.09583 0.0
C268 C 0.20493 0.32047 0.07153 0.0
C269 C 0.20546 0.31966 0.02437 0.0
C270 C 0.21473 0.29736 1.00216 0.0
H271 H 0.32843 0.31079 0.03588 0.0
H272 H 0.29448 0.32282 0.03626 0.0
H273 H 0.293 0.29127 0.07597 0.0
H274 H 0.2268 0.25717 0.09289 0.0
H275 H 0.21055 0.2961 0.13214 0.0
H276 H 0.13817 0.37381 0.23689 0.0
H277 H 0.08835 0.34222 0.28858 0.0
H278 H 0.01592 0.30623 0.17663 0.0
H279 H 0.06569 0.33765 0.12484 0.0
H280 H 0.02864 0.35714 0.28867 0.0
H281 H 0.98726 0.21602 0.25817 0.0
H282 H 0.03168 0.25173 0.24733 0.0
H283 H -0.00356 0.24344 0.20934 0.0
C284 C 0.11172 0.35834 0.22334 0.0
C285 C 0.10564 0.35759 0.17704 0.0
C286 C 0.08336 0.34055 0.25281 0.0
C287 C 0.04869 0.32152 0.23618 0.0
C288 C 0.04263 0.32029 0.18987 0.0
H289 H 0.83565 0.21864 0.33025 0.0
H290 H 0.89113 0.2378 0.2899 0.0
C291 C 0.07094 0.33836 0.16046 0.0
C292 C 0.01848 0.30586 0.26728 0.0
H293 H 0.94788 0.2275 0.30018 0.0
C294 C 0.01116 0.3288 0.29178 0.0
C295 C -0.0042 0.26895 0.27058 0.0
C296 C 0.00316 0.24344 0.24524 0.0
C297 C 0.9808 0.31582 0.31843 0.0
C298 C 0.95784 0.2788 0.32164 0.0
C299 C 0.96565 0.25582 0.29781 0.0
C300 C 0.92454 0.26367 0.34746 0.0
C301 C 0.97279 0.34195 0.3411 0.0
C302 C 0.92497 0.27098 0.39338 0.0
C303 C 0.89329 0.26014 0.41621 0.0
C304 C 0.86085 0.24094 0.39374 0.0
C305 C 0.86033 0.23223 0.34845 0.0
C306 C 0.892 0.24351 0.3254 0.0
H307 H 0.98794 0.36872 0.32598 0.0
H308 H 0.94414 0.33311 0.33901 0.0
H309 H 0.98028 0.34423 0.37702 0.0
H310 H 0.9498 0.28591 0.4112 0.0
H311 H 0.8941 0.26718 0.45123 0.0
H312 H 0.75902 0.13666 0.55779 0.0
H313 H 0.7449 0.08494 0.60367 0.0
H314 H 0.73305 0.0242 0.48428 0.0
H315 H 0.74716 0.07573 0.43794 0.0
H316 H 0.67245 -0.00222 0.54635 0.0
H317 H 0.79878 0.02898 0.63005 0.0
H318 H 0.78789 0.06363 0.62915 0.0
H319 H 0.79732 0.04889 0.57753 0.0
C320 C 0.75397 0.11249 0.54125 0.0
C321 C 0.75394 0.11021 0.4942 0.0
C322 C 0.74621 0.08309 0.56755 0.0
C323 C 0.73831 0.05102 0.54723 0.0
C324 C 0.73944 0.04893 0.50043 0.0
H325 H 0.62728 0.83794 0.65667 0.0
H326 H 0.66032 0.88823 0.6067 0.0
C327 C 0.74746 0.07838 0.47407 0.0
C328 C 0.72456 0.01869 0.57448 0.0
H329 H 0.74636 0.97922 0.65731 0.0
C330 C 0.68861 0.99341 0.57027 0.0
C331 C 0.7458 0.01361 0.60588 0.0
C332 C 0.78469 0.04004 0.61093 0.0
C333 C 0.67291 0.96343 0.59769 0.0
C334 C 0.69413 0.95813 0.62915 0.0
C335 C 0.73028 0.98328 0.63295 0.0
C336 C 0.67867 0.92741 0.65969 0.0
C337 C 0.63347 0.93856 0.59395 0.0
C338 C 0.67987 0.93267 0.70623 0.0
C339 C 0.66154 0.90391 0.73496 0.0
C340 C 0.64154 0.86954 0.71745 0.0
C341 C 0.64199 0.8642 0.67104 0.0
C342 C 0.66075 0.89289 0.64244 0.0
H343 H 0.61997 0.95128 0.57716 0.0
H344 H 0.62843 0.91519 0.57365 0.0
H345 H 0.62136 0.92921 0.6275 0.0
H346 H 0.69374 0.95914 0.72017 0.0
H347 H 0.6617 0.90879 0.77061 0.0
H348 H 0.59293 0.69075 0.84352 0.0
H349 H 0.63006 0.68552 0.9009 0.0
H350 H 0.70193 0.79813 0.89567 0.0
H351 H 0.6649 0.80352 0.83767 0.0
H352 H 0.73483 0.75549 0.89374 0.0
H353 H 0.6392 0.719 0.03309 0.0
H354 H 0.61945 0.69327 0.98342 0.0
H355 H 0.63643 0.74025 0.98251 0.0
C356 C 0.61671 0.71436 0.85446 0.0
C357 C 0.62601 0.74756 0.83657 0.0
C358 C 0.63768 0.7114 0.88746 0.0
C359 C 0.66822 0.74157 0.90305 0.0
C360 C 0.67817 0.77467 0.88435 0.0
H361 H 0.75946 0.68619 0.1294 0.0
H362 H 0.74469 0.7244 0.08499 0.0
C363 C 0.65708 0.77767 0.85136 0.0
C364 C 0.69007 0.73778 0.93787 0.0
H365 H 0.68305 0.70104 0.0407 0.0
C366 C 0.72395 0.74436 0.92633 0.0
C367 C 0.67615 0.72419 0.98071 0.0
C368 C 0.64095 0.71912 0.99592 0.0
C369 C 0.74298 0.73459 0.95514 0.0
C370 C 0.7273 0.71735 0.99591 0.0
C371 C 0.69486 0.71384 0.00914 0.0
C372 C 0.74124 0.69822 0.02195 0.0
C373 C 0.77907 0.7416 0.94087 0.0
C374 C 0.74419 0.671 1.00116 0.0
C375 C 0.75242 0.64926 0.02629 0.0
C376 C 0.75759 0.65415 0.07278 0.0
C377 C 0.75558 0.68195 0.09356 0.0
C378 C 0.74728 0.70378 0.06829 0.0
H379 H 0.7925 0.76563 0.91956 0.0
H380 H 0.79616 0.74502 0.97024 0.0
H381 H 0.77608 0.71894 0.92061 0.0
H382 H 0.73859 0.66553 0.96573 0.0
H383 H 0.75355 0.62785 0.00947 0.0
H384 H 0.08623 0.77036 0.43166 0.0
H385 H 0.03546 0.75878 0.38465 0.0
H386 H 0.10568 0.81225 0.27397 0.0
H387 H 0.15633 0.82286 0.32017 0.0
H388 H 0.01399 0.79816 0.33169 0.0
H389 H 0.04538 0.71138 0.22819 0.0
H390 H 0.0666 0.72937 0.28128 0.0
H391 H 0.08034 0.75657 0.23188 0.0
C392 C 0.09086 0.78021 0.39758 0.0
C393 C 0.12506 0.79686 0.37922 0.0
C394 C 0.06189 0.77365 0.37081 0.0
C395 C 0.06686 0.78396 0.3256 0.0
C396 C 0.10129 0.80335 0.30848 0.0
H397 H 0.9083 0.69976 0.11277 0.0
H398 H 0.96209 0.7413 0.15332 0.0
C399 C 0.13015 0.80941 0.33492 0.0
C400 C 0.03602 0.77108 0.29532 0.0
H401 H -0.00404 0.71555 0.20686 0.0
C402 C 0.01013 0.78035 0.30412 0.0
C403 C 0.03109 0.74776 0.25947 0.0
C404 C 0.05711 0.73537 0.24975 0.0
C405 C 0.97909 0.76645 0.27827 0.0
C406 C 0.97387 0.74252 0.2432 0.0
C407 C 0.00028 0.73421 0.23353 0.0
C408 C 0.93983 0.72252 0.21917 0.0
C409 C 0.95199 0.77714 0.28899 0.0
C410 C 0.90947 0.69861 0.24287 0.0
C411 C 0.87885 0.67475 0.2199 0.0
C412 C 0.87812 0.67424 0.17273 0.0
C413 C 0.90803 0.69941 0.14908 0.0
C414 C 0.93874 0.72323 0.17216 0.0
H415 H 0.96426 0.80319 0.30624 0.0
H416 H 0.93844 0.77848 0.25814 0.0
H417 H 0.93174 0.75721 0.31175 0.0
H418 H 0.91 0.69707 0.27909 0.0
H419 H 0.85622 0.65584 0.23919 0.0
H420 H 0.3962 0.0832 0.74523 0.0
H421 H 0.36371 0.04198 0.68452 0.0
H422 H 0.29105 0.08168 0.67899 0.0
H423 H 0.32323 0.12274 0.74071 0.0
H424 H 0.25843 0.00674 0.67685 0.0
H425 H 0.36607 0.07 0.55191 0.0
H426 H 0.38094 0.0615 0.6041 0.0
H427 H 0.36487 0.09222 0.60245 0.0
C428 C 0.37318 0.08301 0.73129 0.0
C429 C 0.36236 0.10633 0.74718 0.0
C430 C 0.35488 0.05973 0.69636 0.0
C431 C 0.32557 0.05947 0.67668 0.0
C432 C 0.31393 0.0819 0.69346 0.0
H433 H 0.24801 0.92629 0.43583 0.0
H434 H 0.26284 0.97678 0.48538 0.0
C435 C 0.33229 0.10527 0.72853 0.0
C436 C 0.30687 0.03495 0.63932 0.0
H437 H 0.32194 0.00919 0.53777 0.0
C438 C 0.27198 0.00758 0.646 0.0
C439 C 0.32438 0.03666 0.59876 0.0
C440 C 0.361 0.06691 0.58859 0.0
C441 C 0.25506 0.98026 0.61449 0.0
C442 C 0.27384 0.98022 0.5759 0.0
C443 C 0.30772 0.00904 0.56766 0.0
C444 C 0.26068 0.94893 0.54636 0.0
C445 C 0.21762 0.95124 0.6234 0.0
C446 C 0.25457 0.91669 0.56432 0.0
C447 C 0.2463 0.88806 0.53624 0.0
C448 C 0.24419 0.89124 0.48965 0.0
C449 C 0.24946 0.92321 0.47168 0.0
C450 C 0.25784 0.95197 0.49987 0.0
H451 H 0.20321 0.96099 0.64432 0.0
H452 H 0.20274 0.94025 0.59166 0.0
H453 H 0.21818 0.92956 0.64205 0.0
H454 H 0.25755 0.91404 0.59994 0.0
H455 H 0.24261 0.86378 0.55096 0.0
H456 H 0.25873 0.49602 0.81383 0.0
H457 H 0.26055 0.4863 0.73318 0.0
H458 H 0.2094 0.37383 0.75544 0.0
H459 H 0.20647 0.38314 0.83576 0.0
H460 H 0.29056 0.45178 0.68418 0.0
H461 H 0.14454 0.38428 0.66407 0.0
H462 H 0.16696 0.40952 0.71349 0.0
H463 H 0.15949 0.36545 0.70627 0.0
C464 C 0.24782 0.4692 0.80155 0.0
C465 C 0.23222 0.44035 0.83128 0.0
C466 C 0.24906 0.46373 0.75551 0.0
C467 C 0.23456 0.42932 0.73829 0.0
C468 C 0.2202 0.40057 0.76797 0.0
H469 H 0.20086 0.33774 0.47245 0.0
H470 H 0.2049 0.34902 0.55317 0.0
C471 C 0.21895 0.406 0.81397 0.0
C472 C 0.23374 0.4234 0.68922 0.0
H473 H 0.17741 0.38427 0.60095 0.0
C474 C 0.26586 0.43715 0.66588 0.0
C475 C 0.20145 0.40434 0.66549 0.0
C476 C 0.16612 0.39029 0.68844 0.0
C477 C 0.26655 0.43166 0.61953 0.0
C478 C 0.23423 0.41247 0.59585 0.0
C479 C 0.20214 0.39888 0.6192 0.0
C480 C 0.23299 0.406 0.54684 0.0
C481 C 0.30183 0.44572 0.59651 0.0
C482 C 0.24718 0.4343 0.51644 0.0
C483 C 0.24513 0.42795 0.47023 0.0
C484 C 0.22864 0.39313 0.45351 0.0
C485 C 0.21425 0.36487 0.48414 0.0
C486 C 0.21633 0.37125 0.5303 0.0
H487 H 0.3234 0.4516 0.62084 0.0
H488 H 0.30093 0.42656 0.5713 0.0
H489 H 0.30849 0.47064 0.57886 0.0
H490 H 0.25955 0.46132 0.52842 0.0
H491 H 0.25669 0.45033 0.44763 0.0
H492 H 0.71111 0.13066 0.09063 0.0
H493 H 0.71244 0.14134 0.01008 0.0
H494 H 0.81689 0.23242 0.02314 0.0
H495 H 0.81629 0.22125 0.10372 0.0
H496 H 0.72003 0.20066 0.96566 0.0
H497 H 0.82946 0.17585 0.92246 0.0
H498 H 0.80676 0.16313 0.97564 0.0
H499 H 0.83992 0.20839 0.96557 0.0
C500 C 0.7346 0.15271 0.07635 0.0
C501 C 0.76376 0.17488 0.10362 0.0
C502 C 0.73519 0.15892 0.03032 0.0
C503 C 0.76496 0.18733 0.01049 0.0
C504 C 0.79391 0.20993 0.03762 0.0
H505 H 0.81359 0.2648 0.73652 0.0
H506 H 0.8142 0.25609 0.8175 0.0
C507 C 0.79335 0.20374 0.08375 0.0
C508 C 0.76527 0.1935 0.96151 0.0
H509 H 0.80822 0.19716 0.8642 0.0
C510 C 0.73925 0.19982 0.94344 0.0
C511 C 0.7904 0.19239 0.93262 0.0
C512 C 0.81806 0.18427 0.94986 0.0
C513 C 0.73791 0.20548 0.8973 0.0
C514 C 0.76291 0.2042 0.86839 0.0
C515 C 0.78908 0.1981 0.88647 0.0
C516 C 0.76237 0.20916 0.81925 0.0
C517 C 0.71012 0.2134 0.87999 0.0
C518 C 0.73322 0.18536 0.79328 0.0
C519 C 0.73271 0.19034 0.74701 0.0
C520 C 0.76142 0.21919 0.7258 0.0
C521 C 0.79082 0.24264 0.75189 0.0
C522 C 0.79132 0.23759 0.79812 0.0
H523 H 0.69892 0.22214 0.90728 0.0
H524 H 0.72122 0.23422 0.8538 0.0
H525 H 0.68814 0.18909 0.86478 0.0
H526 H 0.71085 0.1629 0.80882 0.0
H527 H 0.70959 0.17192 0.72797 0.0
H528 H 0.58337 0.81516 0.49591 0.0
H529 H 0.5923 0.82564 0.41504 0.0
H530 H 0.51781 0.71558 0.38973 0.0
H531 H 0.5089 0.70481 0.47031 0.0
H532 H 0.61626 0.79488 0.35241 0.0
H533 H 0.48047 0.76575 0.31008 0.0
H534 H 0.49703 0.77335 0.3669 0.0
H535 H 0.48186 0.73108 0.34064 0.0
C536 C 0.56898 0.79315 0.47315 0.0
C537 C 0.54522 0.75917 0.48968 0.0
C538 C 0.574 0.79922 0.42693 0.0
C539 C 0.55526 0.77153 0.3963 0.0
C540 C 0.53189 0.73754 0.41267 0.0
H541 H 0.55245 0.75014 0.10605 0.0
H542 H 0.54324 0.74046 0.187 0.0
C543 C 0.52683 0.73144 0.4588 0.0
C544 C 0.56082 0.77793 0.34726 0.0
H545 H 0.51802 0.77215 0.24883 0.0
C546 C 0.59484 0.79013 0.32978 0.0
C547 C 0.53281 0.77163 0.31776 0.0
C548 C 0.49605 0.76004 0.33474 0.0
C549 C 0.60148 0.79552 0.28352 0.0
C550 C 0.57345 0.78907 0.25402 0.0
C551 C 0.53944 0.77695 0.27149 0.0
C552 C 0.57896 0.79508 0.20494 0.0
C553 C 0.63828 0.80733 0.2665 0.0
C554 C 0.60165 0.82908 0.18813 0.0
C555 C 0.60681 0.83475 0.14193 0.0
C556 C 0.58926 0.80653 0.11145 0.0
C557 C 0.56616 0.77253 0.12845 0.0
C558 C 0.56099 0.76691 0.17473 0.0
H559 H 0.65427 0.80248 0.29149 0.0
H560 H 0.63731 0.79346 0.23484 0.0
H561 H 0.652 0.83614 0.25956 0.0
H562 H 0.61516 0.85136 0.21077 0.0
H563 H 0.62418 0.86141 0.13008 0.0
H564 H 0.85154 0.66469 0.77034 0.0
H565 H 0.84121 0.65433 0.68968 0.0
H566 H 0.76893 0.5437 0.71424 0.0
H567 H 0.77935 0.55369 0.79493 0.0
H568 H 0.85249 0.60883 0.63415 0.0
H569 H 0.71105 0.57249 0.63433 0.0
H570 H 0.74008 0.59395 0.68141 0.0
H571 H 0.72166 0.54729 0.67236 0.0
C572 C 0.83358 0.63809 0.75864 0.0
C573 C 0.81619 0.61004 0.78925 0.0
C574 C 0.82759 0.63226 0.7125 0.0
C575 C 0.80393 0.59836 0.69596 0.0
C576 C 0.78671 0.57024 0.7263 0.0
H577 H 0.73279 0.5101 0.42936 0.0
H578 H 0.74437 0.5196 0.50993 0.0
C579 C 0.79268 0.57603 0.77246 0.0
C580 C 0.79785 0.59231 0.64691 0.0
H581 H 0.73394 0.56465 0.56597 0.0
C582 C 0.82661 0.5993 0.61918 0.0
C583 C 0.76404 0.57982 0.62747 0.0
C584 C 0.73246 0.57322 0.65529 0.0
C585 C 0.82237 0.59358 0.57263 0.0
C586 C 0.78857 0.58113 0.55318 0.0
C587 C 0.75981 0.57411 0.58093 0.0
C588 C 0.78244 0.57541 0.50408 0.0
C589 C 0.85395 0.60019 0.54481 0.0
C590 C 0.79981 0.60368 0.47399 0.0
C591 C 0.79315 0.59838 0.42789 0.0
C592 C 0.76875 0.56471 0.41092 0.0
C593 C 0.75143 0.53645 0.44124 0.0
C594 C 0.75813 0.54178 0.48732 0.0
H595 H 0.87517 0.60045 0.56573 0.0
H596 H 0.84627 0.57974 0.51831 0.0
H597 H 0.86505 0.62634 0.52826 0.0
H598 H 0.81808 0.63003 0.48623 0.0
H599 H 0.80648 0.62087 0.40566 0.0
H600 H 0.23047 0.83798 0.76237 0.0
H601 H 0.24172 0.8397 0.84305 0.0
H602 H 0.14815 0.7374 0.85822 0.0
H603 H 0.13728 0.73495 0.7775 0.0
H604 H 0.19864 0.83684 0.91391 0.0
H605 H 0.22341 0.72418 0.92234 0.0
H606 H 0.22325 0.74495 0.87011 0.0
H607 H 0.18222 0.71374 0.89622 0.0
C608 C 0.21254 0.8156 0.78273 0.0
C609 C 0.18302 0.78626 0.76325 0.0
C610 C 0.21889 0.81674 0.82893 0.0
C611 C 0.19607 0.78848 0.85667 0.0
C612 C 0.1665 0.75926 0.83744 0.0
H613 H 0.1884 0.74859 0.14433 0.0
H614 H 0.17614 0.74578 0.06376 0.0
C615 C 0.16009 0.7581 0.79128 0.0
C616 C 0.20268 0.79002 0.90586 0.0
H617 H 0.21842 0.7479 0.99177 0.0
C618 C 0.20313 0.81749 0.9309 0.0
C619 C 0.20839 0.76468 0.92809 0.0
C620 C 0.20964 0.73538 0.90283 0.0
C621 C 0.20861 0.82002 0.97756 0.0
C622 C 0.21445 0.79475 0.99977 0.0
C623 C 0.21388 0.76721 0.97477 0.0
C624 C 0.22171 0.79674 0.0488 0.0
C625 C 0.20735 0.84931 1.00283 0.0
C626 C 0.25159 0.82615 0.06719 0.0
C627 C 0.25858 0.82791 0.11323 0.0
C628 C 0.23595 0.80019 0.14198 0.0
C629 C 0.20614 0.77063 0.12336 0.0
C630 C 0.19921 0.76887 0.07724 0.0
H631 H 0.19331 0.8603 0.98347 0.0
H632 H 0.19401 0.83982 0.03572 0.0
H633 H 0.23477 0.87109 0.00909 0.0
H634 H 0.2697 0.84771 0.04585 0.0
H635 H 0.28159 0.85122 0.12635 0.0
H636 H 0.42069 0.25791 0.46301 0.0
H637 H 0.42834 0.25537 0.38218 0.0
H638 H 0.38506 0.14257 0.39046 0.0
H639 H 0.3763 0.1447 0.47129 0.0
H640 H 0.46786 0.23228 0.33562 0.0
H641 H 0.32545 0.15235 0.2912 0.0
H642 H 0.3405 0.17347 0.34515 0.0
H643 H 0.33983 0.13281 0.33317 0.0
C644 C 0.41242 0.23247 0.44762 0.0
C645 C 0.39757 0.20145 0.47364 0.0
C646 C 0.41703 0.23111 0.40143 0.0
C647 C 0.40676 0.19873 0.38015 0.0
C648 C 0.39256 0.16777 0.40605 0.0
H649 H 0.47095 0.17272 0.11325 0.0
H650 H 0.46167 0.1734 0.19399 0.0
C651 C 0.38796 0.1691 0.45234 0.0
C652 C 0.41149 0.19761 0.33097 0.0
H653 H 0.36661 0.16324 0.23289 0.0
C654 C 0.44573 0.2172 0.31314 0.0
C655 C 0.38252 0.17835 0.30163 0.0
C656 C 0.34494 0.15829 0.31857 0.0
C657 C 0.45187 0.21769 0.26684 0.0
C658 C 0.42304 0.19757 0.23763 0.0
C659 C 0.38872 0.17838 0.25537 0.0
C660 C 0.42797 0.19639 0.18851 0.0
C661 C 0.4891 0.24032 0.24956 0.0
C662 C 0.41124 0.20809 0.15844 0.0
C663 C 0.41641 0.20763 0.11217 0.0
C664 C 0.43837 0.19538 0.09509 0.0
C665 C 0.4545 0.18302 0.12533 0.0
C666 C 0.44922 0.18339 0.17151 0.0
H667 H 0.50618 0.26103 0.27417 0.0
H668 H 0.50092 0.22338 0.24332 0.0
H669 H 0.48927 0.25336 0.21754 0.0
H670 H 0.39461 0.21811 0.17084 0.0
H671 H 0.40378 0.21753 0.08985 0.0
H672 H 0.20066 0.51998 0.15148 0.0
H673 H 0.19905 0.56802 0.19174 0.0
H674 H 0.20053 0.52068 0.3179 0.0
H675 H 0.20234 0.47276 0.27832 0.0
H676 H 0.14708 0.56164 0.25592 0.0
H677 H 0.28225 0.62422 0.32873 0.0
H678 H 0.26864 0.59383 0.28199 0.0
H679 H 0.25605 0.57741 0.33815 0.0
C680 C 0.20082 0.51984 0.18779 0.0
C681 C 0.20176 0.49254 0.21163 0.0
C682 C 0.19985 0.54729 0.21068 0.0
C683 C 0.20017 0.54807 0.25769 0.0
C684 C 0.20091 0.52083 0.28157 0.0
H685 H 0.18995 0.67458 0.47105 0.0
H686 H 0.19306 0.6307 0.42312 0.0
C687 C 0.20176 0.49336 0.25881 0.0
C688 C 0.19873 0.57679 0.28208 0.0
H689 H 0.24364 0.64295 0.35809 0.0
C690 C 0.16828 0.5797 0.27794 0.0
C691 C 0.22649 0.60018 0.31071 0.0
C692 C 0.26037 0.59907 0.31497 0.0
C693 C 0.16429 0.60467 0.30305 0.0
C694 C 0.1918 0.62764 0.33234 0.0
C695 C 0.22255 0.62517 0.33572 0.0
C696 C 0.18889 0.6538 0.36086 0.0
C697 C 0.13019 0.60539 0.29923 0.0
C698 C 0.18559 0.68133 0.34166 0.0
C699 C 0.18357 0.70626 0.36898 0.0
C700 C 0.18526 0.70424 0.41587 0.0
C701 C 0.18854 0.67668 0.435 0.0
C702 C 0.19041 0.65171 0.4077 0.0
H703 H 0.10874 0.5808 0.28375 0.0
H704 H 0.1212 0.60891 0.33268 0.0
H705 H 0.13459 0.628 0.27783 0.0
H706 H 0.18502 0.68378 0.30557 0.0
H707 H 0.18098 0.72724 0.35342 0.0
H708 H 0.67985 0.21347 0.43854 0.0
H709 H 0.63925 0.21009 0.4972 0.0
H710 H 0.61082 0.10202 0.52415 0.0
H711 H 0.65143 0.1052 0.46485 0.0
H712 H 0.55281 0.11366 0.5218 0.0
H713 H 0.65994 0.21031 0.63189 0.0
H714 H 0.66295 0.22674 0.57597 0.0
H715 H 0.66801 0.18885 0.58534 0.0
C716 C 0.66472 0.18891 0.45675 0.0
C717 C 0.66886 0.15968 0.44762 0.0
C718 C 0.6418 0.1871 0.4904 0.0
C719 C 0.6228 0.15611 0.51563 0.0
C720 C 0.62563 0.12628 0.50527 0.0
H721 H 0.5167 0.17297 0.75593 0.0
H722 H 0.55347 0.15979 0.70673 0.0
C723 C 0.64861 0.12806 0.47137 0.0
C724 C 0.59999 0.15531 0.55264 0.0
H725 H 0.60144 0.20034 0.64676 0.0
C726 C 0.56339 0.1322 0.54955 0.0
C727 C 0.61404 0.1789 0.58934 0.0
C728 C 0.65342 0.20233 0.59619 0.0
C729 C 0.54016 0.13362 0.58082 0.0
C730 C 0.554 0.15944 0.61526 0.0
C731 C 0.5908 0.18098 0.6199 0.0
C732 C 0.53082 0.16596 0.64517 0.0
C733 C 0.50106 0.10766 0.57636 0.0
C734 C 0.50632 0.17436 0.62685 0.0
C735 C 0.48517 0.18165 0.65477 0.0
C736 C 0.48856 0.18134 0.70163 0.0
C737 C 0.51353 0.17352 0.71996 0.0
C738 C 0.53447 0.16587 0.69193 0.0
H739 H 0.49625 0.08286 0.55971 0.0
H740 H 0.48776 0.10092 0.60954 0.0
H741 H 0.48872 0.11947 0.55525 0.0
H742 H 0.50386 0.17574 0.59087 0.0
H743 H 0.46644 0.18791 0.63953 0.0
H744 H 0.27285 0.44593 0.04695 0.0
H745 H 0.31642 0.49331 0.9992 0.0
H746 H 0.36731 0.55641 0.11657 0.0
H747 H 0.32357 0.50918 0.16454 0.0
H748 H 0.33063 0.56533 0.99662 0.0
H749 H 0.44856 0.55561 0.04475 0.0
H750 H 0.40383 0.52039 0.05485 0.0
H751 H 0.42344 0.55872 0.09049 0.0
C752 C 0.29333 0.46994 0.06252 0.0
C753 C 0.29483 0.47409 0.10933 0.0
C754 C 0.31818 0.49687 0.03527 0.0
C755 C 0.3452 0.5281 0.05449 0.0
C756 C 0.34691 0.53223 0.10125 0.0
H757 H 0.5188 0.72095 0.94571 0.0
H758 H 0.47633 0.67366 0.99418 0.0
C759 C 0.32192 0.50535 0.12853 0.0
C760 C 0.37096 0.55681 0.02545 0.0
H761 H 0.45851 0.6035 0.99806 0.0
C762 C 0.35859 0.57367 0.99675 0.0
C763 C 0.40734 0.56756 0.02602 0.0
C764 C 0.4217 0.54952 0.05538 0.0
C765 C 0.38183 0.60151 0.96891 0.0
C766 C 0.41823 0.61211 0.96916 0.0
C767 C 0.43058 0.59527 0.99798 0.0
C768 C 0.44392 0.64056 0.93961 0.0
C769 C 0.36731 0.6198 0.94025 0.0
C770 C 0.44004 0.63731 0.89286 0.0
C771 C 0.46411 0.66435 0.86504 0.0
C772 C 0.49274 0.69499 0.88349 0.0
C773 C 0.49697 0.69781 0.93037 0.0
C774 C 0.47276 0.6708 0.95815 0.0
H775 H 0.34149 0.61531 0.95305 0.0
H776 H 0.38607 0.64873 0.93877 0.0
H777 H 0.36308 0.6091 0.90563 0.0
H778 H 0.41843 0.61378 0.87787 0.0
H779 H 0.46025 0.66116 0.82909 0.0
H780 H 0.77843 0.2626 0.27106 0.0
H781 H 0.78865 0.31345 0.22558 0.0
H782 H 0.78503 0.36774 0.3445 0.0
H783 H 0.77481 0.31717 0.39035 0.0
H784 H 0.74223 0.34517 0.22375 0.0
H785 H 0.88038 0.43778 0.27879 0.0
H786 H 0.86001 0.39035 0.28419 0.0
H787 H 0.84867 0.4148 0.32251 0.0
C788 C 0.77992 0.28537 0.28761 0.0
C789 C 0.77587 0.28585 0.33436 0.0
C790 C 0.78573 0.31434 0.26156 0.0
C791 C 0.78797 0.34433 0.28189 0.0
C792 C 0.78382 0.34491 0.32841 0.0
H793 H 0.82042 0.54618 0.19166 0.0
H794 H 0.81383 0.49556 0.23483 0.0
C795 C 0.77779 0.3159 0.35446 0.0
C796 C 0.79365 0.37473 0.25435 0.0
H797 H 0.85278 0.46154 0.23352 0.0
C798 C 0.76644 0.37059 0.22556 0.0
C799 C 0.8252 0.40775 0.25726 0.0
C800 C 0.85544 0.41309 0.28708 0.0
C801 C 0.76965 0.39901 0.2001 0.0
C802 C 0.80131 0.43208 0.20281 0.0
C803 C 0.82859 0.43612 0.2315 0.0
C804 C 0.8064 0.46295 0.17653 0.0
C805 C 0.73874 0.39362 0.17158 0.0
C806 C 0.80516 0.46157 0.12952 0.0
C807 C 0.80851 0.49024 0.1049 0.0
C808 C 0.81352 0.52082 0.12695 0.0
C809 C 0.8161 0.52269 0.17392 0.0
C810 C 0.81249 0.49391 0.19855 0.0
H811 H 0.71362 0.37012 0.18244 0.0
H812 H 0.73538 0.41718 0.17285 0.0
H813 H 0.74359 0.38934 0.13623 0.0
H814 H 0.80135 0.43823 0.11189 0.0
H815 H 0.80676 0.48829 0.06867 0.0
H816 H 0.33386 0.81402 0.47003 0.0
H817 H 0.38415 0.82066 0.51451 0.0
H818 H 0.31909 0.78862 0.63327 0.0
H819 H 0.26927 0.78267 0.58966 0.0
H820 H 0.38267 0.84918 0.64594 0.0
H821 H 0.40143 0.74432 0.56688 0.0
H822 H 0.4024 0.7769 0.52928 0.0
H823 H 0.36211 0.74731 0.55802 0.0
C824 C 0.33023 0.80804 0.50553 0.0
C825 C 0.29763 0.79791 0.52634 0.0
C826 C 0.35893 0.81175 0.53084 0.0
C827 C 0.35523 0.80491 0.57711 0.0
C828 C 0.32252 0.79414 0.59763 0.0
H829 H 0.46926 0.75855 0.77013 0.0
H830 H 0.42906 0.76028 0.71442 0.0
C831 C 0.29404 0.7907 0.57257 0.0
C832 C 0.38543 0.80997 0.60507 0.0
H833 H 0.44084 0.77757 0.62493 0.0
C834 C 0.39562 0.83373 0.64121 0.0
C835 C 0.40207 0.78964 0.59878 0.0
C836 C 0.39137 0.76288 0.5614 0.0
C837 C 0.42121 0.83691 0.67221 0.0
C838 C 0.43761 0.81633 0.6662 0.0
C839 C 0.42824 0.79338 0.62925 0.0
C840 C 0.46237 0.816 0.6998 0.0
C841 C 0.42921 0.86099 0.7122 0.0
C842 C 0.49438 0.84681 0.71009 0.0
C843 C 0.51721 0.84595 0.74234 0.0
C844 C 0.5085 0.81414 0.76411 0.0
C845 C 0.47653 0.7834 0.75372 0.0
C846 C 0.45367 0.78432 0.72183 0.0
H847 H 0.4088 0.86878 0.71699 0.0
H848 H 0.43095 0.84804 0.74336 0.0
H849 H 0.45507 0.88543 0.7071 0.0
H850 H 0.50184 0.87138 0.69288 0.0
H851 H 0.54195 0.86989 0.74949 0.0
H852 H 0.72521 0.51946 0.96266 0.0
H853 H 0.6741 0.47361 0.92245 0.0
H854 H 0.61588 0.43889 0.04649 0.0
H855 H 0.66743 0.48419 0.08738 0.0
H856 H 0.60675 0.38389 0.99701 0.0
H857 H 0.58531 0.4747 0.88987 0.0
H858 H 0.62948 0.48232 0.88437 0.0
H859 H 0.61483 0.48998 0.93749 0.0
C860 C 0.70154 0.50215 0.98147 0.0
C861 C 0.7003 0.50563 0.02821 0.0
C862 C 0.67223 0.4761 0.95834 0.0
C863 C 0.64087 0.45343 0.98129 0.0
C864 C 0.63973 0.45635 0.02807 0.0
H865 H 0.44695 0.31713 0.82968 0.0
H866 H 0.49025 0.3625 0.88044 0.0
C867 C 0.66922 0.48221 0.05138 0.0
C868 C 0.60971 0.42607 0.95643 0.0
H869 H 0.55688 0.41403 0.86594 0.0
C870 C 0.59556 0.39049 0.96867 0.0
C871 C 0.59458 0.43474 0.92009 0.0
C872 C 0.60659 0.47255 0.9075 0.0
C873 C 0.56775 0.36325 0.94428 0.0
C874 C 0.55446 0.37183 0.90592 0.0
C875 C 0.56749 0.40746 0.89492 0.0
C876 C 0.52801 0.34425 0.87578 0.0
C877 C 0.55287 0.32558 0.95998 0.0
C878 C 0.53523 0.31949 0.85569 0.0
C879 C 0.51055 0.29358 0.82708 0.0
C880 C 0.47844 0.29229 0.81752 0.0
C881 C 0.47154 0.3176 0.83662 0.0
C882 C 0.49616 0.3434 0.86562 0.0
H883 H 0.55716 0.32446 0.99654 0.0
H884 H 0.52408 0.30943 0.95288 0.0
H885 H 0.56658 0.31352 0.94226 0.0
H886 H 0.56008 0.32033 0.8619 0.0
H887 H 0.51664 0.27458 0.81234 0.0
loop_
_geom_bond_atom_site_label_1
_geom_bond_atom_site_label_2
_geom_bond_distance
_geom_bond_site_symmetry_2
_ccdc_geom_bond_type
Sm0 C2 2.846 . S
Sm0 O20 2.543 . S
Sm0 O21 2.450 . S
Sm0 O22 2.681 . S
Sm0 O23 2.464 . S
Sm0 O24 2.396 . S
Sm0 O28 2.386 . S
Sm0 O31 2.408 . S
Sm1 C11 2.846 . S
Sm1 O22 2.386 . S
Sm1 O25 2.408 . S
Sm1 O26 2.543 . S
Sm1 O27 2.450 . S
Sm1 O28 2.681 . S
Sm1 O29 2.464 . S
Sm1 O30 2.396 . S
C2 Sm0 2.846 . S
C2 C3 1.506 . S
C2 O20 1.261 . S
C2 O21 1.242 . S
C3 C2 1.506 . S
C3 C4 1.358 1_554 S
C3 C8 1.382 1_554 S
C4 C3 1.358 1_556 S
C4 C5 1.385 . S
C4 H32 0.930 . S
C5 C4 1.385 . S
C5 C6 1.395 . S
C5 H33 0.929 . S
C6 C5 1.395 . S
C6 C7 1.335 . S
C7 C6 1.335 . S
C7 C8 1.398 . S
C7 H34 0.930 . S
C8 C3 1.382 1_556 S
C8 C7 1.398 . S
C8 H35 0.929 1_556 S
C9 O22 1.271 . S
C9 O23 1.251 . S
C10 O24 1.252 . S
C10 O25 1.272 . S
C11 Sm1 2.846 . S
C11 C12 1.506 . S
C11 O26 1.261 . S
C11 O27 1.242 . S
C12 C11 1.506 . S
C12 C13 1.358 . S
C12 C17 1.382 . S
C13 C12 1.358 . S
C13 C14 1.385 . S
C13 H36 0.930 . S
C14 C13 1.385 . S
C14 C15 1.395 . S
C14 H37 0.929 . S
C15 C14 1.395 . S
C15 C16 1.335 . S
C16 C15 1.335 . S
C16 C17 1.398 . S
C16 H38 0.930 . S
C17 C12 1.382 . S
C17 C16 1.398 . S
C17 H39 0.929 . S
C18 O28 1.271 . S
C18 O29 1.251 . S
C19 O30 1.252 . S
C19 O31 1.272 . S
O20 Sm0 2.543 . S
O20 C2 1.261 . S
O21 Sm0 2.450 . S
O21 C2 1.242 . S
O22 Sm0 2.681 . S
O22 Sm1 2.386 . S
O22 C9 1.271 . S
O23 Sm0 2.464 . S
O23 C9 1.251 . S
O24 Sm0 2.396 . S
O24 C10 1.252 . S
O25 Sm1 2.408 . S
O25 C10 1.272 . S
O26 Sm1 2.543 . S
O26 C11 1.261 . S
O27 Sm1 2.450 . S
O27 C11 1.242 . S
O28 Sm0 2.386 . S
O28 Sm1 2.681 . S
O28 C18 1.271 . S
O29 Sm1 2.464 . S
O29 C18 1.251 . S
O30 Sm1 2.396 . S
O30 C19 1.252 . S
O31 Sm0 2.408 . S
O31 C19 1.272 . S
H32 C4 0.930 . S
H33 C5 0.929 . S
H34 C7 0.930 . S
H35 C8 0.929 1_554 S
H36 C13 0.930 . S
H37 C14 0.929 . S
H38 C16 0.930 . S
H39 C17 0.929 . S
Sm40 C42 2.846 . S
Sm40 O60 2.543 . S
Sm40 O61 2.450 . S
Sm40 O62 2.681 . S
Sm40 O63 2.464 . S
Sm40 O64 2.396 . S
Sm40 O68 2.386 . S
Sm40 O71 2.408 . S
Sm41 C51 2.846 . S
Sm41 O62 2.386 . S
Sm41 O65 2.408 . S
Sm41 O66 2.543 . S
Sm41 O67 2.450 . S
Sm41 O68 2.681 . S
Sm41 O69 2.464 . S
Sm41 O70 2.396 . S
C42 Sm40 2.846 . S
C42 C43 1.506 . S
C42 O60 1.261 . S
C42 O61 1.242 . S
C43 C42 1.506 . S
C43 C44 1.358 . S
C43 C48 1.382 . S
C44 C43 1.358 . S
C44 C45 1.385 . S
C44 H72 0.930 . S
C45 C44 1.385 . S
C45 C46 1.395 . S
C45 H73 0.929 . S
C46 C45 1.395 . S
C46 C47 1.335 . S
C47 C46 1.335 . S
C47 C48 1.398 . S
C47 H74 0.930 . S
C48 C43 1.382 . S
C48 C47 1.398 . S
C48 H75 0.929 . S
C49 O62 1.271 . S
C49 O63 1.251 . S
C50 O64 1.252 . S
C50 O65 1.272 . S
C51 Sm41 2.846 . S
C51 C52 1.506 . S
C51 O66 1.261 . S
C51 O67 1.242 . S
C52 C51 1.506 . S
C52 C53 1.358 . S
C52 C57 1.382 . S
C53 C52 1.358 . S
C53 C54 1.385 . S
C53 H76 0.930 . S
C54 C53 1.385 . S
C54 C55 1.395 . S
C54 H77 0.929 . S
C55 C54 1.395 . S
C55 C56 1.335 . S
C56 C55 1.335 . S
C56 C57 1.398 . S
C56 H78 0.930 . S
C57 C52 1.382 . S
C57 C56 1.398 . S
C57 H79 0.929 . S
C58 O68 1.271 . S
C58 O69 1.251 . S
C59 O70 1.252 . S
C59 O71 1.272 . S
O60 Sm40 2.543 . S
O60 C42 1.261 . S
O61 Sm40 2.450 . S
O61 C42 1.242 . S
O62 Sm40 2.681 . S
O62 Sm41 2.386 . S
O62 C49 1.271 . S
O63 Sm40 2.464 . S
O63 C49 1.251 . S
O64 Sm40 2.396 . S
O64 C50 1.252 . S
O65 Sm41 2.408 . S
O65 C50 1.272 . S
O66 Sm41 2.543 . S
O66 C51 1.261 . S
O67 Sm41 2.450 . S
O67 C51 1.242 . S
O68 Sm40 2.386 . S
O68 Sm41 2.681 . S
O68 C58 1.271 . S
O69 Sm41 2.464 . S
O69 C58 1.251 . S
O70 Sm41 2.396 . S
O70 C59 1.252 . S
O71 Sm40 2.408 . S
O71 C59 1.272 . S
H72 C44 0.930 . S
H73 C45 0.929 . S
H74 C47 0.930 . S
H75 C48 0.929 . S
H76 C53 0.930 . S
H77 C54 0.929 . S
H78 C56 0.930 . S
H79 C57 0.929 . S
Sm80 C82 2.846 . S
Sm80 O100 2.543 . S
Sm80 O101 2.450 . S
Sm80 O102 2.681 . S
Sm80 O103 2.464 . S
Sm80 O104 2.396 . S
Sm80 O108 2.386 . S
Sm80 O111 2.408 . S
Sm81 C91 2.846 1_556 S
Sm81 O102 2.386 . S
Sm81 O105 2.408 . S
Sm81 O106 2.543 . S
Sm81 O107 2.450 . S
Sm81 O108 2.681 . S
Sm81 O109 2.464 . S
Sm81 O110 2.396 . S
C82 Sm80 2.846 . S
C82 C83 1.506 . S
C82 O100 1.261 . S
C82 O101 1.242 . S
C83 C82 1.506 . S
C83 C84 1.358 . S
C83 C88 1.382 . S
C84 C83 1.358 . S
C84 C85 1.385 . S
C84 H112 0.930 . S
C85 C84 1.385 . S
C85 C86 1.395 . S
C85 H113 0.929 . S
C86 C85 1.395 . S
C86 C87 1.335 . S
C87 C86 1.335 . S
C87 C88 1.398 . S
C87 H114 0.930 . S
C88 C83 1.382 . S
C88 C87 1.398 . S
C88 H115 0.929 . S
C89 O102 1.271 . S
C89 O103 1.251 . S
C90 O104 1.252 . S
C90 O105 1.272 . S
C91 Sm81 2.846 1_554 S
C91 C92 1.506 . S
C91 O106 1.261 1_554 S
C91 O107 1.242 1_554 S
C92 C91 1.506 . S
C92 C93 1.358 . S
C92 C97 1.382 . S
C93 C92 1.358 . S
C93 C94 1.385 . S
C93 H116 0.930 . S
C94 C93 1.385 . S
C94 C95 1.395 . S
C94 H117 0.929 . S
C95 C94 1.395 . S
C95 C96 1.335 . S
C96 C95 1.335 . S
C96 C97 1.398 . S
C96 H118 0.930 . S
C97 C92 1.382 . S
C97 C96 1.398 . S
C97 H119 0.929 . S
C98 O108 1.271 . S
C98 O109 1.251 . S
C99 O110 1.252 . S
C99 O111 1.272 . S
O100 Sm80 2.543 . S
O100 C82 1.261 . S
O101 Sm80 2.450 . S
O101 C82 1.242 . S
O102 Sm80 2.681 . S
O102 Sm81 2.386 . S
O102 C89 1.271 . S
O103 Sm80 2.464 . S
O103 C89 1.251 . S
O104 Sm80 2.396 . S
O104 C90 1.252 . S
O105 Sm81 2.408 . S
O105 C90 1.272 . S
O106 Sm81 2.543 . S
O106 C91 1.261 1_556 S
O107 Sm81 2.450 . S
O107 C91 1.242 1_556 S
O108 Sm80 2.386 . S
O108 Sm81 2.681 . S
O108 C98 1.271 . S
O109 Sm81 2.464 . S
O109 C98 1.251 . S
O110 Sm81 2.396 . S
O110 C99 1.252 . S
O111 Sm80 2.408 . S
O111 C99 1.272 . S
H112 C84 0.930 . S
H113 C85 0.929 . S
H114 C87 0.930 . S
H115 C88 0.929 . S
H116 C93 0.930 . S
H117 C94 0.929 . S
H118 C96 0.930 . S
H119 C97 0.929 . S
Sm120 C122 2.846 . S
Sm120 O140 2.543 . S
Sm120 O141 2.450 . S
Sm120 O142 2.681 1_554 S
Sm120 O143 2.464 . S
Sm120 O144 2.396 . S
Sm120 O148 2.386 . S
Sm120 O151 2.408 . S
Sm121 C131 2.846 . S
Sm121 O142 2.386 . S
Sm121 O145 2.408 1_556 S
Sm121 O146 2.543 . S
Sm121 O147 2.450 . S
Sm121 O148 2.681 1_556 S
Sm121 O149 2.464 . S
Sm121 O150 2.396 . S
C122 Sm120 2.846 . S
C122 C123 1.506 . S
C122 O140 1.261 . S
C122 O141 1.242 . S
C123 C122 1.506 . S
C123 C124 1.358 . S
C123 C128 1.382 . S
C124 C123 1.358 . S
C124 C125 1.385 . S
C124 H152 0.930 . S
C125 C124 1.385 . S
C125 C126 1.395 . S
C125 H153 0.929 . S
C126 C125 1.395 . S
C126 C127 1.335 . S
C127 C126 1.335 . S
C127 C128 1.398 . S
C127 H154 0.930 . S
C128 C123 1.382 . S
C128 C127 1.398 . S
C128 H155 0.929 . S
C129 O142 1.271 1_554 S
C129 O143 1.251 . S
C130 O144 1.252 . S
C130 O145 1.272 . S
C131 Sm121 2.846 . S
C131 C132 1.506 . S
C131 O146 1.261 . S
C131 O147 1.242 . S
C132 C131 1.506 . S
C132 C133 1.358 . S
C132 C137 1.382 . S
C133 C132 1.358 . S
C133 C134 1.385 . S
C133 H156 0.930 . S
C134 C133 1.385 . S
C134 C135 1.395 . S
C134 H157 0.929 . S
C135 C134 1.395 . S
C135 C136 1.335 . S
C136 C135 1.335 . S
C136 C137 1.398 . S
C136 H158 0.930 . S
C137 C132 1.382 . S
C137 C136 1.398 . S
C137 H159 0.929 . S
C138 O148 1.271 . S
C138 O149 1.251 1_554 S
C139 O150 1.252 . S
C139 O151 1.272 1_556 S
O140 Sm120 2.543 . S
O140 C122 1.261 . S
O141 Sm120 2.450 . S
O141 C122 1.242 . S
O142 Sm120 2.681 1_556 S
O142 Sm121 2.386 . S
O142 C129 1.271 1_556 S
O143 Sm120 2.464 . S
O143 C129 1.251 . S
O144 Sm120 2.396 . S
O144 C130 1.252 . S
O145 Sm121 2.408 1_554 S
O145 C130 1.272 . S
O146 Sm121 2.543 . S
O146 C131 1.261 . S
O147 Sm121 2.450 . S
O147 C131 1.242 . S
O148 Sm120 2.386 . S
O148 Sm121 2.681 1_554 S
O148 C138 1.271 . S
O149 Sm121 2.464 . S
O149 C138 1.251 1_556 S
O150 Sm121 2.396 . S
O150 C139 1.252 . S
O151 Sm120 2.408 . S
O151 C139 1.272 1_554 S
H152 C124 0.930 . S
H153 C125 0.929 . S
H154 C127 0.930 . S
H155 C128 0.929 . S
H156 C133 0.930 . S
H157 C134 0.929 . S
H158 C136 0.930 . S
H159 C137 0.929 . S
Sm160 C162 2.846 . S
Sm160 O180 2.543 . S
Sm160 O181 2.450 . S
Sm160 O182 2.681 . S
Sm160 O183 2.464 . S
Sm160 O184 2.396 . S
Sm160 O188 2.386 . S
Sm160 O191 2.408 . S
Sm161 C171 2.846 . S
Sm161 O182 2.386 . S
Sm161 O185 2.408 . S
Sm161 O186 2.543 . S
Sm161 O187 2.450 . S
Sm161 O188 2.681 . S
Sm161 O189 2.464 . S
Sm161 O190 2.396 . S
C162 Sm160 2.846 . S
C162 C163 1.506 . S
C162 O180 1.261 . S
C162 O181 1.242 . S
C163 C162 1.506 . S
C163 C164 1.358 . S
C163 C168 1.382 . S
C164 C163 1.358 . S
C164 C165 1.385 . S
C164 H192 0.930 . S
C165 C164 1.385 . S
C165 C166 1.395 . S
C165 H193 0.929 . S
C166 C165 1.395 . S
C166 C167 1.335 . S
C167 C166 1.335 . S
C167 C168 1.398 . S
C167 H194 0.930 . S
C168 C163 1.382 . S
C168 C167 1.398 . S
C168 H195 0.929 . S
C169 O182 1.271 . S
C169 O183 1.251 . S
C170 O184 1.252 . S
C170 O185 1.272 . S
C171 Sm161 2.846 . S
C171 C172 1.506 . S
C171 O186 1.261 . S
C171 O187 1.242 . S
C172 C171 1.506 . S
C172 C173 1.358 . S
C172 C177 1.382 . S
C173 C172 1.358 . S
C173 C174 1.385 . S
C173 H196 0.930 . S
C174 C173 1.385 . S
C174 C175 1.395 . S
C174 H197 0.929 . S
C175 C174 1.395 . S
C175 C176 1.335 . S
C176 C175 1.335 . S
C176 C177 1.398 . S
C176 H198 0.930 . S
C177 C172 1.382 . S
C177 C176 1.398 . S
C177 H199 0.929 . S
C178 O188 1.271 . S
C178 O189 1.251 . S
C179 O190 1.252 . S
C179 O191 1.272 . S
O180 Sm160 2.543 . S
O180 C162 1.261 . S
O181 Sm160 2.450 . S
O181 C162 1.242 . S
O182 Sm160 2.681 . S
O182 Sm161 2.386 . S
O182 C169 1.271 . S
O183 Sm160 2.464 . S
O183 C169 1.251 . S
O184 Sm160 2.396 . S
O184 C170 1.252 . S
O185 Sm161 2.408 . S
O185 C170 1.272 . S
O186 Sm161 2.543 . S
O186 C171 1.261 . S
O187 Sm161 2.450 . S
O187 C171 1.242 . S
O188 Sm160 2.386 . S
O188 Sm161 2.681 . S
O188 C178 1.271 . S
O189 Sm161 2.464 . S
O189 C178 1.251 . S
O190 Sm161 2.396 . S
O190 C179 1.252 . S
O191 Sm160 2.408 . S
O191 C179 1.272 . S
H192 C164 0.930 . S
H193 C165 0.929 . S
H194 C167 0.930 . S
H195 C168 0.929 . S
H196 C173 0.930 . S
H197 C174 0.929 . S
H198 C176 0.930 . S
H199 C177 0.929 . S
Sm200 C202 2.846 . S
Sm200 O220 2.543 . S
Sm200 O221 2.450 . S
Sm200 O222 2.681 . S
Sm200 O223 2.464 . S
Sm200 O224 2.396 . S
Sm200 O228 2.386 . S
Sm200 O231 2.408 . S
Sm201 C211 2.846 . S
Sm201 O222 2.386 . S
Sm201 O225 2.408 . S
Sm201 O226 2.543 . S
Sm201 O227 2.450 . S
Sm201 O228 2.681 . S
Sm201 O229 2.464 . S
Sm201 O230 2.396 . S
C202 Sm200 2.846 . S
C202 C203 1.506 . S
C202 O220 1.261 . S
C202 O221 1.242 . S
C203 C202 1.506 . S
C203 C204 1.358 . S
C203 C208 1.382 . S
C204 C203 1.358 . S
C204 C205 1.385 . S
C204 H232 0.930 . S
C205 C204 1.385 . S
C205 C206 1.395 . S
C205 H233 0.929 . S
C206 C205 1.395 . S
C206 C207 1.335 . S
C207 C206 1.335 . S
C207 C208 1.398 . S
C207 H234 0.930 . S
C208 C203 1.382 . S
C208 C207 1.398 . S
C208 H235 0.929 . S
C209 O222 1.271 . S
C209 O223 1.251 . S
C210 O224 1.252 . S
C210 O225 1.272 . S
C211 Sm201 2.846 . S
C211 C212 1.506 . S
C211 O226 1.261 . S
C211 O227 1.242 . S
C212 C211 1.506 . S
C212 C213 1.358 . S
C212 C217 1.382 . S
C213 C212 1.358 . S
C213 C214 1.385 . S
C213 H236 0.930 . S
C214 C213 1.385 . S
C214 C215 1.395 . S
C214 H237 0.929 . S
C215 C214 1.395 . S
C215 C216 1.335 . S
C216 C215 1.335 . S
C216 C217 1.398 . S
C216 H238 0.930 . S
C217 C212 1.382 . S
C217 C216 1.398 . S
C217 H239 0.929 . S
C218 O228 1.271 . S
C218 O229 1.251 . S
C219 O230 1.252 . S
C219 O231 1.272 . S
O220 Sm200 2.543 . S
O220 C202 1.261 . S
O221 Sm200 2.450 . S
O221 C202 1.242 . S
O222 Sm200 2.681 . S
O222 Sm201 2.386 . S
O222 C209 1.271 . S
O223 Sm200 2.464 . S
O223 C209 1.251 . S
O224 Sm200 2.396 . S
O224 C210 1.252 . S
O225 Sm201 2.408 . S
O225 C210 1.272 . S
O226 Sm201 2.543 . S
O226 C211 1.261 . S
O227 Sm201 2.450 . S
O227 C211 1.242 . S
O228 Sm200 2.386 . S
O228 Sm201 2.681 . S
O228 C218 1.271 . S
O229 Sm201 2.464 . S
O229 C218 1.251 . S
O230 Sm201 2.396 . S
O230 C219 1.252 . S
O231 Sm200 2.408 . S
O231 C219 1.272 . S
H232 C204 0.930 . S
H233 C205 0.929 . S
H234 C207 0.930 . S
H235 C208 0.929 . S
H236 C213 0.930 . S
H237 C214 0.929 . S
H238 C216 0.930 . S
H239 C217 0.929 . S
H240 C248 0.929 . S
H241 C250 0.930 . S
H242 C252 0.930 . S
H243 C255 0.929 . S
H244 C258 0.930 . S
H245 C260 0.960 . S
H246 C260 0.960 . S
H247 C260 0.960 . S
C248 H240 0.929 . S
C248 C249 1.377 . S
C248 C250 1.384 . S
C249 C248 1.377 . S
C249 C255 1.390 . S
C250 H241 0.930 . S
C250 C248 1.384 . S
C250 C251 1.372 . S
C251 C250 1.372 . S
C251 C252 1.400 . S
C251 C256 1.490 . S
C252 H242 0.930 . S
C252 C251 1.400 . S
C252 C255 1.386 . S
H253 C269 0.930 . S
H254 C270 0.931 . S
C255 H243 0.929 . S
C255 C249 1.390 . S
C255 C252 1.386 . S
C256 C251 1.490 . S
C256 C258 1.395 . S
C256 C259 1.403 . S
H257 C263 0.930 . S
C258 H244 0.930 . S
C258 C256 1.395 . S
C258 C261 1.403 . S
C259 C256 1.403 . S
C259 C260 1.524 . S
C259 C263 1.400 . S
C260 H245 0.960 . S
C260 H246 0.960 . S
C260 H247 0.960 . S
C260 C259 1.524 . S
C261 C258 1.403 . S
C261 C262 1.392 . S
C261 C265 1.495 . S
C262 C261 1.392 . S
C262 C263 1.385 . S
C262 C264 1.478 1_556 S
C263 H257 0.930 . S
C263 C259 1.400 . S
C263 C262 1.385 . S
C264 C262 1.478 1_554 S
C264 C266 1.381 . S
C264 C270 1.383 . S
C265 C261 1.495 . S
C265 H271 0.959 . S
C265 H272 0.961 . S
C265 H273 0.960 . S
C266 C264 1.381 . S
C266 C267 1.394 . S
C266 H274 0.930 . S
C267 C266 1.394 . S
C267 C268 1.383 . S
C267 H275 0.929 . S
C268 C267 1.383 . S
C268 C269 1.377 . S
C269 H253 0.930 . S
C269 C268 1.377 . S
C269 C270 1.379 . S
C270 H254 0.931 . S
C270 C264 1.383 . S
C270 C269 1.379 . S
H271 C265 0.959 . S
H272 C265 0.961 . S
H273 C265 0.960 . S
H274 C266 0.930 . S
H275 C267 0.929 . S
H276 C284 0.929 . S
H277 C286 0.930 . S
H278 C288 0.930 . S
H279 C291 0.929 . S
H280 C294 0.930 . S
H281 C296 0.960 . S
H282 C296 0.960 . S
H283 C296 0.960 . S
C284 H276 0.929 . S
C284 C285 1.377 . S
C284 C286 1.384 . S
C285 C284 1.377 . S
C285 C291 1.390 . S
C286 H277 0.930 . S
C286 C284 1.384 . S
C286 C287 1.372 . S
C287 C286 1.372 . S
C287 C288 1.400 . S
C287 C292 1.490 . S
C288 H278 0.930 . S
C288 C287 1.400 . S
C288 C291 1.386 . S
H289 C305 0.930 . S
H290 C306 0.931 . S
C291 H279 0.929 . S
C291 C285 1.390 . S
C291 C288 1.386 . S
C292 C287 1.490 . S
C292 C294 1.395 . S
C292 C295 1.403 . S
H293 C299 0.930 . S
C294 H280 0.930 . S
C294 C292 1.395 . S
C294 C297 1.403 1_455 S
C295 C292 1.403 . S
C295 C296 1.524 . S
C295 C299 1.400 1_455 S
C296 H281 0.960 . S
C296 H282 0.960 . S
C296 H283 0.960 . S
C296 C295 1.524 . S
C297 C294 1.403 1_655 S
C297 C298 1.392 . S
C297 C301 1.495 . S
C298 C297 1.392 . S
C298 C299 1.385 . S
C298 C300 1.478 . S
C299 H293 0.930 . S
C299 C295 1.400 1_655 S
C299 C298 1.385 . S
C300 C298 1.478 . S
C300 C302 1.381 . S
C300 C306 1.383 . S
C301 C297 1.495 . S
C301 H307 0.959 . S
C301 H308 0.961 . S
C301 H309 0.960 . S
C302 C300 1.381 . S
C302 C303 1.394 . S
C302 H310 0.930 . S
C303 C302 1.394 . S
C303 C304 1.383 . S
C303 H311 0.929 . S
C304 C303 1.383 . S
C304 C305 1.377 . S
C305 H289 0.930 . S
C305 C304 1.377 . S
C305 C306 1.379 . S
C306 H290 0.931 . S
C306 C300 1.383 . S
C306 C305 1.379 . S
H307 C301 0.959 . S
H308 C301 0.961 . S
H309 C301 0.960 . S
H310 C302 0.930 . S
H311 C303 0.929 . S
H312 C320 0.929 . S
H313 C322 0.930 . S
H314 C324 0.930 . S
H315 C327 0.929 . S
H316 C330 0.930 . S
H317 C332 0.960 . S
H318 C332 0.960 . S
H319 C332 0.960 . S
C320 H312 0.929 . S
C320 C321 1.377 . S
C320 C322 1.384 . S
C321 C320 1.377 . S
C321 C327 1.390 . S
C322 H313 0.930 . S
C322 C320 1.384 . S
C322 C323 1.372 . S
C323 C322 1.372 . S
C323 C324 1.400 . S
C323 C328 1.490 . S
C324 H314 0.930 . S
C324 C323 1.400 . S
C324 C327 1.386 . S
H325 C341 0.930 . S
H326 C342 0.931 . S
C327 H315 0.929 . S
C327 C321 1.390 . S
C327 C324 1.386 . S
C328 C323 1.490 . S
C328 C330 1.395 1_545 S
C328 C331 1.403 . S
H329 C335 0.931 1_545 S
C330 H316 0.930 . S
C330 C328 1.395 1_565 S
C330 C333 1.403 . S
C331 C328 1.403 . S
C331 C332 1.524 . S
C331 C335 1.401 1_545 S
C332 H317 0.960 . S
C332 H318 0.960 . S
C332 H319 0.960 . S
C332 C331 1.524 . S
C333 C330 1.403 . S
C333 C334 1.392 . S
C333 C337 1.495 . S
C334 C333 1.392 . S
C334 C335 1.385 . S
C334 C336 1.478 . S
C335 H329 0.931 1_565 S
C335 C331 1.401 1_565 S
C335 C334 1.385 . S
C336 C334 1.478 . S
C336 C338 1.381 . S
C336 C342 1.383 . S
C337 C333 1.495 . S
C337 H343 0.959 . S
C337 H344 0.961 . S
C337 H345 0.960 . S
C338 C336 1.381 . S
C338 C339 1.394 . S
C338 H346 0.930 . S
C339 C338 1.394 . S
C339 C340 1.383 . S
C339 H347 0.929 . S
C340 C339 1.383 . S
C340 C341 1.377 . S
C341 H325 0.930 . S
C341 C340 1.377 . S
C341 C342 1.379 . S
C342 H326 0.931 . S
C342 C336 1.383 . S
C342 C341 1.379 . S
H343 C337 0.959 . S
H344 C337 0.961 . S
H345 C337 0.960 . S
H346 C338 0.930 . S
H347 C339 0.929 . S
H348 C356 0.929 . S
H349 C358 0.930 . S
H350 C360 0.930 . S
H351 C363 0.929 . S
H352 C366 0.930 . S
H353 C368 0.960 1_554 S
H354 C368 0.960 1_554 S
H355 C368 0.960 . S
C356 H348 0.929 . S
C356 C357 1.377 . S
C356 C358 1.384 . S
C357 C356 1.377 . S
C357 C363 1.390 . S
C358 H349 0.930 . S
C358 C356 1.384 . S
C358 C359 1.372 . S
C359 C358 1.372 . S
C359 C360 1.400 . S
C359 C364 1.490 . S
C360 H350 0.930 . S
C360 C359 1.400 . S
C360 C363 1.386 . S
H361 C377 0.930 . S
H362 C378 0.931 . S
C363 H351 0.929 . S
C363 C357 1.390 . S
C363 C360 1.386 . S
C364 C359 1.490 . S
C364 C366 1.395 . S
C364 C367 1.403 . S
H365 C371 0.930 . S
C366 H352 0.930 . S
C366 C364 1.395 . S
C366 C369 1.403 . S
C367 C364 1.403 . S
C367 C368 1.524 . S
C367 C371 1.400 . S
C368 H353 0.960 1_556 S
C368 H354 0.960 1_556 S
C368 H355 0.960 . S
C368 C367 1.524 . S
C369 C366 1.403 . S
C369 C370 1.392 . S
C369 C373 1.495 . S
C370 C369 1.392 . S
C370 C371 1.385 . S
C370 C372 1.478 . S
C371 H365 0.930 . S
C371 C367 1.400 . S
C371 C370 1.385 . S
C372 C370 1.478 . S
C372 C374 1.381 . S
C372 C378 1.383 . S
C373 C369 1.495 . S
C373 H379 0.959 . S
C373 H380 0.961 . S
C373 H381 0.960 . S
C374 C372 1.381 . S
C374 C375 1.394 . S
C374 H382 0.930 . S
C375 C374 1.394 . S
C375 C376 1.383 . S
C375 H383 0.929 1_556 S
C376 C375 1.383 . S
C376 C377 1.377 . S
C377 H361 0.930 . S
C377 C376 1.377 . S
C377 C378 1.379 . S
C378 H362 0.931 . S
C378 C372 1.383 . S
C378 C377 1.379 . S
H379 C373 0.959 . S
H380 C373 0.961 . S
H381 C373 0.960 . S
H382 C374 0.930 . S
H383 C375 0.929 1_554 S
H384 C392 0.929 . S
H385 C394 0.930 . S
H386 C396 0.930 . S
H387 C399 0.929 . S
H388 C402 0.930 . S
H389 C404 0.960 . S
H390 C404 0.960 . S
H391 C404 0.960 . S
C392 H384 0.929 . S
C392 C393 1.377 . S
C392 C394 1.384 . S
C393 C392 1.377 . S
C393 C399 1.390 . S
C394 H385 0.930 . S
C394 C392 1.384 . S
C394 C395 1.372 . S
C395 C394 1.372 . S
C395 C396 1.400 . S
C395 C400 1.490 . S
C396 H386 0.930 . S
C396 C395 1.400 . S
C396 C399 1.386 . S
H397 C413 0.930 . S
H398 C414 0.966 . S
C399 H387 0.929 . S
C399 C393 1.390 . S
C399 C396 1.386 . S
C400 C395 1.490 . S
C400 C402 1.395 . S
C400 C403 1.403 . S
H401 C407 0.930 . S
C402 H388 0.930 . S
C402 C400 1.395 . S
C402 C405 1.403 1_455 S
C403 C400 1.403 . S
C403 C404 1.524 . S
C403 C407 1.400 1_455 S
C404 H389 0.960 . S
C404 H390 0.960 . S
C404 H391 0.960 . S
C404 C403 1.524 . S
C405 C402 1.403 1_655 S
C405 C406 1.392 . S
C405 C409 1.495 . S
C406 C405 1.392 . S
C406 C407 1.385 . S
C406 C408 1.478 . S
C407 H401 0.930 . S
C407 C403 1.400 1_655 S
C407 C406 1.385 . S
C408 C406 1.478 . S
C408 C410 1.381 . S
C408 C414 1.383 . S
C409 C405 1.495 . S
C409 H415 0.959 . S
C409 H416 0.961 . S
C409 H417 0.960 . S
C410 C408 1.381 . S
C410 C411 1.394 . S
C410 H418 0.930 . S
C411 C410 1.394 . S
C411 C412 1.383 . S
C411 H419 0.929 . S
C412 C411 1.383 . S
C412 C413 1.377 . S
C413 H397 0.930 . S
C413 C412 1.377 . S
C413 C414 1.379 . S
C414 H398 0.966 . S
C414 C408 1.383 . S
C414 C413 1.379 . S
H415 C409 0.959 . S
H416 C409 0.961 . S
H417 C409 0.960 . S
H418 C410 0.930 . S
H419 C411 0.929 . S
H420 C428 0.929 . S
H421 C430 0.930 . S
H422 C432 0.930 . S
H423 C435 0.929 . S
H424 C438 0.930 . S
H425 C440 0.960 . S
H426 C440 0.960 . S
H427 C440 0.960 . S
C428 H420 0.929 . S
C428 C429 1.377 . S
C428 C430 1.384 . S
C429 C428 1.377 . S
C429 C435 1.390 . S
C430 H421 0.930 . S
C430 C428 1.384 . S
C430 C431 1.372 . S
C431 C430 1.372 . S
C431 C432 1.400 . S
C431 C436 1.490 . S
C432 H422 0.930 . S
C432 C431 1.400 . S
C432 C435 1.386 . S
H433 C449 0.930 . S
H434 C450 0.931 . S
C435 H423 0.929 . S
C435 C429 1.390 . S
C435 C432 1.386 . S
C436 C431 1.490 . S
C436 C438 1.395 . S
C436 C439 1.403 . S
H437 C443 0.930 . S
C438 H424 0.930 . S
C438 C436 1.395 . S
C438 C441 1.403 1_545 S
C439 C436 1.403 . S
C439 C440 1.524 . S
C439 C443 1.400 1_545 S
C440 H425 0.960 . S
C440 H426 0.960 . S
C440 H427 0.960 . S
C440 C439 1.524 . S
C441 C438 1.403 1_565 S
C441 C442 1.392 . S
C441 C445 1.495 . S
C442 C441 1.392 . S
C442 C443 1.385 . S
C442 C444 1.478 . S
C443 H437 0.930 . S
C443 C439 1.400 1_565 S
C443 C442 1.385 . S
C444 C442 1.478 . S
C444 C446 1.381 . S
C444 C450 1.383 . S
C445 C441 1.495 . S
C445 H451 0.959 . S
C445 H452 0.961 . S
C445 H453 0.960 . S
C446 C444 1.381 . S
C446 C447 1.394 . S
C446 H454 0.930 . S
C447 C446 1.394 . S
C447 C448 1.383 . S
C447 H455 0.929 . S
C448 C447 1.383 . S
C448 C449 1.377 . S
C449 H433 0.930 . S
C449 C448 1.377 . S
C449 C450 1.379 . S
C450 H434 0.931 . S
C450 C444 1.383 . S
C450 C449 1.379 . S
H451 C445 0.959 . S
H452 C445 0.961 . S
H453 C445 0.960 . S
H454 C446 0.930 . S
H455 C447 0.929 . S
H456 C464 0.929 . S
H457 C466 0.930 . S
H458 C468 0.930 . S
H459 C471 0.929 . S
H460 C474 0.930 . S
H461 C476 0.960 . S
H462 C476 0.960 . S
H463 C476 0.960 . S
C464 H456 0.929 . S
C464 C465 1.377 . S
C464 C466 1.384 . S
C465 C464 1.377 . S
C465 C471 1.390 . S
C466 H457 0.930 . S
C466 C464 1.384 . S
C466 C467 1.372 . S
C467 C466 1.372 . S
C467 C468 1.400 . S
C467 C472 1.490 . S
C468 H458 0.930 . S
C468 C467 1.400 . S
C468 C471 1.386 . S
H469 C485 0.930 . S
H470 C486 0.931 . S
C471 H459 0.929 . S
C471 C465 1.390 . S
C471 C468 1.386 . S
C472 C467 1.490 . S
C472 C474 1.395 . S
C472 C475 1.403 . S
H473 C479 0.930 . S
C474 H460 0.930 . S
C474 C472 1.395 . S
C474 C477 1.403 . S
C475 C472 1.403 . S
C475 C476 1.524 . S
C475 C479 1.400 . S
C476 H461 0.960 . S
C476 H462 0.960 . S
C476 H463 0.960 . S
C476 C475 1.524 . S
C477 C474 1.403 . S
C477 C478 1.392 . S
C477 C481 1.495 . S
C478 C477 1.392 . S
C478 C479 1.385 . S
C478 C480 1.478 . S
C479 H473 0.930 . S
C479 C475 1.400 . S
C479 C478 1.385 . S
C480 C478 1.478 . S
C480 C482 1.381 . S
C480 C486 1.383 . S
C481 C477 1.495 . S
C481 H487 0.959 . S
C481 H488 0.961 . S
C481 H489 0.960 . S
C482 C480 1.381 . S
C482 C483 1.394 . S
C482 H490 0.930 . S
C483 C482 1.394 . S
C483 C484 1.383 . S
C483 H491 0.929 . S
C484 C483 1.383 . S
C484 C485 1.377 . S
C485 H469 0.930 . S
C485 C484 1.377 . S
C485 C486 1.379 . S
C486 H470 0.931 . S
C486 C480 1.383 . S
C486 C485 1.379 . S
H487 C481 0.959 . S
H488 C481 0.961 . S
H489 C481 0.960 . S
H490 C482 0.930 . S
H491 C483 0.929 . S
H492 C500 0.929 . S
H493 C502 0.930 . S
H494 C504 0.930 . S
H495 C507 0.929 . S
H496 C510 0.930 . S
H497 C512 0.960 . S
H498 C512 0.960 . S
H499 C512 0.960 . S
C500 H492 0.929 . S
C500 C501 1.377 . S
C500 C502 1.384 1_554 S
C501 C500 1.377 . S
C501 C507 1.390 . S
C502 H493 0.930 . S
C502 C500 1.384 1_556 S
C502 C503 1.372 . S
C503 C502 1.372 . S
C503 C504 1.400 . S
C503 C508 1.490 . S
C504 H494 0.930 . S
C504 C503 1.400 . S
C504 C507 1.386 1_556 S
H505 C521 0.930 . S
H506 C522 0.931 . S
C507 H495 0.929 . S
C507 C501 1.390 . S
C507 C504 1.386 1_554 S
C508 C503 1.490 . S
C508 C510 1.395 . S
C508 C511 1.403 . S
H509 C515 0.930 . S
C510 H496 0.930 . S
C510 C508 1.395 . S
C510 C513 1.403 . S
C511 C508 1.403 . S
C511 C512 1.524 . S
C511 C515 1.400 . S
C512 H497 0.960 . S
C512 H498 0.960 . S
C512 H499 0.960 . S
C512 C511 1.524 . S
C513 C510 1.403 . S
C513 C514 1.392 . S
C513 C517 1.495 . S
C514 C513 1.392 . S
C514 C515 1.385 . S
C514 C516 1.478 . S
C515 H509 0.930 . S
C515 C511 1.400 . S
C515 C514 1.385 . S
C516 C514 1.478 . S
C516 C518 1.381 . S
C516 C522 1.383 . S
C517 C513 1.495 . S
C517 H523 0.959 . S
C517 H524 0.961 . S
C517 H525 0.960 . S
C518 C516 1.381 . S
C518 C519 1.394 . S
C518 H526 0.930 . S
C519 C518 1.394 . S
C519 C520 1.383 . S
C519 H527 0.929 . S
C520 C519 1.383 . S
C520 C521 1.377 . S
C521 H505 0.930 . S
C521 C520 1.377 . S
C521 C522 1.379 . S
C522 H506 0.931 . S
C522 C516 1.383 . S
C522 C521 1.379 . S
H523 C517 0.959 . S
H524 C517 0.961 . S
H525 C517 0.960 . S
H526 C518 0.930 . S
H527 C519 0.929 . S
H528 C536 0.929 . S
H529 C538 0.930 . S
H530 C540 0.930 . S
H531 C543 0.929 . S
H532 C546 0.930 . S
H533 C548 0.960 . S
H534 C548 0.960 . S
H535 C548 0.960 . S
C536 H528 0.929 . S
C536 C537 1.377 . S
C536 C538 1.384 . S
C537 C536 1.377 . S
C537 C543 1.390 . S
C538 H529 0.930 . S
C538 C536 1.384 . S
C538 C539 1.372 . S
C539 C538 1.372 . S
C539 C540 1.400 . S
C539 C544 1.490 . S
C540 H530 0.930 . S
C540 C539 1.400 . S
C540 C543 1.386 . S
H541 C557 0.930 . S
H542 C558 0.931 . S
C543 H531 0.929 . S
C543 C537 1.390 . S
C543 C540 1.386 . S
C544 C539 1.490 . S
C544 C546 1.395 . S
C544 C547 1.403 . S
H545 C551 0.930 . S
C546 H532 0.930 . S
C546 C544 1.395 . S
C546 C549 1.403 . S
C547 C544 1.403 . S
C547 C548 1.524 . S
C547 C551 1.400 . S
C548 H533 0.960 . S
C548 H534 0.960 . S
C548 H535 0.960 . S
C548 C547 1.524 . S
C549 C546 1.403 . S
C549 C550 1.392 . S
C549 C553 1.495 . S
C550 C549 1.392 . S
C550 C551 1.385 . S
C550 C552 1.478 . S
C551 H545 0.930 . S
C551 C547 1.400 . S
C551 C550 1.385 . S
C552 C550 1.478 . S
C552 C554 1.381 . S
C552 C558 1.383 . S
C553 C549 1.495 . S
C553 H559 0.959 . S
C553 H560 0.961 . S
C553 H561 0.960 . S
C554 C552 1.381 . S
C554 C555 1.394 . S
C554 H562 0.930 . S
C555 C554 1.394 . S
C555 C556 1.383 . S
C555 H563 0.929 . S
C556 C555 1.383 . S
C556 C557 1.377 . S
C557 H541 0.930 . S
C557 C556 1.377 . S
C557 C558 1.379 . S
C558 H542 0.931 . S
C558 C552 1.383 . S
C558 C557 1.379 . S
H559 C553 0.959 . S
H560 C553 0.961 . S
H561 C553 0.960 . S
H562 C554 0.930 . S
H563 C555 0.929 . S
H564 C572 0.929 . S
H565 C574 0.930 . S
H566 C576 0.930 . S
H567 C579 0.929 . S
H568 C582 0.930 . S
H569 C584 0.960 . S
H570 C584 0.960 . S
H571 C584 0.960 . S
C572 H564 0.929 . S
C572 C573 1.377 . S
C572 C574 1.384 . S
C573 C572 1.377 . S
C573 C579 1.390 . S
C574 H565 0.930 . S
C574 C572 1.384 . S
C574 C575 1.372 . S
C575 C574 1.372 . S
C575 C576 1.400 . S
C575 C580 1.490 . S
C576 H566 0.930 . S
C576 C575 1.400 . S
C576 C579 1.386 . S
H577 C593 0.930 . S
H578 C594 0.931 . S
C579 H567 0.929 . S
C579 C573 1.390 . S
C579 C576 1.386 . S
C580 C575 1.490 . S
C580 C582 1.395 . S
C580 C583 1.403 . S
H581 C587 0.930 . S
C582 H568 0.930 . S
C582 C580 1.395 . S
C582 C585 1.403 . S
C583 C580 1.403 . S
C583 C584 1.524 . S
C583 C587 1.400 . S
C584 H569 0.960 . S
C584 H570 0.960 . S
C584 H571 0.960 . S
C584 C583 1.524 . S
C585 C582 1.403 . S
C585 C586 1.392 . S
C585 C589 1.495 . S
C586 C585 1.392 . S
C586 C587 1.385 . S
C586 C588 1.478 . S
C587 H581 0.930 . S
C587 C583 1.400 . S
C587 C586 1.385 . S
C588 C586 1.478 . S
C588 C590 1.381 . S
C588 C594 1.383 . S
C589 C585 1.495 . S
C589 H595 0.959 . S
C589 H596 0.961 . S
C589 H597 0.960 . S
C590 C588 1.381 . S
C590 C591 1.394 . S
C590 H598 0.930 . S
C591 C590 1.394 . S
C591 C592 1.383 . S
C591 H599 0.929 . S
C592 C591 1.383 . S
C592 C593 1.377 . S
C593 H577 0.930 . S
C593 C592 1.377 . S
C593 C594 1.379 . S
C594 H578 0.931 . S
C594 C588 1.383 . S
C594 C593 1.379 . S
H595 C589 0.959 . S
H596 C589 0.961 . S
H597 C589 0.960 . S
H598 C590 0.930 . S
H599 C591 0.929 . S
H600 C608 0.929 . S
H601 C610 0.930 . S
H602 C612 0.930 . S
H603 C615 0.929 . S
H604 C618 0.930 1_556 S
H605 C620 0.960 1_554 S
H606 C620 0.960 . S
H607 C620 0.960 . S
C608 H600 0.929 . S
C608 C609 1.377 . S
C608 C610 1.384 . S
C609 C608 1.377 . S
C609 C615 1.390 . S
C610 H601 0.930 . S
C610 C608 1.384 . S
C610 C611 1.372 . S
C611 C610 1.372 . S
C611 C612 1.400 . S
C611 C616 1.490 . S
C612 H602 0.930 . S
C612 C611 1.400 . S
C612 C615 1.386 . S
H613 C629 0.930 . S
H614 C630 0.931 . S
C615 H603 0.929 . S
C615 C609 1.390 . S
C615 C612 1.386 . S
C616 C611 1.490 . S
C616 C618 1.395 1_556 S
C616 C619 1.403 1_556 S
H617 C623 0.930 . S
C618 H604 0.930 1_554 S
C618 C616 1.395 1_554 S
C618 C621 1.403 . S
C619 C616 1.403 1_554 S
C619 C620 1.524 1_554 S
C619 C623 1.400 . S
C620 H605 0.960 1_556 S
C620 H606 0.960 . S
C620 H607 0.960 . S
C620 C619 1.524 1_556 S
C621 C618 1.403 . S
C621 C622 1.392 . S
C621 C625 1.495 . S
C622 C621 1.392 . S
C622 C623 1.385 . S
C622 C624 1.478 . S
C623 H617 0.930 . S
C623 C619 1.400 . S
C623 C622 1.385 . S
C624 C622 1.478 . S
C624 C626 1.381 . S
C624 C630 1.383 . S
C625 C621 1.495 . S
C625 H631 0.959 . S
C625 H632 0.961 . S
C625 H633 0.960 . S
C626 C624 1.381 . S
C626 C627 1.394 . S
C626 H634 0.930 . S
C627 C626 1.394 . S
C627 C628 1.383 . S
C627 H635 0.929 . S
C628 C627 1.383 . S
C628 C629 1.377 . S
C629 H613 0.930 . S
C629 C628 1.377 . S
C629 C630 1.379 . S
C630 H614 0.931 . S
C630 C624 1.383 . S
C630 C629 1.379 . S
H631 C625 0.959 . S
H632 C625 0.961 . S
H633 C625 0.960 . S
H634 C626 0.930 . S
H635 C627 0.929 . S
H636 C644 0.929 . S
H637 C646 0.930 . S
H638 C648 0.930 . S
H639 C651 0.929 . S
H640 C654 0.930 . S
H641 C656 0.960 . S
H642 C656 0.960 . S
H643 C656 0.960 . S
C644 H636 0.929 . S
C644 C645 1.377 . S
C644 C646 1.384 . S
C645 C644 1.377 . S
C645 C651 1.390 . S
C646 H637 0.930 . S
C646 C644 1.384 . S
C646 C647 1.372 . S
C647 C646 1.372 . S
C647 C648 1.400 . S
C647 C652 1.490 . S
C648 H638 0.930 . S
C648 C647 1.400 . S
C648 C651 1.386 . S
H649 C665 0.930 . S
H650 C666 0.931 . S
C651 H639 0.929 . S
C651 C645 1.390 . S
C651 C648 1.386 . S
C652 C647 1.490 . S
C652 C654 1.395 . S
C652 C655 1.403 . S
H653 C659 0.930 . S
C654 H640 0.930 . S
C654 C652 1.395 . S
C654 C657 1.403 . S
C655 C652 1.403 . S
C655 C656 1.524 . S
C655 C659 1.400 . S
C656 H641 0.960 . S
C656 H642 0.960 . S
C656 H643 0.960 . S
C656 C655 1.524 . S
C657 C654 1.403 . S
C657 C658 1.392 . S
C657 C661 1.495 . S
C658 C657 1.392 . S
C658 C659 1.385 . S
C658 C660 1.478 . S
C659 H653 0.930 . S
C659 C655 1.400 . S
C659 C658 1.385 . S
C660 C658 1.478 . S
C660 C662 1.381 . S
C660 C666 1.383 . S
C661 C657 1.495 . S
C661 H667 0.959 . S
C661 H668 0.961 . S
C661 H669 0.960 . S
C662 C660 1.381 . S
C662 C663 1.394 . S
C662 H670 0.930 . S
C663 C662 1.394 . S
C663 C664 1.383 . S
C663 H671 0.929 . S
C664 C663 1.383 . S
C664 C665 1.377 . S
C665 H649 0.930 . S
C665 C664 1.377 . S
C665 C666 1.379 . S
C666 H650 0.931 . S
C666 C660 1.383 . S
C666 C665 1.379 . S
H667 C661 0.959 . S
H668 C661 0.961 . S
H669 C661 0.960 . S
H670 C662 0.930 . S
H671 C663 0.929 . S
H672 C680 0.929 . S
H673 C682 0.930 . S
H674 C684 0.930 . S
H675 C687 0.929 . S
H676 C690 0.930 . S
H677 C692 0.960 . S
H678 C692 0.960 . S
H679 C692 0.960 . S
C680 H672 0.929 . S
C680 C681 1.377 . S
C680 C682 1.384 . S
C681 C680 1.377 . S
C681 C687 1.390 . S
C682 H673 0.930 . S
C682 C680 1.384 . S
C682 C683 1.372 . S
C683 C682 1.372 . S
C683 C684 1.400 . S
C683 C688 1.490 . S
C684 H674 0.930 . S
C684 C683 1.400 . S
C684 C687 1.386 . S
H685 C701 0.930 . S
H686 C702 0.931 . S
C687 H675 0.929 . S
C687 C681 1.390 . S
C687 C684 1.386 . S
C688 C683 1.490 . S
C688 C690 1.395 . S
C688 C691 1.403 . S
H689 C695 0.930 . S
C690 H676 0.930 . S
C690 C688 1.395 . S
C690 C693 1.403 . S
C691 C688 1.403 . S
C691 C692 1.524 . S
C691 C695 1.400 . S
C692 H677 0.960 . S
C692 H678 0.960 . S
C692 H679 0.960 . S
C692 C691 1.524 . S
C693 C690 1.403 . S
C693 C694 1.392 . S
C693 C697 1.495 . S
C694 C693 1.392 . S
C694 C695 1.385 . S
C694 C696 1.478 . S
C695 H689 0.930 . S
C695 C691 1.400 . S
C695 C694 1.385 . S
C696 C694 1.478 . S
C696 C698 1.381 . S
C696 C702 1.383 . S
C697 C693 1.495 . S
C697 H703 0.959 . S
C697 H704 0.961 . S
C697 H705 0.960 . S
C698 C696 1.381 . S
C698 C699 1.394 . S
C698 H706 0.930 . S
C699 C698 1.394 . S
C699 C700 1.383 . S
C699 H707 0.929 . S
C700 C699 1.383 . S
C700 C701 1.377 . S
C701 H685 0.930 . S
C701 C700 1.377 . S
C701 C702 1.379 . S
C702 H686 0.931 . S
C702 C696 1.383 . S
C702 C701 1.379 . S
H703 C697 0.959 . S
H704 C697 0.961 . S
H705 C697 0.960 . S
H706 C698 0.930 . S
H707 C699 0.929 . S
H708 C716 0.929 . S
H709 C718 0.930 . S
H710 C720 0.930 . S
H711 C723 0.929 . S
H712 C726 0.930 . S
H713 C728 0.960 . S
H714 C728 0.960 . S
H715 C728 0.960 . S
C716 H708 0.929 . S
C716 C717 1.377 . S
C716 C718 1.384 . S
C717 C716 1.377 . S
C717 C723 1.390 . S
C718 H709 0.930 . S
C718 C716 1.384 . S
C718 C719 1.372 . S
C719 C718 1.372 . S
C719 C720 1.400 . S
C719 C724 1.490 . S
C720 H710 0.930 . S
C720 C719 1.400 . S
C720 C723 1.386 . S
H721 C737 0.930 . S
H722 C738 0.931 . S
C723 H711 0.929 . S
C723 C717 1.390 . S
C723 C720 1.386 . S
C724 C719 1.490 . S
C724 C726 1.395 . S
C724 C727 1.403 . S
H725 C731 0.930 . S
C726 H712 0.930 . S
C726 C724 1.395 . S
C726 C729 1.403 . S
C727 C724 1.403 . S
C727 C728 1.524 . S
C727 C731 1.400 . S
C728 H713 0.960 . S
C728 H714 0.960 . S
C728 H715 0.960 . S
C728 C727 1.524 . S
C729 C726 1.403 . S
C729 C730 1.392 . S
C729 C733 1.495 . S
C730 C729 1.392 . S
C730 C731 1.385 . S
C730 C732 1.478 . S
C731 H725 0.930 . S
C731 C727 1.400 . S
C731 C730 1.385 . S
C732 C730 1.478 . S
C732 C734 1.381 . S
C732 C738 1.383 . S
C733 C729 1.495 . S
C733 H739 0.959 . S
C733 H740 0.961 . S
C733 H741 0.960 . S
C734 C732 1.381 . S
C734 C735 1.394 . S
C734 H742 0.930 . S
C735 C734 1.394 . S
C735 C736 1.383 . S
C735 H743 0.929 . S
C736 C735 1.383 . S
C736 C737 1.377 . S
C737 H721 0.930 . S
C737 C736 1.377 . S
C737 C738 1.379 . S
C738 H722 0.931 . S
C738 C732 1.383 . S
C738 C737 1.379 . S
H739 C733 0.959 . S
H740 C733 0.961 . S
H741 C733 0.960 . S
H742 C734 0.930 . S
H743 C735 0.929 . S
H744 C752 0.929 . S
H745 C754 0.930 . S
H746 C756 0.930 . S
H747 C759 0.929 . S
H748 C762 0.930 . S
H749 C764 0.960 . S
H750 C764 0.960 . S
H751 C764 0.960 . S
C752 H744 0.929 . S
C752 C753 1.377 . S
C752 C754 1.384 . S
C753 C752 1.377 . S
C753 C759 1.390 . S
C754 H745 0.930 . S
C754 C752 1.384 . S
C754 C755 1.372 . S
C755 C754 1.372 . S
C755 C756 1.400 . S
C755 C760 1.490 . S
C756 H746 0.930 . S
C756 C755 1.400 . S
C756 C759 1.386 . S
H757 C773 0.932 . S
H758 C774 0.931 . S
C759 H747 0.929 . S
C759 C753 1.390 . S
C759 C756 1.386 . S
C760 C755 1.490 . S
C760 C762 1.395 . S
C760 C763 1.403 . S
H761 C767 0.930 . S
C762 H748 0.930 . S
C762 C760 1.395 . S
C762 C765 1.403 . S
C763 C760 1.403 . S
C763 C764 1.524 . S
C763 C767 1.400 . S
C764 H749 0.960 . S
C764 H750 0.960 . S
C764 H751 0.960 . S
C764 C763 1.524 . S
C765 C762 1.403 . S
C765 C766 1.392 . S
C765 C769 1.495 . S
C766 C765 1.392 . S
C766 C767 1.385 . S
C766 C768 1.478 . S
C767 H761 0.930 . S
C767 C763 1.400 . S
C767 C766 1.385 . S
C768 C766 1.478 . S
C768 C770 1.381 1_554 S
C768 C774 1.383 . S
C769 C765 1.495 . S
C769 H775 0.959 . S
C769 H776 0.961 . S
C769 H777 0.960 1_554 S
C770 C768 1.381 1_556 S
C770 C771 1.394 . S
C770 H778 0.930 . S
C771 C770 1.394 . S
C771 C772 1.383 . S
C771 H779 0.929 . S
C772 C771 1.383 . S
C772 C773 1.371 1_556 S
C773 H757 0.932 . S
C773 C772 1.371 1_554 S
C773 C774 1.382 . S
C774 H758 0.931 . S
C774 C768 1.383 . S
C774 C773 1.382 . S
H775 C769 0.959 . S
H776 C769 0.961 . S
H777 C769 0.960 1_556 S
H778 C770 0.930 . S
H779 C771 0.929 . S
H780 C788 0.929 . S
H781 C790 0.930 . S
H782 C792 0.930 . S
H783 C795 0.929 . S
H784 C798 0.930 . S
H785 C800 0.960 . S
H786 C800 0.960 . S
H787 C800 0.960 . S
C788 H780 0.929 . S
C788 C789 1.377 . S
C788 C790 1.384 . S
C789 C788 1.377 . S
C789 C795 1.390 . S
C790 H781 0.930 . S
C790 C788 1.384 . S
C790 C791 1.372 . S
C791 C790 1.372 . S
C791 C792 1.400 . S
C791 C796 1.490 . S
C792 H782 0.930 . S
C792 C791 1.400 . S
C792 C795 1.386 . S
H793 C809 0.930 . S
H794 C810 0.931 . S
C795 H783 0.929 . S
C795 C789 1.390 . S
C795 C792 1.386 . S
C796 C791 1.490 . S
C796 C798 1.395 . S
C796 C799 1.403 . S
H797 C803 0.930 . S
C798 H784 0.930 . S
C798 C796 1.395 . S
C798 C801 1.403 . S
C799 C796 1.403 . S
C799 C800 1.524 . S
C799 C803 1.400 . S
C800 H785 0.960 . S
C800 H786 0.960 . S
C800 H787 0.960 . S
C800 C799 1.524 . S
C801 C798 1.403 . S
C801 C802 1.392 . S
C801 C805 1.495 . S
C802 C801 1.392 . S
C802 C803 1.385 . S
C802 C804 1.478 . S
C803 H797 0.930 . S
C803 C799 1.400 . S
C803 C802 1.385 . S
C804 C802 1.478 . S
C804 C806 1.381 . S
C804 C810 1.383 . S
C805 C801 1.495 . S
C805 H811 0.959 . S
C805 H812 0.961 . S
C805 H813 0.960 . S
C806 C804 1.381 . S
C806 C807 1.394 . S
C806 H814 0.930 . S
C807 C806 1.394 . S
C807 C808 1.383 . S
C807 H815 0.929 . S
C808 C807 1.383 . S
C808 C809 1.377 . S
C809 H793 0.930 . S
C809 C808 1.377 . S
C809 C810 1.379 . S
C810 H794 0.931 . S
C810 C804 1.383 . S
C810 C809 1.379 . S
H811 C805 0.959 . S
H812 C805 0.961 . S
H813 C805 0.960 . S
H814 C806 0.930 . S
H815 C807 0.929 . S
H816 C824 0.929 . S
H817 C826 0.930 . S
H818 C828 0.930 . S
H819 C831 0.929 . S
H820 C834 0.930 . S
H821 C836 0.960 . S
H822 C836 0.960 . S
H823 C836 0.960 . S
C824 H816 0.929 . S
C824 C825 1.377 . S
C824 C826 1.384 . S
C825 C824 1.377 . S
C825 C831 1.390 . S
C826 H817 0.930 . S
C826 C824 1.384 . S
C826 C827 1.372 . S
C827 C826 1.372 . S
C827 C828 1.400 . S
C827 C832 1.490 . S
C828 H818 0.930 . S
C828 C827 1.400 . S
C828 C831 1.386 . S
H829 C845 0.930 . S
H830 C846 0.931 . S
C831 H819 0.929 . S
C831 C825 1.390 . S
C831 C828 1.386 . S
C832 C827 1.490 . S
C832 C834 1.395 . S
C832 C835 1.403 . S
H833 C839 0.930 . S
C834 H820 0.930 . S
C834 C832 1.395 . S
C834 C837 1.403 . S
C835 C832 1.403 . S
C835 C836 1.524 . S
C835 C839 1.400 . S
C836 H821 0.960 . S
C836 H822 0.960 . S
C836 H823 0.960 . S
C836 C835 1.524 . S
C837 C834 1.403 . S
C837 C838 1.392 . S
C837 C841 1.495 . S
C838 C837 1.392 . S
C838 C839 1.385 . S
C838 C840 1.478 . S
C839 H833 0.930 . S
C839 C835 1.400 . S
C839 C838 1.385 . S
C840 C838 1.478 . S
C840 C842 1.381 . S
C840 C846 1.383 . S
C841 C837 1.495 . S
C841 H847 0.959 . S
C841 H848 0.961 . S
C841 H849 0.960 . S
C842 C840 1.381 . S
C842 C843 1.394 . S
C842 H850 0.930 . S
C843 C842 1.394 . S
C843 C844 1.383 . S
C843 H851 0.929 . S
C844 C843 1.383 . S
C844 C845 1.377 . S
C845 H829 0.930 . S
C845 C844 1.377 . S
C845 C846 1.379 . S
C846 H830 0.931 . S
C846 C840 1.383 . S
C846 C845 1.379 . S
H847 C841 0.959 . S
H848 C841 0.961 . S
H849 C841 0.960 . S
H850 C842 0.930 . S
H851 C843 0.929 . S
H852 C860 0.929 . S
H853 C862 0.930 . S
H854 C864 0.930 . S
H855 C867 0.929 . S
H856 C870 0.930 . S
H857 C872 0.960 . S
H858 C872 0.960 . S
H859 C872 0.960 . S
C860 H852 0.929 . S
C860 C861 1.377 . S
C860 C862 1.384 . S
C861 C860 1.377 . S
C861 C867 1.390 . S
C862 H853 0.930 . S
C862 C860 1.384 . S
C862 C863 1.372 . S
C863 C862 1.372 . S
C863 C864 1.400 . S
C863 C868 1.490 . S
C864 H854 0.930 . S
C864 C863 1.400 . S
C864 C867 1.386 . S
H865 C881 0.930 . S
H866 C882 0.931 . S
C867 H855 0.929 . S
C867 C861 1.390 . S
C867 C864 1.386 . S
C868 C863 1.490 . S
C868 C870 1.395 . S
C868 C871 1.403 . S
H869 C875 0.930 . S
C870 H856 0.930 . S
C870 C868 1.395 . S
C870 C873 1.403 . S
C871 C868 1.403 . S
C871 C872 1.524 . S
C871 C875 1.400 . S
C872 H857 0.960 . S
C872 H858 0.960 . S
C872 H859 0.960 . S
C872 C871 1.524 . S
C873 C870 1.403 . S
C873 C874 1.392 . S
C873 C877 1.495 . S
C874 C873 1.392 . S
C874 C875 1.385 . S
C874 C876 1.478 . S
C875 H869 0.930 . S
C875 C871 1.400 . S
C875 C874 1.385 . S
C876 C874 1.478 . S
C876 C878 1.381 . S
C876 C882 1.383 . S
C877 C873 1.495 . S
C877 H883 0.959 . S
C877 H884 0.961 . S
C877 H885 0.960 . S
C878 C876 1.381 . S
C878 C879 1.394 . S
C878 H886 0.930 . S
C879 C878 1.394 . S
C879 C880 1.383 . S
C879 H887 0.929 . S
C880 C879 1.383 . S
C880 C881 1.377 . S
C881 H865 0.930 . S
C881 C880 1.377 . S
C881 C882 1.379 . S
C882 H866 0.931 . S
C882 C876 1.383 . S
C882 C881 1.379 . S
H883 C877 0.959 . S
H884 C877 0.961 . S
H885 C877 0.960 . S
H886 C878 0.930 . S
H887 C879 0.929 . S
C249 C210 1.664 . S
C268 C10 1.659 . S
C285 C9 1.392 . S
C304 C49 1.348 . S
C321 C50 1.664 . S
C340 C90 1.658 . S
C357 C89 1.387 . S
C376 C129 1.382 1_556 S
C393 C170 1.668 . S
C412 C130 1.661 . S
C429 C209 1.381 . S
C448 C169 1.396 . S
C465 C6 1.061 . S
C484 C15 1.079 . S
C501 C55 1.062 . S
C520 C46 1.057 . S
C537 C86 1.056 . S
C556 C95 1.031 . S
C573 C135 1.057 . S
C592 C126 1.034 . S
C609 C175 1.052 . S
C628 C166 1.050 . S
C645 C215 1.062 . S
C664 C206 1.068 1_554 S
C681 C19 1.774 . S
C700 C178 1.796 . S
C717 C58 1.797 . S
C736 C219 1.785 . S
C753 C18 1.798 . S
C772 C99 1.762 . S
C789 C59 1.778 . S
C808 C138 1.791 . S
C825 C179 1.774 . S
C844 C98 1.792 . S
C861 C139 1.777 . S
C880 C218 1.795 . S
