# Generated by pormake.
# Topology vmd, (6)-cn, num edge types: 1
# Building blocks:
#     Node 0, Type 0, BuildingBlock: IZENUY_clean_sbu_0, # of connection points: 6
#     Node 1, Type 0, BuildingBlock: IZENUY_clean_sbu_0, # of connection points: 6
#     Node 2, Type 0, BuildingBlock: IZENUY_clean_sbu_0, # of connection points: 6
#     Node 3, Type 0, BuildingBlock: IZENUY_clean_sbu_0, # of connection points: 6
#     Node 4, Type 0, BuildingBlock: IZENUY_clean_sbu_0, # of connection points: 6
#     Node 5, Type 0, BuildingBlock: IZENUY_clean_sbu_0, # of connection points: 6
#     Node 6, Type 0, BuildingBlock: IZENUY_clean_sbu_0, # of connection points: 6
#     Node 7, Type 0, BuildingBlock: IZENUY_clean_sbu_0, # of connection points: 6
#     Edge 8, Type (0, 0), BuildingBlock: ZUJKAS_clean_linker_0, # of connection points: 2
#     Edge 9, Type (0, 0), BuildingBlock: ZUJKAS_clean_linker_0, # of connection points: 2
#     Edge 10, Type (0, 0), BuildingBlock: ZUJKAS_clean_linker_0, # of connection points: 2
#     Edge 11, Type (0, 0), BuildingBlock: ZUJKAS_clean_linker_0, # of connection points: 2
#     Edge 12, Type (0, 0), BuildingBlock: ZUJKAS_clean_linker_0, # of connection points: 2
#     Edge 13, Type (0, 0), BuildingBlock: ZUJKAS_clean_linker_0, # of connection points: 2
#     Edge 14, Type (0, 0), BuildingBlock: ZUJKAS_clean_linker_0, # of connection points: 2
#     Edge 15, Type (0, 0), BuildingBlock: ZUJKAS_clean_linker_0, # of connection points: 2
#     Edge 16, Type (0, 0), BuildingBlock: ZUJKAS_clean_linker_0, # of connection points: 2
#     Edge 17, Type (0, 0), BuildingBlock: ZUJKAS_clean_linker_0, # of connection points: 2
#     Edge 18, Type (0, 0), BuildingBlock: ZUJKAS_clean_linker_0, # of connection points: 2
#     Edge 19, Type (0, 0), BuildingBlock: ZUJKAS_clean_linker_0, # of connection points: 2
#     Edge 20, Type (0, 0), BuildingBlock: ZUJKAS_clean_linker_0, # of connection points: 2
#     Edge 21, Type (0, 0), BuildingBlock: ZUJKAS_clean_linker_0, # of connection points: 2
#     Edge 22, Type (0, 0), BuildingBlock: ZUJKAS_clean_linker_0, # of connection points: 2
#     Edge 23, Type (0, 0), BuildingBlock: ZUJKAS_clean_linker_0, # of connection points: 2
#     Edge 24, Type (0, 0), BuildingBlock: ZUJKAS_clean_linker_0, # of connection points: 2
#     Edge 25, Type (0, 0), BuildingBlock: ZUJKAS_clean_linker_0, # of connection points: 2
#     Edge 26, Type (0, 0), BuildingBlock: ZUJKAS_clean_linker_0, # of connection points: 2
#     Edge 27, Type (0, 0), BuildingBlock: ZUJKAS_clean_linker_0, # of connection points: 2
#     Edge 28, Type (0, 0), BuildingBlock: ZUJKAS_clean_linker_0, # of connection points: 2
#     Edge 29, Type (0, 0), BuildingBlock: ZUJKAS_clean_linker_0, # of connection points: 2
#     Edge 30, Type (0, 0), BuildingBlock: ZUJKAS_clean_linker_0, # of connection points: 2
#     Edge 31, Type (0, 0), BuildingBlock: ZUJKAS_clean_linker_0, # of connection points: 2
# Relax obj value: 0.251
# Max RMSD: 0.249
# Mean RMSD: 0.249
data_MOF--net-vmd--node1-IZENUY_clean_sbu_0--edge1-ZUJKAS_clean_linker_0
_symmetry_space_group_name_H-M    P1
_symmetry_Int_Tables_number       1
_symmetry_cell_setting            triclinic
loop_
_symmetry_equiv_pos_as_xyz
'x, y, z'
_cell_length_a     60.991292
_cell_length_b     34.017653
_cell_length_c     36.510613
_cell_angle_alpha  90.002506
_cell_angle_beta   98.23181
_cell_angle_gamma 90.013848
loop_
_atom_site_label
_atom_site_type_symbol
_atom_site_fract_x
_atom_site_fract_y
_atom_site_fract_z
_atom_type_partial_charge
Fe0 Fe 0.16122 0.43646 0.26212 0.0
Fe1 Fe 0.16411 0.36047 0.30701 0.0
O2 O 0.17504 0.39207 0.27571 0.0
Fe3 Fe 0.19977 0.37965 0.25831 0.0
O4 O 0.21362 0.4241 0.27704 0.0
O5 O 0.18646 0.46387 0.25577 0.0
O6 O 0.16519 0.4541 0.30921 0.0
C7 C 0.15871 0.43625 0.33591 0.0
C8 C 0.17217 0.41231 0.19623 0.0
O9 O 0.15272 0.40052 0.3327 0.0
C10 C 0.18111 0.30715 0.25721 0.0
O11 O 0.13333 0.41756 0.26596 0.0
O12 O 0.1383 0.35438 0.27595 0.0
O13 O 0.19122 0.4028 0.21273 0.0
O14 O 0.15675 0.42108 0.21436 0.0
C15 C 0.20796 0.35552 0.33371 0.0
O16 O 0.17414 0.31466 0.28762 0.0
O17 O 0.18777 0.33454 0.23835 0.0
C18 C 0.1257 0.38282 0.26532 0.0
O19 O 0.18893 0.36494 0.34001 0.0
O20 O 0.21245 0.3539 0.30084 0.0
C21 C 0.2066 0.45834 0.26891 0.0
Fe22 Fe 0.85372 0.43732 0.23731 0.0
Fe23 Fe 0.85115 0.36236 0.19089 0.0
O24 O 0.83966 0.39367 0.22179 0.0
Fe25 Fe 0.81412 0.38197 0.23679 0.0
O26 O 0.80145 0.42746 0.21818 0.0
O27 O 0.82861 0.46537 0.243 0.0
O28 O 0.85091 0.45616 0.19065 0.0
C29 C 0.85768 0.43861 0.164 0.0
C30 C 0.84085 0.41184 0.30133 0.0
O31 O 0.8635 0.40276 0.16693 0.0
C32 C 0.83206 0.30867 0.23799 0.0
O33 O 0.88162 0.4179 0.2346 0.0
O34 O 0.87628 0.35507 0.2234 0.0
O35 O 0.82196 0.40355 0.28337 0.0
O36 O 0.85693 0.4205 0.28462 0.0
C37 C 0.80763 0.35992 0.16074 0.0
O38 O 0.84017 0.31643 0.20862 0.0
O39 O 0.82479 0.33584 0.25636 0.0
C40 C 0.889 0.38304 0.23497 0.0
O41 O 0.82719 0.36798 0.15638 0.0
O42 O 0.80206 0.35799 0.19291 0.0
C43 C 0.8087 0.46109 0.22805 0.0
Fe44 Fe 0.81433 0.63098 0.73583 0.0
Fe45 Fe 0.85137 0.65129 0.69026 0.0
O46 O 0.84008 0.61987 0.72131 0.0
Fe47 Fe 0.8545 0.57678 0.73746 0.0
O48 O 0.82953 0.548 0.74271 0.0
O49 O 0.80215 0.58514 0.71727 0.0
O50 O 0.8023 0.65459 0.69171 0.0
C51 C 0.80797 0.65251 0.65963 0.0
C52 C 0.84087 0.60202 0.80094 0.0
O53 O 0.82759 0.64461 0.65555 0.0
C54 C 0.88923 0.63231 0.73513 0.0
O55 O 0.82461 0.67736 0.75531 0.0
O56 O 0.83984 0.697 0.7075 0.0
O57 O 0.85719 0.59393 0.78463 0.0
O58 O 0.82202 0.60971 0.78256 0.0
C59 C 0.85892 0.5751 0.66428 0.0
O60 O 0.87626 0.65965 0.72288 0.0
O61 O 0.88229 0.59717 0.73527 0.0
C62 C 0.83172 0.70465 0.73688 0.0
O63 O 0.86429 0.61117 0.66688 0.0
O64 O 0.85225 0.55752 0.691 0.0
C65 C 0.80962 0.55174 0.7275 0.0
Fe66 Fe 0.16019 0.57857 0.76173 0.0
Fe67 Fe 0.20007 0.63347 0.76259 0.0
O68 O 0.17434 0.62218 0.77714 0.0
Fe69 Fe 0.16273 0.6541 0.80741 0.0
O70 O 0.14977 0.6144 0.83125 0.0
O71 O 0.16223 0.56036 0.8085 0.0
O72 O 0.18538 0.54995 0.75752 0.0
C73 C 0.20532 0.55446 0.77236 0.0
C74 C 0.12515 0.63386 0.7624 0.0
O75 O 0.21256 0.58822 0.78183 0.0
C76 C 0.18227 0.70683 0.76019 0.0
O77 O 0.15764 0.5946 0.71425 0.0
O78 O 0.19268 0.61125 0.71623 0.0
O79 O 0.13795 0.66158 0.77431 0.0
O80 O 0.13226 0.59878 0.76302 0.0
C81 C 0.20603 0.65621 0.83847 0.0
O82 O 0.18951 0.6793 0.74224 0.0
O83 O 0.17417 0.6996 0.78966 0.0
C84 C 0.17394 0.60272 0.69792 0.0
O85 O 0.21182 0.65796 0.80644 0.0
O86 O 0.18639 0.64826 0.84247 0.0
C87 C 0.1551 0.57837 0.83456 0.0
Fe88 Fe 0.66118 0.93674 0.26446 0.0
Fe89 Fe 0.66407 0.86117 0.31015 0.0
O90 O 0.67527 0.89283 0.27917 0.0
Fe91 Fe 0.70049 0.88085 0.26314 0.0
O92 O 0.71365 0.92593 0.28169 0.0
O93 O 0.68635 0.96481 0.25901 0.0
O94 O 0.66405 0.95506 0.31134 0.0
C95 C 0.65742 0.93699 0.33782 0.0
C96 C 0.67352 0.91211 0.19962 0.0
O97 O 0.65192 0.90105 0.33478 0.0
C98 C 0.68216 0.80792 0.26181 0.0
O99 O 0.63332 0.91706 0.2672 0.0
O100 O 0.63872 0.85413 0.27811 0.0
O101 O 0.69243 0.90311 0.21701 0.0
O102 O 0.65768 0.92075 0.21686 0.0
C103 C 0.7077 0.85811 0.33906 0.0
O104 O 0.67486 0.81547 0.29189 0.0
O105 O 0.68924 0.83513 0.24327 0.0
C106 C 0.62596 0.88215 0.2668 0.0
O107 O 0.6883 0.86662 0.3441 0.0
O108 O 0.71284 0.85619 0.30659 0.0
C109 C 0.70647 0.95985 0.27269 0.0
Fe110 Fe 0.35414 0.93626 0.23507 0.0
Fe111 Fe 0.35144 0.8599 0.1906 0.0
O112 O 0.34006 0.89215 0.22088 0.0
Fe113 Fe 0.31465 0.88069 0.23663 0.0
O114 O 0.30172 0.92565 0.21746 0.0
O115 O 0.329 0.96465 0.2399 0.0
O116 O 0.3514 0.95373 0.18794 0.0
C117 C 0.35808 0.93518 0.16179 0.0
C118 C 0.3415 0.91286 0.30006 0.0
O119 O 0.36372 0.89935 0.16554 0.0
C120 C 0.33262 0.80738 0.23894 0.0
O121 O 0.38202 0.91642 0.23293 0.0
O122 O 0.37665 0.85332 0.22309 0.0
O123 O 0.32265 0.90345 0.28265 0.0
O124 O 0.35743 0.92109 0.28286 0.0
C125 C 0.30785 0.85712 0.16096 0.0
O126 O 0.34054 0.81455 0.20933 0.0
O127 O 0.32551 0.83497 0.25701 0.0
C128 C 0.38936 0.88149 0.23413 0.0
O129 O 0.32739 0.86483 0.15622 0.0
O130 O 0.30241 0.85578 0.19326 0.0
C131 C 0.30894 0.95964 0.22602 0.0
Fe132 Fe 0.31375 0.13363 0.73481 0.0
Fe133 Fe 0.3518 0.15528 0.69145 0.0
O134 O 0.33963 0.12272 0.72055 0.0
Fe135 Fe 0.3535 0.07865 0.7354 0.0
O136 O 0.32819 0.0503 0.73927 0.0
O137 O 0.3013 0.08876 0.71452 0.0
O138 O 0.30229 0.15901 0.69141 0.0
C139 C 0.30862 0.15955 0.65978 0.0
C140 C 0.33967 0.10227 0.79923 0.0
O141 O 0.32828 0.15187 0.65587 0.0
C142 C 0.38912 0.13269 0.73599 0.0
O143 O 0.32411 0.17919 0.75614 0.0
O144 O 0.34084 0.20042 0.71047 0.0
O145 O 0.35608 0.0942 0.78311 0.0
O146 O 0.32092 0.11045 0.7808 0.0
C147 C 0.35842 0.07976 0.66249 0.0
O148 O 0.37658 0.16104 0.72504 0.0
O149 O 0.38159 0.09794 0.73427 0.0
C150 C 0.33198 0.20701 0.73931 0.0
O151 O 0.36417 0.11562 0.66645 0.0
O152 O 0.35133 0.06133 0.68836 0.0
C153 C 0.30839 0.05492 0.7239 0.0
Fe154 Fe 0.66351 0.15209 0.8102 0.0
Fe155 Fe 0.66094 0.07733 0.76353 0.0
O156 O 0.67498 0.1209 0.77921 0.0
Fe157 Fe 0.70046 0.13291 0.76411 0.0
O158 O 0.71241 0.15715 0.80795 0.0
O159 O 0.68749 0.14619 0.84465 0.0
O160 O 0.65103 0.11173 0.83391 0.0
C161 C 0.65665 0.0758 0.83672 0.0
C162 C 0.68216 0.20583 0.76291 0.0
O163 O 0.66355 0.05831 0.81015 0.0
C164 C 0.67397 0.10305 0.69968 0.0
O165 O 0.6384 0.1596 0.7777 0.0
O166 O 0.63302 0.09684 0.76601 0.0
O167 O 0.68943 0.1788 0.74438 0.0
O168 O 0.67457 0.19803 0.79271 0.0
C169 C 0.70614 0.05389 0.77289 0.0
O170 O 0.65782 0.09431 0.71618 0.0
O171 O 0.69284 0.11103 0.71773 0.0
C172 C 0.62566 0.13172 0.76593 0.0
O173 O 0.68616 0.04934 0.75823 0.0
O174 O 0.71333 0.08762 0.78263 0.0
C175 C 0.70696 0.15485 0.84019 0.0
H176 H 0.26951 0.13494 0.61964 0.0
H177 H 0.25159 0.16365 0.56073 0.0
H178 H 0.30037 0.25641 0.57131 0.0
H179 H 0.31837 0.22749 0.62909 0.0
H180 H 0.23354 0.23645 0.54095 0.0
H181 H 0.30664 0.21017 0.4708 0.0
H182 H 0.30354 0.18794 0.51465 0.0
H183 H 0.31392 0.23739 0.51285 0.0
C184 C 0.27605 0.16178 0.60945 0.0
C185 C 0.29524 0.17911 0.62847 0.0
C186 C 0.26598 0.17797 0.57585 0.0
C187 C 0.27509 0.21149 0.56117 0.0
C188 C 0.29349 0.22989 0.58152 0.0
H189 H 0.21587 0.3809 0.40457 0.0
H190 H 0.23296 0.34347 0.45835 0.0
C191 C 0.30359 0.21364 0.61465 0.0
C192 C 0.26571 0.22764 0.52459 0.0
H193 H 0.28062 0.25844 0.44261 0.0
C194 C 0.24372 0.24081 0.51923 0.0
C195 C 0.27883 0.2324 0.49587 0.0
C196 C 0.30196 0.2158 0.49864 0.0
C197 C 0.23488 0.26063 0.48673 0.0
C198 C 0.24866 0.26851 0.45943 0.0
C199 C 0.27024 0.25328 0.46389 0.0
C200 C 0.24107 0.29314 0.42651 0.0
C201 C 0.21084 0.27281 0.48206 0.0
C202 C 0.24163 0.27869 0.39058 0.0
C203 C 0.23255 0.3007 0.3597 0.0
C204 C 0.22266 0.33729 0.36447 0.0
C205 C 0.2234 0.35273 0.40028 0.0
C206 C 0.23283 0.3311 0.43098 0.0
H207 H 0.2011 0.25362 0.49835 0.0
H208 H 0.20963 0.30332 0.49233 0.0
H209 H 0.20323 0.27177 0.45257 0.0
H210 H 0.24815 0.24965 0.38646 0.0
H211 H 0.23185 0.28793 0.33237 0.0
H212 H 0.73983 0.21014 0.84215 0.0
H213 H 0.75767 0.24523 0.89717 0.0
H214 H 0.72416 0.1702 0.96663 0.0
H215 H 0.70615 0.13545 0.91198 0.0
H216 H 0.71715 0.24977 0.97736 0.0
H217 H 0.80677 0.2174 0.98205 0.0
H218 H 0.79322 0.23508 0.93821 0.0
H219 H 0.78544 0.18833 0.95529 0.0
C220 C 0.73684 0.20036 0.86924 0.0
C221 C 0.72159 0.17013 0.87281 0.0
C222 C 0.74699 0.22048 0.90064 0.0
C223 C 0.74221 0.21028 0.93597 0.0
C224 C 0.728 0.17861 0.93963 0.0
H225 H 0.77437 0.30534 0.15833 0.0
H226 H 0.75639 0.27088 0.10304 0.0
C227 C 0.7178 0.15871 0.90839 0.0
C228 C 0.75034 0.2346 0.96878 0.0
H229 H 0.79715 0.26652 0.02299 0.0
C230 C 0.73464 0.25334 0.98747 0.0
C231 C 0.77313 0.23926 0.98175 0.0
C232 C 0.79066 0.21872 0.96354 0.0
C233 C 0.74116 0.27707 0.01858 0.0
C234 C 0.76396 0.2817 0.03158 0.0
C235 C 0.77965 0.26298 0.01286 0.0
C236 C 0.77209 0.30581 0.06453 0.0
C237 C 0.72363 0.29761 0.03678 0.0
C238 C 0.78649 0.33729 0.06112 0.0
C239 C 0.79678 0.3568 0.09252 0.0
C240 C 0.7929 0.34519 0.12801 0.0
C241 C 0.77743 0.31524 0.13132 0.0
C242 C 0.7672 0.29549 0.09976 0.0
H243 H 0.70757 0.29917 0.01815 0.0
H244 H 0.72093 0.28106 0.06194 0.0
H245 H 0.72891 0.3279 0.0453 0.0
H246 H 0.79041 0.3458 0.03421 0.0
H247 H 0.80858 0.37988 0.08913 0.0
H248 H 0.70782 0.87772 0.41099 0.0
H249 H 0.72589 0.84244 0.46525 0.0
H250 H 0.75797 0.76632 0.39475 0.0
H251 H 0.74005 0.80194 0.34008 0.0
H252 H 0.71806 0.76289 0.47572 0.0
H253 H 0.80791 0.79261 0.4791 0.0
H254 H 0.78674 0.8225 0.45292 0.0
H255 H 0.79383 0.77554 0.43539 0.0
C256 C 0.71919 0.85412 0.40708 0.0
C257 C 0.72254 0.84255 0.37131 0.0
C258 C 0.72942 0.83391 0.4381 0.0
C259 C 0.74323 0.80177 0.43405 0.0
C260 C 0.74761 0.79142 0.39852 0.0
H261 H 0.80903 0.63196 0.58818 0.0
H262 H 0.7911 0.6658 0.53293 0.0
C263 C 0.73743 0.81185 0.36732 0.0
C264 C 0.7513 0.77718 0.46672 0.0
H265 H 0.79802 0.74444 0.52063 0.0
C266 C 0.73555 0.75892 0.48565 0.0
C267 C 0.77408 0.77197 0.47945 0.0
C268 C 0.79167 0.79191 0.46092 0.0
C269 C 0.74199 0.73523 0.51682 0.0
C270 C 0.76478 0.73017 0.52968 0.0
C271 C 0.78053 0.74832 0.51065 0.0
C272 C 0.77284 0.70628 0.56285 0.0
C273 C 0.72438 0.71524 0.53525 0.0
C274 C 0.76793 0.71698 0.59798 0.0
C275 C 0.778 0.69733 0.62972 0.0
C276 C 0.79335 0.66713 0.62671 0.0
C277 C 0.79729 0.6552 0.59134 0.0
C278 C 0.78714 0.6746 0.55975 0.0
H279 H 0.70833 0.71361 0.5166 0.0
H280 H 0.72953 0.685 0.54417 0.0
H281 H 0.7217 0.73225 0.56016 0.0
H282 H 0.75721 0.74177 0.60106 0.0
H283 H 0.77492 0.70752 0.65663 0.0
H284 H 0.30828 0.87738 0.08938 0.0
H285 H 0.28985 0.8435 0.03455 0.0
H286 H 0.25639 0.76804 0.10373 0.0
H287 H 0.27468 0.80232 0.15898 0.0
H288 H 0.29659 0.764 0.02304 0.0
H289 H 0.20711 0.79711 0.01941 0.0
H290 H 0.2286 0.82579 0.04625 0.0
H291 H 0.22079 0.77889 0.06295 0.0
C292 C 0.29655 0.85422 0.09288 0.0
C293 C 0.29292 0.84241 0.12844 0.0
C294 C 0.28611 0.83482 0.06154 0.0
C295 C 0.2718 0.80325 0.06505 0.0
C296 C 0.26715 0.79271 0.10038 0.0
H297 H 0.20468 0.63616 0.90991 0.0
H298 H 0.22277 0.66979 0.96516 0.0
C299 C 0.27754 0.81236 0.13191 0.0
C300 C 0.2635 0.77936 0.03203 0.0
H301 H 0.21648 0.74879 0.97752 0.0
C302 C 0.27906 0.76076 0.01297 0.0
C303 C 0.24067 0.77513 0.01909 0.0
C304 C 0.22328 0.79552 0.03773 0.0
C305 C 0.2724 0.73761 0.98151 0.0
C306 C 0.24957 0.73345 0.96851 0.0
C307 C 0.234 0.752 0.98761 0.0
C308 C 0.24129 0.70985 0.93527 0.0
C309 C 0.28981 0.71717 0.96295 0.0
C310 C 0.24628 0.72041 0.90015 0.0
C311 C 0.23611 0.70089 0.8684 0.0
C312 C 0.22059 0.67095 0.87141 0.0
C313 C 0.21654 0.65921 0.90676 0.0
C314 C 0.22678 0.67848 0.93834 0.0
H315 H 0.30587 0.71511 0.98153 0.0
H316 H 0.28438 0.68708 0.95398 0.0
H317 H 0.29258 0.7341 0.93805 0.0
H318 H 0.25718 0.74496 0.89711 0.0
H319 H 0.23929 0.71091 0.84149 0.0
H320 H 0.26344 0.95767 0.21453 0.0
H321 H 0.23792 0.01271 0.21711 0.0
H322 H 0.29325 0.09268 0.23638 0.0
H323 H 0.31889 0.03774 0.23488 0.0
H324 H 0.26469 0.10557 0.28402 0.0
H325 H 0.2182 0.09695 0.14216 0.0
H326 H 0.21774 0.05206 0.16784 0.0
H327 H 0.24354 0.07009 0.15591 0.0
C328 C 0.27019 0.98703 0.21891 0.0
C329 C 0.29326 0.99323 0.22451 0.0
C330 C 0.25554 0.01855 0.22018 0.0
C331 C 0.2636 0.05701 0.22647 0.0
C332 C 0.2866 0.06331 0.23146 0.0
H333 H 0.19915 0.28125 0.19712 0.0
H334 H 0.21666 0.21789 0.1899 0.0
C335 C 0.30126 0.03183 0.23053 0.0
C336 C 0.24828 0.09055 0.22965 0.0
H337 H 0.20449 0.14151 0.18347 0.0
C338 C 0.25151 0.11339 0.26203 0.0
C339 C 0.23117 0.10098 0.20085 0.0
C340 C 0.22754 0.079 0.16458 0.0
C341 C 0.23833 0.14648 0.26631 0.0
C342 C 0.22094 0.15648 0.23782 0.0
C343 C 0.21759 0.1335 0.20552 0.0
C344 C 0.20736 0.19259 0.23983 0.0
C345 C 0.2438 0.17128 0.30074 0.0
C346 C 0.1953 0.19893 0.26935 0.0
C347 C 0.18535 0.23542 0.27377 0.0
C348 C 0.18708 0.26614 0.24851 0.0
C349 C 0.1976 0.25848 0.21734 0.0
C350 C 0.20766 0.22216 0.21311 0.0
H351 H 0.26075 0.16521 0.31526 0.0
H352 H 0.24256 0.2031 0.29398 0.0
H353 H 0.23189 0.16455 0.32017 0.0
H354 H 0.19431 0.17616 0.28977 0.0
H355 H 0.17728 0.24012 0.29796 0.0
H356 H 0.6967 0.03758 0.26002 0.0
H357 H 0.72246 0.0919 0.25632 0.0
H358 H 0.77768 0.0126 0.28167 0.0
H359 H 0.75199 0.95806 0.28628 0.0
H360 H 0.78517 0.08183 0.31846 0.0
H361 H 0.75614 0.11142 0.17047 0.0
H362 H 0.73398 0.11342 0.19784 0.0
H363 H 0.74831 0.06775 0.19348 0.0
C364 C 0.71432 0.03161 0.26494 0.0
C365 C 0.72223 0.99328 0.2731 0.0
C366 C 0.72905 0.06272 0.26254 0.0
C367 C 0.75202 0.05622 0.26775 0.0
C368 C 0.76002 0.01829 0.27718 0.0
H369 H 0.83684 0.24177 0.19748 0.0
H370 H 0.82116 0.17674 0.20628 0.0
C371 C 0.74529 0.98713 0.27983 0.0
C372 C 0.7676 0.08907 0.26336 0.0
H373 H 0.77841 0.16139 0.20355 0.0
C374 C 0.78384 0.099 0.2932 0.0
C375 C 0.76628 0.11096 0.23012 0.0
C376 C 0.7504 0.10011 0.19603 0.0
C377 C 0.7981 0.13124 0.29127 0.0
C378 C 0.79575 0.15474 0.25891 0.0
C379 C 0.78014 0.14372 0.22853 0.0
C380 C 0.80819 0.19218 0.25655 0.0
C381 C 0.81556 0.13966 0.32395 0.0
C382 C 0.8066 0.22236 0.28225 0.0
C383 C 0.81573 0.25939 0.27751 0.0
C384 C 0.8264 0.26743 0.24658 0.0
C385 C 0.82884 0.23668 0.22169 0.0
C386 C 0.81977 0.19948 0.22659 0.0
H387 H 0.82044 0.11243 0.33986 0.0
H388 H 0.83058 0.15297 0.31515 0.0
H389 H 0.80875 0.16044 0.34286 0.0
H390 H 0.79734 0.21796 0.30511 0.0
H391 H 0.81344 0.28229 0.29723 0.0
H392 H 0.81263 0.73045 0.79581 0.0
H393 H 0.79586 0.79434 0.80329 0.0
H394 H 0.82037 0.83656 0.70542 0.0
H395 H 0.83667 0.77195 0.6969 0.0
H396 H 0.80934 0.86953 0.81195 0.0
H397 H 0.75445 0.85219 0.67774 0.0
H398 H 0.77167 0.81282 0.6986 0.0
H399 H 0.78349 0.85159 0.67423 0.0
C400 C 0.81476 0.75337 0.77603 0.0
C401 C 0.82572 0.74571 0.74534 0.0
C402 C 0.80514 0.79003 0.78042 0.0
C403 C 0.80631 0.82001 0.75439 0.0
C404 C 0.8187 0.81353 0.7253 0.0
H405 H 0.75165 0.05547 0.78546 0.0
H406 H 0.77711 1.00054 0.78153 0.0
C407 C 0.82822 0.77666 0.72068 0.0
C408 C 0.79334 0.85679 0.75677 0.0
H409 H 0.75067 0.91054 0.71089 0.0
C410 C 0.7966 0.87867 0.78976 0.0
C411 C 0.77642 0.86833 0.72807 0.0
C412 C 0.77109 0.84487 0.6928 0.0
C413 C 0.78329 0.91141 0.79501 0.0
C414 C 0.76657 0.9232 0.76612 0.0
C415 C 0.76354 0.90164 0.73296 0.0
C416 C 0.75133 0.95666 0.77006 0.0
C417 C 0.78672 0.93206 0.83197 0.0
C418 C 0.72831 0.95056 0.7644 0.0
C419 C 0.71371 0.98197 0.76614 0.0
C420 C 0.72177 0.0203 0.77365 0.0
C421 C 0.74485 0.0263 0.77993 0.0
C422 C 0.75947 0.99485 0.77786 0.0
H423 H 0.79584 0.9133 0.85398 0.0
H424 H 0.79663 0.95909 0.82979 0.0
H425 H 0.77065 0.94068 0.84053 0.0
H426 H 0.7216 0.9214 0.75834 0.0
H427 H 0.69607 0.97622 0.76123 0.0
H428 H 0.31834 0.97708 0.73431 0.0
H429 H 0.2927 0.92228 0.73656 0.0
H430 H 0.23734 1.0018 0.71401 0.0
H431 H 0.26291 0.0567 0.71069 0.0
H432 H 0.26382 0.91156 0.78424 0.0
H433 H 0.21816 0.91482 0.64151 0.0
H434 H 0.24343 0.94205 0.65477 0.0
H435 H 0.21755 0.96059 0.66579 0.0
C436 C 0.30071 0.9829 0.72935 0.0
C437 C 0.29271 0.02133 0.72228 0.0
C438 C 0.28605 0.95151 0.73073 0.0
C439 C 0.26305 0.95775 0.72514 0.0
C440 C 0.25498 0.99601 0.71762 0.0
H441 H 0.1774 0.77457 0.79952 0.0
H442 H 0.19378 0.83897 0.79035 0.0
C443 C 0.26965 0.02745 0.7159 0.0
C444 C 0.24775 0.92439 0.72914 0.0
H445 H 0.20462 0.87122 0.68373 0.0
C446 C 0.25084 0.9028 0.76227 0.0
C447 C 0.23089 0.9128 0.7004 0.0
C448 C 0.22738 0.9335 0.66348 0.0
C449 C 0.23785 0.86967 0.7673 0.0
C450 C 0.22077 0.85836 0.73877 0.0
C451 C 0.21748 0.88022 0.70578 0.0
C452 C 0.20765 0.82181 0.74137 0.0
C453 C 0.24323 0.84616 0.80253 0.0
C454 C 0.20868 0.7916 0.71553 0.0
C455 C 0.19904 0.75505 0.72032 0.0
C456 C 0.18818 0.74777 0.75119 0.0
C457 C 0.18577 0.77899 0.7756 0.0
C458 C 0.19532 0.81574 0.77061 0.0
H459 H 0.25994 0.85328 0.81741 0.0
H460 H 0.23094 0.85302 0.82126 0.0
H461 H 0.2425 0.81411 0.79669 0.0
H462 H 0.21791 0.79563 0.69256 0.0
H463 H 0.20109 0.7319 0.70072 0.0
H464 H 0.76563 0.46547 0.19355 0.0
H465 H 0.74019 0.52139 0.19255 0.0
H466 H 0.791 0.58848 0.25939 0.0
H467 H 0.8166 0.53345 0.25969 0.0
H468 H 0.72379 0.55882 0.24783 0.0
H469 H 0.77213 0.6646 0.17688 0.0
H470 H 0.77842 0.61277 0.17917 0.0
H471 H 0.78837 0.64461 0.2174 0.0
C472 C 0.77144 0.49226 0.20777 0.0
C473 C 0.79324 0.49501 0.22646 0.0
C474 C 0.75686 0.52418 0.20723 0.0
C475 C 0.76378 0.55946 0.22532 0.0
C476 C 0.78543 0.56203 0.24435 0.0
H477 H 0.6894 0.74541 0.30905 0.0
H478 H 0.70622 0.68252 0.29693 0.0
C479 C 0.80004 0.53036 0.24465 0.0
C480 C 0.74831 0.59333 0.22533 0.0
H481 H 0.74426 0.69209 0.20936 0.0
C482 C 0.72812 0.58789 0.23899 0.0
C483 C 0.75369 0.63115 0.21311 0.0
C484 C 0.77422 0.63857 0.19544 0.0
C485 C 0.71365 0.61952 0.2422 0.0
C486 C 0.71978 0.65784 0.23235 0.0
C487 C 0.73956 0.66289 0.21732 0.0
C488 C 0.70657 0.69349 0.23857 0.0
C489 C 0.69191 0.61139 0.25591 0.0
C490 C 0.70104 0.72086 0.2099 0.0
C491 C 0.69176 0.75721 0.21694 0.0
C492 C 0.68764 0.7669 0.25278 0.0
C493 C 0.69201 0.73864 0.281 0.0
C494 C 0.70161 0.7025 0.27406 0.0
H495 H 0.6863 0.58074 0.24959 0.0
H496 H 0.69408 0.61503 0.28642 0.0
H497 H 0.67875 0.63185 0.2434 0.0
H498 H 0.70468 0.71471 0.18229 0.0
H499 H 0.68861 0.77836 0.19463 0.0
H500 H 0.31268 0.78195 0.29724 0.0
H501 H 0.29656 0.71756 0.3051 0.0
H502 H 0.32282 0.67492 0.20898 0.0
H503 H 0.33858 0.73983 0.20024 0.0
H504 H 0.2797 0.6601 0.2038 0.0
H505 H 0.31931 0.61212 0.34212 0.0
H506 H 0.30751 0.66024 0.34374 0.0
H507 H 0.33003 0.65226 0.31762 0.0
C508 C 0.31551 0.75872 0.27818 0.0
C509 C 0.32689 0.7663 0.24795 0.0
C510 C 0.30636 0.72168 0.2829 0.0
C511 C 0.30861 0.69111 0.25788 0.0
C512 C 0.3209 0.69798 0.22874 0.0
H513 H 0.25213 0.45621 0.28329 0.0
H514 H 0.27799 0.5109 0.28025 0.0
C515 C 0.33 0.73512 0.22388 0.0
C516 C 0.2961 0.6537 0.2598 0.0
H517 H 0.28466 0.58068 0.31862 0.0
C518 C 0.28104 0.64248 0.22878 0.0
C519 C 0.29793 0.6303 0.2922 0.0
C520 C 0.31475 0.63912 0.32565 0.0
C521 C 0.26722 0.60957 0.22971 0.0
C522 C 0.26805 0.58767 0.26286 0.0
C523 C 0.28374 0.59783 0.2934 0.0
C524 C 0.25243 0.55471 0.26643 0.0
C525 C 0.25186 0.59858 0.19505 0.0
C526 C 0.22947 0.56128 0.26071 0.0
C527 C 0.21467 0.53013 0.26226 0.0
C528 C 0.22248 0.49166 0.26997 0.0
C529 C 0.24552 0.48539 0.27713 0.0
C530 C 0.26034 0.51663 0.2754 0.0
H531 H 0.25789 0.61023 0.16986 0.0
H532 H 0.25005 0.56619 0.1923 0.0
H533 H 0.23526 0.61143 0.19627 0.0
H534 H 0.22295 0.59056 0.25474 0.0
H535 H 0.19706 0.53621 0.25703 0.0
H536 H 0.33806 0.27525 0.70164 0.0
H537 H 0.32211 0.33985 0.71111 0.0
H538 H 0.29553 0.29527 0.80622 0.0
H539 H 0.31188 0.2313 0.79772 0.0
H540 H 0.27913 0.35446 0.70549 0.0
H541 H 0.31756 0.40007 0.84515 0.0
H542 H 0.32854 0.36043 0.82039 0.0
H543 H 0.30583 0.35182 0.84598 0.0
C544 C 0.32941 0.2795 0.72526 0.0
C545 C 0.32625 0.24791 0.74885 0.0
C546 C 0.32018 0.31645 0.73052 0.0
C547 C 0.30773 0.32267 0.75957 0.0
C548 C 0.30546 0.29167 0.78412 0.0
H549 H 0.19551 0.477 0.75788 0.0
H550 H 0.22134 0.42254 0.75529 0.0
C551 C 0.31474 0.25486 0.77902 0.0
C552 C 0.29505 0.35982 0.76188 0.0
H553 H 0.2827 0.431 0.82183 0.0
C554 C 0.28017 0.37148 0.73081 0.0
C555 C 0.29649 0.38243 0.79473 0.0
C556 C 0.31316 0.37327 0.82829 0.0
C557 C 0.26615 0.40405 0.73208 0.0
C558 C 0.26656 0.42507 0.76565 0.0
C559 C 0.28207 0.41448 0.79629 0.0
C560 C 0.25087 0.45785 0.76947 0.0
C561 C 0.25109 0.41567 0.6973 0.0
C562 C 0.25879 0.49553 0.78003 0.0
C563 C 0.24401 0.52673 0.78203 0.0
C564 C 0.22099 0.52086 0.77349 0.0
C565 C 0.21312 0.48274 0.76422 0.0
C566 C 0.22789 0.45157 0.76246 0.0
H567 H 0.25748 0.40488 0.67211 0.0
H568 H 0.2345 0.40239 0.69767 0.0
H569 H 0.24913 0.44808 0.69525 0.0
H570 H 0.27644 0.50103 0.78591 0.0
H571 H 0.25069 0.55564 0.78939 0.0
H572 H 0.81785 0.47962 0.75958 0.0
H573 H 0.79234 0.42454 0.76022 0.0
H574 H 0.74121 0.49074 0.69325 0.0
H575 H 0.76655 0.54666 0.69327 0.0
H576 H 0.72523 0.45434 0.74962 0.0
H577 H 0.77289 0.34729 0.67875 0.0
H578 H 0.7893 0.36782 0.71885 0.0
H579 H 0.77921 0.39912 0.68031 0.0
C580 C 0.80125 0.48248 0.74469 0.0
C581 C 0.79432 0.5176 0.72622 0.0
C582 C 0.78668 0.45078 0.74494 0.0
C583 C 0.76495 0.45313 0.72621 0.0
C584 C 0.75793 0.48814 0.70774 0.0
H585 H 0.68841 0.23592 0.69592 0.0
H586 H 0.70494 0.29931 0.68402 0.0
C587 C 0.77246 0.52005 0.70771 0.0
C588 C 0.74947 0.41937 0.72689 0.0
H589 H 0.74491 0.32058 0.71132 0.0
C590 C 0.7294 0.42515 0.74085 0.0
C591 C 0.75465 0.38139 0.71482 0.0
C592 C 0.77507 0.37358 0.69698 0.0
C593 C 0.71481 0.39375 0.74436 0.0
C594 C 0.7207 0.35532 0.73446 0.0
C595 C 0.7404 0.34988 0.71928 0.0
C596 C 0.70723 0.31995 0.74053 0.0
C597 C 0.6932 0.40223 0.75837 0.0
C598 C 0.70232 0.31076 0.77602 0.0
C599 C 0.69247 0.27476 0.78273 0.0
C600 C 0.68777 0.24688 0.75425 0.0
C601 C 0.69181 0.25681 0.71843 0.0
C602 C 0.70135 0.29299 0.71163 0.0
H603 H 0.68781 0.43305 0.75239 0.0
H604 H 0.67986 0.38216 0.74578 0.0
H605 H 0.69545 0.39825 0.78884 0.0
H606 H 0.70718 0.33045 0.79905 0.0
H607 H 0.68993 0.26776 0.81077 0.0
H608 H 0.09354 0.43854 0.24884 0.0
H609 H 0.05352 0.42998 0.2432 0.0
H610 H 0.06221 0.3051 0.25949 0.0
H611 H 0.10249 0.31346 0.26603 0.0
H612 H 0.02435 0.38755 0.19501 0.0
H613 H 0.02438 0.3334 0.33875 0.0
H614 H 0.04852 0.35512 0.32356 0.0
H615 H 0.04092 0.30529 0.31131 0.0
C616 C 0.08702 0.40915 0.2511 0.0
C617 C 0.10133 0.37673 0.25828 0.0
C618 C 0.06408 0.40433 0.24785 0.0
C619 C 0.05484 0.36702 0.25165 0.0
C620 C 0.06897 0.33431 0.25737 0.0
H621 H 0.91201 0.31376 0.23141 0.0
H622 H 0.95232 0.30565 0.23594 0.0
C623 C 0.09201 0.33912 0.26079 0.0
C624 C 0.03043 0.36297 0.24988 0.0
H625 H 0.98964 0.33839 0.30111 0.0
C626 C 0.0168 0.37651 0.21812 0.0
C627 C 0.02054 0.34861 0.2801 0.0
C628 C 0.03428 0.33506 0.31552 0.0
C629 C 0.99363 0.37676 0.21602 0.0
C630 C 0.98383 0.36325 0.24647 0.0
C631 C 0.99731 0.34859 0.2778 0.0
C632 C 0.95969 0.36703 0.24699 0.0
C633 C 0.97971 0.39217 0.18153 0.0
C634 C 0.95064 0.40401 0.25268 0.0
C635 C 0.92774 0.40875 0.25035 0.0
C636 C 0.91335 0.37659 0.24204 0.0
C637 C 0.92257 0.33918 0.23776 0.0
C638 C 0.94558 0.33445 0.2403 0.0
H639 H 0.98946 0.39564 0.15827 0.0
H640 H 0.96556 0.3721 0.17278 0.0
H641 H 0.9728 0.42128 0.18753 0.0
H642 H 0.96132 0.42943 0.2581 0.0
H643 H 0.92131 0.43796 0.25397 0.0
H644 H 0.09304 0.58364 0.73022 0.0
H645 H 0.05288 0.5921 0.72449 0.0
H646 H 0.06201 0.70794 0.77207 0.0
H647 H 0.10227 0.69988 0.77783 0.0
H648 H 0.03346 0.65512 0.80683 0.0
H649 H 0.01014 0.66439 0.65437 0.0
H650 H 0.02847 0.62459 0.67022 0.0
H651 H 0.03787 0.67443 0.67719 0.0
C652 C 0.08655 0.61119 0.73895 0.0
C653 C 0.10092 0.64104 0.75455 0.0
C654 C 0.06357 0.61601 0.73553 0.0
C655 C 0.05449 0.65071 0.74769 0.0
C656 C 0.06872 0.68099 0.76241 0.0
H657 H 0.91177 0.69818 0.71815 0.0
H658 H 0.95199 0.70679 0.72358 0.0
C659 C 0.09172 0.67636 0.76553 0.0
C660 C 0.03021 0.6541 0.74733 0.0
H661 H 0.98082 0.65352 0.68988 0.0
C662 C 0.02193 0.65519 0.78128 0.0
C663 C 0.01525 0.65448 0.71397 0.0
C664 C 0.0233 0.65475 0.6768 0.0
C665 C 0.99903 0.65517 0.78273 0.0
C666 C 0.98407 0.65388 0.74939 0.0
C667 C 0.99234 0.6543 0.71542 0.0
C668 C 0.95981 0.6502 0.74911 0.0
C669 C 0.99097 0.65619 0.81989 0.0
C670 C 0.95091 0.61568 0.76201 0.0
C671 C 0.92797 0.61054 0.75878 0.0
C672 C 0.91344 0.63989 0.74264 0.0
C673 C 0.92245 0.67505 0.73088 0.0
C674 C 0.94543 0.67999 0.73382 0.0
H675 H 1.00409 0.66649 0.84211 0.0
H676 H 0.97631 0.67568 0.8191 0.0
H677 H 0.98596 0.62612 0.8271 0.0
H678 H 0.96173 0.59214 0.77351 0.0
H679 H 0.92162 0.58313 0.76811 0.0
H680 H 0.42165 0.93637 0.25338 0.0
H681 H 0.46165 0.92744 0.25974 0.0
H682 H 0.45259 0.80316 0.23982 0.0
H683 H 0.41231 0.81192 0.23256 0.0
H684 H 0.49054 0.88332 0.30701 0.0
H685 H 0.49079 0.8342 0.16174 0.0
H686 H 0.46667 0.85549 0.17735 0.0
H687 H 0.47406 0.80527 0.18821 0.0
C688 C 0.42807 0.90702 0.25051 0.0
C689 C 0.41367 0.87493 0.24204 0.0
C690 C 0.45101 0.90199 0.25418 0.0
C691 C 0.46015 0.86478 0.24952 0.0
C692 C 0.44591 0.83231 0.24264 0.0
H693 H 0.60311 0.81257 0.26938 0.0
H694 H 0.56283 0.80402 0.26473 0.0
C695 C 0.42288 0.83734 0.23881 0.0
C696 C 0.48456 0.86067 0.25139 0.0
H697 H 0.52545 0.83844 0.19962 0.0
C698 C 0.49814 0.87317 0.28363 0.0
C699 C 0.49451 0.84752 0.2208 0.0
C700 C 0.48082 0.83514 0.18492 0.0
C701 C 0.52131 0.87362 0.28583 0.0
C702 C 0.53117 0.86136 0.25502 0.0
C703 C 0.51775 0.84768 0.2232 0.0
C704 C 0.55531 0.8655 0.25469 0.0
C705 C 0.53519 0.88798 0.3208 0.0
C706 C 0.56426 0.90271 0.24964 0.0
C707 C 0.58715 0.90772 0.25205 0.0
C708 C 0.60162 0.87558 0.25979 0.0
C709 C 0.59249 0.83798 0.26348 0.0
C710 C 0.5695 0.83299 0.26087 0.0
H711 H 0.52537 0.89076 0.34406 0.0
H712 H 0.54926 0.86763 0.32911 0.0
H713 H 0.54221 0.91724 0.31564 0.0
H714 H 0.55352 0.9281 0.24465 0.0
H715 H 0.59351 0.93707 0.24891 0.0
H716 H 0.60279 0.20108 0.76971 0.0
H717 H 0.56252 0.20936 0.7657 0.0
H718 H 0.55325 0.08562 0.74361 0.0
H719 H 0.59323 0.07692 0.74722 0.0
H720 H 0.5249 0.17644 0.70079 0.0
H721 H 0.52564 0.12 0.84405 0.0
H722 H 0.54945 0.14351 0.8292 0.0
H723 H 0.54219 0.09429 0.81464 0.0
C724 C 0.59218 0.17571 0.76347 0.0
C725 C 0.60132 0.13826 0.75906 0.0
C726 C 0.56919 0.18053 0.76125 0.0
C727 C 0.55503 0.14801 0.75474 0.0
C728 C 0.56398 0.111 0.7489 0.0
H729 H 0.42122 0.07717 0.75396 0.0
H730 H 0.46125 0.08573 0.76008 0.0
C731 C 0.58686 0.10615 0.75092 0.0
C732 C 0.53092 0.15193 0.75555 0.0
H733 H 0.49064 0.12832 0.80775 0.0
C734 C 0.51734 0.16648 0.72428 0.0
C735 C 0.52124 0.13871 0.78624 0.0
C736 C 0.5353 0.1234 0.82065 0.0
C737 C 0.49412 0.16662 0.72229 0.0
C738 C 0.48435 0.15258 0.75276 0.0
C739 C 0.4981 0.13915 0.78446 0.0
C740 C 0.45995 0.14863 0.75126 0.0
C741 C 0.48026 0.17999 0.68691 0.0
C742 C 0.44583 0.18134 0.74534 0.0
C743 C 0.42279 0.17654 0.74164 0.0
C744 C 0.41345 0.13892 0.74408 0.0
C745 C 0.42775 0.10655 0.75172 0.0
C746 C 0.4507 0.11138 0.75524 0.0
H747 H 0.49006 0.18143 0.66353 0.0
H748 H 0.46598 0.15993 0.67915 0.0
H749 H 0.47368 0.20982 0.69102 0.0
H750 H 0.4526 0.21053 0.7431 0.0
H751 H 0.41231 0.20216 0.73606 0.0
H752 H 0.16483 0.50131 0.85065 0.0
H753 H 0.16523 0.46815 0.90998 0.0
H754 H 0.14152 0.57379 0.95651 0.0
H755 H 0.14134 0.60755 0.89734 0.0
H756 H 0.17898 0.54261 0.99802 0.0
H757 H 0.11503 0.4273 0.96294 0.0
H758 H 0.13577 0.42863 0.93265 0.0
H759 H 0.11732 0.46966 0.93391 0.0
C760 C 0.15935 0.51739 0.87329 0.0
C761 C 0.15302 0.55712 0.86923 0.0
C762 C 0.15949 0.49827 0.90714 0.0
C763 C 0.15316 0.51838 0.93745 0.0
C764 C 0.14635 0.55773 0.93331 0.0
H765 H 0.13383 0.43339 0.15251 0.0
H766 H 0.12959 0.45596 0.08847 0.0
C767 C 0.14622 0.57693 0.89947 0.0
C768 C 0.15534 0.49939 0.97422 0.0
H769 H 0.13784 0.42142 0.02133 0.0
C770 C 0.16995 0.51618 0.00317 0.0
C771 C 0.14344 0.46504 0.98079 0.0
C772 C 0.12685 0.44673 0.95104 0.0
C773 C 0.1731 0.49941 0.03858 0.0
C774 C 0.16163 0.46449 0.04495 0.0
C775 C 0.14685 0.44786 0.01611 0.0
C776 C 0.16387 0.44628 0.08204 0.0
C777 C 0.1883 0.5197 0.06908 0.0
C778 C 0.1844 0.43201 0.09911 0.0
C779 C 0.18695 0.41917 0.13584 0.0
C780 C 0.16895 0.42035 0.15599 0.0
C781 C 0.1481 0.43247 0.13796 0.0
C782 C 0.1456 0.44529 0.10131 0.0
H783 H 0.19187 0.55051 0.06171 0.0
H784 H 0.18096 0.51991 0.09522 0.0
H785 H 0.20426 0.50359 0.0742 0.0
H786 H 0.1986 0.43189 0.08437 0.0
H787 H 0.20318 0.40971 0.14879 0.0
H788 H 0.87866 0.43003 0.34782 0.0
H789 H 0.8819 0.45001 0.41241 0.0
H790 H 0.81208 0.42916 0.41154 0.0
H791 H 0.80852 0.40969 0.3464 0.0
H792 H 0.82505 0.50243 0.43697 0.0
H793 H 0.88141 0.39009 0.50845 0.0
H794 H 0.89211 0.41217 0.47004 0.0
H795 H 0.86715 0.38335 0.46201 0.0
C796 C 0.86401 0.42905 0.36142 0.0
C797 C 0.84327 0.4185 0.3418 0.0
C798 C 0.86596 0.44021 0.39851 0.0
C799 C 0.84729 0.44068 0.41689 0.0
C800 C 0.82671 0.42881 0.39785 0.0
H801 H 0.84863 0.49798 0.64938 0.0
H802 H 0.84612 0.46446 0.58978 0.0
C803 C 0.82472 0.41763 0.36066 0.0
C804 C 0.84894 0.4572 0.45471 0.0
H805 H 0.87728 0.44956 0.54211 0.0
C806 C 0.8363 0.49063 0.46006 0.0
C807 C 0.86352 0.44161 0.48482 0.0
C808 C 0.87666 0.40459 0.4812 0.0
C809 C 0.83828 0.50956 0.49448 0.0
C810 C 0.85364 0.49508 0.52411 0.0
C811 C 0.86579 0.46095 0.51913 0.0
C812 C 0.85692 0.51464 0.56068 0.0
C813 C 0.8238 0.54475 0.49887 0.0
C814 C 0.86449 0.5536 0.56425 0.0
C815 C 0.86594 0.57294 0.59828 0.0
C816 C 0.85997 0.5535 0.62939 0.0
C817 C 0.85333 0.51388 0.626 0.0
C818 C 0.85187 0.49462 0.59196 0.0
H819 H 0.80918 0.54581 0.47691 0.0
H820 H 0.8179 0.54448 0.52627 0.0
H821 H 0.83355 0.57203 0.49689 0.0
H822 H 0.86889 0.56929 0.54053 0.0
H823 H 0.87118 0.6034 0.59993 0.0
H824 H 0.80806 0.60296 0.84511 0.0
H825 H 0.81121 0.58322 0.91013 0.0
H826 H 0.88134 0.56447 0.91273 0.0
H827 H 0.8785 0.58473 0.84825 0.0
H828 H 0.82463 0.51022 0.93578 0.0
H829 H 0.87942 0.624 0.0086 0.0
H830 H 0.8655 0.63047 0.96191 0.0
H831 H 0.89069 0.60235 0.97054 0.0
C832 C 0.82423 0.59542 0.85972 0.0
C833 C 0.843 0.59524 0.84137 0.0
C834 C 0.82599 0.58407 0.89685 0.0
C835 C 0.84654 0.57271 0.91634 0.0
C836 C 0.8654 0.57386 0.89848 0.0
H837 H 0.87033 0.41044 0.09989 0.0
H838 H 0.86803 0.44436 0.04038 0.0
C839 C 0.86369 0.58519 0.86145 0.0
C840 C 0.84799 0.5561 0.95411 0.0
H841 H 0.87545 0.56437 0.04208 0.0
C842 C 0.83557 0.52229 0.95912 0.0
C843 C 0.86217 0.57204 0.98455 0.0
C844 C 0.87504 0.60945 0.98129 0.0
C845 C 0.83738 0.50334 0.99352 0.0
C846 C 0.85234 0.51822 0.02351 0.0
C847 C 0.86427 0.5527 0.01884 0.0
C848 C 0.85544 0.4987 0.06011 0.0
C849 C 0.82313 0.46774 0.99752 0.0
C850 C 0.85 0.51859 0.09119 0.0
C851 C 0.85147 0.49945 0.12528 0.0
C852 C 0.85851 0.46005 0.12894 0.0
C853 C 0.86479 0.44071 0.09802 0.0
C854 C 0.86333 0.45994 0.06393 0.0
H855 H 0.8087 0.46632 0.97522 0.0
H856 H 0.83315 0.44075 0.9958 0.0
H857 H 0.81695 0.46777 0.02469 0.0
H858 H 0.844 0.54859 0.08882 0.0
H859 H 0.84652 0.51526 0.14851 0.0
H860 H 0.14505 0.40826 0.39927 0.0
H861 H 0.14635 0.44234 0.45854 0.0
H862 H 0.17259 0.54562 0.41178 0.0
H863 H 0.17104 0.51217 0.35236 0.0
H864 H 0.18396 0.47159 0.5009 0.0
H865 H 0.12277 0.59071 0.46272 0.0
H866 H 0.1246 0.54788 0.43409 0.0
H867 H 0.14398 0.58761 0.43342 0.0
C868 C 0.15078 0.43842 0.40141 0.0
C869 C 0.15783 0.45753 0.37101 0.0
C870 C 0.15156 0.4578 0.43531 0.0
C871 C 0.15931 0.49663 0.43937 0.0
C872 C 0.16611 0.51595 0.40901 0.0
H873 H 0.2069 0.60273 0.654 0.0
H874 H 0.20397 0.58079 0.58959 0.0
C875 C 0.1653 0.49666 0.3751 0.0
C876 C 0.16153 0.51608 0.47597 0.0
H877 H 0.1447 0.59551 0.52185 0.0
C878 C 0.17536 0.49866 0.50553 0.0
C879 C 0.1502 0.55127 0.48186 0.0
C880 C 0.13438 0.57034 0.45145 0.0
C881 C 0.1782 0.51549 0.54094 0.0
C882 C 0.16723 0.55112 0.54668 0.0
C883 C 0.15333 0.56851 0.51715 0.0
C884 C 0.16876 0.56913 0.58383 0.0
C885 C 0.19241 0.49438 0.57211 0.0
C886 C 0.14975 0.57167 0.60116 0.0
C887 C 0.15131 0.58443 0.63774 0.0
C888 C 0.17196 0.59492 0.65771 0.0
C889 C 0.19079 0.59456 0.63953 0.0
C890 C 0.18918 0.58181 0.60282 0.0
H891 H 0.19558 0.46336 0.5649 0.0
H892 H 0.20863 0.50955 0.57823 0.0
H893 H 0.18447 0.49467 0.59765 0.0
H894 H 0.13381 0.56228 0.58685 0.0
H895 H 0.13642 0.58474 0.65073 0.0
H896 H 0.66783 0.99917 0.85256 0.0
H897 H 0.66907 0.9656 0.91193 0.0
H898 H 0.64385 0.06959 0.95902 0.0
H899 H 0.64281 0.10371 0.89988 0.0
H900 H 0.68193 0.0398 0.00028 0.0
H901 H 0.6194 0.92205 0.96494 0.0
H902 H 0.64017 0.92479 0.93476 0.0
H903 H 0.62106 0.96478 0.93612 0.0
C904 C 0.66221 0.01477 0.87535 0.0
C905 C 0.65518 0.05415 0.87143 0.0
C906 C 0.66284 0.99543 0.90923 0.0
C907 C 0.65632 0.01498 0.93971 0.0
C908 C 0.64885 0.05396 0.93571 0.0
H909 H 0.63559 0.93178 0.15406 0.0
H910 H 0.63216 0.9532 0.08974 0.0
C911 C 0.64823 0.07337 0.90187 0.0
C912 C 0.65879 0.99583 0.97645 0.0
H913 H 0.64162 0.91777 0.02384 0.0
C914 C 0.67311 0.01314 0.00548 0.0
C915 C 0.64718 0.96115 0.98306 0.0
C916 C 0.63093 0.94221 0.9532 0.0
C917 C 0.67616 0.99673 0.04105 0.0
C918 C 0.66487 0.96165 0.04754 0.0
C919 C 0.65047 0.94436 0.01856 0.0
C920 C 0.66672 0.94411 0.08493 0.0
C921 C 0.69097 0.01768 0.07161 0.0
C922 C 0.68717 0.93058 0.10307 0.0
C923 C 0.68925 0.91841 0.13999 0.0
C924 C 0.67088 0.91953 0.15927 0.0
C925 C 0.65015 0.93093 0.1402 0.0
C926 C 0.64811 0.94308 0.10338 0.0
H927 H 0.69449 0.04841 0.06393 0.0
H928 H 0.68332 0.01821 0.09745 0.0
H929 H 0.70698 1.00183 0.07745 0.0
H930 H 0.70164 0.9305 0.08899 0.0
H931 H 0.7054 0.9095 0.15373 0.0
H932 H 0.37134 0.10962 0.59909 0.0
H933 H 0.36981 0.07662 0.53917 0.0
H934 H 0.34642 0.97075 0.58578 0.0
H935 H 0.3482 1.00307 0.64574 0.0
H936 H 0.37814 0.95651 0.53984 0.0
H937 H 0.31119 0.05395 0.4725 0.0
H938 H 0.33553 0.07951 0.49358 0.0
H939 H 0.31915 0.05227 0.52202 0.0
C940 C 0.36611 0.07919 0.59671 0.0
C941 C 0.35978 0.05909 0.62719 0.0
C942 C 0.36509 0.06048 0.56239 0.0
C943 C 0.3576 0.0215 0.55794 0.0
C944 C 0.35213 1.00092 0.58861 0.0
H945 H 0.30933 0.91322 0.3455 0.0
H946 H 0.31319 0.93519 0.40998 0.0
C947 C 0.35316 0.01951 0.62288 0.0
C948 C 0.35485 1.00234 0.52116 0.0
H949 H 0.32682 0.00935 0.43355 0.0
C950 C 0.3669 0.96797 0.51658 0.0
C951 C 0.33982 0.01694 0.49113 0.0
C952 C 0.32551 0.05247 0.495 0.0
C953 C 0.36469 0.94827 0.48246 0.0
C954 C 0.3503 0.96374 0.45207 0.0
C955 C 0.33791 0.99763 0.45688 0.0
C956 C 0.34842 0.94626 0.4146 0.0
C957 C 0.37761 0.91088 0.47938 0.0
C958 C 0.36699 0.94475 0.39605 0.0
C959 C 0.36488 0.93214 0.35935 0.0
C960 C 0.34407 0.92113 0.34028 0.0
C961 C 0.32559 0.92142 0.35934 0.0
C962 C 0.32775 0.93407 0.39614 0.0
H963 H 0.38244 0.89691 0.50686 0.0
H964 H 0.36788 0.88941 0.46074 0.0
H965 H 0.39301 0.91784 0.46778 0.0
H966 H 0.38301 0.95472 0.4095 0.0
H967 H 0.37947 0.93228 0.34557 0.0
H968 H 0.36199 0.014 0.14989 0.0
H969 H 0.36063 0.04753 0.09033 0.0
H970 H 0.35357 0.93566 0.03408 0.0
H971 H 0.35599 0.90195 0.09361 0.0
H972 H 0.38051 0.98057 0.00364 0.0
H973 H 0.30568 0.06761 0.01963 0.0
H974 H 0.32824 0.07705 0.05573 0.0
H975 H 0.31584 0.02891 0.0513 0.0
C976 C 0.36034 0.99659 0.1248 0.0
C977 C 0.35908 0.95539 0.12633 0.0
C978 C 0.35933 0.0158 0.09077 0.0
C979 C 0.3564 0.99421 0.05765 0.0
C980 C 0.35573 0.95298 0.05925 0.0
H981 H 0.3072 0.07676 0.83768 0.0
H982 H 0.31187 0.05312 0.9016 0.0
C983 C 0.35718 0.93372 0.09328 0.0
C984 C 0.35403 0.01433 0.02122 0.0
H985 H 0.32362 0.08304 0.96787 0.0
C986 C 0.36805 1.00295 0.9958 0.0
C987 C 0.33752 0.04309 0.01078 0.0
C988 C 0.32082 0.05461 0.03564 0.0
C989 C 0.36597 0.01928 0.96021 0.0
C990 C 0.35003 0.04913 0.95026 0.0
C991 C 0.33605 0.06061 0.97571 0.0
C992 C 0.34683 0.06722 0.91289 0.0
C993 C 0.38034 1.00317 0.93329 0.0
C994 C 0.36469 0.08445 0.89846 0.0
C995 C 0.36214 0.09724 0.86176 0.0
C996 C 0.34152 0.09414 0.83922 0.0
C997 C 0.32327 0.07959 0.85448 0.0
C998 C 0.32594 0.066 0.89096 0.0
H999 H 0.38665 0.97333 0.94142 0.0
H1000 H 0.3711 1.00157 0.90482 0.0
H1001 H 0.39488 0.02269 0.93292 0.0
H1002 H 0.38076 0.087 0.91525 0.0
H1003 H 0.37641 0.10884 0.85076 0.0
H1004 H 0.63674 0.10982 0.64911 0.0
H1005 H 0.63201 0.08969 0.58409 0.0
H1006 H 0.70112 0.05768 0.59542 0.0
H1007 H 0.70616 0.07969 0.6598 0.0
H1008 H 0.6887 0.08872 0.53004 0.0
H1009 H 0.62668 0.97662 0.55588 0.0
H1010 H 0.61827 0.02569 0.56509 0.0
H1011 H 0.64222 1.00456 0.5927 0.0
C1012 C 0.65096 0.09902 0.63748 0.0
C1013 C 0.67176 0.09595 0.65949 0.0
C1014 C 0.64821 0.08721 0.60047 0.0
C1015 C 0.66604 0.07098 0.58521 0.0
C1016 C 0.68708 0.06983 0.60666 0.0
H1017 H 0.65969 0.90527 0.40657 0.0
H1018 H 0.66111 0.94015 0.46531 0.0
C1019 C 0.68995 0.08246 0.64343 0.0
C1020 C 0.66272 0.0536 0.54756 0.0
H1021 H 0.63311 0.98414 0.49401 0.0
C1022 C 0.67653 0.06587 0.52211 0.0
C1023 C 0.64709 0.02328 0.53747 0.0
C1024 C 0.63289 0.00645 0.56433 0.0
C1025 C 0.67535 0.0484 0.48705 0.0
C1026 C 0.65927 0.01888 0.47661 0.0
C1027 C 0.64527 0.00702 0.50189 0.0
C1028 C 0.65756 0.99812 0.44058 0.0
C1029 C 0.69198 0.06063 0.46232 0.0
C1030 C 0.65462 0.01898 0.40704 0.0
C1031 C 0.65422 0.9991 0.37344 0.0
C1032 C 0.65609 0.95794 0.37279 0.0
C1033 C 0.65805 0.93699 0.40623 0.0
C1034 C 0.65891 0.95691 0.43981 0.0
H1035 H 0.70679 0.07468 0.47832 0.0
H1036 H 0.69753 0.03508 0.44711 0.0
H1037 H 0.68423 0.08241 0.44183 0.0
H1038 H 0.65282 0.05064 0.40682 0.0
H1039 H 0.6525 0.01593 0.34801 0.0
loop_
_geom_bond_atom_site_label_1
_geom_bond_atom_site_label_2
_geom_bond_distance
_geom_bond_site_symmetry_2
_ccdc_geom_bond_type
Fe0 O2 1.918 . S
Fe0 O5 1.997 . S
Fe0 O6 2.002 . S
Fe0 O11 1.976 . S
Fe0 O14 1.996 . S
Fe1 O2 1.918 . S
Fe1 O9 1.997 . S
Fe1 O12 1.996 . S
Fe1 O16 1.976 . S
Fe1 O19 2.002 . S
O2 Fe0 1.918 . S
O2 Fe1 1.918 . S
O2 Fe3 1.918 . S
Fe3 O2 1.918 . S
Fe3 O4 2.002 . S
Fe3 O13 1.976 . S
Fe3 O17 1.996 . S
Fe3 O20 1.997 . S
O4 Fe3 2.002 . S
O4 C21 1.295 . S
O5 Fe0 1.997 . S
O5 C21 1.235 . S
O6 Fe0 2.002 . S
O6 C7 1.295 . S
C7 O6 1.295 . S
C7 O9 1.235 . S
C8 O13 1.287 . S
C8 O14 1.255 . S
O9 Fe1 1.997 . S
O9 C7 1.235 . S
C10 O16 1.287 . S
C10 O17 1.255 . S
O11 Fe0 1.976 . S
O11 C18 1.287 . S
O12 Fe1 1.996 . S
O12 C18 1.255 . S
O13 Fe3 1.976 . S
O13 C8 1.287 . S
O14 Fe0 1.996 . S
O14 C8 1.255 . S
C15 O19 1.295 . S
C15 O20 1.235 . S
O16 Fe1 1.976 . S
O16 C10 1.287 . S
O17 Fe3 1.996 . S
O17 C10 1.255 . S
C18 O11 1.287 . S
C18 O12 1.255 . S
O19 Fe1 2.002 . S
O19 C15 1.295 . S
O20 Fe3 1.997 . S
O20 C15 1.235 . S
C21 O4 1.295 . S
C21 O5 1.235 . S
Fe22 O24 1.918 . S
Fe22 O27 1.997 . S
Fe22 O28 2.002 . S
Fe22 O33 1.976 . S
Fe22 O36 1.996 . S
Fe23 O24 1.918 . S
Fe23 O31 1.997 . S
Fe23 O34 1.996 . S
Fe23 O38 1.976 . S
Fe23 O41 2.002 . S
O24 Fe22 1.918 . S
O24 Fe23 1.918 . S
O24 Fe25 1.918 . S
Fe25 O24 1.918 . S
Fe25 O26 2.002 . S
Fe25 O35 1.976 . S
Fe25 O39 1.996 . S
Fe25 O42 1.997 . S
O26 Fe25 2.002 . S
O26 C43 1.295 . S
O27 Fe22 1.997 . S
O27 C43 1.235 . S
O28 Fe22 2.002 . S
O28 C29 1.295 . S
C29 O28 1.295 . S
C29 O31 1.235 . S
C30 O35 1.287 . S
C30 O36 1.255 . S
O31 Fe23 1.997 . S
O31 C29 1.235 . S
C32 O38 1.287 . S
C32 O39 1.255 . S
O33 Fe22 1.976 . S
O33 C40 1.287 . S
O34 Fe23 1.996 . S
O34 C40 1.255 . S
O35 Fe25 1.976 . S
O35 C30 1.287 . S
O36 Fe22 1.996 . S
O36 C30 1.255 . S
C37 O41 1.295 . S
C37 O42 1.235 . S
O38 Fe23 1.976 . S
O38 C32 1.287 . S
O39 Fe25 1.996 . S
O39 C32 1.255 . S
C40 O33 1.287 . S
C40 O34 1.255 . S
O41 Fe23 2.002 . S
O41 C37 1.295 . S
O42 Fe25 1.997 . S
O42 C37 1.235 . S
C43 O26 1.295 . S
C43 O27 1.235 . S
Fe44 O46 1.918 . S
Fe44 O49 1.997 . S
Fe44 O50 2.002 . S
Fe44 O55 1.976 . S
Fe44 O58 1.996 . S
Fe45 O46 1.918 . S
Fe45 O53 1.997 . S
Fe45 O56 1.996 . S
Fe45 O60 1.976 . S
Fe45 O63 2.002 . S
O46 Fe44 1.918 . S
O46 Fe45 1.918 . S
O46 Fe47 1.918 . S
Fe47 O46 1.918 . S
Fe47 O48 2.002 . S
Fe47 O57 1.976 . S
Fe47 O61 1.996 . S
Fe47 O64 1.997 . S
O48 Fe47 2.002 . S
O48 C65 1.295 . S
O49 Fe44 1.997 . S
O49 C65 1.235 . S
O50 Fe44 2.002 . S
O50 C51 1.295 . S
C51 O50 1.295 . S
C51 O53 1.235 . S
C52 O57 1.287 . S
C52 O58 1.255 . S
O53 Fe45 1.997 . S
O53 C51 1.235 . S
C54 O60 1.287 . S
C54 O61 1.255 . S
O55 Fe44 1.976 . S
O55 C62 1.287 . S
O56 Fe45 1.996 . S
O56 C62 1.255 . S
O57 Fe47 1.976 . S
O57 C52 1.287 . S
O58 Fe44 1.996 . S
O58 C52 1.255 . S
C59 O63 1.295 . S
C59 O64 1.235 . S
O60 Fe45 1.976 . S
O60 C54 1.287 . S
O61 Fe47 1.996 . S
O61 C54 1.255 . S
C62 O55 1.287 . S
C62 O56 1.255 . S
O63 Fe45 2.002 . S
O63 C59 1.295 . S
O64 Fe47 1.997 . S
O64 C59 1.235 . S
C65 O48 1.295 . S
C65 O49 1.235 . S
Fe66 O68 1.918 . S
Fe66 O71 1.997 . S
Fe66 O72 2.002 . S
Fe66 O77 1.976 . S
Fe66 O80 1.996 . S
Fe67 O68 1.918 . S
Fe67 O75 1.997 . S
Fe67 O78 1.996 . S
Fe67 O82 1.976 . S
Fe67 O85 2.002 . S
O68 Fe66 1.918 . S
O68 Fe67 1.918 . S
O68 Fe69 1.918 . S
Fe69 O68 1.918 . S
Fe69 O70 2.002 . S
Fe69 O79 1.976 . S
Fe69 O83 1.996 . S
Fe69 O86 1.997 . S
O70 Fe69 2.002 . S
O70 C87 1.295 . S
O71 Fe66 1.997 . S
O71 C87 1.235 . S
O72 Fe66 2.002 . S
O72 C73 1.295 . S
C73 O72 1.295 . S
C73 O75 1.235 . S
C74 O79 1.287 . S
C74 O80 1.255 . S
O75 Fe67 1.997 . S
O75 C73 1.235 . S
C76 O82 1.287 . S
C76 O83 1.255 . S
O77 Fe66 1.976 . S
O77 C84 1.287 . S
O78 Fe67 1.996 . S
O78 C84 1.255 . S
O79 Fe69 1.976 . S
O79 C74 1.287 . S
O80 Fe66 1.996 . S
O80 C74 1.255 . S
C81 O85 1.295 . S
C81 O86 1.235 . S
O82 Fe67 1.976 . S
O82 C76 1.287 . S
O83 Fe69 1.996 . S
O83 C76 1.255 . S
C84 O77 1.287 . S
C84 O78 1.255 . S
O85 Fe67 2.002 . S
O85 C81 1.295 . S
O86 Fe69 1.997 . S
O86 C81 1.235 . S
C87 O70 1.295 . S
C87 O71 1.235 . S
Fe88 O90 1.918 . S
Fe88 O93 1.997 . S
Fe88 O94 2.002 . S
Fe88 O99 1.976 . S
Fe88 O102 1.996 . S
Fe89 O90 1.918 . S
Fe89 O97 1.997 . S
Fe89 O100 1.996 . S
Fe89 O104 1.976 . S
Fe89 O107 2.002 . S
O90 Fe88 1.918 . S
O90 Fe89 1.918 . S
O90 Fe91 1.918 . S
Fe91 O90 1.918 . S
Fe91 O92 2.002 . S
Fe91 O101 1.976 . S
Fe91 O105 1.996 . S
Fe91 O108 1.997 . S
O92 Fe91 2.002 . S
O92 C109 1.295 . S
O93 Fe88 1.997 . S
O93 C109 1.235 . S
O94 Fe88 2.002 . S
O94 C95 1.295 . S
C95 O94 1.295 . S
C95 O97 1.235 . S
C96 O101 1.287 . S
C96 O102 1.255 . S
O97 Fe89 1.997 . S
O97 C95 1.235 . S
C98 O104 1.287 . S
C98 O105 1.255 . S
O99 Fe88 1.976 . S
O99 C106 1.287 . S
O100 Fe89 1.996 . S
O100 C106 1.255 . S
O101 Fe91 1.976 . S
O101 C96 1.287 . S
O102 Fe88 1.996 . S
O102 C96 1.255 . S
C103 O107 1.295 . S
C103 O108 1.235 . S
O104 Fe89 1.976 . S
O104 C98 1.287 . S
O105 Fe91 1.996 . S
O105 C98 1.255 . S
C106 O99 1.287 . S
C106 O100 1.255 . S
O107 Fe89 2.002 . S
O107 C103 1.295 . S
O108 Fe91 1.997 . S
O108 C103 1.235 . S
C109 O92 1.295 . S
C109 O93 1.235 . S
Fe110 O112 1.918 . S
Fe110 O115 1.997 . S
Fe110 O116 2.002 . S
Fe110 O121 1.976 . S
Fe110 O124 1.996 . S
Fe111 O112 1.918 . S
Fe111 O119 1.997 . S
Fe111 O122 1.996 . S
Fe111 O126 1.976 . S
Fe111 O129 2.002 . S
O112 Fe110 1.918 . S
O112 Fe111 1.918 . S
O112 Fe113 1.918 . S
Fe113 O112 1.918 . S
Fe113 O114 2.002 . S
Fe113 O123 1.976 . S
Fe113 O127 1.996 . S
Fe113 O130 1.997 . S
O114 Fe113 2.002 . S
O114 C131 1.295 . S
O115 Fe110 1.997 . S
O115 C131 1.235 . S
O116 Fe110 2.002 . S
O116 C117 1.295 . S
C117 O116 1.295 . S
C117 O119 1.235 . S
C118 O123 1.287 . S
C118 O124 1.255 . S
O119 Fe111 1.997 . S
O119 C117 1.235 . S
C120 O126 1.287 . S
C120 O127 1.255 . S
O121 Fe110 1.976 . S
O121 C128 1.287 . S
O122 Fe111 1.996 . S
O122 C128 1.255 . S
O123 Fe113 1.976 . S
O123 C118 1.287 . S
O124 Fe110 1.996 . S
O124 C118 1.255 . S
C125 O129 1.295 . S
C125 O130 1.235 . S
O126 Fe111 1.976 . S
O126 C120 1.287 . S
O127 Fe113 1.996 . S
O127 C120 1.255 . S
C128 O121 1.287 . S
C128 O122 1.255 . S
O129 Fe111 2.002 . S
O129 C125 1.295 . S
O130 Fe113 1.997 . S
O130 C125 1.235 . S
C131 O114 1.295 . S
C131 O115 1.235 . S
Fe132 O134 1.918 . S
Fe132 O137 1.997 . S
Fe132 O138 2.002 . S
Fe132 O143 1.976 . S
Fe132 O146 1.996 . S
Fe133 O134 1.918 . S
Fe133 O141 1.997 . S
Fe133 O144 1.996 . S
Fe133 O148 1.976 . S
Fe133 O151 2.002 . S
O134 Fe132 1.918 . S
O134 Fe133 1.918 . S
O134 Fe135 1.918 . S
Fe135 O134 1.918 . S
Fe135 O136 2.002 . S
Fe135 O145 1.976 . S
Fe135 O149 1.996 . S
Fe135 O152 1.997 . S
O136 Fe135 2.002 . S
O136 C153 1.295 . S
O137 Fe132 1.997 . S
O137 C153 1.235 . S
O138 Fe132 2.002 . S
O138 C139 1.295 . S
C139 O138 1.295 . S
C139 O141 1.235 . S
C140 O145 1.287 . S
C140 O146 1.255 . S
O141 Fe133 1.997 . S
O141 C139 1.235 . S
C142 O148 1.287 . S
C142 O149 1.255 . S
O143 Fe132 1.976 . S
O143 C150 1.287 . S
O144 Fe133 1.996 . S
O144 C150 1.255 . S
O145 Fe135 1.976 . S
O145 C140 1.287 . S
O146 Fe132 1.996 . S
O146 C140 1.255 . S
C147 O151 1.295 . S
C147 O152 1.235 . S
O148 Fe133 1.976 . S
O148 C142 1.287 . S
O149 Fe135 1.996 . S
O149 C142 1.255 . S
C150 O143 1.287 . S
C150 O144 1.255 . S
O151 Fe133 2.002 . S
O151 C147 1.295 . S
O152 Fe135 1.997 . S
O152 C147 1.235 . S
C153 O136 1.295 . S
C153 O137 1.235 . S
Fe154 O156 1.918 . S
Fe154 O159 1.997 . S
Fe154 O160 2.002 . S
Fe154 O165 1.976 . S
Fe154 O168 1.996 . S
Fe155 O156 1.918 . S
Fe155 O163 1.997 . S
Fe155 O166 1.996 . S
Fe155 O170 1.976 . S
Fe155 O173 2.002 . S
O156 Fe154 1.918 . S
O156 Fe155 1.918 . S
O156 Fe157 1.918 . S
Fe157 O156 1.918 . S
Fe157 O158 2.002 . S
Fe157 O167 1.976 . S
Fe157 O171 1.996 . S
Fe157 O174 1.997 . S
O158 Fe157 2.002 . S
O158 C175 1.295 . S
O159 Fe154 1.997 . S
O159 C175 1.235 . S
O160 Fe154 2.002 . S
O160 C161 1.295 . S
C161 O160 1.295 . S
C161 O163 1.235 . S
C162 O167 1.287 . S
C162 O168 1.255 . S
O163 Fe155 1.997 . S
O163 C161 1.235 . S
C164 O170 1.287 . S
C164 O171 1.255 . S
O165 Fe154 1.976 . S
O165 C172 1.287 . S
O166 Fe155 1.996 . S
O166 C172 1.255 . S
O167 Fe157 1.976 . S
O167 C162 1.287 . S
O168 Fe154 1.996 . S
O168 C162 1.255 . S
C169 O173 1.295 . S
C169 O174 1.235 . S
O170 Fe155 1.976 . S
O170 C164 1.287 . S
O171 Fe157 1.996 . S
O171 C164 1.255 . S
C172 O165 1.287 . S
C172 O166 1.255 . S
O173 Fe155 2.002 . S
O173 C169 1.295 . S
O174 Fe157 1.997 . S
O174 C169 1.235 . S
C175 O158 1.295 . S
C175 O159 1.235 . S
H176 C184 0.929 . S
H177 C186 0.930 . S
H178 C188 0.930 . S
H179 C191 0.929 . S
H180 C194 0.930 . S
H181 C196 0.960 . S
H182 C196 0.960 . S
H183 C196 0.960 . S
C184 H176 0.929 . S
C184 C185 1.377 . S
C184 C186 1.384 . S
C185 C184 1.377 . S
C185 C191 1.390 . S
C186 H177 0.930 . S
C186 C184 1.384 . S
C186 C187 1.372 . S
C187 C186 1.372 . S
C187 C188 1.400 . S
C187 C192 1.490 . S
C188 H178 0.930 . S
C188 C187 1.400 . S
C188 C191 1.386 . S
H189 C205 0.930 . S
H190 C206 0.931 . S
C191 H179 0.929 . S
C191 C185 1.390 . S
C191 C188 1.386 . S
C192 C187 1.490 . S
C192 C194 1.395 . S
C192 C195 1.403 . S
H193 C199 0.930 . S
C194 H180 0.930 . S
C194 C192 1.395 . S
C194 C197 1.403 . S
C195 C192 1.403 . S
C195 C196 1.524 . S
C195 C199 1.400 . S
C196 H181 0.960 . S
C196 H182 0.960 . S
C196 H183 0.960 . S
C196 C195 1.524 . S
C197 C194 1.403 . S
C197 C198 1.392 . S
C197 C201 1.495 . S
C198 C197 1.392 . S
C198 C199 1.385 . S
C198 C200 1.478 . S
C199 H193 0.930 . S
C199 C195 1.400 . S
C199 C198 1.385 . S
C200 C198 1.478 . S
C200 C202 1.381 . S
C200 C206 1.383 . S
C201 C197 1.495 . S
C201 H207 0.959 . S
C201 H208 0.961 . S
C201 H209 0.960 . S
C202 C200 1.381 . S
C202 C203 1.394 . S
C202 H210 0.930 . S
C203 C202 1.394 . S
C203 C204 1.383 . S
C203 H211 0.929 . S
C204 C203 1.383 . S
C204 C205 1.377 . S
C205 H189 0.930 . S
C205 C204 1.377 . S
C205 C206 1.379 . S
C206 H190 0.931 . S
C206 C200 1.383 . S
C206 C205 1.379 . S
H207 C201 0.959 . S
H208 C201 0.961 . S
H209 C201 0.960 . S
H210 C202 0.930 . S
H211 C203 0.929 . S
H212 C220 0.929 . S
H213 C222 0.930 . S
H214 C224 0.930 . S
H215 C227 0.929 . S
H216 C230 0.930 . S
H217 C232 0.960 . S
H218 C232 0.960 . S
H219 C232 0.960 . S
C220 H212 0.929 . S
C220 C221 1.377 . S
C220 C222 1.384 . S
C221 C220 1.377 . S
C221 C227 1.390 . S
C222 H213 0.930 . S
C222 C220 1.384 . S
C222 C223 1.372 . S
C223 C222 1.372 . S
C223 C224 1.400 . S
C223 C228 1.490 . S
C224 H214 0.930 . S
C224 C223 1.400 . S
C224 C227 1.386 . S
H225 C241 0.930 . S
H226 C242 0.931 . S
C227 H215 0.929 . S
C227 C221 1.390 . S
C227 C224 1.386 . S
C228 C223 1.490 . S
C228 C230 1.395 . S
C228 C231 1.403 . S
H229 C235 0.930 . S
C230 H216 0.930 . S
C230 C228 1.395 . S
C230 C233 1.403 1_556 S
C231 C228 1.403 . S
C231 C232 1.524 . S
C231 C235 1.400 1_556 S
C232 H217 0.960 . S
C232 H218 0.960 . S
C232 H219 0.960 . S
C232 C231 1.524 . S
C233 C230 1.403 1_554 S
C233 C234 1.392 . S
C233 C237 1.495 . S
C234 C233 1.392 . S
C234 C235 1.385 . S
C234 C236 1.478 . S
C235 H229 0.930 . S
C235 C231 1.400 1_554 S
C235 C234 1.385 . S
C236 C234 1.478 . S
C236 C238 1.381 . S
C236 C242 1.383 . S
C237 C233 1.495 . S
C237 H243 0.959 . S
C237 H244 0.961 . S
C237 H245 0.960 . S
C238 C236 1.381 . S
C238 C239 1.394 . S
C238 H246 0.930 . S
C239 C238 1.394 . S
C239 C240 1.383 . S
C239 H247 0.929 . S
C240 C239 1.383 . S
C240 C241 1.377 . S
C241 H225 0.930 . S
C241 C240 1.377 . S
C241 C242 1.379 . S
C242 H226 0.931 . S
C242 C236 1.383 . S
C242 C241 1.379 . S
H243 C237 0.959 . S
H244 C237 0.961 . S
H245 C237 0.960 . S
H246 C238 0.930 . S
H247 C239 0.929 . S
H248 C256 0.929 . S
H249 C258 0.930 . S
H250 C260 0.930 . S
H251 C263 0.929 . S
H252 C266 0.930 . S
H253 C268 0.960 . S
H254 C268 0.960 . S
H255 C268 0.960 . S
C256 H248 0.929 . S
C256 C257 1.377 . S
C256 C258 1.384 . S
C257 C256 1.377 . S
C257 C263 1.390 . S
C258 H249 0.930 . S
C258 C256 1.384 . S
C258 C259 1.372 . S
C259 C258 1.372 . S
C259 C260 1.400 . S
C259 C264 1.490 . S
C260 H250 0.930 . S
C260 C259 1.400 . S
C260 C263 1.386 . S
H261 C277 0.930 . S
H262 C278 0.931 . S
C263 H251 0.929 . S
C263 C257 1.390 . S
C263 C260 1.386 . S
C264 C259 1.490 . S
C264 C266 1.395 . S
C264 C267 1.403 . S
H265 C271 0.930 . S
C266 H252 0.930 . S
C266 C264 1.395 . S
C266 C269 1.403 . S
C267 C264 1.403 . S
C267 C268 1.524 . S
C267 C271 1.400 . S
C268 H253 0.960 . S
C268 H254 0.960 . S
C268 H255 0.960 . S
C268 C267 1.524 . S
C269 C266 1.403 . S
C269 C270 1.392 . S
C269 C273 1.495 . S
C270 C269 1.392 . S
C270 C271 1.385 . S
C270 C272 1.478 . S
C271 H265 0.930 . S
C271 C267 1.400 . S
C271 C270 1.385 . S
C272 C270 1.478 . S
C272 C274 1.381 . S
C272 C278 1.383 . S
C273 C269 1.495 . S
C273 H279 0.959 . S
C273 H280 0.961 . S
C273 H281 0.960 . S
C274 C272 1.381 . S
C274 C275 1.394 . S
C274 H282 0.930 . S
C275 C274 1.394 . S
C275 C276 1.383 . S
C275 H283 0.929 . S
C276 C275 1.383 . S
C276 C277 1.377 . S
C277 H261 0.930 . S
C277 C276 1.377 . S
C277 C278 1.379 . S
C278 H262 0.931 . S
C278 C272 1.383 . S
C278 C277 1.379 . S
H279 C273 0.959 . S
H280 C273 0.961 . S
H281 C273 0.960 . S
H282 C274 0.930 . S
H283 C275 0.929 . S
H284 C292 0.929 . S
H285 C294 0.930 . S
H286 C296 0.930 . S
H287 C299 0.929 . S
H288 C302 0.930 . S
H289 C304 0.960 . S
H290 C304 0.960 . S
H291 C304 0.960 . S
C292 H284 0.929 . S
C292 C293 1.377 . S
C292 C294 1.384 . S
C293 C292 1.377 . S
C293 C299 1.390 . S
C294 H285 0.930 . S
C294 C292 1.384 . S
C294 C295 1.372 . S
C295 C294 1.372 . S
C295 C296 1.400 . S
C295 C300 1.490 . S
C296 H286 0.930 . S
C296 C295 1.400 . S
C296 C299 1.386 . S
H297 C313 0.930 . S
H298 C314 0.931 . S
C299 H287 0.929 . S
C299 C293 1.390 . S
C299 C296 1.386 . S
C300 C295 1.490 . S
C300 C302 1.395 . S
C300 C303 1.403 . S
H301 C307 0.930 . S
C302 H288 0.930 . S
C302 C300 1.395 . S
C302 C305 1.403 1_554 S
C303 C300 1.403 . S
C303 C304 1.524 . S
C303 C307 1.400 1_554 S
C304 H289 0.960 . S
C304 H290 0.960 . S
C304 H291 0.960 . S
C304 C303 1.524 . S
C305 C302 1.403 1_556 S
C305 C306 1.392 . S
C305 C309 1.495 . S
C306 C305 1.392 . S
C306 C307 1.385 . S
C306 C308 1.478 . S
C307 H301 0.930 . S
C307 C303 1.400 1_556 S
C307 C306 1.385 . S
C308 C306 1.478 . S
C308 C310 1.381 . S
C308 C314 1.383 . S
C309 C305 1.495 . S
C309 H315 0.959 . S
C309 H316 0.961 . S
C309 H317 0.960 . S
C310 C308 1.381 . S
C310 C311 1.394 . S
C310 H318 0.930 . S
C311 C310 1.394 . S
C311 C312 1.383 . S
C311 H319 0.929 . S
C312 C311 1.383 . S
C312 C313 1.377 . S
C313 H297 0.930 . S
C313 C312 1.377 . S
C313 C314 1.379 . S
C314 H298 0.931 . S
C314 C308 1.383 . S
C314 C313 1.379 . S
H315 C309 0.959 . S
H316 C309 0.961 . S
H317 C309 0.960 . S
H318 C310 0.930 . S
H319 C311 0.929 . S
H320 C328 0.929 . S
H321 C330 0.930 . S
H322 C332 0.930 . S
H323 C335 0.929 . S
H324 C338 0.930 . S
H325 C340 0.960 . S
H326 C340 0.960 . S
H327 C340 0.960 . S
C328 H320 0.929 . S
C328 C329 1.377 . S
C328 C330 1.384 1_565 S
C329 C328 1.377 . S
C329 C335 1.390 1_565 S
C330 H321 0.930 . S
C330 C328 1.384 1_545 S
C330 C331 1.372 . S
C331 C330 1.372 . S
C331 C332 1.400 . S
C331 C336 1.490 . S
C332 H322 0.930 . S
C332 C331 1.400 . S
C332 C335 1.386 . S
H333 C349 0.930 . S
H334 C350 0.931 . S
C335 H323 0.929 . S
C335 C329 1.390 1_545 S
C335 C332 1.386 . S
C336 C331 1.490 . S
C336 C338 1.395 . S
C336 C339 1.403 . S
H337 C343 0.930 . S
C338 H324 0.930 . S
C338 C336 1.395 . S
C338 C341 1.403 . S
C339 C336 1.403 . S
C339 C340 1.524 . S
C339 C343 1.400 . S
C340 H325 0.960 . S
C340 H326 0.960 . S
C340 H327 0.960 . S
C340 C339 1.524 . S
C341 C338 1.403 . S
C341 C342 1.392 . S
C341 C345 1.495 . S
C342 C341 1.392 . S
C342 C343 1.385 . S
C342 C344 1.478 . S
C343 H337 0.930 . S
C343 C339 1.400 . S
C343 C342 1.385 . S
C344 C342 1.478 . S
C344 C346 1.381 . S
C344 C350 1.383 . S
C345 C341 1.495 . S
C345 H351 0.959 . S
C345 H352 0.961 . S
C345 H353 0.960 . S
C346 C344 1.381 . S
C346 C347 1.394 . S
C346 H354 0.930 . S
C347 C346 1.394 . S
C347 C348 1.383 . S
C347 H355 0.929 . S
C348 C347 1.383 . S
C348 C349 1.377 . S
C349 H333 0.930 . S
C349 C348 1.377 . S
C349 C350 1.379 . S
C350 H334 0.931 . S
C350 C344 1.383 . S
C350 C349 1.379 . S
H351 C345 0.959 . S
H352 C345 0.961 . S
H353 C345 0.960 . S
H354 C346 0.930 . S
H355 C347 0.929 . S
H356 C364 0.929 . S
H357 C366 0.930 . S
H358 C368 0.930 . S
H359 C371 0.929 . S
H360 C374 0.930 . S
H361 C376 0.960 . S
H362 C376 0.960 . S
H363 C376 0.960 . S
C364 H356 0.929 . S
C364 C365 1.377 1_545 S
C364 C366 1.384 . S
C365 C364 1.377 1_565 S
C365 C371 1.390 . S
C366 H357 0.930 . S
C366 C364 1.384 . S
C366 C367 1.372 . S
C367 C366 1.372 . S
C367 C368 1.400 . S
C367 C372 1.490 . S
C368 H358 0.930 . S
C368 C367 1.400 . S
C368 C371 1.386 1_545 S
H369 C385 0.930 . S
H370 C386 0.931 . S
C371 H359 0.929 . S
C371 C365 1.390 . S
C371 C368 1.386 1_565 S
C372 C367 1.490 . S
C372 C374 1.395 . S
C372 C375 1.403 . S
H373 C379 0.930 . S
C374 H360 0.930 . S
C374 C372 1.395 . S
C374 C377 1.403 . S
C375 C372 1.403 . S
C375 C376 1.524 . S
C375 C379 1.400 . S
C376 H361 0.960 . S
C376 H362 0.960 . S
C376 H363 0.960 . S
C376 C375 1.524 . S
C377 C374 1.403 . S
C377 C378 1.392 . S
C377 C381 1.495 . S
C378 C377 1.392 . S
C378 C379 1.385 . S
C378 C380 1.478 . S
C379 H373 0.930 . S
C379 C375 1.400 . S
C379 C378 1.385 . S
C380 C378 1.478 . S
C380 C382 1.381 . S
C380 C386 1.383 . S
C381 C377 1.495 . S
C381 H387 0.959 . S
C381 H388 0.961 . S
C381 H389 0.960 . S
C382 C380 1.381 . S
C382 C383 1.394 . S
C382 H390 0.930 . S
C383 C382 1.394 . S
C383 C384 1.383 . S
C383 H391 0.929 . S
C384 C383 1.383 . S
C384 C385 1.377 . S
C385 H369 0.930 . S
C385 C384 1.377 . S
C385 C386 1.379 . S
C386 H370 0.931 . S
C386 C380 1.383 . S
C386 C385 1.379 . S
H387 C381 0.959 . S
H388 C381 0.961 . S
H389 C381 0.960 . S
H390 C382 0.930 . S
H391 C383 0.929 . S
H392 C400 0.929 . S
H393 C402 0.930 . S
H394 C404 0.930 . S
H395 C407 0.929 . S
H396 C410 0.930 . S
H397 C412 0.960 . S
H398 C412 0.960 . S
H399 C412 0.960 . S
C400 H392 0.929 . S
C400 C401 1.377 . S
C400 C402 1.384 . S
C401 C400 1.377 . S
C401 C407 1.390 . S
C402 H393 0.930 . S
C402 C400 1.384 . S
C402 C403 1.372 . S
C403 C402 1.372 . S
C403 C404 1.400 . S
C403 C408 1.490 . S
C404 H394 0.930 . S
C404 C403 1.400 . S
C404 C407 1.386 . S
H405 C421 0.929 1_545 S
H406 C422 0.931 . S
C407 H395 0.929 . S
C407 C401 1.390 . S
C407 C404 1.386 . S
C408 C403 1.490 . S
C408 C410 1.395 . S
C408 C411 1.403 . S
H409 C415 0.930 . S
C410 H396 0.930 . S
C410 C408 1.395 . S
C410 C413 1.403 . S
C411 C408 1.403 . S
C411 C412 1.524 . S
C411 C415 1.400 . S
C412 H397 0.960 . S
C412 H398 0.960 . S
C412 H399 0.960 . S
C412 C411 1.524 . S
C413 C410 1.403 . S
C413 C414 1.392 . S
C413 C417 1.495 . S
C414 C413 1.392 . S
C414 C415 1.385 . S
C414 C416 1.478 . S
C415 H409 0.930 . S
C415 C411 1.400 . S
C415 C414 1.385 . S
C416 C414 1.478 . S
C416 C418 1.381 . S
C416 C422 1.383 . S
C417 C413 1.495 . S
C417 H423 0.959 . S
C417 H424 0.961 . S
C417 H425 0.960 . S
C418 C416 1.381 . S
C418 C419 1.394 . S
C418 H426 0.930 . S
C419 C418 1.394 . S
C419 C420 1.383 1_565 S
C419 H427 0.929 . S
C420 C419 1.383 1_545 S
C420 C421 1.377 1_545 S
C421 H405 0.929 1_565 S
C421 C420 1.377 1_565 S
C421 C422 1.380 . S
C422 H406 0.931 . S
C422 C416 1.383 . S
C422 C421 1.380 . S
H423 C417 0.959 . S
H424 C417 0.961 . S
H425 C417 0.960 . S
H426 C418 0.930 . S
H427 C419 0.929 . S
H428 C436 0.929 . S
H429 C438 0.930 . S
H430 C440 0.930 . S
H431 C443 0.929 . S
H432 C446 0.930 . S
H433 C448 0.960 . S
H434 C448 0.960 . S
H435 C448 0.960 . S
C436 H428 0.929 . S
C436 C437 1.377 1_565 S
C436 C438 1.384 . S
C437 C436 1.377 1_545 S
C437 C443 1.390 . S
C438 H429 0.930 . S
C438 C436 1.384 . S
C438 C439 1.372 . S
C439 C438 1.372 . S
C439 C440 1.400 . S
C439 C444 1.490 . S
C440 H430 0.930 . S
C440 C439 1.400 . S
C440 C443 1.386 1_565 S
H441 C457 0.930 . S
H442 C458 0.931 . S
C443 H431 0.929 . S
C443 C437 1.390 . S
C443 C440 1.386 1_545 S
C444 C439 1.490 . S
C444 C446 1.395 . S
C444 C447 1.403 . S
H445 C451 0.930 . S
C446 H432 0.930 . S
C446 C444 1.395 . S
C446 C449 1.403 . S
C447 C444 1.403 . S
C447 C448 1.524 . S
C447 C451 1.400 . S
C448 H433 0.960 . S
C448 H434 0.960 . S
C448 H435 0.960 . S
C448 C447 1.524 . S
C449 C446 1.403 . S
C449 C450 1.392 . S
C449 C453 1.495 . S
C450 C449 1.392 . S
C450 C451 1.385 . S
C450 C452 1.478 . S
C451 H445 0.930 . S
C451 C447 1.400 . S
C451 C450 1.385 . S
C452 C450 1.478 . S
C452 C454 1.381 . S
C452 C458 1.383 . S
C453 C449 1.495 . S
C453 H459 0.959 . S
C453 H460 0.961 . S
C453 H461 0.960 . S
C454 C452 1.381 . S
C454 C455 1.394 . S
C454 H462 0.930 . S
C455 C454 1.394 . S
C455 C456 1.383 . S
C455 H463 0.929 . S
C456 C455 1.383 . S
C456 C457 1.377 . S
C457 H441 0.930 . S
C457 C456 1.377 . S
C457 C458 1.379 . S
C458 H442 0.931 . S
C458 C452 1.383 . S
C458 C457 1.379 . S
H459 C453 0.959 . S
H460 C453 0.961 . S
H461 C453 0.960 . S
H462 C454 0.930 . S
H463 C455 0.929 . S
H464 C472 0.929 . S
H465 C474 0.930 . S
H466 C476 0.930 . S
H467 C479 0.929 . S
H468 C482 0.930 . S
H469 C484 0.960 . S
H470 C484 0.960 . S
H471 C484 0.960 . S
C472 H464 0.929 . S
C472 C473 1.377 . S
C472 C474 1.384 . S
C473 C472 1.377 . S
C473 C479 1.390 . S
C474 H465 0.930 . S
C474 C472 1.384 . S
C474 C475 1.372 . S
C475 C474 1.372 . S
C475 C476 1.400 . S
C475 C480 1.490 . S
C476 H466 0.930 . S
C476 C475 1.400 . S
C476 C479 1.386 . S
H477 C493 0.930 . S
H478 C494 0.931 . S
C479 H467 0.929 . S
C479 C473 1.390 . S
C479 C476 1.386 . S
C480 C475 1.490 . S
C480 C482 1.395 . S
C480 C483 1.403 . S
H481 C487 0.930 . S
C482 H468 0.930 . S
C482 C480 1.395 . S
C482 C485 1.403 . S
C483 C480 1.403 . S
C483 C484 1.524 . S
C483 C487 1.400 . S
C484 H469 0.960 . S
C484 H470 0.960 . S
C484 H471 0.960 . S
C484 C483 1.524 . S
C485 C482 1.403 . S
C485 C486 1.392 . S
C485 C489 1.495 . S
C486 C485 1.392 . S
C486 C487 1.385 . S
C486 C488 1.478 . S
C487 H481 0.930 . S
C487 C483 1.400 . S
C487 C486 1.385 . S
C488 C486 1.478 . S
C488 C490 1.381 . S
C488 C494 1.383 . S
C489 C485 1.495 . S
C489 H495 0.959 . S
C489 H496 0.961 . S
C489 H497 0.960 . S
C490 C488 1.381 . S
C490 C491 1.394 . S
C490 H498 0.930 . S
C491 C490 1.394 . S
C491 C492 1.383 . S
C491 H499 0.929 . S
C492 C491 1.383 . S
C492 C493 1.377 . S
C493 H477 0.930 . S
C493 C492 1.377 . S
C493 C494 1.379 . S
C494 H478 0.931 . S
C494 C488 1.383 . S
C494 C493 1.379 . S
H495 C489 0.959 . S
H496 C489 0.961 . S
H497 C489 0.960 . S
H498 C490 0.930 . S
H499 C491 0.929 . S
H500 C508 0.929 . S
H501 C510 0.930 . S
H502 C512 0.930 . S
H503 C515 0.929 . S
H504 C518 0.930 . S
H505 C520 0.960 . S
H506 C520 0.960 . S
H507 C520 0.960 . S
C508 H500 0.929 . S
C508 C509 1.377 . S
C508 C510 1.384 . S
C509 C508 1.377 . S
C509 C515 1.390 . S
C510 H501 0.930 . S
C510 C508 1.384 . S
C510 C511 1.372 . S
C511 C510 1.372 . S
C511 C512 1.400 . S
C511 C516 1.490 . S
C512 H502 0.930 . S
C512 C511 1.400 . S
C512 C515 1.386 . S
H513 C529 0.930 . S
H514 C530 0.931 . S
C515 H503 0.929 . S
C515 C509 1.390 . S
C515 C512 1.386 . S
C516 C511 1.490 . S
C516 C518 1.395 . S
C516 C519 1.403 . S
H517 C523 0.930 . S
C518 H504 0.930 . S
C518 C516 1.395 . S
C518 C521 1.403 . S
C519 C516 1.403 . S
C519 C520 1.524 . S
C519 C523 1.400 . S
C520 H505 0.960 . S
C520 H506 0.960 . S
C520 H507 0.960 . S
C520 C519 1.524 . S
C521 C518 1.403 . S
C521 C522 1.392 . S
C521 C525 1.495 . S
C522 C521 1.392 . S
C522 C523 1.385 . S
C522 C524 1.478 . S
C523 H517 0.930 . S
C523 C519 1.400 . S
C523 C522 1.385 . S
C524 C522 1.478 . S
C524 C526 1.381 . S
C524 C530 1.383 . S
C525 C521 1.495 . S
C525 H531 0.959 . S
C525 H532 0.961 . S
C525 H533 0.960 . S
C526 C524 1.381 . S
C526 C527 1.394 . S
C526 H534 0.930 . S
C527 C526 1.394 . S
C527 C528 1.383 . S
C527 H535 0.929 . S
C528 C527 1.383 . S
C528 C529 1.377 . S
C529 H513 0.930 . S
C529 C528 1.377 . S
C529 C530 1.379 . S
C530 H514 0.931 . S
C530 C524 1.383 . S
C530 C529 1.379 . S
H531 C525 0.959 . S
H532 C525 0.961 . S
H533 C525 0.960 . S
H534 C526 0.930 . S
H535 C527 0.929 . S
H536 C544 0.929 . S
H537 C546 0.930 . S
H538 C548 0.930 . S
H539 C551 0.929 . S
H540 C554 0.930 . S
H541 C556 0.960 . S
H542 C556 0.960 . S
H543 C556 0.960 . S
C544 H536 0.929 . S
C544 C545 1.377 . S
C544 C546 1.384 . S
C545 C544 1.377 . S
C545 C551 1.390 . S
C546 H537 0.930 . S
C546 C544 1.384 . S
C546 C547 1.372 . S
C547 C546 1.372 . S
C547 C548 1.400 . S
C547 C552 1.490 . S
C548 H538 0.930 . S
C548 C547 1.400 . S
C548 C551 1.386 . S
H549 C565 0.930 . S
H550 C566 0.931 . S
C551 H539 0.929 . S
C551 C545 1.390 . S
C551 C548 1.386 . S
C552 C547 1.490 . S
C552 C554 1.395 . S
C552 C555 1.403 . S
H553 C559 0.930 . S
C554 H540 0.930 . S
C554 C552 1.395 . S
C554 C557 1.403 . S
C555 C552 1.403 . S
C555 C556 1.524 . S
C555 C559 1.400 . S
C556 H541 0.960 . S
C556 H542 0.960 . S
C556 H543 0.960 . S
C556 C555 1.524 . S
C557 C554 1.403 . S
C557 C558 1.392 . S
C557 C561 1.495 . S
C558 C557 1.392 . S
C558 C559 1.385 . S
C558 C560 1.478 . S
C559 H553 0.930 . S
C559 C555 1.400 . S
C559 C558 1.385 . S
C560 C558 1.478 . S
C560 C562 1.381 . S
C560 C566 1.383 . S
C561 C557 1.495 . S
C561 H567 0.959 . S
C561 H568 0.961 . S
C561 H569 0.960 . S
C562 C560 1.381 . S
C562 C563 1.394 . S
C562 H570 0.930 . S
C563 C562 1.394 . S
C563 C564 1.383 . S
C563 H571 0.929 . S
C564 C563 1.383 . S
C564 C565 1.377 . S
C565 H549 0.930 . S
C565 C564 1.377 . S
C565 C566 1.379 . S
C566 H550 0.931 . S
C566 C560 1.383 . S
C566 C565 1.379 . S
H567 C561 0.959 . S
H568 C561 0.961 . S
H569 C561 0.960 . S
H570 C562 0.930 . S
H571 C563 0.929 . S
H572 C580 0.929 . S
H573 C582 0.930 . S
H574 C584 0.930 . S
H575 C587 0.929 . S
H576 C590 0.930 . S
H577 C592 0.960 . S
H578 C592 0.960 . S
H579 C592 0.960 . S
C580 H572 0.929 . S
C580 C581 1.377 . S
C580 C582 1.384 . S
C581 C580 1.377 . S
C581 C587 1.390 . S
C582 H573 0.930 . S
C582 C580 1.384 . S
C582 C583 1.372 . S
C583 C582 1.372 . S
C583 C584 1.400 . S
C583 C588 1.490 . S
C584 H574 0.930 . S
C584 C583 1.400 . S
C584 C587 1.386 . S
H585 C601 0.930 . S
H586 C602 0.931 . S
C587 H575 0.929 . S
C587 C581 1.390 . S
C587 C584 1.386 . S
C588 C583 1.490 . S
C588 C590 1.395 . S
C588 C591 1.403 . S
H589 C595 0.930 . S
C590 H576 0.930 . S
C590 C588 1.395 . S
C590 C593 1.403 . S
C591 C588 1.403 . S
C591 C592 1.524 . S
C591 C595 1.400 . S
C592 H577 0.960 . S
C592 H578 0.960 . S
C592 H579 0.960 . S
C592 C591 1.524 . S
C593 C590 1.403 . S
C593 C594 1.392 . S
C593 C597 1.495 . S
C594 C593 1.392 . S
C594 C595 1.385 . S
C594 C596 1.478 . S
C595 H589 0.930 . S
C595 C591 1.400 . S
C595 C594 1.385 . S
C596 C594 1.478 . S
C596 C598 1.381 . S
C596 C602 1.383 . S
C597 C593 1.495 . S
C597 H603 0.959 . S
C597 H604 0.961 . S
C597 H605 0.960 . S
C598 C596 1.381 . S
C598 C599 1.394 . S
C598 H606 0.930 . S
C599 C598 1.394 . S
C599 C600 1.383 . S
C599 H607 0.929 . S
C600 C599 1.383 . S
C600 C601 1.377 . S
C601 H585 0.930 . S
C601 C600 1.377 . S
C601 C602 1.379 . S
C602 H586 0.931 . S
C602 C596 1.383 . S
C602 C601 1.379 . S
H603 C597 0.959 . S
H604 C597 0.961 . S
H605 C597 0.960 . S
H606 C598 0.930 . S
H607 C599 0.929 . S
H608 C616 0.929 . S
H609 C618 0.930 . S
H610 C620 0.930 . S
H611 C623 0.929 . S
H612 C626 0.930 . S
H613 C628 0.960 . S
H614 C628 0.960 . S
H615 C628 0.960 . S
C616 H608 0.929 . S
C616 C617 1.377 . S
C616 C618 1.384 . S
C617 C616 1.377 . S
C617 C623 1.390 . S
C618 H609 0.930 . S
C618 C616 1.384 . S
C618 C619 1.372 . S
C619 C618 1.372 . S
C619 C620 1.400 . S
C619 C624 1.490 . S
C620 H610 0.930 . S
C620 C619 1.400 . S
C620 C623 1.386 . S
H621 C637 0.930 . S
H622 C638 0.931 . S
C623 H611 0.929 . S
C623 C617 1.390 . S
C623 C620 1.386 . S
C624 C619 1.490 . S
C624 C626 1.395 . S
C624 C627 1.403 . S
H625 C631 0.930 . S
C626 H612 0.930 . S
C626 C624 1.395 . S
C626 C629 1.403 1_455 S
C627 C624 1.403 . S
C627 C628 1.524 . S
C627 C631 1.400 1_455 S
C628 H613 0.960 . S
C628 H614 0.960 . S
C628 H615 0.960 . S
C628 C627 1.524 . S
C629 C626 1.403 1_655 S
C629 C630 1.392 . S
C629 C633 1.495 . S
C630 C629 1.392 . S
C630 C631 1.385 . S
C630 C632 1.478 . S
C631 H625 0.930 . S
C631 C627 1.400 1_655 S
C631 C630 1.385 . S
C632 C630 1.478 . S
C632 C634 1.381 . S
C632 C638 1.383 . S
C633 C629 1.495 . S
C633 H639 0.959 . S
C633 H640 0.961 . S
C633 H641 0.960 . S
C634 C632 1.381 . S
C634 C635 1.394 . S
C634 H642 0.930 . S
C635 C634 1.394 . S
C635 C636 1.383 . S
C635 H643 0.929 . S
C636 C635 1.383 . S
C636 C637 1.377 . S
C637 H621 0.930 . S
C637 C636 1.377 . S
C637 C638 1.379 . S
C638 H622 0.931 . S
C638 C632 1.383 . S
C638 C637 1.379 . S
H639 C633 0.959 . S
H640 C633 0.961 . S
H641 C633 0.960 . S
H642 C634 0.930 . S
H643 C635 0.929 . S
H644 C652 0.929 . S
H645 C654 0.930 . S
H646 C656 0.930 . S
H647 C659 0.929 . S
H648 C662 0.930 . S
H649 C664 0.960 . S
H650 C664 0.960 . S
H651 C664 0.960 . S
C652 H644 0.929 . S
C652 C653 1.377 . S
C652 C654 1.384 . S
C653 C652 1.377 . S
C653 C659 1.390 . S
C654 H645 0.930 . S
C654 C652 1.384 . S
C654 C655 1.372 . S
C655 C654 1.372 . S
C655 C656 1.400 . S
C655 C660 1.490 . S
C656 H646 0.930 . S
C656 C655 1.400 . S
C656 C659 1.386 . S
H657 C673 0.930 . S
H658 C674 0.931 . S
C659 H647 0.929 . S
C659 C653 1.390 . S
C659 C656 1.386 . S
C660 C655 1.490 . S
C660 C662 1.395 . S
C660 C663 1.403 . S
H661 C667 0.930 . S
C662 H648 0.930 . S
C662 C660 1.395 . S
C662 C665 1.403 1_455 S
C663 C660 1.403 . S
C663 C664 1.524 . S
C663 C667 1.400 1_455 S
C664 H649 0.960 . S
C664 H650 0.960 . S
C664 H651 0.960 . S
C664 C663 1.524 . S
C665 C662 1.403 1_655 S
C665 C666 1.392 . S
C665 C669 1.495 . S
C666 C665 1.392 . S
C666 C667 1.385 . S
C666 C668 1.478 . S
C667 H661 0.930 . S
C667 C663 1.400 1_655 S
C667 C666 1.385 . S
C668 C666 1.478 . S
C668 C670 1.381 . S
C668 C674 1.383 . S
C669 C665 1.495 . S
C669 H675 0.959 . S
C669 H676 0.961 . S
C669 H677 0.960 . S
C670 C668 1.381 . S
C670 C671 1.394 . S
C670 H678 0.930 . S
C671 C670 1.394 . S
C671 C672 1.383 . S
C671 H679 0.929 . S
C672 C671 1.383 . S
C672 C673 1.377 . S
C673 H657 0.930 . S
C673 C672 1.377 . S
C673 C674 1.379 . S
C674 H658 0.931 . S
C674 C668 1.383 . S
C674 C673 1.379 . S
H675 C669 0.959 . S
H676 C669 0.961 . S
H677 C669 0.960 . S
H678 C670 0.930 . S
H679 C671 0.929 . S
H680 C688 0.929 . S
H681 C690 0.930 . S
H682 C692 0.930 . S
H683 C695 0.929 . S
H684 C698 0.930 . S
H685 C700 0.960 . S
H686 C700 0.960 . S
H687 C700 0.960 . S
C688 H680 0.929 . S
C688 C689 1.377 . S
C688 C690 1.384 . S
C689 C688 1.377 . S
C689 C695 1.390 . S
C690 H681 0.930 . S
C690 C688 1.384 . S
C690 C691 1.372 . S
C691 C690 1.372 . S
C691 C692 1.400 . S
C691 C696 1.490 . S
C692 H682 0.930 . S
C692 C691 1.400 . S
C692 C695 1.386 . S
H693 C709 0.930 . S
H694 C710 0.931 . S
C695 H683 0.929 . S
C695 C689 1.390 . S
C695 C692 1.386 . S
C696 C691 1.490 . S
C696 C698 1.395 . S
C696 C699 1.403 . S
H697 C703 0.930 . S
C698 H684 0.930 . S
C698 C696 1.395 . S
C698 C701 1.403 . S
C699 C696 1.403 . S
C699 C700 1.524 . S
C699 C703 1.400 . S
C700 H685 0.960 . S
C700 H686 0.960 . S
C700 H687 0.960 . S
C700 C699 1.524 . S
C701 C698 1.403 . S
C701 C702 1.392 . S
C701 C705 1.495 . S
C702 C701 1.392 . S
C702 C703 1.385 . S
C702 C704 1.478 . S
C703 H697 0.930 . S
C703 C699 1.400 . S
C703 C702 1.385 . S
C704 C702 1.478 . S
C704 C706 1.381 . S
C704 C710 1.383 . S
C705 C701 1.495 . S
C705 H711 0.959 . S
C705 H712 0.961 . S
C705 H713 0.960 . S
C706 C704 1.381 . S
C706 C707 1.394 . S
C706 H714 0.930 . S
C707 C706 1.394 . S
C707 C708 1.383 . S
C707 H715 0.929 . S
C708 C707 1.383 . S
C708 C709 1.377 . S
C709 H693 0.930 . S
C709 C708 1.377 . S
C709 C710 1.379 . S
C710 H694 0.931 . S
C710 C704 1.383 . S
C710 C709 1.379 . S
H711 C705 0.959 . S
H712 C705 0.961 . S
H713 C705 0.960 . S
H714 C706 0.930 . S
H715 C707 0.929 . S
H716 C724 0.929 . S
H717 C726 0.930 . S
H718 C728 0.930 . S
H719 C731 0.929 . S
H720 C734 0.930 . S
H721 C736 0.960 . S
H722 C736 0.960 . S
H723 C736 0.960 . S
C724 H716 0.929 . S
C724 C725 1.377 . S
C724 C726 1.384 . S
C725 C724 1.377 . S
C725 C731 1.390 . S
C726 H717 0.930 . S
C726 C724 1.384 . S
C726 C727 1.372 . S
C727 C726 1.372 . S
C727 C728 1.400 . S
C727 C732 1.490 . S
C728 H718 0.930 . S
C728 C727 1.400 . S
C728 C731 1.386 . S
H729 C745 0.930 . S
H730 C746 0.931 . S
C731 H719 0.929 . S
C731 C725 1.390 . S
C731 C728 1.386 . S
C732 C727 1.490 . S
C732 C734 1.395 . S
C732 C735 1.403 . S
H733 C739 0.930 . S
C734 H720 0.930 . S
C734 C732 1.395 . S
C734 C737 1.403 . S
C735 C732 1.403 . S
C735 C736 1.524 . S
C735 C739 1.400 . S
C736 H721 0.960 . S
C736 H722 0.960 . S
C736 H723 0.960 . S
C736 C735 1.524 . S
C737 C734 1.403 . S
C737 C738 1.392 . S
C737 C741 1.495 . S
C738 C737 1.392 . S
C738 C739 1.385 . S
C738 C740 1.478 . S
C739 H733 0.930 . S
C739 C735 1.400 . S
C739 C738 1.385 . S
C740 C738 1.478 . S
C740 C742 1.381 . S
C740 C746 1.383 . S
C741 C737 1.495 . S
C741 H747 0.959 . S
C741 H748 0.961 . S
C741 H749 0.960 . S
C742 C740 1.381 . S
C742 C743 1.394 . S
C742 H750 0.930 . S
C743 C742 1.394 . S
C743 C744 1.383 . S
C743 H751 0.929 . S
C744 C743 1.383 . S
C744 C745 1.377 . S
C745 H729 0.930 . S
C745 C744 1.377 . S
C745 C746 1.379 . S
C746 H730 0.931 . S
C746 C740 1.383 . S
C746 C745 1.379 . S
H747 C741 0.959 . S
H748 C741 0.961 . S
H749 C741 0.960 . S
H750 C742 0.930 . S
H751 C743 0.929 . S
H752 C760 0.929 . S
H753 C762 0.930 . S
H754 C764 0.930 . S
H755 C767 0.929 . S
H756 C770 0.930 . S
H757 C772 0.960 . S
H758 C772 0.960 . S
H759 C772 0.960 . S
C760 H752 0.929 . S
C760 C761 1.377 . S
C760 C762 1.384 . S
C761 C760 1.377 . S
C761 C767 1.390 . S
C762 H753 0.930 . S
C762 C760 1.384 . S
C762 C763 1.372 . S
C763 C762 1.372 . S
C763 C764 1.400 . S
C763 C768 1.490 1_556 S
C764 H754 0.930 . S
C764 C763 1.400 . S
C764 C767 1.386 . S
H765 C781 0.930 . S
H766 C782 0.931 . S
C767 H755 0.929 . S
C767 C761 1.390 . S
C767 C764 1.386 . S
C768 C763 1.490 1_554 S
C768 C770 1.395 . S
C768 C771 1.403 . S
H769 C775 0.930 . S
C770 H756 0.930 . S
C770 C768 1.395 . S
C770 C773 1.403 . S
C771 C768 1.403 . S
C771 C772 1.524 1_554 S
C771 C775 1.400 . S
C772 H757 0.960 . S
C772 H758 0.960 . S
C772 H759 0.960 . S
C772 C771 1.524 1_556 S
C773 C770 1.403 . S
C773 C774 1.392 . S
C773 C777 1.495 . S
C774 C773 1.392 . S
C774 C775 1.385 . S
C774 C776 1.478 . S
C775 H769 0.930 . S
C775 C771 1.400 . S
C775 C774 1.385 . S
C776 C774 1.478 . S
C776 C778 1.381 . S
C776 C782 1.383 . S
C777 C773 1.495 . S
C777 H783 0.959 . S
C777 H784 0.961 . S
C777 H785 0.960 . S
C778 C776 1.381 . S
C778 C779 1.394 . S
C778 H786 0.930 . S
C779 C778 1.394 . S
C779 C780 1.383 . S
C779 H787 0.929 . S
C780 C779 1.383 . S
C780 C781 1.377 . S
C781 H765 0.930 . S
C781 C780 1.377 . S
C781 C782 1.379 . S
C782 H766 0.931 . S
C782 C776 1.383 . S
C782 C781 1.379 . S
H783 C777 0.959 . S
H784 C777 0.961 . S
H785 C777 0.960 . S
H786 C778 0.930 . S
H787 C779 0.929 . S
H788 C796 0.929 . S
H789 C798 0.930 . S
H790 C800 0.930 . S
H791 C803 0.929 . S
H792 C806 0.930 . S
H793 C808 0.960 . S
H794 C808 0.960 . S
H795 C808 0.960 . S
C796 H788 0.929 . S
C796 C797 1.377 . S
C796 C798 1.384 . S
C797 C796 1.377 . S
C797 C803 1.390 . S
C798 H789 0.930 . S
C798 C796 1.384 . S
C798 C799 1.372 . S
C799 C798 1.372 . S
C799 C800 1.400 . S
C799 C804 1.490 . S
C800 H790 0.930 . S
C800 C799 1.400 . S
C800 C803 1.386 . S
H801 C817 0.930 . S
H802 C818 0.931 . S
C803 H791 0.929 . S
C803 C797 1.390 . S
C803 C800 1.386 . S
C804 C799 1.490 . S
C804 C806 1.395 . S
C804 C807 1.403 . S
H805 C811 0.930 . S
C806 H792 0.930 . S
C806 C804 1.395 . S
C806 C809 1.403 . S
C807 C804 1.403 . S
C807 C808 1.524 . S
C807 C811 1.400 . S
C808 H793 0.960 . S
C808 H794 0.960 . S
C808 H795 0.960 . S
C808 C807 1.524 . S
C809 C806 1.403 . S
C809 C810 1.392 . S
C809 C813 1.495 . S
C810 C809 1.392 . S
C810 C811 1.385 . S
C810 C812 1.478 . S
C811 H805 0.930 . S
C811 C807 1.400 . S
C811 C810 1.385 . S
C812 C810 1.478 . S
C812 C814 1.381 . S
C812 C818 1.383 . S
C813 C809 1.495 . S
C813 H819 0.959 . S
C813 H820 0.961 . S
C813 H821 0.960 . S
C814 C812 1.381 . S
C814 C815 1.394 . S
C814 H822 0.930 . S
C815 C814 1.394 . S
C815 C816 1.383 . S
C815 H823 0.929 . S
C816 C815 1.383 . S
C816 C817 1.377 . S
C817 H801 0.930 . S
C817 C816 1.377 . S
C817 C818 1.379 . S
C818 H802 0.931 . S
C818 C812 1.383 . S
C818 C817 1.379 . S
H819 C813 0.959 . S
H820 C813 0.961 . S
H821 C813 0.960 . S
H822 C814 0.930 . S
H823 C815 0.929 . S
H824 C832 0.929 . S
H825 C834 0.930 . S
H826 C836 0.930 . S
H827 C839 0.929 . S
H828 C842 0.930 . S
H829 C844 0.960 . S
H830 C844 0.960 . S
H831 C844 0.960 . S
C832 H824 0.929 . S
C832 C833 1.377 . S
C832 C834 1.384 . S
C833 C832 1.377 . S
C833 C839 1.390 . S
C834 H825 0.930 . S
C834 C832 1.384 . S
C834 C835 1.372 . S
C835 C834 1.372 . S
C835 C836 1.400 . S
C835 C840 1.490 . S
C836 H826 0.930 . S
C836 C835 1.400 . S
C836 C839 1.386 . S
H837 C853 0.930 . S
H838 C854 0.931 . S
C839 H827 0.929 . S
C839 C833 1.390 . S
C839 C836 1.386 . S
C840 C835 1.490 . S
C840 C842 1.395 . S
C840 C843 1.403 . S
H841 C847 0.930 1_554 S
C842 H828 0.930 . S
C842 C840 1.395 . S
C842 C845 1.403 . S
C843 C840 1.403 . S
C843 C844 1.524 . S
C843 C847 1.400 . S
C844 H829 0.960 . S
C844 H830 0.960 . S
C844 H831 0.960 . S
C844 C843 1.524 . S
C845 C842 1.403 . S
C845 C846 1.392 . S
C845 C849 1.495 . S
C846 C845 1.392 . S
C846 C847 1.385 . S
C846 C848 1.478 1_556 S
C847 H841 0.930 1_556 S
C847 C843 1.400 . S
C847 C846 1.385 . S
C848 C846 1.478 1_554 S
C848 C850 1.381 . S
C848 C854 1.383 . S
C849 C845 1.495 . S
C849 H855 0.959 . S
C849 H856 0.961 . S
C849 H857 0.960 1_556 S
C850 C848 1.381 . S
C850 C851 1.394 . S
C850 H858 0.930 . S
C851 C850 1.394 . S
C851 C852 1.383 . S
C851 H859 0.929 . S
C852 C851 1.383 . S
C852 C853 1.377 . S
C853 H837 0.930 . S
C853 C852 1.377 . S
C853 C854 1.379 . S
C854 H838 0.931 . S
C854 C848 1.383 . S
C854 C853 1.379 . S
H855 C849 0.959 . S
H856 C849 0.961 . S
H857 C849 0.960 1_554 S
H858 C850 0.930 . S
H859 C851 0.929 . S
H860 C868 0.929 . S
H861 C870 0.930 . S
H862 C872 0.930 . S
H863 C875 0.929 . S
H864 C878 0.930 . S
H865 C880 0.960 . S
H866 C880 0.960 . S
H867 C880 0.960 . S
C868 H860 0.929 . S
C868 C869 1.377 . S
C868 C870 1.384 . S
C869 C868 1.377 . S
C869 C875 1.390 . S
C870 H861 0.930 . S
C870 C868 1.384 . S
C870 C871 1.372 . S
C871 C870 1.372 . S
C871 C872 1.400 . S
C871 C876 1.490 . S
C872 H862 0.930 . S
C872 C871 1.400 . S
C872 C875 1.386 . S
H873 C889 0.930 . S
H874 C890 0.931 . S
C875 H863 0.929 . S
C875 C869 1.390 . S
C875 C872 1.386 . S
C876 C871 1.490 . S
C876 C878 1.395 . S
C876 C879 1.403 . S
H877 C883 0.930 . S
C878 H864 0.930 . S
C878 C876 1.395 . S
C878 C881 1.403 . S
C879 C876 1.403 . S
C879 C880 1.524 . S
C879 C883 1.400 . S
C880 H865 0.960 . S
C880 H866 0.960 . S
C880 H867 0.960 . S
C880 C879 1.524 . S
C881 C878 1.403 . S
C881 C882 1.392 . S
C881 C885 1.495 . S
C882 C881 1.392 . S
C882 C883 1.385 . S
C882 C884 1.478 . S
C883 H877 0.930 . S
C883 C879 1.400 . S
C883 C882 1.385 . S
C884 C882 1.478 . S
C884 C886 1.381 . S
C884 C890 1.383 . S
C885 C881 1.495 . S
C885 H891 0.959 . S
C885 H892 0.961 . S
C885 H893 0.960 . S
C886 C884 1.381 . S
C886 C887 1.394 . S
C886 H894 0.930 . S
C887 C886 1.394 . S
C887 C888 1.383 . S
C887 H895 0.929 . S
C888 C887 1.383 . S
C888 C889 1.377 . S
C889 H873 0.930 . S
C889 C888 1.377 . S
C889 C890 1.379 . S
C890 H874 0.931 . S
C890 C884 1.383 . S
C890 C889 1.379 . S
H891 C885 0.959 . S
H892 C885 0.961 . S
H893 C885 0.960 . S
H894 C886 0.930 . S
H895 C887 0.929 . S
H896 C904 0.929 . S
H897 C906 0.930 1_565 S
H898 C908 0.930 . S
H899 C911 0.929 . S
H900 C914 0.930 1_545 S
H901 C916 0.960 . S
H902 C916 0.960 1_566 S
H903 C916 0.960 1_556 S
C904 H896 0.929 . S
C904 C905 1.377 . S
C904 C906 1.384 . S
C905 C904 1.377 . S
C905 C911 1.390 . S
C906 H897 0.930 1_545 S
C906 C904 1.384 . S
C906 C907 1.372 . S
C907 C906 1.372 . S
C907 C908 1.400 . S
C907 C912 1.466 1_556 S
C908 H898 0.930 . S
C908 C907 1.400 . S
C908 C911 1.386 . S
H909 C925 0.930 . S
H910 C926 0.931 . S
C911 H899 0.929 . S
C911 C905 1.390 . S
C911 C908 1.386 . S
C912 C907 1.466 1_554 S
C912 C914 1.403 1_545 S
C912 C915 1.419 . S
H913 C919 0.930 . S
C914 H900 0.930 1_565 S
C914 C912 1.403 1_565 S
C914 C917 1.403 . S
C915 C912 1.419 . S
C915 C916 1.524 . S
C915 C919 1.400 1_545 S
C916 H901 0.960 . S
C916 H902 0.960 1_544 S
C916 H903 0.960 1_554 S
C916 C915 1.524 . S
C917 C914 1.403 . S
C917 C918 1.392 . S
C917 C921 1.495 . S
C918 C917 1.392 . S
C918 C919 1.385 . S
C918 C920 1.478 . S
C919 H913 0.930 . S
C919 C915 1.400 1_565 S
C919 C918 1.385 . S
C920 C918 1.478 . S
C920 C922 1.381 . S
C920 C926 1.383 . S
C921 C917 1.495 . S
C921 H927 0.959 . S
C921 H928 0.961 . S
C921 H929 0.960 . S
C922 C920 1.381 . S
C922 C923 1.394 . S
C922 H930 0.930 . S
C923 C922 1.394 . S
C923 C924 1.383 . S
C923 H931 0.929 . S
C924 C923 1.383 . S
C924 C925 1.377 . S
C925 H909 0.930 . S
C925 C924 1.377 . S
C925 C926 1.379 . S
C926 H910 0.931 . S
C926 C920 1.383 . S
C926 C925 1.379 . S
H927 C921 0.959 . S
H928 C921 0.961 . S
H929 C921 0.960 . S
H930 C922 0.930 . S
H931 C923 0.929 . S
H932 C940 0.929 . S
H933 C942 0.930 . S
H934 C944 0.930 . S
H935 C947 0.929 . S
H936 C950 0.930 . S
H937 C952 0.960 . S
H938 C952 0.960 . S
H939 C952 0.960 . S
C940 H932 0.929 . S
C940 C941 1.377 . S
C940 C942 1.384 . S
C941 C940 1.377 . S
C941 C947 1.390 . S
C942 H933 0.930 . S
C942 C940 1.384 . S
C942 C943 1.372 . S
C943 C942 1.372 . S
C943 C944 1.400 . S
C943 C948 1.490 . S
C944 H934 0.930 . S
C944 C943 1.400 . S
C944 C947 1.386 . S
H945 C961 0.930 . S
H946 C962 0.931 . S
C947 H935 0.929 . S
C947 C941 1.390 . S
C947 C944 1.386 . S
C948 C943 1.490 . S
C948 C950 1.395 1_545 S
C948 C951 1.403 . S
H949 C955 0.930 . S
C950 H936 0.930 . S
C950 C948 1.395 1_565 S
C950 C953 1.403 . S
C951 C948 1.403 . S
C951 C952 1.524 . S
C951 C955 1.400 . S
C952 H937 0.960 . S
C952 H938 0.960 . S
C952 H939 0.960 . S
C952 C951 1.524 . S
C953 C950 1.403 . S
C953 C954 1.392 . S
C953 C957 1.495 . S
C954 C953 1.392 . S
C954 C955 1.385 1_565 S
C954 C956 1.478 . S
C955 H949 0.930 . S
C955 C951 1.400 . S
C955 C954 1.385 1_545 S
C956 C954 1.478 . S
C956 C958 1.381 . S
C956 C962 1.383 . S
C957 C953 1.495 . S
C957 H963 0.959 . S
C957 H964 0.961 . S
C957 H965 0.960 . S
C958 C956 1.381 . S
C958 C959 1.394 . S
C958 H966 0.930 . S
C959 C958 1.394 . S
C959 C960 1.383 . S
C959 H967 0.929 . S
C960 C959 1.383 . S
C960 C961 1.377 . S
C961 H945 0.930 . S
C961 C960 1.377 . S
C961 C962 1.379 . S
C962 H946 0.931 . S
C962 C956 1.383 . S
C962 C961 1.379 . S
H963 C957 0.959 . S
H964 C957 0.961 . S
H965 C957 0.960 . S
H966 C958 0.930 . S
H967 C959 0.929 . S
H968 C976 0.929 . S
H969 C978 0.930 . S
H970 C980 0.930 . S
H971 C983 0.929 . S
H972 C986 0.930 . S
H973 C988 0.960 1_556 S
H974 C988 0.960 . S
H975 C988 0.960 . S
C976 H968 0.929 . S
C976 C977 1.377 . S
C976 C978 1.384 . S
C977 C976 1.377 . S
C977 C983 1.390 . S
C978 H969 0.930 . S
C978 C976 1.384 . S
C978 C979 1.372 . S
C979 C978 1.372 . S
C979 C980 1.400 . S
C979 C984 1.490 1_554 S
C980 H970 0.930 . S
C980 C979 1.400 . S
C980 C983 1.386 . S
H981 C997 0.930 . S
H982 C998 0.931 . S
C983 H971 0.929 . S
C983 C977 1.390 . S
C983 C980 1.386 . S
C984 C979 1.490 1_556 S
C984 C986 1.395 . S
C984 C987 1.403 1_565 S
H985 C991 0.930 . S
C986 H972 0.930 . S
C986 C984 1.395 . S
C986 C989 1.403 . S
C987 C984 1.403 1_545 S
C987 C988 1.524 1_556 S
C987 C991 1.400 . S
C988 H973 0.960 1_554 S
C988 H974 0.960 . S
C988 H975 0.960 . S
C988 C987 1.524 1_554 S
C989 C986 1.403 . S
C989 C990 1.392 1_565 S
C989 C993 1.495 . S
C990 C989 1.392 1_545 S
C990 C991 1.385 . S
C990 C992 1.478 . S
C991 H985 0.930 . S
C991 C987 1.400 . S
C991 C990 1.385 . S
C992 C990 1.478 . S
C992 C994 1.381 . S
C992 C998 1.383 . S
C993 C989 1.495 . S
C993 H999 0.959 . S
C993 H1000 0.961 . S
C993 H1001 0.960 1_565 S
C994 C992 1.381 . S
C994 C995 1.394 . S
C994 H1002 0.930 . S
C995 C994 1.394 . S
C995 C996 1.383 . S
C995 H1003 0.929 . S
C996 C995 1.383 . S
C996 C997 1.377 . S
C997 H981 0.930 . S
C997 C996 1.377 . S
C997 C998 1.379 . S
C998 H982 0.931 . S
C998 C992 1.383 . S
C998 C997 1.379 . S
H999 C993 0.959 . S
H1000 C993 0.961 . S
H1001 C993 0.960 1_545 S
H1002 C994 0.930 . S
H1003 C995 0.929 . S
H1004 C1012 0.929 . S
H1005 C1014 0.930 . S
H1006 C1016 0.930 . S
H1007 C1019 0.929 . S
H1008 C1022 0.930 . S
H1009 C1024 0.960 . S
H1010 C1024 0.960 . S
H1011 C1024 0.960 . S
C1012 H1004 0.929 . S
C1012 C1013 1.377 . S
C1012 C1014 1.384 . S
C1013 C1012 1.377 . S
C1013 C1019 1.390 . S
C1014 H1005 0.930 . S
C1014 C1012 1.384 . S
C1014 C1015 1.372 . S
C1015 C1014 1.372 . S
C1015 C1016 1.400 . S
C1015 C1020 1.490 . S
C1016 H1006 0.930 . S
C1016 C1015 1.400 . S
C1016 C1019 1.386 . S
H1017 C1033 0.930 . S
H1018 C1034 0.931 . S
C1019 H1007 0.929 . S
C1019 C1013 1.390 . S
C1019 C1016 1.386 . S
C1020 C1015 1.490 . S
C1020 C1022 1.395 . S
C1020 C1023 1.403 1_545 S
H1021 C1027 0.930 . S
C1022 H1008 0.930 . S
C1022 C1020 1.395 . S
C1022 C1025 1.403 . S
C1023 C1020 1.403 1_565 S
C1023 C1024 1.524 . S
C1023 C1027 1.400 . S
C1024 H1009 0.960 . S
C1024 H1010 0.960 . S
C1024 H1011 0.960 . S
C1024 C1023 1.524 . S
C1025 C1022 1.403 . S
C1025 C1026 1.392 1_545 S
C1025 C1029 1.495 . S
C1026 C1025 1.392 1_565 S
C1026 C1027 1.385 . S
C1026 C1028 1.478 . S
C1027 H1021 0.930 . S
C1027 C1023 1.400 . S
C1027 C1026 1.385 . S
C1028 C1026 1.478 . S
C1028 C1030 1.381 . S
C1028 C1034 1.383 . S
C1029 C1025 1.495 . S
C1029 H1035 0.959 . S
C1029 H1036 0.961 . S
C1029 H1037 0.960 . S
C1030 C1028 1.381 . S
C1030 C1031 1.394 . S
C1030 H1038 0.930 . S
C1031 C1030 1.394 . S
C1031 C1032 1.383 . S
C1031 H1039 0.929 . S
C1032 C1031 1.383 . S
C1032 C1033 1.377 . S
C1033 H1017 0.930 . S
C1033 C1032 1.377 . S
C1033 C1034 1.379 . S
C1034 H1018 0.931 . S
C1034 C1028 1.383 . S
C1034 C1033 1.379 . S
H1035 C1029 0.959 . S
H1036 C1029 0.961 . S
H1037 C1029 0.960 . S
H1038 C1030 0.930 . S
H1039 C1031 0.929 . S
C185 C139 0.815 . S
C204 C15 0.791 . S
C221 C175 0.806 . S
C240 C37 0.846 . S
C257 C103 0.816 . S
C276 C51 0.816 . S
C293 C125 0.815 . S
C312 C81 0.846 . S
C329 C131 1.562 . S
C348 C10 1.500 . S
C365 C109 1.561 . S
C384 C32 1.531 . S
C401 C62 1.531 . S
C420 C169 1.562 . S
C437 C153 1.565 . S
C456 C76 1.503 . S
C473 C43 1.566 . S
C492 C98 1.548 . S
C509 C120 1.530 . S
C528 C21 1.558 . S
C545 C150 1.536 . S
C564 C73 1.545 . S
C581 C65 1.559 . S
C600 C162 1.543 . S
C617 C18 1.405 . S
C636 C40 1.393 . S
C653 C74 1.406 . S
C672 C54 1.413 . S
C689 C128 1.403 . S
C708 C106 1.393 . S
C725 C172 1.409 . S
C744 C142 1.405 . S
C761 C87 1.341 . S
C780 C8 1.316 . S
C797 C30 1.328 . S
C816 C59 1.329 . S
C833 C52 1.334 . S
C852 C29 1.328 . S
C869 C7 1.340 . S
C888 C84 1.322 . S
C905 C161 1.342 . S
C924 C96 1.325 . S
C941 C147 1.342 . S
C960 C118 1.344 . S
C977 C117 1.339 . S
C996 C140 1.321 . S
C1013 C164 1.330 . S
C1032 C95 1.334 . S
