# Generated by pormake.
# Topology gis, (4)-cn, num edge types: 1
# Building blocks:
#     Node 0, Type 0, BuildingBlock: QUQFOY_clean_sbu_3, # of connection points: 4
#     Node 1, Type 0, BuildingBlock: QUQFOY_clean_sbu_3, # of connection points: 4
#     Node 2, Type 0, BuildingBlock: QUQFOY_clean_sbu_3, # of connection points: 4
#     Node 3, Type 0, BuildingBlock: QUQFOY_clean_sbu_3, # of connection points: 4
#     Node 4, Type 0, BuildingBlock: QUQFOY_clean_sbu_3, # of connection points: 4
#     Node 5, Type 0, BuildingBlock: QUQFOY_clean_sbu_3, # of connection points: 4
#     Node 6, Type 0, BuildingBlock: QUQFOY_clean_sbu_3, # of connection points: 4
#     Node 7, Type 0, BuildingBlock: QUQFOY_clean_sbu_3, # of connection points: 4
#     Node 8, Type 0, BuildingBlock: QUQFOY_clean_sbu_3, # of connection points: 4
#     Node 9, Type 0, BuildingBlock: QUQFOY_clean_sbu_3, # of connection points: 4
#     Node 10, Type 0, BuildingBlock: QUQFOY_clean_sbu_3, # of connection points: 4
#     Node 11, Type 0, BuildingBlock: QUQFOY_clean_sbu_3, # of connection points: 4
#     Node 12, Type 0, BuildingBlock: QUQFOY_clean_sbu_3, # of connection points: 4
#     Node 13, Type 0, BuildingBlock: QUQFOY_clean_sbu_3, # of connection points: 4
#     Node 14, Type 0, BuildingBlock: QUQFOY_clean_sbu_3, # of connection points: 4
#     Node 15, Type 0, BuildingBlock: QUQFOY_clean_sbu_3, # of connection points: 4
#     Edge 16, Type (0, 0), BuildingBlock: EYOCIG_clean_linker_4, # of connection points: 2
#     Edge 17, Type (0, 0), BuildingBlock: EYOCIG_clean_linker_4, # of connection points: 2
#     Edge 18, Type (0, 0), BuildingBlock: EYOCIG_clean_linker_4, # of connection points: 2
#     Edge 19, Type (0, 0), BuildingBlock: EYOCIG_clean_linker_4, # of connection points: 2
#     Edge 20, Type (0, 0), BuildingBlock: EYOCIG_clean_linker_4, # of connection points: 2
#     Edge 21, Type (0, 0), BuildingBlock: EYOCIG_clean_linker_4, # of connection points: 2
#     Edge 22, Type (0, 0), BuildingBlock: EYOCIG_clean_linker_4, # of connection points: 2
#     Edge 23, Type (0, 0), BuildingBlock: EYOCIG_clean_linker_4, # of connection points: 2
#     Edge 24, Type (0, 0), BuildingBlock: EYOCIG_clean_linker_4, # of connection points: 2
#     Edge 25, Type (0, 0), BuildingBlock: EYOCIG_clean_linker_4, # of connection points: 2
#     Edge 26, Type (0, 0), BuildingBlock: EYOCIG_clean_linker_4, # of connection points: 2
#     Edge 27, Type (0, 0), BuildingBlock: EYOCIG_clean_linker_4, # of connection points: 2
#     Edge 28, Type (0, 0), BuildingBlock: EYOCIG_clean_linker_4, # of connection points: 2
#     Edge 29, Type (0, 0), BuildingBlock: EYOCIG_clean_linker_4, # of connection points: 2
#     Edge 30, Type (0, 0), BuildingBlock: EYOCIG_clean_linker_4, # of connection points: 2
#     Edge 31, Type (0, 0), BuildingBlock: EYOCIG_clean_linker_4, # of connection points: 2
#     Edge 32, Type (0, 0), BuildingBlock: EYOCIG_clean_linker_4, # of connection points: 2
#     Edge 33, Type (0, 0), BuildingBlock: EYOCIG_clean_linker_4, # of connection points: 2
#     Edge 34, Type (0, 0), BuildingBlock: EYOCIG_clean_linker_4, # of connection points: 2
#     Edge 35, Type (0, 0), BuildingBlock: EYOCIG_clean_linker_4, # of connection points: 2
#     Edge 36, Type (0, 0), BuildingBlock: EYOCIG_clean_linker_4, # of connection points: 2
#     Edge 37, Type (0, 0), BuildingBlock: EYOCIG_clean_linker_4, # of connection points: 2
#     Edge 38, Type (0, 0), BuildingBlock: EYOCIG_clean_linker_4, # of connection points: 2
#     Edge 39, Type (0, 0), BuildingBlock: EYOCIG_clean_linker_4, # of connection points: 2
#     Edge 40, Type (0, 0), BuildingBlock: EYOCIG_clean_linker_4, # of connection points: 2
#     Edge 41, Type (0, 0), BuildingBlock: EYOCIG_clean_linker_4, # of connection points: 2
#     Edge 42, Type (0, 0), BuildingBlock: EYOCIG_clean_linker_4, # of connection points: 2
#     Edge 43, Type (0, 0), BuildingBlock: EYOCIG_clean_linker_4, # of connection points: 2
#     Edge 44, Type (0, 0), BuildingBlock: EYOCIG_clean_linker_4, # of connection points: 2
#     Edge 45, Type (0, 0), BuildingBlock: EYOCIG_clean_linker_4, # of connection points: 2
#     Edge 46, Type (0, 0), BuildingBlock: EYOCIG_clean_linker_4, # of connection points: 2
#     Edge 47, Type (0, 0), BuildingBlock: EYOCIG_clean_linker_4, # of connection points: 2
# Relax obj value: 0.062
# Max RMSD: 0.132
# Mean RMSD: 0.124
data_MOF--net-gis--node1-QUQFOY_clean_sbu_3--edge1-EYOCIG_clean_linker_4
_symmetry_space_group_name_H-M    P1
_symmetry_Int_Tables_number       1
_symmetry_cell_setting            triclinic
loop_
_symmetry_equiv_pos_as_xyz
'x, y, z'
_cell_length_a     43.940154
_cell_length_b     46.438005
_cell_length_c     30.770021
_cell_angle_alpha  90.385488
_cell_angle_beta   90.365998
_cell_angle_gamma 90.004875
loop_
_atom_site_label
_atom_site_type_symbol
_atom_site_fract_x
_atom_site_fract_y
_atom_site_fract_z
_atom_type_partial_charge
C0 C 0.15921 0.58341 0.1708 0.0
O1 O 0.13761 0.59212 0.19458 0.0
Cd2 Cd 0.08975 0.60964 0.1694 0.0
O3 O 0.15593 0.57996 0.13003 0.0
Cd4 Cd 0.11292 0.58056 0.07785 0.0
C5 C 0.11726 0.65172 0.08332 0.0
O6 O 0.06925 0.57249 0.12518 0.0
O7 O 0.05888 0.58857 0.06089 0.0
O8 O 0.12327 0.53021 0.0681 0.0
C9 C 0.04942 0.5797 0.09727 0.0
O10 O 0.10465 0.64821 0.12008 0.0
C11 C 0.12741 0.53114 0.02748 0.0
O12 O 0.12491 0.63044 0.05939 0.0
O13 O 0.1254 0.55553 0.00904 0.0
C14 C 0.65872 0.85696 0.28399 0.0
O15 O 0.63719 0.84738 0.26046 0.0
Cd16 Cd 0.59026 0.82875 0.28626 0.0
O17 O 0.65592 0.86026 0.32476 0.0
Cd18 Cd 0.61367 0.85823 0.37674 0.0
C19 C 0.61903 0.78762 0.37297 0.0
O20 O 0.56995 0.86675 0.32863 0.0
O21 O 0.55948 0.85102 0.39286 0.0
O22 O 0.62489 0.908 0.38835 0.0
C23 C 0.55008 0.86004 0.35636 0.0
O24 O 0.60603 0.7906 0.33616 0.0
C25 C 0.62973 0.9061 0.4288 0.0
O26 O 0.62657 0.80917 0.39638 0.0
O27 O 0.62726 0.88148 0.44628 0.0
C28 C 0.28302 0.35415 0.67142 0.0
O29 O 0.30435 0.34445 0.69505 0.0
Cd30 Cd 0.35163 0.32557 0.66967 0.0
O31 O 0.2863 0.35759 0.63071 0.0
Cd32 Cd 0.32916 0.35521 0.57821 0.0
C33 C 0.32332 0.28367 0.58257 0.0
O34 O 0.37313 0.36238 0.62707 0.0
O35 O 0.38346 0.3468 0.56251 0.0
O36 O 0.31961 0.40579 0.56839 0.0
C37 C 0.39299 0.3549 0.59958 0.0
O38 O 0.33592 0.28714 0.61961 0.0
C39 C 0.31605 0.40491 0.52757 0.0
O40 O 0.31615 0.30502 0.5587 0.0
O41 O 0.31765 0.3804 0.50893 0.0
C42 C 0.77965 0.08148 0.7916 0.0
O43 O 0.80112 0.09024 0.7678 0.0
Cd44 Cd 0.84825 0.10898 0.79319 0.0
O45 O 0.78272 0.07879 0.83241 0.0
Cd46 Cd 0.82513 0.08087 0.88452 0.0
C47 C 0.81862 0.15157 0.87808 0.0
O48 O 0.86817 0.07167 0.83678 0.0
O49 O 0.87921 0.08844 0.9008 0.0
O50 O 0.81483 0.0309 0.89458 0.0
C51 C 0.88825 0.07864 0.86456 0.0
O52 O 0.83153 0.14784 0.84154 0.0
C53 C 0.81121 0.03238 0.93528 0.0
O54 O 0.81185 0.13052 0.9025 0.0
O55 O 0.81316 0.05699 0.95351 0.0
C56 C 0.15663 0.35409 0.78411 0.0
O57 O 0.1351 0.34445 0.76058 0.0
Cd58 Cd 0.08784 0.32613 0.78707 0.0
O59 O 0.15354 0.35761 0.82486 0.0
Cd60 Cd 0.11074 0.35546 0.87707 0.0
C61 C 0.11548 0.28417 0.87317 0.0
O62 O 0.06602 0.36363 0.82946 0.0
O63 O 0.05691 0.3475 0.89393 0.0
O64 O 0.12118 0.40564 0.8897 0.0
C65 C 0.0467 0.35653 0.8579 0.0
O66 O 0.10269 0.28729 0.83626 0.0
C67 C 0.12594 0.40368 0.93017 0.0
O68 O 0.12324 0.30572 0.89656 0.0
O69 O 0.12404 0.37886 0.94718 0.0
C70 C 0.78271 0.85568 0.16962 0.0
O71 O 0.80429 0.84694 0.19362 0.0
Cd72 Cd 0.85107 0.82741 0.16834 0.0
O73 O 0.78553 0.85788 0.12872 0.0
Cd74 Cd 0.82757 0.85517 0.0763 0.0
C75 C 0.82114 0.78466 0.08309 0.0
O76 O 0.87171 0.86352 0.12386 0.0
O77 O 0.88144 0.84702 0.05951 0.0
O78 O 0.81705 0.90513 0.06688 0.0
C79 C 0.89126 0.85577 0.09611 0.0
O80 O 0.8341 0.78877 0.11973 0.0
C81 C 0.81278 0.90393 0.02622 0.0
O82 O 0.81398 0.80546 0.05828 0.0
O83 O 0.81467 0.87946 0.00753 0.0
C84 C 0.28351 0.58435 0.28925 0.0
O85 O 0.30514 0.59348 0.26608 0.0
Cd86 Cd 0.35253 0.61173 0.29142 0.0
O87 O 0.28633 0.58116 0.33013 0.0
Cd88 Cd 0.3287 0.5833 0.38391 0.0
C89 C 0.32441 0.65473 0.37724 0.0
O90 O 0.37178 0.5747 0.33549 0.0
O91 O 0.38325 0.59085 0.39952 0.0
O92 O 0.31865 0.53295 0.39437 0.0
C93 C 0.39212 0.58192 0.3627 0.0
O94 O 0.33701 0.65042 0.34063 0.0
C95 C 0.3154 0.5341 0.43516 0.0
O96 O 0.31665 0.63393 0.40172 0.0
O97 O 0.31721 0.55872 0.45347 0.0
C98 C 0.65819 0.08109 0.67109 0.0
O99 O 0.63633 0.09017 0.69401 0.0
Cd100 Cd 0.58984 0.10904 0.66731 0.0
O101 O 0.65601 0.07828 0.63013 0.0
Cd102 Cd 0.61442 0.08044 0.57671 0.0
C103 C 0.62092 0.15089 0.58354 0.0
O104 O 0.57092 0.07112 0.6234 0.0
O105 O 0.56036 0.08743 0.55933 0.0
O106 O 0.62577 0.03073 0.56559 0.0
C107 C 0.55106 0.07772 0.59529 0.0
O108 O 0.60748 0.14742 0.61967 0.0
C109 C 0.63051 0.03257 0.52521 0.0
O110 O 0.62797 0.12971 0.5592 0.0
O111 O 0.6281 0.05717 0.50759 0.0
C112 C 0.78418 0.3601 0.78729 0.0
O113 O 0.8052 0.35106 0.7627 0.0
Cd114 Cd 0.85255 0.33181 0.78813 0.0
O115 O 0.78827 0.36318 0.82796 0.0
Cd116 Cd 0.83174 0.36148 0.87904 0.0
C117 C 0.82287 0.29048 0.87321 0.0
O118 O 0.87582 0.36842 0.83123 0.0
O119 O 0.88545 0.35242 0.89586 0.0
O120 O 0.82155 0.41199 0.89031 0.0
C121 C 0.89534 0.36083 0.85947 0.0
O122 O 0.83545 0.29313 0.83625 0.0
C123 C 0.81759 0.4102 0.93094 0.0
O124 O 0.81729 0.3122 0.89735 0.0
O125 O 0.81985 0.38548 0.94823 0.0
C126 C 0.32593 0.03485 0.5166 0.0
O127 O 0.33356 0.0541 0.48976 0.0
Cd128 Cd 0.35284 0.10051 0.51131 0.0
O129 O 0.32446 0.0402 0.55706 0.0
Cd130 Cd 0.32754 0.08309 0.60461 0.0
C131 C 0.4019 0.07829 0.59505 0.0
O132 O 0.3151 0.12299 0.55529 0.0
O133 O 0.33581 0.13459 0.61712 0.0
O134 O 0.27584 0.07252 0.62288 0.0
C135 C 0.32356 0.14252 0.58175 0.0
O136 O 0.39672 0.08874 0.55757 0.0
C137 C 0.28073 0.06994 0.66325 0.0
O138 O 0.38044 0.07223 0.62095 0.0
O139 O 0.3078 0.07326 0.6772 0.0
C140 C 0.65257 0.57931 0.28869 0.0
O141 O 0.63161 0.58786 0.26336 0.0
Cd142 Cd 0.58411 0.60688 0.28805 0.0
O143 O 0.64828 0.57656 0.32918 0.0
Cd144 Cd 0.60567 0.5785 0.37999 0.0
C145 C 0.61362 0.64897 0.37422 0.0
O146 O 0.56193 0.57052 0.33126 0.0
O147 O 0.55196 0.58734 0.39544 0.0
O148 O 0.61646 0.52874 0.39291 0.0
C149 C 0.54229 0.57854 0.3588 0.0
O150 O 0.60091 0.64577 0.33716 0.0
C151 C 0.62118 0.53153 0.43334 0.0
O152 O 0.61982 0.62763 0.39841 0.0
O153 O 0.61882 0.55655 0.45002 0.0
C154 C 0.15208 0.8624 0.16865 0.0
O155 O 0.13124 0.85345 0.1935 0.0
Cd156 Cd 0.08351 0.83394 0.16862 0.0
O157 O 0.14776 0.86505 0.12803 0.0
Cd158 Cd 0.10487 0.86227 0.0763 0.0
C159 C 0.11183 0.79131 0.08266 0.0
O160 O 0.0611 0.86959 0.12415 0.0
O161 O 0.05113 0.85316 0.05963 0.0
O162 O 0.11488 0.91241 0.06309 0.0
C163 C 0.04148 0.86129 0.09644 0.0
O164 O 0.09945 0.79483 0.11966 0.0
C165 C 0.11929 0.9095 0.02266 0.0
O166 O 0.11829 0.81253 0.05838 0.0
O167 O 0.11721 0.88435 0.00634 0.0
C168 C 0.82255 0.53784 0.02634 0.0
O169 O 0.82984 0.55729 -0.0004 0.0
Cd170 Cd 0.84919 0.60378 0.02079 0.0
O171 O 0.82162 0.54284 0.06695 0.0
Cd172 Cd 0.82504 0.5853 0.11523 0.0
C173 C 0.89948 0.58227 0.10417 0.0
O174 O 0.81163 0.6245 0.06609 0.0
O175 O 0.83264 0.6369 0.12737 0.0
O176 O 0.77311 0.57473 0.13284 0.0
C177 C 0.82003 0.64431 0.09201 0.0
O178 O 0.89327 0.59261 0.06693 0.0
C179 C 0.7777 0.57321 0.17343 0.0
O180 O 0.87865 0.57545 0.13077 0.0
O181 O 0.8047 0.57664 0.18754 0.0
C182 C 0.11463 0.03725 0.93263 0.0
O183 O 0.10731 0.05624 0.96049 0.0
Cd184 Cd 0.08758 0.10272 0.94085 0.0
O185 O 0.11543 0.04284 0.89234 0.0
Cd186 Cd 0.1117 0.08491 0.84477 0.0
C187 C 0.0376 0.0804 0.8571 0.0
O188 O 0.12474 0.12393 0.89556 0.0
O189 O 0.10439 0.1367 0.8343 0.0
O190 O 0.1632 0.07369 0.82621 0.0
C191 C 0.11625 0.14392 0.87043 0.0
O192 O 0.04367 0.09068 0.89462 0.0
C193 C 0.15827 0.07093 0.78583 0.0
O194 O 0.05841 0.07433 0.82998 0.0
O195 O 0.13123 0.07449 0.77192 0.0
C196 C 0.65384 0.35906 0.68139 0.0
O197 O 0.63253 0.34959 0.7049 0.0
Cd198 Cd 0.58581 0.32982 0.6778 0.0
O199 O 0.65046 0.3622 0.64066 0.0
Cd200 Cd 0.60772 0.35979 0.58808 0.0
C201 C 0.61682 0.28922 0.59197 0.0
O202 O 0.56292 0.36618 0.63499 0.0
O203 O 0.55427 0.35022 0.5698 0.0
O204 O 0.61775 0.40987 0.57673 0.0
C205 C 0.54385 0.35816 0.60627 0.0
O206 O 0.60372 0.29162 0.62864 0.0
C207 C 0.62242 0.40768 0.53629 0.0
O208 O 0.62273 0.31104 0.56872 0.0
O209 O 0.62047 0.38284 0.51885 0.0
C210 C 0.32498 0.90321 0.43326 0.0
O211 O 0.33346 0.88397 0.45974 0.0
Cd212 Cd 0.3524 0.83743 0.43884 0.0
O213 O 0.3226 0.89799 0.39278 0.0
Cd214 Cd 0.32536 0.8552 0.34474 0.0
C215 C 0.40058 0.8589 0.35451 0.0
O216 O 0.31417 0.81558 0.39478 0.0
O217 O 0.33351 0.80351 0.33269 0.0
O218 O 0.27309 0.86551 0.32484 0.0
C219 C 0.32249 0.79584 0.36879 0.0
O220 O 0.39576 0.84854 0.39205 0.0
C221 C 0.27826 0.86779 0.28454 0.0
O222 O 0.3788 0.86536 0.32887 0.0
O223 O 0.30548 0.86454 0.27176 0.0
C224 C 0.12188 0.73682 0.06354 0.0
C225 C 0.11837 0.76236 0.0689 0.0
C226 C 0.12329 0.7064 0.06357 0.0
C227 C 0.12182 0.68073 0.06897 0.0
C228 C 0.45892 0.86343 0.33762 0.0
C229 C 0.43164 0.86244 0.34141 0.0
C230 C 0.49104 0.86281 0.34012 0.0
C231 C 0.51815 0.86181 0.34643 0.0
C232 C 0.31648 0.22868 0.56424 0.0
C233 C 0.31809 0.25453 0.56824 0.0
C234 C 0.31753 0.19823 0.56632 0.0
C235 C 0.31982 0.17259 0.57197 0.0
C236 C -0.02112 0.0747 0.84392 0.0
C237 C 0.00621 0.07623 0.84595 0.0
C238 C 0.94694 0.07516 0.84794 0.0
C239 C 0.92001 0.07654 0.85471 0.0
C240 C 0.12162 0.22957 0.89273 0.0
C241 C 0.1203 0.2553 0.88807 0.0
C242 C 0.12083 0.19919 0.89015 0.0
C243 C 0.11926 0.17369 0.88275 0.0
C244 C 0.95048 0.85596 0.11121 0.0
C245 C 0.92326 0.85625 0.10586 0.0
C246 C -0.0174 0.85728 0.11163 0.0
C247 C 0.0097 0.85959 0.10674 0.0
C248 C 0.3187 0.71013 0.39252 0.0
C249 C 0.31974 0.68418 0.39015 0.0
C250 C 0.31943 0.74045 0.38804 0.0
C251 C 0.3205 0.76591 0.38031 0.0
C252 C 0.49221 0.07347 0.61 0.0
C253 C 0.51924 0.07514 0.60436 0.0
C254 C 0.46018 0.07276 0.61192 0.0
C255 C 0.43296 0.07425 0.60793 0.0
C256 C 0.80965 0.20634 0.89525 0.0
C257 C 0.81234 0.18062 0.89135 0.0
C258 C 0.81088 0.2367 0.89356 0.0
C259 C 0.81534 0.26197 0.88738 0.0
C260 C 0.62474 0.70306 0.3941 0.0
C261 C 0.62075 0.67766 0.38836 0.0
C262 C 0.62615 0.73339 0.39404 0.0
C263 C 0.62423 0.75893 0.38806 0.0
C264 C 0.81428 0.6994 0.07314 0.0
C265 C 0.81659 0.67408 0.08084 0.0
C266 C 0.81335 0.72958 0.06835 0.0
C267 C 0.81529 0.75543 0.07045 0.0
C268 C 0.6291 0.23573 0.56985 0.0
C269 C 0.62453 0.26089 0.57694 0.0
C270 C 0.63034 0.20544 0.56725 0.0
C271 C 0.62753 0.17977 0.57069 0.0
C272 C -0.01298 0.35875 0.84573 0.0
C273 C 0.01442 0.35813 0.84965 0.0
C274 C 0.95477 0.35974 0.84595 0.0
C275 C 0.92746 0.36066 0.85032 0.0
C276 C 0.48308 0.58031 0.34418 0.0
C277 C 0.51034 0.57894 0.34858 0.0
C278 C 0.45095 0.58121 0.34556 0.0
C279 C 0.42387 0.58117 0.35183 0.0
C280 C 0.48438 0.355 0.61836 0.0
C281 C 0.5117 0.35691 0.61493 0.0
C282 C 0.45216 0.35415 0.61643 0.0
C283 C 0.42498 0.35482 0.61018 0.0
C284 C -0.00955 0.57831 0.11357 0.0
C285 C 0.01748 0.57875 0.10694 0.0
C286 C 0.95842 0.57799 0.11748 0.0
C287 C 0.93101 0.57885 0.11539 0.0
C288 C 0.13509 0.48115 -0.0118 0.0
C289 C 0.1318 0.50487 0.00359 0.0
C290 C 0.1348 0.45274 0.97163 0.0
C291 C 0.13104 0.42929 0.95547 0.0
C292 C 0.70835 0.86811 0.24087 0.0
C293 C 0.68677 0.86379 0.26355 0.0
C294 C 0.73286 0.86772 0.21196 0.0
C295 C 0.75456 0.86289 0.18964 0.0
C296 C 0.3103 0.45524 0.48919 0.0
C297 C 0.31272 0.43131 0.50392 0.0
C298 C 0.31015 0.48394 0.47403 0.0
C299 C 0.31235 0.50783 0.45917 0.0
C300 C 0.70673 0.06986 0.71692 0.0
C301 C 0.68587 0.07416 0.69263 0.0
C302 C 0.73015 0.07005 0.74782 0.0
C303 C 0.75148 0.07447 0.77128 0.0
C304 C 0.81042 0.45841 0.97529 0.0
C305 C 0.81359 0.43577 0.95655 0.0
C306 C 0.81169 0.48578 -0.00473 0.0
C307 C 0.8165 0.50931 0.01052 0.0
C308 C 0.2058 0.06233 0.73622 0.0
C309 C 0.18315 0.06621 0.75709 0.0
C310 C 0.23318 0.06212 0.71294 0.0
C311 C 0.25582 0.06564 0.69199 0.0
C312 C 0.63082 0.48376 0.47634 0.0
C313 C 0.62665 0.50659 0.45915 0.0
C314 C 0.63108 0.45607 0.49454 0.0
C315 C 0.62734 0.43305 0.51129 0.0
C316 C 0.23193 0.87431 0.23078 0.0
C317 C 0.25366 0.87134 0.25433 0.0
C318 C 0.20513 0.87314 0.20548 0.0
C319 C 0.18145 0.86863 0.1868 0.0
C320 C 0.64008 -0.01653 0.48515 0.0
C321 C 0.636 0.00698 0.50057 0.0
C322 C 0.63989 0.95507 0.46912 0.0
C323 C 0.63554 0.93162 0.45358 0.0
C324 C 0.23242 0.36463 0.71377 0.0
C325 C 0.25452 0.36058 0.69162 0.0
C326 C 0.20719 0.36456 0.7418 0.0
C327 C 0.18506 0.36047 0.7638 0.0
C328 C 0.80497 -0.01738 0.97402 0.0
C329 C 0.80758 0.00643 0.9594 0.0
C330 C 0.80528 0.95394 -0.0115 0.0
C331 C 0.80843 0.93005 0.00269 0.0
C332 C 0.20969 0.57426 0.21413 0.0
C333 C 0.18785 0.57767 0.19109 0.0
C334 C 0.23387 0.57435 0.24421 0.0
C335 C 0.25528 0.5781 0.26803 0.0
C336 C 0.31629 -0.01734 0.48531 0.0
C337 C 0.32046 0.00616 0.50103 0.0
C338 C 0.31601 0.95521 0.46548 0.0
C339 C 0.31982 0.93182 0.44929 0.0
C340 C 0.73186 0.56833 0.22721 0.0
C341 C 0.7528 0.57056 0.2026 0.0
C342 C 0.70572 0.5697 0.25308 0.0
C343 C 0.68202 0.5737 0.27132 0.0
C344 C 0.12717 0.95695 0.97801 0.0
C345 C 0.12377 0.93436 -0.00374 0.0
C346 C 0.12589 -0.01534 0.95986 0.0
C347 C 0.12085 0.00851 0.94661 0.0
C348 C 0.70533 0.3695 0.72244 0.0
C349 C 0.68256 0.36527 0.70147 0.0
C350 C 0.7318 0.36972 0.74841 0.0
C351 C 0.75496 0.36588 0.76857 0.0
loop_
_geom_bond_atom_site_label_1
_geom_bond_atom_site_label_2
_geom_bond_distance
_geom_bond_site_symmetry_2
_ccdc_geom_bond_type
C0 O1 1.306 . S
C0 O3 1.160 . S
O1 C0 1.306 . S
O1 Cd2 2.228 . S
Cd2 O1 2.228 . S
Cd2 O6 2.273 . S
Cd2 O10 2.277 . S
O3 C0 1.160 . S
O3 Cd4 2.203 . S
Cd4 O3 2.203 . S
Cd4 O6 2.411 . S
Cd4 O7 2.333 . S
Cd4 O8 2.352 . S
Cd4 O12 2.277 . S
Cd4 O13 2.356 . S
C5 O10 1.209 . S
C5 O12 1.226 . S
O6 Cd2 2.273 . S
O6 Cd4 2.411 . S
O6 C9 1.320 . S
O7 Cd4 2.333 . S
O7 C9 1.214 . S
O8 Cd4 2.352 . S
O8 C11 1.258 . S
C9 O6 1.320 . S
C9 O7 1.214 . S
O10 Cd2 2.277 . S
O10 C5 1.209 . S
C11 O8 1.258 . S
C11 O13 1.282 . S
O12 Cd4 2.277 . S
O12 C5 1.226 . S
O13 Cd4 2.356 . S
O13 C11 1.282 . S
C14 O15 1.306 . S
C14 O17 1.160 . S
O15 C14 1.306 . S
O15 Cd16 2.228 . S
Cd16 O15 2.228 . S
Cd16 O20 2.273 . S
Cd16 O24 2.277 . S
O17 C14 1.160 . S
O17 Cd18 2.203 . S
Cd18 O17 2.203 . S
Cd18 O20 2.411 . S
Cd18 O21 2.333 . S
Cd18 O22 2.352 . S
Cd18 O26 2.277 . S
Cd18 O27 2.356 . S
C19 O24 1.209 . S
C19 O26 1.226 . S
O20 Cd16 2.273 . S
O20 Cd18 2.411 . S
O20 C23 1.320 . S
O21 Cd18 2.333 . S
O21 C23 1.214 . S
O22 Cd18 2.352 . S
O22 C25 1.258 . S
C23 O20 1.320 . S
C23 O21 1.214 . S
O24 Cd16 2.277 . S
O24 C19 1.209 . S
C25 O22 1.258 . S
C25 O27 1.282 . S
O26 Cd18 2.277 . S
O26 C19 1.226 . S
O27 Cd18 2.356 . S
O27 C25 1.282 . S
C28 O29 1.306 . S
C28 O31 1.160 . S
O29 C28 1.306 . S
O29 Cd30 2.228 . S
Cd30 O29 2.228 . S
Cd30 O34 2.273 . S
Cd30 O38 2.277 . S
O31 C28 1.160 . S
O31 Cd32 2.203 . S
Cd32 O31 2.203 . S
Cd32 O34 2.411 . S
Cd32 O35 2.333 . S
Cd32 O36 2.352 . S
Cd32 O40 2.277 . S
Cd32 O41 2.356 . S
C33 O38 1.209 . S
C33 O40 1.226 . S
O34 Cd30 2.273 . S
O34 Cd32 2.411 . S
O34 C37 1.320 . S
O35 Cd32 2.333 . S
O35 C37 1.214 . S
O36 Cd32 2.352 . S
O36 C39 1.258 . S
C37 O34 1.320 . S
C37 O35 1.214 . S
O38 Cd30 2.277 . S
O38 C33 1.209 . S
C39 O36 1.258 . S
C39 O41 1.282 . S
O40 Cd32 2.277 . S
O40 C33 1.226 . S
O41 Cd32 2.356 . S
O41 C39 1.282 . S
C42 O43 1.306 . S
C42 O45 1.160 . S
O43 C42 1.306 . S
O43 Cd44 2.228 . S
Cd44 O43 2.228 . S
Cd44 O48 2.273 . S
Cd44 O52 2.277 . S
O45 C42 1.160 . S
O45 Cd46 2.203 . S
Cd46 O45 2.203 . S
Cd46 O48 2.411 . S
Cd46 O49 2.333 . S
Cd46 O50 2.352 . S
Cd46 O54 2.277 . S
Cd46 O55 2.356 . S
C47 O52 1.209 . S
C47 O54 1.226 . S
O48 Cd44 2.273 . S
O48 Cd46 2.411 . S
O48 C51 1.320 . S
O49 Cd46 2.333 . S
O49 C51 1.214 . S
O50 Cd46 2.352 . S
O50 C53 1.258 . S
C51 O48 1.320 . S
C51 O49 1.214 . S
O52 Cd44 2.277 . S
O52 C47 1.209 . S
C53 O50 1.258 . S
C53 O55 1.282 . S
O54 Cd46 2.277 . S
O54 C47 1.226 . S
O55 Cd46 2.356 . S
O55 C53 1.282 . S
C56 O57 1.306 . S
C56 O59 1.160 . S
O57 C56 1.306 . S
O57 Cd58 2.228 . S
Cd58 O57 2.228 . S
Cd58 O62 2.273 . S
Cd58 O66 2.277 . S
O59 C56 1.160 . S
O59 Cd60 2.203 . S
Cd60 O59 2.203 . S
Cd60 O62 2.411 . S
Cd60 O63 2.333 . S
Cd60 O64 2.352 . S
Cd60 O68 2.277 . S
Cd60 O69 2.356 . S
C61 O66 1.209 . S
C61 O68 1.226 . S
O62 Cd58 2.273 . S
O62 Cd60 2.411 . S
O62 C65 1.320 . S
O63 Cd60 2.333 . S
O63 C65 1.214 . S
O64 Cd60 2.352 . S
O64 C67 1.258 . S
C65 O62 1.320 . S
C65 O63 1.214 . S
O66 Cd58 2.277 . S
O66 C61 1.209 . S
C67 O64 1.258 . S
C67 O69 1.282 . S
O68 Cd60 2.277 . S
O68 C61 1.226 . S
O69 Cd60 2.356 . S
O69 C67 1.282 . S
C70 O71 1.306 . S
C70 O73 1.160 . S
O71 C70 1.306 . S
O71 Cd72 2.228 . S
Cd72 O71 2.228 . S
Cd72 O76 2.273 . S
Cd72 O80 2.277 . S
O73 C70 1.160 . S
O73 Cd74 2.203 . S
Cd74 O73 2.203 . S
Cd74 O76 2.411 . S
Cd74 O77 2.333 . S
Cd74 O78 2.352 . S
Cd74 O82 2.277 . S
Cd74 O83 2.356 . S
C75 O80 1.209 . S
C75 O82 1.226 . S
O76 Cd72 2.273 . S
O76 Cd74 2.411 . S
O76 C79 1.320 . S
O77 Cd74 2.333 . S
O77 C79 1.214 . S
O78 Cd74 2.352 . S
O78 C81 1.258 . S
C79 O76 1.320 . S
C79 O77 1.214 . S
O80 Cd72 2.277 . S
O80 C75 1.209 . S
C81 O78 1.258 . S
C81 O83 1.282 . S
O82 Cd74 2.277 . S
O82 C75 1.226 . S
O83 Cd74 2.356 . S
O83 C81 1.282 . S
C84 O85 1.306 . S
C84 O87 1.160 . S
O85 C84 1.306 . S
O85 Cd86 2.228 . S
Cd86 O85 2.228 . S
Cd86 O90 2.273 . S
Cd86 O94 2.277 . S
O87 C84 1.160 . S
O87 Cd88 2.203 . S
Cd88 O87 2.203 . S
Cd88 O90 2.411 . S
Cd88 O91 2.333 . S
Cd88 O92 2.352 . S
Cd88 O96 2.277 . S
Cd88 O97 2.356 . S
C89 O94 1.209 . S
C89 O96 1.226 . S
O90 Cd86 2.273 . S
O90 Cd88 2.411 . S
O90 C93 1.320 . S
O91 Cd88 2.333 . S
O91 C93 1.214 . S
O92 Cd88 2.352 . S
O92 C95 1.258 . S
C93 O90 1.320 . S
C93 O91 1.214 . S
O94 Cd86 2.277 . S
O94 C89 1.209 . S
C95 O92 1.258 . S
C95 O97 1.282 . S
O96 Cd88 2.277 . S
O96 C89 1.226 . S
O97 Cd88 2.356 . S
O97 C95 1.282 . S
C98 O99 1.306 . S
C98 O101 1.160 . S
O99 C98 1.306 . S
O99 Cd100 2.228 . S
Cd100 O99 2.228 . S
Cd100 O104 2.273 . S
Cd100 O108 2.277 . S
O101 C98 1.160 . S
O101 Cd102 2.203 . S
Cd102 O101 2.203 . S
Cd102 O104 2.411 . S
Cd102 O105 2.333 . S
Cd102 O106 2.352 . S
Cd102 O110 2.277 . S
Cd102 O111 2.356 . S
C103 O108 1.209 . S
C103 O110 1.226 . S
O104 Cd100 2.273 . S
O104 Cd102 2.411 . S
O104 C107 1.320 . S
O105 Cd102 2.333 . S
O105 C107 1.214 . S
O106 Cd102 2.352 . S
O106 C109 1.258 . S
C107 O104 1.320 . S
C107 O105 1.214 . S
O108 Cd100 2.277 . S
O108 C103 1.209 . S
C109 O106 1.258 . S
C109 O111 1.282 . S
O110 Cd102 2.277 . S
O110 C103 1.226 . S
O111 Cd102 2.356 . S
O111 C109 1.282 . S
C112 O113 1.306 . S
C112 O115 1.160 . S
O113 C112 1.306 . S
O113 Cd114 2.228 . S
Cd114 O113 2.228 . S
Cd114 O118 2.273 . S
Cd114 O122 2.277 . S
O115 C112 1.160 . S
O115 Cd116 2.203 . S
Cd116 O115 2.203 . S
Cd116 O118 2.411 . S
Cd116 O119 2.333 . S
Cd116 O120 2.352 . S
Cd116 O124 2.277 . S
Cd116 O125 2.356 . S
C117 O122 1.209 . S
C117 O124 1.226 . S
O118 Cd114 2.273 . S
O118 Cd116 2.411 . S
O118 C121 1.320 . S
O119 Cd116 2.333 . S
O119 C121 1.214 . S
O120 Cd116 2.352 . S
O120 C123 1.258 . S
C121 O118 1.320 . S
C121 O119 1.214 . S
O122 Cd114 2.277 . S
O122 C117 1.209 . S
C123 O120 1.258 . S
C123 O125 1.282 . S
O124 Cd116 2.277 . S
O124 C117 1.226 . S
O125 Cd116 2.356 . S
O125 C123 1.282 . S
C126 O127 1.306 . S
C126 O129 1.160 . S
O127 C126 1.306 . S
O127 Cd128 2.228 . S
Cd128 O127 2.228 . S
Cd128 O132 2.273 . S
Cd128 O136 2.277 . S
O129 C126 1.160 . S
O129 Cd130 2.203 . S
Cd130 O129 2.203 . S
Cd130 O132 2.411 . S
Cd130 O133 2.333 . S
Cd130 O134 2.352 . S
Cd130 O138 2.277 . S
Cd130 O139 2.356 . S
C131 O136 1.209 . S
C131 O138 1.226 . S
O132 Cd128 2.273 . S
O132 Cd130 2.411 . S
O132 C135 1.320 . S
O133 Cd130 2.333 . S
O133 C135 1.214 . S
O134 Cd130 2.352 . S
O134 C137 1.258 . S
C135 O132 1.320 . S
C135 O133 1.214 . S
O136 Cd128 2.277 . S
O136 C131 1.209 . S
C137 O134 1.258 . S
C137 O139 1.282 . S
O138 Cd130 2.277 . S
O138 C131 1.226 . S
O139 Cd130 2.356 . S
O139 C137 1.282 . S
C140 O141 1.306 . S
C140 O143 1.160 . S
O141 C140 1.306 . S
O141 Cd142 2.228 . S
Cd142 O141 2.228 . S
Cd142 O146 2.273 . S
Cd142 O150 2.277 . S
O143 C140 1.160 . S
O143 Cd144 2.203 . S
Cd144 O143 2.203 . S
Cd144 O146 2.411 . S
Cd144 O147 2.333 . S
Cd144 O148 2.352 . S
Cd144 O152 2.277 . S
Cd144 O153 2.356 . S
C145 O150 1.209 . S
C145 O152 1.226 . S
O146 Cd142 2.273 . S
O146 Cd144 2.411 . S
O146 C149 1.320 . S
O147 Cd144 2.333 . S
O147 C149 1.214 . S
O148 Cd144 2.352 . S
O148 C151 1.258 . S
C149 O146 1.320 . S
C149 O147 1.214 . S
O150 Cd142 2.277 . S
O150 C145 1.209 . S
C151 O148 1.258 . S
C151 O153 1.282 . S
O152 Cd144 2.277 . S
O152 C145 1.226 . S
O153 Cd144 2.356 . S
O153 C151 1.282 . S
C154 O155 1.306 . S
C154 O157 1.160 . S
O155 C154 1.306 . S
O155 Cd156 2.228 . S
Cd156 O155 2.228 . S
Cd156 O160 2.273 . S
Cd156 O164 2.277 . S
O157 C154 1.160 . S
O157 Cd158 2.203 . S
Cd158 O157 2.203 . S
Cd158 O160 2.411 . S
Cd158 O161 2.333 . S
Cd158 O162 2.352 . S
Cd158 O166 2.277 . S
Cd158 O167 2.356 . S
C159 O164 1.209 . S
C159 O166 1.226 . S
O160 Cd156 2.273 . S
O160 Cd158 2.411 . S
O160 C163 1.320 . S
O161 Cd158 2.333 . S
O161 C163 1.214 . S
O162 Cd158 2.352 . S
O162 C165 1.258 . S
C163 O160 1.320 . S
C163 O161 1.214 . S
O164 Cd156 2.277 . S
O164 C159 1.209 . S
C165 O162 1.258 . S
C165 O167 1.282 . S
O166 Cd158 2.277 . S
O166 C159 1.226 . S
O167 Cd158 2.356 . S
O167 C165 1.282 . S
C168 O169 1.306 . S
C168 O171 1.160 . S
O169 C168 1.306 . S
O169 Cd170 2.228 . S
Cd170 O169 2.228 . S
Cd170 O174 2.273 . S
Cd170 O178 2.277 . S
O171 C168 1.160 . S
O171 Cd172 2.203 . S
Cd172 O171 2.203 . S
Cd172 O174 2.411 . S
Cd172 O175 2.333 . S
Cd172 O176 2.352 . S
Cd172 O180 2.277 . S
Cd172 O181 2.356 . S
C173 O178 1.209 . S
C173 O180 1.226 . S
O174 Cd170 2.273 . S
O174 Cd172 2.411 . S
O174 C177 1.320 . S
O175 Cd172 2.333 . S
O175 C177 1.214 . S
O176 Cd172 2.352 . S
O176 C179 1.258 . S
C177 O174 1.320 . S
C177 O175 1.214 . S
O178 Cd170 2.277 . S
O178 C173 1.209 . S
C179 O176 1.258 . S
C179 O181 1.282 . S
O180 Cd172 2.277 . S
O180 C173 1.226 . S
O181 Cd172 2.356 . S
O181 C179 1.282 . S
C182 O183 1.306 . S
C182 O185 1.160 . S
O183 C182 1.306 . S
O183 Cd184 2.228 . S
Cd184 O183 2.228 . S
Cd184 O188 2.273 . S
Cd184 O192 2.277 . S
O185 C182 1.160 . S
O185 Cd186 2.203 . S
Cd186 O185 2.203 . S
Cd186 O188 2.411 . S
Cd186 O189 2.333 . S
Cd186 O190 2.352 . S
Cd186 O194 2.277 . S
Cd186 O195 2.356 . S
C187 O192 1.209 . S
C187 O194 1.226 . S
O188 Cd184 2.273 . S
O188 Cd186 2.411 . S
O188 C191 1.320 . S
O189 Cd186 2.333 . S
O189 C191 1.214 . S
O190 Cd186 2.352 . S
O190 C193 1.258 . S
C191 O188 1.320 . S
C191 O189 1.214 . S
O192 Cd184 2.277 . S
O192 C187 1.209 . S
C193 O190 1.258 . S
C193 O195 1.282 . S
O194 Cd186 2.277 . S
O194 C187 1.226 . S
O195 Cd186 2.356 . S
O195 C193 1.282 . S
C196 O197 1.306 . S
C196 O199 1.160 . S
O197 C196 1.306 . S
O197 Cd198 2.228 . S
Cd198 O197 2.228 . S
Cd198 O202 2.273 . S
Cd198 O206 2.277 . S
O199 C196 1.160 . S
O199 Cd200 2.203 . S
Cd200 O199 2.203 . S
Cd200 O202 2.411 . S
Cd200 O203 2.333 . S
Cd200 O204 2.352 . S
Cd200 O208 2.277 . S
Cd200 O209 2.356 . S
C201 O206 1.209 . S
C201 O208 1.226 . S
O202 Cd198 2.273 . S
O202 Cd200 2.411 . S
O202 C205 1.320 . S
O203 Cd200 2.333 . S
O203 C205 1.214 . S
O204 Cd200 2.352 . S
O204 C207 1.258 . S
C205 O202 1.320 . S
C205 O203 1.214 . S
O206 Cd198 2.277 . S
O206 C201 1.209 . S
C207 O204 1.258 . S
C207 O209 1.282 . S
O208 Cd200 2.277 . S
O208 C201 1.226 . S
O209 Cd200 2.356 . S
O209 C207 1.282 . S
C210 O211 1.306 . S
C210 O213 1.160 . S
O211 C210 1.306 . S
O211 Cd212 2.228 . S
Cd212 O211 2.228 . S
Cd212 O216 2.273 . S
Cd212 O220 2.277 . S
O213 C210 1.160 . S
O213 Cd214 2.203 . S
Cd214 O213 2.203 . S
Cd214 O216 2.411 . S
Cd214 O217 2.333 . S
Cd214 O218 2.352 . S
Cd214 O222 2.277 . S
Cd214 O223 2.356 . S
C215 O220 1.209 . S
C215 O222 1.226 . S
O216 Cd212 2.273 . S
O216 Cd214 2.411 . S
O216 C219 1.320 . S
O217 Cd214 2.333 . S
O217 C219 1.214 . S
O218 Cd214 2.352 . S
O218 C221 1.258 . S
C219 O216 1.320 . S
C219 O217 1.214 . S
O220 Cd212 2.277 . S
O220 C215 1.209 . S
C221 O218 1.258 . S
C221 O223 1.282 . S
O222 Cd214 2.277 . S
O222 C215 1.226 . S
O223 Cd214 2.356 . S
O223 C221 1.282 . S
C224 C225 1.170 . S
C224 C226 1.380 . S
C225 C224 1.170 . S
C226 C224 1.380 . S
C226 C227 1.170 . S
C227 C226 1.170 . S
C228 C229 1.170 . S
C228 C230 1.380 . S
C229 C228 1.170 . S
C230 C228 1.380 . S
C230 C231 1.170 . S
C231 C230 1.170 . S
C232 C233 1.170 . S
C232 C234 1.380 . S
C233 C232 1.170 . S
C234 C232 1.380 . S
C234 C235 1.170 . S
C235 C234 1.170 . S
C236 C237 1.170 . S
C236 C238 1.380 1_455 S
C237 C236 1.170 . S
C238 C236 1.380 1_655 S
C238 C239 1.170 . S
C239 C238 1.170 . S
C240 C241 1.170 . S
C240 C242 1.380 . S
C241 C240 1.170 . S
C242 C240 1.380 . S
C242 C243 1.170 . S
C243 C242 1.170 . S
C244 C245 1.170 . S
C244 C246 1.380 1_655 S
C245 C244 1.170 . S
C246 C244 1.380 1_455 S
C246 C247 1.170 . S
C247 C246 1.170 . S
C248 C249 1.170 . S
C248 C250 1.380 . S
C249 C248 1.170 . S
C250 C248 1.380 . S
C250 C251 1.170 . S
C251 C250 1.170 . S
C252 C253 1.170 . S
C252 C254 1.380 . S
C253 C252 1.170 . S
C254 C252 1.380 . S
C254 C255 1.170 . S
C255 C254 1.170 . S
C256 C257 1.170 . S
C256 C258 1.380 . S
C257 C256 1.170 . S
C258 C256 1.380 . S
C258 C259 1.170 . S
C259 C258 1.170 . S
C260 C261 1.170 . S
C260 C262 1.380 . S
C261 C260 1.170 . S
C262 C260 1.380 . S
C262 C263 1.170 . S
C263 C262 1.170 . S
C264 C265 1.170 . S
C264 C266 1.380 . S
C265 C264 1.170 . S
C266 C264 1.380 . S
C266 C267 1.170 . S
C267 C266 1.170 . S
C268 C269 1.170 . S
C268 C270 1.380 . S
C269 C268 1.170 . S
C270 C268 1.380 . S
C270 C271 1.170 . S
C271 C270 1.170 . S
C272 C273 1.170 . S
C272 C274 1.380 1_455 S
C273 C272 1.170 . S
C274 C272 1.380 1_655 S
C274 C275 1.170 . S
C275 C274 1.170 . S
C276 C277 1.170 . S
C276 C278 1.380 . S
C277 C276 1.170 . S
C278 C276 1.380 . S
C278 C279 1.170 . S
C279 C278 1.170 . S
C280 C281 1.170 . S
C280 C282 1.380 . S
C281 C280 1.170 . S
C282 C280 1.380 . S
C282 C283 1.170 . S
C283 C282 1.170 . S
C284 C285 1.170 . S
C284 C286 1.380 1_455 S
C285 C284 1.170 . S
C286 C284 1.380 1_655 S
C286 C287 1.170 . S
C287 C286 1.170 . S
C288 C289 1.170 . S
C288 C290 1.380 1_554 S
C289 C288 1.170 . S
C290 C288 1.380 1_556 S
C290 C291 1.170 . S
C291 C290 1.170 . S
C292 C293 1.170 . S
C292 C294 1.380 . S
C293 C292 1.170 . S
C294 C292 1.380 . S
C294 C295 1.170 . S
C295 C294 1.170 . S
C296 C297 1.170 . S
C296 C298 1.380 . S
C297 C296 1.170 . S
C298 C296 1.380 . S
C298 C299 1.170 . S
C299 C298 1.170 . S
C300 C301 1.170 . S
C300 C302 1.380 . S
C301 C300 1.170 . S
C302 C300 1.380 . S
C302 C303 1.170 . S
C303 C302 1.170 . S
C304 C305 1.170 . S
C304 C306 1.380 1_556 S
C305 C304 1.170 . S
C306 C304 1.380 1_554 S
C306 C307 1.170 . S
C307 C306 1.170 . S
C308 C309 1.170 . S
C308 C310 1.380 . S
C309 C308 1.170 . S
C310 C308 1.380 . S
C310 C311 1.170 . S
C311 C310 1.170 . S
C312 C313 1.170 . S
C312 C314 1.380 . S
C313 C312 1.170 . S
C314 C312 1.380 . S
C314 C315 1.170 . S
C315 C314 1.170 . S
C316 C317 1.170 . S
C316 C318 1.380 . S
C317 C316 1.170 . S
C318 C316 1.380 . S
C318 C319 1.170 . S
C319 C318 1.170 . S
C320 C321 1.170 . S
C320 C322 1.380 1_545 S
C321 C320 1.170 . S
C322 C320 1.380 1_565 S
C322 C323 1.170 . S
C323 C322 1.170 . S
C324 C325 1.170 . S
C324 C326 1.380 . S
C325 C324 1.170 . S
C326 C324 1.380 . S
C326 C327 1.170 . S
C327 C326 1.170 . S
C328 C329 1.170 . S
C328 C330 1.380 1_546 S
C329 C328 1.170 . S
C330 C328 1.380 1_564 S
C330 C331 1.170 . S
C331 C330 1.170 . S
C332 C333 1.170 . S
C332 C334 1.380 . S
C333 C332 1.170 . S
C334 C332 1.380 . S
C334 C335 1.170 . S
C335 C334 1.170 . S
C336 C337 1.170 . S
C336 C338 1.380 1_545 S
C337 C336 1.170 . S
C338 C336 1.380 1_565 S
C338 C339 1.170 . S
C339 C338 1.170 . S
C340 C341 1.170 . S
C340 C342 1.380 . S
C341 C340 1.170 . S
C342 C340 1.380 . S
C342 C343 1.170 . S
C343 C342 1.170 . S
C344 C345 1.170 . S
C344 C346 1.380 1_564 S
C345 C344 1.170 . S
C346 C344 1.380 1_546 S
C346 C347 1.170 . S
C347 C346 1.170 . S
C348 C349 1.170 . S
C348 C350 1.380 . S
C349 C348 1.170 . S
C350 C348 1.380 . S
C350 C351 1.170 . S
C351 C350 1.170 . S
C225 C159 1.386 . S
C227 C5 1.377 . S
C229 C215 1.427 . S
C231 C23 1.423 . S
C233 C33 1.422 . S
C235 C135 1.396 . S
C237 C187 1.387 . S
C239 C51 1.380 . S
C241 C61 1.393 . S
C243 C191 1.387 . S
C245 C79 1.414 . S
C247 C163 1.417 . S
C249 C89 1.410 . S
C251 C219 1.410 . S
C253 C107 1.392 . S
C255 C131 1.400 . S
C257 C47 1.385 . S
C259 C117 1.385 . S
C261 C145 1.350 . S
C263 C19 1.343 . S
C265 C177 1.362 . S
C267 C75 1.379 . S
C269 C201 1.355 . S
C271 C103 1.354 . S
C273 C65 1.441 . S
C275 C121 1.439 . S
C277 C149 1.426 . S
C279 C93 1.431 . S
C281 C205 1.446 . S
C283 C37 1.447 . S
C285 C9 1.407 . S
C287 C173 1.417 . S
C289 C11 1.332 . S
C291 C67 1.338 . S
C293 C14 1.382 . S
C295 C70 1.381 . S
C297 C39 1.394 . S
C299 C95 1.397 . S
C301 C98 1.311 . S
C303 C42 1.312 . S
C305 C123 1.373 . S
C307 C168 1.366 . S
C309 C193 1.302 . S
C311 C137 1.301 . S
C313 C151 1.323 . S
C315 C207 1.324 . S
C317 C221 1.340 . S
C319 C154 1.342 . S
C321 C109 1.258 . S
C323 C25 1.259 . S
C325 C28 1.459 . S
C327 C56 1.458 . S
C329 C53 1.324 . S
C331 C81 1.312 . S
C333 C0 1.381 . S
C335 C84 1.382 . S
C337 C126 1.397 . S
C339 C210 1.396 . S
C341 C179 1.314 . S
C343 C140 1.311 . S
C345 C165 1.359 . S
C347 C182 1.355 . S
C349 C196 1.357 . S
C351 C112 1.361 . S
