# Generated by pormake.
# Topology fnd, (5)-cn, num edge types: 1
# Building blocks:
#     Node 0, Type 0, BuildingBlock: BEQFEK_clean_sbu_0, # of connection points: 5
#     Node 1, Type 0, BuildingBlock: BEQFEK_clean_sbu_0, # of connection points: 5
#     Node 2, Type 0, BuildingBlock: BEQFEK_clean_sbu_0, # of connection points: 5
#     Node 3, Type 0, BuildingBlock: BEQFEK_clean_sbu_0, # of connection points: 5
#     Node 4, Type 0, BuildingBlock: BEQFEK_clean_sbu_0, # of connection points: 5
#     Node 5, Type 0, BuildingBlock: BEQFEK_clean_sbu_0, # of connection points: 5
#     Node 6, Type 0, BuildingBlock: BEQFEK_clean_sbu_0, # of connection points: 5
#     Node 7, Type 0, BuildingBlock: BEQFEK_clean_sbu_0, # of connection points: 5
#     Node 8, Type 0, BuildingBlock: BEQFEK_clean_sbu_0, # of connection points: 5
#     Node 9, Type 0, BuildingBlock: BEQFEK_clean_sbu_0, # of connection points: 5
#     Node 10, Type 0, BuildingBlock: BEQFEK_clean_sbu_0, # of connection points: 5
#     Node 11, Type 0, BuildingBlock: BEQFEK_clean_sbu_0, # of connection points: 5
#     Node 12, Type 0, BuildingBlock: BEQFEK_clean_sbu_0, # of connection points: 5
#     Node 13, Type 0, BuildingBlock: BEQFEK_clean_sbu_0, # of connection points: 5
#     Node 14, Type 0, BuildingBlock: BEQFEK_clean_sbu_0, # of connection points: 5
#     Node 15, Type 0, BuildingBlock: BEQFEK_clean_sbu_0, # of connection points: 5
#     Node 16, Type 0, BuildingBlock: BEQFEK_clean_sbu_0, # of connection points: 5
#     Node 17, Type 0, BuildingBlock: BEQFEK_clean_sbu_0, # of connection points: 5
#     Edge 18, Type (0, 0), BuildingBlock: OJICUG_clean_linker_0, # of connection points: 2
#     Edge 19, Type (0, 0), BuildingBlock: OJICUG_clean_linker_0, # of connection points: 2
#     Edge 20, Type (0, 0), BuildingBlock: OJICUG_clean_linker_0, # of connection points: 2
#     Edge 21, Type (0, 0), BuildingBlock: OJICUG_clean_linker_0, # of connection points: 2
#     Edge 22, Type (0, 0), BuildingBlock: OJICUG_clean_linker_0, # of connection points: 2
#     Edge 23, Type (0, 0), BuildingBlock: OJICUG_clean_linker_0, # of connection points: 2
#     Edge 24, Type (0, 0), BuildingBlock: OJICUG_clean_linker_0, # of connection points: 2
#     Edge 25, Type (0, 0), BuildingBlock: OJICUG_clean_linker_0, # of connection points: 2
#     Edge 26, Type (0, 0), BuildingBlock: OJICUG_clean_linker_0, # of connection points: 2
#     Edge 27, Type (0, 0), BuildingBlock: OJICUG_clean_linker_0, # of connection points: 2
#     Edge 28, Type (0, 0), BuildingBlock: OJICUG_clean_linker_0, # of connection points: 2
#     Edge 29, Type (0, 0), BuildingBlock: OJICUG_clean_linker_0, # of connection points: 2
#     Edge 30, Type (0, 0), BuildingBlock: OJICUG_clean_linker_0, # of connection points: 2
#     Edge 31, Type (0, 0), BuildingBlock: OJICUG_clean_linker_0, # of connection points: 2
#     Edge 32, Type (0, 0), BuildingBlock: OJICUG_clean_linker_0, # of connection points: 2
#     Edge 33, Type (0, 0), BuildingBlock: OJICUG_clean_linker_0, # of connection points: 2
#     Edge 34, Type (0, 0), BuildingBlock: OJICUG_clean_linker_0, # of connection points: 2
#     Edge 35, Type (0, 0), BuildingBlock: OJICUG_clean_linker_0, # of connection points: 2
#     Edge 36, Type (0, 0), BuildingBlock: OJICUG_clean_linker_0, # of connection points: 2
#     Edge 37, Type (0, 0), BuildingBlock: OJICUG_clean_linker_0, # of connection points: 2
#     Edge 38, Type (0, 0), BuildingBlock: OJICUG_clean_linker_0, # of connection points: 2
#     Edge 39, Type (0, 0), BuildingBlock: OJICUG_clean_linker_0, # of connection points: 2
#     Edge 40, Type (0, 0), BuildingBlock: OJICUG_clean_linker_0, # of connection points: 2
#     Edge 41, Type (0, 0), BuildingBlock: OJICUG_clean_linker_0, # of connection points: 2
#     Edge 42, Type (0, 0), BuildingBlock: OJICUG_clean_linker_0, # of connection points: 2
#     Edge 43, Type (0, 0), BuildingBlock: OJICUG_clean_linker_0, # of connection points: 2
#     Edge 44, Type (0, 0), BuildingBlock: OJICUG_clean_linker_0, # of connection points: 2
#     Edge 45, Type (0, 0), BuildingBlock: OJICUG_clean_linker_0, # of connection points: 2
#     Edge 46, Type (0, 0), BuildingBlock: OJICUG_clean_linker_0, # of connection points: 2
#     Edge 47, Type (0, 0), BuildingBlock: OJICUG_clean_linker_0, # of connection points: 2
#     Edge 48, Type (0, 0), BuildingBlock: OJICUG_clean_linker_0, # of connection points: 2
#     Edge 49, Type (0, 0), BuildingBlock: OJICUG_clean_linker_0, # of connection points: 2
#     Edge 50, Type (0, 0), BuildingBlock: OJICUG_clean_linker_0, # of connection points: 2
#     Edge 51, Type (0, 0), BuildingBlock: OJICUG_clean_linker_0, # of connection points: 2
#     Edge 52, Type (0, 0), BuildingBlock: OJICUG_clean_linker_0, # of connection points: 2
#     Edge 53, Type (0, 0), BuildingBlock: OJICUG_clean_linker_0, # of connection points: 2
#     Edge 54, Type (0, 0), BuildingBlock: OJICUG_clean_linker_0, # of connection points: 2
#     Edge 55, Type (0, 0), BuildingBlock: OJICUG_clean_linker_0, # of connection points: 2
#     Edge 56, Type (0, 0), BuildingBlock: OJICUG_clean_linker_0, # of connection points: 2
#     Edge 57, Type (0, 0), BuildingBlock: OJICUG_clean_linker_0, # of connection points: 2
#     Edge 58, Type (0, 0), BuildingBlock: OJICUG_clean_linker_0, # of connection points: 2
#     Edge 59, Type (0, 0), BuildingBlock: OJICUG_clean_linker_0, # of connection points: 2
#     Edge 60, Type (0, 0), BuildingBlock: OJICUG_clean_linker_0, # of connection points: 2
#     Edge 61, Type (0, 0), BuildingBlock: OJICUG_clean_linker_0, # of connection points: 2
#     Edge 62, Type (0, 0), BuildingBlock: OJICUG_clean_linker_0, # of connection points: 2
# Relax obj value: 0.144
# Max RMSD: 0.198
# Mean RMSD: 0.198
data_MOF--net-fnd--node1-BEQFEK_clean_sbu_0--edge1-OJICUG_clean_linker_0
_symmetry_space_group_name_H-M    P1
_symmetry_Int_Tables_number       1
_symmetry_cell_setting            triclinic
loop_
_symmetry_equiv_pos_as_xyz
'x, y, z'
_cell_length_a     59.642445
_cell_length_b     59.666451
_cell_length_c     15.312012
_cell_angle_alpha  90.011751
_cell_angle_beta   90.030569
_cell_angle_gamma 119.96163
loop_
_atom_site_label
_atom_site_type_symbol
_atom_site_fract_x
_atom_site_fract_y
_atom_site_fract_z
_atom_type_partial_charge
Co0 Co 0.10467 0.21343 0.54484 0.0
Co1 Co 0.09721 0.19878 0.34734 0.0
C2 C 0.12452 0.18044 0.46306 0.0
O3 O 0.12072 0.19175 0.52705 0.0
O4 O 0.11682 0.18151 0.38613 0.0
C5 C 0.12487 0.22185 0.71953 0.0
O6 O 0.14218 0.21644 0.68879 0.0
C7 C 0.10423 0.19615 0.15502 0.0
C8 C 0.07261 0.20258 0.11056 0.0
C9 C 0.09337 0.20043 0.08054 0.0
N10 N 0.09096 0.19688 0.2251 0.0
N11 N 0.0718 0.20014 0.19761 0.0
C12 C 0.12648 0.19126 0.16063 0.0
H13 H 0.12494 0.18014 0.22045 0.0
H14 H 0.1449 0.20996 0.16383 0.0
H15 H 0.1269 0.18035 0.10254 0.0
C16 C 0.12947 0.26677 0.4703 0.0
N17 N 0.11737 0.24079 0.46297 0.0
N18 N 0.11503 0.23449 0.37975 0.0
C19 C 0.12604 0.25632 0.33154 0.0
C20 C 0.13522 0.27748 0.38695 0.0
C21 C 0.13477 0.28081 0.55545 0.0
H22 H 0.11853 0.26972 0.60133 0.0
H23 H 0.15256 0.28244 0.58464 0.0
H24 H 0.1376 0.30051 0.54639 0.0
O25 O 0.06693 0.19187 0.53632 0.0
O26 O 0.06168 0.18058 0.3972 0.0
H27 H 0.11158 0.25128 0.20094 0.0
H28 H 0.1448 0.27664 0.2121 0.0
C29 C 0.13011 0.25711 0.2349 0.0
H30 H 0.13693 0.24356 0.21736 0.0
H31 H 0.05887 0.20193 0.23887 0.0
O32 O 0.10995 0.2247 0.66719 0.0
C33 C 0.05233 0.17968 0.47252 0.0
Co34 Co 0.78233 0.89022 0.54356 0.0
Co35 Co 0.79614 0.8992 0.34529 0.0
C36 C 0.81566 0.94391 0.45999 0.0
O37 O 0.80441 0.92823 0.52276 0.0
O38 O 0.81434 0.9358 0.38208 0.0
C39 C 0.77546 0.9048 0.71507 0.0
O40 O 0.78461 0.92776 0.67974 0.0
C41 C 0.79669 0.90797 0.15272 0.0
C42 C 0.78816 0.86919 0.10862 0.0
C43 C 0.79093 0.89234 0.0788 0.0
N44 N 0.79646 0.89414 0.2226 0.0
N45 N 0.79192 0.87126 0.19522 0.0
C46 C 0.79994 0.93449 0.15864 0.0
H47 H 0.79814 0.93939 0.22714 0.0
H48 H 0.78534 0.9358 0.11732 0.0
H49 H 0.8195 0.94886 0.13481 0.0
C50 C 0.72912 0.85851 0.46748 0.0
N51 N 0.75482 0.87495 0.46191 0.0
N52 N 0.7608 0.88259 0.38082 0.0
C53 C 0.73898 0.87348 0.3335 0.0
C54 C 0.71779 0.8568 0.38522 0.0
C55 C 0.71667 0.84373 0.54909 0.0
H56 H 0.73147 0.84398 0.59365 0.0
H57 H 0.70691 0.85289 0.58335 0.0
H58 H 0.70226 0.82334 0.53342 0.0
O59 O 0.80379 0.87425 0.53412 0.0
O60 O 0.81419 0.88109 0.39404 0.0
H61 H 0.74119 0.87331 0.19374 0.0
H62 H 0.72008 0.88456 0.23579 0.0
C63 C 0.73847 0.88454 0.24627 0.0
H64 H 0.7543 0.90485 0.24289 0.0
H65 H 0.79006 0.85651 0.23651 0.0
O66 O 0.77067 0.88554 0.66679 0.0
C67 C 0.81559 0.87224 0.46832 0.0
Co68 Co 0.1062 0.89096 0.5467 0.0
Co69 Co 0.0994 0.89805 0.34909 0.0
C70 C 0.05354 0.87121 0.46378 0.0
O71 O 0.06847 0.875 0.52836 0.0
O72 O 0.06251 0.87877 0.38703 0.0
C73 C 0.09437 0.87073 0.72116 0.0
O74 O 0.07169 0.85338 0.69036 0.0
C75 C 0.08993 0.89103 0.15689 0.0
C76 C 0.12825 0.92216 0.11286 0.0
C77 C 0.10516 0.90172 0.08266 0.0
N78 N 0.10401 0.9041 0.22708 0.0
N79 N 0.12661 0.92296 0.19989 0.0
C80 C 0.06264 0.86913 0.16212 0.0
H81 H 0.05308 0.87097 0.22154 0.0
H82 H 0.06257 0.85053 0.16588 0.0
H83 H 0.0515 0.86885 0.10364 0.0
C84 C 0.13458 0.86565 0.47447 0.0
N85 N 0.12088 0.87793 0.46609 0.0
N86 N 0.11703 0.88008 0.38267 0.0
C87 C 0.12771 0.86875 0.33533 0.0
C88 C 0.13952 0.85956 0.39157 0.0
C89 C 0.1432 0.86052 0.56017 0.0
H90 H 0.14853 0.87697 0.60532 0.0
H91 H 0.12693 0.84296 0.58984 0.0
H92 H 0.15994 0.85742 0.55182 0.0
O93 O 0.12252 0.92873 0.53765 0.0
O94 O 0.11672 0.93364 0.39806 0.0
H95 H 0.13741 0.88271 0.20432 0.0
H96 H 0.12888 0.84933 0.21696 0.0
C97 C 0.12441 0.86439 0.23878 0.0
H98 H 0.10414 0.85794 0.22081 0.0
H99 H 0.14141 0.9357 0.24134 0.0
O100 O 0.11206 0.88576 0.66897 0.0
C101 C 0.12506 0.94317 0.47326 0.0
Co102 Co 0.21355 0.10631 0.44927 0.0
Co103 Co 0.19922 0.09922 0.64672 0.0
C104 C 0.1803 0.12592 0.53093 0.0
O105 O 0.19159 0.12208 0.46694 0.0
O106 O 0.18162 0.11848 0.60801 0.0
C107 C 0.22191 0.12655 0.27481 0.0
O108 O 0.21649 0.14383 0.3057 0.0
C109 C 0.19661 0.10617 0.83905 0.0
C110 C 0.20365 0.07492 0.8831 0.0
C111 C 0.2011 0.09542 0.91335 0.0
N112 N 0.19757 0.09308 0.76883 0.0
N113 N 0.2012 0.07414 0.79606 0.0
C114 C 0.19131 0.12815 0.83375 0.0
H115 H 0.1801 0.12646 0.77396 0.0
H116 H 0.20987 0.14672 0.83067 0.0
H117 H 0.18033 0.12836 0.89191 0.0
C118 C 0.26707 0.13163 0.52314 0.0
N119 N 0.24108 0.11939 0.53071 0.0
N120 N 0.23489 0.11723 0.61395 0.0
C121 C 0.25678 0.12852 0.66194 0.0
C122 C 0.27789 0.13767 0.60637 0.0
C123 C 0.28102 0.13675 0.43791 0.0
H124 H 0.26991 0.1204 0.39237 0.0
H125 H 0.28259 0.15445 0.4083 0.0
H126 H 0.30076 0.13964 0.44698 0.0
O127 O 0.19226 0.06855 0.45828 0.0
O128 O 0.18113 0.06364 0.59747 0.0
H129 H 0.25219 0.11452 0.793 0.0
H130 H 0.27712 0.14786 0.78077 0.0
C131 C 0.25764 0.13286 0.75845 0.0
H132 H 0.24382 0.13938 0.77577 0.0
H133 H 0.20322 0.06137 0.75463 0.0
O134 O 0.22473 0.11159 0.32698 0.0
C135 C 0.1802 0.0541 0.52246 0.0
Co136 Co 0.88928 0.10673 0.45255 0.0
Co137 Co 0.89653 0.09927 0.64998 0.0
C138 C 0.86957 0.05381 0.53366 0.0
O139 O 0.87338 0.06906 0.47013 0.0
O140 O 0.8771 0.0624 0.61087 0.0
C141 C 0.86901 0.095 0.2779 0.0
O142 O 0.85158 0.07239 0.30876 0.0
C143 C 0.8895 0.08964 0.84233 0.0
C144 C 0.92111 0.12765 0.88671 0.0
C145 C 0.90038 0.10478 0.91678 0.0
N146 N 0.90275 0.1036 0.77222 0.0
N147 N 0.9219 0.126 0.79966 0.0
C148 C 0.86725 0.06254 0.83678 0.0
H149 H 0.86874 0.05296 0.77683 0.0
H150 H 0.84882 0.06283 0.83387 0.0
H151 H 0.86688 0.0512 0.89479 0.0
C152 C 0.86434 0.13517 0.52715 0.0
N153 N 0.87646 0.12129 0.53443 0.0
N154 N 0.87869 0.1172 0.61761 0.0
C155 C 0.86759 0.12796 0.66584 0.0
C156 C 0.85845 0.14001 0.61049 0.0
C157 C 0.85914 0.14401 0.44204 0.0
H158 H 0.87541 0.14914 0.39627 0.0
H159 H 0.84135 0.12793 0.41264 0.0
H160 H 0.85636 0.16092 0.45123 0.0
O161 O 0.927 0.12284 0.46131 0.0
O162 O 0.9321 0.11653 0.60031 0.0
H163 H 0.88188 0.13722 0.79667 0.0
H164 H 0.84864 0.12932 0.78513 0.0
C165 C 0.8634 0.12455 0.7624 0.0
H166 H 0.85662 0.10417 0.77964 0.0
H167 H 0.93483 0.14071 0.75837 0.0
O168 O 0.88402 0.11272 0.33016 0.0
C169 C 0.94153 0.12506 0.52514 0.0
Co170 Co 0.89076 0.78336 0.44243 0.0
Co171 Co 0.89696 0.79804 0.64152 0.0
C172 C 0.94301 0.81639 0.52595 0.0
O173 O 0.92825 0.80539 0.46105 0.0
O174 O 0.93384 0.81488 0.60241 0.0
C175 C 0.90402 0.77526 0.26911 0.0
O176 O 0.92704 0.78337 0.30299 0.0
C177 C 0.9061 0.79534 0.8304 0.0
C178 C 0.8769 0.80384 0.88557 0.0
C179 C 0.89456 0.79619 0.90841 0.0
N180 N 0.89512 0.8015 0.76482 0.0
N181 N 0.87814 0.80712 0.79862 0.0
C182 C 0.92512 0.78626 0.81662 0.0
H183 H 0.92457 0.78015 0.74778 0.0
H184 H 0.92103 0.77003 0.86142 0.0
H185 H 0.94488 0.80243 0.83083 0.0
C186 C 0.86334 0.73015 0.51784 0.0
N187 N 0.87642 0.75613 0.52585 0.0
N188 N 0.87828 0.76229 0.60929 0.0
C189 C 0.86581 0.74033 0.6566 0.0
C190 C 0.85639 0.71934 0.60067 0.0
C191 C 0.85826 0.71621 0.43259 0.0
H192 H 0.84298 0.71793 0.39693 0.0
H193 H 0.87603 0.7254 0.392 0.0
H194 H 0.85187 0.69544 0.44219 0.0
O195 O 0.87414 0.80489 0.45088 0.0
O196 O 0.87993 0.8162 0.59038 0.0
H197 H 0.85636 0.75456 0.77146 0.0
H198 H 0.84352 0.72021 0.77088 0.0
C199 C 0.86046 0.73908 0.75254 0.0
H200 H 0.87744 0.7413 0.78924 0.0
H201 H 0.86636 0.81186 0.76184 0.0
O202 O 0.88535 0.77139 0.31906 0.0
C203 C 0.87159 0.81707 0.51472 0.0
Co204 Co 0.77329 0.54821 0.86477 0.0
Co205 Co 0.76498 0.53345 0.66574 0.0
C206 C 0.79179 0.51429 0.78062 0.0
O207 O 0.78819 0.52575 0.84446 0.0
O208 O 0.78439 0.51572 0.70362 0.0
C209 C 0.79414 0.55461 0.03801 0.0
O210 O 0.80804 0.54539 0.00369 0.0
C211 C 0.77463 0.53325 0.47532 0.0
C212 C 0.73963 0.53264 0.42436 0.0
C213 C 0.76306 0.53517 0.39873 0.0
N214 N 0.75901 0.53064 0.54274 0.0
N215 N 0.73788 0.52962 0.51139 0.0
C216 C 0.80111 0.53667 0.48605 0.0
H217 H 0.80775 0.54161 0.5547 0.0
H218 H 0.81507 0.55202 0.44175 0.0
H219 H 0.80046 0.51828 0.46907 0.0
C220 C 0.79805 0.60138 0.79028 0.0
N221 N 0.78598 0.57544 0.78202 0.0
N222 N 0.78277 0.56932 0.69848 0.0
C223 C 0.79277 0.5913 0.65101 0.0
C224 C 0.80267 0.61232 0.7074 0.0
C225 C 0.80411 0.61516 0.87614 0.0
H226 H 0.78767 0.60456 0.92176 0.0
H227 H 0.82133 0.61545 0.90495 0.0
H228 H 0.80813 0.63533 0.86854 0.0
O229 O 0.73542 0.52716 0.85671 0.0
O230 O 0.72958 0.51562 0.7174 0.0
H231 H 0.77477 0.58223 0.52507 0.0
H232 H 0.80509 0.61232 0.52783 0.0
C233 C 0.7945 0.59231 0.55343 0.0
H234 H 0.80511 0.58255 0.53185 0.0
H235 H 0.72286 0.52832 0.54998 0.0
O236 O 0.78022 0.55984 0.98838 0.0
C237 C 0.72055 0.515 0.79322 0.0
Co238 Co 0.44816 0.22509 0.87916 0.0
Co239 Co 0.46354 0.2313 0.68038 0.0
C240 C 0.48251 0.27719 0.79805 0.0
O241 O 0.47095 0.26243 0.86231 0.0
O242 O 0.48103 0.26809 0.72143 0.0
C243 C 0.4401 0.23827 0.05276 0.0
O244 O 0.44821 0.26129 0.01901 0.0
C245 C 0.46078 0.24064 0.49152 0.0
C246 C 0.47025 0.2122 0.43569 0.0
C247 C 0.46197 0.22939 0.41323 0.0
N248 N 0.46733 0.2299 0.55688 0.0
N249 N 0.47353 0.2134 0.52266 0.0
C250 C 0.45101 0.25909 0.50575 0.0
H251 H 0.44491 0.25835 0.57467 0.0
H252 H 0.43463 0.2546 0.4611 0.0
H253 H 0.46683 0.27902 0.49158 0.0
C254 C 0.39518 0.19894 0.80102 0.0
N255 N 0.4212 0.21156 0.79439 0.0
N256 N 0.42766 0.21309 0.71136 0.0
C257 C 0.40588 0.20065 0.66307 0.0
C258 C 0.38465 0.19181 0.71776 0.0
C259 C 0.38091 0.19429 0.88539 0.0
H260 H 0.39136 0.21133 0.9288 0.0
H261 H 0.36086 0.19034 0.87448 0.0
H262 H 0.38015 0.17738 0.9185 0.0
O263 O 0.46906 0.2078 0.87031 0.0
O264 O 0.48088 0.21347 0.73129 0.0
H265 H 0.38641 0.1767 0.55099 0.0
H266 H 0.40662 0.21048 0.52837 0.0
C267 C 0.40498 0.19423 0.5681 0.0
H268 H 0.4209 0.19055 0.55168 0.0
H269 H 0.47866 0.20187 0.55913 0.0
O270 O 0.43609 0.21959 0.00257 0.0
C271 C 0.48122 0.20494 0.80707 0.0
Co272 Co 0.76991 0.22187 0.88303 0.0
Co273 Co 0.76302 0.23024 0.6842 0.0
C274 C 0.7174 0.20259 0.80201 0.0
O275 O 0.73238 0.20643 0.86629 0.0
O276 O 0.7263 0.21012 0.7252 0.0
C277 C 0.75725 0.20043 0.05641 0.0
O278 O 0.73439 0.18491 0.02246 0.0
C279 C 0.75395 0.21804 0.49525 0.0
C280 C 0.78145 0.25629 0.43965 0.0
C281 C 0.76493 0.2307 0.41703 0.0
N282 N 0.76423 0.23536 0.56071 0.0
N283 N 0.78016 0.25825 0.52662 0.0
C284 C 0.7362 0.1897 0.50932 0.0
H285 H 0.73712 0.18445 0.57826 0.0
H286 H 0.74123 0.17821 0.46473 0.0
H287 H 0.71606 0.18494 0.49496 0.0
C288 C 0.797 0.19587 0.80529 0.0
N289 N 0.78394 0.20884 0.79851 0.0
N290 N 0.78216 0.21354 0.7154 0.0
C291 C 0.79493 0.20453 0.66724 0.0
C292 C 0.80419 0.19254 0.72205 0.0
C293 C 0.80189 0.18646 0.88973 0.0
H294 H 0.78483 0.17968 0.93315 0.0
H295 H 0.80613 0.17055 0.87894 0.0
H296 H 0.81869 0.20274 0.92277 0.0
O297 O 0.7864 0.26003 0.87397 0.0
O298 O 0.77996 0.26537 0.73491 0.0
H299 H 0.80427 0.22936 0.55532 0.0
H300 H 0.81907 0.20954 0.55534 0.0
C301 C 0.80121 0.21001 0.5722 0.0
H302 H 0.78517 0.19504 0.53265 0.0
H303 H 0.79126 0.27499 0.56317 0.0
O304 O 0.7757 0.21559 0.00642 0.0
C305 C 0.78857 0.27466 0.81025 0.0
Co306 Co 0.87827 0.43657 0.77696 0.0
Co307 Co 0.86441 0.43277 0.97298 0.0
C308 C 0.84549 0.4581 0.85632 0.0
O309 O 0.85677 0.45339 0.79415 0.0
O310 O 0.8465 0.45135 0.93468 0.0
C311 C 0.88737 0.45726 0.60352 0.0
O312 O 0.8822 0.47463 0.6353 0.0
C313 C 0.86289 0.43917 0.16692 0.0
C314 C 0.8762 0.41192 0.20467 0.0
C315 C 0.87027 0.42985 0.23854 0.0
N316 N 0.86519 0.42761 0.09465 0.0
N317 N 0.87274 0.41113 0.11818 0.0
C318 C 0.85352 0.45822 0.16616 0.0
H319 H 0.84189 0.45568 0.10661 0.0
H320 H 0.87033 0.47817 0.166 0.0
H321 H 0.84167 0.45576 0.22506 0.0
C322 C 0.9316 0.45846 0.85372 0.0
N323 N 0.90586 0.44909 0.8579 0.0
N324 N 0.89961 0.4513 0.93793 0.0
C325 C 0.9212 0.46458 0.98578 0.0
C326 C 0.94269 0.46884 0.9359 0.0
C327 C 0.94426 0.45564 0.77342 0.0
H328 H 0.92952 0.44139 0.72807 0.0
H329 H 0.95475 0.47453 0.73926 0.0
H330 H 0.95803 0.44896 0.79081 0.0
O331 O 0.85647 0.39931 0.78789 0.0
O332 O 0.84594 0.39635 0.92736 0.0
H333 H 0.91957 0.46402 0.12578 0.0
H334 H 0.93864 0.49603 0.07876 0.0
C335 C 0.92099 0.47682 0.07099 0.0
H336 H 0.90402 0.47966 0.07353 0.0
H337 H 0.87654 0.40004 0.07437 0.0
O338 O 0.8895 0.44172 0.65489 0.0
C339 C 0.84451 0.38579 0.85381 0.0
Co340 Co 0.55658 0.43963 0.78168 0.0
Co341 Co 0.56624 0.43345 0.98028 0.0
C342 C 0.5386 0.38751 0.86288 0.0
O343 O 0.54175 0.40228 0.79868 0.0
O344 O 0.54654 0.39662 0.9393 0.0
C345 C 0.5355 0.42653 0.60771 0.0
O346 O 0.52061 0.4035 0.64129 0.0
C347 C 0.5542 0.42404 0.16917 0.0
C348 C 0.59212 0.45234 0.22518 0.0
C349 C 0.56665 0.43523 0.24756 0.0
N350 N 0.57149 0.43474 0.10386 0.0
N351 N 0.59421 0.45115 0.1382 0.0
C352 C 0.52597 0.4057 0.1548 0.0
H353 H 0.52063 0.4065 0.08587 0.0
H354 H 0.51412 0.41024 0.19943 0.0
H355 H 0.52177 0.38573 0.16887 0.0
C356 C 0.52988 0.46577 0.86119 0.0
N357 N 0.54348 0.45332 0.86704 0.0
N358 N 0.5487 0.45187 0.94987 0.0
C359 C 0.53937 0.46422 -0.00129 0.0
C360 C 0.52666 0.47287 0.94471 0.0
C361 C 0.51978 0.47016 0.77737 0.0
H362 H 0.51356 0.45326 0.73353 0.0
H363 H 0.50333 0.47351 0.78913 0.0
H364 H 0.53554 0.48738 0.74433 0.0
O365 O 0.59474 0.45657 0.78994 0.0
O366 O 0.60136 0.45106 0.9287 0.0
H367 H 0.54415 0.48824 0.11077 0.0
H368 H 0.53058 0.45448 0.13359 0.0
C369 C 0.54512 0.47067 0.09358 0.0
H370 H 0.56474 0.47431 0.10953 0.0
H371 H 0.61087 0.46264 0.10178 0.0
O372 O 0.55001 0.44521 0.65815 0.0
C373 C 0.60997 0.45943 0.85255 0.0
Co374 Co 0.55436 0.11503 0.78609 0.0
Co375 Co 0.56135 0.12898 0.9837 0.0
C376 C 0.60709 0.14779 0.86835 0.0
O377 O 0.59203 0.13666 0.80409 0.0
O378 O 0.59826 0.14647 0.94532 0.0
C379 C 0.56612 0.10649 0.61172 0.0
O380 O 0.5887 0.11152 0.64267 0.0
C381 C 0.57087 0.13129 0.17592 0.0
C382 C 0.53266 0.12447 0.22005 0.0
C383 C 0.55568 0.12691 0.25019 0.0
N384 N 0.55683 0.13042 0.10576 0.0
N385 N 0.5343 0.12689 0.13302 0.0
C386 C 0.59809 0.13642 0.17063 0.0
H387 H 0.60766 0.14767 0.11103 0.0
H388 H 0.59799 0.11781 0.16718 0.0
H389 H 0.6093 0.14729 0.22898 0.0
C390 C 0.52608 0.06147 0.858 0.0
N391 N 0.53976 0.08741 0.86659 0.0
N392 N 0.54361 0.09338 0.95005 0.0
C393 C 0.53292 0.07136 -0.00277 0.0
C394 C 0.52115 0.05042 0.94079 0.0
C395 C 0.51747 0.04779 0.77219 0.0
H396 H 0.51203 0.05889 0.72734 0.0
H397 H 0.53379 0.04661 0.74223 0.0
H398 H 0.50082 0.02792 0.78041 0.0
O399 O 0.5381 0.13649 0.79574 0.0
O400 O 0.544 0.14734 0.93524 0.0
H401 H 0.52322 0.07573 0.12813 0.0
H402 H 0.53147 0.05067 0.11563 0.0
C403 C 0.53612 0.07024 0.09381 0.0
H404 H 0.55641 0.08391 0.11193 0.0
H405 H 0.51954 0.12498 0.09162 0.0
O406 O 0.54846 0.10402 0.6638 0.0
C407 C 0.53559 0.14845 0.86006 0.0
Co408 Co 0.43879 0.87952 0.20496 0.0
Co409 Co 0.42954 0.8644 0.00612 0.0
C410 C 0.4571 0.84576 0.12203 0.0
O411 O 0.45374 0.85716 0.18651 0.0
O412 O 0.4493 0.84711 0.04558 0.0
C413 C 0.45994 0.88734 0.37875 0.0
O414 O 0.47469 0.879 0.3452 0.0
C415 C 0.4416 0.86734 0.81745 0.0
C416 C 0.40382 0.85829 0.7615 0.0
C417 C 0.42923 0.8663 0.73917 0.0
N418 N 0.42433 0.86091 0.88271 0.0
N419 N 0.40169 0.85497 0.84845 0.0
C420 C 0.46976 0.87684 0.83181 0.0
H421 H 0.47516 0.88298 0.90071 0.0
H422 H 0.48176 0.89314 0.78711 0.0
H423 H 0.4737 0.86088 0.81785 0.0
C424 C 0.46511 0.93251 0.12878 0.0
N425 N 0.45187 0.90654 0.12117 0.0
N426 N 0.44702 0.90026 0.03796 0.0
C427 C 0.45637 0.92217 0.99044 0.0
C428 C 0.46855 0.94325 0.04595 0.0
C429 C 0.47468 0.94652 0.21365 0.0
H430 H 0.4584 0.94677 0.24782 0.0
H431 H 0.4817 0.93619 0.25583 0.0
H432 H 0.49047 0.96674 0.20342 0.0
O433 O 0.40072 0.85841 0.19633 0.0
O434 O 0.39428 0.84669 0.05719 0.0
H435 H 0.43163 0.90752 0.87798 0.0
H436 H 0.45252 0.94197 0.87815 0.0
C437 C 0.45123 0.92329 0.89524 0.0
H438 H 0.46587 0.92148 0.85619 0.0
H439 H 0.38507 0.84998 0.88489 0.0
O440 O 0.44536 0.89146 0.32845 0.0
C441 C 0.38557 0.84625 0.13337 0.0
Co442 Co 0.11507 0.55561 0.21421 0.0
Co443 Co 0.12911 0.5645 0.01595 0.0
C444 C 0.14917 0.6092 0.13113 0.0
O445 O 0.13765 0.59359 0.19382 0.0
O446 O 0.14777 0.60105 0.05323 0.0
C447 C 0.10836 0.57031 0.38574 0.0
O448 O 0.11764 0.59329 0.35039 0.0
C449 C 0.12988 0.57341 0.8233 0.0
C450 C 0.121 0.53452 0.77915 0.0
C451 C 0.12398 0.55776 0.74935 0.0
N452 N 0.12949 0.55949 0.89318 0.0
N453 N 0.12475 0.53654 0.86576 0.0
C454 C 0.13342 0.60003 0.82926 0.0
H455 H 0.13178 0.605 0.89783 0.0
H456 H 0.11886 0.6015 0.7882 0.0
H457 H 0.15299 0.61425 0.80514 0.0
C458 C 0.06185 0.52449 0.13741 0.0
N459 N 0.08761 0.54069 0.13218 0.0
N460 N 0.09375 0.5483 0.05112 0.0
C461 C 0.07201 0.53942 0.0035 0.0
C462 C 0.05068 0.5229 0.05496 0.0
C463 C 0.04918 0.50975 0.21889 0.0
H464 H 0.06383 0.50983 0.26376 0.0
H465 H 0.03954 0.51909 0.25284 0.0
H466 H 0.03462 0.48943 0.20309 0.0
O467 O 0.13616 0.53922 0.20486 0.0
O468 O 0.1467 0.54596 0.06486 0.0
H469 H 0.0744 0.53929 0.86379 0.0
H470 H 0.05345 0.55078 0.90536 0.0
C471 C 0.07173 0.55058 0.9162 0.0
H472 H 0.08768 0.57083 0.91305 0.0
H473 H 0.12273 0.52173 0.90702 0.0
O474 O 0.10338 0.551 0.33742 0.0
C475 C 0.1479 0.53703 0.13921 0.0
Co476 Co 0.43837 0.55541 0.21639 0.0
Co477 Co 0.43099 0.56232 0.0188 0.0
C478 C 0.38546 0.53528 0.13422 0.0
O479 O 0.40056 0.53924 0.19847 0.0
O480 O 0.39424 0.54278 0.05725 0.0
C481 C 0.42667 0.53515 0.39083 0.0
O482 O 0.40402 0.51777 0.35991 0.0
C483 C 0.42148 0.55542 0.82645 0.0
C484 C 0.45961 0.58693 0.78256 0.0
C485 C 0.43668 0.56629 0.75221 0.0
N486 N 0.43545 0.56858 0.89673 0.0
N487 N 0.45792 0.58768 0.8696 0.0
C488 C 0.39432 0.53327 0.83165 0.0
H489 H 0.38471 0.53485 0.89135 0.0
H490 H 0.39452 0.5148 0.83484 0.0
H491 H 0.38307 0.53293 0.77341 0.0
C492 C 0.46739 0.53089 0.14225 0.0
N493 N 0.4532 0.54268 0.13485 0.0
N494 N 0.44901 0.54471 0.05162 0.0
C495 C 0.45992 0.53376 0.00353 0.0
C496 C 0.47229 0.52501 0.05894 0.0
C497 C 0.47655 0.52606 0.22736 0.0
H498 H 0.48137 0.54228 0.27305 0.0
H499 H 0.46073 0.50813 0.25687 0.0
H500 H 0.49371 0.52371 0.21813 0.0
O501 O 0.45439 0.59319 0.20784 0.0
O502 O 0.44794 0.59775 0.06852 0.0
H503 H 0.4691 0.54769 0.87233 0.0
H504 H 0.46103 0.51444 0.88484 0.0
C505 C 0.45638 0.52934 0.90706 0.0
H506 H 0.436 0.52262 0.88987 0.0
H507 H 0.47263 0.60053 0.91109 0.0
O508 O 0.44438 0.55018 0.33866 0.0
C509 C 0.45646 0.60746 0.14342 0.0
Co510 Co 0.54502 0.76951 0.11012 0.0
Co511 Co 0.53142 0.76526 0.30639 0.0
C512 C 0.51205 0.79051 0.19142 0.0
O513 O 0.5233 0.78606 0.12847 0.0
O514 O 0.51328 0.78363 0.26937 0.0
C515 C 0.55361 0.79008 0.93653 0.0
O516 O 0.54776 0.80699 0.96799 0.0
C517 C 0.52977 0.77147 0.50005 0.0
C518 C 0.54378 0.7448 0.53807 0.0
C519 C 0.53741 0.76244 0.57175 0.0
N520 N 0.53234 0.76005 0.4279 0.0
N521 N 0.54031 0.74391 0.45155 0.0
C522 C 0.51987 0.79009 0.49912 0.0
H523 H 0.50796 0.78712 0.43996 0.0
H524 H 0.53642 0.81018 0.498 0.0
H525 H 0.50812 0.78759 0.55834 0.0
C526 C 0.59848 0.7916 0.186 0.0
N527 N 0.57272 0.78203 0.19068 0.0
N528 N 0.56654 0.78407 0.27097 0.0
C529 C 0.58817 0.79743 0.31857 0.0
C530 C 0.60964 0.80193 0.26813 0.0
C531 C 0.6111 0.78899 0.10524 0.0
H532 H 0.59636 0.7747 0.05998 0.0
H533 H 0.62141 0.80791 0.07124 0.0
H534 H 0.62502 0.78245 0.12204 0.0
O535 O 0.52342 0.73221 0.1202 0.0
O536 O 0.51315 0.72898 0.25997 0.0
H537 H 0.58675 0.79669 0.45861 0.0
H538 H 0.60548 0.82878 0.41193 0.0
C539 C 0.58794 0.80949 0.40416 0.0
H540 H 0.57084 0.81211 0.40739 0.0
H541 H 0.54438 0.733 0.40781 0.0
O542 O 0.55623 0.77488 0.98811 0.0
C543 C 0.51164 0.71856 0.18607 0.0
Co544 Co 0.2218 0.77138 0.12213 0.0
Co545 Co 0.23108 0.76505 0.32082 0.0
C546 C 0.20381 0.71918 0.20317 0.0
O547 O 0.20705 0.73409 0.13931 0.0
O548 O 0.21155 0.72813 0.27989 0.0
C549 C 0.20058 0.75831 0.94833 0.0
O550 O 0.18553 0.73532 0.98204 0.0
C551 C 0.21896 0.75578 0.50969 0.0
C552 C 0.25688 0.78414 0.56562 0.0
C553 C 0.23141 0.76702 0.58801 0.0
N554 N 0.23626 0.76645 0.44438 0.0
N555 N 0.25897 0.78291 0.47866 0.0
C556 C 0.19075 0.73741 0.49537 0.0
H557 H 0.1854 0.73816 0.42641 0.0
H558 H 0.17888 0.74195 0.53993 0.0
H559 H 0.18658 0.71746 0.50959 0.0
C560 C 0.19533 0.7978 0.20006 0.0
N561 N 0.2086 0.78505 0.20681 0.0
N562 N 0.21351 0.78347 0.28986 0.0
C563 C 0.20424 0.796 0.33806 0.0
C564 C 0.19197 0.80498 0.28325 0.0
C565 C 0.18575 0.80249 0.11561 0.0
H566 H 0.17906 0.78541 0.07233 0.0
H567 H 0.16973 0.80657 0.1264 0.0
H568 H 0.20193 0.81932 0.0824 0.0
O569 O 0.25989 0.78836 0.13097 0.0
O570 O 0.26634 0.78277 0.26982 0.0
H571 H 0.20869 0.81987 0.45029 0.0
H572 H 0.19502 0.78606 0.47259 0.0
C573 C 0.20969 0.80232 0.43311 0.0
H574 H 0.22925 0.80591 0.44978 0.0
H575 H 0.27563 0.79439 0.44223 0.0
O576 O 0.21529 0.77694 -0.0014 0.0
C577 C 0.27504 0.7912 0.19379 0.0
Co578 Co 0.22279 0.44781 0.1154 0.0
Co579 Co 0.2291 0.46293 0.31429 0.0
C580 C 0.27506 0.48092 0.19822 0.0
O581 O 0.26024 0.46984 0.13351 0.0
O582 O 0.26595 0.47958 0.27468 0.0
C583 C 0.23591 0.43966 0.94182 0.0
O584 O 0.25891 0.44765 0.97561 0.0
C585 C 0.23823 0.46009 0.50313 0.0
C586 C 0.20975 0.46955 0.55865 0.0
C587 C 0.22695 0.46129 0.58129 0.0
N588 N 0.22752 0.46662 0.43767 0.0
N589 N 0.21098 0.47282 0.47168 0.0
C590 C 0.25669 0.45031 0.4891 0.0
H591 H 0.25591 0.44412 0.42025 0.0
H592 H 0.25222 0.43398 0.5339 0.0
H593 H 0.27663 0.46614 0.50317 0.0
C594 C 0.19585 0.39473 0.1925 0.0
N595 N 0.20865 0.42074 0.19955 0.0
N596 N 0.21028 0.42713 0.2827 0.0
C597 C 0.19775 0.40532 0.33067 0.0
C598 C 0.18873 0.38414 0.27563 0.0
C599 C 0.19126 0.38054 0.10795 0.0
H600 H 0.17462 0.38017 0.07406 0.0
H601 H 0.20849 0.39083 0.0653 0.0
H602 H 0.18691 0.36037 0.11864 0.0
O603 O 0.20615 0.46936 0.12378 0.0
O604 O 0.21209 0.48103 0.26295 0.0
H605 H 0.188 0.42027 0.44307 0.0
H606 H 0.17421 0.3858 0.44335 0.0
C607 C 0.19166 0.40438 0.42593 0.0
H608 H 0.20808 0.40607 0.46484 0.0
H609 H 0.19947 0.47794 0.43506 0.0
O610 O 0.21727 0.4358 0.99193 0.0
C611 C 0.20367 0.4817 0.18723 0.0
C612 C 0.1606 0.14387 0.42756 0.0
C613 C 0.16549 0.13934 0.51396 0.0
H614 H 0.14377 0.1602 0.34355 0.0
C615 C 0.15634 0.14801 0.58313 0.0
H616 H 0.16724 0.13732 0.37257 0.0
C617 C 0.14297 0.16122 0.56631 0.0
C618 C 0.13825 0.16592 0.47992 0.0
H619 H 0.15975 0.14485 0.65032 0.0
H620 H 0.13632 0.16775 0.62132 0.0
C621 C 0.14706 0.15692 0.41074 0.0
C622 C 0.84859 0.00757 0.58378 0.0
C623 C 0.85627 0.02564 0.51561 0.0
H624 H 0.82996 0.96764 0.61971 0.0
C625 C 0.85102 0.01659 0.42884 0.0
H626 H 0.8524 0.01386 0.65123 0.0
C627 C 0.83818 0.99011 0.41068 0.0
C628 C 0.83013 0.97202 0.47883 0.0
H629 H 0.85682 0.02994 0.3745 0.0
H630 H 0.83428 0.98386 0.34321 0.0
C631 C 0.83563 0.98105 0.56559 0.0
C632 C 0.98881 0.83938 0.58085 0.0
C633 C 0.97132 0.83103 0.51075 0.0
H634 H 0.02842 0.85851 0.62104 0.0
C635 C 0.9811 0.83645 0.4249 0.0
H636 H 0.98194 0.83552 0.64765 0.0
C637 C 0.00774 0.84969 0.40947 0.0
C638 C 0.02525 0.8577 0.4795 0.0
H639 H 0.96818 0.83049 0.36923 0.0
H640 H 0.01458 0.85341 0.34262 0.0
C641 C 0.01548 0.85249 0.5654 0.0
C642 C 0.83877 0.85039 0.40613 0.0
C643 C 0.83083 0.85902 0.47894 0.0
H644 H 0.85773 0.83016 0.36017 0.0
C645 C 0.83703 0.85434 0.56305 0.0
H646 H 0.83424 0.85365 0.34049 0.0
C647 C 0.8506 0.84111 0.57431 0.0
C648 C 0.8581 0.83199 0.50176 0.0
H649 H 0.83133 0.86084 0.62058 0.0
H650 H 0.85485 0.83771 0.64016 0.0
C651 C 0.85214 0.83686 0.41745 0.0
C652 C 0.15668 0.009 0.58224 0.0
C653 C 0.16531 0.02573 0.50993 0.0
H654 H 0.13735 0.96985 0.62743 0.0
C655 C 0.16004 0.01507 0.42541 0.0
H656 H 0.16047 0.01659 0.64821 0.0
C657 C 0.1466 0.98827 0.41347 0.0
C658 C 0.13839 0.97154 0.48579 0.0
H659 H 0.16634 0.02742 0.36829 0.0
H660 H 0.14302 0.98069 0.34751 0.0
C661 C 0.1435 0.9822 0.57031 0.0
C662 C 0.98026 0.1432 0.42694 0.0
C663 C 0.96986 0.13817 0.5118 0.0
H664 H 0.01441 0.16001 0.34793 0.0
C665 C 0.98681 0.14625 0.58358 0.0
H666 H 0.96772 0.13713 0.3702 0.0
C667 C 0.01358 0.15955 0.57077 0.0
C668 C 0.02398 0.16479 0.4859 0.0
H669 H 0.97943 0.14271 0.64978 0.0
H670 H 0.02612 0.1658 0.6275 0.0
C671 C 0.00702 0.15624 0.41413 0.0
C672 C 0.82771 0.47726 0.74926 0.0
C673 C 0.83115 0.47185 0.8363 0.0
H674 H 0.81249 0.49478 0.66303 0.0
C675 C 0.82093 0.4799 0.90392 0.0
H676 H 0.83518 0.47118 0.6954 0.0
C677 C 0.80797 0.49338 0.88523 0.0
C678 C 0.80482 0.49914 0.79842 0.0
H679 H 0.8231 0.47601 0.97156 0.0
H680 H 0.80038 0.49927 0.93928 0.0
C681 C 0.81461 0.4907 0.7305 0.0
C682 C 0.50698 0.32303 0.74457 0.0
C683 C 0.49774 0.30542 0.81419 0.0
H684 H 0.52715 0.36266 0.70537 0.0
C685 C 0.5028 0.31504 0.90037 0.0
H686 H 0.50348 0.3163 0.67755 0.0
C687 C 0.51643 0.34164 0.91653 0.0
C688 C 0.52517 0.35926 0.84689 0.0
H689 H 0.49617 0.30201 0.95571 0.0
H690 H 0.51974 0.34838 0.98353 0.0
C691 C 0.52047 0.34963 0.76073 0.0
C692 C 0.67966 0.18465 0.90471 0.0
C693 C 0.68915 0.18909 0.81844 0.0
H694 H 0.64645 0.16831 0.98829 0.0
C695 C 0.67142 0.18028 0.74902 0.0
H696 H 0.69278 0.19134 0.95989 0.0
C697 C 0.64482 0.167 0.76551 0.0
C698 C 0.63533 0.16237 0.85179 0.0
H699 H 0.67805 0.18338 0.68193 0.0
H700 H 0.6317 0.16035 0.71033 0.0
C701 C 0.65307 0.17152 0.92119 0.0
C702 C 0.50458 0.18296 0.74954 0.0
C703 C 0.49568 0.19105 0.82121 0.0
H704 H 0.524 0.16312 0.70557 0.0
C705 C 0.50047 0.18545 0.9061 0.0
H706 H 0.50119 0.18691 0.68327 0.0
C707 C 0.51379 0.17197 0.91893 0.0
C708 C 0.52231 0.16354 0.84712 0.0
H709 H 0.49395 0.1915 0.96272 0.0
H710 H 0.51706 0.16782 0.98509 0.0
C711 C 0.51761 0.16924 0.76233 0.0
C712 C 0.80914 0.3195 0.74982 0.0
C713 C 0.80197 0.30305 0.82273 0.0
H714 H 0.82814 0.35834 0.70255 0.0
C715 C 0.80818 0.31406 0.90676 0.0
H716 H 0.80469 0.31172 0.68415 0.0
C717 C 0.8215 0.34097 0.9174 0.0
C718 C 0.82915 0.35734 0.84416 0.0
H719 H 0.80284 0.30191 0.9643 0.0
H720 H 0.82627 0.34893 0.98279 0.0
C721 C 0.82267 0.34628 0.76037 0.0
C722 C 0.64819 0.47828 0.7515 0.0
C723 C 0.63825 0.4731 0.83697 0.0
H724 H 0.68197 0.49535 0.67052 0.0
C725 C 0.6556 0.4814 0.90767 0.0
H726 H 0.63534 0.47207 0.69558 0.0
C727 C 0.68228 0.49491 0.89332 0.0
C728 C 0.69225 0.50019 0.80792 0.0
H729 H 0.6486 0.47777 0.97434 0.0
H730 H 0.6951 0.5012 0.94935 0.0
C731 C 0.67492 0.49155 0.73712 0.0
C732 C 0.47978 0.82231 0.06922 0.0
C733 C 0.47046 0.83085 0.13826 0.0
H734 H 0.50032 0.80293 0.03175 0.0
C735 C 0.47444 0.82549 0.22464 0.0
H736 H 0.47704 0.82612 0.00204 0.0
C737 C 0.4877 0.81223 0.24176 0.0
C738 C 0.49743 0.80405 0.17297 0.0
H739 H 0.46731 0.83156 0.27955 0.0
H740 H 0.49051 0.80862 0.3091 0.0
C741 C 0.49322 0.80911 0.08641 0.0
C742 C 0.186 0.68182 0.09926 0.0
C743 C 0.19069 0.69098 0.18594 0.0
H744 H 0.16939 0.64903 0.01399 0.0
C745 C 0.18236 0.67299 0.25449 0.0
H746 H 0.19239 0.6951 0.04463 0.0
C747 C 0.16913 0.64643 0.23664 0.0
C748 C 0.16404 0.63731 0.14989 0.0
H749 H 0.18573 0.67938 0.32187 0.0
H750 H 0.16288 0.63307 0.29101 0.0
C751 C 0.17289 0.65534 0.08147 0.0
C752 C 0.33961 0.51383 0.08083 0.0
C753 C 0.35721 0.52179 0.15056 0.0
H754 H 0.30001 0.49483 0.04123 0.0
C755 C 0.34757 0.51667 0.23663 0.0
H756 H 0.34634 0.51748 0.01386 0.0
C757 C 0.32093 0.50371 0.25253 0.0
C758 C 0.30334 0.49543 0.18269 0.0
H759 H 0.3606 0.52267 0.29203 0.0
H760 H 0.31414 0.49991 0.31943 0.0
C761 C 0.313 0.50075 0.0967 0.0
C762 C 0.16909 0.519 0.23448 0.0
C763 C 0.16297 0.52365 0.15021 0.0
H764 H 0.18684 0.50241 0.31208 0.0
C765 C 0.1709 0.51492 0.07764 0.0
H766 H 0.1634 0.52558 0.29183 0.0
C767 C 0.18423 0.50136 0.08935 0.0
C768 C 0.19015 0.49657 0.17381 0.0
H769 H 0.16643 0.51816 0.01189 0.0
H770 H 0.18983 0.49461 0.03225 0.0
C771 C 0.18263 0.50576 0.24611 0.0
C772 C 0.48856 0.6738 0.24949 0.0
C773 C 0.49644 0.69012 0.17615 0.0
H774 H 0.46988 0.63482 0.29675 0.0
C775 C 0.49034 0.67901 0.09233 0.0
H776 H 0.49301 0.68177 0.3149 0.0
C777 C 0.47696 0.6522 0.08191 0.0
C778 C 0.46959 0.63584 0.15506 0.0
H779 H 0.49602 0.69104 0.03442 0.0
H780 H 0.47282 0.64433 0.01633 0.0
C781 C 0.47539 0.64691 0.23903 0.0
C782 C 0.33989 0.82293 0.0782 0.0
C783 C 0.3573 0.83166 0.1488 0.0
H784 H 0.30032 0.80349 0.03695 0.0
C785 C 0.34741 0.82663 0.23432 0.0
H786 H 0.34686 0.82653 0.0115 0.0
C787 C 0.32072 0.81322 0.24892 0.0
C788 C 0.30331 0.80481 0.17833 0.0
H789 H 0.36029 0.83302 0.29018 0.0
H790 H 0.31375 0.80975 0.31563 0.0
C791 C 0.3132 0.80979 0.0928 0.0
C792 C 0.13813 0.3133 0.29391 0.0
C793 C 0.14847 0.30504 0.36094 0.0
H794 H 0.14303 0.34488 0.21332 0.0
C795 C 0.17213 0.32288 0.39906 0.0
H796 H 0.11977 0.29989 0.26403 0.0
C797 C 0.18535 0.3485 0.37006 0.0
C798 C 0.17515 0.35668 0.30243 0.0
H799 H 0.18065 0.31691 0.44995 0.0
H800 H 0.20368 0.36194 0.40013 0.0
C801 C 0.15144 0.33889 0.26451 0.0
C802 C 0.64379 0.817 0.38749 0.0
C803 C 0.63744 0.81437 0.29784 0.0
H804 H 0.67262 0.83484 0.4851 0.0
C805 C 0.6581 0.82377 0.23834 0.0
H806 H 0.62919 0.80827 0.43721 0.0
C807 C 0.68371 0.8353 0.26736 0.0
C808 C 0.69003 0.84093 0.3564 0.0
H809 H 0.6551 0.82271 0.16893 0.0
H810 H 0.69841 0.84 0.21853 0.0
C811 C 0.66944 0.83133 0.41604 0.0
C812 C 0.16017 0.80912 0.37795 0.0
C813 C 0.17841 0.81891 0.30993 0.0
H814 H 0.13345 0.81434 0.45711 0.0
C815 C 0.18439 0.8425 0.27095 0.0
H816 H 0.15524 0.7909 0.40885 0.0
C817 C 0.17224 0.85605 0.29945 0.0
C818 C 0.15372 0.84608 0.36665 0.0
H819 H 0.19871 0.85062 0.21947 0.0
H820 H 0.17724 0.8743 0.26867 0.0
C821 C 0.14789 0.82258 0.40602 0.0
C822 C 0.34894 0.18796 0.62234 0.0
C823 C 0.35718 0.17806 0.69071 0.0
H824 H 0.31726 0.1829 0.54196 0.0
C825 C 0.33944 0.15446 0.72924 0.0
H826 H 0.36234 0.20619 0.59174 0.0
C827 C 0.31383 0.141 0.69987 0.0
C828 C 0.30549 0.15106 0.63222 0.0
H829 H 0.34548 0.14625 0.78095 0.0
H830 H 0.30047 0.12272 0.73028 0.0
C831 C 0.32329 0.17459 0.59337 0.0
C832 C 0.8417 0.18481 0.73336 0.0
C833 C 0.81804 0.1789 0.69496 0.0
H834 H 0.87349 0.1776 0.73431 0.0
C835 C 0.80809 0.16071 0.62675 0.0
H836 H 0.84994 0.19909 0.78498 0.0
C837 C 0.82148 0.14845 0.59779 0.0
C838 C 0.84507 0.15422 0.63649 0.0
H839 H 0.7898 0.15581 0.5963 0.0
H840 H 0.81312 0.13407 0.54651 0.0
C841 C 0.85517 0.17266 0.704 0.0
C842 C 0.80456 0.64908 0.62231 0.0
C843 C 0.81589 0.64001 0.68304 0.0
H844 H 0.80889 0.68134 0.54674 0.0
C845 C 0.84051 0.65721 0.71651 0.0
H846 H 0.78541 0.6362 0.59653 0.0
C847 C 0.85375 0.68294 0.68861 0.0
C848 C 0.84267 0.69181 0.62638 0.0
H849 H 0.8497 0.65063 0.76289 0.0
H850 H 0.87278 0.69591 0.71514 0.0
C851 C 0.81797 0.67473 0.5935 0.0
C852 C 0.00226 0.49786 0.08492 0.0
C853 C 0.02294 0.50726 0.02567 0.0
H854 H 0.96194 0.47514 0.10541 0.0
C855 C 0.01673 0.50163 0.93655 0.0
H856 H 0.00536 0.50138 0.154 0.0
C857 C 0.99118 0.49029 0.90704 0.0
C858 C 0.97043 0.48108 0.96614 0.0
H859 H 0.03148 0.50619 0.88804 0.0
H860 H 0.98828 0.48921 0.83757 0.0
C861 C 0.97664 0.48372 0.05592 0.0
C862 C 0.50527 0.52262 0.96463 0.0
C863 C 0.48706 0.51222 0.03272 0.0
H864 H 0.53187 0.51807 0.88236 0.0
C865 C 0.48198 0.48885 0.07135 0.0
H866 H 0.50969 0.54078 0.93436 0.0
C867 C 0.49466 0.47595 0.04164 0.0
C868 C 0.51257 0.48617 0.97273 0.0
H869 H 0.46779 0.48028 0.12308 0.0
H870 H 0.49029 0.45782 0.072 0.0
C871 C 0.51781 0.50962 0.93449 0.0
C872 C 0.51296 0.00518 0.92559 0.0
C873 C 0.50701 0.02274 0.96527 0.0
H874 H 0.50562 0.96618 0.92165 0.0
C875 C 0.48835 0.01405 0.03202 0.0
H876 H 0.52751 0.0115 0.87484 0.0
C877 C 0.47613 0.98829 0.05965 0.0
C878 C 0.4822 0.97079 0.02024 0.0
H879 H 0.48327 0.02723 0.06302 0.0
H880 H 0.46168 0.98197 0.11074 0.0
C881 C 0.50062 0.97939 0.95281 0.0
C882 C 0.09211 0.20881 0.83707 0.0
C883 C 0.11788 0.2177 0.81275 0.0
H884 H 0.0642 0.19535 0.9391 0.0
C885 C 0.13584 0.22033 0.87691 0.0
H886 H 0.07764 0.20613 0.78896 0.0
C887 C 0.12817 0.21452 0.96434 0.0
C888 C 0.10218 0.20513 0.98837 0.0
H889 H 0.15584 0.22716 0.85968 0.0
H890 H 0.14282 0.21811 0.01239 0.0
C891 C 0.08434 0.20239 0.92337 0.0
C892 C 0.76365 0.87787 0.84988 0.0
C893 C 0.7764 0.90234 0.81064 0.0
H894 H 0.75798 0.85576 0.96552 0.0
C895 C 0.79268 0.92407 0.86182 0.0
H896 H 0.75097 0.8608 0.81209 0.0
C897 C 0.7972 0.92115 0.94957 0.0
C898 C 0.78509 0.89653 0.98819 0.0
H899 H 0.8031 0.94317 0.83296 0.0
H900 H 0.81111 0.93805 0.98522 0.0
C901 C 0.76787 0.87502 0.93769 0.0
C902 C 0.11427 0.90331 0.8391 0.0
C903 C 0.0973 0.8776 0.81446 0.0
H904 H 0.12899 0.93106 0.94165 0.0
C905 C 0.08207 0.85957 0.87847 0.0
H906 H 0.12598 0.91783 0.79111 0.0
C907 C 0.08414 0.86713 0.96609 0.0
C908 C 0.10084 0.89305 0.99041 0.0
H909 H 0.06885 0.83961 0.86096 0.0
H910 H 0.07317 0.85245 0.01409 0.0
C911 C 0.11582 0.91096 0.9256 0.0
C912 C 0.20292 0.08627 0.07036 0.0
C913 C 0.2056 0.10413 0.00562 0.0
H914 H 0.20657 0.07948 0.20471 0.0
C915 C 0.21476 0.13004 0.03001 0.0
H916 H 0.19605 0.06618 0.05432 0.0
C917 C 0.22042 0.13763 0.11757 0.0
C918 C 0.21787 0.11965 0.18149 0.0
H919 H 0.21828 0.14469 0.98212 0.0
H920 H 0.22709 0.15757 0.13511 0.0
C921 C 0.20919 0.09395 0.1568 0.0
C922 C 0.90948 0.11578 0.0739 0.0
C923 C 0.8916 0.1007 0.00899 0.0
H924 H 0.91624 0.12629 0.20825 0.0
C925 C 0.86561 0.08419 0.03314 0.0
H926 H 0.92962 0.12881 0.05809 0.0
C927 C 0.85797 0.08241 0.12058 0.0
C928 C 0.87598 0.09774 0.18465 0.0
H929 H 0.85094 0.07314 0.98515 0.0
H930 H 0.83797 0.06931 0.13791 0.0
C931 C 0.90175 0.11452 0.16021 0.0
C932 C 0.92298 0.78724 0.11851 0.0
C933 C 0.90113 0.77644 0.17342 0.0
H934 H 0.93828 0.80248 0.99185 0.0
C935 C 0.87695 0.76997 0.13771 0.0
H936 H 0.94194 0.79257 0.14405 0.0
C937 C 0.87491 0.77563 0.05069 0.0
C938 C 0.89694 0.78769 -0.00297 0.0
H939 H 0.8597 0.76154 0.17789 0.0
H940 H 0.85608 0.7711 0.02596 0.0
C941 C 0.92091 0.79287 0.03107 0.0
C942 C 0.77481 0.56272 0.17046 0.0
C943 C 0.78987 0.55314 0.1335 0.0
H944 H 0.7548 0.56465 0.2832 0.0
C945 C 0.79792 0.53921 0.18669 0.0
H946 H 0.76834 0.57357 0.13145 0.0
C947 C 0.78986 0.53379 0.27378 0.0
C948 C 0.77385 0.54245 0.30947 0.0
H949 H 0.80935 0.53133 0.15997 0.0
H950 H 0.79517 0.52181 0.31142 0.0
C951 C 0.76688 0.55742 0.25733 0.0
C952 C 0.45778 0.25532 0.29092 0.0
C953 C 0.45323 0.23154 0.32468 0.0
H954 H 0.45679 0.27608 0.17827 0.0
C955 C 0.44155 0.20953 0.27081 0.0
H956 H 0.46707 0.27269 0.33031 0.0
C957 C 0.43566 0.2114 0.1839 0.0
C958 C 0.44151 0.23542 0.14844 0.0
H959 H 0.43751 0.19084 0.2953 0.0
H960 H 0.42754 0.19418 0.14359 0.0
C961 C 0.45193 0.25724 0.20357 0.0
C962 C 0.78523 0.23112 0.27461 0.0
C963 C 0.76321 0.21999 0.32843 0.0
H964 H 0.80085 0.2332 0.14742 0.0
C965 C 0.73978 0.20013 0.29456 0.0
H966 H 0.80367 0.24627 0.29915 0.0
C967 C 0.73818 0.1925 0.20717 0.0
C968 C 0.75996 0.20466 0.15211 0.0
H969 H 0.72239 0.19143 0.33387 0.0
H970 H 0.71956 0.17798 0.18177 0.0
C971 C 0.78367 0.22349 0.18767 0.0
C972 C 0.88471 0.46914 0.44808 0.0
C973 C 0.88453 0.45151 0.50924 0.0
H974 H 0.8812 0.47674 0.31402 0.0
C975 C 0.87924 0.42699 0.48072 0.0
H976 H 0.88877 0.4882 0.46842 0.0
C977 C 0.87382 0.42005 0.39344 0.0
C978 C 0.87393 0.43752 0.3317 0.0
H979 H 0.87861 0.41277 0.52617 0.0
H980 H 0.86954 0.40082 0.37443 0.0
C981 C 0.87978 0.46232 0.35973 0.0
C982 C 0.52849 0.40757 0.45687 0.0
C983 C 0.53994 0.42938 0.51207 0.0
H984 H 0.5282 0.39207 0.33027 0.0
C985 C 0.5583 0.45333 0.4768 0.0
H986 H 0.51436 0.38877 0.48202 0.0
C987 C 0.56616 0.45516 0.39002 0.0
C988 C 0.55573 0.43315 0.33606 0.0
H989 H 0.56746 0.47054 0.51716 0.0
H990 H 0.58094 0.4738 0.36569 0.0
C991 C 0.53635 0.40943 0.36967 0.0
C992 C 0.54653 0.11952 0.49372 0.0
C993 C 0.5633 0.11052 0.51842 0.0
H994 H 0.53205 0.13279 0.39113 0.0
C995 C 0.57847 0.10755 0.45448 0.0
H996 H 0.53489 0.12247 0.54166 0.0
C997 C 0.5765 0.1131 0.36684 0.0
C998 C 0.55996 0.12255 0.34246 0.0
H999 H 0.59155 0.10063 0.47205 0.0
H1000 H 0.5874 0.10926 0.31888 0.0
C1001 C 0.54507 0.12567 0.40722 0.0
C1002 C 0.43783 0.89241 0.50964 0.0
C1003 C 0.45574 0.88614 0.4744 0.0
H1004 H 0.41561 0.89108 0.62092 0.0
C1005 C 0.46691 0.87553 0.52974 0.0
H1006 H 0.42892 0.90069 0.46914 0.0
C1007 C 0.45915 0.86989 0.61711 0.0
C1008 C 0.44016 0.87485 0.65066 0.0
H1009 H 0.48069 0.87035 0.50459 0.0
H1010 H 0.46702 0.86043 0.65668 0.0
C1011 C 0.43007 0.88673 0.59657 0.0
C1012 C 0.12578 0.58955 0.53239 0.0
C1013 C 0.10936 0.56786 0.48131 0.0
H1014 H 0.14433 0.60348 0.65564 0.0
C1015 C 0.09653 0.54339 0.52061 0.0
H1016 H 0.13626 0.60864 0.50349 0.0
C1017 C 0.10079 0.54052 0.60836 0.0
C1018 C 0.11814 0.56199 0.65877 0.0
H1019 H 0.08375 0.52634 0.48291 0.0
H1020 H 0.09083 0.52126 0.63622 0.0
C1021 C 0.13034 0.58661 0.62009 0.0
C1022 C 0.41602 0.53162 0.63558 0.0
C1023 C 0.43258 0.55757 0.65995 0.0
H1024 H 0.40103 0.50405 0.53053 0.0
C1025 C 0.44767 0.57547 0.59522 0.0
H1026 H 0.40498 0.51693 0.68346 0.0
C1027 C 0.44633 0.56779 0.5088 0.0
C1028 C 0.42948 0.54206 0.48413 0.0
H1029 H 0.46074 0.59559 0.61124 0.0
H1030 H 0.4581 0.5823 0.46089 0.0
C1031 C 0.41416 0.52403 0.54804 0.0
C1032 C 0.54622 0.75991 0.81414 0.0
C1033 C 0.55101 0.78429 0.84233 0.0
H1034 H 0.53711 0.73375 0.70807 0.0
C1035 C 0.55097 0.80173 0.78085 0.0
H1036 H 0.54578 0.74584 0.85986 0.0
C1037 C 0.54628 0.79485 0.6925 0.0
C1038 C 0.54089 0.77015 0.66482 0.0
H1039 H 0.55466 0.82069 0.80094 0.0
H1040 H 0.54754 0.80914 0.64655 0.0
C1041 C 0.54103 0.75288 0.72685 0.0
C1042 C 0.20122 0.74119 0.71025 0.0
C1043 C 0.22052 0.76493 0.67652 0.0
H1044 H 0.1794 0.7205 0.82282 0.0
C1045 C 0.23092 0.78695 0.73039 0.0
H1046 H 0.1931 0.72381 0.67089 0.0
C1047 C 0.22314 0.78511 0.81725 0.0
C1048 C 0.20489 0.76113 0.85267 0.0
H1049 H 0.24562 0.8056 0.70594 0.0
H1050 H 0.23228 0.80233 0.85756 0.0
C1051 C 0.19344 0.73931 0.79754 0.0
C1052 C 0.25293 0.45722 0.70372 0.0
C1053 C 0.22912 0.45261 0.66986 0.0
H1054 H 0.27373 0.45632 0.81648 0.0
C1055 C 0.2071 0.44094 0.72365 0.0
H1056 H 0.2703 0.46651 0.66439 0.0
C1057 C 0.209 0.43511 0.81059 0.0
C1058 C 0.23304 0.44101 0.84614 0.0
H1059 H 0.18839 0.43686 0.69907 0.0
H1060 H 0.19178 0.42699 0.85085 0.0
C1061 C 0.25487 0.45142 0.79109 0.0
loop_
_geom_bond_atom_site_label_1
_geom_bond_atom_site_label_2
_geom_bond_distance
_geom_bond_site_symmetry_2
_ccdc_geom_bond_type
Co0 O3 1.970 . S
Co0 N17 1.989 . S
Co0 O25 1.967 . S
Co0 O32 1.920 . S
Co1 O4 1.966 . S
Co1 N10 2.022 . S
Co1 N18 1.993 . S
Co1 O26 1.941 . S
C2 O3 1.258 . S
C2 O4 1.263 . S
O3 Co0 1.970 . S
O3 C2 1.258 . S
O4 Co1 1.966 . S
O4 C2 1.263 . S
C5 O6 1.235 . S
C5 O32 1.289 . S
O6 C5 1.235 . S
C7 C9 1.400 . S
C7 N10 1.351 . S
C7 C12 1.501 . S
C8 C9 1.387 . S
C8 N11 1.341 . S
C9 C7 1.400 . S
C9 C8 1.387 . S
N10 Co1 2.022 . S
N10 C7 1.351 . S
N10 N11 1.365 . S
N11 C8 1.341 . S
N11 N10 1.365 . S
N11 H31 0.862 . S
C12 C7 1.501 . S
C12 H13 0.961 . S
C12 H14 0.961 . S
C12 H15 0.960 . S
H13 C12 0.961 . S
H14 C12 0.961 . S
H15 C12 0.960 . S
C16 N17 1.342 . S
C16 C20 1.401 . S
C16 C21 1.499 . S
N17 Co0 1.989 . S
N17 C16 1.342 . S
N17 N18 1.388 . S
N18 Co1 1.993 . S
N18 N17 1.388 . S
N18 C19 1.346 . S
C19 N18 1.346 . S
C19 C20 1.396 . S
C19 C29 1.510 . S
C20 C16 1.401 . S
C20 C19 1.396 . S
C21 C16 1.499 . S
C21 H22 0.959 . S
C21 H23 0.960 . S
C21 H24 0.961 . S
H22 C21 0.959 . S
H23 C21 0.960 . S
H24 C21 0.961 . S
O25 Co0 1.967 . S
O25 C33 1.258 . S
O26 Co1 1.941 . S
O26 C33 1.266 . S
H27 C29 0.959 . S
H28 C29 0.961 . S
C29 C19 1.510 . S
C29 H27 0.959 . S
C29 H28 0.961 . S
C29 H30 0.960 . S
H30 C29 0.960 . S
H31 N11 0.862 . S
O32 Co0 1.920 . S
O32 C5 1.289 . S
C33 O25 1.258 . S
C33 O26 1.266 . S
Co34 O37 1.970 . S
Co34 N51 1.989 . S
Co34 O59 1.967 . S
Co34 O66 1.920 . S
Co35 O38 1.966 . S
Co35 N44 2.022 . S
Co35 N52 1.993 . S
Co35 O60 1.941 . S
C36 O37 1.258 . S
C36 O38 1.263 . S
O37 Co34 1.970 . S
O37 C36 1.258 . S
O38 Co35 1.966 . S
O38 C36 1.263 . S
C39 O40 1.235 . S
C39 O66 1.289 . S
O40 C39 1.235 . S
C41 C43 1.400 . S
C41 N44 1.351 . S
C41 C46 1.501 . S
C42 C43 1.387 . S
C42 N45 1.341 . S
C43 C41 1.400 . S
C43 C42 1.387 . S
N44 Co35 2.022 . S
N44 C41 1.351 . S
N44 N45 1.365 . S
N45 C42 1.341 . S
N45 N44 1.365 . S
N45 H65 0.862 . S
C46 C41 1.501 . S
C46 H47 0.961 . S
C46 H48 0.961 . S
C46 H49 0.960 . S
H47 C46 0.961 . S
H48 C46 0.961 . S
H49 C46 0.960 . S
C50 N51 1.342 . S
C50 C54 1.401 . S
C50 C55 1.499 . S
N51 Co34 1.989 . S
N51 C50 1.342 . S
N51 N52 1.388 . S
N52 Co35 1.993 . S
N52 N51 1.388 . S
N52 C53 1.346 . S
C53 N52 1.346 . S
C53 C54 1.396 . S
C53 C63 1.510 . S
C54 C50 1.401 . S
C54 C53 1.396 . S
C55 C50 1.499 . S
C55 H56 0.959 . S
C55 H57 0.960 . S
C55 H58 0.961 . S
H56 C55 0.959 . S
H57 C55 0.960 . S
H58 C55 0.961 . S
O59 Co34 1.967 . S
O59 C67 1.258 . S
O60 Co35 1.941 . S
O60 C67 1.266 . S
H61 C63 0.959 . S
H62 C63 0.961 . S
C63 C53 1.510 . S
C63 H61 0.959 . S
C63 H62 0.961 . S
C63 H64 0.960 . S
H64 C63 0.960 . S
H65 N45 0.862 . S
O66 Co34 1.920 . S
O66 C39 1.289 . S
C67 O59 1.258 . S
C67 O60 1.266 . S
Co68 O71 1.970 . S
Co68 N85 1.989 . S
Co68 O93 1.967 . S
Co68 O100 1.920 . S
Co69 O72 1.966 . S
Co69 N78 2.022 . S
Co69 N86 1.993 . S
Co69 O94 1.941 . S
C70 O71 1.258 . S
C70 O72 1.263 . S
O71 Co68 1.970 . S
O71 C70 1.258 . S
O72 Co69 1.966 . S
O72 C70 1.263 . S
C73 O74 1.235 . S
C73 O100 1.289 . S
O74 C73 1.235 . S
C75 C77 1.400 . S
C75 N78 1.351 . S
C75 C80 1.501 . S
C76 C77 1.387 . S
C76 N79 1.341 . S
C77 C75 1.400 . S
C77 C76 1.387 . S
N78 Co69 2.022 . S
N78 C75 1.351 . S
N78 N79 1.365 . S
N79 C76 1.341 . S
N79 N78 1.365 . S
N79 H99 0.862 . S
C80 C75 1.501 . S
C80 H81 0.961 . S
C80 H82 0.961 . S
C80 H83 0.960 . S
H81 C80 0.961 . S
H82 C80 0.961 . S
H83 C80 0.960 . S
C84 N85 1.342 . S
C84 C88 1.401 . S
C84 C89 1.499 . S
N85 Co68 1.989 . S
N85 C84 1.342 . S
N85 N86 1.388 . S
N86 Co69 1.993 . S
N86 N85 1.388 . S
N86 C87 1.346 . S
C87 N86 1.346 . S
C87 C88 1.396 . S
C87 C97 1.510 . S
C88 C84 1.401 . S
C88 C87 1.396 . S
C89 C84 1.499 . S
C89 H90 0.959 . S
C89 H91 0.960 . S
C89 H92 0.961 . S
H90 C89 0.959 . S
H91 C89 0.960 . S
H92 C89 0.961 . S
O93 Co68 1.967 . S
O93 C101 1.258 . S
O94 Co69 1.941 . S
O94 C101 1.266 . S
H95 C97 0.959 . S
H96 C97 0.961 . S
C97 C87 1.510 . S
C97 H95 0.959 . S
C97 H96 0.961 . S
C97 H98 0.960 . S
H98 C97 0.960 . S
H99 N79 0.862 . S
O100 Co68 1.920 . S
O100 C73 1.289 . S
C101 O93 1.258 . S
C101 O94 1.266 . S
Co102 O105 1.970 . S
Co102 N119 1.989 . S
Co102 O127 1.967 . S
Co102 O134 1.920 . S
Co103 O106 1.966 . S
Co103 N112 2.022 . S
Co103 N120 1.993 . S
Co103 O128 1.941 . S
C104 O105 1.258 . S
C104 O106 1.263 . S
O105 Co102 1.970 . S
O105 C104 1.258 . S
O106 Co103 1.966 . S
O106 C104 1.263 . S
C107 O108 1.235 . S
C107 O134 1.289 . S
O108 C107 1.235 . S
C109 C111 1.400 . S
C109 N112 1.351 . S
C109 C114 1.501 . S
C110 C111 1.387 . S
C110 N113 1.341 . S
C111 C109 1.400 . S
C111 C110 1.387 . S
N112 Co103 2.022 . S
N112 C109 1.351 . S
N112 N113 1.365 . S
N113 C110 1.341 . S
N113 N112 1.365 . S
N113 H133 0.862 . S
C114 C109 1.501 . S
C114 H115 0.961 . S
C114 H116 0.961 . S
C114 H117 0.960 . S
H115 C114 0.961 . S
H116 C114 0.961 . S
H117 C114 0.960 . S
C118 N119 1.342 . S
C118 C122 1.401 . S
C118 C123 1.499 . S
N119 Co102 1.989 . S
N119 C118 1.342 . S
N119 N120 1.388 . S
N120 Co103 1.993 . S
N120 N119 1.388 . S
N120 C121 1.346 . S
C121 N120 1.346 . S
C121 C122 1.396 . S
C121 C131 1.510 . S
C122 C118 1.401 . S
C122 C121 1.396 . S
C123 C118 1.499 . S
C123 H124 0.959 . S
C123 H125 0.960 . S
C123 H126 0.961 . S
H124 C123 0.959 . S
H125 C123 0.960 . S
H126 C123 0.961 . S
O127 Co102 1.967 . S
O127 C135 1.258 . S
O128 Co103 1.941 . S
O128 C135 1.266 . S
H129 C131 0.959 . S
H130 C131 0.961 . S
C131 C121 1.510 . S
C131 H129 0.959 . S
C131 H130 0.961 . S
C131 H132 0.960 . S
H132 C131 0.960 . S
H133 N113 0.862 . S
O134 Co102 1.920 . S
O134 C107 1.289 . S
C135 O127 1.258 . S
C135 O128 1.266 . S
Co136 O139 1.970 . S
Co136 N153 1.989 . S
Co136 O161 1.967 . S
Co136 O168 1.920 . S
Co137 O140 1.966 . S
Co137 N146 2.022 . S
Co137 N154 1.993 . S
Co137 O162 1.941 . S
C138 O139 1.258 . S
C138 O140 1.263 . S
O139 Co136 1.970 . S
O139 C138 1.258 . S
O140 Co137 1.966 . S
O140 C138 1.263 . S
C141 O142 1.235 . S
C141 O168 1.289 . S
O142 C141 1.235 . S
C143 C145 1.400 . S
C143 N146 1.351 . S
C143 C148 1.501 . S
C144 C145 1.387 . S
C144 N147 1.341 . S
C145 C143 1.400 . S
C145 C144 1.387 . S
N146 Co137 2.022 . S
N146 C143 1.351 . S
N146 N147 1.365 . S
N147 C144 1.341 . S
N147 N146 1.365 . S
N147 H167 0.862 . S
C148 C143 1.501 . S
C148 H149 0.961 . S
C148 H150 0.961 . S
C148 H151 0.960 . S
H149 C148 0.961 . S
H150 C148 0.961 . S
H151 C148 0.960 . S
C152 N153 1.342 . S
C152 C156 1.401 . S
C152 C157 1.499 . S
N153 Co136 1.989 . S
N153 C152 1.342 . S
N153 N154 1.388 . S
N154 Co137 1.993 . S
N154 N153 1.388 . S
N154 C155 1.346 . S
C155 N154 1.346 . S
C155 C156 1.396 . S
C155 C165 1.510 . S
C156 C152 1.401 . S
C156 C155 1.396 . S
C157 C152 1.499 . S
C157 H158 0.959 . S
C157 H159 0.960 . S
C157 H160 0.961 . S
H158 C157 0.959 . S
H159 C157 0.960 . S
H160 C157 0.961 . S
O161 Co136 1.967 . S
O161 C169 1.258 . S
O162 Co137 1.941 . S
O162 C169 1.266 . S
H163 C165 0.959 . S
H164 C165 0.961 . S
C165 C155 1.510 . S
C165 H163 0.959 . S
C165 H164 0.961 . S
C165 H166 0.960 . S
H166 C165 0.960 . S
H167 N147 0.862 . S
O168 Co136 1.920 . S
O168 C141 1.289 . S
C169 O161 1.258 . S
C169 O162 1.266 . S
Co170 O173 1.970 . S
Co170 N187 1.989 . S
Co170 O195 1.967 . S
Co170 O202 1.920 . S
Co171 O174 1.966 . S
Co171 N180 2.022 . S
Co171 N188 1.993 . S
Co171 O196 1.941 . S
C172 O173 1.258 . S
C172 O174 1.263 . S
O173 Co170 1.970 . S
O173 C172 1.258 . S
O174 Co171 1.966 . S
O174 C172 1.263 . S
C175 O176 1.235 . S
C175 O202 1.289 . S
O176 C175 1.235 . S
C177 C179 1.400 . S
C177 N180 1.351 . S
C177 C182 1.501 . S
C178 C179 1.387 . S
C178 N181 1.341 . S
C179 C177 1.400 . S
C179 C178 1.387 . S
N180 Co171 2.022 . S
N180 C177 1.351 . S
N180 N181 1.365 . S
N181 C178 1.341 . S
N181 N180 1.365 . S
N181 H201 0.862 . S
C182 C177 1.501 . S
C182 H183 0.961 . S
C182 H184 0.961 . S
C182 H185 0.960 . S
H183 C182 0.961 . S
H184 C182 0.961 . S
H185 C182 0.960 . S
C186 N187 1.342 . S
C186 C190 1.401 . S
C186 C191 1.499 . S
N187 Co170 1.989 . S
N187 C186 1.342 . S
N187 N188 1.388 . S
N188 Co171 1.993 . S
N188 N187 1.388 . S
N188 C189 1.346 . S
C189 N188 1.346 . S
C189 C190 1.396 . S
C189 C199 1.510 . S
C190 C186 1.401 . S
C190 C189 1.396 . S
C191 C186 1.499 . S
C191 H192 0.959 . S
C191 H193 0.960 . S
C191 H194 0.961 . S
H192 C191 0.959 . S
H193 C191 0.960 . S
H194 C191 0.961 . S
O195 Co170 1.967 . S
O195 C203 1.258 . S
O196 Co171 1.941 . S
O196 C203 1.266 . S
H197 C199 0.959 . S
H198 C199 0.961 . S
C199 C189 1.510 . S
C199 H197 0.959 . S
C199 H198 0.961 . S
C199 H200 0.960 . S
H200 C199 0.960 . S
H201 N181 0.862 . S
O202 Co170 1.920 . S
O202 C175 1.289 . S
C203 O195 1.258 . S
C203 O196 1.266 . S
Co204 O207 1.970 . S
Co204 N221 1.989 . S
Co204 O229 1.967 . S
Co204 O236 1.920 . S
Co205 O208 1.966 . S
Co205 N214 2.022 . S
Co205 N222 1.993 . S
Co205 O230 1.941 . S
C206 O207 1.258 . S
C206 O208 1.263 . S
O207 Co204 1.970 . S
O207 C206 1.258 . S
O208 Co205 1.966 . S
O208 C206 1.263 . S
C209 O210 1.239 . S
C209 O236 1.289 1_554 S
O210 C209 1.239 . S
C211 C213 1.400 . S
C211 N214 1.351 . S
C211 C216 1.501 . S
C212 C213 1.387 . S
C212 N215 1.341 . S
C213 C211 1.400 . S
C213 C212 1.387 . S
N214 Co205 2.022 . S
N214 C211 1.351 . S
N214 N215 1.365 . S
N215 C212 1.341 . S
N215 N214 1.365 . S
N215 H235 0.862 . S
C216 C211 1.501 . S
C216 H217 0.961 . S
C216 H218 0.961 . S
C216 H219 0.960 . S
H217 C216 0.961 . S
H218 C216 0.961 . S
H219 C216 0.960 . S
C220 N221 1.342 . S
C220 C224 1.401 . S
C220 C225 1.499 . S
N221 Co204 1.989 . S
N221 C220 1.342 . S
N221 N222 1.388 . S
N222 Co205 1.993 . S
N222 N221 1.388 . S
N222 C223 1.346 . S
C223 N222 1.346 . S
C223 C224 1.396 . S
C223 C233 1.510 . S
C224 C220 1.401 . S
C224 C223 1.396 . S
C225 C220 1.499 . S
C225 H226 0.959 . S
C225 H227 0.960 . S
C225 H228 0.961 . S
H226 C225 0.959 . S
H227 C225 0.960 . S
H228 C225 0.961 . S
O229 Co204 1.967 . S
O229 C237 1.258 . S
O230 Co205 1.941 . S
O230 C237 1.266 . S
H231 C233 0.959 . S
H232 C233 0.961 . S
C233 C223 1.510 . S
C233 H231 0.959 . S
C233 H232 0.961 . S
C233 H234 0.960 . S
H234 C233 0.960 . S
H235 N215 0.862 . S
O236 Co204 1.920 . S
O236 C209 1.289 1_556 S
C237 O229 1.258 . S
C237 O230 1.266 . S
Co238 O241 1.970 . S
Co238 N255 1.989 . S
Co238 O263 1.967 . S
Co238 O270 1.920 . S
Co239 O242 1.966 . S
Co239 N248 2.022 . S
Co239 N256 1.993 . S
Co239 O264 1.941 . S
C240 O241 1.258 . S
C240 O242 1.263 . S
O241 Co238 1.970 . S
O241 C240 1.258 . S
O242 Co239 1.966 . S
O242 C240 1.263 . S
C243 O244 1.239 . S
C243 O270 1.289 1_554 S
O244 C243 1.239 . S
C245 C247 1.400 . S
C245 N248 1.351 . S
C245 C250 1.501 . S
C246 C247 1.387 . S
C246 N249 1.341 . S
C247 C245 1.400 . S
C247 C246 1.387 . S
N248 Co239 2.022 . S
N248 C245 1.351 . S
N248 N249 1.365 . S
N249 C246 1.341 . S
N249 N248 1.365 . S
N249 H269 0.862 . S
C250 C245 1.501 . S
C250 H251 0.961 . S
C250 H252 0.961 . S
C250 H253 0.960 . S
H251 C250 0.961 . S
H252 C250 0.961 . S
H253 C250 0.960 . S
C254 N255 1.342 . S
C254 C258 1.401 . S
C254 C259 1.499 . S
N255 Co238 1.989 . S
N255 C254 1.342 . S
N255 N256 1.388 . S
N256 Co239 1.993 . S
N256 N255 1.388 . S
N256 C257 1.346 . S
C257 N256 1.346 . S
C257 C258 1.396 . S
C257 C267 1.510 . S
C258 C254 1.401 . S
C258 C257 1.396 . S
C259 C254 1.499 . S
C259 H260 0.959 . S
C259 H261 0.960 . S
C259 H262 0.961 . S
H260 C259 0.959 . S
H261 C259 0.960 . S
H262 C259 0.961 . S
O263 Co238 1.967 . S
O263 C271 1.258 . S
O264 Co239 1.941 . S
O264 C271 1.266 . S
H265 C267 0.959 . S
H266 C267 0.961 . S
C267 C257 1.510 . S
C267 H265 0.959 . S
C267 H266 0.961 . S
C267 H268 0.960 . S
H268 C267 0.960 . S
H269 N249 0.862 . S
O270 Co238 1.920 . S
O270 C243 1.289 1_556 S
C271 O263 1.258 . S
C271 O264 1.266 . S
Co272 O275 1.970 . S
Co272 N289 1.989 . S
Co272 O297 1.967 . S
Co272 O304 1.920 . S
Co273 O276 1.966 . S
Co273 N282 2.022 . S
Co273 N290 1.993 . S
Co273 O298 1.941 . S
C274 O275 1.258 . S
C274 O276 1.263 . S
O275 Co272 1.970 . S
O275 C274 1.258 . S
O276 Co273 1.966 . S
O276 C274 1.263 . S
C277 O278 1.238 . S
C277 O304 1.289 1_554 S
O278 C277 1.238 . S
C279 C281 1.400 . S
C279 N282 1.351 . S
C279 C284 1.501 . S
C280 C281 1.387 . S
C280 N283 1.341 . S
C281 C279 1.400 . S
C281 C280 1.387 . S
N282 Co273 2.022 . S
N282 C279 1.351 . S
N282 N283 1.365 . S
N283 C280 1.341 . S
N283 N282 1.365 . S
N283 H303 0.862 . S
C284 C279 1.501 . S
C284 H285 0.961 . S
C284 H286 0.961 . S
C284 H287 0.960 . S
H285 C284 0.961 . S
H286 C284 0.961 . S
H287 C284 0.960 . S
C288 N289 1.342 . S
C288 C292 1.401 . S
C288 C293 1.499 . S
N289 Co272 1.989 . S
N289 C288 1.342 . S
N289 N290 1.388 . S
N290 Co273 1.993 . S
N290 N289 1.388 . S
N290 C291 1.346 . S
C291 N290 1.346 . S
C291 C292 1.396 . S
C291 C301 1.510 . S
C292 C288 1.401 . S
C292 C291 1.396 . S
C293 C288 1.499 . S
C293 H294 0.959 . S
C293 H295 0.960 . S
C293 H296 0.961 . S
H294 C293 0.959 . S
H295 C293 0.960 . S
H296 C293 0.961 . S
O297 Co272 1.967 . S
O297 C305 1.258 . S
O298 Co273 1.941 . S
O298 C305 1.266 . S
H299 C301 0.959 . S
H300 C301 0.961 . S
C301 C291 1.510 . S
C301 H299 0.959 . S
C301 H300 0.961 . S
C301 H302 0.960 . S
H302 C301 0.960 . S
H303 N283 0.862 . S
O304 Co272 1.920 . S
O304 C277 1.289 1_556 S
C305 O297 1.258 . S
C305 O298 1.266 . S
Co306 O309 1.970 . S
Co306 N323 1.989 . S
Co306 O331 1.967 . S
Co306 O338 1.920 . S
Co307 O310 1.966 1_554 S
Co307 N316 2.022 . S
Co307 N324 1.993 1_554 S
Co307 O332 1.941 1_554 S
C308 O309 1.258 . S
C308 O310 1.263 . S
O309 Co306 1.970 . S
O309 C308 1.258 . S
O310 Co307 1.966 1_556 S
O310 C308 1.263 . S
C311 O312 1.235 . S
C311 O338 1.289 . S
O312 C311 1.235 . S
C313 C315 1.400 . S
C313 N316 1.351 . S
C313 C318 1.501 . S
C314 C315 1.387 . S
C314 N317 1.341 . S
C315 C313 1.400 . S
C315 C314 1.387 . S
N316 Co307 2.022 . S
N316 C313 1.351 . S
N316 N317 1.365 . S
N317 C314 1.341 . S
N317 N316 1.365 . S
N317 H337 0.862 . S
C318 C313 1.501 . S
C318 H319 0.961 . S
C318 H320 0.961 . S
C318 H321 0.960 . S
H319 C318 0.961 . S
H320 C318 0.961 . S
H321 C318 0.960 . S
C322 N323 1.342 . S
C322 C326 1.401 . S
C322 C327 1.499 . S
N323 Co306 1.989 . S
N323 C322 1.342 . S
N323 N324 1.388 . S
N324 Co307 1.993 1_556 S
N324 N323 1.388 . S
N324 C325 1.346 1_556 S
C325 N324 1.346 1_554 S
C325 C326 1.396 1_554 S
C325 C335 1.510 . S
C326 C322 1.401 . S
C326 C325 1.396 1_556 S
C327 C322 1.499 . S
C327 H328 0.959 . S
C327 H329 0.960 . S
C327 H330 0.961 . S
H328 C327 0.959 . S
H329 C327 0.960 . S
H330 C327 0.961 . S
O331 Co306 1.967 . S
O331 C339 1.258 . S
O332 Co307 1.941 1_556 S
O332 C339 1.266 . S
H333 C335 0.959 . S
H334 C335 0.961 . S
C335 C325 1.510 . S
C335 H333 0.959 . S
C335 H334 0.961 . S
C335 H336 0.960 . S
H336 C335 0.960 . S
H337 N317 0.862 . S
O338 Co306 1.920 . S
O338 C311 1.289 . S
C339 O331 1.258 . S
C339 O332 1.266 . S
Co340 O343 1.970 . S
Co340 N357 1.989 . S
Co340 O365 1.967 . S
Co340 O372 1.920 . S
Co341 O344 1.966 1_554 S
Co341 N350 2.022 . S
Co341 N358 1.993 1_554 S
Co341 O366 1.941 1_554 S
C342 O343 1.258 . S
C342 O344 1.263 . S
O343 Co340 1.970 . S
O343 C342 1.258 . S
O344 Co341 1.966 1_556 S
O344 C342 1.263 . S
C345 O346 1.235 . S
C345 O372 1.289 . S
O346 C345 1.235 . S
C347 C349 1.400 . S
C347 N350 1.351 . S
C347 C352 1.501 . S
C348 C349 1.387 . S
C348 N351 1.341 . S
C349 C347 1.400 . S
C349 C348 1.387 . S
N350 Co341 2.022 . S
N350 C347 1.351 . S
N350 N351 1.365 . S
N351 C348 1.341 . S
N351 N350 1.365 . S
N351 H371 0.862 . S
C352 C347 1.501 . S
C352 H353 0.961 . S
C352 H354 0.961 . S
C352 H355 0.960 . S
H353 C352 0.961 . S
H354 C352 0.961 . S
H355 C352 0.960 . S
C356 N357 1.342 . S
C356 C360 1.401 . S
C356 C361 1.499 . S
N357 Co340 1.989 . S
N357 C356 1.342 . S
N357 N358 1.388 . S
N358 Co341 1.993 1_556 S
N358 N357 1.388 . S
N358 C359 1.346 1_556 S
C359 N358 1.346 1_554 S
C359 C360 1.396 1_554 S
C359 C369 1.510 . S
C360 C356 1.401 . S
C360 C359 1.396 1_556 S
C361 C356 1.499 . S
C361 H362 0.959 . S
C361 H363 0.960 . S
C361 H364 0.961 . S
H362 C361 0.959 . S
H363 C361 0.960 . S
H364 C361 0.961 . S
O365 Co340 1.967 . S
O365 C373 1.258 . S
O366 Co341 1.941 1_556 S
O366 C373 1.266 . S
H367 C369 0.959 . S
H368 C369 0.961 . S
C369 C359 1.510 . S
C369 H367 0.959 . S
C369 H368 0.961 . S
C369 H370 0.960 . S
H370 C369 0.960 . S
H371 N351 0.862 . S
O372 Co340 1.920 . S
O372 C345 1.289 . S
C373 O365 1.258 . S
C373 O366 1.266 . S
Co374 O377 1.970 . S
Co374 N391 1.989 . S
Co374 O399 1.967 . S
Co374 O406 1.920 . S
Co375 O378 1.966 1_554 S
Co375 N384 2.022 . S
Co375 N392 1.993 1_554 S
Co375 O400 1.941 1_554 S
C376 O377 1.258 . S
C376 O378 1.263 . S
O377 Co374 1.970 . S
O377 C376 1.258 . S
O378 Co375 1.966 1_556 S
O378 C376 1.263 . S
C379 O380 1.235 . S
C379 O406 1.289 . S
O380 C379 1.235 . S
C381 C383 1.400 . S
C381 N384 1.351 . S
C381 C386 1.501 . S
C382 C383 1.387 . S
C382 N385 1.341 . S
C383 C381 1.400 . S
C383 C382 1.387 . S
N384 Co375 2.022 . S
N384 C381 1.351 . S
N384 N385 1.365 . S
N385 C382 1.341 . S
N385 N384 1.365 . S
N385 H405 0.862 . S
C386 C381 1.501 . S
C386 H387 0.961 . S
C386 H388 0.961 . S
C386 H389 0.960 . S
H387 C386 0.961 . S
H388 C386 0.961 . S
H389 C386 0.960 . S
C390 N391 1.342 . S
C390 C394 1.401 . S
C390 C395 1.499 . S
N391 Co374 1.989 . S
N391 C390 1.342 . S
N391 N392 1.388 . S
N392 Co375 1.993 1_556 S
N392 N391 1.388 . S
N392 C393 1.346 1_556 S
C393 N392 1.346 1_554 S
C393 C394 1.396 1_554 S
C393 C403 1.510 . S
C394 C390 1.401 . S
C394 C393 1.396 1_556 S
C395 C390 1.499 . S
C395 H396 0.959 . S
C395 H397 0.960 . S
C395 H398 0.961 . S
H396 C395 0.959 . S
H397 C395 0.960 . S
H398 C395 0.961 . S
O399 Co374 1.967 . S
O399 C407 1.258 . S
O400 Co375 1.941 1_556 S
O400 C407 1.266 . S
H401 C403 0.959 . S
H402 C403 0.961 . S
C403 C393 1.510 . S
C403 H401 0.959 . S
C403 H402 0.961 . S
C403 H404 0.960 . S
H404 C403 0.960 . S
H405 N385 0.862 . S
O406 Co374 1.920 . S
O406 C379 1.289 . S
C407 O399 1.258 . S
C407 O400 1.266 . S
Co408 O411 1.970 . S
Co408 N425 1.989 . S
Co408 O433 1.967 . S
Co408 O440 1.920 . S
Co409 O412 1.966 1_556 S
Co409 N418 2.022 . S
Co409 N426 1.993 1_556 S
Co409 O434 1.941 1_556 S
C410 O411 1.258 . S
C410 O412 1.263 . S
O411 Co408 1.970 . S
O411 C410 1.258 . S
O412 Co409 1.966 1_554 S
O412 C410 1.263 . S
C413 O414 1.235 . S
C413 O440 1.289 . S
O414 C413 1.235 . S
C415 C417 1.400 . S
C415 N418 1.351 . S
C415 C420 1.501 . S
C416 C417 1.387 . S
C416 N419 1.341 . S
C417 C415 1.400 . S
C417 C416 1.387 . S
N418 Co409 2.022 . S
N418 C415 1.351 . S
N418 N419 1.365 . S
N419 C416 1.341 . S
N419 N418 1.365 . S
N419 H439 0.862 . S
C420 C415 1.501 . S
C420 H421 0.961 . S
C420 H422 0.961 . S
C420 H423 0.960 . S
H421 C420 0.961 . S
H422 C420 0.961 . S
H423 C420 0.960 . S
C424 N425 1.342 . S
C424 C428 1.401 . S
C424 C429 1.499 . S
N425 Co408 1.989 . S
N425 C424 1.342 . S
N425 N426 1.388 . S
N426 Co409 1.993 1_554 S
N426 N425 1.388 . S
N426 C427 1.346 1_554 S
C427 N426 1.346 1_556 S
C427 C428 1.396 1_556 S
C427 C437 1.510 . S
C428 C424 1.401 . S
C428 C427 1.396 1_554 S
C429 C424 1.499 . S
C429 H430 0.959 . S
C429 H431 0.960 . S
C429 H432 0.961 . S
H430 C429 0.959 . S
H431 C429 0.960 . S
H432 C429 0.961 . S
O433 Co408 1.967 . S
O433 C441 1.258 . S
O434 Co409 1.941 1_554 S
O434 C441 1.266 . S
H435 C437 0.959 . S
H436 C437 0.961 . S
C437 C427 1.510 . S
C437 H435 0.959 . S
C437 H436 0.961 . S
C437 H438 0.960 . S
H438 C437 0.960 . S
H439 N419 0.862 . S
O440 Co408 1.920 . S
O440 C413 1.289 . S
C441 O433 1.258 . S
C441 O434 1.266 . S
Co442 O445 1.970 . S
Co442 N459 1.989 . S
Co442 O467 1.967 . S
Co442 O474 1.920 . S
Co443 O446 1.966 1_556 S
Co443 N452 2.022 . S
Co443 N460 1.993 1_556 S
Co443 O468 1.941 1_556 S
C444 O445 1.258 . S
C444 O446 1.263 . S
O445 Co442 1.970 . S
O445 C444 1.258 . S
O446 Co443 1.966 1_554 S
O446 C444 1.263 . S
C447 O448 1.235 . S
C447 O474 1.289 . S
O448 C447 1.235 . S
C449 C451 1.400 . S
C449 N452 1.351 . S
C449 C454 1.501 . S
C450 C451 1.387 . S
C450 N453 1.341 . S
C451 C449 1.400 . S
C451 C450 1.387 . S
N452 Co443 2.022 . S
N452 C449 1.351 . S
N452 N453 1.365 . S
N453 C450 1.341 . S
N453 N452 1.365 . S
N453 H473 0.862 . S
C454 C449 1.501 . S
C454 H455 0.961 . S
C454 H456 0.961 . S
C454 H457 0.960 . S
H455 C454 0.961 . S
H456 C454 0.961 . S
H457 C454 0.960 . S
C458 N459 1.342 . S
C458 C462 1.401 . S
C458 C463 1.499 . S
N459 Co442 1.989 . S
N459 C458 1.342 . S
N459 N460 1.388 . S
N460 Co443 1.993 1_554 S
N460 N459 1.388 . S
N460 C461 1.346 1_554 S
C461 N460 1.346 1_556 S
C461 C462 1.396 1_556 S
C461 C471 1.510 . S
C462 C458 1.401 . S
C462 C461 1.396 1_554 S
C463 C458 1.499 . S
C463 H464 0.959 . S
C463 H465 0.960 . S
C463 H466 0.961 . S
H464 C463 0.959 . S
H465 C463 0.960 . S
H466 C463 0.961 . S
O467 Co442 1.967 . S
O467 C475 1.258 . S
O468 Co443 1.941 1_554 S
O468 C475 1.266 . S
H469 C471 0.959 . S
H470 C471 0.961 . S
C471 C461 1.510 . S
C471 H469 0.959 . S
C471 H470 0.961 . S
C471 H472 0.960 . S
H472 C471 0.960 . S
H473 N453 0.862 . S
O474 Co442 1.920 . S
O474 C447 1.289 . S
C475 O467 1.258 . S
C475 O468 1.266 . S
Co476 O479 1.970 . S
Co476 N493 1.989 . S
Co476 O501 1.967 . S
Co476 O508 1.920 . S
Co477 O480 1.966 1_556 S
Co477 N486 2.022 . S
Co477 N494 1.993 1_556 S
Co477 O502 1.941 1_556 S
C478 O479 1.258 . S
C478 O480 1.263 . S
O479 Co476 1.970 . S
O479 C478 1.258 . S
O480 Co477 1.966 1_554 S
O480 C478 1.263 . S
C481 O482 1.235 . S
C481 O508 1.289 . S
O482 C481 1.235 . S
C483 C485 1.400 . S
C483 N486 1.351 . S
C483 C488 1.501 . S
C484 C485 1.387 . S
C484 N487 1.341 . S
C485 C483 1.400 . S
C485 C484 1.387 . S
N486 Co477 2.022 . S
N486 C483 1.351 . S
N486 N487 1.365 . S
N487 C484 1.341 . S
N487 N486 1.365 . S
N487 H507 0.862 . S
C488 C483 1.501 . S
C488 H489 0.961 . S
C488 H490 0.961 . S
C488 H491 0.960 . S
H489 C488 0.961 . S
H490 C488 0.961 . S
H491 C488 0.960 . S
C492 N493 1.342 . S
C492 C496 1.401 . S
C492 C497 1.499 . S
N493 Co476 1.989 . S
N493 C492 1.342 . S
N493 N494 1.388 . S
N494 Co477 1.993 1_554 S
N494 N493 1.388 . S
N494 C495 1.346 1_554 S
C495 N494 1.346 1_556 S
C495 C496 1.396 1_556 S
C495 C505 1.510 . S
C496 C492 1.401 . S
C496 C495 1.396 1_554 S
C497 C492 1.499 . S
C497 H498 0.959 . S
C497 H499 0.960 . S
C497 H500 0.961 . S
H498 C497 0.959 . S
H499 C497 0.960 . S
H500 C497 0.961 . S
O501 Co476 1.967 . S
O501 C509 1.258 . S
O502 Co477 1.941 1_554 S
O502 C509 1.266 . S
H503 C505 0.959 . S
H504 C505 0.961 . S
C505 C495 1.510 . S
C505 H503 0.959 . S
C505 H504 0.961 . S
C505 H506 0.960 . S
H506 C505 0.960 . S
H507 N487 0.862 . S
O508 Co476 1.920 . S
O508 C481 1.289 . S
C509 O501 1.258 . S
C509 O502 1.266 . S
Co510 O513 1.970 . S
Co510 N527 1.989 . S
Co510 O535 1.967 . S
Co510 O542 1.920 . S
Co511 O514 1.966 . S
Co511 N520 2.022 . S
Co511 N528 1.993 . S
Co511 O536 1.941 . S
C512 O513 1.258 . S
C512 O514 1.263 . S
O513 Co510 1.970 . S
O513 C512 1.258 . S
O514 Co511 1.966 . S
O514 C512 1.263 . S
C515 O516 1.239 . S
C515 O542 1.289 1_556 S
O516 C515 1.239 . S
C517 C519 1.400 . S
C517 N520 1.351 . S
C517 C522 1.501 . S
C518 C519 1.387 . S
C518 N521 1.341 . S
C519 C517 1.400 . S
C519 C518 1.387 . S
N520 Co511 2.022 . S
N520 C517 1.351 . S
N520 N521 1.365 . S
N521 C518 1.341 . S
N521 N520 1.365 . S
N521 H541 0.862 . S
C522 C517 1.501 . S
C522 H523 0.961 . S
C522 H524 0.961 . S
C522 H525 0.960 . S
H523 C522 0.961 . S
H524 C522 0.961 . S
H525 C522 0.960 . S
C526 N527 1.342 . S
C526 C530 1.401 . S
C526 C531 1.499 . S
N527 Co510 1.989 . S
N527 C526 1.342 . S
N527 N528 1.388 . S
N528 Co511 1.993 . S
N528 N527 1.388 . S
N528 C529 1.346 . S
C529 N528 1.346 . S
C529 C530 1.396 . S
C529 C539 1.510 . S
C530 C526 1.401 . S
C530 C529 1.396 . S
C531 C526 1.499 . S
C531 H532 0.959 . S
C531 H533 0.960 . S
C531 H534 0.961 . S
H532 C531 0.959 . S
H533 C531 0.960 . S
H534 C531 0.961 . S
O535 Co510 1.967 . S
O535 C543 1.258 . S
O536 Co511 1.941 . S
O536 C543 1.266 . S
H537 C539 0.959 . S
H538 C539 0.961 . S
C539 C529 1.510 . S
C539 H537 0.959 . S
C539 H538 0.961 . S
C539 H540 0.960 . S
H540 C539 0.960 . S
H541 N521 0.862 . S
O542 Co510 1.920 . S
O542 C515 1.289 1_554 S
C543 O535 1.258 . S
C543 O536 1.266 . S
Co544 O547 1.970 . S
Co544 N561 1.989 . S
Co544 O569 1.967 . S
Co544 O576 1.920 . S
Co545 O548 1.966 . S
Co545 N554 2.022 . S
Co545 N562 1.993 . S
Co545 O570 1.941 . S
C546 O547 1.258 . S
C546 O548 1.263 . S
O547 Co544 1.970 . S
O547 C546 1.258 . S
O548 Co545 1.966 . S
O548 C546 1.263 . S
C549 O550 1.238 . S
C549 O576 1.289 1_556 S
O550 C549 1.238 . S
C551 C553 1.400 . S
C551 N554 1.351 . S
C551 C556 1.501 . S
C552 C553 1.387 . S
C552 N555 1.341 . S
C553 C551 1.400 . S
C553 C552 1.387 . S
N554 Co545 2.022 . S
N554 C551 1.351 . S
N554 N555 1.365 . S
N555 C552 1.341 . S
N555 N554 1.365 . S
N555 H575 0.862 . S
C556 C551 1.501 . S
C556 H557 0.961 . S
C556 H558 0.961 . S
C556 H559 0.960 . S
H557 C556 0.961 . S
H558 C556 0.961 . S
H559 C556 0.960 . S
C560 N561 1.342 . S
C560 C564 1.401 . S
C560 C565 1.499 . S
N561 Co544 1.989 . S
N561 C560 1.342 . S
N561 N562 1.388 . S
N562 Co545 1.993 . S
N562 N561 1.388 . S
N562 C563 1.346 . S
C563 N562 1.346 . S
C563 C564 1.396 . S
C563 C573 1.510 . S
C564 C560 1.401 . S
C564 C563 1.396 . S
C565 C560 1.499 . S
C565 H566 0.959 . S
C565 H567 0.960 . S
C565 H568 0.961 . S
H566 C565 0.959 . S
H567 C565 0.960 . S
H568 C565 0.961 . S
O569 Co544 1.967 . S
O569 C577 1.258 . S
O570 Co545 1.941 . S
O570 C577 1.266 . S
H571 C573 0.959 . S
H572 C573 0.961 . S
C573 C563 1.510 . S
C573 H571 0.959 . S
C573 H572 0.961 . S
C573 H574 0.960 . S
H574 C573 0.960 . S
H575 N555 0.862 . S
O576 Co544 1.920 . S
O576 C549 1.289 1_554 S
C577 O569 1.258 . S
C577 O570 1.266 . S
Co578 O581 1.970 . S
Co578 N595 1.989 . S
Co578 O603 1.967 . S
Co578 O610 1.920 . S
Co579 O582 1.966 . S
Co579 N588 2.022 . S
Co579 N596 1.993 . S
Co579 O604 1.941 . S
C580 O581 1.258 . S
C580 O582 1.263 . S
O581 Co578 1.970 . S
O581 C580 1.258 . S
O582 Co579 1.966 . S
O582 C580 1.263 . S
C583 O584 1.239 . S
C583 O610 1.289 1_556 S
O584 C583 1.239 . S
C585 C587 1.400 . S
C585 N588 1.351 . S
C585 C590 1.501 . S
C586 C587 1.387 . S
C586 N589 1.341 . S
C587 C585 1.400 . S
C587 C586 1.387 . S
N588 Co579 2.022 . S
N588 C585 1.351 . S
N588 N589 1.365 . S
N589 C586 1.341 . S
N589 N588 1.365 . S
N589 H609 0.862 . S
C590 C585 1.501 . S
C590 H591 0.961 . S
C590 H592 0.961 . S
C590 H593 0.960 . S
H591 C590 0.961 . S
H592 C590 0.961 . S
H593 C590 0.960 . S
C594 N595 1.342 . S
C594 C598 1.401 . S
C594 C599 1.499 . S
N595 Co578 1.989 . S
N595 C594 1.342 . S
N595 N596 1.388 . S
N596 Co579 1.993 . S
N596 N595 1.388 . S
N596 C597 1.346 . S
C597 N596 1.346 . S
C597 C598 1.396 . S
C597 C607 1.510 . S
C598 C594 1.401 . S
C598 C597 1.396 . S
C599 C594 1.499 . S
C599 H600 0.959 . S
C599 H601 0.960 . S
C599 H602 0.961 . S
H600 C599 0.959 . S
H601 C599 0.960 . S
H602 C599 0.961 . S
O603 Co578 1.967 . S
O603 C611 1.258 . S
O604 Co579 1.941 . S
O604 C611 1.266 . S
H605 C607 0.959 . S
H606 C607 0.961 . S
C607 C597 1.510 . S
C607 H605 0.959 . S
C607 H606 0.961 . S
C607 H608 0.960 . S
H608 C607 0.960 . S
H609 N589 0.862 . S
O610 Co578 1.920 . S
O610 C583 1.289 1_554 S
C611 O603 1.258 . S
C611 O604 1.266 . S
C612 C613 1.387 . S
C612 H616 0.950 . S
C612 C621 1.390 . S
C613 C612 1.387 . S
C613 C615 1.387 . S
H614 C621 0.950 . S
C615 C613 1.387 . S
C615 C617 1.390 . S
C615 H619 0.950 . S
H616 C612 0.950 . S
C617 C615 1.390 . S
C617 C618 1.387 . S
C617 H620 0.950 . S
C618 C617 1.387 . S
C618 C621 1.387 . S
H619 C615 0.950 . S
H620 C617 0.950 . S
C621 C612 1.390 . S
C621 H614 0.950 . S
C621 C618 1.387 . S
C622 C623 1.387 . S
C622 H626 0.950 . S
C622 C631 1.390 1_545 S
C623 C622 1.387 . S
C623 C625 1.387 . S
H624 C631 0.950 . S
C625 C623 1.387 . S
C625 C627 1.390 1_545 S
C625 H629 0.950 . S
H626 C622 0.950 . S
C627 C625 1.390 1_565 S
C627 C628 1.387 . S
C627 H630 0.950 . S
C628 C627 1.387 . S
C628 C631 1.387 . S
H629 C625 0.950 . S
H630 C627 0.950 . S
C631 C622 1.390 1_565 S
C631 H624 0.950 . S
C631 C628 1.387 . S
C632 C633 1.387 . S
C632 H636 0.950 . S
C632 C641 1.390 1_655 S
C633 C632 1.387 . S
C633 C635 1.387 . S
H634 C641 0.950 . S
C635 C633 1.387 . S
C635 C637 1.390 1_655 S
C635 H639 0.950 . S
H636 C632 0.950 . S
C637 C635 1.390 1_455 S
C637 C638 1.387 . S
C637 H640 0.950 . S
C638 C637 1.387 . S
C638 C641 1.387 . S
H639 C635 0.950 . S
H640 C637 0.950 . S
C641 C632 1.390 1_455 S
C641 H634 0.950 . S
C641 C638 1.387 . S
C642 C643 1.387 . S
C642 H646 0.950 . S
C642 C651 1.390 . S
C643 C642 1.387 . S
C643 C645 1.387 . S
H644 C651 0.950 . S
C645 C643 1.387 . S
C645 C647 1.390 . S
C645 H649 0.950 . S
H646 C642 0.950 . S
C647 C645 1.390 . S
C647 C648 1.387 . S
C647 H650 0.950 . S
C648 C647 1.387 . S
C648 C651 1.387 . S
H649 C645 0.950 . S
H650 C647 0.950 . S
C651 C642 1.390 . S
C651 H644 0.950 . S
C651 C648 1.387 . S
C652 C653 1.387 . S
C652 H656 0.950 . S
C652 C661 1.390 1_545 S
C653 C652 1.387 . S
C653 C655 1.387 . S
H654 C661 0.950 . S
C655 C653 1.387 . S
C655 C657 1.390 1_545 S
C655 H659 0.950 . S
H656 C652 0.950 . S
C657 C655 1.390 1_565 S
C657 C658 1.387 . S
C657 H660 0.950 . S
C658 C657 1.387 . S
C658 C661 1.387 . S
H659 C655 0.950 . S
H660 C657 0.950 . S
C661 C652 1.390 1_565 S
C661 H654 0.950 . S
C661 C658 1.387 . S
C662 C663 1.387 . S
C662 H666 0.950 . S
C662 C671 1.390 1_655 S
C663 C662 1.387 . S
C663 C665 1.387 . S
H664 C671 0.950 . S
C665 C663 1.387 . S
C665 C667 1.390 1_655 S
C665 H669 0.950 . S
H666 C662 0.950 . S
C667 C665 1.390 1_455 S
C667 C668 1.387 . S
C667 H670 0.950 . S
C668 C667 1.387 . S
C668 C671 1.387 . S
H669 C665 0.950 . S
H670 C667 0.950 . S
C671 C662 1.390 1_455 S
C671 H664 0.950 . S
C671 C668 1.387 . S
C672 C673 1.387 . S
C672 H676 0.950 . S
C672 C681 1.390 . S
C673 C672 1.387 . S
C673 C675 1.387 . S
H674 C681 0.950 . S
C675 C673 1.387 . S
C675 C677 1.390 . S
C675 H679 0.950 . S
H676 C672 0.950 . S
C677 C675 1.390 . S
C677 C678 1.387 . S
C677 H680 0.950 . S
C678 C677 1.387 . S
C678 C681 1.387 . S
H679 C675 0.950 . S
H680 C677 0.950 . S
C681 C672 1.390 . S
C681 H674 0.950 . S
C681 C678 1.387 . S
C682 C683 1.387 . S
C682 H686 0.950 . S
C682 C691 1.390 . S
C683 C682 1.387 . S
C683 C685 1.387 . S
H684 C691 0.950 . S
C685 C683 1.387 . S
C685 C687 1.390 . S
C685 H689 0.950 . S
H686 C682 0.950 . S
C687 C685 1.390 . S
C687 C688 1.387 . S
C687 H690 0.950 . S
C688 C687 1.387 . S
C688 C691 1.387 . S
H689 C685 0.950 . S
H690 C687 0.950 . S
C691 C682 1.390 . S
C691 H684 0.950 . S
C691 C688 1.387 . S
C692 C693 1.387 . S
C692 H696 0.950 . S
C692 C701 1.390 . S
C693 C692 1.387 . S
C693 C695 1.387 . S
H694 C701 0.950 . S
C695 C693 1.387 . S
C695 C697 1.390 . S
C695 H699 0.950 . S
H696 C692 0.950 . S
C697 C695 1.390 . S
C697 C698 1.387 . S
C697 H700 0.950 . S
C698 C697 1.387 . S
C698 C701 1.387 . S
H699 C695 0.950 . S
H700 C697 0.950 . S
C701 C692 1.390 . S
C701 H694 0.950 . S
C701 C698 1.387 . S
C702 C703 1.387 . S
C702 H706 0.950 . S
C702 C711 1.390 . S
C703 C702 1.387 . S
C703 C705 1.387 . S
H704 C711 0.950 . S
C705 C703 1.387 . S
C705 C707 1.390 . S
C705 H709 0.950 . S
H706 C702 0.950 . S
C707 C705 1.390 . S
C707 C708 1.387 . S
C707 H710 0.950 . S
C708 C707 1.387 . S
C708 C711 1.387 . S
H709 C705 0.950 . S
H710 C707 0.950 . S
C711 C702 1.390 . S
C711 H704 0.950 . S
C711 C708 1.387 . S
C712 C713 1.387 . S
C712 H716 0.950 . S
C712 C721 1.390 . S
C713 C712 1.387 . S
C713 C715 1.387 . S
H714 C721 0.950 . S
C715 C713 1.387 . S
C715 C717 1.390 . S
C715 H719 0.950 . S
H716 C712 0.950 . S
C717 C715 1.390 . S
C717 C718 1.387 . S
C717 H720 0.950 . S
C718 C717 1.387 . S
C718 C721 1.387 . S
H719 C715 0.950 . S
H720 C717 0.950 . S
C721 C712 1.390 . S
C721 H714 0.950 . S
C721 C718 1.387 . S
C722 C723 1.387 . S
C722 H726 0.950 . S
C722 C731 1.390 . S
C723 C722 1.387 . S
C723 C725 1.387 . S
H724 C731 0.950 . S
C725 C723 1.387 . S
C725 C727 1.390 . S
C725 H729 0.950 . S
H726 C722 0.950 . S
C727 C725 1.390 . S
C727 C728 1.387 . S
C727 H730 0.950 . S
C728 C727 1.387 . S
C728 C731 1.387 . S
H729 C725 0.950 . S
H730 C727 0.950 . S
C731 C722 1.390 . S
C731 H724 0.950 . S
C731 C728 1.387 . S
C732 C733 1.387 . S
C732 H736 0.950 . S
C732 C741 1.390 . S
C733 C732 1.387 . S
C733 C735 1.387 . S
H734 C741 0.950 . S
C735 C733 1.387 . S
C735 C737 1.390 . S
C735 H739 0.950 . S
H736 C732 0.950 . S
C737 C735 1.390 . S
C737 C738 1.387 . S
C737 H740 0.950 . S
C738 C737 1.387 . S
C738 C741 1.387 . S
H739 C735 0.950 . S
H740 C737 0.950 . S
C741 C732 1.390 . S
C741 H734 0.950 . S
C741 C738 1.387 . S
C742 C743 1.387 . S
C742 H746 0.950 . S
C742 C751 1.390 . S
C743 C742 1.387 . S
C743 C745 1.387 . S
H744 C751 0.950 . S
C745 C743 1.387 . S
C745 C747 1.390 . S
C745 H749 0.950 . S
H746 C742 0.950 . S
C747 C745 1.390 . S
C747 C748 1.387 . S
C747 H750 0.950 . S
C748 C747 1.387 . S
C748 C751 1.387 . S
H749 C745 0.950 . S
H750 C747 0.950 . S
C751 C742 1.390 . S
C751 H744 0.950 . S
C751 C748 1.387 . S
C752 C753 1.387 . S
C752 H756 0.950 . S
C752 C761 1.390 . S
C753 C752 1.387 . S
C753 C755 1.387 . S
H754 C761 0.950 . S
C755 C753 1.387 . S
C755 C757 1.390 . S
C755 H759 0.950 . S
H756 C752 0.950 . S
C757 C755 1.390 . S
C757 C758 1.387 . S
C757 H760 0.950 . S
C758 C757 1.387 . S
C758 C761 1.387 . S
H759 C755 0.950 . S
H760 C757 0.950 . S
C761 C752 1.390 . S
C761 H754 0.950 . S
C761 C758 1.387 . S
C762 C763 1.387 . S
C762 H766 0.950 . S
C762 C771 1.390 . S
C763 C762 1.387 . S
C763 C765 1.387 . S
H764 C771 0.950 . S
C765 C763 1.387 . S
C765 C767 1.390 . S
C765 H769 0.950 . S
H766 C762 0.950 . S
C767 C765 1.390 . S
C767 C768 1.387 . S
C767 H770 0.950 . S
C768 C767 1.387 . S
C768 C771 1.387 . S
H769 C765 0.950 . S
H770 C767 0.950 . S
C771 C762 1.390 . S
C771 H764 0.950 . S
C771 C768 1.387 . S
C772 C773 1.387 . S
C772 H776 0.950 . S
C772 C781 1.390 . S
C773 C772 1.387 . S
C773 C775 1.387 . S
H774 C781 0.950 . S
C775 C773 1.387 . S
C775 C777 1.390 . S
C775 H779 0.950 . S
H776 C772 0.950 . S
C777 C775 1.390 . S
C777 C778 1.387 . S
C777 H780 0.950 . S
C778 C777 1.387 . S
C778 C781 1.387 . S
H779 C775 0.950 . S
H780 C777 0.950 . S
C781 C772 1.390 . S
C781 H774 0.950 . S
C781 C778 1.387 . S
C782 C783 1.387 . S
C782 H786 0.950 . S
C782 C791 1.390 . S
C783 C782 1.387 . S
C783 C785 1.387 . S
H784 C791 0.950 . S
C785 C783 1.387 . S
C785 C787 1.390 . S
C785 H789 0.950 . S
H786 C782 0.950 . S
C787 C785 1.390 . S
C787 C788 1.387 . S
C787 H790 0.950 . S
C788 C787 1.387 . S
C788 C791 1.387 . S
H789 C785 0.950 . S
H790 C787 0.950 . S
C791 C782 1.390 . S
C791 H784 0.950 . S
C791 C788 1.387 . S
C792 C793 1.387 . S
C792 H796 0.950 . S
C792 C801 1.390 . S
C793 C792 1.387 . S
C793 C795 1.387 . S
H794 C801 0.950 . S
C795 C793 1.387 . S
C795 C797 1.390 . S
C795 H799 0.950 . S
H796 C792 0.950 . S
C797 C795 1.390 . S
C797 C798 1.387 . S
C797 H800 0.950 . S
C798 C797 1.387 . S
C798 C801 1.387 . S
H799 C795 0.950 . S
H800 C797 0.950 . S
C801 C792 1.390 . S
C801 H794 0.950 . S
C801 C798 1.387 . S
C802 C803 1.387 . S
C802 H806 0.950 . S
C802 C811 1.390 . S
C803 C802 1.387 . S
C803 C805 1.387 . S
H804 C811 0.950 . S
C805 C803 1.387 . S
C805 C807 1.390 . S
C805 H809 0.950 . S
H806 C802 0.950 . S
C807 C805 1.390 . S
C807 C808 1.387 . S
C807 H810 0.950 . S
C808 C807 1.387 . S
C808 C811 1.387 . S
H809 C805 0.950 . S
H810 C807 0.950 . S
C811 C802 1.390 . S
C811 H804 0.950 . S
C811 C808 1.387 . S
C812 C813 1.387 . S
C812 H816 0.950 . S
C812 C821 1.390 . S
C813 C812 1.387 . S
C813 C815 1.387 . S
H814 C821 0.950 . S
C815 C813 1.387 . S
C815 C817 1.390 . S
C815 H819 0.950 . S
H816 C812 0.950 . S
C817 C815 1.390 . S
C817 C818 1.387 . S
C817 H820 0.950 . S
C818 C817 1.387 . S
C818 C821 1.387 . S
H819 C815 0.950 . S
H820 C817 0.950 . S
C821 C812 1.390 . S
C821 H814 0.950 . S
C821 C818 1.387 . S
C822 C823 1.387 . S
C822 H826 0.950 . S
C822 C831 1.390 . S
C823 C822 1.387 . S
C823 C825 1.387 . S
H824 C831 0.950 . S
C825 C823 1.387 . S
C825 C827 1.390 . S
C825 H829 0.950 . S
H826 C822 0.950 . S
C827 C825 1.390 . S
C827 C828 1.387 . S
C827 H830 0.950 . S
C828 C827 1.387 . S
C828 C831 1.387 . S
H829 C825 0.950 . S
H830 C827 0.950 . S
C831 C822 1.390 . S
C831 H824 0.950 . S
C831 C828 1.387 . S
C832 C833 1.387 . S
C832 H836 0.950 . S
C832 C841 1.390 . S
C833 C832 1.387 . S
C833 C835 1.387 . S
H834 C841 0.950 . S
C835 C833 1.387 . S
C835 C837 1.390 . S
C835 H839 0.950 . S
H836 C832 0.950 . S
C837 C835 1.390 . S
C837 C838 1.387 . S
C837 H840 0.950 . S
C838 C837 1.387 . S
C838 C841 1.387 . S
H839 C835 0.950 . S
H840 C837 0.950 . S
C841 C832 1.390 . S
C841 H834 0.950 . S
C841 C838 1.387 . S
C842 C843 1.387 . S
C842 H846 0.950 . S
C842 C851 1.390 . S
C843 C842 1.387 . S
C843 C845 1.387 . S
H844 C851 0.950 . S
C845 C843 1.387 . S
C845 C847 1.390 . S
C845 H849 0.950 . S
H846 C842 0.950 . S
C847 C845 1.390 . S
C847 C848 1.387 . S
C847 H850 0.950 . S
C848 C847 1.387 . S
C848 C851 1.387 . S
H849 C845 0.950 . S
H850 C847 0.950 . S
C851 C842 1.390 . S
C851 H844 0.950 . S
C851 C848 1.387 . S
C852 C853 1.387 . S
C852 H856 0.950 . S
C852 C861 1.390 1_455 S
C853 C852 1.387 . S
C853 C855 1.387 1_554 S
H854 C861 0.950 . S
C855 C853 1.387 1_556 S
C855 C857 1.390 1_455 S
C855 H859 0.950 . S
H856 C852 0.950 . S
C857 C855 1.390 1_655 S
C857 C858 1.387 . S
C857 H860 0.950 . S
C858 C857 1.387 . S
C858 C861 1.387 1_556 S
H859 C855 0.950 . S
H860 C857 0.950 . S
C861 C852 1.390 1_655 S
C861 H854 0.950 . S
C861 C858 1.387 1_554 S
C862 C863 1.387 1_556 S
C862 H866 0.950 . S
C862 C871 1.390 . S
C863 C862 1.387 1_554 S
C863 C865 1.387 . S
H864 C871 0.950 . S
C865 C863 1.387 . S
C865 C867 1.390 . S
C865 H869 0.950 . S
H866 C862 0.950 . S
C867 C865 1.390 . S
C867 C868 1.387 1_554 S
C867 H870 0.950 . S
C868 C867 1.387 1_556 S
C868 C871 1.387 . S
H869 C865 0.950 . S
H870 C867 0.950 . S
C871 C862 1.390 . S
C871 H864 0.950 . S
C871 C868 1.387 . S
C872 C873 1.387 . S
C872 H876 0.950 . S
C872 C881 1.390 1_546 S
C873 C872 1.387 . S
C873 C875 1.387 . S
H874 C881 0.950 . S
C875 C873 1.387 . S
C875 C877 1.390 1_546 S
C875 H879 0.950 . S
H876 C872 0.950 . S
C877 C875 1.390 1_564 S
C877 C878 1.387 . S
C877 H880 0.950 . S
C878 C877 1.387 . S
C878 C881 1.387 . S
H879 C875 0.950 . S
H880 C877 0.950 . S
C881 C872 1.390 1_564 S
C881 H874 0.950 . S
C881 C878 1.387 . S
C882 C883 1.387 . S
C882 H886 0.950 . S
C882 C891 1.390 . S
C883 C882 1.387 . S
C883 C885 1.387 . S
H884 C891 0.950 . S
C885 C883 1.387 . S
C885 C887 1.390 . S
C885 H889 0.950 . S
H886 C882 0.950 . S
C887 C885 1.390 . S
C887 C888 1.387 . S
C887 H890 0.950 . S
C888 C887 1.387 . S
C888 C891 1.387 . S
H889 C885 0.950 . S
H890 C887 0.950 . S
C891 C882 1.390 . S
C891 H884 0.950 . S
C891 C888 1.387 . S
C892 C893 1.387 . S
C892 H896 0.950 . S
C892 C901 1.390 . S
C893 C892 1.387 . S
C893 C895 1.387 . S
H894 C901 0.950 . S
C895 C893 1.387 . S
C895 C897 1.390 . S
C895 H899 0.950 . S
H896 C892 0.950 . S
C897 C895 1.390 . S
C897 C898 1.387 . S
C897 H900 0.950 . S
C898 C897 1.387 . S
C898 C901 1.387 . S
H899 C895 0.950 . S
H900 C897 0.950 . S
C901 C892 1.390 . S
C901 H894 0.950 . S
C901 C898 1.387 . S
C902 C903 1.387 . S
C902 H906 0.950 . S
C902 C911 1.390 . S
C903 C902 1.387 . S
C903 C905 1.387 . S
H904 C911 0.950 . S
C905 C903 1.387 . S
C905 C907 1.390 . S
C905 H909 0.950 . S
H906 C902 0.950 . S
C907 C905 1.390 . S
C907 C908 1.387 . S
C907 H910 0.950 . S
C908 C907 1.387 . S
C908 C911 1.387 . S
H909 C905 0.950 . S
H910 C907 0.950 . S
C911 C902 1.390 . S
C911 H904 0.950 . S
C911 C908 1.387 . S
C912 C913 1.387 . S
C912 H916 0.950 . S
C912 C921 1.390 . S
C913 C912 1.387 . S
C913 C915 1.387 . S
H914 C921 0.950 . S
C915 C913 1.387 . S
C915 C917 1.390 . S
C915 H919 0.950 . S
H916 C912 0.950 . S
C917 C915 1.390 . S
C917 C918 1.387 . S
C917 H920 0.950 . S
C918 C917 1.387 . S
C918 C921 1.387 . S
H919 C915 0.950 . S
H920 C917 0.950 . S
C921 C912 1.390 . S
C921 H914 0.950 . S
C921 C918 1.387 . S
C922 C923 1.387 . S
C922 H926 0.950 . S
C922 C931 1.390 . S
C923 C922 1.387 . S
C923 C925 1.387 . S
H924 C931 0.950 . S
C925 C923 1.387 . S
C925 C927 1.390 . S
C925 H929 0.950 . S
H926 C922 0.950 . S
C927 C925 1.390 . S
C927 C928 1.387 . S
C927 H930 0.950 . S
C928 C927 1.387 . S
C928 C931 1.387 . S
H929 C925 0.950 . S
H930 C927 0.950 . S
C931 C922 1.390 . S
C931 H924 0.950 . S
C931 C928 1.387 . S
C932 C933 1.387 . S
C932 H936 0.950 . S
C932 C941 1.390 . S
C933 C932 1.387 . S
C933 C935 1.387 . S
H934 C941 0.950 . S
C935 C933 1.387 . S
C935 C937 1.390 . S
C935 H939 0.950 . S
H936 C932 0.950 . S
C937 C935 1.390 . S
C937 C938 1.387 . S
C937 H940 0.950 . S
C938 C937 1.387 . S
C938 C941 1.387 . S
H939 C935 0.950 . S
H940 C937 0.950 . S
C941 C932 1.390 . S
C941 H934 0.950 . S
C941 C938 1.387 . S
C942 C943 1.387 . S
C942 H946 0.950 . S
C942 C951 1.390 . S
C943 C942 1.387 . S
C943 C945 1.387 . S
H944 C951 0.950 . S
C945 C943 1.387 . S
C945 C947 1.390 . S
C945 H949 0.950 . S
H946 C942 0.950 . S
C947 C945 1.390 . S
C947 C948 1.387 . S
C947 H950 0.950 . S
C948 C947 1.387 . S
C948 C951 1.387 . S
H949 C945 0.950 . S
H950 C947 0.950 . S
C951 C942 1.390 . S
C951 H944 0.950 . S
C951 C948 1.387 . S
C952 C953 1.387 . S
C952 H956 0.950 . S
C952 C961 1.390 . S
C953 C952 1.387 . S
C953 C955 1.387 . S
H954 C961 0.950 . S
C955 C953 1.387 . S
C955 C957 1.390 . S
C955 H959 0.950 . S
H956 C952 0.950 . S
C957 C955 1.390 . S
C957 C958 1.387 . S
C957 H960 0.950 . S
C958 C957 1.387 . S
C958 C961 1.387 . S
H959 C955 0.950 . S
H960 C957 0.950 . S
C961 C952 1.390 . S
C961 H954 0.950 . S
C961 C958 1.387 . S
C962 C963 1.387 . S
C962 H966 0.950 . S
C962 C971 1.390 . S
C963 C962 1.387 . S
C963 C965 1.387 . S
H964 C971 0.950 . S
C965 C963 1.387 . S
C965 C967 1.390 . S
C965 H969 0.950 . S
H966 C962 0.950 . S
C967 C965 1.390 . S
C967 C968 1.387 . S
C967 H970 0.950 . S
C968 C967 1.387 . S
C968 C971 1.387 . S
H969 C965 0.950 . S
H970 C967 0.950 . S
C971 C962 1.390 . S
C971 H964 0.950 . S
C971 C968 1.387 . S
C972 C973 1.387 . S
C972 H976 0.950 . S
C972 C981 1.390 . S
C973 C972 1.387 . S
C973 C975 1.387 . S
H974 C981 0.950 . S
C975 C973 1.387 . S
C975 C977 1.390 . S
C975 H979 0.950 . S
H976 C972 0.950 . S
C977 C975 1.390 . S
C977 C978 1.387 . S
C977 H980 0.950 . S
C978 C977 1.387 . S
C978 C981 1.387 . S
H979 C975 0.950 . S
H980 C977 0.950 . S
C981 C972 1.390 . S
C981 H974 0.950 . S
C981 C978 1.387 . S
C982 C983 1.387 . S
C982 H986 0.950 . S
C982 C991 1.390 . S
C983 C982 1.387 . S
C983 C985 1.387 . S
H984 C991 0.950 . S
C985 C983 1.387 . S
C985 C987 1.390 . S
C985 H989 0.950 . S
H986 C982 0.950 . S
C987 C985 1.390 . S
C987 C988 1.387 . S
C987 H990 0.950 . S
C988 C987 1.387 . S
C988 C991 1.387 . S
H989 C985 0.950 . S
H990 C987 0.950 . S
C991 C982 1.390 . S
C991 H984 0.950 . S
C991 C988 1.387 . S
C992 C993 1.387 . S
C992 H996 0.950 . S
C992 C1001 1.390 . S
C993 C992 1.387 . S
C993 C995 1.387 . S
H994 C1001 0.950 . S
C995 C993 1.387 . S
C995 C997 1.390 . S
C995 H999 0.950 . S
H996 C992 0.950 . S
C997 C995 1.390 . S
C997 C998 1.387 . S
C997 H1000 0.950 . S
C998 C997 1.387 . S
C998 C1001 1.387 . S
H999 C995 0.950 . S
H1000 C997 0.950 . S
C1001 C992 1.390 . S
C1001 H994 0.950 . S
C1001 C998 1.387 . S
C1002 C1003 1.387 . S
C1002 H1006 0.950 . S
C1002 C1011 1.390 . S
C1003 C1002 1.387 . S
C1003 C1005 1.387 . S
H1004 C1011 0.950 . S
C1005 C1003 1.387 . S
C1005 C1007 1.390 . S
C1005 H1009 0.950 . S
H1006 C1002 0.950 . S
C1007 C1005 1.390 . S
C1007 C1008 1.387 . S
C1007 H1010 0.950 . S
C1008 C1007 1.387 . S
C1008 C1011 1.387 . S
H1009 C1005 0.950 . S
H1010 C1007 0.950 . S
C1011 C1002 1.390 . S
C1011 H1004 0.950 . S
C1011 C1008 1.387 . S
C1012 C1013 1.387 . S
C1012 H1016 0.950 . S
C1012 C1021 1.390 . S
C1013 C1012 1.387 . S
C1013 C1015 1.387 . S
H1014 C1021 0.950 . S
C1015 C1013 1.387 . S
C1015 C1017 1.390 . S
C1015 H1019 0.950 . S
H1016 C1012 0.950 . S
C1017 C1015 1.390 . S
C1017 C1018 1.387 . S
C1017 H1020 0.950 . S
C1018 C1017 1.387 . S
C1018 C1021 1.387 . S
H1019 C1015 0.950 . S
H1020 C1017 0.950 . S
C1021 C1012 1.390 . S
C1021 H1014 0.950 . S
C1021 C1018 1.387 . S
C1022 C1023 1.387 . S
C1022 H1026 0.950 . S
C1022 C1031 1.390 . S
C1023 C1022 1.387 . S
C1023 C1025 1.387 . S
H1024 C1031 0.950 . S
C1025 C1023 1.387 . S
C1025 C1027 1.390 . S
C1025 H1029 0.950 . S
H1026 C1022 0.950 . S
C1027 C1025 1.390 . S
C1027 C1028 1.387 . S
C1027 H1030 0.950 . S
C1028 C1027 1.387 . S
C1028 C1031 1.387 . S
H1029 C1025 0.950 . S
H1030 C1027 0.950 . S
C1031 C1022 1.390 . S
C1031 H1024 0.950 . S
C1031 C1028 1.387 . S
C1032 C1033 1.387 . S
C1032 H1036 0.950 . S
C1032 C1041 1.390 . S
C1033 C1032 1.387 . S
C1033 C1035 1.387 . S
H1034 C1041 0.950 . S
C1035 C1033 1.387 . S
C1035 C1037 1.390 . S
C1035 H1039 0.950 . S
H1036 C1032 0.950 . S
C1037 C1035 1.390 . S
C1037 C1038 1.387 . S
C1037 H1040 0.950 . S
C1038 C1037 1.387 . S
C1038 C1041 1.387 . S
H1039 C1035 0.950 . S
H1040 C1037 0.950 . S
C1041 C1032 1.390 . S
C1041 H1034 0.950 . S
C1041 C1038 1.387 . S
C1042 C1043 1.387 . S
C1042 H1046 0.950 . S
C1042 C1051 1.390 . S
C1043 C1042 1.387 . S
C1043 C1045 1.387 . S
H1044 C1051 0.950 . S
C1045 C1043 1.387 . S
C1045 C1047 1.390 . S
C1045 H1049 0.950 . S
H1046 C1042 0.950 . S
C1047 C1045 1.390 . S
C1047 C1048 1.387 . S
C1047 H1050 0.950 . S
C1048 C1047 1.387 . S
C1048 C1051 1.387 . S
H1049 C1045 0.950 . S
H1050 C1047 0.950 . S
C1051 C1042 1.390 . S
C1051 H1044 0.950 . S
C1051 C1048 1.387 . S
C1052 C1053 1.387 . S
C1052 H1056 0.950 . S
C1052 C1061 1.390 . S
C1053 C1052 1.387 . S
C1053 C1055 1.387 . S
H1054 C1061 0.950 . S
C1055 C1053 1.387 . S
C1055 C1057 1.390 . S
C1055 H1059 0.950 . S
H1056 C1052 0.950 . S
C1057 C1055 1.390 . S
C1057 C1058 1.387 . S
C1057 H1060 0.950 . S
C1058 C1057 1.387 . S
C1058 C1061 1.387 . S
H1059 C1055 0.950 . S
H1060 C1057 0.950 . S
C1061 C1052 1.390 . S
C1061 H1054 0.950 . S
C1061 C1058 1.387 . S
C613 C104 1.685 . S
C618 C2 1.686 . S
C623 C138 1.686 . S
C628 C36 1.686 . S
C633 C172 1.686 . S
C638 C70 1.685 . S
C643 C67 1.281 . S
C648 C203 1.281 . S
C653 C135 1.280 . S
C658 C101 1.280 . S
C663 C169 1.281 . S
C668 C33 1.281 . S
C673 C308 1.685 . S
C678 C206 1.686 . S
C683 C240 1.685 . S
C688 C342 1.685 . S
C693 C274 1.685 . S
C698 C376 1.686 . S
C703 C271 1.281 . S
C708 C407 1.281 . S
C713 C305 1.282 . S
C718 C339 1.282 . S
C723 C373 1.280 . S
C728 C237 1.280 . S
C733 C410 1.686 . S
C738 C512 1.685 . S
C743 C546 1.686 . S
C748 C444 1.686 . S
C753 C478 1.687 . S
C758 C580 1.686 . S
C763 C475 1.281 . S
C768 C611 1.281 . S
C773 C543 1.280 . S
C778 C509 1.280 . S
C783 C441 1.281 . S
C788 C577 1.281 . S
C793 C20 1.736 . S
C798 C598 1.736 . S
C803 C530 1.736 . S
C808 C54 1.737 . S
C813 C564 1.736 . S
C818 C88 1.737 . S
C823 C258 1.736 . S
C828 C122 1.737 . S
C833 C292 1.736 . S
C838 C156 1.736 . S
C843 C224 1.736 . S
C848 C190 1.736 . S
C853 C462 1.737 . S
C858 C326 1.736 . S
C863 C496 1.736 . S
C868 C360 1.737 . S
C873 C394 1.737 . S
C878 C428 1.737 . S
C883 C5 1.444 . S
C888 C9 1.365 1_556 S
C893 C39 1.443 . S
C898 C43 1.363 1_556 S
C903 C73 1.444 . S
C908 C77 1.366 1_556 S
C913 C111 1.366 1_554 S
C918 C107 1.444 . S
C923 C145 1.366 1_554 S
C928 C141 1.444 . S
C933 C175 1.443 . S
C938 C179 1.366 1_554 S
C943 C209 1.442 . S
C948 C213 1.362 . S
C953 C247 1.364 . S
C958 C243 1.441 . S
C963 C281 1.366 . S
C968 C277 1.444 . S
C973 C311 1.441 . S
C978 C315 1.362 . S
C983 C345 1.442 . S
C988 C349 1.365 . S
C993 C379 1.444 . S
C998 C383 1.366 . S
C1003 C413 1.442 . S
C1008 C417 1.362 . S
C1013 C447 1.442 . S
C1018 C451 1.365 . S
C1023 C485 1.362 . S
C1028 C481 1.441 . S
C1033 C515 1.444 . S
C1038 C519 1.365 . S
C1043 C553 1.366 . S
C1048 C549 1.443 . S
C1053 C587 1.364 . S
C1058 C583 1.441 . S
