# Generated by pormake.
# Topology yfy, (5)-cn, num edge types: 1
# Building blocks:
#     Node 0, Type 0, BuildingBlock: XOMCOT_clean_sbu_1, # of connection points: 5
#     Node 1, Type 0, BuildingBlock: XOMCOT_clean_sbu_1, # of connection points: 5
#     Node 2, Type 0, BuildingBlock: XOMCOT_clean_sbu_1, # of connection points: 5
#     Node 3, Type 0, BuildingBlock: XOMCOT_clean_sbu_1, # of connection points: 5
#     Node 4, Type 0, BuildingBlock: XOMCOT_clean_sbu_1, # of connection points: 5
#     Node 5, Type 0, BuildingBlock: XOMCOT_clean_sbu_1, # of connection points: 5
#     Node 6, Type 0, BuildingBlock: XOMCOT_clean_sbu_1, # of connection points: 5
#     Node 7, Type 0, BuildingBlock: XOMCOT_clean_sbu_1, # of connection points: 5
#     Node 8, Type 0, BuildingBlock: XOMCOT_clean_sbu_1, # of connection points: 5
#     Node 9, Type 0, BuildingBlock: XOMCOT_clean_sbu_1, # of connection points: 5
#     Node 10, Type 0, BuildingBlock: XOMCOT_clean_sbu_1, # of connection points: 5
#     Node 11, Type 0, BuildingBlock: XOMCOT_clean_sbu_1, # of connection points: 5
#     Node 12, Type 0, BuildingBlock: XOMCOT_clean_sbu_1, # of connection points: 5
#     Node 13, Type 0, BuildingBlock: XOMCOT_clean_sbu_1, # of connection points: 5
#     Node 14, Type 0, BuildingBlock: XOMCOT_clean_sbu_1, # of connection points: 5
#     Node 15, Type 0, BuildingBlock: XOMCOT_clean_sbu_1, # of connection points: 5
#     Edge 16, Type (0, 0), None
#     Edge 17, Type (0, 0), None
#     Edge 18, Type (0, 0), None
#     Edge 19, Type (0, 0), None
#     Edge 20, Type (0, 0), None
#     Edge 21, Type (0, 0), None
#     Edge 22, Type (0, 0), None
#     Edge 23, Type (0, 0), None
#     Edge 24, Type (0, 0), None
#     Edge 25, Type (0, 0), None
#     Edge 26, Type (0, 0), None
#     Edge 27, Type (0, 0), None
#     Edge 28, Type (0, 0), None
#     Edge 29, Type (0, 0), None
#     Edge 30, Type (0, 0), None
#     Edge 31, Type (0, 0), None
#     Edge 32, Type (0, 0), None
#     Edge 33, Type (0, 0), None
#     Edge 34, Type (0, 0), None
#     Edge 35, Type (0, 0), None
#     Edge 36, Type (0, 0), None
#     Edge 37, Type (0, 0), None
#     Edge 38, Type (0, 0), None
#     Edge 39, Type (0, 0), None
#     Edge 40, Type (0, 0), None
#     Edge 41, Type (0, 0), None
#     Edge 42, Type (0, 0), None
#     Edge 43, Type (0, 0), None
#     Edge 44, Type (0, 0), None
#     Edge 45, Type (0, 0), None
#     Edge 46, Type (0, 0), None
#     Edge 47, Type (0, 0), None
#     Edge 48, Type (0, 0), None
#     Edge 49, Type (0, 0), None
#     Edge 50, Type (0, 0), None
#     Edge 51, Type (0, 0), None
#     Edge 52, Type (0, 0), None
#     Edge 53, Type (0, 0), None
#     Edge 54, Type (0, 0), None
#     Edge 55, Type (0, 0), None
# Relax obj value: 0.195
# Max RMSD: 0.192
# Mean RMSD: 0.192
data_MOF--net-yfy--node1-XOMCOT_clean_sbu_1--edge1-none
_symmetry_space_group_name_H-M    P1
_symmetry_Int_Tables_number       1
_symmetry_cell_setting            triclinic
loop_
_symmetry_equiv_pos_as_xyz
'x, y, z'
_cell_length_a     22.915466
_cell_length_b     22.916381
_cell_length_c     26.225853
_cell_angle_alpha  90.000177
_cell_angle_beta   89.999751
_cell_angle_gamma 90.003614
loop_
_atom_site_label
_atom_site_type_symbol
_atom_site_fract_x
_atom_site_fract_y
_atom_site_fract_z
_atom_type_partial_charge
C0 C 0.93146 0.25835 0.33403 0.0
C1 C 0.90138 0.20687 0.32781 0.0
N2 N 0.92393 0.17832 0.28755 0.0
N3 N 0.9743 0.26268 0.29873 0.0
C4 C 0.96776 0.21333 0.27021 0.0
H5 H 0.92284 0.29051 0.36325 0.0
Co6 Co 0.02896 0.32661 0.29704 0.0
C7 C 0.12563 0.23293 0.26903 0.0
O8 O 0.10463 0.21138 0.22642 0.0
N9 N 0.08337 0.38956 0.29562 0.0
C10 C 0.15991 0.44593 0.31529 0.0
C11 C 0.12571 0.4 0.3306 0.0
C12 C 0.09474 0.42871 0.25812 0.0
N13 N 0.14044 0.46401 0.26977 0.0
O14 O 0.96204 0.38351 0.30137 0.0
H15 H 0.13428 0.3735 0.36384 0.0
H16 H 0.07231 0.42907 0.2218 0.0
O17 O 0.09741 0.27297 0.29289 0.0
C18 C 0.92415 0.41772 0.28039 0.0
O19 O 0.88931 0.44798 0.31005 0.0
N20 N 0.03419 0.32381 0.37028 0.0
C21 C 0.06025 0.32231 0.47495 0.0
C22 C 0.06742 0.27222 0.44483 0.0
C23 C 0.05348 0.27365 0.39303 0.0
C24 C 0.02313 0.37192 0.39966 0.0
C25 C 0.03623 0.37217 0.45185 0.0
H26 H 0.05961 0.23432 0.37099 0.0
H27 H 0.00758 0.41179 0.38238 0.0
H28 H 0.9946 0.20306 0.23756 0.0
H29 H 0.86523 0.1919 0.35098 0.0
H30 H 0.19949 0.46093 0.33361 0.0
H31 H 0.08536 0.23243 0.46059 0.0
H32 H 0.02827 0.41146 0.47369 0.0
C33 C 0.87948 0.93147 0.33408 0.0
C34 C 0.93095 0.90139 0.32785 0.0
N35 N 0.95948 0.92389 0.28756 0.0
N36 N 0.87512 0.97426 0.29875 0.0
C37 C 0.92445 0.9677 0.2702 0.0
H38 H 0.84733 0.92287 0.36332 0.0
Co39 Co 0.81119 0.02892 0.29705 0.0
C40 C 0.90492 0.12557 0.26904 0.0
O41 O 0.92653 0.10452 0.22648 0.0
N42 N 0.74824 0.08334 0.29563 0.0
C43 C 0.69188 0.15987 0.31531 0.0
C44 C 0.73781 0.12568 0.33061 0.0
C45 C 0.70909 0.0947 0.25813 0.0
N46 N 0.67378 0.14041 0.26979 0.0
O47 O 0.75428 0.96201 0.30139 0.0
H48 H 0.76431 0.13424 0.36385 0.0
H49 H 0.70872 0.07228 0.22181 0.0
O50 O 0.86484 0.09737 0.29288 0.0
C51 C 0.72008 0.92412 0.28039 0.0
O52 O 0.6898 0.88928 0.31003 0.0
N53 N 0.81401 0.03418 0.37029 0.0
C54 C 0.81552 0.06026 0.47495 0.0
C55 C 0.8656 0.06745 0.44482 0.0
C56 C 0.86416 0.05349 0.39303 0.0
C57 C 0.7659 0.02311 0.39967 0.0
C58 C 0.76566 0.03623 0.45187 0.0
H59 H 0.9035 0.05961 0.37099 0.0
H60 H 0.72603 0.00755 0.3824 0.0
H61 H 0.93471 0.9945 0.23752 0.0
H62 H 0.94594 0.86526 0.35105 0.0
H63 H 0.67688 0.19945 0.33363 0.0
H64 H 0.9054 0.0854 0.46058 0.0
H65 H 0.72637 0.02825 0.47371 0.0
C66 C 0.20641 0.87942 0.33402 0.0
C67 C 0.23648 0.9309 0.3278 0.0
N68 N 0.21392 0.95947 0.28756 0.0
N69 N 0.16355 0.8751 0.29874 0.0
C70 C 0.17008 0.92447 0.27023 0.0
H71 H 0.21504 0.84725 0.36323 0.0
Co72 Co 0.10889 0.81118 0.29705 0.0
C73 C 0.01222 0.90487 0.26904 0.0
O74 O 0.03322 0.9264 0.22643 0.0
N75 N 0.05447 0.74823 0.29564 0.0
C76 C 0.97793 0.69187 0.31531 0.0
C77 C 0.01213 0.7378 0.33062 0.0
C78 C 0.04311 0.70908 0.25814 0.0
N79 N 0.9974 0.67378 0.2698 0.0
O80 O 0.1758 0.75427 0.30138 0.0
H81 H 1.00357 0.7643 0.36386 0.0
H82 H 0.06553 0.70871 0.22182 0.0
O83 O 0.04043 0.86482 0.2929 0.0
C84 C 0.21369 0.72006 0.28039 0.0
O85 O 0.24853 0.6898 0.31005 0.0
N86 N 0.10366 0.81399 0.37029 0.0
C87 C 0.0776 0.8155 0.47496 0.0
C88 C 0.07043 0.86558 0.44484 0.0
C89 C 0.08438 0.86415 0.39304 0.0
C90 C 0.11472 0.76587 0.39967 0.0
C91 C 0.10161 0.76563 0.45186 0.0
H92 H 0.07825 0.90348 0.371 0.0
H93 H 0.13026 0.72601 0.38239 0.0
H94 H 0.14322 0.93475 0.23759 0.0
H95 H 0.27265 0.94586 0.35096 0.0
H96 H 0.93835 0.67687 0.33364 0.0
H97 H 0.0525 0.90538 0.4606 0.0
H98 H 0.10958 0.72634 0.4737 0.0
C99 C 0.25835 0.20631 0.33409 0.0
C100 C 0.20688 0.23639 0.32785 0.0
N101 N 0.17836 0.2139 0.28756 0.0
N102 N 0.26272 0.16353 0.29875 0.0
C103 C 0.2134 0.1701 0.27019 0.0
H104 H 0.29049 0.21491 0.36334 0.0
Co105 Co 0.32666 0.10887 0.29706 0.0
C106 C 0.23292 0.01222 0.26906 0.0
O107 O 0.21128 0.03329 0.22651 0.0
N108 N 0.38961 0.05446 0.29564 0.0
C109 C 0.44598 0.97793 0.31531 0.0
C110 C 0.40005 0.01212 0.33062 0.0
C111 C 0.42876 0.04309 0.25813 0.0
N112 N 0.46407 0.9974 0.26979 0.0
O113 O 0.38356 0.17579 0.3014 0.0
H114 H 0.37355 1.00356 0.36386 0.0
H115 H 0.42912 0.06551 0.22181 0.0
O116 O 0.27301 0.04041 0.29289 0.0
C117 C 0.41776 0.21368 0.28039 0.0
O118 O 0.44803 0.24853 0.31004 0.0
N119 N 0.32384 0.10362 0.37029 0.0
C120 C 0.32232 0.07754 0.47496 0.0
C121 C 0.27225 0.07035 0.44483 0.0
C122 C 0.27368 0.0843 0.39303 0.0
C123 C 0.37195 0.11469 0.39968 0.0
C124 C 0.37218 0.10158 0.45187 0.0
H125 H 0.23435 0.07817 0.37099 0.0
H126 H 0.41181 0.13026 0.38241 0.0
H127 H 0.20316 0.1433 0.23751 0.0
H128 H 0.19189 0.27251 0.35106 0.0
H129 H 0.46098 0.93836 0.33364 0.0
H130 H 0.23245 0.0524 0.46059 0.0
H131 H 0.41147 0.10955 0.47372 0.0
C132 C 0.93152 0.87949 0.67077 0.0
C133 C 0.90144 0.93096 0.677 0.0
N134 N 0.9239 0.95946 0.71732 0.0
N135 N 0.97428 0.87511 0.70613 0.0
C136 C 0.96769 0.92442 0.7347 0.0
H137 H 0.92294 0.84736 0.64151 0.0
Co138 Co 0.02894 0.81117 0.70784 0.0
C139 C 0.12557 0.90493 0.73583 0.0
O140 O 0.10449 0.9266 0.77836 0.0
N141 N 0.08336 0.74822 0.70927 0.0
C142 C 0.15989 0.69186 0.68959 0.0
C143 C 0.1257 0.7378 0.67429 0.0
C144 C 0.09472 0.70907 0.74677 0.0
N145 N 0.14042 0.67377 0.7351 0.0
O146 O 0.96202 0.75427 0.70349 0.0
H147 H 0.13427 0.76429 0.64105 0.0
H148 H 0.07229 0.7087 0.78308 0.0
O149 O 0.09739 0.86482 0.71201 0.0
C150 C 0.92413 0.72006 0.7245 0.0
O151 O 0.88929 0.68979 0.69485 0.0
N152 N 0.03421 0.81398 0.6346 0.0
C153 C 0.06029 0.8155 0.52994 0.0
C154 C 0.06748 0.86557 0.56006 0.0
C155 C 0.05352 0.86414 0.61186 0.0
C156 C 0.02313 0.76588 0.60522 0.0
C157 C 0.03625 0.76564 0.55302 0.0
H158 H 0.05965 0.90347 0.6339 0.0
H159 H 0.00756 0.72601 0.62249 0.0
H160 H 0.99445 0.93464 0.76741 0.0
H161 H 0.86533 0.94596 0.65379 0.0
H162 H 0.19947 0.67686 0.67126 0.0
H163 H 0.08543 0.90536 0.54431 0.0
H164 H 0.02827 0.72635 0.53118 0.0
C165 C 0.2584 0.93142 0.67089 0.0
C166 C 0.20692 0.90134 0.67711 0.0
N167 N 0.17834 0.92392 0.71734 0.0
N168 N 0.26271 0.97428 0.70616 0.0
C169 C 0.21333 0.96777 0.73466 0.0
H170 H 0.29058 0.92277 0.64169 0.0
Co171 Co 0.32664 0.02894 0.70784 0.0
C172 C 0.23298 0.12563 0.73587 0.0
O173 O 0.2115 0.10467 0.77852 0.0
N174 N 0.38959 0.08336 0.70926 0.0
C175 C 0.44595 0.15989 0.68958 0.0
C176 C 0.40002 0.12569 0.67427 0.0
C177 C 0.42873 0.09472 0.74676 0.0
N178 N 0.46404 0.14043 0.7351 0.0
O179 O 0.38354 0.96203 0.70351 0.0
H180 H 0.37353 0.13425 0.64103 0.0
H181 H 0.42909 0.07231 0.78308 0.0
O182 O 0.27299 0.09739 0.71199 0.0
C183 C 0.41775 0.92413 0.7245 0.0
O184 O 0.44801 0.8893 0.69483 0.0
N185 N 0.32383 0.03417 0.6346 0.0
C186 C 0.32232 0.06022 0.52994 0.0
C187 C 0.27224 0.06739 0.56006 0.0
C188 C 0.27367 0.05345 0.61186 0.0
C189 C 0.37194 0.0231 0.60523 0.0
C190 C 0.37218 0.03621 0.55303 0.0
H191 H 0.23433 0.05957 0.63389 0.0
H192 H 0.41181 0.00756 0.6225 0.0
H193 H 0.20303 0.99465 0.76728 0.0
H194 H 0.19197 0.86516 0.65395 0.0
H195 H 0.46096 0.19947 0.67126 0.0
H196 H 0.23244 0.08532 0.5443 0.0
H197 H 0.41148 0.02825 0.53119 0.0
C198 C 0.2063 0.2583 0.67076 0.0
C199 C 0.23638 0.20683 0.67699 0.0
N200 N 0.21393 0.17834 0.71733 0.0
N201 N 0.16355 0.26269 0.70612 0.0
C202 C 0.17016 0.21339 0.73471 0.0
H203 H 0.21487 0.29041 0.64148 0.0
Co204 Co 0.10889 0.32663 0.70783 0.0
C205 C 0.01226 0.23286 0.73581 0.0
O206 O 0.03338 0.21116 0.77831 0.0
N207 N 0.05448 0.38959 0.70926 0.0
C208 C 0.97796 0.44596 0.68958 0.0
C209 C 0.01215 0.40003 0.67428 0.0
C210 C 0.04312 0.42874 0.74676 0.0
N211 N 0.99743 0.46405 0.7351 0.0
O212 O 0.17582 0.38352 0.70348 0.0
H213 H 1.00358 0.37354 0.64104 0.0
H214 H 0.06555 0.4291 0.78308 0.0
O215 O 0.04043 0.27299 0.71201 0.0
C216 C 0.21371 0.41773 0.72449 0.0
O217 O 0.24857 0.44799 0.69485 0.0
N218 N 0.10363 0.32382 0.63459 0.0
C219 C 0.07756 0.32231 0.52993 0.0
C220 C 0.07035 0.27224 0.56005 0.0
C221 C 0.0843 0.27367 0.61185 0.0
C222 C 0.11471 0.37193 0.60521 0.0
C223 C 0.1016 0.37216 0.55301 0.0
H224 H 0.07816 0.23434 0.63389 0.0
H225 H 0.13028 0.41179 0.62248 0.0
H226 H 0.1434 0.20319 0.76743 0.0
H227 H 0.27248 0.19181 0.65377 0.0
H228 H 0.93838 0.46097 0.67126 0.0
H229 H 0.05239 0.23244 0.5443 0.0
H230 H 0.10958 0.41145 0.53117 0.0
C231 C 0.87941 0.20642 0.6709 0.0
C232 C 0.93088 0.2365 0.67713 0.0
N233 N 0.95949 0.21389 0.71733 0.0
N234 N 0.87512 0.16353 0.70615 0.0
C235 C 0.9245 0.17003 0.73464 0.0
H236 H 0.84721 0.21507 0.64172 0.0
Co237 Co 0.81119 0.10886 0.70783 0.0
C238 C 0.90486 0.01218 0.73586 0.0
O239 O 0.92634 0.03314 0.7785 0.0
N240 N 0.74825 0.05444 0.70924 0.0
C241 C 0.69189 0.9779 0.68956 0.0
C242 C 0.73782 0.01211 0.67426 0.0
C243 C 0.7091 0.04308 0.74674 0.0
N244 N 0.6738 0.99737 0.73508 0.0
O245 O 0.75428 0.17577 0.70351 0.0
H246 H 0.76432 1.00355 0.64102 0.0
H247 H 0.70873 0.0655 0.78306 0.0
O248 O 0.86484 0.04042 0.71198 0.0
C249 C 0.72007 0.21366 0.7245 0.0
O250 O 0.68981 0.24849 0.69483 0.0
N251 N 0.81401 0.10365 0.6346 0.0
C252 C 0.81553 0.07759 0.52993 0.0
C253 C 0.86561 0.07043 0.56005 0.0
C254 C 0.86417 0.08437 0.61185 0.0
C255 C 0.76589 0.1147 0.60522 0.0
C256 C 0.76566 0.10159 0.55302 0.0
H257 H 0.90351 0.07826 0.63389 0.0
H258 H 0.72602 0.13024 0.62249 0.0
H259 H 0.93483 0.14312 0.76724 0.0
H260 H 0.94583 0.27269 0.65398 0.0
H261 H 0.67689 0.93832 0.67124 0.0
H262 H 0.90541 0.0525 0.54429 0.0
H263 H 0.72636 0.10955 0.53118 0.0
C264 C 0.43147 0.75836 0.83405 0.0
C265 C 0.40139 0.70689 0.82782 0.0
N266 N 0.42394 0.67832 0.78757 0.0
N267 N 0.47431 0.76269 0.79875 0.0
C268 C 0.46778 0.71333 0.77023 0.0
H269 H 0.42284 0.79053 0.86326 0.0
Co270 Co 0.52897 0.82662 0.79704 0.0
C271 C 0.62565 0.73294 0.76903 0.0
O272 O 0.60467 0.71143 0.7264 0.0
N273 N 0.58339 0.88956 0.79558 0.0
C274 C 0.65997 0.94593 0.81517 0.0
C275 C 0.62575 0.90003 0.83054 0.0
C276 C 0.59474 0.92864 0.75803 0.0
N277 N 0.64051 0.96388 0.76961 0.0
O278 O 0.46206 0.88352 0.80136 0.0
H279 H 0.63429 0.8736 0.86383 0.0
H280 H 0.57226 0.929 0.72173 0.0
O281 O 0.59742 0.77297 0.79289 0.0
C282 C 0.42416 0.91773 0.78038 0.0
O283 O 0.38933 0.94799 0.81004 0.0
N284 N 0.53422 0.82384 0.87027 0.0
C285 C 0.56026 0.82235 0.97494 0.0
C286 C 0.56743 0.77227 0.94483 0.0
C287 C 0.5535 0.77369 0.89303 0.0
C288 C 0.52316 0.87196 0.89964 0.0
C289 C 0.53626 0.87221 0.95184 0.0
H290 H 0.55962 0.73434 0.871 0.0
H291 H 0.50763 0.91183 0.88235 0.0
H292 H 0.49463 0.70306 0.73759 0.0
H293 H 0.36523 0.69192 0.85099 0.0
H294 H 0.69953 0.96099 0.83348 0.0
H295 H 0.58536 0.73247 0.9606 0.0
H296 H 0.5283 0.91151 0.97367 0.0
C297 C 0.37948 0.43151 0.83411 0.0
C298 C 0.43096 0.40143 0.82788 0.0
N299 N 0.45947 0.4239 0.78757 0.0
N300 N 0.37511 0.47428 0.79877 0.0
C301 C 0.42443 0.4677 0.7702 0.0
H302 H 0.34735 0.42292 0.86337 0.0
Co303 Co 0.31119 0.52894 0.79704 0.0
C304 C 0.40494 0.62558 0.76905 0.0
O305 O 0.42656 0.60452 0.7265 0.0
N306 N 0.24824 0.58336 0.79558 0.0
C307 C 0.19188 0.65994 0.81518 0.0
C308 C 0.23778 0.62572 0.83055 0.0
C309 C 0.20914 0.59471 0.75804 0.0
N310 N 0.17391 0.64047 0.76963 0.0
O311 O 0.25427 0.46203 0.80138 0.0
H312 H 0.26421 0.63426 0.86382 0.0
H313 H 0.20878 0.57223 0.72174 0.0
O314 O 0.36484 0.59739 0.79288 0.0
C315 C 0.22007 0.42414 0.78037 0.0
O316 O 0.18978 0.38931 0.81002 0.0
N317 N 0.31397 0.53421 0.87028 0.0
C318 C 0.31547 0.56027 0.97495 0.0
C319 C 0.36555 0.56746 0.94483 0.0
C320 C 0.36412 0.55352 0.89303 0.0
C321 C 0.26585 0.52315 0.89965 0.0
C322 C 0.2656 0.53626 0.95185 0.0
H323 H 0.40347 0.55964 0.871 0.0
H324 H 0.22599 0.50759 0.88237 0.0
H325 H 0.43467 0.49448 0.73751 0.0
H326 H 0.44595 0.36531 0.85109 0.0
H327 H 0.17682 0.6995 0.8335 0.0
H328 H 0.40535 0.58541 0.96059 0.0
H329 H 0.22631 0.52828 0.97369 0.0
C330 C 0.7064 0.37941 0.83403 0.0
C331 C 0.73648 0.43089 0.8278 0.0
N332 N 0.7139 0.45947 0.78757 0.0
N333 N 0.66353 0.37511 0.79875 0.0
C334 C 0.67005 0.42447 0.77025 0.0
H335 H 0.71504 0.34723 0.86323 0.0
Co336 Co 0.60887 0.31118 0.79704 0.0
C337 C 0.51219 0.40486 0.76904 0.0
O338 O 0.53318 0.42637 0.72641 0.0
N339 N 0.55445 0.24825 0.7956 0.0
C340 C 0.47786 0.19188 0.81519 0.0
C341 C 0.51209 0.23778 0.83056 0.0
C342 C 0.5431 0.20915 0.75805 0.0
N343 N 0.49732 0.17392 0.76963 0.0
O344 O 0.67577 0.25427 0.80136 0.0
H345 H 0.50354 0.26421 0.86384 0.0
H346 H 0.56557 0.20879 0.72175 0.0
O347 O 0.54042 0.36483 0.79291 0.0
C348 C 0.71367 0.22006 0.78038 0.0
O349 O 0.7485 0.1898 0.81004 0.0
N350 N 0.60363 0.31396 0.87028 0.0
C351 C 0.57759 0.31545 0.97495 0.0
C352 C 0.57042 0.36554 0.94484 0.0
C353 C 0.58436 0.36412 0.89304 0.0
C354 C 0.61468 0.26584 0.89965 0.0
C355 C 0.60158 0.26559 0.95184 0.0
H356 H 0.57824 0.40346 0.87101 0.0
H357 H 0.63021 0.22597 0.88236 0.0
H358 H 0.64318 0.43477 0.73762 0.0
H359 H 0.77265 0.44584 0.85096 0.0
H360 H 0.43829 0.17682 0.8335 0.0
H361 H 0.5525 0.40534 0.96061 0.0
H362 H 0.60954 0.22629 0.97368 0.0
C363 C 0.75833 0.70627 0.83413 0.0
C364 C 0.70686 0.73636 0.82789 0.0
N365 N 0.67837 0.7139 0.78757 0.0
N366 N 0.76272 0.66351 0.79877 0.0
C367 C 0.71341 0.67011 0.7702 0.0
H368 H 0.79045 0.71485 0.8634 0.0
Co369 Co 0.82665 0.60886 0.79705 0.0
C370 C 0.73289 0.51223 0.76907 0.0
O371 O 0.71122 0.53331 0.72655 0.0
N372 N 0.8896 0.55445 0.79559 0.0
C373 C 0.94598 0.47788 0.81518 0.0
C374 C 0.90008 0.5121 0.83055 0.0
C375 C 0.9287 0.5431 0.75804 0.0
N376 N 0.96394 0.49734 0.76963 0.0
O377 O 0.88355 0.67578 0.80139 0.0
H378 H 0.87365 0.50355 0.86383 0.0
H379 H 0.92906 0.56557 0.72174 0.0
O380 O 0.77301 0.54041 0.79289 0.0
C381 C 0.91776 0.71367 0.78038 0.0
O382 O 0.94803 0.74851 0.81003 0.0
N383 N 0.82387 0.60358 0.87029 0.0
C384 C 0.82238 0.57753 0.97495 0.0
C385 C 0.7723 0.57033 0.94484 0.0
C386 C 0.77372 0.58427 0.89304 0.0
C387 C 0.87199 0.61466 0.89966 0.0
C388 C 0.87223 0.60155 0.95186 0.0
H389 H 0.73438 0.57814 0.87101 0.0
H390 H 0.91185 0.63022 0.88238 0.0
H391 H 0.70319 0.64335 0.73749 0.0
H392 H 0.69185 0.77246 0.85111 0.0
H393 H 0.96104 0.43832 0.8335 0.0
H394 H 0.7325 0.55238 0.9606 0.0
H395 H 0.91152 0.60953 0.9737 0.0
C396 C 0.43153 0.37947 0.17077 0.0
C397 C 0.40145 0.43094 0.177 0.0
N398 N 0.42392 0.45945 0.21731 0.0
N399 N 0.4743 0.3751 0.20612 0.0
C400 C 0.46771 0.42442 0.23468 0.0
H401 H 0.42294 0.34734 0.14151 0.0
Co402 Co 0.52896 0.31117 0.20785 0.0
C403 C 0.6256 0.40492 0.23583 0.0
O404 O 0.60454 0.42655 0.27838 0.0
N405 N 0.58338 0.24823 0.20931 0.0
C406 C 0.65996 0.19186 0.18971 0.0
C407 C 0.62574 0.23776 0.17434 0.0
C408 C 0.59473 0.20913 0.24686 0.0
N409 N 0.64049 0.1739 0.23526 0.0
O410 O 0.46204 0.25426 0.2035 0.0
H411 H 0.63429 0.26419 0.14106 0.0
H412 H 0.57225 0.20877 0.28315 0.0
O413 O 0.59741 0.36482 0.21201 0.0
C414 C 0.42415 0.22006 0.22451 0.0
O415 O 0.38931 0.18978 0.19486 0.0
N416 N 0.53424 0.31395 0.13461 0.0
C417 C 0.5603 0.31545 0.02994 0.0
C418 C 0.56749 0.36553 0.06006 0.0
C419 C 0.55355 0.3641 0.11186 0.0
C420 C 0.52317 0.26583 0.10523 0.0
C421 C 0.53628 0.26559 0.05304 0.0
H422 H 0.55967 0.40344 0.13389 0.0
H423 H 0.50761 0.22598 0.12251 0.0
H424 H 0.49449 0.43465 0.26738 0.0
H425 H 0.36533 0.44594 0.15379 0.0
H426 H 0.69952 0.1768 0.17139 0.0
H427 H 0.58544 0.40532 0.0443 0.0
H428 H 0.5283 0.2263 0.0312 0.0
C429 C 0.75839 0.43145 0.17084 0.0
C430 C 0.70691 0.40137 0.17707 0.0
N431 N 0.67835 0.42392 0.21733 0.0
N432 N 0.76271 0.47429 0.20613 0.0
C433 C 0.71336 0.46776 0.23466 0.0
H434 H 0.79055 0.42283 0.14163 0.0
Co435 Co 0.82664 0.52895 0.20785 0.0
C436 C 0.73296 0.62563 0.23586 0.0
O437 O 0.71145 0.60465 0.27848 0.0
N438 N 0.88958 0.58337 0.2093 0.0
C439 C 0.94596 0.65995 0.18971 0.0
C440 C 0.90006 0.62572 0.17434 0.0
C441 C 0.92867 0.59472 0.24685 0.0
N442 N 0.96391 0.64049 0.23527 0.0
O443 O 0.88355 0.46204 0.20352 0.0
H444 H 0.87363 0.63427 0.14106 0.0
H445 H 0.92903 0.57225 0.28315 0.0
O446 O 0.77299 0.5974 0.21199 0.0
C447 C 0.91775 0.42414 0.22451 0.0
O448 O 0.94802 0.38932 0.19484 0.0
N449 N 0.82386 0.5342 0.13461 0.0
C450 C 0.82237 0.56024 0.02994 0.0
C451 C 0.77229 0.56741 0.06005 0.0
C452 C 0.77371 0.55348 0.11186 0.0
C453 C 0.87199 0.52314 0.10524 0.0
C454 C 0.87224 0.53624 0.05305 0.0
H455 H 0.73436 0.5596 0.13388 0.0
H456 H 0.91185 0.5076 0.12253 0.0
H457 H 0.70308 0.49461 0.2673 0.0
H458 H 0.69194 0.36521 0.1539 0.0
H459 H 0.96102 0.69951 0.1714 0.0
H460 H 0.73249 0.58534 0.04428 0.0
H461 H 0.91153 0.52827 0.03121 0.0
C462 C 0.7063 0.75831 0.17075 0.0
C463 C 0.73639 0.70684 0.17699 0.0
N464 N 0.71392 0.67834 0.21732 0.0
N465 N 0.66354 0.76269 0.20611 0.0
C466 C 0.67013 0.71339 0.23469 0.0
H467 H 0.71488 0.79043 0.14149 0.0
Co468 Co 0.60888 0.82663 0.20784 0.0
C469 C 0.51225 0.73287 0.23582 0.0
O470 O 0.53333 0.71121 0.27835 0.0
N471 N 0.55447 0.88957 0.2093 0.0
C472 C 0.4779 0.94595 0.18971 0.0
C473 C 0.51211 0.90005 0.17434 0.0
C474 C 0.54312 0.92866 0.24685 0.0
N475 N 0.49736 0.9639 0.23526 0.0
O476 O 0.6758 0.88353 0.2035 0.0
H477 H 0.50356 0.87362 0.14106 0.0
H478 H 0.5656 0.92902 0.28315 0.0
O479 O 0.54043 0.77298 0.212 0.0
C480 C 0.71369 0.91773 0.22451 0.0
O481 O 0.74854 0.948 0.19486 0.0
N482 N 0.6036 0.82385 0.1346 0.0
C483 C 0.57755 0.82235 0.02993 0.0
C484 C 0.57035 0.77228 0.06005 0.0
C485 C 0.58429 0.7737 0.11185 0.0
C486 C 0.61468 0.87196 0.10523 0.0
C487 C 0.60157 0.87221 0.05303 0.0
H488 H 0.57816 0.73436 0.13388 0.0
H489 H 0.63024 0.91182 0.12251 0.0
H490 H 0.64336 0.70317 0.2674 0.0
H491 H 0.77249 0.69183 0.15378 0.0
H492 H 0.43834 0.96101 0.17139 0.0
H493 H 0.5524 0.73248 0.04429 0.0
H494 H 0.60955 0.9115 0.03119 0.0
C495 C 0.37943 0.70637 0.17086 0.0
C496 C 0.43091 0.73645 0.17709 0.0
N497 N 0.45949 0.71388 0.21732 0.0
N498 N 0.37512 0.66351 0.20613 0.0
C499 C 0.42449 0.67003 0.23464 0.0
H500 H 0.34725 0.71501 0.14165 0.0
Co501 Co 0.3112 0.60885 0.20784 0.0
C502 C 0.40488 0.51217 0.23585 0.0
O503 O 0.42639 0.53315 0.27847 0.0
N504 N 0.24826 0.55443 0.20928 0.0
C505 C 0.19189 0.47785 0.18969 0.0
C506 C 0.23779 0.51207 0.17432 0.0
C507 C 0.20916 0.54308 0.24683 0.0
N508 N 0.17393 0.49731 0.23524 0.0
O509 O 0.25429 0.67575 0.20352 0.0
H510 H 0.26422 0.50353 0.14104 0.0
H511 H 0.2088 0.56555 0.28313 0.0
O512 O 0.36485 0.5404 0.21198 0.0
C513 C 0.22008 0.71365 0.22451 0.0
O514 O 0.18981 0.74847 0.19485 0.0
N515 N 0.31398 0.60361 0.1346 0.0
C516 C 0.31547 0.57757 0.02993 0.0
C517 C 0.36556 0.5704 0.06004 0.0
C518 C 0.36414 0.58434 0.11185 0.0
C519 C 0.26585 0.61466 0.10524 0.0
C520 C 0.26561 0.60157 0.05304 0.0
H521 H 0.40348 0.57822 0.13387 0.0
H522 H 0.22599 0.6302 0.12252 0.0
H523 H 0.43479 0.64316 0.26727 0.0
H524 H 0.44586 0.77263 0.15393 0.0
H525 H 0.17683 0.43828 0.17137 0.0
H526 H 0.40536 0.55248 0.04428 0.0
H527 H 0.22631 0.60953 0.0312 0.0
loop_
_geom_bond_atom_site_label_1
_geom_bond_atom_site_label_2
_geom_bond_distance
_geom_bond_site_symmetry_2
_ccdc_geom_bond_type
C0 C1 1.351 . S
C0 N3 1.368 . S
C0 H5 0.931 . S
C1 C0 1.351 . S
C1 N2 1.373 . S
C1 H29 0.930 . S
N2 C1 1.373 . S
N2 C4 1.340 . S
N3 C0 1.368 . S
N3 C4 1.321 . S
N3 Co6 2.135 1_655 S
C4 N2 1.340 . S
C4 N3 1.321 . S
C4 H28 0.930 . S
H5 C0 0.931 . S
Co6 N3 2.135 1_455 S
Co6 N9 2.121 . S
Co6 O14 2.055 1_455 S
Co6 O17 2.039 . S
Co6 N20 2.140 . S
C7 O8 1.227 . S
C7 O17 1.265 . S
O8 C7 1.227 . S
N9 Co6 2.121 . S
N9 C11 1.375 . S
N9 C12 1.313 . S
C10 C11 1.338 . S
C10 N13 1.377 . S
C10 H30 0.930 . S
C11 N9 1.375 . S
C11 C10 1.338 . S
C11 H15 0.931 . S
C12 N9 1.313 . S
C12 N13 1.344 . S
C12 H16 0.930 . S
N13 C10 1.377 . S
N13 C12 1.344 . S
O14 Co6 2.055 1_655 S
O14 C18 1.253 . S
H15 C11 0.931 . S
H16 C12 0.930 . S
O17 Co6 2.039 . S
O17 C7 1.265 . S
C18 O14 1.253 . S
C18 O19 1.227 . S
O19 C18 1.227 . S
N20 Co6 2.140 . S
N20 C23 1.346 . S
N20 C24 1.345 . S
C21 C22 1.387 . S
C21 C25 1.391 . S
C22 C21 1.387 . S
C22 C23 1.369 . S
C22 H31 0.929 . S
C23 N20 1.346 . S
C23 C22 1.369 . S
C23 H26 0.928 . S
C24 N20 1.345 . S
C24 C25 1.371 . S
C24 H27 0.931 . S
C25 C21 1.391 . S
C25 C24 1.371 . S
C25 H32 0.930 . S
H26 C23 0.928 . S
H27 C24 0.931 . S
H28 C4 0.930 . S
H29 C1 0.930 . S
H30 C10 0.930 . S
H31 C22 0.929 . S
H32 C25 0.930 . S
C33 C34 1.351 . S
C33 N36 1.368 . S
C33 H38 0.931 . S
C34 C33 1.351 . S
C34 N35 1.373 . S
C34 H62 0.930 . S
N35 C34 1.373 . S
N35 C37 1.340 . S
N36 C33 1.368 . S
N36 C37 1.321 . S
N36 Co39 2.135 1_565 S
C37 N35 1.340 . S
C37 N36 1.321 . S
C37 H61 0.930 . S
H38 C33 0.931 . S
Co39 N36 2.135 1_545 S
Co39 N42 2.121 . S
Co39 O47 2.055 1_545 S
Co39 O50 2.039 . S
Co39 N53 2.140 . S
C40 O41 1.227 . S
C40 O50 1.265 . S
O41 C40 1.227 . S
N42 Co39 2.121 . S
N42 C44 1.375 . S
N42 C45 1.313 . S
C43 C44 1.338 . S
C43 N46 1.377 . S
C43 H63 0.930 . S
C44 N42 1.375 . S
C44 C43 1.338 . S
C44 H48 0.931 . S
C45 N42 1.313 . S
C45 N46 1.344 . S
C45 H49 0.930 . S
N46 C43 1.377 . S
N46 C45 1.344 . S
O47 Co39 2.055 1_565 S
O47 C51 1.253 . S
H48 C44 0.931 . S
H49 C45 0.930 . S
O50 Co39 2.039 . S
O50 C40 1.265 . S
C51 O47 1.253 . S
C51 O52 1.227 . S
O52 C51 1.227 . S
N53 Co39 2.140 . S
N53 C56 1.346 . S
N53 C57 1.345 . S
C54 C55 1.387 . S
C54 C58 1.391 . S
C55 C54 1.387 . S
C55 C56 1.369 . S
C55 H64 0.929 . S
C56 N53 1.346 . S
C56 C55 1.369 . S
C56 H59 0.928 . S
C57 N53 1.345 . S
C57 C58 1.371 . S
C57 H60 0.931 . S
C58 C54 1.391 . S
C58 C57 1.371 . S
C58 H65 0.930 . S
H59 C56 0.928 . S
H60 C57 0.931 . S
H61 C37 0.930 . S
H62 C34 0.930 . S
H63 C43 0.930 . S
H64 C55 0.929 . S
H65 C58 0.930 . S
C66 C67 1.351 . S
C66 N69 1.368 . S
C66 H71 0.931 . S
C67 C66 1.351 . S
C67 N68 1.373 . S
C67 H95 0.930 . S
N68 C67 1.373 . S
N68 C70 1.340 . S
N69 C66 1.368 . S
N69 C70 1.321 . S
N69 Co72 2.135 . S
C70 N68 1.340 . S
C70 N69 1.321 . S
C70 H94 0.930 . S
H71 C66 0.931 . S
Co72 N69 2.135 . S
Co72 N75 2.121 . S
Co72 O80 2.055 . S
Co72 O83 2.039 . S
Co72 N86 2.140 . S
C73 O74 1.227 . S
C73 O83 1.265 . S
O74 C73 1.227 . S
N75 Co72 2.121 . S
N75 C77 1.375 1_455 S
N75 C78 1.313 . S
C76 C77 1.338 . S
C76 N79 1.377 . S
C76 H96 0.930 . S
C77 N75 1.375 1_655 S
C77 C76 1.338 . S
C77 H81 0.931 . S
C78 N75 1.313 . S
C78 N79 1.344 1_455 S
C78 H82 0.930 . S
N79 C76 1.377 . S
N79 C78 1.344 1_655 S
O80 Co72 2.055 . S
O80 C84 1.253 . S
H81 C77 0.931 . S
H82 C78 0.930 . S
O83 Co72 2.039 . S
O83 C73 1.265 . S
C84 O80 1.253 . S
C84 O85 1.227 . S
O85 C84 1.227 . S
N86 Co72 2.140 . S
N86 C89 1.346 . S
N86 C90 1.345 . S
C87 C88 1.387 . S
C87 C91 1.391 . S
C88 C87 1.387 . S
C88 C89 1.369 . S
C88 H97 0.929 . S
C89 N86 1.346 . S
C89 C88 1.369 . S
C89 H92 0.928 . S
C90 N86 1.345 . S
C90 C91 1.371 . S
C90 H93 0.931 . S
C91 C87 1.391 . S
C91 C90 1.371 . S
C91 H98 0.930 . S
H92 C89 0.928 . S
H93 C90 0.931 . S
H94 C70 0.930 . S
H95 C67 0.930 . S
H96 C76 0.930 . S
H97 C88 0.929 . S
H98 C91 0.930 . S
C99 C100 1.351 . S
C99 N102 1.368 . S
C99 H104 0.931 . S
C100 C99 1.351 . S
C100 N101 1.373 . S
C100 H128 0.930 . S
N101 C100 1.373 . S
N101 C103 1.340 . S
N102 C99 1.368 . S
N102 C103 1.321 . S
N102 Co105 2.135 . S
C103 N101 1.340 . S
C103 N102 1.321 . S
C103 H127 0.930 . S
H104 C99 0.931 . S
Co105 N102 2.135 . S
Co105 N108 2.121 . S
Co105 O113 2.055 . S
Co105 O116 2.039 . S
Co105 N119 2.140 . S
C106 O107 1.227 . S
C106 O116 1.265 . S
O107 C106 1.227 . S
N108 Co105 2.121 . S
N108 C110 1.375 1_545 S
N108 C111 1.313 . S
C109 C110 1.338 . S
C109 N112 1.377 . S
C109 H129 0.930 . S
C110 N108 1.375 1_565 S
C110 C109 1.338 . S
C110 H114 0.931 . S
C111 N108 1.313 . S
C111 N112 1.344 1_545 S
C111 H115 0.930 . S
N112 C109 1.377 . S
N112 C111 1.344 1_565 S
O113 Co105 2.055 . S
O113 C117 1.253 . S
H114 C110 0.931 . S
H115 C111 0.930 . S
O116 Co105 2.039 . S
O116 C106 1.265 . S
C117 O113 1.253 . S
C117 O118 1.227 . S
O118 C117 1.227 . S
N119 Co105 2.140 . S
N119 C122 1.346 . S
N119 C123 1.345 . S
C120 C121 1.387 . S
C120 C124 1.391 . S
C121 C120 1.387 . S
C121 C122 1.369 . S
C121 H130 0.929 . S
C122 N119 1.346 . S
C122 C121 1.369 . S
C122 H125 0.928 . S
C123 N119 1.345 . S
C123 C124 1.371 . S
C123 H126 0.931 . S
C124 C120 1.391 . S
C124 C123 1.371 . S
C124 H131 0.930 . S
H125 C122 0.928 . S
H126 C123 0.931 . S
H127 C103 0.930 . S
H128 C100 0.930 . S
H129 C109 0.930 . S
H130 C121 0.929 . S
H131 C124 0.930 . S
C132 C133 1.351 . S
C132 N135 1.368 . S
C132 H137 0.931 . S
C133 C132 1.351 . S
C133 N134 1.373 . S
C133 H161 0.930 . S
N134 C133 1.373 . S
N134 C136 1.340 . S
N135 C132 1.368 . S
N135 C136 1.321 . S
N135 Co138 2.135 1_655 S
C136 N134 1.340 . S
C136 N135 1.321 . S
C136 H160 0.930 . S
H137 C132 0.931 . S
Co138 N135 2.135 1_455 S
Co138 N141 2.121 . S
Co138 O146 2.055 1_455 S
Co138 O149 2.039 . S
Co138 N152 2.140 . S
C139 O140 1.227 . S
C139 O149 1.265 . S
O140 C139 1.227 . S
N141 Co138 2.121 . S
N141 C143 1.375 . S
N141 C144 1.313 . S
C142 C143 1.338 . S
C142 N145 1.377 . S
C142 H162 0.930 . S
C143 N141 1.375 . S
C143 C142 1.338 . S
C143 H147 0.931 . S
C144 N141 1.313 . S
C144 N145 1.344 . S
C144 H148 0.930 . S
N145 C142 1.377 . S
N145 C144 1.344 . S
O146 Co138 2.055 1_655 S
O146 C150 1.253 . S
H147 C143 0.931 . S
H148 C144 0.930 . S
O149 Co138 2.039 . S
O149 C139 1.265 . S
C150 O146 1.253 . S
C150 O151 1.227 . S
O151 C150 1.227 . S
N152 Co138 2.140 . S
N152 C155 1.346 . S
N152 C156 1.345 . S
C153 C154 1.387 . S
C153 C157 1.391 . S
C154 C153 1.387 . S
C154 C155 1.369 . S
C154 H163 0.929 . S
C155 N152 1.346 . S
C155 C154 1.369 . S
C155 H158 0.928 . S
C156 N152 1.345 . S
C156 C157 1.371 . S
C156 H159 0.931 . S
C157 C153 1.391 . S
C157 C156 1.371 . S
C157 H164 0.930 . S
H158 C155 0.928 . S
H159 C156 0.931 . S
H160 C136 0.930 . S
H161 C133 0.930 . S
H162 C142 0.930 . S
H163 C154 0.929 . S
H164 C157 0.930 . S
C165 C166 1.351 . S
C165 N168 1.368 . S
C165 H170 0.931 . S
C166 C165 1.351 . S
C166 N167 1.373 . S
C166 H194 0.930 . S
N167 C166 1.373 . S
N167 C169 1.340 . S
N168 C165 1.368 . S
N168 C169 1.321 . S
N168 Co171 2.135 1_565 S
C169 N167 1.340 . S
C169 N168 1.321 . S
C169 H193 0.930 . S
H170 C165 0.931 . S
Co171 N168 2.135 1_545 S
Co171 N174 2.121 . S
Co171 O179 2.055 1_545 S
Co171 O182 2.039 . S
Co171 N185 2.140 . S
C172 O173 1.227 . S
C172 O182 1.265 . S
O173 C172 1.227 . S
N174 Co171 2.121 . S
N174 C176 1.375 . S
N174 C177 1.313 . S
C175 C176 1.338 . S
C175 N178 1.377 . S
C175 H195 0.930 . S
C176 N174 1.375 . S
C176 C175 1.338 . S
C176 H180 0.931 . S
C177 N174 1.313 . S
C177 N178 1.344 . S
C177 H181 0.930 . S
N178 C175 1.377 . S
N178 C177 1.344 . S
O179 Co171 2.055 1_565 S
O179 C183 1.253 . S
H180 C176 0.931 . S
H181 C177 0.930 . S
O182 Co171 2.039 . S
O182 C172 1.265 . S
C183 O179 1.253 . S
C183 O184 1.227 . S
O184 C183 1.227 . S
N185 Co171 2.140 . S
N185 C188 1.346 . S
N185 C189 1.345 . S
C186 C187 1.387 . S
C186 C190 1.391 . S
C187 C186 1.387 . S
C187 C188 1.369 . S
C187 H196 0.929 . S
C188 N185 1.346 . S
C188 C187 1.369 . S
C188 H191 0.928 . S
C189 N185 1.345 . S
C189 C190 1.371 . S
C189 H192 0.931 . S
C190 C186 1.391 . S
C190 C189 1.371 . S
C190 H197 0.930 . S
H191 C188 0.928 . S
H192 C189 0.931 . S
H193 C169 0.930 . S
H194 C166 0.930 . S
H195 C175 0.930 . S
H196 C187 0.929 . S
H197 C190 0.930 . S
C198 C199 1.351 . S
C198 N201 1.368 . S
C198 H203 0.931 . S
C199 C198 1.351 . S
C199 N200 1.373 . S
C199 H227 0.930 . S
N200 C199 1.373 . S
N200 C202 1.340 . S
N201 C198 1.368 . S
N201 C202 1.321 . S
N201 Co204 2.135 . S
C202 N200 1.340 . S
C202 N201 1.321 . S
C202 H226 0.930 . S
H203 C198 0.931 . S
Co204 N201 2.135 . S
Co204 N207 2.121 . S
Co204 O212 2.055 . S
Co204 O215 2.039 . S
Co204 N218 2.140 . S
C205 O206 1.227 . S
C205 O215 1.265 . S
O206 C205 1.227 . S
N207 Co204 2.121 . S
N207 C209 1.375 1_455 S
N207 C210 1.313 . S
C208 C209 1.338 . S
C208 N211 1.377 . S
C208 H228 0.930 . S
C209 N207 1.375 1_655 S
C209 C208 1.338 . S
C209 H213 0.931 . S
C210 N207 1.313 . S
C210 N211 1.344 1_455 S
C210 H214 0.930 . S
N211 C208 1.377 . S
N211 C210 1.344 1_655 S
O212 Co204 2.055 . S
O212 C216 1.253 . S
H213 C209 0.931 . S
H214 C210 0.930 . S
O215 Co204 2.039 . S
O215 C205 1.265 . S
C216 O212 1.253 . S
C216 O217 1.227 . S
O217 C216 1.227 . S
N218 Co204 2.140 . S
N218 C221 1.346 . S
N218 C222 1.345 . S
C219 C220 1.387 . S
C219 C223 1.391 . S
C220 C219 1.387 . S
C220 C221 1.369 . S
C220 H229 0.929 . S
C221 N218 1.346 . S
C221 C220 1.369 . S
C221 H224 0.928 . S
C222 N218 1.345 . S
C222 C223 1.371 . S
C222 H225 0.931 . S
C223 C219 1.391 . S
C223 C222 1.371 . S
C223 H230 0.930 . S
H224 C221 0.928 . S
H225 C222 0.931 . S
H226 C202 0.930 . S
H227 C199 0.930 . S
H228 C208 0.930 . S
H229 C220 0.929 . S
H230 C223 0.930 . S
C231 C232 1.351 . S
C231 N234 1.368 . S
C231 H236 0.931 . S
C232 C231 1.351 . S
C232 N233 1.373 . S
C232 H260 0.930 . S
N233 C232 1.373 . S
N233 C235 1.340 . S
N234 C231 1.368 . S
N234 C235 1.321 . S
N234 Co237 2.135 . S
C235 N233 1.340 . S
C235 N234 1.321 . S
C235 H259 0.930 . S
H236 C231 0.931 . S
Co237 N234 2.135 . S
Co237 N240 2.121 . S
Co237 O245 2.055 . S
Co237 O248 2.039 . S
Co237 N251 2.140 . S
C238 O239 1.227 . S
C238 O248 1.265 . S
O239 C238 1.227 . S
N240 Co237 2.121 . S
N240 C242 1.375 1_545 S
N240 C243 1.313 . S
C241 C242 1.338 . S
C241 N244 1.377 . S
C241 H261 0.930 . S
C242 N240 1.375 1_565 S
C242 C241 1.338 . S
C242 H246 0.931 . S
C243 N240 1.313 . S
C243 N244 1.344 1_545 S
C243 H247 0.930 . S
N244 C241 1.377 . S
N244 C243 1.344 1_565 S
O245 Co237 2.055 . S
O245 C249 1.253 . S
H246 C242 0.931 . S
H247 C243 0.930 . S
O248 Co237 2.039 . S
O248 C238 1.265 . S
C249 O245 1.253 . S
C249 O250 1.227 . S
O250 C249 1.227 . S
N251 Co237 2.140 . S
N251 C254 1.346 . S
N251 C255 1.345 . S
C252 C253 1.387 . S
C252 C256 1.391 . S
C253 C252 1.387 . S
C253 C254 1.369 . S
C253 H262 0.929 . S
C254 N251 1.346 . S
C254 C253 1.369 . S
C254 H257 0.928 . S
C255 N251 1.345 . S
C255 C256 1.371 . S
C255 H258 0.931 . S
C256 C252 1.391 . S
C256 C255 1.371 . S
C256 H263 0.930 . S
H257 C254 0.928 . S
H258 C255 0.931 . S
H259 C235 0.930 . S
H260 C232 0.930 . S
H261 C241 0.930 . S
H262 C253 0.929 . S
H263 C256 0.930 . S
C264 C265 1.351 . S
C264 N267 1.368 . S
C264 H269 0.931 . S
C265 C264 1.351 . S
C265 N266 1.373 . S
C265 H293 0.930 . S
N266 C265 1.373 . S
N266 C268 1.340 . S
N267 C264 1.368 . S
N267 C268 1.321 . S
N267 Co270 2.135 . S
C268 N266 1.340 . S
C268 N267 1.321 . S
C268 H292 0.930 . S
H269 C264 0.931 . S
Co270 N267 2.135 . S
Co270 N273 2.121 . S
Co270 O278 2.055 . S
Co270 O281 2.039 . S
Co270 N284 2.140 . S
C271 O272 1.227 . S
C271 O281 1.265 . S
O272 C271 1.227 . S
N273 Co270 2.121 . S
N273 C275 1.375 . S
N273 C276 1.313 . S
C274 C275 1.338 . S
C274 N277 1.377 . S
C274 H294 0.930 . S
C275 N273 1.375 . S
C275 C274 1.338 . S
C275 H279 0.931 . S
C276 N273 1.313 . S
C276 N277 1.344 . S
C276 H280 0.930 . S
N277 C274 1.377 . S
N277 C276 1.344 . S
O278 Co270 2.055 . S
O278 C282 1.253 . S
H279 C275 0.931 . S
H280 C276 0.930 . S
O281 Co270 2.039 . S
O281 C271 1.265 . S
C282 O278 1.253 . S
C282 O283 1.227 . S
O283 C282 1.227 . S
N284 Co270 2.140 . S
N284 C287 1.346 . S
N284 C288 1.345 . S
C285 C286 1.387 . S
C285 C289 1.391 . S
C286 C285 1.387 . S
C286 C287 1.369 . S
C286 H295 0.929 . S
C287 N284 1.346 . S
C287 C286 1.369 . S
C287 H290 0.928 . S
C288 N284 1.345 . S
C288 C289 1.371 . S
C288 H291 0.931 . S
C289 C285 1.391 . S
C289 C288 1.371 . S
C289 H296 0.930 . S
H290 C287 0.928 . S
H291 C288 0.931 . S
H292 C268 0.930 . S
H293 C265 0.930 . S
H294 C274 0.930 . S
H295 C286 0.929 . S
H296 C289 0.930 . S
C297 C298 1.351 . S
C297 N300 1.368 . S
C297 H302 0.931 . S
C298 C297 1.351 . S
C298 N299 1.373 . S
C298 H326 0.930 . S
N299 C298 1.373 . S
N299 C301 1.340 . S
N300 C297 1.368 . S
N300 C301 1.321 . S
N300 Co303 2.135 . S
C301 N299 1.340 . S
C301 N300 1.321 . S
C301 H325 0.930 . S
H302 C297 0.931 . S
Co303 N300 2.135 . S
Co303 N306 2.121 . S
Co303 O311 2.055 . S
Co303 O314 2.039 . S
Co303 N317 2.140 . S
C304 O305 1.227 . S
C304 O314 1.265 . S
O305 C304 1.227 . S
N306 Co303 2.121 . S
N306 C308 1.375 . S
N306 C309 1.313 . S
C307 C308 1.338 . S
C307 N310 1.377 . S
C307 H327 0.930 . S
C308 N306 1.375 . S
C308 C307 1.338 . S
C308 H312 0.931 . S
C309 N306 1.313 . S
C309 N310 1.344 . S
C309 H313 0.930 . S
N310 C307 1.377 . S
N310 C309 1.344 . S
O311 Co303 2.055 . S
O311 C315 1.253 . S
H312 C308 0.931 . S
H313 C309 0.930 . S
O314 Co303 2.039 . S
O314 C304 1.265 . S
C315 O311 1.253 . S
C315 O316 1.227 . S
O316 C315 1.227 . S
N317 Co303 2.140 . S
N317 C320 1.346 . S
N317 C321 1.345 . S
C318 C319 1.387 . S
C318 C322 1.391 . S
C319 C318 1.387 . S
C319 C320 1.369 . S
C319 H328 0.929 . S
C320 N317 1.346 . S
C320 C319 1.369 . S
C320 H323 0.928 . S
C321 N317 1.345 . S
C321 C322 1.371 . S
C321 H324 0.931 . S
C322 C318 1.391 . S
C322 C321 1.371 . S
C322 H329 0.930 . S
H323 C320 0.928 . S
H324 C321 0.931 . S
H325 C301 0.930 . S
H326 C298 0.930 . S
H327 C307 0.930 . S
H328 C319 0.929 . S
H329 C322 0.930 . S
C330 C331 1.351 . S
C330 N333 1.368 . S
C330 H335 0.931 . S
C331 C330 1.351 . S
C331 N332 1.373 . S
C331 H359 0.930 . S
N332 C331 1.373 . S
N332 C334 1.340 . S
N333 C330 1.368 . S
N333 C334 1.321 . S
N333 Co336 2.135 . S
C334 N332 1.340 . S
C334 N333 1.321 . S
C334 H358 0.930 . S
H335 C330 0.931 . S
Co336 N333 2.135 . S
Co336 N339 2.121 . S
Co336 O344 2.055 . S
Co336 O347 2.039 . S
Co336 N350 2.140 . S
C337 O338 1.227 . S
C337 O347 1.265 . S
O338 C337 1.227 . S
N339 Co336 2.121 . S
N339 C341 1.375 . S
N339 C342 1.313 . S
C340 C341 1.338 . S
C340 N343 1.377 . S
C340 H360 0.930 . S
C341 N339 1.375 . S
C341 C340 1.338 . S
C341 H345 0.931 . S
C342 N339 1.313 . S
C342 N343 1.344 . S
C342 H346 0.930 . S
N343 C340 1.377 . S
N343 C342 1.344 . S
O344 Co336 2.055 . S
O344 C348 1.253 . S
H345 C341 0.931 . S
H346 C342 0.930 . S
O347 Co336 2.039 . S
O347 C337 1.265 . S
C348 O344 1.253 . S
C348 O349 1.227 . S
O349 C348 1.227 . S
N350 Co336 2.140 . S
N350 C353 1.346 . S
N350 C354 1.345 . S
C351 C352 1.387 . S
C351 C355 1.391 . S
C352 C351 1.387 . S
C352 C353 1.369 . S
C352 H361 0.929 . S
C353 N350 1.346 . S
C353 C352 1.369 . S
C353 H356 0.928 . S
C354 N350 1.345 . S
C354 C355 1.371 . S
C354 H357 0.931 . S
C355 C351 1.391 . S
C355 C354 1.371 . S
C355 H362 0.930 . S
H356 C353 0.928 . S
H357 C354 0.931 . S
H358 C334 0.930 . S
H359 C331 0.930 . S
H360 C340 0.930 . S
H361 C352 0.929 . S
H362 C355 0.930 . S
C363 C364 1.351 . S
C363 N366 1.368 . S
C363 H368 0.931 . S
C364 C363 1.351 . S
C364 N365 1.373 . S
C364 H392 0.930 . S
N365 C364 1.373 . S
N365 C367 1.340 . S
N366 C363 1.368 . S
N366 C367 1.321 . S
N366 Co369 2.135 . S
C367 N365 1.340 . S
C367 N366 1.321 . S
C367 H391 0.930 . S
H368 C363 0.931 . S
Co369 N366 2.135 . S
Co369 N372 2.121 . S
Co369 O377 2.055 . S
Co369 O380 2.039 . S
Co369 N383 2.140 . S
C370 O371 1.227 . S
C370 O380 1.265 . S
O371 C370 1.227 . S
N372 Co369 2.121 . S
N372 C374 1.375 . S
N372 C375 1.313 . S
C373 C374 1.338 . S
C373 N376 1.377 . S
C373 H393 0.930 . S
C374 N372 1.375 . S
C374 C373 1.338 . S
C374 H378 0.931 . S
C375 N372 1.313 . S
C375 N376 1.344 . S
C375 H379 0.930 . S
N376 C373 1.377 . S
N376 C375 1.344 . S
O377 Co369 2.055 . S
O377 C381 1.253 . S
H378 C374 0.931 . S
H379 C375 0.930 . S
O380 Co369 2.039 . S
O380 C370 1.265 . S
C381 O377 1.253 . S
C381 O382 1.227 . S
O382 C381 1.227 . S
N383 Co369 2.140 . S
N383 C386 1.346 . S
N383 C387 1.345 . S
C384 C385 1.387 . S
C384 C388 1.391 . S
C385 C384 1.387 . S
C385 C386 1.369 . S
C385 H394 0.929 . S
C386 N383 1.346 . S
C386 C385 1.369 . S
C386 H389 0.928 . S
C387 N383 1.345 . S
C387 C388 1.371 . S
C387 H390 0.931 . S
C388 C384 1.391 . S
C388 C387 1.371 . S
C388 H395 0.930 . S
H389 C386 0.928 . S
H390 C387 0.931 . S
H391 C367 0.930 . S
H392 C364 0.930 . S
H393 C373 0.930 . S
H394 C385 0.929 . S
H395 C388 0.930 . S
C396 C397 1.351 . S
C396 N399 1.368 . S
C396 H401 0.931 . S
C397 C396 1.351 . S
C397 N398 1.373 . S
C397 H425 0.930 . S
N398 C397 1.373 . S
N398 C400 1.340 . S
N399 C396 1.368 . S
N399 C400 1.321 . S
N399 Co402 2.135 . S
C400 N398 1.340 . S
C400 N399 1.321 . S
C400 H424 0.930 . S
H401 C396 0.931 . S
Co402 N399 2.135 . S
Co402 N405 2.121 . S
Co402 O410 2.055 . S
Co402 O413 2.039 . S
Co402 N416 2.140 . S
C403 O404 1.227 . S
C403 O413 1.265 . S
O404 C403 1.227 . S
N405 Co402 2.121 . S
N405 C407 1.375 . S
N405 C408 1.313 . S
C406 C407 1.338 . S
C406 N409 1.377 . S
C406 H426 0.930 . S
C407 N405 1.375 . S
C407 C406 1.338 . S
C407 H411 0.931 . S
C408 N405 1.313 . S
C408 N409 1.344 . S
C408 H412 0.930 . S
N409 C406 1.377 . S
N409 C408 1.344 . S
O410 Co402 2.055 . S
O410 C414 1.253 . S
H411 C407 0.931 . S
H412 C408 0.930 . S
O413 Co402 2.039 . S
O413 C403 1.265 . S
C414 O410 1.253 . S
C414 O415 1.227 . S
O415 C414 1.227 . S
N416 Co402 2.140 . S
N416 C419 1.346 . S
N416 C420 1.345 . S
C417 C418 1.387 . S
C417 C421 1.391 . S
C418 C417 1.387 . S
C418 C419 1.369 . S
C418 H427 0.929 . S
C419 N416 1.346 . S
C419 C418 1.369 . S
C419 H422 0.928 . S
C420 N416 1.345 . S
C420 C421 1.371 . S
C420 H423 0.931 . S
C421 C417 1.391 . S
C421 C420 1.371 . S
C421 H428 0.930 . S
H422 C419 0.928 . S
H423 C420 0.931 . S
H424 C400 0.930 . S
H425 C397 0.930 . S
H426 C406 0.930 . S
H427 C418 0.929 . S
H428 C421 0.930 . S
C429 C430 1.351 . S
C429 N432 1.368 . S
C429 H434 0.931 . S
C430 C429 1.351 . S
C430 N431 1.373 . S
C430 H458 0.930 . S
N431 C430 1.373 . S
N431 C433 1.340 . S
N432 C429 1.368 . S
N432 C433 1.321 . S
N432 Co435 2.135 . S
C433 N431 1.340 . S
C433 N432 1.321 . S
C433 H457 0.930 . S
H434 C429 0.931 . S
Co435 N432 2.135 . S
Co435 N438 2.121 . S
Co435 O443 2.055 . S
Co435 O446 2.039 . S
Co435 N449 2.140 . S
C436 O437 1.227 . S
C436 O446 1.265 . S
O437 C436 1.227 . S
N438 Co435 2.121 . S
N438 C440 1.375 . S
N438 C441 1.313 . S
C439 C440 1.338 . S
C439 N442 1.377 . S
C439 H459 0.930 . S
C440 N438 1.375 . S
C440 C439 1.338 . S
C440 H444 0.931 . S
C441 N438 1.313 . S
C441 N442 1.344 . S
C441 H445 0.930 . S
N442 C439 1.377 . S
N442 C441 1.344 . S
O443 Co435 2.055 . S
O443 C447 1.253 . S
H444 C440 0.931 . S
H445 C441 0.930 . S
O446 Co435 2.039 . S
O446 C436 1.265 . S
C447 O443 1.253 . S
C447 O448 1.227 . S
O448 C447 1.227 . S
N449 Co435 2.140 . S
N449 C452 1.346 . S
N449 C453 1.345 . S
C450 C451 1.387 . S
C450 C454 1.391 . S
C451 C450 1.387 . S
C451 C452 1.369 . S
C451 H460 0.929 . S
C452 N449 1.346 . S
C452 C451 1.369 . S
C452 H455 0.928 . S
C453 N449 1.345 . S
C453 C454 1.371 . S
C453 H456 0.931 . S
C454 C450 1.391 . S
C454 C453 1.371 . S
C454 H461 0.930 . S
H455 C452 0.928 . S
H456 C453 0.931 . S
H457 C433 0.930 . S
H458 C430 0.930 . S
H459 C439 0.930 . S
H460 C451 0.929 . S
H461 C454 0.930 . S
C462 C463 1.351 . S
C462 N465 1.368 . S
C462 H467 0.931 . S
C463 C462 1.351 . S
C463 N464 1.373 . S
C463 H491 0.930 . S
N464 C463 1.373 . S
N464 C466 1.340 . S
N465 C462 1.368 . S
N465 C466 1.321 . S
N465 Co468 2.135 . S
C466 N464 1.340 . S
C466 N465 1.321 . S
C466 H490 0.930 . S
H467 C462 0.931 . S
Co468 N465 2.135 . S
Co468 N471 2.121 . S
Co468 O476 2.055 . S
Co468 O479 2.039 . S
Co468 N482 2.140 . S
C469 O470 1.227 . S
C469 O479 1.265 . S
O470 C469 1.227 . S
N471 Co468 2.121 . S
N471 C473 1.375 . S
N471 C474 1.313 . S
C472 C473 1.338 . S
C472 N475 1.377 . S
C472 H492 0.930 . S
C473 N471 1.375 . S
C473 C472 1.338 . S
C473 H477 0.931 . S
C474 N471 1.313 . S
C474 N475 1.344 . S
C474 H478 0.930 . S
N475 C472 1.377 . S
N475 C474 1.344 . S
O476 Co468 2.055 . S
O476 C480 1.253 . S
H477 C473 0.931 . S
H478 C474 0.930 . S
O479 Co468 2.039 . S
O479 C469 1.265 . S
C480 O476 1.253 . S
C480 O481 1.227 . S
O481 C480 1.227 . S
N482 Co468 2.140 . S
N482 C485 1.346 . S
N482 C486 1.345 . S
C483 C484 1.387 . S
C483 C487 1.391 . S
C484 C483 1.387 . S
C484 C485 1.369 . S
C484 H493 0.929 . S
C485 N482 1.346 . S
C485 C484 1.369 . S
C485 H488 0.928 . S
C486 N482 1.345 . S
C486 C487 1.371 . S
C486 H489 0.931 . S
C487 C483 1.391 . S
C487 C486 1.371 . S
C487 H494 0.930 . S
H488 C485 0.928 . S
H489 C486 0.931 . S
H490 C466 0.930 . S
H491 C463 0.930 . S
H492 C472 0.930 . S
H493 C484 0.929 . S
H494 C487 0.930 . S
C495 C496 1.351 . S
C495 N498 1.368 . S
C495 H500 0.931 . S
C496 C495 1.351 . S
C496 N497 1.373 . S
C496 H524 0.930 . S
N497 C496 1.373 . S
N497 C499 1.340 . S
N498 C495 1.368 . S
N498 C499 1.321 . S
N498 Co501 2.135 . S
C499 N497 1.340 . S
C499 N498 1.321 . S
C499 H523 0.930 . S
H500 C495 0.931 . S
Co501 N498 2.135 . S
Co501 N504 2.121 . S
Co501 O509 2.055 . S
Co501 O512 2.039 . S
Co501 N515 2.140 . S
C502 O503 1.227 . S
C502 O512 1.265 . S
O503 C502 1.227 . S
N504 Co501 2.121 . S
N504 C506 1.375 . S
N504 C507 1.313 . S
C505 C506 1.338 . S
C505 N508 1.377 . S
C505 H525 0.930 . S
C506 N504 1.375 . S
C506 C505 1.338 . S
C506 H510 0.931 . S
C507 N504 1.313 . S
C507 N508 1.344 . S
C507 H511 0.930 . S
N508 C505 1.377 . S
N508 C507 1.344 . S
O509 Co501 2.055 . S
O509 C513 1.253 . S
H510 C506 0.931 . S
H511 C507 0.930 . S
O512 Co501 2.039 . S
O512 C502 1.265 . S
C513 O509 1.253 . S
C513 O514 1.227 . S
O514 C513 1.227 . S
N515 Co501 2.140 . S
N515 C518 1.346 . S
N515 C519 1.345 . S
C516 C517 1.387 . S
C516 C520 1.391 . S
C517 C516 1.387 . S
C517 C518 1.369 . S
C517 H526 0.929 . S
C518 N515 1.346 . S
C518 C517 1.369 . S
C518 H521 0.928 . S
C519 N515 1.345 . S
C519 C520 1.371 . S
C519 H522 0.931 . S
C520 C516 1.391 . S
C520 C519 1.371 . S
C520 H527 0.930 . S
H521 C518 0.928 . S
H522 C519 0.931 . S
H523 C499 0.930 . S
H524 C496 0.930 . S
H525 C505 0.930 . S
H526 C517 0.929 . S
H527 C520 0.930 . S
C21 C219 1.861 . S
C252 C54 1.861 . S
C153 C87 1.861 . S
C186 C120 1.861 . S
C285 C483 1.861 1_556 S
C318 C516 1.861 1_556 S
C351 C417 1.861 1_556 S
C450 C384 1.861 1_554 S
C7 N101 1.848 . S
C40 N2 1.848 . S
N35 C73 1.848 1_655 S
C106 N68 1.848 1_545 S
N167 C139 1.848 . S
N200 C172 1.848 . S
N233 C205 1.848 1_655 S
N134 C238 1.848 1_565 S
C271 N365 1.848 . S
N266 C304 1.848 . S
C337 N299 1.848 . S
C370 N332 1.848 . S
C403 N431 1.848 . S
C436 N464 1.848 . S
C469 N497 1.848 . S
N398 C502 1.848 . S
N508 N13 1.121 . S
N46 N409 1.121 . S
N442 N79 1.121 . S
N112 N475 1.121 . S
N310 N145 1.121 . S
N178 N343 1.121 . S
N211 N376 1.121 . S
N277 N244 1.121 . S
C150 C381 2.196 . S
C183 C282 2.196 . S
C216 C315 2.196 . S
C348 C249 2.196 . S
C18 C447 2.196 . S
C480 C51 2.196 . S
C84 C513 2.196 . S
C117 C414 2.196 . S
