# Generated by pormake.
# Topology ana, (4)-cn, num edge types: 1
# Building blocks:
#     Node 0, Type 0, BuildingBlock: CEKHIL_clean_sbu_0, # of connection points: 4
#     Node 1, Type 0, BuildingBlock: CEKHIL_clean_sbu_0, # of connection points: 4
#     Node 2, Type 0, BuildingBlock: CEKHIL_clean_sbu_0, # of connection points: 4
#     Node 3, Type 0, BuildingBlock: CEKHIL_clean_sbu_0, # of connection points: 4
#     Node 4, Type 0, BuildingBlock: CEKHIL_clean_sbu_0, # of connection points: 4
#     Node 5, Type 0, BuildingBlock: CEKHIL_clean_sbu_0, # of connection points: 4
#     Node 6, Type 0, BuildingBlock: CEKHIL_clean_sbu_0, # of connection points: 4
#     Node 7, Type 0, BuildingBlock: CEKHIL_clean_sbu_0, # of connection points: 4
#     Node 8, Type 0, BuildingBlock: CEKHIL_clean_sbu_0, # of connection points: 4
#     Node 9, Type 0, BuildingBlock: CEKHIL_clean_sbu_0, # of connection points: 4
#     Node 10, Type 0, BuildingBlock: CEKHIL_clean_sbu_0, # of connection points: 4
#     Node 11, Type 0, BuildingBlock: CEKHIL_clean_sbu_0, # of connection points: 4
#     Node 12, Type 0, BuildingBlock: CEKHIL_clean_sbu_0, # of connection points: 4
#     Node 13, Type 0, BuildingBlock: CEKHIL_clean_sbu_0, # of connection points: 4
#     Node 14, Type 0, BuildingBlock: CEKHIL_clean_sbu_0, # of connection points: 4
#     Node 15, Type 0, BuildingBlock: CEKHIL_clean_sbu_0, # of connection points: 4
#     Node 16, Type 0, BuildingBlock: CEKHIL_clean_sbu_0, # of connection points: 4
#     Node 17, Type 0, BuildingBlock: CEKHIL_clean_sbu_0, # of connection points: 4
#     Node 18, Type 0, BuildingBlock: CEKHIL_clean_sbu_0, # of connection points: 4
#     Node 19, Type 0, BuildingBlock: CEKHIL_clean_sbu_0, # of connection points: 4
#     Node 20, Type 0, BuildingBlock: CEKHIL_clean_sbu_0, # of connection points: 4
#     Node 21, Type 0, BuildingBlock: CEKHIL_clean_sbu_0, # of connection points: 4
#     Node 22, Type 0, BuildingBlock: CEKHIL_clean_sbu_0, # of connection points: 4
#     Node 23, Type 0, BuildingBlock: CEKHIL_clean_sbu_0, # of connection points: 4
#     Node 24, Type 0, BuildingBlock: CEKHIL_clean_sbu_0, # of connection points: 4
#     Node 25, Type 0, BuildingBlock: CEKHIL_clean_sbu_0, # of connection points: 4
#     Node 26, Type 0, BuildingBlock: CEKHIL_clean_sbu_0, # of connection points: 4
#     Node 27, Type 0, BuildingBlock: CEKHIL_clean_sbu_0, # of connection points: 4
#     Node 28, Type 0, BuildingBlock: CEKHIL_clean_sbu_0, # of connection points: 4
#     Node 29, Type 0, BuildingBlock: CEKHIL_clean_sbu_0, # of connection points: 4
#     Node 30, Type 0, BuildingBlock: CEKHIL_clean_sbu_0, # of connection points: 4
#     Node 31, Type 0, BuildingBlock: CEKHIL_clean_sbu_0, # of connection points: 4
#     Node 32, Type 0, BuildingBlock: CEKHIL_clean_sbu_0, # of connection points: 4
#     Node 33, Type 0, BuildingBlock: CEKHIL_clean_sbu_0, # of connection points: 4
#     Node 34, Type 0, BuildingBlock: CEKHIL_clean_sbu_0, # of connection points: 4
#     Node 35, Type 0, BuildingBlock: CEKHIL_clean_sbu_0, # of connection points: 4
#     Node 36, Type 0, BuildingBlock: CEKHIL_clean_sbu_0, # of connection points: 4
#     Node 37, Type 0, BuildingBlock: CEKHIL_clean_sbu_0, # of connection points: 4
#     Node 38, Type 0, BuildingBlock: CEKHIL_clean_sbu_0, # of connection points: 4
#     Node 39, Type 0, BuildingBlock: CEKHIL_clean_sbu_0, # of connection points: 4
#     Node 40, Type 0, BuildingBlock: CEKHIL_clean_sbu_0, # of connection points: 4
#     Node 41, Type 0, BuildingBlock: CEKHIL_clean_sbu_0, # of connection points: 4
#     Node 42, Type 0, BuildingBlock: CEKHIL_clean_sbu_0, # of connection points: 4
#     Node 43, Type 0, BuildingBlock: CEKHIL_clean_sbu_0, # of connection points: 4
#     Node 44, Type 0, BuildingBlock: CEKHIL_clean_sbu_0, # of connection points: 4
#     Node 45, Type 0, BuildingBlock: CEKHIL_clean_sbu_0, # of connection points: 4
#     Node 46, Type 0, BuildingBlock: CEKHIL_clean_sbu_0, # of connection points: 4
#     Node 47, Type 0, BuildingBlock: CEKHIL_clean_sbu_0, # of connection points: 4
#     Edge 48, Type (0, 0), BuildingBlock: ZUJKAS_clean_linker_0, # of connection points: 2
#     Edge 49, Type (0, 0), BuildingBlock: ZUJKAS_clean_linker_0, # of connection points: 2
#     Edge 50, Type (0, 0), BuildingBlock: ZUJKAS_clean_linker_0, # of connection points: 2
#     Edge 51, Type (0, 0), BuildingBlock: ZUJKAS_clean_linker_0, # of connection points: 2
#     Edge 52, Type (0, 0), BuildingBlock: ZUJKAS_clean_linker_0, # of connection points: 2
#     Edge 53, Type (0, 0), BuildingBlock: ZUJKAS_clean_linker_0, # of connection points: 2
#     Edge 54, Type (0, 0), BuildingBlock: ZUJKAS_clean_linker_0, # of connection points: 2
#     Edge 55, Type (0, 0), BuildingBlock: ZUJKAS_clean_linker_0, # of connection points: 2
#     Edge 56, Type (0, 0), BuildingBlock: ZUJKAS_clean_linker_0, # of connection points: 2
#     Edge 57, Type (0, 0), BuildingBlock: ZUJKAS_clean_linker_0, # of connection points: 2
#     Edge 58, Type (0, 0), BuildingBlock: ZUJKAS_clean_linker_0, # of connection points: 2
#     Edge 59, Type (0, 0), BuildingBlock: ZUJKAS_clean_linker_0, # of connection points: 2
#     Edge 60, Type (0, 0), BuildingBlock: ZUJKAS_clean_linker_0, # of connection points: 2
#     Edge 61, Type (0, 0), BuildingBlock: ZUJKAS_clean_linker_0, # of connection points: 2
#     Edge 62, Type (0, 0), BuildingBlock: ZUJKAS_clean_linker_0, # of connection points: 2
#     Edge 63, Type (0, 0), BuildingBlock: ZUJKAS_clean_linker_0, # of connection points: 2
#     Edge 64, Type (0, 0), BuildingBlock: ZUJKAS_clean_linker_0, # of connection points: 2
#     Edge 65, Type (0, 0), BuildingBlock: ZUJKAS_clean_linker_0, # of connection points: 2
#     Edge 66, Type (0, 0), BuildingBlock: ZUJKAS_clean_linker_0, # of connection points: 2
#     Edge 67, Type (0, 0), BuildingBlock: ZUJKAS_clean_linker_0, # of connection points: 2
#     Edge 68, Type (0, 0), BuildingBlock: ZUJKAS_clean_linker_0, # of connection points: 2
#     Edge 69, Type (0, 0), BuildingBlock: ZUJKAS_clean_linker_0, # of connection points: 2
#     Edge 70, Type (0, 0), BuildingBlock: ZUJKAS_clean_linker_0, # of connection points: 2
#     Edge 71, Type (0, 0), BuildingBlock: ZUJKAS_clean_linker_0, # of connection points: 2
#     Edge 72, Type (0, 0), BuildingBlock: ZUJKAS_clean_linker_0, # of connection points: 2
#     Edge 73, Type (0, 0), BuildingBlock: ZUJKAS_clean_linker_0, # of connection points: 2
#     Edge 74, Type (0, 0), BuildingBlock: ZUJKAS_clean_linker_0, # of connection points: 2
#     Edge 75, Type (0, 0), BuildingBlock: ZUJKAS_clean_linker_0, # of connection points: 2
#     Edge 76, Type (0, 0), BuildingBlock: ZUJKAS_clean_linker_0, # of connection points: 2
#     Edge 77, Type (0, 0), BuildingBlock: ZUJKAS_clean_linker_0, # of connection points: 2
#     Edge 78, Type (0, 0), BuildingBlock: ZUJKAS_clean_linker_0, # of connection points: 2
#     Edge 79, Type (0, 0), BuildingBlock: ZUJKAS_clean_linker_0, # of connection points: 2
#     Edge 80, Type (0, 0), BuildingBlock: ZUJKAS_clean_linker_0, # of connection points: 2
#     Edge 81, Type (0, 0), BuildingBlock: ZUJKAS_clean_linker_0, # of connection points: 2
#     Edge 82, Type (0, 0), BuildingBlock: ZUJKAS_clean_linker_0, # of connection points: 2
#     Edge 83, Type (0, 0), BuildingBlock: ZUJKAS_clean_linker_0, # of connection points: 2
#     Edge 84, Type (0, 0), BuildingBlock: ZUJKAS_clean_linker_0, # of connection points: 2
#     Edge 85, Type (0, 0), BuildingBlock: ZUJKAS_clean_linker_0, # of connection points: 2
#     Edge 86, Type (0, 0), BuildingBlock: ZUJKAS_clean_linker_0, # of connection points: 2
#     Edge 87, Type (0, 0), BuildingBlock: ZUJKAS_clean_linker_0, # of connection points: 2
#     Edge 88, Type (0, 0), BuildingBlock: ZUJKAS_clean_linker_0, # of connection points: 2
#     Edge 89, Type (0, 0), BuildingBlock: ZUJKAS_clean_linker_0, # of connection points: 2
#     Edge 90, Type (0, 0), BuildingBlock: ZUJKAS_clean_linker_0, # of connection points: 2
#     Edge 91, Type (0, 0), BuildingBlock: ZUJKAS_clean_linker_0, # of connection points: 2
#     Edge 92, Type (0, 0), BuildingBlock: ZUJKAS_clean_linker_0, # of connection points: 2
#     Edge 93, Type (0, 0), BuildingBlock: ZUJKAS_clean_linker_0, # of connection points: 2
#     Edge 94, Type (0, 0), BuildingBlock: ZUJKAS_clean_linker_0, # of connection points: 2
#     Edge 95, Type (0, 0), BuildingBlock: ZUJKAS_clean_linker_0, # of connection points: 2
#     Edge 96, Type (0, 0), BuildingBlock: ZUJKAS_clean_linker_0, # of connection points: 2
#     Edge 97, Type (0, 0), BuildingBlock: ZUJKAS_clean_linker_0, # of connection points: 2
#     Edge 98, Type (0, 0), BuildingBlock: ZUJKAS_clean_linker_0, # of connection points: 2
#     Edge 99, Type (0, 0), BuildingBlock: ZUJKAS_clean_linker_0, # of connection points: 2
#     Edge 100, Type (0, 0), BuildingBlock: ZUJKAS_clean_linker_0, # of connection points: 2
#     Edge 101, Type (0, 0), BuildingBlock: ZUJKAS_clean_linker_0, # of connection points: 2
#     Edge 102, Type (0, 0), BuildingBlock: ZUJKAS_clean_linker_0, # of connection points: 2
#     Edge 103, Type (0, 0), BuildingBlock: ZUJKAS_clean_linker_0, # of connection points: 2
#     Edge 104, Type (0, 0), BuildingBlock: ZUJKAS_clean_linker_0, # of connection points: 2
#     Edge 105, Type (0, 0), BuildingBlock: ZUJKAS_clean_linker_0, # of connection points: 2
#     Edge 106, Type (0, 0), BuildingBlock: ZUJKAS_clean_linker_0, # of connection points: 2
#     Edge 107, Type (0, 0), BuildingBlock: ZUJKAS_clean_linker_0, # of connection points: 2
#     Edge 108, Type (0, 0), BuildingBlock: ZUJKAS_clean_linker_0, # of connection points: 2
#     Edge 109, Type (0, 0), BuildingBlock: ZUJKAS_clean_linker_0, # of connection points: 2
#     Edge 110, Type (0, 0), BuildingBlock: ZUJKAS_clean_linker_0, # of connection points: 2
#     Edge 111, Type (0, 0), BuildingBlock: ZUJKAS_clean_linker_0, # of connection points: 2
#     Edge 112, Type (0, 0), BuildingBlock: ZUJKAS_clean_linker_0, # of connection points: 2
#     Edge 113, Type (0, 0), BuildingBlock: ZUJKAS_clean_linker_0, # of connection points: 2
#     Edge 114, Type (0, 0), BuildingBlock: ZUJKAS_clean_linker_0, # of connection points: 2
#     Edge 115, Type (0, 0), BuildingBlock: ZUJKAS_clean_linker_0, # of connection points: 2
#     Edge 116, Type (0, 0), BuildingBlock: ZUJKAS_clean_linker_0, # of connection points: 2
#     Edge 117, Type (0, 0), BuildingBlock: ZUJKAS_clean_linker_0, # of connection points: 2
#     Edge 118, Type (0, 0), BuildingBlock: ZUJKAS_clean_linker_0, # of connection points: 2
#     Edge 119, Type (0, 0), BuildingBlock: ZUJKAS_clean_linker_0, # of connection points: 2
#     Edge 120, Type (0, 0), BuildingBlock: ZUJKAS_clean_linker_0, # of connection points: 2
#     Edge 121, Type (0, 0), BuildingBlock: ZUJKAS_clean_linker_0, # of connection points: 2
#     Edge 122, Type (0, 0), BuildingBlock: ZUJKAS_clean_linker_0, # of connection points: 2
#     Edge 123, Type (0, 0), BuildingBlock: ZUJKAS_clean_linker_0, # of connection points: 2
#     Edge 124, Type (0, 0), BuildingBlock: ZUJKAS_clean_linker_0, # of connection points: 2
#     Edge 125, Type (0, 0), BuildingBlock: ZUJKAS_clean_linker_0, # of connection points: 2
#     Edge 126, Type (0, 0), BuildingBlock: ZUJKAS_clean_linker_0, # of connection points: 2
#     Edge 127, Type (0, 0), BuildingBlock: ZUJKAS_clean_linker_0, # of connection points: 2
#     Edge 128, Type (0, 0), BuildingBlock: ZUJKAS_clean_linker_0, # of connection points: 2
#     Edge 129, Type (0, 0), BuildingBlock: ZUJKAS_clean_linker_0, # of connection points: 2
#     Edge 130, Type (0, 0), BuildingBlock: ZUJKAS_clean_linker_0, # of connection points: 2
#     Edge 131, Type (0, 0), BuildingBlock: ZUJKAS_clean_linker_0, # of connection points: 2
#     Edge 132, Type (0, 0), BuildingBlock: ZUJKAS_clean_linker_0, # of connection points: 2
#     Edge 133, Type (0, 0), BuildingBlock: ZUJKAS_clean_linker_0, # of connection points: 2
#     Edge 134, Type (0, 0), BuildingBlock: ZUJKAS_clean_linker_0, # of connection points: 2
#     Edge 135, Type (0, 0), BuildingBlock: ZUJKAS_clean_linker_0, # of connection points: 2
#     Edge 136, Type (0, 0), BuildingBlock: ZUJKAS_clean_linker_0, # of connection points: 2
#     Edge 137, Type (0, 0), BuildingBlock: ZUJKAS_clean_linker_0, # of connection points: 2
#     Edge 138, Type (0, 0), BuildingBlock: ZUJKAS_clean_linker_0, # of connection points: 2
#     Edge 139, Type (0, 0), BuildingBlock: ZUJKAS_clean_linker_0, # of connection points: 2
#     Edge 140, Type (0, 0), BuildingBlock: ZUJKAS_clean_linker_0, # of connection points: 2
#     Edge 141, Type (0, 0), BuildingBlock: ZUJKAS_clean_linker_0, # of connection points: 2
#     Edge 142, Type (0, 0), BuildingBlock: ZUJKAS_clean_linker_0, # of connection points: 2
#     Edge 143, Type (0, 0), BuildingBlock: ZUJKAS_clean_linker_0, # of connection points: 2
# Relax obj value: 0.099
# Max RMSD: 0.121
# Mean RMSD: 0.112
data_MOF--net-ana--node1-CEKHIL_clean_sbu_0--edge1-ZUJKAS_clean_linker_0
_symmetry_space_group_name_H-M    P1
_symmetry_Int_Tables_number       1
_symmetry_cell_setting            triclinic
loop_
_symmetry_equiv_pos_as_xyz
'x, y, z'
_cell_length_a     84.6393
_cell_length_b     83.133066
_cell_length_c     83.249237
_cell_angle_alpha  90.063399
_cell_angle_beta   90.068248
_cell_angle_gamma 90.320234
loop_
_atom_site_label
_atom_site_type_symbol
_atom_site_fract_x
_atom_site_fract_y
_atom_site_fract_z
_atom_type_partial_charge
Co0 Co 0.12787 0.16505 0.40899 0.0
O1 O 0.15047 0.16531 0.41047 0.0
O2 O 0.13617 0.14452 0.40209 0.0
C3 C 0.12529 0.18922 0.39718 0.0
O4 O 0.10441 0.16077 0.40532 0.0
Co5 Co 0.10833 0.19071 0.42757 0.0
O6 O 0.09078 0.1822 0.41414 0.0
C7 C 0.12377 0.16443 0.44514 0.0
C8 C 0.15004 0.15062 0.40522 0.0
C9 C 0.0915 0.16878 0.40673 0.0
O10 O 0.12648 0.1571 0.43181 0.0
O11 O 0.11808 0.17864 0.4459 0.0
O12 O 0.12867 0.17667 0.38854 0.0
O13 O 0.12525 0.18698 0.4125 0.0
Co14 Co 0.0938 0.86817 0.65857 0.0
O15 O 0.1103 0.86694 0.67437 0.0
O16 O 0.08652 0.87717 0.67857 0.0
C17 C 0.09599 0.843 0.64933 0.0
O18 O 0.07359 0.87078 0.64574 0.0
Co19 Co 0.1008 0.86517 0.62235 0.0
O20 O 0.07755 0.86243 0.62043 0.0
C21 C 0.1079 0.89565 0.63884 0.0
C22 C 0.1004 0.87358 0.68422 0.0
C23 C 0.06842 0.86689 0.63173 0.0
O24 O 0.10158 0.8899 0.65163 0.0
O25 O 0.10966 0.8874 0.62597 0.0
O26 O 0.08806 0.84593 0.66235 0.0
O27 O 0.10366 0.85503 0.6432 0.0
Co28 Co 0.36816 0.83432 0.90787 0.0
O29 O 0.34584 0.83434 0.91187 0.0
O30 O 0.35906 0.8539 0.89954 0.0
C31 C 0.36942 0.80899 0.89849 0.0
O32 O 0.39104 0.83828 0.90123 0.0
Co33 Co 0.39033 0.81077 0.9261 0.0
O34 O 0.40594 0.81768 0.90979 0.0
C35 C 0.37653 0.83863 0.94299 0.0
C36 C 0.34568 0.84823 0.9048 0.0
C37 C 0.40415 0.83047 0.90158 0.0
O38 O 0.37174 0.84452 0.92956 0.0
O39 O 0.38306 0.82482 0.94418 0.0
O40 O 0.3652 0.82061 0.889 0.0
O41 O 0.37134 0.81284 0.91337 0.0
Co42 Co 0.40675 0.12827 0.15732 0.0
O43 O 0.38894 0.12964 0.17153 0.0
O44 O 0.41226 0.11939 0.17795 0.0
C45 C 0.40517 0.1534 0.14765 0.0
O46 O 0.42806 0.12563 0.14643 0.0
Co47 Co 0.40272 0.13071 0.12056 0.0
O48 O 0.42613 0.13164 0.1202 0.0
C49 C 0.39366 0.10077 0.13684 0.0
C50 C 0.39793 0.12296 0.18224 0.0
C51 C 0.43428 0.12811 0.13256 0.0
O52 O 0.3995 0.10644 0.14993 0.0
O53 O 0.3928 0.10894 0.12385 0.0
O54 O 0.41198 0.15064 0.16137 0.0
O55 O 0.39824 0.14118 0.14096 0.0
Co56 Co 0.12209 0.84062 0.08803 0.0
O57 O 0.09974 0.83714 0.08628 0.0
O58 O 0.11184 0.84705 0.10777 0.0
C59 C 0.12506 0.85226 0.06387 0.0
O60 O 0.14483 0.84656 0.09385 0.0
Co61 Co 0.14513 0.82383 0.06428 0.0
O62 O 0.16046 0.83959 0.07316 0.0
C63 C 0.12955 0.80499 0.08979 0.0
C64 C 0.0987 0.8428 0.10077 0.0
C65 C 0.15821 0.84679 0.08648 0.0
O66 O 0.12475 0.81806 0.09643 0.0
O67 O 0.13674 0.80471 0.07626 0.0
O68 O 0.1202 0.86074 0.076 0.0
O69 O 0.12654 0.83704 0.06641 0.0
Co70 Co 0.41274 0.87809 0.34692 0.0
O71 O 0.42789 0.87665 0.36407 0.0
O72 O 0.43183 0.86835 0.33907 0.0
C73 C 0.40556 0.90365 0.35132 0.0
O74 O 0.40056 0.87826 0.3259 0.0
Co75 Co 0.37717 0.88329 0.35364 0.0
O76 O 0.37543 0.8858 0.33001 0.0
C77 C 0.39092 0.85131 0.35881 0.0
C78 C 0.43732 0.87032 0.35353 0.0
C79 C 0.38678 0.88208 0.32071 0.0
O80 O 0.40395 0.85635 0.35265 0.0
O81 O 0.37909 0.86049 0.36136 0.0
O82 O 0.4184 0.90044 0.34343 0.0
O83 O 0.39838 0.89144 0.3577 0.0
Co84 Co 0.37632 0.15649 0.58353 0.0
O85 O 0.39856 0.16082 0.58466 0.0
O86 O 0.38487 0.14739 0.60305 0.0
C87 C 0.37587 0.14823 0.55782 0.0
O88 O 0.35336 0.14936 0.58605 0.0
Co89 Co 0.35516 0.17612 0.56017 0.0
O90 O 0.33932 0.15936 0.56543 0.0
C91 C 0.36709 0.19119 0.5899 0.0
C92 C 0.39837 0.15318 0.59824 0.0
C93 C 0.34057 0.15028 0.57769 0.0
O94 O 0.37221 0.1775 0.59477 0.0
O95 O 0.36092 0.19336 0.57603 0.0
O96 O 0.3799 0.13831 0.56914 0.0
O97 O 0.37383 0.16297 0.56221 0.0
Co98 Co 0.08653 0.1232 0.8469 0.0
O99 O 0.07126 0.12466 0.86392 0.0
O100 O 0.06745 0.13283 0.83887 0.0
C101 C 0.09385 0.09772 0.85144 0.0
O102 O 0.09885 0.123 0.82598 0.0
Co103 Co 0.12214 0.11784 0.85374 0.0
O104 O 0.12324 0.11345 0.83035 0.0
C105 C 0.1086 0.15012 0.85807 0.0
C106 C 0.06187 0.13092 0.85329 0.0
C107 C 0.11226 0.11791 0.82089 0.0
O108 O 0.09526 0.14499 0.85268 0.0
O109 O 0.1206 0.14105 0.8602 0.0
O110 O 0.08102 0.10075 0.84342 0.0
O111 O 0.10088 0.11002 0.85782 0.0
Co112 Co 0.16568 0.40425 0.12967 0.0
O113 O 0.18216 0.3885 0.13026 0.0
O114 O 0.18428 0.41269 0.11922 0.0
C115 C 0.15825 0.40181 0.15537 0.0
O116 O 0.15175 0.42396 0.12756 0.0
Co117 Co 0.13071 0.39476 0.13523 0.0
O118 O 0.12787 0.41829 0.13789 0.0
C119 C 0.1455 0.38759 0.10412 0.0
C120 C 0.19079 0.39899 0.12269 0.0
C121 C 0.13804 0.4283 0.13255 0.0
O122 O 0.15794 0.39531 0.10863 0.0
O123 O 0.1336 0.38516 0.11329 0.0
O124 O 0.17039 0.41068 0.15162 0.0
O125 O 0.15203 0.39353 0.1438 0.0
Co126 Co 0.65873 0.09622 0.87084 0.0
O127 O 0.67423 0.11321 0.87153 0.0
O128 O 0.67787 0.08841 0.88052 0.0
C129 C 0.65122 0.10002 0.84527 0.0
O130 O 0.64623 0.07531 0.87145 0.0
Co131 Co 0.62325 0.1031 0.86598 0.0
O132 O 0.62101 0.0794 0.86419 0.0
C133 C 0.63765 0.10915 0.89757 0.0
C134 C 0.68362 0.10272 0.87798 0.0
C135 C 0.63231 0.0701 0.868 0.0
O136 O 0.6505 0.10275 0.8925 0.0
O137 O 0.62564 0.1115 0.88852 0.0
O138 O 0.6639 0.09195 0.8486 0.0
O139 O 0.6443 0.10685 0.85734 0.0
Co140 Co 0.8446 0.90681 0.37761 0.0
O141 O 0.86173 0.92212 0.37729 0.0
O142 O 0.83773 0.92636 0.36751 0.0
C143 C 0.8474 0.89949 0.40336 0.0
O144 O 0.82375 0.89473 0.37633 0.0
Co145 Co 0.84957 0.87058 0.38325 0.0
O146 O 0.82629 0.86965 0.38583 0.0
C147 C 0.85699 0.8844 0.3516 0.0
C148 C 0.85186 0.93185 0.3704 0.0
C149 C 0.81781 0.8812 0.38079 0.0
O150 O 0.85155 0.89797 0.35638 0.0
O151 O 0.85798 0.87203 0.36069 0.0
O152 O 0.83984 0.91251 0.39959 0.0
O153 O 0.85419 0.89198 0.39162 0.0
Co154 Co 0.84312 0.08591 0.12092 0.0
O155 O 0.86011 0.07073 0.12187 0.0
O156 O 0.83561 0.06599 0.13008 0.0
C157 C 0.84736 0.0942 0.09566 0.0
O158 O 0.82241 0.09814 0.12106 0.0
Co159 Co 0.84976 0.12236 0.11681 0.0
O160 O 0.82675 0.12332 0.11225 0.0
C161 C 0.85597 0.10693 0.14792 0.0
C162 C 0.84991 0.06075 0.12799 0.0
C163 C 0.81742 0.11189 0.11617 0.0
O164 O 0.84893 0.09416 0.14285 0.0
O165 O 0.85869 0.11914 0.13896 0.0
O166 O 0.83965 0.08092 0.09839 0.0
O167 O 0.85361 0.10107 0.10811 0.0
Co168 Co 0.34282 0.5869 0.61984 0.0
O169 O 0.35965 0.57157 0.62059 0.0
O170 O 0.33508 0.56685 0.62859 0.0
C171 C 0.3473 0.59563 0.59477 0.0
O172 O 0.32226 0.59938 0.62016 0.0
Co173 Co 0.34995 0.62332 0.61652 0.0
O174 O 0.32698 0.62467 0.61188 0.0
C175 C 0.35554 0.60727 0.64744 0.0
C176 C 0.34937 0.56156 0.6265 0.0
C177 C 0.31748 0.61331 0.61556 0.0
O178 O 0.34857 0.59462 0.64198 0.0
O179 O 0.35845 0.61966 0.63879 0.0
O180 O 0.33939 0.58242 0.59721 0.0
O181 O 0.35358 0.60217 0.60738 0.0
Co182 Co 0.1581 0.59699 0.37128 0.0
O183 O 0.17314 0.61445 0.37113 0.0
O184 O 0.17751 0.59016 0.38112 0.0
C185 C 0.15026 0.5995 0.34566 0.0
O186 O 0.14633 0.57575 0.37294 0.0
Co187 Co 0.12237 0.60205 0.36629 0.0
O188 O 0.12143 0.57827 0.36411 0.0
C189 C 0.13655 0.60964 0.39773 0.0
C190 C 0.18285 0.60449 0.37793 0.0
C191 C 0.13292 0.56967 0.36889 0.0
O192 O 0.14981 0.60411 0.3927 0.0
O193 O 0.12431 0.61079 0.38875 0.0
O194 O 0.1632 0.59194 0.34917 0.0
O195 O 0.14322 0.60656 0.35752 0.0
Co196 Co 0.33684 0.40024 0.87211 0.0
O197 O 0.32148 0.38332 0.87481 0.0
O198 O 0.31826 0.40871 0.88227 0.0
C199 C 0.34299 0.39486 0.8465 0.0
O200 O 0.3493 0.42112 0.87075 0.0
Co201 Co 0.3721 0.3932 0.86553 0.0
O202 O 0.37355 0.41658 0.8609 0.0
C203 C 0.35957 0.38928 0.89828 0.0
C204 C 0.31244 0.39426 0.88103 0.0
C205 C 0.36267 0.42613 0.86535 0.0
O206 O 0.34634 0.39515 0.89358 0.0
O207 O 0.3711 0.38651 0.88873 0.0
O208 O 0.3304 0.40302 0.84996 0.0
O209 O 0.35057 0.38884 0.85858 0.0
Co210 Co 0.87376 0.83758 0.59573 0.0
O211 O 0.87639 0.82166 0.61229 0.0
O212 O 0.88246 0.81832 0.58659 0.0
C213 C 0.84921 0.84517 0.60226 0.0
O214 O 0.87206 0.85041 0.57514 0.0
Co215 Co 0.86946 0.87378 0.60344 0.0
O216 O 0.86342 0.87535 0.58042 0.0
C217 C 0.90094 0.85922 0.60641 0.0
C218 C 0.88166 0.81233 0.60098 0.0
C219 C 0.86683 0.86415 0.57057 0.0
O220 O 0.89557 0.84624 0.59998 0.0
O221 O 0.89218 0.8712 0.61001 0.0
O222 O 0.85148 0.83216 0.59393 0.0
O223 O 0.86179 0.85215 0.60779 0.0
Co224 Co 0.90802 0.12542 0.33878 0.0
O225 O 0.89103 0.12448 0.32351 0.0
O226 O 0.91545 0.1161 0.31897 0.0
C227 C 0.90386 0.15087 0.3467 0.0
O228 O 0.92872 0.12509 0.35115 0.0
Co229 Co 0.90146 0.12983 0.37498 0.0
O230 O 0.92468 0.13291 0.37663 0.0
C231 C 0.89481 0.09863 0.35975 0.0
C232 C 0.90116 0.11827 0.31363 0.0
C233 C 0.93387 0.12908 0.36515 0.0
O234 O 0.90193 0.10357 0.34704 0.0
O235 O 0.89216 0.10772 0.37187 0.0
O236 O 0.91179 0.14787 0.33369 0.0
O237 O 0.89752 0.13853 0.3537 0.0
Co238 Co 0.6276 0.15518 0.09617 0.0
O239 O 0.6271 0.1703 0.11371 0.0
O240 O 0.61746 0.17463 0.08931 0.0
C241 C 0.65292 0.14792 0.09919 0.0
O242 O 0.62663 0.14348 0.07478 0.0
Co243 Co 0.63315 0.11887 0.10076 0.0
O244 O 0.63608 0.11846 0.07711 0.0
C245 C 0.60198 0.13233 0.10839 0.0
C246 C 0.62014 0.17998 0.10373 0.0
C247 C 0.63125 0.13016 0.06858 0.0
O248 O 0.60666 0.14602 0.10299 0.0
O249 O 0.61096 0.12002 0.1093 0.0
O250 O 0.64932 0.16109 0.09166 0.0
O251 O 0.64128 0.14026 0.10584 0.0
Co252 Co 0.58885 0.87431 0.83992 0.0
O253 O 0.60683 0.87459 0.82592 0.0
O254 O 0.5833 0.88463 0.81997 0.0
C255 C 0.59128 0.84843 0.84718 0.0
O256 O 0.56731 0.87536 0.85067 0.0
Co257 Co 0.59233 0.86858 0.87628 0.0
O258 O 0.56913 0.86535 0.87561 0.0
C259 C 0.60042 0.90033 0.86311 0.0
C260 C 0.59771 0.88158 0.81554 0.0
C261 C 0.56096 0.87036 0.86379 0.0
O262 O 0.59543 0.89559 0.8493 0.0
O263 O 0.60095 0.89115 0.87544 0.0
O264 O 0.58436 0.85226 0.8338 0.0
O265 O 0.59763 0.86021 0.85514 0.0
Co266 Co 0.87548 0.15304 0.90819 0.0
O267 O 0.87555 0.1359 0.92368 0.0
O268 O 0.86621 0.16041 0.92795 0.0
C269 C 0.90046 0.15009 0.89978 0.0
O270 O 0.87403 0.17401 0.89585 0.0
Co271 Co 0.87941 0.14687 0.87187 0.0
O272 O 0.88279 0.17049 0.87067 0.0
C273 C 0.84898 0.13946 0.88727 0.0
C274 C 0.86899 0.14607 0.93344 0.0
C275 C 0.87838 0.17957 0.88214 0.0
O276 O 0.85419 0.14584 0.90031 0.0
O277 O 0.85747 0.13781 0.87466 0.0
O278 O 0.89741 0.15792 0.91292 0.0
O279 O 0.88853 0.14299 0.89298 0.0
Co280 Co 0.58129 0.11506 0.65479 0.0
O281 O 0.56476 0.1149 0.63899 0.0
O282 O 0.5624 0.12429 0.66383 0.0
C283 C 0.58921 0.08973 0.65057 0.0
O284 O 0.59514 0.11637 0.67465 0.0
Co285 Co 0.61639 0.1108 0.64555 0.0
O286 O 0.61937 0.10717 0.66893 0.0
C287 C 0.60108 0.14215 0.64038 0.0
C288 C 0.55589 0.12127 0.64998 0.0
C289 C 0.60896 0.11171 0.67898 0.0
O290 O 0.58858 0.13693 0.64747 0.0
O291 O 0.61305 0.13326 0.63742 0.0
O292 O 0.57713 0.0926 0.65971 0.0
O293 O 0.59525 0.10197 0.64318 0.0
Co294 Co 0.62366 0.84811 0.40861 0.0
O295 O 0.62563 0.86506 0.42433 0.0
O296 O 0.63323 0.83981 0.4278 0.0
C297 C 0.59859 0.85294 0.40143 0.0
O298 O 0.62301 0.82719 0.3961 0.0
Co299 Co 0.61803 0.85453 0.37248 0.0
O300 O 0.61284 0.83121 0.37155 0.0
C301 C 0.64986 0.85939 0.38615 0.0
C302 C 0.63166 0.85419 0.43369 0.0
C303 C 0.61744 0.8219 0.38273 0.0
O304 O 0.64498 0.85369 0.39961 0.0
O305 O 0.64076 0.86161 0.37406 0.0
O306 O 0.6017 0.84487 0.41441 0.0
O307 O 0.61064 0.85917 0.3941 0.0
Co308 Co 0.9152 0.8761 0.15725 0.0
O309 O 0.93113 0.87414 0.14088 0.0
O310 O 0.93427 0.86763 0.1665 0.0
C311 C 0.90711 0.90104 0.15108 0.0
O312 O 0.90221 0.87701 0.17767 0.0
Co313 Co 0.8796 0.87988 0.149 0.0
O314 O 0.87691 0.88327 0.17244 0.0
C315 C 0.89478 0.84824 0.14553 0.0
C316 C 0.94029 0.86877 0.15219 0.0
C317 C 0.88813 0.88048 0.18224 0.0
O318 O 0.90732 0.85371 0.1524 0.0
O319 O 0.88299 0.85711 0.14187 0.0
O320 O 0.91981 0.89895 0.1596 0.0
O321 O 0.90075 0.88814 0.14521 0.0
Co322 Co 0.83079 0.5927 0.86514 0.0
O323 O 0.81469 0.60891 0.86637 0.0
O324 O 0.81214 0.58385 0.87515 0.0
C325 C 0.83782 0.59732 0.83953 0.0
O326 O 0.84407 0.57244 0.8653 0.0
Co327 Co 0.86607 0.60111 0.85915 0.0
O328 O 0.86828 0.57765 0.85553 0.0
C329 C 0.8525 0.60555 0.8915 0.0
C330 C 0.80588 0.59793 0.873 0.0
C331 C 0.8577 0.56782 0.86035 0.0
O332 O 0.83935 0.59934 0.88674 0.0
O333 O 0.86424 0.60813 0.88214 0.0
O334 O 0.82543 0.58859 0.84274 0.0
O335 O 0.84458 0.60413 0.8517 0.0
Co336 Co 0.3422 0.90871 0.12502 0.0
O337 O 0.35968 0.92359 0.1245 0.0
O338 O 0.33605 0.92877 0.13468 0.0
C339 C 0.34449 0.90048 0.09943 0.0
O340 O 0.32106 0.89716 0.12703 0.0
Co341 Co 0.34641 0.87218 0.12025 0.0
O342 O 0.32307 0.87177 0.11814 0.0
C343 C 0.35475 0.88679 0.15138 0.0
C344 C 0.35022 0.9338 0.13129 0.0
C345 C 0.31484 0.8836 0.123 0.0
O346 O 0.34941 0.90035 0.14643 0.0
O347 O 0.35538 0.8742 0.14253 0.0
O348 O 0.33719 0.91375 0.10284 0.0
O349 O 0.35122 0.89327 0.11138 0.0
Co350 Co 0.16184 0.09218 0.63121 0.0
O351 O 0.17745 0.10892 0.62847 0.0
O352 O 0.18084 0.08316 0.62252 0.0
C353 C 0.15442 0.09907 0.65615 0.0
O354 O 0.14945 0.0713 0.63289 0.0
Co355 Co 0.12621 0.0986 0.63603 0.0
O356 O 0.1247 0.07543 0.64144 0.0
C357 C 0.14014 0.10142 0.60363 0.0
C358 C 0.1867 0.09761 0.62327 0.0
C359 C 0.13599 0.06607 0.6378 0.0
O360 O 0.15344 0.09632 0.60901 0.0
O361 O 0.1281 0.10393 0.61257 0.0
O362 O 0.16708 0.09061 0.65383 0.0
O363 O 0.14736 0.10421 0.64337 0.0
Co364 Co 0.15677 0.91189 0.87668 0.0
O365 O 0.13931 0.92643 0.87521 0.0
O366 O 0.16375 0.93185 0.86718 0.0
C367 C 0.15228 0.9042 0.90206 0.0
O368 O 0.17794 0.9005 0.87703 0.0
Co369 Co 0.15151 0.87551 0.8814 0.0
O370 O 0.17476 0.87461 0.88412 0.0
C371 C 0.14496 0.8899 0.84994 0.0
C372 C 0.14924 0.93661 0.86896 0.0
C373 C 0.18351 0.88665 0.88081 0.0
O374 O 0.15134 0.90308 0.85485 0.0
O375 O 0.14282 0.8777 0.85906 0.0
O376 O 0.15993 0.91745 0.89908 0.0
O377 O 0.14641 0.89674 0.88976 0.0
Co378 Co 0.6598 0.4129 0.37538 0.0
O379 O 0.64243 0.42761 0.37551 0.0
O380 O 0.66633 0.43304 0.36593 0.0
C381 C 0.65678 0.40449 0.40079 0.0
O382 O 0.68082 0.40134 0.3742 0.0
Co383 Co 0.65432 0.37636 0.37944 0.0
O384 O 0.6777 0.37523 0.38062 0.0
C385 C 0.64561 0.39191 0.34913 0.0
C386 C 0.65205 0.43788 0.36895 0.0
C387 C 0.68639 0.38731 0.37724 0.0
O388 O 0.65306 0.40463 0.35369 0.0
O389 O 0.64346 0.37972 0.35827 0.0
O390 O 0.66424 0.41785 0.39774 0.0
O391 O 0.65022 0.39745 0.3886 0.0
Co392 Co 0.83421 0.39998 0.63139 0.0
O393 O 0.81906 0.38274 0.62933 0.0
O394 O 0.81539 0.40778 0.62105 0.0
C395 C 0.84066 0.3954 0.65716 0.0
O396 O 0.84637 0.42108 0.63205 0.0
Co397 Co 0.86965 0.39376 0.63822 0.0
O398 O 0.87084 0.41734 0.64174 0.0
C399 C 0.85708 0.38872 0.60551 0.0
C400 C 0.8098 0.39329 0.62277 0.0
C401 C 0.85976 0.42652 0.63704 0.0
O402 O 0.84368 0.39441 0.60995 0.0
O403 O 0.86858 0.38641 0.61523 0.0
O404 O 0.82794 0.4033 0.65358 0.0
O405 O 0.84821 0.38922 0.64516 0.0
Co406 Co 0.66059 0.59475 0.13136 0.0
O407 O 0.67569 0.61207 0.12937 0.0
O408 O 0.67949 0.58698 0.12126 0.0
C409 C 0.65396 0.59965 0.157 0.0
O410 O 0.64872 0.57347 0.13199 0.0
Co411 Co 0.62505 0.60006 0.13789 0.0
O412 O 0.62438 0.5766 0.14208 0.0
C413 C 0.63761 0.60512 0.10522 0.0
C414 C 0.68502 0.60149 0.12296 0.0
C415 C 0.63561 0.56769 0.13727 0.0
O416 O 0.65126 0.60022 0.10984 0.0
O417 O 0.62581 0.60667 0.11469 0.0
O418 O 0.6667 0.59169 0.15361 0.0
O419 O 0.64633 0.60552 0.14488 0.0
Co420 Co 0.62781 0.66439 0.90919 0.0
O421 O 0.65015 0.66314 0.91266 0.0
O422 O 0.63532 0.64341 0.90265 0.0
C423 C 0.62801 0.68873 0.89743 0.0
O424 O 0.60449 0.66161 0.90364 0.0
Co425 Co 0.60827 0.69148 0.92563 0.0
O426 O 0.59171 0.68434 0.91025 0.0
C427 C 0.62075 0.66445 0.94473 0.0
C428 C 0.6492 0.6486 0.90709 0.0
C429 C 0.59216 0.67062 0.90341 0.0
O430 O 0.62412 0.65666 0.93183 0.0
O431 O 0.61577 0.67897 0.94475 0.0
O432 O 0.63096 0.67597 0.88893 0.0
O433 O 0.62644 0.68645 0.91265 0.0
Co434 Co 0.59548 0.36952 0.15804 0.0
O435 O 0.61209 0.36966 0.17384 0.0
O436 O 0.58772 0.3785 0.17779 0.0
C437 C 0.59882 0.3443 0.14932 0.0
O438 O 0.57504 0.37062 0.14545 0.0
Co439 Co 0.6021 0.36612 0.1218 0.0
O440 O 0.57883 0.36382 0.11964 0.0
C441 C 0.60843 0.39708 0.13766 0.0
C442 C 0.60176 0.37589 0.18353 0.0
C443 C 0.56979 0.36728 0.13134 0.0
O444 O 0.60212 0.39148 0.15053 0.0
O445 O 0.61056 0.38855 0.12504 0.0
O446 O 0.59094 0.34713 0.16239 0.0
O447 O 0.60586 0.35655 0.14281 0.0
Co448 Co 0.87133 0.33713 0.40851 0.0
O449 O 0.84917 0.33676 0.41346 0.0
O450 O 0.86154 0.35644 0.40047 0.0
C451 C 0.87252 0.3118 0.39908 0.0
O452 O 0.89376 0.34157 0.40071 0.0
Co453 Co 0.89508 0.31404 0.42511 0.0
O454 O 0.90924 0.32077 0.40742 0.0
C455 C 0.88267 0.34224 0.44274 0.0
C456 C 0.84845 0.35051 0.40613 0.0
C457 C 0.90682 0.33377 0.39975 0.0
O458 O 0.8758 0.34749 0.42998 0.0
O459 O 0.89005 0.32885 0.44337 0.0
O460 O 0.86773 0.32336 0.38982 0.0
O461 O 0.87517 0.31568 0.41385 0.0
Co462 Co 0.90636 0.62343 0.65488 0.0
O463 O 0.88828 0.62371 0.66881 0.0
O464 O 0.91204 0.61486 0.67559 0.0
C465 C 0.90381 0.64846 0.64525 0.0
O466 O 0.9279 0.62195 0.64432 0.0
Co467 Co 0.9027 0.62588 0.61803 0.0
O468 O 0.92608 0.62777 0.61803 0.0
C469 C 0.89453 0.59558 0.63416 0.0
C470 C 0.89746 0.61756 0.67968 0.0
C471 C 0.9342 0.62467 0.63053 0.0
O472 O 0.90033 0.60131 0.64725 0.0
O473 O 0.89324 0.60389 0.62129 0.0
O474 O 0.91043 0.64601 0.65912 0.0
O475 O 0.89751 0.63597 0.63844 0.0
Co476 Co 0.61796 0.33826 0.58348 0.0
O477 O 0.59546 0.33569 0.58341 0.0
O478 O 0.60934 0.34566 0.60373 0.0
C479 C 0.61975 0.34914 0.55886 0.0
O480 O 0.64131 0.34337 0.58731 0.0
Co481 Co 0.6385 0.31991 0.55852 0.0
O482 O 0.65429 0.33644 0.56478 0.0
C483 C 0.62527 0.30254 0.58637 0.0
C484 C 0.59561 0.34174 0.59777 0.0
C485 C 0.65364 0.34373 0.57824 0.0
O486 O 0.6203 0.31585 0.59237 0.0
O487 O 0.63197 0.30152 0.57262 0.0
O488 O 0.61615 0.35812 0.57109 0.0
O489 O 0.62062 0.33392 0.5617 0.0
Co490 Co 0.91021 0.37735 0.84839 0.0
O491 O 0.92566 0.37457 0.86506 0.0
O492 O 0.92894 0.36777 0.83952 0.0
C493 C 0.90366 0.40271 0.85455 0.0
O494 O 0.89756 0.37903 0.82772 0.0
Co495 Co 0.87491 0.38294 0.85612 0.0
O496 O 0.87342 0.38873 0.83305 0.0
C497 C 0.88811 0.35039 0.85922 0.0
C498 C 0.93476 0.36874 0.85395 0.0
C499 C 0.88418 0.38469 0.82316 0.0
O500 O 0.90113 0.3555 0.85308 0.0
O501 O 0.87647 0.35964 0.8624 0.0
O502 O 0.91623 0.39976 0.84614 0.0
O503 O 0.89635 0.39027 0.86031 0.0
Co504 Co 0.87706 0.65502 0.08298 0.0
O505 O 0.89942 0.65869 0.08303 0.0
O506 O 0.88622 0.64627 0.1024 0.0
C507 C 0.87543 0.64626 0.05747 0.0
O508 O 0.854 0.64861 0.08662 0.0
Co509 Co 0.85536 0.67452 0.06 0.0
O510 O 0.84008 0.65719 0.06526 0.0
C511 C 0.86861 0.69003 0.08896 0.0
C512 C 0.89967 0.6515 0.09684 0.0
C513 C 0.84135 0.6488 0.07799 0.0
O514 O 0.87391 0.67641 0.09384 0.0
O515 O 0.86176 0.69196 0.07538 0.0
O516 O 0.8796 0.63642 0.06882 0.0
O517 O 0.87387 0.66111 0.06169 0.0
Co518 Co 0.58626 0.62375 0.34721 0.0
O519 O 0.57004 0.62396 0.3633 0.0
O520 O 0.56735 0.63315 0.33843 0.0
C521 C 0.59421 0.59844 0.35116 0.0
O522 O 0.5998 0.6247 0.32714 0.0
Co523 Co 0.62146 0.61969 0.3563 0.0
O524 O 0.62396 0.61534 0.33297 0.0
C525 C 0.60628 0.65103 0.36125 0.0
C526 C 0.5611 0.63047 0.35245 0.0
C527 C 0.61351 0.61969 0.32286 0.0
O528 O 0.59381 0.6456 0.35424 0.0
O529 O 0.61834 0.64229 0.36427 0.0
O530 O 0.58179 0.60133 0.34246 0.0
O531 O 0.60036 0.61066 0.35856 0.0
Co532 Co 0.66459 0.90141 0.62974 0.0
O533 O 0.68063 0.8852 0.62951 0.0
O534 O 0.68377 0.91021 0.62076 0.0
C535 C 0.65616 0.8974 0.65488 0.0
O536 O 0.65121 0.92156 0.62894 0.0
Co537 Co 0.62933 0.89192 0.633 0.0
O538 O 0.62604 0.91543 0.6353 0.0
C539 C 0.64544 0.88664 0.60231 0.0
C540 C 0.68982 0.89609 0.62328 0.0
C541 C 0.63694 0.92561 0.63222 0.0
O542 O 0.65741 0.89453 0.60773 0.0
O543 O 0.63344 0.88305 0.61096 0.0
O544 O 0.66874 0.90598 0.65218 0.0
O545 O 0.65019 0.88998 0.64259 0.0
Co546 Co 0.37531 0.34261 0.09508 0.0
O547 O 0.37538 0.32669 0.11187 0.0
O548 O 0.38471 0.32312 0.08725 0.0
C549 C 0.35033 0.35075 0.09822 0.0
O550 O 0.3767 0.35529 0.07436 0.0
Co551 Co 0.37087 0.3789 0.10152 0.0
O552 O 0.36768 0.38035 0.07793 0.0
C553 C 0.40177 0.36412 0.10791 0.0
C554 C 0.38198 0.31722 0.10143 0.0
C555 C 0.37229 0.36898 0.06884 0.0
O556 O 0.39656 0.35072 0.10225 0.0
O557 O 0.39322 0.37669 0.10937 0.0
O558 O 0.35341 0.33776 0.09013 0.0
O559 O 0.36217 0.35753 0.10544 0.0
Co560 Co 0.40718 0.62303 0.83843 0.0
O561 O 0.38985 0.62127 0.82361 0.0
O562 O 0.41449 0.61399 0.81845 0.0
C563 C 0.40222 0.6483 0.84639 0.0
O564 O 0.42824 0.62378 0.85022 0.0
Co565 Co 0.40124 0.62721 0.8748 0.0
O566 O 0.42444 0.63031 0.87614 0.0
C567 C 0.39593 0.59562 0.85991 0.0
C568 C 0.40001 0.61553 0.81347 0.0
C569 C 0.43348 0.62737 0.86429 0.0
O570 O 0.40224 0.60095 0.84692 0.0
O571 O 0.3933 0.60455 0.87215 0.0
O572 O 0.40985 0.64558 0.83315 0.0
O573 O 0.39654 0.63574 0.8536 0.0
Co574 Co 0.12703 0.65468 0.59614 0.0
O575 O 0.12653 0.67 0.61351 0.0
O576 O 0.11637 0.67381 0.58923 0.0
C577 C 0.15254 0.64799 0.59878 0.0
O578 O 0.12587 0.64273 0.57493 0.0
Co579 Co 0.13336 0.61857 0.60095 0.0
O580 O 0.13606 0.61802 0.57727 0.0
C581 C 0.10205 0.63147 0.60896 0.0
C582 C 0.11917 0.67938 0.60354 0.0
C583 C 0.13074 0.62949 0.56875 0.0
O584 O 0.10642 0.6452 0.60343 0.0
O585 O 0.11124 0.61931 0.60977 0.0
O586 O 0.14854 0.66097 0.59115 0.0
O587 O 0.14117 0.64016 0.60573 0.0
Co588 Co 0.09031 0.37538 0.3395 0.0
O589 O 0.10829 0.37543 0.32547 0.0
O590 O 0.08505 0.38629 0.31981 0.0
C591 C 0.09198 0.34933 0.3464 0.0
O592 O 0.06887 0.37694 0.35028 0.0
Co593 Co 0.09366 0.36892 0.37578 0.0
O594 O 0.07028 0.36712 0.37533 0.0
C595 C 0.10312 0.40045 0.36299 0.0
C596 C 0.09939 0.38304 0.31533 0.0
C597 C 0.06234 0.3724 0.36346 0.0
O598 O 0.09747 0.39628 0.34927 0.0
O599 O 0.10374 0.39088 0.37501 0.0
O600 O 0.08517 0.35352 0.33306 0.0
O601 O 0.09868 0.36083 0.35446 0.0
Co602 Co 0.37543 0.65413 0.4072 0.0
O603 O 0.37571 0.6371 0.42281 0.0
O604 O 0.36648 0.66166 0.42704 0.0
C605 C 0.40022 0.65123 0.39842 0.0
O606 O 0.37385 0.67501 0.39475 0.0
Co607 Co 0.37895 0.64776 0.37086 0.0
O608 O 0.38247 0.67136 0.36955 0.0
C609 C 0.34856 0.64079 0.38657 0.0
C610 C 0.36936 0.64737 0.43262 0.0
C611 C 0.3782 0.68051 0.38102 0.0
O612 O 0.35399 0.64693 0.39964 0.0
O613 O 0.3569 0.63913 0.37387 0.0
O614 O 0.39738 0.65916 0.41154 0.0
O615 O 0.38828 0.64393 0.39189 0.0
Co616 Co 0.08224 0.61716 0.1544 0.0
O617 O 0.06648 0.62012 0.138 0.0
O618 O 0.06344 0.62616 0.16375 0.0
C619 C 0.08917 0.59205 0.14746 0.0
O620 O 0.09506 0.61513 0.17492 0.0
Co621 Co 0.11761 0.6121 0.1464 0.0
O622 O 0.1196 0.60658 0.16948 0.0
C623 C 0.10398 0.6446 0.14412 0.0
C624 C 0.05742 0.62545 0.14939 0.0
C625 C 0.10868 0.61003 0.1794 0.0
O626 O 0.091 0.63932 0.15021 0.0
O627 O 0.11562 0.63545 0.14064 0.0
O628 O 0.07662 0.59455 0.15606 0.0
O629 O 0.09621 0.60478 0.14204 0.0
Co630 Co 0.11975 0.34556 0.9116 0.0
O631 O 0.12002 0.36184 0.92806 0.0
O632 O 0.12853 0.33682 0.931 0.0
C633 C 0.09507 0.34961 0.90282 0.0
O634 O 0.12066 0.32527 0.89817 0.0
Co635 Co 0.1167 0.35395 0.87557 0.0
O636 O 0.11445 0.33035 0.87243 0.0
C637 C 0.14688 0.35975 0.89208 0.0
C638 C 0.12616 0.35091 0.93728 0.0
C639 C 0.11758 0.3206 0.88378 0.0
O640 O 0.14142 0.35233 0.90442 0.0
O641 O 0.13849 0.36285 0.87967 0.0
O642 O 0.09762 0.34115 0.91568 0.0
O643 O 0.10729 0.35677 0.89672 0.0
Co644 Co 0.4143 0.37694 0.65663 0.0
O645 O 0.43043 0.37401 0.64062 0.0
O646 O 0.43304 0.36838 0.66652 0.0
C647 C 0.40695 0.40183 0.64938 0.0
O648 O 0.401 0.37892 0.67676 0.0
Co649 Co 0.37895 0.38148 0.64767 0.0
O650 O 0.37661 0.38749 0.67062 0.0
C651 C 0.39322 0.3492 0.64586 0.0
C652 C 0.43931 0.36891 0.65229 0.0
C653 C 0.38728 0.38407 0.68085 0.0
O654 O 0.40594 0.3546 0.65247 0.0
O655 O 0.38166 0.35823 0.64183 0.0
O656 O 0.41944 0.39975 0.65821 0.0
O657 O 0.40037 0.38888 0.64389 0.0
Co658 Co 0.32995 0.09217 0.36644 0.0
O659 O 0.31335 0.10771 0.36871 0.0
O660 O 0.31186 0.08227 0.37655 0.0
C661 C 0.33603 0.09797 0.34084 0.0
O662 O 0.34391 0.07242 0.36542 0.0
Co663 Co 0.3647 0.10197 0.35963 0.0
O664 O 0.3674 0.07882 0.35463 0.0
C665 C 0.35196 0.10503 0.39251 0.0
C666 C 0.30504 0.09617 0.37506 0.0
C667 C 0.35736 0.06845 0.3595 0.0
O668 O 0.33889 0.09843 0.38801 0.0
O669 O 0.36329 0.10828 0.38285 0.0
O670 O 0.32413 0.08857 0.34408 0.0
O671 O 0.3429 0.10464 0.35303 0.0
H672 H 0.07836 0.32323 0.33197 0.0
H673 H 0.08216 0.29486 0.33878 0.0
H674 H 0.11226 0.30866 0.37834 0.0
H675 H 0.10853 0.33706 0.37165 0.0
H676 H 0.1248 0.28472 0.35521 0.0
H677 H 0.06516 0.26974 0.3794 0.0
H678 H 0.06612 0.28034 0.36058 0.0
H679 H 0.07261 0.29014 0.37863 0.0
C680 C 0.08565 0.32023 0.34222 0.0
C681 C 0.09318 0.33234 0.35127 0.0
C682 C 0.08777 0.30404 0.3461 0.0
C683 C 0.09744 0.29975 0.35906 0.0
C684 C 0.10475 0.3118 0.36828 0.0
H685 H 0.11577 0.21588 0.41325 0.0
H686 H 0.10831 0.24183 0.40206 0.0
C687 C 0.10257 0.32799 0.36448 0.0
C688 C 0.10054 0.28268 0.36266 0.0
H689 H 0.08381 0.24881 0.37849 0.0
C690 C 0.11584 0.27679 0.36018 0.0
C691 C 0.08876 0.27248 0.36912 0.0
C692 C 0.07223 0.27842 0.37221 0.0
C693 C 0.11979 0.26097 0.36432 0.0
C694 C 0.10808 0.25084 0.37103 0.0
C695 C 0.09269 0.25663 0.37321 0.0
C696 C 0.11201 0.23476 0.37735 0.0
C697 C 0.13658 0.25539 0.36211 0.0
C698 C 0.11643 0.22216 0.36709 0.0
C699 C 0.12071 0.20723 0.37346 0.0
C700 C 0.12063 0.20477 0.39017 0.0
C701 C 0.11599 0.21739 0.40033 0.0
C702 C 0.11167 0.23222 0.39397 0.0
H703 H 0.14469 0.26543 0.35889 0.0
H704 H 0.14098 0.2496 0.37325 0.0
H705 H 0.13697 0.24631 0.35234 0.0
H706 H 0.11661 0.22391 0.3542 0.0
H707 H 0.12416 0.19768 0.36536 0.0
H708 H 0.05212 0.85485 0.6059 0.0
H709 H 0.02347 0.85473 0.60177 0.0
H710 H 0.01711 0.87999 0.6465 0.0
H711 H 0.0457 0.88015 0.65088 0.0
H712 H -4e-05 0.84256 0.63135 0.0
H713 H 0.99233 0.9036 0.60485 0.0
H714 H 0.01017 0.89218 0.60164 0.0
H715 H 0.00622 0.90059 0.62103 0.0
C716 C 0.04467 0.86051 0.61482 0.0
C717 C 0.05121 0.86748 0.62875 0.0
C718 C 0.02833 0.8604 0.61243 0.0
C719 C 0.01833 0.8674 0.62382 0.0
C720 C 0.02475 0.8746 0.63758 0.0
H721 H 0.91674 0.88169 0.62455 0.0
H722 H 0.94521 0.88348 0.62943 0.0
C723 C 0.04106 0.87463 0.64005 0.0
C724 C 0.00108 0.86652 0.62171 0.0
H725 H 0.96939 0.88782 0.60837 0.0
C726 C 0.99322 0.85241 0.62633 0.0
C727 C 0.99247 0.87952 0.61535 0.0
C728 C 0.00063 0.89489 0.61037 0.0
C729 C 0.97679 0.85092 0.62473 0.0
C730 C 0.96814 0.86377 0.61794 0.0
C731 C 0.97606 0.87798 0.61351 0.0
C732 C 0.95092 0.86259 0.61509 0.0
C733 C 0.96885 0.83573 0.6306 0.0
C734 C 0.94474 0.85037 0.60526 0.0
C735 C 0.92851 0.8492 0.60258 0.0
C736 C 0.91813 0.86043 0.60946 0.0
C737 C 0.92439 0.87285 0.61909 0.0
C738 C 0.94065 0.8739 0.62188 0.0
H739 H 0.97618 0.82946 0.63971 0.0
H740 H 0.95712 0.83831 0.63594 0.0
H741 H 0.96713 0.82738 0.62033 0.0
H742 H 0.9525 0.84178 0.59954 0.0
H743 H 0.92413 0.83961 0.59494 0.0
H744 H 0.36523 0.79691 0.86815 0.0
H745 H 0.37086 0.76946 0.85891 0.0
H746 H 0.38686 0.75689 0.90643 0.0
H747 H 0.38125 0.7841 0.91576 0.0
H748 H 0.40768 0.74829 0.87938 0.0
H749 H 0.34527 0.72772 0.87279 0.0
H750 H 0.3505 0.74669 0.86376 0.0
H751 H 0.35081 0.74468 0.88521 0.0
C752 C 0.36993 0.78827 0.87661 0.0
C753 C 0.37278 0.79262 0.89267 0.0
C754 C 0.37308 0.77263 0.87134 0.0
C755 C 0.37915 0.76121 0.88206 0.0
C756 C 0.38213 0.76557 0.89803 0.0
H757 H 0.38647 0.65763 0.87349 0.0
H758 H 0.38135 0.68523 0.88244 0.0
C759 C 0.37891 0.78111 0.90332 0.0
C760 C 0.38262 0.7447 0.8767 0.0
H761 H 0.36516 0.70943 0.86522 0.0
C762 C 0.39842 0.73977 0.87623 0.0
C763 C 0.37044 0.73366 0.87285 0.0
C764 C 0.35327 0.73833 0.87374 0.0
C765 C 0.40242 0.72402 0.87188 0.0
C766 C 0.39026 0.71303 0.86775 0.0
C767 C 0.37443 0.71794 0.86836 0.0
C768 C 0.39373 0.69642 0.86262 0.0
C769 C 0.41958 0.7192 0.87198 0.0
C770 C 0.40233 0.69366 0.84852 0.0
C771 C 0.4053 0.67798 0.84343 0.0
C772 C 0.39961 0.66479 0.85229 0.0
C773 C 0.39102 0.66757 0.86645 0.0
C774 C 0.38806 0.68329 0.87154 0.0
H775 H 0.42692 0.7276 0.87927 0.0
H776 H 0.42102 0.70684 0.87678 0.0
H777 H 0.42416 0.71939 0.8595 0.0
H778 H 0.40655 0.70364 0.84132 0.0
H779 H 0.41188 0.67621 0.83242 0.0
H780 H 0.45648 0.13026 0.15634 0.0
H781 H 0.48522 0.13012 0.15336 0.0
H782 H 0.48002 0.12267 0.10233 0.0
H783 H 0.45131 0.12341 0.10511 0.0
H784 H 0.50584 0.10838 0.14282 0.0
H785 H 0.5079 0.16177 0.10312 0.0
H786 H 0.49017 0.15567 0.11348 0.0
H787 H 0.4958 0.14595 0.09502 0.0
C788 C 0.46146 0.12858 0.14448 0.0
C789 C 0.45163 0.12705 0.13093 0.0
C790 C 0.47788 0.12849 0.1428 0.0
C791 C 0.48476 0.12675 0.12758 0.0
C792 C 0.47497 0.12453 0.11412 0.0
H793 H 0.5836 0.10515 0.10866 0.0
H794 H 0.55529 0.10334 0.1143 0.0
C795 C 0.45856 0.12487 0.11575 0.0
C796 C 0.50217 0.12746 0.12575 0.0
H797 H 0.53168 0.14691 0.10563 0.0
C798 C 0.51152 0.11686 0.13476 0.0
C799 C 0.50958 0.13873 0.11545 0.0
C800 C 0.50036 0.15128 0.10636 0.0
C801 C 0.52807 0.11708 0.13359 0.0
C802 C 0.53542 0.12786 0.12273 0.0
C803 C 0.52605 0.13855 0.11386 0.0
C804 C 0.55279 0.12854 0.12042 0.0
C805 C 0.53748 0.10601 0.14426 0.0
C806 C 0.56078 0.14333 0.12169 0.0
C807 C 0.57683 0.14446 0.11808 0.0
C808 C 0.58529 0.13077 0.11331 0.0
C809 C 0.57742 0.11586 0.11248 0.0
C810 C 0.56125 0.1148 0.11581 0.0
H811 H 0.53068 0.1025 0.15512 0.0
H812 H 0.54028 0.09486 0.13753 0.0
H813 H 0.54874 0.11173 0.14814 0.0
H814 H 0.55451 0.15409 0.12523 0.0
H815 H 0.5826 0.1561 0.11892 0.0
H816 H 0.13033 0.66098 0.13412 0.0
H817 H 0.13289 0.68969 0.12867 0.0
H818 H 0.08418 0.6967 0.14188 0.0
H819 H 0.08138 0.66791 0.14728 0.0
H820 H 0.09255 0.71039 0.11236 0.0
H821 H 0.13503 0.72789 0.16008 0.0
H822 H 0.1413 0.71082 0.14855 0.0
H823 H 0.12379 0.70935 0.1607 0.0
C824 C 0.12015 0.66859 0.13597 0.0
C825 C 0.10564 0.66209 0.14114 0.0
C826 C 0.1217 0.68504 0.13298 0.0
C827 C 0.1088 0.69532 0.13515 0.0
C828 C 0.0943 0.68894 0.1403 0.0
H829 H 0.11616 0.79985 0.11944 0.0
H830 H 0.10989 0.77388 0.13194 0.0
C831 C 0.09274 0.67248 0.14335 0.0
C832 C 0.11024 0.71252 0.13088 0.0
H833 H 0.13222 0.74634 0.13807 0.0
C834 C 0.10104 0.71833 0.11814 0.0
C835 C 0.1212 0.72288 0.13857 0.0
C836 C 0.13079 0.71748 0.15284 0.0
C837 C 0.10314 0.73401 0.11232 0.0
C838 C 0.11478 0.74401 0.11936 0.0
C839 C 0.1234 0.73853 0.13264 0.0
C840 C 0.11895 0.75971 0.11224 0.0
C841 C 0.09315 0.73965 0.09842 0.0
C842 C 0.12638 0.7602 0.09723 0.0
C843 C 0.13004 0.77491 0.09011 0.0
C844 C 0.12633 0.78945 0.09786 0.0
C845 C 0.11914 0.78889 0.11311 0.0
C846 C 0.11555 0.7741 0.12028 0.0
H847 H 0.08236 0.73213 0.0969 0.0
H848 H 0.08958 0.75238 0.10012 0.0
H849 H 0.10015 0.7389 0.08719 0.0
H850 H 0.12925 0.74917 0.09097 0.0
H851 H 0.13561 0.77483 0.0784 0.0
H852 H 0.45995 0.85751 0.33396 0.0
H853 H 0.48787 0.8532 0.34039 0.0
H854 H 0.47986 0.87019 0.38865 0.0
H855 H 0.45203 0.87461 0.38234 0.0
H856 H 0.50558 0.8853 0.37182 0.0
H857 H 0.50809 0.81842 0.36998 0.0
H858 H 0.49914 0.82817 0.35298 0.0
H859 H 0.48977 0.82923 0.37228 0.0
C860 C 0.4641 0.86015 0.34599 0.0
C861 C 0.45382 0.86642 0.35765 0.0
C862 C 0.48002 0.85763 0.34964 0.0
C863 C 0.48584 0.8613 0.365 0.0
C864 C 0.47554 0.86728 0.37673 0.0
H865 H 0.57176 0.84057 0.41461 0.0
H866 H 0.5448 0.84262 0.40434 0.0
C867 C 0.45965 0.86976 0.37311 0.0
C868 C 0.50282 0.85973 0.36873 0.0
H869 H 0.53211 0.8323 0.37448 0.0
C870 C 0.51143 0.87374 0.37233 0.0
C871 C 0.5103 0.8446 0.36943 0.0
C872 C 0.50138 0.82919 0.36608 0.0
C873 C 0.52737 0.87302 0.37684 0.0
C874 C 0.53488 0.85789 0.37756 0.0
C875 C 0.5263 0.84388 0.37378 0.0
C876 C 0.55133 0.85628 0.38323 0.0
C877 C 0.5359 0.88838 0.38131 0.0
C878 C 0.56392 0.86314 0.37464 0.0
C879 C 0.57936 0.86206 0.38052 0.0
C880 C 0.58239 0.85401 0.39502 0.0
C881 C 0.56978 0.84691 0.40343 0.0
C882 C 0.55439 0.84801 0.39756 0.0
H883 H 0.5276 0.8985 0.38325 0.0
H884 H 0.54302 0.8867 0.39239 0.0
H885 H 0.54407 0.89179 0.37146 0.0
H886 H 0.56179 0.86937 0.36343 0.0
H887 H 0.58887 0.86754 0.37373 0.0
H888 H 0.38784 0.19501 0.61489 0.0
H889 H 0.39309 0.21971 0.63018 0.0
H890 H 0.35631 0.24394 0.60393 0.0
H891 H 0.35102 0.21947 0.58858 0.0
H892 H 0.40186 0.24955 0.61397 0.0
H893 H 0.34854 0.25612 0.65195 0.0
H894 H 0.35476 0.23701 0.64381 0.0
H895 H 0.34435 0.2511 0.63138 0.0
C896 C 0.38066 0.20551 0.61261 0.0
C897 C 0.36906 0.20533 0.60048 0.0
C898 C 0.3837 0.21958 0.62133 0.0
C899 C 0.37497 0.23353 0.61826 0.0
C900 C 0.36299 0.23319 0.60662 0.0
H901 H 0.36995 0.33352 0.6292 0.0
H902 H 0.36705 0.30469 0.62482 0.0
C903 C 0.36008 0.21924 0.59779 0.0
C904 C 0.37931 0.24898 0.62586 0.0
H905 H 0.3637 0.28011 0.64713 0.0
C906 C 0.39372 0.25615 0.62153 0.0
C907 C 0.3686 0.25746 0.63565 0.0
C908 C 0.35324 0.24999 0.64112 0.0
C909 C 0.39723 0.2721 0.62581 0.0
C910 C 0.38615 0.28089 0.63496 0.0
C911 C 0.37213 0.27336 0.64005 0.0
C912 C 0.38812 0.29831 0.63804 0.0
C913 C 0.41229 0.27971 0.61967 0.0
C914 C 0.40093 0.30427 0.64699 0.0
C915 C 0.40274 0.32083 0.6494 0.0
C916 C 0.39164 0.33167 0.64306 0.0
C917 C 0.37873 0.32557 0.63426 0.0
C918 C 0.37701 0.30907 0.63178 0.0
H919 H 0.41797 0.27229 0.61021 0.0
H920 H 0.40995 0.29185 0.61468 0.0
H921 H 0.42078 0.28106 0.62975 0.0
H922 H 0.40949 0.29613 0.65215 0.0
H923 H 0.41273 0.32511 0.65636 0.0
H924 H 0.03945 0.14384 0.83354 0.0
H925 H 0.01157 0.14851 0.83977 0.0
H926 H 0.01912 0.13153 0.88808 0.0
H927 H 0.04693 0.12673 0.88197 0.0
H928 H 0.99324 0.11693 0.87159 0.0
H929 H 0.99179 0.18376 0.86876 0.0
H930 H 0.00044 0.17376 0.85177 0.0
H931 H 0.00994 0.17267 0.87103 0.0
C932 C 0.0352 0.14126 0.84554 0.0
C933 C 0.04537 0.13491 0.85727 0.0
C934 C 0.0193 0.14399 0.84908 0.0
C935 C 0.01336 0.14047 0.8644 0.0
C936 C 0.02353 0.13435 0.87619 0.0
H937 H 0.92711 0.16348 0.9124 0.0
H938 H 0.9541 0.16123 0.90237 0.0
C939 C 0.03941 0.13165 0.87269 0.0
C940 C 0.9964 0.14238 0.86802 0.0
H941 H 0.96742 0.17035 0.87277 0.0
C942 C 0.98754 0.12859 0.87179 0.0
C943 C 0.98912 0.15763 0.86834 0.0
C944 C 0.99828 0.17285 0.86488 0.0
C945 C 0.97156 0.12964 0.87605 0.0
C946 C 0.96424 0.14488 0.8763 0.0
C947 C 0.97307 0.15868 0.8724 0.0
C948 C 0.94772 0.14685 0.88165 0.0
C949 C 0.9628 0.1145 0.88076 0.0
C950 C 0.93517 0.13973 0.87315 0.0
C951 C 0.9197 0.14093 0.8789 0.0
C952 C 0.91659 0.14935 0.89318 0.0
C953 C 0.92914 0.15685 0.90139 0.0
C954 C 0.94456 0.15562 0.89566 0.0
H955 H 0.97097 0.10437 0.88319 0.0
H956 H 0.95548 0.11658 0.89162 0.0
H957 H 0.95481 0.11085 0.87082 0.0
H958 H 0.93736 0.13313 0.86215 0.0
H959 H 0.91024 0.13514 0.87226 0.0
H960 H 0.37342 0.13746 0.19732 0.0
H961 H 0.36364 0.13242 0.22443 0.0
H962 H 0.39866 0.09538 0.23069 0.0
H963 H 0.40903 0.10102 0.20381 0.0
H964 H 0.35059 0.10732 0.23719 0.0
H965 H 0.40574 0.12031 0.27081 0.0
H966 H 0.40369 0.12469 0.24972 0.0
H967 H 0.40817 0.10458 0.25629 0.0
C968 C 0.3791 0.12832 0.20453 0.0
C969 C 0.39205 0.11971 0.19856 0.0
C970 C 0.37349 0.12543 0.22001 0.0
C971 C 0.38058 0.11371 0.22974 0.0
C972 C 0.39331 0.10483 0.22363 0.0
H973 H 0.33182 0.0778 0.31532 0.0
H974 H 0.3429 0.0807 0.28832 0.0
C975 C 0.39915 0.10797 0.20824 0.0
C976 C 0.3743 0.11064 0.24609 0.0
H977 H 0.38464 0.10871 0.28567 0.0
C978 C 0.35803 0.10769 0.2478 0.0
C979 C 0.38397 0.11131 0.25996 0.0
C980 C 0.40132 0.11556 0.25915 0.0
C981 C 0.35113 0.10554 0.26296 0.0
C982 C 0.36089 0.10565 0.27678 0.0
C983 C 0.37718 0.10848 0.27506 0.0
C984 C 0.35442 0.10354 0.29319 0.0
C985 C 0.3334 0.10377 0.26397 0.0
C986 C 0.35773 0.11505 0.30511 0.0
C987 C 0.35178 0.11317 0.32062 0.0
C988 C 0.34222 0.09987 0.32444 0.0
C989 C 0.33895 0.08831 0.31258 0.0
C990 C 0.34519 0.09 0.29714 0.0
H991 H 0.32747 0.10885 0.25322 0.0
H992 H 0.33027 0.09081 0.26461 0.0
H993 H 0.32865 0.10985 0.27481 0.0
H994 H 0.36485 0.12556 0.30238 0.0
H995 H 0.35451 0.12224 0.32958 0.0
H996 H 0.12412 0.13194 0.45052 0.0
H997 H 0.1267 0.11829 0.4765 0.0
H998 H 0.13367 0.16416 0.49984 0.0
H999 H 0.13046 0.17784 0.47416 0.0
H1000 H 0.14926 0.11643 0.49901 0.0
H1001 H 0.09705 0.14651 0.52481 0.0
H1002 H 0.10181 0.14765 0.50374 0.0
H1003 H 0.11131 0.16095 0.51794 0.0
C1004 C 0.12625 0.13908 0.46121 0.0
C1005 C 0.12681 0.15596 0.46039 0.0
C1006 C 0.12772 0.13128 0.47602 0.0
C1007 C 0.12992 0.14025 0.49015 0.0
C1008 C 0.13141 0.15704 0.48917 0.0
H1009 H 0.16352 0.11043 0.58294 0.0
H1010 H 0.16072 0.11789 0.55471 0.0
C1011 C 0.12966 0.16484 0.47447 0.0
C1012 C 0.13039 0.13223 0.50602 0.0
H1013 H 0.11458 0.13405 0.54359 0.0
C1014 C 0.14157 0.12012 0.50873 0.0
C1015 C 0.12005 0.13674 0.51856 0.0
C1016 C 0.10677 0.14854 0.51606 0.0
C1017 C 0.14314 0.1129 0.52389 0.0
C1018 C 0.13363 0.11834 0.53676 0.0
C1019 C 0.12204 0.12999 0.53382 0.0
C1020 C 0.13565 0.11257 0.5535 0.0
C1021 C 0.15486 0.09943 0.52584 0.0
C1022 C 0.12244 0.10749 0.56239 0.0
C1023 C 0.12393 0.10373 0.57865 0.0
C1024 C 0.13871 0.10474 0.58628 0.0
C1025 C 0.15201 0.10939 0.5773 0.0
C1026 C 0.15045 0.1135 0.56112 0.0
H1027 H 0.15672 0.09297 0.51431 0.0
H1028 H 0.16642 0.10453 0.52963 0.0
H1029 H 0.1509 0.09061 0.53502 0.0
H1030 H 0.11089 0.10671 0.5568 0.0
H1031 H 0.11349 0.10006 0.58526 0.0
H1032 H 0.13719 0.86284 0.83282 0.0
H1033 H 0.12934 0.86118 0.8046 0.0
H1034 H 0.13289 0.9128 0.80057 0.0
H1035 H 0.14116 0.91457 0.82863 0.0
H1036 H 0.10423 0.87381 0.78897 0.0
H1037 H 0.15995 0.89816 0.76346 0.0
H1038 H 0.1582 0.89221 0.78421 0.0
H1039 H 0.15084 0.91139 0.7777 0.0
C1040 C 0.13635 0.87384 0.82593 0.0
C1041 C 0.13995 0.88882 0.83294 0.0
C1042 C 0.13185 0.87287 0.80981 0.0
C1043 C 0.13081 0.88684 0.80043 0.0
C1044 C 0.13403 0.90183 0.80748 0.0
H1045 H 0.08353 0.8899 0.70697 0.0
H1046 H 0.09055 0.89391 0.73526 0.0
C1047 C 0.13868 0.90282 0.82354 0.0
C1048 C 0.12621 0.88568 0.7833 0.0
H1049 H 0.13862 0.89444 0.74531 0.0
C1050 C 0.11174 0.8783 0.7794 0.0
C1051 C 0.13613 0.89139 0.77086 0.0
C1052 C 0.15221 0.89859 0.77422 0.0
C1053 C 0.10691 0.87648 0.76337 0.0
C1054 C 0.11665 0.88257 0.75096 0.0
C1055 C 0.13111 0.88995 0.75487 0.0
C1056 C 0.11247 0.88069 0.73379 0.0
C1057 C 0.09167 0.86762 0.75989 0.0
C1058 C 0.12273 0.87243 0.72349 0.0
C1059 C 0.11887 0.87034 0.70733 0.0
C1060 C 0.10466 0.87644 0.70117 0.0
C1061 C 0.0945 0.88495 0.71142 0.0
C1062 C 0.09845 0.88716 0.72759 0.0
H1063 H 0.08781 0.86018 0.77026 0.0
H1064 H 0.08223 0.87648 0.75735 0.0
H1065 H 0.0929 0.85969 0.74923 0.0
H1066 H 0.13364 0.8674 0.72802 0.0
H1067 H 0.12694 0.86373 0.69973 0.0
H1068 H 0.35807 0.86539 0.94728 0.0
H1069 H 0.35107 0.87814 0.97285 0.0
H1070 H 0.38117 0.84499 0.99811 0.0
H1071 H 0.38823 0.83219 0.97282 0.0
H1072 H 0.34848 0.84678 0.00889 0.0
H1073 H 0.37824 0.90657 0.0044 0.0
H1074 H 0.36658 0.89987 0.98755 0.0
H1075 H 0.38442 0.88949 0.99258 0.0
C1076 C 0.36342 0.861 0.95825 0.0
C1077 C 0.37365 0.8477 0.958 0.0
C1078 C 0.35941 0.86831 0.97282 0.0
C1079 C 0.36564 0.86248 0.9873 0.0
C1080 C 0.37624 0.84961 0.98703 0.0
H1081 H 0.35993 0.87374 0.089 0.0
H1082 H 0.36342 0.86483 0.06124 0.0
C1083 C 0.38025 0.84232 0.97254 0.0
C1084 C 0.3604 0.86892 0.00292 0.0
H1085 H 0.36394 0.90115 0.02806 0.0
C1086 C 0.35175 0.85871 0.01307 0.0
C1087 C 0.3646 0.88452 0.00819 0.0
C1088 C 0.37405 0.8958 0.99771 0.0
C1089 C 0.34745 0.86356 0.02857 0.0
C1090 C 0.35222 0.87891 0.03412 0.0
C1091 C 0.36038 0.88936 0.02376 0.0
C1092 C 0.34954 0.88402 0.0509 0.0
C1093 C 0.33787 0.8522 0.03886 0.0
C1094 C 0.34078 0.89789 0.05424 0.0
C1095 C 0.33884 0.90306 0.07008 0.0
C1096 C 0.34574 0.89449 0.08281 0.0
C1097 C 0.35441 0.88053 0.07944 0.0
C1098 C 0.35635 0.87539 0.06361 0.0
H1099 H 0.33126 0.84332 0.03142 0.0
H1100 H 0.34595 0.84544 0.04686 0.0
H1101 H 0.32934 0.85885 0.04647 0.0
H1102 H 0.33552 0.90475 0.04457 0.0
H1103 H 0.33213 0.91389 0.07232 0.0
H1104 H 0.35855 0.87879 0.30512 0.0
H1105 H 0.35395 0.87811 0.27615 0.0
H1106 H 0.40384 0.8851 0.26781 0.0
H1107 H 0.4086 0.88509 0.29677 0.0
H1108 H 0.35825 0.90013 0.25445 0.0
H1109 H 0.39556 0.84807 0.2385 0.0
H1110 H 0.39091 0.8531 0.25903 0.0
H1111 H 0.40664 0.86344 0.24868 0.0
C1112 C 0.36855 0.88009 0.29711 0.0
C1113 C 0.38395 0.8819 0.3032 0.0
C1114 C 0.36591 0.87968 0.28056 0.0
C1115 C 0.37859 0.88124 0.26979 0.0
C1116 C 0.39394 0.88335 0.27586 0.0
H1117 H 0.36534 0.91098 0.17079 0.0
H1118 H 0.37195 0.90937 0.19931 0.0
C1119 C 0.39663 0.88348 0.29242 0.0
C1120 C 0.37559 0.88138 0.25224 0.0
H1121 H 0.38674 0.86441 0.21668 0.0
C1122 C 0.36441 0.89223 0.24621 0.0
C1123 C 0.38344 0.8709 0.2415 0.0
C1124 C 0.39467 0.85811 0.24727 0.0
C1125 C 0.36098 0.89305 0.22976 0.0
C1126 C 0.36945 0.88319 0.21894 0.0
C1127 C 0.38045 0.87215 0.22496 0.0
C1128 C 0.36677 0.88391 0.20136 0.0
C1129 C 0.34803 0.9042 0.22427 0.0
C1130 C 0.36256 0.86996 0.19281 0.0
C1131 C 0.35917 0.87077 0.1764 0.0
C1132 C 0.35978 0.88559 0.16832 0.0
C1133 C 0.36453 0.89944 0.17677 0.0
C1134 C 0.3682 0.89856 0.19309 0.0
H1135 H 0.33962 0.90688 0.23414 0.0
H1136 H 0.35335 0.91577 0.22034 0.0
H1137 H 0.3413 0.89897 0.21405 0.0
H1138 H 0.3615 0.85851 0.19892 0.0
H1139 H 0.35555 0.8599 0.1702 0.0
H1140 H 0.38348 0.11935 0.54431 0.0
H1141 H 0.3797 0.11111 0.51628 0.0
H1142 H 0.35764 0.15663 0.50603 0.0
H1143 H 0.36187 0.16512 0.53377 0.0
H1144 H 0.35362 0.10725 0.49811 0.0
H1145 H 0.39127 0.15516 0.472 0.0
H1146 H 0.39087 0.15097 0.49325 0.0
H1147 H 0.37576 0.16317 0.48423 0.0
C1148 C 0.37786 0.1276 0.53604 0.0
C1149 C 0.37312 0.14294 0.54115 0.0
C1150 C 0.3757 0.12288 0.52006 0.0
C1151 C 0.36869 0.1334 0.509 0.0
C1152 C 0.36348 0.14851 0.51424 0.0
H1153 H 0.32933 0.10807 0.41581 0.0
H1154 H 0.33341 0.11434 0.44424 0.0
C1155 C 0.36582 0.1533 0.53013 0.0
C1156 C 0.36678 0.12861 0.49197 0.0
H1157 H 0.37482 0.14068 0.45369 0.0
C1158 C 0.35833 0.11448 0.48838 0.0
C1159 C 0.3732 0.13792 0.47932 0.0
C1160 C 0.38342 0.15255 0.48238 0.0
C1161 C 0.35583 0.10958 0.47243 0.0
C1162 C 0.36154 0.11935 0.45977 0.0
C1163 C 0.37026 0.13331 0.4634 0.0
C1164 C 0.35893 0.11526 0.44264 0.0
C1165 C 0.34738 0.09384 0.46936 0.0
C1166 C 0.37188 0.11421 0.43219 0.0
C1167 C 0.36957 0.111 0.41591 0.0
C1168 C 0.35426 0.10866 0.40974 0.0
C1169 C 0.34128 0.10968 0.42022 0.0
C1170 C 0.3436 0.11313 0.4365 0.0
H1171 H 0.34817 0.08569 0.47989 0.0
H1172 H 0.33468 0.09622 0.46709 0.0
H1173 H 0.35232 0.08757 0.45873 0.0
H1174 H 0.38381 0.11586 0.43665 0.0
H1175 H 0.37983 0.11019 0.40819 0.0
H1176 H 0.1389 0.10781 0.80541 0.0
H1177 H 0.1438 0.10722 0.77657 0.0
H1178 H 0.09739 0.12645 0.76771 0.0
H1179 H 0.09223 0.12694 0.79663 0.0
H1180 H 0.10497 0.10003 0.7483 0.0
H1181 H 0.1527 0.14586 0.74743 0.0
H1182 H 0.15618 0.13022 0.76182 0.0
H1183 H 0.13953 0.14335 0.7643 0.0
C1184 C 0.12972 0.11198 0.79738 0.0
C1185 C 0.1152 0.11751 0.80337 0.0
C1186 C 0.13259 0.11173 0.7809 0.0
C1187 C 0.12106 0.11709 0.77007 0.0
C1188 C 0.10647 0.1224 0.77592 0.0
H1189 H 0.12719 0.11458 0.66446 0.0
H1190 H 0.11754 0.12014 0.69169 0.0
C1191 C 0.10357 0.12267 0.79244 0.0
C1192 C 0.12419 0.11657 0.75262 0.0
H1193 H 0.15074 0.12873 0.72428 0.0
C1194 C 0.11481 0.1065 0.74295 0.0
C1195 C 0.13696 0.12513 0.74572 0.0
C1196 C 0.14682 0.13688 0.75532 0.0
C1197 C 0.11844 0.10405 0.72669 0.0
C1198 C 0.13169 0.11199 0.72003 0.0
C1199 C 0.14065 0.12259 0.72952 0.0
C1200 C 0.13718 0.10859 0.70357 0.0
C1201 C 0.10857 0.09246 0.71691 0.0
C1202 C 0.15143 0.10039 0.70135 0.0
C1203 C 0.15695 0.09719 0.68591 0.0
C1204 C 0.14834 0.10226 0.67242 0.0
C1205 C 0.13405 0.11051 0.67466 0.0
C1206 C 0.1285 0.11365 0.69016 0.0
H1207 H 0.09995 0.08572 0.72443 0.0
H1208 H 0.10194 0.09921 0.70763 0.0
H1209 H 0.11628 0.08371 0.71063 0.0
H1210 H 0.15828 0.09643 0.71161 0.0
H1211 H 0.16801 0.09085 0.68457 0.0
H1212 H 0.11168 0.8787 0.05021 0.0
H1213 H 0.11535 0.88827 0.02258 0.0
H1214 H 0.15065 0.85178 0.01488 0.0
H1215 H 0.14626 0.84161 0.04197 0.0
H1216 H 0.13835 0.90031 0.0059 0.0
H1217 H 0.1223 0.84208 0.97826 0.0
H1218 H 0.11988 0.84586 -0.00057 0.0
H1219 H 0.13876 0.83971 0.99157 0.0
C1220 C 0.12023 0.87279 0.04257 0.0
C1221 C 0.12852 0.8593 0.04807 0.0
C1222 C 0.12232 0.87823 0.02682 0.0
C1223 C 0.13291 0.8704 0.01647 0.0
C1224 C 0.14193 0.85759 0.02239 0.0
H1225 H 0.17054 0.91015 0.92827 0.0
H1226 H 0.16538 0.90207 0.95601 0.0
C1227 C 0.13953 0.85189 0.03793 0.0
C1228 C 0.13451 0.87548 -0.00052 0.0
H1229 H 0.13567 0.86091 0.96119 0.0
C1230 C 0.1376 0.89173 0.9961 0.0
C1231 C 0.1331 0.86438 0.98663 0.0
C1232 C 0.12814 0.84709 0.98915 0.0
C1233 C 0.13981 0.89709 0.98028 0.0
C1234 C 0.13965 0.88574 0.96756 0.0
C1235 C 0.13609 0.86959 0.97092 0.0
C1236 C 0.14307 0.89029 0.95068 0.0
C1237 C 0.14195 0.9149 0.97742 0.0
C1238 C 0.13275 0.88555 0.93829 0.0
C1239 C 0.13601 0.88963 0.92236 0.0
C1240 C 0.1495 0.89875 0.91861 0.0
C1241 C 0.15995 0.90327 0.93092 0.0
C1242 C 0.15691 0.89883 0.94679 0.0
H1243 H 0.13629 0.92209 0.98707 0.0
H1244 H 0.15475 0.91787 0.9775 0.0
H1245 H 0.13687 0.91861 0.96571 0.0
H1246 H 0.12206 0.87885 0.94095 0.0
H1247 H 0.12775 0.88605 0.91305 0.0
H1248 H 0.3272 0.34681 0.07588 0.0
H1249 H 0.30046 0.35777 0.07647 0.0
H1250 H 0.31065 0.38059 0.12197 0.0
H1251 H 0.33768 0.37043 0.12089 0.0
H1252 H 0.27816 0.35144 0.09579 0.0
H1253 H 0.28913 0.41673 0.10052 0.0
H1254 H 0.30467 0.40274 0.09581 0.0
H1255 H 0.29911 0.40641 0.1164 0.0
C1256 C 0.32376 0.35435 0.08589 0.0
C1257 C 0.33443 0.3578 0.09835 0.0
C1258 C 0.3085 0.36063 0.08621 0.0
C1259 C 0.30357 0.37025 0.09913 0.0
C1260 C 0.31429 0.37368 0.1116 0.0
H1261 H 0.20925 0.3754 0.13493 0.0
H1262 H 0.23644 0.36908 0.12781 0.0
C1263 C 0.32968 0.36772 0.11108 0.0
C1264 C 0.28686 0.37547 0.10024 0.0
H1265 H 0.26341 0.40747 0.10936 0.0
C1266 C 0.27496 0.36376 0.0985 0.0
C1267 C 0.28257 0.3916 0.10345 0.0
C1268 C 0.29456 0.40509 0.10396 0.0
C1269 C 0.25899 0.36757 0.10054 0.0
C1270 C 0.25483 0.38338 0.10515 0.0
C1271 C 0.26663 0.39527 0.10616 0.0
C1272 C 0.23843 0.38759 0.10962 0.0
C1273 C 0.24677 0.35457 0.09767 0.0
C1274 C 0.23072 0.4006 0.1023 0.0
C1275 C 0.21525 0.40449 0.10665 0.0
C1276 C 0.20724 0.39535 0.1183 0.0
C1277 C 0.21506 0.38251 0.12575 0.0
C1278 C 0.23056 0.37881 0.1216 0.0
H1279 H 0.25109 0.34551 0.08891 0.0
H1280 H 0.24437 0.34821 0.10913 0.0
H1281 H 0.23553 0.35963 0.09309 0.0
H1282 H 0.23663 0.40763 0.09313 0.0
H1283 H 0.20949 0.41447 0.10075 0.0
H1284 H 0.70552 0.08392 0.89295 0.0
H1285 H 0.73371 0.08965 0.89647 0.0
H1286 H 0.72777 0.13558 0.87323 0.0
H1287 H 0.69957 0.13013 0.87004 0.0
H1288 H 0.75543 0.09459 0.87312 0.0
H1289 H 0.75275 0.1481 0.91268 0.0
H1290 H 0.73586 0.13522 0.90916 0.0
H1291 H 0.74123 0.15042 0.89474 0.0
C1292 C 0.71019 0.09534 0.88881 0.0
C1293 C 0.70034 0.1066 0.88127 0.0
C1294 C 0.72629 0.09857 0.89079 0.0
C1295 C 0.73279 0.11312 0.88529 0.0
C1296 C 0.72294 0.12445 0.87791 0.0
H1297 H 0.83059 0.13264 0.86095 0.0
H1298 H 0.80253 0.12541 0.86067 0.0
C1299 C 0.70683 0.12127 0.87602 0.0
C1300 C 0.75001 0.1161 0.88644 0.0
H1301 H 0.7775 0.14308 0.8999 0.0
C1302 C 0.76028 0.10512 0.8791 0.0
C1303 C 0.75631 0.12974 0.89439 0.0
C1304 C 0.74597 0.14145 0.90333 0.0
C1305 C 0.77669 0.10759 0.87919 0.0
C1306 C 0.78293 0.12162 0.8865 0.0
C1307 C 0.77268 0.13242 0.89414 0.0
C1308 C 0.80007 0.12532 0.88656 0.0
C1309 C 0.78717 0.09504 0.87166 0.0
C1310 C 0.80791 0.12796 0.90118 0.0
C1311 C 0.82384 0.13233 0.90137 0.0
C1312 C 0.83229 0.1341 0.88693 0.0
C1313 C 0.82446 0.13123 0.87228 0.0
C1314 C 0.80845 0.12702 0.8721 0.0
H1315 H 0.78113 0.08316 0.87094 0.0
H1316 H 0.79019 0.09879 0.85924 0.0
H1317 H 0.79832 0.09363 0.87854 0.0
H1318 H 0.80166 0.12675 0.91247 0.0
H1319 H 0.82951 0.13437 0.91287 0.0
H1320 H 0.11115 0.44241 0.14388 0.0
H1321 H 0.10508 0.47105 0.14496 0.0
H1322 H 0.14965 0.48217 0.12242 0.0
H1323 H 0.15589 0.45348 0.12118 0.0
H1324 H 0.12481 0.49503 0.16098 0.0
H1325 H 0.11579 0.50736 0.09585 0.0
H1326 H 0.11464 0.48729 0.10409 0.0
H1327 H 0.1335 0.4969 0.10153 0.0
C1328 C 0.11964 0.45089 0.139 0.0
C1329 C 0.13401 0.44561 0.13242 0.0
C1330 C 0.11614 0.46725 0.13966 0.0
C1331 C 0.12687 0.47865 0.13367 0.0
C1332 C 0.14114 0.4735 0.12692 0.0
H1333 H 0.11624 0.58351 0.13174 0.0
H1334 H 0.12691 0.55633 0.12844 0.0
C1335 C 0.14469 0.45711 0.12629 0.0
C1336 C 0.12329 0.49594 0.13518 0.0
H1337 H 0.11298 0.5292 0.11368 0.0
C1338 C 0.12229 0.50255 0.15065 0.0
C1339 C 0.12021 0.50568 0.12165 0.0
C1340 C 0.12097 0.49901 0.10481 0.0
C1341 C 0.11799 0.51863 0.15298 0.0
C1342 C 0.11426 0.5282 0.13949 0.0
C1343 C 0.11579 0.52176 0.12398 0.0
C1344 C 0.10789 0.54462 0.14133 0.0
C1345 C 0.11747 0.52521 0.16988 0.0
C1346 C 0.09355 0.54694 0.14941 0.0
C1347 C 0.08747 0.56237 0.15133 0.0
C1348 C 0.09555 0.57576 0.14508 0.0
C1349 C 0.10978 0.57341 0.13672 0.0
C1350 C 0.11588 0.55792 0.13482 0.0
H1351 H 0.12505 0.51814 0.17815 0.0
H1352 H 0.12136 0.53799 0.17024 0.0
H1353 H 0.10516 0.52453 0.17441 0.0
H1354 H 0.08703 0.53678 0.15421 0.0
H1355 H 0.07642 0.56379 0.15773 0.0
H1356 H 0.67212 0.86021 0.40994 0.0
H1357 H 0.70043 0.86503 0.40719 0.0
H1358 H 0.69476 0.87162 0.35616 0.0
H1359 H 0.66631 0.86673 0.3587 0.0
H1360 H 0.7195 0.84985 0.36564 0.0
H1361 H 0.72284 0.9085 0.39746 0.0
H1362 H 0.71247 0.89298 0.40823 0.0
H1363 H 0.70457 0.90035 0.38961 0.0
C1364 C 0.67682 0.86277 0.39812 0.0
C1365 C 0.66691 0.8631 0.38453 0.0
C1366 C 0.69301 0.8656 0.3966 0.0
C1367 C 0.6996 0.86884 0.38151 0.0
C1368 C 0.68982 0.86922 0.36792 0.0
H1369 H 0.79617 0.90189 0.36804 0.0
H1370 H 0.76754 0.89858 0.3669 0.0
C1371 C 0.67358 0.86647 0.36942 0.0
C1372 C 0.71682 0.87125 0.37995 0.0
H1373 H 0.74721 0.89528 0.39245 0.0
C1374 C 0.72558 0.85984 0.37137 0.0
C1375 C 0.72463 0.88439 0.38732 0.0
C1376 C 0.71566 0.89735 0.39606 0.0
C1377 C 0.7421 0.86099 0.37036 0.0
C1378 C 0.74997 0.87376 0.37832 0.0
C1379 C 0.74114 0.88542 0.38649 0.0
C1380 C 0.76738 0.87527 0.37841 0.0
C1381 C 0.75095 0.84857 0.36073 0.0
C1382 C 0.77676 0.86326 0.38534 0.0
C1383 C 0.79317 0.86507 0.38599 0.0
C1384 C 0.80046 0.87901 0.37985 0.0
C1385 C 0.79098 0.89101 0.37292 0.0
C1386 C 0.7746 0.88915 0.37223 0.0
H1387 H 0.74311 0.84237 0.35194 0.0
H1388 H 0.76098 0.85413 0.35414 0.0
H1389 H 0.75576 0.83935 0.36899 0.0
H1390 H 0.77137 0.85261 0.3905 0.0
H1391 H 0.8001 0.85565 0.3915 0.0
H1392 H 0.91716 0.9296 0.16372 0.0
H1393 H 0.90472 0.95593 0.16092 0.0
H1394 H 0.86766 0.93471 0.13214 0.0
H1395 H 0.88012 0.90834 0.13473 0.0
H1396 H 0.88085 0.96216 0.11868 0.0
H1397 H 0.86436 0.97278 0.18222 0.0
H1398 H 0.88476 0.96756 0.17963 0.0
H1399 H 0.86959 0.95316 0.17464 0.0
C1400 C 0.90633 0.93053 0.15685 0.0
C1401 C 0.8996 0.91692 0.14945 0.0
C1402 C 0.89917 0.94555 0.15538 0.0
C1403 C 0.88514 0.94719 0.14657 0.0
C1404 C 0.87843 0.93364 0.13911 0.0
H1405 H 0.83122 0.03683 0.14048 0.0
H1406 H 0.83855 0.0087 0.14515 0.0
C1407 C 0.88557 0.91861 0.14058 0.0
C1408 C 0.878 0.96323 0.14437 0.0
H1409 H 0.86379 0.9957 0.1648 0.0
C1410 C 0.87696 0.96943 0.12874 0.0
C1411 C 0.87273 0.97257 0.1575 0.0
C1412 C 0.87275 0.96614 0.17444 0.0
C1413 C 0.87141 0.98503 0.12596 0.0
C1414 C 0.867 0.9947 0.13917 0.0
C1415 C 0.86738 0.98828 0.15473 0.0
C1416 C 0.86266 0.01175 0.13705 0.0
C1417 C 0.87043 0.9911 0.10891 0.0
C1418 C 0.87391 0.02275 0.13132 0.0
C1419 C 0.8698 0.03875 0.12868 0.0
C1420 C 0.85436 0.04404 0.13177 0.0
C1421 C 0.8432 0.03308 0.13794 0.0
C1422 C 0.84735 0.01704 0.14061 0.0
H1423 H 0.87021 0.98105 0.1001 0.0
H1424 H 0.85972 -0.00145 0.10714 0.0
H1425 H 0.88094 -0.00131 0.10632 0.0
H1426 H 0.88586 0.01892 0.12878 0.0
H1427 H 0.87869 0.04691 0.12402 0.0
H1428 H 0.17838 0.66338 0.58673 0.0
H1429 H 0.20608 0.65589 0.58991 0.0
H1430 H 0.1921 0.61384 0.61677 0.0
H1431 H 0.16425 0.62123 0.6136 0.0
H1432 H 0.22147 0.65147 0.62075 0.0
H1433 H 0.22349 0.59696 0.58192 0.0
H1434 H 0.20816 0.61189 0.58011 0.0
H1435 H 0.2078 0.59784 0.59645 0.0
C1436 C 0.18117 0.65246 0.59319 0.0
C1437 C 0.16916 0.64289 0.59994 0.0
C1438 C 0.19699 0.64822 0.595 0.0
C1439 C 0.20107 0.63428 0.60346 0.0
C1440 C 0.18913 0.62454 0.61002 0.0
H1441 H 0.29328 0.59354 0.62527 0.0
H1442 H 0.2649 0.59851 0.62323 0.0
C1443 C 0.17326 0.62881 0.60826 0.0
C1444 C 0.21789 0.63044 0.60606 0.0
H1445 H 0.24674 0.60372 0.59615 0.0
C1446 C 0.22702 0.64103 0.6154 0.0
C1447 C 0.22499 0.61675 0.59914 0.0
C1448 C 0.21569 0.60522 0.58874 0.0
C1449 C 0.24314 0.6383 0.61801 0.0
C1450 C 0.25036 0.62482 0.61077 0.0
C1451 C 0.24116 0.61406 0.60165 0.0
C1452 C 0.26754 0.62191 0.61216 0.0
C1453 C 0.25224 0.64979 0.62866 0.0
C1454 C 0.27839 0.63334 0.60644 0.0
C1455 C 0.2946 0.6306 0.60766 0.0
C1456 C 0.30028 0.61627 0.61447 0.0
C1457 C 0.28934 0.60473 0.62 0.0
C1458 C 0.27311 0.60753 0.61884 0.0
H1459 H 0.24428 0.65643 0.63691 0.0
H1460 H 0.2612 0.64335 0.63594 0.0
H1461 H 0.25845 0.65877 0.62106 0.0
H1462 H 0.27432 0.64434 0.60089 0.0
H1463 H 0.30266 0.63968 0.60312 0.0
H1464 H 0.10559 0.42358 0.33984 0.0
H1465 H 0.11311 0.45169 0.34324 0.0
H1466 H 0.12074 0.4438 0.39384 0.0
H1467 H 0.11302 0.41554 0.39064 0.0
H1468 H 0.10196 0.47044 0.38714 0.0
H1469 H 0.15674 0.4717 0.35083 0.0
H1470 H 0.14027 0.46304 0.34024 0.0
H1471 H 0.14785 0.4532 0.35785 0.0
C1472 C 0.10898 0.42772 0.3517 0.0
C1473 C 0.10867 0.41726 0.36498 0.0
C1474 C 0.1134 0.44379 0.35358 0.0
C1475 C 0.11769 0.44974 0.36874 0.0
C1476 C 0.11756 0.43937 0.38202 0.0
H1477 H 0.1543 0.54752 0.37952 0.0
H1478 H 0.15093 0.51839 0.38116 0.0
C1479 C 0.11316 0.42323 0.38015 0.0
C1480 C 0.12134 0.46704 0.37076 0.0
H1481 H 0.14484 0.49721 0.3564 0.0
C1482 C 0.11146 0.47629 0.38059 0.0
C1483 C 0.13385 0.47457 0.36235 0.0
C1484 C 0.14539 0.46509 0.35235 0.0
C1485 C 0.11334 0.49302 0.3817 0.0
C1486 C 0.12525 0.50067 0.37252 0.0
C1487 C 0.13557 0.49133 0.36325 0.0
C1488 C 0.12699 0.51837 0.37205 0.0
C1489 C 0.10254 0.50237 0.39263 0.0
C1490 C 0.11467 0.52798 0.36625 0.0
C1491 C 0.11652 0.54466 0.3653 0.0
C1492 C 0.1308 0.55201 0.37003 0.0
C1493 C 0.14314 0.54229 0.37579 0.0
C1494 C 0.14125 0.52563 0.37675 0.0
H1495 H 0.09733 0.49456 0.40209 0.0
H1496 H 0.10894 0.51249 0.3985 0.0
H1497 H 0.0927 0.50743 0.38545 0.0
H1498 H 0.10369 0.52256 0.36223 0.0
H1499 H 0.10681 0.55175 0.36072 0.0
H1500 H 0.38556 0.57853 0.88608 0.0
H1501 H 0.37928 0.54979 0.88736 0.0
H1502 H 0.3906 0.54482 0.83712 0.0
H1503 H 0.3968 0.57348 0.83562 0.0
H1504 H 0.3616 0.52982 0.84684 0.0
H1505 H 0.41254 0.51318 0.88557 0.0
H1506 H 0.40042 0.52928 0.89292 0.0
H1507 H 0.41166 0.53202 0.87484 0.0
C1508 C 0.3867 0.57134 0.87528 0.0
C1509 C 0.39179 0.57831 0.86077 0.0
C1510 C 0.38318 0.55492 0.87607 0.0
C1511 C 0.38468 0.54521 0.86238 0.0
C1512 C 0.38945 0.55214 0.84783 0.0
H1513 H 0.38909 0.44177 0.85428 0.0
H1514 H 0.39392 0.47077 0.85346 0.0
C1515 C 0.39303 0.56852 0.84703 0.0
C1516 C 0.38125 0.52779 0.86314 0.0
H1517 H 0.39411 0.49258 0.87945 0.0
C1518 C 0.36867 0.52165 0.85397 0.0
C1519 C 0.39064 0.51723 0.87233 0.0
C1520 C 0.40466 0.52317 0.88189 0.0
C1521 C 0.36516 0.50515 0.85382 0.0
C1522 C 0.37439 0.49461 0.86323 0.0
C1523 C 0.38702 0.50074 0.87232 0.0
C1524 C 0.37128 0.4771 0.86361 0.0
C1525 C 0.35182 0.49909 0.84336 0.0
C1526 C 0.35699 0.47111 0.86971 0.0
C1527 C 0.35415 0.45456 0.87017 0.0
C1528 C 0.36562 0.44369 0.86464 0.0
C1529 C 0.37998 0.44978 0.85862 0.0
C1530 C 0.38279 0.46634 0.85816 0.0
H1531 H 0.34843 0.50803 0.83409 0.0
H1532 H 0.3551 0.48769 0.83728 0.0
H1533 H 0.34131 0.49667 0.85096 0.0
H1534 H 0.34808 0.47923 0.87425 0.0
H1535 H 0.343 0.45031 0.87498 0.0
H1536 H 0.88849 0.65766 0.61784 0.0
H1537 H 0.88642 0.68498 0.60695 0.0
H1538 H 0.91567 0.70292 0.64554 0.0
H1539 H 0.91787 0.67577 0.65641 0.0
H1540 H 0.87362 0.71121 0.62376 0.0
H1541 H 0.93543 0.72356 0.60533 0.0
H1542 H 0.92799 0.70345 0.60883 0.0
H1543 H 0.93369 0.71603 0.62547 0.0
C1544 C 0.89464 0.66741 0.62387 0.0
C1545 C 0.90331 0.66461 0.63798 0.0
C1546 C 0.89345 0.68297 0.61764 0.0
C1547 C 0.90107 0.69589 0.62534 0.0
C1548 C 0.90997 0.69305 0.63925 0.0
H1549 H 0.87935 0.79616 0.62938 0.0
H1550 H 0.88435 0.76762 0.63416 0.0
C1551 C 0.91111 0.67755 0.64551 0.0
C1552 C 0.89872 0.71255 0.61968 0.0
H1553 H 0.91852 0.74645 0.60803 0.0
C1554 C 0.8834 0.71887 0.62012 0.0
C1555 C 0.91149 0.72243 0.61483 0.0
C1556 C 0.92806 0.716 0.61342 0.0
C1557 C 0.88059 0.73505 0.61646 0.0
C1558 C 0.89348 0.74515 0.61244 0.0
C1559 C 0.90871 0.73868 0.61133 0.0
C1560 C 0.89135 0.76255 0.60969 0.0
C1561 C 0.86388 0.74125 0.61701 0.0
C1562 C 0.89414 0.76918 0.59448 0.0
C1563 C 0.89133 0.78549 0.59171 0.0
C1564 C 0.88579 0.79541 0.60417 0.0
C1565 C 0.88353 0.78881 0.61953 0.0
C1566 C 0.88631 0.77251 0.62227 0.0
H1567 H 0.85508 0.73131 0.61634 0.0
H1568 H 0.86203 0.74776 0.6285 0.0
H1569 H 0.86165 0.74977 0.60701 0.0
H1570 H 0.89814 0.76166 0.58467 0.0
H1571 H 0.89323 0.79025 0.57976 0.0
H1572 H 0.95753 0.12221 0.34375 0.0
H1573 H 0.98604 0.12409 0.3482 0.0
H1574 H 0.97793 0.13891 0.39714 0.0
H1575 H 0.94949 0.13688 0.39294 0.0
H1576 H 0.00242 0.15132 0.35622 0.0
H1577 H 0.01175 0.10475 0.40258 0.0
H1578 H 0.994 0.10563 0.39054 0.0
H1579 H 0.99621 0.11831 0.40796 0.0
C1580 C 0.96179 0.12569 0.35553 0.0
C1581 C 0.95117 0.12941 0.36798 0.0
C1582 C 0.9781 0.12673 0.35804 0.0
C1583 C 0.9841 0.13138 0.37307 0.0
C1584 C 0.97356 0.13491 0.38556 0.0
H1585 H 0.06325 0.18406 0.40349 0.0
H1586 H 0.03853 0.17313 0.39312 0.0
C1587 C 0.95727 0.13388 0.38308 0.0
C1588 C 0.00128 0.13395 0.37538 0.0
H1589 H 0.03179 0.1255 0.4008 0.0
C1590 C 0.00892 0.14545 0.36577 0.0
C1591 C 0.00984 0.1261 0.38766 0.0
C1592 C 0.00256 0.11288 0.39766 0.0
C1593 C 0.0246 0.15008 0.36881 0.0
C1594 C 0.03272 0.14319 0.38193 0.0
C1595 C 0.02545 0.13091 0.39086 0.0
C1596 C 0.04806 0.1497 0.38754 0.0
C1597 C 0.0322 0.16263 0.35822 0.0
C1598 C 0.06158 0.14002 0.38807 0.0
C1599 C 0.07584 0.14624 0.39406 0.0
C1600 C 0.0767 0.16216 0.3998 0.0
C1601 C 0.06306 0.17175 0.39919 0.0
C1602 C 0.04892 0.16557 0.39316 0.0
H1603 H 0.02655 0.16299 0.34617 0.0
H1604 H 0.03078 0.17465 0.36384 0.0
H1605 H 0.04502 0.16034 0.35671 0.0
H1606 H 0.06109 0.12768 0.3839 0.0
H1607 H 0.08609 0.13851 0.39441 0.0
H1608 H 0.63178 0.19736 0.12887 0.0
H1609 H 0.62634 0.22543 0.1354 0.0
H1610 H 0.59356 0.22798 0.09574 0.0
H1611 H 0.59955 0.20008 0.08869 0.0
H1612 H 0.61161 0.25349 0.09595 0.0
H1613 H 0.58927 0.24431 0.1576 0.0
H1614 H 0.60871 0.23621 0.15544 0.0
H1615 H 0.59256 0.22778 0.144 0.0
C1616 C 0.6233 0.20386 0.12164 0.0
C1617 C 0.61603 0.19655 0.10832 0.0
C1618 C 0.62012 0.21988 0.12545 0.0
C1619 C 0.60929 0.22873 0.11627 0.0
C1620 C 0.60191 0.22137 0.10303 0.0
H1621 H 0.57665 0.32089 0.15213 0.0
H1622 H 0.57799 0.29328 0.14219 0.0
C1623 C 0.60531 0.20544 0.09904 0.0
C1624 C 0.60619 0.24585 0.12007 0.0
H1625 H 0.59697 0.27123 0.15079 0.0
C1626 C 0.60822 0.25737 0.1079 0.0
C1627 C 0.60148 0.2509 0.13556 0.0
C1628 C 0.59771 0.23911 0.14882 0.0
C1629 C 0.60608 0.27383 0.11091 0.0
C1630 C 0.60239 0.27894 0.12668 0.0
C1631 C 0.59999 0.26737 0.13873 0.0
C1632 C 0.60098 0.29617 0.13111 0.0
C1633 C 0.60753 0.28545 0.09707 0.0
C1634 C 0.61333 0.30711 0.12798 0.0
C1635 C 0.61238 0.32303 0.13332 0.0
C1636 C 0.5993 0.32808 0.14231 0.0
C1637 C 0.58691 0.31722 0.14531 0.0
C1638 C 0.58768 0.30146 0.13964 0.0
H1639 H 0.60485 0.27946 0.08543 0.0
H1640 H 0.59946 0.29584 0.09851 0.0
H1641 H 0.61985 0.29003 0.09646 0.0
H1642 H 0.62393 0.30324 0.12186 0.0
H1643 H 0.62214 0.33119 0.13101 0.0
H1644 H 0.43218 0.81544 0.89621 0.0
H1645 H 0.45624 0.82691 0.88498 0.0
H1646 H 0.43214 0.87158 0.87604 0.0
H1647 H 0.40784 0.86023 0.88755 0.0
H1648 H 0.46332 0.84093 0.85484 0.0
H1649 H 0.46948 0.88419 0.90572 0.0
H1650 H 0.45581 0.86748 0.90636 0.0
H1651 H 0.45147 0.88473 0.89424 0.0
C1652 C 0.43188 0.82768 0.89178 0.0
C1653 C 0.41812 0.83699 0.89302 0.0
C1654 C 0.44566 0.83418 0.88527 0.0
C1655 C 0.44601 0.85014 0.87989 0.0
C1656 C 0.43214 0.8593 0.88036 0.0
H1657 H 0.53906 0.88004 0.84145 0.0
H1658 H 0.51023 0.87816 0.84346 0.0
C1659 C 0.41826 0.85276 0.88687 0.0
C1660 C 0.46131 0.85719 0.87484 0.0
H1661 H 0.49095 0.88181 0.88819 0.0
C1662 C 0.46928 0.85012 0.86189 0.0
C1663 C 0.46902 0.86909 0.88419 0.0
C1664 C 0.46112 0.87681 0.89847 0.0
C1665 C 0.4851 0.85398 0.85856 0.0
C1666 C 0.49303 0.86539 0.86834 0.0
C1667 C 0.48478 0.87311 0.88072 0.0
C1668 C 0.51032 0.86784 0.8673 0.0
C1669 C 0.49351 0.84507 0.84531 0.0
C1670 C 0.51985 0.86311 0.88022 0.0
C1671 C 0.53626 0.86423 0.87918 0.0
C1672 C 0.5435 0.87013 0.86516 0.0
C1673 C 0.53388 0.87533 0.85238 0.0
C1674 C 0.51741 0.87422 0.85347 0.0
H1675 H 0.48635 0.8349 0.84051 0.0
H1676 H 0.49603 0.85348 0.83527 0.0
H1677 H 0.50497 0.84031 0.84969 0.0
H1678 H 0.51459 0.85816 0.89101 0.0
H1679 H 0.54325 0.86017 0.88929 0.0
H1680 H 0.89047 0.19656 0.85675 0.0
H1681 H 0.89134 0.22578 0.85347 0.0
H1682 H 0.8669 0.23167 0.89849 0.0
H1683 H 0.86617 0.20253 0.90205 0.0
H1684 H 0.86667 0.24805 0.85221 0.0
H1685 H 0.90647 0.25968 0.90413 0.0
H1686 H 0.90351 0.23984 0.89579 0.0
H1687 H 0.88894 0.24841 0.9089 0.0
C1688 C 0.88525 0.20405 0.86595 0.0
C1689 C 0.87835 0.1972 0.87972 0.0
C1690 C 0.88576 0.22074 0.86405 0.0
C1691 C 0.87941 0.23085 0.87587 0.0
C1692 C 0.87216 0.22406 0.88941 0.0
H1693 H 0.86143 0.33362 0.86788 0.0
H1694 H 0.85886 0.30458 0.87213 0.0
C1695 C 0.87171 0.2074 0.89137 0.0
C1696 C 0.88039 0.2485 0.87401 0.0
H1697 H 0.89577 0.28251 0.8911 0.0
C1698 C 0.87301 0.2556 0.86071 0.0
C1699 C 0.88881 0.25825 0.88506 0.0
C1700 C 0.89751 0.25118 0.8992 0.0
C1701 C 0.87372 0.27227 0.85823 0.0
C1702 C 0.88191 0.28202 0.86942 0.0
C1703 C 0.88937 0.27494 0.88266 0.0
C1704 C 0.88343 0.29956 0.8672 0.0
C1705 C 0.86602 0.27936 0.84352 0.0
C1706 C 0.89815 0.30626 0.86332 0.0
C1707 C 0.89967 0.32279 0.86085 0.0
C1708 C 0.8865 0.33294 0.86238 0.0
C1709 C 0.8718 0.32617 0.86659 0.0
C1710 C 0.87028 0.30959 0.86896 0.0
H1711 H 0.86227 0.26995 0.8348 0.0
H1712 H 0.85544 0.28627 0.84717 0.0
H1713 H 0.87427 0.2878 0.83742 0.0
H1714 H 0.90842 0.29865 0.86198 0.0
H1715 H 0.91119 0.32757 0.85771 0.0
H1716 H 0.42347 0.17342 0.5992 0.0
H1717 H 0.44927 0.16854 0.61137 0.0
H1718 H 0.4326 0.12283 0.62931 0.0
H1719 H 0.4064 0.12808 0.61777 0.0
H1720 H 0.45272 0.13711 0.65038 0.0
H1721 H 0.47876 0.138 0.58941 0.0
H1722 H 0.46919 0.15656 0.5942 0.0
H1723 H 0.45774 0.13828 0.59272 0.0
C1724 C 0.42526 0.16243 0.60593 0.0
C1725 C 0.41309 0.15099 0.60736 0.0
C1726 C 0.44001 0.15962 0.6128 0.0
C1727 C 0.443 0.14509 0.62077 0.0
C1728 C 0.43057 0.13405 0.62306 0.0
H1729 H 0.53742 0.10715 0.62736 0.0
H1730 H 0.50958 0.11207 0.62184 0.0
C1731 C 0.41564 0.13704 0.61647 0.0
C1732 C 0.45933 0.14105 0.62572 0.0
H1733 H 0.49683 0.13787 0.61121 0.0
C1734 C 0.46238 0.13718 0.64184 0.0
C1735 C 0.47185 0.14081 0.61447 0.0
C1736 C 0.46921 0.14346 0.59671 0.0
C1737 C 0.47771 0.13333 0.64705 0.0
C1738 C 0.49034 0.13387 0.63591 0.0
C1739 C 0.48719 0.1376 0.61979 0.0
C1740 C 0.5069 0.13015 0.64039 0.0
C1741 C 0.4801 0.12835 0.6643 0.0
C1742 C 0.5147 0.1386 0.65272 0.0
C1743 C 0.53061 0.13556 0.6561 0.0
C1744 C 0.53904 0.12435 0.6469 0.0
C1745 C 0.53124 0.11596 0.63456 0.0
C1746 C 0.51531 0.11874 0.63142 0.0
H1747 H 0.46895 0.12379 0.66972 0.0
H1748 H 0.48922 0.11885 0.66533 0.0
H1749 H 0.48403 0.13894 0.6714 0.0
H1750 H 0.50861 0.14779 0.6595 0.0
H1751 H 0.5364 0.14225 0.66562 0.0
H1752 H 0.63236 0.79865 0.40007 0.0
H1753 H 0.63067 0.76958 0.39644 0.0
H1754 H 0.59837 0.77612 0.35689 0.0
H1755 H 0.60033 0.80531 0.36013 0.0
H1756 H 0.6054 0.74997 0.39885 0.0
H1757 H 0.63031 0.7461 0.33736 0.0
H1758 H 0.63156 0.76418 0.34931 0.0
H1759 H 0.61363 0.75925 0.33872 0.0
C1760 C 0.62496 0.79393 0.39052 0.0
C1761 C 0.61654 0.8043 0.38032 0.0
C1762 C 0.62401 0.77731 0.38848 0.0
C1763 C 0.61459 0.7707 0.37625 0.0
C1764 C 0.60603 0.78098 0.36614 0.0
H1765 H 0.58436 0.674 0.3541 0.0
H1766 H 0.5864 0.70296 0.35865 0.0
C1767 C 0.60711 0.79765 0.36806 0.0
C1768 C 0.61339 0.75302 0.37446 0.0
H1769 H 0.61856 0.72222 0.34784 0.0
C1770 C 0.60836 0.7439 0.38773 0.0
C1771 C 0.61735 0.74513 0.35995 0.0
C1772 C 0.62366 0.75414 0.34557 0.0
C1773 C 0.60696 0.72711 0.38677 0.0
C1774 C 0.61062 0.71934 0.37221 0.0
C1775 C 0.61571 0.72836 0.35896 0.0
C1776 C 0.60912 0.70178 0.37042 0.0
C1777 C 0.60142 0.71772 0.40121 0.0
C1778 C 0.62122 0.69165 0.3757 0.0
C1779 C 0.62018 0.67506 0.37309 0.0
C1780 C 0.60698 0.6684 0.36516 0.0
C1781 C 0.59471 0.67867 0.36025 0.0
C1782 C 0.59582 0.69523 0.3628 0.0
H1783 H 0.5982 0.72567 0.41143 0.0
H1784 H 0.59101 0.71021 0.39794 0.0
H1785 H 0.61093 0.70947 0.40518 0.0
H1786 H 0.63159 0.69661 0.38159 0.0
H1787 H 0.62982 0.66753 0.37705 0.0
H1788 H 0.06987 0.83911 0.08692 0.0
H1789 H 0.04404 0.84245 0.09926 0.0
H1790 H 0.06627 0.85314 0.14474 0.0
H1791 H 0.09237 0.85027 0.13225 0.0
H1792 H 0.0302 0.82624 0.12359 0.0
H1793 H 0.03676 0.89093 0.13966 0.0
H1794 H 0.0505 0.8808 0.12661 0.0
H1795 H 0.05148 0.87787 0.14797 0.0
C1796 C 0.06931 0.8422 0.09955 0.0
C1797 C 0.08316 0.84452 0.10861 0.0
C1798 C 0.05451 0.84408 0.1066 0.0
C1799 C 0.05321 0.84824 0.12287 0.0
C1800 C 0.067 0.85027 0.13207 0.0
H1801 H 0.96341 0.86211 0.17411 0.0
H1802 H 0.99126 0.85614 0.16869 0.0
C1803 C 0.08189 0.84854 0.12496 0.0
C1804 C 0.03728 0.85037 0.12993 0.0
H1805 H 0.01258 0.87838 0.14616 0.0
C1806 C 0.0264 0.8376 0.12865 0.0
C1807 C 0.03234 0.86522 0.13653 0.0
C1808 C 0.04331 0.87955 0.13769 0.0
C1809 C 0.01062 0.83943 0.13336 0.0
C1810 C 0.00563 0.85437 0.13952 0.0
C1811 C 0.01656 0.86694 0.14143 0.0
C1812 C 0.98882 0.85752 0.14288 0.0
C1813 C -0.00077 0.82555 0.13139 0.0
C1814 C 0.97836 0.86027 0.13012 0.0
C1815 C 0.96254 0.8638 0.13315 0.0
C1816 C 0.95691 0.86453 0.149 0.0
C1817 C 0.9674 0.86157 0.16176 0.0
C1818 C 0.98329 0.8582 0.15872 0.0
H1819 H 0.00542 0.81406 0.1289 0.0
H1820 H 0.99193 0.82409 0.14238 0.0
H1821 H 0.99112 0.82808 0.12123 0.0
H1822 H 0.98251 0.85986 0.11782 0.0
H1823 H 0.95474 0.86601 0.12307 0.0
H1824 H 0.65853 0.91997 0.67828 0.0
H1825 H 0.64716 0.91903 0.70522 0.0
H1826 H 0.62628 0.87273 0.69459 0.0
H1827 H 0.63695 0.87407 0.66725 0.0
H1828 H 0.60648 0.89029 0.7113 0.0
H1829 H 0.66501 0.89319 0.74098 0.0
H1830 H 0.66154 0.91039 0.72855 0.0
H1831 H 0.66289 0.8907 0.71959 0.0
C1832 C 0.65149 0.90961 0.68171 0.0
C1833 C 0.64877 0.89697 0.67084 0.0
C1834 C 0.64508 0.90904 0.69712 0.0
C1835 C 0.63628 0.89559 0.70209 0.0
C1836 C 0.63315 0.88317 0.69105 0.0
H1837 H 0.62237 0.8676 0.80036 0.0
H1838 H 0.63085 0.8715 0.77268 0.0
C1839 C 0.63926 0.88392 0.67548 0.0
C1840 C 0.63052 0.89438 0.71885 0.0
H1841 H 0.64265 0.89592 0.7579 0.0
C1842 C 0.61439 0.89144 0.72151 0.0
C1843 C 0.6409 0.89566 0.73214 0.0
C1844 C 0.65856 0.89748 0.73019 0.0
C1845 C 0.60833 0.88972 0.7371 0.0
C1846 C 0.61862 0.89162 0.7504 0.0
C1847 C 0.63473 0.89465 0.74771 0.0
C1848 C 0.61324 0.88951 0.76721 0.0
C1849 C 0.59112 0.88531 0.73908 0.0
C1850 C 0.60062 0.89847 0.77346 0.0
C1851 C 0.59552 0.89598 0.78924 0.0
C1852 C 0.60328 0.88486 0.79913 0.0
C1853 C 0.61621 0.87632 0.79303 0.0
C1854 C 0.62106 0.87853 0.7772 0.0
H1855 H 0.58618 0.87979 0.72798 0.0
H1856 H 0.58939 0.87677 0.74917 0.0
H1857 H 0.58426 0.89635 0.74164 0.0
H1858 H 0.59471 0.90737 0.76615 0.0
H1859 H 0.5856 0.90282 0.79374 0.0
H1860 H 0.85394 0.89046 0.55581 0.0
H1861 H 0.85048 0.89488 0.527 0.0
H1862 H 0.87193 0.849 0.51709 0.0
H1863 H 0.87523 0.84431 0.54581 0.0
H1864 H 0.87368 0.89618 0.50347 0.0
H1865 H 0.83096 0.84668 0.49121 0.0
H1866 H 0.83539 0.8536 0.51128 0.0
H1867 H 0.84882 0.84046 0.50101 0.0
C1868 C 0.85788 0.88127 0.54753 0.0
C1869 C 0.86481 0.86701 0.55315 0.0
C1870 C 0.85588 0.88382 0.53107 0.0
C1871 C 0.86072 0.87215 0.51997 0.0
C1872 C 0.86779 0.85799 0.52549 0.0
H1873 H 0.86249 0.87287 0.41503 0.0
H1874 H 0.86603 0.86545 0.44336 0.0
C1875 C 0.86975 0.85539 0.54193 0.0
C1876 C 0.85885 0.87506 0.50257 0.0
H1877 H 0.841 0.86073 0.46859 0.0
C1878 C 0.86652 0.88845 0.49585 0.0
C1879 C 0.84955 0.86488 0.49268 0.0
C1880 C 0.84058 0.85067 0.4994 0.0
C1881 C 0.86514 0.89195 0.47946 0.0
C1882 C 0.85573 0.88188 0.46962 0.0
C1883 C 0.84824 0.86836 0.47624 0.0
C1884 C 0.85295 0.88574 0.45257 0.0
C1885 C 0.87379 0.90637 0.47274 0.0
C1886 C 0.84414 0.89935 0.44852 0.0
C1887 C 0.84206 0.90357 0.43247 0.0
C1888 C 0.84878 0.89423 0.4202 0.0
C1889 C 0.85724 0.88032 0.42426 0.0
C1890 C 0.85926 0.87606 0.44038 0.0
H1891 H 0.88321 0.91072 0.48099 0.0
H1892 H 0.87917 0.90346 0.46093 0.0
H1893 H 0.86528 0.91631 0.47089 0.0
H1894 H 0.83901 0.90682 0.45781 0.0
H1895 H 0.83541 0.91432 0.42972 0.0
H1896 H 0.84798 0.08603 0.17196 0.0
H1897 H 0.85593 0.08718 0.20012 0.0
H1898 H 0.88364 0.12981 0.1906 0.0
H1899 H 0.87544 0.12903 0.16245 0.0
H1900 H 0.88496 0.08573 0.21393 0.0
H1901 H 0.8566 0.14407 0.22798 0.0
H1902 H 0.85266 0.13319 0.20964 0.0
H1903 H 0.8703 0.14521 0.21159 0.0
C1904 C 0.85573 0.0957 0.17583 0.0
C1905 C 0.86097 0.10753 0.16496 0.0
C1906 C 0.86028 0.09631 0.19194 0.0
C1907 C 0.87017 0.10872 0.19749 0.0
C1908 C 0.87569 0.12035 0.18663 0.0
H1909 H 0.92065 0.11058 0.28863 0.0
H1910 H 0.91326 0.10724 0.26037 0.0
C1911 C 0.87104 0.11984 0.17053 0.0
C1912 C 0.87473 0.10939 0.21465 0.0
H1913 H 0.87345 0.13323 0.24798 0.0
C1914 C 0.88242 0.09609 0.22141 0.0
C1915 C 0.87117 0.12282 0.22441 0.0
C1916 C 0.86209 0.13707 0.2181 0.0
C1917 C 0.88681 0.09593 0.23767 0.0
C1918 C 0.88372 0.10958 0.24728 0.0
C1919 C 0.87591 0.12282 0.24054 0.0
C1920 C 0.8882 0.11041 0.26445 0.0
C1921 C 0.89439 0.08102 0.24447 0.0
C1922 C 0.8766 0.11343 0.27607 0.0
C1923 C 0.88081 0.11554 0.29213 0.0
C1924 C 0.89671 0.11465 0.29688 0.0
C1925 C 0.90829 0.11122 0.28532 0.0
C1926 C 0.90408 0.10923 0.26919 0.0
H1927 H 0.89191 0.07027 0.23691 0.0
H1928 H 0.90738 0.0828 0.24491 0.0
H1929 H 0.89016 0.0786 0.25686 0.0
H1930 H 0.86428 0.1144 0.27265 0.0
H1931 H 0.87161 0.11814 0.30078 0.0
H1932 H 0.66066 0.10637 0.92047 0.0
H1933 H 0.65831 0.11112 0.94926 0.0
H1934 H 0.61 0.12601 0.94288 0.0
H1935 H 0.6121 0.12109 0.91397 0.0
H1936 H 0.65054 0.13914 0.96622 0.0
H1937 H 0.60702 0.08989 0.97662 0.0
H1938 H 0.6182 0.09164 0.95825 0.0
H1939 H 0.60148 0.1044 0.96168 0.0
C1940 C 0.64952 0.11071 0.92511 0.0
C1941 C 0.63652 0.11321 0.91487 0.0
C1942 C 0.64822 0.11343 0.94159 0.0
C1943 C 0.63392 0.11866 0.94819 0.0
C1944 C 0.62105 0.12167 0.93802 0.0
H1945 H 0.62257 0.15273 0.04641 0.0
H1946 H 0.62272 0.15022 0.0172 0.0
C1947 C 0.62232 0.11895 0.92149 0.0
C1948 C 0.63255 0.12074 0.96578 0.0
H1949 H 0.61391 0.10595 -0.00097 0.0
C1950 C 0.6425 0.13194 0.97341 0.0
C1951 C 0.62217 0.11117 0.97509 0.0
C1952 C 0.61168 0.09849 0.96756 0.0
C1953 C 0.64235 0.13384 0.99015 0.0
C1954 C 0.63183 0.12442 -0.00057 0.0
C1955 C 0.62188 0.11321 0.99182 0.0
C1956 C 0.63127 0.12576 0.01712 0.0
C1957 C 0.65371 0.14562 0.99781 0.0
C1958 C 0.63567 0.11267 0.02673 0.0
C1959 C 0.63557 0.11402 0.04346 0.0
C1960 C 0.63096 0.12847 0.05087 0.0
C1961 C 0.62626 0.14145 0.04114 0.0
C1962 C 0.6264 0.14008 0.02443 0.0
H1963 H 0.6633 0.14925 0.98944 0.0
H1964 H 0.64721 0.1566 0.00139 0.0
H1965 H 0.65912 0.14039 0.00878 0.0
H1966 H 0.6394 0.10149 0.02126 0.0
H1967 H 0.6392 0.10377 0.05056 0.0
H1968 H 0.66531 0.08875 0.81827 0.0
H1969 H 0.65647 0.09173 0.79056 0.0
H1970 H 0.61522 0.11728 0.80677 0.0
H1971 H 0.6242 0.11463 0.83468 0.0
H1972 H 0.62902 0.08085 0.77649 0.0
H1973 H 0.63357 0.14751 0.77283 0.0
H1974 H 0.64229 0.13616 0.78901 0.0
H1975 H 0.62141 0.13997 0.78884 0.0
C1976 C 0.65436 0.09504 0.81597 0.0
C1977 C 0.64547 0.10154 0.82862 0.0
C1978 C 0.64933 0.09671 0.80012 0.0
C1979 C 0.63533 0.10491 0.79661 0.0
C1980 C 0.62625 0.11121 0.80922 0.0
H1981 H 0.59077 0.12246 0.70392 0.0
H1982 H 0.59663 0.12092 0.73263 0.0
C1983 C 0.63133 0.1096 0.82514 0.0
C1984 C 0.63025 0.10654 0.77969 0.0
H1985 H 0.62364 0.13395 0.74995 0.0
C1986 C 0.62781 0.09246 0.77069 0.0
C1987 C 0.62869 0.12172 0.77219 0.0
C1988 C 0.63174 0.13722 0.78114 0.0
C1989 C 0.62392 0.09313 0.75434 0.0
C1990 C 0.62262 0.10827 0.7468 0.0
C1991 C 0.62471 0.12238 0.75583 0.0
C1992 C 0.61938 0.10967 0.72943 0.0
C1993 C 0.62119 0.07763 0.74527 0.0
C1994 C 0.63041 0.10412 0.71819 0.0
C1995 C 0.62715 0.10499 0.70177 0.0
C1996 C 0.61278 0.11146 0.69633 0.0
C1997 C 0.60192 0.11733 0.70768 0.0
C1998 C 0.60523 0.11649 0.72409 0.0
H1999 H 0.61897 0.06736 0.7535 0.0
H2000 H 0.61101 0.07875 0.73692 0.0
H2001 H 0.63184 0.07485 0.73803 0.0
H2002 H 0.64151 0.09903 0.72213 0.0
H2003 H 0.6358 0.10041 0.69339 0.0
H2004 H 0.63996 0.83278 0.45694 0.0
H2005 H 0.64355 0.83809 0.48558 0.0
H2006 H 0.63606 0.88871 0.47737 0.0
H2007 H 0.632 0.88343 0.44872 0.0
H2008 H 0.66412 0.85656 0.50264 0.0
H2009 H 0.60284 0.87843 0.51086 0.0
H2010 H 0.60927 0.86861 0.49269 0.0
H2011 H 0.61379 0.88952 0.49607 0.0
C2012 C 0.63918 0.84507 0.46121 0.0
C2013 C 0.63552 0.85768 0.45063 0.0
C2014 C 0.64124 0.84807 0.47758 0.0
C2015 C 0.63973 0.86374 0.48364 0.0
C2016 C 0.63686 0.87647 0.47299 0.0
H2017 H 0.66639 0.89585 0.57903 0.0
H2018 H 0.6654 0.8896 0.55043 0.0
C2019 C 0.63465 0.87345 0.45662 0.0
C2020 C 0.64077 0.86661 0.50116 0.0
H2021 H 0.62015 0.88128 0.53312 0.0
C2022 C 0.65451 0.86194 0.50933 0.0
C2023 C 0.62807 0.87333 0.50989 0.0
C2024 C 0.6126 0.87762 0.50198 0.0
C2025 C 0.65599 0.86403 0.526 0.0
C2026 C 0.64354 0.87132 0.53461 0.0
C2027 C 0.62973 0.8758 0.52646 0.0
C2028 C 0.64454 0.87452 0.55208 0.0
C2029 C 0.67074 0.8581 0.53424 0.0
C2030 C 0.63295 0.86838 0.56248 0.0
C2031 C 0.63334 0.87211 0.57884 0.0
C2032 C 0.64534 0.88206 0.58511 0.0
C2033 C 0.65704 0.88805 0.57466 0.0
C2034 C 0.65656 0.88441 0.55829 0.0
H2035 H 0.67677 0.84871 0.52701 0.0
H2036 H 0.67912 0.8683 0.53579 0.0
H2037 H 0.66802 0.85308 0.54628 0.0
H2038 H 0.62353 0.86078 0.5579 0.0
H2039 H 0.62416 0.86728 0.58653 0.0
H2040 H 0.85778 0.85736 0.33285 0.0
H2041 H 0.86344 0.85591 0.30406 0.0
H2042 H 0.87305 0.90695 0.30343 0.0
H2043 H 0.8668 0.90858 0.33198 0.0
H2044 H 0.85404 0.89902 0.27978 0.0
H2045 H 0.90443 0.85672 0.28019 0.0
H2046 H 0.88709 0.84855 0.28956 0.0
H2047 H 0.89687 0.86575 0.29831 0.0
C2048 C 0.8613 0.86821 0.32659 0.0
C2049 C 0.86183 0.88308 0.33464 0.0
C2050 C 0.86461 0.86736 0.31016 0.0
C2051 C 0.86887 0.88129 0.30163 0.0
C2052 C 0.86978 0.89605 0.30977 0.0
H2053 H 0.90927 0.8852 0.20651 0.0
H2054 H 0.90403 0.88558 0.23534 0.0
C2055 C 0.86622 0.89696 0.32608 0.0
C2056 C 0.87154 0.88078 0.28405 0.0
H2057 H 0.89332 0.86285 0.25467 0.0
C2058 C 0.86269 0.89116 0.2743 0.0
C2059 C 0.88292 0.87063 0.27693 0.0
C2060 C 0.89348 0.8599 0.2868 0.0
C2061 C 0.86494 0.89174 0.25763 0.0
C2062 C 0.87595 0.88122 0.25045 0.0
C2063 C 0.88478 0.87081 0.26019 0.0
C2064 C 0.8789 0.88118 0.23292 0.0
C2065 C 0.85582 0.90397 0.24801 0.0
C2066 C 0.86653 0.87851 0.22197 0.0
C2067 C 0.86944 0.87859 0.20546 0.0
C2068 C 0.88486 0.88093 0.19964 0.0
C2069 C 0.89727 0.88333 0.21064 0.0
C2070 C 0.8943 0.88353 0.22711 0.0
H2071 H 0.85167 0.91405 0.25568 0.0
H2072 H 0.86311 0.90904 0.23814 0.0
H2073 H 0.84525 0.89809 0.24267 0.0
H2074 H 0.85463 0.87622 0.22619 0.0
H2075 H 0.85969 0.87648 0.19728 0.0
H2076 H 0.87477 0.11751 0.94828 0.0
H2077 H 0.86964 0.1105 0.9763 0.0
H2078 H 0.84991 0.15751 0.98449 0.0
H2079 H 0.85491 0.16463 0.9564 0.0
H2080 H 0.88201 0.12741 0.00351 0.0
H2081 H 0.81628 0.12559 0.00251 0.0
H2082 H 0.82803 0.12447 0.98445 0.0
H2083 H 0.82542 0.14341 0.99444 0.0
C2084 C 0.86923 0.12632 0.95599 0.0
C2085 C 0.86524 0.14162 0.95015 0.0
C2086 C 0.86633 0.1223 0.97198 0.0
C2087 C 0.85931 0.13345 0.98236 0.0
C2088 C 0.85515 0.14868 0.97657 0.0
H2089 H 0.8609 0.1228 0.08695 0.0
H2090 H 0.86332 0.13381 0.05976 0.0
C2091 C 0.85808 0.15274 0.96056 0.0
C2092 C 0.85697 0.12926 -0.00058 0.0
H2093 H 0.8287 0.12157 0.0276 0.0
C2094 C 0.87037 0.12619 0.00883 0.0
C2095 C 0.84175 0.12762 0.0062 0.0
C2096 C 0.827 0.13031 0.9964 0.0
C2097 C 0.86897 0.12132 0.02488 0.0
C2098 C 0.85375 0.11973 0.0317 0.0
C2099 C 0.84034 0.12294 0.02232 0.0
C2100 C 0.8515 0.11373 0.04824 0.0
C2101 C 0.88375 0.11743 0.03422 0.0
C2102 C 0.84363 0.09906 0.05075 0.0
C2103 C 0.84215 0.09281 0.06621 0.0
C2104 C 0.8485 0.10115 0.07943 0.0
C2105 C 0.85603 0.11605 0.07695 0.0
C2106 C 0.85746 0.12232 0.06145 0.0
H2107 H 0.89415 0.11591 0.02624 0.0
H2108 H 0.88638 0.1274 0.04269 0.0
H2109 H 0.88213 0.10625 0.04134 0.0
H2110 H 0.83892 0.09228 0.04068 0.0
H2111 H 0.83622 0.08134 0.06777 0.0
H2112 H 0.78765 0.62283 0.86305 0.0
H2113 H 0.76028 0.62836 0.87026 0.0
H2114 H 0.75951 0.58639 0.90071 0.0
H2115 H 0.7868 0.5804 0.89296 0.0
H2116 H 0.73261 0.58864 0.8842 0.0
H2117 H 0.74603 0.6477 0.91166 0.0
H2118 H 0.75257 0.64699 0.89122 0.0
H2119 H 0.76132 0.63384 0.90591 0.0
C2120 C 0.78168 0.6148 0.87132 0.0
C2121 C 0.78939 0.60127 0.87758 0.0
C2122 C 0.76605 0.61802 0.8755 0.0
C2123 C 0.75796 0.60802 0.88634 0.0
C2124 C 0.76556 0.59433 0.89241 0.0
H2125 H 0.67271 0.64636 0.92884 0.0
H2126 H 0.69834 0.63347 0.92535 0.0
C2127 C 0.78115 0.59095 0.88802 0.0
C2128 C 0.74158 0.61191 0.89126 0.0
H2129 H 0.71891 0.64252 0.90542 0.0
C2130 C 0.7296 0.60035 0.88903 0.0
C2131 C 0.73771 0.62705 0.89789 0.0
C2132 C 0.75013 0.63952 0.90198 0.0
C2133 C 0.71376 0.60374 0.89277 0.0
C2134 C 0.70977 0.61927 0.89839 0.0
C2135 C 0.72186 0.63063 0.901 0.0
C2136 C 0.69323 0.62433 0.90151 0.0
C2137 C 0.7016 0.59054 0.89085 0.0
C2138 C 0.68154 0.623 0.88953 0.0
C2139 C 0.66666 0.62995 0.89177 0.0
C2140 C 0.6635 0.63876 0.90576 0.0
C2141 C 0.67495 0.63964 0.91792 0.0
C2142 C 0.68959 0.63232 0.9159 0.0
H2143 H 0.70704 0.57847 0.89212 0.0
H2144 H 0.69197 0.59166 0.89983 0.0
H2145 H 0.69637 0.59123 0.87864 0.0
H2146 H 0.68413 0.61732 0.87814 0.0
H2147 H 0.65803 0.62932 0.88216 0.0
H2148 H 0.29326 0.9051 0.13475 0.0
H2149 H 0.26448 0.9023 0.13517 0.0
H2150 H 0.26827 0.85532 0.11353 0.0
H2151 H 0.29695 0.85784 0.11332 0.0
H2152 H 0.2453 0.89922 0.10967 0.0
H2153 H 0.23698 0.8465 0.14901 0.0
H2154 H 0.25542 0.85752 0.14812 0.0
H2155 H 0.25097 0.84217 0.13347 0.0
C2156 C 0.28799 0.89408 0.13025 0.0
C2157 C 0.29745 0.88169 0.12399 0.0
C2158 C 0.27154 0.8925 0.13054 0.0
C2159 C 0.26424 0.87849 0.12467 0.0
C2160 C 0.27365 0.86606 0.11856 0.0
H2161 H 0.18503 0.8568 0.07155 0.0
H2162 H 0.2089 0.86767 0.08378 0.0
C2163 C 0.29008 0.86759 0.11831 0.0
C2164 C 0.2468 0.87733 0.12345 0.0
H2165 H 0.21608 0.8513 0.12947 0.0
C2166 C 0.23883 0.88893 0.11433 0.0
C2167 C 0.23825 0.86414 0.12983 0.0
C2168 C 0.24584 0.85199 0.14081 0.0
C2169 C 0.22286 0.88694 0.11025 0.0
C2170 C 0.21479 0.87286 0.11519 0.0
C2171 C 0.22236 0.86199 0.12549 0.0
C2172 C 0.19951 0.86803 0.10794 0.0
C2173 C 0.21495 0.89962 0.10016 0.0
C2174 C 0.18627 0.86451 0.1175 0.0
C2175 C 0.1725 0.85821 0.1105 0.0
C2176 C 0.17192 0.85506 0.0939 0.0
C2177 C 0.18509 0.85899 0.08438 0.0
C2178 C 0.19872 0.86537 0.09133 0.0
H2179 H 0.22036 0.91165 0.10226 0.0
H2180 H 0.21649 0.89663 0.08727 0.0
H2181 H 0.2021 0.9003 0.10276 0.0
H2182 H 0.18673 0.86634 0.13038 0.0
H2183 H 0.16256 0.85525 0.11815 0.0
H2184 H 0.83915 0.5432 0.87163 0.0
H2185 H 0.84568 0.51462 0.8729 0.0
H2186 H 0.89088 0.52446 0.85106 0.0
H2187 H 0.88462 0.55304 0.84991 0.0
H2188 H 0.85318 0.49365 0.84791 0.0
H2189 H 0.90268 0.49897 0.89128 0.0
H2190 H 0.88872 0.51497 0.88796 0.0
H2191 H 0.90482 0.51197 0.87422 0.0
C2192 C 0.85051 0.53931 0.86712 0.0
C2193 C 0.86141 0.55045 0.86076 0.0
C2194 C 0.8542 0.52298 0.86787 0.0
C2195 C 0.86886 0.51751 0.86236 0.0
C2196 C 0.87964 0.52852 0.85573 0.0
H2197 H 0.91749 0.43035 0.84416 0.0
H2198 H 0.90778 0.45778 0.84722 0.0
C2199 C 0.87599 0.54484 0.855 0.0
C2200 C 0.87279 0.50024 0.8631 0.0
H2201 H 0.9005 0.47406 0.87702 0.0
C2202 C 0.86339 0.48929 0.85444 0.0
C2203 C 0.88607 0.49465 0.87172 0.0
C2204 C 0.89607 0.50572 0.88195 0.0
C2205 C 0.86738 0.47296 0.85354 0.0
C2206 C 0.881 0.46751 0.86168 0.0
C2207 C 0.8901 0.47835 0.87075 0.0
C2208 C 0.88663 0.45082 0.86006 0.0
C2209 C 0.85742 0.46178 0.84339 0.0
C2210 C 0.87795 0.43789 0.86641 0.0
C2211 C 0.88348 0.42216 0.86469 0.0
C2212 C 0.89776 0.41922 0.85663 0.0
C2213 C 0.90643 0.43224 0.8504 0.0
C2214 C 0.90093 0.44791 0.85216 0.0
H2215 H 0.84885 0.46841 0.83579 0.0
H2216 H 0.86503 0.45433 0.83551 0.0
H2217 H 0.85069 0.45353 0.85134 0.0
H2218 H 0.86697 0.43997 0.87273 0.0
H2219 H 0.87658 0.41234 0.86964 0.0
H2220 H 0.2009 0.12683 0.61899 0.0
H2221 H 0.22857 0.13215 0.61231 0.0
H2222 H 0.23781 0.08116 0.61207 0.0
H2223 H 0.21005 0.07574 0.61821 0.0
H2224 H 0.25526 0.12479 0.62875 0.0
H2225 H 0.25554 0.09459 0.56916 0.0
H2226 H 0.23753 0.09875 0.5799 0.0
H2227 H 0.24958 0.08192 0.58553 0.0
C2228 C 0.2088 0.11676 0.61739 0.0
C2229 C 0.2033 0.10088 0.61897 0.0
C2230 C 0.22461 0.1198 0.61364 0.0
C2231 C 0.2352 0.10704 0.61148 0.0
C2232 C 0.22977 0.09117 0.6133 0.0
H2233 H 0.33689 0.13072 0.60414 0.0
H2234 H 0.31247 0.11762 0.61328 0.0
C2235 C 0.21392 0.08811 0.61686 0.0
C2236 C 0.25191 0.11047 0.60744 0.0
H2237 H 0.27976 0.10532 0.57831 0.0
C2238 C 0.26068 0.12046 0.61777 0.0
C2239 C 0.2589 0.10479 0.5931 0.0
C2240 C 0.24989 0.09453 0.5812 0.0
C2241 C 0.27608 0.12541 0.61389 0.0
C2242 C 0.28301 0.11987 0.59947 0.0
C2243 C 0.27444 0.10942 0.58942 0.0
C2244 C 0.29823 0.12639 0.59356 0.0
C2245 C 0.28447 0.13716 0.62485 0.0
C2246 C 0.29843 0.13509 0.57916 0.0
C2247 C 0.31229 0.14241 0.57385 0.0
C2248 C 0.32633 0.14124 0.58284 0.0
C2249 C 0.32627 0.13199 0.597 0.0
C2250 C 0.31232 0.12457 0.60229 0.0
H2251 H 0.27634 0.14257 0.63379 0.0
H2252 H 0.29393 0.1308 0.63149 0.0
H2253 H 0.29005 0.147 0.61781 0.0
H2254 H 0.2877 0.1366 0.57222 0.0
H2255 H 0.31187 0.14931 0.56283 0.0
H2256 H 0.11947 0.94867 0.87002 0.0
H2257 H 0.11129 0.97631 0.86503 0.0
H2258 H 0.15937 0.98942 0.85368 0.0
H2259 H 0.16768 0.96163 0.85849 0.0
H2260 H 0.12296 0.00292 0.88223 0.0
H2261 H 0.1333 0.00902 0.81654 0.0
H2262 H 0.1319 0.98972 0.82639 0.0
H2263 H 0.14966 0.00152 0.82806 0.0
C2264 C 0.1283 0.95737 0.86629 0.0
C2265 C 0.14423 0.95301 0.8647 0.0
C2266 C 0.12359 0.97315 0.86345 0.0
C2267 C 0.13471 0.98483 0.8589 0.0
C2268 C 0.15059 0.98048 0.85694 0.0
H2269 H 0.12014 0.08809 0.86771 0.0
H2270 H 0.13097 0.06086 0.86921 0.0
C2271 C 0.15532 0.96465 0.85976 0.0
C2272 C 0.12975 0.00175 0.85733 0.0
H2273 H 0.1257 0.03254 0.83059 0.0
C2274 C 0.12359 0.00943 0.87096 0.0
C2275 C 0.13051 0.0101 0.84257 0.0
C2276 C 0.13658 0.00218 0.82749 0.0
C2277 C 0.1181 0.02526 0.87021 0.0
C2278 C 0.11901 0.03367 0.8555 0.0
C2279 C 0.12517 0.02603 0.84186 0.0
C2280 C 0.11301 0.05022 0.85398 0.0
C2281 C 0.11103 0.03278 0.88505 0.0
C2282 C 0.09952 0.05318 0.8447 0.0
C2283 C 0.09329 0.06867 0.84386 0.0
C2284 C 0.10054 0.08142 0.85221 0.0
C2285 C 0.11426 0.07846 0.86123 0.0
C2286 C 0.12045 0.06295 0.86211 0.0
H2287 H 0.10846 0.0237 0.89449 0.0
H2288 H 0.11947 0.04172 0.89008 0.0
H2289 H 0.09993 0.03916 0.88204 0.0
H2290 H 0.09365 0.04346 0.83834 0.0
H2291 H 0.08276 0.07062 0.83673 0.0
H2292 H 0.83804 0.36468 0.37876 0.0
H2293 H 0.81104 0.37327 0.37291 0.0
H2294 H 0.79768 0.36293 0.42191 0.0
H2295 H 0.82435 0.35313 0.4273 0.0
H2296 H 0.77764 0.35022 0.40387 0.0
H2297 H 0.78593 0.41194 0.38074 0.0
H2298 H 0.79709 0.39786 0.36915 0.0
H2299 H 0.80178 0.40097 0.39007 0.0
C2300 C 0.82936 0.36458 0.38831 0.0
C2301 C 0.83315 0.3583 0.40346 0.0
C2302 C 0.81395 0.3696 0.38501 0.0
C2303 C 0.80228 0.369 0.39701 0.0
C2304 C 0.80641 0.36348 0.41241 0.0
H2305 H 0.70807 0.40884 0.38827 0.0
H2306 H 0.73632 0.40443 0.39242 0.0
C2307 C 0.82164 0.35795 0.41553 0.0
C2308 C 0.78547 0.37251 0.39322 0.0
H2309 H 0.76088 0.39946 0.37517 0.0
C2310 C 0.77401 0.36111 0.39777 0.0
C2311 C 0.7806 0.38674 0.38533 0.0
C2312 C 0.792 0.40013 0.38121 0.0
C2313 C 0.75791 0.36352 0.39478 0.0
C2314 C 0.75312 0.37731 0.38611 0.0
C2315 C 0.76455 0.38875 0.38157 0.0
C2316 C 0.73625 0.3804 0.38232 0.0
C2317 C 0.74624 0.35146 0.40149 0.0
C2318 C 0.72687 0.36859 0.37479 0.0
C2319 C 0.71064 0.3709 0.37288 0.0
C2320 C 0.70366 0.38535 0.37783 0.0
C2321 C 0.7132 0.3976 0.38433 0.0
C2322 C 0.72934 0.39509 0.38669 0.0
H2323 H 0.75125 0.34489 0.41192 0.0
H2324 H 0.73516 0.35737 0.40541 0.0
H2325 H 0.74333 0.34242 0.39211 0.0
H2326 H 0.73201 0.35742 0.37071 0.0
H2327 H 0.70353 0.36138 0.36761 0.0
H2328 H 0.83914 0.45005 0.62787 0.0
H2329 H 0.84409 0.47898 0.62646 0.0
H2330 H 0.8914 0.4719 0.64424 0.0
H2331 H 0.88669 0.44292 0.64557 0.0
H2332 H 0.85286 0.50026 0.65117 0.0
H2333 H 0.8979 0.49814 0.6028 0.0
H2334 H 0.88503 0.48135 0.60732 0.0
H2335 H 0.90207 0.48535 0.61963 0.0
C2336 C 0.85062 0.4546 0.63148 0.0
C2337 C 0.86255 0.44411 0.63675 0.0
C2338 C 0.8534 0.47114 0.63067 0.0
C2339 C 0.86818 0.4775 0.635 0.0
C2340 C 0.88002 0.46716 0.64054 0.0
H2341 H 0.89473 0.57438 0.65924 0.0
H2342 H 0.88732 0.54602 0.65887 0.0
C2343 C 0.87726 0.45061 0.64138 0.0
C2344 C 0.8711 0.49501 0.63397 0.0
H2345 H 0.89471 0.52321 0.6162 0.0
C2346 C 0.86194 0.50531 0.64346 0.0
C2347 C 0.8828 0.50152 0.62372 0.0
C2348 C 0.89243 0.49105 0.61266 0.0
C2349 C 0.86447 0.52199 0.64331 0.0
C2350 C 0.87662 0.52844 0.63357 0.0
C2351 C 0.88548 0.51818 0.62374 0.0
C2352 C 0.88065 0.54576 0.63378 0.0
C2353 C 0.85408 0.53256 0.65352 0.0
C2354 C 0.87963 0.55493 0.61968 0.0
C2355 C 0.88395 0.57119 0.6198 0.0
C2356 C 0.88949 0.57849 0.634 0.0
C2357 C 0.89047 0.5692 0.64809 0.0
C2358 C 0.88615 0.55299 0.64795 0.0
H2359 H 0.8428 0.52644 0.65666 0.0
H2360 H 0.86034 0.53549 0.66488 0.0
H2361 H 0.85136 0.54402 0.64728 0.0
H2362 H 0.87549 0.5495 0.6086 0.0
H2363 H 0.88308 0.57796 0.60873 0.0
H2364 H 0.6097 0.5505 0.14732 0.0
H2365 H 0.60619 0.52129 0.14719 0.0
H2366 H 0.65274 0.51564 0.12706 0.0
H2367 H 0.6565 0.54476 0.12728 0.0
H2368 H 0.60753 0.50018 0.12061 0.0
H2369 H 0.65301 0.48582 0.16652 0.0
H2370 H 0.64538 0.50587 0.16373 0.0
H2371 H 0.65991 0.49803 0.15014 0.0
C2372 C 0.61924 0.54307 0.14293 0.0
C2373 C 0.63342 0.55 0.13738 0.0
C2374 C 0.61719 0.52638 0.14284 0.0
C2375 C 0.62928 0.51635 0.1373 0.0
C2376 C 0.64338 0.52319 0.13165 0.0
H2377 H 0.61898 0.41492 0.11203 0.0
H2378 H 0.62466 0.44382 0.11148 0.0
C2379 C 0.64546 0.53986 0.13173 0.0
C2380 C 0.62702 0.49871 0.13716 0.0
H2381 H 0.64125 0.46376 0.15287 0.0
C2382 C 0.61488 0.49219 0.12764 0.0
C2383 C 0.63659 0.4884 0.14647 0.0
C2384 C 0.64937 0.49484 0.15741 0.0
C2385 C 0.61209 0.47556 0.12713 0.0
C2386 C 0.62184 0.46522 0.13621 0.0
C2387 C 0.63392 0.47175 0.14579 0.0
C2388 C 0.61916 0.44765 0.13657 0.0
C2389 C 0.5985 0.4692 0.11718 0.0
C2390 C 0.61466 0.44022 0.15096 0.0
C2391 C 0.61147 0.42375 0.15135 0.0
C2392 C 0.6128 0.41435 0.13734 0.0
C2393 C 0.61777 0.42179 0.12302 0.0
C2394 C 0.62093 0.43831 0.12265 0.0
H2395 H 0.59017 0.47888 0.11372 0.0
H2396 H 0.60318 0.46371 0.10601 0.0
H2397 H 0.59187 0.45977 0.12383 0.0
H2398 H 0.61331 0.44724 0.16184 0.0
H2399 H 0.60777 0.41844 0.16262 0.0
H2400 H 0.62032 0.69587 0.86622 0.0
H2401 H 0.61273 0.72229 0.85559 0.0
H2402 H 0.62121 0.74358 0.90214 0.0
H2403 H 0.62825 0.71732 0.91285 0.0
H2404 H 0.59294 0.75213 0.89007 0.0
H2405 H 0.6398 0.76089 0.84406 0.0
H2406 H 0.62835 0.74277 0.84189 0.0
H2407 H 0.64089 0.74538 0.85915 0.0
C2408 C 0.62073 0.70626 0.87407 0.0
C2409 C 0.62485 0.7046 0.89033 0.0
C2410 C 0.61646 0.72133 0.868 0.0
C2411 C 0.61654 0.73492 0.87806 0.0
C2412 C 0.62102 0.73325 0.89419 0.0
H2413 H 0.60379 0.83694 0.87514 0.0
H2414 H 0.60852 0.80873 0.88217 0.0
C2415 C 0.62507 0.71825 0.90027 0.0
C2416 C 0.61134 0.75085 0.87223 0.0
H2417 H 0.6203 0.78105 0.84596 0.0
C2418 C 0.5989 0.75843 0.88039 0.0
C2419 C 0.6191 0.759 0.85956 0.0
C2420 C 0.63286 0.75169 0.85072 0.0
C2421 C 0.59422 0.77407 0.87644 0.0
C2422 C 0.6022 0.78231 0.86404 0.0
C2423 C 0.61427 0.77461 0.8555 0.0
C2424 C 0.59857 0.79919 0.86016 0.0
C2425 C 0.58087 0.78176 0.8856 0.0
C2426 C 0.59138 0.80303 0.84551 0.0
C2427 C 0.58857 0.81907 0.84153 0.0
C2428 C 0.59312 0.83151 0.85205 0.0
C2429 C 0.60016 0.8276 0.86682 0.0
C2430 C 0.60284 0.81153 0.87085 0.0
H2431 H 0.57398 0.77279 0.89261 0.0
H2432 H 0.58579 0.79081 0.89407 0.0
H2433 H 0.57276 0.78809 0.87726 0.0
H2434 H 0.58805 0.79362 0.83713 0.0
H2435 H 0.58316 0.82172 0.83004 0.0
H2436 H 0.54698 0.36323 0.15396 0.0
H2437 H 0.51843 0.36288 0.15006 0.0
H2438 H 0.52492 0.3718 0.09942 0.0
H2439 H 0.55362 0.37147 0.10315 0.0
H2440 H 0.49893 0.38523 0.14033 0.0
H2441 H 0.49569 0.33395 0.09782 0.0
H2442 H 0.51355 0.33911 0.10851 0.0
H2443 H 0.50806 0.34998 0.09067 0.0
C2444 C 0.54234 0.36506 0.14197 0.0
C2445 C 0.55253 0.3673 0.12884 0.0
C2446 C 0.52601 0.36486 0.13977 0.0
C2447 C 0.51953 0.36706 0.12442 0.0
C2448 C 0.52967 0.36962 0.1113 0.0
H2449 H 0.4206 0.39091 0.10849 0.0
H2450 H 0.44913 0.39205 0.11292 0.0
C2451 C 0.54605 0.36953 0.11346 0.0
C2452 C 0.50214 0.3669 0.12232 0.0
H2453 H 0.47211 0.3488 0.10164 0.0
C2454 C 0.49305 0.37721 0.13191 0.0
C2455 C 0.49448 0.35627 0.11151 0.0
C2456 C 0.50343 0.34409 0.10167 0.0
C2457 C 0.4765 0.37721 0.131 0.0
C2458 C 0.46888 0.36701 0.11976 0.0
C2459 C 0.47797 0.3567 0.11018 0.0
C2460 C 0.45147 0.36659 0.11785 0.0
C2461 C 0.4674 0.3878 0.14242 0.0
C2462 C 0.44333 0.35187 0.11883 0.0
C2463 C 0.42711 0.35113 0.11594 0.0
C2464 C 0.41867 0.36515 0.11218 0.0
C2465 C 0.42675 0.37995 0.11158 0.0
C2466 C 0.44305 0.38063 0.11418 0.0
H2467 H 0.47447 0.39077 0.1533 0.0
H2468 H 0.46451 0.39928 0.13632 0.0
H2469 H 0.45621 0.38196 0.14627 0.0
H2470 H 0.44958 0.34088 0.12163 0.0
H2471 H 0.42118 0.33956 0.11652 0.0
H2472 H 0.88637 0.16078 0.37242 0.0
H2473 H 0.88131 0.18855 0.38082 0.0
H2474 H 0.91068 0.20604 0.34224 0.0
H2475 H 0.91592 0.17839 0.33386 0.0
H2476 H 0.91642 0.22108 0.37196 0.0
H2477 H 0.85259 0.22021 0.35632 0.0
H2478 H 0.85874 0.20427 0.36944 0.0
H2479 H 0.8662 0.20513 0.34926 0.0
C2480 C 0.89179 0.17055 0.36578 0.0
C2481 C 0.90145 0.16745 0.35243 0.0
C2482 C 0.88881 0.18638 0.37052 0.0
C2483 C 0.89541 0.19929 0.36195 0.0
C2484 C 0.9054 0.19621 0.34891 0.0
H2485 H 0.86859 0.30025 0.36852 0.0
H2486 H 0.8746 0.2731 0.35875 0.0
C2487 C 0.90837 0.18042 0.34416 0.0
C2488 C 0.89199 0.21607 0.3666 0.0
H2489 H 0.86209 0.24318 0.37039 0.0
C2490 C 0.90456 0.22595 0.37158 0.0
C2491 C 0.87653 0.22241 0.36581 0.0
C2492 C 0.86274 0.21253 0.35978 0.0
C2493 C 0.90202 0.24194 0.37619 0.0
C2494 C 0.88649 0.24809 0.37598 0.0
C2495 C 0.87397 0.23835 0.37063 0.0
C2496 C 0.88294 0.26447 0.38175 0.0
C2497 C 0.91598 0.25217 0.38116 0.0
C2498 C 0.88546 0.26845 0.39791 0.0
C2499 C 0.88203 0.28384 0.4035 0.0
C2500 C 0.87597 0.29553 0.39301 0.0
C2501 C 0.8733 0.29149 0.37684 0.0
C2502 C 0.87671 0.27603 0.37126 0.0
H2503 H 0.9273 0.24711 0.37676 0.0
H2504 H 0.9148 0.26465 0.37656 0.0
H2505 H 0.91654 0.25273 0.39447 0.0
H2506 H 0.88999 0.25959 0.40624 0.0
H2507 H 0.88413 0.28657 0.41605 0.0
H2508 H 0.95589 0.62771 0.65468 0.0
H2509 H 0.98466 0.62825 0.65228 0.0
H2510 H 0.98064 0.62062 0.60116 0.0
H2511 H 0.95186 0.62066 0.60337 0.0
H2512 H 0.00567 0.60668 0.64229 0.0
H2513 H 0.00814 0.65996 0.60246 0.0
H2514 H 0.99023 0.65372 0.61242 0.0
H2515 H 0.99639 0.644 0.59413 0.0
C2516 C 0.96113 0.62615 0.64292 0.0
C2517 C 0.9516 0.62432 0.62918 0.0
C2518 C 0.97757 0.62645 0.64158 0.0
C2519 C 0.98479 0.6248 0.6265 0.0
C2520 C 0.97531 0.62239 0.61285 0.0
H2521 H 0.08402 0.60405 0.60929 0.0
H2522 H 0.05567 0.60197 0.61472 0.0
C2523 C 0.95887 0.62234 0.61414 0.0
C2524 C 0.00222 0.62568 0.62507 0.0
H2525 H 0.03199 0.64532 0.60556 0.0
C2526 C 0.01146 0.61519 0.63433 0.0
C2527 C 0.00975 0.63698 0.61491 0.0
C2528 C 0.00063 0.64941 0.60555 0.0
C2529 C 0.02802 0.61554 0.63353 0.0
C2530 C 0.03551 0.62635 0.62281 0.0
C2531 C 0.02626 0.63694 0.61369 0.0
C2532 C 0.05291 0.62714 0.62085 0.0
C2533 C 0.03729 0.60458 0.64443 0.0
C2534 C 0.06077 0.64198 0.62229 0.0
C2535 C 0.07684 0.64326 0.61883 0.0
C2536 C 0.08543 0.62967 0.61403 0.0
C2537 C 0.07772 0.61469 0.61313 0.0
C2538 C 0.06153 0.61347 0.61633 0.0
H2539 H 0.03029 0.60102 0.65514 0.0
H2540 H 0.04034 0.59345 0.63779 0.0
H2541 H 0.04842 0.61041 0.64855 0.0
H2542 H 0.05437 0.65269 0.62577 0.0
H2543 H 0.08249 0.65496 0.61971 0.0
H2544 H 0.60373 0.2967 0.61025 0.0
H2545 H 0.59833 0.27091 0.62356 0.0
H2546 H 0.63573 0.24881 0.59637 0.0
H2547 H 0.64114 0.27434 0.58297 0.0
H2548 H 0.59071 0.24108 0.60493 0.0
H2549 H 0.64311 0.23532 0.64462 0.0
H2550 H 0.63607 0.25449 0.63739 0.0
H2551 H 0.64739 0.24167 0.62444 0.0
C2552 C 0.61095 0.28639 0.60729 0.0
C2553 C 0.62282 0.28752 0.59551 0.0
C2554 C 0.60782 0.2717 0.61487 0.0
C2555 C 0.61674 0.25808 0.611 0.0
C2556 C 0.62887 0.25928 0.59962 0.0
H2557 H 0.62415 0.15743 0.62306 0.0
H2558 H 0.62641 0.18609 0.61724 0.0
C2559 C 0.63186 0.27385 0.59192 0.0
C2560 C 0.61275 0.24219 0.61779 0.0
H2561 H 0.62856 0.21124 0.63915 0.0
C2562 C 0.5988 0.2346 0.61266 0.0
C2563 C 0.6234 0.23387 0.6278 0.0
C2564 C 0.63829 0.24177 0.63403 0.0
C2565 C 0.59564 0.21847 0.61654 0.0
C2566 C 0.60661 0.20993 0.62605 0.0
C2567 C 0.62022 0.2178 0.63177 0.0
C2568 C 0.60476 0.19255 0.62938 0.0
C2569 C 0.58104 0.21049 0.60971 0.0
C2570 C 0.59179 0.18668 0.6381 0.0
C2571 C 0.59037 0.17025 0.64136 0.0
C2572 C 0.60201 0.15942 0.63609 0.0
C2573 C 0.61496 0.16539 0.62731 0.0
C2574 C 0.6163 0.18178 0.624 0.0
H2575 H 0.57571 0.21767 0.59987 0.0
H2576 H 0.58382 0.19832 0.60502 0.0
H2577 H 0.57209 0.20914 0.61935 0.0
H2578 H 0.58289 0.19484 0.6426 0.0
H2579 H 0.58031 0.1661 0.64826 0.0
H2580 H 0.08604 0.36718 0.87663 0.0
H2581 H 0.05938 0.36926 0.86526 0.0
H2582 H 0.04192 0.33612 0.90098 0.0
H2583 H 0.06843 0.3339 0.91234 0.0
H2584 H 0.03078 0.33039 0.8685 0.0
H2585 H 0.02346 0.39362 0.88928 0.0
H2586 H 0.04073 0.38944 0.87745 0.0
H2587 H 0.03873 0.38068 0.89704 0.0
C2588 C 0.07652 0.3603 0.882 0.0
C2589 C 0.07926 0.3505 0.89546 0.0
C2590 C 0.06133 0.36151 0.87552 0.0
C2591 C 0.04872 0.35295 0.8824 0.0
C2592 C 0.05153 0.34282 0.89553 0.0
H2593 H 0.94929 0.36849 0.88313 0.0
H2594 H 0.97717 0.36364 0.88876 0.0
C2595 C 0.06666 0.34163 0.90203 0.0
C2596 C 0.03241 0.35499 0.87648 0.0
H2597 H 0.0021 0.3818 0.8755 0.0
C2598 C 0.0245 0.34165 0.86988 0.0
C2599 C 0.02431 0.36966 0.8785 0.0
C2600 C 0.03214 0.38417 0.88605 0.0
C2601 C 0.00854 0.34255 0.86541 0.0
C2602 C 0.00042 0.35721 0.86753 0.0
C2603 C 0.00842 0.3706 0.87389 0.0
C2604 C 0.98338 0.35879 0.86402 0.0
C2605 C 0.00034 0.32772 0.859 0.0
C2606 C 0.97765 0.35747 0.84826 0.0
C2607 C 0.96167 0.36018 0.845 0.0
C2608 C 0.95127 0.36437 0.85746 0.0
C2609 C 0.95701 0.36531 0.87327 0.0
C2610 C 0.97294 0.36257 0.87651 0.0
H2611 H 0.00735 0.31666 0.86111 0.0
H2612 H 0.98854 0.32618 0.86464 0.0
H2613 H 0.99856 0.32903 0.84586 0.0
H2614 H 0.98559 0.3548 0.83844 0.0
H2615 H 0.95759 0.35945 0.83269 0.0
H2616 H 0.89027 0.69415 0.11312 0.0
H2617 H 0.89602 0.719 0.12798 0.0
H2618 H 0.85851 0.74303 0.10262 0.0
H2619 H 0.85273 0.71842 0.0877 0.0
H2620 H 0.90417 0.7491 0.11144 0.0
H2621 H 0.85185 0.75485 0.15101 0.0
H2622 H 0.85811 0.73584 0.14266 0.0
H2623 H 0.84719 0.7498 0.13054 0.0
C2624 C 0.88307 0.70465 0.11092 0.0
C2625 C 0.87108 0.70436 0.09919 0.0
C2626 C 0.8864 0.71881 0.11939 0.0
C2627 C 0.87758 0.73273 0.11647 0.0
C2628 C 0.86529 0.73231 0.10518 0.0
H2629 H 0.8717 0.83257 0.1286 0.0
H2630 H 0.86923 0.8038 0.12359 0.0
C2631 C 0.86208 0.71827 0.09659 0.0
C2632 C 0.88197 0.7482 0.12399 0.0
H2633 H 0.86665 0.77899 0.14596 0.0
C2634 C 0.89617 0.75556 0.11928 0.0
C2635 C 0.87146 0.75648 0.13417 0.0
C2636 C 0.85635 0.7488 0.14003 0.0
C2637 C 0.89965 0.77152 0.1236 0.0
C2638 C 0.88873 0.7801 0.13313 0.0
C2639 C 0.87495 0.77238 0.13858 0.0
C2640 C 0.89061 0.7975 0.13635 0.0
C2641 C 0.91445 0.77934 0.11712 0.0
C2642 C 0.90348 0.80349 0.14519 0.0
C2643 C 0.90502 0.82002 0.14799 0.0
C2644 C 0.8936 0.83079 0.14212 0.0
C2645 C 0.88071 0.82466 0.13332 0.0
C2646 C 0.87924 0.8082 0.13047 0.0
H2647 H 0.92001 0.77204 0.1075 0.0
H2648 H 0.91183 0.79147 0.11224 0.0
H2649 H 0.92315 0.7808 0.127 0.0
H2650 H 0.91224 0.79538 0.15004 0.0
H2651 H 0.91503 0.82431 0.15492 0.0
H2652 H 0.42282 0.6743 0.40123 0.0
H2653 H 0.44964 0.67383 0.39044 0.0
H2654 H 0.44036 0.62721 0.36942 0.0
H2655 H 0.41319 0.62815 0.37939 0.0
H2656 H 0.47191 0.65512 0.39803 0.0
H2657 H 0.46249 0.64747 0.33285 0.0
H2658 H 0.44657 0.65244 0.34633 0.0
H2659 H 0.45259 0.63182 0.34373 0.0
C2660 C 0.42647 0.66408 0.39408 0.0
C2661 C 0.41603 0.65124 0.39113 0.0
C2662 C 0.44177 0.66382 0.38791 0.0
C2663 C 0.44702 0.65058 0.37891 0.0
C2664 C 0.43649 0.63779 0.37586 0.0
H2665 H 0.54296 0.61839 0.37646 0.0
H2666 H 0.51537 0.62434 0.38223 0.0
C2667 C 0.42102 0.63825 0.3817 0.0
C2668 C 0.46385 0.64956 0.37405 0.0
H2669 H 0.48823 0.64006 0.34287 0.0
C2670 C 0.47545 0.65206 0.38589 0.0
C2671 C 0.46856 0.64586 0.35817 0.0
C2672 C 0.45688 0.64443 0.34453 0.0
C2673 C 0.49155 0.65046 0.38243 0.0
C2674 C 0.49618 0.6455 0.36688 0.0
C2675 C 0.48466 0.64358 0.35487 0.0
C2676 C 0.51284 0.64171 0.36304 0.0
C2677 C 0.50338 0.65426 0.39551 0.0
C2678 C 0.52041 0.64893 0.34986 0.0
C2679 C 0.53611 0.64522 0.34628 0.0
C2680 C 0.5445 0.63435 0.35592 0.0
C2681 C 0.53685 0.62701 0.36898 0.0
C2682 C 0.52111 0.63049 0.37236 0.0
H2683 H 0.49857 0.66312 0.4042 0.0
H2684 H 0.50606 0.64311 0.40227 0.0
H2685 H 0.51456 0.65916 0.39049 0.0
H2686 H 0.51421 0.65753 0.34242 0.0
H2687 H 0.54174 0.65101 0.33611 0.0
H2688 H 0.86394 0.61411 0.8301 0.0
H2689 H 0.87466 0.61651 0.80293 0.0
H2690 H 0.83735 0.58589 0.78489 0.0
H2691 H 0.8266 0.58329 0.81209 0.0
H2692 H 0.86828 0.57834 0.77327 0.0
H2693 H 0.8538 0.64315 0.76684 0.0
H2694 H 0.86504 0.63815 0.78444 0.0
H2695 H 0.84522 0.63063 0.78227 0.0
C2696 C 0.85801 0.60789 0.82035 0.0
C2697 C 0.84437 0.5986 0.82318 0.0
C2698 C 0.86413 0.60931 0.80485 0.0
C2699 C 0.85666 0.60155 0.79193 0.0
C2700 C 0.84322 0.59202 0.79474 0.0
H2701 H 0.86753 0.62146 0.69095 0.0
H2702 H 0.8579 0.61658 0.71816 0.0
C2703 C 0.83709 0.59059 0.81025 0.0
C2704 C 0.86278 0.6035 0.77543 0.0
H2705 H 0.86897 0.63143 0.74609 0.0
C2706 C 0.86843 0.58992 0.76728 0.0
C2707 C 0.8628 0.61862 0.76768 0.0
C2708 C 0.85628 0.63347 0.77566 0.0
C2709 C 0.87426 0.5911 0.75155 0.0
C2710 C 0.87456 0.60628 0.74391 0.0
C2711 C 0.8688 0.61982 0.75204 0.0
C2712 C 0.8804 0.60839 0.72732 0.0
C2713 C 0.87976 0.57607 0.74311 0.0
C2714 C 0.89625 0.60541 0.72349 0.0
C2715 C 0.9018 0.60816 0.70791 0.0
C2716 C 0.89159 0.61405 0.69599 0.0
C2717 C 0.8757 0.61693 0.69987 0.0
C2718 C 0.87017 0.61415 0.7154 0.0
H2719 H 0.87537 0.565 0.74914 0.0
H2720 H 0.87576 0.57592 0.7304 0.0
H2721 H 0.89286 0.57578 0.74319 0.0
H2722 H 0.90439 0.60124 0.7326 0.0
H2723 H 0.91412 0.6059 0.70529 0.0
H2724 H 0.66003 0.61542 0.08405 0.0
H2725 H 0.65621 0.62323 0.05602 0.0
H2726 H 0.60676 0.61075 0.05945 0.0
H2727 H 0.61036 0.6037 0.08772 0.0
H2728 H 0.64705 0.60778 0.02996 0.0
H2729 H 0.6035 0.65559 0.04324 0.0
H2730 H 0.61438 0.64551 0.05884 0.0
H2731 H 0.59722 0.63612 0.04999 0.0
C2732 C 0.64834 0.61438 0.07882 0.0
C2733 C 0.63544 0.60918 0.08811 0.0
C2734 C 0.64618 0.6188 0.0628 0.0
C2735 C 0.63113 0.6179 0.05572 0.0
C2736 C 0.61837 0.61204 0.06479 0.0
H2737 H 0.61949 0.63217 0.95143 0.0
H2738 H 0.62148 0.61946 0.97792 0.0
C2739 C 0.62045 0.60795 0.08092 0.0
C2740 C 0.62884 0.62339 0.03894 0.0
H2741 H 0.60809 0.6498 0.01589 0.0
C2742 C 0.63854 0.61699 0.02686 0.0
C2743 C 0.61782 0.6355 0.03495 0.0
C2744 C 0.60775 0.6437 0.04746 0.0
C2745 C 0.63775 0.62256 0.01097 0.0
C2746 C 0.62656 0.63449 0.00697 0.0
C2747 C 0.61661 0.6406 0.01897 0.0
C2748 C 0.62565 0.64178 0.99075 0.0
C2749 C 0.64933 0.61609 -0.00116 0.0
C2750 C 0.62697 0.65854 0.98919 0.0
C2751 C 0.62543 0.66581 0.97422 0.0
C2752 C 0.62275 0.65646 0.96041 0.0
C2753 C 0.62169 0.63965 0.96187 0.0
C2754 C 0.62293 0.63237 0.97698 0.0
H2755 H 0.65967 0.61039 0.00474 0.0
H2756 H 0.64338 0.6068 0.99137 0.0
H2757 H 0.65368 0.62578 0.99078 0.0
H2758 H 0.62912 0.66605 -0.00037 0.0
H2759 H 0.62643 0.67878 0.97346 0.0
H2760 H 0.63071 0.37479 0.19787 0.0
H2761 H 0.63679 0.37856 0.22634 0.0
H2762 H 0.5876 0.38773 0.23606 0.0
H2763 H 0.58148 0.38439 0.20751 0.0
H2764 H 0.60701 0.40835 0.25227 0.0
H2765 H 0.62678 0.34548 0.26062 0.0
H2766 H 0.63746 0.35575 0.24507 0.0
H2767 H 0.61661 0.35207 0.24276 0.0
C2768 C 0.6212 0.37768 0.20606 0.0
C2769 C 0.6056 0.37916 0.20051 0.0
C2770 C 0.62468 0.37973 0.22233 0.0
C2771 C 0.61259 0.38305 0.23334 0.0
C2772 C 0.59708 0.38505 0.22775 0.0
H2773 H 0.62507 0.36988 0.33619 0.0
H2774 H 0.61558 0.36843 0.30851 0.0
C2775 C 0.59361 0.38314 0.21145 0.0
C2776 C 0.61611 0.38425 0.25071 0.0
H2777 H 0.63243 0.36372 0.28199 0.0
C2778 C 0.61248 0.39857 0.25882 0.0
C2779 C 0.62292 0.37134 0.25928 0.0
C2780 C 0.62602 0.35524 0.25154 0.0
C2781 C 0.61593 0.4005 0.27521 0.0
C2782 C 0.62354 0.3879 0.28355 0.0
C2783 C 0.62675 0.37343 0.27553 0.0
C2784 C 0.62853 0.38948 0.30054 0.0
C2785 C 0.61118 0.41591 0.28343 0.0
C2786 C 0.63898 0.40177 0.30523 0.0
C2787 C 0.64433 0.40272 0.32107 0.0
C2788 C 0.63953 0.39121 0.33247 0.0
C2789 C 0.62905 0.3789 0.32772 0.0
C2790 C 0.62359 0.37806 0.31191 0.0
H2791 H 0.6013 0.42188 0.27701 0.0
H2792 H 0.60753 0.4137 0.29605 0.0
H2793 H 0.62138 0.42435 0.28351 0.0
H2794 H 0.64328 0.41045 0.29656 0.0
H2795 H 0.65248 0.41229 0.32429 0.0
H2796 H 0.83628 0.39319 0.58062 0.0
H2797 H 0.84059 0.38764 0.5521 0.0
H2798 H 0.88761 0.37099 0.56264 0.0
H2799 H 0.88348 0.37637 0.59115 0.0
H2800 H 0.86573 0.3999 0.53114 0.0
H2801 H 0.86584 0.33341 0.53789 0.0
H2802 H 0.85795 0.34667 0.55306 0.0
H2803 H 0.87893 0.34404 0.55125 0.0
C2804 C 0.84753 0.38829 0.57692 0.0
C2805 C 0.8595 0.38512 0.58824 0.0
C2806 C 0.84998 0.38521 0.5606 0.0
C2807 C 0.86435 0.37881 0.55535 0.0
C2808 C 0.87636 0.37577 0.56653 0.0
H2809 H 0.90305 0.3421 0.46794 0.0
H2810 H 0.89883 0.35342 0.49461 0.0
C2811 C 0.87396 0.37886 0.58283 0.0
C2812 C 0.86679 0.37502 0.53819 0.0
H2813 H 0.87362 0.34378 0.51266 0.0
C2814 C 0.86738 0.38765 0.52702 0.0
C2815 C 0.86887 0.35902 0.53295 0.0
C2816 C 0.86774 0.34496 0.54436 0.0
C2817 C 0.87053 0.38469 0.51071 0.0
C2818 C 0.87287 0.36867 0.50552 0.0
C2819 C 0.87196 0.35607 0.5167 0.0
C2820 C 0.8765 0.36448 0.48865 0.0
C2821 C 0.87178 0.3987 0.49928 0.0
C2822 C 0.86557 0.36741 0.47629 0.0
C2823 C 0.86805 0.36106 0.46092 0.0
C2824 C 0.88134 0.35147 0.45783 0.0
C2825 C 0.89262 0.3493 0.47002 0.0
C2826 C 0.89024 0.35577 0.48526 0.0
H2827 H 0.8736 0.41026 0.50575 0.0
H2828 H 0.88166 0.39698 0.4907 0.0
H2829 H 0.86067 0.3996 0.49226 0.0
H2830 H 0.85476 0.37386 0.47873 0.0
H2831 H 0.85911 0.36283 0.45177 0.0
H2832 H 0.90303 0.37523 0.79817 0.0
H2833 H 0.89757 0.37759 0.76942 0.0
H2834 H 0.85285 0.39982 0.77988 0.0
H2835 H 0.85816 0.39765 0.80862 0.0
H2836 H 0.87112 0.36434 0.75256 0.0
H2837 H 0.87407 0.43086 0.74758 0.0
H2838 H 0.88223 0.42005 0.76445 0.0
H2839 H 0.86134 0.42363 0.76327 0.0
C2840 C 0.89206 0.38071 0.79439 0.0
C2841 C 0.88104 0.38628 0.80573 0.0
C2842 C 0.88898 0.38203 0.77795 0.0
C2843 C 0.87492 0.38906 0.77258 0.0
C2844 C 0.8639 0.39461 0.78382 0.0
H2845 H 0.82624 0.40634 0.6842 0.0
H2846 H 0.83565 0.40435 0.71188 0.0
C2847 C 0.86693 0.39327 0.80025 0.0
C2848 C 0.87146 0.3901 0.75522 0.0
H2849 H 0.86326 0.4167 0.72523 0.0
C2850 C 0.86955 0.37577 0.7465 0.0
C2851 C 0.86946 0.40504 0.74743 0.0
C2852 C 0.87201 0.42079 0.7561 0.0
C2853 C 0.86506 0.37597 0.73028 0.0
C2854 C 0.86274 0.39092 0.72256 0.0
C2855 C 0.86502 0.40526 0.73121 0.0
C2856 C 0.85726 0.392 0.70573 0.0
C2857 C 0.86226 0.36019 0.72171 0.0
C2858 C 0.86638 0.38583 0.6931 0.0
C2859 C 0.86098 0.38687 0.67726 0.0
C2860 C 0.84646 0.39423 0.67382 0.0
C2861 C 0.83747 0.40058 0.68648 0.0
C2862 C 0.84283 0.39948 0.70229 0.0
H2863 H 0.86099 0.35002 0.73027 0.0
H2864 H 0.85149 0.36075 0.71412 0.0
H2865 H 0.87247 0.35763 0.71379 0.0
H2866 H 0.8777 0.38031 0.69548 0.0
H2867 H 0.86821 0.38199 0.66772 0.0
H2868 H 0.8293 0.60926 0.91409 0.0
H2869 H 0.83267 0.61559 0.94261 0.0
H2870 H 0.88328 0.61603 0.93653 0.0
H2871 H 0.88003 0.61024 0.90799 0.0
H2872 H 0.84734 0.59955 0.96651 0.0
H2873 H 0.87625 0.65885 0.95768 0.0
H2874 H 0.86681 0.64805 0.94148 0.0
H2875 H 0.88651 0.64287 0.94775 0.0
C2876 C 0.84114 0.61081 0.91881 0.0
C2877 C 0.85439 0.60945 0.90873 0.0
C2878 C 0.84304 0.61438 0.93511 0.0
C2879 C 0.85821 0.61657 0.94161 0.0
C2880 C 0.87145 0.61483 0.93166 0.0
H2881 H 0.88222 0.61722 0.04368 0.0
H2882 H 0.87758 0.6092 0.01571 0.0
C2883 C 0.86957 0.61148 0.91535 0.0
C2884 C 0.86021 0.6206 0.95883 0.0
H2885 H 0.87685 0.64817 0.98414 0.0
C2886 C 0.85371 0.61023 0.9704 0.0
C2887 C 0.86837 0.63463 0.96384 0.0
C2888 C 0.87474 0.64682 0.95204 0.0
C2889 C 0.85529 0.61343 0.98689 0.0
C2890 C 0.86393 0.62717 0.99188 0.0
C2891 C 0.87034 0.63757 0.98029 0.0
C2892 C 0.86609 0.63143 0.00902 0.0
C2893 C 0.84737 0.6023 -0.00125 0.0
C2894 C 0.86145 0.64666 0.01445 0.0
C2895 C 0.86439 0.65137 0.03024 0.0
C2896 C 0.87191 0.64088 0.04098 0.0
C2897 C 0.87631 0.6255 0.03567 0.0
C2898 C 0.87356 0.62086 0.01974 0.0
H2899 H 0.83772 0.5952 0.99304 0.0
H2900 H 0.85622 0.5937 0.00347 0.0
H2901 H 0.8424 0.6091 0.00904 0.0
H2902 H 0.8557 0.65502 0.00638 0.0
H2903 H 0.86082 0.66328 0.03398 0.0
H2904 H 0.59523 0.62961 0.2976 0.0
H2905 H 0.60068 0.62644 0.26894 0.0
H2906 H 0.64526 0.60422 0.2801 0.0
H2907 H 0.63996 0.60722 0.30877 0.0
H2908 H 0.6276 0.63804 0.25078 0.0
H2909 H 0.62197 0.57144 0.25046 0.0
H2910 H 0.61438 0.58377 0.26653 0.0
H2911 H 0.63512 0.5794 0.26549 0.0
C2912 C 0.60622 0.62408 0.29399 0.0
C2913 C 0.61712 0.61859 0.30551 0.0
C2914 C 0.6093 0.6223 0.27761 0.0
C2915 C 0.62324 0.61489 0.27248 0.0
C2916 C 0.63431 0.60973 0.28388 0.0
H2917 H 0.66863 0.58965 0.18429 0.0
H2918 H 0.66011 0.59381 0.212 0.0
C2919 C 0.63128 0.61155 0.30025 0.0
C2920 C 0.6263 0.61256 0.25519 0.0
H2921 H 0.6324 0.58357 0.2269 0.0
C2922 C 0.62853 0.62615 0.24548 0.0
C2923 C 0.62742 0.59703 0.2484 0.0
C2924 C 0.62446 0.58205 0.2582 0.0
C2925 C 0.63248 0.62461 0.22919 0.0
C2926 C 0.63392 0.60905 0.22247 0.0
C2927 C 0.63133 0.59547 0.23212 0.0
C2928 C 0.63878 0.60654 0.20561 0.0
C2929 C 0.63563 0.6396 0.21947 0.0
C2930 C 0.62947 0.61213 0.19285 0.0
C2931 C 0.63434 0.60983 0.17699 0.0
C2932 C 0.64853 0.60177 0.17367 0.0
C2933 C 0.65766 0.59592 0.18647 0.0
C2934 C 0.65281 0.59828 0.2023 0.0
H2935 H 0.63755 0.6503 0.22725 0.0
H2936 H 0.64614 0.63804 0.21167 0.0
H2937 H 0.62529 0.64201 0.21164 0.0
H2938 H 0.61844 0.61824 0.19517 0.0
H2939 H 0.62702 0.61437 0.16734 0.0
H2940 H 0.62017 0.38075 0.54966 0.0
H2941 H 0.62774 0.39153 0.52331 0.0
H2942 H 0.63685 0.34342 0.50637 0.0
H2943 H 0.62937 0.33259 0.53252 0.0
H2944 H 0.66122 0.3671 0.4995 0.0
H2945 H 0.60073 0.38604 0.48145 0.0
H2946 H 0.60777 0.39302 0.50065 0.0
H2947 H 0.60418 0.37195 0.49755 0.0
C2948 C 0.62375 0.3725 0.54029 0.0
C2949 C 0.62412 0.35584 0.5431 0.0
C2950 C 0.62804 0.37866 0.52528 0.0
C2951 C 0.63273 0.36822 0.51294 0.0
C2952 C 0.63325 0.35163 0.51578 0.0
H2953 H 0.63926 0.37874 0.41068 0.0
H2954 H 0.63443 0.37011 0.43836 0.0
C2955 C 0.62893 0.34548 0.53071 0.0
C2956 C 0.63699 0.37442 0.49693 0.0
H2957 H 0.62133 0.39105 0.46308 0.0
C2958 C 0.65256 0.37244 0.49154 0.0
C2959 C 0.62556 0.3812 0.48662 0.0
C2960 C 0.60858 0.38312 0.49174 0.0
C2961 C 0.65701 0.37701 0.47597 0.0
C2962 C 0.64557 0.38378 0.46567 0.0
C2963 C 0.63003 0.38586 0.4711 0.0
C2964 C 0.64936 0.38844 0.44903 0.0
C2965 C 0.67375 0.37421 0.47049 0.0
C2966 C 0.65943 0.40151 0.44597 0.0
C2967 C 0.66219 0.40649 0.43021 0.0
C2968 C 0.65488 0.39846 0.4173 0.0
C2969 C 0.64506 0.38514 0.4204 0.0
C2970 C 0.64227 0.38022 0.43617 0.0
H2971 H 0.68031 0.36623 0.47883 0.0
H2972 H 0.67387 0.36877 0.4583 0.0
H2973 H 0.68009 0.38591 0.46985 0.0
H2974 H 0.66486 0.40809 0.4558 0.0
H2975 H 0.66979 0.4168 0.42816 0.0
H2976 H 0.71208 0.91616 0.61011 0.0
H2977 H 0.74008 0.91023 0.60535 0.0
H2978 H 0.73313 0.86226 0.62375 0.0
H2979 H 0.70527 0.86799 0.62851 0.0
H2980 H 0.7598 0.88278 0.63744 0.0
H2981 H 0.75835 0.87655 0.57075 0.0
H2982 H 0.74826 0.89323 0.57997 0.0
H2983 H 0.74099 0.87317 0.58293 0.0
C2984 C 0.71651 0.90433 0.61304 0.0
C2985 C 0.7065 0.89254 0.6197 0.0
C2986 C 0.73246 0.90097 0.61029 0.0
C2987 C 0.73855 0.88582 0.61419 0.0
C2988 C 0.72858 0.87402 0.62069 0.0
H2989 H 0.82108 0.83181 0.5935 0.0
H2990 H 0.79477 0.8434 0.59637 0.0
C2991 C 0.71267 0.87732 0.62337 0.0
C2992 C 0.75544 0.88222 0.61198 0.0
H2993 H 0.78257 0.87167 0.58369 0.0
C2994 C 0.76489 0.88052 0.6257 0.0
C2995 C 0.76184 0.87919 0.59665 0.0
C2996 C 0.75191 0.88054 0.58166 0.0
C2997 C 0.78062 0.87545 0.62452 0.0
C2998 C 0.78702 0.8722 0.60917 0.0
C2999 C 0.77762 0.87426 0.59542 0.0
C3000 C 0.80307 0.86557 0.60721 0.0
C3001 C 0.79001 0.87297 0.63973 0.0
C3002 C 0.81644 0.87427 0.61226 0.0
C3003 C 0.83148 0.8676 0.61078 0.0
C3004 C 0.83337 0.85222 0.60405 0.0
C3005 C 0.81998 0.84367 0.59876 0.0
C3006 C 0.80496 0.85029 0.60034 0.0
H3007 H 0.78233 0.87263 0.65054 0.0
H3008 H 0.79681 0.8616 0.63915 0.0
H3009 H 0.79853 0.88305 0.64121 0.0
H3010 H 0.81523 0.88621 0.61732 0.0
H3011 H 0.84162 0.87452 0.61481 0.0
H3012 H 0.19833 0.63161 0.36814 0.0
H3013 H 0.22659 0.63745 0.37043 0.0
H3014 H 0.23323 0.59331 0.39673 0.0
H3015 H 0.20505 0.58717 0.39413 0.0
H3016 H 0.24623 0.64143 0.39605 0.0
H3017 H 0.26432 0.5885 0.35997 0.0
H3018 H 0.24409 0.5951 0.36116 0.0
H3019 H 0.25254 0.5834 0.37715 0.0
C3020 C 0.20579 0.6232 0.37451 0.0
C3021 C 0.19952 0.60885 0.38082 0.0
C3022 C 0.22193 0.62655 0.37579 0.0
C3023 C 0.23204 0.61564 0.38343 0.0
C3024 C 0.22569 0.60168 0.39041 0.0
H3025 H 0.3286 0.63686 0.41206 0.0
H3026 H 0.30044 0.63045 0.41136 0.0
C3027 C 0.20957 0.59825 0.38902 0.0
C3028 C 0.24926 0.6188 0.38386 0.0
H3029 H 0.28487 0.60335 0.37266 0.0
C3030 C 0.2547 0.63312 0.39093 0.0
C3031 C 0.26022 0.60807 0.3769 0.0
C3032 C 0.25502 0.59298 0.36822 0.0
C3033 C 0.27085 0.63693 0.39141 0.0
C3034 C 0.28186 0.6259 0.38499 0.0
C3035 C 0.27641 0.61168 0.37774 0.0
C3036 C 0.29908 0.62904 0.38544 0.0
C3037 C 0.27593 0.65288 0.39845 0.0
C3038 C 0.3078 0.62967 0.37112 0.0
C3039 C 0.32397 0.63311 0.37147 0.0
C3040 C 0.3317 0.63601 0.38616 0.0
C3041 C 0.32299 0.6349 0.40051 0.0
C3042 C 0.30686 0.63133 0.40015 0.0
H3043 H 0.26606 0.66165 0.39858 0.0
H3044 H 0.27984 0.65106 0.41104 0.0
H3045 H 0.28592 0.65818 0.39159 0.0
H3046 H 0.30202 0.62781 0.35964 0.0
H3047 H 0.33032 0.63386 0.3602 0.0
H3048 H 0.59108 0.06698 0.67379 0.0
H3049 H 0.60171 0.03978 0.67128 0.0
H3050 H 0.61177 0.04862 0.62118 0.0
H3051 H 0.60229 0.07621 0.62409 0.0
H3052 H 0.59178 0.01617 0.6556 0.0
H3053 H 0.65183 0.02827 0.63269 0.0
H3054 H 0.63933 0.04411 0.64007 0.0
H3055 H 0.63744 0.03704 0.61965 0.0
C3056 C 0.59579 0.06312 0.66233 0.0
C3057 C 0.59596 0.07358 0.64914 0.0
C3058 C 0.60185 0.04761 0.66088 0.0
C3059 C 0.60782 0.04216 0.6461 0.0
C3060 C 0.60781 0.05265 0.63286 0.0
H3061 H 0.6096 0.94022 0.62332 0.0
H3062 H 0.60296 0.96869 0.62616 0.0
C3063 C 0.60223 0.06835 0.63447 0.0
C3064 C 0.61296 0.02519 0.64431 0.0
H3065 H 0.64193 0.00137 0.62884 0.0
C3066 C 0.60287 0.01298 0.64993 0.0
C3067 C 0.62753 0.02093 0.63715 0.0
C3068 C 0.6397 0.03331 0.63223 0.0
C3069 C 0.60678 0.9967 0.64843 0.0
C3070 C 0.62079 0.99242 0.64023 0.0
C3071 C 0.63104 0.00461 0.63485 0.0
C3072 C 0.62517 0.97539 0.63738 0.0
C3073 C 0.59601 0.98436 0.65608 0.0
C3074 C 0.64022 0.96986 0.64178 0.0
C3075 C 0.64423 0.95374 0.63957 0.0
C3076 C 0.63316 0.94283 0.6332 0.0
C3077 C 0.61825 0.9484 0.62847 0.0
C3078 C 0.61441 0.96461 0.63024 0.0
H3079 H 0.5893 0.98961 0.66626 0.0
H3080 H 0.58727 0.98009 0.64706 0.0
H3081 H 0.60273 0.97386 0.66061 0.0
H3082 H 0.64877 0.97794 0.64722 0.0
H3083 H 0.65579 0.94969 0.64338 0.0
H3084 H 0.16289 0.37808 0.86996 0.0
H3085 H 0.19111 0.38453 0.86968 0.0
H3086 H 0.19746 0.35796 0.91367 0.0
H3087 H 0.16929 0.35178 0.91431 0.0
H3088 H 0.21354 0.38633 0.91403 0.0
H3089 H 0.2255 0.35297 0.85761 0.0
H3090 H 0.21067 0.36817 0.85549 0.0
H3091 H 0.20706 0.35115 0.86831 0.0
C3092 C 0.17027 0.37363 0.8796 0.0
C3093 C 0.16382 0.3643 0.89208 0.0
C3094 C 0.18641 0.37726 0.87937 0.0
C3095 C 0.19641 0.37145 0.89149 0.0
C3096 C 0.18995 0.36249 0.90416 0.0
H3097 H 0.29816 0.36483 0.88271 0.0
H3098 H 0.2701 0.35916 0.88702 0.0
C3099 C 0.17383 0.35896 0.90447 0.0
C3100 C 0.21363 0.37456 0.89096 0.0
H3101 H 0.24649 0.36889 0.86803 0.0
C3102 C 0.22078 0.38249 0.904 0.0
C3103 C 0.22305 0.36926 0.878 0.0
C3104 C 0.21623 0.35977 0.86413 0.0
C3105 C 0.23711 0.38548 0.90432 0.0
C3106 C 0.24643 0.38072 0.89107 0.0
C3107 C 0.2393 0.37261 0.87813 0.0
C3108 C 0.26359 0.38411 0.89019 0.0
C3109 C 0.24423 0.39342 0.91896 0.0
C3110 C 0.26926 0.39999 0.89076 0.0
C3111 C 0.28531 0.40325 0.88849 0.0
C3112 C 0.2959 0.39068 0.88532 0.0
C3113 C 0.29026 0.37476 0.88511 0.0
C3114 C 0.27425 0.3715 0.88754 0.0
H3115 H 0.23662 0.39178 0.92971 0.0
H3116 H 0.25613 0.38853 0.92164 0.0
H3117 H 0.24543 0.40652 0.91674 0.0
H3118 H 0.26121 0.40993 0.89241 0.0
H3119 H 0.28929 0.41565 0.88859 0.0
H3120 H 0.37998 0.40904 0.63295 0.0
H3121 H 0.36775 0.43547 0.62985 0.0
H3122 H 0.40511 0.45697 0.65801 0.0
H3123 H 0.41734 0.43057 0.66133 0.0
H3124 H 0.37384 0.46703 0.66649 0.0
H3125 H 0.38575 0.47157 0.60091 0.0
H3126 H 0.37549 0.45373 0.60737 0.0
H3127 H 0.39555 0.45712 0.61361 0.0
C3128 C 0.38561 0.4194 0.63846 0.0
C3129 C 0.39968 0.41777 0.64729 0.0
C3130 C 0.37862 0.43447 0.63666 0.0
C3131 C 0.38563 0.44814 0.64358 0.0
C3132 C 0.39955 0.44653 0.65257 0.0
H3133 H 0.37837 0.54806 0.62343 0.0
H3134 H 0.38572 0.52017 0.62834 0.0
C3135 C 0.40655 0.43147 0.65439 0.0
C3136 C 0.37866 0.46422 0.64126 0.0
H3137 H 0.3718 0.49289 0.61285 0.0
C3138 C 0.37328 0.47269 0.65477 0.0
C3139 C 0.37805 0.47151 0.62594 0.0
C3140 C 0.38411 0.46311 0.61111 0.0
C3141 C 0.3675 0.48842 0.65339 0.0
C3142 C 0.36702 0.49573 0.63808 0.0
C3143 C 0.37214 0.48716 0.62455 0.0
C3144 C 0.36238 0.51269 0.63592 0.0
C3145 C 0.36246 0.49731 0.66832 0.0
C3146 C 0.3468 0.51769 0.63864 0.0
C3147 C 0.34253 0.53369 0.63585 0.0
C3148 C 0.3538 0.54484 0.63024 0.0
C3149 C 0.36941 0.53977 0.62773 0.0
C3150 C 0.37364 0.52384 0.63051 0.0
H3151 H 0.36602 0.49093 0.67946 0.0
H3152 H 0.36765 0.50961 0.6685 0.0
H3153 H 0.34941 0.49851 0.66834 0.0
H3154 H 0.33791 0.50918 0.64264 0.0
H3155 H 0.33041 0.53725 0.63784 0.0
H3156 H 0.79348 0.09135 0.12495 0.0
H3157 H 0.76504 0.09542 0.12178 0.0
H3158 H 0.77382 0.1422 0.10125 0.0
H3159 H 0.80223 0.1383 0.10426 0.0
H3160 H 0.74614 0.12138 0.1345 0.0
H3161 H 0.74532 0.11876 0.06785 0.0
H3162 H 0.76159 0.11124 0.07967 0.0
H3163 H 0.75963 0.13246 0.0762 0.0
C3164 C 0.78939 0.10252 0.11976 0.0
C3165 C 0.80017 0.11447 0.1148 0.0
C3166 C 0.77314 0.1048 0.11796 0.0
C3167 C 0.7674 0.11899 0.11106 0.0
C3168 C 0.77807 0.13105 0.10635 0.0
H3169 H 0.67933 0.16336 0.08858 0.0
H3170 H 0.70675 0.15498 0.09171 0.0
C3171 C 0.7943 0.12882 0.10817 0.0
C3172 C 0.75024 0.12139 0.109 0.0
H3173 H 0.72193 0.12795 0.0806 0.0
C3174 C 0.74076 0.12266 0.12273 0.0
C3175 C 0.74336 0.12302 0.09361 0.0
C3176 C 0.75295 0.12117 0.07846 0.0
C3177 C 0.72461 0.12619 0.12152 0.0
C3178 C 0.71777 0.12813 0.10612 0.0
C3179 C 0.72722 0.12646 0.09238 0.0
C3180 C 0.70105 0.13277 0.104 0.0
C3181 C 0.71517 0.12845 0.13671 0.0
C3182 C 0.68873 0.12291 0.10964 0.0
C3183 C 0.67301 0.12773 0.10795 0.0
C3184 C 0.6694 0.14239 0.10045 0.0
C3185 C 0.68174 0.15201 0.09445 0.0
C3186 C 0.69742 0.14724 0.09621 0.0
H3187 H 0.72291 0.13027 0.14736 0.0
H3188 H 0.70715 0.13892 0.13565 0.0
H3189 H 0.70783 0.11756 0.13886 0.0
H3190 H 0.69128 0.11153 0.11536 0.0
H3191 H 0.66372 0.12002 0.11258 0.0
H3192 H 0.60393 0.05474 0.87171 0.0
H3193 H 0.59902 0.02577 0.873 0.0
H3194 H 0.64878 0.01694 0.8663 0.0
H3195 H 0.65385 0.04588 0.8657 0.0
H3196 H 0.60293 0.00369 0.85136 0.0
H3197 H 0.64036 0.98804 0.90349 0.0
H3198 H 0.63594 0.00858 0.89827 0.0
H3199 H 0.65153 0.99798 0.88811 0.0
C3200 C 0.61384 0.04662 0.87062 0.0
C3201 C 0.62929 0.05258 0.86869 0.0
C3202 C 0.61102 0.03007 0.87139 0.0
C3203 C 0.62357 0.01916 0.87007 0.0
C3204 C 0.63897 0.0251 0.86788 0.0
H3205 H 0.61099 0.9204 0.83959 0.0
H3206 H 0.61718 0.94903 0.84185 0.0
C3207 C 0.64184 0.04165 0.8674 0.0
C3208 C 0.62037 0.00159 0.8701 0.0
H3209 H 0.63157 0.96604 0.88707 0.0
C3210 C 0.60911 0.99549 0.85928 0.0
C3211 C 0.62823 0.99088 0.88061 0.0
C3212 C 0.63955 0.99673 0.89339 0.0
C3213 C 0.60569 0.979 0.85843 0.0
C3214 C 0.61423 0.96819 0.86826 0.0
C3215 C 0.62523 0.9743 0.87935 0.0
C3216 C 0.61178 0.95055 0.86722 0.0
C3217 C 0.59273 0.97341 0.84722 0.0
C3218 C 0.6076 0.94167 0.88093 0.0
C3219 C 0.60441 0.92518 0.87975 0.0
C3220 C 0.60523 0.91736 0.8648 0.0
C3221 C 0.61 0.92616 0.85122 0.0
C3222 C 0.61344 0.94255 0.85247 0.0
H3223 H 0.58422 0.9832 0.84465 0.0
H3224 H 0.59802 0.96966 0.83563 0.0
H3225 H 0.58612 0.96303 0.85231 0.0
H3226 H 0.60639 0.94758 0.89247 0.0
H3227 H 0.60079 0.9187 0.89042 0.0
H3228 H 0.87524 0.08415 0.38171 0.0
H3229 H 0.86716 0.05587 0.3826 0.0
H3230 H 0.89504 0.04624 0.34037 0.0
H3231 H 0.90283 0.07448 0.3391 0.0
H3232 H 0.86632 0.03204 0.33866 0.0
H3233 H 0.89432 0.01892 0.39748 0.0
H3234 H 0.88033 0.03504 0.39822 0.0
H3235 H 0.89811 0.03729 0.3866 0.0
C3236 C 0.87968 0.07601 0.37263 0.0
C3237 C 0.88977 0.08157 0.3604 0.0
C3238 C 0.8751 0.05984 0.37321 0.0
C3239 C 0.88073 0.04892 0.36172 0.0
C3240 C 0.89061 0.05447 0.34939 0.0
H3241 H 0.88123 0.94541 0.37149 0.0
H3242 H 0.8881 0.97381 0.36806 0.0
C3243 C 0.89507 0.07063 0.34871 0.0
C3244 C 0.87635 0.03167 0.36244 0.0
H3245 H 0.87822 -0.00163 0.38625 0.0
C3246 C 0.86895 0.02465 0.34904 0.0
C3247 C 0.88 0.02203 0.37592 0.0
C3248 C 0.88877 0.02864 0.39031 0.0
C3249 C 0.86501 0.00824 0.34877 0.0
C3250 C 0.86824 -0.00129 0.36244 0.0
C3251 C 0.87569 0.00573 0.37581 0.0
C3252 C 0.86415 0.98139 0.36317 0.0
C3253 C 0.85779 0.00122 0.33371 0.0
C3254 C 0.84842 0.97623 0.3614 0.0
C3255 C 0.8445 0.95998 0.36315 0.0
C3256 C 0.85621 0.94869 0.36699 0.0
C3257 C 0.87196 0.95385 0.36854 0.0
C3258 C 0.8759 0.97006 0.36662 0.0
H3259 H 0.86039 0.00877 0.32302 0.0
H3260 H 0.86218 0.98886 0.33143 0.0
H3261 H 0.84476 0.00062 0.33513 0.0
H3262 H 0.83911 0.98481 0.35911 0.0
H3263 H 0.83224 0.95637 0.36203 0.0
H3264 H 0.37721 0.30162 0.12985 0.0
H3265 H 0.38268 0.27341 0.13595 0.0
H3266 H 0.40053 0.2665 0.08795 0.0
H3267 H 0.39527 0.29474 0.08179 0.0
H3268 H 0.36998 0.24649 0.11997 0.0
H3269 H 0.43557 0.24789 0.1167 0.0
H3270 H 0.42388 0.2659 0.11846 0.0
H3271 H 0.42552 0.25583 0.09945 0.0
C3272 C 0.38242 0.29413 0.12064 0.0
C3273 C 0.38584 0.30039 0.10535 0.0
C3274 C 0.38551 0.27803 0.12413 0.0
C3275 C 0.39215 0.26795 0.11245 0.0
C3276 C 0.39566 0.27417 0.09721 0.0
H3277 H 0.39072 0.1629 0.11985 0.0
H3278 H 0.38807 0.19044 0.10974 0.0
C3279 C 0.39257 0.29028 0.0937 0.0
C3280 C 0.39479 0.25078 0.11609 0.0
H3281 H 0.42348 0.22239 0.12022 0.0
C3282 C 0.38166 0.24118 0.11999 0.0
C3283 C 0.41006 0.24398 0.11616 0.0
C3284 C 0.42461 0.25392 0.11261 0.0
C3285 C 0.38341 0.22494 0.12411 0.0
C3286 C 0.39866 0.2181 0.12406 0.0
C3287 C 0.41179 0.22767 0.12007 0.0
C3288 C 0.40132 0.20132 0.12921 0.0
C3289 C 0.36897 0.21538 0.12896 0.0
C3290 C 0.41011 0.19832 0.14316 0.0
C3291 C 0.4117 0.18266 0.1489 0.0
C3292 C 0.40455 0.16971 0.14076 0.0
C3293 C 0.39625 0.17266 0.12644 0.0
C3294 C 0.39468 0.18837 0.12069 0.0
H3295 H 0.35873 0.22326 0.13161 0.0
H3296 H 0.36556 0.20718 0.11901 0.0
H3297 H 0.37146 0.20794 0.13973 0.0
H3298 H 0.41537 0.20817 0.14987 0.0
H3299 H 0.41824 0.18075 0.15992 0.0
H3300 H 0.56796 0.68816 0.89112 0.0
H3301 H 0.54217 0.67831 0.88218 0.0
H3302 H 0.55697 0.62946 0.89057 0.0
H3303 H 0.58308 0.63924 0.89903 0.0
H3304 H 0.5382 0.63185 0.86383 0.0
H3305 H 0.51062 0.66315 0.91532 0.0
H3306 H 0.52139 0.67669 0.90259 0.0
H3307 H 0.53172 0.66116 0.91333 0.0
C3308 C 0.56579 0.67531 0.89089 0.0
C3309 C 0.57744 0.66448 0.89602 0.0
C3310 C 0.55104 0.6697 0.88584 0.0
C3311 C 0.54751 0.65319 0.88619 0.0
C3312 C 0.55941 0.64227 0.89037 0.0
H3313 H 0.44963 0.62243 0.89214 0.0
H3314 H 0.47788 0.62618 0.89692 0.0
C3315 C 0.57431 0.64786 0.89519 0.0
C3316 C 0.53115 0.64752 0.88312 0.0
H3317 H 0.49313 0.65289 0.8954 0.0
C3318 C 0.52832 0.63634 0.87078 0.0
C3319 C 0.51833 0.65309 0.89247 0.0
C3320 C 0.52066 0.66404 0.90678 0.0
C3321 C 0.51293 0.63094 0.86723 0.0
C3322 C 0.50003 0.63726 0.87599 0.0
C3323 C 0.50297 0.64814 0.88857 0.0
C3324 C 0.48333 0.63298 0.87242 0.0
C3325 C 0.51073 0.61836 0.85434 0.0
C3326 C 0.47697 0.63529 0.857 0.0
C3327 C 0.46084 0.63284 0.85418 0.0
C3328 C 0.45072 0.62847 0.86684 0.0
C3329 C 0.45713 0.62592 0.88219 0.0
C3330 C 0.47328 0.62803 0.88492 0.0
H3331 H 0.52157 0.61105 0.85277 0.0
H3332 H 0.50071 0.61016 0.85716 0.0
H3333 H 0.50825 0.62439 0.84273 0.0
H3334 H 0.48435 0.63956 0.84727 0.0
H3335 H 0.45619 0.63504 0.84226 0.0
H3336 H 0.13071 0.69737 0.62828 0.0
H3337 H 0.12438 0.72526 0.63474 0.0
H3338 H 0.09078 0.72631 0.59572 0.0
H3339 H 0.09763 0.69861 0.58875 0.0
H3340 H 0.10794 0.75245 0.5954 0.0
H3341 H 0.08707 0.74297 0.65752 0.0
H3342 H 0.10672 0.73547 0.65507 0.0
H3343 H 0.09065 0.72646 0.64396 0.0
C3344 C 0.12187 0.70351 0.62119 0.0
C3345 C 0.11461 0.69584 0.60807 0.0
C3346 C 0.11818 0.71941 0.62495 0.0
C3347 C 0.10685 0.72778 0.61593 0.0
C3348 C 0.0995 0.72007 0.60289 0.0
H3349 H 0.0737 0.81967 0.65245 0.0
H3350 H 0.07474 0.79211 0.64231 0.0
C3351 C 0.1034 0.70425 0.59894 0.0
C3352 C 0.10324 0.7448 0.61968 0.0
H3353 H 0.09407 0.77008 0.65049 0.0
C3354 C 0.1047 0.7563 0.6074 0.0
C3355 C 0.0987 0.74979 0.63524 0.0
C3356 C 0.09552 0.73798 0.64863 0.0
C3357 C 0.10225 0.77271 0.6104 0.0
C3358 C 0.09883 0.7778 0.62624 0.0
C3359 C 0.09689 0.76624 0.63838 0.0
C3360 C 0.09746 0.79502 0.63069 0.0
C3361 C 0.10316 0.78431 0.5965 0.0
C3362 C 0.10977 0.80593 0.62732 0.0
C3363 C 0.109 0.82181 0.6328 0.0
C3364 C 0.09616 0.82684 0.64215 0.0
C3365 C 0.08379 0.81602 0.64534 0.0
C3366 C 0.08437 0.80029 0.63956 0.0
H3367 H 0.10021 0.77825 0.58497 0.0
H3368 H 0.09503 0.79461 0.59817 0.0
H3369 H 0.11541 0.78902 0.59549 0.0
H3370 H 0.12021 0.80206 0.62093 0.0
H3371 H 0.11875 0.82992 0.63032 0.0
H3372 H 0.0411 0.38263 0.34079 0.0
H3373 H 0.01225 0.38221 0.34255 0.0
H3374 H 0.01528 0.36296 0.39053 0.0
H3375 H 0.044 0.36353 0.38903 0.0
H3376 H 0.99374 0.35565 0.34654 0.0
H3377 H 0.9829 0.39831 0.39611 0.0
H3378 H 0.00153 0.39749 0.38558 0.0
H3379 H 0.99738 0.38369 0.40173 0.0
C3380 C 0.03564 0.3785 0.35181 0.0
C3381 C 0.0449 0.37309 0.36478 0.0
C3382 C 0.01915 0.3783 0.35278 0.0
C3383 C 0.01164 0.37282 0.36676 0.0
C3384 C 0.02084 0.36763 0.37978 0.0
H3385 H 0.93358 0.31852 0.39011 0.0
H3386 H 0.9571 0.33053 0.37829 0.0
C3387 C 0.03729 0.36783 0.37884 0.0
C3388 C 0.99424 0.37105 0.36739 0.0
H3389 H 0.96276 0.37773 0.39195 0.0
C3390 C 0.98687 0.36078 0.35624 0.0
C3391 C 0.98518 0.37804 0.3798 0.0
C3392 C 0.99214 0.39014 0.39136 0.0
C3393 C 0.971 0.3562 0.35805 0.0
C3394 C 0.96244 0.36184 0.37148 0.0
C3395 C 0.9694 0.37323 0.38178 0.0
C3396 C 0.94726 0.35443 0.37638 0.0
C3397 C 0.96373 0.34489 0.3459 0.0
C3398 C 0.93387 0.36389 0.37925 0.0
C3399 C 0.92034 0.35704 0.38613 0.0
C3400 C 0.92012 0.34068 0.39048 0.0
C3401 C 0.93337 0.33116 0.387 0.0
C3402 C 0.94679 0.33798 0.38007 0.0
H3403 H 0.96929 0.34644 0.33391 0.0
H3404 H 0.96575 0.3323 0.34977 0.0
H3405 H 0.95081 0.34682 0.34476 0.0
H3406 H 0.93407 0.37665 0.37662 0.0
H3407 H 0.91034 0.3647 0.38869 0.0
H3408 H 0.41372 0.82822 0.3565 0.0
H3409 H 0.41073 0.79932 0.36068 0.0
H3410 H 0.36186 0.80596 0.37353 0.0
H3411 H 0.36462 0.83494 0.36923 0.0
H3412 H 0.40116 0.78231 0.3884 0.0
H3413 H 0.36043 0.77237 0.33685 0.0
H3414 H 0.37195 0.79057 0.33922 0.0
H3415 H 0.35434 0.78755 0.35089 0.0
C3416 C 0.40231 0.82359 0.36025 0.0
C3417 C 0.38936 0.83393 0.3624 0.0
C3418 C 0.40065 0.80706 0.36264 0.0
C3419 C 0.38602 0.80053 0.36715 0.0
C3420 C 0.37318 0.81079 0.36976 0.0
H3421 H 0.36933 0.70379 0.40237 0.0
H3422 H 0.37094 0.7329 0.39895 0.0
C3423 C 0.37482 0.82735 0.36739 0.0
C3424 C 0.38427 0.78295 0.36906 0.0
H3425 H 0.36535 0.74999 0.35367 0.0
C3426 C 0.39332 0.77522 0.38084 0.0
C3427 C 0.3742 0.77377 0.35899 0.0
C3428 C 0.36476 0.78142 0.34567 0.0
C3429 C 0.39246 0.75851 0.38294 0.0
C3430 C 0.3821 0.74938 0.37313 0.0
C3431 C 0.37317 0.75708 0.36124 0.0
C3432 C 0.38055 0.73177 0.37492 0.0
C3433 C 0.40284 0.75072 0.39543 0.0
C3434 C 0.38498 0.72154 0.36232 0.0
C3435 C 0.384 0.70486 0.36417 0.0
C3436 C 0.3785 0.69815 0.37865 0.0
C3437 C 0.37371 0.70851 0.39109 0.0
C3438 C 0.37469 0.72516 0.38921 0.0
H3439 H 0.41271 0.75876 0.39918 0.0
H3440 H 0.39567 0.7479 0.40622 0.0
H3441 H 0.40786 0.73929 0.39083 0.0
H3442 H 0.38945 0.72646 0.35116 0.0
H3443 H 0.38776 0.69725 0.35434 0.0
H3444 H 0.04199 0.62506 0.12065 0.0
H3445 H 0.01399 0.63009 0.11573 0.0
H3446 H 0.007 0.63971 0.16614 0.0
H3447 H 0.03511 0.63486 0.17117 0.0
H3448 H 0.98842 0.61299 0.13 0.0
H3449 H 0.98655 0.67861 0.14328 0.0
H3450 H 0.0048 0.66819 0.13936 0.0
H3451 H 0.99514 0.66593 0.1584 0.0
C3452 C 0.03455 0.62841 0.13068 0.0
C3453 C 0.04075 0.62959 0.1463 0.0
C3454 C 0.01855 0.63122 0.12785 0.0
C3455 C 0.00848 0.63534 0.14056 0.0
C3456 C 0.01464 0.63675 0.15614 0.0
H3457 H 0.90524 0.63393 0.12421 0.0
H3458 H 0.93082 0.62984 0.13758 0.0
C3459 C 0.03068 0.63394 0.15899 0.0
C3460 C 0.99144 0.63763 0.13738 0.0
H3461 H 0.96269 0.66618 0.13543 0.0
C3462 C 0.98271 0.62456 0.13135 0.0
C3463 C 0.98411 0.65276 0.13918 0.0
C3464 C 0.9931 0.66725 0.1453 0.0
C3465 C 0.96693 0.62633 0.12654 0.0
C3466 C 0.9597 0.64155 0.12798 0.0
C3467 C 0.96828 0.6545 0.13449 0.0
C3468 C 0.94399 0.64471 0.12092 0.0
C3469 C 0.95835 0.61215 0.11921 0.0
C3470 C 0.94294 0.65466 0.10741 0.0
C3471 C 0.92848 0.65697 0.09978 0.0
C3472 C 0.91472 0.64944 0.10559 0.0
C3473 C 0.91566 0.63983 0.11944 0.0
C3474 C 0.93024 0.63745 0.12705 0.0
H3475 H 0.96635 0.60185 0.11693 0.0
H3476 H 0.94887 0.60808 0.12748 0.0
H3477 H 0.9527 0.61566 0.10769 0.0
H3478 H 0.95343 0.66036 0.10251 0.0
H3479 H 0.92814 0.66454 0.08921 0.0
H3480 H 0.11334 0.29632 0.90524 0.0
H3481 H 0.11312 0.26749 0.89998 0.0
H3482 H 0.12203 0.27645 0.84975 0.0
H3483 H 0.12161 0.30548 0.85483 0.0
H3484 H 0.10013 0.25434 0.853 0.0
H3485 H 0.1498 0.23853 0.89297 0.0
H3486 H 0.13466 0.24884 0.90385 0.0
H3487 H 0.14517 0.25908 0.88802 0.0
C3488 C 0.11536 0.29217 0.89308 0.0
C3489 C 0.11761 0.30316 0.88046 0.0
C3490 C 0.11534 0.27567 0.89012 0.0
C3491 C 0.11799 0.26979 0.87455 0.0
C3492 C 0.1201 0.28073 0.86188 0.0
H3493 H 0.13579 0.16792 0.85798 0.0
H3494 H 0.1384 0.19705 0.86109 0.0
C3495 C 0.11985 0.29729 0.86479 0.0
C3496 C 0.11786 0.25223 0.87146 0.0
H3497 H 0.13291 0.21668 0.8848 0.0
C3498 C 0.10743 0.24611 0.85982 0.0
C3499 C 0.12761 0.24152 0.88014 0.0
C3500 C 0.14006 0.24735 0.8918 0.0
C3501 C 0.10611 0.22953 0.85697 0.0
C3502 C 0.11504 0.21876 0.86646 0.0
C3503 C 0.12585 0.22491 0.87773 0.0
C3504 C 0.11342 0.20107 0.86486 0.0
C3505 C 0.09534 0.22381 0.84365 0.0
C3506 C 0.09857 0.19361 0.86633 0.0
C3507 C 0.09701 0.17701 0.8643 0.0
C3508 C 0.11035 0.16751 0.8612 0.0
C3509 C 0.1253 0.17492 0.86041 0.0
C3510 C 0.1268 0.19156 0.86214 0.0
H3511 H 0.09366 0.23329 0.83441 0.0
H3512 H 0.10006 0.2129 0.83769 0.0
H3513 H 0.08356 0.22088 0.84873 0.0
H3514 H 0.08815 0.20062 0.86899 0.0
H3515 H 0.08537 0.1716 0.86518 0.0
H3516 H 0.56596 0.33872 0.58586 0.0
H3517 H 0.54104 0.34234 0.59984 0.0
H3518 H 0.56617 0.3531 0.64371 0.0
H3519 H 0.59143 0.34988 0.62954 0.0
H3520 H 0.52925 0.32573 0.62539 0.0
H3521 H 0.53583 0.39079 0.64027 0.0
H3522 H 0.5487 0.38081 0.62621 0.0
H3523 H 0.55118 0.37776 0.64741 0.0
C3524 C 0.56625 0.3419 0.59848 0.0
C3525 C 0.58067 0.34405 0.6066 0.0
C3526 C 0.55197 0.34394 0.60646 0.0
C3527 C 0.55172 0.3481 0.62278 0.0
C3528 C 0.56609 0.35016 0.63104 0.0
H3529 H 0.46211 0.3631 0.67482 0.0
H3530 H 0.49007 0.35701 0.67004 0.0
C3531 C 0.58049 0.34824 0.62296 0.0
C3532 C 0.53625 0.35011 0.63083 0.0
H3533 H 0.51171 0.37834 0.64692 0.0
C3534 C 0.5255 0.33718 0.63031 0.0
C3535 C 0.53138 0.36505 0.63726 0.0
C3536 C 0.54229 0.37946 0.63777 0.0
C3537 C 0.50982 0.339 0.63536 0.0
C3538 C 0.50481 0.35409 0.6411 0.0
C3539 C 0.5157 0.36679 0.64248 0.0
C3540 C 0.48797 0.35733 0.64416 0.0
C3541 C 0.49852 0.32497 0.63402 0.0
C3542 C 0.47767 0.3595 0.63116 0.0
C3543 C 0.46179 0.36308 0.63382 0.0
C3544 C 0.45595 0.36445 0.64954 0.0
C3545 C 0.46628 0.36205 0.66257 0.0
C3546 C 0.48222 0.35862 0.65989 0.0
H3547 H 0.5048 0.31342 0.63214 0.0
H3548 H 0.49115 0.32401 0.64501 0.0
H3549 H 0.49048 0.32694 0.62367 0.0
H3550 H 0.48197 0.35861 0.61894 0.0
H3551 H 0.45413 0.36486 0.62355 0.0
H3552 H 0.08795 0.40577 0.29472 0.0
H3553 H 0.09758 0.41193 0.26764 0.0
H3554 H 0.13305 0.37512 0.27238 0.0
H3555 H 0.12404 0.36955 0.29963 0.0
H3556 H 0.14534 0.40047 0.25904 0.0
H3557 H 0.08883 0.3864 0.22808 0.0
H3558 H 0.08714 0.40224 0.24261 0.0
H3559 H 0.09193 0.38219 0.24908 0.0
C3560 C 0.09782 0.39905 0.28994 0.0
C3561 C 0.10522 0.38715 0.29919 0.0
C3562 C 0.10323 0.40249 0.27445 0.0
C3563 C 0.11581 0.39374 0.26784 0.0
C3564 C 0.12331 0.38201 0.27721 0.0
H3565 H 0.13916 0.37905 0.16861 0.0
H3566 H 0.12889 0.37831 0.19604 0.0
C3567 C 0.11814 0.37882 0.29277 0.0
C3568 C 0.12134 0.39669 0.2512 0.0
H3569 H 0.10951 0.39675 0.212 0.0
C3570 C 0.1375 0.39966 0.24875 0.0
C3571 C 0.11112 0.39545 0.23778 0.0
C3572 C 0.09383 0.39124 0.23946 0.0
C3573 C 0.14382 0.40106 0.23326 0.0
C3574 C 0.13356 0.40019 0.21984 0.0
C3575 C 0.11734 0.39755 0.2223 0.0
C3576 C 0.13949 0.40103 0.20312 0.0
C3577 C 0.16151 0.40274 0.23148 0.0
C3578 C 0.14865 0.41414 0.1979 0.0
C3579 C 0.15484 0.41438 0.18236 0.0
C3580 C 0.15157 0.40172 0.17166 0.0
C3581 C 0.14189 0.38893 0.17667 0.0
C3582 C 0.136 0.38853 0.19231 0.0
H3583 H 0.16784 0.39852 0.24237 0.0
H3584 H 0.16587 0.39582 0.22099 0.0
H3585 H 0.16458 0.41561 0.2297 0.0
H3586 H 0.15108 0.42417 0.20586 0.0
H3587 H 0.16206 0.42452 0.17868 0.0
H3588 H 0.33728 0.3915 0.92187 0.0
H3589 H 0.34091 0.38784 0.95068 0.0
H3590 H 0.38992 0.37623 0.94307 0.0
H3591 H 0.38652 0.38003 0.91412 0.0
H3592 H 0.35133 0.36029 0.96734 0.0
H3593 H 0.39099 0.41306 0.97667 0.0
H3594 H 0.37927 0.41043 0.95871 0.0
H3595 H 0.39708 0.3991 0.96141 0.0
C3596 C 0.34886 0.38816 0.92626 0.0
C3597 C 0.36165 0.38617 0.91566 0.0
C3598 C 0.35089 0.38606 0.94274 0.0
C3599 C 0.36572 0.38201 0.94897 0.0
C3600 C 0.37844 0.37964 0.93847 0.0
H3601 H 0.38273 0.34807 0.04588 0.0
H3602 H 0.38179 0.35137 0.0168 0.0
C3603 C 0.37644 0.38172 0.92193 0.0
C3604 C 0.36771 0.38017 0.96649 0.0
H3605 H 0.38611 0.39648 -0.00076 0.0
C3606 C 0.35896 0.36816 0.97433 0.0
C3607 C 0.37753 0.39062 0.97553 0.0
C3608 C 0.38668 0.40413 0.96772 0.0
C3609 C 0.3598 0.36625 0.99103 0.0
C3610 C 0.36983 0.37651 3e-05 0.0
C3611 C 0.37853 0.38859 0.99222 0.0
C3612 C 0.37123 0.37498 0.01764 0.0
C3613 C 0.3497 0.35351 -0.00106 0.0
C3614 C 0.36604 0.38742 0.0277 0.0
C3615 C 0.36661 0.38563 0.04438 0.0
C3616 C 0.37244 0.37138 0.05123 0.0
C3617 C 0.37804 0.35916 0.04104 0.0
C3618 C 0.37748 0.36097 0.0244 0.0
H3619 H 0.34006 0.34925 0.9909 0.0
H3620 H 0.35718 0.34303 0.00202 0.0
H3621 H 0.34439 0.35813 0.01022 0.0
H3622 H 0.36125 0.39835 0.02264 0.0
H3623 H 0.36224 0.39529 0.05186 0.0
H3624 H 0.34732 0.58566 0.67076 0.0
H3625 H 0.35472 0.58613 0.69909 0.0
H3626 H 0.38215 0.62929 0.69127 0.0
H3627 H 0.3745 0.62919 0.66295 0.0
H3628 H 0.38355 0.58453 0.71328 0.0
H3629 H 0.35444 0.64211 0.7287 0.0
H3630 H 0.35084 0.63176 0.70999 0.0
H3631 H 0.36832 0.64392 0.71252 0.0
C3632 C 0.35489 0.59531 0.67504 0.0
C3633 C 0.36022 0.60747 0.66458 0.0
C3634 C 0.35912 0.59552 0.69124 0.0
C3635 C 0.36878 0.60787 0.69732 0.0
C3636 C 0.37437 0.61986 0.68689 0.0
H3637 H 0.41926 0.60835 0.78814 0.0
H3638 H 0.41157 0.60528 0.75995 0.0
C3639 C 0.37004 0.61974 0.67069 0.0
C3640 C 0.37309 0.60806 0.71456 0.0
H3641 H 0.37137 0.63097 0.74852 0.0
C3642 C 0.38084 0.59465 0.72102 0.0
C3643 C 0.36931 0.62117 0.72466 0.0
C3644 C 0.36013 0.63549 0.71868 0.0
C3645 C 0.38515 0.5941 0.73729 0.0
C3646 C 0.3819 0.60747 0.74724 0.0
C3647 C 0.37395 0.62078 0.74082 0.0
C3648 C 0.38652 0.60798 0.76438 0.0
C3649 C 0.39285 0.5791 0.74373 0.0
C3650 C 0.37501 0.61061 0.77618 0.0
C3651 C 0.37938 0.61255 0.79223 0.0
C3652 C 0.39536 0.6119 0.79677 0.0
C3653 C 0.40685 0.60881 0.78501 0.0
C3654 C 0.40247 0.60697 0.76891 0.0
H3655 H 0.39042 0.56851 0.73594 0.0
H3656 H 0.40584 0.58095 0.74415 0.0
H3657 H 0.3887 0.57637 0.75608 0.0
H3658 H 0.36264 0.61145 0.77293 0.0
H3659 H 0.37026 0.61489 0.80103 0.0
H3660 H 0.14186 0.60452 0.55046 0.0
H3661 H 0.14177 0.60235 0.52115 0.0
H3662 H 0.11803 0.64797 0.51771 0.0
H3663 H 0.1182 0.6504 0.54691 0.0
H3664 H 0.11617 0.60259 0.49935 0.0
H3665 H 0.15728 0.65394 0.48927 0.0
H3666 H 0.1547 0.64468 0.5087 0.0
H3667 H 0.14026 0.65857 0.50123 0.0
C3668 C 0.1366 0.61409 0.54349 0.0
C3669 C 0.13016 0.6277 0.55106 0.0
C3670 C 0.13655 0.61282 0.52675 0.0
C3671 C 0.13012 0.62512 0.51731 0.0
C3672 C 0.12333 0.6385 0.5248 0.0
H3673 H 0.10988 0.61777 0.41458 0.0
H3674 H 0.10766 0.62243 0.44352 0.0
C3675 C 0.12339 0.63982 0.54151 0.0
C3676 C 0.13059 0.624 0.49959 0.0
H3677 H 0.14573 0.6421 0.46616 0.0
C3678 C 0.1226 0.61123 0.49206 0.0
C3679 C 0.13912 0.63524 0.4902 0.0
C3680 C 0.14845 0.64881 0.49772 0.0
C3681 C 0.12289 0.60939 0.47531 0.0
C3682 C 0.13122 0.62077 0.46591 0.0
C3683 C 0.13922 0.63352 0.47344 0.0
C3684 C 0.13255 0.61907 0.44829 0.0
C3685 C 0.11464 0.59507 0.46785 0.0
C3686 C 0.14736 0.61623 0.44138 0.0
C3687 C 0.14871 0.61364 0.42488 0.0
C3688 C 0.13524 0.61392 0.41495 0.0
C3689 C 0.12048 0.6174 0.42186 0.0
C3690 C 0.11916 0.61996 0.4384 0.0
H3691 H 0.11162 0.58576 0.47692 0.0
H3692 H 0.10352 0.59909 0.46208 0.0
H3693 H 0.12215 0.58952 0.45844 0.0
H3694 H 0.15785 0.6156 0.44883 0.0
H3695 H 0.16028 0.61111 0.41999 0.0
H3696 H 0.13712 0.60468 0.19413 0.0
H3697 H 0.14234 0.60262 0.22296 0.0
H3698 H 0.0929 0.60966 0.23292 0.0
H3699 H 0.08748 0.61185 0.20413 0.0
H3700 H 0.13085 0.62898 0.24796 0.0
H3701 H 0.11 0.56581 0.25646 0.0
H3702 H 0.11757 0.57286 0.23743 0.0
H3703 H 0.09851 0.57922 0.24415 0.0
C3704 C 0.12732 0.60574 0.20241 0.0
C3705 C 0.11187 0.60845 0.19681 0.0
C3706 C 0.13035 0.60459 0.21886 0.0
C3707 C 0.11798 0.60595 0.22994 0.0
C3708 C 0.10256 0.60853 0.22446 0.0
H3709 H 0.12545 0.61703 0.33414 0.0
H3710 H 0.1164 0.61876 0.30617 0.0
C3711 C 0.09951 0.60981 0.20802 0.0
C3712 C 0.1213 0.60495 0.24727 0.0
H3713 H 0.11955 0.5795 0.27934 0.0
C3714 C 0.1283 0.61823 0.2549 0.0
C3715 C 0.11798 0.59085 0.25611 0.0
C3716 C 0.11065 0.57628 0.24821 0.0
C3717 C 0.13222 0.61773 0.27126 0.0
C3718 C 0.12896 0.6036 0.28011 0.0
C3719 C 0.12189 0.59034 0.27248 0.0
C3720 C 0.13374 0.60205 0.29708 0.0
C3721 C 0.1402 0.6321 0.2789 0.0
C3722 C 0.14624 0.59186 0.30114 0.0
C3723 C 0.15146 0.5909 0.31701 0.0
C3724 C 0.14415 0.60003 0.32909 0.0
C3725 C 0.13132 0.60991 0.32506 0.0
C3726 C 0.12618 0.61094 0.30913 0.0
H3727 H 0.14395 0.64116 0.26985 0.0
H3728 H 0.13188 0.63793 0.28736 0.0
H3729 H 0.15071 0.62827 0.28587 0.0
H3730 H 0.15218 0.5849 0.29196 0.0
H3731 H 0.16132 0.58312 0.31976 0.0
H3732 H 0.11938 0.37806 0.08714 0.0
H3733 H 0.11808 0.37026 0.05889 0.0
H3734 H 0.16863 0.37588 0.05493 0.0
H3735 H 0.17 0.38416 0.08306 0.0
H3736 H 0.15392 0.39054 0.03091 0.0
H3737 H 0.12969 0.3289 0.037 0.0
H3738 H 0.11753 0.34349 0.04683 0.0
H3739 H 0.13735 0.3401 0.05391 0.0
C3740 C 0.13025 0.37745 0.08032 0.0
C3741 C 0.14479 0.38174 0.08735 0.0
C3742 C 0.1295 0.37289 0.06419 0.0
C3743 C 0.1433 0.37222 0.05488 0.0
C3744 C 0.15785 0.37625 0.06192 0.0
H3745 H 0.14257 0.33191 0.95806 0.0
H3746 H 0.14829 0.33717 0.9864 0.0
C3747 C 0.1586 0.38099 0.078 0.0
C3748 C 0.14241 0.36833 0.03754 0.0
H3749 H 0.12807 0.34075 0.0108 0.0
C3750 C 0.14842 0.37957 0.02651 0.0
C3751 C 0.13546 0.3539 0.03181 0.0
C3752 C 0.1298 0.34084 0.04302 0.0
C3753 C 0.14723 0.37701 0.00991 0.0
C3754 C 0.13942 0.36305 0.0042 0.0
C3755 C 0.13387 0.35156 0.01521 0.0
C3756 C 0.13658 0.36025 0.98687 0.0
C3757 C 0.15447 0.38924 -0.00131 0.0
C3758 C 0.12805 0.37145 0.97777 0.0
C3759 C 0.1249 0.36855 0.96155 0.0
C3760 C 0.13001 0.35426 0.95424 0.0
C3761 C 0.13849 0.34302 0.96338 0.0
C3762 C 0.14176 0.34601 0.97956 0.0
H3763 H 0.16411 0.39614 0.00466 0.0
H3764 H 0.1593 0.38342 0.98775 0.0
H3765 H 0.14527 0.39794 0.99497 0.0
H3766 H 0.12357 0.38231 0.98327 0.0
H3767 H 0.11822 0.37735 0.95484 0.0
H3768 H 0.32802 0.40493 0.81948 0.0
H3769 H 0.33714 0.40276 0.79178 0.0
H3770 H 0.37981 0.37973 0.80804 0.0
H3771 H 0.3706 0.38158 0.83589 0.0
H3772 H 0.36422 0.41571 0.77837 0.0
H3773 H 0.36357 0.34901 0.7733 0.0
H3774 H 0.35395 0.35953 0.78952 0.0
H3775 H 0.37501 0.3569 0.78973 0.0
C3776 C 0.33932 0.39933 0.81718 0.0
C3777 C 0.34858 0.39336 0.82982 0.0
C3778 C 0.34451 0.39812 0.80135 0.0
C3779 C 0.35905 0.39092 0.79787 0.0
C3780 C 0.36841 0.38505 0.81047 0.0
H3781 H 0.406 0.37571 0.70629 0.0
H3782 H 0.39988 0.37795 0.73486 0.0
C3783 C 0.36317 0.38618 0.82635 0.0
C3784 C 0.36442 0.38994 0.78102 0.0
H3785 H 0.37339 0.36354 0.75102 0.0
C3786 C 0.36625 0.40431 0.77238 0.0
C3787 C 0.36706 0.37504 0.7733 0.0
C3788 C 0.36468 0.35922 0.78186 0.0
C3789 C 0.37062 0.40419 0.75615 0.0
C3790 C 0.37303 0.38929 0.74839 0.0
C3791 C 0.3715 0.37493 0.75708 0.0
C3792 C 0.3768 0.38834 0.73112 0.0
C3793 C 0.37269 0.41997 0.74745 0.0
C3794 C 0.36576 0.39334 0.71962 0.0
C3795 C 0.36918 0.39207 0.70327 0.0
C3796 C 0.3837 0.38571 0.69816 0.0
C3797 C 0.39473 0.38071 0.70978 0.0
C3798 C 0.39126 0.38195 0.72611 0.0
H3799 H 0.37417 0.43019 0.75595 0.0
H3800 H 0.3831 0.4196 0.73935 0.0
H3801 H 0.36207 0.42229 0.74 0.0
H3802 H 0.35443 0.39807 0.7233 0.0
H3803 H 0.36041 0.39599 0.69467 0.0
H3804 H 0.35828 0.667 0.45636 0.0
H3805 H 0.35416 0.66018 0.48467 0.0
H3806 H 0.36852 0.61139 0.47516 0.0
H3807 H 0.3729 0.61814 0.44694 0.0
H3808 H 0.33448 0.63701 0.49871 0.0
H3809 H 0.3976 0.62529 0.51209 0.0
H3810 H 0.39124 0.6355 0.49409 0.0
H3811 H 0.39011 0.61392 0.49536 0.0
C3812 C 0.36053 0.65481 0.4603 0.0
C3813 C 0.36604 0.64313 0.44948 0.0
C3814 C 0.35818 0.65095 0.47645 0.0
C3815 C 0.36133 0.63538 0.48202 0.0
C3816 C 0.36638 0.62358 0.47115 0.0
H3817 H 0.3332 0.58537 0.56718 0.0
H3818 H 0.3361 0.59672 0.54028 0.0
C3819 C 0.36878 0.62743 0.45502 0.0
C3820 C 0.35929 0.6314 0.49919 0.0
H3821 H 0.37894 0.61693 0.53188 0.0
C3822 C 0.34421 0.63274 0.50602 0.0
C3823 C 0.37208 0.62609 0.50873 0.0
C3824 C 0.3887 0.62525 0.50226 0.0
C3825 C 0.34145 0.62833 0.52204 0.0
C3826 C 0.35408 0.62227 0.53131 0.0
C3827 C 0.36927 0.62147 0.52466 0.0
C3828 C 0.35169 0.61605 0.54774 0.0
C3829 C 0.32508 0.63018 0.5289 0.0
C3830 C 0.35969 0.62306 0.56078 0.0
C3831 C 0.35809 0.61657 0.57617 0.0
C3832 C 0.34862 0.60287 0.57868 0.0
C3833 C 0.34057 0.59594 0.5656 0.0
C3834 C 0.34212 0.60247 0.55025 0.0
H3835 H 0.31794 0.63887 0.52187 0.0
H3836 H 0.31892 0.61836 0.52857 0.0
H3837 H 0.32559 0.63427 0.5416 0.0
H3838 H 0.36722 0.63348 0.55901 0.0
H3839 H 0.36444 0.62214 0.58604 0.0
H3840 H 0.15359 0.11959 0.39438 0.0
H3841 H 0.17847 0.10482 0.3911 0.0
H3842 H 0.20448 0.14627 0.40801 0.0
H3843 H 0.17992 0.16095 0.41142 0.0
H3844 H 0.20427 0.11353 0.37164 0.0
H3845 H 0.22249 0.10983 0.43536 0.0
H3846 H 0.20246 0.11425 0.42935 0.0
H3847 H 0.21724 0.12991 0.42965 0.0
C3848 C 0.16462 0.12548 0.39749 0.0
C3849 C 0.16479 0.14141 0.4032 0.0
C3850 C 0.17879 0.11704 0.39564 0.0
C3851 C 0.19326 0.12435 0.39965 0.0
C3852 C 0.19341 0.14025 0.40526 0.0
H3853 H 0.28737 0.123 0.37037 0.0
H3854 H 0.25945 0.12678 0.37662 0.0
C3855 C 0.17934 0.14867 0.40707 0.0
C3856 C 0.20843 0.11598 0.39706 0.0
H3857 H 0.2434 0.10758 0.41567 0.0
C3858 C 0.21271 0.11188 0.38131 0.0
C3859 C 0.21936 0.11367 0.40972 0.0
C3860 C 0.2151 0.11699 0.42699 0.0
C3861 C 0.22804 0.10665 0.37774 0.0
C3862 C 0.2393 0.1056 0.39023 0.0
C3863 C 0.23473 0.10858 0.40612 0.0
C3864 C 0.25619 0.10305 0.38674 0.0
C3865 C 0.23232 0.10286 0.36058 0.0
C3866 C 0.2636 0.08854 0.39069 0.0
C3867 C 0.27959 0.0863 0.38708 0.0
C3868 C 0.28838 0.09863 0.37965 0.0
C3869 C 0.28093 0.11326 0.37607 0.0
C3870 C 0.26498 0.11543 0.37956 0.0
H3871 H 0.22167 0.10092 0.353 0.0
H3872 H 0.23918 0.11306 0.35549 0.0
H3873 H 0.23984 0.09196 0.35999 0.0
H3874 H 0.25697 0.07891 0.39634 0.0
H3875 H 0.28503 0.0749 0.38999 0.0
H3876 H 0.79443 0.36475 0.62734 0.0
H3877 H 0.7671 0.35811 0.62043 0.0
H3878 H 0.76084 0.40562 0.60075 0.0
H3879 H 0.78814 0.41249 0.6079 0.0
H3880 H 0.73581 0.39581 0.62026 0.0
H3881 H 0.75067 0.349 0.57529 0.0
H3882 H 0.75947 0.34565 0.59462 0.0
H3883 H 0.76515 0.363 0.58305 0.0
C3884 C 0.78728 0.37377 0.62146 0.0
C3885 C 0.79346 0.38911 0.61806 0.0
C3886 C 0.77167 0.36993 0.6175 0.0
C3887 C 0.76203 0.3813 0.6099 0.0
C3888 C 0.76812 0.39667 0.60658 0.0
H3889 H 0.67635 0.35699 0.55946 0.0
H3890 H 0.70182 0.36798 0.56781 0.0
C3891 C 0.78372 0.40055 0.61061 0.0
C3892 C 0.74559 0.37712 0.60541 0.0
H3893 H 0.72378 0.35078 0.58301 0.0
C3894 C 0.73314 0.38602 0.61206 0.0
C3895 C 0.74218 0.36446 0.59457 0.0
C3896 C 0.75507 0.35507 0.58634 0.0
C3897 C 0.71731 0.38244 0.6083 0.0
C3898 C 0.71391 0.36945 0.59784 0.0
C3899 C 0.7264 0.36068 0.59111 0.0
C3900 C 0.69757 0.36486 0.59325 0.0
C3901 C 0.70443 0.39276 0.6153 0.0
C3902 C 0.68652 0.35982 0.60481 0.0
C3903 C 0.67179 0.35368 0.60005 0.0
C3904 C 0.66808 0.3522 0.58365 0.0
C3905 C 0.67895 0.35781 0.57218 0.0
C3906 C 0.69351 0.36411 0.57693 0.0
H3907 H 0.70908 0.40461 0.61939 0.0
H3908 H 0.69487 0.39482 0.60641 0.0
H3909 H 0.69924 0.38656 0.62586 0.0
H3910 H 0.68951 0.36001 0.61746 0.0
H3911 H 0.66366 0.34936 0.60913 0.0
H3912 H 0.41947 0.93094 0.34012 0.0
H3913 H 0.40965 0.95842 0.34199 0.0
H3914 H 0.36798 0.94128 0.36652 0.0
H3915 H 0.37789 0.91366 0.36495 0.0
H3916 H 0.38177 0.97082 0.32969 0.0
H3917 H 0.38428 0.97706 0.39617 0.0
H3918 H 0.39407 0.96099 0.38558 0.0
H3919 H 0.37311 0.9601 0.38891 0.0
C3920 C 0.40824 0.933 0.34597 0.0
C3921 C 0.39947 0.92018 0.35247 0.0
C3922 C 0.40265 0.94871 0.34701 0.0
C3923 C 0.3882 0.95188 0.35457 0.0
C3924 C 0.37931 0.93909 0.36092 0.0
H3925 H 0.3398 0.04276 0.36997 0.0
H3926 H 0.34653 0.01426 0.36837 0.0
C3927 C 0.38494 0.92334 0.35994 0.0
C3928 C 0.38244 0.96861 0.35546 0.0
H3929 H 0.37361 -0.00114 0.38164 0.0
C3930 C 0.37995 0.97695 0.34104 0.0
C3931 C 0.38008 0.97652 0.3703 0.0
C3932 C 0.38313 0.96829 0.38614 0.0
C3933 C 0.37519 0.99307 0.34106 0.0
C3934 C 0.37308 0.00106 0.35589 0.0
C3935 C 0.37527 0.99264 0.37031 0.0
C3936 C 0.369 0.01828 0.35668 0.0
C3937 C 0.37239 0.0014 0.32522 0.0
C3938 C 0.37953 0.02994 0.35078 0.0
C3939 C 0.37576 0.04624 0.35168 0.0
C3940 C 0.3614 0.05117 0.35856 0.0
C3941 C 0.35094 0.03941 0.36456 0.0
C3942 C 0.35475 0.02312 0.36368 0.0
H3943 H 0.37058 0.99265 0.31529 0.0
H3944 H 0.36192 0.00938 0.3259 0.0
H3945 H 0.38284 0.00894 0.32225 0.0
H3946 H 0.39072 0.02643 0.3456 0.0
H3947 H 0.38412 0.05495 0.34699 0.0
H3948 H 0.83229 0.64192 0.10884 0.0
H3949 H 0.80644 0.63162 0.11746 0.0
H3950 H 0.79262 0.62559 0.0679 0.0
H3951 H 0.81812 0.63629 0.05928 0.0
H3952 H 0.77176 0.64322 0.0842 0.0
H3953 H 0.78524 0.58781 0.11858 0.0
H3954 H 0.79588 0.60529 0.12536 0.0
H3955 H 0.79951 0.59741 0.10559 0.0
C3956 C 0.82385 0.63803 0.09983 0.0
C3957 C 0.82713 0.64002 0.0834 0.0
C3958 C 0.80911 0.6321 0.10476 0.0
C3959 C 0.79762 0.62779 0.09332 0.0
C3960 C 0.80128 0.62891 0.07693 0.0
H3961 H 0.70634 0.5824 0.10757 0.0
H3962 H 0.73371 0.58898 0.10066 0.0
C3963 C 0.81585 0.63502 0.07202 0.0
C3964 C 0.78124 0.62371 0.09817 0.0
H3965 H 0.75887 0.59753 0.12021 0.0
C3966 C 0.76895 0.63318 0.09203 0.0
C3967 C 0.77759 0.61058 0.10832 0.0
C3968 C 0.79023 0.59958 0.11474 0.0
C3969 C 0.75311 0.62988 0.09569 0.0
C3970 C 0.74947 0.617 0.10614 0.0
C3971 C 0.76173 0.60748 0.11229 0.0
C3972 C 0.73297 0.61305 0.11055 0.0
C3973 C 0.74042 0.64 0.088 0.0
C3974 C 0.72352 0.62438 0.11847 0.0
C3975 C 0.70784 0.62072 0.12228 0.0
C3976 C 0.70141 0.60559 0.11841 0.0
C3977 C 0.71095 0.59419 0.11065 0.0
C3978 C 0.7266 0.5979 0.10676 0.0
H3979 H 0.74484 0.64634 0.07714 0.0
H3980 H 0.73005 0.63252 0.08454 0.0
H3981 H 0.73643 0.64923 0.09671 0.0
H3982 H 0.7283 0.63603 0.12178 0.0
H3983 H 0.70083 0.62969 0.12842 0.0
H3984 H 0.59133 0.57465 0.32895 0.0
H3985 H 0.6028 0.54775 0.32995 0.0
H3986 H 0.62431 0.55903 0.37566 0.0
H3987 H 0.61355 0.58629 0.37425 0.0
H3988 H 0.64397 0.5424 0.35788 0.0
H3989 H 0.58555 0.51202 0.35649 0.0
H3990 H 0.58883 0.52428 0.33911 0.0
H3991 H 0.58759 0.53349 0.35867 0.0
C3992 C 0.59852 0.57136 0.3392 0.0
C3993 C 0.6014 0.5824 0.35165 0.0
C3994 C 0.60499 0.55598 0.3398 0.0
C3995 C 0.61404 0.55122 0.35309 0.0
C3996 C 0.61727 0.56241 0.36533 0.0
H3997 H 0.62814 0.45381 0.38336 0.0
H3998 H 0.61998 0.48152 0.37897 0.0
C3999 C 0.6111 0.57793 0.36456 0.0
C4000 C 0.61992 0.53452 0.3544 0.0
H4001 H 0.60797 0.49528 0.35414 0.0
C4002 C 0.63611 0.53208 0.35712 0.0
C4003 C 0.6096 0.52108 0.35361 0.0
C4004 C 0.59192 0.52283 0.35199 0.0
C4005 C 0.64225 0.51657 0.35921 0.0
C4006 C 0.632 0.50312 0.35791 0.0
C4007 C 0.61585 0.50559 0.35499 0.0
C4008 C 0.63743 0.48641 0.36056 0.0
C4009 C 0.65952 0.51487 0.36338 0.0
C4010 C 0.64993 0.47987 0.35163 0.0
C4011 C 0.65486 0.46408 0.3544 0.0
C4012 C 0.64703 0.45449 0.36579 0.0
C4013 C 0.63432 0.46093 0.37444 0.0
C4014 C 0.62966 0.47676 0.37194 0.0
H4015 H 0.6645 0.5262 0.36841 0.0
H4016 H 0.66139 0.50508 0.37223 0.0
H4017 H 0.66625 0.51196 0.35233 0.0
H4018 H 0.65581 0.48691 0.34246 0.0
H4019 H 0.6646 0.4593 0.34748 0.0
H4020 H 0.20061 0.85979 0.87427 0.0
H4021 H 0.22909 0.85617 0.87747 0.0
H4022 H 0.23372 0.90531 0.89368 0.0
H4023 H 0.20535 0.90924 0.88956 0.0
H4024 H 0.25792 0.89815 0.87594 0.0
H4025 H 0.24953 0.84883 0.91958 0.0
H4026 H 0.24062 0.84387 0.90068 0.0
H4027 H 0.23326 0.8606 0.91223 0.0
C4028 C 0.20774 0.86983 0.87843 0.0
C4029 C 0.20079 0.88474 0.88183 0.0
C4030 C 0.22399 0.86773 0.88037 0.0
C4031 C 0.23349 0.88031 0.88632 0.0
C4032 C 0.22663 0.89538 0.8892 0.0
H4033 H 0.32401 0.85475 0.9276 0.0
H4034 H 0.29752 0.86568 0.92362 0.0
C4035 C 0.21043 0.89761 0.88686 0.0
C4036 C 0.25047 0.87762 0.88985 0.0
H4037 H 0.27552 0.85207 0.90904 0.0
C4038 C 0.26179 0.88817 0.88332 0.0
C4039 C 0.25553 0.86486 0.89982 0.0
C4040 C 0.24407 0.85403 0.90862 0.0
C4041 C 0.27802 0.88607 0.88616 0.0
C4042 C 0.28311 0.87265 0.89524 0.0
C4043 C 0.27173 0.86231 0.90198 0.0
C4044 C 0.30006 0.8688 0.89789 0.0
C4045 C 0.28942 0.89847 0.87968 0.0
C4046 C 0.31057 0.86742 0.88489 0.0
C4047 C 0.32593 0.86175 0.8873 0.0
C4048 C 0.33076 0.85682 0.90263 0.0
C4049 C 0.32046 0.85852 0.91567 0.0
C4050 C 0.30534 0.86469 0.91337 0.0
H4051 H 0.28368 0.9104 0.87847 0.0
H4052 H 0.29995 0.89983 0.88754 0.0
H4053 H 0.29337 0.89474 0.86754 0.0
H4054 H 0.30672 0.86997 0.87276 0.0
H4055 H 0.33367 0.86026 0.87706 0.0
H4056 H 0.33375 0.95737 0.14674 0.0
H4057 H 0.34089 0.98586 0.14902 0.0
H4058 H 0.3844 0.97688 0.1237 0.0
H4059 H 0.37755 0.94836 0.12172 0.0
H4060 H 0.38864 0.99696 0.14922 0.0
H4061 H 0.33828 0.01724 0.11174 0.0
H4062 H 0.3325 0.00571 0.12899 0.0
H4063 H 0.34384 0.99638 0.11331 0.0
C4064 C 0.34489 0.96145 0.14177 0.0
C4065 C 0.35504 0.95068 0.13394 0.0
C4066 C 0.34889 0.97774 0.14298 0.0
C4067 C 0.36299 0.98352 0.1362 0.0
C4068 C 0.3734 0.97267 0.12891 0.0
H4069 H 0.38659 0.08173 0.11086 0.0
H4070 H 0.37911 0.05327 0.11103 0.0
C4071 C 0.36947 0.95638 0.12779 0.0
C4072 C 0.36686 0.00089 0.13647 0.0
H4073 H 0.3538 0.03762 0.12408 0.0
C4074 C 0.38104 0.00586 0.14374 0.0
C4075 C 0.35704 0.01243 0.12904 0.0
C4076 C 0.34214 0.0077 0.12019 0.0
C4077 C 0.38561 0.0221 0.1439 0.0
C4078 C 0.37553 0.0337 0.13693 0.0
C4079 C 0.36142 0.02871 0.12955 0.0
C4080 C 0.37955 0.05104 0.13693 0.0
C4081 C 0.40138 0.02661 0.15116 0.0
C4082 C 0.38191 0.05929 0.15144 0.0
C4083 C 0.38629 0.07549 0.1514 0.0
C4084 C 0.38817 0.08383 0.13681 0.0
C4085 C 0.38525 0.07567 0.1223 0.0
C4086 C 0.381 0.05941 0.12237 0.0
H4087 H 0.40942 0.01611 0.15182 0.0
H4088 H 0.40727 0.03626 0.14412 0.0
H4089 H 0.39953 0.03109 0.16357 0.0
H4090 H 0.38043 0.05316 0.16283 0.0
H4091 H 0.38824 0.08146 0.16281 0.0
H4092 H 0.10607 0.91684 0.66387 0.0
H4093 H 0.11149 0.94563 0.66352 0.0
H4094 H 0.12575 0.94248 0.61391 0.0
H4095 H 0.12008 0.91357 0.61398 0.0
H4096 H 0.13899 0.96252 0.65705 0.0
H4097 H 0.09154 0.97725 0.61336 0.0
H4098 H 0.09278 0.95795 0.62318 0.0
H4099 H 0.10544 0.96253 0.60646 0.0
C4100 C 0.1104 0.92219 0.65285 0.0
C4101 C 0.1125 0.91287 0.63889 0.0
C4102 C 0.11351 0.93867 0.65271 0.0
C4103 C 0.11875 0.9462 0.63863 0.0
C4104 C 0.12139 0.93691 0.62481 0.0
H4105 H 0.15737 0.04244 0.63127 0.0
H4106 H 0.15313 0.01342 0.63189 0.0
C4107 C 0.11825 0.92038 0.62491 0.0
C4108 C 0.12128 0.9638 0.6385 0.0
H4109 H 0.10846 -0.00137 0.62132 0.0
C4110 C 0.13234 0.97043 0.64924 0.0
C4111 C 0.11236 0.97406 0.62848 0.0
C4112 C 0.09976 0.96765 0.61731 0.0
C4113 C 0.13485 0.98709 0.65009 0.0
C4114 C 0.12626 0.99731 0.63975 0.0
C4115 C 0.11508 0.99071 0.62915 0.0
C4116 C 0.12881 0.0149 0.63965 0.0
C4117 C 0.14648 0.99365 0.66224 0.0
C4118 C 0.11641 0.02533 0.64355 0.0
C4119 C 0.11874 0.04198 0.64314 0.0
C4120 C 0.1335 0.04845 0.63872 0.0
C4121 C 0.14587 0.0379 0.6348 0.0
C4122 C 0.14351 0.02129 0.63522 0.0
H4123 H 0.14894 0.9848 0.67191 0.0
H4124 H 0.15779 0.99647 0.65612 0.0
H4125 H 0.14201 0.00488 0.6678 0.0
H4126 H 0.10494 0.02057 0.64692 0.0
H4127 H 0.10896 0.04974 0.64618 0.0
loop_
_geom_bond_atom_site_label_1
_geom_bond_atom_site_label_2
_geom_bond_distance
_geom_bond_site_symmetry_2
_ccdc_geom_bond_type
Co0 O1 2.216 . S
Co0 O2 2.091 . S
Co0 O4 2.004 . S
Co0 O10 2.021 . S
Co0 O12 2.137 . S
Co0 O13 2.244 . S
O1 Co0 2.216 . S
O1 C8 1.247 . S
O2 Co0 2.091 . S
O2 C8 1.261 . S
C3 O12 1.247 . S
C3 O13 1.272 . S
O4 Co0 2.004 . S
O4 C9 1.259 . S
Co5 O6 2.061 . S
Co5 O11 2.052 . S
Co5 O13 2.135 . S
O6 Co5 2.061 . S
O6 C9 1.235 . S
C7 O10 1.238 . S
C7 O11 1.241 . S
C8 O1 1.247 . S
C8 O2 1.261 . S
C9 O4 1.259 . S
C9 O6 1.235 . S
O10 Co0 2.021 . S
O10 C7 1.238 . S
O11 Co5 2.052 . S
O11 C7 1.241 . S
O12 Co0 2.137 . S
O12 C3 1.247 . S
O13 Co0 2.244 . S
O13 C3 1.272 . S
O13 Co5 2.135 . S
Co14 O15 2.216 . S
Co14 O16 2.091 . S
Co14 O18 2.004 . S
Co14 O24 2.021 . S
Co14 O26 2.137 . S
Co14 O27 2.244 . S
O15 Co14 2.216 . S
O15 C22 1.247 . S
O16 Co14 2.091 . S
O16 C22 1.261 . S
C17 O26 1.247 . S
C17 O27 1.272 . S
O18 Co14 2.004 . S
O18 C23 1.259 . S
Co19 O20 2.061 . S
Co19 O25 2.052 . S
Co19 O27 2.135 . S
O20 Co19 2.061 . S
O20 C23 1.235 . S
C21 O24 1.238 . S
C21 O25 1.241 . S
C22 O15 1.247 . S
C22 O16 1.261 . S
C23 O18 1.259 . S
C23 O20 1.235 . S
O24 Co14 2.021 . S
O24 C21 1.238 . S
O25 Co19 2.052 . S
O25 C21 1.241 . S
O26 Co14 2.137 . S
O26 C17 1.247 . S
O27 Co14 2.244 . S
O27 C17 1.272 . S
O27 Co19 2.135 . S
Co28 O29 2.216 . S
Co28 O30 2.091 . S
Co28 O32 2.004 . S
Co28 O38 2.021 . S
Co28 O40 2.137 . S
Co28 O41 2.244 . S
O29 Co28 2.216 . S
O29 C36 1.247 . S
O30 Co28 2.091 . S
O30 C36 1.261 . S
C31 O40 1.247 . S
C31 O41 1.272 . S
O32 Co28 2.004 . S
O32 C37 1.259 . S
Co33 O34 2.061 . S
Co33 O39 2.052 . S
Co33 O41 2.135 . S
O34 Co33 2.061 . S
O34 C37 1.235 . S
C35 O38 1.238 . S
C35 O39 1.241 . S
C36 O29 1.247 . S
C36 O30 1.261 . S
C37 O32 1.259 . S
C37 O34 1.235 . S
O38 Co28 2.021 . S
O38 C35 1.238 . S
O39 Co33 2.052 . S
O39 C35 1.241 . S
O40 Co28 2.137 . S
O40 C31 1.247 . S
O41 Co28 2.244 . S
O41 C31 1.272 . S
O41 Co33 2.135 . S
Co42 O43 2.216 . S
Co42 O44 2.091 . S
Co42 O46 2.004 . S
Co42 O52 2.021 . S
Co42 O54 2.137 . S
Co42 O55 2.244 . S
O43 Co42 2.216 . S
O43 C50 1.247 . S
O44 Co42 2.091 . S
O44 C50 1.261 . S
C45 O54 1.247 . S
C45 O55 1.272 . S
O46 Co42 2.004 . S
O46 C51 1.259 . S
Co47 O48 2.061 . S
Co47 O53 2.052 . S
Co47 O55 2.135 . S
O48 Co47 2.061 . S
O48 C51 1.235 . S
C49 O52 1.238 . S
C49 O53 1.241 . S
C50 O43 1.247 . S
C50 O44 1.261 . S
C51 O46 1.259 . S
C51 O48 1.235 . S
O52 Co42 2.021 . S
O52 C49 1.238 . S
O53 Co47 2.052 . S
O53 C49 1.241 . S
O54 Co42 2.137 . S
O54 C45 1.247 . S
O55 Co42 2.244 . S
O55 C45 1.272 . S
O55 Co47 2.135 . S
Co56 O57 2.216 . S
Co56 O58 2.091 . S
Co56 O60 2.004 . S
Co56 O66 2.021 . S
Co56 O68 2.137 . S
Co56 O69 2.244 . S
O57 Co56 2.216 . S
O57 C64 1.247 . S
O58 Co56 2.091 . S
O58 C64 1.261 . S
C59 O68 1.247 . S
C59 O69 1.272 . S
O60 Co56 2.004 . S
O60 C65 1.259 . S
Co61 O62 2.061 . S
Co61 O67 2.052 . S
Co61 O69 2.135 . S
O62 Co61 2.061 . S
O62 C65 1.235 . S
C63 O66 1.238 . S
C63 O67 1.241 . S
C64 O57 1.247 . S
C64 O58 1.261 . S
C65 O60 1.259 . S
C65 O62 1.235 . S
O66 Co56 2.021 . S
O66 C63 1.238 . S
O67 Co61 2.052 . S
O67 C63 1.241 . S
O68 Co56 2.137 . S
O68 C59 1.247 . S
O69 Co56 2.244 . S
O69 C59 1.272 . S
O69 Co61 2.135 . S
Co70 O71 2.216 . S
Co70 O72 2.091 . S
Co70 O74 2.004 . S
Co70 O80 2.021 . S
Co70 O82 2.137 . S
Co70 O83 2.244 . S
O71 Co70 2.216 . S
O71 C78 1.247 . S
O72 Co70 2.091 . S
O72 C78 1.261 . S
C73 O82 1.247 . S
C73 O83 1.272 . S
O74 Co70 2.004 . S
O74 C79 1.259 . S
Co75 O76 2.061 . S
Co75 O81 2.052 . S
Co75 O83 2.135 . S
O76 Co75 2.061 . S
O76 C79 1.235 . S
C77 O80 1.238 . S
C77 O81 1.241 . S
C78 O71 1.247 . S
C78 O72 1.261 . S
C79 O74 1.259 . S
C79 O76 1.235 . S
O80 Co70 2.021 . S
O80 C77 1.238 . S
O81 Co75 2.052 . S
O81 C77 1.241 . S
O82 Co70 2.137 . S
O82 C73 1.247 . S
O83 Co70 2.244 . S
O83 C73 1.272 . S
O83 Co75 2.135 . S
Co84 O85 2.216 . S
Co84 O86 2.091 . S
Co84 O88 2.004 . S
Co84 O94 2.021 . S
Co84 O96 2.137 . S
Co84 O97 2.244 . S
O85 Co84 2.216 . S
O85 C92 1.247 . S
O86 Co84 2.091 . S
O86 C92 1.261 . S
C87 O96 1.247 . S
C87 O97 1.272 . S
O88 Co84 2.004 . S
O88 C93 1.259 . S
Co89 O90 2.061 . S
Co89 O95 2.052 . S
Co89 O97 2.135 . S
O90 Co89 2.061 . S
O90 C93 1.235 . S
C91 O94 1.238 . S
C91 O95 1.241 . S
C92 O85 1.247 . S
C92 O86 1.261 . S
C93 O88 1.259 . S
C93 O90 1.235 . S
O94 Co84 2.021 . S
O94 C91 1.238 . S
O95 Co89 2.052 . S
O95 C91 1.241 . S
O96 Co84 2.137 . S
O96 C87 1.247 . S
O97 Co84 2.244 . S
O97 C87 1.272 . S
O97 Co89 2.135 . S
Co98 O99 2.216 . S
Co98 O100 2.091 . S
Co98 O102 2.004 . S
Co98 O108 2.021 . S
Co98 O110 2.137 . S
Co98 O111 2.244 . S
O99 Co98 2.216 . S
O99 C106 1.247 . S
O100 Co98 2.091 . S
O100 C106 1.261 . S
C101 O110 1.247 . S
C101 O111 1.272 . S
O102 Co98 2.004 . S
O102 C107 1.259 . S
Co103 O104 2.061 . S
Co103 O109 2.052 . S
Co103 O111 2.135 . S
O104 Co103 2.061 . S
O104 C107 1.235 . S
C105 O108 1.238 . S
C105 O109 1.241 . S
C106 O99 1.247 . S
C106 O100 1.261 . S
C107 O102 1.259 . S
C107 O104 1.235 . S
O108 Co98 2.021 . S
O108 C105 1.238 . S
O109 Co103 2.052 . S
O109 C105 1.241 . S
O110 Co98 2.137 . S
O110 C101 1.247 . S
O111 Co98 2.244 . S
O111 C101 1.272 . S
O111 Co103 2.135 . S
Co112 O113 2.216 . S
Co112 O114 2.091 . S
Co112 O116 2.004 . S
Co112 O122 2.021 . S
Co112 O124 2.137 . S
Co112 O125 2.244 . S
O113 Co112 2.216 . S
O113 C120 1.247 . S
O114 Co112 2.091 . S
O114 C120 1.261 . S
C115 O124 1.247 . S
C115 O125 1.272 . S
O116 Co112 2.004 . S
O116 C121 1.259 . S
Co117 O118 2.061 . S
Co117 O123 2.052 . S
Co117 O125 2.135 . S
O118 Co117 2.061 . S
O118 C121 1.235 . S
C119 O122 1.238 . S
C119 O123 1.241 . S
C120 O113 1.247 . S
C120 O114 1.261 . S
C121 O116 1.259 . S
C121 O118 1.235 . S
O122 Co112 2.021 . S
O122 C119 1.238 . S
O123 Co117 2.052 . S
O123 C119 1.241 . S
O124 Co112 2.137 . S
O124 C115 1.247 . S
O125 Co112 2.244 . S
O125 C115 1.272 . S
O125 Co117 2.135 . S
Co126 O127 2.216 . S
Co126 O128 2.091 . S
Co126 O130 2.004 . S
Co126 O136 2.021 . S
Co126 O138 2.137 . S
Co126 O139 2.244 . S
O127 Co126 2.216 . S
O127 C134 1.247 . S
O128 Co126 2.091 . S
O128 C134 1.261 . S
C129 O138 1.247 . S
C129 O139 1.272 . S
O130 Co126 2.004 . S
O130 C135 1.259 . S
Co131 O132 2.061 . S
Co131 O137 2.052 . S
Co131 O139 2.135 . S
O132 Co131 2.061 . S
O132 C135 1.235 . S
C133 O136 1.238 . S
C133 O137 1.241 . S
C134 O127 1.247 . S
C134 O128 1.261 . S
C135 O130 1.259 . S
C135 O132 1.235 . S
O136 Co126 2.021 . S
O136 C133 1.238 . S
O137 Co131 2.052 . S
O137 C133 1.241 . S
O138 Co126 2.137 . S
O138 C129 1.247 . S
O139 Co126 2.244 . S
O139 C129 1.272 . S
O139 Co131 2.135 . S
Co140 O141 2.216 . S
Co140 O142 2.091 . S
Co140 O144 2.004 . S
Co140 O150 2.021 . S
Co140 O152 2.137 . S
Co140 O153 2.244 . S
O141 Co140 2.216 . S
O141 C148 1.247 . S
O142 Co140 2.091 . S
O142 C148 1.261 . S
C143 O152 1.247 . S
C143 O153 1.272 . S
O144 Co140 2.004 . S
O144 C149 1.259 . S
Co145 O146 2.061 . S
Co145 O151 2.052 . S
Co145 O153 2.135 . S
O146 Co145 2.061 . S
O146 C149 1.235 . S
C147 O150 1.238 . S
C147 O151 1.241 . S
C148 O141 1.247 . S
C148 O142 1.261 . S
C149 O144 1.259 . S
C149 O146 1.235 . S
O150 Co140 2.021 . S
O150 C147 1.238 . S
O151 Co145 2.052 . S
O151 C147 1.241 . S
O152 Co140 2.137 . S
O152 C143 1.247 . S
O153 Co140 2.244 . S
O153 C143 1.272 . S
O153 Co145 2.135 . S
Co154 O155 2.216 . S
Co154 O156 2.091 . S
Co154 O158 2.004 . S
Co154 O164 2.021 . S
Co154 O166 2.137 . S
Co154 O167 2.244 . S
O155 Co154 2.216 . S
O155 C162 1.247 . S
O156 Co154 2.091 . S
O156 C162 1.261 . S
C157 O166 1.247 . S
C157 O167 1.272 . S
O158 Co154 2.004 . S
O158 C163 1.259 . S
Co159 O160 2.061 . S
Co159 O165 2.052 . S
Co159 O167 2.135 . S
O160 Co159 2.061 . S
O160 C163 1.235 . S
C161 O164 1.238 . S
C161 O165 1.241 . S
C162 O155 1.247 . S
C162 O156 1.261 . S
C163 O158 1.259 . S
C163 O160 1.235 . S
O164 Co154 2.021 . S
O164 C161 1.238 . S
O165 Co159 2.052 . S
O165 C161 1.241 . S
O166 Co154 2.137 . S
O166 C157 1.247 . S
O167 Co154 2.244 . S
O167 C157 1.272 . S
O167 Co159 2.135 . S
Co168 O169 2.216 . S
Co168 O170 2.091 . S
Co168 O172 2.004 . S
Co168 O178 2.021 . S
Co168 O180 2.137 . S
Co168 O181 2.244 . S
O169 Co168 2.216 . S
O169 C176 1.247 . S
O170 Co168 2.091 . S
O170 C176 1.261 . S
C171 O180 1.247 . S
C171 O181 1.272 . S
O172 Co168 2.004 . S
O172 C177 1.259 . S
Co173 O174 2.061 . S
Co173 O179 2.052 . S
Co173 O181 2.135 . S
O174 Co173 2.061 . S
O174 C177 1.235 . S
C175 O178 1.238 . S
C175 O179 1.241 . S
C176 O169 1.247 . S
C176 O170 1.261 . S
C177 O172 1.259 . S
C177 O174 1.235 . S
O178 Co168 2.021 . S
O178 C175 1.238 . S
O179 Co173 2.052 . S
O179 C175 1.241 . S
O180 Co168 2.137 . S
O180 C171 1.247 . S
O181 Co168 2.244 . S
O181 C171 1.272 . S
O181 Co173 2.135 . S
Co182 O183 2.216 . S
Co182 O184 2.091 . S
Co182 O186 2.004 . S
Co182 O192 2.021 . S
Co182 O194 2.137 . S
Co182 O195 2.244 . S
O183 Co182 2.216 . S
O183 C190 1.247 . S
O184 Co182 2.091 . S
O184 C190 1.261 . S
C185 O194 1.247 . S
C185 O195 1.272 . S
O186 Co182 2.004 . S
O186 C191 1.259 . S
Co187 O188 2.061 . S
Co187 O193 2.052 . S
Co187 O195 2.135 . S
O188 Co187 2.061 . S
O188 C191 1.235 . S
C189 O192 1.238 . S
C189 O193 1.241 . S
C190 O183 1.247 . S
C190 O184 1.261 . S
C191 O186 1.259 . S
C191 O188 1.235 . S
O192 Co182 2.021 . S
O192 C189 1.238 . S
O193 Co187 2.052 . S
O193 C189 1.241 . S
O194 Co182 2.137 . S
O194 C185 1.247 . S
O195 Co182 2.244 . S
O195 C185 1.272 . S
O195 Co187 2.135 . S
Co196 O197 2.216 . S
Co196 O198 2.091 . S
Co196 O200 2.004 . S
Co196 O206 2.021 . S
Co196 O208 2.137 . S
Co196 O209 2.244 . S
O197 Co196 2.216 . S
O197 C204 1.247 . S
O198 Co196 2.091 . S
O198 C204 1.261 . S
C199 O208 1.247 . S
C199 O209 1.272 . S
O200 Co196 2.004 . S
O200 C205 1.259 . S
Co201 O202 2.061 . S
Co201 O207 2.052 . S
Co201 O209 2.135 . S
O202 Co201 2.061 . S
O202 C205 1.235 . S
C203 O206 1.238 . S
C203 O207 1.241 . S
C204 O197 1.247 . S
C204 O198 1.261 . S
C205 O200 1.259 . S
C205 O202 1.235 . S
O206 Co196 2.021 . S
O206 C203 1.238 . S
O207 Co201 2.052 . S
O207 C203 1.241 . S
O208 Co196 2.137 . S
O208 C199 1.247 . S
O209 Co196 2.244 . S
O209 C199 1.272 . S
O209 Co201 2.135 . S
Co210 O211 2.216 . S
Co210 O212 2.091 . S
Co210 O214 2.004 . S
Co210 O220 2.021 . S
Co210 O222 2.137 . S
Co210 O223 2.244 . S
O211 Co210 2.216 . S
O211 C218 1.247 . S
O212 Co210 2.091 . S
O212 C218 1.261 . S
C213 O222 1.247 . S
C213 O223 1.272 . S
O214 Co210 2.004 . S
O214 C219 1.259 . S
Co215 O216 2.061 . S
Co215 O221 2.052 . S
Co215 O223 2.135 . S
O216 Co215 2.061 . S
O216 C219 1.235 . S
C217 O220 1.238 . S
C217 O221 1.241 . S
C218 O211 1.247 . S
C218 O212 1.261 . S
C219 O214 1.259 . S
C219 O216 1.235 . S
O220 Co210 2.021 . S
O220 C217 1.238 . S
O221 Co215 2.052 . S
O221 C217 1.241 . S
O222 Co210 2.137 . S
O222 C213 1.247 . S
O223 Co210 2.244 . S
O223 C213 1.272 . S
O223 Co215 2.135 . S
Co224 O225 2.216 . S
Co224 O226 2.091 . S
Co224 O228 2.004 . S
Co224 O234 2.021 . S
Co224 O236 2.137 . S
Co224 O237 2.244 . S
O225 Co224 2.216 . S
O225 C232 1.247 . S
O226 Co224 2.091 . S
O226 C232 1.261 . S
C227 O236 1.247 . S
C227 O237 1.272 . S
O228 Co224 2.004 . S
O228 C233 1.259 . S
Co229 O230 2.061 . S
Co229 O235 2.052 . S
Co229 O237 2.135 . S
O230 Co229 2.061 . S
O230 C233 1.235 . S
C231 O234 1.238 . S
C231 O235 1.241 . S
C232 O225 1.247 . S
C232 O226 1.261 . S
C233 O228 1.259 . S
C233 O230 1.235 . S
O234 Co224 2.021 . S
O234 C231 1.238 . S
O235 Co229 2.052 . S
O235 C231 1.241 . S
O236 Co224 2.137 . S
O236 C227 1.247 . S
O237 Co224 2.244 . S
O237 C227 1.272 . S
O237 Co229 2.135 . S
Co238 O239 2.216 . S
Co238 O240 2.091 . S
Co238 O242 2.004 . S
Co238 O248 2.021 . S
Co238 O250 2.137 . S
Co238 O251 2.244 . S
O239 Co238 2.216 . S
O239 C246 1.247 . S
O240 Co238 2.091 . S
O240 C246 1.261 . S
C241 O250 1.247 . S
C241 O251 1.272 . S
O242 Co238 2.004 . S
O242 C247 1.259 . S
Co243 O244 2.061 . S
Co243 O249 2.052 . S
Co243 O251 2.135 . S
O244 Co243 2.061 . S
O244 C247 1.235 . S
C245 O248 1.238 . S
C245 O249 1.241 . S
C246 O239 1.247 . S
C246 O240 1.261 . S
C247 O242 1.259 . S
C247 O244 1.235 . S
O248 Co238 2.021 . S
O248 C245 1.238 . S
O249 Co243 2.052 . S
O249 C245 1.241 . S
O250 Co238 2.137 . S
O250 C241 1.247 . S
O251 Co238 2.244 . S
O251 C241 1.272 . S
O251 Co243 2.135 . S
Co252 O253 2.216 . S
Co252 O254 2.091 . S
Co252 O256 2.004 . S
Co252 O262 2.021 . S
Co252 O264 2.137 . S
Co252 O265 2.244 . S
O253 Co252 2.216 . S
O253 C260 1.247 . S
O254 Co252 2.091 . S
O254 C260 1.261 . S
C255 O264 1.247 . S
C255 O265 1.272 . S
O256 Co252 2.004 . S
O256 C261 1.259 . S
Co257 O258 2.061 . S
Co257 O263 2.052 . S
Co257 O265 2.135 . S
O258 Co257 2.061 . S
O258 C261 1.235 . S
C259 O262 1.238 . S
C259 O263 1.241 . S
C260 O253 1.247 . S
C260 O254 1.261 . S
C261 O256 1.259 . S
C261 O258 1.235 . S
O262 Co252 2.021 . S
O262 C259 1.238 . S
O263 Co257 2.052 . S
O263 C259 1.241 . S
O264 Co252 2.137 . S
O264 C255 1.247 . S
O265 Co252 2.244 . S
O265 C255 1.272 . S
O265 Co257 2.135 . S
Co266 O267 2.216 . S
Co266 O268 2.091 . S
Co266 O270 2.004 . S
Co266 O276 2.021 . S
Co266 O278 2.137 . S
Co266 O279 2.244 . S
O267 Co266 2.216 . S
O267 C274 1.247 . S
O268 Co266 2.091 . S
O268 C274 1.261 . S
C269 O278 1.247 . S
C269 O279 1.272 . S
O270 Co266 2.004 . S
O270 C275 1.259 . S
Co271 O272 2.061 . S
Co271 O277 2.052 . S
Co271 O279 2.135 . S
O272 Co271 2.061 . S
O272 C275 1.235 . S
C273 O276 1.238 . S
C273 O277 1.241 . S
C274 O267 1.247 . S
C274 O268 1.261 . S
C275 O270 1.259 . S
C275 O272 1.235 . S
O276 Co266 2.021 . S
O276 C273 1.238 . S
O277 Co271 2.052 . S
O277 C273 1.241 . S
O278 Co266 2.137 . S
O278 C269 1.247 . S
O279 Co266 2.244 . S
O279 C269 1.272 . S
O279 Co271 2.135 . S
Co280 O281 2.216 . S
Co280 O282 2.091 . S
Co280 O284 2.004 . S
Co280 O290 2.021 . S
Co280 O292 2.137 . S
Co280 O293 2.244 . S
O281 Co280 2.216 . S
O281 C288 1.247 . S
O282 Co280 2.091 . S
O282 C288 1.261 . S
C283 O292 1.247 . S
C283 O293 1.272 . S
O284 Co280 2.004 . S
O284 C289 1.259 . S
Co285 O286 2.061 . S
Co285 O291 2.052 . S
Co285 O293 2.135 . S
O286 Co285 2.061 . S
O286 C289 1.235 . S
C287 O290 1.238 . S
C287 O291 1.241 . S
C288 O281 1.247 . S
C288 O282 1.261 . S
C289 O284 1.259 . S
C289 O286 1.235 . S
O290 Co280 2.021 . S
O290 C287 1.238 . S
O291 Co285 2.052 . S
O291 C287 1.241 . S
O292 Co280 2.137 . S
O292 C283 1.247 . S
O293 Co280 2.244 . S
O293 C283 1.272 . S
O293 Co285 2.135 . S
Co294 O295 2.216 . S
Co294 O296 2.091 . S
Co294 O298 2.004 . S
Co294 O304 2.021 . S
Co294 O306 2.137 . S
Co294 O307 2.244 . S
O295 Co294 2.216 . S
O295 C302 1.247 . S
O296 Co294 2.091 . S
O296 C302 1.261 . S
C297 O306 1.247 . S
C297 O307 1.272 . S
O298 Co294 2.004 . S
O298 C303 1.259 . S
Co299 O300 2.061 . S
Co299 O305 2.052 . S
Co299 O307 2.135 . S
O300 Co299 2.061 . S
O300 C303 1.235 . S
C301 O304 1.238 . S
C301 O305 1.241 . S
C302 O295 1.247 . S
C302 O296 1.261 . S
C303 O298 1.259 . S
C303 O300 1.235 . S
O304 Co294 2.021 . S
O304 C301 1.238 . S
O305 Co299 2.052 . S
O305 C301 1.241 . S
O306 Co294 2.137 . S
O306 C297 1.247 . S
O307 Co294 2.244 . S
O307 C297 1.272 . S
O307 Co299 2.135 . S
Co308 O309 2.216 . S
Co308 O310 2.091 . S
Co308 O312 2.004 . S
Co308 O318 2.021 . S
Co308 O320 2.137 . S
Co308 O321 2.244 . S
O309 Co308 2.216 . S
O309 C316 1.247 . S
O310 Co308 2.091 . S
O310 C316 1.261 . S
C311 O320 1.247 . S
C311 O321 1.272 . S
O312 Co308 2.004 . S
O312 C317 1.259 . S
Co313 O314 2.061 . S
Co313 O319 2.052 . S
Co313 O321 2.135 . S
O314 Co313 2.061 . S
O314 C317 1.235 . S
C315 O318 1.238 . S
C315 O319 1.241 . S
C316 O309 1.247 . S
C316 O310 1.261 . S
C317 O312 1.259 . S
C317 O314 1.235 . S
O318 Co308 2.021 . S
O318 C315 1.238 . S
O319 Co313 2.052 . S
O319 C315 1.241 . S
O320 Co308 2.137 . S
O320 C311 1.247 . S
O321 Co308 2.244 . S
O321 C311 1.272 . S
O321 Co313 2.135 . S
Co322 O323 2.216 . S
Co322 O324 2.091 . S
Co322 O326 2.004 . S
Co322 O332 2.021 . S
Co322 O334 2.137 . S
Co322 O335 2.244 . S
O323 Co322 2.216 . S
O323 C330 1.247 . S
O324 Co322 2.091 . S
O324 C330 1.261 . S
C325 O334 1.247 . S
C325 O335 1.272 . S
O326 Co322 2.004 . S
O326 C331 1.259 . S
Co327 O328 2.061 . S
Co327 O333 2.052 . S
Co327 O335 2.135 . S
O328 Co327 2.061 . S
O328 C331 1.235 . S
C329 O332 1.238 . S
C329 O333 1.241 . S
C330 O323 1.247 . S
C330 O324 1.261 . S
C331 O326 1.259 . S
C331 O328 1.235 . S
O332 Co322 2.021 . S
O332 C329 1.238 . S
O333 Co327 2.052 . S
O333 C329 1.241 . S
O334 Co322 2.137 . S
O334 C325 1.247 . S
O335 Co322 2.244 . S
O335 C325 1.272 . S
O335 Co327 2.135 . S
Co336 O337 2.216 . S
Co336 O338 2.091 . S
Co336 O340 2.004 . S
Co336 O346 2.021 . S
Co336 O348 2.137 . S
Co336 O349 2.244 . S
O337 Co336 2.216 . S
O337 C344 1.247 . S
O338 Co336 2.091 . S
O338 C344 1.261 . S
C339 O348 1.247 . S
C339 O349 1.272 . S
O340 Co336 2.004 . S
O340 C345 1.259 . S
Co341 O342 2.061 . S
Co341 O347 2.052 . S
Co341 O349 2.135 . S
O342 Co341 2.061 . S
O342 C345 1.235 . S
C343 O346 1.238 . S
C343 O347 1.241 . S
C344 O337 1.247 . S
C344 O338 1.261 . S
C345 O340 1.259 . S
C345 O342 1.235 . S
O346 Co336 2.021 . S
O346 C343 1.238 . S
O347 Co341 2.052 . S
O347 C343 1.241 . S
O348 Co336 2.137 . S
O348 C339 1.247 . S
O349 Co336 2.244 . S
O349 C339 1.272 . S
O349 Co341 2.135 . S
Co350 O351 2.216 . S
Co350 O352 2.091 . S
Co350 O354 2.004 . S
Co350 O360 2.021 . S
Co350 O362 2.137 . S
Co350 O363 2.244 . S
O351 Co350 2.216 . S
O351 C358 1.247 . S
O352 Co350 2.091 . S
O352 C358 1.261 . S
C353 O362 1.247 . S
C353 O363 1.272 . S
O354 Co350 2.004 . S
O354 C359 1.259 . S
Co355 O356 2.061 . S
Co355 O361 2.052 . S
Co355 O363 2.135 . S
O356 Co355 2.061 . S
O356 C359 1.235 . S
C357 O360 1.238 . S
C357 O361 1.241 . S
C358 O351 1.247 . S
C358 O352 1.261 . S
C359 O354 1.259 . S
C359 O356 1.235 . S
O360 Co350 2.021 . S
O360 C357 1.238 . S
O361 Co355 2.052 . S
O361 C357 1.241 . S
O362 Co350 2.137 . S
O362 C353 1.247 . S
O363 Co350 2.244 . S
O363 C353 1.272 . S
O363 Co355 2.135 . S
Co364 O365 2.216 . S
Co364 O366 2.091 . S
Co364 O368 2.004 . S
Co364 O374 2.021 . S
Co364 O376 2.137 . S
Co364 O377 2.244 . S
O365 Co364 2.216 . S
O365 C372 1.247 . S
O366 Co364 2.091 . S
O366 C372 1.261 . S
C367 O376 1.247 . S
C367 O377 1.272 . S
O368 Co364 2.004 . S
O368 C373 1.259 . S
Co369 O370 2.061 . S
Co369 O375 2.052 . S
Co369 O377 2.135 . S
O370 Co369 2.061 . S
O370 C373 1.235 . S
C371 O374 1.238 . S
C371 O375 1.241 . S
C372 O365 1.247 . S
C372 O366 1.261 . S
C373 O368 1.259 . S
C373 O370 1.235 . S
O374 Co364 2.021 . S
O374 C371 1.238 . S
O375 Co369 2.052 . S
O375 C371 1.241 . S
O376 Co364 2.137 . S
O376 C367 1.247 . S
O377 Co364 2.244 . S
O377 C367 1.272 . S
O377 Co369 2.135 . S
Co378 O379 2.216 . S
Co378 O380 2.091 . S
Co378 O382 2.004 . S
Co378 O388 2.021 . S
Co378 O390 2.137 . S
Co378 O391 2.244 . S
O379 Co378 2.216 . S
O379 C386 1.247 . S
O380 Co378 2.091 . S
O380 C386 1.261 . S
C381 O390 1.247 . S
C381 O391 1.272 . S
O382 Co378 2.004 . S
O382 C387 1.259 . S
Co383 O384 2.061 . S
Co383 O389 2.052 . S
Co383 O391 2.135 . S
O384 Co383 2.061 . S
O384 C387 1.235 . S
C385 O388 1.238 . S
C385 O389 1.241 . S
C386 O379 1.247 . S
C386 O380 1.261 . S
C387 O382 1.259 . S
C387 O384 1.235 . S
O388 Co378 2.021 . S
O388 C385 1.238 . S
O389 Co383 2.052 . S
O389 C385 1.241 . S
O390 Co378 2.137 . S
O390 C381 1.247 . S
O391 Co378 2.244 . S
O391 C381 1.272 . S
O391 Co383 2.135 . S
Co392 O393 2.216 . S
Co392 O394 2.091 . S
Co392 O396 2.004 . S
Co392 O402 2.021 . S
Co392 O404 2.137 . S
Co392 O405 2.244 . S
O393 Co392 2.216 . S
O393 C400 1.247 . S
O394 Co392 2.091 . S
O394 C400 1.261 . S
C395 O404 1.247 . S
C395 O405 1.272 . S
O396 Co392 2.004 . S
O396 C401 1.259 . S
Co397 O398 2.061 . S
Co397 O403 2.052 . S
Co397 O405 2.135 . S
O398 Co397 2.061 . S
O398 C401 1.235 . S
C399 O402 1.238 . S
C399 O403 1.241 . S
C400 O393 1.247 . S
C400 O394 1.261 . S
C401 O396 1.259 . S
C401 O398 1.235 . S
O402 Co392 2.021 . S
O402 C399 1.238 . S
O403 Co397 2.052 . S
O403 C399 1.241 . S
O404 Co392 2.137 . S
O404 C395 1.247 . S
O405 Co392 2.244 . S
O405 C395 1.272 . S
O405 Co397 2.135 . S
Co406 O407 2.216 . S
Co406 O408 2.091 . S
Co406 O410 2.004 . S
Co406 O416 2.021 . S
Co406 O418 2.137 . S
Co406 O419 2.244 . S
O407 Co406 2.216 . S
O407 C414 1.247 . S
O408 Co406 2.091 . S
O408 C414 1.261 . S
C409 O418 1.247 . S
C409 O419 1.272 . S
O410 Co406 2.004 . S
O410 C415 1.259 . S
Co411 O412 2.061 . S
Co411 O417 2.052 . S
Co411 O419 2.135 . S
O412 Co411 2.061 . S
O412 C415 1.235 . S
C413 O416 1.238 . S
C413 O417 1.241 . S
C414 O407 1.247 . S
C414 O408 1.261 . S
C415 O410 1.259 . S
C415 O412 1.235 . S
O416 Co406 2.021 . S
O416 C413 1.238 . S
O417 Co411 2.052 . S
O417 C413 1.241 . S
O418 Co406 2.137 . S
O418 C409 1.247 . S
O419 Co406 2.244 . S
O419 C409 1.272 . S
O419 Co411 2.135 . S
Co420 O421 2.216 . S
Co420 O422 2.091 . S
Co420 O424 2.004 . S
Co420 O430 2.021 . S
Co420 O432 2.137 . S
Co420 O433 2.244 . S
O421 Co420 2.216 . S
O421 C428 1.247 . S
O422 Co420 2.091 . S
O422 C428 1.261 . S
C423 O432 1.247 . S
C423 O433 1.272 . S
O424 Co420 2.004 . S
O424 C429 1.259 . S
Co425 O426 2.061 . S
Co425 O431 2.052 . S
Co425 O433 2.135 . S
O426 Co425 2.061 . S
O426 C429 1.235 . S
C427 O430 1.238 . S
C427 O431 1.241 . S
C428 O421 1.247 . S
C428 O422 1.261 . S
C429 O424 1.259 . S
C429 O426 1.235 . S
O430 Co420 2.021 . S
O430 C427 1.238 . S
O431 Co425 2.052 . S
O431 C427 1.241 . S
O432 Co420 2.137 . S
O432 C423 1.247 . S
O433 Co420 2.244 . S
O433 C423 1.272 . S
O433 Co425 2.135 . S
Co434 O435 2.216 . S
Co434 O436 2.091 . S
Co434 O438 2.004 . S
Co434 O444 2.021 . S
Co434 O446 2.137 . S
Co434 O447 2.244 . S
O435 Co434 2.216 . S
O435 C442 1.247 . S
O436 Co434 2.091 . S
O436 C442 1.261 . S
C437 O446 1.247 . S
C437 O447 1.272 . S
O438 Co434 2.004 . S
O438 C443 1.259 . S
Co439 O440 2.061 . S
Co439 O445 2.052 . S
Co439 O447 2.135 . S
O440 Co439 2.061 . S
O440 C443 1.235 . S
C441 O444 1.238 . S
C441 O445 1.241 . S
C442 O435 1.247 . S
C442 O436 1.261 . S
C443 O438 1.259 . S
C443 O440 1.235 . S
O444 Co434 2.021 . S
O444 C441 1.238 . S
O445 Co439 2.052 . S
O445 C441 1.241 . S
O446 Co434 2.137 . S
O446 C437 1.247 . S
O447 Co434 2.244 . S
O447 C437 1.272 . S
O447 Co439 2.135 . S
Co448 O449 2.216 . S
Co448 O450 2.091 . S
Co448 O452 2.004 . S
Co448 O458 2.021 . S
Co448 O460 2.137 . S
Co448 O461 2.244 . S
O449 Co448 2.216 . S
O449 C456 1.247 . S
O450 Co448 2.091 . S
O450 C456 1.261 . S
C451 O460 1.247 . S
C451 O461 1.272 . S
O452 Co448 2.004 . S
O452 C457 1.259 . S
Co453 O454 2.061 . S
Co453 O459 2.052 . S
Co453 O461 2.135 . S
O454 Co453 2.061 . S
O454 C457 1.235 . S
C455 O458 1.238 . S
C455 O459 1.241 . S
C456 O449 1.247 . S
C456 O450 1.261 . S
C457 O452 1.259 . S
C457 O454 1.235 . S
O458 Co448 2.021 . S
O458 C455 1.238 . S
O459 Co453 2.052 . S
O459 C455 1.241 . S
O460 Co448 2.137 . S
O460 C451 1.247 . S
O461 Co448 2.244 . S
O461 C451 1.272 . S
O461 Co453 2.135 . S
Co462 O463 2.216 . S
Co462 O464 2.091 . S
Co462 O466 2.004 . S
Co462 O472 2.021 . S
Co462 O474 2.137 . S
Co462 O475 2.244 . S
O463 Co462 2.216 . S
O463 C470 1.247 . S
O464 Co462 2.091 . S
O464 C470 1.261 . S
C465 O474 1.247 . S
C465 O475 1.272 . S
O466 Co462 2.004 . S
O466 C471 1.259 . S
Co467 O468 2.061 . S
Co467 O473 2.052 . S
Co467 O475 2.135 . S
O468 Co467 2.061 . S
O468 C471 1.235 . S
C469 O472 1.238 . S
C469 O473 1.241 . S
C470 O463 1.247 . S
C470 O464 1.261 . S
C471 O466 1.259 . S
C471 O468 1.235 . S
O472 Co462 2.021 . S
O472 C469 1.238 . S
O473 Co467 2.052 . S
O473 C469 1.241 . S
O474 Co462 2.137 . S
O474 C465 1.247 . S
O475 Co462 2.244 . S
O475 C465 1.272 . S
O475 Co467 2.135 . S
Co476 O477 2.216 . S
Co476 O478 2.091 . S
Co476 O480 2.004 . S
Co476 O486 2.021 . S
Co476 O488 2.137 . S
Co476 O489 2.244 . S
O477 Co476 2.216 . S
O477 C484 1.247 . S
O478 Co476 2.091 . S
O478 C484 1.261 . S
C479 O488 1.247 . S
C479 O489 1.272 . S
O480 Co476 2.004 . S
O480 C485 1.259 . S
Co481 O482 2.061 . S
Co481 O487 2.052 . S
Co481 O489 2.135 . S
O482 Co481 2.061 . S
O482 C485 1.235 . S
C483 O486 1.238 . S
C483 O487 1.241 . S
C484 O477 1.247 . S
C484 O478 1.261 . S
C485 O480 1.259 . S
C485 O482 1.235 . S
O486 Co476 2.021 . S
O486 C483 1.238 . S
O487 Co481 2.052 . S
O487 C483 1.241 . S
O488 Co476 2.137 . S
O488 C479 1.247 . S
O489 Co476 2.244 . S
O489 C479 1.272 . S
O489 Co481 2.135 . S
Co490 O491 2.216 . S
Co490 O492 2.091 . S
Co490 O494 2.004 . S
Co490 O500 2.021 . S
Co490 O502 2.137 . S
Co490 O503 2.244 . S
O491 Co490 2.216 . S
O491 C498 1.247 . S
O492 Co490 2.091 . S
O492 C498 1.261 . S
C493 O502 1.247 . S
C493 O503 1.272 . S
O494 Co490 2.004 . S
O494 C499 1.259 . S
Co495 O496 2.061 . S
Co495 O501 2.052 . S
Co495 O503 2.135 . S
O496 Co495 2.061 . S
O496 C499 1.235 . S
C497 O500 1.238 . S
C497 O501 1.241 . S
C498 O491 1.247 . S
C498 O492 1.261 . S
C499 O494 1.259 . S
C499 O496 1.235 . S
O500 Co490 2.021 . S
O500 C497 1.238 . S
O501 Co495 2.052 . S
O501 C497 1.241 . S
O502 Co490 2.137 . S
O502 C493 1.247 . S
O503 Co490 2.244 . S
O503 C493 1.272 . S
O503 Co495 2.135 . S
Co504 O505 2.216 . S
Co504 O506 2.091 . S
Co504 O508 2.004 . S
Co504 O514 2.021 . S
Co504 O516 2.137 . S
Co504 O517 2.244 . S
O505 Co504 2.216 . S
O505 C512 1.247 . S
O506 Co504 2.091 . S
O506 C512 1.261 . S
C507 O516 1.247 . S
C507 O517 1.272 . S
O508 Co504 2.004 . S
O508 C513 1.259 . S
Co509 O510 2.061 . S
Co509 O515 2.052 . S
Co509 O517 2.135 . S
O510 Co509 2.061 . S
O510 C513 1.235 . S
C511 O514 1.238 . S
C511 O515 1.241 . S
C512 O505 1.247 . S
C512 O506 1.261 . S
C513 O508 1.259 . S
C513 O510 1.235 . S
O514 Co504 2.021 . S
O514 C511 1.238 . S
O515 Co509 2.052 . S
O515 C511 1.241 . S
O516 Co504 2.137 . S
O516 C507 1.247 . S
O517 Co504 2.244 . S
O517 C507 1.272 . S
O517 Co509 2.135 . S
Co518 O519 2.216 . S
Co518 O520 2.091 . S
Co518 O522 2.004 . S
Co518 O528 2.021 . S
Co518 O530 2.137 . S
Co518 O531 2.244 . S
O519 Co518 2.216 . S
O519 C526 1.247 . S
O520 Co518 2.091 . S
O520 C526 1.261 . S
C521 O530 1.247 . S
C521 O531 1.272 . S
O522 Co518 2.004 . S
O522 C527 1.259 . S
Co523 O524 2.061 . S
Co523 O529 2.052 . S
Co523 O531 2.135 . S
O524 Co523 2.061 . S
O524 C527 1.235 . S
C525 O528 1.238 . S
C525 O529 1.241 . S
C526 O519 1.247 . S
C526 O520 1.261 . S
C527 O522 1.259 . S
C527 O524 1.235 . S
O528 Co518 2.021 . S
O528 C525 1.238 . S
O529 Co523 2.052 . S
O529 C525 1.241 . S
O530 Co518 2.137 . S
O530 C521 1.247 . S
O531 Co518 2.244 . S
O531 C521 1.272 . S
O531 Co523 2.135 . S
Co532 O533 2.216 . S
Co532 O534 2.091 . S
Co532 O536 2.004 . S
Co532 O542 2.021 . S
Co532 O544 2.137 . S
Co532 O545 2.244 . S
O533 Co532 2.216 . S
O533 C540 1.247 . S
O534 Co532 2.091 . S
O534 C540 1.261 . S
C535 O544 1.247 . S
C535 O545 1.272 . S
O536 Co532 2.004 . S
O536 C541 1.259 . S
Co537 O538 2.061 . S
Co537 O543 2.052 . S
Co537 O545 2.135 . S
O538 Co537 2.061 . S
O538 C541 1.235 . S
C539 O542 1.238 . S
C539 O543 1.241 . S
C540 O533 1.247 . S
C540 O534 1.261 . S
C541 O536 1.259 . S
C541 O538 1.235 . S
O542 Co532 2.021 . S
O542 C539 1.238 . S
O543 Co537 2.052 . S
O543 C539 1.241 . S
O544 Co532 2.137 . S
O544 C535 1.247 . S
O545 Co532 2.244 . S
O545 C535 1.272 . S
O545 Co537 2.135 . S
Co546 O547 2.216 . S
Co546 O548 2.091 . S
Co546 O550 2.004 . S
Co546 O556 2.021 . S
Co546 O558 2.137 . S
Co546 O559 2.244 . S
O547 Co546 2.216 . S
O547 C554 1.247 . S
O548 Co546 2.091 . S
O548 C554 1.261 . S
C549 O558 1.247 . S
C549 O559 1.272 . S
O550 Co546 2.004 . S
O550 C555 1.259 . S
Co551 O552 2.061 . S
Co551 O557 2.052 . S
Co551 O559 2.135 . S
O552 Co551 2.061 . S
O552 C555 1.235 . S
C553 O556 1.238 . S
C553 O557 1.241 . S
C554 O547 1.247 . S
C554 O548 1.261 . S
C555 O550 1.259 . S
C555 O552 1.235 . S
O556 Co546 2.021 . S
O556 C553 1.238 . S
O557 Co551 2.052 . S
O557 C553 1.241 . S
O558 Co546 2.137 . S
O558 C549 1.247 . S
O559 Co546 2.244 . S
O559 C549 1.272 . S
O559 Co551 2.135 . S
Co560 O561 2.216 . S
Co560 O562 2.091 . S
Co560 O564 2.004 . S
Co560 O570 2.021 . S
Co560 O572 2.137 . S
Co560 O573 2.244 . S
O561 Co560 2.216 . S
O561 C568 1.247 . S
O562 Co560 2.091 . S
O562 C568 1.261 . S
C563 O572 1.247 . S
C563 O573 1.272 . S
O564 Co560 2.004 . S
O564 C569 1.259 . S
Co565 O566 2.061 . S
Co565 O571 2.052 . S
Co565 O573 2.135 . S
O566 Co565 2.061 . S
O566 C569 1.235 . S
C567 O570 1.238 . S
C567 O571 1.241 . S
C568 O561 1.247 . S
C568 O562 1.261 . S
C569 O564 1.259 . S
C569 O566 1.235 . S
O570 Co560 2.021 . S
O570 C567 1.238 . S
O571 Co565 2.052 . S
O571 C567 1.241 . S
O572 Co560 2.137 . S
O572 C563 1.247 . S
O573 Co560 2.244 . S
O573 C563 1.272 . S
O573 Co565 2.135 . S
Co574 O575 2.216 . S
Co574 O576 2.091 . S
Co574 O578 2.004 . S
Co574 O584 2.021 . S
Co574 O586 2.137 . S
Co574 O587 2.244 . S
O575 Co574 2.216 . S
O575 C582 1.247 . S
O576 Co574 2.091 . S
O576 C582 1.261 . S
C577 O586 1.247 . S
C577 O587 1.272 . S
O578 Co574 2.004 . S
O578 C583 1.259 . S
Co579 O580 2.061 . S
Co579 O585 2.052 . S
Co579 O587 2.135 . S
O580 Co579 2.061 . S
O580 C583 1.235 . S
C581 O584 1.238 . S
C581 O585 1.241 . S
C582 O575 1.247 . S
C582 O576 1.261 . S
C583 O578 1.259 . S
C583 O580 1.235 . S
O584 Co574 2.021 . S
O584 C581 1.238 . S
O585 Co579 2.052 . S
O585 C581 1.241 . S
O586 Co574 2.137 . S
O586 C577 1.247 . S
O587 Co574 2.244 . S
O587 C577 1.272 . S
O587 Co579 2.135 . S
Co588 O589 2.216 . S
Co588 O590 2.091 . S
Co588 O592 2.004 . S
Co588 O598 2.021 . S
Co588 O600 2.137 . S
Co588 O601 2.244 . S
O589 Co588 2.216 . S
O589 C596 1.247 . S
O590 Co588 2.091 . S
O590 C596 1.261 . S
C591 O600 1.247 . S
C591 O601 1.272 . S
O592 Co588 2.004 . S
O592 C597 1.259 . S
Co593 O594 2.061 . S
Co593 O599 2.052 . S
Co593 O601 2.135 . S
O594 Co593 2.061 . S
O594 C597 1.235 . S
C595 O598 1.238 . S
C595 O599 1.241 . S
C596 O589 1.247 . S
C596 O590 1.261 . S
C597 O592 1.259 . S
C597 O594 1.235 . S
O598 Co588 2.021 . S
O598 C595 1.238 . S
O599 Co593 2.052 . S
O599 C595 1.241 . S
O600 Co588 2.137 . S
O600 C591 1.247 . S
O601 Co588 2.244 . S
O601 C591 1.272 . S
O601 Co593 2.135 . S
Co602 O603 2.216 . S
Co602 O604 2.091 . S
Co602 O606 2.004 . S
Co602 O612 2.021 . S
Co602 O614 2.137 . S
Co602 O615 2.244 . S
O603 Co602 2.216 . S
O603 C610 1.247 . S
O604 Co602 2.091 . S
O604 C610 1.261 . S
C605 O614 1.247 . S
C605 O615 1.272 . S
O606 Co602 2.004 . S
O606 C611 1.259 . S
Co607 O608 2.061 . S
Co607 O613 2.052 . S
Co607 O615 2.135 . S
O608 Co607 2.061 . S
O608 C611 1.235 . S
C609 O612 1.238 . S
C609 O613 1.241 . S
C610 O603 1.247 . S
C610 O604 1.261 . S
C611 O606 1.259 . S
C611 O608 1.235 . S
O612 Co602 2.021 . S
O612 C609 1.238 . S
O613 Co607 2.052 . S
O613 C609 1.241 . S
O614 Co602 2.137 . S
O614 C605 1.247 . S
O615 Co602 2.244 . S
O615 C605 1.272 . S
O615 Co607 2.135 . S
Co616 O617 2.216 . S
Co616 O618 2.091 . S
Co616 O620 2.004 . S
Co616 O626 2.021 . S
Co616 O628 2.137 . S
Co616 O629 2.244 . S
O617 Co616 2.216 . S
O617 C624 1.247 . S
O618 Co616 2.091 . S
O618 C624 1.261 . S
C619 O628 1.247 . S
C619 O629 1.272 . S
O620 Co616 2.004 . S
O620 C625 1.259 . S
Co621 O622 2.061 . S
Co621 O627 2.052 . S
Co621 O629 2.135 . S
O622 Co621 2.061 . S
O622 C625 1.235 . S
C623 O626 1.238 . S
C623 O627 1.241 . S
C624 O617 1.247 . S
C624 O618 1.261 . S
C625 O620 1.259 . S
C625 O622 1.235 . S
O626 Co616 2.021 . S
O626 C623 1.238 . S
O627 Co621 2.052 . S
O627 C623 1.241 . S
O628 Co616 2.137 . S
O628 C619 1.247 . S
O629 Co616 2.244 . S
O629 C619 1.272 . S
O629 Co621 2.135 . S
Co630 O631 2.216 . S
Co630 O632 2.091 . S
Co630 O634 2.004 . S
Co630 O640 2.021 . S
Co630 O642 2.137 . S
Co630 O643 2.244 . S
O631 Co630 2.216 . S
O631 C638 1.247 . S
O632 Co630 2.091 . S
O632 C638 1.261 . S
C633 O642 1.247 . S
C633 O643 1.272 . S
O634 Co630 2.004 . S
O634 C639 1.259 . S
Co635 O636 2.061 . S
Co635 O641 2.052 . S
Co635 O643 2.135 . S
O636 Co635 2.061 . S
O636 C639 1.235 . S
C637 O640 1.238 . S
C637 O641 1.241 . S
C638 O631 1.247 . S
C638 O632 1.261 . S
C639 O634 1.259 . S
C639 O636 1.235 . S
O640 Co630 2.021 . S
O640 C637 1.238 . S
O641 Co635 2.052 . S
O641 C637 1.241 . S
O642 Co630 2.137 . S
O642 C633 1.247 . S
O643 Co630 2.244 . S
O643 C633 1.272 . S
O643 Co635 2.135 . S
Co644 O645 2.216 . S
Co644 O646 2.091 . S
Co644 O648 2.004 . S
Co644 O654 2.021 . S
Co644 O656 2.137 . S
Co644 O657 2.244 . S
O645 Co644 2.216 . S
O645 C652 1.247 . S
O646 Co644 2.091 . S
O646 C652 1.261 . S
C647 O656 1.247 . S
C647 O657 1.272 . S
O648 Co644 2.004 . S
O648 C653 1.259 . S
Co649 O650 2.061 . S
Co649 O655 2.052 . S
Co649 O657 2.135 . S
O650 Co649 2.061 . S
O650 C653 1.235 . S
C651 O654 1.238 . S
C651 O655 1.241 . S
C652 O645 1.247 . S
C652 O646 1.261 . S
C653 O648 1.259 . S
C653 O650 1.235 . S
O654 Co644 2.021 . S
O654 C651 1.238 . S
O655 Co649 2.052 . S
O655 C651 1.241 . S
O656 Co644 2.137 . S
O656 C647 1.247 . S
O657 Co644 2.244 . S
O657 C647 1.272 . S
O657 Co649 2.135 . S
Co658 O659 2.216 . S
Co658 O660 2.091 . S
Co658 O662 2.004 . S
Co658 O668 2.021 . S
Co658 O670 2.137 . S
Co658 O671 2.244 . S
O659 Co658 2.216 . S
O659 C666 1.247 . S
O660 Co658 2.091 . S
O660 C666 1.261 . S
C661 O670 1.247 . S
C661 O671 1.272 . S
O662 Co658 2.004 . S
O662 C667 1.259 . S
Co663 O664 2.061 . S
Co663 O669 2.052 . S
Co663 O671 2.135 . S
O664 Co663 2.061 . S
O664 C667 1.235 . S
C665 O668 1.238 . S
C665 O669 1.241 . S
C666 O659 1.247 . S
C666 O660 1.261 . S
C667 O662 1.259 . S
C667 O664 1.235 . S
O668 Co658 2.021 . S
O668 C665 1.238 . S
O669 Co663 2.052 . S
O669 C665 1.241 . S
O670 Co658 2.137 . S
O670 C661 1.247 . S
O671 Co658 2.244 . S
O671 C661 1.272 . S
O671 Co663 2.135 . S
H672 C680 0.929 . S
H673 C682 0.930 . S
H674 C684 0.930 . S
H675 C687 0.929 . S
H676 C690 0.930 . S
H677 C692 0.960 . S
H678 C692 0.960 . S
H679 C692 0.960 . S
C680 H672 0.929 . S
C680 C681 1.377 . S
C680 C682 1.384 . S
C681 C680 1.377 . S
C681 C687 1.390 . S
C682 H673 0.930 . S
C682 C680 1.384 . S
C682 C683 1.372 . S
C683 C682 1.372 . S
C683 C684 1.400 . S
C683 C688 1.490 . S
C684 H674 0.930 . S
C684 C683 1.400 . S
C684 C687 1.386 . S
H685 C701 0.930 . S
H686 C702 0.931 . S
C687 H675 0.929 . S
C687 C681 1.390 . S
C687 C684 1.386 . S
C688 C683 1.490 . S
C688 C690 1.395 . S
C688 C691 1.403 . S
H689 C695 0.930 . S
C690 H676 0.930 . S
C690 C688 1.395 . S
C690 C693 1.403 . S
C691 C688 1.403 . S
C691 C692 1.524 . S
C691 C695 1.400 . S
C692 H677 0.960 . S
C692 H678 0.960 . S
C692 H679 0.960 . S
C692 C691 1.524 . S
C693 C690 1.403 . S
C693 C694 1.392 . S
C693 C697 1.495 . S
C694 C693 1.392 . S
C694 C695 1.385 . S
C694 C696 1.478 . S
C695 H689 0.930 . S
C695 C691 1.400 . S
C695 C694 1.385 . S
C696 C694 1.478 . S
C696 C698 1.381 . S
C696 C702 1.383 . S
C697 C693 1.495 . S
C697 H703 0.959 . S
C697 H704 0.961 . S
C697 H705 0.960 . S
C698 C696 1.381 . S
C698 C699 1.394 . S
C698 H706 0.930 . S
C699 C698 1.394 . S
C699 C700 1.383 . S
C699 H707 0.929 . S
C700 C699 1.383 . S
C700 C701 1.377 . S
C701 H685 0.930 . S
C701 C700 1.377 . S
C701 C702 1.379 . S
C702 H686 0.931 . S
C702 C696 1.383 . S
C702 C701 1.379 . S
H703 C697 0.959 . S
H704 C697 0.961 . S
H705 C697 0.960 . S
H706 C698 0.930 . S
H707 C699 0.929 . S
H708 C716 0.929 . S
H709 C718 0.930 . S
H710 C720 0.930 . S
H711 C723 0.929 . S
H712 C726 0.930 1_455 S
H713 C728 0.960 . S
H714 C728 0.960 . S
H715 C728 0.960 . S
C716 H708 0.929 . S
C716 C717 1.377 . S
C716 C718 1.384 . S
C717 C716 1.377 . S
C717 C723 1.390 . S
C718 H709 0.930 . S
C718 C716 1.384 . S
C718 C719 1.372 . S
C719 C718 1.372 . S
C719 C720 1.400 . S
C719 C724 1.490 1_455 S
C720 H710 0.930 . S
C720 C719 1.400 . S
C720 C723 1.386 . S
H721 C737 0.930 . S
H722 C738 0.931 . S
C723 H711 0.929 . S
C723 C717 1.390 . S
C723 C720 1.386 . S
C724 C719 1.490 1_655 S
C724 C726 1.395 . S
C724 C727 1.403 . S
H725 C731 0.930 . S
C726 H712 0.930 1_655 S
C726 C724 1.395 . S
C726 C729 1.403 . S
C727 C724 1.403 . S
C727 C728 1.524 . S
C727 C731 1.400 . S
C728 H713 0.960 . S
C728 H714 0.960 . S
C728 H715 0.960 . S
C728 C727 1.524 . S
C729 C726 1.403 . S
C729 C730 1.392 . S
C729 C733 1.495 . S
C730 C729 1.392 . S
C730 C731 1.385 . S
C730 C732 1.478 . S
C731 H725 0.930 . S
C731 C727 1.400 . S
C731 C730 1.385 . S
C732 C730 1.478 . S
C732 C734 1.381 . S
C732 C738 1.383 . S
C733 C729 1.495 . S
C733 H739 0.959 . S
C733 H740 0.961 . S
C733 H741 0.960 . S
C734 C732 1.381 . S
C734 C735 1.394 . S
C734 H742 0.930 . S
C735 C734 1.394 . S
C735 C736 1.383 . S
C735 H743 0.929 . S
C736 C735 1.383 . S
C736 C737 1.377 . S
C737 H721 0.930 . S
C737 C736 1.377 . S
C737 C738 1.379 . S
C738 H722 0.931 . S
C738 C732 1.383 . S
C738 C737 1.379 . S
H739 C733 0.959 . S
H740 C733 0.961 . S
H741 C733 0.960 . S
H742 C734 0.930 . S
H743 C735 0.929 . S
H744 C752 0.929 . S
H745 C754 0.930 . S
H746 C756 0.930 . S
H747 C759 0.929 . S
H748 C762 0.930 . S
H749 C764 0.960 . S
H750 C764 0.960 . S
H751 C764 0.960 . S
C752 H744 0.929 . S
C752 C753 1.377 . S
C752 C754 1.384 . S
C753 C752 1.377 . S
C753 C759 1.390 . S
C754 H745 0.930 . S
C754 C752 1.384 . S
C754 C755 1.372 . S
C755 C754 1.372 . S
C755 C756 1.400 . S
C755 C760 1.490 . S
C756 H746 0.930 . S
C756 C755 1.400 . S
C756 C759 1.386 . S
H757 C773 0.930 . S
H758 C774 0.931 . S
C759 H747 0.929 . S
C759 C753 1.390 . S
C759 C756 1.386 . S
C760 C755 1.490 . S
C760 C762 1.395 . S
C760 C763 1.403 . S
H761 C767 0.930 . S
C762 H748 0.930 . S
C762 C760 1.395 . S
C762 C765 1.403 . S
C763 C760 1.403 . S
C763 C764 1.524 . S
C763 C767 1.400 . S
C764 H749 0.960 . S
C764 H750 0.960 . S
C764 H751 0.960 . S
C764 C763 1.524 . S
C765 C762 1.403 . S
C765 C766 1.392 . S
C765 C769 1.495 . S
C766 C765 1.392 . S
C766 C767 1.385 . S
C766 C768 1.478 . S
C767 H761 0.930 . S
C767 C763 1.400 . S
C767 C766 1.385 . S
C768 C766 1.478 . S
C768 C770 1.381 . S
C768 C774 1.383 . S
C769 C765 1.495 . S
C769 H775 0.959 . S
C769 H776 0.961 . S
C769 H777 0.960 . S
C770 C768 1.381 . S
C770 C771 1.394 . S
C770 H778 0.930 . S
C771 C770 1.394 . S
C771 C772 1.383 . S
C771 H779 0.929 . S
C772 C771 1.383 . S
C772 C773 1.377 . S
C773 H757 0.930 . S
C773 C772 1.377 . S
C773 C774 1.379 . S
C774 H758 0.931 . S
C774 C768 1.383 . S
C774 C773 1.379 . S
H775 C769 0.959 . S
H776 C769 0.961 . S
H777 C769 0.960 . S
H778 C770 0.930 . S
H779 C771 0.929 . S
H780 C788 0.929 . S
H781 C790 0.930 . S
H782 C792 0.930 . S
H783 C795 0.929 . S
H784 C798 0.930 . S
H785 C800 0.960 . S
H786 C800 0.960 . S
H787 C800 0.960 . S
C788 H780 0.929 . S
C788 C789 1.377 . S
C788 C790 1.384 . S
C789 C788 1.377 . S
C789 C795 1.390 . S
C790 H781 0.930 . S
C790 C788 1.384 . S
C790 C791 1.372 . S
C791 C790 1.372 . S
C791 C792 1.400 . S
C791 C796 1.490 . S
C792 H782 0.930 . S
C792 C791 1.400 . S
C792 C795 1.386 . S
H793 C809 0.930 . S
H794 C810 0.931 . S
C795 H783 0.929 . S
C795 C789 1.390 . S
C795 C792 1.386 . S
C796 C791 1.490 . S
C796 C798 1.395 . S
C796 C799 1.403 . S
H797 C803 0.930 . S
C798 H784 0.930 . S
C798 C796 1.395 . S
C798 C801 1.403 . S
C799 C796 1.403 . S
C799 C800 1.524 . S
C799 C803 1.400 . S
C800 H785 0.960 . S
C800 H786 0.960 . S
C800 H787 0.960 . S
C800 C799 1.524 . S
C801 C798 1.403 . S
C801 C802 1.392 . S
C801 C805 1.495 . S
C802 C801 1.392 . S
C802 C803 1.385 . S
C802 C804 1.478 . S
C803 H797 0.930 . S
C803 C799 1.400 . S
C803 C802 1.385 . S
C804 C802 1.478 . S
C804 C806 1.381 . S
C804 C810 1.383 . S
C805 C801 1.495 . S
C805 H811 0.959 . S
C805 H812 0.961 . S
C805 H813 0.960 . S
C806 C804 1.381 . S
C806 C807 1.394 . S
C806 H814 0.930 . S
C807 C806 1.394 . S
C807 C808 1.383 . S
C807 H815 0.929 . S
C808 C807 1.383 . S
C808 C809 1.377 . S
C809 H793 0.930 . S
C809 C808 1.377 . S
C809 C810 1.379 . S
C810 H794 0.931 . S
C810 C804 1.383 . S
C810 C809 1.379 . S
H811 C805 0.959 . S
H812 C805 0.961 . S
H813 C805 0.960 . S
H814 C806 0.930 . S
H815 C807 0.929 . S
H816 C824 0.929 . S
H817 C826 0.930 . S
H818 C828 0.930 . S
H819 C831 0.929 . S
H820 C834 0.930 . S
H821 C836 0.960 . S
H822 C836 0.960 . S
H823 C836 0.960 . S
C824 H816 0.929 . S
C824 C825 1.377 . S
C824 C826 1.384 . S
C825 C824 1.377 . S
C825 C831 1.390 . S
C826 H817 0.930 . S
C826 C824 1.384 . S
C826 C827 1.372 . S
C827 C826 1.372 . S
C827 C828 1.400 . S
C827 C832 1.490 . S
C828 H818 0.930 . S
C828 C827 1.400 . S
C828 C831 1.386 . S
H829 C845 0.930 . S
H830 C846 0.931 . S
C831 H819 0.929 . S
C831 C825 1.390 . S
C831 C828 1.386 . S
C832 C827 1.490 . S
C832 C834 1.395 . S
C832 C835 1.403 . S
H833 C839 0.930 . S
C834 H820 0.930 . S
C834 C832 1.395 . S
C834 C837 1.403 . S
C835 C832 1.403 . S
C835 C836 1.524 . S
C835 C839 1.400 . S
C836 H821 0.960 . S
C836 H822 0.960 . S
C836 H823 0.960 . S
C836 C835 1.524 . S
C837 C834 1.403 . S
C837 C838 1.392 . S
C837 C841 1.495 . S
C838 C837 1.392 . S
C838 C839 1.385 . S
C838 C840 1.478 . S
C839 H833 0.930 . S
C839 C835 1.400 . S
C839 C838 1.385 . S
C840 C838 1.478 . S
C840 C842 1.381 . S
C840 C846 1.383 . S
C841 C837 1.495 . S
C841 H847 0.959 . S
C841 H848 0.961 . S
C841 H849 0.960 . S
C842 C840 1.381 . S
C842 C843 1.394 . S
C842 H850 0.930 . S
C843 C842 1.394 . S
C843 C844 1.383 . S
C843 H851 0.929 . S
C844 C843 1.383 . S
C844 C845 1.377 . S
C845 H829 0.930 . S
C845 C844 1.377 . S
C845 C846 1.379 . S
C846 H830 0.931 . S
C846 C840 1.383 . S
C846 C845 1.379 . S
H847 C841 0.959 . S
H848 C841 0.961 . S
H849 C841 0.960 . S
H850 C842 0.930 . S
H851 C843 0.929 . S
H852 C860 0.929 . S
H853 C862 0.930 . S
H854 C864 0.930 . S
H855 C867 0.929 . S
H856 C870 0.930 . S
H857 C872 0.960 . S
H858 C872 0.960 . S
H859 C872 0.960 . S
C860 H852 0.929 . S
C860 C861 1.377 . S
C860 C862 1.384 . S
C861 C860 1.377 . S
C861 C867 1.390 . S
C862 H853 0.930 . S
C862 C860 1.384 . S
C862 C863 1.372 . S
C863 C862 1.372 . S
C863 C864 1.400 . S
C863 C868 1.490 . S
C864 H854 0.930 . S
C864 C863 1.400 . S
C864 C867 1.386 . S
H865 C881 0.930 . S
H866 C882 0.931 . S
C867 H855 0.929 . S
C867 C861 1.390 . S
C867 C864 1.386 . S
C868 C863 1.490 . S
C868 C870 1.395 . S
C868 C871 1.403 . S
H869 C875 0.930 . S
C870 H856 0.930 . S
C870 C868 1.395 . S
C870 C873 1.403 . S
C871 C868 1.403 . S
C871 C872 1.524 . S
C871 C875 1.400 . S
C872 H857 0.960 . S
C872 H858 0.960 . S
C872 H859 0.960 . S
C872 C871 1.524 . S
C873 C870 1.403 . S
C873 C874 1.392 . S
C873 C877 1.495 . S
C874 C873 1.392 . S
C874 C875 1.385 . S
C874 C876 1.478 . S
C875 H869 0.930 . S
C875 C871 1.400 . S
C875 C874 1.385 . S
C876 C874 1.478 . S
C876 C878 1.381 . S
C876 C882 1.383 . S
C877 C873 1.495 . S
C877 H883 0.959 . S
C877 H884 0.961 . S
C877 H885 0.960 . S
C878 C876 1.381 . S
C878 C879 1.394 . S
C878 H886 0.930 . S
C879 C878 1.394 . S
C879 C880 1.383 . S
C879 H887 0.929 . S
C880 C879 1.383 . S
C880 C881 1.377 . S
C881 H865 0.930 . S
C881 C880 1.377 . S
C881 C882 1.379 . S
C882 H866 0.931 . S
C882 C876 1.383 . S
C882 C881 1.379 . S
H883 C877 0.959 . S
H884 C877 0.961 . S
H885 C877 0.960 . S
H886 C878 0.930 . S
H887 C879 0.929 . S
H888 C896 0.929 . S
H889 C898 0.930 . S
H890 C900 0.930 . S
H891 C903 0.929 . S
H892 C906 0.930 . S
H893 C908 0.960 . S
H894 C908 0.960 . S
H895 C908 0.960 . S
C896 H888 0.929 . S
C896 C897 1.377 . S
C896 C898 1.384 . S
C897 C896 1.377 . S
C897 C903 1.390 . S
C898 H889 0.930 . S
C898 C896 1.384 . S
C898 C899 1.372 . S
C899 C898 1.372 . S
C899 C900 1.400 . S
C899 C904 1.490 . S
C900 H890 0.930 . S
C900 C899 1.400 . S
C900 C903 1.386 . S
H901 C917 0.930 . S
H902 C918 0.931 . S
C903 H891 0.929 . S
C903 C897 1.390 . S
C903 C900 1.386 . S
C904 C899 1.490 . S
C904 C906 1.395 . S
C904 C907 1.403 . S
H905 C911 0.930 . S
C906 H892 0.930 . S
C906 C904 1.395 . S
C906 C909 1.403 . S
C907 C904 1.403 . S
C907 C908 1.524 . S
C907 C911 1.400 . S
C908 H893 0.960 . S
C908 H894 0.960 . S
C908 H895 0.960 . S
C908 C907 1.524 . S
C909 C906 1.403 . S
C909 C910 1.392 . S
C909 C913 1.495 . S
C910 C909 1.392 . S
C910 C911 1.385 . S
C910 C912 1.478 . S
C911 H905 0.930 . S
C911 C907 1.400 . S
C911 C910 1.385 . S
C912 C910 1.478 . S
C912 C914 1.381 . S
C912 C918 1.383 . S
C913 C909 1.495 . S
C913 H919 0.959 . S
C913 H920 0.961 . S
C913 H921 0.960 . S
C914 C912 1.381 . S
C914 C915 1.394 . S
C914 H922 0.930 . S
C915 C914 1.394 . S
C915 C916 1.383 . S
C915 H923 0.929 . S
C916 C915 1.383 . S
C916 C917 1.377 . S
C917 H901 0.930 . S
C917 C916 1.377 . S
C917 C918 1.379 . S
C918 H902 0.931 . S
C918 C912 1.383 . S
C918 C917 1.379 . S
H919 C913 0.959 . S
H920 C913 0.961 . S
H921 C913 0.960 . S
H922 C914 0.930 . S
H923 C915 0.929 . S
H924 C932 0.929 . S
H925 C934 0.930 . S
H926 C936 0.930 . S
H927 C939 0.929 . S
H928 C942 0.930 . S
H929 C944 0.930 1_655 S
H930 C944 0.987 . S
H931 C944 1.001 . S
C932 H924 0.929 . S
C932 C933 1.377 . S
C932 C934 1.384 . S
C933 C932 1.377 . S
C933 C939 1.390 . S
C934 H925 0.930 . S
C934 C932 1.384 . S
C934 C935 1.372 . S
C935 C934 1.372 . S
C935 C936 1.400 . S
C935 C940 1.490 1_455 S
C936 H926 0.930 . S
C936 C935 1.400 . S
C936 C939 1.386 . S
H937 C953 0.930 . S
H938 C954 0.931 . S
C939 H927 0.929 . S
C939 C933 1.390 . S
C939 C936 1.386 . S
C940 C935 1.490 1_655 S
C940 C942 1.395 . S
C940 C943 1.403 . S
H941 C947 0.930 . S
C942 H928 0.930 . S
C942 C940 1.395 . S
C942 C945 1.403 . S
C943 C940 1.403 . S
C943 C944 1.490 1_655 S
C943 C947 1.400 . S
C944 H929 0.930 1_455 S
C944 H930 0.987 . S
C944 H931 1.001 . S
C944 C943 1.490 1_455 S
C945 C942 1.403 . S
C945 C946 1.392 . S
C945 C949 1.495 . S
C946 C945 1.392 . S
C946 C947 1.385 . S
C946 C948 1.478 . S
C947 H941 0.930 . S
C947 C943 1.400 . S
C947 C946 1.385 . S
C948 C946 1.478 . S
C948 C950 1.381 . S
C948 C954 1.383 . S
C949 C945 1.495 . S
C949 H955 0.959 . S
C949 H956 0.961 . S
C949 H957 0.960 . S
C950 C948 1.381 . S
C950 C951 1.394 . S
C950 H958 0.930 . S
C951 C950 1.394 . S
C951 C952 1.383 . S
C951 H959 0.929 . S
C952 C951 1.383 . S
C952 C953 1.377 . S
C953 H937 0.930 . S
C953 C952 1.377 . S
C953 C954 1.379 . S
C954 H938 0.931 . S
C954 C948 1.383 . S
C954 C953 1.379 . S
H955 C949 0.959 . S
H956 C949 0.961 . S
H957 C949 0.960 . S
H958 C950 0.930 . S
H959 C951 0.929 . S
H960 C968 0.929 . S
H961 C970 0.930 . S
H962 C972 0.930 . S
H963 C975 0.929 . S
H964 C978 0.930 . S
H965 C980 0.960 . S
H966 C980 0.960 . S
H967 C980 0.960 . S
C968 H960 0.929 . S
C968 C969 1.377 . S
C968 C970 1.384 . S
C969 C968 1.377 . S
C969 C975 1.390 . S
C970 H961 0.930 . S
C970 C968 1.384 . S
C970 C971 1.372 . S
C971 C970 1.372 . S
C971 C972 1.400 . S
C971 C976 1.490 . S
C972 H962 0.930 . S
C972 C971 1.400 . S
C972 C975 1.386 . S
H973 C989 0.930 . S
H974 C990 0.931 . S
C975 H963 0.929 . S
C975 C969 1.390 . S
C975 C972 1.386 . S
C976 C971 1.490 . S
C976 C978 1.395 . S
C976 C979 1.403 . S
H977 C983 0.930 . S
C978 H964 0.930 . S
C978 C976 1.395 . S
C978 C981 1.403 . S
C979 C976 1.403 . S
C979 C980 1.524 . S
C979 C983 1.400 . S
C980 H965 0.960 . S
C980 H966 0.960 . S
C980 H967 0.960 . S
C980 C979 1.524 . S
C981 C978 1.403 . S
C981 C982 1.392 . S
C981 C985 1.495 . S
C982 C981 1.392 . S
C982 C983 1.385 . S
C982 C984 1.478 . S
C983 H977 0.930 . S
C983 C979 1.400 . S
C983 C982 1.385 . S
C984 C982 1.478 . S
C984 C986 1.381 . S
C984 C990 1.383 . S
C985 C981 1.495 . S
C985 H991 0.959 . S
C985 H992 0.961 . S
C985 H993 0.960 . S
C986 C984 1.381 . S
C986 C987 1.394 . S
C986 H994 0.930 . S
C987 C986 1.394 . S
C987 C988 1.383 . S
C987 H995 0.929 . S
C988 C987 1.383 . S
C988 C989 1.377 . S
C989 H973 0.930 . S
C989 C988 1.377 . S
C989 C990 1.379 . S
C990 H974 0.931 . S
C990 C984 1.383 . S
C990 C989 1.379 . S
H991 C985 0.959 . S
H992 C985 0.961 . S
H993 C985 0.960 . S
H994 C986 0.930 . S
H995 C987 0.929 . S
H996 C1004 0.929 . S
H997 C1006 0.930 . S
H998 C1008 0.930 . S
H999 C1011 0.929 . S
H1000 C1014 0.930 . S
H1001 C1016 0.960 . S
H1002 C1016 0.960 . S
H1003 C1016 0.960 . S
C1004 H996 0.929 . S
C1004 C1005 1.377 . S
C1004 C1006 1.384 . S
C1005 C1004 1.377 . S
C1005 C1011 1.390 . S
C1006 H997 0.930 . S
C1006 C1004 1.384 . S
C1006 C1007 1.372 . S
C1007 C1006 1.372 . S
C1007 C1008 1.400 . S
C1007 C1012 1.490 . S
C1008 H998 0.930 . S
C1008 C1007 1.400 . S
C1008 C1011 1.386 . S
H1009 C1025 0.930 . S
H1010 C1026 0.931 . S
C1011 H999 0.929 . S
C1011 C1005 1.390 . S
C1011 C1008 1.386 . S
C1012 C1007 1.490 . S
C1012 C1014 1.395 . S
C1012 C1015 1.403 . S
H1013 C1019 0.930 . S
C1014 H1000 0.930 . S
C1014 C1012 1.395 . S
C1014 C1017 1.403 . S
C1015 C1012 1.403 . S
C1015 C1016 1.524 . S
C1015 C1019 1.400 . S
C1016 H1001 0.960 . S
C1016 H1002 0.960 . S
C1016 H1003 0.960 . S
C1016 C1015 1.524 . S
C1017 C1014 1.403 . S
C1017 C1018 1.392 . S
C1017 C1021 1.495 . S
C1018 C1017 1.392 . S
C1018 C1019 1.385 . S
C1018 C1020 1.478 . S
C1019 H1013 0.930 . S
C1019 C1015 1.400 . S
C1019 C1018 1.385 . S
C1020 C1018 1.478 . S
C1020 C1022 1.381 . S
C1020 C1026 1.383 . S
C1021 C1017 1.495 . S
C1021 H1027 0.959 . S
C1021 H1028 0.961 . S
C1021 H1029 0.960 . S
C1022 C1020 1.381 . S
C1022 C1023 1.394 . S
C1022 H1030 0.930 . S
C1023 C1022 1.394 . S
C1023 C1024 1.383 . S
C1023 H1031 0.929 . S
C1024 C1023 1.383 . S
C1024 C1025 1.377 . S
C1025 H1009 0.930 . S
C1025 C1024 1.377 . S
C1025 C1026 1.379 . S
C1026 H1010 0.931 . S
C1026 C1020 1.383 . S
C1026 C1025 1.379 . S
H1027 C1021 0.959 . S
H1028 C1021 0.961 . S
H1029 C1021 0.960 . S
H1030 C1022 0.930 . S
H1031 C1023 0.929 . S
H1032 C1040 0.929 . S
H1033 C1042 0.930 . S
H1034 C1044 0.930 . S
H1035 C1047 0.929 . S
H1036 C1050 0.930 . S
H1037 C1052 0.960 . S
H1038 C1052 0.960 . S
H1039 C1052 0.960 . S
C1040 H1032 0.929 . S
C1040 C1041 1.377 . S
C1040 C1042 1.384 . S
C1041 C1040 1.377 . S
C1041 C1047 1.390 . S
C1042 H1033 0.930 . S
C1042 C1040 1.384 . S
C1042 C1043 1.372 . S
C1043 C1042 1.372 . S
C1043 C1044 1.400 . S
C1043 C1048 1.490 . S
C1044 H1034 0.930 . S
C1044 C1043 1.400 . S
C1044 C1047 1.386 . S
H1045 C1061 0.930 . S
H1046 C1062 0.931 . S
C1047 H1035 0.929 . S
C1047 C1041 1.390 . S
C1047 C1044 1.386 . S
C1048 C1043 1.490 . S
C1048 C1050 1.395 . S
C1048 C1051 1.403 . S
H1049 C1055 0.930 . S
C1050 H1036 0.930 . S
C1050 C1048 1.395 . S
C1050 C1053 1.403 . S
C1051 C1048 1.403 . S
C1051 C1052 1.524 . S
C1051 C1055 1.400 . S
C1052 H1037 0.960 . S
C1052 H1038 0.960 . S
C1052 H1039 0.960 . S
C1052 C1051 1.524 . S
C1053 C1050 1.403 . S
C1053 C1054 1.392 . S
C1053 C1057 1.495 . S
C1054 C1053 1.392 . S
C1054 C1055 1.385 . S
C1054 C1056 1.478 . S
C1055 H1049 0.930 . S
C1055 C1051 1.400 . S
C1055 C1054 1.385 . S
C1056 C1054 1.478 . S
C1056 C1058 1.381 . S
C1056 C1062 1.383 . S
C1057 C1053 1.495 . S
C1057 H1063 0.959 . S
C1057 H1064 0.961 . S
C1057 H1065 0.960 . S
C1058 C1056 1.381 . S
C1058 C1059 1.394 . S
C1058 H1066 0.930 . S
C1059 C1058 1.394 . S
C1059 C1060 1.383 . S
C1059 H1067 0.929 . S
C1060 C1059 1.383 . S
C1060 C1061 1.377 . S
C1061 H1045 0.930 . S
C1061 C1060 1.377 . S
C1061 C1062 1.379 . S
C1062 H1046 0.931 . S
C1062 C1056 1.383 . S
C1062 C1061 1.379 . S
H1063 C1057 0.959 . S
H1064 C1057 0.961 . S
H1065 C1057 0.960 . S
H1066 C1058 0.930 . S
H1067 C1059 0.929 . S
H1068 C1076 0.929 . S
H1069 C1078 0.930 . S
H1070 C1080 0.930 . S
H1071 C1083 0.929 . S
H1072 C1086 0.930 . S
H1073 C1088 0.960 1_554 S
H1074 C1088 0.960 . S
H1075 C1088 0.960 . S
C1076 H1068 0.929 . S
C1076 C1077 1.377 . S
C1076 C1078 1.384 . S
C1077 C1076 1.377 . S
C1077 C1083 1.390 . S
C1078 H1069 0.930 . S
C1078 C1076 1.384 . S
C1078 C1079 1.372 . S
C1079 C1078 1.372 . S
C1079 C1080 1.400 . S
C1079 C1084 1.495 1_556 S
C1080 H1070 0.930 . S
C1080 C1079 1.400 . S
C1080 C1083 1.386 . S
H1081 C1097 0.930 . S
H1082 C1098 0.931 . S
C1083 H1071 0.929 . S
C1083 C1077 1.390 . S
C1083 C1080 1.386 . S
C1084 C1079 1.495 1_554 S
C1084 C1086 1.392 . S
C1084 C1087 1.401 . S
H1085 C1091 0.930 . S
C1086 H1072 0.930 . S
C1086 C1084 1.392 . S
C1086 C1089 1.403 . S
C1087 C1084 1.401 . S
C1087 C1088 1.524 1_554 S
C1087 C1091 1.400 . S
C1088 H1073 0.960 1_556 S
C1088 H1074 0.960 . S
C1088 H1075 0.960 . S
C1088 C1087 1.524 1_556 S
C1089 C1086 1.403 . S
C1089 C1090 1.392 . S
C1089 C1093 1.495 . S
C1090 C1089 1.392 . S
C1090 C1091 1.385 . S
C1090 C1092 1.478 . S
C1091 H1085 0.930 . S
C1091 C1087 1.400 . S
C1091 C1090 1.385 . S
C1092 C1090 1.478 . S
C1092 C1094 1.381 . S
C1092 C1098 1.383 . S
C1093 C1089 1.495 . S
C1093 H1099 0.959 . S
C1093 H1100 0.961 . S
C1093 H1101 0.960 . S
C1094 C1092 1.381 . S
C1094 C1095 1.394 . S
C1094 H1102 0.930 . S
C1095 C1094 1.394 . S
C1095 C1096 1.383 . S
C1095 H1103 0.929 . S
C1096 C1095 1.383 . S
C1096 C1097 1.377 . S
C1097 H1081 0.930 . S
C1097 C1096 1.377 . S
C1097 C1098 1.379 . S
C1098 H1082 0.931 . S
C1098 C1092 1.383 . S
C1098 C1097 1.379 . S
H1099 C1093 0.959 . S
H1100 C1093 0.961 . S
H1101 C1093 0.960 . S
H1102 C1094 0.930 . S
H1103 C1095 0.929 . S
H1104 C1112 0.929 . S
H1105 C1114 0.930 . S
H1106 C1116 0.930 . S
H1107 C1119 0.929 . S
H1108 C1122 0.930 . S
H1109 C1124 0.960 . S
H1110 C1124 0.960 . S
H1111 C1124 0.960 . S
C1112 H1104 0.929 . S
C1112 C1113 1.377 . S
C1112 C1114 1.384 . S
C1113 C1112 1.377 . S
C1113 C1119 1.390 . S
C1114 H1105 0.930 . S
C1114 C1112 1.384 . S
C1114 C1115 1.372 . S
C1115 C1114 1.372 . S
C1115 C1116 1.400 . S
C1115 C1120 1.490 . S
C1116 H1106 0.930 . S
C1116 C1115 1.400 . S
C1116 C1119 1.386 . S
H1117 C1133 0.930 . S
H1118 C1134 0.931 . S
C1119 H1107 0.929 . S
C1119 C1113 1.390 . S
C1119 C1116 1.386 . S
C1120 C1115 1.490 . S
C1120 C1122 1.395 . S
C1120 C1123 1.403 . S
H1121 C1127 0.930 . S
C1122 H1108 0.930 . S
C1122 C1120 1.395 . S
C1122 C1125 1.403 . S
C1123 C1120 1.403 . S
C1123 C1124 1.524 . S
C1123 C1127 1.400 . S
C1124 H1109 0.960 . S
C1124 H1110 0.960 . S
C1124 H1111 0.960 . S
C1124 C1123 1.524 . S
C1125 C1122 1.403 . S
C1125 C1126 1.392 . S
C1125 C1129 1.495 . S
C1126 C1125 1.392 . S
C1126 C1127 1.385 . S
C1126 C1128 1.478 . S
C1127 H1121 0.930 . S
C1127 C1123 1.400 . S
C1127 C1126 1.385 . S
C1128 C1126 1.478 . S
C1128 C1130 1.381 . S
C1128 C1134 1.383 . S
C1129 C1125 1.495 . S
C1129 H1135 0.959 . S
C1129 H1136 0.961 . S
C1129 H1137 0.960 . S
C1130 C1128 1.381 . S
C1130 C1131 1.394 . S
C1130 H1138 0.930 . S
C1131 C1130 1.394 . S
C1131 C1132 1.383 . S
C1131 H1139 0.929 . S
C1132 C1131 1.383 . S
C1132 C1133 1.377 . S
C1133 H1117 0.930 . S
C1133 C1132 1.377 . S
C1133 C1134 1.379 . S
C1134 H1118 0.931 . S
C1134 C1128 1.383 . S
C1134 C1133 1.379 . S
H1135 C1129 0.959 . S
H1136 C1129 0.961 . S
H1137 C1129 0.960 . S
H1138 C1130 0.930 . S
H1139 C1131 0.929 . S
H1140 C1148 0.929 . S
H1141 C1150 0.930 . S
H1142 C1152 0.930 . S
H1143 C1155 0.929 . S
H1144 C1158 0.930 . S
H1145 C1160 0.960 . S
H1146 C1160 0.960 . S
H1147 C1160 0.960 . S
C1148 H1140 0.929 . S
C1148 C1149 1.377 . S
C1148 C1150 1.384 . S
C1149 C1148 1.377 . S
C1149 C1155 1.390 . S
C1150 H1141 0.930 . S
C1150 C1148 1.384 . S
C1150 C1151 1.372 . S
C1151 C1150 1.372 . S
C1151 C1152 1.400 . S
C1151 C1156 1.490 . S
C1152 H1142 0.930 . S
C1152 C1151 1.400 . S
C1152 C1155 1.386 . S
H1153 C1169 0.930 . S
H1154 C1170 0.931 . S
C1155 H1143 0.929 . S
C1155 C1149 1.390 . S
C1155 C1152 1.386 . S
C1156 C1151 1.490 . S
C1156 C1158 1.395 . S
C1156 C1159 1.403 . S
H1157 C1163 0.930 . S
C1158 H1144 0.930 . S
C1158 C1156 1.395 . S
C1158 C1161 1.403 . S
C1159 C1156 1.403 . S
C1159 C1160 1.524 . S
C1159 C1163 1.400 . S
C1160 H1145 0.960 . S
C1160 H1146 0.960 . S
C1160 H1147 0.960 . S
C1160 C1159 1.524 . S
C1161 C1158 1.403 . S
C1161 C1162 1.392 . S
C1161 C1165 1.495 . S
C1162 C1161 1.392 . S
C1162 C1163 1.385 . S
C1162 C1164 1.478 . S
C1163 H1157 0.930 . S
C1163 C1159 1.400 . S
C1163 C1162 1.385 . S
C1164 C1162 1.478 . S
C1164 C1166 1.381 . S
C1164 C1170 1.383 . S
C1165 C1161 1.495 . S
C1165 H1171 0.959 . S
C1165 H1172 0.961 . S
C1165 H1173 0.960 . S
C1166 C1164 1.381 . S
C1166 C1167 1.394 . S
C1166 H1174 0.930 . S
C1167 C1166 1.394 . S
C1167 C1168 1.383 . S
C1167 H1175 0.929 . S
C1168 C1167 1.383 . S
C1168 C1169 1.377 . S
C1169 H1153 0.930 . S
C1169 C1168 1.377 . S
C1169 C1170 1.379 . S
C1170 H1154 0.931 . S
C1170 C1164 1.383 . S
C1170 C1169 1.379 . S
H1171 C1165 0.959 . S
H1172 C1165 0.961 . S
H1173 C1165 0.960 . S
H1174 C1166 0.930 . S
H1175 C1167 0.929 . S
H1176 C1184 0.929 . S
H1177 C1186 0.930 . S
H1178 C1188 0.930 . S
H1179 C1191 0.929 . S
H1180 C1194 0.930 . S
H1181 C1196 0.960 . S
H1182 C1196 0.960 . S
H1183 C1196 0.960 . S
C1184 H1176 0.929 . S
C1184 C1185 1.377 . S
C1184 C1186 1.384 . S
C1185 C1184 1.377 . S
C1185 C1191 1.390 . S
C1186 H1177 0.930 . S
C1186 C1184 1.384 . S
C1186 C1187 1.372 . S
C1187 C1186 1.372 . S
C1187 C1188 1.400 . S
C1187 C1192 1.490 . S
C1188 H1178 0.930 . S
C1188 C1187 1.400 . S
C1188 C1191 1.386 . S
H1189 C1205 0.930 . S
H1190 C1206 0.931 . S
C1191 H1179 0.929 . S
C1191 C1185 1.390 . S
C1191 C1188 1.386 . S
C1192 C1187 1.490 . S
C1192 C1194 1.395 . S
C1192 C1195 1.403 . S
H1193 C1199 0.930 . S
C1194 H1180 0.930 . S
C1194 C1192 1.395 . S
C1194 C1197 1.403 . S
C1195 C1192 1.403 . S
C1195 C1196 1.524 . S
C1195 C1199 1.400 . S
C1196 H1181 0.960 . S
C1196 H1182 0.960 . S
C1196 H1183 0.960 . S
C1196 C1195 1.524 . S
C1197 C1194 1.403 . S
C1197 C1198 1.392 . S
C1197 C1201 1.495 . S
C1198 C1197 1.392 . S
C1198 C1199 1.385 . S
C1198 C1200 1.478 . S
C1199 H1193 0.930 . S
C1199 C1195 1.400 . S
C1199 C1198 1.385 . S
C1200 C1198 1.478 . S
C1200 C1202 1.381 . S
C1200 C1206 1.383 . S
C1201 C1197 1.495 . S
C1201 H1207 0.959 . S
C1201 H1208 0.961 . S
C1201 H1209 0.960 . S
C1202 C1200 1.381 . S
C1202 C1203 1.394 . S
C1202 H1210 0.930 . S
C1203 C1202 1.394 . S
C1203 C1204 1.383 . S
C1203 H1211 0.929 . S
C1204 C1203 1.383 . S
C1204 C1205 1.377 . S
C1205 H1189 0.930 . S
C1205 C1204 1.377 . S
C1205 C1206 1.379 . S
C1206 H1190 0.931 . S
C1206 C1200 1.383 . S
C1206 C1205 1.379 . S
H1207 C1201 0.959 . S
H1208 C1201 0.961 . S
H1209 C1201 0.960 . S
H1210 C1202 0.930 . S
H1211 C1203 0.929 . S
H1212 C1220 0.929 . S
H1213 C1222 0.930 . S
H1214 C1224 0.930 . S
H1215 C1227 0.929 . S
H1216 C1230 0.930 1_554 S
H1217 C1232 0.960 . S
H1218 C1232 0.976 . S
H1219 C1232 0.960 1_554 S
C1220 H1212 0.929 . S
C1220 C1221 1.377 . S
C1220 C1222 1.384 . S
C1221 C1220 1.377 . S
C1221 C1227 1.390 . S
C1222 H1213 0.930 . S
C1222 C1220 1.384 . S
C1222 C1223 1.372 . S
C1223 C1222 1.372 . S
C1223 C1224 1.400 . S
C1223 C1228 1.490 . S
C1224 H1214 0.930 . S
C1224 C1223 1.400 . S
C1224 C1227 1.386 . S
H1225 C1241 0.930 . S
H1226 C1242 0.931 . S
C1227 H1215 0.929 . S
C1227 C1221 1.390 . S
C1227 C1224 1.386 . S
C1228 C1223 1.490 . S
C1228 C1230 1.395 1_554 S
C1228 C1231 1.403 1_554 S
H1229 C1235 0.930 . S
C1230 H1216 0.930 1_556 S
C1230 C1228 1.395 1_556 S
C1230 C1233 1.403 . S
C1231 C1228 1.403 1_556 S
C1231 C1232 1.524 . S
C1231 C1235 1.400 . S
C1232 H1217 0.960 . S
C1232 H1218 0.976 . S
C1232 H1219 0.960 1_556 S
C1232 C1231 1.524 . S
C1233 C1230 1.403 . S
C1233 C1234 1.392 . S
C1233 C1237 1.495 . S
C1234 C1233 1.392 . S
C1234 C1235 1.385 . S
C1234 C1236 1.478 . S
C1235 H1229 0.930 . S
C1235 C1231 1.400 . S
C1235 C1234 1.385 . S
C1236 C1234 1.478 . S
C1236 C1238 1.381 . S
C1236 C1242 1.383 . S
C1237 C1233 1.495 . S
C1237 H1243 0.959 . S
C1237 H1244 0.961 . S
C1237 H1245 0.960 . S
C1238 C1236 1.381 . S
C1238 C1239 1.394 . S
C1238 H1246 0.930 . S
C1239 C1238 1.394 . S
C1239 C1240 1.383 . S
C1239 H1247 0.929 . S
C1240 C1239 1.383 . S
C1240 C1241 1.377 . S
C1241 H1225 0.930 . S
C1241 C1240 1.377 . S
C1241 C1242 1.379 . S
C1242 H1226 0.931 . S
C1242 C1236 1.383 . S
C1242 C1241 1.379 . S
H1243 C1237 0.959 . S
H1244 C1237 0.961 . S
H1245 C1237 0.960 . S
H1246 C1238 0.930 . S
H1247 C1239 0.929 . S
H1248 C1256 0.929 . S
H1249 C1258 0.930 . S
H1250 C1260 0.930 . S
H1251 C1263 0.929 . S
H1252 C1266 0.930 . S
H1253 C1268 0.960 . S
H1254 C1268 0.960 . S
H1255 C1268 0.960 . S
C1256 H1248 0.929 . S
C1256 C1257 1.377 . S
C1256 C1258 1.384 . S
C1257 C1256 1.377 . S
C1257 C1263 1.390 . S
C1258 H1249 0.930 . S
C1258 C1256 1.384 . S
C1258 C1259 1.372 . S
C1259 C1258 1.372 . S
C1259 C1260 1.400 . S
C1259 C1264 1.490 . S
C1260 H1250 0.930 . S
C1260 C1259 1.400 . S
C1260 C1263 1.386 . S
H1261 C1277 0.930 . S
H1262 C1278 0.931 . S
C1263 H1251 0.929 . S
C1263 C1257 1.390 . S
C1263 C1260 1.386 . S
C1264 C1259 1.490 . S
C1264 C1266 1.395 . S
C1264 C1267 1.403 . S
H1265 C1271 0.930 . S
C1266 H1252 0.930 . S
C1266 C1264 1.395 . S
C1266 C1269 1.403 . S
C1267 C1264 1.403 . S
C1267 C1268 1.524 . S
C1267 C1271 1.400 . S
C1268 H1253 0.960 . S
C1268 H1254 0.960 . S
C1268 H1255 0.960 . S
C1268 C1267 1.524 . S
C1269 C1266 1.403 . S
C1269 C1270 1.392 . S
C1269 C1273 1.495 . S
C1270 C1269 1.392 . S
C1270 C1271 1.385 . S
C1270 C1272 1.478 . S
C1271 H1265 0.930 . S
C1271 C1267 1.400 . S
C1271 C1270 1.385 . S
C1272 C1270 1.478 . S
C1272 C1274 1.381 . S
C1272 C1278 1.383 . S
C1273 C1269 1.495 . S
C1273 H1279 0.959 . S
C1273 H1280 0.961 . S
C1273 H1281 0.960 . S
C1274 C1272 1.381 . S
C1274 C1275 1.394 . S
C1274 H1282 0.930 . S
C1275 C1274 1.394 . S
C1275 C1276 1.383 . S
C1275 H1283 0.929 . S
C1276 C1275 1.383 . S
C1276 C1277 1.377 . S
C1277 H1261 0.930 . S
C1277 C1276 1.377 . S
C1277 C1278 1.379 . S
C1278 H1262 0.931 . S
C1278 C1272 1.383 . S
C1278 C1277 1.379 . S
H1279 C1273 0.959 . S
H1280 C1273 0.961 . S
H1281 C1273 0.960 . S
H1282 C1274 0.930 . S
H1283 C1275 0.929 . S
H1284 C1292 0.929 . S
H1285 C1294 0.930 . S
H1286 C1296 0.930 . S
H1287 C1299 0.929 . S
H1288 C1302 0.930 . S
H1289 C1304 0.960 . S
H1290 C1304 0.960 . S
H1291 C1304 0.960 . S
C1292 H1284 0.929 . S
C1292 C1293 1.377 . S
C1292 C1294 1.384 . S
C1293 C1292 1.377 . S
C1293 C1299 1.390 . S
C1294 H1285 0.930 . S
C1294 C1292 1.384 . S
C1294 C1295 1.372 . S
C1295 C1294 1.372 . S
C1295 C1296 1.400 . S
C1295 C1300 1.490 . S
C1296 H1286 0.930 . S
C1296 C1295 1.400 . S
C1296 C1299 1.386 . S
H1297 C1313 0.930 . S
H1298 C1314 0.931 . S
C1299 H1287 0.929 . S
C1299 C1293 1.390 . S
C1299 C1296 1.386 . S
C1300 C1295 1.490 . S
C1300 C1302 1.395 . S
C1300 C1303 1.403 . S
H1301 C1307 0.930 . S
C1302 H1288 0.930 . S
C1302 C1300 1.395 . S
C1302 C1305 1.403 . S
C1303 C1300 1.403 . S
C1303 C1304 1.524 . S
C1303 C1307 1.400 . S
C1304 H1289 0.960 . S
C1304 H1290 0.960 . S
C1304 H1291 0.960 . S
C1304 C1303 1.524 . S
C1305 C1302 1.403 . S
C1305 C1306 1.392 . S
C1305 C1309 1.495 . S
C1306 C1305 1.392 . S
C1306 C1307 1.385 . S
C1306 C1308 1.478 . S
C1307 H1301 0.930 . S
C1307 C1303 1.400 . S
C1307 C1306 1.385 . S
C1308 C1306 1.478 . S
C1308 C1310 1.381 . S
C1308 C1314 1.383 . S
C1309 C1305 1.495 . S
C1309 H1315 0.959 . S
C1309 H1316 0.961 . S
C1309 H1317 0.960 . S
C1310 C1308 1.381 . S
C1310 C1311 1.394 . S
C1310 H1318 0.930 . S
C1311 C1310 1.394 . S
C1311 C1312 1.383 . S
C1311 H1319 0.929 . S
C1312 C1311 1.383 . S
C1312 C1313 1.377 . S
C1313 H1297 0.930 . S
C1313 C1312 1.377 . S
C1313 C1314 1.379 . S
C1314 H1298 0.931 . S
C1314 C1308 1.383 . S
C1314 C1313 1.379 . S
H1315 C1309 0.959 . S
H1316 C1309 0.961 . S
H1317 C1309 0.960 . S
H1318 C1310 0.930 . S
H1319 C1311 0.929 . S
H1320 C1328 0.929 . S
H1321 C1330 0.930 . S
H1322 C1332 0.930 . S
H1323 C1335 0.929 . S
H1324 C1338 0.930 . S
H1325 C1340 0.960 . S
H1326 C1340 0.960 . S
H1327 C1340 0.960 . S
C1328 H1320 0.929 . S
C1328 C1329 1.377 . S
C1328 C1330 1.384 . S
C1329 C1328 1.377 . S
C1329 C1335 1.390 . S
C1330 H1321 0.930 . S
C1330 C1328 1.384 . S
C1330 C1331 1.372 . S
C1331 C1330 1.372 . S
C1331 C1332 1.400 . S
C1331 C1336 1.490 . S
C1332 H1322 0.930 . S
C1332 C1331 1.400 . S
C1332 C1335 1.386 . S
H1333 C1349 0.930 . S
H1334 C1350 0.931 . S
C1335 H1323 0.929 . S
C1335 C1329 1.390 . S
C1335 C1332 1.386 . S
C1336 C1331 1.490 . S
C1336 C1338 1.395 . S
C1336 C1339 1.403 . S
H1337 C1343 0.930 . S
C1338 H1324 0.930 . S
C1338 C1336 1.395 . S
C1338 C1341 1.403 . S
C1339 C1336 1.403 . S
C1339 C1340 1.524 . S
C1339 C1343 1.400 . S
C1340 H1325 0.960 . S
C1340 H1326 0.960 . S
C1340 H1327 0.960 . S
C1340 C1339 1.524 . S
C1341 C1338 1.403 . S
C1341 C1342 1.392 . S
C1341 C1345 1.495 . S
C1342 C1341 1.392 . S
C1342 C1343 1.385 . S
C1342 C1344 1.478 . S
C1343 H1337 0.930 . S
C1343 C1339 1.400 . S
C1343 C1342 1.385 . S
C1344 C1342 1.478 . S
C1344 C1346 1.381 . S
C1344 C1350 1.383 . S
C1345 C1341 1.495 . S
C1345 H1351 0.959 . S
C1345 H1352 0.961 . S
C1345 H1353 0.960 . S
C1346 C1344 1.381 . S
C1346 C1347 1.394 . S
C1346 H1354 0.930 . S
C1347 C1346 1.394 . S
C1347 C1348 1.383 . S
C1347 H1355 0.929 . S
C1348 C1347 1.383 . S
C1348 C1349 1.377 . S
C1349 H1333 0.930 . S
C1349 C1348 1.377 . S
C1349 C1350 1.379 . S
C1350 H1334 0.931 . S
C1350 C1344 1.383 . S
C1350 C1349 1.379 . S
H1351 C1345 0.959 . S
H1352 C1345 0.961 . S
H1353 C1345 0.960 . S
H1354 C1346 0.930 . S
H1355 C1347 0.929 . S
H1356 C1364 0.929 . S
H1357 C1366 0.930 . S
H1358 C1368 0.930 . S
H1359 C1371 0.929 . S
H1360 C1374 0.930 . S
H1361 C1376 0.960 . S
H1362 C1376 0.960 . S
H1363 C1376 0.960 . S
C1364 H1356 0.929 . S
C1364 C1365 1.377 . S
C1364 C1366 1.384 . S
C1365 C1364 1.377 . S
C1365 C1371 1.390 . S
C1366 H1357 0.930 . S
C1366 C1364 1.384 . S
C1366 C1367 1.372 . S
C1367 C1366 1.372 . S
C1367 C1368 1.400 . S
C1367 C1372 1.490 . S
C1368 H1358 0.930 . S
C1368 C1367 1.400 . S
C1368 C1371 1.386 . S
H1369 C1385 0.930 . S
H1370 C1386 0.931 . S
C1371 H1359 0.929 . S
C1371 C1365 1.390 . S
C1371 C1368 1.386 . S
C1372 C1367 1.490 . S
C1372 C1374 1.395 . S
C1372 C1375 1.403 . S
H1373 C1379 0.930 . S
C1374 H1360 0.930 . S
C1374 C1372 1.395 . S
C1374 C1377 1.403 . S
C1375 C1372 1.403 . S
C1375 C1376 1.524 . S
C1375 C1379 1.400 . S
C1376 H1361 0.960 . S
C1376 H1362 0.960 . S
C1376 H1363 0.960 . S
C1376 C1375 1.524 . S
C1377 C1374 1.403 . S
C1377 C1378 1.392 . S
C1377 C1381 1.495 . S
C1378 C1377 1.392 . S
C1378 C1379 1.385 . S
C1378 C1380 1.478 . S
C1379 H1373 0.930 . S
C1379 C1375 1.400 . S
C1379 C1378 1.385 . S
C1380 C1378 1.478 . S
C1380 C1382 1.381 . S
C1380 C1386 1.383 . S
C1381 C1377 1.495 . S
C1381 H1387 0.959 . S
C1381 H1388 0.961 . S
C1381 H1389 0.960 . S
C1382 C1380 1.381 . S
C1382 C1383 1.394 . S
C1382 H1390 0.930 . S
C1383 C1382 1.394 . S
C1383 C1384 1.383 . S
C1383 H1391 0.929 . S
C1384 C1383 1.383 . S
C1384 C1385 1.377 . S
C1385 H1369 0.930 . S
C1385 C1384 1.377 . S
C1385 C1386 1.379 . S
C1386 H1370 0.931 . S
C1386 C1380 1.383 . S
C1386 C1385 1.379 . S
H1387 C1381 0.959 . S
H1388 C1381 0.961 . S
H1389 C1381 0.960 . S
H1390 C1382 0.930 . S
H1391 C1383 0.929 . S
H1392 C1400 0.929 . S
H1393 C1402 0.930 . S
H1394 C1404 0.930 . S
H1395 C1407 0.929 . S
H1396 C1410 0.930 . S
H1397 C1412 0.960 . S
H1398 C1412 0.960 . S
H1399 C1412 0.960 . S
C1400 H1392 0.929 . S
C1400 C1401 1.377 . S
C1400 C1402 1.384 . S
C1401 C1400 1.377 . S
C1401 C1407 1.390 . S
C1402 H1393 0.930 . S
C1402 C1400 1.384 . S
C1402 C1403 1.372 . S
C1403 C1402 1.372 . S
C1403 C1404 1.400 . S
C1403 C1408 1.490 . S
C1404 H1394 0.930 . S
C1404 C1403 1.400 . S
C1404 C1407 1.386 . S
H1405 C1421 0.930 . S
H1406 C1422 0.931 . S
C1407 H1395 0.929 . S
C1407 C1401 1.390 . S
C1407 C1404 1.386 . S
C1408 C1403 1.490 . S
C1408 C1410 1.395 . S
C1408 C1411 1.403 . S
H1409 C1415 0.930 . S
C1410 H1396 0.930 . S
C1410 C1408 1.395 . S
C1410 C1413 1.403 . S
C1411 C1408 1.403 . S
C1411 C1412 1.524 . S
C1411 C1415 1.400 . S
C1412 H1397 0.960 . S
C1412 H1398 0.960 . S
C1412 H1399 0.960 . S
C1412 C1411 1.524 . S
C1413 C1410 1.403 . S
C1413 C1414 1.392 . S
C1413 C1417 1.495 . S
C1414 C1413 1.392 . S
C1414 C1415 1.385 . S
C1414 C1416 1.478 1_565 S
C1415 H1409 0.930 . S
C1415 C1411 1.400 . S
C1415 C1414 1.385 . S
C1416 C1414 1.478 1_545 S
C1416 C1418 1.381 . S
C1416 C1422 1.383 . S
C1417 C1413 1.495 . S
C1417 H1423 0.959 . S
C1417 H1424 0.961 . S
C1417 H1425 0.960 . S
C1418 C1416 1.381 . S
C1418 C1419 1.394 . S
C1418 H1426 0.930 . S
C1419 C1418 1.394 . S
C1419 C1420 1.383 . S
C1419 H1427 0.929 . S
C1420 C1419 1.383 . S
C1420 C1421 1.377 . S
C1421 H1405 0.930 . S
C1421 C1420 1.377 . S
C1421 C1422 1.379 . S
C1422 H1406 0.931 . S
C1422 C1416 1.383 . S
C1422 C1421 1.379 . S
H1423 C1417 0.959 . S
H1424 C1417 0.961 . S
H1425 C1417 0.960 . S
H1426 C1418 0.930 . S
H1427 C1419 0.929 . S
H1428 C1436 0.929 . S
H1429 C1438 0.930 . S
H1430 C1440 0.930 . S
H1431 C1443 0.929 . S
H1432 C1446 0.930 . S
H1433 C1448 0.960 . S
H1434 C1448 0.960 . S
H1435 C1448 0.960 . S
C1436 H1428 0.929 . S
C1436 C1437 1.377 . S
C1436 C1438 1.384 . S
C1437 C1436 1.377 . S
C1437 C1443 1.390 . S
C1438 H1429 0.930 . S
C1438 C1436 1.384 . S
C1438 C1439 1.372 . S
C1439 C1438 1.372 . S
C1439 C1440 1.400 . S
C1439 C1444 1.490 . S
C1440 H1430 0.930 . S
C1440 C1439 1.400 . S
C1440 C1443 1.386 . S
H1441 C1457 0.930 . S
H1442 C1458 0.931 . S
C1443 H1431 0.929 . S
C1443 C1437 1.390 . S
C1443 C1440 1.386 . S
C1444 C1439 1.490 . S
C1444 C1446 1.395 . S
C1444 C1447 1.403 . S
H1445 C1451 0.930 . S
C1446 H1432 0.930 . S
C1446 C1444 1.395 . S
C1446 C1449 1.403 . S
C1447 C1444 1.403 . S
C1447 C1448 1.524 . S
C1447 C1451 1.400 . S
C1448 H1433 0.960 . S
C1448 H1434 0.960 . S
C1448 H1435 0.960 . S
C1448 C1447 1.524 . S
C1449 C1446 1.403 . S
C1449 C1450 1.392 . S
C1449 C1453 1.495 . S
C1450 C1449 1.392 . S
C1450 C1451 1.385 . S
C1450 C1452 1.478 . S
C1451 H1445 0.930 . S
C1451 C1447 1.400 . S
C1451 C1450 1.385 . S
C1452 C1450 1.478 . S
C1452 C1454 1.381 . S
C1452 C1458 1.383 . S
C1453 C1449 1.495 . S
C1453 H1459 0.959 . S
C1453 H1460 0.961 . S
C1453 H1461 0.960 . S
C1454 C1452 1.381 . S
C1454 C1455 1.394 . S
C1454 H1462 0.930 . S
C1455 C1454 1.394 . S
C1455 C1456 1.383 . S
C1455 H1463 0.929 . S
C1456 C1455 1.383 . S
C1456 C1457 1.377 . S
C1457 H1441 0.930 . S
C1457 C1456 1.377 . S
C1457 C1458 1.379 . S
C1458 H1442 0.931 . S
C1458 C1452 1.383 . S
C1458 C1457 1.379 . S
H1459 C1453 0.959 . S
H1460 C1453 0.961 . S
H1461 C1453 0.960 . S
H1462 C1454 0.930 . S
H1463 C1455 0.929 . S
H1464 C1472 0.929 . S
H1465 C1474 0.930 . S
H1466 C1476 0.930 . S
H1467 C1479 0.929 . S
H1468 C1482 0.930 . S
H1469 C1484 0.960 . S
H1470 C1484 0.960 . S
H1471 C1484 0.960 . S
C1472 H1464 0.929 . S
C1472 C1473 1.377 . S
C1472 C1474 1.384 . S
C1473 C1472 1.377 . S
C1473 C1479 1.390 . S
C1474 H1465 0.930 . S
C1474 C1472 1.384 . S
C1474 C1475 1.372 . S
C1475 C1474 1.372 . S
C1475 C1476 1.400 . S
C1475 C1480 1.490 . S
C1476 H1466 0.930 . S
C1476 C1475 1.400 . S
C1476 C1479 1.386 . S
H1477 C1493 0.930 . S
H1478 C1494 0.931 . S
C1479 H1467 0.929 . S
C1479 C1473 1.390 . S
C1479 C1476 1.386 . S
C1480 C1475 1.490 . S
C1480 C1482 1.395 . S
C1480 C1483 1.403 . S
H1481 C1487 0.930 . S
C1482 H1468 0.930 . S
C1482 C1480 1.395 . S
C1482 C1485 1.403 . S
C1483 C1480 1.403 . S
C1483 C1484 1.524 . S
C1483 C1487 1.400 . S
C1484 H1469 0.960 . S
C1484 H1470 0.960 . S
C1484 H1471 0.960 . S
C1484 C1483 1.524 . S
C1485 C1482 1.403 . S
C1485 C1486 1.392 . S
C1485 C1489 1.495 . S
C1486 C1485 1.392 . S
C1486 C1487 1.385 . S
C1486 C1488 1.478 . S
C1487 H1481 0.930 . S
C1487 C1483 1.400 . S
C1487 C1486 1.385 . S
C1488 C1486 1.478 . S
C1488 C1490 1.381 . S
C1488 C1494 1.383 . S
C1489 C1485 1.495 . S
C1489 H1495 0.959 . S
C1489 H1496 0.961 . S
C1489 H1497 0.960 . S
C1490 C1488 1.381 . S
C1490 C1491 1.394 . S
C1490 H1498 0.930 . S
C1491 C1490 1.394 . S
C1491 C1492 1.383 . S
C1491 H1499 0.929 . S
C1492 C1491 1.383 . S
C1492 C1493 1.377 . S
C1493 H1477 0.930 . S
C1493 C1492 1.377 . S
C1493 C1494 1.379 . S
C1494 H1478 0.931 . S
C1494 C1488 1.383 . S
C1494 C1493 1.379 . S
H1495 C1489 0.959 . S
H1496 C1489 0.961 . S
H1497 C1489 0.960 . S
H1498 C1490 0.930 . S
H1499 C1491 0.929 . S
H1500 C1508 0.929 . S
H1501 C1510 0.930 . S
H1502 C1512 0.930 . S
H1503 C1515 0.929 . S
H1504 C1518 0.930 . S
H1505 C1520 0.960 . S
H1506 C1520 0.960 . S
H1507 C1520 0.960 . S
C1508 H1500 0.929 . S
C1508 C1509 1.377 . S
C1508 C1510 1.384 . S
C1509 C1508 1.377 . S
C1509 C1515 1.390 . S
C1510 H1501 0.930 . S
C1510 C1508 1.384 . S
C1510 C1511 1.372 . S
C1511 C1510 1.372 . S
C1511 C1512 1.400 . S
C1511 C1516 1.490 . S
C1512 H1502 0.930 . S
C1512 C1511 1.400 . S
C1512 C1515 1.386 . S
H1513 C1529 0.930 . S
H1514 C1530 0.931 . S
C1515 H1503 0.929 . S
C1515 C1509 1.390 . S
C1515 C1512 1.386 . S
C1516 C1511 1.490 . S
C1516 C1518 1.395 . S
C1516 C1519 1.403 . S
H1517 C1523 0.930 . S
C1518 H1504 0.930 . S
C1518 C1516 1.395 . S
C1518 C1521 1.403 . S
C1519 C1516 1.403 . S
C1519 C1520 1.524 . S
C1519 C1523 1.400 . S
C1520 H1505 0.960 . S
C1520 H1506 0.960 . S
C1520 H1507 0.960 . S
C1520 C1519 1.524 . S
C1521 C1518 1.403 . S
C1521 C1522 1.392 . S
C1521 C1525 1.495 . S
C1522 C1521 1.392 . S
C1522 C1523 1.385 . S
C1522 C1524 1.478 . S
C1523 H1517 0.930 . S
C1523 C1519 1.400 . S
C1523 C1522 1.385 . S
C1524 C1522 1.478 . S
C1524 C1526 1.381 . S
C1524 C1530 1.383 . S
C1525 C1521 1.495 . S
C1525 H1531 0.959 . S
C1525 H1532 0.961 . S
C1525 H1533 0.960 . S
C1526 C1524 1.381 . S
C1526 C1527 1.394 . S
C1526 H1534 0.930 . S
C1527 C1526 1.394 . S
C1527 C1528 1.383 . S
C1527 H1535 0.929 . S
C1528 C1527 1.383 . S
C1528 C1529 1.377 . S
C1529 H1513 0.930 . S
C1529 C1528 1.377 . S
C1529 C1530 1.379 . S
C1530 H1514 0.931 . S
C1530 C1524 1.383 . S
C1530 C1529 1.379 . S
H1531 C1525 0.959 . S
H1532 C1525 0.961 . S
H1533 C1525 0.960 . S
H1534 C1526 0.930 . S
H1535 C1527 0.929 . S
H1536 C1544 0.929 . S
H1537 C1546 0.930 . S
H1538 C1548 0.930 . S
H1539 C1551 0.929 . S
H1540 C1554 0.930 . S
H1541 C1556 0.960 . S
H1542 C1556 0.960 . S
H1543 C1556 0.960 . S
C1544 H1536 0.929 . S
C1544 C1545 1.377 . S
C1544 C1546 1.384 . S
C1545 C1544 1.377 . S
C1545 C1551 1.390 . S
C1546 H1537 0.930 . S
C1546 C1544 1.384 . S
C1546 C1547 1.372 . S
C1547 C1546 1.372 . S
C1547 C1548 1.400 . S
C1547 C1552 1.490 . S
C1548 H1538 0.930 . S
C1548 C1547 1.400 . S
C1548 C1551 1.386 . S
H1549 C1565 0.930 . S
H1550 C1566 0.931 . S
C1551 H1539 0.929 . S
C1551 C1545 1.390 . S
C1551 C1548 1.386 . S
C1552 C1547 1.490 . S
C1552 C1554 1.395 . S
C1552 C1555 1.403 . S
H1553 C1559 0.930 . S
C1554 H1540 0.930 . S
C1554 C1552 1.395 . S
C1554 C1557 1.403 . S
C1555 C1552 1.403 . S
C1555 C1556 1.524 . S
C1555 C1559 1.400 . S
C1556 H1541 0.960 . S
C1556 H1542 0.960 . S
C1556 H1543 0.960 . S
C1556 C1555 1.524 . S
C1557 C1554 1.403 . S
C1557 C1558 1.392 . S
C1557 C1561 1.495 . S
C1558 C1557 1.392 . S
C1558 C1559 1.385 . S
C1558 C1560 1.478 . S
C1559 H1553 0.930 . S
C1559 C1555 1.400 . S
C1559 C1558 1.385 . S
C1560 C1558 1.478 . S
C1560 C1562 1.381 . S
C1560 C1566 1.383 . S
C1561 C1557 1.495 . S
C1561 H1567 0.959 . S
C1561 H1568 0.961 . S
C1561 H1569 0.960 . S
C1562 C1560 1.381 . S
C1562 C1563 1.394 . S
C1562 H1570 0.930 . S
C1563 C1562 1.394 . S
C1563 C1564 1.383 . S
C1563 H1571 0.929 . S
C1564 C1563 1.383 . S
C1564 C1565 1.377 . S
C1565 H1549 0.930 . S
C1565 C1564 1.377 . S
C1565 C1566 1.379 . S
C1566 H1550 0.931 . S
C1566 C1560 1.383 . S
C1566 C1565 1.379 . S
H1567 C1561 0.959 . S
H1568 C1561 0.961 . S
H1569 C1561 0.960 . S
H1570 C1562 0.930 . S
H1571 C1563 0.929 . S
H1572 C1580 0.929 . S
H1573 C1582 0.930 . S
H1574 C1584 0.930 . S
H1575 C1587 0.929 . S
H1576 C1590 0.930 . S
H1577 C1592 0.960 1_455 S
H1578 C1592 0.960 . S
H1579 C1592 0.960 . S
C1580 H1572 0.929 . S
C1580 C1581 1.377 . S
C1580 C1582 1.384 . S
C1581 C1580 1.377 . S
C1581 C1587 1.390 . S
C1582 H1573 0.930 . S
C1582 C1580 1.384 . S
C1582 C1583 1.372 . S
C1583 C1582 1.372 . S
C1583 C1584 1.400 . S
C1583 C1588 1.490 . S
C1584 H1574 0.930 . S
C1584 C1583 1.400 . S
C1584 C1587 1.386 . S
H1585 C1601 0.930 . S
H1586 C1602 0.931 . S
C1587 H1575 0.929 . S
C1587 C1581 1.390 . S
C1587 C1584 1.386 . S
C1588 C1583 1.490 . S
C1588 C1590 1.395 1_655 S
C1588 C1591 1.403 1_655 S
H1589 C1595 0.930 . S
C1590 H1576 0.930 . S
C1590 C1588 1.395 1_455 S
C1590 C1593 1.403 . S
C1591 C1588 1.403 1_455 S
C1591 C1592 1.524 1_455 S
C1591 C1595 1.400 . S
C1592 H1577 0.960 1_655 S
C1592 H1578 0.960 . S
C1592 H1579 0.960 . S
C1592 C1591 1.524 1_655 S
C1593 C1590 1.403 . S
C1593 C1594 1.392 . S
C1593 C1597 1.495 . S
C1594 C1593 1.392 . S
C1594 C1595 1.385 . S
C1594 C1596 1.478 . S
C1595 H1589 0.930 . S
C1595 C1591 1.400 . S
C1595 C1594 1.385 . S
C1596 C1594 1.478 . S
C1596 C1598 1.381 . S
C1596 C1602 1.383 . S
C1597 C1593 1.495 . S
C1597 H1603 0.959 . S
C1597 H1604 0.961 . S
C1597 H1605 0.960 . S
C1598 C1596 1.381 . S
C1598 C1599 1.394 . S
C1598 H1606 0.930 . S
C1599 C1598 1.394 . S
C1599 C1600 1.383 . S
C1599 H1607 0.929 . S
C1600 C1599 1.383 . S
C1600 C1601 1.377 . S
C1601 H1585 0.930 . S
C1601 C1600 1.377 . S
C1601 C1602 1.379 . S
C1602 H1586 0.931 . S
C1602 C1596 1.383 . S
C1602 C1601 1.379 . S
H1603 C1597 0.959 . S
H1604 C1597 0.961 . S
H1605 C1597 0.960 . S
H1606 C1598 0.930 . S
H1607 C1599 0.929 . S
H1608 C1616 0.929 . S
H1609 C1618 0.930 . S
H1610 C1620 0.930 . S
H1611 C1623 0.929 . S
H1612 C1626 0.930 . S
H1613 C1628 0.960 . S
H1614 C1628 0.960 . S
H1615 C1628 0.960 . S
C1616 H1608 0.929 . S
C1616 C1617 1.377 . S
C1616 C1618 1.384 . S
C1617 C1616 1.377 . S
C1617 C1623 1.390 . S
C1618 H1609 0.930 . S
C1618 C1616 1.384 . S
C1618 C1619 1.372 . S
C1619 C1618 1.372 . S
C1619 C1620 1.400 . S
C1619 C1624 1.490 . S
C1620 H1610 0.930 . S
C1620 C1619 1.400 . S
C1620 C1623 1.386 . S
H1621 C1637 0.930 . S
H1622 C1638 0.931 . S
C1623 H1611 0.929 . S
C1623 C1617 1.390 . S
C1623 C1620 1.386 . S
C1624 C1619 1.490 . S
C1624 C1626 1.395 . S
C1624 C1627 1.403 . S
H1625 C1631 0.930 . S
C1626 H1612 0.930 . S
C1626 C1624 1.395 . S
C1626 C1629 1.403 . S
C1627 C1624 1.403 . S
C1627 C1628 1.524 . S
C1627 C1631 1.400 . S
C1628 H1613 0.960 . S
C1628 H1614 0.960 . S
C1628 H1615 0.960 . S
C1628 C1627 1.524 . S
C1629 C1626 1.403 . S
C1629 C1630 1.392 . S
C1629 C1633 1.495 . S
C1630 C1629 1.392 . S
C1630 C1631 1.385 . S
C1630 C1632 1.478 . S
C1631 H1625 0.930 . S
C1631 C1627 1.400 . S
C1631 C1630 1.385 . S
C1632 C1630 1.478 . S
C1632 C1634 1.381 . S
C1632 C1638 1.383 . S
C1633 C1629 1.495 . S
C1633 H1639 0.959 . S
C1633 H1640 0.961 . S
C1633 H1641 0.960 . S
C1634 C1632 1.381 . S
C1634 C1635 1.394 . S
C1634 H1642 0.930 . S
C1635 C1634 1.394 . S
C1635 C1636 1.383 . S
C1635 H1643 0.929 . S
C1636 C1635 1.383 . S
C1636 C1637 1.377 . S
C1637 H1621 0.930 . S
C1637 C1636 1.377 . S
C1637 C1638 1.379 . S
C1638 H1622 0.931 . S
C1638 C1632 1.383 . S
C1638 C1637 1.379 . S
H1639 C1633 0.959 . S
H1640 C1633 0.961 . S
H1641 C1633 0.960 . S
H1642 C1634 0.930 . S
H1643 C1635 0.929 . S
H1644 C1652 0.929 . S
H1645 C1654 0.930 . S
H1646 C1656 0.930 . S
H1647 C1659 0.929 . S
H1648 C1662 0.930 . S
H1649 C1664 0.960 . S
H1650 C1664 0.960 . S
H1651 C1664 0.960 . S
C1652 H1644 0.929 . S
C1652 C1653 1.377 . S
C1652 C1654 1.384 . S
C1653 C1652 1.377 . S
C1653 C1659 1.390 . S
C1654 H1645 0.930 . S
C1654 C1652 1.384 . S
C1654 C1655 1.372 . S
C1655 C1654 1.372 . S
C1655 C1656 1.400 . S
C1655 C1660 1.490 . S
C1656 H1646 0.930 . S
C1656 C1655 1.400 . S
C1656 C1659 1.386 . S
H1657 C1673 0.930 . S
H1658 C1674 0.931 . S
C1659 H1647 0.929 . S
C1659 C1653 1.390 . S
C1659 C1656 1.386 . S
C1660 C1655 1.490 . S
C1660 C1662 1.395 . S
C1660 C1663 1.403 . S
H1661 C1667 0.930 . S
C1662 H1648 0.930 . S
C1662 C1660 1.395 . S
C1662 C1665 1.403 . S
C1663 C1660 1.403 . S
C1663 C1664 1.524 . S
C1663 C1667 1.400 . S
C1664 H1649 0.960 . S
C1664 H1650 0.960 . S
C1664 H1651 0.960 . S
C1664 C1663 1.524 . S
C1665 C1662 1.403 . S
C1665 C1666 1.392 . S
C1665 C1669 1.495 . S
C1666 C1665 1.392 . S
C1666 C1667 1.385 . S
C1666 C1668 1.478 . S
C1667 H1661 0.930 . S
C1667 C1663 1.400 . S
C1667 C1666 1.385 . S
C1668 C1666 1.478 . S
C1668 C1670 1.381 . S
C1668 C1674 1.383 . S
C1669 C1665 1.495 . S
C1669 H1675 0.959 . S
C1669 H1676 0.961 . S
C1669 H1677 0.960 . S
C1670 C1668 1.381 . S
C1670 C1671 1.394 . S
C1670 H1678 0.930 . S
C1671 C1670 1.394 . S
C1671 C1672 1.383 . S
C1671 H1679 0.929 . S
C1672 C1671 1.383 . S
C1672 C1673 1.377 . S
C1673 H1657 0.930 . S
C1673 C1672 1.377 . S
C1673 C1674 1.379 . S
C1674 H1658 0.931 . S
C1674 C1668 1.383 . S
C1674 C1673 1.379 . S
H1675 C1669 0.959 . S
H1676 C1669 0.961 . S
H1677 C1669 0.960 . S
H1678 C1670 0.930 . S
H1679 C1671 0.929 . S
H1680 C1688 0.929 . S
H1681 C1690 0.930 . S
H1682 C1692 0.930 . S
H1683 C1695 0.929 . S
H1684 C1698 0.930 . S
H1685 C1700 0.960 . S
H1686 C1700 0.960 . S
H1687 C1700 0.960 . S
C1688 H1680 0.929 . S
C1688 C1689 1.377 . S
C1688 C1690 1.384 . S
C1689 C1688 1.377 . S
C1689 C1695 1.390 . S
C1690 H1681 0.930 . S
C1690 C1688 1.384 . S
C1690 C1691 1.372 . S
C1691 C1690 1.372 . S
C1691 C1692 1.400 . S
C1691 C1696 1.490 . S
C1692 H1682 0.930 . S
C1692 C1691 1.400 . S
C1692 C1695 1.386 . S
H1693 C1709 0.930 . S
H1694 C1710 0.931 . S
C1695 H1683 0.929 . S
C1695 C1689 1.390 . S
C1695 C1692 1.386 . S
C1696 C1691 1.490 . S
C1696 C1698 1.395 . S
C1696 C1699 1.403 . S
H1697 C1703 0.930 . S
C1698 H1684 0.930 . S
C1698 C1696 1.395 . S
C1698 C1701 1.403 . S
C1699 C1696 1.403 . S
C1699 C1700 1.524 . S
C1699 C1703 1.400 . S
C1700 H1685 0.960 . S
C1700 H1686 0.960 . S
C1700 H1687 0.960 . S
C1700 C1699 1.524 . S
C1701 C1698 1.403 . S
C1701 C1702 1.392 . S
C1701 C1705 1.495 . S
C1702 C1701 1.392 . S
C1702 C1703 1.385 . S
C1702 C1704 1.478 . S
C1703 H1697 0.930 . S
C1703 C1699 1.400 . S
C1703 C1702 1.385 . S
C1704 C1702 1.478 . S
C1704 C1706 1.381 . S
C1704 C1710 1.383 . S
C1705 C1701 1.495 . S
C1705 H1711 0.959 . S
C1705 H1712 0.961 . S
C1705 H1713 0.960 . S
C1706 C1704 1.381 . S
C1706 C1707 1.394 . S
C1706 H1714 0.930 . S
C1707 C1706 1.394 . S
C1707 C1708 1.383 . S
C1707 H1715 0.929 . S
C1708 C1707 1.383 . S
C1708 C1709 1.377 . S
C1709 H1693 0.930 . S
C1709 C1708 1.377 . S
C1709 C1710 1.379 . S
C1710 H1694 0.931 . S
C1710 C1704 1.383 . S
C1710 C1709 1.379 . S
H1711 C1705 0.959 . S
H1712 C1705 0.961 . S
H1713 C1705 0.960 . S
H1714 C1706 0.930 . S
H1715 C1707 0.929 . S
H1716 C1724 0.929 . S
H1717 C1726 0.930 . S
H1718 C1728 0.930 . S
H1719 C1731 0.929 . S
H1720 C1734 0.930 . S
H1721 C1736 0.960 . S
H1722 C1736 0.960 . S
H1723 C1736 0.960 . S
C1724 H1716 0.929 . S
C1724 C1725 1.377 . S
C1724 C1726 1.384 . S
C1725 C1724 1.377 . S
C1725 C1731 1.390 . S
C1726 H1717 0.930 . S
C1726 C1724 1.384 . S
C1726 C1727 1.372 . S
C1727 C1726 1.372 . S
C1727 C1728 1.400 . S
C1727 C1732 1.490 . S
C1728 H1718 0.930 . S
C1728 C1727 1.400 . S
C1728 C1731 1.386 . S
H1729 C1745 0.930 . S
H1730 C1746 0.931 . S
C1731 H1719 0.929 . S
C1731 C1725 1.390 . S
C1731 C1728 1.386 . S
C1732 C1727 1.490 . S
C1732 C1734 1.395 . S
C1732 C1735 1.403 . S
H1733 C1739 0.930 . S
C1734 H1720 0.930 . S
C1734 C1732 1.395 . S
C1734 C1737 1.403 . S
C1735 C1732 1.403 . S
C1735 C1736 1.524 . S
C1735 C1739 1.400 . S
C1736 H1721 0.960 . S
C1736 H1722 0.960 . S
C1736 H1723 0.960 . S
C1736 C1735 1.524 . S
C1737 C1734 1.403 . S
C1737 C1738 1.392 . S
C1737 C1741 1.495 . S
C1738 C1737 1.392 . S
C1738 C1739 1.385 . S
C1738 C1740 1.478 . S
C1739 H1733 0.930 . S
C1739 C1735 1.400 . S
C1739 C1738 1.385 . S
C1740 C1738 1.478 . S
C1740 C1742 1.381 . S
C1740 C1746 1.383 . S
C1741 C1737 1.495 . S
C1741 H1747 0.959 . S
C1741 H1748 0.961 . S
C1741 H1749 0.960 . S
C1742 C1740 1.381 . S
C1742 C1743 1.394 . S
C1742 H1750 0.930 . S
C1743 C1742 1.394 . S
C1743 C1744 1.383 . S
C1743 H1751 0.929 . S
C1744 C1743 1.383 . S
C1744 C1745 1.377 . S
C1745 H1729 0.930 . S
C1745 C1744 1.377 . S
C1745 C1746 1.379 . S
C1746 H1730 0.931 . S
C1746 C1740 1.383 . S
C1746 C1745 1.379 . S
H1747 C1741 0.959 . S
H1748 C1741 0.961 . S
H1749 C1741 0.960 . S
H1750 C1742 0.930 . S
H1751 C1743 0.929 . S
H1752 C1760 0.929 . S
H1753 C1762 0.930 . S
H1754 C1764 0.930 . S
H1755 C1767 0.929 . S
H1756 C1770 0.930 . S
H1757 C1772 0.960 . S
H1758 C1772 0.960 . S
H1759 C1772 0.960 . S
C1760 H1752 0.929 . S
C1760 C1761 1.377 . S
C1760 C1762 1.384 . S
C1761 C1760 1.377 . S
C1761 C1767 1.390 . S
C1762 H1753 0.930 . S
C1762 C1760 1.384 . S
C1762 C1763 1.372 . S
C1763 C1762 1.372 . S
C1763 C1764 1.400 . S
C1763 C1768 1.490 . S
C1764 H1754 0.930 . S
C1764 C1763 1.400 . S
C1764 C1767 1.386 . S
H1765 C1781 0.930 . S
H1766 C1782 0.931 . S
C1767 H1755 0.929 . S
C1767 C1761 1.390 . S
C1767 C1764 1.386 . S
C1768 C1763 1.490 . S
C1768 C1770 1.395 . S
C1768 C1771 1.403 . S
H1769 C1775 0.930 . S
C1770 H1756 0.930 . S
C1770 C1768 1.395 . S
C1770 C1773 1.403 . S
C1771 C1768 1.403 . S
C1771 C1772 1.524 . S
C1771 C1775 1.400 . S
C1772 H1757 0.960 . S
C1772 H1758 0.960 . S
C1772 H1759 0.960 . S
C1772 C1771 1.524 . S
C1773 C1770 1.403 . S
C1773 C1774 1.392 . S
C1773 C1777 1.495 . S
C1774 C1773 1.392 . S
C1774 C1775 1.385 . S
C1774 C1776 1.478 . S
C1775 H1769 0.930 . S
C1775 C1771 1.400 . S
C1775 C1774 1.385 . S
C1776 C1774 1.478 . S
C1776 C1778 1.381 . S
C1776 C1782 1.383 . S
C1777 C1773 1.495 . S
C1777 H1783 0.959 . S
C1777 H1784 0.961 . S
C1777 H1785 0.960 . S
C1778 C1776 1.381 . S
C1778 C1779 1.394 . S
C1778 H1786 0.930 . S
C1779 C1778 1.394 . S
C1779 C1780 1.383 . S
C1779 H1787 0.929 . S
C1780 C1779 1.383 . S
C1780 C1781 1.377 . S
C1781 H1765 0.930 . S
C1781 C1780 1.377 . S
C1781 C1782 1.379 . S
C1782 H1766 0.931 . S
C1782 C1776 1.383 . S
C1782 C1781 1.379 . S
H1783 C1777 0.959 . S
H1784 C1777 0.961 . S
H1785 C1777 0.960 . S
H1786 C1778 0.930 . S
H1787 C1779 0.929 . S
H1788 C1796 0.929 . S
H1789 C1798 0.930 . S
H1790 C1800 0.930 . S
H1791 C1803 0.929 . S
H1792 C1806 0.930 . S
H1793 C1808 0.960 . S
H1794 C1808 0.960 . S
H1795 C1808 0.960 . S
C1796 H1788 0.929 . S
C1796 C1797 1.377 . S
C1796 C1798 1.384 . S
C1797 C1796 1.377 . S
C1797 C1803 1.390 . S
C1798 H1789 0.930 . S
C1798 C1796 1.384 . S
C1798 C1799 1.372 . S
C1799 C1798 1.372 . S
C1799 C1800 1.400 . S
C1799 C1804 1.490 . S
C1800 H1790 0.930 . S
C1800 C1799 1.400 . S
C1800 C1803 1.386 . S
H1801 C1817 0.930 . S
H1802 C1818 0.931 . S
C1803 H1791 0.929 . S
C1803 C1797 1.390 . S
C1803 C1800 1.386 . S
C1804 C1799 1.490 . S
C1804 C1806 1.395 . S
C1804 C1807 1.403 . S
H1805 C1811 0.930 . S
C1806 H1792 0.930 . S
C1806 C1804 1.395 . S
C1806 C1809 1.403 . S
C1807 C1804 1.403 . S
C1807 C1808 1.524 . S
C1807 C1811 1.400 . S
C1808 H1793 0.960 . S
C1808 H1794 0.960 . S
C1808 H1795 0.960 . S
C1808 C1807 1.524 . S
C1809 C1806 1.403 . S
C1809 C1810 1.392 1_455 S
C1809 C1813 1.495 1_455 S
C1810 C1809 1.392 1_655 S
C1810 C1811 1.385 1_655 S
C1810 C1812 1.478 . S
C1811 H1805 0.930 . S
C1811 C1807 1.400 . S
C1811 C1810 1.385 1_455 S
C1812 C1810 1.478 . S
C1812 C1814 1.381 . S
C1812 C1818 1.383 . S
C1813 C1809 1.495 1_655 S
C1813 H1819 0.981 . S
C1813 H1820 0.961 . S
C1813 H1821 0.960 . S
C1814 C1812 1.381 . S
C1814 C1815 1.394 . S
C1814 H1822 0.930 . S
C1815 C1814 1.394 . S
C1815 C1816 1.383 . S
C1815 H1823 0.929 . S
C1816 C1815 1.383 . S
C1816 C1817 1.377 . S
C1817 H1801 0.930 . S
C1817 C1816 1.377 . S
C1817 C1818 1.379 . S
C1818 H1802 0.931 . S
C1818 C1812 1.383 . S
C1818 C1817 1.379 . S
H1819 C1813 0.981 . S
H1820 C1813 0.961 . S
H1821 C1813 0.960 . S
H1822 C1814 0.930 . S
H1823 C1815 0.929 . S
H1824 C1832 0.929 . S
H1825 C1834 0.930 . S
H1826 C1836 0.930 . S
H1827 C1839 0.929 . S
H1828 C1842 0.930 . S
H1829 C1844 0.960 . S
H1830 C1844 0.960 . S
H1831 C1844 0.960 . S
C1832 H1824 0.929 . S
C1832 C1833 1.377 . S
C1832 C1834 1.384 . S
C1833 C1832 1.377 . S
C1833 C1839 1.390 . S
C1834 H1825 0.930 . S
C1834 C1832 1.384 . S
C1834 C1835 1.372 . S
C1835 C1834 1.372 . S
C1835 C1836 1.400 . S
C1835 C1840 1.490 . S
C1836 H1826 0.930 . S
C1836 C1835 1.400 . S
C1836 C1839 1.386 . S
H1837 C1853 0.930 . S
H1838 C1854 0.931 . S
C1839 H1827 0.929 . S
C1839 C1833 1.390 . S
C1839 C1836 1.386 . S
C1840 C1835 1.490 . S
C1840 C1842 1.395 . S
C1840 C1843 1.403 . S
H1841 C1847 0.930 . S
C1842 H1828 0.930 . S
C1842 C1840 1.395 . S
C1842 C1845 1.403 . S
C1843 C1840 1.403 . S
C1843 C1844 1.524 . S
C1843 C1847 1.400 . S
C1844 H1829 0.960 . S
C1844 H1830 0.960 . S
C1844 H1831 0.960 . S
C1844 C1843 1.524 . S
C1845 C1842 1.403 . S
C1845 C1846 1.392 . S
C1845 C1849 1.495 . S
C1846 C1845 1.392 . S
C1846 C1847 1.385 . S
C1846 C1848 1.478 . S
C1847 H1841 0.930 . S
C1847 C1843 1.400 . S
C1847 C1846 1.385 . S
C1848 C1846 1.478 . S
C1848 C1850 1.381 . S
C1848 C1854 1.383 . S
C1849 C1845 1.495 . S
C1849 H1855 0.959 . S
C1849 H1856 0.961 . S
C1849 H1857 0.960 . S
C1850 C1848 1.381 . S
C1850 C1851 1.394 . S
C1850 H1858 0.930 . S
C1851 C1850 1.394 . S
C1851 C1852 1.383 . S
C1851 H1859 0.929 . S
C1852 C1851 1.383 . S
C1852 C1853 1.377 . S
C1853 H1837 0.930 . S
C1853 C1852 1.377 . S
C1853 C1854 1.379 . S
C1854 H1838 0.931 . S
C1854 C1848 1.383 . S
C1854 C1853 1.379 . S
H1855 C1849 0.959 . S
H1856 C1849 0.961 . S
H1857 C1849 0.960 . S
H1858 C1850 0.930 . S
H1859 C1851 0.929 . S
H1860 C1868 0.929 . S
H1861 C1870 0.930 . S
H1862 C1872 0.930 . S
H1863 C1875 0.929 . S
H1864 C1878 0.930 . S
H1865 C1880 0.960 . S
H1866 C1880 0.960 . S
H1867 C1880 0.960 . S
C1868 H1860 0.929 . S
C1868 C1869 1.377 . S
C1868 C1870 1.384 . S
C1869 C1868 1.377 . S
C1869 C1875 1.390 . S
C1870 H1861 0.930 . S
C1870 C1868 1.384 . S
C1870 C1871 1.372 . S
C1871 C1870 1.372 . S
C1871 C1872 1.400 . S
C1871 C1876 1.490 . S
C1872 H1862 0.930 . S
C1872 C1871 1.400 . S
C1872 C1875 1.386 . S
H1873 C1889 0.930 . S
H1874 C1890 0.931 . S
C1875 H1863 0.929 . S
C1875 C1869 1.390 . S
C1875 C1872 1.386 . S
C1876 C1871 1.490 . S
C1876 C1878 1.395 . S
C1876 C1879 1.403 . S
H1877 C1883 0.930 . S
C1878 H1864 0.930 . S
C1878 C1876 1.395 . S
C1878 C1881 1.403 . S
C1879 C1876 1.403 . S
C1879 C1880 1.524 . S
C1879 C1883 1.400 . S
C1880 H1865 0.960 . S
C1880 H1866 0.960 . S
C1880 H1867 0.960 . S
C1880 C1879 1.524 . S
C1881 C1878 1.403 . S
C1881 C1882 1.392 . S
C1881 C1885 1.495 . S
C1882 C1881 1.392 . S
C1882 C1883 1.385 . S
C1882 C1884 1.478 . S
C1883 H1877 0.930 . S
C1883 C1879 1.400 . S
C1883 C1882 1.385 . S
C1884 C1882 1.478 . S
C1884 C1886 1.381 . S
C1884 C1890 1.383 . S
C1885 C1881 1.495 . S
C1885 H1891 0.959 . S
C1885 H1892 0.961 . S
C1885 H1893 0.960 . S
C1886 C1884 1.381 . S
C1886 C1887 1.394 . S
C1886 H1894 0.930 . S
C1887 C1886 1.394 . S
C1887 C1888 1.383 . S
C1887 H1895 0.929 . S
C1888 C1887 1.383 . S
C1888 C1889 1.377 . S
C1889 H1873 0.930 . S
C1889 C1888 1.377 . S
C1889 C1890 1.379 . S
C1890 H1874 0.931 . S
C1890 C1884 1.383 . S
C1890 C1889 1.379 . S
H1891 C1885 0.959 . S
H1892 C1885 0.961 . S
H1893 C1885 0.960 . S
H1894 C1886 0.930 . S
H1895 C1887 0.929 . S
H1896 C1904 0.929 . S
H1897 C1906 0.930 . S
H1898 C1908 0.930 . S
H1899 C1911 0.929 . S
H1900 C1914 0.930 . S
H1901 C1916 0.960 . S
H1902 C1916 0.960 . S
H1903 C1916 0.960 . S
C1904 H1896 0.929 . S
C1904 C1905 1.377 . S
C1904 C1906 1.384 . S
C1905 C1904 1.377 . S
C1905 C1911 1.390 . S
C1906 H1897 0.930 . S
C1906 C1904 1.384 . S
C1906 C1907 1.372 . S
C1907 C1906 1.372 . S
C1907 C1908 1.400 . S
C1907 C1912 1.490 . S
C1908 H1898 0.930 . S
C1908 C1907 1.400 . S
C1908 C1911 1.386 . S
H1909 C1925 0.930 . S
H1910 C1926 0.931 . S
C1911 H1899 0.929 . S
C1911 C1905 1.390 . S
C1911 C1908 1.386 . S
C1912 C1907 1.490 . S
C1912 C1914 1.395 . S
C1912 C1915 1.403 . S
H1913 C1919 0.930 . S
C1914 H1900 0.930 . S
C1914 C1912 1.395 . S
C1914 C1917 1.403 . S
C1915 C1912 1.403 . S
C1915 C1916 1.524 . S
C1915 C1919 1.400 . S
C1916 H1901 0.960 . S
C1916 H1902 0.960 . S
C1916 H1903 0.960 . S
C1916 C1915 1.524 . S
C1917 C1914 1.403 . S
C1917 C1918 1.392 . S
C1917 C1921 1.495 . S
C1918 C1917 1.392 . S
C1918 C1919 1.385 . S
C1918 C1920 1.478 . S
C1919 H1913 0.930 . S
C1919 C1915 1.400 . S
C1919 C1918 1.385 . S
C1920 C1918 1.478 . S
C1920 C1922 1.381 . S
C1920 C1926 1.383 . S
C1921 C1917 1.495 . S
C1921 H1927 0.959 . S
C1921 H1928 0.961 . S
C1921 H1929 0.960 . S
C1922 C1920 1.381 . S
C1922 C1923 1.394 . S
C1922 H1930 0.930 . S
C1923 C1922 1.394 . S
C1923 C1924 1.383 . S
C1923 H1931 0.929 . S
C1924 C1923 1.383 . S
C1924 C1925 1.377 . S
C1925 H1909 0.930 . S
C1925 C1924 1.377 . S
C1925 C1926 1.379 . S
C1926 H1910 0.931 . S
C1926 C1920 1.383 . S
C1926 C1925 1.379 . S
H1927 C1921 0.959 . S
H1928 C1921 0.961 . S
H1929 C1921 0.960 . S
H1930 C1922 0.930 . S
H1931 C1923 0.929 . S
H1932 C1940 0.929 . S
H1933 C1942 0.930 . S
H1934 C1944 0.930 . S
H1935 C1947 0.929 . S
H1936 C1950 0.930 . S
H1937 C1952 0.960 . S
H1938 C1952 0.960 . S
H1939 C1952 0.960 . S
C1940 H1932 0.929 . S
C1940 C1941 1.377 . S
C1940 C1942 1.384 . S
C1941 C1940 1.377 . S
C1941 C1947 1.390 . S
C1942 H1933 0.930 . S
C1942 C1940 1.384 . S
C1942 C1943 1.372 . S
C1943 C1942 1.372 . S
C1943 C1944 1.400 . S
C1943 C1948 1.490 . S
C1944 H1934 0.930 . S
C1944 C1943 1.400 . S
C1944 C1947 1.386 . S
H1945 C1961 0.930 . S
H1946 C1962 0.931 . S
C1947 H1935 0.929 . S
C1947 C1941 1.390 . S
C1947 C1944 1.386 . S
C1948 C1943 1.490 . S
C1948 C1950 1.395 . S
C1948 C1951 1.403 . S
H1949 C1955 0.930 . S
C1950 H1936 0.930 . S
C1950 C1948 1.395 . S
C1950 C1953 1.403 . S
C1951 C1948 1.403 . S
C1951 C1952 1.524 . S
C1951 C1955 1.400 . S
C1952 H1937 0.960 . S
C1952 H1938 0.960 . S
C1952 H1939 0.960 . S
C1952 C1951 1.524 . S
C1953 C1950 1.403 . S
C1953 C1954 1.393 1_556 S
C1953 C1957 1.466 1_556 S
C1954 C1953 1.393 1_554 S
C1954 C1955 1.386 1_554 S
C1954 C1956 1.476 . S
C1955 H1949 0.930 . S
C1955 C1951 1.400 . S
C1955 C1954 1.386 1_556 S
C1956 C1954 1.476 . S
C1956 C1958 1.381 . S
C1956 C1962 1.383 . S
C1957 C1953 1.466 1_554 S
C1957 H1963 0.919 1_554 S
C1957 H1964 0.984 . S
C1957 H1965 1.011 . S
C1958 C1956 1.381 . S
C1958 C1959 1.394 . S
C1958 H1966 0.930 . S
C1959 C1958 1.394 . S
C1959 C1960 1.383 . S
C1959 H1967 0.929 . S
C1960 C1959 1.383 . S
C1960 C1961 1.377 . S
C1961 H1945 0.930 . S
C1961 C1960 1.377 . S
C1961 C1962 1.379 . S
C1962 H1946 0.931 . S
C1962 C1956 1.383 . S
C1962 C1961 1.379 . S
H1963 C1957 0.919 1_556 S
H1964 C1957 0.984 . S
H1965 C1957 1.011 . S
H1966 C1958 0.930 . S
H1967 C1959 0.929 . S
H1968 C1976 0.929 . S
H1969 C1978 0.930 . S
H1970 C1980 0.930 . S
H1971 C1983 0.929 . S
H1972 C1986 0.930 . S
H1973 C1988 0.960 . S
H1974 C1988 0.960 . S
H1975 C1988 0.960 . S
C1976 H1968 0.929 . S
C1976 C1977 1.377 . S
C1976 C1978 1.384 . S
C1977 C1976 1.377 . S
C1977 C1983 1.390 . S
C1978 H1969 0.930 . S
C1978 C1976 1.384 . S
C1978 C1979 1.372 . S
C1979 C1978 1.372 . S
C1979 C1980 1.400 . S
C1979 C1984 1.490 . S
C1980 H1970 0.930 . S
C1980 C1979 1.400 . S
C1980 C1983 1.386 . S
H1981 C1997 0.930 . S
H1982 C1998 0.931 . S
C1983 H1971 0.929 . S
C1983 C1977 1.390 . S
C1983 C1980 1.386 . S
C1984 C1979 1.490 . S
C1984 C1986 1.395 . S
C1984 C1987 1.403 . S
H1985 C1991 0.930 . S
C1986 H1972 0.930 . S
C1986 C1984 1.395 . S
C1986 C1989 1.403 . S
C1987 C1984 1.403 . S
C1987 C1988 1.524 . S
C1987 C1991 1.400 . S
C1988 H1973 0.960 . S
C1988 H1974 0.960 . S
C1988 H1975 0.960 . S
C1988 C1987 1.524 . S
C1989 C1986 1.403 . S
C1989 C1990 1.392 . S
C1989 C1993 1.495 . S
C1990 C1989 1.392 . S
C1990 C1991 1.385 . S
C1990 C1992 1.478 . S
C1991 H1985 0.930 . S
C1991 C1987 1.400 . S
C1991 C1990 1.385 . S
C1992 C1990 1.478 . S
C1992 C1994 1.381 . S
C1992 C1998 1.383 . S
C1993 C1989 1.495 . S
C1993 H1999 0.959 . S
C1993 H2000 0.961 . S
C1993 H2001 0.960 . S
C1994 C1992 1.381 . S
C1994 C1995 1.394 . S
C1994 H2002 0.930 . S
C1995 C1994 1.394 . S
C1995 C1996 1.383 . S
C1995 H2003 0.929 . S
C1996 C1995 1.383 . S
C1996 C1997 1.377 . S
C1997 H1981 0.930 . S
C1997 C1996 1.377 . S
C1997 C1998 1.379 . S
C1998 H1982 0.931 . S
C1998 C1992 1.383 . S
C1998 C1997 1.379 . S
H1999 C1993 0.959 . S
H2000 C1993 0.961 . S
H2001 C1993 0.960 . S
H2002 C1994 0.930 . S
H2003 C1995 0.929 . S
H2004 C2012 0.929 . S
H2005 C2014 0.930 . S
H2006 C2016 0.930 . S
H2007 C2019 0.929 . S
H2008 C2022 0.930 . S
H2009 C2024 0.960 . S
H2010 C2024 0.960 . S
H2011 C2024 0.960 . S
C2012 H2004 0.929 . S
C2012 C2013 1.377 . S
C2012 C2014 1.384 . S
C2013 C2012 1.377 . S
C2013 C2019 1.390 . S
C2014 H2005 0.930 . S
C2014 C2012 1.384 . S
C2014 C2015 1.372 . S
C2015 C2014 1.372 . S
C2015 C2016 1.400 . S
C2015 C2020 1.490 . S
C2016 H2006 0.930 . S
C2016 C2015 1.400 . S
C2016 C2019 1.386 . S
H2017 C2033 0.930 . S
H2018 C2034 0.931 . S
C2019 H2007 0.929 . S
C2019 C2013 1.390 . S
C2019 C2016 1.386 . S
C2020 C2015 1.490 . S
C2020 C2022 1.395 . S
C2020 C2023 1.403 . S
H2021 C2027 0.930 . S
C2022 H2008 0.930 . S
C2022 C2020 1.395 . S
C2022 C2025 1.403 . S
C2023 C2020 1.403 . S
C2023 C2024 1.524 . S
C2023 C2027 1.400 . S
C2024 H2009 0.960 . S
C2024 H2010 0.960 . S
C2024 H2011 0.960 . S
C2024 C2023 1.524 . S
C2025 C2022 1.403 . S
C2025 C2026 1.392 . S
C2025 C2029 1.495 . S
C2026 C2025 1.392 . S
C2026 C2027 1.385 . S
C2026 C2028 1.478 . S
C2027 H2021 0.930 . S
C2027 C2023 1.400 . S
C2027 C2026 1.385 . S
C2028 C2026 1.478 . S
C2028 C2030 1.381 . S
C2028 C2034 1.383 . S
C2029 C2025 1.495 . S
C2029 H2035 0.959 . S
C2029 H2036 0.961 . S
C2029 H2037 0.960 . S
C2030 C2028 1.381 . S
C2030 C2031 1.394 . S
C2030 H2038 0.930 . S
C2031 C2030 1.394 . S
C2031 C2032 1.383 . S
C2031 H2039 0.929 . S
C2032 C2031 1.383 . S
C2032 C2033 1.377 . S
C2033 H2017 0.930 . S
C2033 C2032 1.377 . S
C2033 C2034 1.379 . S
C2034 H2018 0.931 . S
C2034 C2028 1.383 . S
C2034 C2033 1.379 . S
H2035 C2029 0.959 . S
H2036 C2029 0.961 . S
H2037 C2029 0.960 . S
H2038 C2030 0.930 . S
H2039 C2031 0.929 . S
H2040 C2048 0.929 . S
H2041 C2050 0.930 . S
H2042 C2052 0.930 . S
H2043 C2055 0.929 . S
H2044 C2058 0.930 . S
H2045 C2060 0.960 . S
H2046 C2060 0.960 . S
H2047 C2060 0.960 . S
C2048 H2040 0.929 . S
C2048 C2049 1.377 . S
C2048 C2050 1.384 . S
C2049 C2048 1.377 . S
C2049 C2055 1.390 . S
C2050 H2041 0.930 . S
C2050 C2048 1.384 . S
C2050 C2051 1.372 . S
C2051 C2050 1.372 . S
C2051 C2052 1.400 . S
C2051 C2056 1.490 . S
C2052 H2042 0.930 . S
C2052 C2051 1.400 . S
C2052 C2055 1.386 . S
H2053 C2069 0.930 . S
H2054 C2070 0.931 . S
C2055 H2043 0.929 . S
C2055 C2049 1.390 . S
C2055 C2052 1.386 . S
C2056 C2051 1.490 . S
C2056 C2058 1.395 . S
C2056 C2059 1.403 . S
H2057 C2063 0.930 . S
C2058 H2044 0.930 . S
C2058 C2056 1.395 . S
C2058 C2061 1.403 . S
C2059 C2056 1.403 . S
C2059 C2060 1.524 . S
C2059 C2063 1.400 . S
C2060 H2045 0.960 . S
C2060 H2046 0.960 . S
C2060 H2047 0.960 . S
C2060 C2059 1.524 . S
C2061 C2058 1.403 . S
C2061 C2062 1.392 . S
C2061 C2065 1.495 . S
C2062 C2061 1.392 . S
C2062 C2063 1.385 . S
C2062 C2064 1.478 . S
C2063 H2057 0.930 . S
C2063 C2059 1.400 . S
C2063 C2062 1.385 . S
C2064 C2062 1.478 . S
C2064 C2066 1.381 . S
C2064 C2070 1.383 . S
C2065 C2061 1.495 . S
C2065 H2071 0.959 . S
C2065 H2072 0.961 . S
C2065 H2073 0.960 . S
C2066 C2064 1.381 . S
C2066 C2067 1.394 . S
C2066 H2074 0.930 . S
C2067 C2066 1.394 . S
C2067 C2068 1.383 . S
C2067 H2075 0.929 . S
C2068 C2067 1.383 . S
C2068 C2069 1.377 . S
C2069 H2053 0.930 . S
C2069 C2068 1.377 . S
C2069 C2070 1.379 . S
C2070 H2054 0.931 . S
C2070 C2064 1.383 . S
C2070 C2069 1.379 . S
H2071 C2065 0.959 . S
H2072 C2065 0.961 . S
H2073 C2065 0.960 . S
H2074 C2066 0.930 . S
H2075 C2067 0.929 . S
H2076 C2084 0.929 . S
H2077 C2086 0.930 . S
H2078 C2088 0.930 . S
H2079 C2091 0.929 . S
H2080 C2094 0.930 . S
H2081 C2096 0.960 1_554 S
H2082 C2096 0.960 . S
H2083 C2096 0.960 . S
C2084 H2076 0.929 . S
C2084 C2085 1.377 . S
C2084 C2086 1.384 . S
C2085 C2084 1.377 . S
C2085 C2091 1.390 . S
C2086 H2077 0.930 . S
C2086 C2084 1.384 . S
C2086 C2087 1.372 . S
C2087 C2086 1.372 . S
C2087 C2088 1.400 . S
C2087 C2092 1.490 1_556 S
C2088 H2078 0.930 . S
C2088 C2087 1.400 . S
C2088 C2091 1.386 . S
H2089 C2105 0.930 . S
H2090 C2106 0.931 . S
C2091 H2079 0.929 . S
C2091 C2085 1.390 . S
C2091 C2088 1.386 . S
C2092 C2087 1.490 1_554 S
C2092 C2094 1.395 . S
C2092 C2095 1.403 . S
H2093 C2099 0.930 . S
C2094 H2080 0.930 . S
C2094 C2092 1.395 . S
C2094 C2097 1.403 . S
C2095 C2092 1.403 . S
C2095 C2096 1.524 1_554 S
C2095 C2099 1.400 . S
C2096 H2081 0.960 1_556 S
C2096 H2082 0.960 . S
C2096 H2083 0.960 . S
C2096 C2095 1.524 1_556 S
C2097 C2094 1.403 . S
C2097 C2098 1.392 . S
C2097 C2101 1.495 . S
C2098 C2097 1.392 . S
C2098 C2099 1.385 . S
C2098 C2100 1.478 . S
C2099 H2093 0.930 . S
C2099 C2095 1.400 . S
C2099 C2098 1.385 . S
C2100 C2098 1.478 . S
C2100 C2102 1.381 . S
C2100 C2106 1.383 . S
C2101 C2097 1.495 . S
C2101 H2107 0.959 . S
C2101 H2108 0.961 . S
C2101 H2109 0.960 . S
C2102 C2100 1.381 . S
C2102 C2103 1.394 . S
C2102 H2110 0.930 . S
C2103 C2102 1.394 . S
C2103 C2104 1.383 . S
C2103 H2111 0.929 . S
C2104 C2103 1.383 . S
C2104 C2105 1.377 . S
C2105 H2089 0.930 . S
C2105 C2104 1.377 . S
C2105 C2106 1.379 . S
C2106 H2090 0.931 . S
C2106 C2100 1.383 . S
C2106 C2105 1.379 . S
H2107 C2101 0.959 . S
H2108 C2101 0.961 . S
H2109 C2101 0.960 . S
H2110 C2102 0.930 . S
H2111 C2103 0.929 . S
H2112 C2120 0.929 . S
H2113 C2122 0.930 . S
H2114 C2124 0.930 . S
H2115 C2127 0.929 . S
H2116 C2130 0.930 . S
H2117 C2132 0.960 . S
H2118 C2132 0.960 . S
H2119 C2132 0.960 . S
C2120 H2112 0.929 . S
C2120 C2121 1.377 . S
C2120 C2122 1.384 . S
C2121 C2120 1.377 . S
C2121 C2127 1.390 . S
C2122 H2113 0.930 . S
C2122 C2120 1.384 . S
C2122 C2123 1.372 . S
C2123 C2122 1.372 . S
C2123 C2124 1.400 . S
C2123 C2128 1.490 . S
C2124 H2114 0.930 . S
C2124 C2123 1.400 . S
C2124 C2127 1.386 . S
H2125 C2141 0.930 . S
H2126 C2142 0.931 . S
C2127 H2115 0.929 . S
C2127 C2121 1.390 . S
C2127 C2124 1.386 . S
C2128 C2123 1.490 . S
C2128 C2130 1.395 . S
C2128 C2131 1.403 . S
H2129 C2135 0.930 . S
C2130 H2116 0.930 . S
C2130 C2128 1.395 . S
C2130 C2133 1.403 . S
C2131 C2128 1.403 . S
C2131 C2132 1.524 . S
C2131 C2135 1.400 . S
C2132 H2117 0.960 . S
C2132 H2118 0.960 . S
C2132 H2119 0.960 . S
C2132 C2131 1.524 . S
C2133 C2130 1.403 . S
C2133 C2134 1.392 . S
C2133 C2137 1.495 . S
C2134 C2133 1.392 . S
C2134 C2135 1.385 . S
C2134 C2136 1.478 . S
C2135 H2129 0.930 . S
C2135 C2131 1.400 . S
C2135 C2134 1.385 . S
C2136 C2134 1.478 . S
C2136 C2138 1.381 . S
C2136 C2142 1.383 . S
C2137 C2133 1.495 . S
C2137 H2143 0.959 . S
C2137 H2144 0.961 . S
C2137 H2145 0.960 . S
C2138 C2136 1.381 . S
C2138 C2139 1.394 . S
C2138 H2146 0.930 . S
C2139 C2138 1.394 . S
C2139 C2140 1.383 . S
C2139 H2147 0.929 . S
C2140 C2139 1.383 . S
C2140 C2141 1.377 . S
C2141 H2125 0.930 . S
C2141 C2140 1.377 . S
C2141 C2142 1.379 . S
C2142 H2126 0.931 . S
C2142 C2136 1.383 . S
C2142 C2141 1.379 . S
H2143 C2137 0.959 . S
H2144 C2137 0.961 . S
H2145 C2137 0.960 . S
H2146 C2138 0.930 . S
H2147 C2139 0.929 . S
H2148 C2156 0.929 . S
H2149 C2158 0.930 . S
H2150 C2160 0.930 . S
H2151 C2163 0.929 . S
H2152 C2166 0.930 . S
H2153 C2168 0.960 . S
H2154 C2168 0.960 . S
H2155 C2168 0.960 . S
C2156 H2148 0.929 . S
C2156 C2157 1.377 . S
C2156 C2158 1.384 . S
C2157 C2156 1.377 . S
C2157 C2163 1.390 . S
C2158 H2149 0.930 . S
C2158 C2156 1.384 . S
C2158 C2159 1.372 . S
C2159 C2158 1.372 . S
C2159 C2160 1.400 . S
C2159 C2164 1.490 . S
C2160 H2150 0.930 . S
C2160 C2159 1.400 . S
C2160 C2163 1.386 . S
H2161 C2177 0.930 . S
H2162 C2178 0.931 . S
C2163 H2151 0.929 . S
C2163 C2157 1.390 . S
C2163 C2160 1.386 . S
C2164 C2159 1.490 . S
C2164 C2166 1.395 . S
C2164 C2167 1.403 . S
H2165 C2171 0.930 . S
C2166 H2152 0.930 . S
C2166 C2164 1.395 . S
C2166 C2169 1.403 . S
C2167 C2164 1.403 . S
C2167 C2168 1.524 . S
C2167 C2171 1.400 . S
C2168 H2153 0.960 . S
C2168 H2154 0.960 . S
C2168 H2155 0.960 . S
C2168 C2167 1.524 . S
C2169 C2166 1.403 . S
C2169 C2170 1.392 . S
C2169 C2173 1.495 . S
C2170 C2169 1.392 . S
C2170 C2171 1.385 . S
C2170 C2172 1.478 . S
C2171 H2165 0.930 . S
C2171 C2167 1.400 . S
C2171 C2170 1.385 . S
C2172 C2170 1.478 . S
C2172 C2174 1.381 . S
C2172 C2178 1.383 . S
C2173 C2169 1.495 . S
C2173 H2179 0.959 . S
C2173 H2180 0.961 . S
C2173 H2181 0.960 . S
C2174 C2172 1.381 . S
C2174 C2175 1.394 . S
C2174 H2182 0.930 . S
C2175 C2174 1.394 . S
C2175 C2176 1.383 . S
C2175 H2183 0.929 . S
C2176 C2175 1.383 . S
C2176 C2177 1.377 . S
C2177 H2161 0.930 . S
C2177 C2176 1.377 . S
C2177 C2178 1.379 . S
C2178 H2162 0.931 . S
C2178 C2172 1.383 . S
C2178 C2177 1.379 . S
H2179 C2173 0.959 . S
H2180 C2173 0.961 . S
H2181 C2173 0.960 . S
H2182 C2174 0.930 . S
H2183 C2175 0.929 . S
H2184 C2192 0.929 . S
H2185 C2194 0.930 . S
H2186 C2196 0.930 . S
H2187 C2199 0.929 . S
H2188 C2202 0.930 . S
H2189 C2204 0.960 . S
H2190 C2204 0.960 . S
H2191 C2204 0.960 . S
C2192 H2184 0.929 . S
C2192 C2193 1.377 . S
C2192 C2194 1.384 . S
C2193 C2192 1.377 . S
C2193 C2199 1.390 . S
C2194 H2185 0.930 . S
C2194 C2192 1.384 . S
C2194 C2195 1.372 . S
C2195 C2194 1.372 . S
C2195 C2196 1.400 . S
C2195 C2200 1.490 . S
C2196 H2186 0.930 . S
C2196 C2195 1.400 . S
C2196 C2199 1.386 . S
H2197 C2213 0.930 . S
H2198 C2214 0.931 . S
C2199 H2187 0.929 . S
C2199 C2193 1.390 . S
C2199 C2196 1.386 . S
C2200 C2195 1.490 . S
C2200 C2202 1.395 . S
C2200 C2203 1.403 . S
H2201 C2207 0.930 . S
C2202 H2188 0.930 . S
C2202 C2200 1.395 . S
C2202 C2205 1.403 . S
C2203 C2200 1.403 . S
C2203 C2204 1.524 . S
C2203 C2207 1.400 . S
C2204 H2189 0.960 . S
C2204 H2190 0.960 . S
C2204 H2191 0.960 . S
C2204 C2203 1.524 . S
C2205 C2202 1.403 . S
C2205 C2206 1.392 . S
C2205 C2209 1.495 . S
C2206 C2205 1.392 . S
C2206 C2207 1.385 . S
C2206 C2208 1.478 . S
C2207 H2201 0.930 . S
C2207 C2203 1.400 . S
C2207 C2206 1.385 . S
C2208 C2206 1.478 . S
C2208 C2210 1.381 . S
C2208 C2214 1.383 . S
C2209 C2205 1.495 . S
C2209 H2215 0.959 . S
C2209 H2216 0.961 . S
C2209 H2217 0.960 . S
C2210 C2208 1.381 . S
C2210 C2211 1.394 . S
C2210 H2218 0.930 . S
C2211 C2210 1.394 . S
C2211 C2212 1.383 . S
C2211 H2219 0.929 . S
C2212 C2211 1.383 . S
C2212 C2213 1.377 . S
C2213 H2197 0.930 . S
C2213 C2212 1.377 . S
C2213 C2214 1.379 . S
C2214 H2198 0.931 . S
C2214 C2208 1.383 . S
C2214 C2213 1.379 . S
H2215 C2209 0.959 . S
H2216 C2209 0.961 . S
H2217 C2209 0.960 . S
H2218 C2210 0.930 . S
H2219 C2211 0.929 . S
H2220 C2228 0.929 . S
H2221 C2230 0.930 . S
H2222 C2232 0.930 . S
H2223 C2235 0.929 . S
H2224 C2238 0.930 . S
H2225 C2240 0.960 . S
H2226 C2240 0.960 . S
H2227 C2240 0.960 . S
C2228 H2220 0.929 . S
C2228 C2229 1.377 . S
C2228 C2230 1.384 . S
C2229 C2228 1.377 . S
C2229 C2235 1.390 . S
C2230 H2221 0.930 . S
C2230 C2228 1.384 . S
C2230 C2231 1.372 . S
C2231 C2230 1.372 . S
C2231 C2232 1.400 . S
C2231 C2236 1.490 . S
C2232 H2222 0.930 . S
C2232 C2231 1.400 . S
C2232 C2235 1.386 . S
H2233 C2249 0.930 . S
H2234 C2250 0.931 . S
C2235 H2223 0.929 . S
C2235 C2229 1.390 . S
C2235 C2232 1.386 . S
C2236 C2231 1.490 . S
C2236 C2238 1.395 . S
C2236 C2239 1.403 . S
H2237 C2243 0.930 . S
C2238 H2224 0.930 . S
C2238 C2236 1.395 . S
C2238 C2241 1.403 . S
C2239 C2236 1.403 . S
C2239 C2240 1.524 . S
C2239 C2243 1.400 . S
C2240 H2225 0.960 . S
C2240 H2226 0.960 . S
C2240 H2227 0.960 . S
C2240 C2239 1.524 . S
C2241 C2238 1.403 . S
C2241 C2242 1.392 . S
C2241 C2245 1.495 . S
C2242 C2241 1.392 . S
C2242 C2243 1.385 . S
C2242 C2244 1.478 . S
C2243 H2237 0.930 . S
C2243 C2239 1.400 . S
C2243 C2242 1.385 . S
C2244 C2242 1.478 . S
C2244 C2246 1.381 . S
C2244 C2250 1.383 . S
C2245 C2241 1.495 . S
C2245 H2251 0.959 . S
C2245 H2252 0.961 . S
C2245 H2253 0.960 . S
C2246 C2244 1.381 . S
C2246 C2247 1.394 . S
C2246 H2254 0.930 . S
C2247 C2246 1.394 . S
C2247 C2248 1.383 . S
C2247 H2255 0.929 . S
C2248 C2247 1.383 . S
C2248 C2249 1.377 . S
C2249 H2233 0.930 . S
C2249 C2248 1.377 . S
C2249 C2250 1.379 . S
C2250 H2234 0.931 . S
C2250 C2244 1.383 . S
C2250 C2249 1.379 . S
H2251 C2245 0.959 . S
H2252 C2245 0.961 . S
H2253 C2245 0.960 . S
H2254 C2246 0.930 . S
H2255 C2247 0.929 . S
H2256 C2264 0.929 . S
H2257 C2266 0.930 . S
H2258 C2268 0.930 . S
H2259 C2271 0.929 . S
H2260 C2274 0.930 1_565 S
H2261 C2276 0.960 . S
H2262 C2276 0.960 . S
H2263 C2276 0.960 . S
C2264 H2256 0.929 . S
C2264 C2265 1.377 . S
C2264 C2266 1.384 . S
C2265 C2264 1.377 . S
C2265 C2271 1.390 . S
C2266 H2257 0.930 . S
C2266 C2264 1.384 . S
C2266 C2267 1.372 . S
C2267 C2266 1.372 . S
C2267 C2268 1.400 . S
C2267 C2272 1.490 1_565 S
C2268 H2258 0.930 . S
C2268 C2267 1.400 . S
C2268 C2271 1.386 . S
H2269 C2285 0.930 . S
H2270 C2286 0.931 . S
C2271 H2259 0.929 . S
C2271 C2265 1.390 . S
C2271 C2268 1.386 . S
C2272 C2267 1.490 1_545 S
C2272 C2274 1.395 . S
C2272 C2275 1.403 . S
H2273 C2279 0.930 . S
C2274 H2260 0.930 1_545 S
C2274 C2272 1.395 . S
C2274 C2277 1.403 . S
C2275 C2272 1.403 . S
C2275 C2276 1.524 . S
C2275 C2279 1.400 . S
C2276 H2261 0.960 . S
C2276 H2262 0.960 . S
C2276 H2263 0.960 . S
C2276 C2275 1.524 . S
C2277 C2274 1.403 . S
C2277 C2278 1.392 . S
C2277 C2281 1.495 . S
C2278 C2277 1.392 . S
C2278 C2279 1.385 . S
C2278 C2280 1.478 . S
C2279 H2273 0.930 . S
C2279 C2275 1.400 . S
C2279 C2278 1.385 . S
C2280 C2278 1.478 . S
C2280 C2282 1.381 . S
C2280 C2286 1.383 . S
C2281 C2277 1.495 . S
C2281 H2287 0.959 . S
C2281 H2288 0.961 . S
C2281 H2289 0.960 . S
C2282 C2280 1.381 . S
C2282 C2283 1.394 . S
C2282 H2290 0.930 . S
C2283 C2282 1.394 . S
C2283 C2284 1.383 . S
C2283 H2291 0.929 . S
C2284 C2283 1.383 . S
C2284 C2285 1.377 . S
C2285 H2269 0.930 . S
C2285 C2284 1.377 . S
C2285 C2286 1.379 . S
C2286 H2270 0.931 . S
C2286 C2280 1.383 . S
C2286 C2285 1.379 . S
H2287 C2281 0.959 . S
H2288 C2281 0.961 . S
H2289 C2281 0.960 . S
H2290 C2282 0.930 . S
H2291 C2283 0.929 . S
H2292 C2300 0.929 . S
H2293 C2302 0.930 . S
H2294 C2304 0.930 . S
H2295 C2307 0.929 . S
H2296 C2310 0.930 . S
H2297 C2312 0.960 . S
H2298 C2312 0.960 . S
H2299 C2312 0.960 . S
C2300 H2292 0.929 . S
C2300 C2301 1.377 . S
C2300 C2302 1.384 . S
C2301 C2300 1.377 . S
C2301 C2307 1.390 . S
C2302 H2293 0.930 . S
C2302 C2300 1.384 . S
C2302 C2303 1.372 . S
C2303 C2302 1.372 . S
C2303 C2304 1.400 . S
C2303 C2308 1.490 . S
C2304 H2294 0.930 . S
C2304 C2303 1.400 . S
C2304 C2307 1.386 . S
H2305 C2321 0.930 . S
H2306 C2322 0.931 . S
C2307 H2295 0.929 . S
C2307 C2301 1.390 . S
C2307 C2304 1.386 . S
C2308 C2303 1.490 . S
C2308 C2310 1.395 . S
C2308 C2311 1.403 . S
H2309 C2315 0.930 . S
C2310 H2296 0.930 . S
C2310 C2308 1.395 . S
C2310 C2313 1.403 . S
C2311 C2308 1.403 . S
C2311 C2312 1.524 . S
C2311 C2315 1.400 . S
C2312 H2297 0.960 . S
C2312 H2298 0.960 . S
C2312 H2299 0.960 . S
C2312 C2311 1.524 . S
C2313 C2310 1.403 . S
C2313 C2314 1.392 . S
C2313 C2317 1.495 . S
C2314 C2313 1.392 . S
C2314 C2315 1.385 . S
C2314 C2316 1.478 . S
C2315 H2309 0.930 . S
C2315 C2311 1.400 . S
C2315 C2314 1.385 . S
C2316 C2314 1.478 . S
C2316 C2318 1.381 . S
C2316 C2322 1.383 . S
C2317 C2313 1.495 . S
C2317 H2323 0.959 . S
C2317 H2324 0.961 . S
C2317 H2325 0.960 . S
C2318 C2316 1.381 . S
C2318 C2319 1.394 . S
C2318 H2326 0.930 . S
C2319 C2318 1.394 . S
C2319 C2320 1.383 . S
C2319 H2327 0.929 . S
C2320 C2319 1.383 . S
C2320 C2321 1.377 . S
C2321 H2305 0.930 . S
C2321 C2320 1.377 . S
C2321 C2322 1.379 . S
C2322 H2306 0.931 . S
C2322 C2316 1.383 . S
C2322 C2321 1.379 . S
H2323 C2317 0.959 . S
H2324 C2317 0.961 . S
H2325 C2317 0.960 . S
H2326 C2318 0.930 . S
H2327 C2319 0.929 . S
H2328 C2336 0.929 . S
H2329 C2338 0.930 . S
H2330 C2340 0.930 . S
H2331 C2343 0.929 . S
H2332 C2346 0.930 . S
H2333 C2348 0.960 . S
H2334 C2348 0.960 . S
H2335 C2348 0.960 . S
C2336 H2328 0.929 . S
C2336 C2337 1.377 . S
C2336 C2338 1.384 . S
C2337 C2336 1.377 . S
C2337 C2343 1.390 . S
C2338 H2329 0.930 . S
C2338 C2336 1.384 . S
C2338 C2339 1.372 . S
C2339 C2338 1.372 . S
C2339 C2340 1.400 . S
C2339 C2344 1.490 . S
C2340 H2330 0.930 . S
C2340 C2339 1.400 . S
C2340 C2343 1.386 . S
H2341 C2357 0.930 . S
H2342 C2358 0.931 . S
C2343 H2331 0.929 . S
C2343 C2337 1.390 . S
C2343 C2340 1.386 . S
C2344 C2339 1.490 . S
C2344 C2346 1.395 . S
C2344 C2347 1.403 . S
H2345 C2351 0.930 . S
C2346 H2332 0.930 . S
C2346 C2344 1.395 . S
C2346 C2349 1.403 . S
C2347 C2344 1.403 . S
C2347 C2348 1.524 . S
C2347 C2351 1.400 . S
C2348 H2333 0.960 . S
C2348 H2334 0.960 . S
C2348 H2335 0.960 . S
C2348 C2347 1.524 . S
C2349 C2346 1.403 . S
C2349 C2350 1.392 . S
C2349 C2353 1.495 . S
C2350 C2349 1.392 . S
C2350 C2351 1.385 . S
C2350 C2352 1.478 . S
C2351 H2345 0.930 . S
C2351 C2347 1.400 . S
C2351 C2350 1.385 . S
C2352 C2350 1.478 . S
C2352 C2354 1.381 . S
C2352 C2358 1.383 . S
C2353 C2349 1.495 . S
C2353 H2359 0.959 . S
C2353 H2360 0.961 . S
C2353 H2361 0.960 . S
C2354 C2352 1.381 . S
C2354 C2355 1.394 . S
C2354 H2362 0.930 . S
C2355 C2354 1.394 . S
C2355 C2356 1.383 . S
C2355 H2363 0.929 . S
C2356 C2355 1.383 . S
C2356 C2357 1.377 . S
C2357 H2341 0.930 . S
C2357 C2356 1.377 . S
C2357 C2358 1.379 . S
C2358 H2342 0.931 . S
C2358 C2352 1.383 . S
C2358 C2357 1.379 . S
H2359 C2353 0.959 . S
H2360 C2353 0.961 . S
H2361 C2353 0.960 . S
H2362 C2354 0.930 . S
H2363 C2355 0.929 . S
H2364 C2372 0.929 . S
H2365 C2374 0.930 . S
H2366 C2376 0.930 . S
H2367 C2379 0.929 . S
H2368 C2382 0.930 . S
H2369 C2384 0.960 . S
H2370 C2384 0.960 . S
H2371 C2384 0.960 . S
C2372 H2364 0.929 . S
C2372 C2373 1.377 . S
C2372 C2374 1.384 . S
C2373 C2372 1.377 . S
C2373 C2379 1.390 . S
C2374 H2365 0.930 . S
C2374 C2372 1.384 . S
C2374 C2375 1.372 . S
C2375 C2374 1.372 . S
C2375 C2376 1.400 . S
C2375 C2380 1.490 . S
C2376 H2366 0.930 . S
C2376 C2375 1.400 . S
C2376 C2379 1.386 . S
H2377 C2393 0.930 . S
H2378 C2394 0.931 . S
C2379 H2367 0.929 . S
C2379 C2373 1.390 . S
C2379 C2376 1.386 . S
C2380 C2375 1.490 . S
C2380 C2382 1.395 . S
C2380 C2383 1.403 . S
H2381 C2387 0.930 . S
C2382 H2368 0.930 . S
C2382 C2380 1.395 . S
C2382 C2385 1.403 . S
C2383 C2380 1.403 . S
C2383 C2384 1.524 . S
C2383 C2387 1.400 . S
C2384 H2369 0.960 . S
C2384 H2370 0.960 . S
C2384 H2371 0.960 . S
C2384 C2383 1.524 . S
C2385 C2382 1.403 . S
C2385 C2386 1.392 . S
C2385 C2389 1.495 . S
C2386 C2385 1.392 . S
C2386 C2387 1.385 . S
C2386 C2388 1.478 . S
C2387 H2381 0.930 . S
C2387 C2383 1.400 . S
C2387 C2386 1.385 . S
C2388 C2386 1.478 . S
C2388 C2390 1.381 . S
C2388 C2394 1.383 . S
C2389 C2385 1.495 . S
C2389 H2395 0.959 . S
C2389 H2396 0.961 . S
C2389 H2397 0.960 . S
C2390 C2388 1.381 . S
C2390 C2391 1.394 . S
C2390 H2398 0.930 . S
C2391 C2390 1.394 . S
C2391 C2392 1.383 . S
C2391 H2399 0.929 . S
C2392 C2391 1.383 . S
C2392 C2393 1.377 . S
C2393 H2377 0.930 . S
C2393 C2392 1.377 . S
C2393 C2394 1.379 . S
C2394 H2378 0.931 . S
C2394 C2388 1.383 . S
C2394 C2393 1.379 . S
H2395 C2389 0.959 . S
H2396 C2389 0.961 . S
H2397 C2389 0.960 . S
H2398 C2390 0.930 . S
H2399 C2391 0.929 . S
H2400 C2408 0.929 . S
H2401 C2410 0.930 . S
H2402 C2412 0.930 . S
H2403 C2415 0.929 . S
H2404 C2418 0.930 . S
H2405 C2420 0.960 . S
H2406 C2420 0.960 . S
H2407 C2420 0.960 . S
C2408 H2400 0.929 . S
C2408 C2409 1.377 . S
C2408 C2410 1.384 . S
C2409 C2408 1.377 . S
C2409 C2415 1.390 . S
C2410 H2401 0.930 . S
C2410 C2408 1.384 . S
C2410 C2411 1.372 . S
C2411 C2410 1.372 . S
C2411 C2412 1.400 . S
C2411 C2416 1.490 . S
C2412 H2402 0.930 . S
C2412 C2411 1.400 . S
C2412 C2415 1.386 . S
H2413 C2429 0.930 . S
H2414 C2430 0.931 . S
C2415 H2403 0.929 . S
C2415 C2409 1.390 . S
C2415 C2412 1.386 . S
C2416 C2411 1.490 . S
C2416 C2418 1.395 . S
C2416 C2419 1.403 . S
H2417 C2423 0.930 . S
C2418 H2404 0.930 . S
C2418 C2416 1.395 . S
C2418 C2421 1.403 . S
C2419 C2416 1.403 . S
C2419 C2420 1.524 . S
C2419 C2423 1.400 . S
C2420 H2405 0.960 . S
C2420 H2406 0.960 . S
C2420 H2407 0.960 . S
C2420 C2419 1.524 . S
C2421 C2418 1.403 . S
C2421 C2422 1.392 . S
C2421 C2425 1.495 . S
C2422 C2421 1.392 . S
C2422 C2423 1.385 . S
C2422 C2424 1.478 . S
C2423 H2417 0.930 . S
C2423 C2419 1.400 . S
C2423 C2422 1.385 . S
C2424 C2422 1.478 . S
C2424 C2426 1.381 . S
C2424 C2430 1.383 . S
C2425 C2421 1.495 . S
C2425 H2431 0.959 . S
C2425 H2432 0.961 . S
C2425 H2433 0.960 . S
C2426 C2424 1.381 . S
C2426 C2427 1.394 . S
C2426 H2434 0.930 . S
C2427 C2426 1.394 . S
C2427 C2428 1.383 . S
C2427 H2435 0.929 . S
C2428 C2427 1.383 . S
C2428 C2429 1.377 . S
C2429 H2413 0.930 . S
C2429 C2428 1.377 . S
C2429 C2430 1.379 . S
C2430 H2414 0.931 . S
C2430 C2424 1.383 . S
C2430 C2429 1.379 . S
H2431 C2425 0.959 . S
H2432 C2425 0.961 . S
H2433 C2425 0.960 . S
H2434 C2426 0.930 . S
H2435 C2427 0.929 . S
H2436 C2444 0.929 . S
H2437 C2446 0.930 . S
H2438 C2448 0.930 . S
H2439 C2451 0.929 . S
H2440 C2454 0.930 . S
H2441 C2456 0.960 . S
H2442 C2456 0.960 . S
H2443 C2456 0.960 . S
C2444 H2436 0.929 . S
C2444 C2445 1.377 . S
C2444 C2446 1.384 . S
C2445 C2444 1.377 . S
C2445 C2451 1.390 . S
C2446 H2437 0.930 . S
C2446 C2444 1.384 . S
C2446 C2447 1.372 . S
C2447 C2446 1.372 . S
C2447 C2448 1.400 . S
C2447 C2452 1.490 . S
C2448 H2438 0.930 . S
C2448 C2447 1.400 . S
C2448 C2451 1.386 . S
H2449 C2465 0.930 . S
H2450 C2466 0.931 . S
C2451 H2439 0.929 . S
C2451 C2445 1.390 . S
C2451 C2448 1.386 . S
C2452 C2447 1.490 . S
C2452 C2454 1.395 . S
C2452 C2455 1.403 . S
H2453 C2459 0.930 . S
C2454 H2440 0.930 . S
C2454 C2452 1.395 . S
C2454 C2457 1.403 . S
C2455 C2452 1.403 . S
C2455 C2456 1.524 . S
C2455 C2459 1.400 . S
C2456 H2441 0.960 . S
C2456 H2442 0.960 . S
C2456 H2443 0.960 . S
C2456 C2455 1.524 . S
C2457 C2454 1.403 . S
C2457 C2458 1.392 . S
C2457 C2461 1.495 . S
C2458 C2457 1.392 . S
C2458 C2459 1.385 . S
C2458 C2460 1.478 . S
C2459 H2453 0.930 . S
C2459 C2455 1.400 . S
C2459 C2458 1.385 . S
C2460 C2458 1.478 . S
C2460 C2462 1.381 . S
C2460 C2466 1.383 . S
C2461 C2457 1.495 . S
C2461 H2467 0.959 . S
C2461 H2468 0.961 . S
C2461 H2469 0.960 . S
C2462 C2460 1.381 . S
C2462 C2463 1.394 . S
C2462 H2470 0.930 . S
C2463 C2462 1.394 . S
C2463 C2464 1.383 . S
C2463 H2471 0.929 . S
C2464 C2463 1.383 . S
C2464 C2465 1.377 . S
C2465 H2449 0.930 . S
C2465 C2464 1.377 . S
C2465 C2466 1.379 . S
C2466 H2450 0.931 . S
C2466 C2460 1.383 . S
C2466 C2465 1.379 . S
H2467 C2461 0.959 . S
H2468 C2461 0.961 . S
H2469 C2461 0.960 . S
H2470 C2462 0.930 . S
H2471 C2463 0.929 . S
H2472 C2480 0.929 . S
H2473 C2482 0.930 . S
H2474 C2484 0.930 . S
H2475 C2487 0.929 . S
H2476 C2490 0.930 . S
H2477 C2492 0.960 . S
H2478 C2492 0.960 . S
H2479 C2492 0.960 . S
C2480 H2472 0.929 . S
C2480 C2481 1.377 . S
C2480 C2482 1.384 . S
C2481 C2480 1.377 . S
C2481 C2487 1.390 . S
C2482 H2473 0.930 . S
C2482 C2480 1.384 . S
C2482 C2483 1.372 . S
C2483 C2482 1.372 . S
C2483 C2484 1.400 . S
C2483 C2488 1.490 . S
C2484 H2474 0.930 . S
C2484 C2483 1.400 . S
C2484 C2487 1.386 . S
H2485 C2501 0.930 . S
H2486 C2502 0.931 . S
C2487 H2475 0.929 . S
C2487 C2481 1.390 . S
C2487 C2484 1.386 . S
C2488 C2483 1.490 . S
C2488 C2490 1.395 . S
C2488 C2491 1.403 . S
H2489 C2495 0.930 . S
C2490 H2476 0.930 . S
C2490 C2488 1.395 . S
C2490 C2493 1.403 . S
C2491 C2488 1.403 . S
C2491 C2492 1.524 . S
C2491 C2495 1.400 . S
C2492 H2477 0.960 . S
C2492 H2478 0.960 . S
C2492 H2479 0.960 . S
C2492 C2491 1.524 . S
C2493 C2490 1.403 . S
C2493 C2494 1.392 . S
C2493 C2497 1.495 . S
C2494 C2493 1.392 . S
C2494 C2495 1.385 . S
C2494 C2496 1.478 . S
C2495 H2489 0.930 . S
C2495 C2491 1.400 . S
C2495 C2494 1.385 . S
C2496 C2494 1.478 . S
C2496 C2498 1.381 . S
C2496 C2502 1.383 . S
C2497 C2493 1.495 . S
C2497 H2503 0.959 . S
C2497 H2504 0.961 . S
C2497 H2505 0.960 . S
C2498 C2496 1.381 . S
C2498 C2499 1.394 . S
C2498 H2506 0.930 . S
C2499 C2498 1.394 . S
C2499 C2500 1.383 . S
C2499 H2507 0.929 . S
C2500 C2499 1.383 . S
C2500 C2501 1.377 . S
C2501 H2485 0.930 . S
C2501 C2500 1.377 . S
C2501 C2502 1.379 . S
C2502 H2486 0.931 . S
C2502 C2496 1.383 . S
C2502 C2501 1.379 . S
H2503 C2497 0.959 . S
H2504 C2497 0.961 . S
H2505 C2497 0.960 . S
H2506 C2498 0.930 . S
H2507 C2499 0.929 . S
H2508 C2516 0.929 . S
H2509 C2518 0.930 . S
H2510 C2520 0.930 . S
H2511 C2523 0.929 . S
H2512 C2526 0.930 . S
H2513 C2528 0.960 1_455 S
H2514 C2528 0.960 . S
H2515 C2528 0.960 . S
C2516 H2508 0.929 . S
C2516 C2517 1.377 . S
C2516 C2518 1.384 . S
C2517 C2516 1.377 . S
C2517 C2523 1.390 . S
C2518 H2509 0.930 . S
C2518 C2516 1.384 . S
C2518 C2519 1.372 . S
C2519 C2518 1.372 . S
C2519 C2520 1.400 . S
C2519 C2524 1.490 1_655 S
C2520 H2510 0.930 . S
C2520 C2519 1.400 . S
C2520 C2523 1.386 . S
H2521 C2537 0.930 . S
H2522 C2538 0.931 . S
C2523 H2511 0.929 . S
C2523 C2517 1.390 . S
C2523 C2520 1.386 . S
C2524 C2519 1.490 1_455 S
C2524 C2526 1.395 . S
C2524 C2527 1.403 . S
H2525 C2531 0.930 . S
C2526 H2512 0.930 . S
C2526 C2524 1.395 . S
C2526 C2529 1.403 . S
C2527 C2524 1.403 . S
C2527 C2528 1.524 1_455 S
C2527 C2531 1.400 . S
C2528 H2513 0.960 1_655 S
C2528 H2514 0.960 . S
C2528 H2515 0.960 . S
C2528 C2527 1.524 1_655 S
C2529 C2526 1.403 . S
C2529 C2530 1.392 . S
C2529 C2533 1.495 . S
C2530 C2529 1.392 . S
C2530 C2531 1.385 . S
C2530 C2532 1.478 . S
C2531 H2525 0.930 . S
C2531 C2527 1.400 . S
C2531 C2530 1.385 . S
C2532 C2530 1.478 . S
C2532 C2534 1.381 . S
C2532 C2538 1.383 . S
C2533 C2529 1.495 . S
C2533 H2539 0.959 . S
C2533 H2540 0.961 . S
C2533 H2541 0.960 . S
C2534 C2532 1.381 . S
C2534 C2535 1.394 . S
C2534 H2542 0.930 . S
C2535 C2534 1.394 . S
C2535 C2536 1.383 . S
C2535 H2543 0.929 . S
C2536 C2535 1.383 . S
C2536 C2537 1.377 . S
C2537 H2521 0.930 . S
C2537 C2536 1.377 . S
C2537 C2538 1.379 . S
C2538 H2522 0.931 . S
C2538 C2532 1.383 . S
C2538 C2537 1.379 . S
H2539 C2533 0.959 . S
H2540 C2533 0.961 . S
H2541 C2533 0.960 . S
H2542 C2534 0.930 . S
H2543 C2535 0.929 . S
H2544 C2552 0.929 . S
H2545 C2554 0.930 . S
H2546 C2556 0.930 . S
H2547 C2559 0.929 . S
H2548 C2562 0.930 . S
H2549 C2564 0.960 . S
H2550 C2564 0.960 . S
H2551 C2564 0.960 . S
C2552 H2544 0.929 . S
C2552 C2553 1.377 . S
C2552 C2554 1.384 . S
C2553 C2552 1.377 . S
C2553 C2559 1.390 . S
C2554 H2545 0.930 . S
C2554 C2552 1.384 . S
C2554 C2555 1.372 . S
C2555 C2554 1.372 . S
C2555 C2556 1.400 . S
C2555 C2560 1.490 . S
C2556 H2546 0.930 . S
C2556 C2555 1.400 . S
C2556 C2559 1.386 . S
H2557 C2573 0.930 . S
H2558 C2574 0.931 . S
C2559 H2547 0.929 . S
C2559 C2553 1.390 . S
C2559 C2556 1.386 . S
C2560 C2555 1.490 . S
C2560 C2562 1.395 . S
C2560 C2563 1.403 . S
H2561 C2567 0.930 . S
C2562 H2548 0.930 . S
C2562 C2560 1.395 . S
C2562 C2565 1.403 . S
C2563 C2560 1.403 . S
C2563 C2564 1.524 . S
C2563 C2567 1.400 . S
C2564 H2549 0.960 . S
C2564 H2550 0.960 . S
C2564 H2551 0.960 . S
C2564 C2563 1.524 . S
C2565 C2562 1.403 . S
C2565 C2566 1.392 . S
C2565 C2569 1.495 . S
C2566 C2565 1.392 . S
C2566 C2567 1.385 . S
C2566 C2568 1.478 . S
C2567 H2561 0.930 . S
C2567 C2563 1.400 . S
C2567 C2566 1.385 . S
C2568 C2566 1.478 . S
C2568 C2570 1.381 . S
C2568 C2574 1.383 . S
C2569 C2565 1.495 . S
C2569 H2575 0.959 . S
C2569 H2576 0.961 . S
C2569 H2577 0.960 . S
C2570 C2568 1.381 . S
C2570 C2571 1.394 . S
C2570 H2578 0.930 . S
C2571 C2570 1.394 . S
C2571 C2572 1.383 . S
C2571 H2579 0.929 . S
C2572 C2571 1.383 . S
C2572 C2573 1.377 . S
C2573 H2557 0.930 . S
C2573 C2572 1.377 . S
C2573 C2574 1.379 . S
C2574 H2558 0.931 . S
C2574 C2568 1.383 . S
C2574 C2573 1.379 . S
H2575 C2569 0.959 . S
H2576 C2569 0.961 . S
H2577 C2569 0.960 . S
H2578 C2570 0.930 . S
H2579 C2571 0.929 . S
H2580 C2588 0.929 . S
H2581 C2590 0.930 . S
H2582 C2592 0.930 . S
H2583 C2595 0.929 . S
H2584 C2598 0.930 . S
H2585 C2600 0.960 . S
H2586 C2600 0.960 . S
H2587 C2600 0.960 . S
C2588 H2580 0.929 . S
C2588 C2589 1.377 . S
C2588 C2590 1.384 . S
C2589 C2588 1.377 . S
C2589 C2595 1.390 . S
C2590 H2581 0.930 . S
C2590 C2588 1.384 . S
C2590 C2591 1.372 . S
C2591 C2590 1.372 . S
C2591 C2592 1.400 . S
C2591 C2596 1.490 . S
C2592 H2582 0.930 . S
C2592 C2591 1.400 . S
C2592 C2595 1.386 . S
H2593 C2609 0.930 . S
H2594 C2610 0.931 . S
C2595 H2583 0.929 . S
C2595 C2589 1.390 . S
C2595 C2592 1.386 . S
C2596 C2591 1.490 . S
C2596 C2598 1.395 . S
C2596 C2599 1.403 . S
H2597 C2603 0.901 1_655 S
C2598 H2584 0.930 . S
C2598 C2596 1.395 . S
C2598 C2601 1.403 . S
C2599 C2596 1.403 . S
C2599 C2600 1.524 . S
C2599 C2603 1.400 . S
C2600 H2585 0.960 . S
C2600 H2586 0.960 . S
C2600 H2587 0.960 . S
C2600 C2599 1.524 . S
C2601 C2598 1.403 . S
C2601 C2602 1.392 . S
C2601 C2605 1.495 . S
C2602 C2601 1.392 . S
C2602 C2603 1.385 . S
C2602 C2604 1.478 1_455 S
C2603 H2597 0.901 1_455 S
C2603 C2599 1.400 . S
C2603 C2602 1.385 . S
C2604 C2602 1.478 1_655 S
C2604 C2606 1.381 . S
C2604 C2610 1.383 . S
C2605 C2601 1.495 . S
C2605 H2611 0.959 . S
C2605 H2612 0.961 . S
C2605 H2613 0.960 . S
C2606 C2604 1.381 . S
C2606 C2607 1.394 . S
C2606 H2614 0.930 . S
C2607 C2606 1.394 . S
C2607 C2608 1.383 . S
C2607 H2615 0.929 . S
C2608 C2607 1.383 . S
C2608 C2609 1.377 . S
C2609 H2593 0.930 . S
C2609 C2608 1.377 . S
C2609 C2610 1.379 . S
C2610 H2594 0.931 . S
C2610 C2604 1.383 . S
C2610 C2609 1.379 . S
H2611 C2605 0.959 . S
H2612 C2605 0.961 . S
H2613 C2605 0.960 . S
H2614 C2606 0.930 . S
H2615 C2607 0.929 . S
H2616 C2624 0.929 . S
H2617 C2626 0.930 . S
H2618 C2628 0.930 . S
H2619 C2631 0.929 . S
H2620 C2634 0.930 . S
H2621 C2636 0.960 . S
H2622 C2636 0.960 . S
H2623 C2636 0.960 . S
C2624 H2616 0.929 . S
C2624 C2625 1.377 . S
C2624 C2626 1.384 . S
C2625 C2624 1.377 . S
C2625 C2631 1.390 . S
C2626 H2617 0.930 . S
C2626 C2624 1.384 . S
C2626 C2627 1.372 . S
C2627 C2626 1.372 . S
C2627 C2628 1.400 . S
C2627 C2632 1.490 . S
C2628 H2618 0.930 . S
C2628 C2627 1.400 . S
C2628 C2631 1.386 . S
H2629 C2645 0.930 . S
H2630 C2646 0.931 . S
C2631 H2619 0.929 . S
C2631 C2625 1.390 . S
C2631 C2628 1.386 . S
C2632 C2627 1.490 . S
C2632 C2634 1.395 . S
C2632 C2635 1.403 . S
H2633 C2639 0.930 . S
C2634 H2620 0.930 . S
C2634 C2632 1.395 . S
C2634 C2637 1.403 . S
C2635 C2632 1.403 . S
C2635 C2636 1.524 . S
C2635 C2639 1.400 . S
C2636 H2621 0.960 . S
C2636 H2622 0.960 . S
C2636 H2623 0.960 . S
C2636 C2635 1.524 . S
C2637 C2634 1.403 . S
C2637 C2638 1.392 . S
C2637 C2641 1.495 . S
C2638 C2637 1.392 . S
C2638 C2639 1.385 . S
C2638 C2640 1.478 . S
C2639 H2633 0.930 . S
C2639 C2635 1.400 . S
C2639 C2638 1.385 . S
C2640 C2638 1.478 . S
C2640 C2642 1.381 . S
C2640 C2646 1.383 . S
C2641 C2637 1.495 . S
C2641 H2647 0.959 . S
C2641 H2648 0.961 . S
C2641 H2649 0.960 . S
C2642 C2640 1.381 . S
C2642 C2643 1.394 . S
C2642 H2650 0.930 . S
C2643 C2642 1.394 . S
C2643 C2644 1.383 . S
C2643 H2651 0.929 . S
C2644 C2643 1.383 . S
C2644 C2645 1.377 . S
C2645 H2629 0.930 . S
C2645 C2644 1.377 . S
C2645 C2646 1.379 . S
C2646 H2630 0.931 . S
C2646 C2640 1.383 . S
C2646 C2645 1.379 . S
H2647 C2641 0.959 . S
H2648 C2641 0.961 . S
H2649 C2641 0.960 . S
H2650 C2642 0.930 . S
H2651 C2643 0.929 . S
H2652 C2660 0.929 . S
H2653 C2662 0.930 . S
H2654 C2664 0.930 . S
H2655 C2667 0.929 . S
H2656 C2670 0.930 . S
H2657 C2672 0.960 . S
H2658 C2672 0.960 . S
H2659 C2672 0.960 . S
C2660 H2652 0.929 . S
C2660 C2661 1.377 . S
C2660 C2662 1.384 . S
C2661 C2660 1.377 . S
C2661 C2667 1.390 . S
C2662 H2653 0.930 . S
C2662 C2660 1.384 . S
C2662 C2663 1.372 . S
C2663 C2662 1.372 . S
C2663 C2664 1.400 . S
C2663 C2668 1.490 . S
C2664 H2654 0.930 . S
C2664 C2663 1.400 . S
C2664 C2667 1.386 . S
H2665 C2681 0.930 . S
H2666 C2682 0.931 . S
C2667 H2655 0.929 . S
C2667 C2661 1.390 . S
C2667 C2664 1.386 . S
C2668 C2663 1.490 . S
C2668 C2670 1.395 . S
C2668 C2671 1.403 . S
H2669 C2675 0.930 . S
C2670 H2656 0.930 . S
C2670 C2668 1.395 . S
C2670 C2673 1.403 . S
C2671 C2668 1.403 . S
C2671 C2672 1.524 . S
C2671 C2675 1.400 . S
C2672 H2657 0.960 . S
C2672 H2658 0.960 . S
C2672 H2659 0.960 . S
C2672 C2671 1.524 . S
C2673 C2670 1.403 . S
C2673 C2674 1.392 . S
C2673 C2677 1.495 . S
C2674 C2673 1.392 . S
C2674 C2675 1.385 . S
C2674 C2676 1.478 . S
C2675 H2669 0.930 . S
C2675 C2671 1.400 . S
C2675 C2674 1.385 . S
C2676 C2674 1.478 . S
C2676 C2678 1.381 . S
C2676 C2682 1.383 . S
C2677 C2673 1.495 . S
C2677 H2683 0.959 . S
C2677 H2684 0.961 . S
C2677 H2685 0.960 . S
C2678 C2676 1.381 . S
C2678 C2679 1.394 . S
C2678 H2686 0.930 . S
C2679 C2678 1.394 . S
C2679 C2680 1.383 . S
C2679 H2687 0.929 . S
C2680 C2679 1.383 . S
C2680 C2681 1.377 . S
C2681 H2665 0.930 . S
C2681 C2680 1.377 . S
C2681 C2682 1.379 . S
C2682 H2666 0.931 . S
C2682 C2676 1.383 . S
C2682 C2681 1.379 . S
H2683 C2677 0.959 . S
H2684 C2677 0.961 . S
H2685 C2677 0.960 . S
H2686 C2678 0.930 . S
H2687 C2679 0.929 . S
H2688 C2696 0.929 . S
H2689 C2698 0.930 . S
H2690 C2700 0.930 . S
H2691 C2703 0.929 . S
H2692 C2706 0.930 . S
H2693 C2708 0.960 . S
H2694 C2708 0.960 . S
H2695 C2708 0.960 . S
C2696 H2688 0.929 . S
C2696 C2697 1.377 . S
C2696 C2698 1.384 . S
C2697 C2696 1.377 . S
C2697 C2703 1.390 . S
C2698 H2689 0.930 . S
C2698 C2696 1.384 . S
C2698 C2699 1.372 . S
C2699 C2698 1.372 . S
C2699 C2700 1.400 . S
C2699 C2704 1.490 . S
C2700 H2690 0.930 . S
C2700 C2699 1.400 . S
C2700 C2703 1.386 . S
H2701 C2717 0.930 . S
H2702 C2718 0.931 . S
C2703 H2691 0.929 . S
C2703 C2697 1.390 . S
C2703 C2700 1.386 . S
C2704 C2699 1.490 . S
C2704 C2706 1.395 . S
C2704 C2707 1.403 . S
H2705 C2711 0.930 . S
C2706 H2692 0.930 . S
C2706 C2704 1.395 . S
C2706 C2709 1.403 . S
C2707 C2704 1.403 . S
C2707 C2708 1.524 . S
C2707 C2711 1.400 . S
C2708 H2693 0.960 . S
C2708 H2694 0.960 . S
C2708 H2695 0.960 . S
C2708 C2707 1.524 . S
C2709 C2706 1.403 . S
C2709 C2710 1.392 . S
C2709 C2713 1.495 . S
C2710 C2709 1.392 . S
C2710 C2711 1.385 . S
C2710 C2712 1.478 . S
C2711 H2705 0.930 . S
C2711 C2707 1.400 . S
C2711 C2710 1.385 . S
C2712 C2710 1.478 . S
C2712 C2714 1.381 . S
C2712 C2718 1.383 . S
C2713 C2709 1.495 . S
C2713 H2719 0.959 . S
C2713 H2720 0.961 . S
C2713 H2721 0.960 . S
C2714 C2712 1.381 . S
C2714 C2715 1.394 . S
C2714 H2722 0.930 . S
C2715 C2714 1.394 . S
C2715 C2716 1.383 . S
C2715 H2723 0.929 . S
C2716 C2715 1.383 . S
C2716 C2717 1.377 . S
C2717 H2701 0.930 . S
C2717 C2716 1.377 . S
C2717 C2718 1.379 . S
C2718 H2702 0.931 . S
C2718 C2712 1.383 . S
C2718 C2717 1.379 . S
H2719 C2713 0.959 . S
H2720 C2713 0.961 . S
H2721 C2713 0.960 . S
H2722 C2714 0.930 . S
H2723 C2715 0.929 . S
H2724 C2732 0.929 . S
H2725 C2734 0.930 . S
H2726 C2736 0.930 . S
H2727 C2739 0.929 . S
H2728 C2742 0.930 . S
H2729 C2744 0.960 . S
H2730 C2744 0.960 . S
H2731 C2744 0.960 . S
C2732 H2724 0.929 . S
C2732 C2733 1.377 . S
C2732 C2734 1.384 . S
C2733 C2732 1.377 . S
C2733 C2739 1.390 . S
C2734 H2725 0.930 . S
C2734 C2732 1.384 . S
C2734 C2735 1.372 . S
C2735 C2734 1.372 . S
C2735 C2736 1.400 . S
C2735 C2740 1.490 . S
C2736 H2726 0.930 . S
C2736 C2735 1.400 . S
C2736 C2739 1.386 . S
H2737 C2753 0.930 . S
H2738 C2754 0.931 . S
C2739 H2727 0.929 . S
C2739 C2733 1.390 . S
C2739 C2736 1.386 . S
C2740 C2735 1.490 . S
C2740 C2742 1.395 . S
C2740 C2743 1.403 . S
H2741 C2747 0.930 . S
C2742 H2728 0.930 . S
C2742 C2740 1.395 . S
C2742 C2745 1.403 . S
C2743 C2740 1.403 . S
C2743 C2744 1.524 . S
C2743 C2747 1.400 . S
C2744 H2729 0.960 . S
C2744 H2730 0.960 . S
C2744 H2731 0.960 . S
C2744 C2743 1.524 . S
C2745 C2742 1.403 . S
C2745 C2746 1.390 1_554 S
C2745 C2749 1.495 1_554 S
C2746 C2745 1.390 1_556 S
C2746 C2747 1.382 1_556 S
C2746 C2748 1.482 . S
C2747 H2741 0.930 . S
C2747 C2743 1.400 . S
C2747 C2746 1.382 1_554 S
C2748 C2746 1.482 . S
C2748 C2750 1.381 . S
C2748 C2754 1.383 . S
C2749 C2745 1.495 1_556 S
C2749 H2755 0.959 1_556 S
C2749 H2756 0.961 . S
C2749 H2757 0.960 . S
C2750 C2748 1.381 . S
C2750 C2751 1.394 . S
C2750 H2758 0.930 . S
C2751 C2750 1.394 . S
C2751 C2752 1.383 . S
C2751 H2759 0.929 . S
C2752 C2751 1.383 . S
C2752 C2753 1.377 . S
C2753 H2737 0.930 . S
C2753 C2752 1.377 . S
C2753 C2754 1.379 . S
C2754 H2738 0.931 . S
C2754 C2748 1.383 . S
C2754 C2753 1.379 . S
H2755 C2749 0.959 1_554 S
H2756 C2749 0.961 . S
H2757 C2749 0.960 . S
H2758 C2750 0.930 . S
H2759 C2751 0.929 . S
H2760 C2768 0.929 . S
H2761 C2770 0.930 . S
H2762 C2772 0.930 . S
H2763 C2775 0.929 . S
H2764 C2778 0.930 . S
H2765 C2780 0.960 . S
H2766 C2780 0.960 . S
H2767 C2780 0.960 . S
C2768 H2760 0.929 . S
C2768 C2769 1.377 . S
C2768 C2770 1.384 . S
C2769 C2768 1.377 . S
C2769 C2775 1.390 . S
C2770 H2761 0.930 . S
C2770 C2768 1.384 . S
C2770 C2771 1.372 . S
C2771 C2770 1.372 . S
C2771 C2772 1.400 . S
C2771 C2776 1.490 . S
C2772 H2762 0.930 . S
C2772 C2771 1.400 . S
C2772 C2775 1.386 . S
H2773 C2789 0.930 . S
H2774 C2790 0.931 . S
C2775 H2763 0.929 . S
C2775 C2769 1.390 . S
C2775 C2772 1.386 . S
C2776 C2771 1.490 . S
C2776 C2778 1.395 . S
C2776 C2779 1.403 . S
H2777 C2783 0.930 . S
C2778 H2764 0.930 . S
C2778 C2776 1.395 . S
C2778 C2781 1.403 . S
C2779 C2776 1.403 . S
C2779 C2780 1.524 . S
C2779 C2783 1.400 . S
C2780 H2765 0.960 . S
C2780 H2766 0.960 . S
C2780 H2767 0.960 . S
C2780 C2779 1.524 . S
C2781 C2778 1.403 . S
C2781 C2782 1.392 . S
C2781 C2785 1.495 . S
C2782 C2781 1.392 . S
C2782 C2783 1.385 . S
C2782 C2784 1.478 . S
C2783 H2777 0.930 . S
C2783 C2779 1.400 . S
C2783 C2782 1.385 . S
C2784 C2782 1.478 . S
C2784 C2786 1.381 . S
C2784 C2790 1.383 . S
C2785 C2781 1.495 . S
C2785 H2791 0.959 . S
C2785 H2792 0.961 . S
C2785 H2793 0.960 . S
C2786 C2784 1.381 . S
C2786 C2787 1.394 . S
C2786 H2794 0.930 . S
C2787 C2786 1.394 . S
C2787 C2788 1.383 . S
C2787 H2795 0.929 . S
C2788 C2787 1.383 . S
C2788 C2789 1.377 . S
C2789 H2773 0.930 . S
C2789 C2788 1.377 . S
C2789 C2790 1.379 . S
C2790 H2774 0.931 . S
C2790 C2784 1.383 . S
C2790 C2789 1.379 . S
H2791 C2785 0.959 . S
H2792 C2785 0.961 . S
H2793 C2785 0.960 . S
H2794 C2786 0.930 . S
H2795 C2787 0.929 . S
H2796 C2804 0.929 . S
H2797 C2806 0.930 . S
H2798 C2808 0.930 . S
H2799 C2811 0.929 . S
H2800 C2814 0.930 . S
H2801 C2816 0.960 . S
H2802 C2816 0.960 . S
H2803 C2816 0.960 . S
C2804 H2796 0.929 . S
C2804 C2805 1.377 . S
C2804 C2806 1.384 . S
C2805 C2804 1.377 . S
C2805 C2811 1.390 . S
C2806 H2797 0.930 . S
C2806 C2804 1.384 . S
C2806 C2807 1.372 . S
C2807 C2806 1.372 . S
C2807 C2808 1.400 . S
C2807 C2812 1.490 . S
C2808 H2798 0.930 . S
C2808 C2807 1.400 . S
C2808 C2811 1.386 . S
H2809 C2825 0.930 . S
H2810 C2826 0.931 . S
C2811 H2799 0.929 . S
C2811 C2805 1.390 . S
C2811 C2808 1.386 . S
C2812 C2807 1.490 . S
C2812 C2814 1.395 . S
C2812 C2815 1.403 . S
H2813 C2819 0.930 . S
C2814 H2800 0.930 . S
C2814 C2812 1.395 . S
C2814 C2817 1.403 . S
C2815 C2812 1.403 . S
C2815 C2816 1.524 . S
C2815 C2819 1.400 . S
C2816 H2801 0.960 . S
C2816 H2802 0.960 . S
C2816 H2803 0.960 . S
C2816 C2815 1.524 . S
C2817 C2814 1.403 . S
C2817 C2818 1.392 . S
C2817 C2821 1.495 . S
C2818 C2817 1.392 . S
C2818 C2819 1.385 . S
C2818 C2820 1.478 . S
C2819 H2813 0.930 . S
C2819 C2815 1.400 . S
C2819 C2818 1.385 . S
C2820 C2818 1.478 . S
C2820 C2822 1.381 . S
C2820 C2826 1.383 . S
C2821 C2817 1.495 . S
C2821 H2827 0.959 . S
C2821 H2828 0.961 . S
C2821 H2829 0.960 . S
C2822 C2820 1.381 . S
C2822 C2823 1.394 . S
C2822 H2830 0.930 . S
C2823 C2822 1.394 . S
C2823 C2824 1.383 . S
C2823 H2831 0.929 . S
C2824 C2823 1.383 . S
C2824 C2825 1.377 . S
C2825 H2809 0.930 . S
C2825 C2824 1.377 . S
C2825 C2826 1.379 . S
C2826 H2810 0.931 . S
C2826 C2820 1.383 . S
C2826 C2825 1.379 . S
H2827 C2821 0.959 . S
H2828 C2821 0.961 . S
H2829 C2821 0.960 . S
H2830 C2822 0.930 . S
H2831 C2823 0.929 . S
H2832 C2840 0.929 . S
H2833 C2842 0.930 . S
H2834 C2844 0.930 . S
H2835 C2847 0.929 . S
H2836 C2850 0.930 . S
H2837 C2852 0.960 . S
H2838 C2852 0.960 . S
H2839 C2852 0.960 . S
C2840 H2832 0.929 . S
C2840 C2841 1.377 . S
C2840 C2842 1.384 . S
C2841 C2840 1.377 . S
C2841 C2847 1.390 . S
C2842 H2833 0.930 . S
C2842 C2840 1.384 . S
C2842 C2843 1.372 . S
C2843 C2842 1.372 . S
C2843 C2844 1.400 . S
C2843 C2848 1.490 . S
C2844 H2834 0.930 . S
C2844 C2843 1.400 . S
C2844 C2847 1.386 . S
H2845 C2861 0.930 . S
H2846 C2862 0.931 . S
C2847 H2835 0.929 . S
C2847 C2841 1.390 . S
C2847 C2844 1.386 . S
C2848 C2843 1.490 . S
C2848 C2850 1.395 . S
C2848 C2851 1.403 . S
H2849 C2855 0.930 . S
C2850 H2836 0.930 . S
C2850 C2848 1.395 . S
C2850 C2853 1.403 . S
C2851 C2848 1.403 . S
C2851 C2852 1.524 . S
C2851 C2855 1.400 . S
C2852 H2837 0.960 . S
C2852 H2838 0.960 . S
C2852 H2839 0.960 . S
C2852 C2851 1.524 . S
C2853 C2850 1.403 . S
C2853 C2854 1.392 . S
C2853 C2857 1.495 . S
C2854 C2853 1.392 . S
C2854 C2855 1.385 . S
C2854 C2856 1.478 . S
C2855 H2849 0.930 . S
C2855 C2851 1.400 . S
C2855 C2854 1.385 . S
C2856 C2854 1.478 . S
C2856 C2858 1.381 . S
C2856 C2862 1.383 . S
C2857 C2853 1.495 . S
C2857 H2863 0.959 . S
C2857 H2864 0.961 . S
C2857 H2865 0.960 . S
C2858 C2856 1.381 . S
C2858 C2859 1.394 . S
C2858 H2866 0.930 . S
C2859 C2858 1.394 . S
C2859 C2860 1.383 . S
C2859 H2867 0.929 . S
C2860 C2859 1.383 . S
C2860 C2861 1.377 . S
C2861 H2845 0.930 . S
C2861 C2860 1.377 . S
C2861 C2862 1.379 . S
C2862 H2846 0.931 . S
C2862 C2856 1.383 . S
C2862 C2861 1.379 . S
H2863 C2857 0.959 . S
H2864 C2857 0.961 . S
H2865 C2857 0.960 . S
H2866 C2858 0.930 . S
H2867 C2859 0.929 . S
H2868 C2876 0.929 . S
H2869 C2878 0.930 . S
H2870 C2880 0.930 . S
H2871 C2883 0.929 . S
H2872 C2886 0.930 . S
H2873 C2888 0.960 . S
H2874 C2888 0.960 . S
H2875 C2888 0.960 . S
C2876 H2868 0.929 . S
C2876 C2877 1.377 . S
C2876 C2878 1.384 . S
C2877 C2876 1.377 . S
C2877 C2883 1.390 . S
C2878 H2869 0.930 . S
C2878 C2876 1.384 . S
C2878 C2879 1.372 . S
C2879 C2878 1.372 . S
C2879 C2880 1.400 . S
C2879 C2884 1.490 . S
C2880 H2870 0.930 . S
C2880 C2879 1.400 . S
C2880 C2883 1.386 . S
H2881 C2897 0.930 . S
H2882 C2898 0.931 . S
C2883 H2871 0.929 . S
C2883 C2877 1.390 . S
C2883 C2880 1.386 . S
C2884 C2879 1.490 . S
C2884 C2886 1.395 . S
C2884 C2887 1.403 . S
H2885 C2891 0.930 . S
C2886 H2872 0.930 . S
C2886 C2884 1.395 . S
C2886 C2889 1.403 . S
C2887 C2884 1.403 . S
C2887 C2888 1.524 . S
C2887 C2891 1.400 . S
C2888 H2873 0.960 . S
C2888 H2874 0.960 . S
C2888 H2875 0.960 . S
C2888 C2887 1.524 . S
C2889 C2886 1.403 . S
C2889 C2890 1.392 1_556 S
C2889 C2893 1.495 1_556 S
C2890 C2889 1.392 1_554 S
C2890 C2891 1.385 1_554 S
C2890 C2892 1.478 . S
C2891 H2885 0.930 . S
C2891 C2887 1.400 . S
C2891 C2890 1.385 1_556 S
C2892 C2890 1.478 . S
C2892 C2894 1.381 . S
C2892 C2898 1.383 . S
C2893 C2889 1.495 1_554 S
C2893 H2899 0.959 1_554 S
C2893 H2900 0.961 . S
C2893 H2901 0.960 . S
C2894 C2892 1.381 . S
C2894 C2895 1.394 . S
C2894 H2902 0.930 . S
C2895 C2894 1.394 . S
C2895 C2896 1.383 . S
C2895 H2903 0.929 . S
C2896 C2895 1.383 . S
C2896 C2897 1.377 . S
C2897 H2881 0.930 . S
C2897 C2896 1.377 . S
C2897 C2898 1.379 . S
C2898 H2882 0.931 . S
C2898 C2892 1.383 . S
C2898 C2897 1.379 . S
H2899 C2893 0.959 1_556 S
H2900 C2893 0.961 . S
H2901 C2893 0.960 . S
H2902 C2894 0.930 . S
H2903 C2895 0.929 . S
H2904 C2912 0.929 . S
H2905 C2914 0.930 . S
H2906 C2916 0.930 . S
H2907 C2919 0.929 . S
H2908 C2922 0.930 . S
H2909 C2924 0.960 . S
H2910 C2924 0.960 . S
H2911 C2924 0.960 . S
C2912 H2904 0.929 . S
C2912 C2913 1.377 . S
C2912 C2914 1.384 . S
C2913 C2912 1.377 . S
C2913 C2919 1.390 . S
C2914 H2905 0.930 . S
C2914 C2912 1.384 . S
C2914 C2915 1.372 . S
C2915 C2914 1.372 . S
C2915 C2916 1.400 . S
C2915 C2920 1.490 . S
C2916 H2906 0.930 . S
C2916 C2915 1.400 . S
C2916 C2919 1.386 . S
H2917 C2933 0.930 . S
H2918 C2934 0.931 . S
C2919 H2907 0.929 . S
C2919 C2913 1.390 . S
C2919 C2916 1.386 . S
C2920 C2915 1.490 . S
C2920 C2922 1.395 . S
C2920 C2923 1.403 . S
H2921 C2927 0.930 . S
C2922 H2908 0.930 . S
C2922 C2920 1.395 . S
C2922 C2925 1.403 . S
C2923 C2920 1.403 . S
C2923 C2924 1.524 . S
C2923 C2927 1.400 . S
C2924 H2909 0.960 . S
C2924 H2910 0.960 . S
C2924 H2911 0.960 . S
C2924 C2923 1.524 . S
C2925 C2922 1.403 . S
C2925 C2926 1.392 . S
C2925 C2929 1.495 . S
C2926 C2925 1.392 . S
C2926 C2927 1.385 . S
C2926 C2928 1.478 . S
C2927 H2921 0.930 . S
C2927 C2923 1.400 . S
C2927 C2926 1.385 . S
C2928 C2926 1.478 . S
C2928 C2930 1.381 . S
C2928 C2934 1.383 . S
C2929 C2925 1.495 . S
C2929 H2935 0.959 . S
C2929 H2936 0.961 . S
C2929 H2937 0.960 . S
C2930 C2928 1.381 . S
C2930 C2931 1.394 . S
C2930 H2938 0.930 . S
C2931 C2930 1.394 . S
C2931 C2932 1.383 . S
C2931 H2939 0.929 . S
C2932 C2931 1.383 . S
C2932 C2933 1.377 . S
C2933 H2917 0.930 . S
C2933 C2932 1.377 . S
C2933 C2934 1.379 . S
C2934 H2918 0.931 . S
C2934 C2928 1.383 . S
C2934 C2933 1.379 . S
H2935 C2929 0.959 . S
H2936 C2929 0.961 . S
H2937 C2929 0.960 . S
H2938 C2930 0.930 . S
H2939 C2931 0.929 . S
H2940 C2948 0.929 . S
H2941 C2950 0.930 . S
H2942 C2952 0.930 . S
H2943 C2955 0.929 . S
H2944 C2958 0.930 . S
H2945 C2960 0.960 . S
H2946 C2960 0.960 . S
H2947 C2960 0.960 . S
C2948 H2940 0.929 . S
C2948 C2949 1.377 . S
C2948 C2950 1.384 . S
C2949 C2948 1.377 . S
C2949 C2955 1.390 . S
C2950 H2941 0.930 . S
C2950 C2948 1.384 . S
C2950 C2951 1.372 . S
C2951 C2950 1.372 . S
C2951 C2952 1.400 . S
C2951 C2956 1.490 . S
C2952 H2942 0.930 . S
C2952 C2951 1.400 . S
C2952 C2955 1.386 . S
H2953 C2969 0.930 . S
H2954 C2970 0.931 . S
C2955 H2943 0.929 . S
C2955 C2949 1.390 . S
C2955 C2952 1.386 . S
C2956 C2951 1.490 . S
C2956 C2958 1.395 . S
C2956 C2959 1.403 . S
H2957 C2963 0.930 . S
C2958 H2944 0.930 . S
C2958 C2956 1.395 . S
C2958 C2961 1.403 . S
C2959 C2956 1.403 . S
C2959 C2960 1.524 . S
C2959 C2963 1.400 . S
C2960 H2945 0.960 . S
C2960 H2946 0.960 . S
C2960 H2947 0.960 . S
C2960 C2959 1.524 . S
C2961 C2958 1.403 . S
C2961 C2962 1.392 . S
C2961 C2965 1.495 . S
C2962 C2961 1.392 . S
C2962 C2963 1.385 . S
C2962 C2964 1.478 . S
C2963 H2957 0.930 . S
C2963 C2959 1.400 . S
C2963 C2962 1.385 . S
C2964 C2962 1.478 . S
C2964 C2966 1.381 . S
C2964 C2970 1.383 . S
C2965 C2961 1.495 . S
C2965 H2971 0.959 . S
C2965 H2972 0.961 . S
C2965 H2973 0.960 . S
C2966 C2964 1.381 . S
C2966 C2967 1.394 . S
C2966 H2974 0.930 . S
C2967 C2966 1.394 . S
C2967 C2968 1.383 . S
C2967 H2975 0.929 . S
C2968 C2967 1.383 . S
C2968 C2969 1.377 . S
C2969 H2953 0.930 . S
C2969 C2968 1.377 . S
C2969 C2970 1.379 . S
C2970 H2954 0.931 . S
C2970 C2964 1.383 . S
C2970 C2969 1.379 . S
H2971 C2965 0.959 . S
H2972 C2965 0.961 . S
H2973 C2965 0.960 . S
H2974 C2966 0.930 . S
H2975 C2967 0.929 . S
H2976 C2984 0.929 . S
H2977 C2986 0.930 . S
H2978 C2988 0.930 . S
H2979 C2991 0.929 . S
H2980 C2994 0.930 . S
H2981 C2996 0.960 . S
H2982 C2996 0.960 . S
H2983 C2996 0.960 . S
C2984 H2976 0.929 . S
C2984 C2985 1.377 . S
C2984 C2986 1.384 . S
C2985 C2984 1.377 . S
C2985 C2991 1.390 . S
C2986 H2977 0.930 . S
C2986 C2984 1.384 . S
C2986 C2987 1.372 . S
C2987 C2986 1.372 . S
C2987 C2988 1.400 . S
C2987 C2992 1.490 . S
C2988 H2978 0.930 . S
C2988 C2987 1.400 . S
C2988 C2991 1.386 . S
H2989 C3005 0.930 . S
H2990 C3006 0.931 . S
C2991 H2979 0.929 . S
C2991 C2985 1.390 . S
C2991 C2988 1.386 . S
C2992 C2987 1.490 . S
C2992 C2994 1.395 . S
C2992 C2995 1.403 . S
H2993 C2999 0.930 . S
C2994 H2980 0.930 . S
C2994 C2992 1.395 . S
C2994 C2997 1.403 . S
C2995 C2992 1.403 . S
C2995 C2996 1.524 . S
C2995 C2999 1.400 . S
C2996 H2981 0.960 . S
C2996 H2982 0.960 . S
C2996 H2983 0.960 . S
C2996 C2995 1.524 . S
C2997 C2994 1.403 . S
C2997 C2998 1.392 . S
C2997 C3001 1.495 . S
C2998 C2997 1.392 . S
C2998 C2999 1.385 . S
C2998 C3000 1.478 . S
C2999 H2993 0.930 . S
C2999 C2995 1.400 . S
C2999 C2998 1.385 . S
C3000 C2998 1.478 . S
C3000 C3002 1.381 . S
C3000 C3006 1.383 . S
C3001 C2997 1.495 . S
C3001 H3007 0.959 . S
C3001 H3008 0.961 . S
C3001 H3009 0.960 . S
C3002 C3000 1.381 . S
C3002 C3003 1.394 . S
C3002 H3010 0.930 . S
C3003 C3002 1.394 . S
C3003 C3004 1.383 . S
C3003 H3011 0.929 . S
C3004 C3003 1.383 . S
C3004 C3005 1.377 . S
C3005 H2989 0.930 . S
C3005 C3004 1.377 . S
C3005 C3006 1.379 . S
C3006 H2990 0.931 . S
C3006 C3000 1.383 . S
C3006 C3005 1.379 . S
H3007 C3001 0.959 . S
H3008 C3001 0.961 . S
H3009 C3001 0.960 . S
H3010 C3002 0.930 . S
H3011 C3003 0.929 . S
H3012 C3020 0.929 . S
H3013 C3022 0.930 . S
H3014 C3024 0.930 . S
H3015 C3027 0.929 . S
H3016 C3030 0.930 . S
H3017 C3032 0.960 . S
H3018 C3032 0.960 . S
H3019 C3032 0.960 . S
C3020 H3012 0.929 . S
C3020 C3021 1.377 . S
C3020 C3022 1.384 . S
C3021 C3020 1.377 . S
C3021 C3027 1.390 . S
C3022 H3013 0.930 . S
C3022 C3020 1.384 . S
C3022 C3023 1.372 . S
C3023 C3022 1.372 . S
C3023 C3024 1.400 . S
C3023 C3028 1.490 . S
C3024 H3014 0.930 . S
C3024 C3023 1.400 . S
C3024 C3027 1.386 . S
H3025 C3041 0.930 . S
H3026 C3042 0.931 . S
C3027 H3015 0.929 . S
C3027 C3021 1.390 . S
C3027 C3024 1.386 . S
C3028 C3023 1.490 . S
C3028 C3030 1.395 . S
C3028 C3031 1.403 . S
H3029 C3035 0.930 . S
C3030 H3016 0.930 . S
C3030 C3028 1.395 . S
C3030 C3033 1.403 . S
C3031 C3028 1.403 . S
C3031 C3032 1.524 . S
C3031 C3035 1.400 . S
C3032 H3017 0.960 . S
C3032 H3018 0.960 . S
C3032 H3019 0.960 . S
C3032 C3031 1.524 . S
C3033 C3030 1.403 . S
C3033 C3034 1.392 . S
C3033 C3037 1.495 . S
C3034 C3033 1.392 . S
C3034 C3035 1.385 . S
C3034 C3036 1.478 . S
C3035 H3029 0.930 . S
C3035 C3031 1.400 . S
C3035 C3034 1.385 . S
C3036 C3034 1.478 . S
C3036 C3038 1.381 . S
C3036 C3042 1.383 . S
C3037 C3033 1.495 . S
C3037 H3043 0.959 . S
C3037 H3044 0.961 . S
C3037 H3045 0.960 . S
C3038 C3036 1.381 . S
C3038 C3039 1.394 . S
C3038 H3046 0.930 . S
C3039 C3038 1.394 . S
C3039 C3040 1.383 . S
C3039 H3047 0.929 . S
C3040 C3039 1.383 . S
C3040 C3041 1.377 . S
C3041 H3025 0.930 . S
C3041 C3040 1.377 . S
C3041 C3042 1.379 . S
C3042 H3026 0.931 . S
C3042 C3036 1.383 . S
C3042 C3041 1.379 . S
H3043 C3037 0.959 . S
H3044 C3037 0.961 . S
H3045 C3037 0.960 . S
H3046 C3038 0.930 . S
H3047 C3039 0.929 . S
H3048 C3056 0.929 . S
H3049 C3058 0.930 . S
H3050 C3060 0.930 . S
H3051 C3063 0.929 . S
H3052 C3066 0.930 . S
H3053 C3068 0.960 . S
H3054 C3068 0.960 . S
H3055 C3068 0.960 . S
C3056 H3048 0.929 . S
C3056 C3057 1.377 . S
C3056 C3058 1.384 . S
C3057 C3056 1.377 . S
C3057 C3063 1.390 . S
C3058 H3049 0.930 . S
C3058 C3056 1.384 . S
C3058 C3059 1.372 . S
C3059 C3058 1.372 . S
C3059 C3060 1.400 . S
C3059 C3064 1.490 . S
C3060 H3050 0.930 . S
C3060 C3059 1.400 . S
C3060 C3063 1.386 . S
H3061 C3077 0.930 . S
H3062 C3078 0.931 . S
C3063 H3051 0.929 . S
C3063 C3057 1.390 . S
C3063 C3060 1.386 . S
C3064 C3059 1.490 . S
C3064 C3066 1.395 . S
C3064 C3067 1.403 . S
H3065 C3071 0.930 . S
C3066 H3052 0.930 . S
C3066 C3064 1.395 . S
C3066 C3069 1.403 . S
C3067 C3064 1.403 . S
C3067 C3068 1.524 . S
C3067 C3071 1.400 . S
C3068 H3053 0.960 . S
C3068 H3054 0.960 . S
C3068 H3055 0.960 . S
C3068 C3067 1.524 . S
C3069 C3066 1.403 . S
C3069 C3070 1.400 . S
C3069 C3073 1.495 1_545 S
C3070 C3069 1.400 . S
C3070 C3071 1.399 . S
C3070 C3072 1.456 1_545 S
C3071 H3065 0.930 . S
C3071 C3067 1.400 . S
C3071 C3070 1.399 . S
C3072 C3070 1.456 1_565 S
C3072 C3074 1.381 . S
C3072 C3078 1.383 . S
C3073 C3069 1.495 1_565 S
C3073 H3079 0.959 1_565 S
C3073 H3080 0.961 . S
C3073 H3081 0.960 . S
C3074 C3072 1.381 . S
C3074 C3075 1.394 . S
C3074 H3082 0.930 . S
C3075 C3074 1.394 . S
C3075 C3076 1.383 . S
C3075 H3083 0.929 . S
C3076 C3075 1.383 . S
C3076 C3077 1.377 . S
C3077 H3061 0.930 . S
C3077 C3076 1.377 . S
C3077 C3078 1.379 . S
C3078 H3062 0.931 . S
C3078 C3072 1.383 . S
C3078 C3077 1.379 . S
H3079 C3073 0.959 1_545 S
H3080 C3073 0.961 . S
H3081 C3073 0.960 . S
H3082 C3074 0.930 . S
H3083 C3075 0.929 . S
H3084 C3092 0.929 . S
H3085 C3094 0.930 . S
H3086 C3096 0.930 . S
H3087 C3099 0.929 . S
H3088 C3102 0.930 . S
H3089 C3104 0.960 . S
H3090 C3104 0.960 . S
H3091 C3104 0.960 . S
C3092 H3084 0.929 . S
C3092 C3093 1.377 . S
C3092 C3094 1.384 . S
C3093 C3092 1.377 . S
C3093 C3099 1.390 . S
C3094 H3085 0.930 . S
C3094 C3092 1.384 . S
C3094 C3095 1.372 . S
C3095 C3094 1.372 . S
C3095 C3096 1.400 . S
C3095 C3100 1.490 . S
C3096 H3086 0.930 . S
C3096 C3095 1.400 . S
C3096 C3099 1.386 . S
H3097 C3113 0.930 . S
H3098 C3114 0.931 . S
C3099 H3087 0.929 . S
C3099 C3093 1.390 . S
C3099 C3096 1.386 . S
C3100 C3095 1.490 . S
C3100 C3102 1.395 . S
C3100 C3103 1.403 . S
H3101 C3107 0.930 . S
C3102 H3088 0.930 . S
C3102 C3100 1.395 . S
C3102 C3105 1.403 . S
C3103 C3100 1.403 . S
C3103 C3104 1.524 . S
C3103 C3107 1.400 . S
C3104 H3089 0.960 . S
C3104 H3090 0.960 . S
C3104 H3091 0.960 . S
C3104 C3103 1.524 . S
C3105 C3102 1.403 . S
C3105 C3106 1.392 . S
C3105 C3109 1.495 . S
C3106 C3105 1.392 . S
C3106 C3107 1.385 . S
C3106 C3108 1.478 . S
C3107 H3101 0.930 . S
C3107 C3103 1.400 . S
C3107 C3106 1.385 . S
C3108 C3106 1.478 . S
C3108 C3110 1.381 . S
C3108 C3114 1.383 . S
C3109 C3105 1.495 . S
C3109 H3115 0.959 . S
C3109 H3116 0.961 . S
C3109 H3117 0.960 . S
C3110 C3108 1.381 . S
C3110 C3111 1.394 . S
C3110 H3118 0.930 . S
C3111 C3110 1.394 . S
C3111 C3112 1.383 . S
C3111 H3119 0.929 . S
C3112 C3111 1.383 . S
C3112 C3113 1.377 . S
C3113 H3097 0.930 . S
C3113 C3112 1.377 . S
C3113 C3114 1.379 . S
C3114 H3098 0.931 . S
C3114 C3108 1.383 . S
C3114 C3113 1.379 . S
H3115 C3109 0.959 . S
H3116 C3109 0.961 . S
H3117 C3109 0.960 . S
H3118 C3110 0.930 . S
H3119 C3111 0.929 . S
H3120 C3128 0.929 . S
H3121 C3130 0.930 . S
H3122 C3132 0.930 . S
H3123 C3135 0.929 . S
H3124 C3138 0.930 . S
H3125 C3140 0.960 . S
H3126 C3140 0.960 . S
H3127 C3140 0.960 . S
C3128 H3120 0.929 . S
C3128 C3129 1.377 . S
C3128 C3130 1.384 . S
C3129 C3128 1.377 . S
C3129 C3135 1.390 . S
C3130 H3121 0.930 . S
C3130 C3128 1.384 . S
C3130 C3131 1.372 . S
C3131 C3130 1.372 . S
C3131 C3132 1.400 . S
C3131 C3136 1.490 . S
C3132 H3122 0.930 . S
C3132 C3131 1.400 . S
C3132 C3135 1.386 . S
H3133 C3149 0.930 . S
H3134 C3150 0.931 . S
C3135 H3123 0.929 . S
C3135 C3129 1.390 . S
C3135 C3132 1.386 . S
C3136 C3131 1.490 . S
C3136 C3138 1.395 . S
C3136 C3139 1.403 . S
H3137 C3143 0.930 . S
C3138 H3124 0.930 . S
C3138 C3136 1.395 . S
C3138 C3141 1.403 . S
C3139 C3136 1.403 . S
C3139 C3140 1.524 . S
C3139 C3143 1.400 . S
C3140 H3125 0.960 . S
C3140 H3126 0.960 . S
C3140 H3127 0.960 . S
C3140 C3139 1.524 . S
C3141 C3138 1.403 . S
C3141 C3142 1.392 . S
C3141 C3145 1.495 . S
C3142 C3141 1.392 . S
C3142 C3143 1.385 . S
C3142 C3144 1.478 . S
C3143 H3137 0.930 . S
C3143 C3139 1.400 . S
C3143 C3142 1.385 . S
C3144 C3142 1.478 . S
C3144 C3146 1.381 . S
C3144 C3150 1.383 . S
C3145 C3141 1.495 . S
C3145 H3151 0.959 . S
C3145 H3152 0.961 . S
C3145 H3153 0.960 . S
C3146 C3144 1.381 . S
C3146 C3147 1.394 . S
C3146 H3154 0.930 . S
C3147 C3146 1.394 . S
C3147 C3148 1.383 . S
C3147 H3155 0.929 . S
C3148 C3147 1.383 . S
C3148 C3149 1.377 . S
C3149 H3133 0.930 . S
C3149 C3148 1.377 . S
C3149 C3150 1.379 . S
C3150 H3134 0.931 . S
C3150 C3144 1.383 . S
C3150 C3149 1.379 . S
H3151 C3145 0.959 . S
H3152 C3145 0.961 . S
H3153 C3145 0.960 . S
H3154 C3146 0.930 . S
H3155 C3147 0.929 . S
H3156 C3164 0.929 . S
H3157 C3166 0.930 . S
H3158 C3168 0.930 . S
H3159 C3171 0.929 . S
H3160 C3174 0.930 . S
H3161 C3176 0.960 . S
H3162 C3176 0.960 . S
H3163 C3176 0.960 . S
C3164 H3156 0.929 . S
C3164 C3165 1.377 . S
C3164 C3166 1.384 . S
C3165 C3164 1.377 . S
C3165 C3171 1.390 . S
C3166 H3157 0.930 . S
C3166 C3164 1.384 . S
C3166 C3167 1.372 . S
C3167 C3166 1.372 . S
C3167 C3168 1.400 . S
C3167 C3172 1.490 . S
C3168 H3158 0.930 . S
C3168 C3167 1.400 . S
C3168 C3171 1.386 . S
H3169 C3185 0.930 . S
H3170 C3186 0.931 . S
C3171 H3159 0.929 . S
C3171 C3165 1.390 . S
C3171 C3168 1.386 . S
C3172 C3167 1.490 . S
C3172 C3174 1.395 . S
C3172 C3175 1.403 . S
H3173 C3179 0.930 . S
C3174 H3160 0.930 . S
C3174 C3172 1.395 . S
C3174 C3177 1.403 . S
C3175 C3172 1.403 . S
C3175 C3176 1.524 . S
C3175 C3179 1.400 . S
C3176 H3161 0.960 . S
C3176 H3162 0.960 . S
C3176 H3163 0.960 . S
C3176 C3175 1.524 . S
C3177 C3174 1.403 . S
C3177 C3178 1.392 . S
C3177 C3181 1.495 . S
C3178 C3177 1.392 . S
C3178 C3179 1.385 . S
C3178 C3180 1.478 . S
C3179 H3173 0.930 . S
C3179 C3175 1.400 . S
C3179 C3178 1.385 . S
C3180 C3178 1.478 . S
C3180 C3182 1.381 . S
C3180 C3186 1.383 . S
C3181 C3177 1.495 . S
C3181 H3187 0.959 . S
C3181 H3188 0.961 . S
C3181 H3189 0.960 . S
C3182 C3180 1.381 . S
C3182 C3183 1.394 . S
C3182 H3190 0.930 . S
C3183 C3182 1.394 . S
C3183 C3184 1.383 . S
C3183 H3191 0.929 . S
C3184 C3183 1.383 . S
C3184 C3185 1.377 . S
C3185 H3169 0.930 . S
C3185 C3184 1.377 . S
C3185 C3186 1.379 . S
C3186 H3170 0.931 . S
C3186 C3180 1.383 . S
C3186 C3185 1.379 . S
H3187 C3181 0.959 . S
H3188 C3181 0.961 . S
H3189 C3181 0.960 . S
H3190 C3182 0.930 . S
H3191 C3183 0.929 . S
H3192 C3200 0.929 . S
H3193 C3202 0.930 . S
H3194 C3204 0.930 . S
H3195 C3207 0.929 . S
H3196 C3210 0.930 1_545 S
H3197 C3212 0.960 . S
H3198 C3212 0.960 . S
H3199 C3212 0.960 . S
C3200 H3192 0.929 . S
C3200 C3201 1.377 . S
C3200 C3202 1.384 . S
C3201 C3200 1.377 . S
C3201 C3207 1.390 . S
C3202 H3193 0.930 . S
C3202 C3200 1.384 . S
C3202 C3203 1.372 . S
C3203 C3202 1.372 . S
C3203 C3204 1.400 . S
C3203 C3208 1.490 1_545 S
C3204 H3194 0.930 . S
C3204 C3203 1.400 . S
C3204 C3207 1.386 . S
H3205 C3221 0.930 . S
H3206 C3222 0.931 . S
C3207 H3195 0.929 . S
C3207 C3201 1.390 . S
C3207 C3204 1.386 . S
C3208 C3203 1.490 1_565 S
C3208 C3210 1.395 . S
C3208 C3211 1.403 . S
H3209 C3215 0.930 . S
C3210 H3196 0.930 1_565 S
C3210 C3208 1.395 . S
C3210 C3213 1.403 . S
C3211 C3208 1.403 . S
C3211 C3212 1.524 . S
C3211 C3215 1.400 . S
C3212 H3197 0.960 . S
C3212 H3198 0.960 . S
C3212 H3199 0.960 . S
C3212 C3211 1.524 . S
C3213 C3210 1.403 . S
C3213 C3214 1.392 . S
C3213 C3217 1.495 . S
C3214 C3213 1.392 . S
C3214 C3215 1.385 . S
C3214 C3216 1.478 . S
C3215 H3209 0.930 . S
C3215 C3211 1.400 . S
C3215 C3214 1.385 . S
C3216 C3214 1.478 . S
C3216 C3218 1.381 . S
C3216 C3222 1.383 . S
C3217 C3213 1.495 . S
C3217 H3223 0.959 . S
C3217 H3224 0.961 . S
C3217 H3225 0.960 . S
C3218 C3216 1.381 . S
C3218 C3219 1.394 . S
C3218 H3226 0.930 . S
C3219 C3218 1.394 . S
C3219 C3220 1.383 . S
C3219 H3227 0.929 . S
C3220 C3219 1.383 . S
C3220 C3221 1.377 . S
C3221 H3205 0.930 . S
C3221 C3220 1.377 . S
C3221 C3222 1.379 . S
C3222 H3206 0.931 . S
C3222 C3216 1.383 . S
C3222 C3221 1.379 . S
H3223 C3217 0.959 . S
H3224 C3217 0.961 . S
H3225 C3217 0.960 . S
H3226 C3218 0.930 . S
H3227 C3219 0.929 . S
H3228 C3236 0.929 . S
H3229 C3238 0.930 . S
H3230 C3240 0.930 . S
H3231 C3243 0.929 . S
H3232 C3246 0.930 . S
H3233 C3248 0.960 . S
H3234 C3248 0.960 . S
H3235 C3248 0.960 . S
C3236 H3228 0.929 . S
C3236 C3237 1.377 . S
C3236 C3238 1.384 . S
C3237 C3236 1.377 . S
C3237 C3243 1.390 . S
C3238 H3229 0.930 . S
C3238 C3236 1.384 . S
C3238 C3239 1.372 . S
C3239 C3238 1.372 . S
C3239 C3240 1.400 . S
C3239 C3244 1.490 . S
C3240 H3230 0.930 . S
C3240 C3239 1.400 . S
C3240 C3243 1.386 . S
H3241 C3257 0.930 . S
H3242 C3258 0.931 . S
C3243 H3231 0.929 . S
C3243 C3237 1.390 . S
C3243 C3240 1.386 . S
C3244 C3239 1.490 . S
C3244 C3246 1.395 . S
C3244 C3247 1.403 . S
H3245 C3251 0.930 . S
C3246 H3232 0.930 . S
C3246 C3244 1.395 . S
C3246 C3249 1.403 . S
C3247 C3244 1.403 . S
C3247 C3248 1.524 . S
C3247 C3251 1.400 . S
C3248 H3233 0.960 . S
C3248 H3234 0.960 . S
C3248 H3235 0.960 . S
C3248 C3247 1.524 . S
C3249 C3246 1.403 . S
C3249 C3250 1.392 . S
C3249 C3253 1.495 . S
C3250 C3249 1.392 . S
C3250 C3251 1.385 . S
C3250 C3252 1.478 1_545 S
C3251 H3245 0.930 . S
C3251 C3247 1.400 . S
C3251 C3250 1.385 . S
C3252 C3250 1.478 1_565 S
C3252 C3254 1.381 . S
C3252 C3258 1.383 . S
C3253 C3249 1.495 . S
C3253 H3259 0.959 . S
C3253 H3260 0.961 1_545 S
C3253 H3261 0.960 . S
C3254 C3252 1.381 . S
C3254 C3255 1.394 . S
C3254 H3262 0.930 . S
C3255 C3254 1.394 . S
C3255 C3256 1.383 . S
C3255 H3263 0.929 . S
C3256 C3255 1.383 . S
C3256 C3257 1.377 . S
C3257 H3241 0.930 . S
C3257 C3256 1.377 . S
C3257 C3258 1.379 . S
C3258 H3242 0.931 . S
C3258 C3252 1.383 . S
C3258 C3257 1.379 . S
H3259 C3253 0.959 . S
H3260 C3253 0.961 1_565 S
H3261 C3253 0.960 . S
H3262 C3254 0.930 . S
H3263 C3255 0.929 . S
H3264 C3272 0.929 . S
H3265 C3274 0.930 . S
H3266 C3276 0.930 . S
H3267 C3279 0.929 . S
H3268 C3282 0.930 . S
H3269 C3284 0.960 . S
H3270 C3284 0.960 . S
H3271 C3284 0.960 . S
C3272 H3264 0.929 . S
C3272 C3273 1.377 . S
C3272 C3274 1.384 . S
C3273 C3272 1.377 . S
C3273 C3279 1.390 . S
C3274 H3265 0.930 . S
C3274 C3272 1.384 . S
C3274 C3275 1.372 . S
C3275 C3274 1.372 . S
C3275 C3276 1.400 . S
C3275 C3280 1.490 . S
C3276 H3266 0.930 . S
C3276 C3275 1.400 . S
C3276 C3279 1.386 . S
H3277 C3293 0.930 . S
H3278 C3294 0.931 . S
C3279 H3267 0.929 . S
C3279 C3273 1.390 . S
C3279 C3276 1.386 . S
C3280 C3275 1.490 . S
C3280 C3282 1.395 . S
C3280 C3283 1.403 . S
H3281 C3287 0.930 . S
C3282 H3268 0.930 . S
C3282 C3280 1.395 . S
C3282 C3285 1.403 . S
C3283 C3280 1.403 . S
C3283 C3284 1.524 . S
C3283 C3287 1.400 . S
C3284 H3269 0.960 . S
C3284 H3270 0.960 . S
C3284 H3271 0.960 . S
C3284 C3283 1.524 . S
C3285 C3282 1.403 . S
C3285 C3286 1.392 . S
C3285 C3289 1.495 . S
C3286 C3285 1.392 . S
C3286 C3287 1.385 . S
C3286 C3288 1.478 . S
C3287 H3281 0.930 . S
C3287 C3283 1.400 . S
C3287 C3286 1.385 . S
C3288 C3286 1.478 . S
C3288 C3290 1.381 . S
C3288 C3294 1.383 . S
C3289 C3285 1.495 . S
C3289 H3295 0.959 . S
C3289 H3296 0.961 . S
C3289 H3297 0.960 . S
C3290 C3288 1.381 . S
C3290 C3291 1.394 . S
C3290 H3298 0.930 . S
C3291 C3290 1.394 . S
C3291 C3292 1.383 . S
C3291 H3299 0.929 . S
C3292 C3291 1.383 . S
C3292 C3293 1.377 . S
C3293 H3277 0.930 . S
C3293 C3292 1.377 . S
C3293 C3294 1.379 . S
C3294 H3278 0.931 . S
C3294 C3288 1.383 . S
C3294 C3293 1.379 . S
H3295 C3289 0.959 . S
H3296 C3289 0.961 . S
H3297 C3289 0.960 . S
H3298 C3290 0.930 . S
H3299 C3291 0.929 . S
H3300 C3308 0.929 . S
H3301 C3310 0.930 . S
H3302 C3312 0.930 . S
H3303 C3315 0.929 . S
H3304 C3318 0.930 . S
H3305 C3320 0.960 . S
H3306 C3320 0.960 . S
H3307 C3320 0.960 . S
C3308 H3300 0.929 . S
C3308 C3309 1.377 . S
C3308 C3310 1.384 . S
C3309 C3308 1.377 . S
C3309 C3315 1.390 . S
C3310 H3301 0.930 . S
C3310 C3308 1.384 . S
C3310 C3311 1.372 . S
C3311 C3310 1.372 . S
C3311 C3312 1.400 . S
C3311 C3316 1.490 . S
C3312 H3302 0.930 . S
C3312 C3311 1.400 . S
C3312 C3315 1.386 . S
H3313 C3329 0.930 . S
H3314 C3330 0.931 . S
C3315 H3303 0.929 . S
C3315 C3309 1.390 . S
C3315 C3312 1.386 . S
C3316 C3311 1.490 . S
C3316 C3318 1.395 . S
C3316 C3319 1.403 . S
H3317 C3323 0.930 . S
C3318 H3304 0.930 . S
C3318 C3316 1.395 . S
C3318 C3321 1.403 . S
C3319 C3316 1.403 . S
C3319 C3320 1.524 . S
C3319 C3323 1.400 . S
C3320 H3305 0.960 . S
C3320 H3306 0.960 . S
C3320 H3307 0.960 . S
C3320 C3319 1.524 . S
C3321 C3318 1.403 . S
C3321 C3322 1.392 . S
C3321 C3325 1.495 . S
C3322 C3321 1.392 . S
C3322 C3323 1.385 . S
C3322 C3324 1.478 . S
C3323 H3317 0.930 . S
C3323 C3319 1.400 . S
C3323 C3322 1.385 . S
C3324 C3322 1.478 . S
C3324 C3326 1.381 . S
C3324 C3330 1.383 . S
C3325 C3321 1.495 . S
C3325 H3331 0.959 . S
C3325 H3332 0.961 . S
C3325 H3333 0.960 . S
C3326 C3324 1.381 . S
C3326 C3327 1.394 . S
C3326 H3334 0.930 . S
C3327 C3326 1.394 . S
C3327 C3328 1.383 . S
C3327 H3335 0.929 . S
C3328 C3327 1.383 . S
C3328 C3329 1.377 . S
C3329 H3313 0.930 . S
C3329 C3328 1.377 . S
C3329 C3330 1.379 . S
C3330 H3314 0.931 . S
C3330 C3324 1.383 . S
C3330 C3329 1.379 . S
H3331 C3325 0.959 . S
H3332 C3325 0.961 . S
H3333 C3325 0.960 . S
H3334 C3326 0.930 . S
H3335 C3327 0.929 . S
H3336 C3344 0.929 . S
H3337 C3346 0.930 . S
H3338 C3348 0.930 . S
H3339 C3351 0.929 . S
H3340 C3354 0.930 . S
H3341 C3356 0.960 . S
H3342 C3356 0.960 . S
H3343 C3356 0.960 . S
C3344 H3336 0.929 . S
C3344 C3345 1.377 . S
C3344 C3346 1.384 . S
C3345 C3344 1.377 . S
C3345 C3351 1.390 . S
C3346 H3337 0.930 . S
C3346 C3344 1.384 . S
C3346 C3347 1.372 . S
C3347 C3346 1.372 . S
C3347 C3348 1.400 . S
C3347 C3352 1.490 . S
C3348 H3338 0.930 . S
C3348 C3347 1.400 . S
C3348 C3351 1.386 . S
H3349 C3365 0.930 . S
H3350 C3366 0.931 . S
C3351 H3339 0.929 . S
C3351 C3345 1.390 . S
C3351 C3348 1.386 . S
C3352 C3347 1.490 . S
C3352 C3354 1.395 . S
C3352 C3355 1.403 . S
H3353 C3359 0.930 . S
C3354 H3340 0.930 . S
C3354 C3352 1.395 . S
C3354 C3357 1.403 . S
C3355 C3352 1.403 . S
C3355 C3356 1.524 . S
C3355 C3359 1.400 . S
C3356 H3341 0.960 . S
C3356 H3342 0.960 . S
C3356 H3343 0.960 . S
C3356 C3355 1.524 . S
C3357 C3354 1.403 . S
C3357 C3358 1.392 . S
C3357 C3361 1.495 . S
C3358 C3357 1.392 . S
C3358 C3359 1.385 . S
C3358 C3360 1.478 . S
C3359 H3353 0.930 . S
C3359 C3355 1.400 . S
C3359 C3358 1.385 . S
C3360 C3358 1.478 . S
C3360 C3362 1.381 . S
C3360 C3366 1.383 . S
C3361 C3357 1.495 . S
C3361 H3367 0.959 . S
C3361 H3368 0.961 . S
C3361 H3369 0.960 . S
C3362 C3360 1.381 . S
C3362 C3363 1.394 . S
C3362 H3370 0.930 . S
C3363 C3362 1.394 . S
C3363 C3364 1.383 . S
C3363 H3371 0.929 . S
C3364 C3363 1.383 . S
C3364 C3365 1.377 . S
C3365 H3349 0.930 . S
C3365 C3364 1.377 . S
C3365 C3366 1.379 . S
C3366 H3350 0.931 . S
C3366 C3360 1.383 . S
C3366 C3365 1.379 . S
H3367 C3361 0.959 . S
H3368 C3361 0.961 . S
H3369 C3361 0.960 . S
H3370 C3362 0.930 . S
H3371 C3363 0.929 . S
H3372 C3380 0.929 . S
H3373 C3382 0.930 . S
H3374 C3384 0.930 . S
H3375 C3387 0.929 . S
H3376 C3390 0.930 . S
H3377 C3392 0.962 . S
H3378 C3392 0.960 . S
H3379 C3392 0.960 . S
C3380 H3372 0.929 . S
C3380 C3381 1.377 . S
C3380 C3382 1.384 . S
C3381 C3380 1.377 . S
C3381 C3387 1.390 . S
C3382 H3373 0.930 . S
C3382 C3380 1.384 . S
C3382 C3383 1.372 . S
C3383 C3382 1.372 . S
C3383 C3384 1.400 . S
C3383 C3388 1.563 . S
C3384 H3374 0.930 . S
C3384 C3383 1.400 . S
C3384 C3387 1.386 . S
H3385 C3401 0.930 . S
H3386 C3402 0.931 . S
C3387 H3375 0.929 . S
C3387 C3381 1.390 . S
C3387 C3384 1.386 . S
C3388 C3383 1.563 . S
C3388 C3390 1.347 1_455 S
C3388 C3391 1.380 1_455 S
H3389 C3395 0.930 . S
C3390 H3376 0.930 . S
C3390 C3388 1.347 1_655 S
C3390 C3393 1.403 . S
C3391 C3388 1.380 1_655 S
C3391 C3392 1.524 1_655 S
C3391 C3395 1.400 . S
C3392 H3377 0.962 . S
C3392 H3378 0.960 . S
C3392 H3379 0.960 . S
C3392 C3391 1.524 1_455 S
C3393 C3390 1.403 . S
C3393 C3394 1.392 . S
C3393 C3397 1.495 . S
C3394 C3393 1.392 . S
C3394 C3395 1.385 . S
C3394 C3396 1.478 . S
C3395 H3389 0.930 . S
C3395 C3391 1.400 . S
C3395 C3394 1.385 . S
C3396 C3394 1.478 . S
C3396 C3398 1.381 . S
C3396 C3402 1.383 . S
C3397 C3393 1.495 . S
C3397 H3403 0.959 . S
C3397 H3404 0.961 . S
C3397 H3405 0.960 . S
C3398 C3396 1.381 . S
C3398 C3399 1.394 . S
C3398 H3406 0.930 . S
C3399 C3398 1.394 . S
C3399 C3400 1.383 . S
C3399 H3407 0.929 . S
C3400 C3399 1.383 . S
C3400 C3401 1.377 . S
C3401 H3385 0.930 . S
C3401 C3400 1.377 . S
C3401 C3402 1.379 . S
C3402 H3386 0.931 . S
C3402 C3396 1.383 . S
C3402 C3401 1.379 . S
H3403 C3397 0.959 . S
H3404 C3397 0.961 . S
H3405 C3397 0.960 . S
H3406 C3398 0.930 . S
H3407 C3399 0.929 . S
H3408 C3416 0.929 . S
H3409 C3418 0.930 . S
H3410 C3420 0.930 . S
H3411 C3423 0.929 . S
H3412 C3426 0.930 . S
H3413 C3428 0.960 . S
H3414 C3428 0.960 . S
H3415 C3428 0.960 . S
C3416 H3408 0.929 . S
C3416 C3417 1.377 . S
C3416 C3418 1.384 . S
C3417 C3416 1.377 . S
C3417 C3423 1.390 . S
C3418 H3409 0.930 . S
C3418 C3416 1.384 . S
C3418 C3419 1.372 . S
C3419 C3418 1.372 . S
C3419 C3420 1.400 . S
C3419 C3424 1.490 . S
C3420 H3410 0.930 . S
C3420 C3419 1.400 . S
C3420 C3423 1.386 . S
H3421 C3437 0.930 . S
H3422 C3438 0.931 . S
C3423 H3411 0.929 . S
C3423 C3417 1.390 . S
C3423 C3420 1.386 . S
C3424 C3419 1.490 . S
C3424 C3426 1.395 . S
C3424 C3427 1.403 . S
H3425 C3431 0.930 . S
C3426 H3412 0.930 . S
C3426 C3424 1.395 . S
C3426 C3429 1.403 . S
C3427 C3424 1.403 . S
C3427 C3428 1.524 . S
C3427 C3431 1.400 . S
C3428 H3413 0.960 . S
C3428 H3414 0.960 . S
C3428 H3415 0.960 . S
C3428 C3427 1.524 . S
C3429 C3426 1.403 . S
C3429 C3430 1.392 . S
C3429 C3433 1.495 . S
C3430 C3429 1.392 . S
C3430 C3431 1.385 . S
C3430 C3432 1.478 . S
C3431 H3425 0.930 . S
C3431 C3427 1.400 . S
C3431 C3430 1.385 . S
C3432 C3430 1.478 . S
C3432 C3434 1.381 . S
C3432 C3438 1.383 . S
C3433 C3429 1.495 . S
C3433 H3439 0.959 . S
C3433 H3440 0.961 . S
C3433 H3441 0.960 . S
C3434 C3432 1.381 . S
C3434 C3435 1.394 . S
C3434 H3442 0.930 . S
C3435 C3434 1.394 . S
C3435 C3436 1.383 . S
C3435 H3443 0.929 . S
C3436 C3435 1.383 . S
C3436 C3437 1.377 . S
C3437 H3421 0.930 . S
C3437 C3436 1.377 . S
C3437 C3438 1.379 . S
C3438 H3422 0.931 . S
C3438 C3432 1.383 . S
C3438 C3437 1.379 . S
H3439 C3433 0.959 . S
H3440 C3433 0.961 . S
H3441 C3433 0.960 . S
H3442 C3434 0.930 . S
H3443 C3435 0.929 . S
H3444 C3452 0.929 . S
H3445 C3454 0.930 . S
H3446 C3456 0.930 . S
H3447 C3459 0.929 . S
H3448 C3462 0.930 1_455 S
H3449 C3464 0.960 . S
H3450 C3464 0.920 1_455 S
H3451 C3464 0.978 . S
C3452 H3444 0.929 . S
C3452 C3453 1.377 . S
C3452 C3454 1.384 . S
C3453 C3452 1.377 . S
C3453 C3459 1.390 . S
C3454 H3445 0.930 . S
C3454 C3452 1.384 . S
C3454 C3455 1.372 . S
C3455 C3454 1.372 . S
C3455 C3456 1.400 . S
C3455 C3460 1.490 . S
C3456 H3446 0.930 . S
C3456 C3455 1.400 . S
C3456 C3459 1.386 . S
H3457 C3473 0.930 . S
H3458 C3474 0.931 . S
C3459 H3447 0.929 . S
C3459 C3453 1.390 . S
C3459 C3456 1.386 . S
C3460 C3455 1.490 . S
C3460 C3462 1.395 1_455 S
C3460 C3463 1.403 1_455 S
H3461 C3467 0.930 . S
C3462 H3448 0.930 1_655 S
C3462 C3460 1.395 1_655 S
C3462 C3465 1.403 . S
C3463 C3460 1.403 1_655 S
C3463 C3464 1.524 . S
C3463 C3467 1.400 . S
C3464 H3449 0.960 . S
C3464 H3450 0.920 1_655 S
C3464 H3451 0.978 . S
C3464 C3463 1.524 . S
C3465 C3462 1.403 . S
C3465 C3466 1.392 . S
C3465 C3469 1.495 . S
C3466 C3465 1.392 . S
C3466 C3467 1.385 . S
C3466 C3468 1.478 . S
C3467 H3461 0.930 . S
C3467 C3463 1.400 . S
C3467 C3466 1.385 . S
C3468 C3466 1.478 . S
C3468 C3470 1.381 . S
C3468 C3474 1.383 . S
C3469 C3465 1.495 . S
C3469 H3475 0.959 . S
C3469 H3476 0.961 . S
C3469 H3477 0.960 . S
C3470 C3468 1.381 . S
C3470 C3471 1.394 . S
C3470 H3478 0.930 . S
C3471 C3470 1.394 . S
C3471 C3472 1.383 . S
C3471 H3479 0.929 . S
C3472 C3471 1.383 . S
C3472 C3473 1.377 . S
C3473 H3457 0.930 . S
C3473 C3472 1.377 . S
C3473 C3474 1.379 . S
C3474 H3458 0.931 . S
C3474 C3468 1.383 . S
C3474 C3473 1.379 . S
H3475 C3469 0.959 . S
H3476 C3469 0.961 . S
H3477 C3469 0.960 . S
H3478 C3470 0.930 . S
H3479 C3471 0.929 . S
H3480 C3488 0.929 . S
H3481 C3490 0.930 . S
H3482 C3492 0.930 . S
H3483 C3495 0.929 . S
H3484 C3498 0.930 . S
H3485 C3500 0.960 . S
H3486 C3500 0.960 . S
H3487 C3500 0.960 . S
C3488 H3480 0.929 . S
C3488 C3489 1.377 . S
C3488 C3490 1.384 . S
C3489 C3488 1.377 . S
C3489 C3495 1.390 . S
C3490 H3481 0.930 . S
C3490 C3488 1.384 . S
C3490 C3491 1.372 . S
C3491 C3490 1.372 . S
C3491 C3492 1.400 . S
C3491 C3496 1.490 . S
C3492 H3482 0.930 . S
C3492 C3491 1.400 . S
C3492 C3495 1.386 . S
H3493 C3509 0.930 . S
H3494 C3510 0.931 . S
C3495 H3483 0.929 . S
C3495 C3489 1.390 . S
C3495 C3492 1.386 . S
C3496 C3491 1.490 . S
C3496 C3498 1.395 . S
C3496 C3499 1.403 . S
H3497 C3503 0.930 . S
C3498 H3484 0.930 . S
C3498 C3496 1.395 . S
C3498 C3501 1.403 . S
C3499 C3496 1.403 . S
C3499 C3500 1.524 . S
C3499 C3503 1.400 . S
C3500 H3485 0.960 . S
C3500 H3486 0.960 . S
C3500 H3487 0.960 . S
C3500 C3499 1.524 . S
C3501 C3498 1.403 . S
C3501 C3502 1.392 . S
C3501 C3505 1.495 . S
C3502 C3501 1.392 . S
C3502 C3503 1.385 . S
C3502 C3504 1.478 . S
C3503 H3497 0.930 . S
C3503 C3499 1.400 . S
C3503 C3502 1.385 . S
C3504 C3502 1.478 . S
C3504 C3506 1.381 . S
C3504 C3510 1.383 . S
C3505 C3501 1.495 . S
C3505 H3511 0.959 . S
C3505 H3512 0.961 . S
C3505 H3513 0.960 . S
C3506 C3504 1.381 . S
C3506 C3507 1.394 . S
C3506 H3514 0.930 . S
C3507 C3506 1.394 . S
C3507 C3508 1.383 . S
C3507 H3515 0.929 . S
C3508 C3507 1.383 . S
C3508 C3509 1.377 . S
C3509 H3493 0.930 . S
C3509 C3508 1.377 . S
C3509 C3510 1.379 . S
C3510 H3494 0.931 . S
C3510 C3504 1.383 . S
C3510 C3509 1.379 . S
H3511 C3505 0.959 . S
H3512 C3505 0.961 . S
H3513 C3505 0.960 . S
H3514 C3506 0.930 . S
H3515 C3507 0.929 . S
H3516 C3524 0.929 . S
H3517 C3526 0.930 . S
H3518 C3528 0.930 . S
H3519 C3531 0.929 . S
H3520 C3534 0.930 . S
H3521 C3536 0.960 . S
H3522 C3536 0.960 . S
H3523 C3536 0.960 . S
C3524 H3516 0.929 . S
C3524 C3525 1.377 . S
C3524 C3526 1.384 . S
C3525 C3524 1.377 . S
C3525 C3531 1.390 . S
C3526 H3517 0.930 . S
C3526 C3524 1.384 . S
C3526 C3527 1.372 . S
C3527 C3526 1.372 . S
C3527 C3528 1.400 . S
C3527 C3532 1.490 . S
C3528 H3518 0.930 . S
C3528 C3527 1.400 . S
C3528 C3531 1.386 . S
H3529 C3545 0.930 . S
H3530 C3546 0.931 . S
C3531 H3519 0.929 . S
C3531 C3525 1.390 . S
C3531 C3528 1.386 . S
C3532 C3527 1.490 . S
C3532 C3534 1.395 . S
C3532 C3535 1.403 . S
H3533 C3539 0.930 . S
C3534 H3520 0.930 . S
C3534 C3532 1.395 . S
C3534 C3537 1.403 . S
C3535 C3532 1.403 . S
C3535 C3536 1.524 . S
C3535 C3539 1.400 . S
C3536 H3521 0.960 . S
C3536 H3522 0.960 . S
C3536 H3523 0.960 . S
C3536 C3535 1.524 . S
C3537 C3534 1.403 . S
C3537 C3538 1.392 . S
C3537 C3541 1.495 . S
C3538 C3537 1.392 . S
C3538 C3539 1.385 . S
C3538 C3540 1.478 . S
C3539 H3533 0.930 . S
C3539 C3535 1.400 . S
C3539 C3538 1.385 . S
C3540 C3538 1.478 . S
C3540 C3542 1.381 . S
C3540 C3546 1.383 . S
C3541 C3537 1.495 . S
C3541 H3547 0.959 . S
C3541 H3548 0.961 . S
C3541 H3549 0.960 . S
C3542 C3540 1.381 . S
C3542 C3543 1.394 . S
C3542 H3550 0.930 . S
C3543 C3542 1.394 . S
C3543 C3544 1.383 . S
C3543 H3551 0.929 . S
C3544 C3543 1.383 . S
C3544 C3545 1.377 . S
C3545 H3529 0.930 . S
C3545 C3544 1.377 . S
C3545 C3546 1.379 . S
C3546 H3530 0.931 . S
C3546 C3540 1.383 . S
C3546 C3545 1.379 . S
H3547 C3541 0.959 . S
H3548 C3541 0.961 . S
H3549 C3541 0.960 . S
H3550 C3542 0.930 . S
H3551 C3543 0.929 . S
H3552 C3560 0.929 . S
H3553 C3562 0.930 . S
H3554 C3564 0.930 . S
H3555 C3567 0.929 . S
H3556 C3570 0.930 . S
H3557 C3572 0.960 . S
H3558 C3572 0.960 . S
H3559 C3572 0.960 . S
C3560 H3552 0.929 . S
C3560 C3561 1.377 . S
C3560 C3562 1.384 . S
C3561 C3560 1.377 . S
C3561 C3567 1.390 . S
C3562 H3553 0.930 . S
C3562 C3560 1.384 . S
C3562 C3563 1.372 . S
C3563 C3562 1.372 . S
C3563 C3564 1.400 . S
C3563 C3568 1.490 . S
C3564 H3554 0.930 . S
C3564 C3563 1.400 . S
C3564 C3567 1.386 . S
H3565 C3581 0.930 . S
H3566 C3582 0.931 . S
C3567 H3555 0.929 . S
C3567 C3561 1.390 . S
C3567 C3564 1.386 . S
C3568 C3563 1.490 . S
C3568 C3570 1.395 . S
C3568 C3571 1.403 . S
H3569 C3575 0.930 . S
C3570 H3556 0.930 . S
C3570 C3568 1.395 . S
C3570 C3573 1.403 . S
C3571 C3568 1.403 . S
C3571 C3572 1.524 . S
C3571 C3575 1.400 . S
C3572 H3557 0.960 . S
C3572 H3558 0.960 . S
C3572 H3559 0.960 . S
C3572 C3571 1.524 . S
C3573 C3570 1.403 . S
C3573 C3574 1.392 . S
C3573 C3577 1.495 . S
C3574 C3573 1.392 . S
C3574 C3575 1.385 . S
C3574 C3576 1.478 . S
C3575 H3569 0.930 . S
C3575 C3571 1.400 . S
C3575 C3574 1.385 . S
C3576 C3574 1.478 . S
C3576 C3578 1.381 . S
C3576 C3582 1.383 . S
C3577 C3573 1.495 . S
C3577 H3583 0.959 . S
C3577 H3584 0.961 . S
C3577 H3585 0.960 . S
C3578 C3576 1.381 . S
C3578 C3579 1.394 . S
C3578 H3586 0.930 . S
C3579 C3578 1.394 . S
C3579 C3580 1.383 . S
C3579 H3587 0.929 . S
C3580 C3579 1.383 . S
C3580 C3581 1.377 . S
C3581 H3565 0.930 . S
C3581 C3580 1.377 . S
C3581 C3582 1.379 . S
C3582 H3566 0.931 . S
C3582 C3576 1.383 . S
C3582 C3581 1.379 . S
H3583 C3577 0.959 . S
H3584 C3577 0.961 . S
H3585 C3577 0.960 . S
H3586 C3578 0.930 . S
H3587 C3579 0.929 . S
H3588 C3596 0.929 . S
H3589 C3598 0.930 . S
H3590 C3600 0.930 . S
H3591 C3603 0.929 . S
H3592 C3606 0.930 . S
H3593 C3608 0.960 . S
H3594 C3608 0.960 . S
H3595 C3608 0.960 . S
C3596 H3588 0.929 . S
C3596 C3597 1.377 . S
C3596 C3598 1.384 . S
C3597 C3596 1.377 . S
C3597 C3603 1.390 . S
C3598 H3589 0.930 . S
C3598 C3596 1.384 . S
C3598 C3599 1.372 . S
C3599 C3598 1.372 . S
C3599 C3600 1.400 . S
C3599 C3604 1.490 . S
C3600 H3590 0.930 . S
C3600 C3599 1.400 . S
C3600 C3603 1.386 . S
H3601 C3617 0.930 . S
H3602 C3618 0.931 . S
C3603 H3591 0.929 . S
C3603 C3597 1.390 . S
C3603 C3600 1.386 . S
C3604 C3599 1.490 . S
C3604 C3606 1.395 . S
C3604 C3607 1.403 . S
H3605 C3611 0.904 1_554 S
C3606 H3592 0.930 . S
C3606 C3604 1.395 . S
C3606 C3609 1.403 . S
C3607 C3604 1.403 . S
C3607 C3608 1.524 . S
C3607 C3611 1.400 . S
C3608 H3593 0.960 . S
C3608 H3594 0.960 . S
C3608 H3595 0.960 . S
C3608 C3607 1.524 . S
C3609 C3606 1.403 . S
C3609 C3610 1.423 . S
C3609 C3613 1.495 . S
C3610 C3609 1.423 . S
C3610 C3611 1.403 . S
C3610 C3612 1.430 1_556 S
C3611 H3605 0.904 1_556 S
C3611 C3607 1.400 . S
C3611 C3610 1.403 . S
C3612 C3610 1.430 1_554 S
C3612 C3614 1.381 . S
C3612 C3618 1.383 . S
C3613 C3609 1.495 . S
C3613 H3619 0.959 . S
C3613 H3620 0.961 . S
C3613 H3621 0.960 1_556 S
C3614 C3612 1.381 . S
C3614 C3615 1.394 . S
C3614 H3622 0.930 . S
C3615 C3614 1.394 . S
C3615 C3616 1.383 . S
C3615 H3623 0.929 . S
C3616 C3615 1.383 . S
C3616 C3617 1.377 . S
C3617 H3601 0.930 . S
C3617 C3616 1.377 . S
C3617 C3618 1.379 . S
C3618 H3602 0.931 . S
C3618 C3612 1.383 . S
C3618 C3617 1.379 . S
H3619 C3613 0.959 . S
H3620 C3613 0.961 . S
H3621 C3613 0.960 1_554 S
H3622 C3614 0.930 . S
H3623 C3615 0.929 . S
H3624 C3632 0.929 . S
H3625 C3634 0.930 . S
H3626 C3636 0.930 . S
H3627 C3639 0.929 . S
H3628 C3642 0.930 . S
H3629 C3644 0.960 . S
H3630 C3644 0.960 . S
H3631 C3644 0.960 . S
C3632 H3624 0.929 . S
C3632 C3633 1.377 . S
C3632 C3634 1.384 . S
C3633 C3632 1.377 . S
C3633 C3639 1.390 . S
C3634 H3625 0.930 . S
C3634 C3632 1.384 . S
C3634 C3635 1.372 . S
C3635 C3634 1.372 . S
C3635 C3636 1.400 . S
C3635 C3640 1.490 . S
C3636 H3626 0.930 . S
C3636 C3635 1.400 . S
C3636 C3639 1.386 . S
H3637 C3653 0.930 . S
H3638 C3654 0.931 . S
C3639 H3627 0.929 . S
C3639 C3633 1.390 . S
C3639 C3636 1.386 . S
C3640 C3635 1.490 . S
C3640 C3642 1.395 . S
C3640 C3643 1.403 . S
H3641 C3647 0.930 . S
C3642 H3628 0.930 . S
C3642 C3640 1.395 . S
C3642 C3645 1.403 . S
C3643 C3640 1.403 . S
C3643 C3644 1.524 . S
C3643 C3647 1.400 . S
C3644 H3629 0.960 . S
C3644 H3630 0.960 . S
C3644 H3631 0.960 . S
C3644 C3643 1.524 . S
C3645 C3642 1.403 . S
C3645 C3646 1.392 . S
C3645 C3649 1.495 . S
C3646 C3645 1.392 . S
C3646 C3647 1.385 . S
C3646 C3648 1.478 . S
C3647 H3641 0.930 . S
C3647 C3643 1.400 . S
C3647 C3646 1.385 . S
C3648 C3646 1.478 . S
C3648 C3650 1.381 . S
C3648 C3654 1.383 . S
C3649 C3645 1.495 . S
C3649 H3655 0.959 . S
C3649 H3656 0.961 . S
C3649 H3657 0.960 . S
C3650 C3648 1.381 . S
C3650 C3651 1.394 . S
C3650 H3658 0.930 . S
C3651 C3650 1.394 . S
C3651 C3652 1.383 . S
C3651 H3659 0.929 . S
C3652 C3651 1.383 . S
C3652 C3653 1.377 . S
C3653 H3637 0.930 . S
C3653 C3652 1.377 . S
C3653 C3654 1.379 . S
C3654 H3638 0.931 . S
C3654 C3648 1.383 . S
C3654 C3653 1.379 . S
H3655 C3649 0.959 . S
H3656 C3649 0.961 . S
H3657 C3649 0.960 . S
H3658 C3650 0.930 . S
H3659 C3651 0.929 . S
H3660 C3668 0.929 . S
H3661 C3670 0.930 . S
H3662 C3672 0.930 . S
H3663 C3675 0.929 . S
H3664 C3678 0.930 . S
H3665 C3680 0.960 . S
H3666 C3680 0.960 . S
H3667 C3680 0.960 . S
C3668 H3660 0.929 . S
C3668 C3669 1.377 . S
C3668 C3670 1.384 . S
C3669 C3668 1.377 . S
C3669 C3675 1.390 . S
C3670 H3661 0.930 . S
C3670 C3668 1.384 . S
C3670 C3671 1.372 . S
C3671 C3670 1.372 . S
C3671 C3672 1.400 . S
C3671 C3676 1.490 . S
C3672 H3662 0.930 . S
C3672 C3671 1.400 . S
C3672 C3675 1.386 . S
H3673 C3689 0.930 . S
H3674 C3690 0.931 . S
C3675 H3663 0.929 . S
C3675 C3669 1.390 . S
C3675 C3672 1.386 . S
C3676 C3671 1.490 . S
C3676 C3678 1.395 . S
C3676 C3679 1.403 . S
H3677 C3683 0.930 . S
C3678 H3664 0.930 . S
C3678 C3676 1.395 . S
C3678 C3681 1.403 . S
C3679 C3676 1.403 . S
C3679 C3680 1.524 . S
C3679 C3683 1.400 . S
C3680 H3665 0.960 . S
C3680 H3666 0.960 . S
C3680 H3667 0.960 . S
C3680 C3679 1.524 . S
C3681 C3678 1.403 . S
C3681 C3682 1.392 . S
C3681 C3685 1.495 . S
C3682 C3681 1.392 . S
C3682 C3683 1.385 . S
C3682 C3684 1.478 . S
C3683 H3677 0.930 . S
C3683 C3679 1.400 . S
C3683 C3682 1.385 . S
C3684 C3682 1.478 . S
C3684 C3686 1.381 . S
C3684 C3690 1.383 . S
C3685 C3681 1.495 . S
C3685 H3691 0.959 . S
C3685 H3692 0.961 . S
C3685 H3693 0.960 . S
C3686 C3684 1.381 . S
C3686 C3687 1.394 . S
C3686 H3694 0.930 . S
C3687 C3686 1.394 . S
C3687 C3688 1.383 . S
C3687 H3695 0.929 . S
C3688 C3687 1.383 . S
C3688 C3689 1.377 . S
C3689 H3673 0.930 . S
C3689 C3688 1.377 . S
C3689 C3690 1.379 . S
C3690 H3674 0.931 . S
C3690 C3684 1.383 . S
C3690 C3689 1.379 . S
H3691 C3685 0.959 . S
H3692 C3685 0.961 . S
H3693 C3685 0.960 . S
H3694 C3686 0.930 . S
H3695 C3687 0.929 . S
H3696 C3704 0.929 . S
H3697 C3706 0.930 . S
H3698 C3708 0.930 . S
H3699 C3711 0.929 . S
H3700 C3714 0.930 . S
H3701 C3716 0.960 . S
H3702 C3716 0.960 . S
H3703 C3716 0.960 . S
C3704 H3696 0.929 . S
C3704 C3705 1.377 . S
C3704 C3706 1.384 . S
C3705 C3704 1.377 . S
C3705 C3711 1.390 . S
C3706 H3697 0.930 . S
C3706 C3704 1.384 . S
C3706 C3707 1.372 . S
C3707 C3706 1.372 . S
C3707 C3708 1.400 . S
C3707 C3712 1.490 . S
C3708 H3698 0.930 . S
C3708 C3707 1.400 . S
C3708 C3711 1.386 . S
H3709 C3725 0.930 . S
H3710 C3726 0.931 . S
C3711 H3699 0.929 . S
C3711 C3705 1.390 . S
C3711 C3708 1.386 . S
C3712 C3707 1.490 . S
C3712 C3714 1.395 . S
C3712 C3715 1.403 . S
H3713 C3719 0.930 . S
C3714 H3700 0.930 . S
C3714 C3712 1.395 . S
C3714 C3717 1.403 . S
C3715 C3712 1.403 . S
C3715 C3716 1.524 . S
C3715 C3719 1.400 . S
C3716 H3701 0.960 . S
C3716 H3702 0.960 . S
C3716 H3703 0.960 . S
C3716 C3715 1.524 . S
C3717 C3714 1.403 . S
C3717 C3718 1.392 . S
C3717 C3721 1.495 . S
C3718 C3717 1.392 . S
C3718 C3719 1.385 . S
C3718 C3720 1.478 . S
C3719 H3713 0.930 . S
C3719 C3715 1.400 . S
C3719 C3718 1.385 . S
C3720 C3718 1.478 . S
C3720 C3722 1.381 . S
C3720 C3726 1.383 . S
C3721 C3717 1.495 . S
C3721 H3727 0.959 . S
C3721 H3728 0.961 . S
C3721 H3729 0.960 . S
C3722 C3720 1.381 . S
C3722 C3723 1.394 . S
C3722 H3730 0.930 . S
C3723 C3722 1.394 . S
C3723 C3724 1.383 . S
C3723 H3731 0.929 . S
C3724 C3723 1.383 . S
C3724 C3725 1.377 . S
C3725 H3709 0.930 . S
C3725 C3724 1.377 . S
C3725 C3726 1.379 . S
C3726 H3710 0.931 . S
C3726 C3720 1.383 . S
C3726 C3725 1.379 . S
H3727 C3721 0.959 . S
H3728 C3721 0.961 . S
H3729 C3721 0.960 . S
H3730 C3722 0.930 . S
H3731 C3723 0.929 . S
H3732 C3740 0.929 . S
H3733 C3742 0.930 . S
H3734 C3744 0.930 . S
H3735 C3747 0.929 . S
H3736 C3750 0.930 . S
H3737 C3752 0.960 . S
H3738 C3752 0.960 . S
H3739 C3752 0.960 . S
C3740 H3732 0.929 . S
C3740 C3741 1.377 . S
C3740 C3742 1.384 . S
C3741 C3740 1.377 . S
C3741 C3747 1.390 . S
C3742 H3733 0.930 . S
C3742 C3740 1.384 . S
C3742 C3743 1.372 . S
C3743 C3742 1.372 . S
C3743 C3744 1.400 . S
C3743 C3748 1.490 . S
C3744 H3734 0.930 . S
C3744 C3743 1.400 . S
C3744 C3747 1.386 . S
H3745 C3761 0.930 . S
H3746 C3762 0.931 . S
C3747 H3735 0.929 . S
C3747 C3741 1.390 . S
C3747 C3744 1.386 . S
C3748 C3743 1.490 . S
C3748 C3750 1.395 . S
C3748 C3751 1.403 . S
H3749 C3755 0.930 . S
C3750 H3736 0.930 . S
C3750 C3748 1.395 . S
C3750 C3753 1.403 . S
C3751 C3748 1.403 . S
C3751 C3752 1.524 . S
C3751 C3755 1.400 . S
C3752 H3737 0.960 . S
C3752 H3738 0.960 . S
C3752 H3739 0.960 . S
C3752 C3751 1.524 . S
C3753 C3750 1.403 . S
C3753 C3754 1.392 . S
C3753 C3757 1.462 1_554 S
C3754 C3753 1.392 . S
C3754 C3755 1.385 . S
C3754 C3756 1.478 1_554 S
C3755 H3749 0.930 . S
C3755 C3751 1.400 . S
C3755 C3754 1.385 . S
C3756 C3754 1.478 1_556 S
C3756 C3758 1.381 . S
C3756 C3762 1.383 . S
C3757 C3753 1.462 1_556 S
C3757 H3763 0.928 1_556 S
C3757 H3764 1.003 . S
C3757 H3765 0.986 . S
C3758 C3756 1.381 . S
C3758 C3759 1.394 . S
C3758 H3766 0.930 . S
C3759 C3758 1.394 . S
C3759 C3760 1.383 . S
C3759 H3767 0.929 . S
C3760 C3759 1.383 . S
C3760 C3761 1.377 . S
C3761 H3745 0.930 . S
C3761 C3760 1.377 . S
C3761 C3762 1.379 . S
C3762 H3746 0.931 . S
C3762 C3756 1.383 . S
C3762 C3761 1.379 . S
H3763 C3757 0.928 1_554 S
H3764 C3757 1.003 . S
H3765 C3757 0.986 . S
H3766 C3758 0.930 . S
H3767 C3759 0.929 . S
H3768 C3776 0.929 . S
H3769 C3778 0.930 . S
H3770 C3780 0.930 . S
H3771 C3783 0.929 . S
H3772 C3786 0.930 . S
H3773 C3788 0.960 . S
H3774 C3788 0.960 . S
H3775 C3788 0.960 . S
C3776 H3768 0.929 . S
C3776 C3777 1.377 . S
C3776 C3778 1.384 . S
C3777 C3776 1.377 . S
C3777 C3783 1.390 . S
C3778 H3769 0.930 . S
C3778 C3776 1.384 . S
C3778 C3779 1.372 . S
C3779 C3778 1.372 . S
C3779 C3780 1.400 . S
C3779 C3784 1.490 . S
C3780 H3770 0.930 . S
C3780 C3779 1.400 . S
C3780 C3783 1.386 . S
H3781 C3797 0.930 . S
H3782 C3798 0.931 . S
C3783 H3771 0.929 . S
C3783 C3777 1.390 . S
C3783 C3780 1.386 . S
C3784 C3779 1.490 . S
C3784 C3786 1.395 . S
C3784 C3787 1.403 . S
H3785 C3791 0.930 . S
C3786 H3772 0.930 . S
C3786 C3784 1.395 . S
C3786 C3789 1.403 . S
C3787 C3784 1.403 . S
C3787 C3788 1.524 . S
C3787 C3791 1.400 . S
C3788 H3773 0.960 . S
C3788 H3774 0.960 . S
C3788 H3775 0.960 . S
C3788 C3787 1.524 . S
C3789 C3786 1.403 . S
C3789 C3790 1.392 . S
C3789 C3793 1.495 . S
C3790 C3789 1.392 . S
C3790 C3791 1.385 . S
C3790 C3792 1.478 . S
C3791 H3785 0.930 . S
C3791 C3787 1.400 . S
C3791 C3790 1.385 . S
C3792 C3790 1.478 . S
C3792 C3794 1.381 . S
C3792 C3798 1.383 . S
C3793 C3789 1.495 . S
C3793 H3799 0.959 . S
C3793 H3800 0.961 . S
C3793 H3801 0.960 . S
C3794 C3792 1.381 . S
C3794 C3795 1.394 . S
C3794 H3802 0.930 . S
C3795 C3794 1.394 . S
C3795 C3796 1.383 . S
C3795 H3803 0.929 . S
C3796 C3795 1.383 . S
C3796 C3797 1.377 . S
C3797 H3781 0.930 . S
C3797 C3796 1.377 . S
C3797 C3798 1.379 . S
C3798 H3782 0.931 . S
C3798 C3792 1.383 . S
C3798 C3797 1.379 . S
H3799 C3793 0.959 . S
H3800 C3793 0.961 . S
H3801 C3793 0.960 . S
H3802 C3794 0.930 . S
H3803 C3795 0.929 . S
H3804 C3812 0.929 . S
H3805 C3814 0.930 . S
H3806 C3816 0.930 . S
H3807 C3819 0.929 . S
H3808 C3822 0.930 . S
H3809 C3824 0.960 . S
H3810 C3824 0.960 . S
H3811 C3824 0.960 . S
C3812 H3804 0.929 . S
C3812 C3813 1.377 . S
C3812 C3814 1.384 . S
C3813 C3812 1.377 . S
C3813 C3819 1.390 . S
C3814 H3805 0.930 . S
C3814 C3812 1.384 . S
C3814 C3815 1.372 . S
C3815 C3814 1.372 . S
C3815 C3816 1.400 . S
C3815 C3820 1.490 . S
C3816 H3806 0.930 . S
C3816 C3815 1.400 . S
C3816 C3819 1.386 . S
H3817 C3833 0.930 . S
H3818 C3834 0.931 . S
C3819 H3807 0.929 . S
C3819 C3813 1.390 . S
C3819 C3816 1.386 . S
C3820 C3815 1.490 . S
C3820 C3822 1.395 . S
C3820 C3823 1.403 . S
H3821 C3827 0.930 . S
C3822 H3808 0.930 . S
C3822 C3820 1.395 . S
C3822 C3825 1.403 . S
C3823 C3820 1.403 . S
C3823 C3824 1.524 . S
C3823 C3827 1.400 . S
C3824 H3809 0.960 . S
C3824 H3810 0.960 . S
C3824 H3811 0.960 . S
C3824 C3823 1.524 . S
C3825 C3822 1.403 . S
C3825 C3826 1.392 . S
C3825 C3829 1.495 . S
C3826 C3825 1.392 . S
C3826 C3827 1.385 . S
C3826 C3828 1.478 . S
C3827 H3821 0.930 . S
C3827 C3823 1.400 . S
C3827 C3826 1.385 . S
C3828 C3826 1.478 . S
C3828 C3830 1.381 . S
C3828 C3834 1.383 . S
C3829 C3825 1.495 . S
C3829 H3835 0.959 . S
C3829 H3836 0.961 . S
C3829 H3837 0.960 . S
C3830 C3828 1.381 . S
C3830 C3831 1.394 . S
C3830 H3838 0.930 . S
C3831 C3830 1.394 . S
C3831 C3832 1.383 . S
C3831 H3839 0.929 . S
C3832 C3831 1.383 . S
C3832 C3833 1.377 . S
C3833 H3817 0.930 . S
C3833 C3832 1.377 . S
C3833 C3834 1.379 . S
C3834 H3818 0.931 . S
C3834 C3828 1.383 . S
C3834 C3833 1.379 . S
H3835 C3829 0.959 . S
H3836 C3829 0.961 . S
H3837 C3829 0.960 . S
H3838 C3830 0.930 . S
H3839 C3831 0.929 . S
H3840 C3848 0.929 . S
H3841 C3850 0.930 . S
H3842 C3852 0.930 . S
H3843 C3855 0.929 . S
H3844 C3858 0.930 . S
H3845 C3860 0.960 . S
H3846 C3860 0.960 . S
H3847 C3860 0.960 . S
C3848 H3840 0.929 . S
C3848 C3849 1.377 . S
C3848 C3850 1.384 . S
C3849 C3848 1.377 . S
C3849 C3855 1.390 . S
C3850 H3841 0.930 . S
C3850 C3848 1.384 . S
C3850 C3851 1.372 . S
C3851 C3850 1.372 . S
C3851 C3852 1.400 . S
C3851 C3856 1.490 . S
C3852 H3842 0.930 . S
C3852 C3851 1.400 . S
C3852 C3855 1.386 . S
H3853 C3869 0.930 . S
H3854 C3870 0.931 . S
C3855 H3843 0.929 . S
C3855 C3849 1.390 . S
C3855 C3852 1.386 . S
C3856 C3851 1.490 . S
C3856 C3858 1.395 . S
C3856 C3859 1.403 . S
H3857 C3863 0.930 . S
C3858 H3844 0.930 . S
C3858 C3856 1.395 . S
C3858 C3861 1.403 . S
C3859 C3856 1.403 . S
C3859 C3860 1.524 . S
C3859 C3863 1.400 . S
C3860 H3845 0.960 . S
C3860 H3846 0.960 . S
C3860 H3847 0.960 . S
C3860 C3859 1.524 . S
C3861 C3858 1.403 . S
C3861 C3862 1.392 . S
C3861 C3865 1.495 . S
C3862 C3861 1.392 . S
C3862 C3863 1.385 . S
C3862 C3864 1.478 . S
C3863 H3857 0.930 . S
C3863 C3859 1.400 . S
C3863 C3862 1.385 . S
C3864 C3862 1.478 . S
C3864 C3866 1.381 . S
C3864 C3870 1.383 . S
C3865 C3861 1.495 . S
C3865 H3871 0.959 . S
C3865 H3872 0.961 . S
C3865 H3873 0.960 . S
C3866 C3864 1.381 . S
C3866 C3867 1.394 . S
C3866 H3874 0.930 . S
C3867 C3866 1.394 . S
C3867 C3868 1.383 . S
C3867 H3875 0.929 . S
C3868 C3867 1.383 . S
C3868 C3869 1.377 . S
C3869 H3853 0.930 . S
C3869 C3868 1.377 . S
C3869 C3870 1.379 . S
C3870 H3854 0.931 . S
C3870 C3864 1.383 . S
C3870 C3869 1.379 . S
H3871 C3865 0.959 . S
H3872 C3865 0.961 . S
H3873 C3865 0.960 . S
H3874 C3866 0.930 . S
H3875 C3867 0.929 . S
H3876 C3884 0.929 . S
H3877 C3886 0.930 . S
H3878 C3888 0.930 . S
H3879 C3891 0.929 . S
H3880 C3894 0.930 . S
H3881 C3896 0.960 . S
H3882 C3896 0.960 . S
H3883 C3896 0.960 . S
C3884 H3876 0.929 . S
C3884 C3885 1.377 . S
C3884 C3886 1.384 . S
C3885 C3884 1.377 . S
C3885 C3891 1.390 . S
C3886 H3877 0.930 . S
C3886 C3884 1.384 . S
C3886 C3887 1.372 . S
C3887 C3886 1.372 . S
C3887 C3888 1.400 . S
C3887 C3892 1.490 . S
C3888 H3878 0.930 . S
C3888 C3887 1.400 . S
C3888 C3891 1.386 . S
H3889 C3905 0.930 . S
H3890 C3906 0.931 . S
C3891 H3879 0.929 . S
C3891 C3885 1.390 . S
C3891 C3888 1.386 . S
C3892 C3887 1.490 . S
C3892 C3894 1.395 . S
C3892 C3895 1.403 . S
H3893 C3899 0.930 . S
C3894 H3880 0.930 . S
C3894 C3892 1.395 . S
C3894 C3897 1.403 . S
C3895 C3892 1.403 . S
C3895 C3896 1.524 . S
C3895 C3899 1.400 . S
C3896 H3881 0.960 . S
C3896 H3882 0.960 . S
C3896 H3883 0.960 . S
C3896 C3895 1.524 . S
C3897 C3894 1.403 . S
C3897 C3898 1.392 . S
C3897 C3901 1.495 . S
C3898 C3897 1.392 . S
C3898 C3899 1.385 . S
C3898 C3900 1.478 . S
C3899 H3893 0.930 . S
C3899 C3895 1.400 . S
C3899 C3898 1.385 . S
C3900 C3898 1.478 . S
C3900 C3902 1.381 . S
C3900 C3906 1.383 . S
C3901 C3897 1.495 . S
C3901 H3907 0.959 . S
C3901 H3908 0.961 . S
C3901 H3909 0.960 . S
C3902 C3900 1.381 . S
C3902 C3903 1.394 . S
C3902 H3910 0.930 . S
C3903 C3902 1.394 . S
C3903 C3904 1.383 . S
C3903 H3911 0.929 . S
C3904 C3903 1.383 . S
C3904 C3905 1.377 . S
C3905 H3889 0.930 . S
C3905 C3904 1.377 . S
C3905 C3906 1.379 . S
C3906 H3890 0.931 . S
C3906 C3900 1.383 . S
C3906 C3905 1.379 . S
H3907 C3901 0.959 . S
H3908 C3901 0.961 . S
H3909 C3901 0.960 . S
H3910 C3902 0.930 . S
H3911 C3903 0.929 . S
H3912 C3920 0.929 . S
H3913 C3922 0.930 . S
H3914 C3924 0.930 . S
H3915 C3927 0.929 . S
H3916 C3930 0.930 . S
H3917 C3932 0.960 . S
H3918 C3932 0.960 . S
H3919 C3932 0.960 . S
C3920 H3912 0.929 . S
C3920 C3921 1.377 . S
C3920 C3922 1.384 . S
C3921 C3920 1.377 . S
C3921 C3927 1.390 . S
C3922 H3913 0.930 . S
C3922 C3920 1.384 . S
C3922 C3923 1.372 . S
C3923 C3922 1.372 . S
C3923 C3924 1.400 . S
C3923 C3928 1.490 . S
C3924 H3914 0.930 . S
C3924 C3923 1.400 . S
C3924 C3927 1.386 . S
H3925 C3941 0.930 . S
H3926 C3942 0.931 . S
C3927 H3915 0.929 . S
C3927 C3921 1.390 . S
C3927 C3924 1.386 . S
C3928 C3923 1.490 . S
C3928 C3930 1.395 . S
C3928 C3931 1.403 . S
H3929 C3935 0.930 . S
C3930 H3916 0.930 . S
C3930 C3928 1.395 . S
C3930 C3933 1.403 . S
C3931 C3928 1.403 . S
C3931 C3932 1.524 . S
C3931 C3935 1.400 . S
C3932 H3917 0.960 . S
C3932 H3918 0.960 . S
C3932 H3919 0.960 . S
C3932 C3931 1.524 . S
C3933 C3930 1.403 . S
C3933 C3934 1.377 1_565 S
C3933 C3937 1.495 1_565 S
C3934 C3933 1.377 1_545 S
C3934 C3935 1.347 1_545 S
C3934 C3936 1.531 . S
C3935 H3929 0.930 . S
C3935 C3931 1.400 . S
C3935 C3934 1.347 1_565 S
C3936 C3934 1.531 . S
C3936 C3938 1.381 . S
C3936 C3942 1.383 . S
C3937 C3933 1.495 1_545 S
C3937 H3943 0.959 . S
C3937 H3944 0.961 . S
C3937 H3945 0.960 . S
C3938 C3936 1.381 . S
C3938 C3939 1.394 . S
C3938 H3946 0.930 . S
C3939 C3938 1.394 . S
C3939 C3940 1.383 . S
C3939 H3947 0.929 . S
C3940 C3939 1.383 . S
C3940 C3941 1.377 . S
C3941 H3925 0.930 . S
C3941 C3940 1.377 . S
C3941 C3942 1.379 . S
C3942 H3926 0.931 . S
C3942 C3936 1.383 . S
C3942 C3941 1.379 . S
H3943 C3937 0.959 . S
H3944 C3937 0.961 . S
H3945 C3937 0.960 . S
H3946 C3938 0.930 . S
H3947 C3939 0.929 . S
H3948 C3956 0.929 . S
H3949 C3958 0.930 . S
H3950 C3960 0.930 . S
H3951 C3963 0.929 . S
H3952 C3966 0.930 . S
H3953 C3968 0.960 . S
H3954 C3968 0.960 . S
H3955 C3968 0.960 . S
C3956 H3948 0.929 . S
C3956 C3957 1.377 . S
C3956 C3958 1.384 . S
C3957 C3956 1.377 . S
C3957 C3963 1.390 . S
C3958 H3949 0.930 . S
C3958 C3956 1.384 . S
C3958 C3959 1.372 . S
C3959 C3958 1.372 . S
C3959 C3960 1.400 . S
C3959 C3964 1.490 . S
C3960 H3950 0.930 . S
C3960 C3959 1.400 . S
C3960 C3963 1.386 . S
H3961 C3977 0.930 . S
H3962 C3978 0.931 . S
C3963 H3951 0.929 . S
C3963 C3957 1.390 . S
C3963 C3960 1.386 . S
C3964 C3959 1.490 . S
C3964 C3966 1.395 . S
C3964 C3967 1.403 . S
H3965 C3971 0.930 . S
C3966 H3952 0.930 . S
C3966 C3964 1.395 . S
C3966 C3969 1.403 . S
C3967 C3964 1.403 . S
C3967 C3968 1.524 . S
C3967 C3971 1.400 . S
C3968 H3953 0.960 . S
C3968 H3954 0.960 . S
C3968 H3955 0.960 . S
C3968 C3967 1.524 . S
C3969 C3966 1.403 . S
C3969 C3970 1.392 . S
C3969 C3973 1.495 . S
C3970 C3969 1.392 . S
C3970 C3971 1.385 . S
C3970 C3972 1.478 . S
C3971 H3965 0.930 . S
C3971 C3967 1.400 . S
C3971 C3970 1.385 . S
C3972 C3970 1.478 . S
C3972 C3974 1.381 . S
C3972 C3978 1.383 . S
C3973 C3969 1.495 . S
C3973 H3979 0.959 . S
C3973 H3980 0.961 . S
C3973 H3981 0.960 . S
C3974 C3972 1.381 . S
C3974 C3975 1.394 . S
C3974 H3982 0.930 . S
C3975 C3974 1.394 . S
C3975 C3976 1.383 . S
C3975 H3983 0.929 . S
C3976 C3975 1.383 . S
C3976 C3977 1.377 . S
C3977 H3961 0.930 . S
C3977 C3976 1.377 . S
C3977 C3978 1.379 . S
C3978 H3962 0.931 . S
C3978 C3972 1.383 . S
C3978 C3977 1.379 . S
H3979 C3973 0.959 . S
H3980 C3973 0.961 . S
H3981 C3973 0.960 . S
H3982 C3974 0.930 . S
H3983 C3975 0.929 . S
H3984 C3992 0.929 . S
H3985 C3994 0.930 . S
H3986 C3996 0.930 . S
H3987 C3999 0.929 . S
H3988 C4002 0.930 . S
H3989 C4004 0.960 . S
H3990 C4004 0.960 . S
H3991 C4004 0.960 . S
C3992 H3984 0.929 . S
C3992 C3993 1.377 . S
C3992 C3994 1.384 . S
C3993 C3992 1.377 . S
C3993 C3999 1.390 . S
C3994 H3985 0.930 . S
C3994 C3992 1.384 . S
C3994 C3995 1.372 . S
C3995 C3994 1.372 . S
C3995 C3996 1.400 . S
C3995 C4000 1.490 . S
C3996 H3986 0.930 . S
C3996 C3995 1.400 . S
C3996 C3999 1.386 . S
H3997 C4013 0.930 . S
H3998 C4014 0.931 . S
C3999 H3987 0.929 . S
C3999 C3993 1.390 . S
C3999 C3996 1.386 . S
C4000 C3995 1.490 . S
C4000 C4002 1.395 . S
C4000 C4003 1.403 . S
H4001 C4007 0.930 . S
C4002 H3988 0.930 . S
C4002 C4000 1.395 . S
C4002 C4005 1.403 . S
C4003 C4000 1.403 . S
C4003 C4004 1.524 . S
C4003 C4007 1.400 . S
C4004 H3989 0.960 . S
C4004 H3990 0.960 . S
C4004 H3991 0.960 . S
C4004 C4003 1.524 . S
C4005 C4002 1.403 . S
C4005 C4006 1.392 . S
C4005 C4009 1.495 . S
C4006 C4005 1.392 . S
C4006 C4007 1.385 . S
C4006 C4008 1.478 . S
C4007 H4001 0.930 . S
C4007 C4003 1.400 . S
C4007 C4006 1.385 . S
C4008 C4006 1.478 . S
C4008 C4010 1.381 . S
C4008 C4014 1.383 . S
C4009 C4005 1.495 . S
C4009 H4015 0.959 . S
C4009 H4016 0.961 . S
C4009 H4017 0.960 . S
C4010 C4008 1.381 . S
C4010 C4011 1.394 . S
C4010 H4018 0.930 . S
C4011 C4010 1.394 . S
C4011 C4012 1.383 . S
C4011 H4019 0.929 . S
C4012 C4011 1.383 . S
C4012 C4013 1.377 . S
C4013 H3997 0.930 . S
C4013 C4012 1.377 . S
C4013 C4014 1.379 . S
C4014 H3998 0.931 . S
C4014 C4008 1.383 . S
C4014 C4013 1.379 . S
H4015 C4009 0.959 . S
H4016 C4009 0.961 . S
H4017 C4009 0.960 . S
H4018 C4010 0.930 . S
H4019 C4011 0.929 . S
H4020 C4028 0.929 . S
H4021 C4030 0.930 . S
H4022 C4032 0.930 . S
H4023 C4035 0.929 . S
H4024 C4038 0.930 . S
H4025 C4040 0.960 . S
H4026 C4040 0.960 . S
H4027 C4040 0.960 . S
C4028 H4020 0.929 . S
C4028 C4029 1.377 . S
C4028 C4030 1.384 . S
C4029 C4028 1.377 . S
C4029 C4035 1.390 . S
C4030 H4021 0.930 . S
C4030 C4028 1.384 . S
C4030 C4031 1.372 . S
C4031 C4030 1.372 . S
C4031 C4032 1.400 . S
C4031 C4036 1.490 . S
C4032 H4022 0.930 . S
C4032 C4031 1.400 . S
C4032 C4035 1.386 . S
H4033 C4049 0.930 . S
H4034 C4050 0.931 . S
C4035 H4023 0.929 . S
C4035 C4029 1.390 . S
C4035 C4032 1.386 . S
C4036 C4031 1.490 . S
C4036 C4038 1.395 . S
C4036 C4039 1.403 . S
H4037 C4043 0.930 . S
C4038 H4024 0.930 . S
C4038 C4036 1.395 . S
C4038 C4041 1.403 . S
C4039 C4036 1.403 . S
C4039 C4040 1.524 . S
C4039 C4043 1.400 . S
C4040 H4025 0.960 . S
C4040 H4026 0.960 . S
C4040 H4027 0.960 . S
C4040 C4039 1.524 . S
C4041 C4038 1.403 . S
C4041 C4042 1.392 . S
C4041 C4045 1.495 . S
C4042 C4041 1.392 . S
C4042 C4043 1.385 . S
C4042 C4044 1.478 . S
C4043 H4037 0.930 . S
C4043 C4039 1.400 . S
C4043 C4042 1.385 . S
C4044 C4042 1.478 . S
C4044 C4046 1.381 . S
C4044 C4050 1.383 . S
C4045 C4041 1.495 . S
C4045 H4051 0.959 . S
C4045 H4052 0.961 . S
C4045 H4053 0.960 . S
C4046 C4044 1.381 . S
C4046 C4047 1.394 . S
C4046 H4054 0.930 . S
C4047 C4046 1.394 . S
C4047 C4048 1.383 . S
C4047 H4055 0.929 . S
C4048 C4047 1.383 . S
C4048 C4049 1.377 . S
C4049 H4033 0.930 . S
C4049 C4048 1.377 . S
C4049 C4050 1.379 . S
C4050 H4034 0.931 . S
C4050 C4044 1.383 . S
C4050 C4049 1.379 . S
H4051 C4045 0.959 . S
H4052 C4045 0.961 . S
H4053 C4045 0.960 . S
H4054 C4046 0.930 . S
H4055 C4047 0.929 . S
H4056 C4064 0.929 . S
H4057 C4066 0.930 . S
H4058 C4068 0.930 . S
H4059 C4071 0.929 . S
H4060 C4074 0.930 1_565 S
H4061 C4076 0.960 . S
H4062 C4076 0.960 . S
H4063 C4076 1.009 . S
C4064 H4056 0.929 . S
C4064 C4065 1.377 . S
C4064 C4066 1.384 . S
C4065 C4064 1.377 . S
C4065 C4071 1.390 . S
C4066 H4057 0.930 . S
C4066 C4064 1.384 . S
C4066 C4067 1.372 . S
C4067 C4066 1.372 . S
C4067 C4068 1.400 . S
C4067 C4072 1.481 1_565 S
C4068 H4058 0.930 . S
C4068 C4067 1.400 . S
C4068 C4071 1.386 . S
H4069 C4085 0.930 . S
H4070 C4086 0.931 . S
C4071 H4059 0.929 . S
C4071 C4065 1.390 . S
C4071 C4068 1.386 . S
C4072 C4067 1.481 1_545 S
C4072 C4074 1.397 . S
C4072 C4075 1.409 . S
H4073 C4079 0.930 . S
C4074 H4060 0.930 1_545 S
C4074 C4072 1.397 . S
C4074 C4077 1.403 . S
C4075 C4072 1.409 . S
C4075 C4076 1.524 . S
C4075 C4079 1.400 . S
C4076 H4061 0.960 . S
C4076 H4062 0.960 . S
C4076 H4063 1.009 . S
C4076 C4075 1.524 . S
C4077 C4074 1.403 . S
C4077 C4078 1.392 . S
C4077 C4081 1.495 . S
C4078 C4077 1.392 . S
C4078 C4079 1.385 . S
C4078 C4080 1.478 . S
C4079 H4073 0.930 . S
C4079 C4075 1.400 . S
C4079 C4078 1.385 . S
C4080 C4078 1.478 . S
C4080 C4082 1.381 . S
C4080 C4086 1.383 . S
C4081 C4077 1.495 . S
C4081 H4087 0.959 . S
C4081 H4088 0.961 . S
C4081 H4089 0.960 . S
C4082 C4080 1.381 . S
C4082 C4083 1.394 . S
C4082 H4090 0.930 . S
C4083 C4082 1.394 . S
C4083 C4084 1.383 . S
C4083 H4091 0.929 . S
C4084 C4083 1.383 . S
C4084 C4085 1.377 . S
C4085 H4069 0.930 . S
C4085 C4084 1.377 . S
C4085 C4086 1.379 . S
C4086 H4070 0.931 . S
C4086 C4080 1.383 . S
C4086 C4085 1.379 . S
H4087 C4081 0.959 . S
H4088 C4081 0.961 . S
H4089 C4081 0.960 . S
H4090 C4082 0.930 . S
H4091 C4083 0.929 . S
H4092 C4100 0.929 . S
H4093 C4102 0.930 . S
H4094 C4104 0.930 . S
H4095 C4107 0.929 . S
H4096 C4110 0.930 . S
H4097 C4112 0.960 . S
H4098 C4112 0.960 . S
H4099 C4112 0.960 . S
C4100 H4092 0.929 . S
C4100 C4101 1.377 . S
C4100 C4102 1.384 . S
C4101 C4100 1.377 . S
C4101 C4107 1.390 . S
C4102 H4093 0.930 . S
C4102 C4100 1.384 . S
C4102 C4103 1.372 . S
C4103 C4102 1.372 . S
C4103 C4104 1.400 . S
C4103 C4108 1.490 . S
C4104 H4094 0.930 . S
C4104 C4103 1.400 . S
C4104 C4107 1.386 . S
H4105 C4121 0.930 . S
H4106 C4122 0.931 . S
C4107 H4095 0.929 . S
C4107 C4101 1.390 . S
C4107 C4104 1.386 . S
C4108 C4103 1.490 . S
C4108 C4110 1.395 . S
C4108 C4111 1.403 . S
H4109 C4115 0.930 . S
C4110 H4096 0.930 . S
C4110 C4108 1.395 . S
C4110 C4113 1.403 . S
C4111 C4108 1.403 . S
C4111 C4112 1.524 . S
C4111 C4115 1.400 . S
C4112 H4097 0.960 . S
C4112 H4098 0.960 . S
C4112 H4099 0.960 . S
C4112 C4111 1.524 . S
C4113 C4110 1.403 . S
C4113 C4114 1.392 1_565 S
C4113 C4117 1.495 1_565 S
C4114 C4113 1.392 1_545 S
C4114 C4115 1.385 1_545 S
C4114 C4116 1.478 . S
C4115 H4109 0.930 . S
C4115 C4111 1.400 . S
C4115 C4114 1.385 1_565 S
C4116 C4114 1.478 . S
C4116 C4118 1.381 . S
C4116 C4122 1.383 . S
C4117 C4113 1.495 1_545 S
C4117 H4123 0.959 1_545 S
C4117 H4124 0.961 . S
C4117 H4125 0.960 . S
C4118 C4116 1.381 . S
C4118 C4119 1.394 . S
C4118 H4126 0.930 . S
C4119 C4118 1.394 . S
C4119 C4120 1.383 . S
C4119 H4127 0.929 . S
C4120 C4119 1.383 . S
C4120 C4121 1.377 . S
C4121 H4105 0.930 . S
C4121 C4120 1.377 . S
C4121 C4122 1.379 . S
C4122 H4106 0.931 . S
C4122 C4116 1.383 . S
C4122 C4121 1.379 . S
H4123 C4117 0.959 1_565 S
H4124 C4117 0.961 . S
H4125 C4117 0.960 . S
H4126 C4118 0.930 . S
H4127 C4119 0.929 . S
C681 C591 1.324 . S
C700 C3 1.342 . S
C717 C23 1.345 . S
C736 C217 1.349 . S
C753 C31 1.333 . S
C772 C563 1.296 . S
C789 C51 1.331 . S
C808 C245 1.325 . S
C825 C623 1.329 . S
C844 C63 1.304 . S
C861 C78 1.335 . S
C880 C297 1.340 . S
C897 C91 1.316 . S
C916 C651 1.339 . S
C933 C106 1.304 . S
C952 C269 1.311 . S
C969 C50 1.315 . S
C988 C661 1.293 . S
C1005 C7 1.302 . S
C1024 C357 1.322 . S
C1041 C371 1.317 . S
C1060 C22 1.308 . S
C1077 C35 1.300 . S
C1096 C339 1.310 . S
C1113 C79 1.357 . S
C1132 C343 1.356 . S
C1149 C87 1.341 . S
C1168 C665 1.327 . S
C1185 C107 1.353 . S
C1204 C353 1.344 . S
C1221 C59 1.350 . S
C1240 C367 1.328 . S
C1257 C549 1.321 . S
C1276 C120 1.331 . S
C1293 C134 1.303 . S
C1312 C273 1.302 . S
C1329 C121 1.326 . S
C1348 C619 1.293 . S
C1365 C301 1.357 . S
C1384 C149 1.345 . S
C1401 C311 1.306 . S
C1420 C162 1.316 . S
C1437 C577 1.348 . S
C1456 C177 1.348 . S
C1473 C595 1.347 . S
C1492 C191 1.342 . S
C1509 C567 1.356 . S
C1528 C205 1.363 . S
C1545 C465 1.281 . S
C1564 C218 1.292 . S
C1581 C233 1.361 . S
C1600 C9 1.323 . S
C1617 C246 1.298 . S
C1636 C437 1.302 . S
C1653 C37 1.336 . S
C1672 C261 1.376 . S
C1689 C275 1.301 . S
C1708 C497 1.293 . S
C1725 C92 1.327 . S
C1744 C288 1.310 . S
C1761 C303 1.298 . S
C1780 C525 1.295 . S
C1797 C64 1.362 . S
C1816 C316 1.364 . S
C1833 C535 1.298 . S
C1852 C260 1.298 . S
C1869 C219 1.316 . S
C1888 C143 1.302 . S
C1905 C161 1.303 . S
C1924 C232 1.308 . S
C1941 C133 1.316 . S
C1960 C247 1.310 . S
C1977 C129 1.335 . S
C1996 C289 1.330 . S
C2013 C302 1.272 . S
C2032 C539 1.277 . S
C2049 C147 1.347 . S
C2068 C317 1.338 . S
C2085 C274 1.267 . S
C2104 C157 1.271 . S
C2121 C330 1.332 . S
C2140 C428 1.336 . S
C2157 C345 1.393 . S
C2176 C65 1.377 . S
C2193 C331 1.331 . S
C2212 C493 1.337 . S
C2229 C358 1.363 . S
C2248 C93 1.316 . S
C2265 C372 1.310 . S
C2284 C101 1.297 . S
C2301 C456 1.354 . S
C2320 C387 1.339 . S
C2337 C401 1.326 . S
C2356 C469 1.331 . S
C2373 C415 1.335 . S
C2392 C441 1.323 . S
C2409 C423 1.348 . S
C2428 C255 1.332 . S
C2445 C443 1.332 . S
C2464 C553 1.330 . S
C2481 C227 1.317 . S
C2500 C451 1.325 . S
C2517 C471 1.339 . S
C2536 C581 1.342 . S
C2553 C483 1.318 . S
C2572 C287 1.338 . S
C2589 C633 1.298 . S
C2608 C498 1.292 . S
C2625 C511 1.308 . S
C2644 C315 1.329 . S
C2661 C605 1.302 . S
C2680 C526 1.317 . S
C2697 C325 1.309 . S
C2716 C470 1.308 . S
C2733 C413 1.319 . S
C2752 C427 1.315 . S
C2769 C442 1.321 . S
C2788 C385 1.324 . S
C2805 C399 1.316 . S
C2824 C455 1.314 . S
C2841 C499 1.350 . S
C2860 C395 1.352 . S
C2877 C329 1.340 . S
C2896 C507 1.341 . S
C2913 C527 1.350 . S
C2932 C409 1.354 . S
C2949 C479 1.346 . S
C2968 C381 1.325 . S
C2985 C540 1.322 . S
C3004 C213 1.324 . S
C3021 C190 1.295 . S
C3040 C609 1.289 . S
C3057 C283 1.321 . S
C3076 C541 1.318 . S
C3093 C637 1.311 . S
C3112 C204 1.298 . S
C3129 C647 1.297 . S
C3148 C176 1.299 . S
C3165 C163 1.356 . S
C3184 C241 1.359 . S
C3201 C135 1.361 . S
C3220 C259 1.354 . S
C3237 C231 1.329 . S
C3256 C148 1.321 . S
C3273 C554 1.287 . S
C3292 C45 1.291 . S
C3309 C429 1.330 . S
C3328 C569 1.371 . S
C3345 C582 1.302 . S
C3364 C17 1.303 . S
C3381 C597 1.362 . S
C3400 C457 1.342 . S
C3417 C77 1.292 . S
C3436 C611 1.294 . S
C3453 C624 1.329 . S
C3472 C512 1.328 . S
C3489 C639 1.301 . S
C3508 C105 1.301 . S
C3525 C484 1.333 . S
C3544 C652 1.336 . S
C3561 C596 1.310 . S
C3580 C115 1.289 . S
C3597 C203 1.317 . S
C3616 C555 1.317 . S
C3633 C175 1.304 . S
C3652 C568 1.309 . S
C3669 C583 1.313 . S
C3688 C189 1.303 . S
C3705 C625 1.336 . S
C3724 C185 1.338 . S
C3741 C119 1.267 . S
C3760 C638 1.278 . S
C3777 C199 1.338 . S
C3796 C653 1.330 . S
C3813 C610 1.271 . S
C3832 C171 1.271 . S
C3849 C8 1.332 . S
C3868 C666 1.320 . S
C3885 C400 1.352 . S
C3904 C485 1.342 . S
C3921 C73 1.344 . S
C3940 C667 1.334 . S
C3957 C513 1.332 . S
C3976 C414 1.366 . S
C3993 C521 1.293 . S
C4012 C386 1.291 . S
C4029 C373 1.342 . S
C4048 C36 1.349 . S
C4065 C344 1.292 . S
C4084 C49 1.297 . S
C4101 C21 1.348 . S
C4120 C359 1.343 . S
