# Generated by pormake.
# Topology rob, (6)-cn, num edge types: 1
# Building blocks:
#     Node 0, Type 0, BuildingBlock: KUMBUR_clean_sbu_0, # of connection points: 6
#     Node 1, Type 0, BuildingBlock: KUMBUR_clean_sbu_0, # of connection points: 6
#     Node 2, Type 0, BuildingBlock: KUMBUR_clean_sbu_0, # of connection points: 6
#     Node 3, Type 0, BuildingBlock: KUMBUR_clean_sbu_0, # of connection points: 6
#     Edge 4, Type (0, 0), BuildingBlock: FUNLAD_clean_linker_1, # of connection points: 2
#     Edge 5, Type (0, 0), BuildingBlock: FUNLAD_clean_linker_1, # of connection points: 2
#     Edge 6, Type (0, 0), BuildingBlock: FUNLAD_clean_linker_1, # of connection points: 2
#     Edge 7, Type (0, 0), BuildingBlock: FUNLAD_clean_linker_1, # of connection points: 2
#     Edge 8, Type (0, 0), BuildingBlock: FUNLAD_clean_linker_1, # of connection points: 2
#     Edge 9, Type (0, 0), BuildingBlock: FUNLAD_clean_linker_1, # of connection points: 2
#     Edge 10, Type (0, 0), BuildingBlock: FUNLAD_clean_linker_1, # of connection points: 2
#     Edge 11, Type (0, 0), BuildingBlock: FUNLAD_clean_linker_1, # of connection points: 2
#     Edge 12, Type (0, 0), BuildingBlock: FUNLAD_clean_linker_1, # of connection points: 2
#     Edge 13, Type (0, 0), BuildingBlock: FUNLAD_clean_linker_1, # of connection points: 2
#     Edge 14, Type (0, 0), BuildingBlock: FUNLAD_clean_linker_1, # of connection points: 2
#     Edge 15, Type (0, 0), BuildingBlock: FUNLAD_clean_linker_1, # of connection points: 2
# Relax obj value: 0.035
# Max RMSD: 0.158
# Mean RMSD: 0.158
data_MOF--net-rob--node1-KUMBUR_clean_sbu_0--edge1-FUNLAD_clean_linker_1
_symmetry_space_group_name_H-M    P1
_symmetry_Int_Tables_number       1
_symmetry_cell_setting            triclinic
loop_
_symmetry_equiv_pos_as_xyz
'x, y, z'
_cell_length_a     16.664338
_cell_length_b     26.411956
_cell_length_c     35.215475
_cell_angle_alpha  118.08532
_cell_angle_beta   89.53534
_cell_angle_gamma 90.421829
loop_
_atom_site_label
_atom_site_type_symbol
_atom_site_fract_x
_atom_site_fract_y
_atom_site_fract_z
_atom_type_partial_charge
Tb0 Tb 0.17468 0.33773 0.07985 0.0
C1 C 0.35777 0.11274 0.97471 0.0
C2 C 0.48438 0.12764 0.01166 0.0
C3 C 0.43221 0.03101 0.96957 0.0
C4 C 0.41582 0.14951 1.00123 0.0
C5 C 0.36557 0.05294 0.95806 0.0
C6 C 0.49176 0.06825 0.9961 0.0
C7 C 0.24697 0.04093 0.9156 0.0
N8 N 0.296 0.13551 0.96316 0.0
C9 C 0.24253 0.10055 0.93259 0.0
C10 C 0.30784 0.01706 0.92904 0.0
Tb11 Tb 0.29419 0.23316 0.99192 0.0
N12 N 0.40724 0.20647 0.01477 0.0
C13 C 0.46731 0.24382 0.03764 0.0
C14 C 0.54424 0.16598 0.03657 0.0
C15 C 0.53593 0.22429 0.04929 0.0
H16 H 0.19518 0.11887 0.92219 0.0
H17 H 0.58241 0.25431 0.06806 0.0
H18 H 0.54416 0.05062 1.00353 0.0
H19 H 0.20361 1.01342 0.8921 0.0
H20 H 0.46271 0.28905 0.04781 0.0
H21 H 0.91342 0.34614 0.9928 0.0
H22 H 0.59761 0.15093 0.04546 0.0
H23 H 0.26614 0.44258 0.1642 0.0
H24 H 0.00887 0.30034 0.0202 0.0
H25 H 0.27524 0.54812 0.19842 0.0
H26 H 0.43955 0.98535 0.95725 0.0
H27 H 0.92741 0.44909 0.01356 0.0
H28 H 0.99942 0.54337 0.05816 0.0
H29 H 0.31089 0.97092 0.91596 0.0
H30 H 0.09408 0.59941 0.11642 0.0
N31 N 0.07732 0.37655 0.05583 0.0
C32 C 0.01537 0.34548 0.02994 0.0
C33 C 0.96908 0.42947 0.02608 0.0
C34 C 0.02888 0.46194 0.05523 0.0
C35 C 0.96095 0.37131 0.01433 0.0
C36 C 0.08155 0.43395 0.07024 0.0
H37 H 0.19592 0.60167 0.17 0.0
N38 N 0.18343 0.43599 0.11621 0.0
C39 C 0.23635 0.52521 0.17103 0.0
C40 C 0.13595 0.46504 0.10206 0.0
C41 C 0.23106 0.46527 0.15148 0.0
C42 C 0.19148 0.55531 0.15492 0.0
C43 C 0.13975 0.52526 0.12027 0.0
O44 O 0.17122 0.34007 0.14037 0.0
O45 O 0.26317 0.27125 0.05865 0.0
O46 O 0.21225 0.18571 0.01295 0.0
O47 O 0.11151 0.25449 0.04395 0.0
O48 O 0.2819 0.33999 0.11641 0.0
O49 O 0.06226 0.33315 0.10604 0.0
O50 O 0.28781 0.20775 0.92572 0.0
O51 O 0.2073 0.30003 0.01292 0.0
O52 O 0.26041 0.38879 0.06602 0.0
O53 O 0.35316 0.31902 0.02142 0.0
O54 O 0.18527 0.23042 0.95647 0.0
O55 O 0.39382 0.24948 0.96209 0.0
C56 C 0.30995 0.29026 0.09019 0.0
C57 C 0.0555 0.37741 0.18236 0.0
C58 C 0.00697 0.39466 0.25314 0.0
C59 C 0.03972 0.35793 0.21248 0.0
C60 C 0.9895 0.45175 0.26313 0.0
C61 C 0.03785 0.43427 0.19275 0.0
C62 C 0.00499 0.47118 0.233 0.0
C63 C 0.13803 0.20096 0.02778 0.0
C64 C 0.09354 0.3378 0.1413 0.0
C65 C 0.09103 0.55325 0.10363 0.0
C66 C 0.0365 0.52142 0.0707 0.0
C67 C 0.16213 0.28232 0.98076 0.0
C68 C 0.40942 0.18977 0.88692 0.0
C69 C 0.42388 0.207 0.85534 0.0
C70 C 0.46978 0.17292 0.81837 0.0
C71 C 0.50012 0.12037 0.81328 0.0
C72 C 0.44084 0.13777 0.88156 0.0
C73 C 0.48581 0.10323 0.84479 0.0
C74 C 0.32945 0.3732 0.04518 0.0
C75 C 0.35969 0.22647 0.92442 0.0
H76 H 0.05377 0.31389 0.20428 0.0
H77 H 0.96285 0.48133 0.29361 0.0
H78 H 0.0495 0.4501 0.16993 0.0
H79 H 0.99135 0.51499 0.2408 0.0
H80 H 0.39933 0.24733 0.85968 0.0
H81 H 0.53401 0.09189 0.78501 0.0
H82 H 0.43025 0.12376 0.90549 0.0
H83 H 0.50939 0.06281 0.84057 0.0
Tb84 Tb 0.6915 0.79907 0.03941 0.0
C85 C 0.85931 0.57142 0.92958 0.0
C86 C 0.9658 0.57678 0.97747 0.0
C87 C 0.90732 0.48426 0.92866 0.0
C88 C 0.91214 0.6037 0.96204 0.0
C89 C 0.85807 0.51113 0.91136 0.0
C90 C 0.96019 0.51725 0.96214 0.0
C91 C 0.76277 0.50886 0.85929 0.0
N92 N 0.81083 0.59938 0.91488 0.0
C93 C 0.76522 0.56888 0.87891 0.0
C94 C 0.80827 0.47986 0.87605 0.0
Tb95 Tb 0.81488 0.6979 0.95207 0.0
N96 N 0.91416 0.66121 0.97658 0.0
C97 C 0.97531 0.69336 1.00259 0.0
C98 C 0.0247 0.6103 1.00681 0.0
C99 C 0.03093 0.66853 0.01841 0.0
H100 H 0.7303 0.5904 0.8652 0.0
H101 H 0.07787 0.69451 0.04 0.0
H102 H 0.99762 0.49618 0.97524 0.0
H103 H 0.72571 0.485 0.83125 0.0
H104 H 0.98031 0.73855 0.01224 0.0
H105 H 0.40144 0.77119 0.9641 0.0
H106 H 0.06732 0.59141 0.01946 0.0
H107 H 0.78578 0.91581 0.10957 0.0
H108 H 0.52409 0.73937 0.98442 0.0
H109 H 0.77102 0.02096 0.14042 0.0
H110 H 0.90605 0.43807 0.91594 0.0
H111 H 0.38236 0.87387 0.98527 0.0
H112 H 0.43381 0.97473 0.02465 0.0
H113 H 0.80599 0.43341 0.86089 0.0
H114 H 0.53491 0.04331 0.07276 0.0
N115 N 0.57671 0.82299 0.0162 0.0
C116 C 0.51761 0.78431 0.99388 0.0
C117 C 0.43691 0.8601 0.99419 0.0
C118 C 0.49619 0.89973 0.0183 0.0
C119 C 0.4474 0.80217 0.98228 0.0
C120 C 0.56583 0.87962 0.02923 0.0
H121 H 0.66002 0.06091 0.11665 0.0
N122 N 0.68507 0.89664 0.06817 0.0
C123 C 0.7291 0.99241 0.11646 0.0
C124 C 0.62206 0.91786 0.05622 0.0
C125 C 0.7371 0.93291 0.09904 0.0
C126 C 0.66644 1.01481 0.10293 0.0
C127 C 0.61114 0.97745 0.07298 0.0
O128 O 0.69627 0.82696 0.10623 0.0
O129 O 0.78249 0.73499 0.01904 0.0
O130 O 0.73237 0.64426 0.96523 0.0
O131 O 0.63767 0.71162 1.01064 0.0
O132 O 0.80083 0.80496 0.07558 0.0
O133 O 0.59472 0.77896 0.06865 0.0
O134 O 0.81752 0.70673 0.89558 0.0
O135 O 0.72084 0.76122 0.97204 0.0
O136 O 0.77019 0.84822 0.01841 0.0
O137 O 0.87431 0.78215 0.98899 0.0
O138 O 0.70532 0.68802 0.91577 0.0
O139 O 0.92655 0.69661 0.92278 0.0
C140 C 0.82692 0.75383 0.05154 0.0
C141 C 0.57239 0.84042 0.14312 0.0
C142 C 0.51884 0.86346 0.21439 0.0
C143 C 0.57355 0.8337 0.18051 0.0
C144 C 0.46443 0.90155 0.21094 0.0
C145 C 0.5179 0.87876 0.14038 0.0
C146 C 0.4645 0.90933 0.17428 0.0
C147 C 0.66379 0.65809 0.9867 0.0
C148 C 0.62632 0.8052 0.10694 0.0
C149 C 0.54395 0.99769 0.06053 0.0
C150 C 0.48654 0.95882 0.03321 0.0
C151 C 0.67376 0.7372 0.94052 0.0
C152 C 0.92402 0.66342 0.84718 0.0
C153 C 0.94214 0.6869 0.8196 0.0
C154 C 0.96751 0.65173 0.77685 0.0
C155 C 0.97434 0.5922 0.76213 0.0
C156 C 0.93208 0.60422 0.83197 0.0
C157 C 0.95653 0.56888 0.78959 0.0
C158 C 0.84509 0.83479 1.00428 0.0
C159 C 0.8946 0.70149 0.8911 0.0
H160 H 0.61555 0.80401 0.1827 0.0
H161 H 0.42254 0.92584 0.23677 0.0
H162 H 0.51614 0.88465 0.11199 0.0
H163 H 0.42261 0.93892 0.17202 0.0
H164 H 0.93616 0.73276 0.83144 0.0
H165 H 0.99518 0.56348 0.72996 0.0
H166 H 0.91989 0.5853 0.85276 0.0
H167 H 0.96228 0.5232 0.77809 0.0
Tb168 Tb 0.184 0.71011 0.45771 0.0
C169 C 0.44219 0.90085 0.54144 0.0
C170 C 0.55784 0.86681 0.49437 0.0
C171 C 0.53528 0.96937 0.53728 0.0
C172 C 0.48681 0.85606 0.51143 0.0
C173 C 0.46629 0.95812 0.55532 0.0
C174 C 0.58109 0.92375 0.50686 0.0
C175 C 0.35517 0.98837 0.6056 0.0
N176 N 0.37612 0.88804 0.55795 0.0
C177 C 0.33409 0.93076 0.5909 0.0
C178 C 0.42111 1.00216 0.5874 0.0
Tb179 Tb 0.3444 0.79263 0.53056 0.0
N180 N 0.46138 0.80182 0.49971 0.0
C181 C 0.50752 0.75606 0.47301 0.0
C182 C 0.60407 0.82005 0.46604 0.0
C183 C 0.57956 0.7645 0.45602 0.0
H184 H 0.28267 0.92048 0.60489 0.0
H185 H 0.61559 0.72805 0.43471 0.0
H186 H 0.63496 0.93294 0.49373 0.0
H187 H 0.32054 0.02207 0.6309 0.0
H188 H 0.48904 0.7128 0.46448 0.0
H189 H 0.91777 0.78557 0.55786 0.0
H190 H 0.65934 0.82637 0.45238 0.0
H191 H 0.24234 0.57836 0.3885 0.0
H192 H 0.0391 0.79543 0.52199 0.0
H193 H 0.20402 0.47881 0.36948 0.0
H194 H 0.55446 1.01309 0.54717 0.0
H195 H 0.87445 0.68997 0.54705 0.0
H196 H 0.89604 0.58307 0.50997 0.0
H197 H 0.43755 0.04671 0.59883 0.0
H198 H 0.97384 0.49948 0.45856 0.0
N199 N 0.0664 0.70598 0.49078 0.0
C200 C 0.02132 0.75318 0.51632 0.0
C201 C 0.92792 0.69388 0.53089 0.0
C202 C 0.97218 0.64546 0.50333 0.0
C203 C 0.95214 0.74788 0.53701 0.0
C204 C 0.04159 0.65308 0.48336 0.0
H205 H 0.08915 0.46052 0.40644 0.0
N206 N 0.15074 0.61605 0.43611 0.0
C207 C 0.17023 0.51438 0.39368 0.0
C208 C 0.08522 0.60638 0.45488 0.0
C209 C 0.19162 0.57089 0.40449 0.0
C210 C 0.10531 0.50411 0.41448 0.0
C211 C 0.06103 0.55031 0.44499 0.0
O212 O 0.17568 0.6799 0.39086 0.0
O213 O 0.29678 0.75569 0.46581 0.0
O214 O 0.28308 0.85116 0.51262 0.0
O215 O 0.1595 0.80394 0.48905 0.0
O216 O 0.28469 0.67886 0.41229 0.0
O217 O 0.09087 0.74134 0.43456 0.0
O218 O 0.35699 0.81664 0.59627 0.0
O219 O 0.23086 0.75156 0.52082 0.0
O220 O 0.24016 0.65641 0.4822 0.0
O221 O 0.3671 0.69879 0.49744 0.0
O222 O 0.24888 0.81636 0.58011 0.0
O223 O 0.43676 0.75463 0.54859 0.0
C224 C 0.33121 0.7227 0.43079 0.0
C225 C 0.04651 0.6789 0.36387 0.0
C226 C 0.97787 0.65789 0.29693 0.0
C227 C 0.03976 0.68534 0.32667 0.0
C228 C 0.92343 0.62262 0.30458 0.0
C229 C 0.99176 0.64371 0.37103 0.0
C230 C 0.93072 0.61557 0.34137 0.0
C231 C 0.20629 0.85039 0.50281 0.0
C232 C 0.11132 0.70941 0.39442 0.0
C233 C 0.99313 0.54225 0.46549 0.0
C234 C 0.94882 0.58982 0.49471 0.0
C235 C 0.19858 0.77673 0.55719 0.0
C236 C 0.48486 0.80645 0.62 0.0
C237 C 0.48753 0.79384 0.65448 0.0
C238 C 0.54988 0.8149 0.68477 0.0
C239 C 0.60973 0.84958 0.68 0.0
C240 C 0.54491 0.84074 0.61563 0.0
C241 C 0.60704 0.86216 0.6456 0.0
C242 C 0.3173 0.65586 0.49088 0.0
C243 C 0.41837 0.7831 0.58938 0.0
H244 H 0.08223 0.7126 0.32119 0.0
H245 H 0.87619 0.59961 0.28198 0.0
H246 H 0.99609 0.63804 0.3994 0.0
H247 H 0.88891 0.58812 0.34688 0.0
H248 H 0.44074 0.76722 0.65762 0.0
H249 H 0.65818 0.8678 0.70275 0.0
H250 H 0.54366 0.85096 0.58927 0.0
H251 H 0.65321 0.88888 0.64227 0.0
Tb252 Tb 0.6807 0.22206 0.48749 0.0
C253 C 0.89189 0.43575 0.58446 0.0
C254 C 0.01396 0.41515 0.54231 0.0
C255 C 0.96937 0.51391 0.58412 0.0
C256 C 0.94613 0.39656 0.55663 0.0
C257 C 0.90315 0.49499 0.5991 0.0
C258 C 0.02466 0.47401 0.55571 0.0
C259 C 0.78532 0.51223 0.64389 0.0
N260 N 0.82897 0.41563 0.59813 0.0
C261 C 0.77723 0.45305 0.62868 0.0
C262 C 0.84816 0.53331 0.62875 0.0
Tb263 Tb 0.81895 0.3179 0.57031 0.0
N264 N 0.93387 0.34029 0.54492 0.0
C265 C 0.99008 0.30044 0.52058 0.0
C266 C 0.06968 0.37416 0.51576 0.0
C267 C 0.05812 0.31665 0.50529 0.0
H268 H 0.72822 0.4373 0.64047 0.0
H269 H 0.10156 0.28471 0.48536 0.0
H270 H 0.07613 0.48917 0.54488 0.0
H271 H 0.7429 0.54143 0.66719 0.0
H272 H 0.98204 0.25577 0.51194 0.0
H273 H 0.387 0.24669 0.55923 0.0
H274 H 0.12246 0.38655 0.50388 0.0
H275 H 0.77854 0.10599 0.41756 0.0
H276 H 0.51578 0.28003 0.54415 0.0
H277 H 0.76284 1.00091 0.38473 0.0
H278 H 0.97897 0.55924 0.59479 0.0
H279 H 0.36296 0.14305 0.53323 0.0
H280 H 0.41265 0.04165 0.49176 0.0
H281 H 0.85438 0.57913 0.64053 0.0
H282 H 0.51485 0.97456 0.44394 0.0
N283 N 0.56477 0.19608 0.50929 0.0
C284 C 0.50652 0.23467 0.53255 0.0
C285 C 0.4198 0.15743 0.52649 0.0
C286 C 0.47911 0.11806 0.50226 0.0
C287 C 0.4331 0.21592 0.54107 0.0
C288 C 0.55118 0.13901 0.49351 0.0
H289 H 0.64556 0.95899 0.40361 0.0
N290 N 0.67279 0.12383 0.4561 0.0
C291 C 0.7187 0.02871 0.40763 0.0
C292 C 0.60747 0.10147 0.46606 0.0
C293 C 0.72727 0.08837 0.42626 0.0
C294 C 0.65257 1.00519 0.41845 0.0
C295 C 0.59524 0.04166 0.44752 0.0
O296 O 0.678 0.20042 0.42187 0.0
O297 O 0.78405 0.27611 0.5047 0.0
O298 O 0.75276 0.36836 0.54635 0.0
O299 O 0.63691 0.31203 0.52176 0.0
O300 O 0.78413 0.21088 0.44456 0.0
O301 O 0.58384 0.25141 0.4654 0.0
O302 O 0.8217 0.34244 0.63645 0.0
O303 O 0.71563 0.26214 0.554 0.0
O304 O 0.74805 0.17015 0.50951 0.0
O305 O 0.86263 0.22756 0.5371 0.0
O306 O 0.71327 0.33273 0.61203 0.0
O307 O 0.91809 0.29312 0.5942 0.0
C308 C 0.824 0.25554 0.47051 0.0
C309 C 0.55092 0.19663 0.3917 0.0
C310 C 0.49197 0.18218 0.32406 0.0
C311 C 0.54866 0.20882 0.35701 0.0
C312 C 0.43821 0.14197 0.32588 0.0
C313 C 0.49682 0.1567 0.39319 0.0
C314 C 0.44088 0.1294 0.36027 0.0
C315 C 0.67683 0.36109 0.53384 0.0
C316 C 0.61014 0.22665 0.42578 0.0
C317 C 0.52537 0.02037 0.45773 0.0
C318 C 0.46723 0.05855 0.48498 0.0
C319 C 0.67388 0.28681 0.58771 0.0
C320 C 0.95021 0.35492 0.66708 0.0
C321 C 0.95941 0.34565 0.70286 0.0
C322 C 0.01415 0.37837 0.73557 0.0
C323 C 0.05993 0.42094 0.73203 0.0
C324 C 0.99618 0.39753 0.664 0.0
C325 C 0.05076 0.43035 0.69638 0.0
C326 C 0.82409 0.17737 0.52183 0.0
C327 C 0.89191 0.31967 0.63378 0.0
H328 H 0.59051 0.23985 0.35599 0.0
H329 H 0.39503 0.1195 0.30055 0.0
H330 H 0.49779 0.14668 0.41962 0.0
H331 H 0.39951 0.09831 0.36137 0.0
H332 H 0.92466 0.31214 0.70486 0.0
H333 H 0.10146 0.44775 0.75703 0.0
H334 H 0.99005 0.40538 0.63672 0.0
H335 H 0.08577 0.46342 0.69398 0.0
H336 H 0.63432 0.56672 0.96125 0.0
C337 C 0.61628 0.60981 0.98472 0.0
H338 H 0.54338 0.65867 0.03907 0.0
H339 H 0.36706 0.40115 0.95012 0.0
H340 H 0.32084 0.42591 0.89588 0.0
H341 H 0.36673 0.51494 0.89587 0.0
H342 H 0.45984 0.57959 0.95003 0.0
C343 C 0.55879 0.61632 0.01347 0.0
C344 C 0.5256 0.56508 0.01519 0.0
C345 C 0.4715 0.52776 0.98323 0.0
C346 C 0.44451 0.47673 0.98348 0.0
C347 C 0.3898 0.44043 0.95142 0.0
C348 C 0.36266 0.45415 0.9201 0.0
C349 C 0.38859 0.50424 0.92007 0.0
C350 C 0.4423 0.54082 0.9512 0.0
H351 H 0.36358 0.46375 0.07087 0.0
C352 C 0.37982 0.4203 0.04722 0.0
H353 H 0.45027 0.37015 0.99216 0.0
H354 H 0.62835 0.62804 0.08149 0.0
H355 H 0.67326 0.60394 0.1363 0.0
H356 H 0.62813 0.51459 0.13605 0.0
H357 H 0.53658 0.4492 0.08125 0.0
C358 C 0.4369 0.41275 0.01804 0.0
C359 C 0.47105 0.46353 0.01596 0.0
C360 C 0.52506 0.50091 0.04796 0.0
C361 C 0.55192 0.55199 0.04776 0.0
C362 C 0.60587 0.58866 0.08011 0.0
C363 C 0.6323 0.57529 0.11174 0.0
C364 C 0.60674 0.52505 0.11165 0.0
C365 C 0.5539 0.48805 0.08015 0.0
H366 H 0.3037 0.57419 0.49338 0.0
C367 C 0.34748 0.60547 0.4943 0.0
H368 H 0.46942 0.6297 0.50159 0.0
H369 H 0.58299 0.49982 0.60157 0.0
H370 H 0.59535 0.59914 0.65587 0.0
H371 H 0.54329 0.67685 0.64309 0.0
H372 H 0.4781 0.65576 0.57599 0.0
C373 C 0.4257 0.59775 0.49946 0.0
C374 C 0.45492 0.54954 0.50693 0.0
C375 C 0.4944 0.5625 0.54612 0.0
C376 C 0.52606 0.51758 0.55319 0.0
C377 C 0.56119 0.53205 0.59358 0.0
C378 C 0.5678 0.58898 0.62534 0.0
C379 C 0.53838 0.63274 0.61817 0.0
C380 C 0.50155 0.61995 0.57929 0.0
H381 H 0.67485 0.44541 0.53529 0.0
C382 C 0.63703 0.40994 0.53214 0.0
H383 H 0.51961 0.37625 0.52256 0.0
H384 H 0.3844 0.50831 0.42748 0.0
H385 H 0.36623 0.40885 0.37501 0.0
H386 H 0.42172 0.33135 0.38714 0.0
H387 H 0.49394 0.35298 0.45226 0.0
C388 C 0.55758 0.41189 0.52624 0.0
C389 C 0.52037 0.4595 0.52056 0.0
C390 C 0.47864 0.44637 0.48194 0.0
C391 C 0.44632 0.49126 0.47499 0.0
C392 C 0.40755 0.4764 0.43543 0.0
C393 C 0.39766 0.41928 0.40459 0.0
C394 C 0.42881 0.37566 0.41141 0.0
C395 C 0.46975 0.38878 0.44924 0.0
H396 H 0.01977 0.17067 0.03765 0.0
C397 C 0.08098 0.15724 0.02691 0.0
H398 H 0.16278 0.08814 1.00389 0.0
H399 H 0.90153 0.99424 0.09796 0.0
H400 H 0.95337 0.07067 0.16475 0.0
H401 H 0.04842 0.14238 0.16416 0.0
H402 H 0.09173 0.13834 0.0969 0.0
C403 C 0.10225 0.10279 0.01513 0.0
C404 C 0.04341 0.06036 0.0159 0.0
C405 C 0.01899 0.06319 0.05556 0.0
C406 C 0.96438 0.02165 0.05593 0.0
C407 C 0.94176 0.02518 0.09593 0.0
C408 C 0.9715 0.06861 0.13447 0.0
C409 C 0.02501 0.10898 0.13413 0.0
C410 C 0.04907 0.10632 0.09525 0.0
H411 H 0.96188 0.86732 0.99496 0.0
C412 C 0.90028 0.87966 1.0055 0.0
H413 H 0.81637 0.94749 0.02854 0.0
H414 H 0.07542 0.04375 0.93472 0.0
H415 H 0.0241 0.96708 0.86789 0.0
H416 H 0.92994 0.89487 0.86843 0.0
H417 H 0.88684 0.89878 0.93568 0.0
C418 C 0.87722 0.93377 0.01738 0.0
C419 C 0.93475 0.97699 0.01671 0.0
C420 C 0.95907 0.97422 0.97705 0.0
C421 C 0.01345 0.01588 0.9767 0.0
C422 C 0.03571 1.01254 0.93671 0.0
C423 C 0.00618 0.96901 0.89816 0.0
C424 C 0.95316 0.92838 0.89847 0.0
C425 C 0.92924 0.93095 0.93734 0.0
H426 H 0.83126 0.08714 0.50845 0.0
C427 C 0.86687 0.12569 0.5172 0.0
H428 H 0.98308 0.1619 0.53127 0.0
H429 H 0.12477 0.98335 0.58531 0.0
H430 H 0.13139 0.07223 0.65208 0.0
H431 H 0.07209 0.16098 0.65806 0.0
H432 H 0.00556 0.1613 0.59728 0.0
C433 C 0.94675 0.12355 0.52188 0.0
C434 C 0.9871 0.07005 0.51692 0.0
C435 C 0.02746 0.07058 0.5525 0.0
C436 C 0.06285 0.01936 0.54883 0.0
C437 C 0.09925 0.02104 0.58564 0.0
C438 C 0.10288 0.07178 0.6244 0.0
C439 C 0.06942 0.12174 0.62779 0.0
C440 C 0.03162 0.12132 0.59251 0.0
H441 H 0.21304 0.94044 0.51501 0.0
C442 C 0.17197 0.90497 0.50795 0.0
H443 H 0.0514 0.87717 0.49727 0.0
H444 H 0.92608 0.05513 0.44016 0.0
H445 H 0.92094 0.96648 0.37312 0.0
H446 H 0.9788 0.87744 0.36746 0.0
H447 H 0.04298 0.87677 0.42859 0.0
C448 C 0.09282 0.91266 0.50517 0.0
C449 C 0.05927 0.96759 0.50924 0.0
C450 C 0.02049 0.9674 0.47342 0.0
C451 C 0.98541 0.01862 0.47702 0.0
C452 C 0.95072 0.01725 0.43994 0.0
C453 C 0.94809 0.96669 0.40102 0.0
C454 C 0.98079 0.91661 0.39778 0.0
C455 C 0.01713 0.91678 0.4333 0.0
H456 H 0.54718 0.21244 0.28088 0.0
C457 C 0.49159 0.19684 0.28815 0.0
H458 H 0.36792 0.18199 0.27379 0.0
H459 H 0.44087 0.36352 0.19784 0.0
H460 H 0.47435 0.43191 0.2705 0.0
H461 H 0.48553 0.40242 0.32691 0.0
H462 H 0.46031 0.30426 0.31101 0.0
C463 C 0.42476 0.1962 0.26673 0.0
C464 C 0.42573 0.21354 0.23204 0.0
C465 C 0.44027 0.27147 0.24188 0.0
C466 C 0.43507 0.28826 0.20897 0.0
C467 C 0.44644 0.3471 0.22054 0.0
C468 C 0.46509 0.3874 0.26253 0.0
C469 C 0.47107 0.37083 0.29433 0.0
C470 C 0.45744 0.31395 0.28452 0.0
H471 H 0.29292 0.22399 0.10989 0.0
C472 C 0.33665 0.25417 0.10907 0.0
H473 H 0.44474 0.29803 0.13181 0.0
H474 H 0.39563 0.09916 0.20232 0.0
H475 H 0.36604 0.02893 0.12872 0.0
H476 H 0.36393 0.05701 0.07105 0.0
H477 H 0.39523 0.15384 0.0862 0.0
C478 C 0.4036 0.26665 0.13284 0.0
C479 C 0.41623 0.2469 0.16595 0.0
C480 C 0.40567 0.18839 0.15592 0.0
C481 C 0.40827 0.17214 0.18915 0.0
C482 C 0.3941 0.11395 0.17843 0.0
C483 C 0.37743 0.07308 0.13629 0.0
C484 C 0.3766 0.08873 0.1038 0.0
C485 C 0.39288 0.14509 0.11313 0.0
H486 H 0.57719 0.84914 0.265 0.0
C487 C 0.51956 0.85443 0.25309 0.0
H488 H 0.39397 0.85349 0.25932 0.0
H489 H 0.52316 0.72964 0.37555 0.0
H490 H 0.60348 0.66599 0.31413 0.0
H491 H 0.60638 0.67648 0.24813 0.0
H492 H 0.53323 0.75259 0.2444 0.0
C493 C 0.45138 0.84878 0.27173 0.0
C494 C 0.44911 0.83923 0.31056 0.0
C495 C 0.48553 0.79059 0.31031 0.0
C496 C 0.47656 0.78053 0.34657 0.0
C497 C 0.52258 0.73644 0.3477 0.0
C498 C 0.56954 0.69986 0.31273 0.0
C499 C 0.57161 0.70601 0.27573 0.0
C500 C 0.52993 0.75055 0.27427 0.0
H501 H 0.3807 0.70872 0.36906 0.0
C502 C 0.37496 0.74122 0.40248 0.0
H503 H 0.38489 0.82791 0.44617 0.0
H504 H 0.38594 0.9423 0.32595 0.0
H505 H 0.30416 1.00535 0.38699 0.0
H506 H 0.27159 0.98062 0.44468 0.0
H507 H 0.32219 0.89457 0.44269 0.0
C508 C 0.39579 0.79575 0.41342 0.0
C509 C 0.42226 0.81421 0.38057 0.0
C510 C 0.38899 0.8645 0.38172 0.0
C511 C 0.40445 0.8776 0.34734 0.0
C512 C 0.37374 0.92928 0.35034 0.0
C513 C 0.32696 0.96605 0.38529 0.0
C514 C 0.30887 0.95222 0.41781 0.0
C515 C 0.339 0.90221 0.41621 0.0
H516 H 0.64918 0.81271 0.93101 0.0
C517 C 0.63463 0.76771 0.91963 0.0
H518 H 0.58749 0.69152 0.86994 0.0
H519 H 0.50772 0.88293 0.80108 0.0
H520 H 0.4136 0.92555 0.8605 0.0
H521 H 0.40114 0.88894 0.91335 0.0
H522 H 0.48727 0.81233 0.90832 0.0
C523 C 0.5999 0.73678 0.88092 0.0
C524 C 0.60095 0.75603 0.84729 0.0
C525 C 0.55036 0.80062 0.85034 0.0
C526 C 0.55395 0.81909 0.81831 0.0
C527 C 0.50527 0.86559 0.82342 0.0
C528 C 0.45118 0.89067 0.85758 0.0
C529 C 0.44472 0.87048 0.8875 0.0
C530 C 0.49435 0.82651 0.88434 0.0
H531 H 0.49495 0.77951 0.72486 0.0
C532 C 0.54865 0.80029 0.72091 0.0
H533 H 0.66666 0.82689 0.74425 0.0
H534 H 0.70458 0.66713 0.83006 0.0
H535 H 0.78638 0.61682 0.76626 0.0
H536 H 0.78575 0.64473 0.70868 0.0
H537 H 0.70395 0.72372 0.71473 0.0
C538 C 0.60988 0.80965 0.7482 0.0
C539 C 0.60536 0.79088 0.78205 0.0
C540 C 0.65325 0.74443 0.77796 0.0
C541 C 0.65184 0.72741 0.81077 0.0
C542 C 0.70179 0.68149 0.80601 0.0
C543 C 0.7494 0.65219 0.76951 0.0
C544 C 0.74911 0.66793 0.73709 0.0
C545 C 0.70206 0.71355 0.74111 0.0
H546 H 0.62262 0.21002 0.58941 0.0
C547 C 0.62702 0.25652 0.60695 0.0
H548 H 0.61172 0.33109 0.66628 0.0
H549 H 0.41533 0.13839 0.70472 0.0
H550 H 0.31665 0.13597 0.6535 0.0
H551 H 0.33864 0.1904 0.61347 0.0
H552 H 0.46127 0.24603 0.62344 0.0
C553 C 0.60418 0.28476 0.64867 0.0
C554 C 0.58678 0.25487 0.6749 0.0
C555 C 0.51439 0.2238 0.66981 0.0
C556 C 0.49957 0.19525 0.69489 0.0
C557 C 0.42826 0.16256 0.68768 0.0
C558 C 0.37129 0.16064 0.65829 0.0
C559 C 0.38398 0.19093 0.63548 0.0
C560 C 0.45467 0.22212 0.64105 0.0
H561 H 0.44839 0.23035 0.78959 0.0
C562 C 0.48351 0.19383 0.78611 0.0
H563 H 0.57958 0.13885 0.75133 0.0
H564 H 0.72894 0.31492 0.696 0.0
H565 H 0.81846 0.32759 0.75372 0.0
H566 H 0.7914 0.28002 0.79811 0.0
H567 H 0.67249 0.22118 0.78637 0.0
C568 C 0.53922 0.17263 0.75453 0.0
C569 C 0.55532 0.20027 0.72672 0.0
C570 C 0.62628 0.23318 0.73305 0.0
C571 C 0.64207 0.26046 0.70719 0.0
C572 C 0.71318 0.29361 0.71479 0.0
C573 C 0.76568 0.30087 0.74758 0.0
C574 C 0.7502 0.27431 0.77276 0.0
C575 C 0.68168 0.24061 0.76562 0.0
H576 H 0.78591 0.69521 0.07535 0.0
C577 C 0.83793 0.71921 0.07375 0.0
H578 H 0.951 0.75279 0.098 0.0
H579 H 0.92758 0.7734 0.28101 0.0
H580 H 0.95518 0.87056 0.29492 0.0
H581 H 0.95667 0.89579 0.23595 0.0
H582 H 0.93031 0.82442 0.16295 0.0
C583 C 0.90152 0.72635 0.09889 0.0
C584 C 0.90028 0.70922 0.1339 0.0
C585 C 0.9171 0.75179 0.1768 0.0
C586 C 0.91685 0.73724 0.21093 0.0
C587 C 0.93013 0.78128 0.25356 0.0
C588 C 0.94514 0.83758 0.2622 0.0
C589 C 0.94593 0.85179 0.229 0.0
C590 C 0.93145 0.80987 0.18692 0.0
H591 H 0.02645 0.68191 0.24891 0.0
C592 C 0.97257 0.66725 0.25853 0.0
H593 H 0.84812 0.65073 0.24678 0.0
H594 H 0.86628 0.61518 0.05578 0.0
H595 H 0.82142 0.52213 0.04427 0.0
H596 H 0.81861 0.49804 0.10395 0.0
H597 H 0.85666 0.56858 0.17608 0.0
C598 C 0.90367 0.66402 0.23773 0.0
C599 C 0.90059 0.68001 0.20232 0.0
C600 C 0.87933 0.63824 0.16011 0.0
C601 C 0.88024 0.65242 0.1257 0.0
C602 C 0.86161 0.60872 0.08375 0.0
C603 C 0.83734 0.55434 0.07644 0.0
C604 C 0.83595 0.54076 0.11001 0.0
C605 C 0.85777 0.58175 0.15127 0.0
H606 H 0.8688 0.33749 0.47562 0.0
C607 C 0.86637 0.29143 0.45486 0.0
H608 H 0.88622 0.22417 0.39206 0.0
H609 H 0.82814 0.4322 0.34371 0.0
H610 H 0.69048 0.43 0.36595 0.0
H611 H 0.65221 0.37105 0.40064 0.0
H612 H 0.75108 0.31445 0.4136 0.0
C613 C 0.88893 0.2701 0.41352 0.0
C614 C 0.91245 0.30824 0.39482 0.0
C615 C 0.85331 0.34087 0.38722 0.0
C616 C 0.87497 0.37396 0.3664 0.0
C617 C 0.81489 0.40612 0.35921 0.0
C618 C 0.73561 0.40522 0.37178 0.0
C619 C 0.71408 0.3721 0.39136 0.0
C620 C 0.7718 0.34003 0.39887 0.0
H621 H 0.99156 0.32411 0.26966 0.0
C622 C 0.9902 0.37059 0.28313 0.0
H623 H 0.97259 0.44836 0.34099 0.0
H624 H 0.04051 0.25363 0.40696 0.0
H625 H 0.17871 0.25718 0.3858 0.0
H626 H 0.21602 0.31369 0.34898 0.0
H627 H 0.11549 0.36711 0.33323 0.0
C628 C 0.97475 0.40189 0.32551 0.0
C629 C 0.95492 0.37289 0.35195 0.0
C630 C 0.01444 0.34172 0.36077 0.0
C631 C 0.99309 0.30939 0.38222 0.0
C632 C 0.05362 0.27881 0.39073 0.0
C633 C 0.13311 0.28052 0.37878 0.0
C634 C 0.15409 0.31227 0.358 0.0
C635 C 0.0957 0.34246 0.34892 0.0
H636 H 0.96859 0.34923 0.7812 0.0
C637 C 0.02069 0.36737 0.77309 0.0
H638 H 0.143 0.39028 0.78684 0.0
H639 H 0.12712 0.42142 0.97644 0.0
H640 H 0.1727 0.51444 0.98824 0.0
H641 H 0.17669 0.53874 0.92868 0.0
H642 H 0.13873 0.46858 0.8565 0.0
C643 C 0.08935 0.3736 0.79479 0.0
C644 C 0.09442 0.35702 0.82985 0.0
C645 C 0.11542 0.39869 0.87215 0.0
C646 C 0.1139 0.38437 0.90648 0.0
C647 C 0.13234 0.42794 0.94852 0.0
C648 C 0.15714 0.48229 0.95599 0.0
C649 C 0.1591 0.49601 0.9225 0.0
C650 C 0.13727 0.45521 0.88118 0.0
H651 H 0.20549 0.34105 0.95755 0.0
C652 C 0.15284 0.31728 0.9587 0.0
H653 H 0.03997 0.28427 0.93358 0.0
H654 H 0.07228 0.26328 0.75075 0.0
H655 H 0.04496 0.16596 0.7364 0.0
H656 H 0.04057 0.14069 0.79542 0.0
H657 H 0.06394 0.21226 0.86877 0.0
C658 C 0.09011 0.31053 0.93313 0.0
C659 C 0.09331 0.32759 0.89812 0.0
C660 C 0.07785 0.28495 0.85507 0.0
C661 C 0.0792 0.29956 0.82098 0.0
C662 C 0.06808 0.2554 0.77816 0.0
C663 C 0.05343 0.19898 0.76931 0.0
C664 C 0.05105 0.18477 0.80251 0.0
C665 C 0.06379 0.22678 0.84477 0.0
H666 H 0.13483 0.70217 0.55573 0.0
C667 C 0.14918 0.74715 0.57577 0.0
H668 H 0.14694 0.81624 0.63883 0.0
H669 H 0.87844 0.71758 0.71295 0.0
H670 H 0.80319 0.79129 0.70629 0.0
H671 H 0.86082 0.841 0.66811 0.0
H672 H 0.99432 0.81763 0.63667 0.0
C673 C 0.13273 0.7713 0.61806 0.0
C674 C 0.09589 0.73776 0.63803 0.0
C675 C 0.01817 0.75214 0.65657 0.0
C676 C 0.98477 0.72324 0.67847 0.0
C677 C 0.90674 0.73831 0.69626 0.0
C678 C 0.86285 0.78044 0.69255 0.0
C679 C 0.89534 0.80848 0.67108 0.0
C680 C 0.97211 0.79476 0.6533 0.0
H681 H 0.00263 0.72501 0.76597 0.0
C682 C 0.99012 0.67915 0.7496 0.0
H683 H 0.98427 0.60521 0.68853 0.0
H684 H 0.24869 0.70083 0.60801 0.0
H685 H 0.31955 0.62294 0.61047 0.0
H686 H 0.25835 0.56928 0.64481 0.0
H687 H 0.12616 0.59393 0.67745 0.0
C688 C 0.99673 0.65081 0.70632 0.0
C689 C 0.02894 0.67956 0.68155 0.0
C690 C 0.10511 0.66323 0.66115 0.0
C691 C 0.13944 0.69313 0.6402 0.0
C692 C 0.218 0.67831 0.62276 0.0
C693 C 0.25988 0.63387 0.62428 0.0
C694 C 0.22548 0.60374 0.64367 0.0
C695 C 0.14937 0.61831 0.66222 0.0
loop_
_geom_bond_atom_site_label_1
_geom_bond_atom_site_label_2
_geom_bond_distance
_geom_bond_site_symmetry_2
_ccdc_geom_bond_type
Tb0 N31 2.660 . S
Tb0 N38 2.600 . S
Tb0 O44 2.546 . S
Tb0 O45 2.610 . S
Tb0 O47 2.320 . S
Tb0 O48 2.552 . S
Tb0 O49 2.413 . S
Tb0 O51 2.362 1_554 S
Tb0 O52 2.421 . S
Tb0 C64 2.833 . S
C1 C4 1.432 . S
C1 C5 1.414 . S
C1 N8 1.359 . S
C2 C4 1.417 1_554 S
C2 C6 1.432 . S
C2 C14 1.410 . S
C3 C5 1.444 . S
C3 C6 1.317 1_556 S
C3 H26 0.929 . S
C4 C1 1.432 . S
C4 C2 1.417 1_556 S
C4 N12 1.360 . S
C5 C1 1.414 . S
C5 C3 1.444 . S
C5 C10 1.385 . S
C6 C2 1.432 . S
C6 C3 1.317 1_554 S
C6 H18 0.930 . S
C7 C9 1.392 . S
C7 C10 1.370 . S
C7 H19 0.931 1_545 S
N8 C1 1.359 . S
N8 C9 1.327 . S
N8 Tb11 2.600 . S
C9 C7 1.392 . S
C9 N8 1.327 . S
C9 H16 0.930 . S
C10 C5 1.385 . S
C10 C7 1.370 . S
C10 H29 0.930 1_545 S
Tb11 N8 2.600 . S
Tb11 N12 2.660 . S
Tb11 O45 2.362 1_556 S
Tb11 O46 2.421 . S
Tb11 O50 2.546 . S
Tb11 O51 2.610 . S
Tb11 O53 2.320 . S
Tb11 O54 2.552 . S
Tb11 O55 2.413 . S
Tb11 C75 2.833 . S
N12 C4 1.360 . S
N12 Tb11 2.660 . S
N12 C13 1.305 1_556 S
C13 N12 1.305 1_554 S
C13 C15 1.407 . S
C13 H20 0.930 . S
C14 C2 1.410 . S
C14 C15 1.345 . S
C14 H22 0.930 . S
C15 C13 1.407 . S
C15 C14 1.345 . S
C15 H17 0.930 . S
H16 C9 0.930 . S
H17 C15 0.930 . S
H18 C6 0.930 . S
H19 C7 0.931 1_565 S
H20 C13 0.930 . S
H21 C35 0.930 . S
H22 C14 0.930 . S
H23 C41 0.930 . S
H24 C32 0.924 1_455 S
H25 C39 0.931 . S
H26 C3 0.929 . S
H27 C33 0.930 . S
H28 C66 0.927 1_556 S
H29 C10 0.930 1_565 S
H30 C65 0.929 . S
N31 Tb0 2.660 . S
N31 C32 1.299 1_454 S
N31 C36 1.360 1_455 S
C32 H24 0.924 1_655 S
C32 N31 1.299 1_656 S
C32 C35 1.419 . S
C33 H27 0.930 . S
C33 C34 1.410 . S
C33 C35 1.345 . S
C34 C33 1.410 . S
C34 C36 1.417 1_556 S
C34 C66 1.433 1_556 S
C35 H21 0.930 . S
C35 C32 1.419 . S
C35 C33 1.345 . S
C36 N31 1.360 1_655 S
C36 C34 1.417 1_554 S
C36 C40 1.432 1_655 S
H37 C42 0.930 1_655 S
N38 Tb0 2.600 . S
N38 C40 1.359 . S
N38 C41 1.327 . S
C39 H25 0.931 . S
C39 C41 1.392 . S
C39 C42 1.370 . S
C40 C36 1.432 1_455 S
C40 N38 1.359 . S
C40 C43 1.414 1_455 S
C41 H23 0.930 . S
C41 N38 1.327 . S
C41 C39 1.392 . S
C42 H37 0.930 1_455 S
C42 C39 1.370 . S
C42 C43 1.385 1_455 S
C43 C40 1.414 1_655 S
C43 C42 1.385 1_655 S
C43 C65 1.444 . S
O44 Tb0 2.546 . S
O44 C64 1.251 . S
O45 Tb0 2.610 . S
O45 Tb11 2.362 1_554 S
O45 C56 1.283 . S
O46 Tb11 2.421 . S
O46 C63 1.262 . S
O47 Tb0 2.320 . S
O47 C63 1.260 1_554 S
O48 Tb0 2.552 . S
O48 C56 1.243 . S
O49 Tb0 2.413 . S
O49 C64 1.256 . S
O50 Tb11 2.546 . S
O50 C75 1.251 . S
O51 Tb0 2.362 1_556 S
O51 Tb11 2.610 . S
O51 C67 1.283 . S
O52 Tb0 2.421 . S
O52 C74 1.262 . S
O53 Tb11 2.320 . S
O53 C74 1.260 1_556 S
O54 Tb11 2.552 . S
O54 C67 1.243 . S
O55 Tb11 2.413 . S
O55 C75 1.256 . S
C56 O45 1.283 . S
C56 O48 1.243 . S
C57 C59 1.382 . S
C57 C61 1.393 . S
C57 C64 1.500 . S
C58 C59 1.406 . S
C58 C60 1.381 1_455 S
C59 C57 1.382 . S
C59 C58 1.406 . S
C59 H76 0.930 . S
C60 C58 1.381 1_655 S
C60 C62 1.392 1_655 S
C60 H77 0.931 . S
C61 C57 1.393 . S
C61 C62 1.401 . S
C61 H78 0.930 . S
C62 C60 1.392 1_455 S
C62 C61 1.401 . S
C62 H79 0.930 1_455 S
C63 O46 1.262 . S
C63 O47 1.260 1_556 S
C64 Tb0 2.833 . S
C64 O44 1.251 . S
C64 O49 1.256 . S
C64 C57 1.500 . S
C65 H30 0.929 . S
C65 C43 1.444 . S
C65 C66 1.318 . S
C66 H28 0.927 1_554 S
C66 C34 1.433 1_554 S
C66 C65 1.318 . S
C67 O51 1.283 . S
C67 O54 1.243 . S
C68 C69 1.382 . S
C68 C72 1.393 . S
C68 C75 1.500 . S
C69 C68 1.382 . S
C69 C70 1.400 . S
C69 H80 0.930 . S
C70 C69 1.400 . S
C70 C71 1.384 . S
C71 C70 1.384 . S
C71 C73 1.392 . S
C71 H81 0.931 . S
C72 C68 1.393 . S
C72 C73 1.401 . S
C72 H82 0.930 . S
C73 C71 1.392 . S
C73 C72 1.401 . S
C73 H83 0.930 . S
C74 O52 1.262 . S
C74 O53 1.260 1_554 S
C75 Tb11 2.833 . S
C75 O50 1.251 . S
C75 O55 1.256 . S
C75 C68 1.500 . S
H76 C59 0.930 . S
H77 C60 0.931 . S
H78 C61 0.930 . S
H79 C62 0.930 1_655 S
H80 C69 0.930 . S
H81 C71 0.931 . S
H82 C72 0.930 . S
H83 C73 0.930 . S
Tb84 N115 2.660 . S
Tb84 N122 2.600 . S
Tb84 O128 2.546 . S
Tb84 O129 2.610 . S
Tb84 O131 2.320 . S
Tb84 O132 2.552 . S
Tb84 O133 2.413 . S
Tb84 O135 2.362 1_554 S
Tb84 O136 2.421 . S
Tb84 C148 2.833 . S
C85 C88 1.432 1_655 S
C85 C89 1.414 1_655 S
C85 N92 1.359 . S
C86 C88 1.417 1_554 S
C86 C90 1.432 . S
C86 C98 1.410 . S
C87 C89 1.444 . S
C87 C90 1.317 1_556 S
C87 H110 0.929 . S
C88 C85 1.432 1_455 S
C88 C86 1.417 1_556 S
C88 N96 1.360 1_455 S
C89 C85 1.414 1_455 S
C89 C87 1.444 . S
C89 C94 1.385 1_455 S
C90 C86 1.432 . S
C90 C87 1.317 1_554 S
C90 H102 0.930 . S
C91 C93 1.392 . S
C91 C94 1.370 . S
C91 H103 0.931 . S
N92 C85 1.359 . S
N92 C93 1.327 . S
N92 Tb95 2.600 . S
C93 C91 1.392 . S
C93 N92 1.327 . S
C93 H100 0.930 . S
C94 C89 1.385 1_655 S
C94 C91 1.370 . S
C94 H113 0.930 1_655 S
Tb95 N92 2.600 . S
Tb95 N96 2.660 . S
Tb95 O129 2.362 1_556 S
Tb95 O130 2.421 . S
Tb95 O134 2.546 . S
Tb95 O135 2.610 . S
Tb95 O137 2.320 . S
Tb95 O138 2.552 . S
Tb95 O139 2.413 . S
Tb95 C159 2.833 . S
N96 C88 1.360 1_655 S
N96 Tb95 2.660 . S
N96 C97 1.299 1_656 S
C97 N96 1.299 1_454 S
C97 C99 1.419 . S
C97 H104 0.924 1_455 S
C98 C86 1.410 . S
C98 C99 1.345 . S
C98 H106 0.930 . S
C99 C97 1.419 . S
C99 C98 1.345 . S
C99 H101 0.930 . S
H100 C93 0.930 . S
H101 C99 0.930 . S
H102 C90 0.930 . S
H103 C91 0.931 . S
H104 C97 0.924 1_655 S
H105 C119 0.930 . S
H106 C98 0.930 . S
H107 C125 0.930 . S
H108 C116 0.930 . S
H109 C123 0.931 1_545 S
H110 C87 0.929 . S
H111 C117 0.930 . S
H112 C150 0.927 1_556 S
H113 C94 0.930 1_455 S
H114 C149 0.929 . S
N115 Tb84 2.660 . S
N115 C116 1.305 1_554 S
N115 C120 1.360 . S
C116 H108 0.930 . S
C116 N115 1.305 1_556 S
C116 C119 1.407 . S
C117 H111 0.930 . S
C117 C118 1.410 . S
C117 C119 1.345 . S
C118 C117 1.410 . S
C118 C120 1.417 1_556 S
C118 C150 1.433 1_556 S
C119 H105 0.930 . S
C119 C116 1.407 . S
C119 C117 1.345 . S
C120 N115 1.360 . S
C120 C118 1.417 1_554 S
C120 C124 1.432 . S
H121 C126 0.930 1_545 S
N122 Tb84 2.600 . S
N122 C124 1.359 . S
N122 C125 1.327 . S
C123 H109 0.931 1_565 S
C123 C125 1.392 . S
C123 C126 1.370 . S
C124 C120 1.432 . S
C124 N122 1.359 . S
C124 C127 1.414 . S
C125 H107 0.930 . S
C125 N122 1.327 . S
C125 C123 1.392 . S
C126 H121 0.930 1_565 S
C126 C123 1.370 . S
C126 C127 1.385 . S
C127 C124 1.414 . S
C127 C126 1.385 . S
C127 C149 1.444 . S
O128 Tb84 2.546 . S
O128 C148 1.251 . S
O129 Tb84 2.610 . S
O129 Tb95 2.362 1_554 S
O129 C140 1.283 . S
O130 Tb95 2.421 . S
O130 C147 1.262 . S
O131 Tb84 2.320 . S
O131 C147 1.260 1_554 S
O132 Tb84 2.552 . S
O132 C140 1.243 . S
O133 Tb84 2.413 . S
O133 C148 1.256 . S
O134 Tb95 2.546 . S
O134 C159 1.251 . S
O135 Tb84 2.362 1_556 S
O135 Tb95 2.610 . S
O135 C151 1.283 . S
O136 Tb84 2.421 . S
O136 C158 1.262 . S
O137 Tb95 2.320 . S
O137 C158 1.260 1_556 S
O138 Tb95 2.552 . S
O138 C151 1.243 . S
O139 Tb95 2.413 . S
O139 C159 1.256 . S
C140 O129 1.283 . S
C140 O132 1.243 . S
C141 C143 1.382 . S
C141 C145 1.393 . S
C141 C148 1.500 . S
C142 C143 1.400 . S
C142 C144 1.384 . S
C143 C141 1.382 . S
C143 C142 1.400 . S
C143 H160 0.930 . S
C144 C142 1.384 . S
C144 C146 1.392 . S
C144 H161 0.931 . S
C145 C141 1.393 . S
C145 C146 1.401 . S
C145 H162 0.930 . S
C146 C144 1.392 . S
C146 C145 1.401 . S
C146 H163 0.930 . S
C147 O130 1.262 . S
C147 O131 1.260 1_556 S
C148 Tb84 2.833 . S
C148 O128 1.251 . S
C148 O133 1.256 . S
C148 C141 1.500 . S
C149 H114 0.929 . S
C149 C127 1.444 . S
C149 C150 1.318 . S
C150 H112 0.927 1_554 S
C150 C118 1.433 1_554 S
C150 C149 1.318 . S
C151 O135 1.283 . S
C151 O138 1.243 . S
C152 C153 1.382 . S
C152 C156 1.393 . S
C152 C159 1.500 . S
C153 C152 1.382 . S
C153 C154 1.406 . S
C153 H164 0.930 . S
C154 C153 1.406 . S
C154 C155 1.381 1_655 S
C155 C154 1.381 1_455 S
C155 C157 1.392 1_455 S
C155 H165 0.931 . S
C156 C152 1.393 . S
C156 C157 1.401 . S
C156 H166 0.930 . S
C157 C155 1.392 1_655 S
C157 C156 1.401 . S
C157 H167 0.930 1_655 S
C158 O136 1.262 . S
C158 O137 1.260 1_554 S
C159 Tb95 2.833 . S
C159 O134 1.251 . S
C159 O139 1.256 . S
C159 C152 1.500 . S
H160 C143 0.930 . S
H161 C144 0.931 . S
H162 C145 0.930 . S
H163 C146 0.930 . S
H164 C153 0.930 . S
H165 C155 0.931 . S
H166 C156 0.930 . S
H167 C157 0.930 1_455 S
Tb168 N199 2.660 . S
Tb168 N206 2.600 . S
Tb168 O212 2.546 . S
Tb168 O213 2.610 . S
Tb168 O215 2.320 . S
Tb168 O216 2.552 . S
Tb168 O217 2.413 . S
Tb168 O219 2.362 . S
Tb168 O220 2.421 . S
Tb168 C232 2.833 . S
C169 C172 1.432 . S
C169 C173 1.414 . S
C169 N176 1.359 . S
C170 C172 1.417 . S
C170 C174 1.432 . S
C170 C182 1.410 . S
C171 C173 1.444 . S
C171 C174 1.317 . S
C171 H194 0.929 . S
C172 C169 1.432 . S
C172 C170 1.417 . S
C172 N180 1.360 . S
C173 C169 1.414 . S
C173 C171 1.444 . S
C173 C178 1.385 . S
C174 C170 1.432 . S
C174 C171 1.317 . S
C174 H186 0.930 . S
C175 C177 1.392 . S
C175 C178 1.370 . S
C175 H187 0.931 1_565 S
N176 C169 1.359 . S
N176 C177 1.327 . S
N176 Tb179 2.600 . S
C177 C175 1.392 . S
C177 N176 1.327 . S
C177 H184 0.930 . S
C178 C173 1.385 . S
C178 C175 1.370 . S
C178 H197 0.930 1_565 S
Tb179 N176 2.600 . S
Tb179 N180 2.660 . S
Tb179 O213 2.362 . S
Tb179 O214 2.421 . S
Tb179 O218 2.546 . S
Tb179 O219 2.610 . S
Tb179 O221 2.320 . S
Tb179 O222 2.552 . S
Tb179 O223 2.413 . S
Tb179 C243 2.833 . S
N180 C172 1.360 . S
N180 Tb179 2.660 . S
N180 C181 1.305 . S
C181 N180 1.305 . S
C181 C183 1.407 . S
C181 H188 0.930 . S
C182 C170 1.410 . S
C182 C183 1.345 . S
C182 H190 0.930 . S
C183 C181 1.407 . S
C183 C182 1.345 . S
C183 H185 0.930 . S
H184 C177 0.930 . S
H185 C183 0.930 . S
H186 C174 0.930 . S
H187 C175 0.931 1_545 S
H188 C181 0.930 . S
H189 C203 0.930 . S
H190 C182 0.930 . S
H191 C209 0.930 . S
H192 C200 0.924 1_455 S
H193 C207 0.931 . S
H194 C171 0.929 . S
H195 C201 0.930 . S
H196 C234 0.930 . S
H197 C178 0.930 1_545 S
H198 C233 0.929 . S
N199 Tb168 2.660 . S
N199 C200 1.299 1_455 S
N199 C204 1.360 1_455 S
C200 H192 0.924 1_655 S
C200 N199 1.299 1_655 S
C200 C203 1.419 . S
C201 H195 0.930 . S
C201 C202 1.410 . S
C201 C203 1.345 . S
C202 C201 1.410 . S
C202 C204 1.417 . S
C202 C234 1.432 . S
C203 H189 0.930 . S
C203 C200 1.419 . S
C203 C201 1.345 . S
C204 N199 1.360 1_655 S
C204 C202 1.417 . S
C204 C208 1.432 1_655 S
H205 C210 0.930 1_655 S
N206 Tb168 2.600 . S
N206 C208 1.359 . S
N206 C209 1.327 . S
C207 H193 0.931 . S
C207 C209 1.392 . S
C207 C210 1.370 . S
C208 C204 1.432 1_455 S
C208 N206 1.359 . S
C208 C211 1.414 1_455 S
C209 H191 0.930 . S
C209 N206 1.327 . S
C209 C207 1.392 . S
C210 H205 0.930 1_455 S
C210 C207 1.370 . S
C210 C211 1.385 1_455 S
C211 C208 1.414 1_655 S
C211 C210 1.385 1_655 S
C211 C233 1.444 . S
O212 Tb168 2.546 . S
O212 C232 1.251 . S
O213 Tb168 2.610 . S
O213 Tb179 2.362 . S
O213 C224 1.283 . S
O214 Tb179 2.421 . S
O214 C231 1.262 . S
O215 Tb168 2.320 . S
O215 C231 1.260 . S
O216 Tb168 2.552 . S
O216 C224 1.243 . S
O217 Tb168 2.413 . S
O217 C232 1.256 . S
O218 Tb179 2.546 . S
O218 C243 1.251 . S
O219 Tb168 2.362 . S
O219 Tb179 2.610 . S
O219 C235 1.283 . S
O220 Tb168 2.421 . S
O220 C242 1.262 . S
O221 Tb179 2.320 . S
O221 C242 1.260 . S
O222 Tb179 2.552 . S
O222 C235 1.243 . S
O223 Tb179 2.413 . S
O223 C243 1.256 . S
C224 O213 1.283 . S
C224 O216 1.243 . S
C225 C227 1.382 . S
C225 C229 1.393 . S
C225 C232 1.500 . S
C226 C227 1.406 . S
C226 C228 1.381 1_455 S
C227 C225 1.382 . S
C227 C226 1.406 . S
C227 H244 0.930 . S
C228 C226 1.381 1_655 S
C228 C230 1.392 1_655 S
C228 H245 0.931 . S
C229 C225 1.393 . S
C229 C230 1.401 . S
C229 H246 0.930 . S
C230 C228 1.392 1_455 S
C230 C229 1.401 . S
C230 H247 0.930 1_455 S
C231 O214 1.262 . S
C231 O215 1.260 . S
C232 Tb168 2.833 . S
C232 O212 1.251 . S
C232 O217 1.256 . S
C232 C225 1.500 . S
C233 H198 0.929 . S
C233 C211 1.444 . S
C233 C234 1.317 . S
C234 H196 0.930 . S
C234 C202 1.432 . S
C234 C233 1.317 . S
C235 O219 1.283 . S
C235 O222 1.243 . S
C236 C237 1.382 . S
C236 C240 1.393 . S
C236 C243 1.500 . S
C237 C236 1.382 . S
C237 C238 1.400 . S
C237 H248 0.930 . S
C238 C237 1.400 . S
C238 C239 1.384 . S
C239 C238 1.384 . S
C239 C241 1.392 . S
C239 H249 0.931 . S
C240 C236 1.393 . S
C240 C241 1.401 . S
C240 H250 0.930 . S
C241 C239 1.392 . S
C241 C240 1.401 . S
C241 H251 0.930 . S
C242 O220 1.262 . S
C242 O221 1.260 . S
C243 Tb179 2.833 . S
C243 O218 1.251 . S
C243 O223 1.256 . S
C243 C236 1.500 . S
H244 C227 0.930 . S
H245 C228 0.931 . S
H246 C229 0.930 . S
H247 C230 0.930 1_655 S
H248 C237 0.930 . S
H249 C239 0.931 . S
H250 C240 0.930 . S
H251 C241 0.930 . S
Tb252 N283 2.660 . S
Tb252 N290 2.600 . S
Tb252 O296 2.546 . S
Tb252 O297 2.610 . S
Tb252 O299 2.320 . S
Tb252 O300 2.552 . S
Tb252 O301 2.413 . S
Tb252 O303 2.362 . S
Tb252 O304 2.421 . S
Tb252 C316 2.833 . S
C253 C256 1.432 1_655 S
C253 C257 1.414 1_655 S
C253 N260 1.359 . S
C254 C256 1.417 . S
C254 C258 1.432 . S
C254 C266 1.410 . S
C255 C257 1.444 . S
C255 C258 1.317 . S
C255 H278 0.929 . S
C256 C253 1.432 1_455 S
C256 C254 1.417 . S
C256 N264 1.360 1_455 S
C257 C253 1.414 1_455 S
C257 C255 1.444 . S
C257 C262 1.385 1_455 S
C258 C254 1.432 . S
C258 C255 1.317 . S
C258 H270 0.930 . S
C259 C261 1.392 . S
C259 C262 1.370 . S
C259 H271 0.931 . S
N260 C253 1.359 . S
N260 C261 1.327 . S
N260 Tb263 2.600 . S
C261 C259 1.392 . S
C261 N260 1.327 . S
C261 H268 0.930 . S
C262 C257 1.385 1_655 S
C262 C259 1.370 . S
C262 H281 0.930 1_655 S
Tb263 N260 2.600 . S
Tb263 N264 2.660 . S
Tb263 O297 2.362 . S
Tb263 O298 2.421 . S
Tb263 O302 2.546 . S
Tb263 O303 2.610 . S
Tb263 O305 2.320 . S
Tb263 O306 2.552 . S
Tb263 O307 2.413 . S
Tb263 C327 2.833 . S
N264 C256 1.360 1_655 S
N264 Tb263 2.660 . S
N264 C265 1.299 1_655 S
C265 N264 1.299 1_455 S
C265 C267 1.419 . S
C265 H272 0.924 1_455 S
C266 C254 1.410 . S
C266 C267 1.345 . S
C266 H274 0.930 . S
C267 C265 1.419 . S
C267 C266 1.345 . S
C267 H269 0.930 . S
H268 C261 0.930 . S
H269 C267 0.930 . S
H270 C258 0.930 . S
H271 C259 0.931 . S
H272 C265 0.924 1_655 S
H273 C287 0.930 . S
H274 C266 0.930 . S
H275 C293 0.930 . S
H276 C284 0.930 . S
H277 C291 0.931 1_565 S
H278 C255 0.929 . S
H279 C285 0.930 . S
H280 C318 0.930 . S
H281 C262 0.930 1_455 S
H282 C317 0.929 . S
N283 Tb252 2.660 . S
N283 C284 1.305 . S
N283 C288 1.360 . S
C284 H276 0.930 . S
C284 N283 1.305 . S
C284 C287 1.407 . S
C285 H279 0.930 . S
C285 C286 1.410 . S
C285 C287 1.345 . S
C286 C285 1.410 . S
C286 C288 1.417 . S
C286 C318 1.432 . S
C287 H273 0.930 . S
C287 C284 1.407 . S
C287 C285 1.345 . S
C288 N283 1.360 . S
C288 C286 1.417 . S
C288 C292 1.432 . S
H289 C294 0.930 1_565 S
N290 Tb252 2.600 . S
N290 C292 1.359 . S
N290 C293 1.327 . S
C291 H277 0.931 1_545 S
C291 C293 1.392 . S
C291 C294 1.370 . S
C292 C288 1.432 . S
C292 N290 1.359 . S
C292 C295 1.414 . S
C293 H275 0.930 . S
C293 N290 1.327 . S
C293 C291 1.392 . S
C294 H289 0.930 1_545 S
C294 C291 1.370 . S
C294 C295 1.385 . S
C295 C292 1.414 . S
C295 C294 1.385 . S
C295 C317 1.444 . S
O296 Tb252 2.546 . S
O296 C316 1.251 . S
O297 Tb252 2.610 . S
O297 Tb263 2.362 . S
O297 C308 1.283 . S
O298 Tb263 2.421 . S
O298 C315 1.262 . S
O299 Tb252 2.320 . S
O299 C315 1.260 . S
O300 Tb252 2.552 . S
O300 C308 1.243 . S
O301 Tb252 2.413 . S
O301 C316 1.256 . S
O302 Tb263 2.546 . S
O302 C327 1.251 . S
O303 Tb252 2.362 . S
O303 Tb263 2.610 . S
O303 C319 1.283 . S
O304 Tb252 2.421 . S
O304 C326 1.262 . S
O305 Tb263 2.320 . S
O305 C326 1.260 . S
O306 Tb263 2.552 . S
O306 C319 1.243 . S
O307 Tb263 2.413 . S
O307 C327 1.256 . S
C308 O297 1.283 . S
C308 O300 1.243 . S
C309 C311 1.382 . S
C309 C313 1.393 . S
C309 C316 1.500 . S
C310 C311 1.400 . S
C310 C312 1.384 . S
C311 C309 1.382 . S
C311 C310 1.400 . S
C311 H328 0.930 . S
C312 C310 1.384 . S
C312 C314 1.392 . S
C312 H329 0.931 . S
C313 C309 1.393 . S
C313 C314 1.401 . S
C313 H330 0.930 . S
C314 C312 1.392 . S
C314 C313 1.401 . S
C314 H331 0.930 . S
C315 O298 1.262 . S
C315 O299 1.260 . S
C316 Tb252 2.833 . S
C316 O296 1.251 . S
C316 O301 1.256 . S
C316 C309 1.500 . S
C317 H282 0.929 . S
C317 C295 1.444 . S
C317 C318 1.317 . S
C318 H280 0.930 . S
C318 C286 1.432 . S
C318 C317 1.317 . S
C319 O303 1.283 . S
C319 O306 1.243 . S
C320 C321 1.382 . S
C320 C324 1.393 . S
C320 C327 1.500 . S
C321 C320 1.382 . S
C321 C322 1.406 . S
C321 H332 0.930 . S
C322 C321 1.406 . S
C322 C323 1.381 1_655 S
C323 C322 1.381 1_455 S
C323 C325 1.392 1_455 S
C323 H333 0.931 . S
C324 C320 1.393 . S
C324 C325 1.401 . S
C324 H334 0.930 . S
C325 C323 1.392 1_655 S
C325 C324 1.401 . S
C325 H335 0.930 1_655 S
C326 O304 1.262 . S
C326 O305 1.260 . S
C327 Tb263 2.833 . S
C327 O302 1.251 . S
C327 O307 1.256 . S
C327 C320 1.500 . S
H328 C311 0.930 . S
H329 C312 0.931 . S
H330 C313 0.930 . S
H331 C314 0.930 . S
H332 C321 0.930 . S
H333 C323 0.931 . S
H334 C324 0.930 . S
H335 C325 0.930 1_455 S
H336 C337 0.945 . S
C337 H336 0.945 . S
C337 C343 1.266 . S
H338 C343 0.947 1_556 S
H339 C347 0.949 . S
H340 C348 0.950 . S
H341 C349 0.951 . S
H342 C350 0.951 . S
C343 C337 1.266 . S
C343 H338 0.947 1_554 S
C343 C344 1.481 . S
C344 C343 1.481 . S
C344 C345 1.397 1_554 S
C344 C361 1.394 . S
C345 C344 1.397 1_556 S
C345 C346 1.438 . S
C345 C350 1.429 . S
C346 C345 1.438 . S
C346 C347 1.428 . S
C346 C359 1.394 1_556 S
C347 H339 0.949 . S
C347 C346 1.428 . S
C347 C348 1.345 . S
C348 H340 0.950 . S
C348 C347 1.345 . S
C348 C349 1.424 . S
C349 H341 0.951 . S
C349 C348 1.424 . S
C349 C350 1.347 . S
C350 H342 0.951 . S
C350 C345 1.429 . S
C350 C349 1.347 . S
H351 C352 0.951 . S
C352 H351 0.951 . S
C352 C358 1.265 . S
H353 C358 0.950 . S
H354 C362 0.949 . S
H355 C363 0.950 . S
H356 C364 0.951 . S
H357 C365 0.951 . S
C358 C352 1.265 . S
C358 H353 0.950 . S
C358 C359 1.478 . S
C359 C346 1.394 1_554 S
C359 C358 1.478 . S
C359 C360 1.397 . S
C360 C359 1.397 . S
C360 C361 1.438 . S
C360 C365 1.429 . S
C361 C344 1.394 . S
C361 C360 1.438 . S
C361 C362 1.428 . S
C362 H354 0.949 . S
C362 C361 1.428 . S
C362 C363 1.345 . S
C363 H355 0.950 . S
C363 C362 1.345 . S
C363 C364 1.424 . S
C364 H356 0.951 . S
C364 C363 1.424 . S
C364 C365 1.347 . S
C365 H357 0.951 . S
C365 C360 1.429 . S
C365 C364 1.347 . S
H366 C367 0.951 . S
C367 H366 0.951 . S
C367 C373 1.265 . S
H368 C373 0.950 . S
H369 C377 0.949 . S
H370 C378 0.950 . S
H371 C379 0.951 . S
H372 C380 0.951 . S
C373 C367 1.265 . S
C373 H368 0.950 . S
C373 C374 1.478 . S
C374 C373 1.478 . S
C374 C375 1.397 . S
C374 C391 1.394 . S
C375 C374 1.397 . S
C375 C376 1.438 . S
C375 C380 1.429 . S
C376 C375 1.438 . S
C376 C377 1.428 . S
C376 C389 1.394 . S
C377 H369 0.949 . S
C377 C376 1.428 . S
C377 C378 1.345 . S
C378 H370 0.950 . S
C378 C377 1.345 . S
C378 C379 1.424 . S
C379 H371 0.951 . S
C379 C378 1.424 . S
C379 C380 1.347 . S
C380 H372 0.951 . S
C380 C375 1.429 . S
C380 C379 1.347 . S
H381 C382 0.951 . S
C382 H381 0.951 . S
C382 C388 1.265 . S
H383 C388 0.950 . S
H384 C392 0.949 . S
H385 C393 0.950 . S
H386 C394 0.951 . S
H387 C395 0.951 . S
C388 C382 1.265 . S
C388 H383 0.950 . S
C388 C389 1.478 . S
C389 C376 1.394 . S
C389 C388 1.478 . S
C389 C390 1.397 . S
C390 C389 1.397 . S
C390 C391 1.438 . S
C390 C395 1.429 . S
C391 C374 1.394 . S
C391 C390 1.438 . S
C391 C392 1.428 . S
C392 H384 0.949 . S
C392 C391 1.428 . S
C392 C393 1.345 . S
C393 H385 0.950 . S
C393 C392 1.345 . S
C393 C394 1.424 . S
C394 H386 0.951 . S
C394 C393 1.424 . S
C394 C395 1.347 . S
C395 H387 0.951 . S
C395 C390 1.429 . S
C395 C394 1.347 . S
H396 C397 0.951 . S
C397 H396 0.951 . S
C397 C403 1.265 1_556 S
H398 C403 0.950 . S
H399 C407 0.949 1_565 S
H400 C408 0.950 . S
H401 C409 0.951 . S
H402 C410 0.951 . S
C403 C397 1.265 1_554 S
C403 H398 0.950 . S
C403 C404 1.478 . S
C404 C403 1.478 . S
C404 C405 1.397 . S
C404 C421 1.394 1_544 S
C405 C404 1.397 . S
C405 C406 1.438 1_455 S
C405 C410 1.429 . S
C406 C405 1.438 1_655 S
C406 C407 1.428 . S
C406 C419 1.387 1_544 S
C407 H399 0.949 1_545 S
C407 C406 1.428 . S
C407 C408 1.345 . S
C408 H400 0.950 . S
C408 C407 1.345 . S
C408 C409 1.424 1_655 S
C409 H401 0.951 . S
C409 C408 1.424 1_455 S
C409 C410 1.347 . S
C410 H402 0.951 . S
C410 C405 1.429 . S
C410 C409 1.347 . S
H411 C412 0.951 . S
C412 H411 0.951 . S
C412 C418 1.265 1_554 S
H413 C418 0.950 . S
H414 C422 0.949 1_545 S
H415 C423 0.950 . S
H416 C424 0.951 . S
H417 C425 0.951 . S
C418 C412 1.265 1_556 S
C418 H413 0.950 . S
C418 C419 1.476 . S
C419 C406 1.387 1_566 S
C419 C418 1.476 . S
C419 C420 1.406 . S
C420 C419 1.406 . S
C420 C421 1.438 1_655 S
C420 C425 1.429 . S
C421 C404 1.394 1_566 S
C421 C420 1.438 1_455 S
C421 C422 1.428 . S
C422 H414 0.949 1_565 S
C422 C421 1.428 . S
C422 C423 1.345 . S
C423 H415 0.950 . S
C423 C422 1.345 . S
C423 C424 1.424 1_455 S
C424 H416 0.951 . S
C424 C423 1.424 1_655 S
C424 C425 1.347 . S
C425 H417 0.951 . S
C425 C420 1.429 . S
C425 C424 1.347 . S
H426 C427 0.951 . S
C427 H426 0.951 . S
C427 C433 1.265 . S
H428 C433 0.950 . S
H429 C437 0.949 1_565 S
H430 C438 0.950 . S
H431 C439 0.951 . S
H432 C440 0.951 1_655 S
C433 C427 1.265 . S
C433 H428 0.950 . S
C433 C434 1.478 . S
C434 C433 1.478 . S
C434 C435 1.397 1_655 S
C434 C451 1.394 1_545 S
C435 C434 1.397 1_455 S
C435 C436 1.438 . S
C435 C440 1.429 . S
C436 C435 1.438 . S
C436 C437 1.428 . S
C436 C449 1.394 1_545 S
C437 H429 0.949 1_545 S
C437 C436 1.428 . S
C437 C438 1.345 . S
C438 H430 0.950 . S
C438 C437 1.345 . S
C438 C439 1.424 . S
C439 H431 0.951 . S
C439 C438 1.424 . S
C439 C440 1.347 . S
C440 H432 0.951 1_455 S
C440 C435 1.429 . S
C440 C439 1.347 . S
H441 C442 0.951 . S
C442 H441 0.951 . S
C442 C448 1.265 . S
H443 C448 0.950 . S
H444 C452 0.949 1_545 S
H445 C453 0.950 . S
H446 C454 0.951 . S
H447 C455 0.951 1_455 S
C448 C442 1.265 . S
C448 H443 0.950 . S
C448 C449 1.478 . S
C449 C436 1.394 1_565 S
C449 C448 1.478 . S
C449 C450 1.397 1_455 S
C450 C449 1.397 1_655 S
C450 C451 1.438 . S
C450 C455 1.429 . S
C451 C434 1.394 1_565 S
C451 C450 1.438 . S
C451 C452 1.428 . S
C452 H444 0.949 1_565 S
C452 C451 1.428 . S
C452 C453 1.345 . S
C453 H445 0.950 . S
C453 C452 1.345 . S
C453 C454 1.424 . S
C454 H446 0.951 . S
C454 C453 1.424 . S
C454 C455 1.347 . S
C455 H447 0.951 1_655 S
C455 C450 1.429 . S
C455 C454 1.347 . S
H456 C457 0.951 . S
C457 H456 0.951 . S
C457 C463 1.265 . S
H458 C463 0.950 . S
H459 C467 0.949 . S
H460 C468 0.950 . S
H461 C469 0.951 . S
H462 C470 0.951 . S
C463 C457 1.265 . S
C463 H458 0.950 . S
C463 C464 1.478 . S
C464 C463 1.478 . S
C464 C465 1.397 . S
C464 C481 1.394 . S
C465 C464 1.397 . S
C465 C466 1.438 . S
C465 C470 1.429 . S
C466 C465 1.438 . S
C466 C467 1.428 . S
C466 C479 1.394 . S
C467 H459 0.949 . S
C467 C466 1.428 . S
C467 C468 1.345 . S
C468 H460 0.950 . S
C468 C467 1.345 . S
C468 C469 1.424 . S
C469 H461 0.951 . S
C469 C468 1.424 . S
C469 C470 1.347 . S
C470 H462 0.951 . S
C470 C465 1.429 . S
C470 C469 1.347 . S
H471 C472 0.951 . S
C472 H471 0.951 . S
C472 C478 1.265 . S
H473 C478 0.950 . S
H474 C482 0.949 . S
H475 C483 0.950 . S
H476 C484 0.951 . S
H477 C485 0.951 . S
C478 C472 1.265 . S
C478 H473 0.950 . S
C478 C479 1.478 . S
C479 C466 1.394 . S
C479 C478 1.478 . S
C479 C480 1.397 . S
C480 C479 1.397 . S
C480 C481 1.438 . S
C480 C485 1.429 . S
C481 C464 1.394 . S
C481 C480 1.438 . S
C481 C482 1.428 . S
C482 H474 0.949 . S
C482 C481 1.428 . S
C482 C483 1.345 . S
C483 H475 0.950 . S
C483 C482 1.345 . S
C483 C484 1.424 . S
C484 H476 0.951 . S
C484 C483 1.424 . S
C484 C485 1.347 . S
C485 H477 0.951 . S
C485 C480 1.429 . S
C485 C484 1.347 . S
H486 C487 0.951 . S
C487 H486 0.951 . S
C487 C493 1.265 . S
H488 C493 0.950 . S
H489 C497 0.949 . S
H490 C498 0.950 . S
H491 C499 0.951 . S
H492 C500 0.951 . S
C493 C487 1.265 . S
C493 H488 0.950 . S
C493 C494 1.478 . S
C494 C493 1.478 . S
C494 C495 1.397 . S
C494 C511 1.394 . S
C495 C494 1.397 . S
C495 C496 1.438 . S
C495 C500 1.429 . S
C496 C495 1.438 . S
C496 C497 1.428 . S
C496 C509 1.394 . S
C497 H489 0.949 . S
C497 C496 1.428 . S
C497 C498 1.345 . S
C498 H490 0.950 . S
C498 C497 1.345 . S
C498 C499 1.424 . S
C499 H491 0.951 . S
C499 C498 1.424 . S
C499 C500 1.347 . S
C500 H492 0.951 . S
C500 C495 1.429 . S
C500 C499 1.347 . S
H501 C502 0.951 . S
C502 H501 0.951 . S
C502 C508 1.265 . S
H503 C508 0.950 . S
H504 C512 0.949 . S
H505 C513 0.950 . S
H506 C514 0.951 . S
H507 C515 0.951 . S
C508 C502 1.265 . S
C508 H503 0.950 . S
C508 C509 1.478 . S
C509 C496 1.394 . S
C509 C508 1.478 . S
C509 C510 1.397 . S
C510 C509 1.397 . S
C510 C511 1.438 . S
C510 C515 1.429 . S
C511 C494 1.394 . S
C511 C510 1.438 . S
C511 C512 1.428 . S
C512 H504 0.949 . S
C512 C511 1.428 . S
C512 C513 1.345 . S
C513 H505 0.950 . S
C513 C512 1.345 . S
C513 C514 1.424 . S
C514 H506 0.951 . S
C514 C513 1.424 . S
C514 C515 1.347 . S
C515 H507 0.951 . S
C515 C510 1.429 . S
C515 C514 1.347 . S
H516 C517 0.951 . S
C517 H516 0.951 . S
C517 C523 1.265 . S
H518 C523 0.950 . S
H519 C527 0.949 . S
H520 C528 0.950 . S
H521 C529 0.951 . S
H522 C530 0.951 . S
C523 C517 1.265 . S
C523 H518 0.950 . S
C523 C524 1.478 . S
C524 C523 1.478 . S
C524 C525 1.397 . S
C524 C541 1.394 . S
C525 C524 1.397 . S
C525 C526 1.438 . S
C525 C530 1.429 . S
C526 C525 1.438 . S
C526 C527 1.428 . S
C526 C539 1.394 . S
C527 H519 0.949 . S
C527 C526 1.428 . S
C527 C528 1.345 . S
C528 H520 0.950 . S
C528 C527 1.345 . S
C528 C529 1.424 . S
C529 H521 0.951 . S
C529 C528 1.424 . S
C529 C530 1.347 . S
C530 H522 0.951 . S
C530 C525 1.429 . S
C530 C529 1.347 . S
H531 C532 0.951 . S
C532 H531 0.951 . S
C532 C538 1.265 . S
H533 C538 0.950 . S
H534 C542 0.949 . S
H535 C543 0.950 . S
H536 C544 0.951 . S
H537 C545 0.951 . S
C538 C532 1.265 . S
C538 H533 0.950 . S
C538 C539 1.478 . S
C539 C526 1.394 . S
C539 C538 1.478 . S
C539 C540 1.397 . S
C540 C539 1.397 . S
C540 C541 1.438 . S
C540 C545 1.429 . S
C541 C524 1.394 . S
C541 C540 1.438 . S
C541 C542 1.428 . S
C542 H534 0.949 . S
C542 C541 1.428 . S
C542 C543 1.345 . S
C543 H535 0.950 . S
C543 C542 1.345 . S
C543 C544 1.424 . S
C544 H536 0.951 . S
C544 C543 1.424 . S
C544 C545 1.347 . S
C545 H537 0.951 . S
C545 C540 1.429 . S
C545 C544 1.347 . S
H546 C547 0.951 . S
C547 H546 0.951 . S
C547 C553 1.265 . S
H548 C553 0.950 . S
H549 C557 0.949 . S
H550 C558 0.950 . S
H551 C559 0.951 . S
H552 C560 0.951 . S
C553 C547 1.265 . S
C553 H548 0.950 . S
C553 C554 1.478 . S
C554 C553 1.478 . S
C554 C555 1.397 . S
C554 C571 1.394 . S
C555 C554 1.397 . S
C555 C556 1.438 . S
C555 C560 1.429 . S
C556 C555 1.438 . S
C556 C557 1.428 . S
C556 C569 1.394 . S
C557 H549 0.949 . S
C557 C556 1.428 . S
C557 C558 1.345 . S
C558 H550 0.950 . S
C558 C557 1.345 . S
C558 C559 1.424 . S
C559 H551 0.951 . S
C559 C558 1.424 . S
C559 C560 1.347 . S
C560 H552 0.951 . S
C560 C555 1.429 . S
C560 C559 1.347 . S
H561 C562 0.951 . S
C562 H561 0.951 . S
C562 C568 1.265 . S
H563 C568 0.950 . S
H564 C572 0.949 . S
H565 C573 0.950 . S
H566 C574 0.951 . S
H567 C575 0.951 . S
C568 C562 1.265 . S
C568 H563 0.950 . S
C568 C569 1.478 . S
C569 C556 1.394 . S
C569 C568 1.478 . S
C569 C570 1.397 . S
C570 C569 1.397 . S
C570 C571 1.438 . S
C570 C575 1.429 . S
C571 C554 1.394 . S
C571 C570 1.438 . S
C571 C572 1.428 . S
C572 H564 0.949 . S
C572 C571 1.428 . S
C572 C573 1.345 . S
C573 H565 0.950 . S
C573 C572 1.345 . S
C573 C574 1.424 . S
C574 H566 0.951 . S
C574 C573 1.424 . S
C574 C575 1.347 . S
C575 H567 0.951 . S
C575 C570 1.429 . S
C575 C574 1.347 . S
H576 C577 0.951 . S
C577 H576 0.951 . S
C577 C583 1.265 . S
H578 C583 0.950 . S
H579 C587 0.949 . S
H580 C588 0.950 . S
H581 C589 0.951 . S
H582 C590 0.951 . S
C583 C577 1.265 . S
C583 H578 0.950 . S
C583 C584 1.478 . S
C584 C583 1.478 . S
C584 C585 1.397 . S
C584 C601 1.394 . S
C585 C584 1.397 . S
C585 C586 1.438 . S
C585 C590 1.429 . S
C586 C585 1.438 . S
C586 C587 1.428 1_655 S
C586 C599 1.394 . S
C587 H579 0.949 . S
C587 C586 1.428 1_455 S
C587 C588 1.345 . S
C588 H580 0.950 . S
C588 C587 1.345 . S
C588 C589 1.424 . S
C589 H581 0.951 . S
C589 C588 1.424 . S
C589 C590 1.347 1_455 S
C590 H582 0.951 . S
C590 C585 1.429 . S
C590 C589 1.347 1_655 S
H591 C592 0.951 1_455 S
C592 H591 0.951 1_655 S
C592 C598 1.265 . S
H593 C598 0.950 . S
H594 C602 0.949 . S
H595 C603 0.950 . S
H596 C604 0.951 . S
H597 C605 0.951 . S
C598 C592 1.265 . S
C598 H593 0.950 . S
C598 C599 1.478 . S
C599 C586 1.394 . S
C599 C598 1.478 . S
C599 C600 1.397 . S
C600 C599 1.397 . S
C600 C601 1.438 . S
C600 C605 1.429 . S
C601 C584 1.394 . S
C601 C600 1.438 . S
C601 C602 1.428 . S
C602 H594 0.949 . S
C602 C601 1.428 . S
C602 C603 1.345 . S
C603 H595 0.950 . S
C603 C602 1.345 . S
C603 C604 1.424 . S
C604 H596 0.951 . S
C604 C603 1.424 . S
C604 C605 1.347 . S
C605 H597 0.951 . S
C605 C600 1.429 . S
C605 C604 1.347 . S
H606 C607 0.951 . S
C607 H606 0.951 . S
C607 C613 1.265 . S
H608 C613 0.950 . S
H609 C617 0.949 . S
H610 C618 0.950 . S
H611 C619 0.951 . S
H612 C620 0.951 . S
C613 C607 1.265 . S
C613 H608 0.950 . S
C613 C614 1.478 . S
C614 C613 1.478 . S
C614 C615 1.397 . S
C614 C631 1.394 . S
C615 C614 1.397 . S
C615 C616 1.438 . S
C615 C620 1.429 . S
C616 C615 1.438 . S
C616 C617 1.428 . S
C616 C629 1.394 . S
C617 H609 0.949 . S
C617 C616 1.428 . S
C617 C618 1.345 . S
C618 H610 0.950 . S
C618 C617 1.345 . S
C618 C619 1.424 . S
C619 H611 0.951 . S
C619 C618 1.424 . S
C619 C620 1.347 . S
C620 H612 0.951 . S
C620 C615 1.429 . S
C620 C619 1.347 . S
H621 C622 0.951 . S
C622 H621 0.951 . S
C622 C628 1.265 1_655 S
H623 C628 0.950 . S
H624 C632 0.949 . S
H625 C633 0.950 . S
H626 C634 0.951 . S
H627 C635 0.951 . S
C628 C622 1.265 1_455 S
C628 H623 0.950 . S
C628 C629 1.478 1_455 S
C629 C616 1.394 . S
C629 C628 1.478 1_655 S
C629 C630 1.397 . S
C630 C629 1.397 . S
C630 C631 1.438 . S
C630 C635 1.429 1_655 S
C631 C614 1.394 . S
C631 C630 1.438 . S
C631 C632 1.428 . S
C632 H624 0.949 . S
C632 C631 1.428 . S
C632 C633 1.345 1_655 S
C633 H625 0.950 . S
C633 C632 1.345 1_455 S
C633 C634 1.424 . S
C634 H626 0.951 . S
C634 C633 1.424 . S
C634 C635 1.347 . S
C635 H627 0.951 . S
C635 C630 1.429 1_455 S
C635 C634 1.347 . S
H636 C637 0.951 1_655 S
C637 H636 0.951 1_455 S
C637 C643 1.265 . S
H638 C643 0.950 . S
H639 C647 0.949 . S
H640 C648 0.950 . S
H641 C649 0.951 . S
H642 C650 0.951 . S
C643 C637 1.265 . S
C643 H638 0.950 . S
C643 C644 1.478 . S
C644 C643 1.478 . S
C644 C645 1.397 . S
C644 C661 1.394 . S
C645 C644 1.397 . S
C645 C646 1.438 . S
C645 C650 1.429 . S
C646 C645 1.438 . S
C646 C647 1.428 . S
C646 C659 1.394 . S
C647 H639 0.949 . S
C647 C646 1.428 . S
C647 C648 1.345 . S
C648 H640 0.950 . S
C648 C647 1.345 . S
C648 C649 1.424 . S
C649 H641 0.951 . S
C649 C648 1.424 . S
C649 C650 1.347 . S
C650 H642 0.951 . S
C650 C645 1.429 . S
C650 C649 1.347 . S
H651 C652 0.951 . S
C652 H651 0.951 . S
C652 C658 1.265 . S
H653 C658 0.950 . S
H654 C662 0.949 . S
H655 C663 0.950 . S
H656 C664 0.951 . S
H657 C665 0.951 . S
C658 C652 1.265 . S
C658 H653 0.950 . S
C658 C659 1.478 . S
C659 C646 1.394 . S
C659 C658 1.478 . S
C659 C660 1.397 . S
C660 C659 1.397 . S
C660 C661 1.438 . S
C660 C665 1.429 . S
C661 C644 1.394 . S
C661 C660 1.438 . S
C661 C662 1.428 . S
C662 H654 0.949 . S
C662 C661 1.428 . S
C662 C663 1.345 . S
C663 H655 0.950 . S
C663 C662 1.345 . S
C663 C664 1.424 . S
C664 H656 0.951 . S
C664 C663 1.424 . S
C664 C665 1.347 . S
C665 H657 0.951 . S
C665 C660 1.429 . S
C665 C664 1.347 . S
H666 C667 0.951 . S
C667 H666 0.951 . S
C667 C673 1.265 . S
H668 C673 0.950 . S
H669 C677 0.949 . S
H670 C678 0.950 . S
H671 C679 0.951 . S
H672 C680 0.951 . S
C673 C667 1.265 . S
C673 H668 0.950 . S
C673 C674 1.478 . S
C674 C673 1.478 . S
C674 C675 1.397 . S
C674 C691 1.394 . S
C675 C674 1.397 . S
C675 C676 1.438 . S
C675 C680 1.429 1_455 S
C676 C675 1.438 . S
C676 C677 1.428 1_455 S
C676 C689 1.394 . S
C677 H669 0.949 . S
C677 C676 1.428 1_655 S
C677 C678 1.345 . S
C678 H670 0.950 . S
C678 C677 1.345 . S
C678 C679 1.424 . S
C679 H671 0.951 . S
C679 C678 1.424 . S
C679 C680 1.347 . S
C680 H672 0.951 . S
C680 C675 1.429 1_655 S
C680 C679 1.347 . S
H681 C682 0.951 1_655 S
C682 H681 0.951 1_455 S
C682 C688 1.265 . S
H683 C688 0.950 . S
H684 C692 0.949 . S
H685 C693 0.950 . S
H686 C694 0.951 . S
H687 C695 0.951 . S
C688 C682 1.265 . S
C688 H683 0.950 . S
C688 C689 1.478 . S
C689 C676 1.394 . S
C689 C688 1.478 . S
C689 C690 1.397 . S
C690 C689 1.397 . S
C690 C691 1.438 . S
C690 C695 1.429 . S
C691 C674 1.394 . S
C691 C690 1.438 . S
C691 C692 1.428 . S
C692 H684 0.949 . S
C692 C691 1.428 . S
C692 C693 1.345 . S
C693 H685 0.950 . S
C693 C692 1.345 . S
C693 C694 1.424 . S
C694 H686 0.951 . S
C694 C693 1.424 . S
C694 C695 1.347 . S
C695 H687 0.951 . S
C695 C690 1.429 . S
C695 C694 1.347 . S
C337 C147 1.519 1_554 S
C352 C74 1.528 . S
C367 C242 1.524 . S
C382 C315 1.524 . S
C397 C63 1.449 . S
C412 C158 1.449 . S
C427 C326 1.530 . S
C442 C231 1.530 . S
C457 C310 1.180 . S
C472 C56 1.114 . S
C487 C142 1.150 . S
C502 C224 1.107 . S
C517 C151 1.157 . S
C532 C238 1.232 . S
C547 C319 1.158 . S
C562 C70 1.234 . S
C577 C140 1.120 . S
C592 C226 1.190 1_655 S
C607 C308 1.254 . S
C622 C58 1.213 1_655 S
C637 C322 1.223 1_455 S
C652 C67 1.147 . S
C667 C235 1.211 . S
C682 C154 1.258 1_455 S
