# Generated by pormake.
# Topology wjd, (6)-cn, num edge types: 1
# Building blocks:
#     Node 0, Type 0, BuildingBlock: MIFKUJ_clean_sbu_0, # of connection points: 6
#     Node 1, Type 0, BuildingBlock: MIFKUJ_clean_sbu_0, # of connection points: 6
#     Node 2, Type 0, BuildingBlock: MIFKUJ_clean_sbu_0, # of connection points: 6
#     Node 3, Type 0, BuildingBlock: MIFKUJ_clean_sbu_0, # of connection points: 6
#     Node 4, Type 0, BuildingBlock: MIFKUJ_clean_sbu_0, # of connection points: 6
#     Node 5, Type 0, BuildingBlock: MIFKUJ_clean_sbu_0, # of connection points: 6
#     Node 6, Type 0, BuildingBlock: MIFKUJ_clean_sbu_0, # of connection points: 6
#     Node 7, Type 0, BuildingBlock: MIFKUJ_clean_sbu_0, # of connection points: 6
#     Node 8, Type 0, BuildingBlock: MIFKUJ_clean_sbu_0, # of connection points: 6
#     Node 9, Type 0, BuildingBlock: MIFKUJ_clean_sbu_0, # of connection points: 6
#     Node 10, Type 0, BuildingBlock: MIFKUJ_clean_sbu_0, # of connection points: 6
#     Node 11, Type 0, BuildingBlock: MIFKUJ_clean_sbu_0, # of connection points: 6
#     Edge 12, Type (0, 0), BuildingBlock: CIFDUS_clean_linker_0, # of connection points: 2
#     Edge 13, Type (0, 0), BuildingBlock: CIFDUS_clean_linker_0, # of connection points: 2
#     Edge 14, Type (0, 0), BuildingBlock: CIFDUS_clean_linker_0, # of connection points: 2
#     Edge 15, Type (0, 0), BuildingBlock: CIFDUS_clean_linker_0, # of connection points: 2
#     Edge 16, Type (0, 0), BuildingBlock: CIFDUS_clean_linker_0, # of connection points: 2
#     Edge 17, Type (0, 0), BuildingBlock: CIFDUS_clean_linker_0, # of connection points: 2
#     Edge 18, Type (0, 0), BuildingBlock: CIFDUS_clean_linker_0, # of connection points: 2
#     Edge 19, Type (0, 0), BuildingBlock: CIFDUS_clean_linker_0, # of connection points: 2
#     Edge 20, Type (0, 0), BuildingBlock: CIFDUS_clean_linker_0, # of connection points: 2
#     Edge 21, Type (0, 0), BuildingBlock: CIFDUS_clean_linker_0, # of connection points: 2
#     Edge 22, Type (0, 0), BuildingBlock: CIFDUS_clean_linker_0, # of connection points: 2
#     Edge 23, Type (0, 0), BuildingBlock: CIFDUS_clean_linker_0, # of connection points: 2
#     Edge 24, Type (0, 0), BuildingBlock: CIFDUS_clean_linker_0, # of connection points: 2
#     Edge 25, Type (0, 0), BuildingBlock: CIFDUS_clean_linker_0, # of connection points: 2
#     Edge 26, Type (0, 0), BuildingBlock: CIFDUS_clean_linker_0, # of connection points: 2
#     Edge 27, Type (0, 0), BuildingBlock: CIFDUS_clean_linker_0, # of connection points: 2
#     Edge 28, Type (0, 0), BuildingBlock: CIFDUS_clean_linker_0, # of connection points: 2
#     Edge 29, Type (0, 0), BuildingBlock: CIFDUS_clean_linker_0, # of connection points: 2
#     Edge 30, Type (0, 0), BuildingBlock: CIFDUS_clean_linker_0, # of connection points: 2
#     Edge 31, Type (0, 0), BuildingBlock: CIFDUS_clean_linker_0, # of connection points: 2
#     Edge 32, Type (0, 0), BuildingBlock: CIFDUS_clean_linker_0, # of connection points: 2
#     Edge 33, Type (0, 0), BuildingBlock: CIFDUS_clean_linker_0, # of connection points: 2
#     Edge 34, Type (0, 0), BuildingBlock: CIFDUS_clean_linker_0, # of connection points: 2
#     Edge 35, Type (0, 0), BuildingBlock: CIFDUS_clean_linker_0, # of connection points: 2
#     Edge 36, Type (0, 0), BuildingBlock: CIFDUS_clean_linker_0, # of connection points: 2
#     Edge 37, Type (0, 0), BuildingBlock: CIFDUS_clean_linker_0, # of connection points: 2
#     Edge 38, Type (0, 0), BuildingBlock: CIFDUS_clean_linker_0, # of connection points: 2
#     Edge 39, Type (0, 0), BuildingBlock: CIFDUS_clean_linker_0, # of connection points: 2
#     Edge 40, Type (0, 0), BuildingBlock: CIFDUS_clean_linker_0, # of connection points: 2
#     Edge 41, Type (0, 0), BuildingBlock: CIFDUS_clean_linker_0, # of connection points: 2
#     Edge 42, Type (0, 0), BuildingBlock: CIFDUS_clean_linker_0, # of connection points: 2
#     Edge 43, Type (0, 0), BuildingBlock: CIFDUS_clean_linker_0, # of connection points: 2
#     Edge 44, Type (0, 0), BuildingBlock: CIFDUS_clean_linker_0, # of connection points: 2
#     Edge 45, Type (0, 0), BuildingBlock: CIFDUS_clean_linker_0, # of connection points: 2
#     Edge 46, Type (0, 0), BuildingBlock: CIFDUS_clean_linker_0, # of connection points: 2
#     Edge 47, Type (0, 0), BuildingBlock: CIFDUS_clean_linker_0, # of connection points: 2
# Relax obj value: 0.087
# Max RMSD: 0.191
# Mean RMSD: 0.191
data_MOF--net-wjd--node1-MIFKUJ_clean_sbu_0--edge1-CIFDUS_clean_linker_0
_symmetry_space_group_name_H-M    P1
_symmetry_Int_Tables_number       1
_symmetry_cell_setting            triclinic
loop_
_symmetry_equiv_pos_as_xyz
'x, y, z'
_cell_length_a     31.228522
_cell_length_b     31.306205
_cell_length_c     45.526254
_cell_angle_alpha  90.28602
_cell_angle_beta   89.763868
_cell_angle_gamma 119.67881
loop_
_atom_site_label
_atom_site_type_symbol
_atom_site_fract_x
_atom_site_fract_y
_atom_site_fract_z
_atom_type_partial_charge
Zn0 Zn 0.25718 0.07238 0.11994 0.0
Zn1 Zn 0.36496 0.16481 0.0955 0.0
C2 C 0.21442 0.13152 0.12773 0.0
O3 O 0.21913 0.11984 0.15474 0.0
C4 C 0.44511 0.14701 0.08662 0.0
O5 O 0.43794 0.15617 0.05949 0.0
O6 O 0.19538 0.01027 0.13135 0.0
O7 O 0.2867 0.05091 0.08969 0.0
O8 O 0.32298 0.11722 0.06216 0.0
C9 C 0.1664 0.98666 0.11027 0.0
O10 O 0.17914 0.00344 0.0834 0.0
O11 O 0.2317 0.11751 0.10675 0.0
C12 C 0.43978 0.26183 0.09923 0.0
O13 O 0.43786 0.24385 0.12553 0.0
O14 O 0.40885 0.23402 0.07999 0.0
O15 O 0.33652 0.17454 0.13432 0.0
O16 O 0.30241 0.10008 0.1533 0.0
O17 O 0.41562 0.14529 0.10657 0.0
C18 C 0.30121 0.07055 0.06485 0.0
C19 C 0.32839 0.14626 0.15614 0.0
Zn20 Zn 0.77802 0.59241 0.39339 0.0
Zn21 Zn 0.84747 0.7442 0.38494 0.0
C22 C 0.67112 0.53469 0.4002 0.0
O23 O 0.67552 0.56751 0.41981 0.0
C24 C 0.94621 0.77829 0.36617 0.0
O25 O 0.92446 0.76616 0.34047 0.0
O26 O 0.81634 0.55615 0.39529 0.0
O27 O 0.79538 0.634 0.35637 0.0
O28 O 0.82708 0.71295 0.34571 0.0
C29 C 0.81129 0.53063 0.37237 0.0
O30 O 0.7867 0.53421 0.35006 0.0
O31 O 0.709 0.53936 0.38682 0.0
C32 C 0.85311 0.82992 0.41054 0.0
O33 O 0.87343 0.81816 0.43194 0.0
O34 O 0.83746 0.80235 0.38798 0.0
O35 O 0.8095 0.69712 0.41582 0.0
O36 O 0.7741 0.62197 0.43218 0.0
O37 O 0.92013 0.77004 0.38921 0.0
C38 C 0.80929 0.66846 0.33765 0.0
C39 C 0.78507 0.66641 0.43556 0.0
Zn40 Zn 0.91693 0.19567 0.10656 0.0
Zn41 Zn 0.82018 0.22174 0.09409 0.0
C42 C 0.85576 0.09422 0.10656 0.0
O43 O 0.86774 0.10478 0.13432 0.0
C44 C 0.84813 0.32322 0.08045 0.0
O45 O 0.83672 0.30711 0.05332 0.0
O46 O 0.98178 0.19623 0.11029 0.0
O47 O 0.92999 0.25315 0.08211 0.0
O48 O 0.85887 0.21649 0.05944 0.0
C49 C 0.99785 0.18505 0.08744 0.0
O50 O 0.97269 0.17562 0.0629 0.0
O51 O 0.87102 0.12928 0.08818 0.0
C52 C 0.7176 0.18941 0.10214 0.0
O53 O 0.73297 0.20233 0.12926 0.0
O54 O 0.74849 0.19316 0.08255 0.0
O55 O 0.82178 0.19776 0.13523 0.0
O56 O 0.89141 0.1981 0.14595 0.0
O57 O 0.84488 0.29364 0.10048 0.0
C58 C 0.90561 0.24234 0.05853 0.0
C59 C 0.85012 0.19345 0.15348 0.0
Zn60 Zn 0.38675 0.1719 0.38337 0.0
Zn61 Zn 0.30053 0.07612 0.37147 0.0
C62 C 0.46672 0.15386 0.39634 0.0
O63 O 0.46525 0.17386 0.4215 0.0
C64 C 0.24344 0.12446 0.36249 0.0
O65 O 0.23823 0.10405 0.3365 0.0
O66 O 0.43069 0.24379 0.38983 0.0
O67 O 0.3556 0.16953 0.3432 0.0
O68 O 0.33628 0.09329 0.33403 0.0
C69 C 0.45973 0.26285 0.36813 0.0
O70 O 0.45678 0.23459 0.3459 0.0
O71 O 0.43488 0.14691 0.37678 0.0
C72 C 0.21592 0.9961 0.39228 0.0
O73 O 0.22918 0.02695 0.41449 0.0
O74 O 0.24208 0.00893 0.36909 0.0
O75 O 0.3411 0.07221 0.40316 0.0
O76 O 0.34836 0.13984 0.42137 0.0
O77 O 0.2711 0.12008 0.3813 0.0
C78 C 0.35112 0.13655 0.32509 0.0
C79 C 0.34183 0.09682 0.42536 0.0
Zn80 Zn 0.78342 0.72845 0.11788 0.0
Zn81 Zn 0.77386 0.61333 0.10515 0.0
C82 C 0.88308 0.78557 0.11674 0.0
O83 O 0.86781 0.79495 0.14159 0.0
C84 C 0.67979 0.5276 0.0903 0.0
O85 O 0.69511 0.54011 0.06314 0.0
O86 O 0.77345 0.7869 0.12109 0.0
O87 O 0.72504 0.67624 0.09753 0.0
O88 O 0.76695 0.65171 0.07104 0.0
C89 C 0.78235 0.81482 0.099 0.0
O90 O 0.79633 0.80378 0.07419 0.0
O91 O 0.85109 0.75441 0.09912 0.0
C92 C 0.82908 0.56248 0.10795 0.0
O93 O 0.82294 0.56559 0.13629 0.0
O94 O 0.81393 0.58335 0.09027 0.0
O95 O 0.79732 0.64195 0.14686 0.0
O96 O 0.78869 0.70696 0.15719 0.0
O97 O 0.70654 0.55426 0.11134 0.0
C98 C 0.73606 0.66683 0.07265 0.0
C99 C 0.79897 0.67419 0.16481 0.0
Zn100 Zn 0.83275 0.20996 0.38309 0.0
Zn101 Zn 0.93981 0.19177 0.36951 0.0
C102 C 0.86115 0.30887 0.40176 0.0
O103 O 0.86204 0.29125 0.42774 0.0
C104 C 0.89713 0.09214 0.36925 0.0
O105 O 0.91464 0.10612 0.34262 0.0
O106 O 0.76118 0.1789 0.39605 0.0
O107 O 0.8354 0.18539 0.34167 0.0
O108 O 0.9059 0.18615 0.33221 0.0
C109 C 0.7274 0.16925 0.37731 0.0
O110 O 0.73888 0.17511 0.34927 0.0
O111 O 0.85197 0.28147 0.37924 0.0
C112 C 0.03258 0.19539 0.38019 0.0
O113 O 0.01492 0.18545 0.40707 0.0
O114 O 0.0079 0.20222 0.36042 0.0
O115 O 0.94434 0.24577 0.39434 0.0
O116 O 0.87307 0.205 0.41681 0.0
O117 O 0.90341 0.12467 0.38824 0.0
C118 C 0.86431 0.17985 0.3242 0.0
C119 C 0.91988 0.23027 0.41784 0.0
Zn120 Zn 0.18586 0.38653 0.59237 0.0
Zn121 Zn 0.08036 0.28093 0.60692 0.0
C122 C 0.15913 0.4608 0.5798 0.0
O123 O 0.16983 0.45495 0.55266 0.0
C124 C 0.12524 0.22438 0.6128 0.0
O125 O 0.10562 0.22164 0.63879 0.0
O126 O 0.25724 0.4309 0.57996 0.0
O127 O 0.18683 0.35913 0.63301 0.0
O128 O 0.10721 0.31549 0.6442 0.0
C129 C 0.28766 0.45924 0.59923 0.0
O130 O 0.27232 0.45657 0.62643 0.0
O131 O 0.16124 0.43389 0.59991 0.0
C132 C 0.99154 0.18816 0.59525 0.0
O133 O 0.01321 0.19341 0.56968 0.0
O134 O 0.01232 0.22204 0.61447 0.0
O135 O 0.07573 0.32401 0.57741 0.0
O136 O 0.14692 0.34287 0.55745 0.0
O137 O 0.12136 0.25124 0.59334 0.0
C138 C 0.15216 0.33925 0.65183 0.0
C139 C 0.10112 0.32832 0.55479 0.0
Zn140 Zn 0.21602 0.94159 0.87646 0.0
Zn141 Zn 0.23607 0.83466 0.8818 0.0
C142 C 0.11847 0.90454 0.87809 0.0
O143 O 0.13714 0.93777 0.85724 0.0
C144 C 0.33912 0.86202 0.89166 0.0
O145 O 0.32916 0.86475 0.91944 0.0
O146 O 0.22713 0.01114 0.88155 0.0
O147 O 0.27225 0.93565 0.89087 0.0
O148 O 0.2397 0.87247 0.91947 0.0
C149 C 0.21092 0.0192 0.90549 0.0
O150 O 0.19305 0.98464 0.92558 0.0
O151 O 0.14787 0.89652 0.8934 0.0
C152 C 0.18947 0.7322 0.86679 0.0
O153 O 0.19732 0.75145 0.84039 0.0
O154 O 0.20063 0.76067 0.88898 0.0
O155 O 0.21056 0.84968 0.8433 0.0
O156 O 0.20759 0.91878 0.83577 0.0
O157 O 0.30572 0.85108 0.87248 0.0
C158 C 0.26378 0.91882 0.91651 0.0
C159 C 0.20167 0.87754 0.82695 0.0
Zn160 Zn 0.62385 0.80188 0.59372 0.0
Zn161 Zn 0.72366 0.80474 0.60998 0.0
C162 C 0.54923 0.7016 0.58227 0.0
O163 O 0.55257 0.71964 0.55582 0.0
C164 C 0.77671 0.91026 0.6151 0.0
O165 O 0.776 0.89846 0.64283 0.0
O166 O 0.5747 0.8239 0.58376 0.0
O167 O 0.65187 0.83506 0.63378 0.0
O168 O 0.6858 0.79074 0.64611 0.0
C169 C 0.54421 0.81351 0.60484 0.0
O170 O 0.54989 0.7929 0.62847 0.0
O171 O 0.57878 0.7292 0.60208 0.0
C172 C 0.81012 0.79814 0.598 0.0
O173 O 0.79938 0.80312 0.57081 0.0
O174 O 0.78178 0.7964 0.61864 0.0
O175 O 0.68414 0.75555 0.5802 0.0
O176 O 0.66673 0.80648 0.55764 0.0
O177 O 0.75355 0.876 0.59642 0.0
C178 C 0.66256 0.81273 0.65314 0.0
C179 C 0.67871 0.77306 0.55652 0.0
Zn180 Zn 0.0775 0.25417 0.87746 0.0
Zn181 Zn 0.16737 0.38706 0.88112 0.0
C182 C 0.16435 0.24483 0.88593 0.0
O183 O 0.18231 0.27883 0.86553 0.0
C184 C 0.16167 0.4705 0.90324 0.0
O185 O 0.17674 0.45851 0.92712 0.0
O186 O 0.01299 0.19318 0.87031 0.0
O187 O 0.06123 0.29942 0.89875 0.0
O188 O 0.13314 0.34839 0.91852 0.0
C189 C 0.98022 0.16935 0.88954 0.0
O190 O 0.98813 0.18399 0.91707 0.0
O191 O 0.12225 0.23262 0.89689 0.0
C192 C 0.26491 0.4584 0.87206 0.0
O193 O 0.24143 0.47044 0.85286 0.0
O194 O 0.24063 0.42005 0.8875 0.0
O195 O 0.15495 0.35795 0.83913 0.0
O196 O 0.10114 0.27815 0.83833 0.0
O197 O 0.15284 0.4438 0.88039 0.0
C198 C 0.08668 0.32174 0.92091 0.0
C199 C 0.1302 0.31756 0.82521 0.0
Zn200 Zn 0.21602 0.82366 0.59323 0.0
Zn201 Zn 0.19054 0.92007 0.61199 0.0
C202 C 0.31464 0.85104 0.57105 0.0
O203 O 0.29845 0.85628 0.5455 0.0
C204 C 0.08938 0.86651 0.61338 0.0
O205 O 0.10208 0.88101 0.64066 0.0
O206 O 0.18019 0.75246 0.58029 0.0
O207 O 0.20019 0.82598 0.63667 0.0
O208 O 0.19459 0.89156 0.64922 0.0
C209 C 0.17866 0.72157 0.59893 0.0
O210 O 0.19643 0.7372 0.62536 0.0
O211 O 0.28667 0.8395 0.59345 0.0
C212 C 0.18903 0.00887 0.60125 0.0
O213 O 0.18597 0.99383 0.57395 0.0
O214 O 0.19234 0.98332 0.62177 0.0
O215 O 0.24644 0.93707 0.58504 0.0
O216 O 0.21105 0.86668 0.56121 0.0
O217 O 0.12325 0.87732 0.59442 0.0
C218 C 0.1947 0.85244 0.65592 0.0
C219 C 0.23655 0.91341 0.56116 0.0
Zn220 Zn 0.73525 0.80058 0.86722 0.0
Zn221 Zn 0.62139 0.78233 0.88635 0.0
C222 C 0.76139 0.89869 0.86525 0.0
O223 O 0.7635 0.88771 0.83758 0.0
C224 C 0.53934 0.67977 0.89021 0.0
O225 O 0.57241 0.66551 0.89138 0.0
O226 O 0.80439 0.81383 0.86157 0.0
O227 O 0.70236 0.74354 0.89346 0.0
O228 O 0.65857 0.76873 0.91884 0.0
C229 C 0.82951 0.80748 0.88123 0.0
O230 O 0.80914 0.78889 0.90673 0.0
O231 O 0.74391 0.86402 0.88391 0.0
C232 C 0.57972 0.84034 0.87538 0.0
O233 O 0.57369 0.81599 0.85076 0.0
O234 O 0.60647 0.83709 0.89533 0.0
O235 O 0.63498 0.78134 0.84263 0.0
O236 O 0.70488 0.78605 0.82833 0.0
O237 O 0.55313 0.72525 0.88881 0.0
C238 C 0.68168 0.74476 0.91713 0.0
C239 C 0.66341 0.78173 0.82256 0.0
H240 H 0.06193 0.20722 0.13299 0.0
H241 H 0.03281 0.14864 0.04476 0.0
H242 H 0.10094 0.13169 0.04811 0.0
H243 H 0.16464 0.1272 0.07761 0.0
H244 H 0.19216 0.18417 0.16617 0.0
H245 H 0.12968 0.20877 0.16095 0.0
C246 C 0.07072 0.19113 0.1144 0.0
C247 C 0.04192 0.17884 0.0888 0.0
C248 C 0.10986 0.1812 0.1165 0.0
C249 C 0.05417 0.15835 0.06483 0.0
C250 C 0.09317 0.14856 0.06671 0.0
C251 C 0.15763 0.1459 0.09553 0.0
C252 C 0.18282 0.15359 0.12229 0.0
C253 C 0.12076 0.15903 0.09262 0.0
C254 C 0.17303 0.17751 0.1454 0.0
C255 C 0.13717 0.19146 0.14248 0.0
H256 H 0.16848 0.93361 0.34717 0.0
H257 H 0.15765 0.95451 0.44015 0.0
H258 H 0.07451 0.88386 0.44103 0.0
H259 H 1.0019 0.82267 0.41434 0.0
H260 H 0.01174 0.80398 0.32095 0.0
H261 H 0.09856 0.86678 0.32143 0.0
C262 C 0.14821 0.92225 0.3677 0.0
C263 C 0.16875 0.94965 0.39342 0.0
C264 C 0.10016 0.88218 0.36797 0.0
C265 C 0.14224 0.93439 0.41993 0.0
C266 C 0.09473 0.89399 0.42048 0.0
C267 C 0.02323 0.83167 0.39418 0.0
C268 C 1.00025 0.80922 0.36761 0.0
C269 C 0.07282 0.86858 0.39446 0.0
C270 C 0.02846 0.82108 0.3417 0.0
C271 C 0.07809 0.85711 0.3419 0.0
H272 H 0.80097 0.01474 0.13987 0.0
H273 H 0.86002 0.0575 0.05241 0.0
H274 H 0.83727 0.97222 0.04107 0.0
H275 H 0.81077 0.88815 0.05857 0.0
H276 H 0.75467 0.84763 0.14696 0.0
H277 H 0.76591 0.92942 0.15531 0.0
C278 C 0.80809 0.00525 0.11813 0.0
C279 C 0.83266 0.04233 0.09713 0.0
C280 C 0.79604 0.95668 0.11209 0.0
C281 C 0.84108 0.02952 0.06894 0.0
C282 C 0.82849 0.98087 0.06256 0.0
C283 C 0.80034 0.897 0.07951 0.0
C284 C 0.7827 0.86203 0.10229 0.0
C285 C 0.80756 0.94451 0.08435 0.0
C286 C 0.76892 0.87397 0.12918 0.0
C287 C 0.77533 0.92077 0.134 0.0
H288 H 0.19405 0.15327 0.3259 0.0
H289 H 0.22252 0.14428 0.41768 0.0
H290 H 0.16227 0.16926 0.43131 0.0
H291 H 0.09612 0.18629 0.41715 0.0
H292 H 0.06825 0.19558 0.32525 0.0
H293 H 0.13393 0.1784 0.31176 0.0
C294 C 0.18749 0.1573 0.3489 0.0
C295 C 0.2124 0.14637 0.37072 0.0
C296 C 0.15265 0.17148 0.35658 0.0
C297 C 0.20388 0.15239 0.40041 0.0
C298 C 0.16921 0.16644 0.40824 0.0
C299 C 0.10475 0.1851 0.39417 0.0
C300 C 0.07677 0.19163 0.37226 0.0
C301 C 0.14253 0.17495 0.38651 0.0
C302 C 0.08892 0.19049 0.3426 0.0
C303 C 0.12642 0.18047 0.33484 0.0
H304 H 0.09715 0.92887 0.06996 0.0
H305 H 0.12485 0.94768 0.16333 0.0
H306 H 0.0406 0.88295 0.17305 0.0
H307 H 0.95745 0.82704 0.15541 0.0
H308 H 0.92781 0.80806 0.06242 0.0
H309 H 0.0149 0.86643 0.05209 0.0
C310 C 0.08491 0.91852 0.09244 0.0
C311 C 0.11713 0.94368 0.11592 0.0
C312 C 0.03614 0.88143 0.0979 0.0
C313 C 0.10081 0.92932 0.14487 0.0
C314 C 0.05258 0.89233 0.15046 0.0
C315 C 0.9701 0.83528 0.13283 0.0
C316 C 0.93623 0.81386 0.10969 0.0
C317 C 0.0197 0.86909 0.12719 0.0
C318 C 0.95324 0.82414 0.08058 0.0
C319 C 0.00291 0.85774 0.07472 0.0
H320 H 0.82015 0.86672 0.36821 0.0
H321 H 0.889 0.90061 0.45359 0.0
H322 H 0.9023 0.98428 0.45039 0.0
H323 H 0.90402 0.05077 0.42026 0.0
H324 H 0.83995 0.01646 0.33365 0.0
H325 H 0.8145 0.92995 0.34055 0.0
C326 C 0.83744 0.89211 0.38635 0.0
C327 C 0.85427 0.8777 0.41086 0.0
C328 C 0.84602 0.94029 0.38405 0.0
C329 C 0.87616 0.91096 0.43428 0.0
C330 C 0.88387 0.95887 0.43246 0.0
C331 C 0.88336 0.02398 0.40331 0.0
C332 C 0.87395 0.03965 0.37647 0.0
C333 C 0.87035 0.97441 0.40702 0.0
C334 C 0.84776 0.005 0.35442 0.0
C335 C 0.83335 0.95563 0.3583 0.0
H336 H 0.18601 0.07388 0.56294 0.0
H337 H 0.18083 0.04154 0.65544 0.0
H338 H 0.16476 0.10834 0.6671 0.0
H339 H 0.14603 0.1715 0.651 0.0
H340 H 0.14988 0.204 0.55869 0.0
H341 H 0.17338 0.14196 0.54703 0.0
C342 C 0.18175 0.0817 0.58566 0.0
C343 C 0.18409 0.05239 0.60824 0.0
C344 C 0.17222 0.1201 0.59225 0.0
C345 C 0.17899 0.06333 0.63759 0.0
C346 C 0.16971 0.1015 0.64431 0.0
C347 C 0.15243 0.16539 0.62832 0.0
C348 C 0.1457 0.19192 0.60573 0.0
C349 C 0.16531 0.12943 0.62179 0.0
C350 C 0.15471 0.18396 0.5765 0.0
C351 C 0.16791 0.14833 0.56981 0.0
H352 H 0.05159 0.90888 0.84341 0.0
H353 H 0.06404 0.84229 0.92332 0.0
H354 H 0.9746 0.80447 0.93103 0.0
H355 H 0.89349 0.79361 0.91559 0.0
H356 H 0.88469 0.86182 0.83522 0.0
H357 H 0.97253 0.89598 0.82731 0.0
C358 C 0.03503 0.88609 0.8626 0.0
C359 C 0.06454 0.87878 0.88292 0.0
C360 C 0.98424 0.86491 0.86683 0.0
C361 C 0.04212 0.84861 0.9074 0.0
C362 C 0.99106 0.82712 0.91181 0.0
C363 C 0.91083 0.81573 0.89629 0.0
C364 C 0.88245 0.82518 0.87607 0.0
C365 C 0.96181 0.83549 0.89178 0.0
C366 C 0.90543 0.85375 0.85111 0.0
C367 C 0.95577 0.87347 0.84656 0.0
H368 H 0.81997 0.99229 0.64939 0.0
H369 H 0.80903 0.94407 0.5594 0.0
H370 H 0.87248 0.02672 0.54497 0.0
H371 H 0.9358 0.111 0.55863 0.0
H372 H 0.94616 0.15887 0.64872 0.0
H373 H 0.87806 0.0783 0.66224 0.0
C374 C 0.83104 -6e-05 0.62654 0.0
C375 C 0.80995 0.96179 0.60558 0.0
C376 C 0.86775 0.04752 0.61841 0.0
C377 C 0.8245 0.97261 0.57603 0.0
C378 C 0.86104 0.01988 0.56777 0.0
C379 C 0.9229 0.10401 0.58119 0.0
C380 C 0.94658 0.14098 0.60267 0.0
C381 C 0.88367 0.05737 0.58888 0.0
C382 C 0.92892 0.13123 0.63172 0.0
C383 C 0.88998 0.08502 0.63951 0.0
H384 H 0.13919 0.17266 0.92681 0.0
H385 H 0.23963 0.24528 0.85496 0.0
H386 H 0.26566 0.18365 0.8558 0.0
H387 H 0.25328 0.10391 0.87332 0.0
H388 H 0.15437 0.03269 0.94599 0.0
H389 H 0.13483 0.09888 0.94848 0.0
C390 C 0.16739 0.17552 0.91167 0.0
C391 C 0.18679 0.21322 0.8906 0.0
C392 C 0.18217 0.13975 0.91214 0.0
C393 C 0.22375 0.21658 0.87136 0.0
C394 C 0.23854 0.18111 0.87168 0.0
C395 C 0.22793 0.10322 0.88991 0.0
C396 C 0.20484 0.06299 0.90911 0.0
C397 C 0.2169 0.14168 0.89137 0.0
C398 C 0.17256 0.06301 0.93078 0.0
C399 C 0.16117 0.10085 0.9322 0.0
H400 H 0.01106 0.83374 0.64975 0.0
H401 H 0.0502 0.85025 0.55783 0.0
H402 H 0.96508 0.82566 0.5447 0.0
H403 H 0.88199 0.80809 0.55981 0.0
H404 H 0.84499 0.79436 0.65212 0.0
H405 H 0.92697 0.80917 0.66455 0.0
C406 C 1.00097 0.83148 0.62679 0.0
C407 C 0.03704 0.84444 0.60482 0.0
C408 C 0.95245 0.81827 0.61949 0.0
C409 C 0.02315 0.84065 0.57518 0.0
C410 C 0.97456 0.82685 0.56768 0.0
C411 C 0.89167 0.80774 0.58262 0.0
C412 C 0.85756 0.80075 0.605 0.0
C413 C 0.93925 0.81692 0.58971 0.0
C414 C 0.87058 0.80002 0.63444 0.0
C415 C 0.91752 0.80856 0.64161 0.0
H416 H 0.91017 0.09919 0.92512 0.0
H417 H 0.94816 0.13802 0.83403 0.0
H418 H 0.87841 0.06018 0.81868 0.0
H419 H 0.81259 0.97819 0.83081 0.0
H420 H 0.7765 0.93566 0.92153 0.0
H421 H 0.83851 0.01834 0.93726 0.0
C422 C 0.90279 0.09081 0.90193 0.0
C423 C 0.9348 0.12411 0.88079 0.0
C424 C 0.86291 0.04536 0.89315 0.0
C425 C 0.92457 0.11283 0.8508 0.0
C426 C 0.88458 0.06833 0.84195 0.0
C427 C 0.81759 0.98706 0.85406 0.0
C428 C 0.79041 0.95055 0.87495 0.0
C429 C 0.85435 0.03386 0.86291 0.0
C430 C 0.79715 0.96299 0.90496 0.0
C431 C 0.83287 0.01018 0.91398 0.0
H432 H 0.33281 0.19555 0.28919 0.0
H433 H 0.39717 0.10136 0.29139 0.0
H434 H 0.40517 0.10498 0.23815 0.0
H435 H 0.38033 0.12216 0.19122 0.0
H436 H 0.31126 0.21159 0.18715 0.0
H437 H 0.31933 0.22368 0.24073 0.0
C438 C 0.34956 0.17689 0.2779 0.0
C439 C 0.36345 0.14738 0.29388 0.0
C440 C 0.35271 0.17793 0.24703 0.0
C441 C 0.3853 0.12339 0.27929 0.0
C442 C 0.38996 0.1255 0.24892 0.0
C443 C 0.36839 0.14545 0.20208 0.0
C444 C 0.34499 0.16566 0.18576 0.0
C445 C 0.37174 0.1507 0.23258 0.0
C446 C 0.32964 0.19595 0.1996 0.0
C447 C 0.33377 0.20233 0.23017 0.0
H448 H 0.86097 0.73209 0.29474 0.0
H449 H 0.75133 0.58045 0.30914 0.0
H450 H 0.7433 0.56618 0.25587 0.0
H451 H 0.76164 0.60012 0.20508 0.0
H452 H 0.87014 0.75268 0.19273 0.0
H453 H 0.88541 0.76308 0.24537 0.0
C454 C 0.83545 0.69575 0.28635 0.0
C455 C 0.80613 0.65765 0.30584 0.0
C456 C 0.83108 0.68801 0.25602 0.0
C457 C 0.774 0.61055 0.29454 0.0
C458 C 0.76941 0.60241 0.26411 0.0
C459 C 0.78942 0.63512 0.21403 0.0
C460 C 0.81457 0.67573 0.19532 0.0
C461 C 0.79699 0.64123 0.24459 0.0
C462 C 0.8502 0.72114 0.2069 0.0
C463 C 0.85876 0.72715 0.23696 0.0
H464 H 0.86808 0.13862 0.19102 0.0
H465 H 0.80115 0.23007 0.18551 0.0
H466 H 0.79199 0.22786 0.23913 0.0
H467 H 0.81504 0.20975 0.28776 0.0
H468 H 0.88355 0.11936 0.29156 0.0
H469 H 0.87883 0.1101 0.23848 0.0
C470 C 0.85077 0.15739 0.20155 0.0
C471 C 0.83624 0.18524 0.18466 0.0
C472 C 0.84604 0.1562 0.23209 0.0
C473 C 0.81291 0.20864 0.1983 0.0
C474 C 0.80789 0.20756 0.2289 0.0
C475 C 0.82772 0.1871 0.27691 0.0
C476 C 0.85062 0.16618 0.29333 0.0
C477 C 0.82602 0.1829 0.2461 0.0
C478 C 0.86675 0.13667 0.27922 0.0
C479 C 0.86415 0.13138 0.24887 0.0
H480 H 0.10176 0.26887 0.69079 0.0
H481 H 0.22571 0.41537 0.6835 0.0
H482 H 0.23185 0.42202 0.73742 0.0
H483 H 0.19608 0.3875 0.78669 0.0
H484 H 0.071 0.2401 0.79086 0.0
H485 H 0.07122 0.23285 0.73817 0.0
C486 C 0.13052 0.30214 0.70097 0.0
C487 C 0.16279 0.34175 0.68343 0.0
C488 C 0.1332 0.30578 0.73148 0.0
C489 C 0.20043 0.38435 0.69675 0.0
C490 C 0.2036 0.38826 0.7275 0.0
C491 C 0.16907 0.35388 0.77599 0.0
C492 C 0.13331 0.31475 0.79289 0.0
C493 C 0.16921 0.34955 0.74514 0.0
C494 C 0.09891 0.27109 0.77866 0.0
C495 C 0.09888 0.26667 0.74839 0.0
H496 H 0.22904 0.82783 0.78879 0.0
H497 H 0.13765 0.89497 0.79712 0.0
H498 H 0.12068 0.88491 0.74463 0.0
H499 H 0.14202 0.8693 0.696 0.0
H500 H 0.23675 0.80649 0.68579 0.0
H501 H 0.24162 0.80161 0.73942 0.0
C502 C 0.20466 0.83925 0.77908 0.0
C503 C 0.1854 0.86303 0.79649 0.0
C504 C 0.19618 0.83465 0.74861 0.0
C505 C 0.15367 0.87755 0.7839 0.0
C506 C 0.14391 0.87177 0.75395 0.0
C507 C 0.16316 0.85385 0.70553 0.0
C508 C 0.18988 0.8393 0.68722 0.0
C509 C 0.16666 0.85239 0.73601 0.0
C510 C 0.21617 0.81824 0.69963 0.0
C511 C 0.2192 0.8158 0.73022 0.0
H512 H 0.63441 0.73687 0.68906 0.0
H513 H 0.66092 0.8856 0.68655 0.0
H514 H 0.65561 0.88639 0.74049 0.0
H515 H 0.65676 0.84842 0.78823 0.0
H516 H 0.63719 0.70216 0.78887 0.0
H517 H 0.6259 0.69615 0.73562 0.0
C518 C 0.6383 0.76925 0.70033 0.0
C519 C 0.64906 0.81146 0.6842 0.0
C520 C 0.63679 0.76976 0.73093 0.0
C521 C 0.65289 0.85282 0.69874 0.0
C522 C 0.65024 0.85332 0.72949 0.0
C523 C 0.64883 0.815 0.77657 0.0
C524 C 0.64778 0.77569 0.79195 0.0
C525 C 0.64421 0.81264 0.74583 0.0
C526 C 0.63808 0.7326 0.7771 0.0
C527 C 0.63182 0.7293 0.74679 0.0
H528 H 0.23672 0.89693 0.97385 0.0
H529 H 0.31595 0.01864 0.91461 0.0
H530 H 0.33396 0.07681 0.95466 0.0
H531 H 0.32804 0.09359 0.00704 0.0
H532 H 0.24979 0.97081 0.06595 0.0
H533 H 0.23107 0.91347 0.02579 0.0
C534 C 0.25792 0.93614 0.96974 0.0
C535 C 0.27453 0.95324 0.9413 0.0
C536 C 0.2686 0.96962 -0.00708 0.0
C537 C 0.30232 0.00431 0.93634 0.0
C538 C 0.31277 0.03779 0.95924 0.0
C539 C 0.3069 0.05435 0.01102 0.0
C540 C 0.29056 0.03693 0.03952 0.0
C541 C 0.29618 0.02092 0.98769 0.0
C542 C 0.26314 0.98571 0.04428 0.0
C543 C 0.25223 0.95254 0.02129 0.0
H544 H 0.77391 0.74708 0.4402 0.0
H545 H 0.74851 0.61659 0.4866 0.0
H546 H 0.70905 0.63647 0.52656 0.0
H547 H 0.68304 0.69066 0.54842 0.0
H548 H 0.70977 0.82303 0.50393 0.0
H549 H 0.74685 0.80212 0.46247 0.0
C550 C 0.76063 0.72357 0.45932 0.0
C551 C 0.765 0.68089 0.4607 0.0
C552 C 0.73757 0.73505 0.48214 0.0
C553 C 0.74607 0.64985 0.48515 0.0
C554 C 0.72328 0.66105 0.5079 0.0
C555 C 0.69671 0.71498 0.5296 0.0
C556 C 0.69393 0.75848 0.52926 0.0
C557 C 0.71884 0.70342 0.50656 0.0
C558 C 0.71119 0.78918 0.50457 0.0
C559 C 0.73282 0.77746 0.48109 0.0
H560 H 0.98867 0.27963 0.9296 0.0
H561 H 0.12723 0.3466 0.97612 0.0
H562 H 0.08288 0.32861 0.02302 0.0
H563 H 0.00481 0.29149 0.05037 0.0
H564 H 0.86669 0.22418 0.00324 0.0
H565 H 0.91132 0.24476 0.95663 0.0
C566 C 0.00938 0.29042 0.94996 0.0
C567 C 0.06121 0.3141 0.94941 0.0
C568 C 0.98378 0.2798 0.97659 0.0
C569 C 0.08734 0.32831 0.97598 0.0
C570 C 0.062 0.31791 0.00274 0.0
C571 C 0.98436 0.28144 0.02992 0.0
C572 C 0.9324 0.25609 0.03028 0.0
C573 C 0.01022 0.29329 0.00325 0.0
C574 C 0.90661 0.24348 0.00358 0.0
C575 C 0.93209 0.25526 0.97695 0.0
H576 H 0.30306 0.99967 0.4344 0.0
H577 H 0.34476 0.13583 0.4802 0.0
H578 H 0.31602 0.09056 0.52661 0.0
H579 H 0.27891 0.01226 0.55356 0.0
H580 H 0.23299 0.87641 0.50624 0.0
H581 H 0.26343 0.92216 0.46052 0.0
C582 C 0.30625 0.01979 0.45449 0.0
C583 C 0.3264 0.07121 0.4539 0.0
C584 C 0.28865 0.99358 0.48063 0.0
C585 C 0.32955 0.09633 0.48012 0.0
C586 C 0.31305 0.07045 0.50657 0.0
C587 C 0.27548 0.99257 0.53326 0.0
C588 C 0.25391 0.94091 0.53334 0.0
C589 C 0.29247 0.01904 0.507 0.0
C590 C 0.24949 0.91606 0.50681 0.0
C591 C 0.26696 0.94219 0.48069 0.0
H592 H 0.74637 0.64771 0.0155 0.0
H593 H 0.68792 0.71932 0.07077 0.0
H594 H 0.66337 0.74748 0.02767 0.0
H595 H 0.66155 0.75497 0.97419 0.0
H596 H 0.71952 0.68294 0.91886 0.0
H597 H 0.74043 0.65142 0.96196 0.0
C598 C 0.72816 0.66936 0.01807 0.0
C599 C 0.7195 0.68174 0.04626 0.0
C600 C 0.71381 0.68533 -0.00684 0.0
C601 C 0.69527 0.70934 0.04928 0.0
C602 C 0.68116 0.72555 0.02464 0.0
C603 C 0.67825 0.73195 0.97156 0.0
C604 C 0.6893 0.72178 0.94337 0.0
C605 C 0.69061 0.71413 -0.00354 0.0
C606 C 0.71095 0.69179 0.94035 0.0
C607 C 0.72304 0.67372 0.96498 0.0
H608 H 1.00284 0.27543 0.54649 0.0
H609 H 0.14134 0.34181 0.49957 0.0
H610 H 0.09681 0.31521 0.45286 0.0
H611 H 0.0188 0.2765 0.4258 0.0
H612 H 0.88068 0.20974 0.47321 0.0
H613 H 0.92536 0.23312 0.51974 0.0
C614 C 0.0235 0.2842 0.52609 0.0
C615 C 0.07537 0.31107 0.52644 0.0
C616 C 0.99782 0.2688 0.49958 0.0
C617 C 0.10142 0.32137 0.49983 0.0
C618 C 0.076 0.30624 0.47319 0.0
C619 C 0.99835 0.26685 0.44629 0.0
C620 C 0.94642 0.24176 0.44605 0.0
C621 C 0.02422 0.28046 0.47286 0.0
C622 C 0.92059 0.2292 0.4728 0.0
C623 C 0.9461 0.24262 0.49937 0.0
H624 H 0.6421 0.17082 0.13938 0.0
H625 H 0.67718 0.17528 0.04723 0.0
H626 H 0.59443 0.15871 0.03438 0.0
H627 H 0.51428 0.14886 0.04926 0.0
H628 H 0.47958 0.14498 0.14145 0.0
H629 H 0.55985 0.1549 0.15427 0.0
C630 C 0.6316 0.16782 0.11647 0.0
C631 C 0.66605 0.17477 0.09431 0.0
C632 C 0.58402 0.15848 0.10922 0.0
C633 C 0.65154 0.17026 0.06475 0.0
C634 C 0.60422 0.16089 0.05737 0.0
C635 C 0.524 0.14963 0.07217 0.0
C636 C 0.49097 0.14652 0.09434 0.0
C637 C 0.57046 0.1558 0.07941 0.0
C638 C 0.50418 0.14731 0.12391 0.0
C639 C 0.55023 0.15321 0.13128 0.0
H640 H 0.64737 0.47034 0.35564 0.0
H641 H 0.58918 0.49707 0.43544 0.0
H642 H 0.5161 0.4154 0.43168 0.0
H643 H 0.47294 0.33374 0.40793 0.0
H644 H 0.53344 0.30859 0.32843 0.0
H645 H 0.60166 0.39246 0.33 0.0
C646 C 0.61851 0.45852 0.3721 0.0
C647 C 0.62385 0.48921 0.39598 0.0
C648 C 0.57732 0.41166 0.37003 0.0
C649 C 0.58587 0.47387 0.41687 0.0
C650 C 0.54428 0.42712 0.41483 0.0
C651 C 0.50089 0.34681 0.39087 0.0
C652 C 0.49845 0.31486 0.36832 0.0
C653 C 0.54029 0.39524 0.39189 0.0
C654 C 0.53457 0.33234 0.34615 0.0
C655 C 0.57366 0.38031 0.347 0.0
H656 H 0.84443 0.39154 0.04519 0.0
H657 H 0.87364 0.36698 0.13434 0.0
H658 H 0.87693 0.44305 0.14997 0.0
H659 H 0.8612 0.51067 0.13966 0.0
H660 H 0.82965 0.53445 0.05092 0.0
H661 H 0.83852 0.46522 0.03381 0.0
C662 C 0.85227 0.4032 0.06794 0.0
C663 C 0.85786 0.37307 0.08863 0.0
C664 C 0.85338 0.44674 0.07695 0.0
C665 C 0.8685 0.38905 0.11799 0.0
C666 C 0.87035 0.43258 0.127 0.0
C667 C 0.85703 0.50126 0.11649 0.0
C668 C 0.84392 0.52721 0.09674 0.0
C669 C 0.86122 0.46083 0.10687 0.0
C670 C 0.83933 0.51487 0.06671 0.0
C671 C 0.84416 0.47508 0.05689 0.0
H672 H 0.53978 0.16397 0.43317 0.0
H673 H 0.48838 0.1261 0.34384 0.0
H674 H 0.56279 0.12326 0.33076 0.0
H675 H 0.6457 0.13895 0.3435 0.0
H676 H 0.69747 0.17723 0.43271 0.0
H677 H 0.61952 0.17197 0.447 0.0
C678 C 0.54455 0.15455 0.41091 0.0
C679 C 0.50871 0.14584 0.38946 0.0
C680 C 0.58768 0.15332 0.40344 0.0
C681 C 0.51539 0.13323 0.36079 0.0
C682 C 0.55806 0.13174 0.35324 0.0
C683 C 0.63976 0.14558 0.36616 0.0
C684 C 0.67769 0.15899 0.3869 0.0
C685 C 0.59497 0.14287 0.3742 0.0
C686 C 0.66905 0.16694 0.41624 0.0
C687 C 0.62451 0.16416 0.42442 0.0
H688 H 0.50354 0.32933 0.13752 0.0
H689 H 0.46593 0.30788 0.04548 0.0
H690 H 0.53607 0.38928 0.0346 0.0
H691 H 0.61041 0.46498 0.05125 0.0
H692 H 0.64642 0.48466 0.14364 0.0
H693 H 0.57449 0.40537 0.15428 0.0
C694 C 0.51039 0.3424 0.11504 0.0
C695 C 0.47961 0.31236 0.09233 0.0
C696 C 0.55068 0.38889 0.109 0.0
C697 C 0.489 0.33021 0.06339 0.0
C698 C 0.52921 0.37669 0.05716 0.0
C699 C 0.60234 0.45204 0.07372 0.0
C700 C 0.63399 0.4808 0.09658 0.0
C701 C 0.56067 0.40613 0.07978 0.0
C702 C 0.6228 0.46349 0.1256 0.0
C703 C 0.58166 0.41802 0.13173 0.0
H704 H 0.8545 0.50595 0.41634 0.0
H705 H 0.80116 0.46903 0.32728 0.0
H706 H 0.81604 0.39976 0.32769 0.0
H707 H 0.83769 0.34561 0.35441 0.0
H708 H 0.88877 0.38018 0.44393 0.0
H709 H 0.88207 0.45467 0.44203 0.0
C710 C 0.84678 0.48316 0.39689 0.0
C711 C 0.82643 0.49262 0.37191 0.0
C712 C 0.85489 0.44277 0.39734 0.0
C713 C 0.81669 0.46265 0.34689 0.0
C714 C 0.8251 0.42286 0.34708 0.0
C715 C 0.84808 0.36977 0.37339 0.0
C716 C 0.86336 0.35709 0.39933 0.0
C717 C 0.84325 0.41199 0.37235 0.0
C718 C 0.87654 0.38885 0.42373 0.0
C719 C 0.87263 0.43143 0.42269 0.0
H720 H 0.16099 0.646 0.63484 0.0
H721 H 0.1647 0.68287 0.54331 0.0
H722 H 0.15422 0.60275 0.52914 0.0
H723 H 0.15303 0.52606 0.54291 0.0
H724 H 0.15019 0.49059 0.63473 0.0
H725 H 0.151 0.5662 0.64853 0.0
C726 C 0.1589 0.63633 0.61177 0.0
C727 C 0.16429 0.67062 0.59018 0.0
C728 C 0.15345 0.59058 0.60381 0.0
C729 C 0.16082 0.65722 0.56039 0.0
C730 C 0.1551 0.6115 0.55227 0.0
C731 C 0.15192 0.53455 0.56593 0.0
C732 C 0.15223 0.50294 0.58772 0.0
C733 C 0.15277 0.57846 0.57381 0.0
C734 C 0.15029 0.5143 0.61745 0.0
C735 C 0.15088 0.55767 0.62542 0.0
H736 H 0.41872 0.88497 0.92653 0.0
H737 H 0.3667 0.84822 0.83718 0.0
H738 H 0.44075 0.8455 0.82361 0.0
H739 H 0.51552 0.84521 0.83793 0.0
H740 H 0.56678 0.87758 0.92752 0.0
H741 H 0.49857 0.89202 0.93991 0.0
C742 C 0.42386 0.87695 0.90402 0.0
C743 C 0.38685 0.86627 0.88301 0.0
C744 C 0.46646 0.87483 0.89636 0.0
C745 C 0.39435 0.85634 0.85387 0.0
C746 C 0.43673 0.85473 0.84605 0.0
C747 C 0.5124 0.85617 0.86012 0.0
C748 C 0.5459 0.85964 0.88186 0.0
C749 C 0.47237 0.86274 0.86725 0.0
C750 C 0.54142 0.87442 0.91037 0.0
C751 C 0.50218 0.88229 0.91752 0.0
H752 H 0.48304 0.63195 0.54502 0.0
H753 H 0.51892 0.6623 0.637 0.0
H754 H 0.44259 0.58811 0.65017 0.0
H755 H 0.36256 0.51852 0.63583 0.0
H756 H 0.32622 0.48787 0.54394 0.0
H757 H 0.40597 0.55797 0.53054 0.0
C758 C 0.47448 0.62204 0.56794 0.0
C759 C 0.50659 0.65301 0.58997 0.0
C760 C 0.43023 0.5794 0.57542 0.0
C761 C 0.495 0.6393 0.61956 0.0
C762 C 0.45117 0.59693 0.62714 0.0
C763 C 0.37218 0.52684 0.61284 0.0
C764 C 0.3381 0.49819 0.59094 0.0
C765 C 0.41801 0.56733 0.60529 0.0
C766 C 0.35156 0.50931 0.56127 0.0
C767 C 0.39715 0.54953 0.55359 0.0
H768 H 0.18888 0.68358 0.91677 0.0
H769 H 0.15609 0.66174 0.82409 0.0
H770 H 0.14089 0.57768 0.82757 0.0
H771 H 0.1436 0.51248 0.8559 0.0
H772 H 0.1782 0.5347 0.94834 0.0
H773 H 0.18556 0.61591 0.94595 0.0
C774 C 0.17773 0.66023 0.89742 0.0
C775 C 0.17408 0.67929 0.87016 0.0
C776 C 0.16972 0.61191 0.89943 0.0
C777 C 0.15959 0.64834 0.84533 0.0
C778 C 0.15094 0.60016 0.84726 0.0
C779 C 0.15218 0.5348 0.87561 0.0
C780 C 0.16071 0.51748 0.90219 0.0
C781 C 0.15697 0.58188 0.87404 0.0
C782 C 0.17172 0.54706 0.92751 0.0
C783 C 0.17602 0.59366 0.92617 0.0
H784 H 0.34825 0.82233 0.61717 0.0
H785 H 0.3885 0.88244 0.52984 0.0
H786 H 0.46464 0.8782 0.53275 0.0
H787 H 0.51776 0.85331 0.55951 0.0
H788 H 0.47409 0.79142 0.64641 0.0
H789 H 0.40134 0.80029 0.64406 0.0
C790 C 0.37381 0.835 0.59882 0.0
C791 C 0.36263 0.85256 0.57332 0.0
C792 C 0.41683 0.83173 0.60045 0.0
C793 C 0.39615 0.86856 0.54972 0.0
C794 C 0.43965 0.86607 0.55134 0.0
C795 C 0.49244 0.84208 0.57796 0.0
C796 C 0.50149 0.82166 0.60305 0.0
C797 C 0.45006 0.84703 0.57648 0.0
C798 C 0.46825 0.80725 0.62678 0.0
C799 C 0.42647 0.81228 0.62551 0.0
H800 H 0.49363 0.57988 0.8969 0.0
H801 H 0.46549 0.69899 0.8782 0.0
H802 H 0.37866 0.64077 0.87096 0.0
H803 H 0.31104 0.55648 0.86824 0.0
H804 H 0.33572 0.43632 0.88923 0.0
H805 H 0.42367 0.49445 0.8972 0.0
C806 C 0.46842 0.59301 0.89135 0.0
C807 C 0.48623 0.6437 0.88784 0.0
C808 C 0.41804 0.55921 0.88742 0.0
C809 C 0.45298 0.66021 0.88095 0.0
C810 C 0.40322 0.62695 0.87671 0.0
C811 C 0.33575 0.54301 0.87446 0.0
C812 C 0.31745 0.4924 0.87773 0.0
C813 C 0.38552 0.57647 0.87954 0.0
C814 C 0.34935 0.47531 0.88648 0.0
C815 C 0.39948 0.50848 0.89099 0.0
loop_
_geom_bond_atom_site_label_1
_geom_bond_atom_site_label_2
_geom_bond_distance
_geom_bond_site_symmetry_2
_ccdc_geom_bond_type
Zn0 O6 1.969 . S
Zn0 O7 1.965 . S
Zn0 O11 2.024 . S
Zn0 O16 1.969 . S
Zn1 O8 1.969 . S
Zn1 O14 1.969 . S
Zn1 O15 1.965 . S
Zn1 O17 2.024 . S
C2 O3 1.229 . S
C2 O11 1.058 . S
O3 C2 1.229 . S
C4 O5 1.229 . S
C4 O17 1.058 . S
O5 C4 1.229 . S
O6 Zn0 1.969 . S
O6 C9 1.266 1_545 S
O7 Zn0 1.965 . S
O7 C18 1.260 . S
O8 Zn1 1.969 . S
O8 C18 1.258 . S
C9 O6 1.266 1_565 S
C9 O10 1.226 1_565 S
O10 C9 1.226 1_545 S
O11 Zn0 2.024 . S
O11 C2 1.058 . S
C12 O13 1.228 . S
C12 O14 1.267 . S
O13 C12 1.228 . S
O14 Zn1 1.969 . S
O14 C12 1.267 . S
O15 Zn1 1.965 . S
O15 C19 1.260 . S
O16 Zn0 1.969 . S
O16 C19 1.258 . S
O17 Zn1 2.024 . S
O17 C4 1.058 . S
C18 O7 1.260 . S
C18 O8 1.258 . S
C19 O15 1.260 . S
C19 O16 1.258 . S
Zn20 O26 1.969 . S
Zn20 O27 1.965 . S
Zn20 O31 2.024 . S
Zn20 O36 1.969 . S
Zn21 O28 1.969 . S
Zn21 O34 1.969 . S
Zn21 O35 1.965 . S
Zn21 O37 2.024 . S
C22 O23 1.229 . S
C22 O31 1.058 . S
O23 C22 1.229 . S
C24 O25 1.229 . S
C24 O37 1.058 . S
O25 C24 1.229 . S
O26 Zn20 1.969 . S
O26 C29 1.267 . S
O27 Zn20 1.965 . S
O27 C38 1.260 . S
O28 Zn21 1.969 . S
O28 C38 1.258 . S
C29 O26 1.267 . S
C29 O30 1.228 . S
O30 C29 1.228 . S
O31 Zn20 2.024 . S
O31 C22 1.058 . S
C32 O33 1.228 . S
C32 O34 1.267 . S
O33 C32 1.228 . S
O34 Zn21 1.969 . S
O34 C32 1.267 . S
O35 Zn21 1.965 . S
O35 C39 1.260 . S
O36 Zn20 1.969 . S
O36 C39 1.258 . S
O37 Zn21 2.024 . S
O37 C24 1.058 . S
C38 O27 1.260 . S
C38 O28 1.258 . S
C39 O35 1.260 . S
C39 O36 1.258 . S
Zn40 O46 1.969 . S
Zn40 O47 1.965 . S
Zn40 O51 2.024 . S
Zn40 O56 1.969 . S
Zn41 O48 1.969 . S
Zn41 O54 1.969 . S
Zn41 O55 1.965 . S
Zn41 O57 2.024 . S
C42 O43 1.229 . S
C42 O51 1.058 . S
O43 C42 1.229 . S
C44 O45 1.229 . S
C44 O57 1.058 . S
O45 C44 1.229 . S
O46 Zn40 1.969 . S
O46 C49 1.264 1_655 S
O47 Zn40 1.965 . S
O47 C58 1.260 . S
O48 Zn41 1.969 . S
O48 C58 1.258 . S
C49 O46 1.264 1_455 S
C49 O50 1.228 1_455 S
O50 C49 1.228 1_655 S
O51 Zn40 2.024 . S
O51 C42 1.058 . S
C52 O53 1.228 . S
C52 O54 1.267 . S
O53 C52 1.228 . S
O54 Zn41 1.969 . S
O54 C52 1.267 . S
O55 Zn41 1.965 . S
O55 C59 1.260 . S
O56 Zn40 1.969 . S
O56 C59 1.258 . S
O57 Zn41 2.024 . S
O57 C44 1.058 . S
C58 O47 1.260 . S
C58 O48 1.258 . S
C59 O55 1.260 . S
C59 O56 1.258 . S
Zn60 O66 1.969 . S
Zn60 O67 1.965 . S
Zn60 O71 2.024 . S
Zn60 O76 1.969 . S
Zn61 O68 1.969 . S
Zn61 O74 1.969 . S
Zn61 O75 1.965 . S
Zn61 O77 2.024 . S
C62 O63 1.229 . S
C62 O71 1.058 . S
O63 C62 1.229 . S
C64 O65 1.229 . S
C64 O77 1.058 . S
O65 C64 1.229 . S
O66 Zn60 1.969 . S
O66 C69 1.267 . S
O67 Zn60 1.965 . S
O67 C78 1.260 . S
O68 Zn61 1.969 . S
O68 C78 1.258 . S
C69 O66 1.267 . S
C69 O70 1.228 . S
O70 C69 1.228 . S
O71 Zn60 2.024 . S
O71 C62 1.058 . S
C72 O73 1.226 1_565 S
C72 O74 1.266 1_565 S
O73 C72 1.226 1_545 S
O74 Zn61 1.969 . S
O74 C72 1.266 1_545 S
O75 Zn61 1.965 . S
O75 C79 1.260 . S
O76 Zn60 1.969 . S
O76 C79 1.258 . S
O77 Zn61 2.024 . S
O77 C64 1.058 . S
C78 O67 1.260 . S
C78 O68 1.258 . S
C79 O75 1.260 . S
C79 O76 1.258 . S
Zn80 O86 1.969 . S
Zn80 O87 1.965 . S
Zn80 O91 2.024 . S
Zn80 O96 1.969 . S
Zn81 O88 1.969 . S
Zn81 O94 1.969 . S
Zn81 O95 1.965 . S
Zn81 O97 2.024 . S
C82 O83 1.229 . S
C82 O91 1.058 . S
O83 C82 1.229 . S
C84 O85 1.229 . S
C84 O97 1.058 . S
O85 C84 1.229 . S
O86 Zn80 1.969 . S
O86 C89 1.267 . S
O87 Zn80 1.965 . S
O87 C98 1.260 . S
O88 Zn81 1.969 . S
O88 C98 1.258 . S
C89 O86 1.267 . S
C89 O90 1.228 . S
O90 C89 1.228 . S
O91 Zn80 2.024 . S
O91 C82 1.058 . S
C92 O93 1.228 . S
C92 O94 1.267 . S
O93 C92 1.228 . S
O94 Zn81 1.969 . S
O94 C92 1.267 . S
O95 Zn81 1.965 . S
O95 C99 1.260 . S
O96 Zn80 1.969 . S
O96 C99 1.258 . S
O97 Zn81 2.024 . S
O97 C84 1.058 . S
C98 O87 1.260 . S
C98 O88 1.258 . S
C99 O95 1.260 . S
C99 O96 1.258 . S
Zn100 O106 1.969 . S
Zn100 O107 1.965 . S
Zn100 O111 2.024 . S
Zn100 O116 1.969 . S
Zn101 O108 1.969 . S
Zn101 O114 1.969 . S
Zn101 O115 1.965 . S
Zn101 O117 2.024 . S
C102 O103 1.229 . S
C102 O111 1.058 . S
O103 C102 1.229 . S
C104 O105 1.229 . S
C104 O117 1.058 . S
O105 C104 1.229 . S
O106 Zn100 1.969 . S
O106 C109 1.267 . S
O107 Zn100 1.965 . S
O107 C118 1.260 . S
O108 Zn101 1.969 . S
O108 C118 1.258 . S
C109 O106 1.267 . S
C109 O110 1.228 . S
O110 C109 1.228 . S
O111 Zn100 2.024 . S
O111 C102 1.058 . S
C112 O113 1.228 1_455 S
C112 O114 1.264 1_455 S
O113 C112 1.228 1_655 S
O114 Zn101 1.969 . S
O114 C112 1.264 1_655 S
O115 Zn101 1.965 . S
O115 C119 1.260 . S
O116 Zn100 1.969 . S
O116 C119 1.258 . S
O117 Zn101 2.024 . S
O117 C104 1.058 . S
C118 O107 1.260 . S
C118 O108 1.258 . S
C119 O115 1.260 . S
C119 O116 1.258 . S
Zn120 O126 1.969 . S
Zn120 O127 1.965 . S
Zn120 O131 2.024 . S
Zn120 O136 1.969 . S
Zn121 O128 1.969 . S
Zn121 O134 1.969 . S
Zn121 O135 1.965 . S
Zn121 O137 2.024 . S
C122 O123 1.229 . S
C122 O131 1.058 . S
O123 C122 1.229 . S
C124 O125 1.229 . S
C124 O137 1.058 . S
O125 C124 1.229 . S
O126 Zn120 1.969 . S
O126 C129 1.267 . S
O127 Zn120 1.965 . S
O127 C138 1.260 . S
O128 Zn121 1.969 . S
O128 C138 1.258 . S
C129 O126 1.267 . S
C129 O130 1.228 . S
O130 C129 1.228 . S
O131 Zn120 2.024 . S
O131 C122 1.058 . S
C132 O133 1.226 1_655 S
C132 O134 1.266 1_655 S
O133 C132 1.226 1_455 S
O134 Zn121 1.969 . S
O134 C132 1.266 1_455 S
O135 Zn121 1.965 . S
O135 C139 1.260 . S
O136 Zn120 1.969 . S
O136 C139 1.258 . S
O137 Zn121 2.024 . S
O137 C124 1.058 . S
C138 O127 1.260 . S
C138 O128 1.258 . S
C139 O135 1.260 . S
C139 O136 1.258 . S
Zn140 O146 1.969 . S
Zn140 O147 1.965 . S
Zn140 O151 2.024 . S
Zn140 O156 1.969 . S
Zn141 O148 1.969 . S
Zn141 O154 1.969 . S
Zn141 O155 1.965 . S
Zn141 O157 2.024 . S
C142 O143 1.229 . S
C142 O151 1.058 . S
O143 C142 1.229 . S
C144 O145 1.229 . S
C144 O157 1.058 . S
O145 C144 1.229 . S
O146 Zn140 1.969 . S
O146 C149 1.264 1_565 S
O147 Zn140 1.965 . S
O147 C158 1.260 . S
O148 Zn141 1.969 . S
O148 C158 1.258 . S
C149 O146 1.264 1_545 S
C149 O150 1.228 1_545 S
O150 C149 1.228 1_565 S
O151 Zn140 2.024 . S
O151 C142 1.058 . S
C152 O153 1.228 . S
C152 O154 1.267 . S
O153 C152 1.228 . S
O154 Zn141 1.969 . S
O154 C152 1.267 . S
O155 Zn141 1.965 . S
O155 C159 1.260 . S
O156 Zn140 1.969 . S
O156 C159 1.258 . S
O157 Zn141 2.024 . S
O157 C144 1.058 . S
C158 O147 1.260 . S
C158 O148 1.258 . S
C159 O155 1.260 . S
C159 O156 1.258 . S
Zn160 O166 1.969 . S
Zn160 O167 1.965 . S
Zn160 O171 2.024 . S
Zn160 O176 1.969 . S
Zn161 O168 1.969 . S
Zn161 O174 1.969 . S
Zn161 O175 1.965 . S
Zn161 O177 2.024 . S
C162 O163 1.229 . S
C162 O171 1.058 . S
O163 C162 1.229 . S
C164 O165 1.229 . S
C164 O177 1.058 . S
O165 C164 1.229 . S
O166 Zn160 1.969 . S
O166 C169 1.267 . S
O167 Zn160 1.965 . S
O167 C178 1.260 . S
O168 Zn161 1.969 . S
O168 C178 1.258 . S
C169 O166 1.267 . S
C169 O170 1.228 . S
O170 C169 1.228 . S
O171 Zn160 2.024 . S
O171 C162 1.058 . S
C172 O173 1.228 . S
C172 O174 1.267 . S
O173 C172 1.228 . S
O174 Zn161 1.969 . S
O174 C172 1.267 . S
O175 Zn161 1.965 . S
O175 C179 1.260 . S
O176 Zn160 1.969 . S
O176 C179 1.258 . S
O177 Zn161 2.024 . S
O177 C164 1.058 . S
C178 O167 1.260 . S
C178 O168 1.258 . S
C179 O175 1.260 . S
C179 O176 1.258 . S
Zn180 O186 1.969 . S
Zn180 O187 1.965 . S
Zn180 O191 2.024 . S
Zn180 O196 1.969 . S
Zn181 O188 1.969 . S
Zn181 O194 1.969 . S
Zn181 O195 1.965 . S
Zn181 O197 2.024 . S
C182 O183 1.229 . S
C182 O191 1.058 . S
O183 C182 1.229 . S
C184 O185 1.229 . S
C184 O197 1.058 . S
O185 C184 1.229 . S
O186 Zn180 1.969 . S
O186 C189 1.266 1_455 S
O187 Zn180 1.965 . S
O187 C198 1.260 . S
O188 Zn181 1.969 . S
O188 C198 1.258 . S
C189 O186 1.266 1_655 S
C189 O190 1.226 1_655 S
O190 C189 1.226 1_455 S
O191 Zn180 2.024 . S
O191 C182 1.058 . S
C192 O193 1.228 . S
C192 O194 1.267 . S
O193 C192 1.228 . S
O194 Zn181 1.969 . S
O194 C192 1.267 . S
O195 Zn181 1.965 . S
O195 C199 1.260 . S
O196 Zn180 1.969 . S
O196 C199 1.258 . S
O197 Zn181 2.024 . S
O197 C184 1.058 . S
C198 O187 1.260 . S
C198 O188 1.258 . S
C199 O195 1.260 . S
C199 O196 1.258 . S
Zn200 O206 1.969 . S
Zn200 O207 1.965 . S
Zn200 O211 2.024 . S
Zn200 O216 1.969 . S
Zn201 O208 1.969 . S
Zn201 O214 1.969 . S
Zn201 O215 1.965 . S
Zn201 O217 2.024 . S
C202 O203 1.229 . S
C202 O211 1.058 . S
O203 C202 1.229 . S
C204 O205 1.229 . S
C204 O217 1.058 . S
O205 C204 1.229 . S
O206 Zn200 1.969 . S
O206 C209 1.267 . S
O207 Zn200 1.965 . S
O207 C218 1.260 . S
O208 Zn201 1.969 . S
O208 C218 1.258 . S
C209 O206 1.267 . S
C209 O210 1.228 . S
O210 C209 1.228 . S
O211 Zn200 2.024 . S
O211 C202 1.058 . S
C212 O213 1.228 1_545 S
C212 O214 1.264 1_545 S
O213 C212 1.228 1_565 S
O214 Zn201 1.969 . S
O214 C212 1.264 1_565 S
O215 Zn201 1.965 . S
O215 C219 1.260 . S
O216 Zn200 1.969 . S
O216 C219 1.258 . S
O217 Zn201 2.024 . S
O217 C204 1.058 . S
C218 O207 1.260 . S
C218 O208 1.258 . S
C219 O215 1.260 . S
C219 O216 1.258 . S
Zn220 O226 1.969 . S
Zn220 O227 1.965 . S
Zn220 O231 2.024 . S
Zn220 O236 1.969 . S
Zn221 O228 1.969 . S
Zn221 O234 1.969 . S
Zn221 O235 1.965 . S
Zn221 O237 2.024 . S
C222 O223 1.229 . S
C222 O231 1.058 . S
O223 C222 1.229 . S
C224 O225 1.229 . S
C224 O237 1.058 . S
O225 C224 1.229 . S
O226 Zn220 1.969 . S
O226 C229 1.267 . S
O227 Zn220 1.965 . S
O227 C238 1.260 . S
O228 Zn221 1.969 . S
O228 C238 1.258 . S
C229 O226 1.267 . S
C229 O230 1.228 . S
O230 C229 1.228 . S
O231 Zn220 2.024 . S
O231 C222 1.058 . S
C232 O233 1.228 . S
C232 O234 1.267 . S
O233 C232 1.228 . S
O234 Zn221 1.969 . S
O234 C232 1.267 . S
O235 Zn221 1.965 . S
O235 C239 1.260 . S
O236 Zn220 1.969 . S
O236 C239 1.258 . S
O237 Zn221 2.024 . S
O237 C224 1.058 . S
C238 O227 1.260 . S
C238 O228 1.258 . S
C239 O235 1.260 . S
C239 O236 1.258 . S
H240 C246 0.930 . S
H241 C249 0.930 1_655 S
H242 C250 0.930 . S
H243 C251 0.930 . S
H244 C254 0.930 . S
H245 C255 0.930 . S
C246 H240 0.930 . S
C246 C247 1.355 . S
C246 C248 1.415 . S
C247 C246 1.355 . S
C247 C249 1.419 . S
C248 C246 1.415 . S
C248 C253 1.425 . S
C248 C255 1.409 . S
C249 H241 0.930 1_455 S
C249 C247 1.419 . S
C249 C250 1.362 . S
C250 H242 0.930 . S
C250 C249 1.362 . S
C250 C253 1.409 . S
C251 H243 0.930 . S
C251 C252 1.355 . S
C251 C253 1.415 . S
C252 C251 1.355 . S
C252 C254 1.419 . S
C253 C248 1.425 . S
C253 C250 1.409 . S
C253 C251 1.415 . S
C254 H244 0.930 . S
C254 C252 1.419 . S
C254 C255 1.362 . S
C255 H245 0.930 . S
C255 C248 1.409 . S
C255 C254 1.362 . S
H256 C262 0.930 . S
H257 C265 0.930 . S
H258 C266 0.930 . S
H259 C267 0.932 . S
H260 C270 0.930 . S
H261 C271 0.930 . S
C262 H256 0.930 . S
C262 C263 1.355 . S
C262 C264 1.415 . S
C263 C262 1.355 . S
C263 C265 1.419 . S
C264 C262 1.415 . S
C264 C269 1.425 . S
C264 C271 1.409 . S
C265 H257 0.930 . S
C265 C263 1.419 . S
C265 C266 1.362 . S
C266 H258 0.930 . S
C266 C265 1.362 . S
C266 C269 1.409 . S
C267 H259 0.932 . S
C267 C268 1.355 1_455 S
C267 C269 1.415 . S
C268 C267 1.355 1_655 S
C268 C270 1.419 . S
C269 C264 1.425 . S
C269 C266 1.409 . S
C269 C267 1.415 . S
C270 H260 0.930 . S
C270 C268 1.419 . S
C270 C271 1.362 1_655 S
C271 H261 0.930 . S
C271 C264 1.409 . S
C271 C270 1.362 1_455 S
H272 C278 0.930 . S
H273 C281 0.930 . S
H274 C282 0.930 . S
H275 C283 0.930 . S
H276 C286 0.930 . S
H277 C287 0.930 . S
C278 H272 0.930 . S
C278 C279 1.355 1_565 S
C278 C280 1.415 . S
C279 C278 1.355 1_545 S
C279 C281 1.419 . S
C280 C278 1.415 . S
C280 C285 1.425 . S
C280 C287 1.409 . S
C281 H273 0.930 . S
C281 C279 1.419 . S
C281 C282 1.362 1_545 S
C282 H274 0.930 . S
C282 C281 1.362 1_565 S
C282 C285 1.409 . S
C283 H275 0.930 . S
C283 C284 1.355 . S
C283 C285 1.415 . S
C284 C283 1.355 . S
C284 C286 1.419 . S
C285 C280 1.425 . S
C285 C282 1.409 . S
C285 C283 1.415 . S
C286 H276 0.930 . S
C286 C284 1.419 . S
C286 C287 1.362 . S
C287 H277 0.930 . S
C287 C280 1.409 . S
C287 C286 1.362 . S
H288 C294 0.930 . S
H289 C297 0.930 . S
H290 C298 0.930 . S
H291 C299 0.930 . S
H292 C302 0.930 . S
H293 C303 0.930 . S
C294 H288 0.930 . S
C294 C295 1.355 . S
C294 C296 1.415 . S
C295 C294 1.355 . S
C295 C297 1.419 . S
C296 C294 1.415 . S
C296 C301 1.425 . S
C296 C303 1.409 . S
C297 H289 0.930 . S
C297 C295 1.419 . S
C297 C298 1.362 . S
C298 H290 0.930 . S
C298 C297 1.362 . S
C298 C301 1.409 . S
C299 H291 0.930 . S
C299 C300 1.355 . S
C299 C301 1.415 . S
C300 C299 1.355 . S
C300 C302 1.419 . S
C301 C296 1.425 . S
C301 C298 1.409 . S
C301 C299 1.415 . S
C302 H292 0.930 . S
C302 C300 1.419 . S
C302 C303 1.362 . S
C303 H293 0.930 . S
C303 C296 1.409 . S
C303 C302 1.362 . S
H304 C310 0.930 . S
H305 C313 0.930 . S
H306 C314 0.930 . S
H307 C315 0.930 1_655 S
H308 C318 0.930 . S
H309 C319 0.930 . S
C310 H304 0.930 . S
C310 C311 1.355 . S
C310 C312 1.415 . S
C311 C310 1.355 . S
C311 C313 1.419 . S
C312 C310 1.415 . S
C312 C317 1.425 . S
C312 C319 1.409 . S
C313 H305 0.930 . S
C313 C311 1.419 . S
C313 C314 1.362 . S
C314 H306 0.930 . S
C314 C313 1.362 . S
C314 C317 1.409 . S
C315 H307 0.930 1_455 S
C315 C316 1.355 1_455 S
C315 C317 1.415 . S
C316 C315 1.355 1_655 S
C316 C318 1.419 . S
C317 C312 1.425 . S
C317 C314 1.409 . S
C317 C315 1.415 . S
C318 H308 0.930 . S
C318 C316 1.419 . S
C318 C319 1.362 1_655 S
C319 H309 0.930 . S
C319 C312 1.409 . S
C319 C318 1.362 1_455 S
H320 C326 0.930 . S
H321 C329 0.930 . S
H322 C330 0.930 . S
H323 C331 0.930 1_545 S
H324 C334 0.930 1_545 S
H325 C335 0.930 . S
C326 H320 0.930 . S
C326 C327 1.355 . S
C326 C328 1.415 . S
C327 C326 1.355 . S
C327 C329 1.419 . S
C328 C326 1.415 . S
C328 C333 1.425 . S
C328 C335 1.409 . S
C329 H321 0.930 . S
C329 C327 1.419 . S
C329 C330 1.362 . S
C330 H322 0.930 . S
C330 C329 1.362 . S
C330 C333 1.409 . S
C331 H323 0.930 1_565 S
C331 C332 1.355 1_565 S
C331 C333 1.415 . S
C332 C331 1.355 1_545 S
C332 C334 1.419 1_545 S
C333 C328 1.425 . S
C333 C330 1.409 . S
C333 C331 1.415 . S
C334 H324 0.930 1_565 S
C334 C332 1.419 1_565 S
C334 C335 1.362 . S
C335 H325 0.930 . S
C335 C328 1.409 . S
C335 C334 1.362 . S
H336 C342 0.930 . S
H337 C345 0.930 1_565 S
H338 C346 0.930 . S
H339 C347 0.930 . S
H340 C350 0.930 . S
H341 C351 0.930 . S
C342 H336 0.930 . S
C342 C343 1.355 . S
C342 C344 1.415 . S
C343 C342 1.355 . S
C343 C345 1.419 . S
C344 C342 1.415 . S
C344 C349 1.425 . S
C344 C351 1.409 . S
C345 H337 0.930 1_545 S
C345 C343 1.419 . S
C345 C346 1.362 . S
C346 H338 0.930 . S
C346 C345 1.362 . S
C346 C349 1.409 . S
C347 H339 0.930 . S
C347 C348 1.355 . S
C347 C349 1.415 . S
C348 C347 1.355 . S
C348 C350 1.419 . S
C349 C344 1.425 . S
C349 C346 1.409 . S
C349 C347 1.415 . S
C350 H340 0.930 . S
C350 C348 1.419 . S
C350 C351 1.362 . S
C351 H341 0.930 . S
C351 C344 1.409 . S
C351 C350 1.362 . S
H352 C358 0.930 . S
H353 C361 0.930 1_455 S
H354 C362 0.930 . S
H355 C363 0.930 . S
H356 C366 0.930 . S
H357 C367 0.930 . S
C358 H352 0.930 . S
C358 C359 1.355 . S
C358 C360 1.415 1_455 S
C359 C358 1.355 . S
C359 C361 1.419 1_455 S
C360 C358 1.415 1_655 S
C360 C365 1.425 . S
C360 C367 1.409 . S
C361 H353 0.930 1_655 S
C361 C359 1.419 1_655 S
C361 C362 1.362 . S
C362 H354 0.930 . S
C362 C361 1.362 . S
C362 C365 1.409 . S
C363 H355 0.930 . S
C363 C364 1.355 . S
C363 C365 1.415 . S
C364 C363 1.355 . S
C364 C366 1.419 . S
C365 C360 1.425 . S
C365 C362 1.409 . S
C365 C363 1.415 . S
C366 H356 0.930 . S
C366 C364 1.419 . S
C366 C367 1.362 . S
C367 H357 0.930 . S
C367 C360 1.409 . S
C367 C366 1.362 . S
H368 C374 0.930 . S
H369 C377 0.930 . S
H370 C378 0.930 . S
H371 C379 0.930 . S
H372 C382 0.930 . S
H373 C383 0.930 . S
C374 H368 0.930 . S
C374 C375 1.355 1_545 S
C374 C376 1.415 . S
C375 C374 1.355 1_565 S
C375 C377 1.419 . S
C376 C374 1.415 . S
C376 C381 1.425 . S
C376 C383 1.409 . S
C377 H369 0.930 . S
C377 C375 1.419 . S
C377 C378 1.362 1_565 S
C378 H370 0.930 . S
C378 C377 1.362 1_545 S
C378 C381 1.409 . S
C379 H371 0.930 . S
C379 C380 1.355 . S
C379 C381 1.415 . S
C380 C379 1.355 . S
C380 C382 1.419 . S
C381 C376 1.425 . S
C381 C378 1.409 . S
C381 C379 1.415 . S
C382 H372 0.930 . S
C382 C380 1.419 . S
C382 C383 1.362 . S
C383 H373 0.930 . S
C383 C376 1.409 . S
C383 C382 1.362 . S
H384 C390 0.930 . S
H385 C393 0.930 . S
H386 C394 0.930 . S
H387 C395 0.930 . S
H388 C398 0.930 1_565 S
H389 C399 0.930 . S
C390 H384 0.930 . S
C390 C391 1.355 . S
C390 C392 1.415 . S
C391 C390 1.355 . S
C391 C393 1.419 . S
C392 C390 1.415 . S
C392 C397 1.425 . S
C392 C399 1.409 . S
C393 H385 0.930 . S
C393 C391 1.419 . S
C393 C394 1.362 . S
C394 H386 0.930 . S
C394 C393 1.362 . S
C394 C397 1.409 . S
C395 H387 0.930 . S
C395 C396 1.355 . S
C395 C397 1.415 . S
C396 C395 1.355 . S
C396 C398 1.419 . S
C397 C392 1.425 . S
C397 C394 1.409 . S
C397 C395 1.415 . S
C398 H388 0.930 1_545 S
C398 C396 1.419 . S
C398 C399 1.362 . S
C399 H389 0.930 . S
C399 C392 1.409 . S
C399 C398 1.362 . S
H400 C406 0.930 . S
H401 C409 0.930 1_455 S
H402 C410 0.930 . S
H403 C411 0.930 . S
H404 C414 0.930 . S
H405 C415 0.930 . S
C406 H400 0.930 . S
C406 C407 1.355 . S
C406 C408 1.415 1_455 S
C407 C406 1.355 . S
C407 C409 1.419 1_455 S
C408 C406 1.415 1_655 S
C408 C413 1.425 . S
C408 C415 1.409 . S
C409 H401 0.930 1_655 S
C409 C407 1.419 1_655 S
C409 C410 1.362 . S
C410 H402 0.930 . S
C410 C409 1.362 . S
C410 C413 1.409 . S
C411 H403 0.930 . S
C411 C412 1.355 . S
C411 C413 1.415 . S
C412 C411 1.355 . S
C412 C414 1.419 . S
C413 C408 1.425 . S
C413 C410 1.409 . S
C413 C411 1.415 . S
C414 H404 0.930 . S
C414 C412 1.419 . S
C414 C415 1.362 . S
C415 H405 0.930 . S
C415 C408 1.409 . S
C415 C414 1.362 . S
H416 C422 0.930 . S
H417 C425 0.930 1_455 S
H418 C426 0.930 . S
H419 C427 0.930 . S
H420 C430 0.930 1_565 S
H421 C431 0.930 . S
C422 H416 0.930 . S
C422 C423 1.355 . S
C422 C424 1.415 . S
C423 C422 1.355 . S
C423 C425 1.419 . S
C424 C422 1.415 . S
C424 C429 1.425 . S
C424 C431 1.409 . S
C425 H417 0.930 1_655 S
C425 C423 1.419 . S
C425 C426 1.362 . S
C426 H418 0.930 . S
C426 C425 1.362 . S
C426 C429 1.409 . S
C427 H419 0.930 . S
C427 C428 1.355 . S
C427 C429 1.415 1_565 S
C428 C427 1.355 . S
C428 C430 1.419 1_565 S
C429 C424 1.425 . S
C429 C426 1.409 . S
C429 C427 1.415 1_545 S
C430 H420 0.930 1_545 S
C430 C428 1.419 1_545 S
C430 C431 1.362 . S
C431 H421 0.930 . S
C431 C424 1.409 . S
C431 C430 1.362 . S
H432 C438 0.930 . S
H433 C441 0.930 . S
H434 C442 0.930 . S
H435 C443 0.930 . S
H436 C446 0.930 . S
H437 C447 0.930 . S
C438 H432 0.930 . S
C438 C439 1.355 . S
C438 C440 1.415 . S
C439 C438 1.355 . S
C439 C441 1.419 . S
C440 C438 1.415 . S
C440 C445 1.425 . S
C440 C447 1.409 . S
C441 H433 0.930 . S
C441 C439 1.419 . S
C441 C442 1.362 . S
C442 H434 0.930 . S
C442 C441 1.362 . S
C442 C445 1.409 . S
C443 H435 0.930 . S
C443 C444 1.355 . S
C443 C445 1.415 . S
C444 C443 1.355 . S
C444 C446 1.419 . S
C445 C440 1.425 . S
C445 C442 1.409 . S
C445 C443 1.415 . S
C446 H436 0.930 . S
C446 C444 1.419 . S
C446 C447 1.362 . S
C447 H437 0.930 . S
C447 C440 1.409 . S
C447 C446 1.362 . S
H448 C454 0.930 . S
H449 C457 0.930 . S
H450 C458 0.930 . S
H451 C459 0.930 . S
H452 C462 0.930 . S
H453 C463 0.930 . S
C454 H448 0.930 . S
C454 C455 1.355 . S
C454 C456 1.415 . S
C455 C454 1.355 . S
C455 C457 1.419 . S
C456 C454 1.415 . S
C456 C461 1.425 . S
C456 C463 1.409 . S
C457 H449 0.930 . S
C457 C455 1.419 . S
C457 C458 1.362 . S
C458 H450 0.930 . S
C458 C457 1.362 . S
C458 C461 1.409 . S
C459 H451 0.930 . S
C459 C460 1.355 . S
C459 C461 1.415 . S
C460 C459 1.355 . S
C460 C462 1.419 . S
C461 C456 1.425 . S
C461 C458 1.409 . S
C461 C459 1.415 . S
C462 H452 0.930 . S
C462 C460 1.419 . S
C462 C463 1.362 . S
C463 H453 0.930 . S
C463 C456 1.409 . S
C463 C462 1.362 . S
H464 C470 0.930 . S
H465 C473 0.930 . S
H466 C474 0.930 . S
H467 C475 0.930 . S
H468 C478 0.930 . S
H469 C479 0.930 . S
C470 H464 0.930 . S
C470 C471 1.355 . S
C470 C472 1.415 . S
C471 C470 1.355 . S
C471 C473 1.419 . S
C472 C470 1.415 . S
C472 C477 1.425 . S
C472 C479 1.409 . S
C473 H465 0.930 . S
C473 C471 1.419 . S
C473 C474 1.362 . S
C474 H466 0.930 . S
C474 C473 1.362 . S
C474 C477 1.409 . S
C475 H467 0.930 . S
C475 C476 1.355 . S
C475 C477 1.415 . S
C476 C475 1.355 . S
C476 C478 1.419 . S
C477 C472 1.425 . S
C477 C474 1.409 . S
C477 C475 1.415 . S
C478 H468 0.930 . S
C478 C476 1.419 . S
C478 C479 1.362 . S
C479 H469 0.930 . S
C479 C472 1.409 . S
C479 C478 1.362 . S
H480 C486 0.930 . S
H481 C489 0.930 . S
H482 C490 0.930 . S
H483 C491 0.930 . S
H484 C494 0.930 . S
H485 C495 0.930 . S
C486 H480 0.930 . S
C486 C487 1.355 . S
C486 C488 1.415 . S
C487 C486 1.355 . S
C487 C489 1.419 . S
C488 C486 1.415 . S
C488 C493 1.425 . S
C488 C495 1.409 . S
C489 H481 0.930 . S
C489 C487 1.419 . S
C489 C490 1.362 . S
C490 H482 0.930 . S
C490 C489 1.362 . S
C490 C493 1.409 . S
C491 H483 0.930 . S
C491 C492 1.355 . S
C491 C493 1.415 . S
C492 C491 1.355 . S
C492 C494 1.419 . S
C493 C488 1.425 . S
C493 C490 1.409 . S
C493 C491 1.415 . S
C494 H484 0.930 . S
C494 C492 1.419 . S
C494 C495 1.362 . S
C495 H485 0.930 . S
C495 C488 1.409 . S
C495 C494 1.362 . S
H496 C502 0.930 . S
H497 C505 0.930 . S
H498 C506 0.930 . S
H499 C507 0.930 . S
H500 C510 0.930 . S
H501 C511 0.930 . S
C502 H496 0.930 . S
C502 C503 1.355 . S
C502 C504 1.415 . S
C503 C502 1.355 . S
C503 C505 1.419 . S
C504 C502 1.415 . S
C504 C509 1.425 . S
C504 C511 1.409 . S
C505 H497 0.930 . S
C505 C503 1.419 . S
C505 C506 1.362 . S
C506 H498 0.930 . S
C506 C505 1.362 . S
C506 C509 1.409 . S
C507 H499 0.930 . S
C507 C508 1.355 . S
C507 C509 1.415 . S
C508 C507 1.355 . S
C508 C510 1.419 . S
C509 C504 1.425 . S
C509 C506 1.409 . S
C509 C507 1.415 . S
C510 H500 0.930 . S
C510 C508 1.419 . S
C510 C511 1.362 . S
C511 H501 0.930 . S
C511 C504 1.409 . S
C511 C510 1.362 . S
H512 C518 0.930 . S
H513 C521 0.930 . S
H514 C522 0.930 . S
H515 C523 0.930 . S
H516 C526 0.930 . S
H517 C527 0.930 . S
C518 H512 0.930 . S
C518 C519 1.355 . S
C518 C520 1.415 . S
C519 C518 1.355 . S
C519 C521 1.419 . S
C520 C518 1.415 . S
C520 C525 1.425 . S
C520 C527 1.409 . S
C521 H513 0.930 . S
C521 C519 1.419 . S
C521 C522 1.362 . S
C522 H514 0.930 . S
C522 C521 1.362 . S
C522 C525 1.409 . S
C523 H515 0.930 . S
C523 C524 1.355 . S
C523 C525 1.415 . S
C524 C523 1.355 . S
C524 C526 1.419 . S
C525 C520 1.425 . S
C525 C522 1.409 . S
C525 C523 1.415 . S
C526 H516 0.930 . S
C526 C524 1.419 . S
C526 C527 1.362 . S
C527 H517 0.930 . S
C527 C520 1.409 . S
C527 C526 1.362 . S
H528 C534 0.930 1_554 S
H529 C537 0.930 . S
H530 C538 0.930 . S
H531 C539 0.930 1_556 S
H532 C542 0.930 . S
H533 C543 0.930 . S
C534 H528 0.930 1_556 S
C534 C535 1.355 . S
C534 C536 1.415 1_556 S
C535 C534 1.355 . S
C535 C537 1.419 . S
C536 C534 1.415 1_554 S
C536 C541 1.425 1_564 S
C536 C543 1.409 . S
C537 H529 0.930 . S
C537 C535 1.419 . S
C537 C538 1.362 1_565 S
C538 H530 0.930 . S
C538 C537 1.362 1_545 S
C538 C541 1.409 . S
C539 H531 0.930 1_554 S
C539 C540 1.355 . S
C539 C541 1.415 1_554 S
C540 C539 1.355 . S
C540 C542 1.419 . S
C541 C536 1.425 1_546 S
C541 C538 1.409 . S
C541 C539 1.415 1_556 S
C542 H532 0.930 . S
C542 C540 1.419 . S
C542 C543 1.362 1_545 S
C543 H533 0.930 . S
C543 C536 1.409 . S
C543 C542 1.362 1_565 S
H544 C550 0.930 . S
H545 C553 0.930 . S
H546 C554 0.930 . S
H547 C555 0.930 . S
H548 C558 0.930 . S
H549 C559 0.930 . S
C550 H544 0.930 . S
C550 C551 1.355 . S
C550 C552 1.415 . S
C551 C550 1.355 . S
C551 C553 1.419 . S
C552 C550 1.415 . S
C552 C557 1.425 . S
C552 C559 1.409 . S
C553 H545 0.930 . S
C553 C551 1.419 . S
C553 C554 1.362 . S
C554 H546 0.930 . S
C554 C553 1.362 . S
C554 C557 1.409 . S
C555 H547 0.930 . S
C555 C556 1.355 . S
C555 C557 1.415 . S
C556 C555 1.355 . S
C556 C558 1.419 . S
C557 C552 1.425 . S
C557 C554 1.409 . S
C557 C555 1.415 . S
C558 H548 0.930 . S
C558 C556 1.419 . S
C558 C559 1.362 . S
C559 H549 0.930 . S
C559 C552 1.409 . S
C559 C558 1.362 . S
H560 C566 0.930 . S
H561 C569 0.930 . S
H562 C570 0.930 . S
H563 C571 0.930 . S
H564 C574 0.930 . S
H565 C575 0.930 . S
C566 H560 0.930 . S
C566 C567 1.355 . S
C566 C568 1.415 1_455 S
C567 C566 1.355 . S
C567 C569 1.419 . S
C568 C566 1.415 1_655 S
C568 C573 1.425 1_656 S
C568 C575 1.409 . S
C569 H561 0.930 . S
C569 C567 1.419 . S
C569 C570 1.362 1_556 S
C570 H562 0.930 . S
C570 C569 1.362 1_554 S
C570 C573 1.409 . S
C571 H563 0.930 . S
C571 C572 1.355 . S
C571 C573 1.415 1_655 S
C572 C571 1.355 . S
C572 C574 1.419 . S
C573 C568 1.425 1_454 S
C573 C570 1.409 . S
C573 C571 1.415 1_455 S
C574 H564 0.930 . S
C574 C572 1.419 . S
C574 C575 1.362 1_554 S
C575 H565 0.930 . S
C575 C568 1.409 . S
C575 C574 1.362 1_556 S
H576 C582 0.930 . S
H577 C585 0.930 . S
H578 C586 0.930 . S
H579 C587 0.930 . S
H580 C590 0.930 . S
H581 C591 0.930 . S
C582 H576 0.930 . S
C582 C583 1.355 . S
C582 C584 1.415 1_545 S
C583 C582 1.355 . S
C583 C585 1.419 . S
C584 C582 1.415 1_565 S
C584 C589 1.425 1_565 S
C584 C591 1.409 . S
C585 H577 0.930 . S
C585 C583 1.419 . S
C585 C586 1.362 . S
C586 H578 0.930 . S
C586 C585 1.362 . S
C586 C589 1.409 . S
C587 H579 0.930 . S
C587 C588 1.355 . S
C587 C589 1.415 1_565 S
C588 C587 1.355 . S
C588 C590 1.419 . S
C589 C584 1.425 1_545 S
C589 C586 1.409 . S
C589 C587 1.415 1_545 S
C590 H580 0.930 . S
C590 C588 1.419 . S
C590 C591 1.362 . S
C591 H581 0.930 . S
C591 C584 1.409 . S
C591 C590 1.362 . S
H592 C598 0.930 1_556 S
H593 C601 0.930 . S
H594 C602 0.930 . S
H595 C603 0.930 1_554 S
H596 C606 0.930 . S
H597 C607 0.930 . S
C598 H592 0.930 1_554 S
C598 C599 1.355 . S
C598 C600 1.415 1_554 S
C599 C598 1.355 . S
C599 C601 1.419 . S
C600 C598 1.415 1_556 S
C600 C605 1.425 1_556 S
C600 C607 1.409 . S
C601 H593 0.930 . S
C601 C599 1.419 . S
C601 C602 1.362 . S
C602 H594 0.930 . S
C602 C601 1.362 . S
C602 C605 1.409 . S
C603 H595 0.930 1_556 S
C603 C604 1.355 . S
C603 C605 1.415 1_556 S
C604 C603 1.355 . S
C604 C606 1.419 . S
C605 C600 1.425 1_554 S
C605 C602 1.409 . S
C605 C603 1.415 1_554 S
C606 H596 0.930 . S
C606 C604 1.419 . S
C606 C607 1.362 . S
C607 H597 0.930 . S
C607 C600 1.409 . S
C607 C606 1.362 . S
H608 C614 0.930 . S
H609 C617 0.930 . S
H610 C618 0.930 . S
H611 C619 0.930 . S
H612 C622 0.930 . S
H613 C623 0.930 . S
C614 H608 0.930 . S
C614 C615 1.355 . S
C614 C616 1.415 1_455 S
C615 C614 1.355 . S
C615 C617 1.419 . S
C616 C614 1.415 1_655 S
C616 C621 1.425 1_655 S
C616 C623 1.409 . S
C617 H609 0.930 . S
C617 C615 1.419 . S
C617 C618 1.362 . S
C618 H610 0.930 . S
C618 C617 1.362 . S
C618 C621 1.409 . S
C619 H611 0.930 . S
C619 C620 1.355 . S
C619 C621 1.415 1_655 S
C620 C619 1.355 . S
C620 C622 1.419 . S
C621 C616 1.425 1_455 S
C621 C618 1.409 . S
C621 C619 1.415 1_455 S
C622 H612 0.930 . S
C622 C620 1.419 . S
C622 C623 1.362 . S
C623 H613 0.930 . S
C623 C616 1.409 . S
C623 C622 1.362 . S
H624 C630 0.930 . S
H625 C633 0.930 . S
H626 C634 0.930 . S
H627 C635 0.930 . S
H628 C638 0.930 . S
H629 C639 0.930 . S
C630 H624 0.930 . S
C630 C631 1.355 . S
C630 C632 1.415 . S
C631 C630 1.355 . S
C631 C633 1.419 . S
C632 C630 1.415 . S
C632 C637 1.425 . S
C632 C639 1.409 . S
C633 H625 0.930 . S
C633 C631 1.419 . S
C633 C634 1.362 . S
C634 H626 0.930 . S
C634 C633 1.362 . S
C634 C637 1.409 . S
C635 H627 0.930 . S
C635 C636 1.355 . S
C635 C637 1.415 . S
C636 C635 1.355 . S
C636 C638 1.419 . S
C637 C632 1.425 . S
C637 C634 1.409 . S
C637 C635 1.415 . S
C638 H628 0.930 . S
C638 C636 1.419 . S
C638 C639 1.362 . S
C639 H629 0.930 . S
C639 C632 1.409 . S
C639 C638 1.362 . S
H640 C646 0.930 . S
H641 C649 0.930 . S
H642 C650 0.930 . S
H643 C651 0.930 . S
H644 C654 0.930 . S
H645 C655 0.930 . S
C646 H640 0.930 . S
C646 C647 1.355 . S
C646 C648 1.415 . S
C647 C646 1.355 . S
C647 C649 1.419 . S
C648 C646 1.415 . S
C648 C653 1.425 . S
C648 C655 1.409 . S
C649 H641 0.930 . S
C649 C647 1.419 . S
C649 C650 1.362 . S
C650 H642 0.930 . S
C650 C649 1.362 . S
C650 C653 1.409 . S
C651 H643 0.930 . S
C651 C652 1.355 . S
C651 C653 1.415 . S
C652 C651 1.355 . S
C652 C654 1.419 . S
C653 C648 1.425 . S
C653 C650 1.409 . S
C653 C651 1.415 . S
C654 H644 0.930 . S
C654 C652 1.419 . S
C654 C655 1.362 . S
C655 H645 0.930 . S
C655 C648 1.409 . S
C655 C654 1.362 . S
H656 C662 0.930 . S
H657 C665 0.930 . S
H658 C666 0.930 . S
H659 C667 0.930 . S
H660 C670 0.930 . S
H661 C671 0.930 . S
C662 H656 0.930 . S
C662 C663 1.355 . S
C662 C664 1.415 . S
C663 C662 1.355 . S
C663 C665 1.419 . S
C664 C662 1.415 . S
C664 C669 1.425 . S
C664 C671 1.409 . S
C665 H657 0.930 . S
C665 C663 1.419 . S
C665 C666 1.362 . S
C666 H658 0.930 . S
C666 C665 1.362 . S
C666 C669 1.409 . S
C667 H659 0.930 . S
C667 C668 1.355 . S
C667 C669 1.415 . S
C668 C667 1.355 . S
C668 C670 1.419 . S
C669 C664 1.425 . S
C669 C666 1.409 . S
C669 C667 1.415 . S
C670 H660 0.930 . S
C670 C668 1.419 . S
C670 C671 1.362 . S
C671 H661 0.930 . S
C671 C664 1.409 . S
C671 C670 1.362 . S
H672 C678 0.930 . S
H673 C681 0.930 . S
H674 C682 0.930 . S
H675 C683 0.930 . S
H676 C686 0.930 . S
H677 C687 0.930 . S
C678 H672 0.930 . S
C678 C679 1.355 . S
C678 C680 1.415 . S
C679 C678 1.355 . S
C679 C681 1.419 . S
C680 C678 1.415 . S
C680 C685 1.425 . S
C680 C687 1.409 . S
C681 H673 0.930 . S
C681 C679 1.419 . S
C681 C682 1.362 . S
C682 H674 0.930 . S
C682 C681 1.362 . S
C682 C685 1.409 . S
C683 H675 0.930 . S
C683 C684 1.355 . S
C683 C685 1.415 . S
C684 C683 1.355 . S
C684 C686 1.419 . S
C685 C680 1.425 . S
C685 C682 1.409 . S
C685 C683 1.415 . S
C686 H676 0.930 . S
C686 C684 1.419 . S
C686 C687 1.362 . S
C687 H677 0.930 . S
C687 C680 1.409 . S
C687 C686 1.362 . S
H688 C694 0.930 . S
H689 C697 0.930 . S
H690 C698 0.930 . S
H691 C699 0.930 . S
H692 C702 0.930 . S
H693 C703 0.930 . S
C694 H688 0.930 . S
C694 C695 1.355 . S
C694 C696 1.415 . S
C695 C694 1.355 . S
C695 C697 1.419 . S
C696 C694 1.415 . S
C696 C701 1.425 . S
C696 C703 1.409 . S
C697 H689 0.930 . S
C697 C695 1.419 . S
C697 C698 1.362 . S
C698 H690 0.930 . S
C698 C697 1.362 . S
C698 C701 1.409 . S
C699 H691 0.930 . S
C699 C700 1.355 . S
C699 C701 1.415 . S
C700 C699 1.355 . S
C700 C702 1.419 . S
C701 C696 1.425 . S
C701 C698 1.409 . S
C701 C699 1.415 . S
C702 H692 0.930 . S
C702 C700 1.419 . S
C702 C703 1.362 . S
C703 H693 0.930 . S
C703 C696 1.409 . S
C703 C702 1.362 . S
H704 C710 0.930 . S
H705 C713 0.930 . S
H706 C714 0.930 . S
H707 C715 0.930 . S
H708 C718 0.930 . S
H709 C719 0.930 . S
C710 H704 0.930 . S
C710 C711 1.355 . S
C710 C712 1.415 . S
C711 C710 1.355 . S
C711 C713 1.419 . S
C712 C710 1.415 . S
C712 C717 1.425 . S
C712 C719 1.409 . S
C713 H705 0.930 . S
C713 C711 1.419 . S
C713 C714 1.362 . S
C714 H706 0.930 . S
C714 C713 1.362 . S
C714 C717 1.409 . S
C715 H707 0.930 . S
C715 C716 1.355 . S
C715 C717 1.415 . S
C716 C715 1.355 . S
C716 C718 1.419 . S
C717 C712 1.425 . S
C717 C714 1.409 . S
C717 C715 1.415 . S
C718 H708 0.930 . S
C718 C716 1.419 . S
C718 C719 1.362 . S
C719 H709 0.930 . S
C719 C712 1.409 . S
C719 C718 1.362 . S
H720 C726 0.930 . S
H721 C729 0.930 . S
H722 C730 0.930 . S
H723 C731 0.930 . S
H724 C734 0.930 . S
H725 C735 0.930 . S
C726 H720 0.930 . S
C726 C727 1.355 . S
C726 C728 1.415 . S
C727 C726 1.355 . S
C727 C729 1.419 . S
C728 C726 1.415 . S
C728 C733 1.425 . S
C728 C735 1.409 . S
C729 H721 0.930 . S
C729 C727 1.419 . S
C729 C730 1.362 . S
C730 H722 0.930 . S
C730 C729 1.362 . S
C730 C733 1.409 . S
C731 H723 0.930 . S
C731 C732 1.355 . S
C731 C733 1.415 . S
C732 C731 1.355 . S
C732 C734 1.419 . S
C733 C728 1.425 . S
C733 C730 1.409 . S
C733 C731 1.415 . S
C734 H724 0.930 . S
C734 C732 1.419 . S
C734 C735 1.362 . S
C735 H725 0.930 . S
C735 C728 1.409 . S
C735 C734 1.362 . S
H736 C742 0.930 . S
H737 C745 0.930 . S
H738 C746 0.930 . S
H739 C747 0.930 . S
H740 C750 0.930 . S
H741 C751 0.930 . S
C742 H736 0.930 . S
C742 C743 1.355 . S
C742 C744 1.415 . S
C743 C742 1.355 . S
C743 C745 1.419 . S
C744 C742 1.415 . S
C744 C749 1.425 . S
C744 C751 1.409 . S
C745 H737 0.930 . S
C745 C743 1.419 . S
C745 C746 1.362 . S
C746 H738 0.930 . S
C746 C745 1.362 . S
C746 C749 1.409 . S
C747 H739 0.930 . S
C747 C748 1.355 . S
C747 C749 1.415 . S
C748 C747 1.355 . S
C748 C750 1.419 . S
C749 C744 1.425 . S
C749 C746 1.409 . S
C749 C747 1.415 . S
C750 H740 0.930 . S
C750 C748 1.419 . S
C750 C751 1.362 . S
C751 H741 0.930 . S
C751 C744 1.409 . S
C751 C750 1.362 . S
H752 C758 0.930 . S
H753 C761 0.930 . S
H754 C762 0.930 . S
H755 C763 0.930 . S
H756 C766 0.930 . S
H757 C767 0.930 . S
C758 H752 0.930 . S
C758 C759 1.355 . S
C758 C760 1.415 . S
C759 C758 1.355 . S
C759 C761 1.419 . S
C760 C758 1.415 . S
C760 C765 1.425 . S
C760 C767 1.409 . S
C761 H753 0.930 . S
C761 C759 1.419 . S
C761 C762 1.362 . S
C762 H754 0.930 . S
C762 C761 1.362 . S
C762 C765 1.409 . S
C763 H755 0.930 . S
C763 C764 1.355 . S
C763 C765 1.415 . S
C764 C763 1.355 . S
C764 C766 1.419 . S
C765 C760 1.425 . S
C765 C762 1.409 . S
C765 C763 1.415 . S
C766 H756 0.930 . S
C766 C764 1.419 . S
C766 C767 1.362 . S
C767 H757 0.930 . S
C767 C760 1.409 . S
C767 C766 1.362 . S
H768 C774 0.930 . S
H769 C777 0.930 . S
H770 C778 0.930 . S
H771 C779 0.930 . S
H772 C782 0.930 . S
H773 C783 0.930 . S
C774 H768 0.930 . S
C774 C775 1.355 . S
C774 C776 1.415 . S
C775 C774 1.355 . S
C775 C777 1.419 . S
C776 C774 1.415 . S
C776 C781 1.425 . S
C776 C783 1.409 . S
C777 H769 0.930 . S
C777 C775 1.419 . S
C777 C778 1.362 . S
C778 H770 0.930 . S
C778 C777 1.362 . S
C778 C781 1.409 . S
C779 H771 0.930 . S
C779 C780 1.355 . S
C779 C781 1.415 . S
C780 C779 1.355 . S
C780 C782 1.419 . S
C781 C776 1.425 . S
C781 C778 1.409 . S
C781 C779 1.415 . S
C782 H772 0.930 . S
C782 C780 1.419 . S
C782 C783 1.362 . S
C783 H773 0.930 . S
C783 C776 1.409 . S
C783 C782 1.362 . S
H784 C790 0.930 . S
H785 C793 0.930 . S
H786 C794 0.930 . S
H787 C795 0.930 . S
H788 C798 0.930 . S
H789 C799 0.930 . S
C790 H784 0.930 . S
C790 C791 1.355 . S
C790 C792 1.415 . S
C791 C790 1.355 . S
C791 C793 1.419 . S
C792 C790 1.415 . S
C792 C797 1.425 . S
C792 C799 1.409 . S
C793 H785 0.930 . S
C793 C791 1.419 . S
C793 C794 1.362 . S
C794 H786 0.930 . S
C794 C793 1.362 . S
C794 C797 1.409 . S
C795 H787 0.930 . S
C795 C796 1.355 . S
C795 C797 1.415 . S
C796 C795 1.355 . S
C796 C798 1.419 . S
C797 C792 1.425 . S
C797 C794 1.409 . S
C797 C795 1.415 . S
C798 H788 0.930 . S
C798 C796 1.419 . S
C798 C799 1.362 . S
C799 H789 0.930 . S
C799 C792 1.409 . S
C799 C798 1.362 . S
H800 C806 0.930 . S
H801 C809 0.930 . S
H802 C810 0.930 . S
H803 C811 0.930 . S
H804 C814 0.930 . S
H805 C815 0.930 . S
C806 H800 0.930 . S
C806 C807 1.355 . S
C806 C808 1.415 . S
C807 C806 1.355 . S
C807 C809 1.419 . S
C808 C806 1.415 . S
C808 C813 1.425 . S
C808 C815 1.409 . S
C809 H801 0.930 . S
C809 C807 1.419 . S
C809 C810 1.362 . S
C810 H802 0.930 . S
C810 C809 1.362 . S
C810 C813 1.409 . S
C811 H803 0.930 . S
C811 C812 1.355 . S
C811 C813 1.415 . S
C812 C811 1.355 . S
C812 C814 1.419 . S
C813 C808 1.425 . S
C813 C810 1.409 . S
C813 C811 1.415 . S
C814 H804 0.930 . S
C814 C812 1.419 . S
C814 C815 1.362 . S
C815 H805 0.930 . S
C815 C808 1.409 . S
C815 C814 1.362 . S
C247 C49 1.054 . S
C252 C2 1.161 . S
C263 C72 1.067 . S
C268 C24 1.139 . S
C279 C42 1.112 . S
C284 C89 1.171 . S
C295 C64 1.167 . S
C300 C112 1.152 . S
C311 C9 1.124 . S
C316 C82 1.184 . S
C327 C32 1.049 . S
C332 C104 1.175 . S
C343 C212 1.106 . S
C348 C124 1.191 . S
C359 C142 1.191 . S
C364 C229 1.064 . S
C375 C164 1.120 . S
C380 C132 1.177 . S
C391 C182 1.185 . S
C396 C149 1.058 . S
C407 C204 1.184 . S
C412 C172 1.053 . S
C423 C189 1.062 . S
C428 C222 1.189 . S
C439 C78 1.724 . S
C444 C19 1.741 . S
C455 C38 1.754 . S
C460 C99 1.711 . S
C471 C59 1.754 . S
C476 C118 1.711 . S
C487 C138 1.753 . S
C492 C199 1.711 . S
C503 C159 1.712 . S
C508 C218 1.752 . S
C519 C178 1.750 . S
C524 C239 1.715 . S
C535 C158 1.944 . S
C540 C18 1.926 . S
C551 C39 1.950 . S
C556 C179 1.982 . S
C567 C198 1.996 . S
C572 C58 1.983 . S
C583 C79 1.991 . S
C588 C219 1.993 . S
C599 C98 1.949 . S
C604 C238 1.927 . S
C615 C139 1.993 . S
C620 C119 1.992 . S
C631 C52 1.445 . S
C636 C4 1.262 . S
C647 C22 1.349 . S
C652 C69 1.403 . S
C663 C44 1.345 . S
C668 C92 1.397 . S
C679 C62 1.349 . S
C684 C109 1.413 . S
C695 C12 1.425 . S
C700 C84 1.221 . S
C711 C29 1.393 . S
C716 C102 1.337 . S
C727 C209 1.444 . S
C732 C122 1.284 . S
C743 C144 1.225 . S
C748 C232 1.434 . S
C759 C162 1.228 . S
C764 C129 1.437 . S
C775 C152 1.393 . S
C780 C184 1.268 . S
C791 C202 1.347 . S
C796 C169 1.400 . S
C807 C224 1.223 . S
C812 C192 1.432 . S
