# Generated by pormake.
# Topology umo, (4)-cn, num edge types: 1
# Building blocks:
#     Node 0, Type 0, BuildingBlock: QUQFOY_clean_sbu_1, # of connection points: 4
#     Node 1, Type 0, BuildingBlock: QUQFOY_clean_sbu_1, # of connection points: 4
#     Node 2, Type 0, BuildingBlock: QUQFOY_clean_sbu_1, # of connection points: 4
#     Node 3, Type 0, BuildingBlock: QUQFOY_clean_sbu_1, # of connection points: 4
#     Node 4, Type 0, BuildingBlock: QUQFOY_clean_sbu_1, # of connection points: 4
#     Node 5, Type 0, BuildingBlock: QUQFOY_clean_sbu_1, # of connection points: 4
#     Node 6, Type 0, BuildingBlock: QUQFOY_clean_sbu_1, # of connection points: 4
#     Node 7, Type 0, BuildingBlock: QUQFOY_clean_sbu_1, # of connection points: 4
#     Node 8, Type 0, BuildingBlock: QUQFOY_clean_sbu_1, # of connection points: 4
#     Node 9, Type 0, BuildingBlock: QUQFOY_clean_sbu_1, # of connection points: 4
#     Node 10, Type 0, BuildingBlock: QUQFOY_clean_sbu_1, # of connection points: 4
#     Node 11, Type 0, BuildingBlock: QUQFOY_clean_sbu_1, # of connection points: 4
#     Edge 12, Type (0, 0), BuildingBlock: KIFKEQ_clean_linker_1, # of connection points: 2
#     Edge 13, Type (0, 0), BuildingBlock: KIFKEQ_clean_linker_1, # of connection points: 2
#     Edge 14, Type (0, 0), BuildingBlock: KIFKEQ_clean_linker_1, # of connection points: 2
#     Edge 15, Type (0, 0), BuildingBlock: KIFKEQ_clean_linker_1, # of connection points: 2
#     Edge 16, Type (0, 0), BuildingBlock: KIFKEQ_clean_linker_1, # of connection points: 2
#     Edge 17, Type (0, 0), BuildingBlock: KIFKEQ_clean_linker_1, # of connection points: 2
#     Edge 18, Type (0, 0), BuildingBlock: KIFKEQ_clean_linker_1, # of connection points: 2
#     Edge 19, Type (0, 0), BuildingBlock: KIFKEQ_clean_linker_1, # of connection points: 2
#     Edge 20, Type (0, 0), BuildingBlock: KIFKEQ_clean_linker_1, # of connection points: 2
#     Edge 21, Type (0, 0), BuildingBlock: KIFKEQ_clean_linker_1, # of connection points: 2
#     Edge 22, Type (0, 0), BuildingBlock: KIFKEQ_clean_linker_1, # of connection points: 2
#     Edge 23, Type (0, 0), BuildingBlock: KIFKEQ_clean_linker_1, # of connection points: 2
#     Edge 24, Type (0, 0), BuildingBlock: KIFKEQ_clean_linker_1, # of connection points: 2
#     Edge 25, Type (0, 0), BuildingBlock: KIFKEQ_clean_linker_1, # of connection points: 2
#     Edge 26, Type (0, 0), BuildingBlock: KIFKEQ_clean_linker_1, # of connection points: 2
#     Edge 27, Type (0, 0), BuildingBlock: KIFKEQ_clean_linker_1, # of connection points: 2
#     Edge 28, Type (0, 0), BuildingBlock: KIFKEQ_clean_linker_1, # of connection points: 2
#     Edge 29, Type (0, 0), BuildingBlock: KIFKEQ_clean_linker_1, # of connection points: 2
#     Edge 30, Type (0, 0), BuildingBlock: KIFKEQ_clean_linker_1, # of connection points: 2
#     Edge 31, Type (0, 0), BuildingBlock: KIFKEQ_clean_linker_1, # of connection points: 2
#     Edge 32, Type (0, 0), BuildingBlock: KIFKEQ_clean_linker_1, # of connection points: 2
#     Edge 33, Type (0, 0), BuildingBlock: KIFKEQ_clean_linker_1, # of connection points: 2
#     Edge 34, Type (0, 0), BuildingBlock: KIFKEQ_clean_linker_1, # of connection points: 2
#     Edge 35, Type (0, 0), BuildingBlock: KIFKEQ_clean_linker_1, # of connection points: 2
# Relax obj value: 0.084
# Max RMSD: 0.129
# Mean RMSD: 0.129
data_MOF--net-umo--node1-QUQFOY_clean_sbu_1--edge1-KIFKEQ_clean_linker_1
_symmetry_space_group_name_H-M    P1
_symmetry_Int_Tables_number       1
_symmetry_cell_setting            triclinic
loop_
_symmetry_equiv_pos_as_xyz
'x, y, z'
_cell_length_a     53.695837
_cell_length_b     53.680813
_cell_length_c     38.902411
_cell_angle_alpha  90.051522
_cell_angle_beta   89.89085
_cell_angle_gamma 119.99046
loop_
_atom_site_label
_atom_site_type_symbol
_atom_site_fract_x
_atom_site_fract_y
_atom_site_fract_z
_atom_type_partial_charge
O0 O 0.15666 0.58397 0.44641 0.0
Cd1 Cd 0.15016 0.59074 0.39644 0.0
Cd2 Cd 0.20361 0.59341 0.39154 0.0
O3 O 0.19679 0.58218 0.44351 0.0
O4 O 0.10963 0.58219 0.39978 0.0
O5 O 0.12301 0.55879 0.36455 0.0
C6 C 0.10272 0.56222 0.37733 0.0
C7 C 0.22474 0.57543 0.35286 0.0
C8 C 0.17642 0.58154 0.46107 0.0
C9 C 0.19985 0.64785 0.38039 0.0
O10 O 0.2149 0.63564 0.38247 0.0
O11 O 0.17269 0.63353 0.38357 0.0
O12 O 0.23905 0.59218 0.37792 0.0
O13 O 0.19777 0.5675 0.35069 0.0
O14 O 0.57763 0.15432 0.60957 0.0
Cd15 Cd 0.56423 0.15049 0.55979 0.0
Cd16 Cd 0.61291 0.20496 0.55769 0.0
O17 O 0.61724 0.1967 0.60911 0.0
O18 O 0.53287 0.10956 0.56041 0.0
O19 O 0.57007 0.12546 0.52538 0.0
C20 C 0.54653 0.10418 0.53711 0.0
C21 C 0.65092 0.22526 0.51786 0.0
C22 C 0.5988 0.17444 0.62534 0.0
C23 C 0.55436 0.19965 0.5484 0.0
O24 O 0.58151 0.21574 0.55022 0.0
O25 O 0.54272 0.17247 0.55033 0.0
O26 O 0.6501 0.23972 0.54387 0.0
O27 O 0.63087 0.19868 0.51521 0.0
O28 O 0.43212 0.58264 0.78252 0.0
Cd29 Cd 0.42398 0.57262 0.73154 0.0
Cd30 Cd 0.42342 0.62321 0.73263 0.0
O31 O 0.4362 0.62561 0.78365 0.0
O32 O 0.42855 0.53815 0.72836 0.0
O33 O 0.4557 0.57777 0.69887 0.0
C34 C 0.44932 0.55195 0.70706 0.0
C35 C 0.44334 0.66001 0.69163 0.0
C36 C 0.43609 0.60467 0.7992 0.0
C37 C 0.3673 0.56836 0.72119 0.0
O38 O 0.38024 0.59537 0.72613 0.0
O39 O 0.38112 0.55491 0.71997 0.0
O40 O 0.43015 0.66196 0.71835 0.0
O41 O 0.447 0.63802 0.68931 0.0
O42 O 0.84392 0.41806 0.94795 0.0
Cd43 Cd 0.84894 0.41322 0.89673 0.0
Cd44 Cd 0.79846 0.41373 0.89499 0.0
O45 O 0.80773 0.4265 0.94624 0.0
O46 O 0.88822 0.4184 0.89592 0.0
O47 O 0.87686 0.44663 0.86702 0.0
C48 C 0.89605 0.44012 0.87592 0.0
C49 C 0.78152 0.43392 0.85437 0.0
C50 C 0.82636 0.42358 0.96328 0.0
C51 C 0.79747 0.35761 0.88186 0.0
O52 O 0.78343 0.37047 0.88773 0.0
O53 O 0.82473 0.37137 0.88115 0.0
O54 O 0.7662 0.42005 0.88065 0.0
O55 O 0.80728 0.4379 0.85212 0.0
O56 O 0.41274 0.83885 0.11968 0.0
Cd57 Cd 0.43034 0.84682 0.07142 0.0
Cd58 Cd 0.38586 0.79154 0.05977 0.0
O59 O 0.38031 0.79304 0.11256 0.0
O60 O 0.46158 0.88748 0.07629 0.0
O61 O 0.42676 0.87408 0.03834 0.0
C62 C 0.44992 0.89436 0.05207 0.0
C63 C 0.34705 0.77212 0.02098 0.0
C64 C 0.39391 0.81483 0.13202 0.0
C65 C 0.44568 0.8016 0.05302 0.0
O66 O 0.41908 0.78439 0.0479 0.0
O67 O 0.45446 0.82732 0.06246 0.0
O68 O 0.35066 0.75626 0.04297 0.0
O69 O 0.36496 0.79947 0.02176 0.0
O70 O 0.55914 0.39877 0.28901 0.0
Cd71 Cd 0.57103 0.42167 0.24406 0.0
Cd72 Cd 0.58758 0.38238 0.2265 0.0
O73 O 0.58115 0.37411 0.27901 0.0
O74 O 0.55662 0.44887 0.25267 0.0
O75 O 0.54314 0.41989 0.20782 0.0
C76 C 0.54157 0.43961 0.2251 0.0
C77 C 0.57188 0.345 0.18574 0.0
C78 C 0.56873 0.38284 0.29968 0.0
C79 C 0.63344 0.44387 0.22743 0.0
O80 O 0.62613 0.41889 0.21621 0.0
O81 O 0.6148 0.44909 0.24041 0.0
O82 O 0.59216 0.35025 0.20722 0.0
O83 O 0.5597 0.36048 0.18793 0.0
O84 O 0.43946 0.84186 0.39417 0.0
Cd85 Cd 0.42723 0.85073 0.44035 0.0
Cd86 Cd 0.41569 0.79565 0.45564 0.0
O87 O 0.42444 0.79596 0.40351 0.0
O88 O 0.43856 0.89178 0.43282 0.0
O89 O 0.45527 0.87779 0.4759 0.0
C90 C 0.45478 0.8984 0.45944 0.0
C91 C 0.43423 0.77751 0.49715 0.0
C92 C 0.43396 0.81736 0.38318 0.0
C93 C 0.36588 0.80587 0.45623 0.0
O94 O 0.37496 0.78886 0.4643 0.0
O95 O 0.38319 0.83123 0.44585 0.0
O96 O 0.4161 0.76105 0.47434 0.0
O97 O 0.44263 0.80463 0.49605 0.0
O98 O 0.59016 0.42988 0.5618 0.0
Cd99 Cd 0.57292 0.42116 0.61027 0.0
Cd100 Cd 0.61826 0.41108 0.62188 0.0
O101 O 0.62453 0.41924 0.56936 0.0
O102 O 0.54125 0.42991 0.60443 0.0
O103 O 0.57597 0.45255 0.64219 0.0
C104 C 0.5527 0.44905 0.62809 0.0
C105 C 0.65591 0.43014 0.66204 0.0
C106 C 0.60997 0.42606 0.54968 0.0
C107 C 0.5585 0.36085 0.62854 0.0
O108 O 0.58527 0.37024 0.63219 0.0
O109 O 0.5493 0.37772 0.62046 0.0
O110 O 0.6541 0.41225 0.63873 0.0
O111 O 0.63694 0.43824 0.66192 0.0
O112 O 0.15955 0.575 0.73408 0.0
Cd113 Cd 0.15184 0.56537 0.78522 0.0
Cd114 Cd 0.20206 0.61762 0.78818 0.0
O115 O 0.1945 0.62029 0.73608 0.0
O116 O 0.11267 0.53111 0.78388 0.0
O117 O 0.12238 0.57066 0.81196 0.0
C118 C 0.10376 0.5449 0.80249 0.0
C119 C 0.22129 0.65679 0.82643 0.0
C120 C 0.17712 0.59813 0.71889 0.0
C121 C 0.20278 0.56239 0.80468 0.0
O122 O 0.21636 0.58919 0.79823 0.0
O123 O 0.17553 0.54827 0.80419 0.0
O124 O 0.23604 0.65554 0.80102 0.0
O125 O 0.19472 0.63666 0.82886 0.0
O126 O 0.57106 0.15085 0.89813 0.0
Cd127 Cd 0.57889 0.14658 0.94856 0.0
Cd128 Cd 0.58368 0.20056 0.95051 0.0
O129 O 0.57263 0.19274 0.89864 0.0
O130 O 0.57249 0.10676 0.94846 0.0
O131 O 0.54696 0.11952 0.98074 0.0
C132 C 0.55223 0.09975 0.97053 0.0
C133 C 0.56538 0.2208 0.98966 0.0
C134 C 0.57004 0.17098 0.88227 0.0
C135 C 0.63707 0.19625 0.96239 0.0
O136 O 0.62575 0.21203 0.95961 0.0
O137 O 0.62188 0.16909 0.9603 0.0
O138 O 0.58157 0.23543 0.96429 0.0
O139 O 0.55796 0.19392 0.99161 0.0
O140 O 0.42275 0.57496 0.07081 0.0
Cd141 Cd 0.43633 0.58436 0.12054 0.0
Cd142 Cd 0.38903 0.59227 0.12298 0.0
O143 O 0.38504 0.58103 0.07106 0.0
O144 O 0.46654 0.57323 0.12016 0.0
O145 O 0.42922 0.55328 0.15516 0.0
C146 C 0.45237 0.55453 0.14357 0.0
C147 C 0.34997 0.5751 0.16149 0.0
C148 C 0.40253 0.57571 0.05491 0.0
C149 C 0.44851 0.64407 0.13304 0.0
O150 O 0.42143 0.63374 0.13219 0.0
O151 O 0.45935 0.62791 0.12976 0.0
O152 O 0.35302 0.5923 0.13666 0.0
O153 O 0.3684 0.56636 0.16353 0.0
O154 O 0.84261 0.43404 0.23706 0.0
Cd155 Cd 0.84834 0.44508 0.28781 0.0
Cd156 Cd 0.79679 0.39372 0.29068 0.0
O157 O 0.80538 0.39001 0.23909 0.0
O158 O 0.88887 0.47722 0.2868 0.0
O159 O 0.87479 0.43837 0.3186 0.0
C160 C 0.89533 0.46276 0.30767 0.0
C161 C 0.77811 0.35541 0.33014 0.0
C162 C 0.82452 0.41116 0.22191 0.0
C163 C 0.79752 0.45021 0.30366 0.0
O164 O 0.78325 0.42312 0.29905 0.0
O165 O 0.82482 0.46376 0.30275 0.0
O166 O 0.76329 0.35546 0.30417 0.0
O167 O 0.80424 0.3764 0.33289 0.0
H168 H 0.24759 0.6862 0.3454 0.0
H169 H 0.18745 0.67976 0.42347 0.0
H170 H 0.28193 0.7346 0.36527 0.0
H171 H 0.22242 0.72775 0.44439 0.0
H172 H 0.33999 0.82064 0.40678 0.0
H173 H 0.29172 0.78927 0.3842 0.0
H174 H 0.27326 0.73161 0.46984 0.0
H175 H 0.32187 0.76227 0.49177 0.0
C176 C 0.24123 0.69572 0.3657 0.0
C177 C 0.21499 0.67937 0.38292 0.0
C178 C 0.26082 0.72338 0.37709 0.0
C179 C 0.25474 0.73469 0.40645 0.0
C180 C 0.22741 0.71949 0.42157 0.0
C181 C 0.20742 0.69214 0.40947 0.0
C182 C 0.3252 0.80198 0.42168 0.0
C183 C 0.33474 0.79362 0.45082 0.0
C184 C 0.29762 0.78406 0.40865 0.0
C185 C 0.27899 0.75811 0.42524 0.0
C186 C 0.28723 0.7517 0.45678 0.0
C187 C 0.31505 0.76917 0.46929 0.0
H188 H 0.51054 0.18437 0.59322 0.0
H189 H 0.56034 0.24686 0.51526 0.0
H190 H 0.49558 0.2172 0.61667 0.0
H191 H 0.54425 0.27897 0.53761 0.0
H192 H 0.51446 0.33359 0.5835 0.0
H193 H 0.49753 0.28535 0.5607 0.0
H194 H 0.54298 0.26935 0.64108 0.0
H195 H 0.56102 0.318 0.66304 0.0
C196 C 0.51681 0.20434 0.57981 0.0
C197 C 0.53668 0.21328 0.55256 0.0
C198 C 0.5083 0.22309 0.59332 0.0
C199 C 0.51881 0.25048 0.57891 0.0
C200 C 0.5356 0.25778 0.54889 0.0
C201 C 0.54485 0.23947 0.53609 0.0
C202 C 0.51966 0.31929 0.59738 0.0
C203 C 0.53939 0.32959 0.62476 0.0
C204 C 0.50996 0.29172 0.58422 0.0
C205 C 0.5191 0.27388 0.59908 0.0
C206 C 0.53545 0.28271 0.6294 0.0
C207 C 0.54584 0.31055 0.64193 0.0
H208 H 0.25443 0.57829 0.83391 0.0
H209 H 0.18864 0.51384 0.76895 0.0
H210 H 0.28912 0.56571 0.81105 0.0
H211 H 0.22381 0.50221 0.74503 0.0
H212 H 0.33594 0.51955 0.75804 0.0
H213 H 0.28879 0.50464 0.78368 0.0
H214 H 0.28134 0.56683 0.72111 0.0
H215 H 0.32886 0.58264 0.69653 0.0
C216 C 0.24707 0.56042 0.81616 0.0
C217 C 0.21901 0.5471 0.80308 0.0
C218 C 0.26686 0.55327 0.80304 0.0
C219 C 0.25891 0.53316 0.7763 0.0
C220 C 0.23014 0.51754 0.76594 0.0
C221 C 0.21009 0.52415 0.77976 0.0
C222 C 0.32358 0.52901 0.74852 0.0
C223 C 0.33593 0.55231 0.72544 0.0
C224 C 0.29674 0.52052 0.7633 0.0
C225 C 0.28178 0.53467 0.75419 0.0
C226 C 0.2926 0.55554 0.72814 0.0
C227 C 0.31966 0.56453 0.71407 0.0
H228 H 0.81367 0.32552 0.91889 0.0
H229 H 0.74592 0.31964 0.85378 0.0
H230 H 0.7808 0.2776 0.94198 0.0
H231 H 0.71364 0.2712 0.87558 0.0
H232 H 0.66634 0.18058 0.91931 0.0
H233 H 0.71358 0.21386 0.89494 0.0
H234 H 0.72536 0.27704 0.97136 0.0
H235 H 0.67756 0.24446 0.99463 0.0
C236 C 0.79232 0.31327 0.908 0.0
C237 C 0.78214 0.32614 0.88468 0.0
C238 C 0.77361 0.28596 0.92129 0.0
C239 C 0.74496 0.27097 0.91035 0.0
C240 C 0.73586 0.28239 0.88396 0.0
C241 C 0.75424 0.31001 0.87151 0.0
C242 C 0.67968 0.20098 0.93207 0.0
C243 C 0.66841 0.21016 0.95871 0.0
C244 C 0.70661 0.21995 0.91802 0.0
C245 C 0.72282 0.24777 0.93142 0.0
C246 C 0.71321 0.25547 0.96099 0.0
C247 C 0.68595 0.23689 0.97431 0.0
H248 H 0.44342 0.75638 0.01827 0.0
H249 H 0.4894 0.81803 0.09858 0.0
H250 H 0.46118 0.72559 0.0402 0.0
H251 H 0.50613 0.78657 0.12128 0.0
H252 H 0.44423 0.686 0.16707 0.0
H253 H 0.46063 0.73422 0.14471 0.0
H254 H 0.50722 0.71974 0.06408 0.0
H255 H 0.49192 0.67191 0.08747 0.0
C256 C 0.4584 0.76396 0.03957 0.0
C257 C 0.46472 0.78936 0.05695 0.0
C258 C 0.46864 0.74639 0.0521 0.0
C259 C 0.48476 0.7537 0.0826 0.0
C260 C 0.49383 0.78062 0.09766 0.0
C261 C 0.48425 0.79859 0.08455 0.0
C262 C 0.45937 0.6938 0.14587 0.0
C263 C 0.46679 0.67535 0.12894 0.0
C264 C 0.46878 0.72136 0.13305 0.0
C265 C 0.48502 0.73048 0.10258 0.0
C266 C 0.4949 0.71319 0.08773 0.0
C267 C 0.48622 0.68591 0.10123 0.0
H268 H 0.74777 0.43738 0.33628 0.0
H269 H 0.81106 0.49721 0.265 0.0
H270 H 0.71405 0.45262 0.31769 0.0
H271 H 0.77674 0.51151 0.24521 0.0
H272 H 0.67939 0.44968 0.19069 0.0
H273 H 0.72746 0.46729 0.21407 0.0
H274 H 0.70446 0.49818 0.30425 0.0
H275 H 0.65671 0.48161 0.28039 0.0
C276 C 0.75486 0.45472 0.31779 0.0
C277 C 0.78188 0.46613 0.30205 0.0
C278 C 0.73564 0.46349 0.30716 0.0
C279 C 0.74288 0.48315 0.27995 0.0
C280 C 0.77084 0.49652 0.26641 0.0
C281 C 0.79043 0.48838 0.27784 0.0
C282 C 0.68511 0.46165 0.21458 0.0
C283 C 0.66422 0.46389 0.23392 0.0
C284 C 0.71264 0.47181 0.22795 0.0
C285 C 0.71939 0.48376 0.2611 0.0
C286 C 0.69968 0.48909 0.27861 0.0
C287 C 0.67238 0.47962 0.26483 0.0
H288 H 0.16742 0.55214 0.68065 0.0
H289 H 0.19276 0.64198 0.67192 0.0
H290 H 0.17048 0.54896 0.61845 0.0
H291 H 0.19496 0.6384 0.60896 0.0
H292 H 0.14706 0.59809 0.50326 0.0
H293 H 0.151 0.60453 0.56515 0.0
H294 H 0.2118 0.57432 0.56817 0.0
H295 H 0.20866 0.56855 0.50524 0.0
C296 C 0.17354 0.57123 0.66538 0.0
C297 C 0.17947 0.59727 0.68108 0.0
C298 C 0.1756 0.5694 0.62983 0.0
C299 C 0.18303 0.59341 0.60908 0.0
C300 C 0.18923 0.6196 0.62461 0.0
C301 C 0.18791 0.62165 0.66046 0.0
C302 C 0.16123 0.59261 0.51689 0.0
C303 C 0.17742 0.58256 0.49919 0.0
C304 C 0.16369 0.59668 0.55236 0.0
C305 C 0.18194 0.59029 0.57123 0.0
C306 C 0.19772 0.57959 0.55397 0.0
C307 C 0.19579 0.57613 0.51811 0.0
H308 H 0.56494 0.1284 0.66563 0.0
H309 H 0.63059 0.21803 0.67147 0.0
H310 H 0.55605 0.12804 0.7265 0.0
H311 H 0.62262 0.21729 0.73357 0.0
H312 H 0.57917 0.21421 0.83674 0.0
H313 H 0.58801 0.21522 0.77483 0.0
H314 H 0.57401 0.12873 0.78067 0.0
H315 H 0.56383 0.1272 0.8413 0.0
C316 C 0.57806 0.14795 0.68009 0.0
C317 C 0.59849 0.17329 0.66349 0.0
C318 C 0.57296 0.1477 0.71525 0.0
C319 C 0.58845 0.17268 0.73517 0.0
C320 C 0.60988 0.19778 0.71894 0.0
C321 C 0.61484 0.1981 0.68344 0.0
C322 C 0.57729 0.1952 0.82454 0.0
C323 C 0.57064 0.1706 0.84409 0.0
C324 C 0.58287 0.19594 0.78916 0.0
C325 C 0.582 0.17214 0.77262 0.0
C326 C 0.57454 0.14736 0.79216 0.0
C327 C 0.56872 0.14652 0.82719 0.0
H328 H 0.4334 0.55956 0.01466 0.0
H329 H 0.37463 0.59235 0.00884 0.0
H330 H 0.44379 0.56878 0.95408 0.0
H331 H 0.38406 0.60039 0.94707 0.0
H332 H 0.43134 0.64069 0.84607 0.0
H333 H 0.42127 0.63191 0.90763 0.0
H334 H 0.42616 0.55418 0.89899 0.0
H335 H 0.43752 0.56363 0.83864 0.0
C336 C 0.42206 0.56809 1.00023 0.0
C337 C 0.40318 0.57527 0.01677 0.0
C338 C 0.42804 0.57336 0.96526 0.0
C339 C 0.41501 0.58561 0.9455 0.0
C340 C 0.39497 0.59149 0.96161 0.0
C341 C 0.38912 0.58639 0.99691 0.0
C342 C 0.43099 0.62216 0.85759 0.0
C343 C 0.43536 0.60296 0.83732 0.0
C344 C 0.42469 0.61682 0.89276 0.0
C345 C 0.42254 0.59212 0.90837 0.0
C346 C 0.42792 0.57358 0.88819 0.0
C347 C 0.43444 0.57903 0.85335 0.0
H348 H 0.80123 0.36526 0.17676 0.0
H349 H 0.84566 0.45815 0.18097 0.0
H350 H 0.79981 0.36767 0.11361 0.0
H351 H 0.84344 0.46029 0.11872 0.0
H352 H 0.80327 0.44641 0.00831 0.0
H353 H 0.80076 0.44181 0.07132 0.0
H354 H 0.84328 0.39174 0.06653 0.0
H355 H 0.84658 0.39687 1.0043 0.0
C356 C 0.81061 0.38606 0.16431 0.0
C357 C 0.82386 0.41146 0.18384 0.0
C358 C 0.80973 0.38745 0.12832 0.0
C359 C 0.82131 0.4142 0.11152 0.0
C360 C 0.8341 0.43944 0.13109 0.0
C361 C 0.83562 0.43812 0.16674 0.0
C362 C 0.81221 0.43462 0.02078 0.0
C363 C 0.82545 0.42237 1.00134 0.0
C364 C 0.81067 0.43187 0.0567 0.0
C365 C 0.82159 0.41616 0.07356 0.0
C366 C 0.83442 0.40365 0.0541 0.0
C367 C 0.83659 0.40695 0.01848 0.0
H368 H 0.40521 0.85562 0.18063 0.0
H369 H 0.38231 0.76676 0.16848 0.0
H370 H 0.41567 0.85365 0.24104 0.0
H371 H 0.39407 0.76502 0.22863 0.0
H372 H 0.3973 0.76864 0.34801 0.0
H373 H 0.3841 0.76581 0.28766 0.0
H374 H 0.45271 0.85339 0.27279 0.0
H375 H 0.46488 0.85653 0.33346 0.0
C376 C 0.40193 0.8355 0.19108 0.0
C377 C 0.39291 0.81136 0.16981 0.0
C378 C 0.40845 0.83447 0.2256 0.0
C379 C 0.40665 0.80944 0.23961 0.0
C380 C 0.39579 0.7847 0.21884 0.0
C381 C 0.38883 0.78561 0.18434 0.0
C382 C 0.41009 0.787 0.33159 0.0
C383 C 0.43207 0.81287 0.34553 0.0
C384 C 0.40238 0.78545 0.29695 0.0
C385 C 0.41674 0.80965 0.27542 0.0
C386 C 0.4404 0.83466 0.28882 0.0
C387 C 0.44778 0.83633 0.32349 0.0
H388 H 0.53575 0.38679 0.35035 0.0
H389 H 0.60982 0.3768 0.33388 0.0
H390 H 0.54867 0.39762 0.41064 0.0
H391 H 0.62348 0.38878 0.39396 0.0
H392 H 0.62589 0.39246 0.5137 0.0
H393 H 0.61451 0.37766 0.45376 0.0
H394 H 0.58455 0.43828 0.44049 0.0
H395 H 0.59489 0.45214 0.50058 0.0
C396 C 0.55447 0.38631 0.35981 0.0
C397 C 0.57177 0.38102 0.33729 0.0
C398 C 0.56221 0.39304 0.39426 0.0
C399 C 0.5877 0.39507 0.40699 0.0
C400 C 0.6038 0.38756 0.3851 0.0
C401 C 0.59583 0.38046 0.35064 0.0
C402 C 0.61763 0.40319 0.49768 0.0
C403 C 0.61117 0.4234 0.51191 0.0
C404 C 0.61088 0.39453 0.46333 0.0
C405 C 0.59778 0.40612 0.44246 0.0
C406 C 0.5936 0.42806 0.45608 0.0
C407 C 0.6 0.43643 0.49041 0.0
H408 H 0.94295 0.50141 0.27293 0.0
H409 H 0.91605 0.44892 0.36456 0.0
H410 H 0.99315 0.52136 0.28952 0.0
H411 H 0.96662 0.46953 0.38155 0.0
H412 H 0.05563 0.55152 0.41455 0.0
H413 H 0.00524 0.52334 0.39771 0.0
H414 H 0.03046 0.5035 0.30071 0.0
H415 H 0.08119 0.53133 0.31788 0.0
C416 C 0.94779 0.49409 0.29661 0.0
C417 C 0.9256 0.47378 0.31763 0.0
C418 C 0.97652 0.50533 0.30589 0.0
C419 C 0.98368 0.4969 0.33671 0.0
C420 C 0.96157 0.47634 0.35763 0.0
C421 C 0.93273 0.46458 0.34794 0.0
C422 C 0.05045 0.54095 0.38973 0.0
C423 C 0.07232 0.54379 0.36737 0.0
C424 C 0.0216 0.52464 0.38027 0.0
C425 C 0.01404 0.51127 0.34799 0.0
C426 C 0.03582 0.51366 0.32576 0.0
C427 C 0.06475 0.52951 0.33557 0.0
H428 H 0.46795 0.94603 0.42168 0.0
H429 H 0.48009 0.91933 0.52201 0.0
H430 H 0.49329 0.99608 0.44036 0.0
H431 H 0.50534 0.96966 0.54081 0.0
H432 H 0.50648 0.05524 0.56858 0.0
H433 H 0.48781 0.00573 0.54996 0.0
H434 H 0.54314 0.0356 0.4608 0.0
H435 H 0.56223 0.08551 0.47967 0.0
C436 C 0.47621 0.95088 0.44768 0.0
C437 C 0.47186 0.92874 0.47049 0.0
C438 C 0.4909 0.97956 0.45825 0.0
C439 C 0.50123 0.98671 0.49201 0.0
C440 C 0.49744 0.96467 0.51467 0.0
C441 C 0.48309 0.93593 0.50391 0.0
C442 C 0.51477 0.05132 0.54502 0.0
C443 C 0.5357 0.07429 0.52544 0.0
C444 C 0.50424 0.02293 0.53457 0.0
C445 C 0.51412 0.01685 0.50405 0.0
C446 C 0.53514 0.03975 0.48443 0.0
C447 C 0.54605 0.06825 0.49521 0.0
H448 H 0.50287 0.57796 0.67709 0.0
H449 H 0.43196 0.49509 0.70669 0.0
H450 H 0.52964 0.55452 0.6573 0.0
H451 H 0.45842 0.47196 0.68677 0.0
H452 H 0.49963 0.43905 0.61032 0.0
H453 H 0.47598 0.46562 0.62773 0.0
H454 H 0.55085 0.5241 0.68637 0.0
H455 H 0.57479 0.49722 0.66907 0.0
C456 C 0.49296 0.55481 0.67911 0.0
C457 C 0.46532 0.53834 0.69334 0.0
C458 C 0.50833 0.54148 0.66807 0.0
C459 C 0.49603 0.51147 0.67052 0.0
C460 C 0.4683 0.4951 0.68437 0.0
C461 C 0.45321 0.50838 0.69584 0.0
C462 C 0.51119 0.45761 0.62685 0.0
C463 C 0.53904 0.46593 0.63851 0.0
C464 C 0.49758 0.47277 0.63683 0.0
C465 C 0.51158 0.49683 0.65841 0.0
C466 C 0.5397 0.5057 0.66951 0.0
C467 C 0.55327 0.49023 0.65984 0.0
H468 H 0.07569 0.56901 0.83591 0.0
H469 H 0.06237 0.4896 0.79093 0.0
H470 H 0.02474 0.54492 0.85257 0.0
H471 H 0.01203 0.46591 0.8074 0.0
H472 H 0.93743 0.42564 0.88312 0.0
H473 H 0.98736 0.4526 0.86504 0.0
H474 H 0.97359 0.51956 0.82441 0.0
H475 H 0.92303 0.49236 0.84267 0.0
C476 C 0.06194 0.54652 0.82954 0.0
C477 C 0.0731 0.53115 0.81236 0.0
C478 C 0.03282 0.53284 0.83884 0.0
C479 C 0.01456 0.50354 0.83142 0.0
C480 C 0.0257 0.48842 0.8138 0.0
C481 C 0.05456 0.50206 0.80431 0.0
C482 C 0.94491 0.44609 0.87031 0.0
C483 C 0.92623 0.45681 0.86416 0.0
C484 C 0.97353 0.46147 0.85987 0.0
C485 C 0.98428 0.48807 0.8432 0.0
C486 C 0.96581 0.49913 0.83737 0.0
C487 C 0.93691 0.4835 0.84757 0.0
H488 H 0.49998 0.073 1.00371 0.0
H489 H 0.56762 0.05888 0.9657 0.0
H490 H 0.47322 0.02275 0.02337 0.0
H491 H 0.54121 0.00931 0.9856 0.0
H492 H 0.50383 0.9375 0.06625 0.0
H493 H 0.52698 0.98729 0.04721 0.0
H494 H 0.44978 0.97002 0.99333 0.0
H495 H 0.42637 0.91957 0.01214 0.0
C496 C 0.50914 0.05926 0.99969 0.0
C497 C 0.53591 0.06987 0.98329 0.0
C498 C 0.49377 0.03056 0.01068 0.0
C499 C 0.50526 0.01232 1.00599 0.0
C500 C 0.532 0.02301 0.98969 0.0
C501 C 0.54706 0.05138 0.97826 0.0
C502 C 0.49167 0.94422 0.05041 0.0
C503 C 0.46331 0.92457 0.04053 0.0
C504 C 0.50498 0.97273 0.0395 0.0
C505 C 0.49014 0.98238 0.01882 0.0
C506 C 0.46156 0.96303 0.00945 0.0
C507 C 0.4483 0.93422 0.01998 0.0
H508 H 0.43456 0.51954 0.20047 0.0
H509 H 0.49243 0.54481 0.11359 0.0
H510 H 0.45228 0.48782 0.22019 0.0
H511 H 0.50983 0.51321 0.1331 0.0
H512 H 0.51778 0.4355 0.1616 0.0
H513 H 0.49253 0.46023 0.14176 0.0
H514 H 0.50045 0.49661 0.24291 0.0
H515 H 0.52566 0.47211 0.26269 0.0
C516 C 0.45091 0.51822 0.18554 0.0
C517 C 0.46225 0.53482 0.15566 0.0
C518 C 0.46104 0.50012 0.19681 0.0
C519 C 0.48232 0.49797 0.17805 0.0
C520 C 0.49316 0.51413 0.14782 0.0
C521 C 0.48337 0.53245 0.13686 0.0
C522 C 0.5138 0.44849 0.17966 0.0
C523 C 0.52391 0.45208 0.21359 0.0
C524 C 0.49946 0.4627 0.1683 0.0
C525 C 0.49463 0.4804 0.1908 0.0
C526 C 0.50365 0.48294 0.22509 0.0
C527 C 0.51828 0.46906 0.23631 0.0
H528 H 0.27907 0.58338 0.35514 0.0
H529 H 0.20448 0.55105 0.28955 0.0
H530 H 0.30615 0.57761 0.30856 0.0
H531 H 0.23166 0.54512 0.24281 0.0
H532 H 0.30479 0.58499 0.15959 0.0
H533 H 0.27184 0.5793 0.20603 0.0
H534 H 0.31136 0.5435 0.27075 0.0
H535 H 0.34455 0.54934 0.22416 0.0
C536 C 0.26827 0.57456 0.33094 0.0
C537 C 0.23962 0.56784 0.32606 0.0
C538 C 0.2838 0.5711 0.30424 0.0
C539 C 0.27118 0.56105 0.27181 0.0
C540 C 0.24214 0.55321 0.26734 0.0
C541 C 0.22649 0.55643 0.29421 0.0
C542 C 0.3062 0.57547 0.18352 0.0
C543 C 0.32746 0.56778 0.18817 0.0
C544 C 0.28716 0.57206 0.21014 0.0
C545 C 0.28901 0.56108 0.24225 0.0
C546 C 0.30954 0.55231 0.24647 0.0
C547 C 0.32845 0.55549 0.21968 0.0
H548 H 0.78496 0.36347 0.3992 0.0
H549 H 0.73942 0.29823 0.32271 0.0
H550 H 0.75633 0.33013 0.44418 0.0
H551 H 0.71249 0.26354 0.36762 0.0
H552 H 0.64286 0.21838 0.4488 0.0
H553 H 0.67565 0.24782 0.40377 0.0
H554 H 0.74182 0.2934 0.4802 0.0
H555 H 0.70759 0.26558 0.52516 0.0
C556 C 0.7694 0.34156 0.39218 0.0
C557 C 0.76434 0.33347 0.35749 0.0
C558 C 0.7529 0.32213 0.4181 0.0
C559 C 0.73143 0.29367 0.41017 0.0
C560 C 0.72785 0.28528 0.37527 0.0
C561 C 0.74364 0.30507 0.3493 0.0
C562 C 0.66457 0.23452 0.45577 0.0
C563 C 0.67265 0.23977 0.49044 0.0
C564 C 0.68368 0.25149 0.42983 0.0
C565 C 0.71183 0.27366 0.43772 0.0
C566 C 0.72027 0.27749 0.4726 0.0
C567 C 0.70076 0.2612 0.49858 0.0
H568 H 0.46275 0.71771 0.69483 0.0
H569 H 0.4388 0.648 0.62343 0.0
H570 H 0.46784 0.74963 0.64759 0.0
H571 H 0.44086 0.67853 0.57648 0.0
H572 H 0.45073 0.73733 0.49125 0.0
H573 H 0.46069 0.71292 0.53723 0.0
H574 H 0.44411 0.7628 0.61203 0.0
H575 H 0.43727 0.78895 0.56558 0.0
C576 C 0.4587 0.70931 0.66886 0.0
C577 C 0.45053 0.68046 0.66276 0.0
C578 C 0.46114 0.72748 0.64161 0.0
C579 C 0.45427 0.71696 0.60762 0.0
C580 C 0.44696 0.68811 0.60173 0.0
C581 C 0.44559 0.67031 0.62882 0.0
C582 C 0.4499 0.74338 0.51763 0.0
C583 C 0.44331 0.76502 0.52493 0.0
C584 C 0.45518 0.72907 0.54424 0.0
C585 C 0.45273 0.7351 0.57903 0.0
C586 C 0.44684 0.7575 0.586 0.0
C587 C 0.44267 0.77255 0.55929 0.0
H588 H 0.74388 0.454 0.85894 0.0
H589 H 0.78885 0.43035 0.78587 0.0
H590 H 0.71752 0.4606 0.81238 0.0
H591 H 0.76078 0.43389 0.73949 0.0
H592 H 0.71249 0.44625 0.65555 0.0
H593 H 0.74675 0.45491 0.70124 0.0
H594 H 0.68061 0.43806 0.77664 0.0
H595 H 0.64781 0.43254 0.73062 0.0
C596 C 0.74814 0.45032 0.83274 0.0
C597 C 0.76848 0.4418 0.82597 0.0
C598 C 0.73267 0.45363 0.80588 0.0
C599 C 0.73622 0.44729 0.77157 0.0
C600 C 0.75741 0.43961 0.76502 0.0
C601 C 0.77359 0.43737 0.79178 0.0
C602 C 0.7057 0.44514 0.68202 0.0
C603 C 0.67761 0.43884 0.68961 0.0
C604 C 0.7252 0.44965 0.70844 0.0
C605 C 0.71674 0.44669 0.7433 0.0
C606 C 0.68862 0.44116 0.75058 0.0
C607 C 0.66952 0.43776 0.72409 0.0
H608 H 0.34098 0.79664 0.96198 0.0
H609 H 0.30196 0.71712 0.01932 0.0
H610 H 0.30714 0.77243 0.91486 0.0
H611 H 0.26841 0.69303 0.97243 0.0
H612 H 0.27462 0.7047 0.82456 0.0
H613 H 0.30165 0.73563 0.87247 0.0
H614 H 0.22783 0.68934 0.93867 0.0
H615 H 0.20073 0.65816 0.89061 0.0
C616 C 0.3249 0.77415 0.96479 0.0
C617 C 0.32431 0.75878 0.99433 0.0
C618 C 0.30561 0.76024 0.93772 0.0
C619 C 0.28511 0.73074 0.93977 0.0
C620 C 0.28367 0.7158 0.97007 0.0
C621 C 0.30308 0.7296 0.99691 0.0
C622 C 0.26391 0.70146 0.84914 0.0
C623 C 0.23557 0.67877 0.85378 0.0
C624 C 0.27941 0.71932 0.87662 0.0
C625 C 0.26702 0.71483 0.90954 0.0
C626 C 0.23812 0.69315 0.91374 0.0
C627 C 0.22252 0.67541 0.88613 0.0
H628 H 0.54135 0.33792 0.12644 0.0
H629 H 0.5857 0.30258 0.18296 0.0
H630 H 0.53378 0.30496 0.0788 0.0
H631 H 0.57805 0.26974 0.13565 0.0
H632 H 0.54447 0.20064 0.05421 0.0
H633 H 0.54053 0.2278 0.1024 0.0
H634 H 0.56709 0.30133 0.03616 0.0
H635 H 0.57109 0.27431 0.98809 0.0
C636 C 0.54908 0.32284 0.12894 0.0
C637 C 0.56425 0.32299 0.15844 0.0
C638 C 0.54487 0.30407 0.10159 0.0
C639 C 0.55535 0.28473 0.10339 0.0
C640 C 0.56943 0.28411 0.13353 0.0
C641 C 0.57397 0.30309 0.16059 0.0
C642 C 0.5489 0.2224 0.04975 0.0
C643 C 0.55826 0.23534 0.01732 0.0
C644 C 0.54683 0.23802 0.07744 0.0
C645 C 0.5537 0.26681 0.0732 0.0
C646 C 0.56144 0.27916 0.04028 0.0
C647 C 0.56385 0.26368 0.01273 0.0
loop_
_geom_bond_atom_site_label_1
_geom_bond_atom_site_label_2
_geom_bond_distance
_geom_bond_site_symmetry_2
_ccdc_geom_bond_type
O0 Cd1 2.223 . S
O0 C8 1.315 . S
Cd1 O0 2.223 . S
Cd1 O4 2.297 . S
Cd1 O5 2.439 . S
Cd1 O11 2.240 . S
Cd2 O3 2.240 . S
Cd2 O10 2.223 . S
Cd2 O12 2.297 . S
Cd2 O13 2.439 . S
O3 Cd2 2.240 . S
O3 C8 1.279 . S
O4 Cd1 2.297 . S
O4 C6 1.247 . S
O5 Cd1 2.439 . S
O5 C6 1.208 . S
C6 O4 1.247 . S
C6 O5 1.208 . S
C7 O12 1.247 . S
C7 O13 1.208 . S
C8 O0 1.315 . S
C8 O3 1.279 . S
C9 O10 1.315 . S
C9 O11 1.279 . S
O10 Cd2 2.223 . S
O10 C9 1.315 . S
O11 Cd1 2.240 . S
O11 C9 1.279 . S
O12 Cd2 2.297 . S
O12 C7 1.247 . S
O13 Cd2 2.439 . S
O13 C7 1.208 . S
O14 Cd15 2.223 . S
O14 C22 1.315 . S
Cd15 O14 2.223 . S
Cd15 O18 2.297 . S
Cd15 O19 2.439 . S
Cd15 O25 2.240 . S
Cd16 O17 2.240 . S
Cd16 O24 2.223 . S
Cd16 O26 2.297 . S
Cd16 O27 2.439 . S
O17 Cd16 2.240 . S
O17 C22 1.279 . S
O18 Cd15 2.297 . S
O18 C20 1.247 . S
O19 Cd15 2.439 . S
O19 C20 1.208 . S
C20 O18 1.247 . S
C20 O19 1.208 . S
C21 O26 1.247 . S
C21 O27 1.208 . S
C22 O14 1.315 . S
C22 O17 1.279 . S
C23 O24 1.315 . S
C23 O25 1.279 . S
O24 Cd16 2.223 . S
O24 C23 1.315 . S
O25 Cd15 2.240 . S
O25 C23 1.279 . S
O26 Cd16 2.297 . S
O26 C21 1.247 . S
O27 Cd16 2.439 . S
O27 C21 1.208 . S
O28 Cd29 2.223 . S
O28 C36 1.315 . S
Cd29 O28 2.223 . S
Cd29 O32 2.297 . S
Cd29 O33 2.439 . S
Cd29 O39 2.240 . S
Cd30 O31 2.240 . S
Cd30 O38 2.223 . S
Cd30 O40 2.297 . S
Cd30 O41 2.439 . S
O31 Cd30 2.240 . S
O31 C36 1.279 . S
O32 Cd29 2.297 . S
O32 C34 1.247 . S
O33 Cd29 2.439 . S
O33 C34 1.208 . S
C34 O32 1.247 . S
C34 O33 1.208 . S
C35 O40 1.247 . S
C35 O41 1.208 . S
C36 O28 1.315 . S
C36 O31 1.279 . S
C37 O38 1.315 . S
C37 O39 1.279 . S
O38 Cd30 2.223 . S
O38 C37 1.315 . S
O39 Cd29 2.240 . S
O39 C37 1.279 . S
O40 Cd30 2.297 . S
O40 C35 1.247 . S
O41 Cd30 2.439 . S
O41 C35 1.208 . S
O42 Cd43 2.223 . S
O42 C50 1.315 . S
Cd43 O42 2.223 . S
Cd43 O46 2.297 . S
Cd43 O47 2.439 . S
Cd43 O53 2.240 . S
Cd44 O45 2.240 . S
Cd44 O52 2.223 . S
Cd44 O54 2.297 . S
Cd44 O55 2.439 . S
O45 Cd44 2.240 . S
O45 C50 1.279 . S
O46 Cd43 2.297 . S
O46 C48 1.247 . S
O47 Cd43 2.439 . S
O47 C48 1.208 . S
C48 O46 1.247 . S
C48 O47 1.208 . S
C49 O54 1.247 . S
C49 O55 1.208 . S
C50 O42 1.315 . S
C50 O45 1.279 . S
C51 O52 1.315 . S
C51 O53 1.279 . S
O52 Cd44 2.223 . S
O52 C51 1.315 . S
O53 Cd43 2.240 . S
O53 C51 1.279 . S
O54 Cd44 2.297 . S
O54 C49 1.247 . S
O55 Cd44 2.439 . S
O55 C49 1.208 . S
O56 Cd57 2.223 . S
O56 C64 1.315 . S
Cd57 O56 2.223 . S
Cd57 O60 2.297 . S
Cd57 O61 2.439 . S
Cd57 O67 2.240 . S
Cd58 O59 2.240 . S
Cd58 O66 2.223 . S
Cd58 O68 2.297 . S
Cd58 O69 2.439 . S
O59 Cd58 2.240 . S
O59 C64 1.279 . S
O60 Cd57 2.297 . S
O60 C62 1.247 . S
O61 Cd57 2.439 . S
O61 C62 1.208 . S
C62 O60 1.247 . S
C62 O61 1.208 . S
C63 O68 1.247 . S
C63 O69 1.208 . S
C64 O56 1.315 . S
C64 O59 1.279 . S
C65 O66 1.315 . S
C65 O67 1.279 . S
O66 Cd58 2.223 . S
O66 C65 1.315 . S
O67 Cd57 2.240 . S
O67 C65 1.279 . S
O68 Cd58 2.297 . S
O68 C63 1.247 . S
O69 Cd58 2.439 . S
O69 C63 1.208 . S
O70 Cd71 2.223 . S
O70 C78 1.315 . S
Cd71 O70 2.223 . S
Cd71 O74 2.297 . S
Cd71 O75 2.439 . S
Cd71 O81 2.240 . S
Cd72 O73 2.240 . S
Cd72 O80 2.223 . S
Cd72 O82 2.297 . S
Cd72 O83 2.439 . S
O73 Cd72 2.240 . S
O73 C78 1.279 . S
O74 Cd71 2.297 . S
O74 C76 1.247 . S
O75 Cd71 2.439 . S
O75 C76 1.208 . S
C76 O74 1.247 . S
C76 O75 1.208 . S
C77 O82 1.247 . S
C77 O83 1.208 . S
C78 O70 1.315 . S
C78 O73 1.279 . S
C79 O80 1.315 . S
C79 O81 1.279 . S
O80 Cd72 2.223 . S
O80 C79 1.315 . S
O81 Cd71 2.240 . S
O81 C79 1.279 . S
O82 Cd72 2.297 . S
O82 C77 1.247 . S
O83 Cd72 2.439 . S
O83 C77 1.208 . S
O84 Cd85 2.223 . S
O84 C92 1.315 . S
Cd85 O84 2.223 . S
Cd85 O88 2.297 . S
Cd85 O89 2.439 . S
Cd85 O95 2.240 . S
Cd86 O87 2.240 . S
Cd86 O94 2.223 . S
Cd86 O96 2.297 . S
Cd86 O97 2.439 . S
O87 Cd86 2.240 . S
O87 C92 1.279 . S
O88 Cd85 2.297 . S
O88 C90 1.247 . S
O89 Cd85 2.439 . S
O89 C90 1.208 . S
C90 O88 1.247 . S
C90 O89 1.208 . S
C91 O96 1.247 . S
C91 O97 1.208 . S
C92 O84 1.315 . S
C92 O87 1.279 . S
C93 O94 1.315 . S
C93 O95 1.279 . S
O94 Cd86 2.223 . S
O94 C93 1.315 . S
O95 Cd85 2.240 . S
O95 C93 1.279 . S
O96 Cd86 2.297 . S
O96 C91 1.247 . S
O97 Cd86 2.439 . S
O97 C91 1.208 . S
O98 Cd99 2.223 . S
O98 C106 1.315 . S
Cd99 O98 2.223 . S
Cd99 O102 2.297 . S
Cd99 O103 2.439 . S
Cd99 O109 2.240 . S
Cd100 O101 2.240 . S
Cd100 O108 2.223 . S
Cd100 O110 2.297 . S
Cd100 O111 2.439 . S
O101 Cd100 2.240 . S
O101 C106 1.279 . S
O102 Cd99 2.297 . S
O102 C104 1.247 . S
O103 Cd99 2.439 . S
O103 C104 1.208 . S
C104 O102 1.247 . S
C104 O103 1.208 . S
C105 O110 1.247 . S
C105 O111 1.208 . S
C106 O98 1.315 . S
C106 O101 1.279 . S
C107 O108 1.315 . S
C107 O109 1.279 . S
O108 Cd100 2.223 . S
O108 C107 1.315 . S
O109 Cd99 2.240 . S
O109 C107 1.279 . S
O110 Cd100 2.297 . S
O110 C105 1.247 . S
O111 Cd100 2.439 . S
O111 C105 1.208 . S
O112 Cd113 2.223 . S
O112 C120 1.315 . S
Cd113 O112 2.223 . S
Cd113 O116 2.297 . S
Cd113 O117 2.439 . S
Cd113 O123 2.240 . S
Cd114 O115 2.240 . S
Cd114 O122 2.223 . S
Cd114 O124 2.297 . S
Cd114 O125 2.439 . S
O115 Cd114 2.240 . S
O115 C120 1.279 . S
O116 Cd113 2.297 . S
O116 C118 1.247 . S
O117 Cd113 2.439 . S
O117 C118 1.208 . S
C118 O116 1.247 . S
C118 O117 1.208 . S
C119 O124 1.247 . S
C119 O125 1.208 . S
C120 O112 1.315 . S
C120 O115 1.279 . S
C121 O122 1.315 . S
C121 O123 1.279 . S
O122 Cd114 2.223 . S
O122 C121 1.315 . S
O123 Cd113 2.240 . S
O123 C121 1.279 . S
O124 Cd114 2.297 . S
O124 C119 1.247 . S
O125 Cd114 2.439 . S
O125 C119 1.208 . S
O126 Cd127 2.223 . S
O126 C134 1.315 . S
Cd127 O126 2.223 . S
Cd127 O130 2.297 . S
Cd127 O131 2.439 . S
Cd127 O137 2.240 . S
Cd128 O129 2.240 . S
Cd128 O136 2.223 . S
Cd128 O138 2.297 . S
Cd128 O139 2.439 . S
O129 Cd128 2.240 . S
O129 C134 1.279 . S
O130 Cd127 2.297 . S
O130 C132 1.247 . S
O131 Cd127 2.439 . S
O131 C132 1.208 . S
C132 O130 1.247 . S
C132 O131 1.208 . S
C133 O138 1.247 . S
C133 O139 1.208 . S
C134 O126 1.315 . S
C134 O129 1.279 . S
C135 O136 1.315 . S
C135 O137 1.279 . S
O136 Cd128 2.223 . S
O136 C135 1.315 . S
O137 Cd127 2.240 . S
O137 C135 1.279 . S
O138 Cd128 2.297 . S
O138 C133 1.247 . S
O139 Cd128 2.439 . S
O139 C133 1.208 . S
O140 Cd141 2.223 . S
O140 C148 1.315 . S
Cd141 O140 2.223 . S
Cd141 O144 2.297 . S
Cd141 O145 2.439 . S
Cd141 O151 2.240 . S
Cd142 O143 2.240 . S
Cd142 O150 2.223 . S
Cd142 O152 2.297 . S
Cd142 O153 2.439 . S
O143 Cd142 2.240 . S
O143 C148 1.279 . S
O144 Cd141 2.297 . S
O144 C146 1.247 . S
O145 Cd141 2.439 . S
O145 C146 1.208 . S
C146 O144 1.247 . S
C146 O145 1.208 . S
C147 O152 1.247 . S
C147 O153 1.208 . S
C148 O140 1.315 . S
C148 O143 1.279 . S
C149 O150 1.315 . S
C149 O151 1.279 . S
O150 Cd142 2.223 . S
O150 C149 1.315 . S
O151 Cd141 2.240 . S
O151 C149 1.279 . S
O152 Cd142 2.297 . S
O152 C147 1.247 . S
O153 Cd142 2.439 . S
O153 C147 1.208 . S
O154 Cd155 2.223 . S
O154 C162 1.315 . S
Cd155 O154 2.223 . S
Cd155 O158 2.297 . S
Cd155 O159 2.439 . S
Cd155 O165 2.240 . S
Cd156 O157 2.240 . S
Cd156 O164 2.223 . S
Cd156 O166 2.297 . S
Cd156 O167 2.439 . S
O157 Cd156 2.240 . S
O157 C162 1.279 . S
O158 Cd155 2.297 . S
O158 C160 1.247 . S
O159 Cd155 2.439 . S
O159 C160 1.208 . S
C160 O158 1.247 . S
C160 O159 1.208 . S
C161 O166 1.247 . S
C161 O167 1.208 . S
C162 O154 1.315 . S
C162 O157 1.279 . S
C163 O164 1.315 . S
C163 O165 1.279 . S
O164 Cd156 2.223 . S
O164 C163 1.315 . S
O165 Cd155 2.240 . S
O165 C163 1.279 . S
O166 Cd156 2.297 . S
O166 C161 1.247 . S
O167 Cd156 2.439 . S
O167 C161 1.208 . S
H168 C176 0.950 . S
H169 C181 0.950 . S
H170 C178 0.950 . S
H171 C180 0.950 . S
H172 C182 0.950 . S
H173 C184 0.950 . S
H174 C186 0.950 . S
H175 C187 0.950 . S
C176 H168 0.950 . S
C176 C177 1.386 . S
C176 C178 1.391 . S
C177 C176 1.386 . S
C177 C181 1.393 . S
C178 H170 0.950 . S
C178 C176 1.391 . S
C178 C179 1.400 . S
C179 C178 1.400 . S
C179 C180 1.398 . S
C179 C185 1.491 . S
C180 H171 0.950 . S
C180 C179 1.398 . S
C180 C181 1.391 . S
C181 H169 0.950 . S
C181 C177 1.393 . S
C181 C180 1.391 . S
C182 H172 0.950 . S
C182 C183 1.386 . S
C182 C184 1.391 . S
C183 C182 1.386 . S
C183 C187 1.393 . S
C184 H173 0.950 . S
C184 C182 1.391 . S
C184 C185 1.400 . S
C185 C179 1.491 . S
C185 C184 1.400 . S
C185 C186 1.398 . S
C186 H174 0.950 . S
C186 C185 1.398 . S
C186 C187 1.391 . S
C187 H175 0.950 . S
C187 C183 1.393 . S
C187 C186 1.391 . S
H188 C196 0.950 . S
H189 C201 0.950 . S
H190 C198 0.950 . S
H191 C200 0.950 . S
H192 C202 0.950 . S
H193 C204 0.950 . S
H194 C206 0.950 . S
H195 C207 0.950 . S
C196 H188 0.950 . S
C196 C197 1.386 . S
C196 C198 1.391 . S
C197 C196 1.386 . S
C197 C201 1.393 . S
C198 H190 0.950 . S
C198 C196 1.391 . S
C198 C199 1.400 . S
C199 C198 1.400 . S
C199 C200 1.398 . S
C199 C205 1.491 . S
C200 H191 0.950 . S
C200 C199 1.398 . S
C200 C201 1.391 . S
C201 H189 0.950 . S
C201 C197 1.393 . S
C201 C200 1.391 . S
C202 H192 0.950 . S
C202 C203 1.386 . S
C202 C204 1.391 . S
C203 C202 1.386 . S
C203 C207 1.393 . S
C204 H193 0.950 . S
C204 C202 1.391 . S
C204 C205 1.400 . S
C205 C199 1.491 . S
C205 C204 1.400 . S
C205 C206 1.398 . S
C206 H194 0.950 . S
C206 C205 1.398 . S
C206 C207 1.391 . S
C207 H195 0.950 . S
C207 C203 1.393 . S
C207 C206 1.391 . S
H208 C216 0.950 . S
H209 C221 0.950 . S
H210 C218 0.950 . S
H211 C220 0.950 . S
H212 C222 0.950 . S
H213 C224 0.950 . S
H214 C226 0.950 . S
H215 C227 0.950 . S
C216 H208 0.950 . S
C216 C217 1.386 . S
C216 C218 1.391 . S
C217 C216 1.386 . S
C217 C221 1.393 . S
C218 H210 0.950 . S
C218 C216 1.391 . S
C218 C219 1.400 . S
C219 C218 1.400 . S
C219 C220 1.398 . S
C219 C225 1.491 . S
C220 H211 0.950 . S
C220 C219 1.398 . S
C220 C221 1.391 . S
C221 H209 0.950 . S
C221 C217 1.393 . S
C221 C220 1.391 . S
C222 H212 0.950 . S
C222 C223 1.386 . S
C222 C224 1.391 . S
C223 C222 1.386 . S
C223 C227 1.393 . S
C224 H213 0.950 . S
C224 C222 1.391 . S
C224 C225 1.400 . S
C225 C219 1.491 . S
C225 C224 1.400 . S
C225 C226 1.398 . S
C226 H214 0.950 . S
C226 C225 1.398 . S
C226 C227 1.391 . S
C227 H215 0.950 . S
C227 C223 1.393 . S
C227 C226 1.391 . S
H228 C236 0.950 . S
H229 C241 0.950 . S
H230 C238 0.950 . S
H231 C240 0.950 . S
H232 C242 0.950 . S
H233 C244 0.950 . S
H234 C246 0.950 . S
H235 C247 0.950 . S
C236 H228 0.950 . S
C236 C237 1.386 . S
C236 C238 1.391 . S
C237 C236 1.386 . S
C237 C241 1.393 . S
C238 H230 0.950 . S
C238 C236 1.391 . S
C238 C239 1.400 . S
C239 C238 1.400 . S
C239 C240 1.398 . S
C239 C245 1.491 . S
C240 H231 0.950 . S
C240 C239 1.398 . S
C240 C241 1.391 . S
C241 H229 0.950 . S
C241 C237 1.393 . S
C241 C240 1.391 . S
C242 H232 0.950 . S
C242 C243 1.386 . S
C242 C244 1.391 . S
C243 C242 1.386 . S
C243 C247 1.393 . S
C244 H233 0.950 . S
C244 C242 1.391 . S
C244 C245 1.400 . S
C245 C239 1.491 . S
C245 C244 1.400 . S
C245 C246 1.398 . S
C246 H234 0.950 . S
C246 C245 1.398 . S
C246 C247 1.391 . S
C247 H235 0.950 . S
C247 C243 1.393 . S
C247 C246 1.391 . S
H248 C256 0.950 . S
H249 C261 0.950 . S
H250 C258 0.950 . S
H251 C260 0.950 . S
H252 C262 0.950 . S
H253 C264 0.950 . S
H254 C266 0.950 . S
H255 C267 0.950 . S
C256 H248 0.950 . S
C256 C257 1.386 . S
C256 C258 1.391 . S
C257 C256 1.386 . S
C257 C261 1.393 . S
C258 H250 0.950 . S
C258 C256 1.391 . S
C258 C259 1.400 . S
C259 C258 1.400 . S
C259 C260 1.398 . S
C259 C265 1.491 . S
C260 H251 0.950 . S
C260 C259 1.398 . S
C260 C261 1.391 . S
C261 H249 0.950 . S
C261 C257 1.393 . S
C261 C260 1.391 . S
C262 H252 0.950 . S
C262 C263 1.386 . S
C262 C264 1.391 . S
C263 C262 1.386 . S
C263 C267 1.393 . S
C264 H253 0.950 . S
C264 C262 1.391 . S
C264 C265 1.400 . S
C265 C259 1.491 . S
C265 C264 1.400 . S
C265 C266 1.398 . S
C266 H254 0.950 . S
C266 C265 1.398 . S
C266 C267 1.391 . S
C267 H255 0.950 . S
C267 C263 1.393 . S
C267 C266 1.391 . S
H268 C276 0.950 . S
H269 C281 0.950 . S
H270 C278 0.950 . S
H271 C280 0.950 . S
H272 C282 0.950 . S
H273 C284 0.950 . S
H274 C286 0.950 . S
H275 C287 0.950 . S
C276 H268 0.950 . S
C276 C277 1.386 . S
C276 C278 1.391 . S
C277 C276 1.386 . S
C277 C281 1.393 . S
C278 H270 0.950 . S
C278 C276 1.391 . S
C278 C279 1.400 . S
C279 C278 1.400 . S
C279 C280 1.398 . S
C279 C285 1.491 . S
C280 H271 0.950 . S
C280 C279 1.398 . S
C280 C281 1.391 . S
C281 H269 0.950 . S
C281 C277 1.393 . S
C281 C280 1.391 . S
C282 H272 0.950 . S
C282 C283 1.386 . S
C282 C284 1.391 . S
C283 C282 1.386 . S
C283 C287 1.393 . S
C284 H273 0.950 . S
C284 C282 1.391 . S
C284 C285 1.400 . S
C285 C279 1.491 . S
C285 C284 1.400 . S
C285 C286 1.398 . S
C286 H274 0.950 . S
C286 C285 1.398 . S
C286 C287 1.391 . S
C287 H275 0.950 . S
C287 C283 1.393 . S
C287 C286 1.391 . S
H288 C296 0.950 . S
H289 C301 0.950 . S
H290 C298 0.950 . S
H291 C300 0.950 . S
H292 C302 0.950 . S
H293 C304 0.950 . S
H294 C306 0.950 . S
H295 C307 0.950 . S
C296 H288 0.950 . S
C296 C297 1.386 . S
C296 C298 1.391 . S
C297 C296 1.386 . S
C297 C301 1.393 . S
C298 H290 0.950 . S
C298 C296 1.391 . S
C298 C299 1.400 . S
C299 C298 1.400 . S
C299 C300 1.398 . S
C299 C305 1.491 . S
C300 H291 0.950 . S
C300 C299 1.398 . S
C300 C301 1.391 . S
C301 H289 0.950 . S
C301 C297 1.393 . S
C301 C300 1.391 . S
C302 H292 0.950 . S
C302 C303 1.386 . S
C302 C304 1.391 . S
C303 C302 1.386 . S
C303 C307 1.393 . S
C304 H293 0.950 . S
C304 C302 1.391 . S
C304 C305 1.400 . S
C305 C299 1.491 . S
C305 C304 1.400 . S
C305 C306 1.398 . S
C306 H294 0.950 . S
C306 C305 1.398 . S
C306 C307 1.391 . S
C307 H295 0.950 . S
C307 C303 1.393 . S
C307 C306 1.391 . S
H308 C316 0.950 . S
H309 C321 0.950 . S
H310 C318 0.950 . S
H311 C320 0.950 . S
H312 C322 0.950 . S
H313 C324 0.950 . S
H314 C326 0.950 . S
H315 C327 0.950 . S
C316 H308 0.950 . S
C316 C317 1.386 . S
C316 C318 1.391 . S
C317 C316 1.386 . S
C317 C321 1.393 . S
C318 H310 0.950 . S
C318 C316 1.391 . S
C318 C319 1.400 . S
C319 C318 1.400 . S
C319 C320 1.398 . S
C319 C325 1.491 . S
C320 H311 0.950 . S
C320 C319 1.398 . S
C320 C321 1.391 . S
C321 H309 0.950 . S
C321 C317 1.393 . S
C321 C320 1.391 . S
C322 H312 0.950 . S
C322 C323 1.386 . S
C322 C324 1.391 . S
C323 C322 1.386 . S
C323 C327 1.393 . S
C324 H313 0.950 . S
C324 C322 1.391 . S
C324 C325 1.400 . S
C325 C319 1.491 . S
C325 C324 1.400 . S
C325 C326 1.398 . S
C326 H314 0.950 . S
C326 C325 1.398 . S
C326 C327 1.391 . S
C327 H315 0.950 . S
C327 C323 1.393 . S
C327 C326 1.391 . S
H328 C336 0.950 1_554 S
H329 C341 0.950 . S
H330 C338 0.950 . S
H331 C340 0.950 . S
H332 C342 0.950 . S
H333 C344 0.950 . S
H334 C346 0.950 . S
H335 C347 0.950 . S
C336 H328 0.950 1_556 S
C336 C337 1.386 1_556 S
C336 C338 1.391 . S
C337 C336 1.386 1_554 S
C337 C341 1.393 1_554 S
C338 H330 0.950 . S
C338 C336 1.391 . S
C338 C339 1.400 . S
C339 C338 1.400 . S
C339 C340 1.398 . S
C339 C345 1.491 . S
C340 H331 0.950 . S
C340 C339 1.398 . S
C340 C341 1.391 . S
C341 H329 0.950 . S
C341 C337 1.393 1_556 S
C341 C340 1.391 . S
C342 H332 0.950 . S
C342 C343 1.386 . S
C342 C344 1.391 . S
C343 C342 1.386 . S
C343 C347 1.393 . S
C344 H333 0.950 . S
C344 C342 1.391 . S
C344 C345 1.400 . S
C345 C339 1.491 . S
C345 C344 1.400 . S
C345 C346 1.398 . S
C346 H334 0.950 . S
C346 C345 1.398 . S
C346 C347 1.391 . S
C347 H335 0.950 . S
C347 C343 1.393 . S
C347 C346 1.391 . S
H348 C356 0.950 . S
H349 C361 0.950 . S
H350 C358 0.950 . S
H351 C360 0.950 . S
H352 C362 0.950 . S
H353 C364 0.950 . S
H354 C366 0.950 . S
H355 C367 0.950 1_556 S
C356 H348 0.950 . S
C356 C357 1.386 . S
C356 C358 1.391 . S
C357 C356 1.386 . S
C357 C361 1.393 . S
C358 H350 0.950 . S
C358 C356 1.391 . S
C358 C359 1.400 . S
C359 C358 1.400 . S
C359 C360 1.398 . S
C359 C365 1.491 . S
C360 H351 0.950 . S
C360 C359 1.398 . S
C360 C361 1.391 . S
C361 H349 0.950 . S
C361 C357 1.393 . S
C361 C360 1.391 . S
C362 H352 0.950 . S
C362 C363 1.386 1_554 S
C362 C364 1.391 . S
C363 C362 1.386 1_556 S
C363 C367 1.393 1_556 S
C364 H353 0.950 . S
C364 C362 1.391 . S
C364 C365 1.400 . S
C365 C359 1.491 . S
C365 C364 1.400 . S
C365 C366 1.398 . S
C366 H354 0.950 . S
C366 C365 1.398 . S
C366 C367 1.391 . S
C367 H355 0.950 1_554 S
C367 C363 1.393 1_554 S
C367 C366 1.391 . S
H368 C376 0.950 . S
H369 C381 0.950 . S
H370 C378 0.950 . S
H371 C380 0.950 . S
H372 C382 0.950 . S
H373 C384 0.950 . S
H374 C386 0.950 . S
H375 C387 0.950 . S
C376 H368 0.950 . S
C376 C377 1.386 . S
C376 C378 1.391 . S
C377 C376 1.386 . S
C377 C381 1.393 . S
C378 H370 0.950 . S
C378 C376 1.391 . S
C378 C379 1.400 . S
C379 C378 1.400 . S
C379 C380 1.398 . S
C379 C385 1.491 . S
C380 H371 0.950 . S
C380 C379 1.398 . S
C380 C381 1.391 . S
C381 H369 0.950 . S
C381 C377 1.393 . S
C381 C380 1.391 . S
C382 H372 0.950 . S
C382 C383 1.386 . S
C382 C384 1.391 . S
C383 C382 1.386 . S
C383 C387 1.393 . S
C384 H373 0.950 . S
C384 C382 1.391 . S
C384 C385 1.400 . S
C385 C379 1.491 . S
C385 C384 1.400 . S
C385 C386 1.398 . S
C386 H374 0.950 . S
C386 C385 1.398 . S
C386 C387 1.391 . S
C387 H375 0.950 . S
C387 C383 1.393 . S
C387 C386 1.391 . S
H388 C396 0.950 . S
H389 C401 0.950 . S
H390 C398 0.950 . S
H391 C400 0.950 . S
H392 C402 0.950 . S
H393 C404 0.950 . S
H394 C406 0.950 . S
H395 C407 0.950 . S
C396 H388 0.950 . S
C396 C397 1.386 . S
C396 C398 1.391 . S
C397 C396 1.386 . S
C397 C401 1.393 . S
C398 H390 0.950 . S
C398 C396 1.391 . S
C398 C399 1.400 . S
C399 C398 1.400 . S
C399 C400 1.398 . S
C399 C405 1.491 . S
C400 H391 0.950 . S
C400 C399 1.398 . S
C400 C401 1.391 . S
C401 H389 0.950 . S
C401 C397 1.393 . S
C401 C400 1.391 . S
C402 H392 0.950 . S
C402 C403 1.386 . S
C402 C404 1.391 . S
C403 C402 1.386 . S
C403 C407 1.393 . S
C404 H393 0.950 . S
C404 C402 1.391 . S
C404 C405 1.400 . S
C405 C399 1.491 . S
C405 C404 1.400 . S
C405 C406 1.398 . S
C406 H394 0.950 . S
C406 C405 1.398 . S
C406 C407 1.391 . S
C407 H395 0.950 . S
C407 C403 1.393 . S
C407 C406 1.391 . S
H408 C416 0.950 . S
H409 C421 0.950 . S
H410 C418 0.950 . S
H411 C420 0.950 . S
H412 C422 0.950 . S
H413 C424 0.950 . S
H414 C426 0.950 . S
H415 C427 0.950 . S
C416 H408 0.950 . S
C416 C417 1.386 . S
C416 C418 1.391 . S
C417 C416 1.386 . S
C417 C421 1.393 . S
C418 H410 0.950 . S
C418 C416 1.391 . S
C418 C419 1.400 . S
C419 C418 1.400 . S
C419 C420 1.398 . S
C419 C425 1.491 1_655 S
C420 H411 0.950 . S
C420 C419 1.398 . S
C420 C421 1.391 . S
C421 H409 0.950 . S
C421 C417 1.393 . S
C421 C420 1.391 . S
C422 H412 0.950 . S
C422 C423 1.386 . S
C422 C424 1.391 . S
C423 C422 1.386 . S
C423 C427 1.393 . S
C424 H413 0.950 . S
C424 C422 1.391 . S
C424 C425 1.400 . S
C425 C419 1.491 1_455 S
C425 C424 1.400 . S
C425 C426 1.398 . S
C426 H414 0.950 . S
C426 C425 1.398 . S
C426 C427 1.391 . S
C427 H415 0.950 . S
C427 C423 1.393 . S
C427 C426 1.391 . S
H428 C436 0.950 . S
H429 C441 0.950 . S
H430 C438 0.950 . S
H431 C440 0.950 . S
H432 C442 0.950 . S
H433 C444 0.950 . S
H434 C446 0.950 . S
H435 C447 0.950 . S
C436 H428 0.950 . S
C436 C437 1.386 . S
C436 C438 1.391 . S
C437 C436 1.386 . S
C437 C441 1.393 . S
C438 H430 0.950 . S
C438 C436 1.391 . S
C438 C439 1.400 . S
C439 C438 1.400 . S
C439 C440 1.398 . S
C439 C445 1.491 1_565 S
C440 H431 0.950 . S
C440 C439 1.398 . S
C440 C441 1.391 . S
C441 H429 0.950 . S
C441 C437 1.393 . S
C441 C440 1.391 . S
C442 H432 0.950 . S
C442 C443 1.386 . S
C442 C444 1.391 . S
C443 C442 1.386 . S
C443 C447 1.393 . S
C444 H433 0.950 . S
C444 C442 1.391 . S
C444 C445 1.400 . S
C445 C439 1.491 1_545 S
C445 C444 1.400 . S
C445 C446 1.398 . S
C446 H434 0.950 . S
C446 C445 1.398 . S
C446 C447 1.391 . S
C447 H435 0.950 . S
C447 C443 1.393 . S
C447 C446 1.391 . S
H448 C456 0.950 . S
H449 C461 0.950 . S
H450 C458 0.950 . S
H451 C460 0.950 . S
H452 C462 0.950 . S
H453 C464 0.950 . S
H454 C466 0.950 . S
H455 C467 0.950 . S
C456 H448 0.950 . S
C456 C457 1.386 . S
C456 C458 1.391 . S
C457 C456 1.386 . S
C457 C461 1.393 . S
C458 H450 0.950 . S
C458 C456 1.391 . S
C458 C459 1.400 . S
C459 C458 1.400 . S
C459 C460 1.398 . S
C459 C465 1.491 . S
C460 H451 0.950 . S
C460 C459 1.398 . S
C460 C461 1.391 . S
C461 H449 0.950 . S
C461 C457 1.393 . S
C461 C460 1.391 . S
C462 H452 0.950 . S
C462 C463 1.386 . S
C462 C464 1.391 . S
C463 C462 1.386 . S
C463 C467 1.393 . S
C464 H453 0.950 . S
C464 C462 1.391 . S
C464 C465 1.400 . S
C465 C459 1.491 . S
C465 C464 1.400 . S
C465 C466 1.398 . S
C466 H454 0.950 . S
C466 C465 1.398 . S
C466 C467 1.391 . S
C467 H455 0.950 . S
C467 C463 1.393 . S
C467 C466 1.391 . S
H468 C476 0.950 . S
H469 C481 0.950 . S
H470 C478 0.950 . S
H471 C480 0.950 . S
H472 C482 0.950 . S
H473 C484 0.950 . S
H474 C486 0.950 . S
H475 C487 0.950 . S
C476 H468 0.950 . S
C476 C477 1.386 . S
C476 C478 1.391 . S
C477 C476 1.386 . S
C477 C481 1.393 . S
C478 H470 0.950 . S
C478 C476 1.391 . S
C478 C479 1.400 . S
C479 C478 1.400 . S
C479 C480 1.398 . S
C479 C485 1.491 1_455 S
C480 H471 0.950 . S
C480 C479 1.398 . S
C480 C481 1.391 . S
C481 H469 0.950 . S
C481 C477 1.393 . S
C481 C480 1.391 . S
C482 H472 0.950 . S
C482 C483 1.386 . S
C482 C484 1.391 . S
C483 C482 1.386 . S
C483 C487 1.393 . S
C484 H473 0.950 . S
C484 C482 1.391 . S
C484 C485 1.400 . S
C485 C479 1.491 1_655 S
C485 C484 1.400 . S
C485 C486 1.398 . S
C486 H474 0.950 . S
C486 C485 1.398 . S
C486 C487 1.391 . S
C487 H475 0.950 . S
C487 C483 1.393 . S
C487 C486 1.391 . S
H488 C496 0.950 . S
H489 C501 0.950 . S
H490 C498 0.950 . S
H491 C500 0.950 1_554 S
H492 C502 0.950 . S
H493 C504 0.950 . S
H494 C506 0.950 1_556 S
H495 C507 0.950 . S
C496 H488 0.950 . S
C496 C497 1.386 . S
C496 C498 1.391 . S
C497 C496 1.386 . S
C497 C501 1.393 . S
C498 H490 0.950 . S
C498 C496 1.391 . S
C498 C499 1.400 . S
C499 C498 1.400 . S
C499 C500 1.398 . S
C499 C505 1.491 1_546 S
C500 H491 0.950 1_556 S
C500 C499 1.398 . S
C500 C501 1.391 . S
C501 H489 0.950 . S
C501 C497 1.393 . S
C501 C500 1.391 . S
C502 H492 0.950 . S
C502 C503 1.386 . S
C502 C504 1.391 . S
C503 C502 1.386 . S
C503 C507 1.393 . S
C504 H493 0.950 . S
C504 C502 1.391 . S
C504 C505 1.400 . S
C505 C499 1.491 1_564 S
C505 C504 1.400 . S
C505 C506 1.398 . S
C506 H494 0.950 1_554 S
C506 C505 1.398 . S
C506 C507 1.391 . S
C507 H495 0.950 . S
C507 C503 1.393 . S
C507 C506 1.391 . S
H508 C516 0.950 . S
H509 C521 0.950 . S
H510 C518 0.950 . S
H511 C520 0.950 . S
H512 C522 0.950 . S
H513 C524 0.950 . S
H514 C526 0.950 . S
H515 C527 0.950 . S
C516 H508 0.950 . S
C516 C517 1.386 . S
C516 C518 1.391 . S
C517 C516 1.386 . S
C517 C521 1.393 . S
C518 H510 0.950 . S
C518 C516 1.391 . S
C518 C519 1.400 . S
C519 C518 1.400 . S
C519 C520 1.398 . S
C519 C525 1.491 . S
C520 H511 0.950 . S
C520 C519 1.398 . S
C520 C521 1.391 . S
C521 H509 0.950 . S
C521 C517 1.393 . S
C521 C520 1.391 . S
C522 H512 0.950 . S
C522 C523 1.386 . S
C522 C524 1.391 . S
C523 C522 1.386 . S
C523 C527 1.393 . S
C524 H513 0.950 . S
C524 C522 1.391 . S
C524 C525 1.400 . S
C525 C519 1.491 . S
C525 C524 1.400 . S
C525 C526 1.398 . S
C526 H514 0.950 . S
C526 C525 1.398 . S
C526 C527 1.391 . S
C527 H515 0.950 . S
C527 C523 1.393 . S
C527 C526 1.391 . S
H528 C536 0.950 . S
H529 C541 0.950 . S
H530 C538 0.950 . S
H531 C540 0.950 . S
H532 C542 0.950 . S
H533 C544 0.950 . S
H534 C546 0.950 . S
H535 C547 0.950 . S
C536 H528 0.950 . S
C536 C537 1.386 . S
C536 C538 1.391 . S
C537 C536 1.386 . S
C537 C541 1.393 . S
C538 H530 0.950 . S
C538 C536 1.391 . S
C538 C539 1.400 . S
C539 C538 1.400 . S
C539 C540 1.398 . S
C539 C545 1.491 . S
C540 H531 0.950 . S
C540 C539 1.398 . S
C540 C541 1.391 . S
C541 H529 0.950 . S
C541 C537 1.393 . S
C541 C540 1.391 . S
C542 H532 0.950 . S
C542 C543 1.386 . S
C542 C544 1.391 . S
C543 C542 1.386 . S
C543 C547 1.393 . S
C544 H533 0.950 . S
C544 C542 1.391 . S
C544 C545 1.400 . S
C545 C539 1.491 . S
C545 C544 1.400 . S
C545 C546 1.398 . S
C546 H534 0.950 . S
C546 C545 1.398 . S
C546 C547 1.391 . S
C547 H535 0.950 . S
C547 C543 1.393 . S
C547 C546 1.391 . S
H548 C556 0.950 . S
H549 C561 0.950 . S
H550 C558 0.950 . S
H551 C560 0.950 . S
H552 C562 0.950 . S
H553 C564 0.950 . S
H554 C566 0.950 . S
H555 C567 0.950 . S
C556 H548 0.950 . S
C556 C557 1.386 . S
C556 C558 1.391 . S
C557 C556 1.386 . S
C557 C561 1.393 . S
C558 H550 0.950 . S
C558 C556 1.391 . S
C558 C559 1.400 . S
C559 C558 1.400 . S
C559 C560 1.398 . S
C559 C565 1.491 . S
C560 H551 0.950 . S
C560 C559 1.398 . S
C560 C561 1.391 . S
C561 H549 0.950 . S
C561 C557 1.393 . S
C561 C560 1.391 . S
C562 H552 0.950 . S
C562 C563 1.386 . S
C562 C564 1.391 . S
C563 C562 1.386 . S
C563 C567 1.393 . S
C564 H553 0.950 . S
C564 C562 1.391 . S
C564 C565 1.400 . S
C565 C559 1.491 . S
C565 C564 1.400 . S
C565 C566 1.398 . S
C566 H554 0.950 . S
C566 C565 1.398 . S
C566 C567 1.391 . S
C567 H555 0.950 . S
C567 C563 1.393 . S
C567 C566 1.391 . S
H568 C576 0.950 . S
H569 C581 0.950 . S
H570 C578 0.950 . S
H571 C580 0.950 . S
H572 C582 0.950 . S
H573 C584 0.950 . S
H574 C586 0.950 . S
H575 C587 0.950 . S
C576 H568 0.950 . S
C576 C577 1.386 . S
C576 C578 1.391 . S
C577 C576 1.386 . S
C577 C581 1.393 . S
C578 H570 0.950 . S
C578 C576 1.391 . S
C578 C579 1.400 . S
C579 C578 1.400 . S
C579 C580 1.398 . S
C579 C585 1.491 . S
C580 H571 0.950 . S
C580 C579 1.398 . S
C580 C581 1.391 . S
C581 H569 0.950 . S
C581 C577 1.393 . S
C581 C580 1.391 . S
C582 H572 0.950 . S
C582 C583 1.386 . S
C582 C584 1.391 . S
C583 C582 1.386 . S
C583 C587 1.393 . S
C584 H573 0.950 . S
C584 C582 1.391 . S
C584 C585 1.400 . S
C585 C579 1.491 . S
C585 C584 1.400 . S
C585 C586 1.398 . S
C586 H574 0.950 . S
C586 C585 1.398 . S
C586 C587 1.391 . S
C587 H575 0.950 . S
C587 C583 1.393 . S
C587 C586 1.391 . S
H588 C596 0.950 . S
H589 C601 0.950 . S
H590 C598 0.950 . S
H591 C600 0.950 . S
H592 C602 0.950 . S
H593 C604 0.950 . S
H594 C606 0.950 . S
H595 C607 0.950 . S
C596 H588 0.950 . S
C596 C597 1.386 . S
C596 C598 1.391 . S
C597 C596 1.386 . S
C597 C601 1.393 . S
C598 H590 0.950 . S
C598 C596 1.391 . S
C598 C599 1.400 . S
C599 C598 1.400 . S
C599 C600 1.398 . S
C599 C605 1.491 . S
C600 H591 0.950 . S
C600 C599 1.398 . S
C600 C601 1.391 . S
C601 H589 0.950 . S
C601 C597 1.393 . S
C601 C600 1.391 . S
C602 H592 0.950 . S
C602 C603 1.386 . S
C602 C604 1.391 . S
C603 C602 1.386 . S
C603 C607 1.393 . S
C604 H593 0.950 . S
C604 C602 1.391 . S
C604 C605 1.400 . S
C605 C599 1.491 . S
C605 C604 1.400 . S
C605 C606 1.398 . S
C606 H594 0.950 . S
C606 C605 1.398 . S
C606 C607 1.391 . S
C607 H595 0.950 . S
C607 C603 1.393 . S
C607 C606 1.391 . S
H608 C616 0.950 . S
H609 C621 0.950 . S
H610 C618 0.950 . S
H611 C620 0.950 . S
H612 C622 0.950 . S
H613 C624 0.950 . S
H614 C626 0.950 . S
H615 C627 0.950 . S
C616 H608 0.950 . S
C616 C617 1.386 . S
C616 C618 1.391 . S
C617 C616 1.386 . S
C617 C621 1.393 . S
C618 H610 0.950 . S
C618 C616 1.391 . S
C618 C619 1.400 . S
C619 C618 1.400 . S
C619 C620 1.398 . S
C619 C625 1.491 . S
C620 H611 0.950 . S
C620 C619 1.398 . S
C620 C621 1.391 . S
C621 H609 0.950 . S
C621 C617 1.393 . S
C621 C620 1.391 . S
C622 H612 0.950 . S
C622 C623 1.386 . S
C622 C624 1.391 . S
C623 C622 1.386 . S
C623 C627 1.393 . S
C624 H613 0.950 . S
C624 C622 1.391 . S
C624 C625 1.400 . S
C625 C619 1.491 . S
C625 C624 1.400 . S
C625 C626 1.398 . S
C626 H614 0.950 . S
C626 C625 1.398 . S
C626 C627 1.391 . S
C627 H615 0.950 . S
C627 C623 1.393 . S
C627 C626 1.391 . S
H628 C636 0.950 . S
H629 C641 0.950 . S
H630 C638 0.950 . S
H631 C640 0.950 . S
H632 C642 0.950 . S
H633 C644 0.950 . S
H634 C646 0.950 . S
H635 C647 0.950 1_556 S
C636 H628 0.950 . S
C636 C637 1.386 . S
C636 C638 1.391 . S
C637 C636 1.386 . S
C637 C641 1.393 . S
C638 H630 0.950 . S
C638 C636 1.391 . S
C638 C639 1.400 . S
C639 C638 1.400 . S
C639 C640 1.398 . S
C639 C645 1.491 . S
C640 H631 0.950 . S
C640 C639 1.398 . S
C640 C641 1.391 . S
C641 H629 0.950 . S
C641 C637 1.393 . S
C641 C640 1.391 . S
C642 H632 0.950 . S
C642 C643 1.386 . S
C642 C644 1.391 . S
C643 C642 1.386 . S
C643 C647 1.393 . S
C644 H633 0.950 . S
C644 C642 1.391 . S
C644 C645 1.400 . S
C645 C639 1.491 . S
C645 C644 1.400 . S
C645 C646 1.398 . S
C646 H634 0.950 . S
C646 C645 1.398 . S
C646 C647 1.391 . S
C647 H635 0.950 1_554 S
C647 C643 1.393 . S
C647 C646 1.391 . S
C177 C9 0.986 . S
C183 C93 0.947 . S
C197 C23 0.948 . S
C203 C107 0.984 . S
C217 C121 0.986 . S
C223 C37 0.947 . S
C237 C51 0.947 . S
C243 C135 0.984 . S
C257 C65 0.984 . S
C263 C149 0.947 . S
C277 C163 0.984 . S
C283 C79 0.950 . S
C297 C120 1.633 . S
C303 C8 1.638 . S
C317 C22 1.646 . S
C323 C134 1.649 . S
C337 C148 1.648 . S
C343 C36 1.649 . S
C357 C162 1.641 . S
C363 C50 1.636 . S
C377 C64 1.644 . S
C383 C92 1.648 . S
C397 C78 1.647 . S
C403 C106 1.644 . S
C417 C160 1.385 . S
C423 C6 1.400 . S
C437 C90 1.385 . S
C443 C20 1.400 . S
C457 C34 1.386 . S
C463 C104 1.399 . S
C477 C118 1.397 . S
C483 C48 1.388 . S
C497 C132 1.388 . S
C503 C62 1.397 . S
C517 C146 1.400 . S
C523 C76 1.385 . S
C537 C7 1.265 . S
C543 C147 1.258 . S
C557 C161 1.257 . S
C563 C21 1.260 . S
C577 C35 1.278 . S
C583 C91 1.268 . S
C597 C49 1.262 . S
C603 C105 1.257 . S
C617 C63 1.280 1_556 S
C623 C119 1.282 . S
C637 C77 1.259 . S
C643 C133 1.268 1_554 S
