# Generated by pormake.
# Topology umg, (4)-cn, num edge types: 1
# Building blocks:
#     Node 0, Type 0, BuildingBlock: MUDLON_clean_sbu_0, # of connection points: 4
#     Node 1, Type 0, BuildingBlock: MUDLON_clean_sbu_0, # of connection points: 4
#     Node 2, Type 0, BuildingBlock: MUDLON_clean_sbu_0, # of connection points: 4
#     Node 3, Type 0, BuildingBlock: MUDLON_clean_sbu_0, # of connection points: 4
#     Node 4, Type 0, BuildingBlock: MUDLON_clean_sbu_0, # of connection points: 4
#     Node 5, Type 0, BuildingBlock: MUDLON_clean_sbu_0, # of connection points: 4
#     Node 6, Type 0, BuildingBlock: MUDLON_clean_sbu_0, # of connection points: 4
#     Node 7, Type 0, BuildingBlock: MUDLON_clean_sbu_0, # of connection points: 4
#     Node 8, Type 0, BuildingBlock: MUDLON_clean_sbu_0, # of connection points: 4
#     Node 9, Type 0, BuildingBlock: MUDLON_clean_sbu_0, # of connection points: 4
#     Node 10, Type 0, BuildingBlock: MUDLON_clean_sbu_0, # of connection points: 4
#     Node 11, Type 0, BuildingBlock: MUDLON_clean_sbu_0, # of connection points: 4
#     Edge 12, Type (0, 0), BuildingBlock: ZUJKAS_clean_linker_0, # of connection points: 2
#     Edge 13, Type (0, 0), BuildingBlock: ZUJKAS_clean_linker_0, # of connection points: 2
#     Edge 14, Type (0, 0), BuildingBlock: ZUJKAS_clean_linker_0, # of connection points: 2
#     Edge 15, Type (0, 0), BuildingBlock: ZUJKAS_clean_linker_0, # of connection points: 2
#     Edge 16, Type (0, 0), BuildingBlock: ZUJKAS_clean_linker_0, # of connection points: 2
#     Edge 17, Type (0, 0), BuildingBlock: ZUJKAS_clean_linker_0, # of connection points: 2
#     Edge 18, Type (0, 0), BuildingBlock: ZUJKAS_clean_linker_0, # of connection points: 2
#     Edge 19, Type (0, 0), BuildingBlock: ZUJKAS_clean_linker_0, # of connection points: 2
#     Edge 20, Type (0, 0), BuildingBlock: ZUJKAS_clean_linker_0, # of connection points: 2
#     Edge 21, Type (0, 0), BuildingBlock: ZUJKAS_clean_linker_0, # of connection points: 2
#     Edge 22, Type (0, 0), BuildingBlock: ZUJKAS_clean_linker_0, # of connection points: 2
#     Edge 23, Type (0, 0), BuildingBlock: ZUJKAS_clean_linker_0, # of connection points: 2
#     Edge 24, Type (0, 0), BuildingBlock: ZUJKAS_clean_linker_0, # of connection points: 2
#     Edge 25, Type (0, 0), BuildingBlock: ZUJKAS_clean_linker_0, # of connection points: 2
#     Edge 26, Type (0, 0), BuildingBlock: ZUJKAS_clean_linker_0, # of connection points: 2
#     Edge 27, Type (0, 0), BuildingBlock: ZUJKAS_clean_linker_0, # of connection points: 2
#     Edge 28, Type (0, 0), BuildingBlock: ZUJKAS_clean_linker_0, # of connection points: 2
#     Edge 29, Type (0, 0), BuildingBlock: ZUJKAS_clean_linker_0, # of connection points: 2
#     Edge 30, Type (0, 0), BuildingBlock: ZUJKAS_clean_linker_0, # of connection points: 2
#     Edge 31, Type (0, 0), BuildingBlock: ZUJKAS_clean_linker_0, # of connection points: 2
#     Edge 32, Type (0, 0), BuildingBlock: ZUJKAS_clean_linker_0, # of connection points: 2
#     Edge 33, Type (0, 0), BuildingBlock: ZUJKAS_clean_linker_0, # of connection points: 2
#     Edge 34, Type (0, 0), BuildingBlock: ZUJKAS_clean_linker_0, # of connection points: 2
#     Edge 35, Type (0, 0), BuildingBlock: ZUJKAS_clean_linker_0, # of connection points: 2
# Relax obj value: 0.016
# Max RMSD: 0.186
# Mean RMSD: 0.186
data_MOF--net-umg--node1-MUDLON_clean_sbu_0--edge1-ZUJKAS_clean_linker_0
_symmetry_space_group_name_H-M    P1
_symmetry_Int_Tables_number       1
_symmetry_cell_setting            triclinic
loop_
_symmetry_equiv_pos_as_xyz
'x, y, z'
_cell_length_a     38.555603
_cell_length_b     38.554359
_cell_length_c     115.72166
_cell_angle_alpha  90.042555
_cell_angle_beta   89.757114
_cell_angle_gamma 119.9421
loop_
_atom_site_label
_atom_site_type_symbol
_atom_site_fract_x
_atom_site_fract_y
_atom_site_fract_z
_atom_type_partial_charge
Mg0 Mg 0.32181 0.59984 0.10036 0.0
C1 C 0.36483 0.6353 0.07769 0.0
O2 O 0.38278 0.6153 0.08062 0.0
C3 C 0.31368 0.63864 0.12235 0.0
O4 O 0.27754 0.62542 0.11824 0.0
C5 C 0.38745 0.58257 0.10494 0.0
O6 O 0.40066 0.61814 0.10952 0.0
O7 O 0.35271 0.56509 0.10042 0.0
O8 O 0.33987 0.63638 0.0847 0.0
O9 O 0.25618 0.56492 0.10004 0.0
C10 C 0.23899 0.58258 0.09556 0.0
O11 O 0.26143 0.61848 0.09115 0.0
O12 O 0.33896 0.63423 0.11637 0.0
Mg13 Mg 0.73173 0.30712 0.43344 0.0
C14 C 0.71387 0.304 0.40898 0.0
O15 O 0.7246 0.27695 0.41064 0.0
C16 C 0.68832 0.31581 0.4549 0.0
O17 O 0.65539 0.28992 0.44961 0.0
C18 C 0.81309 0.37424 0.43335 0.0
O19 O 0.78974 0.38957 0.43504 0.0
O20 O 0.79683 0.33644 0.43217 0.0
O21 O 0.71311 0.32399 0.41764 0.0
O22 O 0.69849 0.24155 0.43434 0.0
C23 C 0.66173 0.2252 0.43151 0.0
O24 O 0.64771 0.24827 0.42805 0.0
O25 O 0.72182 0.32889 0.44979 0.0
Mg26 Mg 0.43589 0.719 0.76591 0.0
C27 C 0.39616 0.67522 0.74365 0.0
O28 O 0.41099 0.6527 0.74694 0.0
C29 C 0.42545 0.72212 0.7908 0.0
O30 O 0.46395 0.74583 0.78898 0.0
C31 C 0.44943 0.80028 0.76611 0.0
O32 O 0.41051 0.77674 0.76707 0.0
O33 O 0.4713 0.7842 0.7654 0.0
O34 O 0.39958 0.70304 0.7503 0.0
O35 O 0.46866 0.68618 0.7662 0.0
C36 C 0.44813 0.65037 0.76991 0.0
O37 O 0.41115 0.63764 0.77333 0.0
O38 O 0.40302 0.7051 0.78216 0.0
Mg39 Mg 0.73329 0.42338 0.09911 0.0
C40 C 0.7431 0.39518 0.07564 0.0
O41 O 0.78046 0.4216 0.07799 0.0
C42 C 0.68719 0.39007 0.12158 0.0
O43 O 0.66777 0.40745 0.11762 0.0
C44 C 0.66964 0.44248 0.09333 0.0
O45 O 0.65648 0.40693 0.08874 0.0
O46 O 0.70374 0.45932 0.09824 0.0
O47 O 0.7164 0.38745 0.0833 0.0
O48 O 0.79882 0.45684 0.09987 0.0
C49 C 0.8146 0.4367 0.10351 0.0
O50 O 0.79084 0.39951 0.1068 0.0
O51 O 0.71406 0.38953 0.11527 0.0
Mg52 Mg 0.31877 0.71861 0.43525 0.0
C53 C 0.33987 0.72777 0.4108 0.0
O54 O 0.32972 0.75499 0.41298 0.0
C55 C 0.30885 0.67079 0.45713 0.0
O56 O 0.27194 0.65051 0.45334 0.0
C57 C 0.23788 0.65229 0.42968 0.0
O58 O 0.26184 0.63963 0.42593 0.0
O59 O 0.2534 0.68712 0.43412 0.0
O60 O 0.33956 0.70598 0.4191 0.0
O61 O 0.34912 0.78388 0.43634 0.0
C62 C 0.38659 0.80003 0.43814 0.0
O63 O 0.40195 0.77658 0.43949 0.0
O64 O 0.33519 0.69908 0.45096 0.0
Mg65 Mg 0.61178 0.30658 0.76433 0.0
C66 C 0.65659 0.35828 0.74352 0.0
O67 O 0.64758 0.38324 0.74862 0.0
C68 C 0.62402 0.29698 0.78895 0.0
O69 O 0.58759 0.26766 0.78688 0.0
C70 C 0.60017 0.22587 0.76253 0.0
O71 O 0.63915 0.24991 0.76221 0.0
O72 O 0.5778 0.24136 0.76328 0.0
O73 O 0.64795 0.32566 0.74859 0.0
O74 O 0.57699 0.33735 0.76491 0.0
C75 C 0.59293 0.37019 0.7705 0.0
O76 O 0.62717 0.38174 0.77572 0.0
O77 O 0.64429 0.31979 0.78062 0.0
Mg78 Mg 0.43556 0.7342 0.59853 0.0
C79 C 0.42094 0.7428 0.62315 0.0
O80 O 0.45613 0.77434 0.62111 0.0
C81 C 0.39276 0.68193 0.57778 0.0
O82 O 0.40586 0.65949 0.58236 0.0
C83 C 0.45621 0.6719 0.60447 0.0
O84 O 0.42194 0.65989 0.60981 0.0
O85 O 0.4718 0.7049 0.59893 0.0
O86 O 0.40254 0.71914 0.61484 0.0
O87 O 0.46733 0.7996 0.59734 0.0
C88 C 0.44406 0.81401 0.59836 0.0
O89 O 0.40559 0.78902 0.59979 0.0
O90 O 0.39859 0.71329 0.58309 0.0
Mg91 Mg 0.71802 0.41913 0.93228 0.0
C92 C 0.67714 0.38531 0.95528 0.0
O93 O 0.65962 0.40585 0.95248 0.0
C94 C 0.72455 0.4076 0.90749 0.0
O95 O 0.75086 0.44547 0.90929 0.0
C96 C 0.79927 0.43222 0.93265 0.0
O97 O 0.77573 0.39322 0.93207 0.0
O98 O 0.78321 0.45417 0.93293 0.0
O99 O 0.7009 0.38306 0.94805 0.0
O100 O 0.68625 0.45284 0.93174 0.0
C101 C 0.65067 0.43328 0.92786 0.0
O102 O 0.63731 0.39636 0.92434 0.0
O103 O 0.70457 0.38618 0.91607 0.0
Mg104 Mg 0.30856 0.72188 0.2667 0.0
C105 C 0.3071 0.7061 0.29126 0.0
O106 O 0.28 0.71677 0.28965 0.0
C107 C 0.3276 0.72914 0.24212 0.0
O108 O 0.31657 0.7558 0.24412 0.0
C109 C 0.37594 0.80312 0.26827 0.0
O110 O 0.39135 0.77952 0.26898 0.0
O111 O 0.3381 0.7871 0.26736 0.0
O112 O 0.32626 0.70436 0.28251 0.0
O113 O 0.2431 0.68809 0.26641 0.0
C114 C 0.22885 0.65089 0.26837 0.0
O115 O 0.25399 0.63786 0.27028 0.0
O116 O 0.32826 0.70829 0.25055 0.0
Mg117 Mg 0.61001 0.32084 0.5993 0.0
C118 C 0.65538 0.36655 0.62072 0.0
O119 O 0.65094 0.39478 0.6158 0.0
C120 C 0.65544 0.31711 0.57819 0.0
O121 O 0.64815 0.2833 0.58303 0.0
C122 C 0.59483 0.38806 0.59487 0.0
O123 O 0.62953 0.39998 0.5898 0.0
O124 O 0.57723 0.35373 0.5997 0.0
O125 O 0.64356 0.3337 0.61538 0.0
O126 O 0.57376 0.25577 0.59779 0.0
C127 C 0.56814 0.23307 0.60642 0.0
O128 O 0.58043 0.24925 0.61666 0.0
O129 O 0.64573 0.33984 0.58354 0.0
Mg130 Mg 0.30564 0.59471 0.93284 0.0
C131 C 0.31668 0.60463 0.95747 0.0
O132 O 0.30062 0.56614 0.95537 0.0
C133 C 0.30459 0.60666 0.90818 0.0
O134 O 0.27995 0.56832 0.90998 0.0
C135 C 0.22505 0.58357 0.93389 0.0
O136 O 0.24924 0.62251 0.93423 0.0
O137 O 0.24039 0.56103 0.9333 0.0
O138 O 0.32374 0.62813 0.94895 0.0
O139 O 0.33669 0.56038 0.9323 0.0
C140 C 0.37402 0.58161 0.93432 0.0
O141 O 0.38876 0.61986 0.93653 0.0
O142 O 0.32175 0.62889 0.91686 0.0
Mg143 Mg 0.72257 0.30841 0.26487 0.0
C144 C 0.697 0.29873 0.28938 0.0
O145 O 0.69777 0.26571 0.28716 0.0
C146 C 0.72922 0.35306 0.24271 0.0
O147 O 0.76699 0.37216 0.24581 0.0
C148 C 0.65258 0.22793 0.26292 0.0
O149 O 0.63804 0.25228 0.26223 0.0
O150 O 0.69028 0.24306 0.26397 0.0
O151 O 0.70567 0.32415 0.28129 0.0
O152 O 0.78795 0.33765 0.26414 0.0
C153 C 0.80912 0.35462 0.27301 0.0
O154 O 0.79118 0.35076 0.28299 0.0
O155 O 0.70341 0.32679 0.24948 0.0
H156 H 0.34397 0.68112 0.96573 0.0
H157 H 0.35598 0.70288 0.98604 0.0
H158 H 0.3217 0.58266 0.99659 0.0
H159 H 0.30927 0.56076 0.97659 0.0
H160 H 0.28357 0.61672 1.00903 0.0
H161 H 0.44894 0.71719 1.00721 0.0
H162 H 0.41899 0.72603 0.99704 0.0
H163 H 0.42193 0.68115 0.99601 0.0
C164 C 0.33922 0.65946 0.9724 0.0
C165 C 0.32558 0.6192 0.96954 0.0
C166 C 0.34623 0.67195 0.98397 0.0
C167 C 0.33991 0.64439 0.99281 0.0
C168 C 0.32667 0.60441 0.98992 0.0
H169 H 0.40817 0.62878 0.05999 0.0
H170 H 0.40384 0.64083 0.03953 0.0
C171 C 0.31961 0.59195 0.97844 0.0
C172 C 0.34588 0.65598 1.00517 0.0
H173 H 0.41831 0.70435 0.02551 0.0
C174 C 0.3129 0.63646 1.01265 0.0
C175 C 0.38422 0.68159 1.00982 0.0
C176 C 0.42073 0.70264 1.00216 0.0
C177 C 0.31746 0.63995 0.02469 0.0
C178 C 0.35605 0.66455 0.02939 0.0
C179 C 0.38876 0.68575 0.02188 0.0
C180 C 0.36361 0.66418 0.04195 0.0
C181 C 0.28131 0.61506 0.03223 0.0
C182 C 0.34382 0.67493 0.05019 0.0
C183 C 0.34585 0.6676 0.06195 0.0
C184 C 0.36813 0.64984 0.06566 0.0
C185 C 0.39045 0.64215 0.05745 0.0
C186 C 0.38812 0.64917 0.04572 0.0
H187 H 0.25561 0.59201 0.02721 0.0
H188 H 0.28858 0.59977 0.03914 0.0
H189 H 0.27171 0.63483 0.03641 0.0
H190 H 0.32547 0.68743 0.04749 0.0
H191 H 0.32865 0.67428 0.06806 0.0
H192 H 0.69612 0.25465 0.39056 0.0
H193 H 0.68487 0.26678 0.37064 0.0
H194 H 0.69834 0.38078 0.38041 0.0
H195 H 0.70952 0.3687 0.40061 0.0
H196 H 0.6238 0.28945 0.36166 0.0
H197 H 0.78492 0.40001 0.35371 0.0
H198 H 0.77012 0.36371 0.36524 0.0
H199 H 0.75986 0.40407 0.36641 0.0
C200 C 0.69646 0.28225 0.38854 0.0
C201 C 0.70397 0.31085 0.39716 0.0
C202 C 0.68987 0.28904 0.37715 0.0
C203 C 0.69099 0.32471 0.37406 0.0
C204 C 0.69751 0.3531 0.38264 0.0
H205 H 0.71039 0.36997 0.29888 0.0
H206 H 0.70354 0.38303 0.31933 0.0
C207 C 0.70376 0.34612 0.39415 0.0
C208 C 0.68696 0.33196 0.36171 0.0
H209 H 0.74377 0.37273 0.33748 0.0
C210 C 0.64979 0.30845 0.35637 0.0
C211 C 0.72084 0.35696 0.35487 0.0
C212 C 0.76135 0.38273 0.36026 0.0
C213 C 0.64612 0.30738 0.3443 0.0
C214 C 0.68073 0.32962 0.33739 0.0
C215 C 0.71728 0.35555 0.34277 0.0
C216 C 0.68094 0.32178 0.32483 0.0
C217 C 0.60545 0.28123 0.33904 0.0
C218 C 0.67057 0.28314 0.32114 0.0
C219 C 0.67454 0.27568 0.30956 0.0
C220 C 0.68924 0.30675 0.30137 0.0
C221 C 0.69875 0.34536 0.30498 0.0
C222 C 0.69492 0.35288 0.31665 0.0
H223 H 0.58132 0.27875 0.34486 0.0
H224 H 0.60271 0.29302 0.33055 0.0
H225 H 0.60073 0.25064 0.33777 0.0
H226 H 0.66071 0.25886 0.32731 0.0
H227 H 0.66697 0.2456 0.3071 0.0
H228 H 0.38861 0.62166 0.72698 0.0
H229 H 0.37979 0.62633 0.70625 0.0
H230 H 0.36597 0.72925 0.71198 0.0
H231 H 0.37457 0.72481 0.73278 0.0
H232 H 0.31402 0.67118 0.69362 0.0
H233 H 0.47699 0.72446 0.68982 0.0
H234 H 0.44741 0.67757 0.69719 0.0
H235 H 0.45332 0.72283 0.70345 0.0
C236 C 0.38283 0.6448 0.72389 0.0
C237 C 0.38292 0.67325 0.73153 0.0
C238 C 0.37779 0.64739 0.71203 0.0
C239 C 0.37278 0.67844 0.7076 0.0
C240 C 0.36985 0.70509 0.71526 0.0
H241 H 0.44724 0.79282 0.64162 0.0
H242 H 0.43002 0.77574 0.66191 0.0
C243 C 0.37487 0.70254 0.72714 0.0
C244 C 0.37558 0.68603 0.695 0.0
H245 H 0.44223 0.71787 0.67258 0.0
C246 C 0.34193 0.68124 0.68897 0.0
C247 C 0.41222 0.69962 0.68904 0.0
C248 C 0.44971 0.70678 0.69518 0.0
C249 C 0.34403 0.6896 0.67706 0.0
C250 C 0.38065 0.70289 0.67111 0.0
C251 C 0.41415 0.70755 0.67717 0.0
C252 C 0.38594 0.71384 0.65869 0.0
C253 C 0.30751 0.68513 0.67099 0.0
C254 C 0.36615 0.68487 0.65009 0.0
C255 C 0.37589 0.69462 0.6384 0.0
C256 C 0.40587 0.73337 0.63519 0.0
C257 C 0.42425 0.76262 0.64381 0.0
C258 C 0.4144 0.75295 0.65542 0.0
H259 H 0.28417 0.68232 0.6772 0.0
H260 H 0.31564 0.71113 0.66523 0.0
H261 H 0.29451 0.6578 0.66555 0.0
H262 H 0.34454 0.65434 0.65244 0.0
H263 H 0.36137 0.67139 0.63196 0.0
H264 H 0.66786 0.3522 0.06625 0.0
H265 H 0.65126 0.33771 0.04573 0.0
H266 H 0.77663 0.39025 0.03741 0.0
H267 H 0.7935 0.40491 0.05779 0.0
H268 H 0.7361 0.42442 0.02583 0.0
H269 H 0.65549 0.25857 0.02183 0.0
H270 H 0.63919 0.27865 0.03332 0.0
H271 H 0.68841 0.28465 0.03377 0.0
C272 C 0.69182 0.35978 0.06009 0.0
C273 C 0.73204 0.38001 0.06366 0.0
C274 C 0.68226 0.35135 0.04836 0.0
C275 C 0.71272 0.36278 0.04006 0.0
C276 C 0.75267 0.38111 0.04368 0.0
H277 H 0.71858 0.35224 0.96522 0.0
H278 H 0.72339 0.34144 0.98589 0.0
C279 C 0.76224 0.3895 0.05535 0.0
C280 C 0.70372 0.36025 0.02753 0.0
H281 H 0.65652 0.29544 1.00524 0.0
C282 C 0.71878 0.39621 0.02133 0.0
C283 C 0.68118 0.3234 0.0217 0.0
C284 C 0.66529 0.28401 0.02793 0.0
C285 C 0.71169 0.39638 1.00947 0.0
C286 C 0.68874 0.35962 1.00365 0.0
C287 C 0.67391 0.32354 1.00978 0.0
C288 C 0.6804 0.35889 0.99115 0.0
C289 C 0.72898 0.43591 1.00319 0.0
C290 C 0.65365 0.37097 0.98728 0.0
C291 C 0.65082 0.37717 0.97551 0.0
C292 C 0.67483 0.37155 0.96738 0.0
C293 C 0.69974 0.35694 0.97124 0.0
C294 C 0.70249 0.35068 0.98304 0.0
H295 H 0.75097 0.46126 1.00855 0.0
H296 H 0.74389 0.43501 0.99505 0.0
H297 H 0.70443 0.44171 1.00086 0.0
H298 H 0.63632 0.37738 0.99342 0.0
H299 H 0.63114 0.38817 0.97285 0.0
H300 H 0.26596 0.70163 0.31081 0.0
H301 H 0.28232 0.6949 0.33063 0.0
H302 H 0.38378 0.68599 0.31876 0.0
H303 H 0.36783 0.69342 0.29867 0.0
H304 H 0.2902 0.63499 0.34187 0.0
H305 H 0.43312 0.78094 0.34142 0.0
H306 H 0.39637 0.76717 0.33015 0.0
H307 H 0.42697 0.74425 0.33079 0.0
C308 C 0.2917 0.69807 0.31234 0.0
C309 C 0.31584 0.69849 0.30315 0.0
C310 C 0.3009 0.69402 0.32371 0.0
C311 C 0.33448 0.69037 0.3262 0.0
C312 C 0.35802 0.68934 0.31704 0.0
H313 H 0.35035 0.66695 0.4021 0.0
H314 H 0.35682 0.65358 0.38165 0.0
C315 C 0.34877 0.69339 0.30558 0.0
C316 C 0.3451 0.68976 0.33848 0.0
H317 H 0.4092 0.7501 0.35935 0.0
C318 C 0.31668 0.65963 0.3457 0.0
C319 C 0.37965 0.72205 0.34342 0.0
C320 C 0.4108 0.75566 0.33611 0.0
C321 C 0.32036 0.66236 0.35778 0.0
C322 C 0.3538 0.69582 0.36276 0.0
C323 C 0.38368 0.72444 0.3555 0.0
C324 C 0.35479 0.70528 0.37523 0.0
C325 C 0.28691 0.63106 0.36512 0.0
C326 C 0.3531 0.73949 0.37842 0.0
C327 C 0.34971 0.74729 0.39001 0.0
C328 C 0.34793 0.72103 0.39871 0.0
C329 C 0.35144 0.68763 0.39558 0.0
C330 C 0.3549 0.67983 0.38391 0.0
H331 H 0.26062 0.61014 0.35988 0.0
H332 H 0.29783 0.6133 0.36981 0.0
H333 H 0.27698 0.64547 0.37164 0.0
H334 H 0.35299 0.75957 0.37189 0.0
H335 H 0.34741 0.77346 0.39209 0.0
H336 H 0.66533 0.30672 0.72907 0.0
H337 H 0.67651 0.31334 0.70819 0.0
H338 H 0.68891 0.43081 0.70929 0.0
H339 H 0.67707 0.4242 0.73013 0.0
H340 H 0.63306 0.38163 0.69378 0.0
H341 H 0.77278 0.37621 0.68721 0.0
H342 H 0.73591 0.33553 0.69575 0.0
H343 H 0.75808 0.38588 0.70114 0.0
C344 C 0.67133 0.33436 0.72492 0.0
C345 C 0.67007 0.36485 0.73128 0.0
C346 C 0.67794 0.33818 0.71297 0.0
C347 C 0.6839 0.37272 0.70716 0.0
C348 C 0.68449 0.40393 0.71358 0.0
H349 H 0.68118 0.43206 0.63467 0.0
H350 H 0.69242 0.43561 0.65552 0.0
C351 C 0.67774 0.4001 0.72551 0.0
C352 C 0.68498 0.37452 0.69433 0.0
H353 H 0.73343 0.36753 0.67038 0.0
C354 C 0.65531 0.37901 0.68868 0.0
C355 C 0.71376 0.37066 0.68766 0.0
C356 C 0.74717 0.36716 0.69324 0.0
C357 C 0.6531 0.37901 0.67658 0.0
C358 C 0.6818 0.3751 0.66991 0.0
C359 C 0.71157 0.37066 0.67552 0.0
C360 C 0.68048 0.37471 0.65709 0.0
C361 C 0.61931 0.38202 0.67104 0.0
C362 C 0.6719 0.33989 0.65098 0.0
C363 C 0.66565 0.3378 0.63903 0.0
C364 C 0.66794 0.37056 0.63298 0.0
C365 C 0.67883 0.40616 0.63906 0.0
C366 C 0.68513 0.40822 0.65099 0.0
H367 H 0.5948 0.37545 0.67729 0.0
H368 H 0.63088 0.41288 0.66773 0.0
H369 H 0.60666 0.36104 0.66365 0.0
H370 H 0.66835 0.31376 0.65553 0.0
H371 H 0.65743 0.30996 0.63462 0.0
H372 H 0.34303 0.67098 0.23406 0.0
H373 H 0.35209 0.65761 0.21384 0.0
H374 H 0.33972 0.75785 0.20296 0.0
H375 H 0.33137 0.77172 0.22297 0.0
H376 H 0.29717 0.638 0.19669 0.0
H377 H 0.43642 0.77574 0.18435 0.0
H378 H 0.42149 0.76225 0.19924 0.0
H379 H 0.40074 0.78681 0.19085 0.0
C380 C 0.34293 0.69054 0.22736 0.0
C381 C 0.33643 0.72237 0.23013 0.0
C382 C 0.34809 0.68287 0.21583 0.0
C383 C 0.34723 0.70713 0.2069 0.0
C384 C 0.34153 0.73933 0.20969 0.0
H385 H 0.26601 0.65075 0.13738 0.0
H386 H 0.27769 0.66742 0.15788 0.0
C387 C 0.33637 0.74698 0.22117 0.0
C388 C 0.34843 0.69692 0.1946 0.0
H389 H 0.39306 0.73725 0.16866 0.0
C390 C 0.31855 0.65947 0.1906 0.0
C391 C 0.37658 0.72475 0.18665 0.0
C392 C 0.41087 0.76446 0.19051 0.0
C393 C 0.3148 0.64989 0.17881 0.0
C394 C 0.3412 0.67879 0.17078 0.0
C395 C 0.37241 0.71541 0.17482 0.0
C396 C 0.33586 0.67181 0.15815 0.0
C397 C 0.28229 0.60901 0.17503 0.0
C398 C 0.36552 0.67059 0.15139 0.0
C399 C 0.35907 0.66131 0.13962 0.0
C400 C 0.32287 0.65328 0.13441 0.0
C401 C 0.29407 0.65641 0.14112 0.0
C402 C 0.30057 0.66569 0.15286 0.0
H403 H 0.27241 0.58701 0.18223 0.0
H404 H 0.25598 0.61102 0.17211 0.0
H405 H 0.29258 0.59763 0.16773 0.0
H406 H 0.39313 0.67561 0.1553 0.0
H407 H 0.38192 0.65925 0.13469 0.0
H408 H 0.75166 0.35315 0.46966 0.0
H409 H 0.74941 0.35871 0.49062 0.0
H410 H 0.62098 0.30508 0.48934 0.0
H411 H 0.62281 0.29801 0.46836 0.0
H412 H 0.72464 0.39483 0.50547 0.0
H413 H 0.63246 0.23048 0.51116 0.0
H414 H 0.65446 0.25315 0.49746 0.0
H415 H 0.60876 0.25061 0.50226 0.0
C416 C 0.7229 0.34283 0.4738 0.0
C417 C 0.68732 0.32459 0.46734 0.0
C418 C 0.72169 0.34605 0.48581 0.0
C419 C 0.68495 0.33136 0.49161 0.0
C420 C 0.64959 0.31549 0.4851 0.0
H421 H 0.65277 0.37189 0.56376 0.0
H422 H 0.66334 0.37777 0.5429 0.0
C423 C 0.6507 0.31178 0.47309 0.0
C424 C 0.68372 0.33135 0.50446 0.0
H425 H 0.64313 0.27008 0.52787 0.0
C426 C 0.7069 0.36754 0.51038 0.0
C427 C 0.66132 0.2956 0.51088 0.0
C428 C 0.63818 0.25521 0.50513 0.0
C429 C 0.70777 0.36906 0.52252 0.0
C430 C 0.68395 0.33358 0.52893 0.0
C431 C 0.66122 0.29735 0.52299 0.0
C432 C 0.68153 0.33304 0.54177 0.0
C433 C 0.7349 0.40852 0.52833 0.0
C434 C 0.68791 0.30573 0.54815 0.0
C435 C 0.68116 0.30176 0.56009 0.0
C436 C 0.66806 0.32518 0.5659 0.0
C437 C 0.66324 0.35365 0.55958 0.0
C438 C 0.6695 0.35722 0.54762 0.0
H439 H 0.76011 0.42877 0.52258 0.0
H440 H 0.71755 0.42363 0.5304 0.0
H441 H 0.7474 0.40424 0.53648 0.0
H442 H 0.69715 0.28669 0.54384 0.0
H443 H 0.68515 0.27957 0.5647 0.0
H444 H 0.46732 0.75341 0.81064 0.0
H445 H 0.44313 0.73679 0.83052 0.0
H446 H 0.32412 0.65605 0.8182 0.0
H447 H 0.34807 0.67233 0.79814 0.0
H448 H 0.34223 0.72036 0.83927 0.0
H449 H 0.39855 0.61276 0.84265 0.0
H450 H 0.42987 0.66026 0.83568 0.0
H451 H 0.384 0.62428 0.82899 0.0
C452 C 0.43589 0.73234 0.81211 0.0
C453 C 0.40965 0.71397 0.80279 0.0
C454 C 0.42217 0.723 0.82348 0.0
C455 C 0.38196 0.69524 0.82577 0.0
C456 C 0.35528 0.67767 0.81655 0.0
H457 H 0.2738 0.56458 0.88836 0.0
H458 H 0.29107 0.5882 0.8685 0.0
C459 C 0.36903 0.68692 0.80512 0.0
C460 C 0.36869 0.68286 0.83781 0.0
H461 H 0.37169 0.62458 0.85951 0.0
C462 C 0.34851 0.69937 0.84372 0.0
C463 C 0.37704 0.65551 0.84352 0.0
C464 C 0.3984 0.63687 0.83744 0.0
C465 C 0.33659 0.68925 0.85532 0.0
C466 C 0.34534 0.66218 0.86106 0.0
C467 C 0.36524 0.6455 0.85508 0.0
C468 C 0.33294 0.64943 0.87316 0.0
C469 C 0.31425 0.707 0.8613 0.0
C470 C 0.35069 0.6762 0.88239 0.0
C471 C 0.34101 0.66274 0.89383 0.0
C472 C 0.31346 0.62229 0.89619 0.0
C473 C 0.29519 0.59591 0.88688 0.0
C474 C 0.30497 0.60932 0.87551 0.0
H475 H 0.30384 0.72189 0.85512 0.0
H476 H 0.28796 0.68346 0.86607 0.0
H477 H 0.33427 0.72959 0.86768 0.0
H478 H 0.37277 0.70721 0.88074 0.0
H479 H 0.35563 0.68377 0.90081 0.0
H480 H 0.73041 0.36346 0.13371 0.0
H481 H 0.72855 0.35212 0.15454 0.0
H482 H 0.63179 0.37712 0.15814 0.0
H483 H 0.63371 0.38898 0.13735 0.0
H484 H 0.69386 0.42158 0.17288 0.0
H485 H 0.65086 0.26156 0.17563 0.0
H486 H 0.69257 0.29002 0.16614 0.0
H487 H 0.6443 0.28364 0.16266 0.0
C488 C 0.70817 0.36576 0.13888 0.0
C489 C 0.68229 0.37727 0.13385 0.0
C490 C 0.70705 0.35911 0.15081 0.0
C491 C 0.67981 0.36346 0.1579 0.0
C492 C 0.65299 0.37351 0.15283 0.0
H493 H 0.65639 0.30963 0.23208 0.0
H494 H 0.64075 0.31287 0.21175 0.0
C495 C 0.65411 0.38021 0.14093 0.0
C496 C 0.68165 0.36101 0.17067 0.0
H497 H 0.67856 0.30071 0.19272 0.0
C498 C 0.69009 0.39499 0.17723 0.0
C499 C 0.67628 0.3262 0.17636 0.0
C500 C 0.66511 0.28814 0.16986 0.0
C501 C 0.6947 0.39558 0.18927 0.0
C502 C 0.69134 0.36146 0.19488 0.0
C503 C 0.68145 0.32697 0.18839 0.0
C504 C 0.69974 0.36154 0.20739 0.0
C505 C 0.70321 0.43276 0.19586 0.0
C506 C 0.73798 0.38804 0.21171 0.0
C507 C 0.74701 0.38633 0.2233 0.0
C508 C 0.71801 0.35791 0.23082 0.0
C509 C 0.67937 0.33202 0.22654 0.0
C510 C 0.67041 0.3337 0.21492 0.0
H511 H 0.69335 0.45114 0.191 0.0
H512 H 0.68807 0.42507 0.20443 0.0
H513 H 0.73593 0.45132 0.19729 0.0
H514 H 0.76129 0.4093 0.20602 0.0
H515 H 0.7771 0.40659 0.22628 0.0
H516 H 0.37431 0.72879 0.56429 0.0
H517 H 0.35604 0.71954 0.54388 0.0
H518 H 0.35696 0.60813 0.54375 0.0
H519 H 0.37606 0.61754 0.56413 0.0
H520 H 0.39998 0.65605 0.52596 0.0
H521 H 0.25178 0.64611 0.5278 0.0
H522 H 0.29003 0.6902 0.53475 0.0
H523 H 0.27624 0.64161 0.54051 0.0
C524 C 0.36997 0.70196 0.55999 0.0
C525 C 0.37667 0.67391 0.56586 0.0
C526 C 0.35935 0.69663 0.54831 0.0
C527 C 0.35469 0.66291 0.54231 0.0
C528 C 0.3603 0.63433 0.54822 0.0
H529 H 0.26054 0.61114 0.47211 0.0
H530 H 0.27233 0.60536 0.49256 0.0
C531 C 0.37111 0.63972 0.55988 0.0
C532 C 0.34664 0.65888 0.52969 0.0
H533 H 0.28318 0.65874 0.50919 0.0
C534 C 0.37421 0.65623 0.52229 0.0
C535 C 0.31278 0.65858 0.52492 0.0
C536 C 0.2808 0.65886 0.53242 0.0
C537 C 0.36949 0.65453 0.51024 0.0
C538 C 0.33675 0.65635 0.50544 0.0
C539 C 0.30852 0.65775 0.51286 0.0
C540 C 0.33149 0.65772 0.49278 0.0
C541 C 0.39949 0.65052 0.50278 0.0
C542 C 0.36104 0.68878 0.48603 0.0
C543 C 0.35453 0.692 0.4743 0.0
C544 C 0.31807 0.6645 0.46911 0.0
C545 C 0.28895 0.63284 0.47582 0.0
C546 C 0.29559 0.62953 0.48753 0.0
H547 H 0.41471 0.63716 0.50767 0.0
H548 H 0.38499 0.63174 0.49506 0.0
H549 H 0.42275 0.68065 0.4998 0.0
H550 H 0.38863 0.7114 0.48993 0.0
H551 H 0.37745 0.71693 0.46941 0.0
H552 H 0.66593 0.33393 0.89983 0.0
H553 H 0.65207 0.31031 0.87977 0.0
H554 H 0.75217 0.42186 0.86816 0.0
H555 H 0.76645 0.44542 0.88806 0.0
H556 H 0.63365 0.34708 0.86189 0.0
H557 H 0.76977 0.33939 0.85094 0.0
H558 H 0.75538 0.34189 0.86565 0.0
H559 H 0.78026 0.38652 0.85699 0.0
C560 C 0.68531 0.35316 0.89302 0.0
C561 C 0.71729 0.39155 0.89555 0.0
C562 C 0.67734 0.33966 0.88156 0.0
C563 C 0.70146 0.36411 0.87248 0.0
C564 C 0.73371 0.40213 0.87503 0.0
H565 H 0.69067 0.36314 0.79753 0.0
H566 H 0.71026 0.37804 0.81789 0.0
C567 C 0.74162 0.41566 0.88643 0.0
C568 C 0.69129 0.35137 0.86027 0.0
H569 H 0.72895 0.33676 0.8351 0.0
C570 C 0.65428 0.34436 0.85606 0.0
C571 C 0.71845 0.34826 0.85266 0.0
C572 C 0.75805 0.35405 0.8568 0.0
C573 C 0.64405 0.3353 0.84438 0.0
C574 C 0.67127 0.33238 0.83675 0.0
C575 C 0.70819 0.3391 0.84097 0.0
C576 C 0.66159 0.32213 0.82438 0.0
C577 C 0.60463 0.33008 0.84025 0.0
C578 C 0.62857 0.28531 0.82127 0.0
C579 C 0.61728 0.27681 0.80971 0.0
C580 C 0.63901 0.30483 0.80098 0.0
C581 C 0.67328 0.34097 0.80405 0.0
C582 C 0.68448 0.34953 0.81567 0.0
H583 H 0.59218 0.34331 0.84638 0.0
H584 H 0.60797 0.34408 0.83163 0.0
H585 H 0.58265 0.29766 0.83948 0.0
H586 H 0.61103 0.26338 0.82782 0.0
H587 H 0.59101 0.24849 0.80764 0.0
H588 H 0.87345 0.50906 0.09489 0.0
H589 H 0.94556 0.53307 0.09365 0.0
H590 H 0.92718 0.42555 0.11056 0.0
H591 H 0.85552 0.40123 0.11172 0.0
H592 H 1.00172 0.54698 0.11106 0.0
H593 H 0.98752 0.4279 0.08122 0.0
H594 H 0.94699 0.43763 0.08388 0.0
H595 H 0.95783 0.4093 0.09413 0.0
C596 C 0.88481 0.49062 0.09837 0.0
C597 C 0.85861 0.45308 0.10332 0.0
C598 C 0.926 0.50434 0.09765 0.0
C599 C 0.94166 0.48072 0.1018 0.0
C600 C 0.91571 0.44385 0.10704 0.0
H601 H 0.18224 0.51133 0.10538 0.0
H602 H 0.10997 0.48612 0.10716 0.0
C603 C 0.87468 0.43012 0.10776 0.0
C604 C 0.98513 0.49456 0.10075 0.0
H605 H 0.05174 0.46959 0.08934 0.0
C606 C 1.01267 0.53018 0.10627 0.0
C607 C 0.99941 0.47249 0.09453 0.0
C608 C 0.97147 0.4349 0.08801 0.0
C609 C 0.05401 0.54403 0.10587 0.0
C610 C 0.06826 0.52201 0.09963 0.0
C611 C 0.04075 0.48631 0.09416 0.0
C612 C 0.11175 0.53645 0.09833 0.0
C613 C 0.08207 0.58183 0.11229 0.0
C614 C 0.13648 0.57254 0.09255 0.0
C615 C 0.17753 0.58686 0.09148 0.0
C616 C 0.19488 0.56538 0.09615 0.0
C617 C 0.16989 0.52865 0.1017 0.0
C618 C 0.12862 0.51424 0.10274 0.0
H619 H 0.06613 0.5892 0.11901 0.0
H620 H 0.10647 0.57907 0.11646 0.0
H621 H 0.09587 0.60716 0.10608 0.0
H622 H 0.12402 0.58975 0.08887 0.0
H623 H 0.19572 0.61512 0.08709 0.0
H624 H 0.58205 0.18387 0.42665 0.0
H625 H 0.53588 0.11217 0.42834 0.0
H626 H 0.63243 0.09461 0.43967 0.0
H627 H 0.67907 0.16691 0.43819 0.0
H628 H 0.53624 0.04975 0.41721 0.0
H629 H 0.54799 0.03643 0.46462 0.0
H630 H 0.56697 0.08413 0.45746 0.0
H631 H 0.59499 0.05832 0.45704 0.0
C632 C 0.59364 0.16491 0.42953 0.0
C633 C 0.63434 0.18127 0.43234 0.0
C634 C 0.56709 0.12381 0.43048 0.0
C635 C 0.58047 0.098 0.43429 0.0
C636 C 0.62121 0.11404 0.43695 0.0
H637 H 0.46626 0.84141 0.44302 0.0
H638 H 0.51175 0.91351 0.44212 0.0
C639 C 0.6479 0.15534 0.43602 0.0
C640 C 0.55165 0.05431 0.43523 0.0
H641 H 0.51032 0.97592 0.45424 0.0
C642 C 0.53046 0.03364 0.42532 0.0
C643 C 0.54401 0.03332 0.44582 0.0
C644 C 0.56437 0.05417 0.45688 0.0
C645 C 0.50244 0.99247 0.42566 0.0
C646 C 0.4949 0.97147 0.43623 0.0
C647 C 0.51605 0.99211 0.44615 0.0
C648 C 0.46634 0.92775 0.43709 0.0
C649 C 0.48185 0.97159 0.41462 0.0
C650 C 0.42538 0.91171 0.43476 0.0
C651 C 0.39908 0.87025 0.43527 0.0
C652 C 0.41333 0.84415 0.43815 0.0
C653 C 0.45421 0.86052 0.44073 0.0
C654 C 0.48034 0.90182 0.44024 0.0
H655 H 0.49744 0.98973 0.40686 0.0
H656 H 0.48022 0.94209 0.4139 0.0
H657 H 0.45083 0.96638 0.41467 0.0
H658 H 0.41378 0.93125 0.43251 0.0
H659 H 0.36779 0.85865 0.43328 0.0
H660 H 0.61765 0.43819 0.78308 0.0
H661 H 0.59188 0.48445 0.78266 0.0
H662 H 0.50324 0.40986 0.75766 0.0
H663 H 0.52916 0.36315 0.75795 0.0
H664 H 0.54599 0.49368 0.75207 0.0
H665 H 0.48577 0.46614 0.79682 0.0
H666 H 0.53689 0.47753 0.79577 0.0
H667 H 0.49792 0.43236 0.78939 0.0
C668 C 0.59249 0.43133 0.77753 0.0
C669 C 0.57536 0.39679 0.77058 0.0
C670 C 0.57771 0.45783 0.77734 0.0
C671 C 0.54538 0.45042 0.77023 0.0
C672 C 0.52813 0.41604 0.76325 0.0
H673 H 0.40751 0.5709 0.77512 0.0
H674 H 0.43176 0.52348 0.77463 0.0
C675 C 0.54284 0.3893 0.76347 0.0
C676 C 0.53032 0.47915 0.76999 0.0
H677 H 0.49012 0.52242 0.78711 0.0
C678 C 0.53355 0.49986 0.7597 0.0
C679 C 0.5139 0.48697 0.77994 0.0
C680 C 0.50801 0.46436 0.79109 0.0
C681 C 0.52132 0.52864 0.75914 0.0
C682 C 0.506 0.53733 0.7692 0.0
C683 C 0.50228 0.51613 0.77943 0.0
C684 C 0.49185 0.56687 0.76922 0.0
C685 C 0.52424 0.54892 0.74775 0.0
C686 C 0.51764 0.60737 0.76643 0.0
C687 C 0.50373 0.63477 0.76664 0.0
C688 C 0.46389 0.62221 0.76977 0.0
C689 C 0.4384 0.58175 0.77268 0.0
C690 C 0.45221 0.55447 0.77241 0.0
H691 H 0.52682 0.53188 0.74037 0.0
H692 H 0.49773 0.55253 0.74637 0.0
H693 H 0.55131 0.5791 0.74775 0.0
H694 H 0.54862 0.61787 0.76419 0.0
H695 H 0.52418 0.66574 0.7644 0.0
H696 H 0.5438 0.17502 0.62302 0.0
H697 H 0.52475 0.1048 0.62047 0.0
H698 H 0.54093 0.12281 0.58362 0.0
H699 H 0.55884 0.19286 0.58608 0.0
H700 H 0.47577 0.0535 0.58828 0.0
H701 H 0.60033 0.06366 0.61437 0.0
H702 H 0.5701 0.07844 0.62248 0.0
H703 H 0.59783 0.10732 0.61007 0.0
C704 C 0.54307 0.164 0.61436 0.0
C705 C 0.55304 0.18965 0.60476 0.0
C706 C 0.53257 0.12389 0.61292 0.0
C707 C 0.53251 0.10869 0.60188 0.0
C708 C 0.54113 0.13388 0.59224 0.0
H709 H 0.52008 0.87555 0.59328 0.0
H710 H 0.54328 0.94763 0.59305 0.0
C711 C 0.55124 0.17394 0.59366 0.0
C712 C 0.52296 0.06642 0.60039 0.0
H713 H 0.54744 0.99751 0.60996 0.0
C714 C 0.4917 0.04139 0.59295 0.0
C715 C 0.5443 0.05067 0.60625 0.0
C716 C 0.58029 0.07654 0.61364 0.0
C717 C 0.4802 1.00083 0.59157 0.0
C718 C 0.49974 0.98445 0.59804 0.0
C719 C 0.53205 1.00983 0.60512 0.0
C720 C 0.48596 0.94083 0.59798 0.0
C721 C 0.44736 0.97606 0.5831 0.0
C722 C 0.44633 0.91307 0.60102 0.0
C723 C 0.43302 0.87211 0.60108 0.0
C724 C 0.45917 0.85778 0.59827 0.0
C725 C 0.49916 0.88559 0.59545 0.0
C726 C 0.51243 0.92676 0.59531 0.0
H727 H 0.44536 0.99505 0.57621 0.0
H728 H 0.45216 0.95277 0.57897 0.0
H729 H 0.41821 0.96103 0.58773 0.0
H730 H 0.42564 0.92311 0.60347 0.0
H731 H 0.40215 0.85167 0.60343 0.0
H732 H 0.35699 0.5061 0.92766 0.0
H733 H 0.40358 0.48007 0.92672 0.0
H734 H 0.4988 0.59303 0.93913 0.0
H735 H 0.45284 0.61908 0.94016 0.0
H736 H 0.47717 0.51315 0.91369 0.0
H737 H 0.5031 0.51026 0.96074 0.0
H738 H 0.46104 0.51312 0.95506 0.0
H739 H 0.50983 0.55706 0.95549 0.0
C740 C 0.38777 0.52524 0.93027 0.0
C741 C 0.40112 0.56463 0.93401 0.0
C742 C 0.41435 0.51038 0.92971 0.0
C743 C 0.45453 0.53446 0.933 0.0
C744 C 0.4678 0.57368 0.93675 0.0
H745 H 0.66573 0.50702 0.93566 0.0
H746 H 0.6188 0.53256 0.93641 0.0
C747 C 0.44143 0.58858 0.93726 0.0
C748 C 0.48317 0.51939 0.93217 0.0
H749 H 0.54636 0.50064 0.94815 0.0
C750 C 0.4921 0.5101 0.92122 0.0
C751 C 0.5029 0.51586 0.942 0.0
C752 C 0.49357 0.52425 0.95401 0.0
C753 C 0.52078 0.49805 0.91982 0.0
C754 C 0.54045 0.49438 0.92966 0.0
C755 C 0.53145 0.50364 0.9406 0.0
C756 C 0.56944 0.47967 0.92884 0.0
C757 C 0.53043 0.49031 0.90777 0.0
C758 C 0.55726 0.44143 0.92441 0.0
C759 C 0.58394 0.42689 0.92393 0.0
C760 C 0.62341 0.4501 0.92797 0.0
C761 C 0.63564 0.48845 0.93243 0.0
C762 C 0.60883 0.50304 0.93289 0.0
H763 H 0.52209 0.50564 0.90114 0.0
H764 H 0.56279 0.50045 0.90683 0.0
H765 H 0.5132 0.45769 0.90601 0.0
H766 H 0.52681 0.42247 0.92149 0.0
H767 H 0.57334 0.39712 0.92052 0.0
H768 H 0.16722 0.66302 0.2616 0.0
H769 H 0.09539 0.61362 0.26145 0.0
H770 H 0.12018 0.52475 0.27554 0.0
H771 H 0.1915 0.57325 0.27544 0.0
H772 H 0.06857 0.49472 0.25795 0.0
H773 H 1.01856 0.57216 0.28852 0.0
H774 H 0.04506 0.60147 0.2761 0.0
H775 H 0.07065 0.58744 0.28642 0.0
C776 C 0.15727 0.63301 0.26472 0.0
C777 C 0.18513 0.62215 0.26855 0.0
C778 C 0.11619 0.60483 0.26468 0.0
C779 C 0.10224 0.56551 0.26862 0.0
C780 C 0.1301 0.55482 0.27246 0.0
H781 H 0.86358 0.38883 0.29039 0.0
H782 H 0.9345 0.43894 0.28872 0.0
C783 C 0.17098 0.58271 0.27241 0.0
C784 C 0.05886 0.53493 0.26861 0.0
H785 H 0.96798 0.51308 0.27978 0.0
C786 C 0.04655 0.49878 0.26271 0.0
C787 C 0.03018 0.53998 0.27493 0.0
C788 C 0.04171 0.57717 0.28195 0.0
C789 C 1.00657 0.46748 0.26302 0.0
C790 C 0.97775 0.47279 0.26918 0.0
C791 C 0.99 0.50906 0.27501 0.0
C792 C 0.935 0.44073 0.27002 0.0
C793 C 0.99594 0.42859 0.25707 0.0
C794 C 0.91156 0.42468 0.26007 0.0
C795 C 0.87101 0.39555 0.261 0.0
C796 C 0.8529 0.38235 0.27191 0.0
C797 C 0.87653 0.39825 0.28185 0.0
C798 C 0.9171 0.42706 0.28091 0.0
H799 H 0.02275 0.42546 0.25561 0.0
H800 H 0.97377 0.40251 0.2622 0.0
H801 H 0.98265 0.42777 0.24852 0.0
H802 H 0.92437 0.43532 0.25158 0.0
H803 H 0.85358 0.38433 0.25317 0.0
H804 H 0.59735 0.41418 0.08285 0.0
H805 H 0.55039 0.43889 0.08466 0.0
H806 H 0.63316 0.53397 0.10684 0.0
H807 H 0.68078 0.50958 0.10499 0.0
H808 H 0.51505 0.44533 0.10486 0.0
H809 H 0.6023 0.59324 0.08335 0.0
H810 H 0.61502 0.55427 0.08191 0.0
H811 H 0.62828 0.58429 0.09478 0.0
C812 C 0.6059 0.44064 0.08803 0.0
C813 C 0.64295 0.45995 0.09376 0.0
C814 C 0.57889 0.45466 0.08906 0.0
C815 C 0.5883 0.48844 0.09581 0.0
C816 C 0.62551 0.50823 0.10143 0.0
H817 H 0.46062 0.61158 0.11492 0.0
H818 H 0.50755 0.58694 0.11288 0.0
C819 C 0.65268 0.49421 0.10038 0.0
C820 C 0.55831 0.50164 0.0973 0.0
H821 H 0.5422 0.58001 0.09277 0.0
C822 C 0.52092 0.47473 0.10218 0.0
C823 C 0.56598 0.53998 0.09379 0.0
C824 C 0.60491 0.56956 0.08807 0.0
C825 C 0.49127 0.48536 0.10385 0.0
C826 C 0.49894 0.52372 0.10035 0.0
C827 C 0.53633 0.5506 0.09545 0.0
C828 C 0.46906 0.53704 0.10192 0.0
C829 C 0.45239 0.45579 0.1096 0.0
C830 C 0.43155 0.51707 0.09646 0.0
C831 C 0.40437 0.53104 0.09765 0.0
C832 C 0.4144 0.56544 0.10424 0.0
C833 C 0.45183 0.58502 0.10977 0.0
C834 C 0.47882 0.57103 0.1086 0.0
H835 H 0.45509 0.43221 0.11434 0.0
H836 H 0.44226 0.4711 0.11574 0.0
H837 H 0.42899 0.44093 0.10291 0.0
H838 H 0.42361 0.49119 0.09109 0.0
H839 H 0.37596 0.51546 0.09321 0.0
H840 H 0.85435 0.45418 0.43775 0.0
H841 H 0.9264 0.49963 0.43687 0.0
H842 H 0.94435 0.40171 0.42719 0.0
H843 H 0.87168 0.35557 0.42803 0.0
H844 H 0.98755 0.49458 0.44959 0.0
H845 H 1.00508 0.48912 0.40198 0.0
H846 H 0.95711 0.47279 0.40878 0.0
H847 H 0.97952 0.44172 0.40936 0.0
C848 C 0.87346 0.44212 0.43541 0.0
C849 C 0.85715 0.40116 0.43291 0.0
C850 C 0.91472 0.46824 0.43493 0.0
C851 C 0.9407 0.45418 0.43186 0.0
C852 C 0.92473 0.41327 0.42944 0.0
H853 H 0.19798 0.57486 0.42234 0.0
H854 H 0.12629 0.52766 0.42307 0.0
C855 C 0.88326 0.38692 0.42997 0.0
C856 C 0.98445 0.48263 0.43134 0.0
H857 H 0.06383 0.52807 0.41275 0.0
C858 C 1.00431 0.50191 0.44154 0.0
C859 C 1.00614 0.49214 0.42083 0.0
C860 C 0.98599 0.47318 0.40957 0.0
C861 C 0.04543 0.53012 0.44155 0.0
C862 C 0.0671 0.5401 0.43101 0.0
C863 C 0.0472 0.5206 0.42081 0.0
C864 C 0.11068 0.5697 0.43041 0.0
C865 C 0.06542 0.54822 0.45291 0.0
C866 C 0.1259 0.60946 0.4341 0.0
C867 C 0.16717 0.63667 0.43376 0.0
C868 C 0.19391 0.6247 0.4296 0.0
C869 C 0.17836 0.58518 0.42562 0.0
C870 C 0.13728 0.55805 0.42603 0.0
H871 H 0.04758 0.5297 0.46037 0.0
H872 H 0.09577 0.55169 0.45331 0.0
H873 H 0.06847 0.57826 0.45382 0.0
H874 H 0.10588 0.61946 0.43725 0.0
H875 H 0.17811 0.66692 0.43681 0.0
H876 H 0.64159 0.18602 0.7604 0.0
H877 H 0.61561 0.11398 0.76068 0.0
H878 H 0.49568 0.09356 0.76494 0.0
H879 H 0.52148 0.16604 0.76452 0.0
H880 H 0.57363 0.06012 0.7782 0.0
H881 H 0.48417 0.02 0.7379 0.0
H882 H 0.52113 0.07092 0.7414 0.0
H883 H 0.47262 0.04778 0.74816 0.0
C884 C 0.60961 0.16632 0.76132 0.0
C885 C 0.58358 0.18187 0.7624 0.0
C886 C 0.59484 0.12507 0.7615 0.0
C887 C 0.55369 0.09833 0.7627 0.0
C888 C 0.52749 0.11362 0.76378 0.0
H889 H 0.40888 0.84109 0.76777 0.0
H890 H 0.43563 0.91319 0.76709 0.0
C891 C 0.54229 0.15505 0.7636 0.0
C892 C 0.53868 0.05456 0.76313 0.0
H893 H 0.47779 0.96628 0.7494 0.0
C894 C 0.55278 0.03959 0.77188 0.0
C895 C 0.51156 0.02786 0.75486 0.0
C896 C 0.49669 0.04237 0.74498 0.0
C897 C 0.53991 0.99855 0.77273 0.0
C898 C 0.51274 0.97183 0.76448 0.0
C899 C 0.4987 0.98682 0.75571 0.0
C900 C 0.49728 0.928 0.76501 0.0
C901 C 0.55472 0.98402 0.78263 0.0
C902 C 0.52307 0.91219 0.764 0.0
C903 C 0.50783 0.87069 0.76441 0.0
C904 C 0.4665 0.84434 0.76578 0.0
C905 C 0.44088 0.86041 0.76672 0.0
C906 C 0.45609 0.90171 0.76632 0.0
H907 H 0.56759 1.00654 0.78966 0.0
H908 H 0.53013 0.9557 0.78628 0.0
H909 H 0.57848 0.97815 0.77943 0.0
H910 H 0.55492 0.9319 0.76277 0.0
H911 H 0.52833 0.85929 0.7636 0.0
H912 H 0.52129 0.68097 0.59198 0.0
H913 H 0.54509 0.63272 0.5903 0.0
H914 H 0.45368 0.55392 0.61426 0.0
H915 H 0.42968 0.60144 0.61595 0.0
H916 H 0.57167 0.59852 0.60785 0.0
H917 H 0.43519 0.4828 0.58571 0.0
H918 H 0.44712 0.53429 0.58691 0.0
H919 H 0.42574 0.50084 0.59899 0.0
C920 C 0.50645 0.65348 0.59694 0.0
C921 C 0.47339 0.64497 0.60403 0.0
C922 C 0.52002 0.62593 0.59596 0.0
C923 C 0.50061 0.58937 0.60198 0.0
C924 C 0.46853 0.5815 0.60934 0.0
H925 H 0.5291 0.37895 0.607 0.0
H926 H 0.50623 0.42786 0.60887 0.0
C927 C 0.45501 0.6089 0.61034 0.0
C928 C 0.51364 0.55926 0.60063 0.0
H929 H 0.48149 0.4632 0.59192 0.0
C930 C 0.55209 0.56902 0.6043 0.0
C931 C 0.48791 0.52069 0.59606 0.0
C932 C 0.4468 0.50901 0.59159 0.0
C933 C 0.56525 0.541 0.60373 0.0
C934 C 0.53954 0.50242 0.59914 0.0
C935 C 0.50109 0.49269 0.59547 0.0
C936 C 0.55248 0.47221 0.5978 0.0
C937 C 0.60626 0.55266 0.60828 0.0
C938 C 0.58535 0.48046 0.59073 0.0
C939 C 0.59841 0.45272 0.58965 0.0
C940 C 0.57871 0.41586 0.59555 0.0
C941 C 0.54497 0.40705 0.60236 0.0
C942 C 0.53192 0.43499 0.60345 0.0
H943 H 0.61737 0.57835 0.61435 0.0
H944 H 0.60609 0.52717 0.6128 0.0
H945 H 0.62767 0.56172 0.60095 0.0
H946 H 0.60105 0.50851 0.58605 0.0
H947 H 0.62427 0.46042 0.58425 0.0
H948 H 0.18546 0.62544 0.93527 0.0
H949 H 0.11343 0.59955 0.93538 0.0
H950 H 0.09255 0.47905 0.93276 0.0
H951 H 0.16503 0.50477 0.93278 0.0
H952 H 0.05781 0.55469 0.91856 0.0
H953 H 0.02183 0.47222 0.96023 0.0
H954 H 0.07234 0.50863 0.95606 0.0
H955 H 0.04871 0.45905 0.95007 0.0
C956 C 0.16567 0.59337 0.93477 0.0
C957 C 0.18109 0.56715 0.93406 0.0
C958 C 0.12442 0.57865 0.93482 0.0
C959 C 0.09757 0.53738 0.93422 0.0
C960 C 0.11273 0.511 0.93345 0.0
H961 H 0.84014 0.39158 0.93182 0.0
H962 H 0.9123 0.4186 0.9321 0.0
C963 C 0.15415 0.52574 0.9334 0.0
C964 C 0.05379 0.52235 0.93414 0.0
H965 H 0.96696 0.46385 0.94898 0.0
C966 C 0.03793 0.53493 0.92523 0.0
C967 C 0.02796 0.49669 0.94287 0.0
C968 C 0.0435 0.48357 0.95291 0.0
C969 C 0.99681 0.52189 0.92468 0.0
C970 C 0.97094 0.49613 0.9334 0.0
C971 C 0.98684 0.48367 0.94232 0.0
C972 C 0.92706 0.48047 0.93319 0.0
C973 C 0.98127 0.53495 0.91462 0.0
C974 C 0.9112 0.50629 0.9338 0.0
C975 C 0.86967 0.49089 0.93361 0.0
C976 C 0.84333 0.44937 0.93288 0.0
C977 C 0.85945 0.42372 0.93238 0.0
C978 C 0.90078 0.43909 0.93255 0.0
H979 H 1.00309 0.54662 0.90735 0.0
H980 H 0.95263 0.50976 0.91141 0.0
H981 H 0.97567 0.55921 0.91747 0.0
H982 H 0.93091 0.53832 0.93452 0.0
H983 H 0.85824 0.51144 0.93408 0.0
H984 H 0.45692 0.84387 0.27075 0.0
H985 H 0.50239 0.91591 0.26987 0.0
H986 H 0.40252 0.93473 0.26423 0.0
H987 H 0.35638 0.8622 0.26524 0.0
H988 H 0.51468 0.96728 0.25158 0.0
H989 H 0.4627 1.01196 0.29073 0.0
H990 H 0.4494 0.96073 0.28791 0.0
H991 H 0.42416 0.98265 0.28048 0.0
C992 C 0.44441 0.86322 0.2694 0.0
C993 C 0.40289 0.84719 0.2681 0.0
C994 C 0.47057 0.90447 0.26887 0.0
C995 C 0.4559 0.93078 0.2671 0.0
C996 C 0.41445 0.91503 0.26581 0.0
H997 H 0.57157 0.18865 0.26034 0.0
H998 H 0.52499 0.11677 0.26101 0.0
C999 C 0.38813 0.87357 0.26635 0.0
C1000 C 0.48442 0.97451 0.26628 0.0
H1001 H 0.51124 0.06425 0.27908 0.0
C1002 C 0.514 0.9885 0.25761 0.0
C1003 C 0.48351 1.00213 0.27415 0.0
C1004 C 0.4535 0.98872 0.28392 0.0
C1005 C 0.54234 0.02939 0.2565 0.0
C1006 C 0.54154 0.057 0.2644 0.0
C1007 C 0.51187 0.04303 0.27305 0.0
C1008 C 0.5706 0.10063 0.26372 0.0
C1009 C 0.57235 0.04278 0.24673 0.0
C1010 C 0.61191 0.11562 0.26506 0.0
C1011 C 0.63884 0.15694 0.26465 0.0
C1012 C 0.62486 0.184 0.26297 0.0
C1013 C 0.58347 0.16876 0.26163 0.0
C1014 C 0.55669 0.1276 0.26203 0.0
H1015 H 0.56282 0.01976 0.23984 0.0
H1016 H 0.57694 0.0711 0.24284 0.0
H1017 H 0.60151 0.04821 0.25013 0.0
H1018 H 0.62327 0.09539 0.26658 0.0
H1019 H 0.67047 0.16768 0.26578 0.0
loop_
_geom_bond_atom_site_label_1
_geom_bond_atom_site_label_2
_geom_bond_distance
_geom_bond_site_symmetry_2
_ccdc_geom_bond_type
Mg0 O7 2.141 . S
Mg0 O8 2.048 . S
Mg0 O9 2.048 . S
Mg0 O12 2.141 . S
C1 O2 1.313 . S
C1 O8 1.195 . S
O2 C1 1.313 . S
C3 O4 1.245 . S
C3 O12 1.289 . S
O4 C3 1.245 . S
C5 O6 1.245 . S
C5 O7 1.289 . S
O6 C5 1.245 . S
O7 Mg0 2.141 . S
O7 C5 1.289 . S
O8 Mg0 2.048 . S
O8 C1 1.195 . S
O9 Mg0 2.048 . S
O9 C10 1.195 . S
C10 O9 1.195 . S
C10 O11 1.313 . S
O11 C10 1.313 . S
O12 Mg0 2.141 . S
O12 C3 1.289 . S
Mg13 O20 2.141 . S
Mg13 O21 2.048 . S
Mg13 O22 2.048 . S
Mg13 O25 2.141 . S
C14 O15 1.313 . S
C14 O21 1.195 . S
O15 C14 1.313 . S
C16 O17 1.245 . S
C16 O25 1.289 . S
O17 C16 1.245 . S
C18 O19 1.245 . S
C18 O20 1.289 . S
O19 C18 1.245 . S
O20 Mg13 2.141 . S
O20 C18 1.289 . S
O21 Mg13 2.048 . S
O21 C14 1.195 . S
O22 Mg13 2.048 . S
O22 C23 1.195 . S
C23 O22 1.195 . S
C23 O24 1.313 . S
O24 C23 1.313 . S
O25 Mg13 2.141 . S
O25 C16 1.289 . S
Mg26 O33 2.141 . S
Mg26 O34 2.048 . S
Mg26 O35 2.048 . S
Mg26 O38 2.141 . S
C27 O28 1.313 . S
C27 O34 1.195 . S
O28 C27 1.313 . S
C29 O30 1.245 . S
C29 O38 1.289 . S
O30 C29 1.245 . S
C31 O32 1.245 . S
C31 O33 1.289 . S
O32 C31 1.245 . S
O33 Mg26 2.141 . S
O33 C31 1.289 . S
O34 Mg26 2.048 . S
O34 C27 1.195 . S
O35 Mg26 2.048 . S
O35 C36 1.195 . S
C36 O35 1.195 . S
C36 O37 1.313 . S
O37 C36 1.313 . S
O38 Mg26 2.141 . S
O38 C29 1.289 . S
Mg39 O46 2.141 . S
Mg39 O47 2.048 . S
Mg39 O48 2.048 . S
Mg39 O51 2.141 . S
C40 O41 1.313 . S
C40 O47 1.195 . S
O41 C40 1.313 . S
C42 O43 1.245 . S
C42 O51 1.289 . S
O43 C42 1.245 . S
C44 O45 1.245 . S
C44 O46 1.289 . S
O45 C44 1.245 . S
O46 Mg39 2.141 . S
O46 C44 1.289 . S
O47 Mg39 2.048 . S
O47 C40 1.195 . S
O48 Mg39 2.048 . S
O48 C49 1.195 . S
C49 O48 1.195 . S
C49 O50 1.313 . S
O50 C49 1.313 . S
O51 Mg39 2.141 . S
O51 C42 1.289 . S
Mg52 O59 2.141 . S
Mg52 O60 2.048 . S
Mg52 O61 2.048 . S
Mg52 O64 2.141 . S
C53 O54 1.313 . S
C53 O60 1.195 . S
O54 C53 1.313 . S
C55 O56 1.245 . S
C55 O64 1.289 . S
O56 C55 1.245 . S
C57 O58 1.245 . S
C57 O59 1.289 . S
O58 C57 1.245 . S
O59 Mg52 2.141 . S
O59 C57 1.289 . S
O60 Mg52 2.048 . S
O60 C53 1.195 . S
O61 Mg52 2.048 . S
O61 C62 1.195 . S
C62 O61 1.195 . S
C62 O63 1.313 . S
O63 C62 1.313 . S
O64 Mg52 2.141 . S
O64 C55 1.289 . S
Mg65 O72 2.141 . S
Mg65 O73 2.048 . S
Mg65 O74 2.048 . S
Mg65 O77 2.141 . S
C66 O67 1.313 . S
C66 O73 1.195 . S
O67 C66 1.313 . S
C68 O69 1.245 . S
C68 O77 1.289 . S
O69 C68 1.245 . S
C70 O71 1.245 . S
C70 O72 1.289 . S
O71 C70 1.245 . S
O72 Mg65 2.141 . S
O72 C70 1.289 . S
O73 Mg65 2.048 . S
O73 C66 1.195 . S
O74 Mg65 2.048 . S
O74 C75 1.195 . S
C75 O74 1.195 . S
C75 O76 1.313 . S
O76 C75 1.313 . S
O77 Mg65 2.141 . S
O77 C68 1.289 . S
Mg78 O85 2.141 . S
Mg78 O86 2.048 . S
Mg78 O87 2.048 . S
Mg78 O90 2.141 . S
C79 O80 1.313 . S
C79 O86 1.195 . S
O80 C79 1.313 . S
C81 O82 1.245 . S
C81 O90 1.289 . S
O82 C81 1.245 . S
C83 O84 1.245 . S
C83 O85 1.289 . S
O84 C83 1.245 . S
O85 Mg78 2.141 . S
O85 C83 1.289 . S
O86 Mg78 2.048 . S
O86 C79 1.195 . S
O87 Mg78 2.048 . S
O87 C88 1.195 . S
C88 O87 1.195 . S
C88 O89 1.313 . S
O89 C88 1.313 . S
O90 Mg78 2.141 . S
O90 C81 1.289 . S
Mg91 O98 2.141 . S
Mg91 O99 2.048 . S
Mg91 O100 2.048 . S
Mg91 O103 2.141 . S
C92 O93 1.313 . S
C92 O99 1.195 . S
O93 C92 1.313 . S
C94 O95 1.245 . S
C94 O103 1.289 . S
O95 C94 1.245 . S
C96 O97 1.245 . S
C96 O98 1.289 . S
O97 C96 1.245 . S
O98 Mg91 2.141 . S
O98 C96 1.289 . S
O99 Mg91 2.048 . S
O99 C92 1.195 . S
O100 Mg91 2.048 . S
O100 C101 1.195 . S
C101 O100 1.195 . S
C101 O102 1.313 . S
O102 C101 1.313 . S
O103 Mg91 2.141 . S
O103 C94 1.289 . S
Mg104 O111 2.141 . S
Mg104 O112 2.048 . S
Mg104 O113 2.048 . S
Mg104 O116 2.141 . S
C105 O106 1.313 . S
C105 O112 1.195 . S
O106 C105 1.313 . S
C107 O108 1.245 . S
C107 O116 1.289 . S
O108 C107 1.245 . S
C109 O110 1.245 . S
C109 O111 1.289 . S
O110 C109 1.245 . S
O111 Mg104 2.141 . S
O111 C109 1.289 . S
O112 Mg104 2.048 . S
O112 C105 1.195 . S
O113 Mg104 2.048 . S
O113 C114 1.195 . S
C114 O113 1.195 . S
C114 O115 1.313 . S
O115 C114 1.313 . S
O116 Mg104 2.141 . S
O116 C107 1.289 . S
Mg117 O124 2.141 . S
Mg117 O125 2.048 . S
Mg117 O126 2.048 . S
Mg117 O129 2.141 . S
C118 O119 1.313 . S
C118 O125 1.195 . S
O119 C118 1.313 . S
C120 O121 1.245 . S
C120 O129 1.289 . S
O121 C120 1.245 . S
C122 O123 1.245 . S
C122 O124 1.289 . S
O123 C122 1.245 . S
O124 Mg117 2.141 . S
O124 C122 1.289 . S
O125 Mg117 2.048 . S
O125 C118 1.195 . S
O126 Mg117 2.048 . S
O126 C127 1.195 . S
C127 O126 1.195 . S
C127 O128 1.313 . S
O128 C127 1.313 . S
O129 Mg117 2.141 . S
O129 C120 1.289 . S
Mg130 O137 2.141 . S
Mg130 O138 2.048 . S
Mg130 O139 2.048 . S
Mg130 O142 2.141 . S
C131 O132 1.313 . S
C131 O138 1.195 . S
O132 C131 1.313 . S
C133 O134 1.245 . S
C133 O142 1.289 . S
O134 C133 1.245 . S
C135 O136 1.245 . S
C135 O137 1.289 . S
O136 C135 1.245 . S
O137 Mg130 2.141 . S
O137 C135 1.289 . S
O138 Mg130 2.048 . S
O138 C131 1.195 . S
O139 Mg130 2.048 . S
O139 C140 1.195 . S
C140 O139 1.195 . S
C140 O141 1.313 . S
O141 C140 1.313 . S
O142 Mg130 2.141 . S
O142 C133 1.289 . S
Mg143 O150 2.141 . S
Mg143 O151 2.048 . S
Mg143 O152 2.048 . S
Mg143 O155 2.141 . S
C144 O145 1.313 . S
C144 O151 1.195 . S
O145 C144 1.313 . S
C146 O147 1.245 . S
C146 O155 1.289 . S
O147 C146 1.245 . S
C148 O149 1.245 . S
C148 O150 1.289 . S
O149 C148 1.245 . S
O150 Mg143 2.141 . S
O150 C148 1.289 . S
O151 Mg143 2.048 . S
O151 C144 1.195 . S
O152 Mg143 2.048 . S
O152 C153 1.195 . S
C153 O152 1.195 . S
C153 O154 1.313 . S
O154 C153 1.313 . S
O155 Mg143 2.141 . S
O155 C146 1.289 . S
H156 C164 0.929 . S
H157 C166 0.930 . S
H158 C168 0.930 . S
H159 C171 0.929 . S
H160 C174 0.930 . S
H161 C176 0.960 . S
H162 C176 0.960 . S
H163 C176 0.960 . S
C164 H156 0.929 . S
C164 C165 1.377 . S
C164 C166 1.384 . S
C165 C164 1.377 . S
C165 C171 1.390 . S
C166 H157 0.930 . S
C166 C164 1.384 . S
C166 C167 1.372 . S
C167 C166 1.372 . S
C167 C168 1.400 . S
C167 C172 1.490 . S
C168 H158 0.930 . S
C168 C167 1.400 . S
C168 C171 1.386 . S
H169 C185 0.930 . S
H170 C186 0.931 . S
C171 H159 0.929 . S
C171 C165 1.390 . S
C171 C168 1.386 . S
C172 C167 1.490 . S
C172 C174 1.395 . S
C172 C175 1.403 . S
H173 C179 0.930 . S
C174 H160 0.930 . S
C174 C172 1.395 . S
C174 C177 1.403 1_556 S
C175 C172 1.403 . S
C175 C176 1.524 . S
C175 C179 1.400 1_556 S
C176 H161 0.960 . S
C176 H162 0.960 . S
C176 H163 0.960 . S
C176 C175 1.524 . S
C177 C174 1.403 1_554 S
C177 C178 1.392 . S
C177 C181 1.495 . S
C178 C177 1.392 . S
C178 C179 1.385 . S
C178 C180 1.478 . S
C179 H173 0.930 . S
C179 C175 1.400 1_554 S
C179 C178 1.385 . S
C180 C178 1.478 . S
C180 C182 1.381 . S
C180 C186 1.383 . S
C181 C177 1.495 . S
C181 H187 0.959 . S
C181 H188 0.961 . S
C181 H189 0.960 . S
C182 C180 1.381 . S
C182 C183 1.394 . S
C182 H190 0.930 . S
C183 C182 1.394 . S
C183 C184 1.383 . S
C183 H191 0.929 . S
C184 C183 1.383 . S
C184 C185 1.377 . S
C185 H169 0.930 . S
C185 C184 1.377 . S
C185 C186 1.379 . S
C186 H170 0.931 . S
C186 C180 1.383 . S
C186 C185 1.379 . S
H187 C181 0.959 . S
H188 C181 0.961 . S
H189 C181 0.960 . S
H190 C182 0.930 . S
H191 C183 0.929 . S
H192 C200 0.929 . S
H193 C202 0.930 . S
H194 C204 0.930 . S
H195 C207 0.929 . S
H196 C210 0.930 . S
H197 C212 0.960 . S
H198 C212 0.960 . S
H199 C212 0.960 . S
C200 H192 0.929 . S
C200 C201 1.377 . S
C200 C202 1.384 . S
C201 C200 1.377 . S
C201 C207 1.390 . S
C202 H193 0.930 . S
C202 C200 1.384 . S
C202 C203 1.372 . S
C203 C202 1.372 . S
C203 C204 1.400 . S
C203 C208 1.490 . S
C204 H194 0.930 . S
C204 C203 1.400 . S
C204 C207 1.386 . S
H205 C221 0.930 . S
H206 C222 0.931 . S
C207 H195 0.929 . S
C207 C201 1.390 . S
C207 C204 1.386 . S
C208 C203 1.490 . S
C208 C210 1.395 . S
C208 C211 1.403 . S
H209 C215 0.930 . S
C210 H196 0.930 . S
C210 C208 1.395 . S
C210 C213 1.403 . S
C211 C208 1.403 . S
C211 C212 1.524 . S
C211 C215 1.400 . S
C212 H197 0.960 . S
C212 H198 0.960 . S
C212 H199 0.960 . S
C212 C211 1.524 . S
C213 C210 1.403 . S
C213 C214 1.392 . S
C213 C217 1.495 . S
C214 C213 1.392 . S
C214 C215 1.385 . S
C214 C216 1.478 . S
C215 H209 0.930 . S
C215 C211 1.400 . S
C215 C214 1.385 . S
C216 C214 1.478 . S
C216 C218 1.381 . S
C216 C222 1.383 . S
C217 C213 1.495 . S
C217 H223 0.959 . S
C217 H224 0.961 . S
C217 H225 0.960 . S
C218 C216 1.381 . S
C218 C219 1.394 . S
C218 H226 0.930 . S
C219 C218 1.394 . S
C219 C220 1.383 . S
C219 H227 0.929 . S
C220 C219 1.383 . S
C220 C221 1.377 . S
C221 H205 0.930 . S
C221 C220 1.377 . S
C221 C222 1.379 . S
C222 H206 0.931 . S
C222 C216 1.383 . S
C222 C221 1.379 . S
H223 C217 0.959 . S
H224 C217 0.961 . S
H225 C217 0.960 . S
H226 C218 0.930 . S
H227 C219 0.929 . S
H228 C236 0.929 . S
H229 C238 0.930 . S
H230 C240 0.930 . S
H231 C243 0.929 . S
H232 C246 0.930 . S
H233 C248 0.960 . S
H234 C248 0.960 . S
H235 C248 0.960 . S
C236 H228 0.929 . S
C236 C237 1.377 . S
C236 C238 1.384 . S
C237 C236 1.377 . S
C237 C243 1.390 . S
C238 H229 0.930 . S
C238 C236 1.384 . S
C238 C239 1.372 . S
C239 C238 1.372 . S
C239 C240 1.400 . S
C239 C244 1.490 . S
C240 H230 0.930 . S
C240 C239 1.400 . S
C240 C243 1.386 . S
H241 C257 0.930 . S
H242 C258 0.931 . S
C243 H231 0.929 . S
C243 C237 1.390 . S
C243 C240 1.386 . S
C244 C239 1.490 . S
C244 C246 1.395 . S
C244 C247 1.403 . S
H245 C251 0.930 . S
C246 H232 0.930 . S
C246 C244 1.395 . S
C246 C249 1.403 . S
C247 C244 1.403 . S
C247 C248 1.524 . S
C247 C251 1.400 . S
C248 H233 0.960 . S
C248 H234 0.960 . S
C248 H235 0.960 . S
C248 C247 1.524 . S
C249 C246 1.403 . S
C249 C250 1.392 . S
C249 C253 1.495 . S
C250 C249 1.392 . S
C250 C251 1.385 . S
C250 C252 1.478 . S
C251 H245 0.930 . S
C251 C247 1.400 . S
C251 C250 1.385 . S
C252 C250 1.478 . S
C252 C254 1.381 . S
C252 C258 1.383 . S
C253 C249 1.495 . S
C253 H259 0.959 . S
C253 H260 0.961 . S
C253 H261 0.960 . S
C254 C252 1.381 . S
C254 C255 1.394 . S
C254 H262 0.930 . S
C255 C254 1.394 . S
C255 C256 1.383 . S
C255 H263 0.929 . S
C256 C255 1.383 . S
C256 C257 1.377 . S
C257 H241 0.930 . S
C257 C256 1.377 . S
C257 C258 1.379 . S
C258 H242 0.931 . S
C258 C252 1.383 . S
C258 C257 1.379 . S
H259 C253 0.959 . S
H260 C253 0.961 . S
H261 C253 0.960 . S
H262 C254 0.930 . S
H263 C255 0.929 . S
H264 C272 0.929 . S
H265 C274 0.930 . S
H266 C276 0.930 . S
H267 C279 0.929 . S
H268 C282 0.930 . S
H269 C284 0.960 . S
H270 C284 0.960 . S
H271 C284 0.960 . S
C272 H264 0.929 . S
C272 C273 1.377 . S
C272 C274 1.384 . S
C273 C272 1.377 . S
C273 C279 1.390 . S
C274 H265 0.930 . S
C274 C272 1.384 . S
C274 C275 1.372 . S
C275 C274 1.372 . S
C275 C276 1.400 . S
C275 C280 1.490 . S
C276 H266 0.930 . S
C276 C275 1.400 . S
C276 C279 1.386 . S
H277 C293 0.930 . S
H278 C294 0.931 . S
C279 H267 0.929 . S
C279 C273 1.390 . S
C279 C276 1.386 . S
C280 C275 1.490 . S
C280 C282 1.395 . S
C280 C283 1.403 . S
H281 C287 0.930 . S
C282 H268 0.930 . S
C282 C280 1.395 . S
C282 C285 1.403 1_554 S
C283 C280 1.403 . S
C283 C284 1.524 . S
C283 C287 1.400 1_554 S
C284 H269 0.960 . S
C284 H270 0.960 . S
C284 H271 0.960 . S
C284 C283 1.524 . S
C285 C282 1.403 1_556 S
C285 C286 1.392 . S
C285 C289 1.495 . S
C286 C285 1.392 . S
C286 C287 1.385 . S
C286 C288 1.478 . S
C287 H281 0.930 . S
C287 C283 1.400 1_556 S
C287 C286 1.385 . S
C288 C286 1.478 . S
C288 C290 1.381 . S
C288 C294 1.383 . S
C289 C285 1.495 . S
C289 H295 0.959 . S
C289 H296 0.961 . S
C289 H297 0.960 . S
C290 C288 1.381 . S
C290 C291 1.394 . S
C290 H298 0.930 . S
C291 C290 1.394 . S
C291 C292 1.383 . S
C291 H299 0.929 . S
C292 C291 1.383 . S
C292 C293 1.377 . S
C293 H277 0.930 . S
C293 C292 1.377 . S
C293 C294 1.379 . S
C294 H278 0.931 . S
C294 C288 1.383 . S
C294 C293 1.379 . S
H295 C289 0.959 . S
H296 C289 0.961 . S
H297 C289 0.960 . S
H298 C290 0.930 . S
H299 C291 0.929 . S
H300 C308 0.929 . S
H301 C310 0.930 . S
H302 C312 0.930 . S
H303 C315 0.929 . S
H304 C318 0.930 . S
H305 C320 0.960 . S
H306 C320 0.960 . S
H307 C320 0.960 . S
C308 H300 0.929 . S
C308 C309 1.377 . S
C308 C310 1.384 . S
C309 C308 1.377 . S
C309 C315 1.390 . S
C310 H301 0.930 . S
C310 C308 1.384 . S
C310 C311 1.372 . S
C311 C310 1.372 . S
C311 C312 1.400 . S
C311 C316 1.490 . S
C312 H302 0.930 . S
C312 C311 1.400 . S
C312 C315 1.386 . S
H313 C329 0.930 . S
H314 C330 0.931 . S
C315 H303 0.929 . S
C315 C309 1.390 . S
C315 C312 1.386 . S
C316 C311 1.490 . S
C316 C318 1.395 . S
C316 C319 1.403 . S
H317 C323 0.930 . S
C318 H304 0.930 . S
C318 C316 1.395 . S
C318 C321 1.403 . S
C319 C316 1.403 . S
C319 C320 1.524 . S
C319 C323 1.400 . S
C320 H305 0.960 . S
C320 H306 0.960 . S
C320 H307 0.960 . S
C320 C319 1.524 . S
C321 C318 1.403 . S
C321 C322 1.392 . S
C321 C325 1.495 . S
C322 C321 1.392 . S
C322 C323 1.385 . S
C322 C324 1.478 . S
C323 H317 0.930 . S
C323 C319 1.400 . S
C323 C322 1.385 . S
C324 C322 1.478 . S
C324 C326 1.381 . S
C324 C330 1.383 . S
C325 C321 1.495 . S
C325 H331 0.959 . S
C325 H332 0.961 . S
C325 H333 0.960 . S
C326 C324 1.381 . S
C326 C327 1.394 . S
C326 H334 0.930 . S
C327 C326 1.394 . S
C327 C328 1.383 . S
C327 H335 0.929 . S
C328 C327 1.383 . S
C328 C329 1.377 . S
C329 H313 0.930 . S
C329 C328 1.377 . S
C329 C330 1.379 . S
C330 H314 0.931 . S
C330 C324 1.383 . S
C330 C329 1.379 . S
H331 C325 0.959 . S
H332 C325 0.961 . S
H333 C325 0.960 . S
H334 C326 0.930 . S
H335 C327 0.929 . S
H336 C344 0.929 . S
H337 C346 0.930 . S
H338 C348 0.930 . S
H339 C351 0.929 . S
H340 C354 0.930 . S
H341 C356 0.960 . S
H342 C356 0.960 . S
H343 C356 0.960 . S
C344 H336 0.929 . S
C344 C345 1.377 . S
C344 C346 1.384 . S
C345 C344 1.377 . S
C345 C351 1.390 . S
C346 H337 0.930 . S
C346 C344 1.384 . S
C346 C347 1.372 . S
C347 C346 1.372 . S
C347 C348 1.400 . S
C347 C352 1.490 . S
C348 H338 0.930 . S
C348 C347 1.400 . S
C348 C351 1.386 . S
H349 C365 0.930 . S
H350 C366 0.931 . S
C351 H339 0.929 . S
C351 C345 1.390 . S
C351 C348 1.386 . S
C352 C347 1.490 . S
C352 C354 1.395 . S
C352 C355 1.403 . S
H353 C359 0.930 . S
C354 H340 0.930 . S
C354 C352 1.395 . S
C354 C357 1.403 . S
C355 C352 1.403 . S
C355 C356 1.524 . S
C355 C359 1.400 . S
C356 H341 0.960 . S
C356 H342 0.960 . S
C356 H343 0.960 . S
C356 C355 1.524 . S
C357 C354 1.403 . S
C357 C358 1.392 . S
C357 C361 1.495 . S
C358 C357 1.392 . S
C358 C359 1.385 . S
C358 C360 1.478 . S
C359 H353 0.930 . S
C359 C355 1.400 . S
C359 C358 1.385 . S
C360 C358 1.478 . S
C360 C362 1.381 . S
C360 C366 1.383 . S
C361 C357 1.495 . S
C361 H367 0.959 . S
C361 H368 0.961 . S
C361 H369 0.960 . S
C362 C360 1.381 . S
C362 C363 1.394 . S
C362 H370 0.930 . S
C363 C362 1.394 . S
C363 C364 1.383 . S
C363 H371 0.929 . S
C364 C363 1.383 . S
C364 C365 1.377 . S
C365 H349 0.930 . S
C365 C364 1.377 . S
C365 C366 1.379 . S
C366 H350 0.931 . S
C366 C360 1.383 . S
C366 C365 1.379 . S
H367 C361 0.959 . S
H368 C361 0.961 . S
H369 C361 0.960 . S
H370 C362 0.930 . S
H371 C363 0.929 . S
H372 C380 0.929 . S
H373 C382 0.930 . S
H374 C384 0.930 . S
H375 C387 0.929 . S
H376 C390 0.930 . S
H377 C392 0.960 . S
H378 C392 0.960 . S
H379 C392 0.960 . S
C380 H372 0.929 . S
C380 C381 1.377 . S
C380 C382 1.384 . S
C381 C380 1.377 . S
C381 C387 1.390 . S
C382 H373 0.930 . S
C382 C380 1.384 . S
C382 C383 1.372 . S
C383 C382 1.372 . S
C383 C384 1.400 . S
C383 C388 1.490 . S
C384 H374 0.930 . S
C384 C383 1.400 . S
C384 C387 1.386 . S
H385 C401 0.930 . S
H386 C402 0.931 . S
C387 H375 0.929 . S
C387 C381 1.390 . S
C387 C384 1.386 . S
C388 C383 1.490 . S
C388 C390 1.395 . S
C388 C391 1.403 . S
H389 C395 0.930 . S
C390 H376 0.930 . S
C390 C388 1.395 . S
C390 C393 1.403 . S
C391 C388 1.403 . S
C391 C392 1.524 . S
C391 C395 1.400 . S
C392 H377 0.960 . S
C392 H378 0.960 . S
C392 H379 0.960 . S
C392 C391 1.524 . S
C393 C390 1.403 . S
C393 C394 1.392 . S
C393 C397 1.495 . S
C394 C393 1.392 . S
C394 C395 1.385 . S
C394 C396 1.478 . S
C395 H389 0.930 . S
C395 C391 1.400 . S
C395 C394 1.385 . S
C396 C394 1.478 . S
C396 C398 1.381 . S
C396 C402 1.383 . S
C397 C393 1.495 . S
C397 H403 0.959 . S
C397 H404 0.961 . S
C397 H405 0.960 . S
C398 C396 1.381 . S
C398 C399 1.394 . S
C398 H406 0.930 . S
C399 C398 1.394 . S
C399 C400 1.383 . S
C399 H407 0.929 . S
C400 C399 1.383 . S
C400 C401 1.377 . S
C401 H385 0.930 . S
C401 C400 1.377 . S
C401 C402 1.379 . S
C402 H386 0.931 . S
C402 C396 1.383 . S
C402 C401 1.379 . S
H403 C397 0.959 . S
H404 C397 0.961 . S
H405 C397 0.960 . S
H406 C398 0.930 . S
H407 C399 0.929 . S
H408 C416 0.929 . S
H409 C418 0.930 . S
H410 C420 0.930 . S
H411 C423 0.929 . S
H412 C426 0.930 . S
H413 C428 0.960 . S
H414 C428 0.960 . S
H415 C428 0.960 . S
C416 H408 0.929 . S
C416 C417 1.377 . S
C416 C418 1.384 . S
C417 C416 1.377 . S
C417 C423 1.390 . S
C418 H409 0.930 . S
C418 C416 1.384 . S
C418 C419 1.372 . S
C419 C418 1.372 . S
C419 C420 1.400 . S
C419 C424 1.490 . S
C420 H410 0.930 . S
C420 C419 1.400 . S
C420 C423 1.386 . S
H421 C437 0.930 . S
H422 C438 0.931 . S
C423 H411 0.929 . S
C423 C417 1.390 . S
C423 C420 1.386 . S
C424 C419 1.490 . S
C424 C426 1.395 . S
C424 C427 1.403 . S
H425 C431 0.930 . S
C426 H412 0.930 . S
C426 C424 1.395 . S
C426 C429 1.403 . S
C427 C424 1.403 . S
C427 C428 1.524 . S
C427 C431 1.400 . S
C428 H413 0.960 . S
C428 H414 0.960 . S
C428 H415 0.960 . S
C428 C427 1.524 . S
C429 C426 1.403 . S
C429 C430 1.392 . S
C429 C433 1.495 . S
C430 C429 1.392 . S
C430 C431 1.385 . S
C430 C432 1.478 . S
C431 H425 0.930 . S
C431 C427 1.400 . S
C431 C430 1.385 . S
C432 C430 1.478 . S
C432 C434 1.381 . S
C432 C438 1.383 . S
C433 C429 1.495 . S
C433 H439 0.959 . S
C433 H440 0.961 . S
C433 H441 0.960 . S
C434 C432 1.381 . S
C434 C435 1.394 . S
C434 H442 0.930 . S
C435 C434 1.394 . S
C435 C436 1.383 . S
C435 H443 0.929 . S
C436 C435 1.383 . S
C436 C437 1.377 . S
C437 H421 0.930 . S
C437 C436 1.377 . S
C437 C438 1.379 . S
C438 H422 0.931 . S
C438 C432 1.383 . S
C438 C437 1.379 . S
H439 C433 0.959 . S
H440 C433 0.961 . S
H441 C433 0.960 . S
H442 C434 0.930 . S
H443 C435 0.929 . S
H444 C452 0.929 . S
H445 C454 0.930 . S
H446 C456 0.930 . S
H447 C459 0.929 . S
H448 C462 0.930 . S
H449 C464 0.960 . S
H450 C464 0.960 . S
H451 C464 0.960 . S
C452 H444 0.929 . S
C452 C453 1.377 . S
C452 C454 1.384 . S
C453 C452 1.377 . S
C453 C459 1.390 . S
C454 H445 0.930 . S
C454 C452 1.384 . S
C454 C455 1.372 . S
C455 C454 1.372 . S
C455 C456 1.400 . S
C455 C460 1.490 . S
C456 H446 0.930 . S
C456 C455 1.400 . S
C456 C459 1.386 . S
H457 C473 0.930 . S
H458 C474 0.931 . S
C459 H447 0.929 . S
C459 C453 1.390 . S
C459 C456 1.386 . S
C460 C455 1.490 . S
C460 C462 1.395 . S
C460 C463 1.403 . S
H461 C467 0.930 . S
C462 H448 0.930 . S
C462 C460 1.395 . S
C462 C465 1.403 . S
C463 C460 1.403 . S
C463 C464 1.524 . S
C463 C467 1.400 . S
C464 H449 0.960 . S
C464 H450 0.960 . S
C464 H451 0.960 . S
C464 C463 1.524 . S
C465 C462 1.403 . S
C465 C466 1.392 . S
C465 C469 1.495 . S
C466 C465 1.392 . S
C466 C467 1.385 . S
C466 C468 1.478 . S
C467 H461 0.930 . S
C467 C463 1.400 . S
C467 C466 1.385 . S
C468 C466 1.478 . S
C468 C470 1.381 . S
C468 C474 1.383 . S
C469 C465 1.495 . S
C469 H475 0.959 . S
C469 H476 0.961 . S
C469 H477 0.960 . S
C470 C468 1.381 . S
C470 C471 1.394 . S
C470 H478 0.930 . S
C471 C470 1.394 . S
C471 C472 1.383 . S
C471 H479 0.929 . S
C472 C471 1.383 . S
C472 C473 1.377 . S
C473 H457 0.930 . S
C473 C472 1.377 . S
C473 C474 1.379 . S
C474 H458 0.931 . S
C474 C468 1.383 . S
C474 C473 1.379 . S
H475 C469 0.959 . S
H476 C469 0.961 . S
H477 C469 0.960 . S
H478 C470 0.930 . S
H479 C471 0.929 . S
H480 C488 0.929 . S
H481 C490 0.930 . S
H482 C492 0.930 . S
H483 C495 0.929 . S
H484 C498 0.930 . S
H485 C500 0.960 . S
H486 C500 0.960 . S
H487 C500 0.960 . S
C488 H480 0.929 . S
C488 C489 1.377 . S
C488 C490 1.384 . S
C489 C488 1.377 . S
C489 C495 1.390 . S
C490 H481 0.930 . S
C490 C488 1.384 . S
C490 C491 1.372 . S
C491 C490 1.372 . S
C491 C492 1.400 . S
C491 C496 1.490 . S
C492 H482 0.930 . S
C492 C491 1.400 . S
C492 C495 1.386 . S
H493 C509 0.930 . S
H494 C510 0.931 . S
C495 H483 0.929 . S
C495 C489 1.390 . S
C495 C492 1.386 . S
C496 C491 1.490 . S
C496 C498 1.395 . S
C496 C499 1.403 . S
H497 C503 0.930 . S
C498 H484 0.930 . S
C498 C496 1.395 . S
C498 C501 1.403 . S
C499 C496 1.403 . S
C499 C500 1.524 . S
C499 C503 1.400 . S
C500 H485 0.960 . S
C500 H486 0.960 . S
C500 H487 0.960 . S
C500 C499 1.524 . S
C501 C498 1.403 . S
C501 C502 1.392 . S
C501 C505 1.495 . S
C502 C501 1.392 . S
C502 C503 1.385 . S
C502 C504 1.478 . S
C503 H497 0.930 . S
C503 C499 1.400 . S
C503 C502 1.385 . S
C504 C502 1.478 . S
C504 C506 1.381 . S
C504 C510 1.383 . S
C505 C501 1.495 . S
C505 H511 0.959 . S
C505 H512 0.961 . S
C505 H513 0.960 . S
C506 C504 1.381 . S
C506 C507 1.394 . S
C506 H514 0.930 . S
C507 C506 1.394 . S
C507 C508 1.383 . S
C507 H515 0.929 . S
C508 C507 1.383 . S
C508 C509 1.377 . S
C509 H493 0.930 . S
C509 C508 1.377 . S
C509 C510 1.379 . S
C510 H494 0.931 . S
C510 C504 1.383 . S
C510 C509 1.379 . S
H511 C505 0.959 . S
H512 C505 0.961 . S
H513 C505 0.960 . S
H514 C506 0.930 . S
H515 C507 0.929 . S
H516 C524 0.929 . S
H517 C526 0.930 . S
H518 C528 0.930 . S
H519 C531 0.929 . S
H520 C534 0.930 . S
H521 C536 0.960 . S
H522 C536 0.960 . S
H523 C536 0.960 . S
C524 H516 0.929 . S
C524 C525 1.377 . S
C524 C526 1.384 . S
C525 C524 1.377 . S
C525 C531 1.390 . S
C526 H517 0.930 . S
C526 C524 1.384 . S
C526 C527 1.372 . S
C527 C526 1.372 . S
C527 C528 1.400 . S
C527 C532 1.490 . S
C528 H518 0.930 . S
C528 C527 1.400 . S
C528 C531 1.386 . S
H529 C545 0.930 . S
H530 C546 0.931 . S
C531 H519 0.929 . S
C531 C525 1.390 . S
C531 C528 1.386 . S
C532 C527 1.490 . S
C532 C534 1.395 . S
C532 C535 1.403 . S
H533 C539 0.930 . S
C534 H520 0.930 . S
C534 C532 1.395 . S
C534 C537 1.403 . S
C535 C532 1.403 . S
C535 C536 1.524 . S
C535 C539 1.400 . S
C536 H521 0.960 . S
C536 H522 0.960 . S
C536 H523 0.960 . S
C536 C535 1.524 . S
C537 C534 1.403 . S
C537 C538 1.392 . S
C537 C541 1.495 . S
C538 C537 1.392 . S
C538 C539 1.385 . S
C538 C540 1.478 . S
C539 H533 0.930 . S
C539 C535 1.400 . S
C539 C538 1.385 . S
C540 C538 1.478 . S
C540 C542 1.381 . S
C540 C546 1.383 . S
C541 C537 1.495 . S
C541 H547 0.959 . S
C541 H548 0.961 . S
C541 H549 0.960 . S
C542 C540 1.381 . S
C542 C543 1.394 . S
C542 H550 0.930 . S
C543 C542 1.394 . S
C543 C544 1.383 . S
C543 H551 0.929 . S
C544 C543 1.383 . S
C544 C545 1.377 . S
C545 H529 0.930 . S
C545 C544 1.377 . S
C545 C546 1.379 . S
C546 H530 0.931 . S
C546 C540 1.383 . S
C546 C545 1.379 . S
H547 C541 0.959 . S
H548 C541 0.961 . S
H549 C541 0.960 . S
H550 C542 0.930 . S
H551 C543 0.929 . S
H552 C560 0.929 . S
H553 C562 0.930 . S
H554 C564 0.930 . S
H555 C567 0.929 . S
H556 C570 0.930 . S
H557 C572 0.960 . S
H558 C572 0.960 . S
H559 C572 0.960 . S
C560 H552 0.929 . S
C560 C561 1.377 . S
C560 C562 1.384 . S
C561 C560 1.377 . S
C561 C567 1.390 . S
C562 H553 0.930 . S
C562 C560 1.384 . S
C562 C563 1.372 . S
C563 C562 1.372 . S
C563 C564 1.400 . S
C563 C568 1.490 . S
C564 H554 0.930 . S
C564 C563 1.400 . S
C564 C567 1.386 . S
H565 C581 0.930 . S
H566 C582 0.931 . S
C567 H555 0.929 . S
C567 C561 1.390 . S
C567 C564 1.386 . S
C568 C563 1.490 . S
C568 C570 1.395 . S
C568 C571 1.403 . S
H569 C575 0.930 . S
C570 H556 0.930 . S
C570 C568 1.395 . S
C570 C573 1.403 . S
C571 C568 1.403 . S
C571 C572 1.524 . S
C571 C575 1.400 . S
C572 H557 0.960 . S
C572 H558 0.960 . S
C572 H559 0.960 . S
C572 C571 1.524 . S
C573 C570 1.403 . S
C573 C574 1.392 . S
C573 C577 1.495 . S
C574 C573 1.392 . S
C574 C575 1.385 . S
C574 C576 1.478 . S
C575 H569 0.930 . S
C575 C571 1.400 . S
C575 C574 1.385 . S
C576 C574 1.478 . S
C576 C578 1.381 . S
C576 C582 1.383 . S
C577 C573 1.495 . S
C577 H583 0.959 . S
C577 H584 0.961 . S
C577 H585 0.960 . S
C578 C576 1.381 . S
C578 C579 1.394 . S
C578 H586 0.930 . S
C579 C578 1.394 . S
C579 C580 1.383 . S
C579 H587 0.929 . S
C580 C579 1.383 . S
C580 C581 1.377 . S
C581 H565 0.930 . S
C581 C580 1.377 . S
C581 C582 1.379 . S
C582 H566 0.931 . S
C582 C576 1.383 . S
C582 C581 1.379 . S
H583 C577 0.959 . S
H584 C577 0.961 . S
H585 C577 0.960 . S
H586 C578 0.930 . S
H587 C579 0.929 . S
H588 C596 0.929 . S
H589 C598 0.930 . S
H590 C600 0.930 . S
H591 C603 0.929 . S
H592 C606 0.930 . S
H593 C608 0.960 . S
H594 C608 0.960 . S
H595 C608 0.960 . S
C596 H588 0.929 . S
C596 C597 1.377 . S
C596 C598 1.384 . S
C597 C596 1.377 . S
C597 C603 1.390 . S
C598 H589 0.930 . S
C598 C596 1.384 . S
C598 C599 1.372 . S
C599 C598 1.372 . S
C599 C600 1.400 . S
C599 C604 1.490 . S
C600 H590 0.930 . S
C600 C599 1.400 . S
C600 C603 1.386 . S
H601 C617 0.930 . S
H602 C618 0.931 . S
C603 H591 0.929 . S
C603 C597 1.390 . S
C603 C600 1.386 . S
C604 C599 1.490 . S
C604 C606 1.395 . S
C604 C607 1.403 . S
H605 C611 0.930 . S
C606 H592 0.930 . S
C606 C604 1.395 . S
C606 C609 1.403 1_655 S
C607 C604 1.403 . S
C607 C608 1.524 . S
C607 C611 1.400 1_655 S
C608 H593 0.960 . S
C608 H594 0.960 . S
C608 H595 0.960 . S
C608 C607 1.524 . S
C609 C606 1.403 1_455 S
C609 C610 1.392 . S
C609 C613 1.495 . S
C610 C609 1.392 . S
C610 C611 1.385 . S
C610 C612 1.478 . S
C611 H605 0.930 . S
C611 C607 1.400 1_455 S
C611 C610 1.385 . S
C612 C610 1.478 . S
C612 C614 1.381 . S
C612 C618 1.383 . S
C613 C609 1.495 . S
C613 H619 0.959 . S
C613 H620 0.961 . S
C613 H621 0.960 . S
C614 C612 1.381 . S
C614 C615 1.394 . S
C614 H622 0.930 . S
C615 C614 1.394 . S
C615 C616 1.383 . S
C615 H623 0.929 . S
C616 C615 1.383 . S
C616 C617 1.377 . S
C617 H601 0.930 . S
C617 C616 1.377 . S
C617 C618 1.379 . S
C618 H602 0.931 . S
C618 C612 1.383 . S
C618 C617 1.379 . S
H619 C613 0.959 . S
H620 C613 0.961 . S
H621 C613 0.960 . S
H622 C614 0.930 . S
H623 C615 0.929 . S
H624 C632 0.929 . S
H625 C634 0.930 . S
H626 C636 0.930 . S
H627 C639 0.929 . S
H628 C642 0.930 . S
H629 C644 0.960 . S
H630 C644 0.960 . S
H631 C644 0.960 . S
C632 H624 0.929 . S
C632 C633 1.377 . S
C632 C634 1.384 . S
C633 C632 1.377 . S
C633 C639 1.390 . S
C634 H625 0.930 . S
C634 C632 1.384 . S
C634 C635 1.372 . S
C635 C634 1.372 . S
C635 C636 1.400 . S
C635 C640 1.490 . S
C636 H626 0.930 . S
C636 C635 1.400 . S
C636 C639 1.386 . S
H637 C653 0.930 . S
H638 C654 0.931 . S
C639 H627 0.929 . S
C639 C633 1.390 . S
C639 C636 1.386 . S
C640 C635 1.490 . S
C640 C642 1.395 . S
C640 C643 1.403 . S
H641 C647 0.930 . S
C642 H628 0.930 . S
C642 C640 1.395 . S
C642 C645 1.403 1_545 S
C643 C640 1.403 . S
C643 C644 1.524 . S
C643 C647 1.400 1_545 S
C644 H629 0.960 . S
C644 H630 0.960 . S
C644 H631 0.960 . S
C644 C643 1.524 . S
C645 C642 1.403 1_565 S
C645 C646 1.392 . S
C645 C649 1.495 . S
C646 C645 1.392 . S
C646 C647 1.385 . S
C646 C648 1.478 . S
C647 H641 0.930 . S
C647 C643 1.400 1_565 S
C647 C646 1.385 . S
C648 C646 1.478 . S
C648 C650 1.381 . S
C648 C654 1.383 . S
C649 C645 1.495 . S
C649 H655 0.959 . S
C649 H656 0.961 . S
C649 H657 0.960 . S
C650 C648 1.381 . S
C650 C651 1.394 . S
C650 H658 0.930 . S
C651 C650 1.394 . S
C651 C652 1.383 . S
C651 H659 0.929 . S
C652 C651 1.383 . S
C652 C653 1.377 . S
C653 H637 0.930 . S
C653 C652 1.377 . S
C653 C654 1.379 . S
C654 H638 0.931 . S
C654 C648 1.383 . S
C654 C653 1.379 . S
H655 C649 0.959 . S
H656 C649 0.961 . S
H657 C649 0.960 . S
H658 C650 0.930 . S
H659 C651 0.929 . S
H660 C668 0.929 . S
H661 C670 0.930 . S
H662 C672 0.930 . S
H663 C675 0.929 . S
H664 C678 0.930 . S
H665 C680 0.960 . S
H666 C680 0.960 . S
H667 C680 0.960 . S
C668 H660 0.929 . S
C668 C669 1.377 . S
C668 C670 1.384 . S
C669 C668 1.377 . S
C669 C675 1.390 . S
C670 H661 0.930 . S
C670 C668 1.384 . S
C670 C671 1.372 . S
C671 C670 1.372 . S
C671 C672 1.400 . S
C671 C676 1.490 . S
C672 H662 0.930 . S
C672 C671 1.400 . S
C672 C675 1.386 . S
H673 C689 0.930 . S
H674 C690 0.931 . S
C675 H663 0.929 . S
C675 C669 1.390 . S
C675 C672 1.386 . S
C676 C671 1.490 . S
C676 C678 1.395 . S
C676 C679 1.403 . S
H677 C683 0.930 . S
C678 H664 0.930 . S
C678 C676 1.395 . S
C678 C681 1.403 . S
C679 C676 1.403 . S
C679 C680 1.524 . S
C679 C683 1.400 . S
C680 H665 0.960 . S
C680 H666 0.960 . S
C680 H667 0.960 . S
C680 C679 1.524 . S
C681 C678 1.403 . S
C681 C682 1.392 . S
C681 C685 1.495 . S
C682 C681 1.392 . S
C682 C683 1.385 . S
C682 C684 1.478 . S
C683 H677 0.930 . S
C683 C679 1.400 . S
C683 C682 1.385 . S
C684 C682 1.478 . S
C684 C686 1.381 . S
C684 C690 1.383 . S
C685 C681 1.495 . S
C685 H691 0.959 . S
C685 H692 0.961 . S
C685 H693 0.960 . S
C686 C684 1.381 . S
C686 C687 1.394 . S
C686 H694 0.930 . S
C687 C686 1.394 . S
C687 C688 1.383 . S
C687 H695 0.929 . S
C688 C687 1.383 . S
C688 C689 1.377 . S
C689 H673 0.930 . S
C689 C688 1.377 . S
C689 C690 1.379 . S
C690 H674 0.931 . S
C690 C684 1.383 . S
C690 C689 1.379 . S
H691 C685 0.959 . S
H692 C685 0.961 . S
H693 C685 0.960 . S
H694 C686 0.930 . S
H695 C687 0.929 . S
H696 C704 0.929 . S
H697 C706 0.930 . S
H698 C708 0.930 . S
H699 C711 0.929 . S
H700 C714 0.930 . S
H701 C716 0.960 . S
H702 C716 0.960 . S
H703 C716 0.960 . S
C704 H696 0.929 . S
C704 C705 1.377 . S
C704 C706 1.384 . S
C705 C704 1.377 . S
C705 C711 1.390 . S
C706 H697 0.930 . S
C706 C704 1.384 . S
C706 C707 1.372 . S
C707 C706 1.372 . S
C707 C708 1.400 . S
C707 C712 1.490 . S
C708 H698 0.930 . S
C708 C707 1.400 . S
C708 C711 1.386 . S
H709 C725 0.930 . S
H710 C726 0.931 . S
C711 H699 0.929 . S
C711 C705 1.390 . S
C711 C708 1.386 . S
C712 C707 1.490 . S
C712 C714 1.395 . S
C712 C715 1.403 . S
H713 C719 0.930 . S
C714 H700 0.930 . S
C714 C712 1.395 . S
C714 C717 1.403 1_545 S
C715 C712 1.403 . S
C715 C716 1.524 . S
C715 C719 1.400 1_545 S
C716 H701 0.960 . S
C716 H702 0.960 . S
C716 H703 0.960 . S
C716 C715 1.524 . S
C717 C714 1.403 1_565 S
C717 C718 1.392 . S
C717 C721 1.495 . S
C718 C717 1.392 . S
C718 C719 1.385 . S
C718 C720 1.478 . S
C719 H713 0.930 . S
C719 C715 1.400 1_565 S
C719 C718 1.385 . S
C720 C718 1.478 . S
C720 C722 1.381 . S
C720 C726 1.383 . S
C721 C717 1.495 . S
C721 H727 0.959 . S
C721 H728 0.961 . S
C721 H729 0.960 . S
C722 C720 1.381 . S
C722 C723 1.394 . S
C722 H730 0.930 . S
C723 C722 1.394 . S
C723 C724 1.383 . S
C723 H731 0.929 . S
C724 C723 1.383 . S
C724 C725 1.377 . S
C725 H709 0.930 . S
C725 C724 1.377 . S
C725 C726 1.379 . S
C726 H710 0.931 . S
C726 C720 1.383 . S
C726 C725 1.379 . S
H727 C721 0.959 . S
H728 C721 0.961 . S
H729 C721 0.960 . S
H730 C722 0.930 . S
H731 C723 0.929 . S
H732 C740 0.929 . S
H733 C742 0.930 . S
H734 C744 0.930 . S
H735 C747 0.929 . S
H736 C750 0.930 . S
H737 C752 0.960 . S
H738 C752 0.960 . S
H739 C752 0.960 . S
C740 H732 0.929 . S
C740 C741 1.377 . S
C740 C742 1.384 . S
C741 C740 1.377 . S
C741 C747 1.390 . S
C742 H733 0.930 . S
C742 C740 1.384 . S
C742 C743 1.372 . S
C743 C742 1.372 . S
C743 C744 1.400 . S
C743 C748 1.490 . S
C744 H734 0.930 . S
C744 C743 1.400 . S
C744 C747 1.386 . S
H745 C761 0.930 . S
H746 C762 0.931 . S
C747 H735 0.929 . S
C747 C741 1.390 . S
C747 C744 1.386 . S
C748 C743 1.490 . S
C748 C750 1.395 . S
C748 C751 1.403 . S
H749 C755 0.930 . S
C750 H736 0.930 . S
C750 C748 1.395 . S
C750 C753 1.403 . S
C751 C748 1.403 . S
C751 C752 1.524 . S
C751 C755 1.400 . S
C752 H737 0.960 . S
C752 H738 0.960 . S
C752 H739 0.960 . S
C752 C751 1.524 . S
C753 C750 1.403 . S
C753 C754 1.392 . S
C753 C757 1.495 . S
C754 C753 1.392 . S
C754 C755 1.385 . S
C754 C756 1.478 . S
C755 H749 0.930 . S
C755 C751 1.400 . S
C755 C754 1.385 . S
C756 C754 1.478 . S
C756 C758 1.381 . S
C756 C762 1.383 . S
C757 C753 1.495 . S
C757 H763 0.959 . S
C757 H764 0.961 . S
C757 H765 0.960 . S
C758 C756 1.381 . S
C758 C759 1.394 . S
C758 H766 0.930 . S
C759 C758 1.394 . S
C759 C760 1.383 . S
C759 H767 0.929 . S
C760 C759 1.383 . S
C760 C761 1.377 . S
C761 H745 0.930 . S
C761 C760 1.377 . S
C761 C762 1.379 . S
C762 H746 0.931 . S
C762 C756 1.383 . S
C762 C761 1.379 . S
H763 C757 0.959 . S
H764 C757 0.961 . S
H765 C757 0.960 . S
H766 C758 0.930 . S
H767 C759 0.929 . S
H768 C776 0.929 . S
H769 C778 0.930 . S
H770 C780 0.930 . S
H771 C783 0.929 . S
H772 C786 0.930 . S
H773 C788 0.960 . S
H774 C788 0.960 . S
H775 C788 0.960 . S
C776 H768 0.929 . S
C776 C777 1.377 . S
C776 C778 1.384 . S
C777 C776 1.377 . S
C777 C783 1.390 . S
C778 H769 0.930 . S
C778 C776 1.384 . S
C778 C779 1.372 . S
C779 C778 1.372 . S
C779 C780 1.400 . S
C779 C784 1.490 . S
C780 H770 0.930 . S
C780 C779 1.400 . S
C780 C783 1.386 . S
H781 C797 0.930 . S
H782 C798 0.931 . S
C783 H771 0.929 . S
C783 C777 1.390 . S
C783 C780 1.386 . S
C784 C779 1.490 . S
C784 C786 1.395 . S
C784 C787 1.403 . S
H785 C791 0.930 . S
C786 H772 0.930 . S
C786 C784 1.395 . S
C786 C789 1.403 1_455 S
C787 C784 1.403 . S
C787 C788 1.524 . S
C787 C791 1.400 1_455 S
C788 H773 0.960 . S
C788 H774 0.960 . S
C788 H775 0.960 . S
C788 C787 1.524 . S
C789 C786 1.403 1_655 S
C789 C790 1.392 . S
C789 C793 1.495 . S
C790 C789 1.392 . S
C790 C791 1.385 . S
C790 C792 1.478 . S
C791 H785 0.930 . S
C791 C787 1.400 1_655 S
C791 C790 1.385 . S
C792 C790 1.478 . S
C792 C794 1.381 . S
C792 C798 1.383 . S
C793 C789 1.495 . S
C793 H799 0.959 . S
C793 H800 0.961 . S
C793 H801 0.960 . S
C794 C792 1.381 . S
C794 C795 1.394 . S
C794 H802 0.930 . S
C795 C794 1.394 . S
C795 C796 1.383 . S
C795 H803 0.929 . S
C796 C795 1.383 . S
C796 C797 1.377 . S
C797 H781 0.930 . S
C797 C796 1.377 . S
C797 C798 1.379 . S
C798 H782 0.931 . S
C798 C792 1.383 . S
C798 C797 1.379 . S
H799 C793 0.959 . S
H800 C793 0.961 . S
H801 C793 0.960 . S
H802 C794 0.930 . S
H803 C795 0.929 . S
H804 C812 0.929 . S
H805 C814 0.930 . S
H806 C816 0.930 . S
H807 C819 0.929 . S
H808 C822 0.930 . S
H809 C824 0.960 . S
H810 C824 0.960 . S
H811 C824 0.960 . S
C812 H804 0.929 . S
C812 C813 1.377 . S
C812 C814 1.384 . S
C813 C812 1.377 . S
C813 C819 1.390 . S
C814 H805 0.930 . S
C814 C812 1.384 . S
C814 C815 1.372 . S
C815 C814 1.372 . S
C815 C816 1.400 . S
C815 C820 1.490 . S
C816 H806 0.930 . S
C816 C815 1.400 . S
C816 C819 1.386 . S
H817 C833 0.930 . S
H818 C834 0.931 . S
C819 H807 0.929 . S
C819 C813 1.390 . S
C819 C816 1.386 . S
C820 C815 1.490 . S
C820 C822 1.395 . S
C820 C823 1.403 . S
H821 C827 0.930 . S
C822 H808 0.930 . S
C822 C820 1.395 . S
C822 C825 1.403 . S
C823 C820 1.403 . S
C823 C824 1.524 . S
C823 C827 1.400 . S
C824 H809 0.960 . S
C824 H810 0.960 . S
C824 H811 0.960 . S
C824 C823 1.524 . S
C825 C822 1.403 . S
C825 C826 1.392 . S
C825 C829 1.495 . S
C826 C825 1.392 . S
C826 C827 1.385 . S
C826 C828 1.478 . S
C827 H821 0.930 . S
C827 C823 1.400 . S
C827 C826 1.385 . S
C828 C826 1.478 . S
C828 C830 1.381 . S
C828 C834 1.383 . S
C829 C825 1.495 . S
C829 H835 0.959 . S
C829 H836 0.961 . S
C829 H837 0.960 . S
C830 C828 1.381 . S
C830 C831 1.394 . S
C830 H838 0.930 . S
C831 C830 1.394 . S
C831 C832 1.383 . S
C831 H839 0.929 . S
C832 C831 1.383 . S
C832 C833 1.377 . S
C833 H817 0.930 . S
C833 C832 1.377 . S
C833 C834 1.379 . S
C834 H818 0.931 . S
C834 C828 1.383 . S
C834 C833 1.379 . S
H835 C829 0.959 . S
H836 C829 0.961 . S
H837 C829 0.960 . S
H838 C830 0.930 . S
H839 C831 0.929 . S
H840 C848 0.929 . S
H841 C850 0.930 . S
H842 C852 0.930 . S
H843 C855 0.929 . S
H844 C858 0.930 . S
H845 C860 0.960 . S
H846 C860 0.960 . S
H847 C860 0.960 . S
C848 H840 0.929 . S
C848 C849 1.377 . S
C848 C850 1.384 . S
C849 C848 1.377 . S
C849 C855 1.390 . S
C850 H841 0.930 . S
C850 C848 1.384 . S
C850 C851 1.372 . S
C851 C850 1.372 . S
C851 C852 1.400 . S
C851 C856 1.490 . S
C852 H842 0.930 . S
C852 C851 1.400 . S
C852 C855 1.386 . S
H853 C869 0.930 . S
H854 C870 0.931 . S
C855 H843 0.929 . S
C855 C849 1.390 . S
C855 C852 1.386 . S
C856 C851 1.490 . S
C856 C858 1.395 . S
C856 C859 1.403 . S
H857 C863 0.930 . S
C858 H844 0.930 . S
C858 C856 1.395 . S
C858 C861 1.403 1_655 S
C859 C856 1.403 . S
C859 C860 1.524 . S
C859 C863 1.400 1_655 S
C860 H845 0.960 . S
C860 H846 0.960 . S
C860 H847 0.960 . S
C860 C859 1.524 . S
C861 C858 1.403 1_455 S
C861 C862 1.392 . S
C861 C865 1.495 . S
C862 C861 1.392 . S
C862 C863 1.385 . S
C862 C864 1.478 . S
C863 H857 0.930 . S
C863 C859 1.400 1_455 S
C863 C862 1.385 . S
C864 C862 1.478 . S
C864 C866 1.381 . S
C864 C870 1.383 . S
C865 C861 1.495 . S
C865 H871 0.959 . S
C865 H872 0.961 . S
C865 H873 0.960 . S
C866 C864 1.381 . S
C866 C867 1.394 . S
C866 H874 0.930 . S
C867 C866 1.394 . S
C867 C868 1.383 . S
C867 H875 0.929 . S
C868 C867 1.383 . S
C868 C869 1.377 . S
C869 H853 0.930 . S
C869 C868 1.377 . S
C869 C870 1.379 . S
C870 H854 0.931 . S
C870 C864 1.383 . S
C870 C869 1.379 . S
H871 C865 0.959 . S
H872 C865 0.961 . S
H873 C865 0.960 . S
H874 C866 0.930 . S
H875 C867 0.929 . S
H876 C884 0.929 . S
H877 C886 0.930 . S
H878 C888 0.930 . S
H879 C891 0.929 . S
H880 C894 0.930 . S
H881 C896 0.960 . S
H882 C896 0.960 . S
H883 C896 0.960 . S
C884 H876 0.929 . S
C884 C885 1.377 . S
C884 C886 1.384 . S
C885 C884 1.377 . S
C885 C891 1.390 . S
C886 H877 0.930 . S
C886 C884 1.384 . S
C886 C887 1.372 . S
C887 C886 1.372 . S
C887 C888 1.400 . S
C887 C892 1.490 . S
C888 H878 0.930 . S
C888 C887 1.400 . S
C888 C891 1.386 . S
H889 C905 0.930 . S
H890 C906 0.931 . S
C891 H879 0.929 . S
C891 C885 1.390 . S
C891 C888 1.386 . S
C892 C887 1.490 . S
C892 C894 1.395 . S
C892 C895 1.403 . S
H893 C899 0.930 . S
C894 H880 0.930 . S
C894 C892 1.395 . S
C894 C897 1.403 1_545 S
C895 C892 1.403 . S
C895 C896 1.524 . S
C895 C899 1.400 1_545 S
C896 H881 0.960 . S
C896 H882 0.960 . S
C896 H883 0.960 . S
C896 C895 1.524 . S
C897 C894 1.403 1_565 S
C897 C898 1.392 . S
C897 C901 1.495 . S
C898 C897 1.392 . S
C898 C899 1.385 . S
C898 C900 1.478 . S
C899 H893 0.930 . S
C899 C895 1.400 1_565 S
C899 C898 1.385 . S
C900 C898 1.478 . S
C900 C902 1.381 . S
C900 C906 1.383 . S
C901 C897 1.495 . S
C901 H907 0.959 . S
C901 H908 0.961 . S
C901 H909 0.960 . S
C902 C900 1.381 . S
C902 C903 1.394 . S
C902 H910 0.930 . S
C903 C902 1.394 . S
C903 C904 1.383 . S
C903 H911 0.929 . S
C904 C903 1.383 . S
C904 C905 1.377 . S
C905 H889 0.930 . S
C905 C904 1.377 . S
C905 C906 1.379 . S
C906 H890 0.931 . S
C906 C900 1.383 . S
C906 C905 1.379 . S
H907 C901 0.959 . S
H908 C901 0.961 . S
H909 C901 0.960 . S
H910 C902 0.930 . S
H911 C903 0.929 . S
H912 C920 0.929 . S
H913 C922 0.930 . S
H914 C924 0.930 . S
H915 C927 0.929 . S
H916 C930 0.930 . S
H917 C932 0.960 . S
H918 C932 0.960 . S
H919 C932 0.960 . S
C920 H912 0.929 . S
C920 C921 1.377 . S
C920 C922 1.384 . S
C921 C920 1.377 . S
C921 C927 1.390 . S
C922 H913 0.930 . S
C922 C920 1.384 . S
C922 C923 1.372 . S
C923 C922 1.372 . S
C923 C924 1.400 . S
C923 C928 1.490 . S
C924 H914 0.930 . S
C924 C923 1.400 . S
C924 C927 1.386 . S
H925 C941 0.930 . S
H926 C942 0.931 . S
C927 H915 0.929 . S
C927 C921 1.390 . S
C927 C924 1.386 . S
C928 C923 1.490 . S
C928 C930 1.395 . S
C928 C931 1.403 . S
H929 C935 0.930 . S
C930 H916 0.930 . S
C930 C928 1.395 . S
C930 C933 1.403 . S
C931 C928 1.403 . S
C931 C932 1.524 . S
C931 C935 1.400 . S
C932 H917 0.960 . S
C932 H918 0.960 . S
C932 H919 0.960 . S
C932 C931 1.524 . S
C933 C930 1.403 . S
C933 C934 1.392 . S
C933 C937 1.495 . S
C934 C933 1.392 . S
C934 C935 1.385 . S
C934 C936 1.478 . S
C935 H929 0.930 . S
C935 C931 1.400 . S
C935 C934 1.385 . S
C936 C934 1.478 . S
C936 C938 1.381 . S
C936 C942 1.383 . S
C937 C933 1.495 . S
C937 H943 0.959 . S
C937 H944 0.961 . S
C937 H945 0.960 . S
C938 C936 1.381 . S
C938 C939 1.394 . S
C938 H946 0.930 . S
C939 C938 1.394 . S
C939 C940 1.383 . S
C939 H947 0.929 . S
C940 C939 1.383 . S
C940 C941 1.377 . S
C941 H925 0.930 . S
C941 C940 1.377 . S
C941 C942 1.379 . S
C942 H926 0.931 . S
C942 C936 1.383 . S
C942 C941 1.379 . S
H943 C937 0.959 . S
H944 C937 0.961 . S
H945 C937 0.960 . S
H946 C938 0.930 . S
H947 C939 0.929 . S
H948 C956 0.929 . S
H949 C958 0.930 . S
H950 C960 0.930 . S
H951 C963 0.929 . S
H952 C966 0.930 . S
H953 C968 0.960 . S
H954 C968 0.960 . S
H955 C968 0.960 . S
C956 H948 0.929 . S
C956 C957 1.377 . S
C956 C958 1.384 . S
C957 C956 1.377 . S
C957 C963 1.390 . S
C958 H949 0.930 . S
C958 C956 1.384 . S
C958 C959 1.372 . S
C959 C958 1.372 . S
C959 C960 1.400 . S
C959 C964 1.490 . S
C960 H950 0.930 . S
C960 C959 1.400 . S
C960 C963 1.386 . S
H961 C977 0.930 . S
H962 C978 0.931 . S
C963 H951 0.929 . S
C963 C957 1.390 . S
C963 C960 1.386 . S
C964 C959 1.490 . S
C964 C966 1.395 . S
C964 C967 1.403 . S
H965 C971 0.930 . S
C966 H952 0.930 . S
C966 C964 1.395 . S
C966 C969 1.403 1_455 S
C967 C964 1.403 . S
C967 C968 1.524 . S
C967 C971 1.400 1_455 S
C968 H953 0.960 . S
C968 H954 0.960 . S
C968 H955 0.960 . S
C968 C967 1.524 . S
C969 C966 1.403 1_655 S
C969 C970 1.392 . S
C969 C973 1.495 . S
C970 C969 1.392 . S
C970 C971 1.385 . S
C970 C972 1.478 . S
C971 H965 0.930 . S
C971 C967 1.400 1_655 S
C971 C970 1.385 . S
C972 C970 1.478 . S
C972 C974 1.381 . S
C972 C978 1.383 . S
C973 C969 1.495 . S
C973 H979 0.959 . S
C973 H980 0.961 . S
C973 H981 0.960 . S
C974 C972 1.381 . S
C974 C975 1.394 . S
C974 H982 0.930 . S
C975 C974 1.394 . S
C975 C976 1.383 . S
C975 H983 0.929 . S
C976 C975 1.383 . S
C976 C977 1.377 . S
C977 H961 0.930 . S
C977 C976 1.377 . S
C977 C978 1.379 . S
C978 H962 0.931 . S
C978 C972 1.383 . S
C978 C977 1.379 . S
H979 C973 0.959 . S
H980 C973 0.961 . S
H981 C973 0.960 . S
H982 C974 0.930 . S
H983 C975 0.929 . S
H984 C992 0.929 . S
H985 C994 0.930 . S
H986 C996 0.930 . S
H987 C999 0.929 . S
H988 C1002 0.930 . S
H989 C1004 0.960 . S
H990 C1004 0.960 . S
H991 C1004 0.960 . S
C992 H984 0.929 . S
C992 C993 1.377 . S
C992 C994 1.384 . S
C993 C992 1.377 . S
C993 C999 1.390 . S
C994 H985 0.930 . S
C994 C992 1.384 . S
C994 C995 1.372 . S
C995 C994 1.372 . S
C995 C996 1.400 . S
C995 C1000 1.490 . S
C996 H986 0.930 . S
C996 C995 1.400 . S
C996 C999 1.386 . S
H997 C1013 0.930 . S
H998 C1014 0.931 . S
C999 H987 0.929 . S
C999 C993 1.390 . S
C999 C996 1.386 . S
C1000 C995 1.490 . S
C1000 C1002 1.395 . S
C1000 C1003 1.403 . S
H1001 C1007 0.930 . S
C1002 H988 0.930 . S
C1002 C1000 1.395 . S
C1002 C1005 1.403 1_565 S
C1003 C1000 1.403 . S
C1003 C1004 1.524 . S
C1003 C1007 1.400 1_565 S
C1004 H989 0.960 . S
C1004 H990 0.960 . S
C1004 H991 0.960 . S
C1004 C1003 1.524 . S
C1005 C1002 1.403 1_545 S
C1005 C1006 1.392 . S
C1005 C1009 1.495 . S
C1006 C1005 1.392 . S
C1006 C1007 1.385 . S
C1006 C1008 1.478 . S
C1007 H1001 0.930 . S
C1007 C1003 1.400 1_545 S
C1007 C1006 1.385 . S
C1008 C1006 1.478 . S
C1008 C1010 1.381 . S
C1008 C1014 1.383 . S
C1009 C1005 1.495 . S
C1009 H1015 0.959 . S
C1009 H1016 0.961 . S
C1009 H1017 0.960 . S
C1010 C1008 1.381 . S
C1010 C1011 1.394 . S
C1010 H1018 0.930 . S
C1011 C1010 1.394 . S
C1011 C1012 1.383 . S
C1011 H1019 0.929 . S
C1012 C1011 1.383 . S
C1012 C1013 1.377 . S
C1013 H997 0.930 . S
C1013 C1012 1.377 . S
C1013 C1014 1.379 . S
C1014 H998 0.931 . S
C1014 C1008 1.383 . S
C1014 C1013 1.379 . S
H1015 C1009 0.959 . S
H1016 C1009 0.961 . S
H1017 C1009 0.960 . S
H1018 C1010 0.930 . S
H1019 C1011 0.929 . S
C165 C131 1.560 . S
C184 C1 1.572 . S
C201 C14 1.561 . S
C220 C144 1.543 . S
C237 C27 1.562 . S
C256 C79 1.545 . S
C273 C40 1.559 . S
C292 C92 1.569 . S
C309 C105 1.559 . S
C328 C53 1.543 . S
C345 C66 1.563 . S
C364 C118 1.567 . S
C381 C107 1.570 . S
C400 C3 1.556 . S
C417 C16 1.576 . S
C436 C120 1.556 . S
C453 C29 1.572 . S
C472 C133 1.588 . S
C489 C42 1.573 . S
C508 C146 1.549 . S
C525 C81 1.571 . S
C544 C55 1.551 . S
C561 C94 1.576 . S
C580 C68 1.567 . S
C597 C49 1.764 . S
C616 C10 1.761 . S
C633 C23 1.765 . S
C652 C62 1.752 . S
C669 C75 1.765 . S
C688 C36 1.752 . S
C705 C127 1.767 . S
C724 C88 1.770 . S
C741 C140 1.763 . S
C760 C101 1.764 . S
C777 C114 1.763 . S
C796 C153 1.756 . S
C813 C44 1.865 . S
C832 C5 1.856 . S
C849 C18 1.865 . S
C868 C57 1.856 . S
C885 C70 1.867 . S
C904 C31 1.862 . S
C921 C83 1.866 . S
C940 C122 1.868 . S
C957 C135 1.866 . S
C976 C96 1.857 . S
C993 C109 1.867 . S
C1012 C148 1.860 . S
