# Generated by pormake.
# Topology unu, (4)-cn, num edge types: 1
# Building blocks:
#     Node 0, Type 0, BuildingBlock: NAHDIM_clean_sbu_0, # of connection points: 4
#     Node 1, Type 0, BuildingBlock: NAHDIM_clean_sbu_0, # of connection points: 4
#     Node 2, Type 0, BuildingBlock: NAHDIM_clean_sbu_0, # of connection points: 4
#     Node 3, Type 0, BuildingBlock: NAHDIM_clean_sbu_0, # of connection points: 4
#     Node 4, Type 0, BuildingBlock: NAHDIM_clean_sbu_0, # of connection points: 4
#     Node 5, Type 0, BuildingBlock: NAHDIM_clean_sbu_0, # of connection points: 4
#     Node 6, Type 0, BuildingBlock: NAHDIM_clean_sbu_0, # of connection points: 4
#     Node 7, Type 0, BuildingBlock: NAHDIM_clean_sbu_0, # of connection points: 4
#     Node 8, Type 0, BuildingBlock: NAHDIM_clean_sbu_0, # of connection points: 4
#     Node 9, Type 0, BuildingBlock: NAHDIM_clean_sbu_0, # of connection points: 4
#     Node 10, Type 0, BuildingBlock: NAHDIM_clean_sbu_0, # of connection points: 4
#     Node 11, Type 0, BuildingBlock: NAHDIM_clean_sbu_0, # of connection points: 4
#     Node 12, Type 0, BuildingBlock: NAHDIM_clean_sbu_0, # of connection points: 4
#     Node 13, Type 0, BuildingBlock: NAHDIM_clean_sbu_0, # of connection points: 4
#     Node 14, Type 0, BuildingBlock: NAHDIM_clean_sbu_0, # of connection points: 4
#     Node 15, Type 0, BuildingBlock: NAHDIM_clean_sbu_0, # of connection points: 4
#     Node 16, Type 0, BuildingBlock: NAHDIM_clean_sbu_0, # of connection points: 4
#     Node 17, Type 0, BuildingBlock: NAHDIM_clean_sbu_0, # of connection points: 4
#     Node 18, Type 0, BuildingBlock: NAHDIM_clean_sbu_0, # of connection points: 4
#     Node 19, Type 0, BuildingBlock: NAHDIM_clean_sbu_0, # of connection points: 4
#     Node 20, Type 0, BuildingBlock: NAHDIM_clean_sbu_0, # of connection points: 4
#     Node 21, Type 0, BuildingBlock: NAHDIM_clean_sbu_0, # of connection points: 4
#     Node 22, Type 0, BuildingBlock: NAHDIM_clean_sbu_0, # of connection points: 4
#     Node 23, Type 0, BuildingBlock: NAHDIM_clean_sbu_0, # of connection points: 4
#     Node 24, Type 0, BuildingBlock: NAHDIM_clean_sbu_0, # of connection points: 4
#     Node 25, Type 0, BuildingBlock: NAHDIM_clean_sbu_0, # of connection points: 4
#     Node 26, Type 0, BuildingBlock: NAHDIM_clean_sbu_0, # of connection points: 4
#     Node 27, Type 0, BuildingBlock: NAHDIM_clean_sbu_0, # of connection points: 4
#     Node 28, Type 0, BuildingBlock: NAHDIM_clean_sbu_0, # of connection points: 4
#     Node 29, Type 0, BuildingBlock: NAHDIM_clean_sbu_0, # of connection points: 4
#     Node 30, Type 0, BuildingBlock: NAHDIM_clean_sbu_0, # of connection points: 4
#     Node 31, Type 0, BuildingBlock: NAHDIM_clean_sbu_0, # of connection points: 4
#     Node 32, Type 0, BuildingBlock: NAHDIM_clean_sbu_0, # of connection points: 4
#     Node 33, Type 0, BuildingBlock: NAHDIM_clean_sbu_0, # of connection points: 4
#     Node 34, Type 0, BuildingBlock: NAHDIM_clean_sbu_0, # of connection points: 4
#     Node 35, Type 0, BuildingBlock: NAHDIM_clean_sbu_0, # of connection points: 4
#     Edge 36, Type (0, 0), BuildingBlock: EZIPEK_clean_linker_0, # of connection points: 2
#     Edge 37, Type (0, 0), BuildingBlock: EZIPEK_clean_linker_0, # of connection points: 2
#     Edge 38, Type (0, 0), BuildingBlock: EZIPEK_clean_linker_0, # of connection points: 2
#     Edge 39, Type (0, 0), BuildingBlock: EZIPEK_clean_linker_0, # of connection points: 2
#     Edge 40, Type (0, 0), BuildingBlock: EZIPEK_clean_linker_0, # of connection points: 2
#     Edge 41, Type (0, 0), BuildingBlock: EZIPEK_clean_linker_0, # of connection points: 2
#     Edge 42, Type (0, 0), BuildingBlock: EZIPEK_clean_linker_0, # of connection points: 2
#     Edge 43, Type (0, 0), BuildingBlock: EZIPEK_clean_linker_0, # of connection points: 2
#     Edge 44, Type (0, 0), BuildingBlock: EZIPEK_clean_linker_0, # of connection points: 2
#     Edge 45, Type (0, 0), BuildingBlock: EZIPEK_clean_linker_0, # of connection points: 2
#     Edge 46, Type (0, 0), BuildingBlock: EZIPEK_clean_linker_0, # of connection points: 2
#     Edge 47, Type (0, 0), BuildingBlock: EZIPEK_clean_linker_0, # of connection points: 2
#     Edge 48, Type (0, 0), BuildingBlock: EZIPEK_clean_linker_0, # of connection points: 2
#     Edge 49, Type (0, 0), BuildingBlock: EZIPEK_clean_linker_0, # of connection points: 2
#     Edge 50, Type (0, 0), BuildingBlock: EZIPEK_clean_linker_0, # of connection points: 2
#     Edge 51, Type (0, 0), BuildingBlock: EZIPEK_clean_linker_0, # of connection points: 2
#     Edge 52, Type (0, 0), BuildingBlock: EZIPEK_clean_linker_0, # of connection points: 2
#     Edge 53, Type (0, 0), BuildingBlock: EZIPEK_clean_linker_0, # of connection points: 2
#     Edge 54, Type (0, 0), BuildingBlock: EZIPEK_clean_linker_0, # of connection points: 2
#     Edge 55, Type (0, 0), BuildingBlock: EZIPEK_clean_linker_0, # of connection points: 2
#     Edge 56, Type (0, 0), BuildingBlock: EZIPEK_clean_linker_0, # of connection points: 2
#     Edge 57, Type (0, 0), BuildingBlock: EZIPEK_clean_linker_0, # of connection points: 2
#     Edge 58, Type (0, 0), BuildingBlock: EZIPEK_clean_linker_0, # of connection points: 2
#     Edge 59, Type (0, 0), BuildingBlock: EZIPEK_clean_linker_0, # of connection points: 2
#     Edge 60, Type (0, 0), BuildingBlock: EZIPEK_clean_linker_0, # of connection points: 2
#     Edge 61, Type (0, 0), BuildingBlock: EZIPEK_clean_linker_0, # of connection points: 2
#     Edge 62, Type (0, 0), BuildingBlock: EZIPEK_clean_linker_0, # of connection points: 2
#     Edge 63, Type (0, 0), BuildingBlock: EZIPEK_clean_linker_0, # of connection points: 2
#     Edge 64, Type (0, 0), BuildingBlock: EZIPEK_clean_linker_0, # of connection points: 2
#     Edge 65, Type (0, 0), BuildingBlock: EZIPEK_clean_linker_0, # of connection points: 2
#     Edge 66, Type (0, 0), BuildingBlock: EZIPEK_clean_linker_0, # of connection points: 2
#     Edge 67, Type (0, 0), BuildingBlock: EZIPEK_clean_linker_0, # of connection points: 2
#     Edge 68, Type (0, 0), BuildingBlock: EZIPEK_clean_linker_0, # of connection points: 2
#     Edge 69, Type (0, 0), BuildingBlock: EZIPEK_clean_linker_0, # of connection points: 2
#     Edge 70, Type (0, 0), BuildingBlock: EZIPEK_clean_linker_0, # of connection points: 2
#     Edge 71, Type (0, 0), BuildingBlock: EZIPEK_clean_linker_0, # of connection points: 2
#     Edge 72, Type (0, 0), BuildingBlock: EZIPEK_clean_linker_0, # of connection points: 2
#     Edge 73, Type (0, 0), BuildingBlock: EZIPEK_clean_linker_0, # of connection points: 2
#     Edge 74, Type (0, 0), BuildingBlock: EZIPEK_clean_linker_0, # of connection points: 2
#     Edge 75, Type (0, 0), BuildingBlock: EZIPEK_clean_linker_0, # of connection points: 2
#     Edge 76, Type (0, 0), BuildingBlock: EZIPEK_clean_linker_0, # of connection points: 2
#     Edge 77, Type (0, 0), BuildingBlock: EZIPEK_clean_linker_0, # of connection points: 2
#     Edge 78, Type (0, 0), BuildingBlock: EZIPEK_clean_linker_0, # of connection points: 2
#     Edge 79, Type (0, 0), BuildingBlock: EZIPEK_clean_linker_0, # of connection points: 2
#     Edge 80, Type (0, 0), BuildingBlock: EZIPEK_clean_linker_0, # of connection points: 2
#     Edge 81, Type (0, 0), BuildingBlock: EZIPEK_clean_linker_0, # of connection points: 2
#     Edge 82, Type (0, 0), BuildingBlock: EZIPEK_clean_linker_0, # of connection points: 2
#     Edge 83, Type (0, 0), BuildingBlock: EZIPEK_clean_linker_0, # of connection points: 2
#     Edge 84, Type (0, 0), BuildingBlock: EZIPEK_clean_linker_0, # of connection points: 2
#     Edge 85, Type (0, 0), BuildingBlock: EZIPEK_clean_linker_0, # of connection points: 2
#     Edge 86, Type (0, 0), BuildingBlock: EZIPEK_clean_linker_0, # of connection points: 2
#     Edge 87, Type (0, 0), BuildingBlock: EZIPEK_clean_linker_0, # of connection points: 2
#     Edge 88, Type (0, 0), BuildingBlock: EZIPEK_clean_linker_0, # of connection points: 2
#     Edge 89, Type (0, 0), BuildingBlock: EZIPEK_clean_linker_0, # of connection points: 2
#     Edge 90, Type (0, 0), BuildingBlock: EZIPEK_clean_linker_0, # of connection points: 2
#     Edge 91, Type (0, 0), BuildingBlock: EZIPEK_clean_linker_0, # of connection points: 2
#     Edge 92, Type (0, 0), BuildingBlock: EZIPEK_clean_linker_0, # of connection points: 2
#     Edge 93, Type (0, 0), BuildingBlock: EZIPEK_clean_linker_0, # of connection points: 2
#     Edge 94, Type (0, 0), BuildingBlock: EZIPEK_clean_linker_0, # of connection points: 2
#     Edge 95, Type (0, 0), BuildingBlock: EZIPEK_clean_linker_0, # of connection points: 2
#     Edge 96, Type (0, 0), BuildingBlock: EZIPEK_clean_linker_0, # of connection points: 2
#     Edge 97, Type (0, 0), BuildingBlock: EZIPEK_clean_linker_0, # of connection points: 2
#     Edge 98, Type (0, 0), BuildingBlock: EZIPEK_clean_linker_0, # of connection points: 2
#     Edge 99, Type (0, 0), BuildingBlock: EZIPEK_clean_linker_0, # of connection points: 2
#     Edge 100, Type (0, 0), BuildingBlock: EZIPEK_clean_linker_0, # of connection points: 2
#     Edge 101, Type (0, 0), BuildingBlock: EZIPEK_clean_linker_0, # of connection points: 2
#     Edge 102, Type (0, 0), BuildingBlock: EZIPEK_clean_linker_0, # of connection points: 2
#     Edge 103, Type (0, 0), BuildingBlock: EZIPEK_clean_linker_0, # of connection points: 2
#     Edge 104, Type (0, 0), BuildingBlock: EZIPEK_clean_linker_0, # of connection points: 2
#     Edge 105, Type (0, 0), BuildingBlock: EZIPEK_clean_linker_0, # of connection points: 2
#     Edge 106, Type (0, 0), BuildingBlock: EZIPEK_clean_linker_0, # of connection points: 2
#     Edge 107, Type (0, 0), BuildingBlock: EZIPEK_clean_linker_0, # of connection points: 2
# Relax obj value: 0.298
# Max RMSD: 0.283
# Mean RMSD: 0.283
data_MOF--net-unu--node1-NAHDIM_clean_sbu_0--edge1-EZIPEK_clean_linker_0
_symmetry_space_group_name_H-M    P1
_symmetry_Int_Tables_number       1
_symmetry_cell_setting            triclinic
loop_
_symmetry_equiv_pos_as_xyz
'x, y, z'
_cell_length_a     29.209565
_cell_length_b     29.202171
_cell_length_c     91.612926
_cell_angle_alpha  89.966568
_cell_angle_beta   89.974559
_cell_angle_gamma 120.02363
loop_
_atom_site_label
_atom_site_type_symbol
_atom_site_fract_x
_atom_site_fract_y
_atom_site_fract_z
_atom_type_partial_charge
C0 C 0.32342 0.08318 0.10854 0.0
O1 O 0.30008 0.05651 0.12044 0.0
O2 O 0.17402 0.01511 0.10517 0.0
Zn3 Zn 0.2314 0.08932 0.11005 0.0
O4 O 0.24415 0.10162 0.13158 0.0
C5 C 0.16869 0.13442 0.11033 0.0
O6 O 0.15012 0.1003 0.12113 0.0
O7 O 0.29984 0.10228 0.10125 0.0
C8 C 0.27624 0.14956 0.13479 0.0
O9 O 0.29576 0.1852 0.12436 0.0
C10 C 0.17598 0.99549 0.09295 0.0
O11 O 0.2166 0.02235 0.08426 0.0
O12 O 0.20744 0.1389 0.10289 0.0
C13 C 0.9221 0.22105 0.08346 0.0
O14 O 0.95005 0.20088 0.07829 0.0
O15 O 0.9808 0.16681 0.10594 0.0
Zn16 Zn 0.90481 0.14947 0.10675 0.0
O17 O 0.88537 0.15534 0.12729 0.0
C18 C 0.87717 0.04716 0.10971 0.0
O19 O 0.90747 0.07179 0.12095 0.0
O20 O 0.89365 0.20055 0.09466 0.0
C21 C 0.84187 0.1541 0.12949 0.0
O22 O 0.81118 0.14905 0.11841 0.0
C23 C 0.02496 0.20946 0.10534 0.0
O24 O 0.02722 0.2555 0.10516 0.0
O25 O 0.86504 0.07295 0.10084 0.0
C26 C 0.78081 0.69754 0.08953 0.0
O27 O 0.77707 0.72451 0.10048 0.0
O28 O 0.8753 0.82566 0.09755 0.0
Zn29 Zn 0.88264 0.76063 0.09864 0.0
O30 O 0.87168 0.73347 0.11912 0.0
C31 C 0.97673 0.81668 0.08203 0.0
O32 O 0.94507 0.82896 0.07503 0.0
O33 O 0.82601 0.70427 0.08621 0.0
C34 C 0.90959 0.74901 0.12812 0.0
O35 O 0.95775 0.78436 0.12411 0.0
C36 C 0.86129 0.84392 0.10814 0.0
O37 O 0.84832 0.81889 0.1207 0.0
O38 O 0.95701 0.78357 0.0924 0.0
C39 C 0.07632 0.31779 0.39517 0.0
O40 O 0.04262 0.2841 0.38568 0.0
O41 O 0.05627 0.1912 0.38887 0.0
Zn42 Zn 0.12349 0.26133 0.38619 0.0
O43 O 0.13642 0.28602 0.36544 0.0
C44 C 0.17712 0.22141 0.40332 0.0
O45 O 0.13408 0.20525 0.41119 0.0
O46 O 0.1187 0.31708 0.39773 0.0
C47 C 0.1482 0.26372 0.35541 0.0
O48 O 0.14803 0.21946 0.35815 0.0
C49 C 0.02112 0.16767 0.37918 0.0
O50 O 0.02591 0.19004 0.36642 0.0
O51 O 0.18283 0.24977 0.39221 0.0
C52 C 0.70143 0.78095 0.40942 0.0
O53 O 0.74637 0.78856 0.41474 0.0
O54 O 0.82295 0.83185 0.39384 0.0
Zn55 Zn 0.77034 0.85428 0.38835 0.0
O56 O 0.75155 0.84107 0.3672 0.0
C57 C 0.84982 0.95351 0.38339 0.0
O58 O 0.85838 0.92309 0.37457 0.0
O59 O 0.70201 0.81075 0.39926 0.0
C60 C 0.71342 0.84745 0.36332 0.0
O61 O 0.68999 0.86201 0.37298 0.0
C62 C 0.83792 0.80575 0.38608 0.0
O63 O 0.81723 0.79077 0.37302 0.0
O64 O 0.80887 0.93282 0.39147 0.0
C65 C 0.2343 0.9057 0.39849 0.0
O66 O 0.212 0.87116 0.38791 0.0
O67 O 0.17447 0.01635 0.39304 0.0
Zn68 Zn 0.16563 0.94456 0.38922 0.0
O69 O 0.1836 0.93789 0.3686 0.0
C70 C 0.05468 0.89883 0.39083 0.0
O71 O 0.06764 0.94713 0.38697 0.0
O72 O 0.21798 0.93749 0.40155 0.0
C73 C 0.15588 0.93456 0.35757 0.0
O74 O 0.11388 0.9395 0.35912 0.0
C75 C 0.21953 0.05669 0.39536 0.0
O76 O 0.2622 0.05243 0.39502 0.0
O77 O 0.0906 0.88728 0.3931 0.0
C78 C 0.67094 0.904 0.90875 0.0
O79 O 0.7178 0.92383 0.91479 0.0
O80 O 0.78745 0.96724 0.89105 0.0
Zn81 Zn 0.7281 0.89472 0.8855 0.0
O82 O 0.71263 0.89043 0.86408 0.0
C83 C 0.79346 0.85411 0.88217 0.0
O84 O 0.81076 0.89347 0.87287 0.0
O85 O 0.66339 0.883 0.89622 0.0
C86 C 0.6844 0.84444 0.8588 0.0
O87 O 0.66624 0.80292 0.86738 0.0
C88 C 0.81838 0.00175 0.88198 0.0
O89 O 0.80985 0.99275 0.86793 0.0
O90 O 0.75345 0.84337 0.89004 0.0
C91 C 0.05719 0.72295 0.88763 0.0
O92 O 0.05285 0.72356 0.87338 0.0
O93 O 0.98905 0.80811 0.88693 0.0
Zn94 Zn 0.06388 0.82274 0.88458 0.0
O95 O 0.08332 0.82386 0.86348 0.0
C96 C 0.10758 0.93015 0.88489 0.0
O97 O 0.07737 0.91421 0.87327 0.0
O98 O 0.0667 0.76364 0.89502 0.0
C99 C 0.13196 0.8453 0.86017 0.0
O100 O 0.16806 0.86565 0.87043 0.0
C101 C 0.96217 0.81334 0.87686 0.0
O102 O 0.98098 0.82389 0.8635 0.0
O103 O 0.11095 0.89613 0.8928 0.0
C104 C 0.23411 0.30482 0.89659 0.0
O105 O 0.23685 0.28755 0.88357 0.0
O106 O 0.14199 0.16584 0.89397 0.0
Zn107 Zn 0.13152 0.22848 0.89115 0.0
O108 O 0.1392 0.25 0.87 0.0
C109 C 0.0241 0.16962 0.88905 0.0
O110 O 0.04214 0.15617 0.8777 0.0
O111 O 0.18924 0.28706 0.90267 0.0
C112 C 0.1185 0.27652 0.86542 0.0
O113 O 0.09223 0.28985 0.87444 0.0
C114 C 0.14264 0.13722 0.88365 0.0
O115 O 0.13959 0.14994 0.87008 0.0
O116 O 0.05678 0.20465 0.89775 0.0
C117 C 0.92019 0.71059 0.59128 0.0
O118 O 0.94419 0.75915 0.58619 0.0
O119 O 0.99102 0.81806 0.61217 0.0
Zn120 Zn 0.91465 0.76414 0.6161 0.0
O121 O 0.90706 0.74299 0.63711 0.0
C122 C 0.88707 0.84115 0.61952 0.0
O123 O 0.93081 0.8592 0.62716 0.0
O124 O 0.8969 0.70109 0.60351 0.0
C125 C 0.87879 0.69483 0.64078 0.0
O126 O 0.85544 0.6583 0.63074 0.0
C127 C 0.02889 0.81242 0.61683 0.0
O128 O 0.01909 0.77125 0.62485 0.0
O129 O 0.86939 0.79729 0.61288 0.0
C130 C 0.3045 0.19957 0.58572 0.0
O131 O 0.31294 0.21589 0.59931 0.0
O132 O 0.17793 0.12323 0.60433 0.0
Zn133 Zn 0.23781 0.10933 0.60097 0.0
O134 O 0.2868 0.13309 0.6182 0.0
C135 C 0.21852 -0.00035 0.6021 0.0
O136 O 0.2693 0.01893 0.60431 0.0
O137 O 0.27521 0.15056 0.58306 0.0
C138 C 0.26863 0.116 0.63085 0.0
O139 O 0.21798 0.08243 0.63259 0.0
C140 C 0.17749 0.16281 0.60992 0.0
O141 O 0.22137 0.20303 0.61488 0.0
O142 O 0.20065 0.03038 0.59938 0.0
C143 C 0.80294 0.07291 0.58249 0.0
O144 O 0.82511 0.04361 0.5811 0.0
O145 O 0.85238 0.03154 0.61017 0.0
Zn146 Zn 0.86674 0.106 0.60796 0.0
O147 O 0.84938 0.12885 0.62676 0.0
C148 C 0.97004 0.14068 0.61448 0.0
O149 O 0.94433 0.11934 0.62664 0.0
O150 O 0.81865 0.10741 0.59252 0.0
C151 C 0.87761 0.17428 0.63238 0.0
O152 O 0.92109 0.20942 0.62578 0.0
C153 C 0.8212 0.9953 0.61881 0.0
O154 O 0.78936 0.0028 0.62733 0.0
O155 O 0.94502 0.14558 0.60377 0.0
C156 C 0.97794 0.41784 0.42409 0.0
O157 O 0.95296 0.38744 0.43531 0.0
O158 O 0.85149 0.37374 0.43271 0.0
Zn159 Zn 0.91125 0.44957 0.43382 0.0
O160 O 0.94266 0.46866 0.45395 0.0
C161 C 0.84509 0.48277 0.41932 0.0
O162 O 0.83626 0.44478 0.41012 0.0
O163 O 0.96838 0.45442 0.42063 0.0
C164 C 0.93105 0.49484 0.46278 0.0
O165 O 0.895 0.50716 0.45924 0.0
C166 C 0.82188 0.34785 0.44333 0.0
O167 O 0.82972 0.37017 0.45622 0.0
O168 O 0.88097 0.49633 0.42891 0.0
C169 C 0.57443 0.57423 0.42816 0.0
O170 O 0.59528 0.58001 0.44121 0.0
O171 O 0.63291 0.48727 0.43199 0.0
Zn172 Zn 0.55879 0.47507 0.4346 0.0
O173 O 0.54496 0.48305 0.45569 0.0
C174 C 0.52223 0.37087 0.4381 0.0
O175 O 0.55639 0.39495 0.44865 0.0
O176 O 0.55063 0.52827 0.42257 0.0
C177 C 0.49769 0.45814 0.46035 0.0
O178 O 0.45895 0.4285 0.4514 0.0
C179 C 0.67363 0.52582 0.42623 0.0
O180 O 0.67245 0.568 0.42185 0.0
O181 O 0.51245 0.39831 0.42918 0.0
C182 C 0.42802 0.00731 0.42842 0.0
O183 O 0.41842 0.02918 0.43966 0.0
O184 O 0.50858 0.14174 0.43357 0.0
Zn185 Zn 0.52511 0.08348 0.43755 0.0
O186 O 0.51387 0.06054 0.45854 0.0
C187 C 0.62968 0.15326 0.44159 0.0
O188 O 0.60557 0.16179 0.45245 0.0
O189 O 0.4757 0.02204 0.42513 0.0
C190 C 0.52817 0.02768 0.46226 0.0
O191 O 0.54905 0.0106 0.4525 0.0
C192 C 0.49858 0.16677 0.44319 0.0
O193 O 0.49413 0.15237 0.45694 0.0
O194 O 0.60254 0.11561 0.43279 0.0
C195 C 0.74063 0.64108 0.73297 0.0
O196 O 0.72654 0.63577 0.7192 0.0
O197 O 0.68874 0.50373 0.72214 0.0
Zn198 Zn 0.76312 0.5652 0.72332 0.0
O199 O 0.78505 0.5993 0.70369 0.0
C200 C 0.78988 0.48782 0.73162 0.0
O201 O 0.74061 0.46301 0.7361 0.0
O202 O 0.7623 0.61581 0.73788 0.0
C203 C 0.83384 0.6258 0.70051 0.0
O204 O 0.86954 0.63255 0.7103 0.0
C205 C 0.6537 0.49751 0.71291 0.0
O206 O 0.66429 0.5336 0.70288 0.0
O207 O 0.81115 0.53596 0.72775 0.0
C208 C 0.33702 0.08331 0.72315 0.0
O209 O 0.33534 0.07528 0.70902 0.0
O210 O 0.47622 0.16364 0.71154 0.0
Zn211 Zn 0.41775 0.18068 0.71335 0.0
O212 O 0.3799 0.16865 0.69416 0.0
C213 C 0.46012 0.2953 0.71212 0.0
O214 O 0.42777 0.28524 0.70112 0.0
O215 O 0.36713 0.12955 0.72815 0.0
C216 C 0.40155 0.18864 0.68201 0.0
O217 O 0.45259 0.22212 0.68136 0.0
C218 C 0.47596 0.12263 0.70679 0.0
O219 O 0.43265 0.08326 0.70128 0.0
O220 O 0.45712 0.25736 0.71967 0.0
C221 C 0.88271 0.23587 0.73229 0.0
O222 O 0.89661 0.26198 0.71991 0.0
O223 O 0.80205 0.2843 0.72105 0.0
Zn224 Zn 0.79002 0.21066 0.71882 0.0
O225 O 0.81652 0.20165 0.69927 0.0
C226 C 0.68006 0.13761 0.71096 0.0
O227 O 0.70038 0.13054 0.69901 0.0
O228 O 0.834 0.20342 0.73459 0.0
C229 C 0.8052 0.2144 0.68711 0.0
O230 O 0.77407 0.23477 0.68678 0.0
C231 C 0.8355 0.3269 0.71482 0.0
O232 O 0.86868 0.32695 0.70514 0.0
O233 O 0.71055 0.16482 0.7213 0.0
C234 C 0.34891 0.31216 0.21854 0.0
O235 O 0.35976 0.32532 0.20474 0.0
O236 O 0.49533 0.36106 0.21468 0.0
Zn237 Zn 0.42982 0.28878 0.21396 0.0
O238 O 0.40331 0.26575 0.19357 0.0
C239 C 0.48326 0.23405 0.21338 0.0
O240 O 0.49716 0.26193 0.2013 0.0
O241 O 0.37318 0.29266 0.22533 0.0
C242 C 0.36196 0.22069 0.19231 0.0
O243 O 0.33952 0.19226 0.20403 0.0
C244 C 0.52582 0.38347 0.20389 0.0
O245 O 0.51243 0.36183 0.19088 0.0
O246 O 0.4507 0.23719 0.22196 0.0
C247 C 0.70939 0.07312 0.22153 0.0
O248 O 0.68509 0.06657 0.209 0.0
O249 O 0.6664 0.17065 0.21879 0.0
Zn250 Zn 0.73665 0.17596 0.21438 0.0
O251 O 0.74467 0.16417 0.19309 0.0
C252 C 0.78783 0.28329 0.21102 0.0
O253 O 0.75047 0.26488 0.20111 0.0
O254 O 0.73921 0.11971 0.22633 0.0
C255 C 0.79104 0.17768 0.18876 0.0
O256 O 0.83032 0.19717 0.19812 0.0
C257 C 0.63593 0.17207 0.20916 0.0
O258 O 0.64721 0.17208 0.19528 0.0
O259 O 0.79261 0.25099 0.21931 0.0
C260 C 0.91257 0.64175 0.23601 0.0
O261 O 0.8846 0.59234 0.24032 0.0
O262 O 0.85926 0.53287 0.2141 0.0
Zn263 Zn 0.85185 0.59717 0.21058 0.0
O264 O 0.87021 0.62311 0.18999 0.0
C265 C 0.74321 0.54125 0.20569 0.0
O266 O 0.76178 0.52776 0.19447 0.0
O267 O 0.90337 0.65492 0.22364 0.0
C268 C 0.85875 0.65769 0.18587 0.0
O269 O 0.83497 0.67376 0.19498 0.0
C270 C 0.85258 0.49915 0.20437 0.0
O271 O 0.84631 0.50842 0.1907 0.0
O272 O 0.77546 0.57503 0.21471 0.0
C273 C 0.56263 0.99638 0.93705 0.0
O274 O 0.5695 0.99526 0.95117 0.0
O275 O 0.61882 0.13548 0.94938 0.0
Zn276 Zn 0.54386 0.07506 0.947 0.0
O277 O 0.51117 0.03502 0.96563 0.0
C278 C 0.51091 0.1458 0.95097 0.0
O279 O 0.53477 0.14617 0.96315 0.0
O280 O 0.54593 0.02595 0.93203 0.0
C281 C 0.53593 0.04518 0.97766 0.0
O282 O 0.58539 0.0832 0.97838 0.0
C283 C 0.66288 0.13895 0.95243 0.0
O284 O 0.66519 0.0963 0.95561 0.0
O285 O 0.50544 0.11316 0.94099 0.0
C286 C 0.97289 0.54259 0.92451 0.0
O287 O 0.96165 0.56036 0.93634 0.0
O288 O 0.84697 0.47751 0.93668 0.0
Zn289 Zn 0.90157 0.45559 0.9391 0.0
O290 O 0.93774 0.47935 0.95848 0.0
C291 C 0.83975 0.35319 0.95046 0.0
O292 O 0.85257 0.38172 0.96241 0.0
O293 O 0.95341 0.493 0.92293 0.0
C294 C 0.98536 0.49118 0.96056 0.0
O295 O 0.01368 0.489 0.94974 0.0
C296 C 0.82294 0.48436 0.94723 0.0
O297 O 0.83611 0.48086 0.96072 0.0
O298 O 0.85992 0.37569 0.93834 0.0
C299 C 0.42294 0.40995 0.93125 0.0
O300 O 0.4159 0.39081 0.94454 0.0
O301 O 0.51596 0.36829 0.94028 0.0
Zn302 Zn 0.52386 0.44069 0.94031 0.0
O303 O 0.51138 0.45906 0.96039 0.0
C304 C 0.62939 0.48662 0.94486 0.0
O305 O 0.60822 0.46605 0.95755 0.0
O306 O 0.46967 0.43754 0.92632 0.0
C307 C 0.49993 0.49495 0.96271 0.0
O308 O 0.49526 0.52133 0.95175 0.0
C309 C 0.49104 0.33168 0.94952 0.0
O310 O 0.46582 0.33879 0.96036 0.0
O311 O 0.6 0.4876 0.93477 0.0
C312 C 0.63585 0.72351 0.76828 0.0
O313 O 0.6196 0.70351 0.78136 0.0
O314 O 0.4956 0.67743 0.77216 0.0
Zn315 Zn 0.56006 0.75002 0.77438 0.0
O316 O 0.58268 0.76294 0.79521 0.0
C317 C 0.49909 0.79291 0.76258 0.0
O318 O 0.47785 0.7495 0.75475 0.0
O319 O 0.61734 0.75025 0.76238 0.0
C320 C 0.62342 0.80659 0.79836 0.0
O321 O 0.64969 0.84097 0.788 0.0
C322 C 0.47366 0.64581 0.78278 0.0
O323 O 0.49368 0.65965 0.79594 0.0
O324 O 0.54097 0.8057 0.76973 0.0
C325 C 0.24917 0.88351 0.75184 0.0
O326 O 0.27591 0.86094 0.74743 0.0
O327 O 0.304 0.82565 0.77194 0.0
Zn328 Zn 0.23195 0.81628 0.77589 0.0
O329 O 0.22451 0.83175 0.79676 0.0
C330 C 0.19475 0.7141 0.78223 0.0
O331 O 0.23119 0.7419 0.79197 0.0
O332 O 0.22173 0.86697 0.76339 0.0
C333 C 0.18235 0.83165 0.80016 0.0
O334 O 0.14737 0.82387 0.79004 0.0
C335 C 0.347 0.8542 0.77867 0.0
O336 O 0.34839 0.8833 0.78977 0.0
O337 O 0.18285 0.73828 0.77274 0.0
C338 C 0.06248 0.35011 0.76823 0.0
O339 O 0.05835 0.38799 0.77471 0.0
O340 O 0.16023 0.47654 0.77822 0.0
Zn341 Zn 0.16269 0.40912 0.78102 0.0
O342 O 0.15246 0.38707 0.80203 0.0
C343 C 0.27068 0.46182 0.78398 0.0
O344 O 0.25425 0.46888 0.79667 0.0
O345 O 0.10575 0.34991 0.7692 0.0
C346 C 0.14061 0.34002 0.8051 0.0
O347 O 0.13434 0.3068 0.79459 0.0
C348 C 0.14285 0.49718 0.78726 0.0
O349 O 0.12107 0.47267 0.79953 0.0
O350 O 0.23686 0.43011 0.77487 0.0
C351 C 0.40208 0.98458 0.07428 0.0
O352 O 0.36944 0.9698 0.06315 0.0
O353 O 0.34428 0.85175 0.06141 0.0
Zn354 Zn 0.41939 0.91209 0.06017 0.0
O355 O 0.43473 0.94828 0.04075 0.0
C356 C 0.44982 0.83611 0.06795 0.0
O357 O 0.40712 0.81714 0.07608 0.0
O358 O 0.43242 0.96541 0.07567 0.0
C359 C 0.43787 0.92399 0.02966 0.0
O360 O 0.42692 0.87476 0.03093 0.0
C361 C 0.30495 0.84454 0.05379 0.0
O362 O 0.31022 0.87969 0.044 0.0
O363 O 0.466 0.87981 0.06137 0.0
C364 C 0.01592 0.42183 0.05617 0.0
O365 O 0.04117 0.418 0.0448 0.0
O366 O 0.15025 0.51909 0.05269 0.0
Zn367 Zn 0.08527 0.52477 0.04882 0.0
O368 O 0.06749 0.51227 0.02752 0.0
C369 C 0.14471 0.62805 0.06104 0.0
O370 O 0.16533 0.60507 0.06879 0.0
O371 O 0.02556 0.46738 0.06031 0.0
C372 C 0.05262 0.53973 0.02034 0.0
O373 O 0.04853 0.57757 0.02685 0.0
C374 C 0.17189 0.50386 0.04334 0.0
O375 O 0.15041 0.48808 0.03039 0.0
O376 O 0.10389 0.59984 0.05336 0.0
C377 C 0.585 0.60844 0.05984 0.0
O378 O 0.58975 0.64472 0.0505 0.0
O379 O 0.49374 0.64837 0.05529 0.0
Zn380 Zn 0.48518 0.57699 0.05072 0.0
O381 O 0.49724 0.57077 0.0294 0.0
C382 C 0.38091 0.53722 0.04675 0.0
O383 O 0.40498 0.57122 0.03618 0.0
O384 O 0.53933 0.5689 0.06216 0.0
C385 C 0.47373 0.52543 0.02347 0.0
O386 O 0.44288 0.48347 0.03132 0.0
C387 C 0.50693 0.68626 0.04639 0.0
O388 O 0.52077 0.68268 0.03298 0.0
O389 O 0.40836 0.52736 0.05563 0.0
C390 C 0.01215 0.61427 0.55767 0.0
O391 O 0.02825 0.64013 0.54526 0.0
O392 O 0.13877 0.65917 0.54601 0.0
Zn393 Zn 0.07867 0.5827 0.54651 0.0
O394 O 0.03841 0.55733 0.52759 0.0
C395 C 0.12924 0.52205 0.54225 0.0
O396 O 0.12181 0.5304 0.52863 0.0
O397 O 0.02731 0.58178 0.56113 0.0
C398 C 0.05682 0.57617 0.51507 0.0
O399 O 0.10561 0.61537 0.51379 0.0
C400 C 0.18391 0.67255 0.54067 0.0
O401 O 0.19145 0.63753 0.5338 0.0
O402 O 0.11032 0.53739 0.5524 0.0
C403 C 0.36507 0.38162 0.54989 0.0
O404 O 0.34226 0.38043 0.53743 0.0
O405 O 0.33197 0.48658 0.54804 0.0
Zn406 Zn 0.40057 0.4874 0.54499 0.0
O407 O 0.41384 0.48032 0.52384 0.0
C408 C 0.4593 0.59423 0.54314 0.0
O409 O 0.43085 0.5793 0.53117 0.0
O410 O 0.39577 0.42585 0.55588 0.0
C411 C 0.45238 0.47355 0.52073 0.0
O412 O 0.48148 0.4707 0.53122 0.0
C413 C 0.29666 0.47515 0.53841 0.0
O414 O 0.30231 0.45985 0.52539 0.0
O415 O 0.45658 0.5592 0.55191 0.0
C416 C 0.60167 0.97038 0.55398 0.0
O417 O 0.60541 0.94799 0.54195 0.0
O418 O 0.50755 0.83566 0.55091 0.0
Zn419 Zn 0.49951 0.89913 0.54708 0.0
O420 O 0.51119 0.92067 0.52597 0.0
C421 C 0.3927 0.83848 0.54387 0.0
O422 O 0.41303 0.82304 0.53353 0.0
O423 O 0.55611 0.95806 0.55885 0.0
C424 C 0.4934 0.94986 0.52146 0.0
O425 O 0.46826 0.96449 0.53052 0.0
C426 C 0.50938 0.80651 0.54093 0.0
O427 O 0.51086 0.82002 0.52719 0.0
O428 O 0.4236 0.87627 0.5522 0.0
C429 C 0.23798 0.37295 0.25764 0.0
O430 O 0.2497 0.36118 0.27041 0.0
O431 O 0.30201 0.49922 0.27752 0.0
Zn432 Zn 0.22555 0.44107 0.27603 0.0
O433 O 0.20015 0.38799 0.29248 0.0
C434 C 0.18811 0.50212 0.28884 0.0
O435 O 0.20963 0.49139 0.29994 0.0
O436 O 0.21958 0.40416 0.25707 0.0
C437 C 0.22643 0.39429 0.30406 0.0
O438 O 0.2734 0.43628 0.30553 0.0
C439 C 0.34479 0.49776 0.27743 0.0
O440 O 0.34376 0.45233 0.27781 0.0
O441 O 0.18592 0.48104 0.27652 0.0
C442 C 0.6168 0.87799 0.25332 0.0
O443 O 0.56564 0.85162 0.25095 0.0
O444 O 0.52025 0.8261 0.27909 0.0
Zn445 Zn 0.58326 0.81543 0.27877 0.0
O446 O 0.61693 0.83215 0.29865 0.0
C447 C 0.5091 0.71109 0.269 0.0
O448 O 0.48578 0.73574 0.26356 0.0
O449 O 0.63543 0.86629 0.26429 0.0
C450 C 0.62838 0.80058 0.30504 0.0
O451 O 0.6186 0.75637 0.29866 0.0
C452 C 0.51078 0.85461 0.28762 0.0
O453 O 0.54531 0.88324 0.29769 0.0
O454 O 0.5549 0.73776 0.27458 0.0
C455 C 0.09975 0.763 0.27027 0.0
O456 O 0.08847 0.75783 0.28425 0.0
O457 O 0.18505 0.71649 0.28602 0.0
Zn458 Zn 0.19699 0.78946 0.28242 0.0
O459 O 0.18084 0.81773 0.30044 0.0
C460 C 0.30169 0.82809 0.2881 0.0
O461 O 0.27722 0.80477 0.30024 0.0
O462 O 0.14749 0.78174 0.26622 0.0
C463 C 0.20622 0.86647 0.30375 0.0
O464 O 0.24465 0.90006 0.29524 0.0
C465 C 0.14765 0.67579 0.29205 0.0
O466 O 0.10747 0.67752 0.29788 0.0
O467 O 0.27485 0.83091 0.27756 0.0
C468 C 0.26454 0.16808 0.16076 0.0
C469 C 0.2967 0.1644 0.14976 0.0
C470 C 0.36909 0.19118 0.16722 0.0
C471 C 0.33907 0.20041 0.17777 0.0
N472 N 0.26121 0.2048 0.18419 0.0
N473 N 0.38093 0.17642 0.14185 0.0
C474 C 0.28738 0.19041 0.17449 0.0
C475 C 0.34943 0.17721 0.15279 0.0
N476 N 0.21225 0.15024 0.15808 0.0
N477 N 0.41528 0.19339 0.17118 0.0
H478 H 0.36728 0.16331 0.13131 0.0
H479 H 0.4215 0.19177 0.14295 0.0
H480 H 0.43063 0.2029 0.18169 0.0
H481 H 0.43596 0.18117 0.16448 0.0
H482 H 0.18539 0.14649 0.16612 0.0
H483 H 0.1946 0.13527 0.14799 0.0
H484 H 0.226 0.20401 0.18179 0.0
H485 H 0.27685 0.22191 0.19429 0.0
C486 C 0.80582 0.20731 0.16269 0.0
C487 C 0.80084 0.16997 0.1734 0.0
C488 C 0.81597 0.1187 0.15481 0.0
C489 C 0.82623 0.15884 0.14446 0.0
N490 N 0.83863 0.245 0.13876 0.0
N491 N 0.80636 0.09319 0.1803 0.0
C492 C 0.82289 0.20403 0.14841 0.0
C493 C 0.80744 0.12651 0.16964 0.0
N494 N 0.79406 0.24578 0.16616 0.0
N495 N 0.81246 0.07235 0.15035 0.0
H496 H 0.79832 0.09661 0.1912 0.0
H497 H 0.81688 0.06442 0.17855 0.0
H498 H 0.81797 0.06505 0.13953 0.0
H499 H 0.79961 0.03935 0.15705 0.0
H500 H 0.79127 0.27055 0.15847 0.0
H501 H 0.7831 0.25042 0.17662 0.0
H502 H 0.84294 0.28151 0.14154 0.0
H503 H 0.85178 0.24429 0.12822 0.0
C504 C 0.8561 0.64778 0.15862 0.0
C505 C 0.87351 0.681 0.1711 0.0
C506 C 0.91243 0.75932 0.15534 0.0
C507 C 0.89924 0.72605 0.14294 0.0
N508 N 0.86943 0.63912 0.13294 0.0
N509 N 0.92873 0.76796 0.18135 0.0
C510 C 0.87425 0.67037 0.14462 0.0
C511 C 0.90472 0.73672 0.16948 0.0
N512 N 0.82034 0.59507 0.16003 0.0
N513 N 0.93007 0.81211 0.15368 0.0
H514 H 0.92549 0.75284 0.19186 0.0
H515 H 0.95621 0.80818 0.18056 0.0
H516 H 0.93528 0.83018 0.14352 0.0
H517 H 0.93474 0.83698 0.1624 0.0
H518 H 0.80205 0.57029 0.15115 0.0
H519 H 0.80492 0.57706 0.17005 0.0
H520 H 0.85641 0.59888 0.13389 0.0
H521 H 0.88355 0.65426 0.12255 0.0
C522 C 0.13232 0.30526 0.33362 0.0
C523 C 0.16532 0.29023 0.34106 0.0
C524 C 0.23282 0.33336 0.3221 0.0
C525 C 0.2035 0.3556 0.31613 0.0
N526 N 0.12792 0.36851 0.31759 0.0
N527 N 0.25086 0.29669 0.34353 0.0
C528 C 0.15367 0.3428 0.32216 0.0
C529 C 0.2165 0.30558 0.33555 0.0
N530 N 0.08017 0.28289 0.33733 0.0
N531 N 0.27556 0.3377 0.31475 0.0
H532 H 0.24143 0.2778 0.35364 0.0
H533 H 0.29052 0.31243 0.34073 0.0
H534 H 0.28792 0.35671 0.30468 0.0
H535 H 0.29521 0.31776 0.31789 0.0
H536 H 0.05297 0.28828 0.33131 0.0
H537 H 0.06293 0.25443 0.34549 0.0
H538 H 0.09478 0.36513 0.32288 0.0
H539 H 0.14204 0.39697 0.30938 0.0
C540 C 0.72201 0.86926 0.3367 0.0
C541 C 0.69281 0.83487 0.34832 0.0
C542 C 0.62 0.78043 0.33174 0.0
C543 C 0.65068 0.81251 0.31991 0.0
N544 N 0.73355 0.8824 0.31052 0.0
N545 N 0.61865 0.75307 0.35678 0.0
C546 C 0.70247 0.85564 0.32221 0.0
C547 C 0.64308 0.78908 0.34581 0.0
N548 N 0.76745 0.91571 0.3396 0.0
N549 N 0.56808 0.74318 0.32964 0.0
H550 H 0.63422 0.7582 0.36728 0.0
H551 H 0.58533 0.71607 0.35518 0.0
H552 H 0.54959 0.73603 0.31951 0.0
H553 H 0.54205 0.72263 0.33812 0.0
H554 H 0.7874 0.94526 0.33185 0.0
H555 H 0.78328 0.92662 0.35007 0.0
H556 H 0.77353 0.91043 0.31138 0.0
H557 H 0.72048 0.87362 0.29975 0.0
C558 C 0.16986 0.86994 0.34328 0.0
C559 C 0.16654 0.91674 0.34354 0.0
C560 C 0.18286 0.92715 0.31721 0.0
C561 C 0.19345 0.88465 0.31743 0.0
N562 N 0.20846 0.82335 0.33155 0.0
N563 N 0.17773 0.99478 0.33123 0.0
C564 C 0.19014 0.85815 0.33071 0.0
C565 C 0.17514 0.94678 0.33063 0.0
N566 N 0.15163 0.83548 0.35479 0.0
N567 N 0.17776 0.9472 0.30422 0.0
H568 H 0.17264 0.01064 0.34088 0.0
H569 H 0.18953 0.02083 0.32242 0.0
H570 H 0.18128 0.93277 0.29413 0.0
H571 H 0.16481 0.9745 0.30345 0.0
H572 H 0.14853 0.79836 0.35449 0.0
H573 H 0.134 0.84124 0.36397 0.0
H574 H 0.2117 0.80718 0.34137 0.0
H575 H 0.22588 0.81512 0.32278 0.0
C576 C 0.60639 0.82346 0.82394 0.0
C577 C 0.64032 0.81892 0.81369 0.0
C578 C 0.70616 0.83827 0.83275 0.0
C579 C 0.67004 0.83755 0.84323 0.0
N580 N 0.58406 0.82466 0.84937 0.0
N581 N 0.71893 0.81455 0.80835 0.0
C582 C 0.61958 0.8287 0.83899 0.0
C583 C 0.68948 0.82468 0.81806 0.0
N584 N 0.5627 0.82489 0.81919 0.0
N585 N 0.75649 0.85224 0.83684 0.0
H586 H 0.7079 0.8042 0.79749 0.0
H587 H 0.75209 0.81215 0.81128 0.0
H588 H 0.76953 0.86077 0.8476 0.0
H589 H 0.78645 0.85923 0.82947 0.0
H590 H 0.53934 0.83357 0.82593 0.0
H591 H 0.55223 0.82199 0.80821 0.0
H592 H 0.54454 0.81197 0.84714 0.0
H593 H 0.59318 0.83079 0.86046 0.0
C594 C 0.1522 0.88259 0.83486 0.0
C595 C 0.14752 0.84368 0.84497 0.0
C596 C 0.16194 0.79518 0.82549 0.0
C597 C 0.17073 0.83612 0.81558 0.0
N598 N 0.18241 0.92263 0.811 0.0
N599 N 0.15753 0.76852 0.85072 0.0
C600 C 0.16806 0.88095 0.82029 0.0
C601 C 0.15554 0.80176 0.84054 0.0
N602 N 0.14075 0.92058 0.83912 0.0
N603 N 0.15678 0.7488 0.82042 0.0
H604 H 0.1524 0.77173 0.86186 0.0
H605 H 0.16883 0.74075 0.84828 0.0
H606 H 0.15904 0.74167 0.80938 0.0
H607 H 0.14495 0.71548 0.82693 0.0
H608 H 0.13747 0.94635 0.83191 0.0
H609 H 0.13116 0.92424 0.84984 0.0
H610 H 0.18677 0.95878 0.81422 0.0
H611 H 0.19417 0.92269 0.80024 0.0
C612 C 0.17402 0.3322 0.84468 0.0
C613 C 0.12415 0.29246 0.84996 0.0
C614 C 0.08434 0.2863 0.826 0.0
C615 C 0.135 0.32307 0.82046 0.0
N616 N 0.2296 0.37389 0.82358 0.0
N617 N 0.03388 0.22503 0.84533 0.0
C618 C 0.18035 0.34414 0.82954 0.0
C619 C 0.07977 0.26765 0.84054 0.0
N620 N 0.21482 0.35965 0.85421 0.0
N621 N 0.04046 0.27048 0.8175 0.0
H622 H 0.02934 0.21006 0.85588 0.0
H623 H 0.00196 0.20172 0.83856 0.0
H624 H 0.04236 0.28283 0.80673 0.0
H625 H 0.00196 0.24848 0.82145 0.0
H626 H 0.25035 0.3929 0.85125 0.0
H627 H 0.21164 0.35196 0.8654 0.0
H628 H 0.26447 0.3858 0.82935 0.0
H629 H 0.23576 0.38266 0.81247 0.0
C630 C 0.87497 0.62715 0.67641 0.0
C631 C 0.84989 0.64708 0.68563 0.0
C632 C 0.84292 0.6977 0.66533 0.0
C633 C 0.87057 0.68007 0.65633 0.0
N634 N 0.92232 0.63709 0.65382 0.0
N635 N 0.82023 0.7095 0.68995 0.0
C636 C 0.88941 0.64744 0.66202 0.0
C637 C 0.83692 0.68487 0.68041 0.0
N638 N 0.88281 0.58718 0.68115 0.0
N639 N 0.82029 0.72457 0.65935 0.0
H640 H 0.81613 0.70155 0.70112 0.0
H641 H 0.81531 0.74127 0.68705 0.0
H642 H 0.82321 0.73423 0.6483 0.0
H643 H 0.79484 0.73339 0.66506 0.0
H644 H 0.89494 0.56672 0.67433 0.0
H645 H 0.87338 0.57151 0.69166 0.0
H646 H 0.94189 0.61827 0.65793 0.0
H647 H 0.93392 0.65151 0.64323 0.0
C648 C 0.37948 0.14433 0.65757 0.0
C649 C 0.36914 0.1722 0.66859 0.0
C650 C 0.29601 0.16713 0.65415 0.0
C651 C 0.3039 0.13606 0.64366 0.0
N652 N 0.349 0.09033 0.63572 0.0
N653 N 0.31519 0.20644 0.67824 0.0
C654 C 0.34489 0.12382 0.64538 0.0
C655 C 0.32662 0.18241 0.66714 0.0
N656 N 0.42196 0.13684 0.65884 0.0
N657 N 0.26089 0.18413 0.65135 0.0
H658 H 0.33883 0.22206 0.68745 0.0
H659 H 0.28063 0.20844 0.67874 0.0
H660 H 0.23766 0.17376 0.64197 0.0
H661 H 0.25764 0.21196 0.65767 0.0
H662 H 0.43597 0.12341 0.65038 0.0
H663 H 0.44522 0.14627 0.6682 0.0
H664 H 0.3735 0.07437 0.63722 0.0
H665 H 0.32514 0.07536 0.62652 0.0
C666 C 0.82355 0.15589 0.67085 0.0
C667 C 0.82593 0.20509 0.67333 0.0
C668 C 0.85915 0.23298 0.64846 0.0
C669 C 0.86216 0.18633 0.64662 0.0
N670 N 0.86044 0.11028 0.65769 0.0
N671 N 0.85952 0.29571 0.66569 0.0
C672 C 0.84836 0.14982 0.6583 0.0
C673 C 0.8477 0.24526 0.66249 0.0
N674 N 0.79547 0.11388 0.67997 0.0
N675 N 0.86466 0.26439 0.63676 0.0
H676 H 0.85433 0.30722 0.67603 0.0
H677 H 0.88006 0.32734 0.65854 0.0
H678 H 0.87102 0.25592 0.62615 0.0
H679 H 0.85736 0.29582 0.63735 0.0
H680 H 0.78817 0.07586 0.67765 0.0
H681 H 0.77458 0.11519 0.68901 0.0
H682 H 0.8558 0.08593 0.66656 0.0
H683 H 0.88056 0.10552 0.64896 0.0
C684 C 0.99755 0.49975 0.49881 0.0
C685 C 0.02283 0.55471 0.502 0.0
C686 C 0.99047 0.57058 0.479 0.0
C687 C 0.96146 0.51524 0.47644 0.0
N688 N 0.92899 0.42637 0.48524 0.0
N689 N 0.03255 0.64029 0.4969 0.0
C690 C 0.96257 0.47955 0.48673 0.0
C691 C 0.01621 0.58957 0.4926 0.0
N692 N 0.00852 0.46704 0.50688 0.0
N693 N 0.99567 0.60524 0.46821 0.0
H694 H 0.05001 0.65535 0.50701 0.0
H695 H 0.02373 0.66561 0.4911 0.0
H696 H 0.97879 0.59323 0.45789 0.0
H697 H 0.02111 0.64593 0.46899 0.0
H698 H 0.9962 0.42812 0.50394 0.0
H699 H 0.03372 0.47976 0.51584 0.0
H700 H 0.92382 0.39888 0.49326 0.0
H701 H 0.90251 0.41003 0.47659 0.0
C702 C 0.45463 0.42028 0.49971 0.0
C703 C 0.46486 0.46968 0.50537 0.0
C704 C 0.49298 0.51043 0.48125 0.0
C705 C 0.48638 0.46205 0.47582 0.0
N706 N 0.46905 0.37324 0.48009 0.0
N707 N 0.50216 0.5638 0.50246 0.0
C708 C 0.46934 0.4175 0.4851 0.0
C709 C 0.48636 0.51539 0.4964 0.0
N710 N 0.42939 0.37578 0.50816 0.0
N711 N 0.50372 0.55097 0.47183 0.0
H712 H 0.49819 0.56888 0.51355 0.0
H713 H 0.52334 0.59934 0.49681 0.0
H714 H 0.50868 0.54865 0.46064 0.0
H715 H 0.50331 0.58511 0.47487 0.0
H716 H 0.41536 0.33769 0.50416 0.0
H717 H 0.41883 0.37643 0.519 0.0
H718 H 0.46263 0.34166 0.48675 0.0
H719 H 0.47952 0.36977 0.46945 0.0
C720 C 0.54965 0.04222 0.48889 0.0
C721 C 0.52002 0.00754 0.47738 0.0
C722 C 0.47654 0.93379 0.49464 0.0
C723 C 0.50306 0.96943 0.50628 0.0
N724 N 0.56182 0.05797 0.51496 0.0
N725 N 0.45124 0.92222 0.46912 0.0
C726 C 0.53859 0.02385 0.50354 0.0
C727 C 0.48259 0.9537 0.48019 0.0
N728 N 0.59014 0.09192 0.48574 0.0
N729 N 0.44572 0.88087 0.4974 0.0
H730 H 0.45521 0.93506 0.45833 0.0
H731 H 0.41882 0.8846 0.47069 0.0
H732 H 0.43775 0.86509 0.5079 0.0
H733 H 0.43057 0.85205 0.4893 0.0
H734 H 0.61716 0.11729 0.49342 0.0
H735 H 0.59965 0.10645 0.47513 0.0
H736 H 0.58267 0.09894 0.51384 0.0
H737 H 0.55801 0.04561 0.5258 0.0
C738 C 0.43658 0.97674 0.00827 0.0
C739 C 0.46173 0.95353 0.01607 0.0
C740 C 0.53166 0.98493 -0.00236 0.0
C741 C 0.50968 0.01292 0.9907 0.0
N742 N 0.44589 0.04257 0.99059 0.0
N743 N 0.53853 0.94415 0.01986 0.0
C744 C 0.46324 0.01066 -0.00371 0.0
C745 C 0.51069 0.95982 0.01121 0.0
N746 N 0.38662 0.96516 0.01204 0.0
N747 N 0.57138 0.98069 0.99103 0.0
H748 H 0.52538 0.92667 0.03008 0.0
H749 H 0.57708 0.95314 0.01756 0.0
H750 H 0.58752 0.99793 0.98097 0.0
H751 H 0.58481 0.95587 0.99484 0.0
H752 H 0.364 0.9763 0.0058 0.0
H753 H 0.36588 0.94034 0.02074 0.0
H754 H 0.41575 0.04687 0.99526 0.0
H755 H 0.46461 0.06845 0.98192 0.0
C756 C 0.0448 0.55567 0.97938 0.0
C757 C 0.00689 0.50317 0.97547 0.0
C758 C 0.9969 0.47561 0.001 0.0
C759 C 0.03741 0.52721 0.00487 0.0
N760 N 0.1073 0.61361 -0.00248 0.0
N761 N 0.95651 0.41073 0.98177 0.0
C762 C 0.06355 0.56658 0.99399 0.0
C763 C 0.9859 0.46234 0.98606 0.0
N764 N 0.06149 0.59533 0.96928 0.0
N765 N 0.96701 0.44012 0.01159 0.0
H766 H 0.94894 0.39958 0.97083 0.0
H767 H 0.94441 0.37891 0.9889 0.0
H768 H 0.97236 0.44896 0.0227 0.0
H769 H 0.9335 0.40386 0.00934 0.0
H770 H 0.08441 0.63527 0.97189 0.0
H771 H 0.04927 0.58859 0.95841 0.0
H772 H 0.13124 0.64158 0.98979 0.0
H773 H 0.12252 0.62279 0.00807 0.0
C774 C 0.53843 0.53046 0.98713 0.0
C775 C 0.49363 0.50761 0.97786 0.0
C776 C 0.43684 0.50252 -0.00182 0.0
C777 C 0.48066 0.51998 0.00774 0.0
N778 N 0.57141 0.54358 0.01192 0.0
N779 N 0.39942 0.46695 0.97441 0.0
C780 C 0.53115 0.53242 0.00238 0.0
C781 C 0.44259 0.49259 0.9833 0.0
N782 N 0.58802 0.55133 0.98129 0.0
N783 N 0.3902 0.49689 0.00321 0.0
H784 H 0.4022 0.46021 0.96336 0.0
H785 H 0.36059 0.44922 0.97816 0.0
H786 H 0.3842 0.50311 0.01408 0.0
H787 H 0.35876 0.49007 -0.00354 0.0
H788 H 0.62257 0.57329 0.98728 0.0
H789 H 0.59473 0.55093 0.97012 0.0
H790 H 0.60744 0.5474 0.00879 0.0
H791 H 0.56727 0.54443 0.0232 0.0
C792 C 0.3866 0.09768 0.0878 0.0
C793 C 0.36798 0.07873 0.10205 0.0
C794 C 0.39398 0.01187 0.09983 0.0
C795 C 0.40278 0.02356 0.08469 0.0
N796 N 0.42599 0.08763 0.06544 0.0
N797 N 0.38749 0.0446 0.12358 0.0
C798 C 0.40543 0.07021 0.07906 0.0
C799 C 0.383 0.0447 0.10876 0.0
N800 N 0.38667 0.14185 0.08289 0.0
N801 N 0.39175 0.96757 0.10554 0.0
H802 H 0.38356 0.07173 0.13012 0.0
H803 H 0.40184 0.023 0.12902 0.0
H804 H 0.39872 0.94154 0.09949 0.0
H805 H 0.37924 0.95473 0.11618 0.0
H806 H 0.39504 0.15575 0.07222 0.0
H807 H 0.38028 0.16617 0.08994 0.0
H808 H 0.43004 0.12159 0.06055 0.0
H809 H 0.44222 0.06921 0.05926 0.0
C810 C 0.94141 0.32871 0.05691 0.0
C811 C 0.98077 0.37333 0.06455 0.0
C812 C 0.96261 0.31892 0.08648 0.0
C813 C 0.93229 0.27291 0.0779 0.0
N814 N 0.89058 0.23303 0.0551 0.0
N815 N 0.03295 0.41 0.08645 0.0
C816 C 0.92055 0.27757 0.06317 0.0
C817 C 0.99173 0.36863 0.0794 0.0
N818 N 0.92379 0.33557 0.04373 0.0
N819 N 0.96479 0.31535 0.10132 0.0
H820 H 0.05658 0.44704 0.08176 0.0
H821 H 0.04688 0.40629 0.09659 0.0
H822 H 0.94524 0.2799 0.10705 0.0
H823 H 0.9818 0.34837 0.10811 0.0
H824 H 0.89217 0.30532 0.0381 0.0
H825 H 0.93757 0.3729 0.03913 0.0
H826 H 0.88593 0.2334 0.04384 0.0
H827 H 0.87202 0.19519 0.05966 0.0
C828 C 0.63559 0.61248 0.08276 0.0
C829 C 0.63315 0.61553 0.06733 0.0
C830 C 0.72979 0.66376 0.06589 0.0
C831 C 0.73225 0.66117 0.08133 0.0
N832 N 0.68858 0.61566 0.10347 0.0
N833 N 0.67678 0.625 0.04427 0.0
C834 C 0.68537 0.6294 0.08942 0.0
C835 C 0.68 0.63458 0.05893 0.0
N836 N 0.59182 0.59754 0.09122 0.0
N837 N 0.77353 0.69689 0.05789 0.0
H838 H 0.64065 0.60246 0.03897 0.0
H839 H 0.70967 0.63414 0.03781 0.0
H840 H 0.81088 0.72053 0.06235 0.0
H841 H 0.77172 0.70431 0.04684 0.0
H842 H 0.59357 0.60095 0.10256 0.0
H843 H 0.55446 0.5858 0.08705 0.0
H844 H 0.65563 0.58891 0.10949 0.0
H845 H 0.72469 0.62636 0.10847 0.0
C846 C 0.04932 0.39523 0.42407 0.0
C847 C 0.01563 0.4075 0.41589 0.0
C848 C 0.04254 0.38089 0.39369 0.0
C849 C 0.06417 0.356 0.40233 0.0
N850 N 0.08422 0.33622 0.42642 0.0
N851 N 0.97728 0.40831 0.39248 0.0
C852 C 0.0676 0.36305 0.41771 0.0
C853 C 0.01212 0.40041 0.40052 0.0
N854 N 0.0635 0.41413 0.43795 0.0
N855 N 0.05131 0.38608 0.37898 0.0
H856 H 0.95314 0.42158 0.39685 0.0
H857 H 0.96925 0.39747 0.38154 0.0
H858 H 0.07514 0.37387 0.37374 0.0
H859 H 0.04015 0.40785 0.37235 0.0
H860 H 0.09146 0.40998 0.44398 0.0
H861 H 0.05176 0.4391 0.44271 0.0
H862 H 0.08159 0.33595 0.43777 0.0
H863 H 0.09607 0.31037 0.42248 0.0
C864 C 0.58573 0.66402 0.42759 0.0
C865 C 0.58704 0.62279 0.41979 0.0
C866 C 0.64571 0.6872 0.40164 0.0
C867 C 0.65414 0.72839 0.41142 0.0
N868 N 0.62963 0.75803 0.43295 0.0
N869 N 0.61284 0.5938 0.3981 0.0
C870 C 0.62259 0.71747 0.42406 0.0
C871 C 0.61403 0.63371 0.40618 0.0
N872 N 0.54931 0.65139 0.43846 0.0
N873 N 0.66875 0.69929 0.38813 0.0
H874 H 0.58611 0.554 0.39987 0.0
H875 H 0.63909 0.59999 0.38963 0.0
H876 H 0.69399 0.73789 0.38462 0.0
H877 H 0.65954 0.6715 0.37988 0.0
H878 H 0.54353 0.6791 0.44405 0.0
H879 H 0.52126 0.61216 0.44081 0.0
H880 H 0.61222 0.75252 0.4432 0.0
H881 H 0.65483 0.79763 0.43022 0.0
C882 C 0.33919 0.92692 0.42599 0.0
C883 C 0.3832 0.97024 0.41916 0.0
C884 C 0.33208 0.95266 0.39663 0.0
C885 C 0.28585 0.91742 0.40446 0.0
N886 N 0.244 0.86836 0.42624 0.0
N887 N 0.42098 0.02699 0.39804 0.0
C888 C 0.28911 0.90309 0.419 0.0
C889 C 0.38011 0.98306 0.40436 0.0
N890 N 0.34561 0.90883 0.43915 0.0
N891 N 0.32965 0.9582 0.38188 0.0
H892 H 0.45684 0.05132 0.40321 0.0
H893 H 0.418 0.04194 0.38799 0.0
H894 H 0.29471 0.93747 0.37593 0.0
H895 H 0.363 0.97928 0.37535 0.0
H896 H 0.31629 0.87479 0.44421 0.0
H897 H 0.38218 0.92542 0.44437 0.0
H898 H 0.24255 0.86096 0.4374 0.0
H899 H 0.20725 0.8484 0.42108 0.0
C900 C 0.59394 0.89287 0.92363 0.0
C901 C 0.6356 0.92317 0.91378 0.0
C902 C 0.62446 -5e-05 0.91745 0.0
C903 C 0.58233 0.96968 0.92731 0.0
N904 N 0.51863 0.88472 0.93713 0.0
N905 N 0.68085 -0.00042 0.89813 0.0
C906 C 0.56436 0.91514 0.92953 0.0
C907 C 0.64737 0.97465 0.90958 0.0
N908 N 0.58387 0.84363 0.92768 0.0
N909 N 0.64566 0.05355 0.91641 0.0
H910 H 0.69924 0.98271 0.89224 0.0
H911 H 0.68642 0.0347 0.89358 0.0
H912 H 0.63168 0.07475 0.92217 0.0
H913 H 0.68049 0.07809 0.91077 0.0
H914 H 0.55809 0.8218 0.93608 0.0
H915 H 0.60366 0.82568 0.92309 0.0
H916 H 0.50086 0.84382 0.93811 0.0
H917 H 0.49575 0.89994 0.94133 0.0
C918 C 0.96732 0.5829 0.90123 0.0
C919 C -0.00074 0.58004 0.9124 0.0
C920 C 0.07357 0.66536 0.90461 0.0
C921 C 0.03881 0.67205 0.89522 0.0
N922 N 0.95032 0.64021 0.88596 0.0
N923 N 0.08265 0.61688 0.9249 0.0
C924 C 0.98528 0.63129 0.89366 0.0
C925 C 0.05265 0.62062 0.91403 0.0
N926 N 0.91918 0.53992 0.89812 0.0
N927 N 0.12646 0.70143 0.90436 0.0
H928 H 0.06929 0.58293 0.93129 0.0
H929 H 0.11967 0.64775 0.92792 0.0
H930 H 0.14271 0.73447 0.89752 0.0
H931 H 0.15467 0.69655 0.90999 0.0
H932 H 0.89667 0.53805 0.88908 0.0
H933 H 0.90393 0.5041 0.90367 0.0
H934 H 0.90966 0.61424 0.88595 0.0
H935 H 0.96075 0.67575 0.8807 0.0
C936 C 0.36201 0.33626 0.91521 0.0
C937 C 0.37765 0.38669 0.9212 0.0
C938 C 0.30093 0.38576 0.91008 0.0
C939 C 0.28283 0.33324 0.90531 0.0
N940 N 0.29023 0.25442 0.90582 0.0
N941 N 0.36081 0.45809 0.92581 0.0
C942 C 0.31185 0.30738 0.90849 0.0
C943 C 0.34683 0.41122 0.91903 0.0
N944 N 0.39536 0.31612 0.91585 0.0
N945 N 0.27508 0.41159 0.90572 0.0
H946 H 0.39524 0.47849 0.932 0.0
H947 H 0.33698 0.47522 0.92602 0.0
H948 H 0.24106 0.39373 0.89928 0.0
H949 H 0.28926 0.45163 0.90757 0.0
H950 H 0.38852 0.28213 0.91031 0.0
H951 H 0.43237 0.33586 0.92084 0.0
H952 H 0.30703 0.23227 0.9094 0.0
H953 H 0.25278 0.23114 0.90129 0.0
C954 C 0.96879 0.66051 0.59102 0.0
C955 C 0.93133 0.6714 0.58439 0.0
C956 C 0.93482 0.62686 0.56215 0.0
C957 C 0.98008 0.62663 0.5677 0.0
N958 N 0.0448 0.65028 0.58698 0.0
N959 N 0.87729 0.66439 0.56376 0.0
C960 C 0.99786 0.64436 0.58212 0.0
C961 C 0.91354 0.65393 0.57001 0.0
N962 N 0.97754 0.66648 0.60572 0.0
N963 N 0.9119 0.60058 0.5495 0.0
H964 H 0.8587 0.68128 0.56957 0.0
H965 H 0.86745 0.65849 0.55272 0.0
H966 H 0.92589 0.57923 0.54374 0.0
H967 H 0.87628 0.59555 0.54552 0.0
H968 H 0.00091 0.65433 0.61119 0.0
H969 H 0.95696 0.67775 0.61274 0.0
H970 H 0.06247 0.66931 0.59672 0.0
H971 H 0.06901 0.64116 0.58076 0.0
C972 C 0.27959 0.25097 0.56917 0.0
C973 C 0.3187 0.23941 0.57413 0.0
C974 C 0.38704 0.31656 0.561 0.0
C975 C 0.34909 0.33186 0.55779 0.0
N976 N 0.26091 0.31833 0.56066 0.0
N977 N 0.40976 0.26135 0.57558 0.0
C978 C 0.29562 0.30004 0.5622 0.0
C979 C 0.37252 0.27214 0.57021 0.0
N980 N 0.22714 0.2155 0.57132 0.0
N981 N 0.43641 0.3437 0.55496 0.0
H982 H 0.39994 0.22743 0.58167 0.0
H983 H 0.4503 0.28707 0.57462 0.0
H984 H 0.44816 0.37634 0.54814 0.0
H985 H 0.46424 0.33147 0.55571 0.0
H986 H 0.19685 0.2193 0.56654 0.0
H987 H 0.2135 0.17984 0.57685 0.0
H988 H 0.22322 0.29975 0.56524 0.0
H989 H 0.27123 0.35485 0.55602 0.0
C990 C 0.74402 0.07131 0.56231 0.0
C991 C 0.74991 0.05354 0.57618 0.0
C992 C 0.65654 0.98479 0.57635 0.0
C993 C 0.65011 0.00307 0.56257 0.0
N994 N 0.68371 0.06991 0.54382 0.0
N995 N 0.70999 0.00309 0.59807 0.0
C996 C 0.69272 0.04844 0.55598 0.0
C997 C 0.70545 0.01361 0.58376 0.0
N998 N 0.7876 0.10887 0.55504 0.0
N999 N 0.61759 0.93779 0.5819 0.0
H1000 H 0.7454 0.02276 0.60383 0.0
H1001 H 0.67771 0.97849 0.6046 0.0
H1002 H 0.58125 0.91447 0.57682 0.0
H1003 H 0.62291 0.9194 0.59096 0.0
H1004 H 0.78701 0.11939 0.54422 0.0
H1005 H 0.82531 0.12762 0.55967 0.0
H1006 H 0.71186 0.10556 0.53917 0.0
H1007 H 0.64633 0.05428 0.53909 0.0
C1008 C 0.66622 0.62765 0.74889 0.0
C1009 C 0.71707 0.66258 0.7431 0.0
C1010 C 0.71658 0.73798 0.75466 0.0
C1011 C 0.66395 0.70352 0.75933 0.0
N1012 N 0.58467 0.61774 0.75853 0.0
N1013 N 0.78915 0.75096 0.73893 0.0
C1014 C 0.63769 0.64887 0.75586 0.0
C1015 C 0.74193 0.71785 0.74555 0.0
N1016 N 0.6452 0.5741 0.74777 0.0
N1017 N 0.74263 0.78938 0.75927 0.0
H1018 H 0.80959 0.73713 0.73267 0.0
H1019 H 0.8066 0.79197 0.73894 0.0
H1020 H 0.72482 0.80535 0.7658 0.0
H1021 H 0.78275 0.81518 0.75751 0.0
H1022 H 0.61102 0.54672 0.75321 0.0
H1023 H 0.66411 0.55674 0.74239 0.0
H1024 H 0.56212 0.5791 0.75475 0.0
H1025 H 0.56175 0.63189 0.7633 0.0
C1026 C 0.34106 0.02647 0.74315 0.0
C1027 C 0.31079 0.03681 0.73291 0.0
C1028 C 0.23579 0.94703 0.73641 0.0
C1029 C 0.26609 0.93752 0.74671 0.0
N1030 N 0.33935 0.97297 0.76351 0.0
N1031 N 0.22571 0.01231 0.72254 0.0
C1032 C 0.31596 0.97899 0.75131 0.0
C1033 C 0.25681 0.9987 0.73043 0.0
N1034 N 0.39453 0.05931 0.7443 0.0
N1035 N 0.18792 0.9064 0.73201 0.0
H1036 H 0.2399 0.05028 0.71833 0.0
H1037 H 0.18506 0.98782 0.72135 0.0
H1038 H 0.17093 0.86868 0.73661 0.0
H1039 H 0.1665 0.90927 0.72333 0.0
H1040 H 0.41873 0.04969 0.75036 0.0
H1041 H 0.41599 0.09351 0.73813 0.0
H1042 H 0.37343 0.00383 0.76814 0.0
H1043 H 0.32162 0.9387 0.76985 0.0
C1044 C 0.91986 0.26496 0.75774 0.0
C1045 C 0.92423 0.24882 0.74342 0.0
C1046 C 0.02032 0.29175 0.74609 0.0
C1047 C 0.01597 0.30798 0.76039 0.0
N1048 N 0.96051 0.29138 0.78154 0.0
N1049 N 0.97535 0.22953 0.72649 0.0
C1050 C 0.96527 0.28816 0.7668 0.0
C1051 C 0.97347 0.2561 0.73853 0.0
N1052 N 0.87418 0.26233 0.76242 0.0
N1053 N 0.06812 0.31315 0.73917 0.0
H1054 H 0.94121 0.20242 0.72093 0.0
H1055 H 0.00965 0.23 0.7231 0.0
H1056 H 0.10361 0.34123 0.74386 0.0
H1057 H 0.0719 0.30653 0.72818 0.0
H1058 H 0.87192 0.27989 0.77209 0.0
H1059 H 0.83965 0.24656 0.7563 0.0
H1060 H 0.9241 0.27352 0.78688 0.0
H1061 H 0.993 0.3065 0.78855 0.0
C1062 C 0.32843 0.38055 0.22771 0.0
C1063 C 0.31407 0.32653 0.22656 0.0
C1064 C 0.23912 0.30152 0.243 0.0
C1065 C 0.25421 0.35571 0.24436 0.0
N1066 N 0.30186 0.44406 0.23416 0.0
N1067 N 0.24946 0.23461 0.23007 0.0
C1068 C 0.29477 0.39426 0.23535 0.0
C1069 C 0.26727 0.28658 0.23325 0.0
N1070 N 0.37614 0.4192 0.22244 0.0
N1071 N 0.19852 0.26465 0.25133 0.0
H1072 H 0.26932 0.22261 0.22295 0.0
H1073 H 0.21309 0.20368 0.23352 0.0
H1074 H 0.17448 0.27394 0.25763 0.0
H1075 H 0.18963 0.22554 0.25236 0.0
H1076 H 0.39137 0.45932 0.22447 0.0
H1077 H 0.40314 0.41138 0.21718 0.0
H1078 H 0.32747 0.47172 0.22661 0.0
H1079 H 0.27846 0.4564 0.23945 0.0
C1080 C 0.64745 0.9741 0.25247 0.0
C1081 C 0.64857 0.93012 0.24634 0.0
C1082 C 0.70191 0.98504 0.22594 0.0
C1083 C 0.69389 0.0265 0.23095 0.0
N1084 N 0.65208 0.05777 0.24793 0.0
N1085 N 0.67468 0.89169 0.22716 0.0
C1086 C 0.66546 0.02072 0.24405 0.0
C1087 C 0.67554 0.93506 0.23308 0.0
N1088 N 0.62897 0.97127 0.26636 0.0
N1089 N 0.73553 0.99396 0.21454 0.0
H1090 H 0.6574 0.85514 0.23245 0.0
H1091 H 0.68841 0.89105 0.21672 0.0
H1092 H 0.75593 0.03048 0.2093 0.0
H1093 H 0.74687 0.96708 0.21113 0.0
H1094 H 0.63265 0.00396 0.27197 0.0
H1095 H 0.61438 0.93738 0.2728 0.0
H1096 H 0.62585 0.05221 0.25636 0.0
H1097 H 0.6631 0.09216 0.24198 0.0
C1098 C 0.96916 0.72123 0.25152 0.0
C1099 C 0.96293 0.67721 0.2434 0.0
C1100 C 0.04868 0.69212 0.25186 0.0
C1101 C 0.05593 0.73725 0.2597 0.0
N1102 N 0.02881 0.80105 0.26485 0.0
N1103 N 0.00181 0.62926 0.23259 0.0
C1104 C 0.01784 0.75379 0.25885 0.0
C1105 C 0.00437 0.66541 0.24253 0.0
N1106 N 0.92796 0.73071 0.25261 0.0
N1107 N 0.08197 0.67247 0.25401 0.0
H1108 H 0.96998 0.60887 0.22549 0.0
H1109 H 0.03343 0.62331 0.23038 0.0
H1110 H 0.11464 0.68982 0.26091 0.0
H1111 H 0.07452 0.63605 0.24997 0.0
H1112 H 0.92775 0.75857 0.25965 0.0
H1113 H 0.89229 0.70822 0.24709 0.0
H1114 H 0.00495 0.81785 0.2635 0.0
H1115 H 0.06437 0.82585 0.27018 0.0
C1116 C 0.08049 0.17933 0.09271 0.0
C1117 C 0.07336 0.2054 0.10479 0.0
C1118 C 0.14418 0.2012 0.11785 0.0
C1119 C 0.14339 0.16608 0.10705 0.0
N1120 N 0.10983 0.11968 0.08427 0.0
N1121 N 0.09799 0.24189 0.12901 0.0
C1122 C 0.11208 0.15534 0.09433 0.0
C1123 C 0.10589 0.21761 0.11731 0.0
N1124 N 0.05704 0.17785 0.0797 0.0
N1125 N 0.18167 0.21872 0.12858 0.0
H1126 H 0.07122 0.25563 0.12884 0.0
H1127 H 0.11585 0.24594 0.13912 0.0
H1128 H 0.21056 0.2077 0.12905 0.0
H1129 H 0.18734 0.24778 0.13611 0.0
H1130 H 0.06401 0.16321 0.0701 0.0
H1131 H 0.03509 0.1967 0.07821 0.0
H1132 H 0.08261 0.10525 0.07575 0.0
H1133 H 0.13289 0.10172 0.08496 0.0
C1134 C 0.91186 0.98992 0.10116 0.0
C1135 C 0.86816 0.99408 0.10612 0.0
C1136 C 0.81642 0.89804 0.10924 0.0
C1137 C 0.86281 0.89509 0.10657 0.0
N1138 N 0.9568 0.93935 0.10164 0.0
N1139 N 0.77934 0.9537 0.11544 0.0
C1140 C 0.91103 0.9412 0.10276 0.0
C1141 C 0.82028 0.94849 0.11018 0.0
N1142 N 0.95422 0.03281 0.09496 0.0
N1143 N 0.76861 0.85263 0.1105 0.0
H1144 H 0.78036 0.98994 0.11568 0.0
H1145 H 0.74571 0.92284 0.12024 0.0
H1146 H 0.76431 0.81505 0.10964 0.0
H1147 H 0.73274 0.85208 0.11107 0.0
H1148 H 0.98524 0.0311 0.08988 0.0
H1149 H 0.95574 0.06903 0.09359 0.0
H1150 H 0.99397 0.97286 0.10046 0.0
H1151 H 0.95871 0.90501 0.10323 0.0
C1152 C 0.0558 0.89623 0.0714 0.0
C1153 C 0.03545 0.85249 0.081 0.0
C1154 C 0.11644 0.89727 0.09562 0.0
C1155 C 0.13059 0.94488 0.08796 0.0
N1156 N 0.11293 0.99049 0.06863 0.0
N1157 N 0.05884 0.8018 0.09683 0.0
C1158 C 0.1008 0.94443 0.07564 0.0
C1159 C 0.06958 0.84992 0.09156 0.0
N1160 N 0.03341 0.89069 0.05797 0.0
N1161 N 0.1471 0.89777 0.10696 0.0
H1162 H 0.02832 0.76655 0.09257 0.0
H1163 H 0.08345 0.79622 0.10392 0.0
H1164 H 0.18325 0.93093 0.10961 0.0
H1165 H 0.13597 0.8662 0.1141 0.0
H1166 H 0.04902 0.91997 0.04997 0.0
H1167 H 0.00347 0.85409 0.05423 0.0
H1168 H 0.08863 0.99303 0.06073 0.0
H1169 H 0.14486 0.02714 0.07149 0.0
C1170 C 0.24188 0.19632 0.39307 0.0
C1171 C 0.20847 0.19377 0.40463 0.0
C1172 C 0.20069 0.11061 0.41298 0.0
C1173 C 0.22303 0.10721 0.39953 0.0
N1174 N 0.26772 0.14748 0.37693 0.0
N1175 N 0.18249 0.16521 0.42932 0.0
C1176 C 0.24569 0.15082 0.38976 0.0
C1177 C 0.19601 0.15595 0.41583 0.0
N1178 N 0.27176 0.2429 0.38582 0.0
N1179 N 0.18244 0.06976 0.42274 0.0
H1180 H 0.18394 0.20081 0.4318 0.0
H1181 H 0.17605 0.14118 0.43837 0.0
H1182 H 0.1883 0.03757 0.42139 0.0
H1183 H 0.15999 0.06671 0.4319 0.0
H1184 H 0.29963 0.24841 0.3779 0.0
H1185 H 0.27374 0.27795 0.38922 0.0
H1186 H 0.27893 0.17536 0.3686 0.0
H1187 H 0.27179 0.11504 0.37419 0.0
C1188 C 0.92362 0.10355 0.3803 0.0
C1189 C 0.97629 0.11387 0.38196 0.0
C1190 C 0.94287 0.02138 0.38872 0.0
C1191 C 0.89117 0.00959 0.38479 0.0
N1192 N 0.83206 0.03804 0.3756 0.0
N1193 N 0.03674 0.08099 0.3858 0.0
C1194 C 0.88123 0.05034 0.38039 0.0
C1195 C 0.98622 0.0725 0.38581 0.0
N1196 N 0.91405 0.14465 0.37901 0.0
N1197 N 0.95037 0.98372 0.39539 0.0
H1198 H 0.06981 0.1173 0.38326 0.0
H1199 H 0.04556 0.05075 0.38696 0.0
H1200 H 0.91922 0.94604 0.39791 0.0
H1201 H 0.98647 0.99144 0.39977 0.0
H1202 H 0.87623 0.13982 0.37921 0.0
H1203 H 0.94409 0.18416 0.37915 0.0
H1204 H 0.82405 0.06532 0.37062 0.0
H1205 H 0.79988 -0.0004 0.37567 0.0
C1206 C 0.96884 0.85974 0.40414 0.0
C1207 C 0.99828 0.85844 0.39202 0.0
C1208 C 0.91633 0.79497 0.37973 0.0
C1209 C 0.88793 0.80655 0.39019 0.0
N1210 N 0.88273 0.82188 0.41572 0.0
N1211 N 0.00181 0.82038 0.36899 0.0
C1212 C 0.91286 0.83005 0.40356 0.0
C1213 C 0.97257 0.82361 0.38016 0.0
N1214 N 0.99437 0.89127 0.41584 0.0
N1215 N 0.88946 0.75497 0.36998 0.0
H1216 H 0.04296 0.83903 0.36933 0.0
H1217 H 0.9856 0.80096 0.35919 0.0
H1218 H 0.8486 0.73004 0.37069 0.0
H1219 H 0.90766 0.74216 0.36256 0.0
H1220 H 0.97502 0.89906 0.42419 0.0
H1221 H 0.03548 0.91151 0.41685 0.0
H1222 H 0.89835 0.835 0.4261 0.0
H1223 H 0.84194 0.79604 0.41561 0.0
C1224 C 0.82452 0.79434 0.87271 0.0
C1225 C 0.82458 0.82741 0.884 0.0
C1226 C 0.9121 0.84658 0.89181 0.0
C1227 C 0.91273 0.81365 0.88043 0.0
N1228 N 0.8636 0.74455 0.86289 0.0
N1229 N 0.85871 0.8692 0.90714 0.0
C1230 C 0.86688 0.78365 0.87178 0.0
C1231 C 0.8649 0.84758 0.89462 0.0
N1232 N 0.78483 0.77474 0.86261 0.0
N1233 N 0.95748 0.88071 0.89903 0.0
H1234 H 0.82425 0.87032 0.90937 0.0
H1235 H 0.88512 0.88074 0.91585 0.0
H1236 H 0.99411 0.88463 0.89673 0.0
H1237 H 0.95991 0.90945 0.90624 0.0
H1238 H 0.78572 0.75592 0.85305 0.0
H1239 H 0.75178 0.7794 0.86362 0.0
H1240 H 0.82946 0.71849 0.85723 0.0
H1241 H 0.89345 0.73489 0.86231 0.0
C1242 C 0.10515 0.00121 0.89885 0.0
C1243 C 0.13232 0.98652 0.8889 0.0
C1244 C 0.17968 0.07717 0.8795 0.0
C1245 C 0.14316 0.08766 0.88687 0.0
N1246 N 0.0664 0.05625 0.9026 0.0
N1247 N 0.1984 0.01026 0.8703 0.0
C1248 C 0.10531 0.04931 0.89659 0.0
C1249 C 0.17114 0.02477 0.87952 0.0
N1250 N 0.07796 0.96843 0.91018 0.0
N1251 N 0.22271 0.11734 0.8727 0.0
H1252 H 0.19514 0.97304 0.87087 0.0
H1253 H 0.22244 0.03416 0.86187 0.0
H1254 H 0.23072 0.1564 0.87289 0.0
H1255 H 0.25295 0.11297 0.86813 0.0
H1256 H 0.06071 0.97903 0.9185 0.0
H1257 H 0.07766 0.93302 0.91201 0.0
H1258 H 0.0347 0.02677 0.90844 0.0
H1259 H 0.0624 0.08907 0.90052 0.0
C1260 C 0.94977 0.09224 0.90077 0.0
C1261 C 0.96703 0.13808 0.89223 0.0
C1262 C 0.87884 0.10002 0.88144 0.0
C1263 C 0.86656 0.04989 0.88713 0.0
N1264 N 0.89382 0.99758 0.90144 0.0
N1265 N 0.94776 0.18952 0.87556 0.0
C1266 C 0.90228 0.04581 0.89691 0.0
C1267 C 0.93109 0.14343 0.88305 0.0
N1268 N 0.9797 0.09282 0.91227 0.0
N1269 N 0.84047 0.10606 0.87471 0.0
H1270 H 0.98469 0.22279 0.87748 0.0
H1271 H 0.92601 0.19417 0.86728 0.0
H1272 H 0.80148 0.07519 0.87379 0.0
H1273 H 0.8459 0.14248 0.8713 0.0
H1274 H 0.96705 0.06164 0.91966 0.0
H1275 H 0.01469 0.12686 0.91521 0.0
H1276 H 0.92179 0.99273 0.90724 0.0
H1277 H 0.86155 0.96188 0.89821 0.0
C1278 C 0.84005 0.9326 0.63298 0.0
C1279 C 0.82494 0.94665 0.61975 0.0
C1280 C 0.84445 0.88613 0.60617 0.0
C1281 C 0.85851 0.87125 0.61946 0.0
N1282 N 0.8522 0.8669 0.64574 0.0
N1283 N 0.7968 0.92484 0.59478 0.0
C1284 C 0.85048 0.89009 0.63295 0.0
C1285 C 0.82176 0.91925 0.60668 0.0
N1286 N 0.84816 0.96182 0.64535 0.0
N1287 N 0.8559 0.87194 0.59305 0.0
H1288 H 0.77849 0.94771 0.59505 0.0
H1289 H 0.78926 0.90242 0.58531 0.0
H1290 H 0.8738 0.84894 0.59206 0.0
H1291 H 0.85178 0.88686 0.58311 0.0
H1292 H 0.86523 0.95677 0.65475 0.0
H1293 H 0.84217 0.99406 0.64593 0.0
H1294 H 0.84191 0.87593 0.65578 0.0
H1295 H 0.85812 0.83451 0.64607 0.0
C1296 C 0.1658 0.93256 0.62106 0.0
C1297 C 0.17967 0.94457 0.60612 0.0
C1298 C 0.10279 0.86028 0.59907 0.0
C1299 C 0.0839 0.85362 0.61361 0.0
N1300 N 0.09599 0.88314 0.63862 0.0
N1301 N 0.16317 0.9204 0.58078 0.0
C1302 C 0.11547 0.88908 0.62474 0.0
C1303 C 0.14897 0.90818 0.59508 0.0
N1304 N 0.2004 0.9632 0.63169 0.0
N1305 N 0.07695 0.82033 0.58921 0.0
H1306 H 0.19839 0.95389 0.57765 0.0
H1307 H 0.13926 0.89873 0.57207 0.0
H1308 H 0.04404 0.78425 0.59206 0.0
H1309 H 0.0909 0.82078 0.57872 0.0
H1310 H 0.19476 0.95372 0.64274 0.0
H1311 H 0.23733 0.99567 0.62937 0.0
H1312 H 0.11414 0.91135 0.64678 0.0
H1313 H 0.05961 0.85138 0.64179 0.0
C1314 C 0.1174 0.20106 0.60616 0.0
C1315 C 0.12596 0.16049 0.61175 0.0
C1316 C 0.03137 0.10498 0.61637 0.0
C1317 C 0.02349 0.14764 0.61257 0.0
N1318 N 0.0604 0.23939 0.60591 0.0
N1319 N 0.09274 0.08001 0.62581 0.0
C1320 C 0.06689 0.19667 0.60801 0.0
C1321 C 0.08341 0.11429 0.61795 0.0
N1322 N 0.15649 0.24251 0.59858 0.0
N1323 N 0.98925 0.05488 0.61785 0.0
H1324 H 0.13072 0.08685 0.62792 0.0
H1325 H 0.0633 0.04825 0.63165 0.0
H1326 H 0.95033 0.0454 0.61587 0.0
H1327 H 0.99348 0.02178 0.61929 0.0
H1328 H 0.15042 0.26995 0.59291 0.0
H1329 H 0.19383 0.24708 0.59689 0.0
H1330 H 0.09184 0.27746 0.60408 0.0
H1331 H 0.02407 0.23762 0.60718 0.0
C1332 C 0.74081 0.50661 0.43682 0.0
C1333 C 0.72218 0.52211 0.42459 0.0
C1334 C 0.79149 0.52169 0.40948 0.0
C1335 C 0.80453 0.49867 0.42122 0.0
N1336 N 0.78155 0.45712 0.44505 0.0
N1337 N 0.72483 0.53693 0.39853 0.0
C1338 C 0.77671 0.48806 0.43466 0.0
C1339 C 0.74645 0.52819 0.4107 0.0
N1340 N 0.72487 0.51039 0.45058 0.0
N1341 N 0.82246 0.53791 0.39725 0.0
H1342 H 0.69107 0.54047 0.39879 0.0
H1343 H 0.73759 0.53595 0.38798 0.0
H1344 H 0.8556 0.53355 0.39603 0.0
H1345 H 0.8181 0.55986 0.38896 0.0
H1346 H 0.74121 0.50416 0.45997 0.0
H1347 H 0.69979 0.52545 0.45265 0.0
H1348 H 0.75785 0.4439 0.45435 0.0
H1349 H 0.80472 0.4396 0.44366 0.0
C1350 C 0.45557 0.22289 0.44307 0.0
C1351 C 0.49899 0.21624 0.43919 0.0
C1352 C 0.54454 0.30551 0.42876 0.0
C1353 C 0.50632 0.3153 0.43515 0.0
N1354 N 0.42451 0.28457 0.44807 0.0
N1355 N 0.58843 0.25444 0.42991 0.0
C1356 C 0.46107 0.27409 0.44205 0.0
C1357 C 0.54408 0.25799 0.43217 0.0
N1358 N 0.40904 0.18019 0.44746 0.0
N1359 N 0.58219 0.34253 0.41975 0.0
H1360 H 0.59135 0.22164 0.43283 0.0
H1361 H 0.62432 0.28624 0.42652 0.0
H1362 H 0.58348 0.378 0.4172 0.0
H1363 H 0.60839 0.33575 0.41368 0.0
H1364 H 0.37453 0.18153 0.44925 0.0
H1365 H 0.40369 0.14213 0.44808 0.0
H1366 H 0.39393 0.2583 0.45484 0.0
H1367 H 0.4263 0.3209 0.44666 0.0
C1368 C 0.77144 0.25177 0.45025 0.0
C1369 C 0.77716 0.29343 0.44104 0.0
C1370 C 0.69744 0.23077 0.42772 0.0
C1371 C 0.6857 0.193 0.43888 0.0
N1372 N 0.71194 0.16498 0.4604 0.0
N1373 N 0.7411 0.32394 0.4221 0.0
C1374 C 0.72325 0.20257 0.44996 0.0
C1375 C 0.73955 0.28319 0.42985 0.0
N1376 N 0.81237 0.25888 0.45901 0.0
N1377 N 0.66743 0.21717 0.41535 0.0
H1378 H 0.76817 0.36343 0.42423 0.0
H1379 H 0.71197 0.31909 0.41469 0.0
H1380 H 0.63616 0.17908 0.41348 0.0
H1381 H 0.67708 0.24212 0.40633 0.0
H1382 H 0.8122 0.22857 0.46504 0.0
H1383 H 0.84866 0.29403 0.45919 0.0
H1384 H 0.73422 0.17176 0.46986 0.0
H1385 H 0.67874 0.12721 0.45974 0.0
C1386 C 0.83269 0.43399 0.73721 0.0
C1387 C 0.81316 0.4557 0.72676 0.0
C1388 C 0.81547 0.39772 0.70778 0.0
C1389 C 0.83477 0.37584 0.71826 0.0
N1390 N 0.87295 0.37998 0.74185 0.0
N1391 N 0.79651 0.46701 0.70151 0.0
C1392 C 0.84704 0.39631 0.73266 0.0
C1393 C 0.80851 0.44076 0.71182 0.0
N1394 N 0.83598 0.44835 0.75154 0.0
N1395 N 0.80006 0.37489 0.69431 0.0
H1396 H 0.78812 0.49685 0.70397 0.0
H1397 H 0.79882 0.46214 0.69033 0.0
H1398 H 0.80483 0.34355 0.69084 0.0
H1399 H 0.77901 0.38428 0.68689 0.0
H1400 H 0.84395 0.42963 0.76002 0.0
H1401 H 0.82826 0.47782 0.75506 0.0
H1402 H 0.8872 0.39648 0.75208 0.0
H1403 H 0.88428 0.35271 0.73872 0.0
C1404 C 0.50815 0.39309 0.71708 0.0
C1405 C 0.50951 0.34723 0.71268 0.0
C1406 C 0.60535 0.39999 0.70868 0.0
C1407 C 0.60367 0.44629 0.71241 0.0
N1408 N 0.55422 0.48905 0.71894 0.0
N1409 N 0.55716 0.30761 0.70196 0.0
C1410 C 0.55516 0.44349 0.71619 0.0
C1411 C 0.55757 0.35075 0.70794 0.0
N1412 N 0.46227 0.38799 0.72257 0.0
N1413 N 0.65282 0.40304 0.70583 0.0
H1414 H 0.52347 0.27041 0.7013 0.0
H1415 H 0.58932 0.30923 0.69657 0.0
H1416 H 0.68817 0.4387 0.7047 0.0
H1417 H 0.65786 0.37021 0.70529 0.0
H1418 H 0.45931 0.41874 0.72732 0.0
H1419 H 0.42729 0.35165 0.72326 0.0
H1420 H 0.51972 0.49069 0.72031 0.0
H1421 H 0.58821 0.52628 0.71906 0.0
C1422 C 0.58148 0.08506 0.71478 0.0
C1423 C 0.627 0.13207 0.7101 0.0
C1424 C 0.57132 0.16547 0.70041 0.0
C1425 C 0.52633 0.12198 0.70674 0.0
N1426 N 0.48887 0.04295 0.72158 0.0
N1427 N 0.66602 0.22193 0.70125 0.0
C1428 C 0.53125 0.08207 0.71429 0.0
C1429 C 0.62216 0.17373 0.70372 0.0
N1430 N 0.58624 0.04337 0.7196 0.0
N1431 N 0.56535 0.19794 0.6908 0.0
H1432 H 0.70407 0.23037 0.70396 0.0
H1433 H 0.66411 0.25513 0.69799 0.0
H1434 H 0.52839 0.19174 0.68761 0.0
H1435 H 0.59658 0.22726 0.68479 0.0
H1436 H 0.55397 0.00607 0.72173 0.0
H1437 H 0.62272 0.04516 0.72052 0.0
H1438 H 0.49157 0.01633 0.7286 0.0
H1439 H 0.45153 0.03935 0.7215 0.0
C1440 C 0.59862 0.22117 0.22286 0.0
C1441 C 0.59074 0.17898 0.21345 0.0
C1442 C 0.50096 0.16079 0.20811 0.0
C1443 C 0.5101 0.20409 0.21703 0.0
N1444 N 0.55767 0.26117 0.23703 0.0
N1445 N 0.52959 0.0992 0.20075 0.0
C1446 C 0.55543 0.22897 0.22593 0.0
C1447 C 0.54016 0.14557 0.20725 0.0
N1448 N 0.64801 0.25685 0.22779 0.0
N1449 N 0.45545 0.13552 0.20015 0.0
H1450 H 0.55722 0.08653 0.20031 0.0
H1451 H 0.49225 0.07114 0.19702 0.0
H1452 H 0.42472 0.14365 0.20153 0.0
H1453 H 0.44888 0.10805 0.192 0.0
H1454 H 0.65642 0.29148 0.23326 0.0
H1455 H 0.68173 0.25508 0.2252 0.0
H1456 H 0.58813 0.27714 0.24468 0.0
H1457 H 0.52613 0.26713 0.23944 0.0
C1458 C 0.85661 0.37164 0.20186 0.0
C1459 C 0.81979 0.34112 0.21285 0.0
C1460 C 0.80931 0.41597 0.21968 0.0
C1461 C 0.84593 0.44701 0.20855 0.0
N1462 N 0.91576 0.45915 0.19215 0.0
N1463 N 0.77648 0.33892 0.23533 0.0
C1464 C 0.87337 0.42635 0.20063 0.0
C1465 C 0.80194 0.36524 0.22292 0.0
N1466 N 0.87401 0.34774 0.19232 0.0
N1467 N 0.7778 0.43225 0.2262 0.0
H1468 H 0.77074 0.30157 0.23787 0.0
H1469 H 0.76627 0.35633 0.24369 0.0
H1470 H 0.77857 0.46724 0.22355 0.0
H1471 H 0.74666 0.40821 0.23316 0.0
H1472 H 0.89562 0.36602 0.18293 0.0
H1473 H 0.86476 0.30849 0.19359 0.0
H1474 H 0.93997 0.44725 0.18705 0.0
H1475 H 0.92983 0.4997 0.19138 0.0
C1476 C 0.65187 0.51426 0.1972 0.0
C1477 C 0.68535 0.51245 0.20811 0.0
C1478 C 0.61333 0.42844 0.21705 0.0
C1479 C 0.57917 0.43009 0.20625 0.0
N1480 N 0.562 0.48136 0.18875 0.0
N1481 N 0.69277 0.47808 0.23137 0.0
C1482 C 0.59721 0.47528 0.19716 0.0
C1483 C 0.66413 0.47328 0.21912 0.0
N1484 N 0.67274 0.55256 0.18668 0.0
N1485 N 0.59958 0.3827 0.22447 0.0
H1486 H 0.73002 0.51063 0.23332 0.0
H1487 H 0.67711 0.45267 0.24029 0.0
H1488 H 0.56449 0.34747 0.22267 0.0
H1489 H 0.62571 0.37807 0.23121 0.0
H1490 H 0.65208 0.55232 0.17739 0.0
H1491 H 0.71182 0.5836 0.18702 0.0
H1492 H 0.57199 0.5156 0.18285 0.0
H1493 H 0.52154 0.45411 0.18878 0.0
C1494 C 0.5498 0.24188 0.94673 0.0
C1495 C 0.50384 0.19145 0.9479 0.0
C1496 C 0.44862 0.23273 0.94764 0.0
C1497 C 0.49502 0.28318 0.94875 0.0
N1498 N 0.58988 0.33512 0.95185 0.0
N1499 N 0.40938 0.13759 0.9503 0.0
C1500 C 0.54574 0.2877 0.94884 0.0
C1501 C 0.45305 0.18638 0.94847 0.0
N1502 N 0.59736 0.24587 0.94349 0.0
N1503 N 0.40072 0.22919 0.94535 0.0
H1504 H 0.41135 0.10288 0.95043 0.0
H1505 H 0.37186 0.13181 0.9525 0.0
H1506 H 0.39615 0.26232 0.94455 0.0
H1507 H 0.36633 0.19383 0.94301 0.0
H1508 H 0.6314 0.28161 0.94115 0.0
H1509 H 0.60142 0.21287 0.94159 0.0
H1510 H 0.62712 0.33943 0.9535 0.0
H1511 H 0.58861 0.3693 0.95422 0.0
C1512 C 0.80155 0.25597 0.94517 0.0
C1513 C 0.79555 0.29776 0.95093 0.0
C1514 C 0.70809 0.2335 0.96028 0.0
C1515 C 0.71084 0.19231 0.95286 0.0
N1516 N 0.75761 0.16609 0.9361 0.0
N1517 N 0.73736 0.32663 0.96089 0.0
C1518 C 0.75699 0.20384 0.94476 0.0
C1519 C 0.74723 0.28666 0.95763 0.0
N1520 N 0.85002 0.26563 0.9405 0.0
N1521 N 0.66899 0.22191 0.97027 0.0
H1522 H 0.76385 0.36628 0.95864 0.0
H1523 H 0.70047 0.31987 0.96432 0.0
H1524 H 0.64089 0.18332 0.97309 0.0
H1525 H 0.66816 0.25036 0.97695 0.0
H1526 H 0.85787 0.23571 0.93764 0.0
H1527 H 0.8836 0.30315 0.94075 0.0
H1528 H 0.78794 0.1742 0.92874 0.0
H1529 H 0.72586 0.12767 0.93528 0.0
C1530 C 0.77496 0.53499 0.94989 0.0
C1531 C 0.77642 0.49041 0.94433 0.0
C1532 C 0.68764 0.45598 0.9341 0.0
C1533 C 0.68288 0.49552 0.94181 0.0
N1534 N 0.72087 0.57274 0.95712 0.0
N1535 N 0.73182 0.40492 0.93246 0.0
C1536 C 0.72649 0.53541 0.94962 0.0
C1537 C 0.73253 0.45035 0.93655 0.0
N1538 N 0.82017 0.57724 0.95515 0.0
N1539 N 0.64876 0.42289 0.92469 0.0
H1540 H 0.76318 0.39814 0.93415 0.0
H1541 H 0.69822 0.3716 0.92854 0.0
H1542 H 0.61437 0.42433 0.92285 0.0
H1543 H 0.65278 0.39716 0.91764 0.0
H1544 H 0.82291 0.61293 0.95813 0.0
H1545 H 0.85642 0.57832 0.95531 0.0
H1546 H 0.74867 0.59892 0.96453 0.0
H1547 H 0.68693 0.57596 0.95635 0.0
C1548 C 0.39924 0.81051 0.78476 0.0
C1549 C 0.3918 0.84556 0.77568 0.0
C1550 C 0.45652 0.84806 0.75811 0.0
C1551 C 0.46501 0.81415 0.76739 0.0
N1552 N 0.45074 0.76894 0.79056 0.0
N1553 N 0.41788 0.90439 0.75505 0.0
C1554 C 0.43857 0.79751 0.78107 0.0
C1555 C 0.42194 0.86644 0.76274 0.0
N1556 N 0.36643 0.787 0.79643 0.0
N1557 N 0.48065 0.86161 0.74475 0.0
H1558 H 0.39277 0.91834 0.75821 0.0
H1559 H 0.44197 0.92496 0.74624 0.0
H1560 H 0.50769 0.85039 0.74132 0.0
H1561 H 0.47207 0.88152 0.73676 0.0
H1562 H 0.36448 0.75534 0.8022 0.0
H1563 H 0.33821 0.7966 0.79985 0.0
H1564 H 0.43831 0.76203 0.80139 0.0
H1565 H 0.47605 0.75464 0.78802 0.0
C1566 C 0.12498 0.61759 0.78356 0.0
C1567 C 0.17792 0.65748 0.7808 0.0
C1568 C 0.20742 0.59298 0.78292 0.0
C1569 C 0.1542 0.55207 0.78481 0.0
N1570 N 0.06113 0.52352 0.78419 0.0
N1571 N 0.26648 0.68095 0.77377 0.0
C1572 C 0.11248 0.56376 0.7843 0.0
C1573 C 0.21806 0.64428 0.77911 0.0
N1574 N 0.08731 0.63128 0.78611 0.0
N1575 N 0.24816 0.58396 0.78575 0.0
H1576 H 0.27517 0.71865 0.77044 0.0
H1577 H 0.29596 0.67221 0.77119 0.0
H1578 H 0.24241 0.54761 0.7893 0.0
H1579 H 0.28755 0.61402 0.78618 0.0
H1580 H 0.0494 0.60471 0.78984 0.0
H1581 H 0.09508 0.67017 0.78534 0.0
H1582 H 0.02918 0.5293 0.78241 0.0
H1583 H 0.05071 0.48377 0.78466 0.0
C1584 C 0.38093 0.59325 0.7729 0.0
C1585 C 0.42401 0.59472 0.78052 0.0
C1586 C 0.36809 0.50144 0.7872 0.0
C1587 C 0.32542 0.50033 0.77956 0.0
N1588 N 0.29614 0.53931 0.76121 0.0
N1589 N 0.46295 0.54622 0.79095 0.0
C1590 C 0.33387 0.54404 0.77088 0.0
C1591 C 0.41901 0.54745 0.78643 0.0
N1592 N 0.38282 0.63912 0.76876 0.0
N1593 N 0.35947 0.459 0.79551 0.0
H1594 H 0.50102 0.57874 0.79002 0.0
H1595 H 0.46224 0.5117 0.79421 0.0
H1596 H 0.32331 0.42365 0.79554 0.0
H1597 H 0.38725 0.45972 0.80278 0.0
H1598 H 0.3514 0.64048 0.76387 0.0
H1599 H 0.41338 0.67634 0.7717 0.0
H1600 H 0.30236 0.5686 0.75368 0.0
H1601 H 0.26069 0.50419 0.75962 0.0
C1602 C 0.51199 0.80021 0.06763 0.0
C1603 C 0.46618 0.79931 0.06215 0.0
C1604 C 0.45023 0.7278 0.04522 0.0
C1605 C 0.49652 0.72911 0.05053 0.0
N1606 N 0.57566 0.77009 0.06507 0.0
N1607 N 0.39451 0.76733 0.04478 0.0
C1608 C 0.52867 0.76644 0.06126 0.0
C1609 C 0.4361 0.76451 0.05067 0.0
N1610 N 0.53844 0.83229 0.07917 0.0
N1611 N 0.41847 0.68988 0.03538 0.0
H1612 H 0.38079 0.79146 0.04895 0.0
H1613 H 0.37525 0.74829 0.03522 0.0
H1614 H 0.42927 0.66507 0.03017 0.0
H1615 H 0.38021 0.68105 0.03281 0.0
H1616 H 0.56916 0.83155 0.08469 0.0
H1617 H 0.52749 0.85796 0.08386 0.0
H1618 H 0.60347 0.79915 0.07189 0.0
H1619 H 0.58882 0.74599 0.0605 0.0
C1620 C 0.20603 0.70189 0.04457 0.0
C1621 C 0.17764 0.68534 0.05797 0.0
C1622 C 0.22362 0.77703 0.06673 0.0
C1623 C 0.25668 0.79197 0.05424 0.0
N1624 N 0.28274 0.76914 0.03164 0.0
N1625 N 0.15874 0.70569 0.08191 0.0
C1626 C 0.24819 0.7548 0.04312 0.0
C1627 C 0.18595 0.72264 0.06905 0.0
N1628 N 0.19351 0.66692 0.03329 0.0
N1629 N 0.22808 0.81514 0.07623 0.0
H1630 H 0.12898 0.66661 0.08361 0.0
H1631 H 0.16695 0.72951 0.09109 0.0
H1632 H 0.25535 0.85521 0.07472 0.0
H1633 H 0.20228 0.80797 0.08489 0.0
H1634 H 0.20809 0.67822 0.02274 0.0
H1635 H 0.16589 0.6268 0.03406 0.0
H1636 H 0.28351 0.74235 0.0243 0.0
H1637 H 0.31349 0.80769 0.02994 0.0
C1638 C 0.28368 0.47283 0.04519 0.0
C1639 C 0.32569 0.52223 0.04987 0.0
C1640 C 0.26691 0.55894 0.05081 0.0
C1641 C 0.22402 0.50912 0.04649 0.0
N1642 N 0.18874 0.41545 0.043 0.0
N1643 N 0.35448 0.6063 0.06138 0.0
C1644 C 0.23148 0.46491 0.04476 0.0
C1645 C 0.31606 0.56308 0.05421 0.0
N1646 N 0.29407 0.43446 0.04059 0.0
N1647 N 0.26227 0.60326 0.05051 0.0
H1648 H 0.39085 0.60994 0.06409 0.0
H1649 H 0.34827 0.6355 0.06588 0.0
H1650 H 0.22819 0.603 0.04708 0.0
H1651 H 0.29409 0.6413 0.05209 0.0
H1652 H 0.26627 0.39992 0.0354 0.0
H1653 H 0.33162 0.43862 0.04138 0.0
H1654 H 0.19134 0.38116 0.04298 0.0
H1655 H 0.14996 0.40826 0.04291 0.0
C1656 C 0.15728 0.45427 0.54008 0.0
C1657 C 0.16775 0.50437 0.54526 0.0
C1658 C 0.26225 0.53471 0.54627 0.0
C1659 C 0.25195 0.48415 0.54148 0.0
N1660 N 0.18888 0.3921 0.53727 0.0
N1661 N 0.2278 0.58608 0.55751 0.0
C1662 C 0.19911 0.44266 0.53944 0.0
C1663 C 0.21935 0.5423 0.5499 0.0
N1664 N 0.10752 0.4183 0.53548 0.0
N1665 N 0.31271 0.57677 0.54625 0.0
H1666 H 0.19756 0.59321 0.56048 0.0
H1667 H 0.26403 0.61241 0.56225 0.0
H1668 H 0.34532 0.57405 0.54291 0.0
H1669 H 0.3216 0.61562 0.54799 0.0
H1670 H 0.09862 0.38375 0.52991 0.0
H1671 H 0.07541 0.42436 0.53671 0.0
H1672 H 0.15087 0.35939 0.53707 0.0
H1673 H 0.21858 0.38219 0.53697 0.0
C1674 C 0.45518 0.66679 0.55573 0.0
C1675 C 0.48474 0.65053 0.54719 0.0
C1676 C 0.54125 0.74154 0.53879 0.0
C1677 C 0.50441 0.75483 0.54466 0.0
N1678 N 0.42256 0.72778 0.55778 0.0
N1679 N 0.55807 0.67147 0.53133 0.0
C1680 C 0.46096 0.71732 0.55319 0.0
C1681 C 0.529 0.68791 0.53909 0.0
N1682 N 0.42034 0.63323 0.56591 0.0
N1683 N 0.58806 0.7803 0.53315 0.0
H1684 H 0.55197 0.63319 0.53231 0.0
H1685 H 0.58673 0.69495 0.5237 0.0
H1686 H 0.59852 0.8201 0.53311 0.0
H1687 H 0.6184 0.77385 0.52977 0.0
H1688 H 0.40098 0.64457 0.57338 0.0
H1689 H 0.41493 0.59565 0.56784 0.0
H1690 H 0.38726 0.69953 0.56258 0.0
H1691 H 0.42311 0.763 0.55564 0.0
C1692 C 0.30377 0.80623 0.53325 0.0
C1693 C 0.33453 0.80958 0.54559 0.0
C1694 C 0.25673 0.73556 0.55696 0.0
C1695 C 0.22991 0.72555 0.54342 0.0
N1696 N 0.22446 0.75253 0.51899 0.0
N1697 N 0.34096 0.77917 0.56958 0.0
C1698 C 0.25211 0.76185 0.53172 0.0
C1699 C 0.31085 0.77571 0.55776 0.0
N1700 N 0.32462 0.84555 0.52301 0.0
N1701 N 0.23073 0.70595 0.56893 0.0
H1702 H 0.38016 0.80903 0.57079 0.0
H1703 H 0.32806 0.75105 0.57788 0.0
H1704 H 0.19136 0.67573 0.56861 0.0
H1705 H 0.24645 0.71423 0.57943 0.0
H1706 H 0.30344 0.8479 0.51419 0.0
H1707 H 0.36226 0.87866 0.52412 0.0
H1708 H 0.24044 0.77373 0.5094 0.0
H1709 H 0.18539 0.72196 0.51793 0.0
C1710 C 0.21382 0.59451 0.29604 0.0
C1711 C 0.17521 0.54495 0.29024 0.0
C1712 C 0.11521 0.5798 0.28632 0.0
C1713 C 0.15256 0.62785 0.29312 0.0
N1714 N 0.23009 0.67481 0.30816 0.0
N1715 N 0.08515 0.48672 0.28264 0.0
C1716 C 0.19951 0.63313 0.29919 0.0
C1717 C 0.12461 0.53642 0.28618 0.0
N1718 N 0.26506 0.60612 0.29775 0.0
N1719 N 0.07208 0.57624 0.27942 0.0
H1720 H 0.09045 0.45395 0.2826 0.0
H1721 H 0.04605 0.47716 0.28104 0.0
H1722 H 0.06325 0.60668 0.27947 0.0
H1723 H 0.04707 0.54451 0.27279 0.0
H1724 H 0.29548 0.64331 0.30084 0.0
H1725 H 0.27863 0.58075 0.29452 0.0
H1726 H 0.2624 0.6782 0.31392 0.0
H1727 H 0.21962 0.70288 0.3111 0.0
C1728 C 0.4631 0.6167 0.26067 0.0
C1729 C 0.47645 0.65387 0.27211 0.0
C1730 C 0.40995 0.58536 0.28804 0.0
C1731 C 0.39548 0.54839 0.27648 0.0
N1732 N 0.41517 0.52482 0.25301 0.0
N1733 N 0.4716 0.67214 0.29759 0.0
C1734 C 0.42465 0.56269 0.26322 0.0
C1735 C 0.45296 0.63757 0.28612 0.0
N1736 N 0.48583 0.6336 0.24724 0.0
N1737 N 0.38118 0.57093 0.30069 0.0
H1738 H 0.50169 0.71131 0.29655 0.0
H1739 H 0.46013 0.66127 0.30837 0.0
H1740 H 0.35217 0.53206 0.30292 0.0
H1741 H 0.38423 0.59756 0.3087 0.0
H1742 H 0.47344 0.61028 0.23789 0.0
H1743 H 0.51595 0.67234 0.24528 0.0
H1744 H 0.43836 0.53162 0.24376 0.0
H1745 H 0.38652 0.48521 0.25433 0.0
C1746 C 0.45181 0.89472 0.2857 0.0
C1747 C 0.45765 0.84946 0.28728 0.0
C1748 C 0.36191 0.792 0.28523 0.0
C1749 C 0.35551 0.8369 0.28576 0.0
N1750 N 0.39329 0.93121 0.28762 0.0
N1751 N 0.41702 0.75548 0.2918 0.0
C1752 C 0.40019 0.88847 0.28624 0.0
C1753 C 0.41235 0.79813 0.28785 0.0
N1754 N 0.49518 0.9432 0.2832 0.0
N1755 N 0.31975 0.74342 0.28202 0.0
H1756 H 0.45281 0.75868 0.2949 0.0
H1757 H 0.38466 0.71798 0.29364 0.0
H1758 H 0.28225 0.73767 0.27976 0.0
H1759 H 0.32337 0.71026 0.28001 0.0
H1760 H 0.49287 0.97664 0.2805 0.0
H1761 H 0.53342 0.94915 0.28261 0.0
H1762 H 0.42413 0.96933 0.28972 0.0
H1763 H 0.35601 0.92786 0.28752 0.0
loop_
_geom_bond_atom_site_label_1
_geom_bond_atom_site_label_2
_geom_bond_distance
_geom_bond_site_symmetry_2
_ccdc_geom_bond_type
C0 O1 1.160 . S
C0 O7 1.185 . S
O1 C0 1.160 . S
O2 Zn3 1.899 . S
O2 C10 1.284 1_545 S
Zn3 O2 1.899 . S
Zn3 O4 2.032 . S
Zn3 O7 2.086 . S
Zn3 O12 1.977 . S
O4 Zn3 2.032 . S
O4 C8 1.278 . S
C5 O6 1.203 . S
C5 O12 1.267 . S
O6 C5 1.203 . S
O7 C0 1.185 . S
O7 Zn3 2.086 . S
C8 O4 1.278 . S
C8 O9 1.211 . S
O9 C8 1.211 . S
C10 O2 1.284 1_565 S
C10 O11 1.273 1_565 S
O11 C10 1.273 1_545 S
O12 Zn3 1.977 . S
O12 C5 1.267 . S
C13 O14 1.160 . S
C13 O20 1.185 . S
O14 C13 1.160 . S
O15 Zn16 1.899 . S
O15 C23 1.284 1_655 S
Zn16 O15 1.899 . S
Zn16 O17 2.032 . S
Zn16 O20 2.086 . S
Zn16 O25 1.977 . S
O17 Zn16 2.032 . S
O17 C21 1.278 . S
C18 O19 1.203 . S
C18 O25 1.267 . S
O19 C18 1.203 . S
O20 C13 1.185 . S
O20 Zn16 2.086 . S
C21 O17 1.278 . S
C21 O22 1.211 . S
O22 C21 1.211 . S
C23 O15 1.284 1_455 S
C23 O24 1.273 1_455 S
O24 C23 1.273 1_655 S
O25 Zn16 1.977 . S
O25 C18 1.267 . S
C26 O27 1.160 . S
C26 O33 1.185 . S
O27 C26 1.160 . S
O28 Zn29 1.899 . S
O28 C36 1.284 . S
Zn29 O28 1.899 . S
Zn29 O30 2.032 . S
Zn29 O33 2.086 . S
Zn29 O38 1.977 . S
O30 Zn29 2.032 . S
O30 C34 1.278 . S
C31 O32 1.203 . S
C31 O38 1.267 . S
O32 C31 1.203 . S
O33 C26 1.185 . S
O33 Zn29 2.086 . S
C34 O30 1.278 . S
C34 O35 1.211 . S
O35 C34 1.211 . S
C36 O28 1.284 . S
C36 O37 1.273 . S
O37 C36 1.273 . S
O38 Zn29 1.977 . S
O38 C31 1.267 . S
C39 O40 1.160 . S
C39 O46 1.185 . S
O40 C39 1.160 . S
O41 Zn42 1.899 . S
O41 C49 1.284 1_455 S
Zn42 O41 1.899 . S
Zn42 O43 2.032 . S
Zn42 O46 2.086 . S
Zn42 O51 1.977 . S
O43 Zn42 2.032 . S
O43 C47 1.278 . S
C44 O45 1.203 . S
C44 O51 1.267 . S
O45 C44 1.203 . S
O46 C39 1.185 . S
O46 Zn42 2.086 . S
C47 O43 1.278 . S
C47 O48 1.211 . S
O48 C47 1.211 . S
C49 O41 1.284 1_655 S
C49 O50 1.273 1_655 S
O50 C49 1.273 1_455 S
O51 Zn42 1.977 . S
O51 C44 1.267 . S
C52 O53 1.160 . S
C52 O59 1.185 . S
O53 C52 1.160 . S
O54 Zn55 1.899 . S
O54 C62 1.284 . S
Zn55 O54 1.899 . S
Zn55 O56 2.032 . S
Zn55 O59 2.086 . S
Zn55 O64 1.977 . S
O56 Zn55 2.032 . S
O56 C60 1.278 . S
C57 O58 1.203 . S
C57 O64 1.267 . S
O58 C57 1.203 . S
O59 C52 1.185 . S
O59 Zn55 2.086 . S
C60 O56 1.278 . S
C60 O61 1.211 . S
O61 C60 1.211 . S
C62 O54 1.284 . S
C62 O63 1.273 . S
O63 C62 1.273 . S
O64 Zn55 1.977 . S
O64 C57 1.267 . S
C65 O66 1.160 . S
C65 O72 1.185 . S
O66 C65 1.160 . S
O67 Zn68 1.899 . S
O67 C75 1.284 1_565 S
Zn68 O67 1.899 . S
Zn68 O69 2.032 . S
Zn68 O72 2.086 . S
Zn68 O77 1.977 . S
O69 Zn68 2.032 . S
O69 C73 1.278 . S
C70 O71 1.203 . S
C70 O77 1.267 . S
O71 C70 1.203 . S
O72 C65 1.185 . S
O72 Zn68 2.086 . S
C73 O69 1.278 . S
C73 O74 1.211 . S
O74 C73 1.211 . S
C75 O67 1.284 1_545 S
C75 O76 1.273 1_545 S
O76 C75 1.273 1_565 S
O77 Zn68 1.977 . S
O77 C70 1.267 . S
C78 O79 1.160 . S
C78 O85 1.185 . S
O79 C78 1.160 . S
O80 Zn81 1.899 . S
O80 C88 1.284 1_565 S
Zn81 O80 1.899 . S
Zn81 O82 2.032 . S
Zn81 O85 2.086 . S
Zn81 O90 1.977 . S
O82 Zn81 2.032 . S
O82 C86 1.278 . S
C83 O84 1.203 . S
C83 O90 1.267 . S
O84 C83 1.203 . S
O85 C78 1.185 . S
O85 Zn81 2.086 . S
C86 O82 1.278 . S
C86 O87 1.211 . S
O87 C86 1.211 . S
C88 O80 1.284 1_545 S
C88 O89 1.273 1_545 S
O89 C88 1.273 1_565 S
O90 Zn81 1.977 . S
O90 C83 1.267 . S
C91 O92 1.160 . S
C91 O98 1.185 . S
O92 C91 1.160 . S
O93 Zn94 1.899 . S
O93 C101 1.284 1_455 S
Zn94 O93 1.899 . S
Zn94 O95 2.032 . S
Zn94 O98 2.086 . S
Zn94 O103 1.977 . S
O95 Zn94 2.032 . S
O95 C99 1.278 . S
C96 O97 1.203 . S
C96 O103 1.267 . S
O97 C96 1.203 . S
O98 C91 1.185 . S
O98 Zn94 2.086 . S
C99 O95 1.278 . S
C99 O100 1.211 . S
O100 C99 1.211 . S
C101 O93 1.284 1_655 S
C101 O102 1.273 1_655 S
O102 C101 1.273 1_455 S
O103 Zn94 1.977 . S
O103 C96 1.267 . S
C104 O105 1.160 . S
C104 O111 1.185 . S
O105 C104 1.160 . S
O106 Zn107 1.899 . S
O106 C114 1.284 . S
Zn107 O106 1.899 . S
Zn107 O108 2.032 . S
Zn107 O111 2.086 . S
Zn107 O116 1.977 . S
O108 Zn107 2.032 . S
O108 C112 1.278 . S
C109 O110 1.203 . S
C109 O116 1.267 . S
O110 C109 1.203 . S
O111 C104 1.185 . S
O111 Zn107 2.086 . S
C112 O108 1.278 . S
C112 O113 1.211 . S
O113 C112 1.211 . S
C114 O106 1.284 . S
C114 O115 1.273 . S
O115 C114 1.273 . S
O116 Zn107 1.977 . S
O116 C109 1.267 . S
C117 O118 1.160 . S
C117 O124 1.185 . S
O118 C117 1.160 . S
O119 Zn120 1.899 . S
O119 C127 1.284 1_655 S
Zn120 O119 1.899 . S
Zn120 O121 2.032 . S
Zn120 O124 2.086 . S
Zn120 O129 1.977 . S
O121 Zn120 2.032 . S
O121 C125 1.278 . S
C122 O123 1.203 . S
C122 O129 1.267 . S
O123 C122 1.203 . S
O124 C117 1.185 . S
O124 Zn120 2.086 . S
C125 O121 1.278 . S
C125 O126 1.211 . S
O126 C125 1.211 . S
C127 O119 1.284 1_455 S
C127 O128 1.273 1_455 S
O128 C127 1.273 1_655 S
O129 Zn120 1.977 . S
O129 C122 1.267 . S
C130 O131 1.160 . S
C130 O137 1.185 . S
O131 C130 1.160 . S
O132 Zn133 1.899 . S
O132 C140 1.284 . S
Zn133 O132 1.899 . S
Zn133 O134 2.032 . S
Zn133 O137 2.086 . S
Zn133 O142 1.977 . S
O134 Zn133 2.032 . S
O134 C138 1.278 . S
C135 O136 1.203 . S
C135 O142 1.267 . S
O136 C135 1.203 . S
O137 C130 1.185 . S
O137 Zn133 2.086 . S
C138 O134 1.278 . S
C138 O139 1.211 . S
O139 C138 1.211 . S
C140 O132 1.284 . S
C140 O141 1.273 . S
O141 C140 1.273 . S
O142 Zn133 1.977 . S
O142 C135 1.267 . S
C143 O144 1.160 . S
C143 O150 1.185 . S
O144 C143 1.160 . S
O145 Zn146 1.899 . S
O145 C153 1.284 1_545 S
Zn146 O145 1.899 . S
Zn146 O147 2.032 . S
Zn146 O150 2.086 . S
Zn146 O155 1.977 . S
O147 Zn146 2.032 . S
O147 C151 1.278 . S
C148 O149 1.203 . S
C148 O155 1.267 . S
O149 C148 1.203 . S
O150 C143 1.185 . S
O150 Zn146 2.086 . S
C151 O147 1.278 . S
C151 O152 1.211 . S
O152 C151 1.211 . S
C153 O145 1.284 1_565 S
C153 O154 1.273 1_565 S
O154 C153 1.273 1_545 S
O155 Zn146 1.977 . S
O155 C148 1.267 . S
C156 O157 1.160 . S
C156 O163 1.185 . S
O157 C156 1.160 . S
O158 Zn159 1.899 . S
O158 C166 1.284 . S
Zn159 O158 1.899 . S
Zn159 O160 2.032 . S
Zn159 O163 2.086 . S
Zn159 O168 1.977 . S
O160 Zn159 2.032 . S
O160 C164 1.278 . S
C161 O162 1.203 . S
C161 O168 1.267 . S
O162 C161 1.203 . S
O163 C156 1.185 . S
O163 Zn159 2.086 . S
C164 O160 1.278 . S
C164 O165 1.211 . S
O165 C164 1.211 . S
C166 O158 1.284 . S
C166 O167 1.273 . S
O167 C166 1.273 . S
O168 Zn159 1.977 . S
O168 C161 1.267 . S
C169 O170 1.160 . S
C169 O176 1.185 . S
O170 C169 1.160 . S
O171 Zn172 1.899 . S
O171 C179 1.284 . S
Zn172 O171 1.899 . S
Zn172 O173 2.032 . S
Zn172 O176 2.086 . S
Zn172 O181 1.977 . S
O173 Zn172 2.032 . S
O173 C177 1.278 . S
C174 O175 1.203 . S
C174 O181 1.267 . S
O175 C174 1.203 . S
O176 C169 1.185 . S
O176 Zn172 2.086 . S
C177 O173 1.278 . S
C177 O178 1.211 . S
O178 C177 1.211 . S
C179 O171 1.284 . S
C179 O180 1.273 . S
O180 C179 1.273 . S
O181 Zn172 1.977 . S
O181 C174 1.267 . S
C182 O183 1.160 . S
C182 O189 1.185 . S
O183 C182 1.160 . S
O184 Zn185 1.899 . S
O184 C192 1.284 . S
Zn185 O184 1.899 . S
Zn185 O186 2.032 . S
Zn185 O189 2.086 . S
Zn185 O194 1.977 . S
O186 Zn185 2.032 . S
O186 C190 1.278 . S
C187 O188 1.203 . S
C187 O194 1.267 . S
O188 C187 1.203 . S
O189 C182 1.185 . S
O189 Zn185 2.086 . S
C190 O186 1.278 . S
C190 O191 1.211 . S
O191 C190 1.211 . S
C192 O184 1.284 . S
C192 O193 1.273 . S
O193 C192 1.273 . S
O194 Zn185 1.977 . S
O194 C187 1.267 . S
C195 O196 1.160 . S
C195 O202 1.185 . S
O196 C195 1.160 . S
O197 Zn198 1.899 . S
O197 C205 1.284 . S
Zn198 O197 1.899 . S
Zn198 O199 2.032 . S
Zn198 O202 2.086 . S
Zn198 O207 1.977 . S
O199 Zn198 2.032 . S
O199 C203 1.278 . S
C200 O201 1.203 . S
C200 O207 1.267 . S
O201 C200 1.203 . S
O202 C195 1.185 . S
O202 Zn198 2.086 . S
C203 O199 1.278 . S
C203 O204 1.211 . S
O204 C203 1.211 . S
C205 O197 1.284 . S
C205 O206 1.273 . S
O206 C205 1.273 . S
O207 Zn198 1.977 . S
O207 C200 1.267 . S
C208 O209 1.160 . S
C208 O215 1.185 . S
O209 C208 1.160 . S
O210 Zn211 1.899 . S
O210 C218 1.284 . S
Zn211 O210 1.899 . S
Zn211 O212 2.032 . S
Zn211 O215 2.086 . S
Zn211 O220 1.977 . S
O212 Zn211 2.032 . S
O212 C216 1.278 . S
C213 O214 1.203 . S
C213 O220 1.267 . S
O214 C213 1.203 . S
O215 C208 1.185 . S
O215 Zn211 2.086 . S
C216 O212 1.278 . S
C216 O217 1.211 . S
O217 C216 1.211 . S
C218 O210 1.284 . S
C218 O219 1.273 . S
O219 C218 1.273 . S
O220 Zn211 1.977 . S
O220 C213 1.267 . S
C221 O222 1.160 . S
C221 O228 1.185 . S
O222 C221 1.160 . S
O223 Zn224 1.899 . S
O223 C231 1.284 . S
Zn224 O223 1.899 . S
Zn224 O225 2.032 . S
Zn224 O228 2.086 . S
Zn224 O233 1.977 . S
O225 Zn224 2.032 . S
O225 C229 1.278 . S
C226 O227 1.203 . S
C226 O233 1.267 . S
O227 C226 1.203 . S
O228 C221 1.185 . S
O228 Zn224 2.086 . S
C229 O225 1.278 . S
C229 O230 1.211 . S
O230 C229 1.211 . S
C231 O223 1.284 . S
C231 O232 1.273 . S
O232 C231 1.273 . S
O233 Zn224 1.977 . S
O233 C226 1.267 . S
C234 O235 1.160 . S
C234 O241 1.185 . S
O235 C234 1.160 . S
O236 Zn237 1.899 . S
O236 C244 1.284 . S
Zn237 O236 1.899 . S
Zn237 O238 2.032 . S
Zn237 O241 2.086 . S
Zn237 O246 1.977 . S
O238 Zn237 2.032 . S
O238 C242 1.278 . S
C239 O240 1.203 . S
C239 O246 1.267 . S
O240 C239 1.203 . S
O241 C234 1.185 . S
O241 Zn237 2.086 . S
C242 O238 1.278 . S
C242 O243 1.211 . S
O243 C242 1.211 . S
C244 O236 1.284 . S
C244 O245 1.273 . S
O245 C244 1.273 . S
O246 Zn237 1.977 . S
O246 C239 1.267 . S
C247 O248 1.160 . S
C247 O254 1.185 . S
O248 C247 1.160 . S
O249 Zn250 1.899 . S
O249 C257 1.284 . S
Zn250 O249 1.899 . S
Zn250 O251 2.032 . S
Zn250 O254 2.086 . S
Zn250 O259 1.977 . S
O251 Zn250 2.032 . S
O251 C255 1.278 . S
C252 O253 1.203 . S
C252 O259 1.267 . S
O253 C252 1.203 . S
O254 C247 1.185 . S
O254 Zn250 2.086 . S
C255 O251 1.278 . S
C255 O256 1.211 . S
O256 C255 1.211 . S
C257 O249 1.284 . S
C257 O258 1.273 . S
O258 C257 1.273 . S
O259 Zn250 1.977 . S
O259 C252 1.267 . S
C260 O261 1.160 . S
C260 O267 1.185 . S
O261 C260 1.160 . S
O262 Zn263 1.899 . S
O262 C270 1.284 . S
Zn263 O262 1.899 . S
Zn263 O264 2.032 . S
Zn263 O267 2.086 . S
Zn263 O272 1.977 . S
O264 Zn263 2.032 . S
O264 C268 1.278 . S
C265 O266 1.203 . S
C265 O272 1.267 . S
O266 C265 1.203 . S
O267 C260 1.185 . S
O267 Zn263 2.086 . S
C268 O264 1.278 . S
C268 O269 1.211 . S
O269 C268 1.211 . S
C270 O262 1.284 . S
C270 O271 1.273 . S
O271 C270 1.273 . S
O272 Zn263 1.977 . S
O272 C265 1.267 . S
C273 O274 1.160 . S
C273 O280 1.185 . S
O274 C273 1.160 . S
O275 Zn276 1.899 . S
O275 C283 1.284 . S
Zn276 O275 1.899 . S
Zn276 O277 2.032 . S
Zn276 O280 2.086 . S
Zn276 O285 1.977 . S
O277 Zn276 2.032 . S
O277 C281 1.278 . S
C278 O279 1.203 . S
C278 O285 1.267 . S
O279 C278 1.203 . S
O280 C273 1.185 . S
O280 Zn276 2.086 . S
C281 O277 1.278 . S
C281 O282 1.211 . S
O282 C281 1.211 . S
C283 O275 1.284 . S
C283 O284 1.273 . S
O284 C283 1.273 . S
O285 Zn276 1.977 . S
O285 C278 1.267 . S
C286 O287 1.160 . S
C286 O293 1.185 . S
O287 C286 1.160 . S
O288 Zn289 1.899 . S
O288 C296 1.284 . S
Zn289 O288 1.899 . S
Zn289 O290 2.032 . S
Zn289 O293 2.086 . S
Zn289 O298 1.977 . S
O290 Zn289 2.032 . S
O290 C294 1.278 . S
C291 O292 1.203 . S
C291 O298 1.267 . S
O292 C291 1.203 . S
O293 C286 1.185 . S
O293 Zn289 2.086 . S
C294 O290 1.278 . S
C294 O295 1.211 . S
O295 C294 1.211 . S
C296 O288 1.284 . S
C296 O297 1.273 . S
O297 C296 1.273 . S
O298 Zn289 1.977 . S
O298 C291 1.267 . S
C299 O300 1.160 . S
C299 O306 1.185 . S
O300 C299 1.160 . S
O301 Zn302 1.899 . S
O301 C309 1.284 . S
Zn302 O301 1.899 . S
Zn302 O303 2.032 . S
Zn302 O306 2.086 . S
Zn302 O311 1.977 . S
O303 Zn302 2.032 . S
O303 C307 1.278 . S
C304 O305 1.203 . S
C304 O311 1.267 . S
O305 C304 1.203 . S
O306 C299 1.185 . S
O306 Zn302 2.086 . S
C307 O303 1.278 . S
C307 O308 1.211 . S
O308 C307 1.211 . S
C309 O301 1.284 . S
C309 O310 1.273 . S
O310 C309 1.273 . S
O311 Zn302 1.977 . S
O311 C304 1.267 . S
C312 O313 1.160 . S
C312 O319 1.185 . S
O313 C312 1.160 . S
O314 Zn315 1.899 . S
O314 C322 1.284 . S
Zn315 O314 1.899 . S
Zn315 O316 2.032 . S
Zn315 O319 2.086 . S
Zn315 O324 1.977 . S
O316 Zn315 2.032 . S
O316 C320 1.278 . S
C317 O318 1.203 . S
C317 O324 1.267 . S
O318 C317 1.203 . S
O319 C312 1.185 . S
O319 Zn315 2.086 . S
C320 O316 1.278 . S
C320 O321 1.211 . S
O321 C320 1.211 . S
C322 O314 1.284 . S
C322 O323 1.273 . S
O323 C322 1.273 . S
O324 Zn315 1.977 . S
O324 C317 1.267 . S
C325 O326 1.160 . S
C325 O332 1.185 . S
O326 C325 1.160 . S
O327 Zn328 1.899 . S
O327 C335 1.284 . S
Zn328 O327 1.899 . S
Zn328 O329 2.032 . S
Zn328 O332 2.086 . S
Zn328 O337 1.977 . S
O329 Zn328 2.032 . S
O329 C333 1.278 . S
C330 O331 1.203 . S
C330 O337 1.267 . S
O331 C330 1.203 . S
O332 C325 1.185 . S
O332 Zn328 2.086 . S
C333 O329 1.278 . S
C333 O334 1.211 . S
O334 C333 1.211 . S
C335 O327 1.284 . S
C335 O336 1.273 . S
O336 C335 1.273 . S
O337 Zn328 1.977 . S
O337 C330 1.267 . S
C338 O339 1.160 . S
C338 O345 1.185 . S
O339 C338 1.160 . S
O340 Zn341 1.899 . S
O340 C348 1.284 . S
Zn341 O340 1.899 . S
Zn341 O342 2.032 . S
Zn341 O345 2.086 . S
Zn341 O350 1.977 . S
O342 Zn341 2.032 . S
O342 C346 1.278 . S
C343 O344 1.203 . S
C343 O350 1.267 . S
O344 C343 1.203 . S
O345 C338 1.185 . S
O345 Zn341 2.086 . S
C346 O342 1.278 . S
C346 O347 1.211 . S
O347 C346 1.211 . S
C348 O340 1.284 . S
C348 O349 1.273 . S
O349 C348 1.273 . S
O350 Zn341 1.977 . S
O350 C343 1.267 . S
C351 O352 1.160 . S
C351 O358 1.185 . S
O352 C351 1.160 . S
O353 Zn354 1.899 . S
O353 C361 1.284 . S
Zn354 O353 1.899 . S
Zn354 O355 2.032 . S
Zn354 O358 2.086 . S
Zn354 O363 1.977 . S
O355 Zn354 2.032 . S
O355 C359 1.278 . S
C356 O357 1.203 . S
C356 O363 1.267 . S
O357 C356 1.203 . S
O358 C351 1.185 . S
O358 Zn354 2.086 . S
C359 O355 1.278 . S
C359 O360 1.211 . S
O360 C359 1.211 . S
C361 O353 1.284 . S
C361 O362 1.273 . S
O362 C361 1.273 . S
O363 Zn354 1.977 . S
O363 C356 1.267 . S
C364 O365 1.160 . S
C364 O371 1.185 . S
O365 C364 1.160 . S
O366 Zn367 1.899 . S
O366 C374 1.284 . S
Zn367 O366 1.899 . S
Zn367 O368 2.032 . S
Zn367 O371 2.086 . S
Zn367 O376 1.977 . S
O368 Zn367 2.032 . S
O368 C372 1.278 . S
C369 O370 1.203 . S
C369 O376 1.267 . S
O370 C369 1.203 . S
O371 C364 1.185 . S
O371 Zn367 2.086 . S
C372 O368 1.278 . S
C372 O373 1.211 . S
O373 C372 1.211 . S
C374 O366 1.284 . S
C374 O375 1.273 . S
O375 C374 1.273 . S
O376 Zn367 1.977 . S
O376 C369 1.267 . S
C377 O378 1.160 . S
C377 O384 1.185 . S
O378 C377 1.160 . S
O379 Zn380 1.899 . S
O379 C387 1.284 . S
Zn380 O379 1.899 . S
Zn380 O381 2.032 . S
Zn380 O384 2.086 . S
Zn380 O389 1.977 . S
O381 Zn380 2.032 . S
O381 C385 1.278 . S
C382 O383 1.203 . S
C382 O389 1.267 . S
O383 C382 1.203 . S
O384 C377 1.185 . S
O384 Zn380 2.086 . S
C385 O381 1.278 . S
C385 O386 1.211 . S
O386 C385 1.211 . S
C387 O379 1.284 . S
C387 O388 1.273 . S
O388 C387 1.273 . S
O389 Zn380 1.977 . S
O389 C382 1.267 . S
C390 O391 1.160 . S
C390 O397 1.185 . S
O391 C390 1.160 . S
O392 Zn393 1.899 . S
O392 C400 1.284 . S
Zn393 O392 1.899 . S
Zn393 O394 2.032 . S
Zn393 O397 2.086 . S
Zn393 O402 1.977 . S
O394 Zn393 2.032 . S
O394 C398 1.278 . S
C395 O396 1.203 . S
C395 O402 1.267 . S
O396 C395 1.203 . S
O397 C390 1.185 . S
O397 Zn393 2.086 . S
C398 O394 1.278 . S
C398 O399 1.211 . S
O399 C398 1.211 . S
C400 O392 1.284 . S
C400 O401 1.273 . S
O401 C400 1.273 . S
O402 Zn393 1.977 . S
O402 C395 1.267 . S
C403 O404 1.160 . S
C403 O410 1.185 . S
O404 C403 1.160 . S
O405 Zn406 1.899 . S
O405 C413 1.284 . S
Zn406 O405 1.899 . S
Zn406 O407 2.032 . S
Zn406 O410 2.086 . S
Zn406 O415 1.977 . S
O407 Zn406 2.032 . S
O407 C411 1.278 . S
C408 O409 1.203 . S
C408 O415 1.267 . S
O409 C408 1.203 . S
O410 C403 1.185 . S
O410 Zn406 2.086 . S
C411 O407 1.278 . S
C411 O412 1.211 . S
O412 C411 1.211 . S
C413 O405 1.284 . S
C413 O414 1.273 . S
O414 C413 1.273 . S
O415 Zn406 1.977 . S
O415 C408 1.267 . S
C416 O417 1.160 . S
C416 O423 1.185 . S
O417 C416 1.160 . S
O418 Zn419 1.899 . S
O418 C426 1.284 . S
Zn419 O418 1.899 . S
Zn419 O420 2.032 . S
Zn419 O423 2.086 . S
Zn419 O428 1.977 . S
O420 Zn419 2.032 . S
O420 C424 1.278 . S
C421 O422 1.203 . S
C421 O428 1.267 . S
O422 C421 1.203 . S
O423 C416 1.185 . S
O423 Zn419 2.086 . S
C424 O420 1.278 . S
C424 O425 1.211 . S
O425 C424 1.211 . S
C426 O418 1.284 . S
C426 O427 1.273 . S
O427 C426 1.273 . S
O428 Zn419 1.977 . S
O428 C421 1.267 . S
C429 O430 1.160 . S
C429 O436 1.185 . S
O430 C429 1.160 . S
O431 Zn432 1.899 . S
O431 C439 1.284 . S
Zn432 O431 1.899 . S
Zn432 O433 2.032 . S
Zn432 O436 2.086 . S
Zn432 O441 1.977 . S
O433 Zn432 2.032 . S
O433 C437 1.278 . S
C434 O435 1.203 . S
C434 O441 1.267 . S
O435 C434 1.203 . S
O436 C429 1.185 . S
O436 Zn432 2.086 . S
C437 O433 1.278 . S
C437 O438 1.211 . S
O438 C437 1.211 . S
C439 O431 1.284 . S
C439 O440 1.273 . S
O440 C439 1.273 . S
O441 Zn432 1.977 . S
O441 C434 1.267 . S
C442 O443 1.160 . S
C442 O449 1.185 . S
O443 C442 1.160 . S
O444 Zn445 1.899 . S
O444 C452 1.284 . S
Zn445 O444 1.899 . S
Zn445 O446 2.032 . S
Zn445 O449 2.086 . S
Zn445 O454 1.977 . S
O446 Zn445 2.032 . S
O446 C450 1.278 . S
C447 O448 1.203 . S
C447 O454 1.267 . S
O448 C447 1.203 . S
O449 C442 1.185 . S
O449 Zn445 2.086 . S
C450 O446 1.278 . S
C450 O451 1.211 . S
O451 C450 1.211 . S
C452 O444 1.284 . S
C452 O453 1.273 . S
O453 C452 1.273 . S
O454 Zn445 1.977 . S
O454 C447 1.267 . S
C455 O456 1.160 . S
C455 O462 1.185 . S
O456 C455 1.160 . S
O457 Zn458 1.899 . S
O457 C465 1.284 . S
Zn458 O457 1.899 . S
Zn458 O459 2.032 . S
Zn458 O462 2.086 . S
Zn458 O467 1.977 . S
O459 Zn458 2.032 . S
O459 C463 1.278 . S
C460 O461 1.203 . S
C460 O467 1.267 . S
O461 C460 1.203 . S
O462 C455 1.185 . S
O462 Zn458 2.086 . S
C463 O459 1.278 . S
C463 O464 1.211 . S
O464 C463 1.211 . S
C465 O457 1.284 . S
C465 O466 1.273 . S
O466 C465 1.273 . S
O467 Zn458 1.977 . S
O467 C460 1.267 . S
C468 C469 1.363 . S
C468 C474 1.379 . S
C468 N476 1.356 . S
C469 C468 1.363 . S
C469 C475 1.363 . S
C470 C471 1.363 . S
C470 C475 1.379 . S
C470 N477 1.356 . S
C471 C470 1.363 . S
C471 C474 1.363 . S
N472 C474 1.356 . S
N472 H484 0.984 . S
N472 H485 0.985 . S
N473 C475 1.356 . S
N473 H478 0.984 . S
N473 H479 0.985 . S
C474 C468 1.379 . S
C474 C471 1.363 . S
C474 N472 1.356 . S
C475 C469 1.363 . S
C475 C470 1.379 . S
C475 N473 1.356 . S
N476 C468 1.356 . S
N476 H482 0.984 . S
N476 H483 0.984 . S
N477 C470 1.356 . S
N477 H480 0.984 . S
N477 H481 0.985 . S
H478 N473 0.984 . S
H479 N473 0.985 . S
H480 N477 0.984 . S
H481 N477 0.985 . S
H482 N476 0.984 . S
H483 N476 0.984 . S
H484 N472 0.984 . S
H485 N472 0.985 . S
C486 C487 1.363 . S
C486 C492 1.379 . S
C486 N494 1.356 . S
C487 C486 1.363 . S
C487 C493 1.363 . S
C488 C489 1.363 . S
C488 C493 1.379 . S
C488 N495 1.356 . S
C489 C488 1.363 . S
C489 C492 1.363 . S
N490 C492 1.356 . S
N490 H502 0.984 . S
N490 H503 0.985 . S
N491 C493 1.356 . S
N491 H496 0.984 . S
N491 H497 0.985 . S
C492 C486 1.379 . S
C492 C489 1.363 . S
C492 N490 1.356 . S
C493 C487 1.363 . S
C493 C488 1.379 . S
C493 N491 1.356 . S
N494 C486 1.356 . S
N494 H500 0.984 . S
N494 H501 0.984 . S
N495 C488 1.356 . S
N495 H498 0.984 . S
N495 H499 0.985 . S
H496 N491 0.984 . S
H497 N491 0.985 . S
H498 N495 0.984 . S
H499 N495 0.985 . S
H500 N494 0.984 . S
H501 N494 0.984 . S
H502 N490 0.984 . S
H503 N490 0.985 . S
C504 C505 1.363 . S
C504 C510 1.379 . S
C504 N512 1.356 . S
C505 C504 1.363 . S
C505 C511 1.363 . S
C506 C507 1.363 . S
C506 C511 1.379 . S
C506 N513 1.356 . S
C507 C506 1.363 . S
C507 C510 1.363 . S
N508 C510 1.356 . S
N508 H520 0.984 . S
N508 H521 0.985 . S
N509 C511 1.356 . S
N509 H514 0.984 . S
N509 H515 0.985 . S
C510 C504 1.379 . S
C510 C507 1.363 . S
C510 N508 1.356 . S
C511 C505 1.363 . S
C511 C506 1.379 . S
C511 N509 1.356 . S
N512 C504 1.356 . S
N512 H518 0.984 . S
N512 H519 0.984 . S
N513 C506 1.356 . S
N513 H516 0.984 . S
N513 H517 0.985 . S
H514 N509 0.984 . S
H515 N509 0.985 . S
H516 N513 0.984 . S
H517 N513 0.985 . S
H518 N512 0.984 . S
H519 N512 0.984 . S
H520 N508 0.984 . S
H521 N508 0.985 . S
C522 C523 1.363 . S
C522 C528 1.379 . S
C522 N530 1.356 . S
C523 C522 1.363 . S
C523 C529 1.363 . S
C524 C525 1.363 . S
C524 C529 1.379 . S
C524 N531 1.356 . S
C525 C524 1.363 . S
C525 C528 1.363 . S
N526 C528 1.356 . S
N526 H538 0.984 . S
N526 H539 0.985 . S
N527 C529 1.356 . S
N527 H532 0.984 . S
N527 H533 0.985 . S
C528 C522 1.379 . S
C528 C525 1.363 . S
C528 N526 1.356 . S
C529 C523 1.363 . S
C529 C524 1.379 . S
C529 N527 1.356 . S
N530 C522 1.356 . S
N530 H536 0.984 . S
N530 H537 0.984 . S
N531 C524 1.356 . S
N531 H534 0.984 . S
N531 H535 0.985 . S
H532 N527 0.984 . S
H533 N527 0.985 . S
H534 N531 0.984 . S
H535 N531 0.985 . S
H536 N530 0.984 . S
H537 N530 0.984 . S
H538 N526 0.984 . S
H539 N526 0.985 . S
C540 C541 1.363 . S
C540 C546 1.379 . S
C540 N548 1.356 . S
C541 C540 1.363 . S
C541 C547 1.363 . S
C542 C543 1.363 . S
C542 C547 1.379 . S
C542 N549 1.356 . S
C543 C542 1.363 . S
C543 C546 1.363 . S
N544 C546 1.356 . S
N544 H556 0.984 . S
N544 H557 0.985 . S
N545 C547 1.356 . S
N545 H550 0.984 . S
N545 H551 0.985 . S
C546 C540 1.379 . S
C546 C543 1.363 . S
C546 N544 1.356 . S
C547 C541 1.363 . S
C547 C542 1.379 . S
C547 N545 1.356 . S
N548 C540 1.356 . S
N548 H554 0.984 . S
N548 H555 0.984 . S
N549 C542 1.356 . S
N549 H552 0.984 . S
N549 H553 0.985 . S
H550 N545 0.984 . S
H551 N545 0.985 . S
H552 N549 0.984 . S
H553 N549 0.985 . S
H554 N548 0.984 . S
H555 N548 0.984 . S
H556 N544 0.984 . S
H557 N544 0.985 . S
C558 C559 1.363 . S
C558 C564 1.379 . S
C558 N566 1.356 . S
C559 C558 1.363 . S
C559 C565 1.363 . S
C560 C561 1.363 . S
C560 C565 1.379 . S
C560 N567 1.356 . S
C561 C560 1.363 . S
C561 C564 1.363 . S
N562 C564 1.356 . S
N562 H574 0.984 . S
N562 H575 0.985 . S
N563 C565 1.356 . S
N563 H568 0.984 . S
N563 H569 0.985 . S
C564 C558 1.379 . S
C564 C561 1.363 . S
C564 N562 1.356 . S
C565 C559 1.363 . S
C565 C560 1.379 . S
C565 N563 1.356 . S
N566 C558 1.356 . S
N566 H572 0.984 . S
N566 H573 0.984 . S
N567 C560 1.356 . S
N567 H570 0.984 . S
N567 H571 0.985 . S
H568 N563 0.984 . S
H569 N563 0.985 . S
H570 N567 0.984 . S
H571 N567 0.985 . S
H572 N566 0.984 . S
H573 N566 0.984 . S
H574 N562 0.984 . S
H575 N562 0.985 . S
C576 C577 1.363 . S
C576 C582 1.379 . S
C576 N584 1.356 . S
C577 C576 1.363 . S
C577 C583 1.363 . S
C578 C579 1.363 . S
C578 C583 1.379 . S
C578 N585 1.356 . S
C579 C578 1.363 . S
C579 C582 1.363 . S
N580 C582 1.356 . S
N580 H592 0.984 . S
N580 H593 0.985 . S
N581 C583 1.356 . S
N581 H586 0.984 . S
N581 H587 0.985 . S
C582 C576 1.379 . S
C582 C579 1.363 . S
C582 N580 1.356 . S
C583 C577 1.363 . S
C583 C578 1.379 . S
C583 N581 1.356 . S
N584 C576 1.356 . S
N584 H590 0.984 . S
N584 H591 0.984 . S
N585 C578 1.356 . S
N585 H588 0.984 . S
N585 H589 0.985 . S
H586 N581 0.984 . S
H587 N581 0.985 . S
H588 N585 0.984 . S
H589 N585 0.985 . S
H590 N584 0.984 . S
H591 N584 0.984 . S
H592 N580 0.984 . S
H593 N580 0.985 . S
C594 C595 1.363 . S
C594 C600 1.379 . S
C594 N602 1.356 . S
C595 C594 1.363 . S
C595 C601 1.363 . S
C596 C597 1.363 . S
C596 C601 1.379 . S
C596 N603 1.356 . S
C597 C596 1.363 . S
C597 C600 1.363 . S
N598 C600 1.356 . S
N598 H610 0.984 . S
N598 H611 0.985 . S
N599 C601 1.356 . S
N599 H604 0.984 . S
N599 H605 0.985 . S
C600 C594 1.379 . S
C600 C597 1.363 . S
C600 N598 1.356 . S
C601 C595 1.363 . S
C601 C596 1.379 . S
C601 N599 1.356 . S
N602 C594 1.356 . S
N602 H608 0.984 . S
N602 H609 0.984 . S
N603 C596 1.356 . S
N603 H606 0.984 . S
N603 H607 0.985 . S
H604 N599 0.984 . S
H605 N599 0.985 . S
H606 N603 0.984 . S
H607 N603 0.985 . S
H608 N602 0.984 . S
H609 N602 0.984 . S
H610 N598 0.984 . S
H611 N598 0.985 . S
C612 C613 1.363 . S
C612 C618 1.379 . S
C612 N620 1.356 . S
C613 C612 1.363 . S
C613 C619 1.363 . S
C614 C615 1.363 . S
C614 C619 1.379 . S
C614 N621 1.356 . S
C615 C614 1.363 . S
C615 C618 1.363 . S
N616 C618 1.356 . S
N616 H628 0.984 . S
N616 H629 0.985 . S
N617 C619 1.356 . S
N617 H622 0.984 . S
N617 H623 0.985 . S
C618 C612 1.379 . S
C618 C615 1.363 . S
C618 N616 1.356 . S
C619 C613 1.363 . S
C619 C614 1.379 . S
C619 N617 1.356 . S
N620 C612 1.356 . S
N620 H626 0.984 . S
N620 H627 0.984 . S
N621 C614 1.356 . S
N621 H624 0.984 . S
N621 H625 0.985 . S
H622 N617 0.984 . S
H623 N617 0.985 . S
H624 N621 0.984 . S
H625 N621 0.985 . S
H626 N620 0.984 . S
H627 N620 0.984 . S
H628 N616 0.984 . S
H629 N616 0.985 . S
C630 C631 1.363 . S
C630 C636 1.379 . S
C630 N638 1.356 . S
C631 C630 1.363 . S
C631 C637 1.363 . S
C632 C633 1.363 . S
C632 C637 1.379 . S
C632 N639 1.356 . S
C633 C632 1.363 . S
C633 C636 1.363 . S
N634 C636 1.356 . S
N634 H646 0.984 . S
N634 H647 0.985 . S
N635 C637 1.356 . S
N635 H640 0.984 . S
N635 H641 0.985 . S
C636 C630 1.379 . S
C636 C633 1.363 . S
C636 N634 1.356 . S
C637 C631 1.363 . S
C637 C632 1.379 . S
C637 N635 1.356 . S
N638 C630 1.356 . S
N638 H644 0.984 . S
N638 H645 0.984 . S
N639 C632 1.356 . S
N639 H642 0.984 . S
N639 H643 0.985 . S
H640 N635 0.984 . S
H641 N635 0.985 . S
H642 N639 0.984 . S
H643 N639 0.985 . S
H644 N638 0.984 . S
H645 N638 0.984 . S
H646 N634 0.984 . S
H647 N634 0.985 . S
C648 C649 1.363 . S
C648 C654 1.379 . S
C648 N656 1.356 . S
C649 C648 1.363 . S
C649 C655 1.363 . S
C650 C651 1.363 . S
C650 C655 1.379 . S
C650 N657 1.356 . S
C651 C650 1.363 . S
C651 C654 1.363 . S
N652 C654 1.356 . S
N652 H664 0.984 . S
N652 H665 0.985 . S
N653 C655 1.356 . S
N653 H658 0.984 . S
N653 H659 0.985 . S
C654 C648 1.379 . S
C654 C651 1.363 . S
C654 N652 1.356 . S
C655 C649 1.363 . S
C655 C650 1.379 . S
C655 N653 1.356 . S
N656 C648 1.356 . S
N656 H662 0.984 . S
N656 H663 0.984 . S
N657 C650 1.356 . S
N657 H660 0.984 . S
N657 H661 0.985 . S
H658 N653 0.984 . S
H659 N653 0.985 . S
H660 N657 0.984 . S
H661 N657 0.985 . S
H662 N656 0.984 . S
H663 N656 0.984 . S
H664 N652 0.984 . S
H665 N652 0.985 . S
C666 C667 1.363 . S
C666 C672 1.379 . S
C666 N674 1.356 . S
C667 C666 1.363 . S
C667 C673 1.363 . S
C668 C669 1.363 . S
C668 C673 1.379 . S
C668 N675 1.356 . S
C669 C668 1.363 . S
C669 C672 1.363 . S
N670 C672 1.356 . S
N670 H682 0.984 . S
N670 H683 0.985 . S
N671 C673 1.356 . S
N671 H676 0.984 . S
N671 H677 0.985 . S
C672 C666 1.379 . S
C672 C669 1.363 . S
C672 N670 1.356 . S
C673 C667 1.363 . S
C673 C668 1.379 . S
C673 N671 1.356 . S
N674 C666 1.356 . S
N674 H680 0.984 . S
N674 H681 0.984 . S
N675 C668 1.356 . S
N675 H678 0.984 . S
N675 H679 0.985 . S
H676 N671 0.984 . S
H677 N671 0.985 . S
H678 N675 0.984 . S
H679 N675 0.985 . S
H680 N674 0.984 . S
H681 N674 0.984 . S
H682 N670 0.984 . S
H683 N670 0.985 . S
C684 C685 1.363 . S
C684 C690 1.379 . S
C684 N692 1.356 . S
C685 C684 1.363 . S
C685 C691 1.363 1_455 S
C686 C687 1.363 . S
C686 C691 1.379 . S
C686 N693 1.356 . S
C687 C686 1.363 . S
C687 C690 1.363 1_655 S
N688 C690 1.356 . S
N688 H700 0.984 . S
N688 H701 0.985 1_455 S
N689 C691 1.356 . S
N689 H694 0.984 1_655 S
N689 H695 0.985 . S
C690 C684 1.379 . S
C690 C687 1.363 1_455 S
C690 N688 1.356 . S
C691 C685 1.363 1_655 S
C691 C686 1.379 . S
C691 N689 1.356 . S
N692 C684 1.356 . S
N692 H698 0.984 . S
N692 H699 0.984 . S
N693 C686 1.356 . S
N693 H696 0.984 . S
N693 H697 0.985 . S
H694 N689 0.984 1_455 S
H695 N689 0.985 . S
H696 N693 0.984 . S
H697 N693 0.985 . S
H698 N692 0.984 . S
H699 N692 0.984 . S
H700 N688 0.984 . S
H701 N688 0.985 1_655 S
C702 C703 1.363 . S
C702 C708 1.379 . S
C702 N710 1.356 . S
C703 C702 1.363 . S
C703 C709 1.363 . S
C704 C705 1.363 . S
C704 C709 1.379 . S
C704 N711 1.356 . S
C705 C704 1.363 . S
C705 C708 1.363 . S
N706 C708 1.356 . S
N706 H718 0.984 . S
N706 H719 0.985 . S
N707 C709 1.356 . S
N707 H712 0.984 . S
N707 H713 0.985 . S
C708 C702 1.379 . S
C708 C705 1.363 . S
C708 N706 1.356 . S
C709 C703 1.363 . S
C709 C704 1.379 . S
C709 N707 1.356 . S
N710 C702 1.356 . S
N710 H716 0.984 . S
N710 H717 0.984 . S
N711 C704 1.356 . S
N711 H714 0.984 . S
N711 H715 0.985 . S
H712 N707 0.984 . S
H713 N707 0.985 . S
H714 N711 0.984 . S
H715 N711 0.985 . S
H716 N710 0.984 . S
H717 N710 0.984 . S
H718 N706 0.984 . S
H719 N706 0.985 . S
C720 C721 1.363 . S
C720 C726 1.379 . S
C720 N728 1.356 . S
C721 C720 1.363 . S
C721 C727 1.363 1_545 S
C722 C723 1.363 . S
C722 C727 1.379 . S
C722 N729 1.356 . S
C723 C722 1.363 . S
C723 C726 1.363 1_565 S
N724 C726 1.356 . S
N724 H736 0.984 . S
N724 H737 0.985 . S
N725 C727 1.356 . S
N725 H730 0.984 . S
N725 H731 0.985 . S
C726 C720 1.379 . S
C726 C723 1.363 1_545 S
C726 N724 1.356 . S
C727 C721 1.363 1_565 S
C727 C722 1.379 . S
C727 N725 1.356 . S
N728 C720 1.356 . S
N728 H734 0.984 . S
N728 H735 0.984 . S
N729 C722 1.356 . S
N729 H732 0.984 . S
N729 H733 0.985 . S
H730 N725 0.984 . S
H731 N725 0.985 . S
H732 N729 0.984 . S
H733 N729 0.985 . S
H734 N728 0.984 . S
H735 N728 0.984 . S
H736 N724 0.984 . S
H737 N724 0.985 . S
C738 C739 1.363 . S
C738 C744 1.379 1_564 S
C738 N746 1.356 . S
C739 C738 1.363 . S
C739 C745 1.363 . S
C740 C741 1.363 . S
C740 C745 1.379 1_546 S
C740 N747 1.356 . S
C741 C740 1.363 . S
C741 C744 1.363 . S
N742 C744 1.356 . S
N742 H754 0.984 . S
N742 H755 0.985 . S
N743 C745 1.356 . S
N743 H748 0.984 . S
N743 H749 0.985 . S
C744 C738 1.379 1_546 S
C744 C741 1.363 . S
C744 N742 1.356 . S
C745 C739 1.363 . S
C745 C740 1.379 1_564 S
C745 N743 1.356 . S
N746 C738 1.356 . S
N746 H752 0.984 . S
N746 H753 0.984 . S
N747 C740 1.356 . S
N747 H750 0.984 . S
N747 H751 0.985 . S
H748 N743 0.984 . S
H749 N743 0.985 . S
H750 N747 0.984 . S
H751 N747 0.985 . S
H752 N746 0.984 . S
H753 N746 0.984 . S
H754 N742 0.984 . S
H755 N742 0.985 . S
C756 C757 1.363 1_455 S
C756 C762 1.379 1_556 S
C756 N764 1.356 . S
C757 C756 1.363 1_655 S
C757 C763 1.363 . S
C758 C759 1.363 1_655 S
C758 C763 1.379 1_554 S
C758 N765 1.356 . S
C759 C758 1.363 1_455 S
C759 C762 1.363 . S
N760 C762 1.356 . S
N760 H772 0.984 . S
N760 H773 0.985 . S
N761 C763 1.356 . S
N761 H766 0.984 . S
N761 H767 0.985 . S
C762 C756 1.379 1_554 S
C762 C759 1.363 . S
C762 N760 1.356 . S
C763 C757 1.363 . S
C763 C758 1.379 1_556 S
C763 N761 1.356 . S
N764 C756 1.356 . S
N764 H770 0.984 . S
N764 H771 0.984 . S
N765 C758 1.356 . S
N765 H768 0.984 . S
N765 H769 0.985 . S
H766 N761 0.984 . S
H767 N761 0.985 . S
H768 N765 0.984 . S
H769 N765 0.985 . S
H770 N764 0.984 . S
H771 N764 0.984 . S
H772 N760 0.984 . S
H773 N760 0.985 . S
C774 C775 1.363 . S
C774 C780 1.379 1_556 S
C774 N782 1.356 . S
C775 C774 1.363 . S
C775 C781 1.363 . S
C776 C777 1.363 . S
C776 C781 1.379 1_554 S
C776 N783 1.356 . S
C777 C776 1.363 . S
C777 C780 1.363 . S
N778 C780 1.356 . S
N778 H790 0.984 . S
N778 H791 0.985 . S
N779 C781 1.356 . S
N779 H784 0.984 . S
N779 H785 0.985 . S
C780 C774 1.379 1_554 S
C780 C777 1.363 . S
C780 N778 1.356 . S
C781 C775 1.363 . S
C781 C776 1.379 1_556 S
C781 N779 1.356 . S
N782 C774 1.356 . S
N782 H788 0.984 . S
N782 H789 0.984 . S
N783 C776 1.356 . S
N783 H786 0.984 . S
N783 H787 0.985 . S
H784 N779 0.984 . S
H785 N779 0.985 . S
H786 N783 0.984 . S
H787 N783 0.985 . S
H788 N782 0.984 . S
H789 N782 0.984 . S
H790 N778 0.984 . S
H791 N778 0.985 . S
C792 C793 1.363 . S
C792 C798 1.379 . S
C792 N800 1.356 . S
C793 C792 1.363 . S
C793 C799 1.363 . S
C794 C795 1.363 . S
C794 C799 1.379 1_565 S
C794 N801 1.356 . S
C795 C794 1.363 . S
C795 C798 1.363 1_565 S
N796 C798 1.356 . S
N796 H808 0.984 . S
N796 H809 0.985 . S
N797 C799 1.356 . S
N797 H802 0.984 . S
N797 H803 0.985 1_545 S
C798 C792 1.379 . S
C798 C795 1.363 1_545 S
C798 N796 1.356 . S
C799 C793 1.363 . S
C799 C794 1.379 1_545 S
C799 N797 1.356 . S
N800 C792 1.356 . S
N800 H806 0.984 . S
N800 H807 0.984 . S
N801 C794 1.356 . S
N801 H804 0.984 . S
N801 H805 0.985 . S
H802 N797 0.984 . S
H803 N797 0.985 1_565 S
H804 N801 0.984 . S
H805 N801 0.985 . S
H806 N800 0.984 . S
H807 N800 0.984 . S
H808 N796 0.984 . S
H809 N796 0.985 . S
C810 C811 1.363 1_655 S
C810 C816 1.379 . S
C810 N818 1.356 . S
C811 C810 1.363 1_455 S
C811 C817 1.363 . S
C812 C813 1.363 . S
C812 C817 1.379 1_655 S
C812 N819 1.356 . S
C813 C812 1.363 . S
C813 C816 1.363 . S
N814 C816 1.356 . S
N814 H826 0.984 . S
N814 H827 0.985 . S
N815 C817 1.356 . S
N815 H820 0.984 . S
N815 H821 0.985 . S
C816 C810 1.379 . S
C816 C813 1.363 . S
C816 N814 1.356 . S
C817 C811 1.363 . S
C817 C812 1.379 1_455 S
C817 N815 1.356 . S
N818 C810 1.356 . S
N818 H824 0.984 . S
N818 H825 0.984 . S
N819 C812 1.356 . S
N819 H822 0.984 . S
N819 H823 0.985 1_655 S
H820 N815 0.984 . S
H821 N815 0.985 . S
H822 N819 0.984 . S
H823 N819 0.985 1_455 S
H824 N818 0.984 . S
H825 N818 0.984 . S
H826 N814 0.984 . S
H827 N814 0.985 . S
C828 C829 1.363 . S
C828 C834 1.379 . S
C828 N836 1.356 . S
C829 C828 1.363 . S
C829 C835 1.363 . S
C830 C831 1.363 . S
C830 C835 1.379 . S
C830 N837 1.356 . S
C831 C830 1.363 . S
C831 C834 1.363 . S
N832 C834 1.356 . S
N832 H844 0.984 . S
N832 H845 0.985 . S
N833 C835 1.356 . S
N833 H838 0.984 . S
N833 H839 0.985 . S
C834 C828 1.379 . S
C834 C831 1.363 . S
C834 N832 1.356 . S
C835 C829 1.363 . S
C835 C830 1.379 . S
C835 N833 1.356 . S
N836 C828 1.356 . S
N836 H842 0.984 . S
N836 H843 0.984 . S
N837 C830 1.356 . S
N837 H840 0.984 . S
N837 H841 0.985 . S
H838 N833 0.984 . S
H839 N833 0.985 . S
H840 N837 0.984 . S
H841 N837 0.985 . S
H842 N836 0.984 . S
H843 N836 0.984 . S
H844 N832 0.984 . S
H845 N832 0.985 . S
C846 C847 1.363 1_455 S
C846 C852 1.379 . S
C846 N854 1.356 . S
C847 C846 1.363 1_655 S
C847 C853 1.363 . S
C848 C849 1.363 . S
C848 C853 1.379 1_455 S
C848 N855 1.356 . S
C849 C848 1.363 . S
C849 C852 1.363 . S
N850 C852 1.356 . S
N850 H862 0.984 . S
N850 H863 0.985 . S
N851 C853 1.356 . S
N851 H856 0.984 . S
N851 H857 0.985 . S
C852 C846 1.379 . S
C852 C849 1.363 . S
C852 N850 1.356 . S
C853 C847 1.363 . S
C853 C848 1.379 1_655 S
C853 N851 1.356 . S
N854 C846 1.356 . S
N854 H860 0.984 . S
N854 H861 0.996 . S
N855 C848 1.356 . S
N855 H858 0.984 . S
N855 H859 0.985 1_455 S
H856 N851 0.984 . S
H857 N851 0.985 . S
H858 N855 0.984 . S
H859 N855 0.985 1_655 S
H860 N854 0.984 . S
H861 N854 0.996 . S
H862 N850 0.984 . S
H863 N850 0.985 . S
C864 C865 1.363 . S
C864 C870 1.379 . S
C864 N872 1.356 . S
C865 C864 1.363 . S
C865 C871 1.363 . S
C866 C867 1.363 . S
C866 C871 1.379 . S
C866 N873 1.356 . S
C867 C866 1.363 . S
C867 C870 1.363 . S
N868 C870 1.356 . S
N868 H880 0.984 . S
N868 H881 0.985 . S
N869 C871 1.356 . S
N869 H874 0.984 . S
N869 H875 0.985 . S
C870 C864 1.379 . S
C870 C867 1.363 . S
C870 N868 1.356 . S
C871 C865 1.363 . S
C871 C866 1.379 . S
C871 N869 1.356 . S
N872 C864 1.356 . S
N872 H878 0.984 . S
N872 H879 0.984 . S
N873 C866 1.356 . S
N873 H876 0.984 . S
N873 H877 0.985 . S
H874 N869 0.984 . S
H875 N869 0.985 . S
H876 N873 0.984 . S
H877 N873 0.985 . S
H878 N872 0.984 . S
H879 N872 0.984 . S
H880 N868 0.984 . S
H881 N868 0.985 . S
C882 C883 1.363 . S
C882 C888 1.379 1_545 S
C882 N890 1.356 . S
C883 C882 1.363 . S
C883 C889 1.363 1_545 S
C884 C885 1.363 . S
C884 C889 1.379 . S
C884 N891 1.356 . S
C885 C884 1.363 . S
C885 C888 1.363 . S
N886 C888 1.356 . S
N886 H898 0.984 . S
N886 H899 0.985 . S
N887 C889 1.356 . S
N887 H892 0.984 1_565 S
N887 H893 0.985 . S
C888 C882 1.379 1_565 S
C888 C885 1.363 . S
C888 N886 1.356 . S
C889 C883 1.363 1_565 S
C889 C884 1.379 . S
C889 N887 1.356 . S
N890 C882 1.356 . S
N890 H896 0.984 . S
N890 H897 0.984 . S
N891 C884 1.356 . S
N891 H894 0.984 . S
N891 H895 0.985 . S
H892 N887 0.984 1_545 S
H893 N887 0.985 . S
H894 N891 0.984 . S
H895 N891 0.985 . S
H896 N890 0.984 . S
H897 N890 0.984 . S
H898 N886 0.984 . S
H899 N886 0.985 . S
C900 C901 1.363 . S
C900 C906 1.379 . S
C900 N908 1.356 . S
C901 C900 1.363 . S
C901 C907 1.363 1_565 S
C902 C903 1.363 . S
C902 C907 1.379 . S
C902 N909 1.356 . S
C903 C902 1.363 . S
C903 C906 1.363 1_545 S
N904 C906 1.356 . S
N904 H916 0.984 . S
N904 H917 0.985 . S
N905 C907 1.356 . S
N905 H910 0.984 1_545 S
N905 H911 0.985 . S
C906 C900 1.379 . S
C906 C903 1.363 1_565 S
C906 N904 1.356 . S
C907 C901 1.363 1_545 S
C907 C902 1.379 . S
C907 N905 1.356 . S
N908 C900 1.356 . S
N908 H914 0.984 . S
N908 H915 0.984 . S
N909 C902 1.356 . S
N909 H912 0.984 . S
N909 H913 0.985 . S
H910 N905 0.984 1_565 S
H911 N905 0.985 . S
H912 N909 0.984 . S
H913 N909 0.985 . S
H914 N908 0.984 . S
H915 N908 0.984 . S
H916 N904 0.984 . S
H917 N904 0.985 . S
C918 C919 1.363 . S
C918 C924 1.379 . S
C918 N926 1.356 . S
C919 C918 1.363 . S
C919 C925 1.363 1_655 S
C920 C921 1.363 . S
C920 C925 1.379 . S
C920 N927 1.356 . S
C921 C920 1.363 . S
C921 C924 1.363 1_455 S
N922 C924 1.356 . S
N922 H934 0.984 . S
N922 H935 0.985 1_655 S
N923 C925 1.356 . S
N923 H928 0.984 . S
N923 H929 0.985 . S
C924 C918 1.379 . S
C924 C921 1.363 1_655 S
C924 N922 1.356 . S
C925 C919 1.363 1_455 S
C925 C920 1.379 . S
C925 N923 1.356 . S
N926 C918 1.356 . S
N926 H932 0.984 . S
N926 H933 0.984 . S
N927 C920 1.356 . S
N927 H930 0.984 . S
N927 H931 0.985 . S
H928 N923 0.984 . S
H929 N923 0.985 . S
H930 N927 0.984 . S
H931 N927 0.985 . S
H932 N926 0.984 . S
H933 N926 0.984 . S
H934 N922 0.984 . S
H935 N922 0.985 1_455 S
C936 C937 1.363 . S
C936 C942 1.379 . S
C936 N944 1.356 . S
C937 C936 1.363 . S
C937 C943 1.363 . S
C938 C939 1.363 . S
C938 C943 1.379 . S
C938 N945 1.356 . S
C939 C938 1.363 . S
C939 C942 1.363 . S
N940 C942 1.356 . S
N940 H952 0.984 . S
N940 H953 0.985 . S
N941 C943 1.356 . S
N941 H946 0.984 . S
N941 H947 0.985 . S
C942 C936 1.379 . S
C942 C939 1.363 . S
C942 N940 1.356 . S
C943 C937 1.363 . S
C943 C938 1.379 . S
C943 N941 1.356 . S
N944 C936 1.356 . S
N944 H950 0.984 . S
N944 H951 0.984 . S
N945 C938 1.356 . S
N945 H948 0.984 . S
N945 H949 0.985 . S
H946 N941 0.984 . S
H947 N941 0.985 . S
H948 N945 0.984 . S
H949 N945 0.985 . S
H950 N944 0.984 . S
H951 N944 0.984 . S
H952 N940 0.984 . S
H953 N940 0.985 . S
C954 C955 1.363 . S
C954 C960 1.379 1_655 S
C954 N962 1.356 . S
C955 C954 1.363 . S
C955 C961 1.363 . S
C956 C957 1.363 1_655 S
C956 C961 1.379 . S
C956 N963 1.356 . S
C957 C956 1.363 1_455 S
C957 C960 1.363 . S
N958 C960 1.356 . S
N958 H970 0.984 . S
N958 H971 0.985 . S
N959 C961 1.356 . S
N959 H964 0.984 . S
N959 H965 0.985 . S
C960 C954 1.379 1_455 S
C960 C957 1.363 . S
C960 N958 1.356 . S
C961 C955 1.363 . S
C961 C956 1.379 . S
C961 N959 1.356 . S
N962 C954 1.356 . S
N962 H968 0.984 1_655 S
N962 H969 0.984 . S
N963 C956 1.356 . S
N963 H966 0.984 1_655 S
N963 H967 0.985 . S
H964 N959 0.984 . S
H965 N959 0.985 . S
H966 N963 0.984 1_455 S
H967 N963 0.985 . S
H968 N962 0.984 1_455 S
H969 N962 0.984 . S
H970 N958 0.984 . S
H971 N958 0.985 . S
C972 C973 1.363 . S
C972 C978 1.379 . S
C972 N980 1.356 . S
C973 C972 1.363 . S
C973 C979 1.363 . S
C974 C975 1.363 . S
C974 C979 1.379 . S
C974 N981 1.356 . S
C975 C974 1.363 . S
C975 C978 1.363 . S
N976 C978 1.356 . S
N976 H988 0.984 . S
N976 H989 0.985 . S
N977 C979 1.356 . S
N977 H982 0.984 . S
N977 H983 0.985 . S
C978 C972 1.379 . S
C978 C975 1.363 . S
C978 N976 1.356 . S
C979 C973 1.363 . S
C979 C974 1.379 . S
C979 N977 1.356 . S
N980 C972 1.356 . S
N980 H986 0.984 . S
N980 H987 0.984 . S
N981 C974 1.356 . S
N981 H984 0.984 . S
N981 H985 0.985 . S
H982 N977 0.984 . S
H983 N977 0.985 . S
H984 N981 0.984 . S
H985 N981 0.985 . S
H986 N980 0.984 . S
H987 N980 0.984 . S
H988 N976 0.984 . S
H989 N976 0.985 . S
C990 C991 1.363 . S
C990 C996 1.379 . S
C990 N998 1.356 . S
C991 C990 1.363 . S
C991 C997 1.363 . S
C992 C993 1.363 . S
C992 C997 1.379 1_565 S
C992 N999 1.356 . S
C993 C992 1.363 . S
C993 C996 1.363 1_565 S
N994 C996 1.356 . S
N994 H1006 0.984 . S
N994 H1007 0.985 . S
N995 C997 1.356 . S
N995 H1000 0.984 . S
N995 H1001 0.985 1_545 S
C996 C990 1.379 . S
C996 C993 1.363 1_545 S
C996 N994 1.356 . S
C997 C991 1.363 . S
C997 C992 1.379 1_545 S
C997 N995 1.356 . S
N998 C990 1.356 . S
N998 H1004 0.984 . S
N998 H1005 0.984 . S
N999 C992 1.356 . S
N999 H1002 0.984 . S
N999 H1003 0.985 . S
H1000 N995 0.984 . S
H1001 N995 0.985 1_565 S
H1002 N999 0.984 . S
H1003 N999 0.985 . S
H1004 N998 0.984 . S
H1005 N998 0.984 . S
H1006 N994 0.984 . S
H1007 N994 0.985 . S
C1008 C1009 1.363 . S
C1008 C1014 1.379 . S
C1008 N1016 1.356 . S
C1009 C1008 1.363 . S
C1009 C1015 1.363 . S
C1010 C1011 1.363 . S
C1010 C1015 1.379 . S
C1010 N1017 1.356 . S
C1011 C1010 1.363 . S
C1011 C1014 1.363 . S
N1012 C1014 1.356 . S
N1012 H1024 0.984 . S
N1012 H1025 0.985 . S
N1013 C1015 1.356 . S
N1013 H1018 0.984 . S
N1013 H1019 0.985 . S
C1014 C1008 1.379 . S
C1014 C1011 1.363 . S
C1014 N1012 1.356 . S
C1015 C1009 1.363 . S
C1015 C1010 1.379 . S
C1015 N1013 1.356 . S
N1016 C1008 1.356 . S
N1016 H1022 0.984 . S
N1016 H1023 0.984 . S
N1017 C1010 1.356 . S
N1017 H1020 0.984 . S
N1017 H1021 0.985 . S
H1018 N1013 0.984 . S
H1019 N1013 0.985 . S
H1020 N1017 0.984 . S
H1021 N1017 0.985 . S
H1022 N1016 0.984 . S
H1023 N1016 0.984 . S
H1024 N1012 0.984 . S
H1025 N1012 0.985 . S
C1026 C1027 1.363 . S
C1026 C1032 1.379 1_545 S
C1026 N1034 1.356 . S
C1027 C1026 1.363 . S
C1027 C1033 1.363 . S
C1028 C1029 1.363 . S
C1028 C1033 1.379 1_565 S
C1028 N1035 1.356 . S
C1029 C1028 1.363 . S
C1029 C1032 1.363 . S
N1030 C1032 1.356 . S
N1030 H1042 0.984 . S
N1030 H1043 0.985 . S
N1031 C1033 1.356 . S
N1031 H1036 0.984 . S
N1031 H1037 0.985 . S
C1032 C1026 1.379 1_565 S
C1032 C1029 1.363 . S
C1032 N1030 1.356 . S
C1033 C1027 1.363 . S
C1033 C1028 1.379 1_545 S
C1033 N1031 1.356 . S
N1034 C1026 1.356 . S
N1034 H1040 0.984 . S
N1034 H1041 0.984 . S
N1035 C1028 1.356 . S
N1035 H1038 0.984 . S
N1035 H1039 0.985 . S
H1036 N1031 0.984 . S
H1037 N1031 0.985 . S
H1038 N1035 0.984 . S
H1039 N1035 0.985 . S
H1040 N1034 0.984 . S
H1041 N1034 0.984 . S
H1042 N1030 0.984 . S
H1043 N1030 0.985 . S
C1044 C1045 1.363 . S
C1044 C1050 1.379 1_655 S
C1044 N1052 1.356 . S
C1045 C1044 1.363 . S
C1045 C1051 1.363 . S
C1046 C1047 1.363 . S
C1046 C1051 1.379 1_455 S
C1046 N1053 1.356 . S
C1047 C1046 1.363 . S
C1047 C1050 1.363 . S
N1048 C1050 1.356 . S
N1048 H1060 0.984 . S
N1048 H1061 0.985 . S
N1049 C1051 1.356 . S
N1049 H1054 0.984 . S
N1049 H1055 0.985 . S
C1050 C1044 1.379 1_455 S
C1050 C1047 1.363 . S
C1050 N1048 1.356 . S
C1051 C1045 1.363 . S
C1051 C1046 1.379 1_655 S
C1051 N1049 1.356 . S
N1052 C1044 1.356 . S
N1052 H1058 0.984 . S
N1052 H1059 0.984 . S
N1053 C1046 1.356 . S
N1053 H1056 0.984 . S
N1053 H1057 0.985 . S
H1054 N1049 0.984 . S
H1055 N1049 0.985 . S
H1056 N1053 0.984 . S
H1057 N1053 0.985 . S
H1058 N1052 0.984 . S
H1059 N1052 0.984 . S
H1060 N1048 0.984 . S
H1061 N1048 0.985 . S
C1062 C1063 1.363 . S
C1062 C1068 1.379 . S
C1062 N1070 1.356 . S
C1063 C1062 1.363 . S
C1063 C1069 1.363 . S
C1064 C1065 1.363 . S
C1064 C1069 1.379 . S
C1064 N1071 1.356 . S
C1065 C1064 1.363 . S
C1065 C1068 1.363 . S
N1066 C1068 1.356 . S
N1066 H1078 0.984 . S
N1066 H1079 0.985 . S
N1067 C1069 1.356 . S
N1067 H1072 0.984 . S
N1067 H1073 0.985 . S
C1068 C1062 1.379 . S
C1068 C1065 1.363 . S
C1068 N1066 1.356 . S
C1069 C1063 1.363 . S
C1069 C1064 1.379 . S
C1069 N1067 1.356 . S
N1070 C1062 1.356 . S
N1070 H1076 0.984 . S
N1070 H1077 0.984 . S
N1071 C1064 1.356 . S
N1071 H1074 0.984 . S
N1071 H1075 0.985 . S
H1072 N1067 0.984 . S
H1073 N1067 0.985 . S
H1074 N1071 0.984 . S
H1075 N1071 0.985 . S
H1076 N1070 0.984 . S
H1077 N1070 0.984 . S
H1078 N1066 0.984 . S
H1079 N1066 0.985 . S
C1080 C1081 1.363 . S
C1080 C1086 1.379 1_565 S
C1080 N1088 1.356 . S
C1081 C1080 1.363 . S
C1081 C1087 1.363 . S
C1082 C1083 1.363 . S
C1082 C1087 1.379 1_545 S
C1082 N1089 1.356 . S
C1083 C1082 1.363 . S
C1083 C1086 1.363 . S
N1084 C1086 1.356 . S
N1084 H1096 0.984 . S
N1084 H1097 0.985 . S
N1085 C1087 1.356 . S
N1085 H1090 0.984 . S
N1085 H1091 0.985 . S
C1086 C1080 1.379 1_545 S
C1086 C1083 1.363 . S
C1086 N1084 1.356 . S
C1087 C1081 1.363 . S
C1087 C1082 1.379 1_565 S
C1087 N1085 1.356 . S
N1088 C1080 1.356 . S
N1088 H1094 0.984 . S
N1088 H1095 0.984 . S
N1089 C1082 1.356 . S
N1089 H1092 0.984 . S
N1089 H1093 0.985 . S
H1090 N1085 0.984 . S
H1091 N1085 0.985 . S
H1092 N1089 0.984 . S
H1093 N1089 0.985 . S
H1094 N1088 0.984 . S
H1095 N1088 0.984 . S
H1096 N1084 0.984 . S
H1097 N1084 0.985 . S
C1098 C1099 1.363 . S
C1098 C1104 1.379 1_655 S
C1098 N1106 1.356 . S
C1099 C1098 1.363 . S
C1099 C1105 1.363 . S
C1100 C1101 1.363 . S
C1100 C1105 1.379 1_455 S
C1100 N1107 1.356 . S
C1101 C1100 1.363 . S
C1101 C1104 1.363 . S
N1102 C1104 1.356 . S
N1102 H1114 0.984 . S
N1102 H1115 0.985 . S
N1103 C1105 1.356 . S
N1103 H1108 0.984 . S
N1103 H1109 0.985 . S
C1104 C1098 1.379 1_455 S
C1104 C1101 1.363 . S
C1104 N1102 1.356 . S
C1105 C1099 1.363 . S
C1105 C1100 1.379 1_655 S
C1105 N1103 1.356 . S
N1106 C1098 1.356 . S
N1106 H1112 0.984 . S
N1106 H1113 0.984 . S
N1107 C1100 1.356 . S
N1107 H1110 0.984 . S
N1107 H1111 0.985 . S
H1108 N1103 0.984 . S
H1109 N1103 0.985 . S
H1110 N1107 0.984 . S
H1111 N1107 0.985 . S
H1112 N1106 0.984 . S
H1113 N1106 0.984 . S
H1114 N1102 0.984 . S
H1115 N1102 0.985 . S
C1116 C1117 1.363 . S
C1116 C1122 1.379 . S
C1116 N1124 1.356 . S
C1117 C1116 1.363 . S
C1117 C1123 1.363 . S
C1118 C1119 1.363 . S
C1118 C1123 1.379 . S
C1118 N1125 1.356 . S
C1119 C1118 1.363 . S
C1119 C1122 1.363 . S
N1120 C1122 1.356 . S
N1120 H1132 0.984 . S
N1120 H1133 0.985 . S
N1121 C1123 1.356 . S
N1121 H1126 0.984 . S
N1121 H1127 0.985 . S
C1122 C1116 1.379 . S
C1122 C1119 1.363 . S
C1122 N1120 1.356 . S
C1123 C1117 1.363 . S
C1123 C1118 1.379 . S
C1123 N1121 1.356 . S
N1124 C1116 1.356 . S
N1124 H1130 0.984 . S
N1124 H1131 0.984 . S
N1125 C1118 1.356 . S
N1125 H1128 0.984 . S
N1125 H1129 0.985 . S
H1126 N1121 0.984 . S
H1127 N1121 0.985 . S
H1128 N1125 0.984 . S
H1129 N1125 0.985 . S
H1130 N1124 0.984 . S
H1131 N1124 0.984 . S
H1132 N1120 0.984 . S
H1133 N1120 0.985 . S
C1134 C1135 1.363 . S
C1134 C1140 1.379 . S
C1134 N1142 1.356 1_565 S
C1135 C1134 1.363 . S
C1135 C1141 1.363 . S
C1136 C1137 1.363 . S
C1136 C1141 1.379 . S
C1136 N1143 1.356 . S
C1137 C1136 1.363 . S
C1137 C1140 1.363 . S
N1138 C1140 1.356 . S
N1138 H1150 0.984 . S
N1138 H1151 0.985 . S
N1139 C1141 1.356 . S
N1139 H1144 0.984 . S
N1139 H1145 0.985 . S
C1140 C1134 1.379 . S
C1140 C1137 1.363 . S
C1140 N1138 1.356 . S
C1141 C1135 1.363 . S
C1141 C1136 1.379 . S
C1141 N1139 1.356 . S
N1142 C1134 1.356 1_545 S
N1142 H1148 0.984 . S
N1142 H1149 0.984 . S
N1143 C1136 1.356 . S
N1143 H1146 0.984 . S
N1143 H1147 0.985 . S
H1144 N1139 0.984 . S
H1145 N1139 0.985 . S
H1146 N1143 0.984 . S
H1147 N1143 0.985 . S
H1148 N1142 0.984 . S
H1149 N1142 0.984 . S
H1150 N1138 0.984 . S
H1151 N1138 0.985 . S
C1152 C1153 1.363 . S
C1152 C1158 1.379 . S
C1152 N1160 1.356 . S
C1153 C1152 1.363 . S
C1153 C1159 1.363 . S
C1154 C1155 1.363 . S
C1154 C1159 1.379 . S
C1154 N1161 1.356 . S
C1155 C1154 1.363 . S
C1155 C1158 1.363 . S
N1156 C1158 1.356 . S
N1156 H1168 0.984 . S
N1156 H1169 0.985 1_565 S
N1157 C1159 1.356 1_655 S
N1157 H1162 0.984 . S
N1157 H1163 0.985 . S
C1158 C1152 1.379 . S
C1158 C1155 1.363 . S
C1158 N1156 1.356 . S
C1159 C1153 1.363 . S
C1159 C1154 1.379 . S
C1159 N1157 1.356 1_455 S
N1160 C1152 1.356 . S
N1160 H1166 0.984 . S
N1160 H1167 0.984 1_455 S
N1161 C1154 1.356 . S
N1161 H1164 0.984 . S
N1161 H1165 0.985 . S
H1162 N1157 0.984 . S
H1163 N1157 0.985 . S
H1164 N1161 0.984 . S
H1165 N1161 0.985 . S
H1166 N1160 0.984 . S
H1167 N1160 0.984 1_655 S
H1168 N1156 0.984 . S
H1169 N1156 0.985 1_545 S
C1170 C1171 1.363 . S
C1170 C1176 1.379 . S
C1170 N1178 1.356 . S
C1171 C1170 1.363 . S
C1171 C1177 1.363 . S
C1172 C1173 1.363 . S
C1172 C1177 1.379 . S
C1172 N1179 1.356 . S
C1173 C1172 1.363 . S
C1173 C1176 1.363 . S
N1174 C1176 1.356 . S
N1174 H1186 0.984 . S
N1174 H1187 0.985 . S
N1175 C1177 1.356 . S
N1175 H1180 0.984 . S
N1175 H1181 0.985 . S
C1176 C1170 1.379 . S
C1176 C1173 1.363 . S
C1176 N1174 1.356 . S
C1177 C1171 1.363 . S
C1177 C1172 1.379 . S
C1177 N1175 1.356 . S
N1178 C1170 1.356 . S
N1178 H1184 0.984 . S
N1178 H1185 0.984 . S
N1179 C1172 1.356 . S
N1179 H1182 0.978 1_545 S
N1179 H1183 0.985 . S
H1180 N1175 0.984 . S
H1181 N1175 0.985 . S
H1182 N1179 0.978 1_565 S
H1183 N1179 0.985 . S
H1184 N1178 0.984 . S
H1185 N1178 0.984 . S
H1186 N1174 0.984 . S
H1187 N1174 0.985 . S
C1188 C1189 1.363 . S
C1188 C1194 1.379 . S
C1188 N1196 1.356 . S
C1189 C1188 1.363 . S
C1189 C1195 1.363 . S
C1190 C1191 1.363 . S
C1190 C1195 1.379 . S
C1190 N1197 1.356 1_545 S
C1191 C1190 1.363 . S
C1191 C1194 1.363 . S
N1192 C1194 1.356 . S
N1192 H1204 0.984 . S
N1192 H1205 0.985 1_545 S
N1193 C1195 1.356 . S
N1193 H1198 0.984 1_655 S
N1193 H1199 0.985 1_655 S
C1194 C1188 1.379 . S
C1194 C1191 1.363 . S
C1194 N1192 1.356 . S
C1195 C1189 1.363 . S
C1195 C1190 1.379 . S
C1195 N1193 1.356 . S
N1196 C1188 1.356 . S
N1196 H1202 0.984 . S
N1196 H1203 0.984 . S
N1197 C1190 1.356 1_565 S
N1197 H1200 0.984 . S
N1197 H1201 0.985 . S
H1198 N1193 0.984 1_455 S
H1199 N1193 0.985 1_455 S
H1200 N1197 0.984 . S
H1201 N1197 0.985 . S
H1202 N1196 0.984 . S
H1203 N1196 0.984 . S
H1204 N1192 0.984 . S
H1205 N1192 0.985 1_565 S
C1206 C1207 1.363 . S
C1206 C1212 1.379 . S
C1206 N1214 1.356 1_655 S
C1207 C1206 1.363 . S
C1207 C1213 1.363 . S
C1208 C1209 1.363 . S
C1208 C1213 1.379 . S
C1208 N1215 1.356 . S
C1209 C1208 1.363 . S
C1209 C1212 1.363 . S
N1210 C1212 1.356 . S
N1210 H1222 0.984 . S
N1210 H1223 0.985 . S
N1211 C1213 1.356 . S
N1211 H1216 0.984 1_655 S
N1211 H1217 0.985 . S
C1212 C1206 1.379 . S
C1212 C1209 1.363 . S
C1212 N1210 1.356 . S
C1213 C1207 1.363 . S
C1213 C1208 1.379 . S
C1213 N1211 1.356 . S
N1214 C1206 1.356 1_455 S
N1214 H1220 0.992 . S
N1214 H1221 0.984 . S
N1215 C1208 1.356 . S
N1215 H1218 0.984 . S
N1215 H1219 0.985 . S
H1216 N1211 0.984 1_455 S
H1217 N1211 0.985 . S
H1218 N1215 0.984 . S
H1219 N1215 0.985 . S
H1220 N1214 0.992 . S
H1221 N1214 0.984 . S
H1222 N1210 0.984 . S
H1223 N1210 0.985 . S
C1224 C1225 1.363 . S
C1224 C1230 1.379 . S
C1224 N1232 1.356 . S
C1225 C1224 1.363 . S
C1225 C1231 1.363 . S
C1226 C1227 1.363 . S
C1226 C1231 1.379 . S
C1226 N1233 1.356 . S
C1227 C1226 1.363 . S
C1227 C1230 1.363 . S
N1228 C1230 1.356 . S
N1228 H1240 0.984 . S
N1228 H1241 0.985 . S
N1229 C1231 1.356 . S
N1229 H1234 0.984 . S
N1229 H1235 0.985 . S
C1230 C1224 1.379 . S
C1230 C1227 1.363 . S
C1230 N1228 1.356 . S
C1231 C1225 1.363 . S
C1231 C1226 1.379 . S
C1231 N1229 1.356 . S
N1232 C1224 1.356 . S
N1232 H1238 0.984 . S
N1232 H1239 0.984 . S
N1233 C1226 1.356 . S
N1233 H1236 0.984 1_655 S
N1233 H1237 0.985 . S
H1234 N1229 0.984 . S
H1235 N1229 0.985 . S
H1236 N1233 0.984 1_455 S
H1237 N1233 0.985 . S
H1238 N1232 0.984 . S
H1239 N1232 0.984 . S
H1240 N1228 0.984 . S
H1241 N1228 0.985 . S
C1242 C1243 1.363 . S
C1242 C1248 1.379 . S
C1242 N1250 1.356 1_545 S
C1243 C1242 1.363 . S
C1243 C1249 1.363 . S
C1244 C1245 1.363 . S
C1244 C1249 1.379 . S
C1244 N1251 1.356 . S
C1245 C1244 1.363 . S
C1245 C1248 1.363 . S
N1246 C1248 1.356 . S
N1246 H1258 0.984 . S
N1246 H1259 0.985 . S
N1247 C1249 1.356 . S
N1247 H1252 0.984 1_545 S
N1247 H1253 0.985 . S
C1248 C1242 1.379 . S
C1248 C1245 1.363 . S
C1248 N1246 1.356 . S
C1249 C1243 1.363 . S
C1249 C1244 1.379 . S
C1249 N1247 1.356 . S
N1250 C1242 1.356 1_565 S
N1250 H1256 0.984 . S
N1250 H1257 0.984 . S
N1251 C1244 1.356 . S
N1251 H1254 0.984 . S
N1251 H1255 0.985 . S
H1252 N1247 0.984 1_565 S
H1253 N1247 0.985 . S
H1254 N1251 0.984 . S
H1255 N1251 0.985 . S
H1256 N1250 0.984 . S
H1257 N1250 0.984 . S
H1258 N1246 0.984 . S
H1259 N1246 0.985 . S
C1260 C1261 1.363 . S
C1260 C1266 1.379 . S
C1260 N1268 1.356 . S
C1261 C1260 1.363 . S
C1261 C1267 1.363 . S
C1262 C1263 1.363 . S
C1262 C1267 1.379 . S
C1262 N1269 1.356 . S
C1263 C1262 1.363 . S
C1263 C1266 1.363 . S
N1264 C1266 1.356 . S
N1264 H1276 0.984 1_545 S
N1264 H1277 0.985 1_545 S
N1265 C1267 1.356 1_455 S
N1265 H1270 0.984 . S
N1265 H1271 0.984 1_455 S
C1266 C1260 1.379 . S
C1266 C1263 1.363 . S
C1266 N1264 1.356 . S
C1267 C1261 1.363 . S
C1267 C1262 1.379 . S
C1267 N1265 1.356 1_655 S
N1268 C1260 1.356 . S
N1268 H1274 0.984 . S
N1268 H1275 0.984 1_655 S
N1269 C1262 1.356 . S
N1269 H1272 0.984 . S
N1269 H1273 0.985 . S
H1270 N1265 0.984 . S
H1271 N1265 0.984 1_655 S
H1272 N1269 0.984 . S
H1273 N1269 0.985 . S
H1274 N1268 0.984 . S
H1275 N1268 0.984 1_455 S
H1276 N1264 0.984 1_565 S
H1277 N1264 0.985 1_565 S
C1278 C1279 1.363 . S
C1278 C1284 1.379 . S
C1278 N1286 1.356 . S
C1279 C1278 1.363 . S
C1279 C1285 1.363 . S
C1280 C1281 1.363 . S
C1280 C1285 1.379 . S
C1280 N1287 1.356 . S
C1281 C1280 1.363 . S
C1281 C1284 1.363 . S
N1282 C1284 1.356 . S
N1282 H1294 0.984 . S
N1282 H1295 0.985 . S
N1283 C1285 1.356 . S
N1283 H1288 0.984 . S
N1283 H1289 0.985 . S
C1284 C1278 1.379 . S
C1284 C1281 1.363 . S
C1284 N1282 1.356 . S
C1285 C1279 1.363 . S
C1285 C1280 1.379 . S
C1285 N1283 1.356 . S
N1286 C1278 1.356 . S
N1286 H1292 0.984 . S
N1286 H1293 0.984 . S
N1287 C1280 1.356 . S
N1287 H1290 0.984 . S
N1287 H1291 0.985 . S
H1288 N1283 0.984 . S
H1289 N1283 0.985 . S
H1290 N1287 0.984 . S
H1291 N1287 0.985 . S
H1292 N1286 0.984 . S
H1293 N1286 0.984 . S
H1294 N1282 0.984 . S
H1295 N1282 0.985 . S
C1296 C1297 1.363 . S
C1296 C1302 1.379 . S
C1296 N1304 1.356 1_565 S
C1297 C1296 1.363 . S
C1297 C1303 1.363 . S
C1298 C1299 1.363 . S
C1298 C1303 1.379 . S
C1298 N1305 1.356 . S
C1299 C1298 1.363 . S
C1299 C1302 1.363 . S
N1300 C1302 1.356 . S
N1300 H1312 0.984 . S
N1300 H1313 0.985 . S
N1301 C1303 1.356 . S
N1301 H1306 0.984 . S
N1301 H1307 0.985 . S
C1302 C1296 1.379 . S
C1302 C1299 1.363 . S
C1302 N1300 1.356 . S
C1303 C1297 1.363 . S
C1303 C1298 1.379 . S
C1303 N1301 1.356 . S
N1304 C1296 1.356 1_545 S
N1304 H1310 0.984 . S
N1304 H1311 0.984 . S
N1305 C1298 1.356 . S
N1305 H1308 0.984 . S
N1305 H1309 0.985 . S
H1306 N1301 0.984 . S
H1307 N1301 0.985 . S
H1308 N1305 0.984 . S
H1309 N1305 0.985 . S
H1310 N1304 0.984 . S
H1311 N1304 0.984 . S
H1312 N1300 0.984 . S
H1313 N1300 0.985 . S
C1314 C1315 1.363 . S
C1314 C1320 1.379 . S
C1314 N1322 1.356 . S
C1315 C1314 1.363 . S
C1315 C1321 1.363 . S
C1316 C1317 1.363 . S
C1316 C1321 1.379 . S
C1316 N1323 1.356 1_455 S
C1317 C1316 1.363 . S
C1317 C1320 1.363 . S
N1318 C1320 1.356 . S
N1318 H1330 0.984 . S
N1318 H1331 0.985 . S
N1319 C1321 1.356 . S
N1319 H1324 0.984 . S
N1319 H1325 0.985 . S
C1320 C1314 1.379 . S
C1320 C1317 1.363 . S
C1320 N1318 1.356 . S
C1321 C1315 1.363 . S
C1321 C1316 1.379 . S
C1321 N1319 1.356 . S
N1322 C1314 1.356 . S
N1322 H1328 0.984 . S
N1322 H1329 0.984 . S
N1323 C1316 1.356 1_655 S
N1323 H1326 0.984 . S
N1323 H1327 0.985 . S
H1324 N1319 0.984 . S
H1325 N1319 0.985 . S
H1326 N1323 0.984 . S
H1327 N1323 0.985 . S
H1328 N1322 0.984 . S
H1329 N1322 0.984 . S
H1330 N1318 0.984 . S
H1331 N1318 0.985 . S
C1332 C1333 1.363 . S
C1332 C1338 1.379 . S
C1332 N1340 1.356 . S
C1333 C1332 1.363 . S
C1333 C1339 1.363 . S
C1334 C1335 1.363 . S
C1334 C1339 1.379 . S
C1334 N1341 1.356 . S
C1335 C1334 1.363 . S
C1335 C1338 1.363 . S
N1336 C1338 1.356 . S
N1336 H1348 0.984 . S
N1336 H1349 0.985 . S
N1337 C1339 1.356 . S
N1337 H1342 0.984 . S
N1337 H1343 0.985 . S
C1338 C1332 1.379 . S
C1338 C1335 1.363 . S
C1338 N1336 1.356 . S
C1339 C1333 1.363 . S
C1339 C1334 1.379 . S
C1339 N1337 1.356 . S
N1340 C1332 1.356 . S
N1340 H1346 0.984 . S
N1340 H1347 0.984 . S
N1341 C1334 1.356 . S
N1341 H1344 0.984 . S
N1341 H1345 0.985 . S
H1342 N1337 0.984 . S
H1343 N1337 0.985 . S
H1344 N1341 0.984 . S
H1345 N1341 0.985 . S
H1346 N1340 0.984 . S
H1347 N1340 0.984 . S
H1348 N1336 0.984 . S
H1349 N1336 0.985 . S
C1350 C1351 1.363 . S
C1350 C1356 1.379 . S
C1350 N1358 1.356 . S
C1351 C1350 1.363 . S
C1351 C1357 1.363 . S
C1352 C1353 1.363 . S
C1352 C1357 1.379 . S
C1352 N1359 1.356 . S
C1353 C1352 1.363 . S
C1353 C1356 1.363 . S
N1354 C1356 1.356 . S
N1354 H1366 0.984 . S
N1354 H1367 0.985 . S
N1355 C1357 1.356 . S
N1355 H1360 0.984 . S
N1355 H1361 0.985 . S
C1356 C1350 1.379 . S
C1356 C1353 1.363 . S
C1356 N1354 1.356 . S
C1357 C1351 1.363 . S
C1357 C1352 1.379 . S
C1357 N1355 1.356 . S
N1358 C1350 1.356 . S
N1358 H1364 0.984 . S
N1358 H1365 0.984 . S
N1359 C1352 1.356 . S
N1359 H1362 0.984 . S
N1359 H1363 0.985 . S
H1360 N1355 0.984 . S
H1361 N1355 0.985 . S
H1362 N1359 0.984 . S
H1363 N1359 0.985 . S
H1364 N1358 0.984 . S
H1365 N1358 0.984 . S
H1366 N1354 0.984 . S
H1367 N1354 0.985 . S
C1368 C1369 1.363 . S
C1368 C1374 1.379 . S
C1368 N1376 1.356 . S
C1369 C1368 1.363 . S
C1369 C1375 1.363 . S
C1370 C1371 1.363 . S
C1370 C1375 1.379 . S
C1370 N1377 1.356 . S
C1371 C1370 1.363 . S
C1371 C1374 1.363 . S
N1372 C1374 1.356 . S
N1372 H1384 0.984 . S
N1372 H1385 0.985 . S
N1373 C1375 1.356 . S
N1373 H1378 0.984 . S
N1373 H1379 0.985 . S
C1374 C1368 1.379 . S
C1374 C1371 1.363 . S
C1374 N1372 1.356 . S
C1375 C1369 1.363 . S
C1375 C1370 1.379 . S
C1375 N1373 1.356 . S
N1376 C1368 1.356 . S
N1376 H1382 0.984 . S
N1376 H1383 0.984 . S
N1377 C1370 1.356 . S
N1377 H1380 0.984 . S
N1377 H1381 0.985 . S
H1378 N1373 0.984 . S
H1379 N1373 0.985 . S
H1380 N1377 0.984 . S
H1381 N1377 0.985 . S
H1382 N1376 0.984 . S
H1383 N1376 0.984 . S
H1384 N1372 0.984 . S
H1385 N1372 0.985 . S
C1386 C1387 1.363 . S
C1386 C1392 1.379 . S
C1386 N1394 1.356 . S
C1387 C1386 1.363 . S
C1387 C1393 1.363 . S
C1388 C1389 1.363 . S
C1388 C1393 1.379 . S
C1388 N1395 1.356 . S
C1389 C1388 1.363 . S
C1389 C1392 1.363 . S
N1390 C1392 1.356 . S
N1390 H1402 0.984 . S
N1390 H1403 0.985 . S
N1391 C1393 1.356 . S
N1391 H1396 0.984 . S
N1391 H1397 0.985 . S
C1392 C1386 1.379 . S
C1392 C1389 1.363 . S
C1392 N1390 1.356 . S
C1393 C1387 1.363 . S
C1393 C1388 1.379 . S
C1393 N1391 1.356 . S
N1394 C1386 1.356 . S
N1394 H1400 0.984 . S
N1394 H1401 0.984 . S
N1395 C1388 1.356 . S
N1395 H1398 0.984 . S
N1395 H1399 0.985 . S
H1396 N1391 0.984 . S
H1397 N1391 0.985 . S
H1398 N1395 0.984 . S
H1399 N1395 0.985 . S
H1400 N1394 0.984 . S
H1401 N1394 0.984 . S
H1402 N1390 0.984 . S
H1403 N1390 0.985 . S
C1404 C1405 1.363 . S
C1404 C1410 1.379 . S
C1404 N1412 1.356 . S
C1405 C1404 1.363 . S
C1405 C1411 1.363 . S
C1406 C1407 1.363 . S
C1406 C1411 1.379 . S
C1406 N1413 1.356 . S
C1407 C1406 1.363 . S
C1407 C1410 1.363 . S
N1408 C1410 1.356 . S
N1408 H1420 0.984 . S
N1408 H1421 0.985 . S
N1409 C1411 1.356 . S
N1409 H1414 0.984 . S
N1409 H1415 0.985 . S
C1410 C1404 1.379 . S
C1410 C1407 1.363 . S
C1410 N1408 1.356 . S
C1411 C1405 1.363 . S
C1411 C1406 1.379 . S
C1411 N1409 1.356 . S
N1412 C1404 1.356 . S
N1412 H1418 0.984 . S
N1412 H1419 0.984 . S
N1413 C1406 1.356 . S
N1413 H1416 0.984 . S
N1413 H1417 0.985 . S
H1414 N1409 0.984 . S
H1415 N1409 0.985 . S
H1416 N1413 0.984 . S
H1417 N1413 0.985 . S
H1418 N1412 0.984 . S
H1419 N1412 0.984 . S
H1420 N1408 0.984 . S
H1421 N1408 0.985 . S
C1422 C1423 1.363 . S
C1422 C1428 1.379 . S
C1422 N1430 1.356 . S
C1423 C1422 1.363 . S
C1423 C1429 1.363 . S
C1424 C1425 1.363 . S
C1424 C1429 1.379 . S
C1424 N1431 1.356 . S
C1425 C1424 1.363 . S
C1425 C1428 1.363 . S
N1426 C1428 1.356 . S
N1426 H1438 0.984 . S
N1426 H1439 0.985 . S
N1427 C1429 1.356 . S
N1427 H1432 0.984 . S
N1427 H1433 0.985 . S
C1428 C1422 1.379 . S
C1428 C1425 1.363 . S
C1428 N1426 1.356 . S
C1429 C1423 1.363 . S
C1429 C1424 1.379 . S
C1429 N1427 1.356 . S
N1430 C1422 1.356 . S
N1430 H1436 0.984 . S
N1430 H1437 0.984 . S
N1431 C1424 1.356 . S
N1431 H1434 0.984 . S
N1431 H1435 0.985 . S
H1432 N1427 0.984 . S
H1433 N1427 0.985 . S
H1434 N1431 0.984 . S
H1435 N1431 0.985 . S
H1436 N1430 0.984 . S
H1437 N1430 0.984 . S
H1438 N1426 0.984 . S
H1439 N1426 0.985 . S
C1440 C1441 1.363 . S
C1440 C1446 1.379 . S
C1440 N1448 1.356 . S
C1441 C1440 1.363 . S
C1441 C1447 1.363 . S
C1442 C1443 1.363 . S
C1442 C1447 1.379 . S
C1442 N1449 1.356 . S
C1443 C1442 1.363 . S
C1443 C1446 1.363 . S
N1444 C1446 1.356 . S
N1444 H1456 0.984 . S
N1444 H1457 0.985 . S
N1445 C1447 1.356 . S
N1445 H1450 0.984 . S
N1445 H1451 0.985 . S
C1446 C1440 1.379 . S
C1446 C1443 1.363 . S
C1446 N1444 1.356 . S
C1447 C1441 1.363 . S
C1447 C1442 1.379 . S
C1447 N1445 1.356 . S
N1448 C1440 1.356 . S
N1448 H1454 0.984 . S
N1448 H1455 0.984 . S
N1449 C1442 1.356 . S
N1449 H1452 0.984 . S
N1449 H1453 0.985 . S
H1450 N1445 0.984 . S
H1451 N1445 0.985 . S
H1452 N1449 0.984 . S
H1453 N1449 0.985 . S
H1454 N1448 0.984 . S
H1455 N1448 0.984 . S
H1456 N1444 0.984 . S
H1457 N1444 0.985 . S
C1458 C1459 1.363 . S
C1458 C1464 1.379 . S
C1458 N1466 1.356 . S
C1459 C1458 1.363 . S
C1459 C1465 1.363 . S
C1460 C1461 1.363 . S
C1460 C1465 1.379 . S
C1460 N1467 1.356 . S
C1461 C1460 1.363 . S
C1461 C1464 1.363 . S
N1462 C1464 1.356 . S
N1462 H1474 0.984 . S
N1462 H1475 0.985 . S
N1463 C1465 1.356 . S
N1463 H1468 0.984 . S
N1463 H1469 0.985 . S
C1464 C1458 1.379 . S
C1464 C1461 1.363 . S
C1464 N1462 1.356 . S
C1465 C1459 1.363 . S
C1465 C1460 1.379 . S
C1465 N1463 1.356 . S
N1466 C1458 1.356 . S
N1466 H1472 0.984 . S
N1466 H1473 0.984 . S
N1467 C1460 1.356 . S
N1467 H1470 0.984 . S
N1467 H1471 0.985 . S
H1468 N1463 0.984 . S
H1469 N1463 0.985 . S
H1470 N1467 0.984 . S
H1471 N1467 0.985 . S
H1472 N1466 0.984 . S
H1473 N1466 0.984 . S
H1474 N1462 0.984 . S
H1475 N1462 0.985 . S
C1476 C1477 1.363 . S
C1476 C1482 1.379 . S
C1476 N1484 1.356 . S
C1477 C1476 1.363 . S
C1477 C1483 1.363 . S
C1478 C1479 1.363 . S
C1478 C1483 1.379 . S
C1478 N1485 1.356 . S
C1479 C1478 1.363 . S
C1479 C1482 1.363 . S
N1480 C1482 1.356 . S
N1480 H1492 0.984 . S
N1480 H1493 0.985 . S
N1481 C1483 1.356 . S
N1481 H1486 0.984 . S
N1481 H1487 0.985 . S
C1482 C1476 1.379 . S
C1482 C1479 1.363 . S
C1482 N1480 1.356 . S
C1483 C1477 1.363 . S
C1483 C1478 1.379 . S
C1483 N1481 1.356 . S
N1484 C1476 1.356 . S
N1484 H1490 0.984 . S
N1484 H1491 0.984 . S
N1485 C1478 1.356 . S
N1485 H1488 0.984 . S
N1485 H1489 0.985 . S
H1486 N1481 0.984 . S
H1487 N1481 0.985 . S
H1488 N1485 0.984 . S
H1489 N1485 0.985 . S
H1490 N1484 0.984 . S
H1491 N1484 0.984 . S
H1492 N1480 0.984 . S
H1493 N1480 0.985 . S
C1494 C1495 1.363 . S
C1494 C1500 1.379 . S
C1494 N1502 1.356 . S
C1495 C1494 1.363 . S
C1495 C1501 1.363 . S
C1496 C1497 1.363 . S
C1496 C1501 1.379 . S
C1496 N1503 1.356 . S
C1497 C1496 1.363 . S
C1497 C1500 1.363 . S
N1498 C1500 1.356 . S
N1498 H1510 0.984 . S
N1498 H1511 0.985 . S
N1499 C1501 1.356 . S
N1499 H1504 0.984 . S
N1499 H1505 0.985 . S
C1500 C1494 1.379 . S
C1500 C1497 1.363 . S
C1500 N1498 1.356 . S
C1501 C1495 1.363 . S
C1501 C1496 1.379 . S
C1501 N1499 1.356 . S
N1502 C1494 1.356 . S
N1502 H1508 0.984 . S
N1502 H1509 0.984 . S
N1503 C1496 1.356 . S
N1503 H1506 0.984 . S
N1503 H1507 0.985 . S
H1504 N1499 0.984 . S
H1505 N1499 0.985 . S
H1506 N1503 0.984 . S
H1507 N1503 0.985 . S
H1508 N1502 0.984 . S
H1509 N1502 0.984 . S
H1510 N1498 0.984 . S
H1511 N1498 0.985 . S
C1512 C1513 1.363 . S
C1512 C1518 1.379 . S
C1512 N1520 1.356 . S
C1513 C1512 1.363 . S
C1513 C1519 1.363 . S
C1514 C1515 1.363 . S
C1514 C1519 1.379 . S
C1514 N1521 1.356 . S
C1515 C1514 1.363 . S
C1515 C1518 1.363 . S
N1516 C1518 1.356 . S
N1516 H1528 0.984 . S
N1516 H1529 0.985 . S
N1517 C1519 1.356 . S
N1517 H1522 0.984 . S
N1517 H1523 0.985 . S
C1518 C1512 1.379 . S
C1518 C1515 1.363 . S
C1518 N1516 1.356 . S
C1519 C1513 1.363 . S
C1519 C1514 1.379 . S
C1519 N1517 1.356 . S
N1520 C1512 1.356 . S
N1520 H1526 0.984 . S
N1520 H1527 0.984 . S
N1521 C1514 1.356 . S
N1521 H1524 0.984 . S
N1521 H1525 0.985 . S
H1522 N1517 0.984 . S
H1523 N1517 0.985 . S
H1524 N1521 0.984 . S
H1525 N1521 0.985 . S
H1526 N1520 0.984 . S
H1527 N1520 0.984 . S
H1528 N1516 0.984 . S
H1529 N1516 0.985 . S
C1530 C1531 1.363 . S
C1530 C1536 1.379 . S
C1530 N1538 1.356 . S
C1531 C1530 1.363 . S
C1531 C1537 1.363 . S
C1532 C1533 1.363 . S
C1532 C1537 1.379 . S
C1532 N1539 1.356 . S
C1533 C1532 1.363 . S
C1533 C1536 1.363 . S
N1534 C1536 1.356 . S
N1534 H1546 0.984 . S
N1534 H1547 0.985 . S
N1535 C1537 1.356 . S
N1535 H1540 0.984 . S
N1535 H1541 0.985 . S
C1536 C1530 1.379 . S
C1536 C1533 1.363 . S
C1536 N1534 1.356 . S
C1537 C1531 1.363 . S
C1537 C1532 1.379 . S
C1537 N1535 1.356 . S
N1538 C1530 1.356 . S
N1538 H1544 0.984 . S
N1538 H1545 0.984 . S
N1539 C1532 1.356 . S
N1539 H1542 0.984 . S
N1539 H1543 0.985 . S
H1540 N1535 0.984 . S
H1541 N1535 0.985 . S
H1542 N1539 0.984 . S
H1543 N1539 0.985 . S
H1544 N1538 0.984 . S
H1545 N1538 0.984 . S
H1546 N1534 0.984 . S
H1547 N1534 0.985 . S
C1548 C1549 1.363 . S
C1548 C1554 1.379 . S
C1548 N1556 1.356 . S
C1549 C1548 1.363 . S
C1549 C1555 1.363 . S
C1550 C1551 1.363 . S
C1550 C1555 1.379 . S
C1550 N1557 1.356 . S
C1551 C1550 1.363 . S
C1551 C1554 1.363 . S
N1552 C1554 1.356 . S
N1552 H1564 0.984 . S
N1552 H1565 0.985 . S
N1553 C1555 1.356 . S
N1553 H1558 0.984 . S
N1553 H1559 0.985 . S
C1554 C1548 1.379 . S
C1554 C1551 1.363 . S
C1554 N1552 1.356 . S
C1555 C1549 1.363 . S
C1555 C1550 1.379 . S
C1555 N1553 1.356 . S
N1556 C1548 1.356 . S
N1556 H1562 0.984 . S
N1556 H1563 0.984 . S
N1557 C1550 1.356 . S
N1557 H1560 0.984 . S
N1557 H1561 0.985 . S
H1558 N1553 0.984 . S
H1559 N1553 0.985 . S
H1560 N1557 0.984 . S
H1561 N1557 0.985 . S
H1562 N1556 0.984 . S
H1563 N1556 0.984 . S
H1564 N1552 0.984 . S
H1565 N1552 0.985 . S
C1566 C1567 1.363 . S
C1566 C1572 1.379 . S
C1566 N1574 1.356 . S
C1567 C1566 1.363 . S
C1567 C1573 1.363 . S
C1568 C1569 1.363 . S
C1568 C1573 1.379 . S
C1568 N1575 1.356 . S
C1569 C1568 1.363 . S
C1569 C1572 1.363 . S
N1570 C1572 1.356 . S
N1570 H1582 0.984 . S
N1570 H1583 0.985 . S
N1571 C1573 1.356 . S
N1571 H1576 0.984 . S
N1571 H1577 0.985 . S
C1572 C1566 1.379 . S
C1572 C1569 1.363 . S
C1572 N1570 1.356 . S
C1573 C1567 1.363 . S
C1573 C1568 1.379 . S
C1573 N1571 1.356 . S
N1574 C1566 1.356 . S
N1574 H1580 0.984 . S
N1574 H1581 0.984 . S
N1575 C1568 1.356 . S
N1575 H1578 0.984 . S
N1575 H1579 0.985 . S
H1576 N1571 0.984 . S
H1577 N1571 0.985 . S
H1578 N1575 0.984 . S
H1579 N1575 0.985 . S
H1580 N1574 0.984 . S
H1581 N1574 0.984 . S
H1582 N1570 0.984 . S
H1583 N1570 0.985 . S
C1584 C1585 1.363 . S
C1584 C1590 1.379 . S
C1584 N1592 1.356 . S
C1585 C1584 1.363 . S
C1585 C1591 1.363 . S
C1586 C1587 1.363 . S
C1586 C1591 1.379 . S
C1586 N1593 1.356 . S
C1587 C1586 1.363 . S
C1587 C1590 1.363 . S
N1588 C1590 1.356 . S
N1588 H1600 0.984 . S
N1588 H1601 0.985 . S
N1589 C1591 1.356 . S
N1589 H1594 0.984 . S
N1589 H1595 0.985 . S
C1590 C1584 1.379 . S
C1590 C1587 1.363 . S
C1590 N1588 1.356 . S
C1591 C1585 1.363 . S
C1591 C1586 1.379 . S
C1591 N1589 1.356 . S
N1592 C1584 1.356 . S
N1592 H1598 0.984 . S
N1592 H1599 0.984 . S
N1593 C1586 1.356 . S
N1593 H1596 0.984 . S
N1593 H1597 0.985 . S
H1594 N1589 0.984 . S
H1595 N1589 0.985 . S
H1596 N1593 0.984 . S
H1597 N1593 0.985 . S
H1598 N1592 0.984 . S
H1599 N1592 0.984 . S
H1600 N1588 0.984 . S
H1601 N1588 0.985 . S
C1602 C1603 1.363 . S
C1602 C1608 1.379 . S
C1602 N1610 1.356 . S
C1603 C1602 1.363 . S
C1603 C1609 1.363 . S
C1604 C1605 1.363 . S
C1604 C1609 1.379 . S
C1604 N1611 1.356 . S
C1605 C1604 1.363 . S
C1605 C1608 1.363 . S
N1606 C1608 1.356 . S
N1606 H1618 0.984 . S
N1606 H1619 0.985 . S
N1607 C1609 1.356 . S
N1607 H1612 0.984 . S
N1607 H1613 0.985 . S
C1608 C1602 1.379 . S
C1608 C1605 1.363 . S
C1608 N1606 1.356 . S
C1609 C1603 1.363 . S
C1609 C1604 1.379 . S
C1609 N1607 1.356 . S
N1610 C1602 1.356 . S
N1610 H1616 0.984 . S
N1610 H1617 0.984 . S
N1611 C1604 1.356 . S
N1611 H1614 0.984 . S
N1611 H1615 0.985 . S
H1612 N1607 0.984 . S
H1613 N1607 0.985 . S
H1614 N1611 0.984 . S
H1615 N1611 0.985 . S
H1616 N1610 0.984 . S
H1617 N1610 0.984 . S
H1618 N1606 0.984 . S
H1619 N1606 0.985 . S
C1620 C1621 1.363 . S
C1620 C1626 1.379 . S
C1620 N1628 1.356 . S
C1621 C1620 1.363 . S
C1621 C1627 1.363 . S
C1622 C1623 1.363 . S
C1622 C1627 1.379 . S
C1622 N1629 1.356 . S
C1623 C1622 1.363 . S
C1623 C1626 1.363 . S
N1624 C1626 1.356 . S
N1624 H1636 0.984 . S
N1624 H1637 0.985 . S
N1625 C1627 1.356 . S
N1625 H1630 0.984 . S
N1625 H1631 0.985 . S
C1626 C1620 1.379 . S
C1626 C1623 1.363 . S
C1626 N1624 1.356 . S
C1627 C1621 1.363 . S
C1627 C1622 1.379 . S
C1627 N1625 1.356 . S
N1628 C1620 1.356 . S
N1628 H1634 0.984 . S
N1628 H1635 0.984 . S
N1629 C1622 1.356 . S
N1629 H1632 0.984 . S
N1629 H1633 0.985 . S
H1630 N1625 0.984 . S
H1631 N1625 0.985 . S
H1632 N1629 0.984 . S
H1633 N1629 0.985 . S
H1634 N1628 0.984 . S
H1635 N1628 0.984 . S
H1636 N1624 0.984 . S
H1637 N1624 0.985 . S
C1638 C1639 1.363 . S
C1638 C1644 1.379 . S
C1638 N1646 1.356 . S
C1639 C1638 1.363 . S
C1639 C1645 1.363 . S
C1640 C1641 1.363 . S
C1640 C1645 1.379 . S
C1640 N1647 1.356 . S
C1641 C1640 1.363 . S
C1641 C1644 1.363 . S
N1642 C1644 1.356 . S
N1642 H1654 0.984 . S
N1642 H1655 0.985 . S
N1643 C1645 1.356 . S
N1643 H1648 0.984 . S
N1643 H1649 0.985 . S
C1644 C1638 1.379 . S
C1644 C1641 1.363 . S
C1644 N1642 1.356 . S
C1645 C1639 1.363 . S
C1645 C1640 1.379 . S
C1645 N1643 1.356 . S
N1646 C1638 1.356 . S
N1646 H1652 0.984 . S
N1646 H1653 0.984 . S
N1647 C1640 1.356 . S
N1647 H1650 0.984 . S
N1647 H1651 0.985 . S
H1648 N1643 0.984 . S
H1649 N1643 0.985 . S
H1650 N1647 0.984 . S
H1651 N1647 0.985 . S
H1652 N1646 0.984 . S
H1653 N1646 0.984 . S
H1654 N1642 0.984 . S
H1655 N1642 0.985 . S
C1656 C1657 1.363 . S
C1656 C1662 1.379 . S
C1656 N1664 1.356 . S
C1657 C1656 1.363 . S
C1657 C1663 1.363 . S
C1658 C1659 1.363 . S
C1658 C1663 1.379 . S
C1658 N1665 1.356 . S
C1659 C1658 1.363 . S
C1659 C1662 1.363 . S
N1660 C1662 1.356 . S
N1660 H1672 0.984 . S
N1660 H1673 0.985 . S
N1661 C1663 1.356 . S
N1661 H1666 0.984 . S
N1661 H1667 0.985 . S
C1662 C1656 1.379 . S
C1662 C1659 1.363 . S
C1662 N1660 1.356 . S
C1663 C1657 1.363 . S
C1663 C1658 1.379 . S
C1663 N1661 1.356 . S
N1664 C1656 1.356 . S
N1664 H1670 0.984 . S
N1664 H1671 0.984 . S
N1665 C1658 1.356 . S
N1665 H1668 0.984 . S
N1665 H1669 0.985 . S
H1666 N1661 0.984 . S
H1667 N1661 0.985 . S
H1668 N1665 0.984 . S
H1669 N1665 0.985 . S
H1670 N1664 0.984 . S
H1671 N1664 0.984 . S
H1672 N1660 0.984 . S
H1673 N1660 0.985 . S
C1674 C1675 1.363 . S
C1674 C1680 1.379 . S
C1674 N1682 1.356 . S
C1675 C1674 1.363 . S
C1675 C1681 1.363 . S
C1676 C1677 1.363 . S
C1676 C1681 1.379 . S
C1676 N1683 1.356 . S
C1677 C1676 1.363 . S
C1677 C1680 1.363 . S
N1678 C1680 1.356 . S
N1678 H1690 0.984 . S
N1678 H1691 0.985 . S
N1679 C1681 1.356 . S
N1679 H1684 0.984 . S
N1679 H1685 0.985 . S
C1680 C1674 1.379 . S
C1680 C1677 1.363 . S
C1680 N1678 1.356 . S
C1681 C1675 1.363 . S
C1681 C1676 1.379 . S
C1681 N1679 1.356 . S
N1682 C1674 1.356 . S
N1682 H1688 0.984 . S
N1682 H1689 0.984 . S
N1683 C1676 1.356 . S
N1683 H1686 0.984 . S
N1683 H1687 0.985 . S
H1684 N1679 0.984 . S
H1685 N1679 0.985 . S
H1686 N1683 0.984 . S
H1687 N1683 0.985 . S
H1688 N1682 0.984 . S
H1689 N1682 0.984 . S
H1690 N1678 0.984 . S
H1691 N1678 0.985 . S
C1692 C1693 1.363 . S
C1692 C1698 1.379 . S
C1692 N1700 1.356 . S
C1693 C1692 1.363 . S
C1693 C1699 1.363 . S
C1694 C1695 1.363 . S
C1694 C1699 1.379 . S
C1694 N1701 1.356 . S
C1695 C1694 1.363 . S
C1695 C1698 1.363 . S
N1696 C1698 1.356 . S
N1696 H1708 0.984 . S
N1696 H1709 0.985 . S
N1697 C1699 1.356 . S
N1697 H1702 0.984 . S
N1697 H1703 0.985 . S
C1698 C1692 1.379 . S
C1698 C1695 1.363 . S
C1698 N1696 1.356 . S
C1699 C1693 1.363 . S
C1699 C1694 1.379 . S
C1699 N1697 1.356 . S
N1700 C1692 1.356 . S
N1700 H1706 0.984 . S
N1700 H1707 0.984 . S
N1701 C1694 1.356 . S
N1701 H1704 0.984 . S
N1701 H1705 0.985 . S
H1702 N1697 0.984 . S
H1703 N1697 0.985 . S
H1704 N1701 0.984 . S
H1705 N1701 0.985 . S
H1706 N1700 0.984 . S
H1707 N1700 0.984 . S
H1708 N1696 0.984 . S
H1709 N1696 0.985 . S
C1710 C1711 1.363 . S
C1710 C1716 1.379 . S
C1710 N1718 1.356 . S
C1711 C1710 1.363 . S
C1711 C1717 1.363 . S
C1712 C1713 1.363 . S
C1712 C1717 1.379 . S
C1712 N1719 1.356 . S
C1713 C1712 1.363 . S
C1713 C1716 1.363 . S
N1714 C1716 1.356 . S
N1714 H1726 0.984 . S
N1714 H1727 0.985 . S
N1715 C1717 1.356 . S
N1715 H1720 0.984 . S
N1715 H1721 0.985 . S
C1716 C1710 1.379 . S
C1716 C1713 1.363 . S
C1716 N1714 1.356 . S
C1717 C1711 1.363 . S
C1717 C1712 1.379 . S
C1717 N1715 1.356 . S
N1718 C1710 1.356 . S
N1718 H1724 0.984 . S
N1718 H1725 0.984 . S
N1719 C1712 1.356 . S
N1719 H1722 0.984 . S
N1719 H1723 0.985 . S
H1720 N1715 0.984 . S
H1721 N1715 0.985 . S
H1722 N1719 0.984 . S
H1723 N1719 0.985 . S
H1724 N1718 0.984 . S
H1725 N1718 0.984 . S
H1726 N1714 0.984 . S
H1727 N1714 0.985 . S
C1728 C1729 1.363 . S
C1728 C1734 1.379 . S
C1728 N1736 1.356 . S
C1729 C1728 1.363 . S
C1729 C1735 1.363 . S
C1730 C1731 1.363 . S
C1730 C1735 1.379 . S
C1730 N1737 1.356 . S
C1731 C1730 1.363 . S
C1731 C1734 1.363 . S
N1732 C1734 1.356 . S
N1732 H1744 0.984 . S
N1732 H1745 0.985 . S
N1733 C1735 1.356 . S
N1733 H1738 0.984 . S
N1733 H1739 0.985 . S
C1734 C1728 1.379 . S
C1734 C1731 1.363 . S
C1734 N1732 1.356 . S
C1735 C1729 1.363 . S
C1735 C1730 1.379 . S
C1735 N1733 1.356 . S
N1736 C1728 1.356 . S
N1736 H1742 0.984 . S
N1736 H1743 0.984 . S
N1737 C1730 1.356 . S
N1737 H1740 0.984 . S
N1737 H1741 0.985 . S
H1738 N1733 0.984 . S
H1739 N1733 0.985 . S
H1740 N1737 0.984 . S
H1741 N1737 0.985 . S
H1742 N1736 0.984 . S
H1743 N1736 0.984 . S
H1744 N1732 0.984 . S
H1745 N1732 0.985 . S
C1746 C1747 1.363 . S
C1746 C1752 1.379 . S
C1746 N1754 1.356 . S
C1747 C1746 1.363 . S
C1747 C1753 1.363 . S
C1748 C1749 1.363 . S
C1748 C1753 1.379 . S
C1748 N1755 1.356 . S
C1749 C1748 1.363 . S
C1749 C1752 1.363 . S
N1750 C1752 1.356 . S
N1750 H1762 0.984 . S
N1750 H1763 0.985 . S
N1751 C1753 1.356 . S
N1751 H1756 0.984 . S
N1751 H1757 0.985 . S
C1752 C1746 1.379 . S
C1752 C1749 1.363 . S
C1752 N1750 1.356 . S
C1753 C1747 1.363 . S
C1753 C1748 1.379 . S
C1753 N1751 1.356 . S
N1754 C1746 1.356 . S
N1754 H1760 0.984 . S
N1754 H1761 0.984 . S
N1755 C1748 1.356 . S
N1755 H1758 0.984 . S
N1755 H1759 0.985 . S
H1756 N1751 0.984 . S
H1757 N1751 0.985 . S
H1758 N1755 0.984 . S
H1759 N1755 0.985 . S
H1760 N1754 0.984 . S
H1761 N1754 0.984 . S
H1762 N1750 0.984 . S
H1763 N1750 0.985 . S
C469 C8 1.369 . S
C471 C242 1.369 . S
C487 C255 1.369 . S
C489 C21 1.369 . S
C505 C268 1.369 . S
C507 C34 1.369 . S
C523 C47 1.368 . S
C525 C437 1.368 . S
C541 C60 1.369 . S
C543 C450 1.369 . S
C559 C73 1.369 . S
C561 C463 1.369 . S
C577 C320 1.369 . S
C579 C86 1.369 . S
C595 C99 1.369 . S
C597 C333 1.369 . S
C613 C112 1.369 . S
C615 C346 1.369 . S
C631 C203 1.368 . S
C633 C125 1.368 . S
C649 C216 1.369 . S
C651 C138 1.369 . S
C667 C229 1.369 . S
C669 C151 1.369 . S
C685 C398 1.369 . S
C687 C164 1.369 . S
C703 C411 1.369 . S
C705 C177 1.369 . S
C721 C190 1.369 . S
C723 C424 1.369 . S
C739 C359 1.369 . S
C741 C281 1.369 . S
C757 C294 1.369 . S
C759 C372 1.369 . S
C775 C307 1.369 . S
C777 C385 1.369 . S
C793 C0 1.460 . S
C795 C351 1.460 . S
C811 C364 1.460 . S
C813 C13 1.460 . S
C829 C377 1.460 . S
C831 C26 1.460 . S
C847 C156 1.460 . S
C849 C39 1.460 . S
C865 C169 1.460 . S
C867 C52 1.460 . S
C883 C182 1.460 . S
C885 C65 1.460 . S
C901 C78 1.460 . S
C903 C273 1.460 . S
C919 C286 1.460 . S
C921 C91 1.460 . S
C937 C299 1.460 . S
C939 C104 1.460 . S
C955 C117 1.460 . S
C957 C390 1.460 . S
C973 C130 1.460 . S
C975 C403 1.460 . S
C991 C143 1.460 . S
C993 C416 1.460 . S
C1009 C195 1.460 . S
C1011 C312 1.460 . S
C1027 C208 1.460 . S
C1029 C325 1.460 . S
C1045 C221 1.460 . S
C1047 C338 1.460 . S
C1063 C234 1.460 . S
C1065 C429 1.460 . S
C1081 C442 1.460 . S
C1083 C247 1.460 . S
C1099 C260 1.460 . S
C1101 C455 1.460 . S
C1117 C23 1.393 . S
C1119 C5 1.110 . S
C1135 C18 1.110 1_565 S
C1137 C36 1.393 . S
C1153 C31 1.110 1_455 S
C1155 C10 1.393 . S
C1171 C44 1.110 . S
C1173 C75 1.393 . S
C1189 C49 1.393 . S
C1191 C57 1.110 1_545 S
C1207 C70 1.110 1_655 S
C1209 C62 1.393 . S
C1225 C83 1.110 . S
C1227 C101 1.393 . S
C1243 C96 1.110 1_545 S
C1245 C114 1.393 . S
C1261 C109 1.110 1_655 S
C1263 C88 1.393 . S
C1279 C153 1.393 . S
C1281 C122 1.110 . S
C1297 C135 1.110 1_565 S
C1299 C127 1.393 . S
C1315 C140 1.393 . S
C1317 C148 1.110 1_455 S
C1333 C179 1.393 . S
C1335 C161 1.110 . S
C1351 C192 1.393 . S
C1353 C174 1.110 . S
C1369 C166 1.393 . S
C1371 C187 1.110 . S
C1387 C200 1.110 . S
C1389 C231 1.393 . S
C1405 C213 1.110 . S
C1407 C205 1.393 . S
C1423 C226 1.110 . S
C1425 C218 1.393 . S
C1441 C257 1.393 . S
C1443 C239 1.110 . S
C1459 C252 1.110 . S
C1461 C270 1.393 . S
C1477 C265 1.110 . S
C1479 C244 1.393 . S
C1495 C278 1.110 . S
C1497 C309 1.393 . S
C1513 C291 1.110 . S
C1515 C283 1.393 . S
C1531 C296 1.393 . S
C1533 C304 1.110 . S
C1549 C335 1.393 . S
C1551 C317 1.110 . S
C1567 C330 1.110 . S
C1569 C348 1.393 . S
C1585 C322 1.393 . S
C1587 C343 1.110 . S
C1603 C356 1.110 . S
C1605 C387 1.393 . S
C1621 C369 1.110 . S
C1623 C361 1.393 . S
C1639 C382 1.110 . S
C1641 C374 1.393 . S
C1657 C395 1.110 . S
C1659 C413 1.393 . S
C1675 C408 1.110 . S
C1677 C426 1.393 . S
C1693 C421 1.110 . S
C1695 C400 1.393 . S
C1711 C434 1.110 . S
C1713 C465 1.393 . S
C1729 C447 1.110 . S
C1731 C439 1.393 . S
C1747 C452 1.393 . S
C1749 C460 1.110 . S
