# Generated by pormake.
# Topology ure, (4)-cn, num edge types: 1
# Building blocks:
#     Node 0, Type 0, BuildingBlock: NAHDIM_clean_sbu_0, # of connection points: 4
#     Node 1, Type 0, BuildingBlock: NAHDIM_clean_sbu_0, # of connection points: 4
#     Node 2, Type 0, BuildingBlock: NAHDIM_clean_sbu_0, # of connection points: 4
#     Node 3, Type 0, BuildingBlock: NAHDIM_clean_sbu_0, # of connection points: 4
#     Node 4, Type 0, BuildingBlock: NAHDIM_clean_sbu_0, # of connection points: 4
#     Node 5, Type 0, BuildingBlock: NAHDIM_clean_sbu_0, # of connection points: 4
#     Node 6, Type 0, BuildingBlock: NAHDIM_clean_sbu_0, # of connection points: 4
#     Node 7, Type 0, BuildingBlock: NAHDIM_clean_sbu_0, # of connection points: 4
#     Node 8, Type 0, BuildingBlock: NAHDIM_clean_sbu_0, # of connection points: 4
#     Node 9, Type 0, BuildingBlock: NAHDIM_clean_sbu_0, # of connection points: 4
#     Node 10, Type 0, BuildingBlock: NAHDIM_clean_sbu_0, # of connection points: 4
#     Node 11, Type 0, BuildingBlock: NAHDIM_clean_sbu_0, # of connection points: 4
#     Node 12, Type 0, BuildingBlock: NAHDIM_clean_sbu_0, # of connection points: 4
#     Node 13, Type 0, BuildingBlock: NAHDIM_clean_sbu_0, # of connection points: 4
#     Node 14, Type 0, BuildingBlock: NAHDIM_clean_sbu_0, # of connection points: 4
#     Node 15, Type 0, BuildingBlock: NAHDIM_clean_sbu_0, # of connection points: 4
#     Edge 16, Type (0, 0), BuildingBlock: CIFDUS_clean_linker_0, # of connection points: 2
#     Edge 17, Type (0, 0), BuildingBlock: CIFDUS_clean_linker_0, # of connection points: 2
#     Edge 18, Type (0, 0), BuildingBlock: CIFDUS_clean_linker_0, # of connection points: 2
#     Edge 19, Type (0, 0), BuildingBlock: CIFDUS_clean_linker_0, # of connection points: 2
#     Edge 20, Type (0, 0), BuildingBlock: CIFDUS_clean_linker_0, # of connection points: 2
#     Edge 21, Type (0, 0), BuildingBlock: CIFDUS_clean_linker_0, # of connection points: 2
#     Edge 22, Type (0, 0), BuildingBlock: CIFDUS_clean_linker_0, # of connection points: 2
#     Edge 23, Type (0, 0), BuildingBlock: CIFDUS_clean_linker_0, # of connection points: 2
#     Edge 24, Type (0, 0), BuildingBlock: CIFDUS_clean_linker_0, # of connection points: 2
#     Edge 25, Type (0, 0), BuildingBlock: CIFDUS_clean_linker_0, # of connection points: 2
#     Edge 26, Type (0, 0), BuildingBlock: CIFDUS_clean_linker_0, # of connection points: 2
#     Edge 27, Type (0, 0), BuildingBlock: CIFDUS_clean_linker_0, # of connection points: 2
#     Edge 28, Type (0, 0), BuildingBlock: CIFDUS_clean_linker_0, # of connection points: 2
#     Edge 29, Type (0, 0), BuildingBlock: CIFDUS_clean_linker_0, # of connection points: 2
#     Edge 30, Type (0, 0), BuildingBlock: CIFDUS_clean_linker_0, # of connection points: 2
#     Edge 31, Type (0, 0), BuildingBlock: CIFDUS_clean_linker_0, # of connection points: 2
#     Edge 32, Type (0, 0), BuildingBlock: CIFDUS_clean_linker_0, # of connection points: 2
#     Edge 33, Type (0, 0), BuildingBlock: CIFDUS_clean_linker_0, # of connection points: 2
#     Edge 34, Type (0, 0), BuildingBlock: CIFDUS_clean_linker_0, # of connection points: 2
#     Edge 35, Type (0, 0), BuildingBlock: CIFDUS_clean_linker_0, # of connection points: 2
#     Edge 36, Type (0, 0), BuildingBlock: CIFDUS_clean_linker_0, # of connection points: 2
#     Edge 37, Type (0, 0), BuildingBlock: CIFDUS_clean_linker_0, # of connection points: 2
#     Edge 38, Type (0, 0), BuildingBlock: CIFDUS_clean_linker_0, # of connection points: 2
#     Edge 39, Type (0, 0), BuildingBlock: CIFDUS_clean_linker_0, # of connection points: 2
#     Edge 40, Type (0, 0), BuildingBlock: CIFDUS_clean_linker_0, # of connection points: 2
#     Edge 41, Type (0, 0), BuildingBlock: CIFDUS_clean_linker_0, # of connection points: 2
#     Edge 42, Type (0, 0), BuildingBlock: CIFDUS_clean_linker_0, # of connection points: 2
#     Edge 43, Type (0, 0), BuildingBlock: CIFDUS_clean_linker_0, # of connection points: 2
#     Edge 44, Type (0, 0), BuildingBlock: CIFDUS_clean_linker_0, # of connection points: 2
#     Edge 45, Type (0, 0), BuildingBlock: CIFDUS_clean_linker_0, # of connection points: 2
#     Edge 46, Type (0, 0), BuildingBlock: CIFDUS_clean_linker_0, # of connection points: 2
#     Edge 47, Type (0, 0), BuildingBlock: CIFDUS_clean_linker_0, # of connection points: 2
# Relax obj value: 0.106
# Max RMSD: 0.078
# Mean RMSD: 0.069
data_MOF--net-ure--node1-NAHDIM_clean_sbu_0--edge1-CIFDUS_clean_linker_0
_symmetry_space_group_name_H-M    P1
_symmetry_Int_Tables_number       1
_symmetry_cell_setting            triclinic
loop_
_symmetry_equiv_pos_as_xyz
'x, y, z'
_cell_length_a     26.837703
_cell_length_b     27.938123
_cell_length_c     28.682516
_cell_angle_alpha  90.528067
_cell_angle_beta   91.144104
_cell_angle_gamma 93.434299
loop_
_atom_site_label
_atom_site_type_symbol
_atom_site_fract_x
_atom_site_fract_y
_atom_site_fract_z
_atom_type_partial_charge
C0 C 0.22091 0.21177 0.22243 0.0
O1 O 0.25313 0.23852 0.19866 0.0
O2 O 0.33557 0.25959 0.28678 0.0
Zn3 Zn 0.26322 0.26901 0.29845 0.0
O4 O 0.24916 0.33408 0.27398 0.0
C5 C 0.27496 0.23893 0.39344 0.0
O6 O 0.30531 0.20955 0.37436 0.0
O7 O 0.21873 0.21816 0.26622 0.0
C8 C 0.21678 0.35994 0.29142 0.0
O9 O 0.18948 0.34302 0.32576 0.0
C10 C 0.36654 0.29092 0.30495 0.0
O11 O 0.3495 0.32586 0.32991 0.0
O12 O 0.25208 0.26746 0.36756 0.0
C13 C 0.02466 0.90375 0.46501 0.0
O14 O 0.01215 0.88213 0.50392 0.0
O15 O 0.89587 0.96211 0.48981 0.0
Zn16 Zn 0.96852 0.97999 0.50278 0.0
O17 O 0.98534 0.96411 0.56983 0.0
C18 C 0.95181 0.07564 0.46896 0.0
O19 O 0.91486 0.05378 0.44488 0.0
O20 O 0.01043 0.94559 0.45752 0.0
C21 C 0.98801 0.99717 0.60079 0.0
O22 O 0.98153 0.04151 0.58831 0.0
C23 C 0.86421 0.97643 0.51833 0.0
O24 O 0.88026 0.00049 0.55579 0.0
O25 O 0.98001 0.05109 0.49415 0.0
C26 C 0.27059 0.79721 0.68504 0.0
O27 O 0.24133 0.76291 0.66563 0.0
O28 O 0.169 0.74274 0.74842 0.0
Zn29 Zn 0.24254 0.74379 0.76452 0.0
O30 O 0.26849 0.68042 0.74558 0.0
C31 C 0.22497 0.72418 0.85971 0.0
O32 O 0.19776 0.68913 0.83927 0.0
O33 O 0.27782 0.79706 0.72899 0.0
C34 C 0.29547 0.65586 0.77198 0.0
O35 O 0.30983 0.67294 0.81322 0.0
C36 C 0.14151 0.70411 0.74524 0.0
O37 O 0.16152 0.66266 0.75032 0.0
O38 O 0.24988 0.75382 0.8345 0.0
C39 C 0.45897 0.03009 0.94531 0.0
O40 O 0.49603 0.00944 0.92563 0.0
O41 O 0.5636 0.98806 0.00376 0.0
Zn42 Zn 0.49227 0.9774 0.02396 0.0
O43 O 0.48723 0.99099 0.09285 0.0
C44 C 0.5011 0.87688 0.01819 0.0
O45 O 0.54485 0.89009 0.03703 0.0
O46 O 0.44961 0.02134 0.98777 0.0
C47 C 0.46218 0.96382 0.12026 0.0
O48 O 0.43761 0.92518 0.10344 0.0
C49 C 0.6007 0.99483 0.03176 0.0
O50 O 0.59306 0.99672 0.07682 0.0
O51 O 0.47038 0.90866 0.00942 0.0
C52 C 0.19503 0.74563 0.307 0.0
O53 O 0.22 0.70861 0.31944 0.0
O54 O 0.31755 0.75218 0.24173 0.0
Zn55 Zn 0.24715 0.72912 0.22429 0.0
O56 O 0.23752 0.65775 0.23241 0.0
C57 C 0.26259 0.77214 0.13332 0.0
O58 O 0.29779 0.79875 0.15529 0.0
O59 O 0.19998 0.76188 0.26597 0.0
C60 C 0.25665 0.62911 0.20415 0.0
O61 O 0.28326 0.64668 0.16962 0.0
C62 C 0.34985 0.72619 0.25989 0.0
O63 O 0.33734 0.68129 0.26963 0.0
O64 O 0.23519 0.74246 0.15627 0.0
C65 C 0.43064 0.00918 0.56267 0.0
O66 O 0.46443 0.03961 0.58185 0.0
O67 O 0.47238 0.11659 0.49323 0.0
Zn68 Zn 0.47745 0.04541 0.48144 0.0
O69 O 0.54547 0.02722 0.50292 0.0
C70 C 0.49175 0.05873 0.38354 0.0
O71 O 0.52017 0.09534 0.39961 0.0
O72 O 0.42729 0.0062 0.51845 0.0
C73 C 0.57229 0.99915 0.4808 0.0
O74 O 0.55496 0.97891 0.44176 0.0
C75 C 0.51245 0.14328 0.49655 0.0
O76 O 0.55558 0.12366 0.49388 0.0
O77 O 0.46858 0.03154 0.41228 0.0
C78 C 0.33259 0.21347 0.77392 0.0
O79 O 0.34651 0.22806 0.73249 0.0
O80 O 0.25499 0.26706 0.68893 0.0
Zn81 Zn 0.25415 0.2783 0.75861 0.0
O82 O 0.18258 0.26997 0.77838 0.0
C83 C 0.30039 0.3739 0.74522 0.0
O84 O 0.30534 0.35891 0.70213 0.0
O85 O 0.29429 0.23023 0.79186 0.0
C86 C 0.15602 0.30549 0.78517 0.0
O87 O 0.1763 0.34921 0.78126 0.0
C88 C 0.22363 0.28667 0.66253 0.0
O89 O 0.19126 0.3142 0.68123 0.0
O90 O 0.28135 0.34535 0.77513 0.0
C91 C 0.04902 0.03691 0.05642 0.0
O92 O 0.01487 0.01209 0.07979 0.0
O93 O 0.01023 0.92155 0.98516 0.0
Zn94 Zn 0.99701 0.9914 0.97748 0.0
O95 O 0.92868 0.00285 0.00162 0.0
C96 C 0.00172 0.97586 0.87787 0.0
O97 O 0.00334 0.93089 0.89044 0.0
O98 O 0.04892 0.03326 0.01225 0.0
C99 C 0.89056 0.99344 0.97541 0.0
O100 O 0.89679 0.97755 0.9328 0.0
C101 C 0.98491 0.8936 0.01164 0.0
O102 O 0.95046 0.91106 0.03768 0.0
O103 O -0.00078 0.00818 0.90911 0.0
C104 C 0.72913 0.31255 0.77552 0.0
O105 O 0.7644 0.33631 0.75258 0.0
O106 O 0.84459 0.24564 0.75993 0.0
Zn107 Zn 0.77424 0.23138 0.73554 0.0
O108 O 0.75614 0.16065 0.73947 0.0
C109 C 0.80748 0.26242 0.64398 0.0
O110 O 0.85223 0.26313 0.66347 0.0
O111 O 0.72616 0.26703 0.77342 0.0
C112 C 0.77099 0.13151 0.70919 0.0
O113 O 0.79776 0.1482 0.6744 0.0
C114 C 0.86998 0.21432 0.7797 0.0
O115 O 0.84923 0.17131 0.78687 0.0
O116 O 0.76951 0.25093 0.66825 0.0
C117 C 0.96868 0.48893 0.05049 0.0
O118 O 0.00725 0.51668 0.06502 0.0
O119 O -0.0009 0.59178 0.96984 0.0
Zn120 Zn 0.00211 0.52022 0.96023 0.0
O121 O 0.07349 0.50341 0.97024 0.0
C122 C 0.98854 0.52616 0.86006 0.0
O123 O 0.01307 0.56783 0.8666 0.0
O124 O 0.95906 0.48518 0.00699 0.0
C125 C 0.0982 0.48122 0.94044 0.0
O126 O 0.07627 0.46626 0.90117 0.0
C127 C 0.03611 0.62006 0.95956 0.0
O128 O 0.07623 0.60237 0.9424 0.0
O129 O 0.9784 0.50011 0.89512 0.0
C130 C 0.79048 0.70301 0.29322 0.0
O131 O 0.75028 0.68061 0.27477 0.0
O132 O 0.75606 0.77869 0.18405 0.0
Zn133 Zn 0.7472 0.78524 0.25338 0.0
O134 O 0.67761 0.75961 0.26849 0.0
C135 C 0.77378 0.88775 0.24766 0.0
O136 O 0.78864 0.8772 0.20564 0.0
O137 O 0.79734 0.74799 0.288 0.0
C138 C 0.64303 0.78814 0.27414 0.0
O139 O 0.65364 0.83456 0.27174 0.0
C140 C 0.72144 0.78999 0.15604 0.0
O141 O 0.6805 0.80621 0.17294 0.0
O142 O 0.7562 0.85442 0.27353 0.0
C143 C 0.95349 0.52838 0.44346 0.0
O144 O 0.99254 0.55169 0.46306 0.0
O145 O 0.06487 0.46437 0.46556 0.0
Zn146 Zn 0.99624 0.45201 0.49099 0.0
O147 O 0.99472 0.47797 0.55657 0.0
C148 C 0.01545 0.35569 0.50911 0.0
O149 O 0.05439 0.37746 0.53041 0.0
O150 O 0.94642 0.48371 0.45055 0.0
C151 C 0.97134 0.45718 0.58953 0.0
O152 O 0.94554 0.41644 0.58114 0.0
C153 C 0.09721 0.49451 0.48346 0.0
O154 O 0.0852 0.52083 0.51925 0.0
O155 O 0.98297 0.38078 0.48991 0.0
C156 C 0.52367 0.41157 0.94315 0.0
O157 O 0.49072 0.38754 0.96854 0.0
O158 O 0.41412 0.47923 0.98206 0.0
Zn159 Zn 0.48808 0.49185 0.99336 0.0
O160 O 0.50353 0.46994 0.05862 0.0
C161 C 0.47491 0.59371 0.97668 0.0
O162 O 0.43023 0.57899 0.96102 0.0
O163 O 0.52844 0.45692 0.94733 0.0
C164 C 0.52804 0.49735 0.0876 0.0
O165 O 0.54701 0.53907 0.0736 0.0
C166 C 0.38641 0.49135 0.0151 0.0
O167 O 0.40748 0.50996 0.0534 0.0
O168 O 0.50519 0.56307 0.99 0.0
C169 C 0.71422 0.72013 0.71715 0.0
O170 O 0.74649 0.74773 0.69429 0.0
O171 O 0.83479 0.75097 0.77402 0.0
Zn172 Zn 0.76584 0.76779 0.79262 0.0
O173 O 0.75494 0.83512 0.77254 0.0
C174 C 0.79625 0.75914 0.88994 0.0
O175 O 0.8405 0.75341 0.87268 0.0
O176 O 0.71479 0.72228 0.76139 0.0
C177 C 0.72701 0.86224 0.79456 0.0
O178 O 0.70291 0.84546 0.83093 0.0
C179 C 0.85952 0.77524 0.74409 0.0
O180 O 0.83932 0.81162 0.72393 0.0
O181 O 0.75942 0.76471 0.86237 0.0
C182 C 0.78277 0.31609 0.19571 0.0
O183 O 0.74749 0.2853 0.17961 0.0
O184 O 0.67891 0.27674 0.2658 0.0
Zn185 Zn 0.75248 0.27034 0.27852 0.0
O186 O 0.77017 0.20343 0.26129 0.0
C187 C 0.72901 0.27635 0.3751 0.0
O188 O 0.68433 0.26578 0.35707 0.0
O189 O 0.79249 0.31739 0.23928 0.0
C190 C 0.76292 0.16921 0.28972 0.0
O191 O 0.74469 0.17818 0.33081 0.0
C192 C 0.64942 0.24408 0.24767 0.0
O193 O 0.66758 0.20477 0.23143 0.0
O194 O 0.7659 0.2815 0.34797 0.0
C195 C 0.53975 0.5577 0.5425 0.0
O196 O 0.50533 0.53139 0.56409 0.0
O197 O 0.49609 0.44489 0.47734 0.0
Zn198 Zn 0.49311 0.51436 0.45943 0.0
O199 O 0.42336 0.53483 0.46759 0.0
C200 C 0.51103 0.48701 0.36385 0.0
O201 O 0.49821 0.44374 0.37866 0.0
O202 O 0.54132 0.55574 0.49832 0.0
C203 C 0.38946 0.51641 0.44031 0.0
O204 O 0.40187 0.48676 0.40728 0.0
C205 C 0.46111 0.42138 0.49799 0.0
O206 O 0.42172 0.44331 0.51113 0.0
O207 O 0.51166 0.52227 0.39222 0.0
H208 H 0.2155 0.18995 0.12979 0.0
H209 H 0.14903 0.15225 0.26134 0.0
H210 H 0.09085 0.09417 0.22176 0.0
H211 H 0.05761 0.05525 0.14968 0.0
H212 H 0.12383 0.09331 0.01811 0.0
H213 H 0.18335 0.14991 0.05793 0.0
C214 C 0.18839 0.16896 0.14986 0.0
C215 C 0.18661 0.1756 0.19845 0.0
C216 C 0.15491 0.13568 0.12689 0.0
C217 C 0.15125 0.14798 0.22388 0.0
C218 C 0.11789 0.11473 0.20128 0.0
C219 C 0.08514 0.07579 0.1297 0.0
C220 C 0.08609 0.07006 0.08096 0.0
C221 C 0.11921 0.10846 0.15278 0.0
C222 C 0.12212 0.097 0.05566 0.0
C223 C 0.15621 0.12945 0.07839 0.0
H224 H 0.06757 0.81834 0.47312 0.0
H225 H 0.04961 0.93546 0.37825 0.0
H226 H 0.09957 0.8964 0.32063 0.0
H227 H 0.14926 0.82949 0.2974 0.0
H228 H 0.16859 0.71321 0.39295 0.0
H229 H 0.11712 0.75143 0.44988 0.0
C230 C 0.07449 0.83532 0.43983 0.0
C231 C 0.05485 0.87978 0.43011 0.0
C232 C 0.10352 0.81281 0.40688 0.0
C233 C 0.06434 0.90129 0.38677 0.0
C234 C 0.09289 0.87896 0.35371 0.0
C235 C 0.14206 0.81241 0.3306 0.0
C236 C 0.16276 0.76855 0.34084 0.0
C237 C 0.11277 0.83478 0.36343 0.0
C238 C 0.15323 0.74704 0.38414 0.0
C239 C 0.12377 0.76885 0.41678 0.0
H240 H 0.3651 0.93615 0.53401 0.0
H241 H 0.42866 0.00691 0.65777 0.0
H242 H 0.38396 0.94831 0.70658 0.0
H243 H 0.32949 0.87506 0.71413 0.0
H244 H 0.26652 0.80408 0.59024 0.0
H245 H 0.30836 0.86466 0.54165 0.0
C246 C 0.36891 0.93902 0.57167 0.0
C247 C 0.40038 0.9758 0.59213 0.0
C248 C 0.34345 0.90494 0.59958 0.0
C249 C 0.40483 0.97891 0.64102 0.0
C250 C 0.37934 0.94533 0.66902 0.0
C251 C 0.32482 0.87288 0.67651 0.0
C252 C 0.29511 0.83489 0.65592 0.0
C253 C 0.34904 0.90785 0.64867 0.0
C254 C 0.28927 0.83281 0.60709 0.0
C255 C 0.31319 0.86747 0.5792 0.0
H256 H 0.47471 0.06229 0.85731 0.0
H257 H 0.37682 0.07457 0.97394 0.0
H258 H 0.329 0.13194 0.931 0.0
H259 H 0.31548 0.17924 0.8609 0.0
H260 H 0.41379 0.16781 0.74447 0.0
H261 H 0.46093 0.10945 0.78691 0.0
C262 C 0.44284 0.07738 0.87332 0.0
C263 C 0.42942 0.06411 0.9188 0.0
C264 C 0.41563 0.11059 0.84855 0.0
C265 C 0.38806 0.08417 0.93902 0.0
C266 C 0.36066 0.11701 0.9145 0.0
C267 C 0.34719 0.16399 0.84472 0.0
C268 C 0.36106 0.17795 0.79956 0.0
C269 C 0.37422 0.13059 0.86933 0.0
C270 C 0.40229 0.1578 0.77921 0.0
C271 C 0.42928 0.12438 0.80344 0.0
H272 H 0.65114 0.27398 0.82464 0.0
H273 H 0.72715 0.40921 0.79 0.0
H274 H 0.66944 0.45173 0.83771 0.0
H275 H 0.59858 0.45047 0.89042 0.0
H276 H 0.52286 0.31523 0.92548 0.0
H277 H 0.57924 0.27285 0.87619 0.0
C278 C 0.6551 0.31277 0.82744 0.0
C279 C 0.69356 0.33832 0.80385 0.0
C280 C 0.62184 0.33702 0.85498 0.0
C281 C 0.69797 0.38859 0.8078 0.0
C282 C 0.66498 0.41298 0.8351 0.0
C283 C 0.59422 0.41173 0.88719 0.0
C284 C 0.55658 0.3861 0.91175 0.0
C285 C 0.62693 0.38754 0.85899 0.0
C286 C 0.55154 0.3359 0.90707 0.0
C287 C 0.58381 0.31159 0.87891 0.0
H288 H 0.88708 0.42915 0.03139 0.0
H289 H 0.98039 0.48656 0.14543 0.0
H290 H 0.93045 0.43916 0.20064 0.0
H291 H 0.86136 0.37989 0.21632 0.0
H292 H 0.76881 0.32247 0.10169 0.0
H293 H 0.81736 0.37152 0.0471 0.0
C294 C 0.8965 0.43144 0.06832 0.0
C295 C 0.93755 0.46129 0.08416 0.0
C296 C 0.86777 0.40401 0.09985 0.0
C297 C 0.94905 0.46384 0.1322 0.0
C298 C 0.92052 0.43671 0.16384 0.0
C299 C 0.85169 0.37823 0.17943 0.0
C300 C 0.81155 0.34737 0.16319 0.0
C301 C 0.87995 0.40645 0.14803 0.0
C302 C 0.79957 0.34574 0.11523 0.0
C303 C 0.82733 0.3738 0.08389 0.0
H304 H 0.96022 0.62234 0.41988 0.0
H305 H 0.86799 0.49149 0.39971 0.0
H306 H 0.80992 0.53381 0.35075 0.0
H307 H 0.78485 0.60814 0.31444 0.0
H308 H 0.87727 0.73886 0.33501 0.0
H309 H 0.93579 0.69623 0.38293 0.0
C310 C 0.92744 0.60301 0.4048 0.0
C311 C 0.91844 0.55386 0.41356 0.0
C312 C 0.89423 0.62751 0.3767 0.0
C313 C 0.87581 0.52937 0.39359 0.0
C314 C 0.84257 0.55353 0.36557 0.0
C315 C 0.81785 0.6273 0.32928 0.0
C316 C 0.82656 0.67663 0.32116 0.0
C317 C 0.85135 0.60262 0.35698 0.0
C318 C 0.86955 0.70089 0.3407 0.0
C319 C 0.90308 0.67656 0.36817 0.0
H320 H 0.54716 0.57129 0.63669 0.0
H321 H 0.6142 0.61658 0.50744 0.0
H322 H 0.67379 0.67052 0.55013 0.0
H323 H 0.7067 0.70527 0.62373 0.0
H324 H 0.64049 0.66043 0.75337 0.0
H325 H 0.58078 0.60591 0.71085 0.0
C326 C 0.57483 0.59292 0.61787 0.0
C327 C 0.57609 0.58988 0.56893 0.0
C328 C 0.60913 0.62401 0.64264 0.0
C329 C 0.61227 0.61817 0.5451 0.0
C330 C 0.64642 0.6491 0.56947 0.0
C331 C 0.67923 0.68363 0.64276 0.0
C332 C 0.67805 0.68701 0.69163 0.0
C333 C 0.64512 0.65237 0.61818 0.0
C334 C 0.64223 0.65856 0.71571 0.0
C335 C 0.60805 0.62736 0.69143 0.0
H336 H 0.21177 0.29153 0.44281 0.0
H337 H 0.32511 0.18921 0.45913 0.0
H338 H 0.31804 0.19377 0.5437 0.0
H339 H 0.28222 0.22921 0.61312 0.0
H340 H 0.1682 0.33083 0.59668 0.0
H341 H 0.1731 0.32407 0.51209 0.0
C342 C 0.23486 0.27011 0.46483 0.0
C343 C 0.26907 0.24025 0.44461 0.0
C344 C 0.23073 0.27297 0.51345 0.0
C345 C 0.29843 0.2125 0.4737 0.0
C346 C 0.29447 0.21511 0.52212 0.0
C347 C 0.25834 0.24979 0.59106 0.0
C348 C 0.22521 0.28076 0.61127 0.0
C349 C 0.26121 0.24566 0.54238 0.0
C350 C 0.19424 0.30687 0.58212 0.0
C351 C 0.19702 0.30309 0.53368 0.0
H352 H 0.00817 0.91542 0.80397 0.0
H353 H 0.9935 0.06445 0.83934 0.0
H354 H 0.98967 0.08423 0.75662 0.0
H355 H 0.98818 0.05885 0.67452 0.0
H356 H 0.00214 0.90963 0.63937 0.0
H357 H 0.0091 0.89066 0.72219 0.0
C358 C 0.00427 0.95229 0.79369 0.0
C359 C 0.00098 0.98833 0.82786 0.0
C360 C 0.00193 0.96343 0.74615 0.0
C361 C 0.99606 0.03594 0.81381 0.0
C362 C 0.99381 0.04731 0.7665 0.0
C363 C 0.99293 0.02213 0.68484 0.0
C364 C 0.99455 0.98573 0.65072 0.0
C365 C 0.99639 0.01127 0.73241 0.0
C366 C 0.0007 0.93836 0.66483 0.0
C367 C 0.00453 0.92739 0.71212 0.0
H368 H 0.27822 0.79053 0.9145 0.0
H369 H 0.1751 0.66608 0.92076 0.0
H370 H 0.1749 0.67224 0.00533 0.0
H371 H 0.20546 0.71114 0.07767 0.0
H372 H 0.31188 0.83308 0.07306 0.0
H373 H 0.30938 0.82959 0.98782 0.0
C374 C 0.2557 0.76483 0.9344 0.0
C375 C 0.2263 0.72824 0.91119 0.0
C376 C 0.25638 0.76802 0.98337 0.0
C377 C 0.19765 0.69497 0.93756 0.0
C378 C 0.19758 0.69834 0.98604 0.0
C379 C 0.2278 0.73731 0.05812 0.0
C380 C 0.2586 0.77245 0.08177 0.0
C381 C 0.22687 0.73459 0.0093 0.0
C382 C 0.28767 0.80572 0.05576 0.0
C383 C 0.28638 0.80368 0.00699 0.0
H384 H 0.44477 0.98146 0.33903 0.0
H385 H 0.53192 0.11338 0.31385 0.0
H386 H 0.52984 0.0959 0.23044 0.0
H387 H 0.50495 0.04264 0.16476 0.0
H388 H 0.41797 0.91054 0.18936 0.0
H389 H 0.41825 0.9288 0.27279 0.0
C390 C 0.46313 0.00648 0.31529 0.0
C391 C 0.4886 0.04856 0.33279 0.0
C392 C 0.46196 0.99618 0.26722 0.0
C393 C 0.51222 0.08059 0.30147 0.0
C394 C 0.51107 0.07067 0.25368 0.0
C395 C 0.48597 0.01781 0.1883 0.0
C396 C 0.46153 0.97527 0.17075 0.0
C397 C 0.48635 0.02844 0.23622 0.0
C398 C 0.43704 0.9436 0.20184 0.0
C399 C 0.43722 0.95397 0.24961 0.0
H400 H 0.41393 0.22576 0.25318 0.0
H401 H 0.44123 0.35124 0.34125 0.0
H402 H 0.53071 0.34868 0.32965 0.0
H403 H 0.60108 0.31126 0.29482 0.0
H404 H 0.57508 0.18435 0.20864 0.0
H405 H 0.48509 0.18754 0.2187 0.0
C406 C 0.43944 0.25262 0.26974 0.0
C407 C 0.4208 0.28872 0.2979 0.0
C408 C 0.49101 0.25104 0.2629 0.0
C409 C 0.45443 0.32312 0.31926 0.0
C410 C 0.50566 0.32179 0.31259 0.0
C411 C 0.57579 0.28451 0.27781 0.0
C412 C 0.59482 0.24781 0.25075 0.0
C413 C 0.52431 0.28609 0.28435 0.0
C414 C 0.56143 0.21314 0.22947 0.0
C415 C 0.50997 0.21486 0.23531 0.0
H416 H 0.94862 0.30075 0.45656 0.0
H417 H 0.07192 0.29196 0.55448 0.0
H418 H 0.06398 0.20458 0.54948 0.0
H419 H 0.02123 0.13085 0.5184 0.0
H420 H 0.89675 0.13942 0.42166 0.0
H421 H 0.90553 0.22689 0.42567 0.0
C422 C 0.97337 0.27971 0.47723 0.0
C423 C 0.01034 0.30281 0.5063 0.0
C424 C 0.96841 0.22951 0.4744 0.0
C425 C 0.04293 0.27508 0.53201 0.0
C426 C 0.03843 0.2251 0.52919 0.0
C427 C 0.99615 0.15178 0.49796 0.0
C428 C 0.95848 0.12857 0.46966 0.0
C429 C 0.00122 0.20197 0.50059 0.0
C430 C 0.92619 0.15632 0.44359 0.0
C431 C 0.93113 0.20635 0.44591 0.0
H432 H 0.91005 0.69975 0.77497 0.0
H433 H 0.92634 0.82733 0.69139 0.0
H434 H 0.01453 0.81415 0.68109 0.0
H435 H 0.08875 0.77114 0.70234 0.0
H436 H 0.07233 0.64264 0.78406 0.0
H437 H 0.9825 0.65186 0.78911 0.0
C438 C 0.93281 0.72463 0.75437 0.0
C439 C 0.91177 0.76486 0.73462 0.0
C440 C 0.98359 0.71711 0.74882 0.0
C441 C 0.94163 0.79629 0.70738 0.0
C442 C 0.99215 0.78897 0.70163 0.0
C443 C 0.06528 0.7449 0.72073 0.0
C444 C 0.08687 0.70645 0.74298 0.0
C445 C 0.01377 0.75026 0.7232 0.0
C446 C 0.05628 0.67234 0.76637 0.0
C447 C 0.00506 0.67776 0.76952 0.0
H448 H 0.41448 0.66783 0.96579 0.0
H449 H 0.56569 0.63589 0.00259 0.0
H450 H 0.58695 0.72068 0.01823 0.0
H451 H 0.56225 0.80332 0.02359 0.0
H452 H 0.41101 0.83575 0.98772 0.0
H453 H 0.39006 0.75116 0.96984 0.0
C454 C 0.45219 0.67942 0.97687 0.0
C455 C 0.48841 0.6455 0.98299 0.0
C456 C 0.46408 0.72823 0.98631 0.0
C457 C 0.53704 0.66119 0.99762 0.0
C458 C 0.54925 0.70967 0.00668 0.0
C459 C 0.52469 0.79196 0.01184 0.0
C460 C 0.48825 0.8258 0.00708 0.0
C461 C 0.51296 0.7434 0.00156 0.0
C462 C 0.4398 0.81044 0.99164 0.0
C463 C 0.42779 0.76207 0.98139 0.0
H464 H 0.56012 0.83864 0.26881 0.0
H465 H 0.60834 0.69526 0.28759 0.0
H466 H 0.52141 0.66375 0.28792 0.0
H467 H 0.43194 0.67653 0.27846 0.0
H468 H 0.38468 0.81973 0.25589 0.0
H469 H 0.47119 0.85165 0.26163 0.0
C470 C 0.5517 0.80054 0.27345 0.0
C471 C 0.59065 0.76937 0.27809 0.0
C472 C 0.5018 0.7826 0.27271 0.0
C473 C 0.57902 0.72005 0.28382 0.0
C474 C 0.52933 0.70198 0.28397 0.0
C475 C 0.44051 0.71478 0.27527 0.0
C476 C 0.40191 0.74565 0.26669 0.0
C477 C 0.49044 0.73287 0.27778 0.0
C478 C 0.41368 0.79512 0.26234 0.0
C479 C 0.46313 0.81345 0.26562 0.0
H480 H 0.43248 0.19624 0.51434 0.0
H481 H 0.58964 0.20893 0.48382 0.0
H482 H 0.5877 0.29603 0.48306 0.0
H483 H 0.5414 0.36824 0.48785 0.0
H484 H 0.38485 0.35687 0.52042 0.0
H485 H 0.38699 0.26973 0.52413 0.0
C486 C 0.46634 0.21808 0.50772 0.0
C487 C 0.51105 0.19606 0.49891 0.0
C488 C 0.46522 0.26832 0.50758 0.0
C489 C 0.5547 0.22488 0.49073 0.0
C490 C 0.5537 0.27469 0.49013 0.0
C491 C 0.50774 0.34673 0.49592 0.0
C492 C 0.46304 0.369 0.50356 0.0
C493 C 0.50914 0.29673 0.49803 0.0
C494 C 0.41984 0.34064 0.51441 0.0
C495 C 0.42091 0.29073 0.51628 0.0
H496 H 0.10394 0.22115 0.8018 0.0
H497 H 0.08562 0.37209 0.78136 0.0
H498 H 0.99511 0.35752 0.78111 0.0
H499 H 0.92137 0.30114 0.77995 0.0
H500 H 0.93964 0.15032 0.80114 0.0
H501 H 0.02994 0.16577 0.80808 0.0
C502 C 0.08016 0.25095 0.79773 0.0
C503 C 0.10155 0.29751 0.79099 0.0
C504 C 0.02811 0.24235 0.79742 0.0
C505 C 0.0702 0.33582 0.78637 0.0
C506 C 0.01837 0.32754 0.78604 0.0
C507 C 0.94506 0.27171 0.78654 0.0
C508 C 0.92385 0.22459 0.78944 0.0
C509 C 0.99696 0.28082 0.79047 0.0
C510 C 0.955 0.18692 0.79855 0.0
C511 C 0.00669 0.19569 0.80239 0.0
H512 H 0.04787 0.84597 0.95725 0.0
H513 H 0.93577 0.82358 0.06207 0.0
H514 H 0.94267 0.73699 0.05593 0.0
H515 H 0.97732 0.66743 0.01811 0.0
H516 H 0.08885 0.69 0.91308 0.0
H517 H 0.08503 0.7767 0.92175 0.0
C518 C 0.02501 0.82223 0.9789 0.0
C519 C 0.99125 0.84133 0.00996 0.0
C520 C 0.02858 0.77247 0.97478 0.0
C521 C 0.96201 0.80994 0.03779 0.0
C522 C 0.96567 0.76038 0.03413 0.0
C523 C 0.00073 0.69139 0.99714 0.0
C524 C 0.03356 0.67242 0.96523 0.0
C525 C 0.99823 0.74123 0.00225 0.0
C526 C 0.0639 0.7038 0.93845 0.0
C527 C 0.06148 0.75337 0.94316 0.0
H528 H 0.26983 0.40577 0.22353 0.0
H529 H 0.15644 0.4271 0.32509 0.0
H530 H 0.15823 0.51225 0.30651 0.0
H531 H 0.19499 0.58128 0.2642 0.0
H532 H 0.30652 0.55942 0.16094 0.0
H533 H 0.30189 0.47363 0.17697 0.0
C534 C 0.24514 0.4289 0.24134 0.0
C535 C 0.21371 0.41021 0.27631 0.0
C536 C 0.24607 0.47774 0.2302 0.0
C537 C 0.18152 0.44064 0.29852 0.0
C538 C 0.1825 0.48937 0.2879 0.0
C539 C 0.21817 0.55773 0.24507 0.0
C540 C 0.25144 0.57681 0.21179 0.0
C541 C 0.2152 0.50843 0.25434 0.0
C542 C 0.28074 0.54572 0.18688 0.0
C543 C 0.27819 0.49664 0.19608 0.0
H544 H 0.71803 0.0861 0.77729 0.0
H545 H 0.80395 0.05932 0.65503 0.0
H546 H 0.79535 0.97326 0.6692 0.0
H547 H 0.76817 0.9062 0.71914 0.0
H548 H 0.68207 0.93299 0.84124 0.0
H549 H 0.68594 0.01854 0.82414 0.0
C550 C 0.73462 0.06146 0.75354 0.0
C551 C 0.76207 0.07922 0.71547 0.0
C552 C 0.72977 0.01205 0.76201 0.0
C553 C 0.78291 0.04671 0.68481 0.0
C554 C 0.77809 0.99745 0.69291 0.0
C555 C 0.74993 0.93068 0.74185 0.0
C556 C 0.72535 0.91328 0.78172 0.0
C557 C 0.75236 0.97982 0.73187 0.0
C558 C 0.7015 0.94544 0.81049 0.0
C559 C 0.70375 0.9944 0.80078 0.0
H560 H 0.33055 0.45742 0.94003 0.0
H561 H 0.3186 0.51889 0.07782 0.0
H562 H 0.22836 0.51938 0.06752 0.0
H563 H 0.15327 0.50581 0.01833 0.0
H564 H 0.16438 0.44401 0.88065 0.0
H565 H 0.25431 0.43966 0.89234 0.0
C566 C 0.30818 0.47065 0.9679 0.0
C567 C 0.33141 0.48842 0.00948 0.0
C568 C 0.25613 0.47091 0.96178 0.0
C569 C 0.3018 0.50522 0.04534 0.0
C570 C 0.25012 0.50557 0.0395 0.0
C571 C 0.17528 0.4912 0.99089 0.0
C572 C 0.15212 0.47558 0.94858 0.0
C573 C 0.22698 0.48907 0.99768 0.0
C574 C 0.18123 0.45646 0.91354 0.0
C575 C 0.23275 0.4541 0.9201 0.0
H576 H 0.75112 0.08933 0.34233 0.0
H577 H 0.79419 0.13719 0.20538 0.0
H578 H 0.80378 0.05432 0.18096 0.0
H579 H 0.7962 0.96811 0.19745 0.0
H580 H 0.75164 0.92065 0.33414 0.0
H581 H 0.74661 0.0037 0.35969 0.0
C582 C 0.76286 0.08174 0.30719 0.0
C583 C 0.77168 0.1194 0.27569 0.0
C584 C 0.76793 0.03407 0.29328 0.0
C585 C 0.78706 0.10886 0.23034 0.0
C586 C 0.79249 0.06147 0.2163 0.0
C587 C 0.78578 0.97591 0.23295 0.0
C588 C 0.77411 0.93819 0.26376 0.0
C589 C 0.78249 0.02376 0.24733 0.0
C590 C 0.7606 0.94898 0.30963 0.0
C591 C 0.75769 0.99646 0.3243 0.0
H592 H 0.80348 0.98725 0.92555 0.0
H593 H 0.86344 0.00994 0.06533 0.0
H594 H 0.77904 0.01373 0.09501 0.0
H595 H 0.6881 0.00812 0.08147 0.0
H596 H 0.62878 0.98594 0.9413 0.0
H597 H 0.71319 0.98487 0.91169 0.0
C598 C 0.79816 0.99317 0.9625 0.0
C599 C 0.8397 0.99808 0.99317 0.0
C600 C 0.74963 0.99541 0.97931 0.0
C601 C 0.8321 0.00607 0.04092 0.0
C602 C 0.78384 0.00816 0.05796 0.0
C603 C 0.69359 0.00325 0.04441 0.0
C604 C 0.65208 0.99691 0.01376 0.0
C605 C 0.7423 0.00252 0.02749 0.0
C606 C 0.65997 0.99082 0.96578 0.0
C607 C 0.70825 0.99008 0.94874 0.0
H608 H 0.31624 0.58294 0.82961 0.0
H609 H 0.29408 0.61706 0.68451 0.0
H610 H 0.29953 0.53276 0.66296 0.0
H611 H 0.30276 0.44879 0.68602 0.0
H612 H 0.31818 0.41378 0.83158 0.0
H613 H 0.32373 0.4991 0.85234 0.0
C614 C 0.31345 0.57202 0.79321 0.0
C615 C 0.30471 0.60608 0.75868 0.0
C616 C 0.31504 0.52332 0.78125 0.0
C617 C 0.30059 0.59139 0.71172 0.0
C618 C 0.30365 0.54323 0.69939 0.0
C619 C 0.30816 0.45986 0.72222 0.0
C620 C 0.30989 0.42515 0.75726 0.0
C621 C 0.30971 0.50877 0.73395 0.0
C622 C 0.3164 0.43995 0.80404 0.0
C623 C 0.31953 0.48866 0.81592 0.0
H624 H 0.17545 0.55393 0.51386 0.0
H625 H 0.13544 0.43928 0.41556 0.0
H626 H 0.22213 0.43801 0.39207 0.0
H627 H 0.3092 0.46718 0.40093 0.0
H628 H 0.35056 0.57948 0.50121 0.0
H629 H 0.263 0.58469 0.52145 0.0
C630 C 0.18555 0.52906 0.48687 0.0
C631 C 0.14897 0.49675 0.46659 0.0
C632 C 0.23552 0.52836 0.47347 0.0
C633 C 0.16275 0.46468 0.43171 0.0
C634 C 0.21229 0.46394 0.41811 0.0
C635 C 0.2991 0.49318 0.42687 0.0
C636 C 0.33634 0.52282 0.44958 0.0
C637 C 0.24897 0.49534 0.43897 0.0
C638 C 0.32257 0.55616 0.48327 0.0
C639 C 0.27254 0.55911 0.49492 0.0
H640 H 0.71347 0.78235 0.93613 0.0
H641 H 0.86452 0.74089 0.95852 0.0
H642 H 0.85408 0.74596 0.04277 0.0
H643 H 0.80317 0.76366 0.10991 0.0
H644 H 0.65256 0.80625 0.0875 0.0
H645 H 0.6621 0.79945 0.00334 0.0
C646 C 0.74413 0.77426 0.95939 0.0
C647 C 0.78965 0.76117 0.94098 0.0
C648 C 0.73821 0.77774 0.00776 0.0
C649 C 0.82907 0.75109 0.97167 0.0
C650 C 0.82325 0.75406 0.01986 0.0
C651 C 0.77238 0.77138 0.08666 0.0
C652 C 0.72727 0.78547 0.10505 0.0
C653 C 0.77813 0.76759 0.03827 0.0
C654 C 0.68778 0.79543 0.07435 0.0
C655 C 0.69315 0.79152 0.02617 0.0
H656 H 0.4972 0.42324 0.29214 0.0
H657 H 0.54858 0.56949 0.32386 0.0
H658 H 0.56229 0.58425 0.24127 0.0
H659 H 0.55546 0.55693 0.15994 0.0
H660 H 0.50127 0.41149 0.12781 0.0
H661 H 0.49394 0.39474 0.21097 0.0
C662 C 0.51205 0.45811 0.2811 0.0
C663 C 0.52188 0.49511 0.31414 0.0
C664 C 0.5194 0.46647 0.23352 0.0
C665 C 0.54053 0.54037 0.29914 0.0
C666 C 0.54845 0.54885 0.25191 0.0
C667 C 0.54263 0.52137 0.17107 0.0
C668 C 0.52881 0.48556 0.13772 0.0
C669 C 0.53745 0.51233 0.21878 0.0
C670 C 0.512 0.43975 0.15279 0.0
C671 C 0.50765 0.43018 0.2003 0.0
H672 H 0.81632 0.29032 0.42587 0.0
H673 H 0.65714 0.26403 0.43968 0.0
H674 H 0.66722 0.25986 0.52401 0.0
H675 H 0.72097 0.25973 0.5934 0.0
H676 H 0.88045 0.28474 0.58086 0.0
H677 H 0.87011 0.29404 0.49666 0.0
C678 C 0.78383 0.28412 0.44737 0.0
C679 C 0.73604 0.27746 0.4264 0.0
C680 C 0.78984 0.28134 0.49608 0.0
C681 C 0.69434 0.26935 0.45483 0.0
C682 C 0.70001 0.26683 0.5031 0.0
C683 C 0.75358 0.26743 0.57237 0.0
C684 C 0.80138 0.27121 0.59345 0.0
C685 C 0.74759 0.27217 0.52403 0.0
C686 C 0.84315 0.28141 0.56558 0.0
C687 C 0.83738 0.28659 0.51736 0.0
H688 H 0.9352 0.41786 0.66967 0.0
H689 H 0.01641 0.54328 0.61656 0.0
H690 H 0.02657 0.5764 0.69529 0.0
H691 H 0.01582 0.56829 0.77917 0.0
H692 H 0.93608 0.44284 0.83334 0.0
H693 H 0.92173 0.41129 0.75411 0.0
C694 C 0.95485 0.45256 0.67527 0.0
C695 C 0.97516 0.47791 0.63722 0.0
C696 C 0.96097 0.47134 0.72078 0.0
C697 C 0.00057 0.52284 0.64516 0.0
C698 C 0.00644 0.54187 0.6902 0.0
C699 C 0.99485 0.53431 0.77372 0.0
C700 C 0.97702 0.5081 0.81215 0.0
C701 C 0.98726 0.51621 0.72825 0.0
C702 C 0.95025 0.46382 0.80438 0.0
C703 C 0.9421 0.4457 0.75908 0.0
H704 H 0.78862 0.00673 0.57017 0.0
H705 H 0.81836 0.93348 0.44134 0.0
H706 H 0.72965 0.9307 0.42006 0.0
H707 H 0.64485 0.95462 0.43519 0.0
H708 H 0.61617 0.0301 0.56307 0.0
H709 H 0.70339 0.02638 0.58743 0.0
C710 C 0.77575 0.98984 0.53754 0.0
C711 C 0.81015 0.97069 0.50726 0.0
C712 C 0.72494 0.98912 0.52511 0.0
C713 C 0.79271 0.94869 0.46525 0.0
C714 C 0.74201 0.94722 0.45294 0.0
C715 C 0.65754 0.96982 0.4686 0.0
C716 C 0.62409 0.99289 0.49707 0.0
C717 C 0.70795 0.96817 0.48217 0.0
C718 C 0.64119 0.01241 0.54028 0.0
C719 C 0.69108 0.01035 0.55427 0.0
loop_
_geom_bond_atom_site_label_1
_geom_bond_atom_site_label_2
_geom_bond_distance
_geom_bond_site_symmetry_2
_ccdc_geom_bond_type
C0 O1 1.160 . S
C0 O7 1.185 . S
O1 C0 1.160 . S
O2 Zn3 1.899 . S
O2 C10 1.284 . S
Zn3 O2 1.899 . S
Zn3 O4 2.032 . S
Zn3 O7 2.086 . S
Zn3 O12 1.977 . S
O4 Zn3 2.032 . S
O4 C8 1.278 . S
C5 O6 1.203 . S
C5 O12 1.267 . S
O6 C5 1.203 . S
O7 C0 1.185 . S
O7 Zn3 2.086 . S
C8 O4 1.278 . S
C8 O9 1.211 . S
O9 C8 1.211 . S
C10 O2 1.284 . S
C10 O11 1.273 . S
O11 C10 1.273 . S
O12 Zn3 1.977 . S
O12 C5 1.267 . S
C13 O14 1.160 1_455 S
C13 O20 1.185 . S
O14 C13 1.160 1_655 S
O15 Zn16 1.899 . S
O15 C23 1.284 1_545 S
Zn16 O15 1.899 . S
Zn16 O17 2.032 1_545 S
Zn16 O20 2.086 1_645 S
Zn16 O25 1.977 1_655 S
O17 Zn16 2.032 1_565 S
O17 C21 1.283 . S
C18 O19 1.203 . S
C18 O25 1.267 1_655 S
O19 C18 1.203 . S
O20 C13 1.185 . S
O20 Zn16 2.086 1_465 S
C21 O17 1.283 . S
C21 O22 1.201 1_565 S
O22 C21 1.201 1_545 S
C23 O15 1.284 1_565 S
C23 O24 1.272 1_565 S
O24 C23 1.272 1_545 S
O25 Zn16 1.977 1_455 S
O25 C18 1.267 1_455 S
C26 O27 1.160 . S
C26 O33 1.185 . S
O27 C26 1.160 . S
O28 Zn29 1.899 . S
O28 C36 1.284 . S
Zn29 O28 1.899 . S
Zn29 O30 2.032 . S
Zn29 O33 2.086 . S
Zn29 O38 1.977 . S
O30 Zn29 2.032 . S
O30 C34 1.278 . S
C31 O32 1.203 . S
C31 O38 1.267 . S
O32 C31 1.203 . S
O33 C26 1.185 . S
O33 Zn29 2.086 . S
C34 O30 1.278 . S
C34 O35 1.211 . S
O35 C34 1.211 . S
C36 O28 1.284 . S
C36 O37 1.273 . S
O37 C36 1.273 . S
O38 Zn29 1.977 . S
O38 C31 1.267 . S
C39 O40 1.160 . S
C39 O46 1.185 . S
O40 C39 1.160 . S
O41 Zn42 1.899 1_556 S
O41 C49 1.284 1_556 S
Zn42 O41 1.899 1_554 S
Zn42 O43 2.032 1_565 S
Zn42 O46 2.086 1_564 S
Zn42 O51 1.977 . S
O43 Zn42 2.032 1_545 S
O43 C47 1.278 1_545 S
C44 O45 1.203 . S
C44 O51 1.267 . S
O45 C44 1.203 . S
O46 C39 1.185 . S
O46 Zn42 2.086 1_546 S
C47 O43 1.278 1_565 S
C47 O48 1.211 . S
O48 C47 1.211 . S
C49 O41 1.284 1_554 S
C49 O50 1.273 . S
O50 C49 1.273 . S
O51 Zn42 1.977 . S
O51 C44 1.267 . S
C52 O53 1.160 . S
C52 O59 1.185 . S
O53 C52 1.160 . S
O54 Zn55 1.899 . S
O54 C62 1.284 . S
Zn55 O54 1.899 . S
Zn55 O56 2.032 . S
Zn55 O59 2.086 . S
Zn55 O64 1.977 . S
O56 Zn55 2.032 . S
O56 C60 1.278 . S
C57 O58 1.203 . S
C57 O64 1.267 . S
O58 C57 1.203 . S
O59 C52 1.185 . S
O59 Zn55 2.086 . S
C60 O56 1.278 . S
C60 O61 1.211 . S
O61 C60 1.211 . S
C62 O54 1.284 . S
C62 O63 1.273 . S
O63 C62 1.273 . S
O64 Zn55 1.977 . S
O64 C57 1.267 . S
C65 O66 1.160 1_565 S
C65 O72 1.185 . S
O66 C65 1.160 1_545 S
O67 Zn68 1.899 . S
O67 C75 1.284 . S
Zn68 O67 1.899 . S
Zn68 O69 2.032 . S
Zn68 O72 2.086 1_545 S
Zn68 O77 1.977 1_545 S
O69 Zn68 2.032 . S
O69 C73 1.278 . S
C70 O71 1.203 . S
C70 O77 1.267 1_545 S
O71 C70 1.203 . S
O72 C65 1.185 . S
O72 Zn68 2.086 1_565 S
C73 O69 1.278 . S
C73 O74 1.211 . S
O74 C73 1.211 . S
C75 O67 1.284 . S
C75 O76 1.273 . S
O76 C75 1.273 . S
O77 Zn68 1.977 1_565 S
O77 C70 1.267 1_565 S
C78 O79 1.160 . S
C78 O85 1.185 . S
O79 C78 1.160 . S
O80 Zn81 1.899 . S
O80 C88 1.284 . S
Zn81 O80 1.899 . S
Zn81 O82 2.032 . S
Zn81 O85 2.086 . S
Zn81 O90 1.977 . S
O82 Zn81 2.032 . S
O82 C86 1.278 . S
C83 O84 1.203 . S
C83 O90 1.267 . S
O84 C83 1.203 . S
O85 C78 1.185 . S
O85 Zn81 2.086 . S
C86 O82 1.278 . S
C86 O87 1.211 . S
O87 C86 1.211 . S
C88 O80 1.284 . S
C88 O89 1.273 . S
O89 C88 1.273 . S
O90 Zn81 1.977 . S
O90 C83 1.267 . S
C91 O92 1.160 1_545 S
C91 O98 1.185 1_554 S
O92 C91 1.160 1_565 S
O93 Zn94 1.899 1_455 S
O93 C101 1.284 1_455 S
Zn94 O93 1.899 1_655 S
Zn94 O95 2.032 . S
Zn94 O98 2.086 1_665 S
Zn94 O103 1.977 1_565 S
O95 Zn94 2.032 . S
O95 C99 1.278 . S
C96 O97 1.203 . S
C96 O103 1.267 1_565 S
O97 C96 1.203 . S
O98 C91 1.185 1_556 S
O98 Zn94 2.086 1_445 S
C99 O95 1.278 . S
C99 O100 1.211 . S
O100 C99 1.211 . S
C101 O93 1.284 1_655 S
C101 O102 1.273 . S
O102 C101 1.273 . S
O103 Zn94 1.977 1_545 S
O103 C96 1.267 1_545 S
C104 O105 1.160 . S
C104 O111 1.185 . S
O105 C104 1.160 . S
O106 Zn107 1.899 . S
O106 C114 1.284 . S
Zn107 O106 1.899 . S
Zn107 O108 2.032 . S
Zn107 O111 2.086 . S
Zn107 O116 1.977 . S
O108 Zn107 2.032 . S
O108 C112 1.278 . S
C109 O110 1.203 . S
C109 O116 1.267 . S
O110 C109 1.203 . S
O111 C104 1.185 . S
O111 Zn107 2.086 . S
C112 O108 1.278 . S
C112 O113 1.211 . S
O113 C112 1.211 . S
C114 O106 1.284 . S
C114 O115 1.273 . S
O115 C114 1.273 . S
O116 Zn107 1.977 . S
O116 C109 1.267 . S
C117 O118 1.160 . S
C117 O124 1.185 1_554 S
O118 C117 1.160 . S
O119 Zn120 1.899 1_655 S
O119 C127 1.284 1_655 S
Zn120 O119 1.899 1_455 S
Zn120 O121 2.032 . S
Zn120 O124 2.086 1_455 S
Zn120 O129 1.977 1_455 S
O121 Zn120 2.032 . S
O121 C125 1.278 . S
C122 O123 1.203 . S
C122 O129 1.267 1_455 S
O123 C122 1.203 . S
O124 C117 1.185 1_556 S
O124 Zn120 2.086 1_655 S
C125 O121 1.278 . S
C125 O126 1.211 . S
O126 C125 1.211 . S
C127 O119 1.284 1_455 S
C127 O128 1.273 . S
O128 C127 1.273 . S
O129 Zn120 1.977 1_655 S
O129 C122 1.267 1_655 S
C130 O131 1.160 . S
C130 O137 1.185 . S
O131 C130 1.160 . S
O132 Zn133 1.899 . S
O132 C140 1.284 . S
Zn133 O132 1.899 . S
Zn133 O134 2.032 . S
Zn133 O137 2.086 . S
Zn133 O142 1.977 . S
O134 Zn133 2.032 . S
O134 C138 1.278 . S
C135 O136 1.203 . S
C135 O142 1.267 . S
O136 C135 1.203 . S
O137 C130 1.185 . S
O137 Zn133 2.086 . S
C138 O134 1.278 . S
C138 O139 1.211 . S
O139 C138 1.211 . S
C140 O132 1.284 . S
C140 O141 1.273 . S
O141 C140 1.273 . S
O142 Zn133 1.977 . S
O142 C135 1.267 . S
C143 O144 1.160 1_655 S
C143 O150 1.185 . S
O144 C143 1.160 1_455 S
O145 Zn146 1.899 . S
O145 C153 1.284 . S
Zn146 O145 1.899 . S
Zn146 O147 2.032 . S
Zn146 O150 2.086 1_455 S
Zn146 O155 1.977 1_455 S
O147 Zn146 2.032 . S
O147 C151 1.278 . S
C148 O149 1.203 . S
C148 O155 1.267 1_455 S
O149 C148 1.203 . S
O150 C143 1.185 . S
O150 Zn146 2.086 1_655 S
C151 O147 1.278 . S
C151 O152 1.211 . S
O152 C151 1.211 . S
C153 O145 1.284 . S
C153 O154 1.273 . S
O154 C153 1.273 . S
O155 Zn146 1.977 1_655 S
O155 C148 1.267 1_655 S
C156 O157 1.160 . S
C156 O163 1.185 . S
O157 C156 1.160 . S
O158 Zn159 1.899 1_556 S
O158 C166 1.284 1_556 S
Zn159 O158 1.899 1_554 S
Zn159 O160 2.032 . S
Zn159 O163 2.086 1_554 S
Zn159 O168 1.977 . S
O160 Zn159 2.032 . S
O160 C164 1.278 . S
C161 O162 1.203 . S
C161 O168 1.267 . S
O162 C161 1.203 . S
O163 C156 1.185 . S
O163 Zn159 2.086 1_556 S
C164 O160 1.278 . S
C164 O165 1.211 . S
O165 C164 1.211 . S
C166 O158 1.284 1_554 S
C166 O167 1.273 . S
O167 C166 1.273 . S
O168 Zn159 1.977 . S
O168 C161 1.267 . S
C169 O170 1.160 . S
C169 O176 1.185 . S
O170 C169 1.160 . S
O171 Zn172 1.899 . S
O171 C179 1.284 . S
Zn172 O171 1.899 . S
Zn172 O173 2.032 . S
Zn172 O176 2.086 . S
Zn172 O181 1.977 . S
O173 Zn172 2.032 . S
O173 C177 1.278 . S
C174 O175 1.203 . S
C174 O181 1.267 . S
O175 C174 1.203 . S
O176 C169 1.185 . S
O176 Zn172 2.086 . S
C177 O173 1.278 . S
C177 O178 1.211 . S
O178 C177 1.211 . S
C179 O171 1.284 . S
C179 O180 1.273 . S
O180 C179 1.273 . S
O181 Zn172 1.977 . S
O181 C174 1.267 . S
C182 O183 1.160 . S
C182 O189 1.185 . S
O183 C182 1.160 . S
O184 Zn185 1.899 . S
O184 C192 1.284 . S
Zn185 O184 1.899 . S
Zn185 O186 2.032 . S
Zn185 O189 2.086 . S
Zn185 O194 1.977 . S
O186 Zn185 2.032 . S
O186 C190 1.278 . S
C187 O188 1.203 . S
C187 O194 1.267 . S
O188 C187 1.203 . S
O189 C182 1.185 . S
O189 Zn185 2.086 . S
C190 O186 1.278 . S
C190 O191 1.211 . S
O191 C190 1.211 . S
C192 O184 1.284 . S
C192 O193 1.273 . S
O193 C192 1.273 . S
O194 Zn185 1.977 . S
O194 C187 1.267 . S
C195 O196 1.160 . S
C195 O202 1.185 . S
O196 C195 1.160 . S
O197 Zn198 1.899 . S
O197 C205 1.284 . S
Zn198 O197 1.899 . S
Zn198 O199 2.032 . S
Zn198 O202 2.086 . S
Zn198 O207 1.977 . S
O199 Zn198 2.032 . S
O199 C203 1.278 . S
C200 O201 1.203 . S
C200 O207 1.267 . S
O201 C200 1.203 . S
O202 C195 1.185 . S
O202 Zn198 2.086 . S
C203 O199 1.278 . S
C203 O204 1.211 . S
O204 C203 1.211 . S
C205 O197 1.284 . S
C205 O206 1.273 . S
O206 C205 1.273 . S
O207 Zn198 1.977 . S
O207 C200 1.267 . S
H208 C214 0.930 . S
H209 C217 0.930 . S
H210 C218 0.930 . S
H211 C219 0.930 . S
H212 C222 0.930 . S
H213 C223 0.930 . S
C214 H208 0.930 . S
C214 C215 1.355 . S
C214 C216 1.415 . S
C215 C214 1.355 . S
C215 C217 1.419 . S
C216 C214 1.415 . S
C216 C221 1.425 . S
C216 C223 1.409 . S
C217 H209 0.930 . S
C217 C215 1.419 . S
C217 C218 1.362 . S
C218 H210 0.930 . S
C218 C217 1.362 . S
C218 C221 1.409 . S
C219 H211 0.930 . S
C219 C220 1.355 . S
C219 C221 1.415 . S
C220 C219 1.355 . S
C220 C222 1.419 . S
C221 C216 1.425 . S
C221 C218 1.409 . S
C221 C219 1.415 . S
C222 H212 0.930 . S
C222 C220 1.419 . S
C222 C223 1.362 . S
C223 H213 0.930 . S
C223 C216 1.409 . S
C223 C222 1.362 . S
H224 C230 0.930 . S
H225 C233 0.930 . S
H226 C234 0.930 . S
H227 C235 0.930 . S
H228 C238 0.930 . S
H229 C239 0.930 . S
C230 H224 0.930 . S
C230 C231 1.355 . S
C230 C232 1.415 . S
C231 C230 1.355 . S
C231 C233 1.419 . S
C232 C230 1.415 . S
C232 C237 1.425 . S
C232 C239 1.409 . S
C233 H225 0.930 . S
C233 C231 1.419 . S
C233 C234 1.362 . S
C234 H226 0.930 . S
C234 C233 1.362 . S
C234 C237 1.409 . S
C235 H227 0.930 . S
C235 C236 1.355 . S
C235 C237 1.415 . S
C236 C235 1.355 . S
C236 C238 1.419 . S
C237 C232 1.425 . S
C237 C234 1.409 . S
C237 C235 1.415 . S
C238 H228 0.930 . S
C238 C236 1.419 . S
C238 C239 1.362 . S
C239 H229 0.930 . S
C239 C232 1.409 . S
C239 C238 1.362 . S
H240 C246 0.930 . S
H241 C249 0.930 . S
H242 C250 0.930 . S
H243 C251 0.930 . S
H244 C254 0.930 . S
H245 C255 0.930 . S
C246 H240 0.930 . S
C246 C247 1.355 . S
C246 C248 1.415 . S
C247 C246 1.355 . S
C247 C249 1.419 . S
C248 C246 1.415 . S
C248 C253 1.425 . S
C248 C255 1.409 . S
C249 H241 0.930 . S
C249 C247 1.419 . S
C249 C250 1.362 . S
C250 H242 0.930 . S
C250 C249 1.362 . S
C250 C253 1.409 . S
C251 H243 0.930 . S
C251 C252 1.355 . S
C251 C253 1.415 . S
C252 C251 1.355 . S
C252 C254 1.419 . S
C253 C248 1.425 . S
C253 C250 1.409 . S
C253 C251 1.415 . S
C254 H244 0.930 . S
C254 C252 1.419 . S
C254 C255 1.362 . S
C255 H245 0.930 . S
C255 C248 1.409 . S
C255 C254 1.362 . S
H256 C262 0.930 . S
H257 C265 0.930 . S
H258 C266 0.930 . S
H259 C267 0.930 . S
H260 C270 0.930 . S
H261 C271 0.930 . S
C262 H256 0.930 . S
C262 C263 1.355 . S
C262 C264 1.415 . S
C263 C262 1.355 . S
C263 C265 1.419 . S
C264 C262 1.415 . S
C264 C269 1.425 . S
C264 C271 1.409 . S
C265 H257 0.930 . S
C265 C263 1.419 . S
C265 C266 1.362 . S
C266 H258 0.930 . S
C266 C265 1.362 . S
C266 C269 1.409 . S
C267 H259 0.930 . S
C267 C268 1.355 . S
C267 C269 1.415 . S
C268 C267 1.355 . S
C268 C270 1.419 . S
C269 C264 1.425 . S
C269 C266 1.409 . S
C269 C267 1.415 . S
C270 H260 0.930 . S
C270 C268 1.419 . S
C270 C271 1.362 . S
C271 H261 0.930 . S
C271 C264 1.409 . S
C271 C270 1.362 . S
H272 C278 0.930 . S
H273 C281 0.930 . S
H274 C282 0.930 . S
H275 C283 0.930 . S
H276 C286 0.930 . S
H277 C287 0.930 . S
C278 H272 0.930 . S
C278 C279 1.355 . S
C278 C280 1.415 . S
C279 C278 1.355 . S
C279 C281 1.419 . S
C280 C278 1.415 . S
C280 C285 1.425 . S
C280 C287 1.409 . S
C281 H273 0.930 . S
C281 C279 1.419 . S
C281 C282 1.362 . S
C282 H274 0.930 . S
C282 C281 1.362 . S
C282 C285 1.409 . S
C283 H275 0.930 . S
C283 C284 1.355 . S
C283 C285 1.415 . S
C284 C283 1.355 . S
C284 C286 1.419 . S
C285 C280 1.425 . S
C285 C282 1.409 . S
C285 C283 1.415 . S
C286 H276 0.930 . S
C286 C284 1.419 . S
C286 C287 1.362 . S
C287 H277 0.930 . S
C287 C280 1.409 . S
C287 C286 1.362 . S
H288 C294 0.930 . S
H289 C297 0.930 . S
H290 C298 0.930 . S
H291 C299 0.930 . S
H292 C302 0.930 . S
H293 C303 0.930 . S
C294 H288 0.930 . S
C294 C295 1.355 . S
C294 C296 1.415 . S
C295 C294 1.355 . S
C295 C297 1.419 . S
C296 C294 1.415 . S
C296 C301 1.425 . S
C296 C303 1.409 . S
C297 H289 0.930 . S
C297 C295 1.419 . S
C297 C298 1.362 . S
C298 H290 0.930 . S
C298 C297 1.362 . S
C298 C301 1.409 . S
C299 H291 0.930 . S
C299 C300 1.355 . S
C299 C301 1.415 . S
C300 C299 1.355 . S
C300 C302 1.419 . S
C301 C296 1.425 . S
C301 C298 1.409 . S
C301 C299 1.415 . S
C302 H292 0.930 . S
C302 C300 1.419 . S
C302 C303 1.362 . S
C303 H293 0.930 . S
C303 C296 1.409 . S
C303 C302 1.362 . S
H304 C310 0.930 . S
H305 C313 0.930 . S
H306 C314 0.930 . S
H307 C315 0.930 . S
H308 C318 0.930 . S
H309 C319 0.930 . S
C310 H304 0.930 . S
C310 C311 1.355 . S
C310 C312 1.415 . S
C311 C310 1.355 . S
C311 C313 1.419 . S
C312 C310 1.415 . S
C312 C317 1.425 . S
C312 C319 1.409 . S
C313 H305 0.930 . S
C313 C311 1.419 . S
C313 C314 1.362 . S
C314 H306 0.930 . S
C314 C313 1.362 . S
C314 C317 1.409 . S
C315 H307 0.930 . S
C315 C316 1.355 . S
C315 C317 1.415 . S
C316 C315 1.355 . S
C316 C318 1.419 . S
C317 C312 1.425 . S
C317 C314 1.409 . S
C317 C315 1.415 . S
C318 H308 0.930 . S
C318 C316 1.419 . S
C318 C319 1.362 . S
C319 H309 0.930 . S
C319 C312 1.409 . S
C319 C318 1.362 . S
H320 C326 0.930 . S
H321 C329 0.930 . S
H322 C330 0.930 . S
H323 C331 0.930 . S
H324 C334 0.930 . S
H325 C335 0.930 . S
C326 H320 0.930 . S
C326 C327 1.355 . S
C326 C328 1.415 . S
C327 C326 1.355 . S
C327 C329 1.419 . S
C328 C326 1.415 . S
C328 C333 1.425 . S
C328 C335 1.409 . S
C329 H321 0.930 . S
C329 C327 1.419 . S
C329 C330 1.362 . S
C330 H322 0.930 . S
C330 C329 1.362 . S
C330 C333 1.409 . S
C331 H323 0.930 . S
C331 C332 1.355 . S
C331 C333 1.415 . S
C332 C331 1.355 . S
C332 C334 1.419 . S
C333 C328 1.425 . S
C333 C330 1.409 . S
C333 C331 1.415 . S
C334 H324 0.930 . S
C334 C332 1.419 . S
C334 C335 1.362 . S
C335 H325 0.930 . S
C335 C328 1.409 . S
C335 C334 1.362 . S
H336 C342 0.930 . S
H337 C345 0.930 . S
H338 C346 0.930 . S
H339 C347 0.930 . S
H340 C350 0.930 . S
H341 C351 0.930 . S
C342 H336 0.930 . S
C342 C343 1.355 . S
C342 C344 1.415 . S
C343 C342 1.355 . S
C343 C345 1.419 . S
C344 C342 1.415 . S
C344 C349 1.425 . S
C344 C351 1.409 . S
C345 H337 0.930 . S
C345 C343 1.419 . S
C345 C346 1.362 . S
C346 H338 0.930 . S
C346 C345 1.362 . S
C346 C349 1.409 . S
C347 H339 0.930 . S
C347 C348 1.355 . S
C347 C349 1.415 . S
C348 C347 1.355 . S
C348 C350 1.419 . S
C349 C344 1.425 . S
C349 C346 1.409 . S
C349 C347 1.415 . S
C350 H340 0.930 . S
C350 C348 1.419 . S
C350 C351 1.362 . S
C351 H341 0.930 . S
C351 C344 1.409 . S
C351 C350 1.362 . S
H352 C358 0.930 . S
H353 C361 0.930 . S
H354 C362 0.930 . S
H355 C363 0.930 . S
H356 C366 0.930 . S
H357 C367 0.930 . S
C358 H352 0.930 . S
C358 C359 1.359 . S
C358 C360 1.415 . S
C359 C358 1.359 . S
C359 C361 1.414 1_665 S
C360 C358 1.415 . S
C360 C365 1.425 1_665 S
C360 C367 1.409 . S
C361 H353 0.930 . S
C361 C359 1.414 1_445 S
C361 C362 1.362 . S
C362 H354 0.930 . S
C362 C361 1.362 . S
C362 C365 1.409 . S
C363 H355 0.930 . S
C363 C364 1.355 1_445 S
C363 C365 1.415 . S
C364 C363 1.355 1_665 S
C364 C366 1.419 . S
C365 C360 1.425 1_445 S
C365 C362 1.409 . S
C365 C363 1.415 . S
C366 H356 0.930 . S
C366 C364 1.419 . S
C366 C367 1.362 . S
C367 H357 0.930 . S
C367 C360 1.409 . S
C367 C366 1.362 . S
H368 C374 0.930 . S
H369 C377 0.930 . S
H370 C378 0.930 . S
H371 C379 0.930 . S
H372 C382 0.930 . S
H373 C383 0.930 . S
C374 H368 0.930 . S
C374 C375 1.355 . S
C374 C376 1.415 1_556 S
C375 C374 1.355 . S
C375 C377 1.419 . S
C376 C374 1.415 1_554 S
C376 C381 1.425 . S
C376 C383 1.409 . S
C377 H369 0.930 . S
C377 C375 1.419 . S
C377 C378 1.362 . S
C378 H370 0.930 . S
C378 C377 1.362 . S
C378 C381 1.409 1_556 S
C379 H371 0.930 . S
C379 C380 1.355 . S
C379 C381 1.415 . S
C380 C379 1.355 . S
C380 C382 1.419 . S
C381 C376 1.425 . S
C381 C378 1.409 1_554 S
C381 C379 1.415 . S
C382 H372 0.930 . S
C382 C380 1.419 . S
C382 C383 1.362 . S
C383 H373 0.930 . S
C383 C376 1.409 . S
C383 C382 1.362 . S
H384 C390 0.930 . S
H385 C393 0.930 . S
H386 C394 0.930 . S
H387 C395 0.930 . S
H388 C398 0.930 . S
H389 C399 0.930 . S
C390 H384 0.930 . S
C390 C391 1.355 1_565 S
C390 C392 1.415 . S
C391 C390 1.355 1_545 S
C391 C393 1.419 . S
C392 C390 1.415 . S
C392 C397 1.425 1_565 S
C392 C399 1.409 . S
C393 H385 0.930 . S
C393 C391 1.419 . S
C393 C394 1.362 . S
C394 H386 0.930 . S
C394 C393 1.362 . S
C394 C397 1.409 . S
C395 H387 0.930 . S
C395 C396 1.355 . S
C395 C397 1.415 . S
C396 C395 1.355 . S
C396 C398 1.419 1_545 S
C397 C392 1.425 1_545 S
C397 C394 1.409 . S
C397 C395 1.415 . S
C398 H388 0.930 . S
C398 C396 1.419 1_565 S
C398 C399 1.362 . S
C399 H389 0.930 . S
C399 C392 1.409 . S
C399 C398 1.362 . S
H400 C406 0.930 . S
H401 C409 0.930 . S
H402 C410 0.930 . S
H403 C411 0.930 . S
H404 C414 0.930 . S
H405 C415 0.930 . S
C406 H400 0.930 . S
C406 C407 1.355 . S
C406 C408 1.415 . S
C407 C406 1.355 . S
C407 C409 1.419 . S
C408 C406 1.415 . S
C408 C413 1.425 . S
C408 C415 1.409 . S
C409 H401 0.930 . S
C409 C407 1.419 . S
C409 C410 1.362 . S
C410 H402 0.930 . S
C410 C409 1.362 . S
C410 C413 1.409 . S
C411 H403 0.930 . S
C411 C412 1.355 . S
C411 C413 1.415 . S
C412 C411 1.355 . S
C412 C414 1.419 . S
C413 C408 1.425 . S
C413 C410 1.409 . S
C413 C411 1.415 . S
C414 H404 0.930 . S
C414 C412 1.419 . S
C414 C415 1.362 . S
C415 H405 0.930 . S
C415 C408 1.409 . S
C415 C414 1.362 . S
H416 C422 0.930 . S
H417 C425 0.930 . S
H418 C426 0.930 . S
H419 C427 0.930 . S
H420 C430 0.930 . S
H421 C431 0.930 . S
C422 H416 0.930 . S
C422 C423 1.355 . S
C422 C424 1.415 . S
C423 C422 1.355 . S
C423 C425 1.419 1_655 S
C424 C422 1.415 . S
C424 C429 1.425 1_655 S
C424 C431 1.409 . S
C425 H417 0.930 . S
C425 C423 1.419 1_455 S
C425 C426 1.362 . S
C426 H418 0.930 . S
C426 C425 1.362 . S
C426 C429 1.409 . S
C427 H419 0.930 . S
C427 C428 1.355 1_455 S
C427 C429 1.415 . S
C428 C427 1.355 1_655 S
C428 C430 1.419 . S
C429 C424 1.425 1_455 S
C429 C426 1.409 . S
C429 C427 1.415 . S
C430 H420 0.930 . S
C430 C428 1.419 . S
C430 C431 1.362 . S
C431 H421 0.930 . S
C431 C424 1.409 . S
C431 C430 1.362 . S
H432 C438 0.930 . S
H433 C441 0.930 . S
H434 C442 0.930 . S
H435 C443 0.930 . S
H436 C446 0.930 . S
H437 C447 0.930 . S
C438 H432 0.930 . S
C438 C439 1.355 . S
C438 C440 1.415 . S
C439 C438 1.355 . S
C439 C441 1.419 . S
C440 C438 1.415 . S
C440 C445 1.425 1_655 S
C440 C447 1.409 1_655 S
C441 H433 0.930 . S
C441 C439 1.419 . S
C441 C442 1.362 . S
C442 H434 0.930 . S
C442 C441 1.362 . S
C442 C445 1.409 1_655 S
C443 H435 0.930 . S
C443 C444 1.355 . S
C443 C445 1.415 . S
C444 C443 1.355 . S
C444 C446 1.419 . S
C445 C440 1.425 1_455 S
C445 C442 1.409 1_455 S
C445 C443 1.415 . S
C446 H436 0.930 . S
C446 C444 1.419 . S
C446 C447 1.362 . S
C447 H437 0.930 . S
C447 C440 1.409 1_455 S
C447 C446 1.362 . S
H448 C454 0.930 . S
H449 C457 0.930 . S
H450 C458 0.930 . S
H451 C459 0.930 . S
H452 C462 0.930 . S
H453 C463 0.930 . S
C454 H448 0.930 . S
C454 C455 1.355 1_556 S
C454 C456 1.415 1_556 S
C455 C454 1.355 1_554 S
C455 C457 1.419 . S
C456 C454 1.415 1_554 S
C456 C461 1.425 . S
C456 C463 1.409 1_554 S
C457 H449 0.930 . S
C457 C455 1.419 . S
C457 C458 1.362 . S
C458 H450 0.930 . S
C458 C457 1.362 . S
C458 C461 1.409 . S
C459 H451 0.930 . S
C459 C460 1.355 . S
C459 C461 1.415 . S
C460 C459 1.355 . S
C460 C462 1.419 1_554 S
C461 C456 1.425 . S
C461 C458 1.409 . S
C461 C459 1.415 . S
C462 H452 0.930 . S
C462 C460 1.419 1_556 S
C462 C463 1.362 . S
C463 H453 0.930 . S
C463 C456 1.409 1_556 S
C463 C462 1.362 . S
H464 C470 0.930 . S
H465 C473 0.930 . S
H466 C474 0.930 . S
H467 C475 0.930 . S
H468 C478 0.930 . S
H469 C479 0.930 . S
C470 H464 0.930 . S
C470 C471 1.355 . S
C470 C472 1.415 . S
C471 C470 1.355 . S
C471 C473 1.419 . S
C472 C470 1.415 . S
C472 C477 1.425 . S
C472 C479 1.409 . S
C473 H465 0.930 . S
C473 C471 1.419 . S
C473 C474 1.362 . S
C474 H466 0.930 . S
C474 C473 1.362 . S
C474 C477 1.409 . S
C475 H467 0.930 . S
C475 C476 1.355 . S
C475 C477 1.415 . S
C476 C475 1.355 . S
C476 C478 1.419 . S
C477 C472 1.425 . S
C477 C474 1.409 . S
C477 C475 1.415 . S
C478 H468 0.930 . S
C478 C476 1.419 . S
C478 C479 1.362 . S
C479 H469 0.930 . S
C479 C472 1.409 . S
C479 C478 1.362 . S
H480 C486 0.930 . S
H481 C489 0.930 . S
H482 C490 0.930 . S
H483 C491 0.930 . S
H484 C494 0.930 . S
H485 C495 0.930 . S
C486 H480 0.930 . S
C486 C487 1.355 . S
C486 C488 1.415 . S
C487 C486 1.355 . S
C487 C489 1.419 . S
C488 C486 1.415 . S
C488 C493 1.425 . S
C488 C495 1.409 . S
C489 H481 0.930 . S
C489 C487 1.419 . S
C489 C490 1.362 . S
C490 H482 0.930 . S
C490 C489 1.362 . S
C490 C493 1.409 . S
C491 H483 0.930 . S
C491 C492 1.355 . S
C491 C493 1.415 . S
C492 C491 1.355 . S
C492 C494 1.419 . S
C493 C488 1.425 . S
C493 C490 1.409 . S
C493 C491 1.415 . S
C494 H484 0.930 . S
C494 C492 1.419 . S
C494 C495 1.362 . S
C495 H485 0.930 . S
C495 C488 1.409 . S
C495 C494 1.362 . S
H496 C502 0.930 . S
H497 C505 0.930 . S
H498 C506 0.930 . S
H499 C507 0.930 . S
H500 C510 0.930 . S
H501 C511 0.930 . S
C502 H496 0.930 . S
C502 C503 1.355 . S
C502 C504 1.415 . S
C503 C502 1.355 . S
C503 C505 1.419 . S
C504 C502 1.415 . S
C504 C509 1.425 1_455 S
C504 C511 1.409 1_455 S
C505 H497 0.930 . S
C505 C503 1.419 . S
C505 C506 1.362 . S
C506 H498 0.930 . S
C506 C505 1.362 . S
C506 C509 1.409 1_455 S
C507 H499 0.930 . S
C507 C508 1.355 . S
C507 C509 1.415 . S
C508 C507 1.355 . S
C508 C510 1.419 . S
C509 C504 1.425 1_655 S
C509 C506 1.409 1_655 S
C509 C507 1.415 . S
C510 H500 0.930 . S
C510 C508 1.419 . S
C510 C511 1.362 . S
C511 H501 0.930 . S
C511 C504 1.409 1_655 S
C511 C510 1.362 . S
H512 C518 0.930 . S
H513 C521 0.930 . S
H514 C522 0.930 . S
H515 C523 0.930 1_554 S
H516 C526 0.930 . S
H517 C527 0.930 . S
C518 H512 0.930 . S
C518 C519 1.355 . S
C518 C520 1.415 . S
C519 C518 1.355 . S
C519 C521 1.419 1_456 S
C520 C518 1.415 . S
C520 C525 1.425 1_455 S
C520 C527 1.409 . S
C521 H513 0.930 . S
C521 C519 1.419 1_654 S
C521 C522 1.362 . S
C522 H514 0.930 . S
C522 C521 1.362 . S
C522 C525 1.409 1_554 S
C523 H515 0.930 1_556 S
C523 C524 1.355 . S
C523 C525 1.415 . S
C524 C523 1.355 . S
C524 C526 1.419 1_655 S
C525 C520 1.425 1_655 S
C525 C522 1.409 1_556 S
C525 C523 1.415 . S
C526 H516 0.930 . S
C526 C524 1.419 1_455 S
C526 C527 1.362 . S
C527 H517 0.930 . S
C527 C520 1.409 . S
C527 C526 1.362 . S
H528 C534 0.930 . S
H529 C537 0.930 . S
H530 C538 0.930 . S
H531 C539 0.930 . S
H532 C542 0.930 . S
H533 C543 0.930 . S
C534 H528 0.930 . S
C534 C535 1.355 . S
C534 C536 1.415 . S
C535 C534 1.355 . S
C535 C537 1.419 . S
C536 C534 1.415 . S
C536 C541 1.425 . S
C536 C543 1.409 . S
C537 H529 0.930 . S
C537 C535 1.419 . S
C537 C538 1.362 . S
C538 H530 0.930 . S
C538 C537 1.362 . S
C538 C541 1.409 . S
C539 H531 0.930 . S
C539 C540 1.355 . S
C539 C541 1.415 . S
C540 C539 1.355 . S
C540 C542 1.419 . S
C541 C536 1.425 . S
C541 C538 1.409 . S
C541 C539 1.415 . S
C542 H532 0.930 . S
C542 C540 1.419 . S
C542 C543 1.362 . S
C543 H533 0.930 . S
C543 C536 1.409 . S
C543 C542 1.362 . S
H544 C550 0.930 . S
H545 C553 0.930 . S
H546 C554 0.930 . S
H547 C555 0.930 . S
H548 C558 0.930 . S
H549 C559 0.930 . S
C550 H544 0.930 . S
C550 C551 1.355 . S
C550 C552 1.415 . S
C551 C550 1.355 . S
C551 C553 1.419 . S
C552 C550 1.415 . S
C552 C557 1.425 1_545 S
C552 C559 1.409 1_545 S
C553 H545 0.930 . S
C553 C551 1.419 . S
C553 C554 1.362 . S
C554 H546 0.930 . S
C554 C553 1.362 . S
C554 C557 1.409 1_545 S
C555 H547 0.930 . S
C555 C556 1.355 . S
C555 C557 1.415 . S
C556 C555 1.355 . S
C556 C558 1.419 . S
C557 C552 1.425 1_565 S
C557 C554 1.409 1_565 S
C557 C555 1.415 . S
C558 H548 0.930 . S
C558 C556 1.419 . S
C558 C559 1.362 . S
C559 H549 0.930 . S
C559 C552 1.409 1_565 S
C559 C558 1.362 . S
H560 C566 0.930 . S
H561 C569 0.930 . S
H562 C570 0.930 . S
H563 C571 0.930 . S
H564 C574 0.930 . S
H565 C575 0.930 . S
C566 H560 0.930 . S
C566 C567 1.355 . S
C566 C568 1.415 . S
C567 C566 1.355 . S
C567 C569 1.419 1_556 S
C568 C566 1.415 . S
C568 C573 1.425 1_556 S
C568 C575 1.409 . S
C569 H561 0.930 . S
C569 C567 1.419 1_554 S
C569 C570 1.362 . S
C570 H562 0.930 . S
C570 C569 1.362 . S
C570 C573 1.409 . S
C571 H563 0.930 . S
C571 C572 1.355 1_554 S
C571 C573 1.415 . S
C572 C571 1.355 1_556 S
C572 C574 1.419 . S
C573 C568 1.425 1_554 S
C573 C570 1.409 . S
C573 C571 1.415 . S
C574 H564 0.930 . S
C574 C572 1.419 . S
C574 C575 1.362 . S
C575 H565 0.930 . S
C575 C568 1.409 . S
C575 C574 1.362 . S
H576 C582 0.930 . S
H577 C585 0.930 . S
H578 C586 0.930 . S
H579 C587 0.930 . S
H580 C590 0.930 . S
H581 C591 0.930 1_545 S
C582 H576 0.930 . S
C582 C583 1.355 . S
C582 C584 1.415 . S
C583 C582 1.355 . S
C583 C585 1.419 . S
C584 C582 1.415 . S
C584 C589 1.425 . S
C584 C591 1.409 1_545 S
C585 H577 0.930 . S
C585 C583 1.419 . S
C585 C586 1.362 . S
C586 H578 0.930 . S
C586 C585 1.362 . S
C586 C589 1.409 . S
C587 H579 0.930 . S
C587 C588 1.355 . S
C587 C589 1.415 1_565 S
C588 C587 1.355 . S
C588 C590 1.419 . S
C589 C584 1.425 . S
C589 C586 1.409 . S
C589 C587 1.415 1_545 S
C590 H580 0.930 . S
C590 C588 1.419 . S
C590 C591 1.362 . S
C591 H581 0.930 1_565 S
C591 C584 1.409 1_565 S
C591 C590 1.362 . S
H592 C598 0.930 . S
H593 C601 0.930 . S
H594 C602 0.930 . S
H595 C603 0.930 . S
H596 C606 0.930 . S
H597 C607 0.930 . S
C598 H592 0.930 . S
C598 C599 1.355 1_545 S
C598 C600 1.415 . S
C599 C598 1.355 1_565 S
C599 C601 1.419 1_556 S
C600 C598 1.415 . S
C600 C605 1.425 1_546 S
C600 C607 1.409 . S
C601 H593 0.930 . S
C601 C599 1.419 1_554 S
C601 C602 1.362 . S
C602 H594 0.930 . S
C602 C601 1.362 . S
C602 C605 1.409 . S
C603 H595 0.930 . S
C603 C604 1.355 1_554 S
C603 C605 1.415 . S
C604 C603 1.355 1_556 S
C604 C606 1.419 1_565 S
C605 C600 1.425 1_564 S
C605 C602 1.409 . S
C605 C603 1.415 . S
C606 H596 0.930 . S
C606 C604 1.419 1_545 S
C606 C607 1.362 . S
C607 H597 0.930 . S
C607 C600 1.409 . S
C607 C606 1.362 . S
H608 C614 0.930 . S
H609 C617 0.930 . S
H610 C618 0.930 . S
H611 C619 0.930 . S
H612 C622 0.930 . S
H613 C623 0.930 . S
C614 H608 0.930 . S
C614 C615 1.355 . S
C614 C616 1.415 . S
C615 C614 1.355 . S
C615 C617 1.419 . S
C616 C614 1.415 . S
C616 C621 1.425 . S
C616 C623 1.409 . S
C617 H609 0.930 . S
C617 C615 1.419 . S
C617 C618 1.362 . S
C618 H610 0.930 . S
C618 C617 1.362 . S
C618 C621 1.409 . S
C619 H611 0.930 . S
C619 C620 1.355 . S
C619 C621 1.415 . S
C620 C619 1.355 . S
C620 C622 1.419 . S
C621 C616 1.425 . S
C621 C618 1.409 . S
C621 C619 1.415 . S
C622 H612 0.930 . S
C622 C620 1.419 . S
C622 C623 1.362 . S
C623 H613 0.930 . S
C623 C616 1.409 . S
C623 C622 1.362 . S
H624 C630 0.930 . S
H625 C633 0.930 . S
H626 C634 0.930 . S
H627 C635 0.930 . S
H628 C638 0.930 . S
H629 C639 0.930 . S
C630 H624 0.930 . S
C630 C631 1.355 . S
C630 C632 1.415 . S
C631 C630 1.355 . S
C631 C633 1.419 . S
C632 C630 1.415 . S
C632 C637 1.425 . S
C632 C639 1.409 . S
C633 H625 0.930 . S
C633 C631 1.419 . S
C633 C634 1.362 . S
C634 H626 0.930 . S
C634 C633 1.362 . S
C634 C637 1.409 . S
C635 H627 0.930 . S
C635 C636 1.355 . S
C635 C637 1.415 . S
C636 C635 1.355 . S
C636 C638 1.419 . S
C637 C632 1.425 . S
C637 C634 1.409 . S
C637 C635 1.415 . S
C638 H628 0.930 . S
C638 C636 1.419 . S
C638 C639 1.362 . S
C639 H629 0.930 . S
C639 C632 1.409 . S
C639 C638 1.362 . S
H640 C646 0.930 . S
H641 C649 0.930 . S
H642 C650 0.930 1_554 S
H643 C651 0.930 . S
H644 C654 0.930 . S
H645 C655 0.930 . S
C646 H640 0.930 . S
C646 C647 1.355 . S
C646 C648 1.415 1_556 S
C647 C646 1.355 . S
C647 C649 1.419 . S
C648 C646 1.415 1_554 S
C648 C653 1.425 . S
C648 C655 1.409 . S
C649 H641 0.930 . S
C649 C647 1.419 . S
C649 C650 1.362 . S
C650 H642 0.930 1_556 S
C650 C649 1.362 . S
C650 C653 1.409 1_556 S
C651 H643 0.930 . S
C651 C652 1.355 . S
C651 C653 1.415 . S
C652 C651 1.355 . S
C652 C654 1.419 . S
C653 C648 1.425 . S
C653 C650 1.409 1_554 S
C653 C651 1.415 . S
C654 H644 0.930 . S
C654 C652 1.419 . S
C654 C655 1.362 . S
C655 H645 0.930 . S
C655 C648 1.409 . S
C655 C654 1.362 . S
H656 C662 0.930 . S
H657 C665 0.930 . S
H658 C666 0.930 . S
H659 C667 0.930 . S
H660 C670 0.930 . S
H661 C671 0.930 . S
C662 H656 0.930 . S
C662 C663 1.355 . S
C662 C664 1.415 . S
C663 C662 1.355 . S
C663 C665 1.419 . S
C664 C662 1.415 . S
C664 C669 1.425 . S
C664 C671 1.409 . S
C665 H657 0.930 . S
C665 C663 1.419 . S
C665 C666 1.362 . S
C666 H658 0.930 . S
C666 C665 1.362 . S
C666 C669 1.409 . S
C667 H659 0.930 . S
C667 C668 1.355 . S
C667 C669 1.415 . S
C668 C667 1.355 . S
C668 C670 1.419 . S
C669 C664 1.425 . S
C669 C666 1.409 . S
C669 C667 1.415 . S
C670 H660 0.930 . S
C670 C668 1.419 . S
C670 C671 1.362 . S
C671 H661 0.930 . S
C671 C664 1.409 . S
C671 C670 1.362 . S
H672 C678 0.930 . S
H673 C681 0.930 . S
H674 C682 0.930 . S
H675 C683 0.930 . S
H676 C686 0.930 . S
H677 C687 0.930 . S
C678 H672 0.930 . S
C678 C679 1.355 . S
C678 C680 1.415 . S
C679 C678 1.355 . S
C679 C681 1.419 . S
C680 C678 1.415 . S
C680 C685 1.425 . S
C680 C687 1.409 . S
C681 H673 0.930 . S
C681 C679 1.419 . S
C681 C682 1.362 . S
C682 H674 0.930 . S
C682 C681 1.362 . S
C682 C685 1.409 . S
C683 H675 0.930 . S
C683 C684 1.355 . S
C683 C685 1.415 . S
C684 C683 1.355 . S
C684 C686 1.419 . S
C685 C680 1.425 . S
C685 C682 1.409 . S
C685 C683 1.415 . S
C686 H676 0.930 . S
C686 C684 1.419 . S
C686 C687 1.362 . S
C687 H677 0.930 . S
C687 C680 1.409 . S
C687 C686 1.362 . S
H688 C694 0.930 . S
H689 C697 0.930 . S
H690 C698 0.930 . S
H691 C699 0.930 . S
H692 C702 0.930 . S
H693 C703 0.930 . S
C694 H688 0.930 . S
C694 C695 1.355 1_655 S
C694 C696 1.415 . S
C695 C694 1.355 1_455 S
C695 C697 1.419 . S
C696 C694 1.415 . S
C696 C701 1.425 1_655 S
C696 C703 1.409 . S
C697 H689 0.930 . S
C697 C695 1.419 . S
C697 C698 1.362 . S
C698 H690 0.930 . S
C698 C697 1.362 . S
C698 C701 1.409 . S
C699 H691 0.930 . S
C699 C700 1.355 1_455 S
C699 C701 1.415 . S
C700 C699 1.355 1_655 S
C700 C702 1.419 . S
C701 C696 1.425 1_455 S
C701 C698 1.409 . S
C701 C699 1.415 . S
C702 H692 0.930 . S
C702 C700 1.419 . S
C702 C703 1.362 . S
C703 H693 0.930 . S
C703 C696 1.409 . S
C703 C702 1.362 . S
H704 C710 0.930 . S
H705 C713 0.930 . S
H706 C714 0.930 . S
H707 C715 0.930 . S
H708 C718 0.930 . S
H709 C719 0.930 . S
C710 H704 0.930 . S
C710 C711 1.355 1_565 S
C710 C712 1.415 . S
C711 C710 1.355 1_545 S
C711 C713 1.419 . S
C712 C710 1.415 . S
C712 C717 1.425 1_565 S
C712 C719 1.409 . S
C713 H705 0.930 . S
C713 C711 1.419 . S
C713 C714 1.362 . S
C714 H706 0.930 . S
C714 C713 1.362 . S
C714 C717 1.409 . S
C715 H707 0.930 . S
C715 C716 1.355 . S
C715 C717 1.415 . S
C716 C715 1.355 . S
C716 C718 1.419 1_545 S
C717 C712 1.425 1_545 S
C717 C714 1.409 . S
C717 C715 1.415 . S
C718 H708 0.930 . S
C718 C716 1.419 1_565 S
C718 C719 1.362 . S
C719 H709 0.930 . S
C719 C712 1.409 . S
C719 C718 1.362 . S
C215 C0 1.700 . S
C220 C91 1.687 . S
C231 C13 1.647 . S
C236 C52 1.660 . S
C247 C65 1.647 . S
C252 C26 1.676 . S
C263 C39 1.660 . S
C268 C78 1.633 . S
C279 C104 1.633 . S
C284 C156 1.647 . S
C295 C117 1.662 . S
C300 C182 1.635 . S
C311 C143 1.664 . S
C316 C130 1.633 . S
C327 C195 1.716 . S
C332 C169 1.647 . S
C343 C5 1.176 . S
C348 C88 1.184 . S
C359 C96 1.219 . S
C364 C21 1.196 . S
C375 C31 1.167 . S
C380 C57 1.207 . S
C391 C70 1.187 . S
C396 C47 1.197 1_545 S
C407 C10 1.281 . S
C412 C192 1.281 . S
C423 C148 1.152 1_655 S
C428 C18 1.179 . S
C439 C179 1.239 . S
C444 C36 1.237 . S
C455 C161 1.251 . S
C460 C44 1.247 . S
C471 C138 1.254 . S
C476 C62 1.268 . S
C487 C75 1.244 . S
C492 C205 1.243 . S
C503 C86 1.191 . S
C508 C114 1.231 . S
C519 C101 1.236 1_455 S
C524 C127 1.238 1_655 S
C535 C8 1.157 . S
C540 C60 1.147 . S
C551 C112 1.149 . S
C556 C177 1.161 . S
C567 C166 1.164 1_556 S
C572 C125 1.139 . S
C583 C190 1.159 . S
C588 C135 1.143 . S
C599 C99 1.280 . S
C604 C49 1.297 1_556 S
C615 C34 1.185 . S
C620 C83 1.178 . S
C631 C153 1.285 . S
C636 C203 1.278 . S
C647 C174 1.166 . S
C652 C140 1.178 . S
C663 C200 1.204 . S
C668 C164 1.170 . S
C679 C187 1.160 . S
C684 C109 1.191 . S
C695 C151 1.221 . S
C700 C122 1.251 1_655 S
C711 C23 1.236 1_545 S
C716 C73 1.232 . S
