# Generated by pormake.
# Topology unw, (4)-cn, num edge types: 1
# Building blocks:
#     Node 0, Type 0, BuildingBlock: KOZSID_clean_sbu_0, # of connection points: 4
#     Node 1, Type 0, BuildingBlock: KOZSID_clean_sbu_0, # of connection points: 4
#     Node 2, Type 0, BuildingBlock: KOZSID_clean_sbu_0, # of connection points: 4
#     Node 3, Type 0, BuildingBlock: KOZSID_clean_sbu_0, # of connection points: 4
#     Node 4, Type 0, BuildingBlock: KOZSID_clean_sbu_0, # of connection points: 4
#     Node 5, Type 0, BuildingBlock: KOZSID_clean_sbu_0, # of connection points: 4
#     Node 6, Type 0, BuildingBlock: KOZSID_clean_sbu_0, # of connection points: 4
#     Node 7, Type 0, BuildingBlock: KOZSID_clean_sbu_0, # of connection points: 4
#     Node 8, Type 0, BuildingBlock: KOZSID_clean_sbu_0, # of connection points: 4
#     Node 9, Type 0, BuildingBlock: KOZSID_clean_sbu_0, # of connection points: 4
#     Node 10, Type 0, BuildingBlock: KOZSID_clean_sbu_0, # of connection points: 4
#     Node 11, Type 0, BuildingBlock: KOZSID_clean_sbu_0, # of connection points: 4
#     Node 12, Type 0, BuildingBlock: KOZSID_clean_sbu_0, # of connection points: 4
#     Node 13, Type 0, BuildingBlock: KOZSID_clean_sbu_0, # of connection points: 4
#     Node 14, Type 0, BuildingBlock: KOZSID_clean_sbu_0, # of connection points: 4
#     Node 15, Type 0, BuildingBlock: KOZSID_clean_sbu_0, # of connection points: 4
#     Node 16, Type 0, BuildingBlock: KOZSID_clean_sbu_0, # of connection points: 4
#     Node 17, Type 0, BuildingBlock: KOZSID_clean_sbu_0, # of connection points: 4
#     Node 18, Type 0, BuildingBlock: KOZSID_clean_sbu_0, # of connection points: 4
#     Node 19, Type 0, BuildingBlock: KOZSID_clean_sbu_0, # of connection points: 4
#     Node 20, Type 0, BuildingBlock: KOZSID_clean_sbu_0, # of connection points: 4
#     Node 21, Type 0, BuildingBlock: KOZSID_clean_sbu_0, # of connection points: 4
#     Node 22, Type 0, BuildingBlock: KOZSID_clean_sbu_0, # of connection points: 4
#     Node 23, Type 0, BuildingBlock: KOZSID_clean_sbu_0, # of connection points: 4
#     Edge 24, Type (0, 0), BuildingBlock: EZIPEK_clean_linker_0, # of connection points: 2
#     Edge 25, Type (0, 0), BuildingBlock: EZIPEK_clean_linker_0, # of connection points: 2
#     Edge 26, Type (0, 0), BuildingBlock: EZIPEK_clean_linker_0, # of connection points: 2
#     Edge 27, Type (0, 0), BuildingBlock: EZIPEK_clean_linker_0, # of connection points: 2
#     Edge 28, Type (0, 0), BuildingBlock: EZIPEK_clean_linker_0, # of connection points: 2
#     Edge 29, Type (0, 0), BuildingBlock: EZIPEK_clean_linker_0, # of connection points: 2
#     Edge 30, Type (0, 0), BuildingBlock: EZIPEK_clean_linker_0, # of connection points: 2
#     Edge 31, Type (0, 0), BuildingBlock: EZIPEK_clean_linker_0, # of connection points: 2
#     Edge 32, Type (0, 0), BuildingBlock: EZIPEK_clean_linker_0, # of connection points: 2
#     Edge 33, Type (0, 0), BuildingBlock: EZIPEK_clean_linker_0, # of connection points: 2
#     Edge 34, Type (0, 0), BuildingBlock: EZIPEK_clean_linker_0, # of connection points: 2
#     Edge 35, Type (0, 0), BuildingBlock: EZIPEK_clean_linker_0, # of connection points: 2
#     Edge 36, Type (0, 0), BuildingBlock: EZIPEK_clean_linker_0, # of connection points: 2
#     Edge 37, Type (0, 0), BuildingBlock: EZIPEK_clean_linker_0, # of connection points: 2
#     Edge 38, Type (0, 0), BuildingBlock: EZIPEK_clean_linker_0, # of connection points: 2
#     Edge 39, Type (0, 0), BuildingBlock: EZIPEK_clean_linker_0, # of connection points: 2
#     Edge 40, Type (0, 0), BuildingBlock: EZIPEK_clean_linker_0, # of connection points: 2
#     Edge 41, Type (0, 0), BuildingBlock: EZIPEK_clean_linker_0, # of connection points: 2
#     Edge 42, Type (0, 0), BuildingBlock: EZIPEK_clean_linker_0, # of connection points: 2
#     Edge 43, Type (0, 0), BuildingBlock: EZIPEK_clean_linker_0, # of connection points: 2
#     Edge 44, Type (0, 0), BuildingBlock: EZIPEK_clean_linker_0, # of connection points: 2
#     Edge 45, Type (0, 0), BuildingBlock: EZIPEK_clean_linker_0, # of connection points: 2
#     Edge 46, Type (0, 0), BuildingBlock: EZIPEK_clean_linker_0, # of connection points: 2
#     Edge 47, Type (0, 0), BuildingBlock: EZIPEK_clean_linker_0, # of connection points: 2
#     Edge 48, Type (0, 0), BuildingBlock: EZIPEK_clean_linker_0, # of connection points: 2
#     Edge 49, Type (0, 0), BuildingBlock: EZIPEK_clean_linker_0, # of connection points: 2
#     Edge 50, Type (0, 0), BuildingBlock: EZIPEK_clean_linker_0, # of connection points: 2
#     Edge 51, Type (0, 0), BuildingBlock: EZIPEK_clean_linker_0, # of connection points: 2
#     Edge 52, Type (0, 0), BuildingBlock: EZIPEK_clean_linker_0, # of connection points: 2
#     Edge 53, Type (0, 0), BuildingBlock: EZIPEK_clean_linker_0, # of connection points: 2
#     Edge 54, Type (0, 0), BuildingBlock: EZIPEK_clean_linker_0, # of connection points: 2
#     Edge 55, Type (0, 0), BuildingBlock: EZIPEK_clean_linker_0, # of connection points: 2
#     Edge 56, Type (0, 0), BuildingBlock: EZIPEK_clean_linker_0, # of connection points: 2
#     Edge 57, Type (0, 0), BuildingBlock: EZIPEK_clean_linker_0, # of connection points: 2
#     Edge 58, Type (0, 0), BuildingBlock: EZIPEK_clean_linker_0, # of connection points: 2
#     Edge 59, Type (0, 0), BuildingBlock: EZIPEK_clean_linker_0, # of connection points: 2
#     Edge 60, Type (0, 0), BuildingBlock: EZIPEK_clean_linker_0, # of connection points: 2
#     Edge 61, Type (0, 0), BuildingBlock: EZIPEK_clean_linker_0, # of connection points: 2
#     Edge 62, Type (0, 0), BuildingBlock: EZIPEK_clean_linker_0, # of connection points: 2
#     Edge 63, Type (0, 0), BuildingBlock: EZIPEK_clean_linker_0, # of connection points: 2
#     Edge 64, Type (0, 0), BuildingBlock: EZIPEK_clean_linker_0, # of connection points: 2
#     Edge 65, Type (0, 0), BuildingBlock: EZIPEK_clean_linker_0, # of connection points: 2
#     Edge 66, Type (0, 0), BuildingBlock: EZIPEK_clean_linker_0, # of connection points: 2
#     Edge 67, Type (0, 0), BuildingBlock: EZIPEK_clean_linker_0, # of connection points: 2
#     Edge 68, Type (0, 0), BuildingBlock: EZIPEK_clean_linker_0, # of connection points: 2
#     Edge 69, Type (0, 0), BuildingBlock: EZIPEK_clean_linker_0, # of connection points: 2
#     Edge 70, Type (0, 0), BuildingBlock: EZIPEK_clean_linker_0, # of connection points: 2
#     Edge 71, Type (0, 0), BuildingBlock: EZIPEK_clean_linker_0, # of connection points: 2
# Relax obj value: 0.349
# Max RMSD: 0.301
# Mean RMSD: 0.271
data_MOF--net-unw--node1-KOZSID_clean_sbu_0--edge1-EZIPEK_clean_linker_0
_symmetry_space_group_name_H-M    P1
_symmetry_Int_Tables_number       1
_symmetry_cell_setting            triclinic
loop_
_symmetry_equiv_pos_as_xyz
'x, y, z'
_cell_length_a     49.32687
_cell_length_b     39.949447
_cell_length_c     42.410931
_cell_angle_alpha  90.023342
_cell_angle_beta   90.646596
_cell_angle_gamma 89.923957
loop_
_atom_site_label
_atom_site_type_symbol
_atom_site_fract_x
_atom_site_fract_y
_atom_site_fract_z
_atom_type_partial_charge
C0 C 0.14115 0.43301 0.2117 0.0
C1 C 0.13553 0.42474 0.18053 0.0
C2 C 0.12375 0.39378 0.18061 0.0
C3 C 0.12354 0.38391 0.21157 0.0
N4 N 0.13377 0.40743 0.23142 0.0
Co5 Co 0.14652 0.39951 0.27605 0.0
N6 N 0.14267 0.34995 0.27226 0.0
C7 C 0.13054 0.33316 0.24836 0.0
C8 C 0.13204 0.29902 0.2518 0.0
C9 C 0.14631 0.29393 0.2793 0.0
C10 C 0.15275 0.32536 0.29105 0.0
N11 N 0.16065 0.39241 0.3199 0.0
C12 C 0.16988 0.36399 0.33385 0.0
C13 C 0.18051 0.3704 0.36366 0.0
C14 C 0.17812 0.40416 0.36849 0.0
C15 C 0.16634 0.41644 0.3414 0.0
N16 N 0.15055 0.44918 0.27932 0.0
C17 C 0.1558 0.46688 0.30578 0.0
C18 C 0.15818 0.50065 0.30039 0.0
C19 C 0.15527 0.50442 0.26843 0.0
C20 C 0.1516 0.47259 0.25603 0.0
N21 N 0.10831 0.40138 0.29308 0.0
C22 C 0.06126 0.3829 0.32754 0.0
C23 C 0.07947 0.40691 0.33918 0.0
C24 C 0.10261 0.41565 0.32179 0.0
C25 C 0.06545 0.3716 0.29676 0.0
C26 C 0.08808 0.38231 0.27972 0.0
N27 N 0.18371 0.39567 0.26022 0.0
C28 C 0.23171 0.40714 0.26335 0.0
C29 C 0.23575 0.38847 0.23589 0.0
C30 C 0.21375 0.37292 0.22145 0.0
C31 C 0.18819 0.37671 0.23392 0.0
C32 C 0.20543 0.41003 0.27543 0.0
H33 H 0.17232 0.36378 0.22195 0.0
H34 H 0.20272 0.425 0.29619 0.0
H35 H 0.11576 0.43343 0.33253 0.0
H36 H 0.08892 0.37407 0.25602 0.0
C37 C 0.12222 0.35009 0.22085 0.0
C38 C 0.154 0.46496 0.22211 0.0
C39 C 0.16972 0.33086 0.31912 0.0
C40 C 0.16364 0.45047 0.33368 0.0
H41 H 0.14081 0.43833 0.15952 0.0
H42 H 0.119 0.37864 0.16011 0.0
H43 H 0.12501 0.28009 0.2354 0.0
H44 H 0.15217 0.26992 0.28907 0.0
H45 H 0.18967 0.35267 0.37986 0.0
H46 H 0.18538 0.41824 0.38868 0.0
H47 H 0.16368 0.51988 0.31726 0.0
H48 H 0.15782 0.52752 0.25547 0.0
H49 H 0.07644 0.41796 0.36221 0.0
H50 H 0.05131 0.35431 0.28578 0.0
H51 H 0.24853 0.41955 0.27505 0.0
H52 H 0.21631 0.35792 0.20038 0.0
C53 C 0.62329 0.09685 0.31255 0.0
C54 C 0.61172 0.09755 0.34218 0.0
C55 C 0.59978 0.12854 0.34535 0.0
C56 C 0.60494 0.14551 0.31781 0.0
N57 N 0.61893 0.12647 0.29749 0.0
Co58 Co 0.63568 0.14223 0.25806 0.0
N59 N 0.63606 0.18944 0.27175 0.0
C60 C 0.62297 0.20183 0.29684 0.0
C61 C 0.63357 0.23209 0.3062 0.0
C62 C 0.6541 0.239 0.28543 0.0
C63 C 0.65424 0.21329 0.26336 0.0
N64 N 0.65112 0.15667 0.21788 0.0
C65 C 0.661 0.18687 0.20987 0.0
C66 C 0.66333 0.18925 0.17727 0.0
C67 C 0.6555 0.15885 0.16496 0.0
C68 C 0.64824 0.13991 0.19051 0.0
N69 N 0.63692 0.09485 0.24539 0.0
C70 C 0.63783 0.08315 0.21577 0.0
C71 C 0.64045 0.04881 0.21498 0.0
C72 C 0.64144 0.03872 0.2461 0.0
C73 C 0.63931 0.06751 0.26412 0.0
N74 N 0.59956 0.14861 0.23806 0.0
C75 C 0.5522 0.15916 0.2016 0.0
C76 C 0.55689 0.12832 0.21678 0.0
C77 C 0.58068 0.12363 0.23521 0.0
C78 C 0.57113 0.18457 0.20588 0.0
C79 C 0.59441 0.17889 0.2239 0.0
N80 N 0.67166 0.13837 0.27754 0.0
C81 C 0.72024 0.13794 0.27262 0.0
C82 C 0.72284 0.15001 0.30354 0.0
C83 C 0.69985 0.15356 0.32179 0.0
C84 C 0.67463 0.1477 0.30847 0.0
C85 C 0.69423 0.13242 0.25991 0.0
H86 H 0.65763 0.15338 0.32299 0.0
H87 H 0.69231 0.12411 0.23576 0.0
H88 H 0.58411 0.09973 0.24651 0.0
H89 H 0.60873 0.19911 0.22515 0.0
C90 C 0.60727 0.18061 0.31592 0.0
C91 C 0.639 0.06869 0.2989 0.0
C92 C 0.66924 0.21278 0.23292 0.0
C93 C 0.64177 0.10551 0.19053 0.0
H94 H 0.61295 0.07864 0.36034 0.0
H95 H 0.59138 0.1388 0.36677 0.0
H96 H 0.62868 0.24608 0.32724 0.0
H97 H 0.66748 0.26033 0.28691 0.0
H98 H 0.67031 0.21049 0.1638 0.0
H99 H 0.65569 0.15133 0.14045 0.0
H100 H 0.64298 0.03315 0.19439 0.0
H101 H 0.6438 0.01333 0.2546 0.0
H102 H 0.54243 0.1081 0.21426 0.0
H103 H 0.5682 0.20873 0.19472 0.0
H104 H 0.73793 0.13453 0.25807 0.0
H105 H 0.70126 0.16279 0.3458 0.0
C106 C 0.89621 0.56274 0.20786 0.0
C107 C 0.90348 0.57281 0.17784 0.0
C108 C 0.91264 0.60511 0.18039 0.0
C109 C 0.90985 0.61381 0.21154 0.0
N110 N 0.90061 0.58805 0.22909 0.0
Co111 Co 0.88631 0.59142 0.273 0.0
N112 N 0.8829 0.64103 0.27111 0.0
C113 C 0.89047 0.66068 0.24691 0.0
C114 C 0.88275 0.69348 0.2506 0.0
C115 C 0.86893 0.69439 0.27851 0.0
C116 C 0.86925 0.66205 0.29044 0.0
N117 N 0.87301 0.59339 0.31713 0.0
C118 C 0.86296 0.61947 0.33365 0.0
C119 C 0.85692 0.6103 0.36432 0.0
C120 C 0.86311 0.577 0.36699 0.0
C121 C 0.8726 0.56783 0.33794 0.0
N122 N 0.88773 0.54144 0.27368 0.0
C123 C 0.88416 0.5213 0.29876 0.0
C124 C 0.88434 0.48788 0.29115 0.0
C125 C 0.8869 0.48687 0.25899 0.0
C126 C 0.8882 0.51981 0.24895 0.0
N127 N 0.92454 0.59556 0.29108 0.0
C128 C 0.97124 0.61172 0.32873 0.0
C129 C 0.95869 0.58033 0.33086 0.0
C130 C 0.93568 0.57278 0.31192 0.0
C131 C 0.96133 0.63348 0.30565 0.0
C132 C 0.93891 0.6247 0.28689 0.0
N133 N 0.84863 0.59021 0.25582 0.0
C134 C 0.80001 0.58727 0.26322 0.0
C135 C 0.79558 0.60236 0.23379 0.0
C136 C 0.81765 0.60915 0.21503 0.0
C137 C 0.84359 0.60367 0.22653 0.0
C138 C 0.82681 0.58121 0.27376 0.0
H139 H 0.85907 0.61279 0.21167 0.0
H140 H 0.82969 0.56964 0.29648 0.0
H141 H 0.92726 0.54847 0.31494 0.0
H142 H 0.93356 0.64265 0.26959 0.0
C143 C 0.90401 0.64688 0.22089 0.0
C144 C 0.88375 0.52999 0.21603 0.0
C145 C 0.85654 0.65214 0.32017 0.0
C146 C 0.87753 0.53491 0.32812 0.0
H147 H 0.90061 0.55972 0.15585 0.0
H148 H 0.9168 0.62177 0.16091 0.0
H149 H 0.88614 0.71409 0.23458 0.0
H150 H 0.85952 0.71624 0.2888 0.0
H151 H 0.848 0.62577 0.38242 0.0
H152 H 0.85981 0.56105 0.38721 0.0
H153 H 0.88094 0.46693 0.30677 0.0
H154 H 0.88569 0.46479 0.24427 0.0
H155 H 0.9663 0.56189 0.34747 0.0
H156 H 0.9709 0.65757 0.30207 0.0
H157 H 0.78312 0.58158 0.27839 0.0
H158 H 0.81495 0.6212 0.19229 0.0
C159 C 0.38559 0.93093 0.3123 0.0
C160 C 0.40016 0.93226 0.34035 0.0
C161 C 0.41332 0.90181 0.34334 0.0
C162 C 0.40628 0.8835 0.31689 0.0
N163 N 0.38997 0.90113 0.29755 0.0
Co164 Co 0.37205 0.88387 0.25905 0.0
N165 N 0.37461 0.83675 0.2726 0.0
C166 C 0.39008 0.8255 0.29672 0.0
C167 C 0.38204 0.79415 0.30618 0.0
C168 C 0.36076 0.78541 0.28645 0.0
C169 C 0.35752 0.81126 0.26482 0.0
N170 N 0.35455 0.86842 0.21987 0.0
C171 C 0.34539 0.83765 0.21222 0.0
C172 C 0.34175 0.83506 0.17968 0.0
C173 C 0.34776 0.86581 0.16712 0.0
C174 C 0.35549 0.88515 0.19237 0.0
N175 N 0.36837 0.93117 0.24651 0.0
C176 C 0.36522 0.9425 0.2169 0.0
C177 C 0.35868 0.97595 0.21618 0.0
C178 C 0.35745 0.9859 0.24722 0.0
C179 C 0.36375 0.95801 0.26545 0.0
N180 N 0.40763 0.87858 0.23757 0.0
C181 C 0.45773 0.86346 0.20839 0.0
C182 C 0.43595 0.84148 0.20675 0.0
C183 C 0.41168 0.84914 0.22152 0.0
C184 C 0.45394 0.89387 0.22486 0.0
C185 C 0.42858 0.90108 0.23915 0.0
N186 N 0.33711 0.88587 0.28042 0.0
C187 C 0.28825 0.88695 0.27917 0.0
C188 C 0.28779 0.87155 0.30897 0.0
C189 C 0.31209 0.86581 0.32481 0.0
C190 C 0.33625 0.87303 0.31028 0.0
C191 C 0.31339 0.89401 0.2652 0.0
H192 H 0.35431 0.86668 0.32316 0.0
H193 H 0.31374 0.90421 0.24161 0.0
H194 H 0.39639 0.83015 0.22033 0.0
H195 H 0.42606 0.9243 0.25191 0.0
C196 C 0.40577 0.84814 0.31509 0.0
C197 C 0.36659 0.95721 0.30044 0.0
C198 C 0.34058 0.81056 0.23525 0.0
C199 C 0.36091 0.91972 0.19205 0.0
H200 H 0.4 0.95228 0.35754 0.0
H201 H 0.42424 0.89292 0.36397 0.0
H202 H 0.38919 0.7804 0.32663 0.0
H203 H 0.34903 0.76268 0.28818 0.0
H204 H 0.33555 0.81327 0.16631 0.0
H205 H 0.34637 0.87318 0.1426 0.0
H206 H 0.35311 0.99072 0.19571 0.0
H207 H 0.3518 0.01062 0.25508 0.0
H208 H 0.43793 0.81766 0.19473 0.0
H209 H 0.47043 0.9116 0.22699 0.0
H210 H 0.26957 0.89176 0.2663 0.0
H211 H 0.3125 0.85415 0.3479 0.0
C212 C 0.10937 0.5554 0.79128 0.0
C213 C 0.09663 0.56176 0.81971 0.0
C214 C 0.08228 0.59121 0.81598 0.0
C215 C 0.08723 0.6021 0.78581 0.0
N216 N 0.10347 0.58062 0.77052 0.0
Co217 Co 0.12302 0.59016 0.73111 0.0
N218 N 0.12023 0.63882 0.73635 0.0
C219 C 0.10239 0.65454 0.75496 0.0
C220 C 0.10585 0.68868 0.75452 0.0
C221 C 0.12691 0.69438 0.73411 0.0
C222 C 0.13511 0.66332 0.72299 0.0
N223 N 0.14306 0.59754 0.69171 0.0
C224 C 0.1557 0.62536 0.68143 0.0
C225 C 0.16646 0.62009 0.65171 0.0
C226 C 0.16002 0.58778 0.64328 0.0
C227 C 0.14569 0.57514 0.66819 0.0
N228 N 0.12513 0.54124 0.72613 0.0
C229 C 0.12813 0.52447 0.69899 0.0
C230 C 0.12849 0.49031 0.70363 0.0
C231 C 0.12578 0.48577 0.73571 0.0
C232 C 0.12386 0.51747 0.74876 0.0
N233 N 0.08865 0.59175 0.70626 0.0
C234 C 0.03941 0.60507 0.67401 0.0
C235 C 0.04088 0.58023 0.69761 0.0
C236 C 0.0659 0.57368 0.71329 0.0
C237 C 0.06303 0.62187 0.66634 0.0
C238 C 0.08695 0.61529 0.68275 0.0
N239 N 0.15723 0.5924 0.75578 0.0
C240 C 0.20596 0.59828 0.75702 0.0
C241 C 0.20443 0.61597 0.78541 0.0
C242 C 0.17963 0.6187 0.80021 0.0
C243 C 0.15643 0.60749 0.78487 0.0
C244 C 0.18201 0.587 0.74234 0.0
H245 H 0.13783 0.61446 0.79576 0.0
H246 H 0.18354 0.57495 0.71966 0.0
H247 H 0.06664 0.55502 0.73174 0.0
H248 H 0.10373 0.63096 0.67709 0.0
C249 C 0.08679 0.63609 0.77661 0.0
C250 C 0.12609 0.52536 0.78257 0.0
C251 C 0.15528 0.65774 0.69791 0.0
C252 C 0.13743 0.54162 0.67223 0.0
H253 H 0.09824 0.54826 0.84158 0.0
H254 H 0.07228 0.60504 0.83448 0.0
H255 H 0.0952 0.70715 0.76837 0.0
H256 H 0.13509 0.71861 0.72804 0.0
H257 H 0.17732 0.63791 0.63739 0.0
H258 H 0.1656 0.57492 0.62185 0.0
H259 H 0.1327 0.47113 0.68632 0.0
H260 H 0.12701 0.46225 0.7483 0.0
H261 H 0.02285 0.56672 0.70435 0.0
H262 H 0.06275 0.64145 0.64863 0.0
H263 H 0.22517 0.59546 0.74517 0.0
H264 H 0.17782 0.6324 0.82216 0.0
C265 C 0.38744 0.08472 0.70702 0.0
C266 C 0.40712 0.08301 0.68402 0.0
C267 C 0.42253 0.11164 0.68708 0.0
C268 C 0.41146 0.12917 0.71177 0.0
N269 N 0.39029 0.11307 0.72436 0.0
Co270 Co 0.36702 0.12976 0.75856 0.0
N271 N 0.37803 0.17658 0.75134 0.0
C272 C 0.40076 0.18629 0.73664 0.0
C273 C 0.4037 0.22049 0.73637 0.0
C274 C 0.38156 0.23281 0.75206 0.0
C275 C 0.36627 0.20534 0.76103 0.0
N276 N 0.34259 0.14579 0.79199 0.0
C277 C 0.3326 0.17686 0.79695 0.0
C278 C 0.31544 0.17698 0.82274 0.0
C279 C 0.31539 0.145 0.83456 0.0
C280 C 0.33227 0.12709 0.81533 0.0
N281 N 0.35668 0.08264 0.76588 0.0
C282 C 0.34549 0.07032 0.79225 0.0
C283 C 0.33735 0.03768 0.78868 0.0
C284 C 0.3435 0.02925 0.75823 0.0
C285 C 0.35569 0.0571 0.74483 0.0
N286 N 0.39746 0.12657 0.78967 0.0
C287 C 0.44546 0.13692 0.82533 0.0
C288 C 0.42213 0.15534 0.8313 0.0
C289 C 0.39872 0.15001 0.81331 0.0
C290 C 0.44382 0.11114 0.80275 0.0
C291 C 0.41942 0.10596 0.78555 0.0
N292 N 0.33719 0.135 0.72805 0.0
C293 C 0.28944 0.13252 0.71562 0.0
C294 C 0.29325 0.15364 0.68972 0.0
C295 C 0.31955 0.16341 0.68217 0.0
C296 C 0.34124 0.1536 0.70145 0.0
C297 C 0.31171 0.12362 0.73465 0.0
H298 H 0.36122 0.16211 0.69538 0.0
H299 H 0.30813 0.10886 0.75546 0.0
H300 H 0.38236 0.1669 0.81747 0.0
H301 H 0.41888 0.08658 0.7678 0.0
C302 C 0.41606 0.16308 0.71917 0.0
C303 C 0.36641 0.05913 0.71241 0.0
C304 C 0.34181 0.20715 0.78049 0.0
C305 C 0.33525 0.09221 0.81506 0.0
H306 H 0.40966 0.06351 0.66658 0.0
H307 H 0.43874 0.11961 0.67183 0.0
H308 H 0.41951 0.23485 0.7252 0.0
H309 H 0.37725 0.25893 0.75659 0.0
H310 H 0.30453 0.19805 0.83245 0.0
H311 H 0.30373 0.13575 0.85418 0.0
H312 H 0.3258 0.02284 0.80512 0.0
H313 H 0.33843 0.00567 0.74724 0.0
H314 H 0.4225 0.17546 0.84845 0.0
H315 H 0.4615 0.0961 0.79757 0.0
H316 H 0.26927 0.12446 0.722 0.0
H317 H 0.32319 0.17949 0.6621 0.0
C318 C 0.87244 0.44646 0.78519 0.0
C319 C 0.88455 0.44284 0.81469 0.0
C320 C 0.89963 0.41376 0.81392 0.0
C321 C 0.89555 0.4002 0.78442 0.0
N322 N 0.87912 0.41964 0.76667 0.0
Co323 Co 0.86055 0.40545 0.72718 0.0
N324 N 0.8646 0.35749 0.73648 0.0
C325 C 0.88254 0.34442 0.75712 0.0
C326 C 0.88015 0.3102 0.75933 0.0
C327 C 0.85965 0.30157 0.73851 0.0
C328 C 0.85067 0.33106 0.72457 0.0
N329 N 0.84151 0.39322 0.6876 0.0
C330 C 0.82997 0.36387 0.67899 0.0
C331 C 0.81961 0.36589 0.64847 0.0
C332 C 0.82513 0.39766 0.63781 0.0
C333 C 0.83856 0.41326 0.66228 0.0
N334 N 0.85654 0.45368 0.71851 0.0
C335 C 0.85297 0.46772 0.69003 0.0
C336 C 0.85024 0.50199 0.69197 0.0
C337 C 0.85191 0.50956 0.72367 0.0
C338 C 0.85553 0.47944 0.73933 0.0
N339 N 0.89554 0.40317 0.70404 0.0
C340 C 0.94565 0.38968 0.67429 0.0
C341 C 0.92274 0.37057 0.66784 0.0
C342 C 0.89844 0.37735 0.68293 0.0
C343 C 0.94294 0.41669 0.69557 0.0
C344 C 0.91757 0.42319 0.71004 0.0
N345 N 0.82606 0.40421 0.74996 0.0
C346 C 0.77729 0.39984 0.7496 0.0
C347 C 0.77819 0.38635 0.78004 0.0
C348 C 0.80289 0.38401 0.79582 0.0
C349 C 0.82644 0.39208 0.7802 0.0
C350 C 0.80158 0.40878 0.73494 0.0
H351 H 0.84492 0.38579 0.79224 0.0
H352 H 0.80055 0.41877 0.71133 0.0
H353 H 0.88229 0.36021 0.67816 0.0
H354 H 0.91598 0.44359 0.72668 0.0
C355 C 0.8971 0.36556 0.77792 0.0
C356 C 0.85503 0.4751 0.77399 0.0
C357 C 0.83093 0.33308 0.69806 0.0
C358 C 0.84514 0.44755 0.66427 0.0
H359 H 0.88182 0.45798 0.83544 0.0
H360 H 0.90945 0.40186 0.83393 0.0
H361 H 0.89114 0.29362 0.7751 0.0
H362 H 0.85239 0.27648 0.73389 0.0
H363 H 0.80952 0.34633 0.63516 0.0
H364 H 0.81939 0.40831 0.61524 0.0
H365 H 0.84527 0.51913 0.673 0.0
H366 H 0.84929 0.53399 0.73421 0.0
H367 H 0.92387 0.34935 0.65197 0.0
H368 H 0.96031 0.43211 0.7014 0.0
H369 H 0.75823 0.40192 0.73682 0.0
H370 H 0.8042 0.37311 0.8192 0.0
C371 C 0.62485 0.93579 0.69018 0.0
C372 C 0.61027 0.9378 0.66216 0.0
C373 C 0.59241 0.91133 0.662 0.0
C374 C 0.59713 0.8945 0.68984 0.0
N375 N 0.61634 0.90934 0.70788 0.0
Co376 Co 0.63362 0.89016 0.74669 0.0
N377 N 0.61693 0.84553 0.74003 0.0
C378 C 0.59566 0.83885 0.72079 0.0
C379 C 0.5886 0.80555 0.72127 0.0
C380 C 0.60654 0.79055 0.74195 0.0
C381 C 0.62365 0.81556 0.75293 0.0
N382 N 0.6534 0.87129 0.78379 0.0
C383 C 0.65791 0.839 0.79176 0.0
C384 C 0.67464 0.83663 0.81828 0.0
C385 C 0.68072 0.86868 0.82725 0.0
C386 C 0.66768 0.88867 0.80562 0.0
N387 N 0.64962 0.93531 0.75394 0.0
C388 C 0.66123 0.94639 0.78088 0.0
C389 C 0.67145 0.97823 0.7783 0.0
C390 C 0.66655 0.98751 0.7477 0.0
C391 C 0.65352 0.96074 0.73329 0.0
N392 N 0.60102 0.90099 0.77362 0.0
C393 C 0.55245 0.88359 0.80576 0.0
C394 C 0.57732 0.88647 0.8219 0.0
C395 C 0.60113 0.89459 0.80553 0.0
C396 C 0.55192 0.89505 0.77448 0.0
C397 C 0.57594 0.90559 0.7598 0.0
N398 N 0.66423 0.87687 0.7201 0.0
C399 C 0.71194 0.87113 0.70921 0.0
C400 C 0.70593 0.85022 0.68337 0.0
C401 C 0.67894 0.84381 0.67597 0.0
C402 C 0.65865 0.85775 0.69402 0.0
C403 C 0.69069 0.88389 0.72763 0.0
H404 H 0.63838 0.85206 0.68684 0.0
H405 H 0.69562 0.89901 0.74796 0.0
H406 H 0.61938 0.89404 0.81925 0.0
H407 H 0.57373 0.91598 0.7367 0.0
C408 C 0.58726 0.86248 0.6979 0.0
C409 C 0.64657 0.95941 0.69963 0.0
C410 C 0.64623 0.81018 0.77527 0.0
C411 C 0.66929 0.92356 0.8041 0.0
H412 H 0.61275 0.95607 0.64357 0.0
H413 H 0.57878 0.90415 0.64301 0.0
H414 H 0.57335 0.79322 0.70687 0.0
H415 H 0.60739 0.76419 0.74776 0.0
H416 H 0.68179 0.81416 0.82994 0.0
H417 H 0.69361 0.87641 0.84674 0.0
H418 H 0.68337 0.99182 0.79564 0.0
H419 H 0.67307 0.01064 0.73693 0.0
H420 H 0.57878 0.88011 0.84669 0.0
H421 H 0.53313 0.89532 0.76104 0.0
H422 H 0.73277 0.8767 0.71555 0.0
H423 H 0.67349 0.82786 0.65621 0.0
C424 C 0.30605 0.08573 0.38532 0.0
C425 C 0.32889 0.0832 0.40444 0.0
C426 C 0.32933 0.11126 0.423 0.0
C427 C 0.30676 0.12936 0.41428 0.0
N428 N 0.29146 0.11393 0.39199 0.0
Co429 Co 0.25943 0.13353 0.3688 0.0
N430 N 0.26549 0.17913 0.38734 0.0
C431 C 0.28415 0.18729 0.40964 0.0
C432 C 0.28343 0.22046 0.41801 0.0
C433 C 0.26308 0.23421 0.4 0.0
C434 C 0.25248 0.20856 0.38163 0.0
N435 N 0.22785 0.15254 0.34468 0.0
C436 C 0.21834 0.18435 0.34287 0.0
C437 C 0.19556 0.18642 0.32341 0.0
C438 C 0.19045 0.1548 0.31272 0.0
C439 C 0.21033 0.1353 0.32612 0.0
N440 N 0.25398 0.08783 0.34996 0.0
C441 C 0.23279 0.07781 0.33185 0.0
C442 C 0.23598 0.04633 0.31948 0.0
C443 C 0.26107 0.03604 0.32939 0.0
C444 C 0.27182 0.06186 0.34743 0.0
N445 N 0.23411 0.12392 0.40484 0.0
C446 C 0.19264 0.14107 0.44819 0.0
C447 C 0.18681 0.12243 0.42087 0.0
C448 C 0.20769 0.11424 0.39964 0.0
C449 C 0.22009 0.14573 0.45562 0.0
C450 C 0.24024 0.13564 0.4345 0.0
N451 N 0.28368 0.14524 0.33374 0.0
C452 C 0.29136 0.15272 0.27807 0.0
C453 C 0.3146 0.17164 0.28462 0.0
C454 C 0.32297 0.17545 0.31583 0.0
C455 C 0.30746 0.16185 0.33986 0.0
C456 C 0.27621 0.13972 0.30297 0.0
H457 H 0.31467 0.16593 0.36331 0.0
H458 H 0.25811 0.12616 0.2971 0.0
H459 H 0.2018 0.10133 0.37865 0.0
H460 H 0.26061 0.13919 0.44213 0.0
C461 C 0.3026 0.16335 0.42134 0.0
C462 C 0.29971 0.06165 0.35996 0.0
C463 C 0.22985 0.21323 0.35938 0.0
C464 C 0.21344 0.10091 0.3213 0.0
H465 H 0.34429 0.06389 0.40388 0.0
H466 H 0.34538 0.11882 0.43909 0.0
H467 H 0.29629 0.2332 0.435 0.0
H468 H 0.25667 0.26013 0.40036 0.0
H469 H 0.18375 0.20849 0.31762 0.0
H470 H 0.17424 0.14699 0.29697 0.0
H471 H 0.22266 0.03355 0.30298 0.0
H472 H 0.27086 0.0129 0.32268 0.0
H473 H 0.16606 0.11586 0.41503 0.0
H474 H 0.22605 0.15789 0.47746 0.0
H475 H 0.28445 0.14911 0.25398 0.0
H476 H 0.34102 0.18969 0.32168 0.0
C477 C 0.90232 0.2057 0.43908 0.0
C478 C 0.91827 0.17793 0.43305 0.0
C479 C 0.93358 0.18563 0.40694 0.0
C480 C 0.92611 0.2176 0.39822 0.0
N481 N 0.90726 0.23032 0.41759 0.0
Co482 Co 0.88654 0.27248 0.41071 0.0
N483 N 0.89585 0.2749 0.36577 0.0
C484 C 0.91652 0.25857 0.35209 0.0
C485 C 0.91749 0.26476 0.3202 0.0
C486 C 0.89624 0.28627 0.31381 0.0
C487 C 0.88341 0.29218 0.34222 0.0
N488 N 0.8642 0.31332 0.40511 0.0
C489 C 0.85464 0.32754 0.37837 0.0
C490 C 0.8403 0.35664 0.38486 0.0
C491 C 0.84118 0.36076 0.41696 0.0
C492 C 0.85589 0.33402 0.42819 0.0
N493 N 0.87761 0.27042 0.45601 0.0
C494 C 0.86941 0.2961 0.4741 0.0
C495 C 0.86425 0.28654 0.5046 0.0
C496 C 0.8692 0.25274 0.50554 0.0
C497 C 0.87709 0.24361 0.47547 0.0
N498 N 0.91967 0.30058 0.41908 0.0
C499 C 0.96913 0.32978 0.3996 0.0
C500 C 0.94485 0.34776 0.39828 0.0
C501 C 0.92058 0.33272 0.40738 0.0
C502 C 0.9688 0.2991 0.41584 0.0
C503 C 0.94406 0.28592 0.42688 0.0
N504 N 0.8551 0.24486 0.39893 0.0
C505 C 0.80706 0.23581 0.39211 0.0
C506 C 0.81225 0.20967 0.37081 0.0
C507 C 0.83882 0.2006 0.36503 0.0
C508 C 0.8597 0.21866 0.37874 0.0
C509 C 0.82896 0.25309 0.40624 0.0
H510 H 0.8796 0.21191 0.37145 0.0
H511 H 0.82484 0.27352 0.42216 0.0
H512 H 0.90279 0.34692 0.40184 0.0
H513 H 0.9448 0.26245 0.43937 0.0
C514 C 0.93039 0.23269 0.36849 0.0
C515 C 0.88332 0.20926 0.46584 0.0
C516 C 0.86027 0.31521 0.34665 0.0
C517 C 0.85997 0.32563 0.45997 0.0
H518 H 0.91846 0.15448 0.4458 0.0
H519 H 0.94698 0.16887 0.39447 0.0
H520 H 0.93109 0.25364 0.30329 0.0
H521 H 0.89075 0.2963 0.29092 0.0
H522 H 0.83056 0.37334 0.36812 0.0
H523 H 0.83176 0.3805 0.43049 0.0
H524 H 0.85582 0.30171 0.52324 0.0
H525 H 0.86649 0.23648 0.52567 0.0
H526 H 0.94414 0.37222 0.38724 0.0
H527 H 0.98726 0.28471 0.41886 0.0
H528 H 0.78644 0.24333 0.39705 0.0
H529 H 0.84346 0.18068 0.34857 0.0
C530 C 0.79195 0.87361 0.41389 0.0
C531 C 0.81608 0.88863 0.40518 0.0
C532 C 0.81102 0.90529 0.37725 0.0
C533 C 0.78429 0.89915 0.36967 0.0
N534 N 0.77241 0.8798 0.39146 0.0
Co535 Co 0.73744 0.85581 0.38595 0.0
N536 N 0.73785 0.85989 0.33973 0.0
C537 C 0.75235 0.88252 0.32362 0.0
C538 C 0.74773 0.88044 0.29165 0.0
C539 C 0.72897 0.85523 0.28774 0.0
C540 C 0.72316 0.84328 0.31764 0.0
N541 N 0.70324 0.83022 0.38223 0.0
C542 C 0.69227 0.81458 0.35684 0.0
C543 C 0.66778 0.79973 0.36453 0.0
C544 C 0.66329 0.80685 0.39576 0.0
C545 C 0.6852 0.82558 0.40541 0.0
N546 N 0.73704 0.85313 0.43246 0.0
C547 C 0.71506 0.84854 0.45031 0.0
C548 C 0.72122 0.84906 0.48206 0.0
C549 C 0.74881 0.85402 0.48404 0.0
C550 C 0.75792 0.85626 0.45331 0.0
N551 N 0.71635 0.8984 0.38658 0.0
C552 C 0.6909 0.9598 0.37082 0.0
C553 C 0.68061 0.92951 0.36007 0.0
C554 C 0.69336 0.89969 0.36811 0.0
C555 C 0.71325 0.95881 0.39193 0.0
C556 C 0.72569 0.92771 0.39958 0.0
N557 N 0.75789 0.81373 0.38201 0.0
C558 C 0.76332 0.75409 0.38867 0.0
C559 C 0.78679 0.75462 0.37027 0.0
C560 C 0.79506 0.78496 0.35748 0.0
C561 C 0.7805 0.8139 0.36356 0.0
C562 C 0.74856 0.78379 0.39322 0.0
H563 H 0.7874 0.83631 0.35235 0.0
H564 H 0.73042 0.78278 0.40716 0.0
H565 H 0.6853 0.87804 0.35688 0.0
H566 H 0.74353 0.92762 0.4146 0.0
C567 C 0.77321 0.90072 0.33887 0.0
C568 C 0.78665 0.85547 0.44412 0.0
C569 C 0.70241 0.81789 0.32455 0.0
C570 C 0.69115 0.83592 0.43646 0.0
H571 H 0.83563 0.88696 0.41668 0.0
H572 H 0.82593 0.91741 0.36261 0.0
H573 H 0.7575 0.89465 0.27328 0.0
H574 H 0.72042 0.84681 0.2655 0.0
H575 H 0.65416 0.78617 0.34896 0.0
H576 H 0.64625 0.79895 0.40978 0.0
H577 H 0.70775 0.84367 0.50138 0.0
H578 H 0.76107 0.8538 0.50537 0.0
H579 H 0.66351 0.92889 0.34378 0.0
H580 H 0.72183 0.98184 0.40104 0.0
H581 H 0.75627 0.73091 0.39895 0.0
H582 H 0.81274 0.78628 0.34259 0.0
C583 C 0.12166 0.7877 0.45424 0.0
C584 C 0.10229 0.81273 0.45219 0.0
C585 C 0.08645 0.8056 0.42593 0.0
C586 C 0.09689 0.77653 0.41336 0.0
N587 N 0.11798 0.76502 0.43058 0.0
Co588 Co 0.14196 0.72719 0.41923 0.0
N589 N 0.13111 0.7284 0.37448 0.0
C590 C 0.1086 0.74323 0.36288 0.0
C591 C 0.10669 0.74015 0.33061 0.0
C592 C 0.12922 0.72207 0.32179 0.0
C593 C 0.14375 0.71508 0.3492 0.0
N594 N 0.16738 0.69039 0.4094 0.0
C595 C 0.17708 0.68033 0.38136 0.0
C596 C 0.1938 0.65251 0.38491 0.0
C597 C 0.19415 0.64475 0.41638 0.0
C598 C 0.17775 0.66819 0.43018 0.0
N599 N 0.15264 0.72584 0.46424 0.0
C600 C 0.16359 0.69953 0.4796 0.0
C601 C 0.17128 0.70728 0.50989 0.0
C602 C 0.16523 0.74051 0.51357 0.0
C603 C 0.15363 0.75135 0.48529 0.0
N604 N 0.11183 0.69398 0.42516 0.0
C605 C 0.06361 0.66154 0.4046 0.0
C606 C 0.08906 0.64782 0.39856 0.0
C607 C 0.1126 0.66439 0.40849 0.0
C608 C 0.06272 0.68885 0.42554 0.0
C609 C 0.08709 0.70371 0.43663 0.0
N610 N 0.17033 0.7601 0.40992 0.0
C611 C 0.21707 0.77484 0.40169 0.0
C612 C 0.20889 0.80156 0.38222 0.0
C613 C 0.18151 0.80864 0.37899 0.0
C614 C 0.16275 0.78737 0.39227 0.0
C615 C 0.19728 0.75454 0.41584 0.0
H616 H 0.14199 0.79252 0.38659 0.0
H617 H 0.20369 0.73338 0.42992 0.0
H618 H 0.13095 0.65416 0.39941 0.0
H619 H 0.08551 0.72491 0.45226 0.0
C620 C 0.09289 0.76461 0.38219 0.0
C621 C 0.14362 0.78558 0.47851 0.0
C622 C 0.16853 0.69423 0.35097 0.0
C623 C 0.17423 0.67266 0.46257 0.0
H624 H 0.10047 0.83437 0.46739 0.0
H625 H 0.07067 0.82127 0.41585 0.0
H626 H 0.09135 0.7508 0.31516 0.0
H627 H 0.13433 0.71478 0.298 0.0
H628 H 0.20413 0.63876 0.36661 0.0
H629 H 0.20539 0.62481 0.42783 0.0
H630 H 0.18252 0.69166 0.52631 0.0
H631 H 0.17005 0.75472 0.53449 0.0
H632 H 0.09086 0.62609 0.38341 0.0
H633 H 0.04344 0.69969 0.43203 0.0
H634 H 0.23836 0.76895 0.4048 0.0
H635 H 0.17457 0.82916 0.36423 0.0
C636 C 0.21332 0.88546 0.58482 0.0
C637 C 0.19137 0.906 0.59097 0.0
C638 C 0.19747 0.92291 0.61843 0.0
C639 C 0.22274 0.91169 0.62759 0.0
N640 N 0.23316 0.8894 0.60718 0.0
Co641 Co 0.26704 0.86285 0.61347 0.0
N642 N 0.27065 0.87612 0.65846 0.0
C643 C 0.25793 0.90224 0.67204 0.0
C644 C 0.26539 0.9065 0.70309 0.0
C645 C 0.28397 0.88167 0.70933 0.0
C646 C 0.28679 0.86354 0.68167 0.0
N647 N 0.29918 0.83324 0.61964 0.0
C648 C 0.31141 0.82262 0.64658 0.0
C649 C 0.33272 0.80099 0.64022 0.0
C650 C 0.33405 0.79828 0.60809 0.0
C651 C 0.31343 0.81812 0.59673 0.0
N652 N 0.26414 0.85112 0.56789 0.0
C653 C 0.2839 0.83747 0.55032 0.0
C654 C 0.27545 0.83002 0.5202 0.0
C655 C 0.24865 0.83878 0.51885 0.0
C656 C 0.24216 0.85157 0.54829 0.0
N657 N 0.29091 0.90235 0.6042 0.0
C658 C 0.32106 0.95748 0.62727 0.0
C659 C 0.33383 0.92719 0.6201 0.0
C660 C 0.31852 0.90007 0.60885 0.0
C661 C 0.29417 0.9614 0.61675 0.0
C662 C 0.28009 0.93403 0.60357 0.0
N663 N 0.24395 0.82503 0.62495 0.0
C664 C 0.2292 0.76794 0.61913 0.0
C665 C 0.21329 0.771 0.64618 0.0
C666 C 0.21273 0.80148 0.66201 0.0
C667 C 0.22727 0.82836 0.65036 0.0
C668 C 0.24493 0.79509 0.60932 0.0
H669 H 0.22508 0.8517 0.66249 0.0
H670 H 0.2581 0.79167 0.58948 0.0
H671 H 0.32941 0.87713 0.60626 0.0
H672 H 0.25982 0.93854 0.59509 0.0
C673 C 0.2358 0.91781 0.6567 0.0
C674 C 0.21483 0.86241 0.55758 0.0
C675 C 0.305 0.83471 0.67818 0.0
C676 C 0.30635 0.82261 0.56503 0.0
H677 H 0.17274 0.90796 0.57736 0.0
H678 H 0.18442 0.94 0.631 0.0
H679 H 0.25741 0.92452 0.71964 0.0
H680 H 0.29407 0.87716 0.73173 0.0
H681 H 0.3463 0.78907 0.65702 0.0
H682 H 0.34829 0.78355 0.59466 0.0
H683 H 0.28661 0.81659 0.50235 0.0
H684 H 0.23538 0.83447 0.49885 0.0
H685 H 0.35511 0.92352 0.62576 0.0
H686 H 0.28373 0.98503 0.61974 0.0
H687 H 0.23028 0.74439 0.60655 0.0
H688 H 0.20071 0.80462 0.68305 0.0
C689 C 0.10745 0.21437 0.55878 0.0
C690 C 0.09061 0.18672 0.5602 0.0
C691 C 0.076 0.18988 0.58761 0.0
C692 C 0.08471 0.21924 0.60142 0.0
N693 N 0.10349 0.23475 0.58403 0.0
Co694 Co 0.12429 0.27515 0.59619 0.0
N695 N 0.11587 0.2696 0.64117 0.0
C696 C 0.0949 0.2519 0.65251 0.0
C697 C 0.0928 0.25468 0.68469 0.0
C698 C 0.1136 0.27556 0.69388 0.0
C699 C 0.12732 0.2843 0.6667 0.0
N700 N 0.14693 0.31425 0.60736 0.0
C701 C 0.15803 0.32268 0.63554 0.0
C702 C 0.17384 0.35128 0.63269 0.0
C703 C 0.17168 0.36145 0.60184 0.0
C704 C 0.15501 0.33841 0.58749 0.0
N705 N 0.13175 0.28076 0.55075 0.0
C706 C 0.1399 0.30911 0.53662 0.0
C707 C 0.14643 0.30406 0.50558 0.0
C708 C 0.14265 0.2705 0.50016 0.0
C709 C 0.13359 0.25675 0.52821 0.0
N710 N 0.09114 0.30439 0.59386 0.0
C711 C 0.04163 0.33526 0.61154 0.0
C712 C 0.06647 0.3482 0.62131 0.0
C713 C 0.09057 0.3326 0.61255 0.0
C714 C 0.04194 0.30836 0.59006 0.0
C715 C 0.06694 0.29378 0.58096 0.0
N716 N 0.15665 0.24698 0.60134 0.0
C717 C 0.20513 0.24016 0.59796 0.0
C718 C 0.20435 0.21459 0.6205 0.0
C719 C 0.17924 0.20399 0.63152 0.0
C720 C 0.15568 0.22034 0.62155 0.0
C721 C 0.18098 0.25613 0.58871 0.0
H722 H 0.13671 0.2121 0.63115 0.0
H723 H 0.18217 0.277 0.57268 0.0
H724 H 0.10831 0.34253 0.6237 0.0
H725 H 0.06638 0.27269 0.56506 0.0
C726 C 0.0807 0.22916 0.63293 0.0
C727 C 0.12722 0.22102 0.53351 0.0
C728 C 0.15074 0.30702 0.66566 0.0
C729 C 0.14993 0.33564 0.55499 0.0
H730 H 0.0896 0.16613 0.54364 0.0
H731 H 0.06214 0.17172 0.59732 0.0
H732 H 0.0785 0.24216 0.69982 0.0
H733 H 0.11822 0.28336 0.71778 0.0
H734 H 0.18521 0.36402 0.65104 0.0
H735 H 0.18172 0.38254 0.59105 0.0
H736 H 0.15567 0.3218 0.4897 0.0
H737 H 0.14735 0.25784 0.4784 0.0
H738 H 0.06727 0.36904 0.63767 0.0
H739 H 0.02307 0.29784 0.58138 0.0
H740 H 0.22432 0.24888 0.58894 0.0
H741 H 0.17794 0.18407 0.64876 0.0
C742 C 0.71657 0.0791 0.61413 0.0
C743 C 0.69873 0.07458 0.58905 0.0
C744 C 0.70307 0.1007 0.56854 0.0
C745 C 0.7233 0.11968 0.58221 0.0
N746 N 0.73217 0.10677 0.60971 0.0
Co747 Co 0.75876 0.12763 0.63924 0.0
N748 N 0.75477 0.17228 0.61934 0.0
C749 C 0.74442 0.17788 0.59025 0.0
C750 C 0.74615 0.21082 0.58131 0.0
C751 C 0.75867 0.22683 0.60612 0.0
C752 C 0.76389 0.20267 0.62891 0.0
N753 N 0.78383 0.14806 0.67078 0.0
C754 C 0.78876 0.18073 0.67744 0.0
C755 C 0.80795 0.18367 0.70152 0.0
C756 C 0.8158 0.15181 0.70945 0.0
C757 C 0.80091 0.13119 0.69004 0.0
N758 N 0.76301 0.08242 0.65812 0.0
C759 C 0.78353 0.07233 0.67705 0.0
C760 C 0.77938 0.04087 0.68914 0.0
C761 C 0.75459 0.03089 0.67759 0.0
C762 C 0.74497 0.05673 0.65866 0.0
N763 N 0.7897 0.11986 0.60955 0.0
C764 C 0.82512 0.13066 0.55823 0.0
C765 C 0.83002 0.14526 0.58749 0.0
C766 C 0.81259 0.13933 0.61255 0.0
C767 C 0.80415 0.1068 0.55625 0.0
C768 C 0.78689 0.10148 0.5823 0.0
N769 N 0.72881 0.13739 0.6678 0.0
C770 C 0.71182 0.14118 0.72068 0.0
C771 C 0.69032 0.16121 0.71013 0.0
C772 C 0.68743 0.16747 0.67787 0.0
C773 C 0.70681 0.15515 0.65707 0.0
C774 C 0.73086 0.12951 0.69913 0.0
H775 H 0.70446 0.16103 0.63242 0.0
H776 H 0.74788 0.11542 0.70811 0.0
H777 H 0.81742 0.15301 0.63341 0.0
H778 H 0.7705 0.08387 0.57948 0.0
C779 C 0.73047 0.15247 0.57382 0.0
C780 C 0.71857 0.05672 0.64182 0.0
C781 C 0.77925 0.20913 0.6582 0.0
C782 C 0.80084 0.09613 0.69075 0.0
H783 H 0.68379 0.05495 0.58632 0.0
H784 H 0.69161 0.10629 0.54728 0.0
H785 H 0.73879 0.22201 0.55961 0.0
H786 H 0.76376 0.25315 0.60714 0.0
H787 H 0.81626 0.20648 0.71143 0.0
H788 H 0.83057 0.14459 0.72725 0.0
H789 H 0.79154 0.0281 0.70683 0.0
H790 H 0.74446 0.00786 0.68369 0.0
H791 H 0.84639 0.16308 0.59056 0.0
H792 H 0.80008 0.09395 0.53422 0.0
H793 H 0.71462 0.13603 0.74558 0.0
H794 H 0.67095 0.1829 0.66902 0.0
C795 C 0.87959 0.78089 0.55018 0.0
C796 C 0.89328 0.81067 0.5558 0.0
C797 C 0.9066 0.80718 0.58445 0.0
C798 C 0.90015 0.77578 0.59545 0.0
N799 N 0.88389 0.75949 0.57494 0.0
Co800 Co 0.86289 0.71846 0.58424 0.0
N801 N 0.8652 0.72483 0.63008 0.0
C802 C 0.88333 0.74446 0.64502 0.0
C803 C 0.87987 0.74416 0.67716 0.0
C804 C 0.85844 0.72278 0.68239 0.0
C805 C 0.85 0.71105 0.65308 0.0
N806 N 0.84139 0.67745 0.59136 0.0
C807 C 0.82826 0.66728 0.61745 0.0
C808 C 0.81644 0.63613 0.61261 0.0
C809 C 0.82276 0.62655 0.58244 0.0
C810 C 0.83804 0.65226 0.57056 0.0
N811 N 0.86131 0.71213 0.5381 0.0
C812 C 0.85737 0.68309 0.52284 0.0
C813 C 0.85772 0.68703 0.49057 0.0
C814 C 0.86191 0.7207 0.48555 0.0
C815 C 0.864 0.73532 0.51508 0.0
N816 N 0.89664 0.6912 0.58747 0.0
C817 C 0.94568 0.66059 0.60703 0.0
C818 C 0.92099 0.65009 0.61886 0.0
C819 C 0.89713 0.66578 0.60929 0.0
C820 C 0.94544 0.68535 0.58338 0.0
C821 C 0.92055 0.69999 0.57351 0.0
N822 N 0.82943 0.74598 0.58499 0.0
C823 C 0.78082 0.74953 0.59126 0.0
C824 C 0.7837 0.78061 0.60614 0.0
C825 C 0.80901 0.79545 0.60736 0.0
C826 C 0.83141 0.77762 0.59755 0.0
C827 C 0.80405 0.73245 0.58098 0.0
H828 H 0.85033 0.78889 0.60366 0.0
H829 H 0.80145 0.70797 0.57065 0.0
H830 H 0.87947 0.65855 0.6219 0.0
H831 H 0.92087 0.71958 0.55597 0.0
C832 C 0.89969 0.76677 0.6277 0.0
C833 C 0.8635 0.77154 0.52126 0.0
C834 C 0.82914 0.68494 0.64782 0.0
C835 C 0.84681 0.65555 0.53923 0.0
H836 H 0.89294 0.83326 0.54195 0.0
H837 H 0.91706 0.82679 0.59729 0.0
H838 H 0.89087 0.75864 0.69465 0.0
H839 H 0.85018 0.71632 0.70511 0.0
H840 H 0.80499 0.62157 0.62933 0.0
H841 H 0.81655 0.60384 0.57049 0.0
H842 H 0.85309 0.66833 0.47284 0.0
H843 H 0.86165 0.73341 0.46303 0.0
H844 H 0.92027 0.6313 0.63727 0.0
H845 H 0.96429 0.69414 0.57353 0.0
H846 H 0.76116 0.73758 0.58965 0.0
H847 H 0.81189 0.81938 0.61899 0.0
C848 C 0.40221 0.33633 0.07448 0.0
C849 C 0.41973 0.36332 0.07611 0.0
C850 C 0.43731 0.35706 0.10094 0.0
C851 C 0.42948 0.32673 0.1133 0.0
N852 N 0.40837 0.31339 0.09727 0.0
Co853 Co 0.38622 0.27417 0.1104 0.0
N854 N 0.40058 0.27524 0.15406 0.0
C855 C 0.42275 0.29209 0.16399 0.0
C856 C 0.42686 0.2893 0.19601 0.0
C857 C 0.40626 0.26917 0.20658 0.0
C858 C 0.39068 0.26068 0.18036 0.0
N859 N 0.36225 0.23648 0.12238 0.0
C860 C 0.35636 0.22444 0.15118 0.0
C861 C 0.33928 0.19684 0.14902 0.0
C862 C 0.33452 0.19134 0.11759 0.0
C863 C 0.34882 0.21582 0.10242 0.0
N864 N 0.37225 0.27296 0.06643 0.0
C865 C 0.35992 0.24709 0.0519 0.0
C866 C 0.35175 0.25457 0.02161 0.0
C867 C 0.35891 0.28735 0.01708 0.0
C868 C 0.37105 0.29795 0.04497 0.0
N869 N 0.41632 0.24169 0.10075 0.0
C870 C 0.46307 0.20735 0.12223 0.0
C871 C 0.43771 0.19223 0.12323 0.0
C872 C 0.41486 0.2094 0.11206 0.0
C873 C 0.46532 0.23714 0.10495 0.0
C874 C 0.44171 0.25312 0.0932 0.0
N875 N 0.35784 0.30581 0.12322 0.0
C876 C 0.31156 0.31697 0.13742 0.0
C877 C 0.32022 0.34326 0.15705 0.0
C878 C 0.34726 0.35259 0.15688 0.0
C879 C 0.36568 0.33326 0.14051 0.0
C880 C 0.3308 0.29866 0.12027 0.0
H881 H 0.38645 0.3399 0.14374 0.0
H882 H 0.32402 0.2778 0.10609 0.0
H883 H 0.39623 0.19648 0.11543 0.0
H884 H 0.44428 0.27591 0.08008 0.0
C885 C 0.43588 0.31491 0.14384 0.0
C886 C 0.38001 0.33224 0.05102 0.0
C887 C 0.36754 0.23745 0.18076 0.0
C888 C 0.3496 0.22079 0.0698 0.0
H889 H 0.41935 0.38551 0.06149 0.0
H890 H 0.45242 0.37402 0.11044 0.0
H891 H 0.44237 0.30141 0.21019 0.0
H892 H 0.40315 0.26142 0.23072 0.0
H893 H 0.33147 0.18187 0.16813 0.0
H894 H 0.32212 0.17188 0.10711 0.0
H895 H 0.33981 0.23912 0.00576 0.0
H896 H 0.35464 0.30217 0.99625 0.0
H897 H 0.4352 0.16834 0.13493 0.0
H898 H 0.4849 0.24887 0.10197 0.0
H899 H 0.29042 0.30969 0.13656 0.0
H900 H 0.35446 0.37316 0.17139 0.0
C901 C 0.38003 0.69389 0.90991 0.0
C902 C 0.39139 0.66221 0.9112 0.0
C903 C 0.40663 0.65867 0.88453 0.0
C904 C 0.40365 0.68826 0.8683 0.0
N905 N 0.38815 0.71081 0.88364 0.0
Co906 Co 0.37332 0.75373 0.86583 0.0
N907 N 0.38644 0.74344 0.82256 0.0
C908 C 0.4037 0.71863 0.81456 0.0
C909 C 0.40824 0.71729 0.78267 0.0
C910 C 0.39274 0.74249 0.7698 0.0
C911 C 0.37953 0.7578 0.79461 0.0
N912 N 0.35669 0.79555 0.84852 0.0
C913 C 0.35176 0.80446 0.81822 0.0
C914 C 0.3376 0.83449 0.81638 0.0
C915 C 0.33332 0.84469 0.84667 0.0
C916 C 0.34486 0.82031 0.86518 0.0
N917 N 0.36038 0.76401 0.90929 0.0
C918 C 0.35031 0.79343 0.91956 0.0
C919 C 0.34149 0.79219 0.95014 0.0
C920 C 0.34545 0.7598 0.95954 0.0
C921 C 0.35643 0.74307 0.93406 0.0
N922 N 0.40873 0.77842 0.8735 0.0
C923 C 0.45643 0.81607 0.85936 0.0
C924 C 0.43331 0.83147 0.87193 0.0
C925 C 0.40983 0.81247 0.8784 0.0
C926 C 0.45606 0.78107 0.85802 0.0
C927 C 0.43294 0.76308 0.86687 0.0
N928 N 0.33936 0.72963 0.85612 0.0
C929 C 0.29055 0.72457 0.85527 0.0
C930 C 0.2924 0.69513 0.83727 0.0
C931 C 0.31791 0.68342 0.82922 0.0
C932 C 0.34082 0.70047 0.83926 0.0
C933 C 0.31436 0.74176 0.86409 0.0
H934 H 0.35963 0.68972 0.8326 0.0
H935 H 0.31246 0.76458 0.87739 0.0
H936 H 0.39274 0.8261 0.88661 0.0
H937 H 0.43511 0.73669 0.86716 0.0
C938 C 0.41078 0.69348 0.83652 0.0
C939 C 0.36084 0.70684 0.93347 0.0
C940 C 0.35966 0.78487 0.79071 0.0
C941 C 0.34306 0.81841 0.89802 0.0
H942 H 0.38813 0.64326 0.92898 0.0
H943 H 0.41699 0.63627 0.87681 0.0
H944 H 0.42007 0.69892 0.77004 0.0
H945 H 0.39065 0.74827 0.74496 0.0
H946 H 0.33061 0.8474 0.79539 0.0
H947 H 0.32221 0.86658 0.85426 0.0
H948 H 0.33115 0.81167 0.96308 0.0
H949 H 0.33956 0.74924 0.98194 0.0
H950 H 0.43285 0.85833 0.87536 0.0
H951 H 0.47362 0.76734 0.84997 0.0
H952 H 0.27096 0.73435 0.86199 0.0
H953 H 0.32017 0.66086 0.81527 0.0
C954 C 0.20501 0.42517 0.88354 0.0
C955 C 0.18198 0.4179 0.90073 0.0
C956 C 0.18783 0.38989 0.91848 0.0
C957 C 0.21382 0.38068 0.91084 0.0
N958 N 0.22457 0.40171 0.8896 0.0
Co959 Co 0.25786 0.39322 0.86498 0.0
N960 N 0.25664 0.34456 0.87243 0.0
C961 C 0.24265 0.32941 0.89536 0.0
C962 C 0.24527 0.29516 0.89432 0.0
C963 C 0.2622 0.28871 0.86943 0.0
C964 C 0.26906 0.31949 0.85663 0.0
N965 N 0.29112 0.38645 0.8402 0.0
C966 C 0.30136 0.35807 0.82768 0.0
C967 C 0.32578 0.36448 0.81286 0.0
C968 C 0.33092 0.39806 0.81664 0.0
C969 C 0.30946 0.41029 0.83351 0.0
N970 N 0.25852 0.44202 0.85775 0.0
C971 C 0.28033 0.46032 0.85034 0.0
C972 C 0.27423 0.49382 0.84721 0.0
C973 C 0.24684 0.49641 0.85285 0.0
C974 C 0.23782 0.46431 0.85913 0.0
N975 N 0.28113 0.398 0.90317 0.0
C976 C 0.31492 0.39657 0.95742 0.0
C977 C 0.31812 0.37361 0.93315 0.0
C978 C 0.3015 0.37495 0.90666 0.0
C979 C 0.29474 0.42149 0.95363 0.0
C980 C 0.27779 0.42155 0.92631 0.0
N981 N 0.23543 0.38539 0.82701 0.0
C982 C 0.23093 0.3795 0.77055 0.0
C983 C 0.20646 0.36237 0.77428 0.0
C984 C 0.1965 0.35748 0.80442 0.0
C985 C 0.21142 0.36854 0.8303 0.0
C986 C 0.24522 0.39068 0.79729 0.0
H987 H 0.2039 0.36158 0.85296 0.0
H988 H 0.2639 0.40411 0.79381 0.0
H989 H 0.30503 0.35643 0.88915 0.0
H990 H 0.26192 0.44011 0.92404 0.0
C991 C 0.22383 0.3477 0.91327 0.0
C992 C 0.20913 0.45468 0.86248 0.0
C993 C 0.28986 0.32451 0.83227 0.0
C994 C 0.30389 0.44423 0.83971 0.0
H995 H 0.16247 0.43004 0.89977 0.0
H996 H 0.17358 0.37574 0.93239 0.0
H997 H 0.23538 0.27694 0.90915 0.0
H998 H 0.26913 0.26427 0.86198 0.0
H999 H 0.33876 0.34668 0.80107 0.0
H1000 H 0.34794 0.41196 0.80752 0.0
H1001 H 0.28755 0.5136 0.83946 0.0
H1002 H 0.23462 0.51886 0.85106 0.0
H1003 H 0.33328 0.35399 0.93483 0.0
H1004 H 0.29165 0.43999 0.9719 0.0
H1005 H 0.23909 0.38366 0.74728 0.0
H1006 H 0.17783 0.3438 0.808 0.0
C1007 C 0.61482 0.30989 0.93199 0.0
C1008 C 0.5983 0.33775 0.93464 0.0
C1009 C 0.57875 0.33495 0.91125 0.0
C1010 C 0.58443 0.3056 0.89554 0.0
N1011 N 0.606 0.28965 0.90812 0.0
Co1012 Co 0.62499 0.25037 0.89001 0.0
N1013 N 0.60747 0.25628 0.8483 0.0
C1014 C 0.5847 0.27403 0.84253 0.0
C1015 C 0.57687 0.27264 0.81133 0.0
C1016 C 0.59571 0.25252 0.79692 0.0
C1017 C 0.61413 0.24292 0.82016 0.0
N1018 N 0.64643 0.21302 0.87253 0.0
C1019 C 0.65131 0.20529 0.84213 0.0
C1020 C 0.66837 0.17765 0.84013 0.0
C1021 C 0.67366 0.16738 0.87044 0.0
C1022 C 0.65984 0.1894 0.88921 0.0
N1023 N 0.64151 0.24393 0.93233 0.0
C1024 C 0.65317 0.21577 0.94341 0.0
C1025 C 0.66414 0.21993 0.97312 0.0
C1026 C 0.65955 0.25283 0.98078 0.0
C1027 C 0.64596 0.2669 0.95526 0.0
N1028 N 0.59424 0.21913 0.8996 0.0
C1029 C 0.54371 0.18799 0.88711 0.0
C1030 C 0.56774 0.17367 0.87691 0.0
C1031 C 0.59247 0.18931 0.88332 0.0
C1032 C 0.54557 0.21568 0.90745 0.0
C1033 C 0.57116 0.23017 0.91424 0.0
N1034 N 0.65409 0.28072 0.87777 0.0
C1035 C 0.7014 0.29277 0.87067 0.0
C1036 C 0.69466 0.31859 0.84952 0.0
C1037 C 0.66743 0.32613 0.84418 0.0
C1038 C 0.64759 0.30755 0.85908 0.0
C1039 C 0.68072 0.27371 0.88421 0.0
H1040 H 0.62688 0.31435 0.85439 0.0
H1041 H 0.68623 0.25277 0.89901 0.0
H1042 H 0.60934 0.17781 0.87209 0.0
H1043 H 0.5717 0.25172 0.92951 0.0
C1044 C 0.57455 0.29626 0.86547 0.0
C1045 C 0.63844 0.3023 0.95264 0.0
C1046 C 0.63758 0.22102 0.81505 0.0
C1047 C 0.66102 0.19074 0.92224 0.0
H1048 H 0.60054 0.35816 0.95125 0.0
H1049 H 0.56349 0.35336 0.90507 0.0
H1050 H 0.56012 0.2857 0.80012 0.0
H1051 H 0.59607 0.24596 0.77217 0.0
H1052 H 0.67573 0.16558 0.81904 0.0
H1053 H 0.6864 0.14669 0.87785 0.0
H1054 H 0.6764 0.20221 0.98632 0.0
H1055 H 0.66647 0.26534 1.00202 0.0
H1056 H 0.5673 0.15186 0.86168 0.0
H1057 H 0.52738 0.22703 0.91671 0.0
H1058 H 0.7224 0.28639 0.87539 0.0
H1059 H 0.66149 0.34599 0.82811 0.0
C1060 C 0.78951 0.59438 0.86872 0.0
C1061 C 0.8152 0.60319 0.87946 0.0
C1062 C 0.81253 0.6327 0.89594 0.0
C1063 C 0.78557 0.64131 0.89381 0.0
N1064 N 0.77125 0.61855 0.8772 0.0
Co1065 Co 0.73425 0.62566 0.85953 0.0
N1066 N 0.73678 0.67485 0.86265 0.0
C1067 C 0.7541 0.69152 0.88159 0.0
C1068 C 0.75081 0.72564 0.87934 0.0
C1069 C 0.72993 0.73038 0.85794 0.0
C1070 C 0.72167 0.69881 0.84816 0.0
N1071 N 0.69749 0.63119 0.8413 0.0
C1072 C 0.68568 0.65847 0.82809 0.0
C1073 C 0.65947 0.65109 0.81804 0.0
C1074 C 0.65479 0.61821 0.82583 0.0
C1075 C 0.67834 0.60724 0.84005 0.0
N1076 N 0.73244 0.57637 0.85634 0.0
C1077 C 0.70966 0.55806 0.8548 0.0
C1078 C 0.71502 0.52433 0.85227 0.0
C1079 C 0.74286 0.52156 0.85188 0.0
C1080 C 0.753 0.55383 0.85408 0.0
N1081 N 0.71769 0.62518 0.90226 0.0
C1082 C 0.69275 0.63165 0.96214 0.0
C1083 C 0.68715 0.65387 0.93762 0.0
C1084 C 0.69913 0.64986 0.90835 0.0
C1085 C 0.71112 0.60525 0.95581 0.0
C1086 C 0.72371 0.60276 0.92581 0.0
N1087 N 0.74978 0.62895 0.81735 0.0
C1088 C 0.74749 0.62117 0.76103 0.0
C1089 C 0.77114 0.64019 0.75753 0.0
C1090 C 0.78365 0.65355 0.78428 0.0
C1091 C 0.77272 0.64773 0.81373 0.0
C1092 C 0.73676 0.61648 0.79122 0.0
H1093 H 0.78268 0.65932 0.83352 0.0
H1094 H 0.71855 0.60179 0.79355 0.0
H1095 H 0.69323 0.66749 0.89065 0.0
H1096 H 0.73818 0.58293 0.92164 0.0
C1097 C 0.77585 0.67445 0.89627 0.0
C1098 C 0.78204 0.56282 0.85149 0.0
C1099 C 0.69776 0.69217 0.82785 0.0
C1100 C 0.68481 0.57384 0.84776 0.0
H1101 H 0.83424 0.59097 0.87479 0.0
H1102 H 0.82893 0.64798 0.90509 0.0
H1103 H 0.76272 0.74483 0.891 0.0
H1104 H 0.72151 0.75424 0.85069 0.0
H1105 H 0.64509 0.66783 0.80676 0.0
H1106 H 0.63669 0.6038 0.82079 0.0
H1107 H 0.70052 0.50435 0.84859 0.0
H1108 H 0.75436 0.49871 0.84883 0.0
H1109 H 0.67318 0.67451 0.94094 0.0
H1110 H 0.71593 0.58704 0.97393 0.0
H1111 H 0.73736 0.61036 0.74066 0.0
H1112 H 0.80178 0.66867 0.78237 0.0
C1113 C 0.61809 0.68133 0.09328 0.0
C1114 C 0.60082 0.65415 0.0905 0.0
C1115 C 0.58355 0.65568 0.11579 0.0
C1116 C 0.59128 0.68353 0.13278 0.0
N1117 N 0.61203 0.69976 0.11934 0.0
Co1118 Co 0.63342 0.73686 0.13839 0.0
N1119 N 0.61969 0.72774 0.18103 0.0
C1120 C 0.59695 0.71056 0.18756 0.0
C1121 C 0.59154 0.71002 0.21927 0.0
C1122 C 0.61205 0.72815 0.23333 0.0
C1123 C 0.62892 0.73867 0.20933 0.0
N1124 N 0.657 0.77213 0.15649 0.0
C1125 C 0.66481 0.77703 0.18677 0.0
C1126 C 0.68257 0.80397 0.18908 0.0
C1127 C 0.68523 0.81672 0.15925 0.0
C1128 C 0.66927 0.79679 0.14035 0.0
N1129 N 0.64625 0.74634 0.09526 0.0
C1130 C 0.65747 0.77504 0.08522 0.0
C1131 C 0.66554 0.7732 0.05432 0.0
C1132 C 0.65944 0.74124 0.04465 0.0
C1133 C 0.64802 0.72532 0.07029 0.0
N1134 N 0.60245 0.76973 0.1341 0.0
C1135 C 0.55409 0.80483 0.14957 0.0
C1136 C 0.57932 0.81597 0.16001 0.0
C1137 C 0.60282 0.79836 0.15232 0.0
C1138 C 0.55366 0.77787 0.12819 0.0
C1139 C 0.5781 0.76131 0.12011 0.0
N1140 N 0.66314 0.70502 0.14551 0.0
C1141 C 0.71104 0.69424 0.15085 0.0
C1142 C 0.70578 0.66669 0.17033 0.0
C1143 C 0.67892 0.65713 0.1749 0.0
C1144 C 0.65798 0.67628 0.16194 0.0
C1145 C 0.68938 0.7133 0.13885 0.0
H1146 H 0.63756 0.66877 0.16693 0.0
H1147 H 0.69386 0.73549 0.12542 0.0
H1148 H 0.62068 0.80756 0.16374 0.0
H1149 H 0.57676 0.74058 0.10391 0.0
C1150 C 0.58429 0.69071 0.16418 0.0
C1151 C 0.63961 0.69009 0.07062 0.0
C1152 C 0.653 0.75977 0.21394 0.0
C1153 C 0.66756 0.79807 0.10734 0.0
H1154 H 0.60104 0.63499 0.07247 0.0
H1155 H 0.56848 0.63729 0.12218 0.0
H1156 H 0.57528 0.69696 0.23095 0.0
H1157 H 0.61442 0.73296 0.25832 0.0
H1158 H 0.69204 0.814 0.21019 0.0
H1159 H 0.6977 0.83762 0.15216 0.0
H1160 H 0.67682 0.79173 0.04128 0.0
H1161 H 0.66388 0.73047 0.02186 0.0
H1162 H 0.58076 0.837 0.17611 0.0
H1163 H 0.53454 0.76886 0.11874 0.0
H1164 H 0.73168 0.70206 0.14652 0.0
H1165 H 0.67413 0.63576 0.18953 0.0
C1166 C 0.20361 0.59042 0.12495 0.0
C1167 C 0.17695 0.5934 0.11452 0.0
C1168 C 0.17463 0.62409 0.10002 0.0
C1169 C 0.1996 0.63911 0.10303 0.0
N1170 N 0.21752 0.61898 0.11792 0.0
Co1171 Co 0.2531 0.63328 0.13547 0.0
N1172 N 0.24287 0.68097 0.13686 0.0
C1173 C 0.2209 0.69444 0.12276 0.0
C1174 C 0.21468 0.72525 0.13519 0.0
C1175 C 0.23422 0.73141 0.15788 0.0
C1176 C 0.25223 0.70466 0.15724 0.0
N1177 N 0.28906 0.64592 0.1519 0.0
C1178 C 0.29772 0.67561 0.16341 0.0
C1179 C 0.32593 0.67615 0.1649 0.0
C1180 C 0.33481 0.64526 0.15509 0.0
C1181 C 0.31173 0.6278 0.14741 0.0
N1182 N 0.26245 0.58531 0.13566 0.0
C1183 C 0.28755 0.57244 0.13478 0.0
C1184 C 0.28739 0.538 0.13652 0.0
C1185 C 0.26046 0.52904 0.13888 0.0
C1186 C 0.2457 0.55857 0.13843 0.0
N1187 N 0.26833 0.63955 0.09244 0.0
C1188 C 0.29764 0.65008 0.03603 0.0
C1189 C 0.29579 0.67491 0.05895 0.0
C1190 C 0.28127 0.66931 0.08649 0.0
C1191 C 0.2837 0.6198 0.04143 0.0
C1192 C 0.26903 0.61509 0.06975 0.0
N1193 N 0.23861 0.62999 0.17835 0.0
C1194 C 0.24573 0.62935 0.23474 0.0
C1195 C 0.21942 0.64178 0.23914 0.0
C1196 C 0.20263 0.64635 0.21302 0.0
C1197 C 0.2125 0.64046 0.18315 0.0
C1198 C 0.25506 0.62389 0.20396 0.0
H1199 H 0.19916 0.64695 0.16406 0.0
H1200 H 0.27559 0.6152 0.20086 0.0
H1201 H 0.28165 0.6892 0.10354 0.0
H1202 H 0.25885 0.59152 0.07361 0.0
C1203 C 0.20277 0.67404 0.10555 0.0
C1204 C 0.21591 0.56107 0.14181 0.0
C1205 C 0.27959 0.70344 0.17271 0.0
C1206 C 0.31009 0.59366 0.139 0.0
H1207 H 0.16019 0.57675 0.1186 0.0
H1208 H 0.15589 0.63583 0.09237 0.0
H1209 H 0.19686 0.74027 0.13025 0.0
H1210 H 0.23494 0.75319 0.17299 0.0
H1211 H 0.33887 0.69666 0.17214 0.0
H1212 H 0.35556 0.63655 0.15406 0.0
H1213 H 0.30476 0.52148 0.13798 0.0
H1214 H 0.25262 0.50393 0.14155 0.0
H1215 H 0.30602 0.69865 0.05584 0.0
H1216 H 0.28441 0.59989 0.02413 0.0
H1217 H 0.25919 0.62528 0.25471 0.0
H1218 H 0.18224 0.65607 0.21558 0.0
C1219 C 0.81952 0.41575 0.11891 0.0
C1220 C 0.84516 0.40988 0.10695 0.0
C1221 C 0.84482 0.37817 0.09432 0.0
C1222 C 0.81934 0.36564 0.09978 0.0
N1223 N 0.80354 0.38826 0.11433 0.0
Co1224 Co 0.76806 0.37881 0.13398 0.0
N1225 N 0.77543 0.33042 0.13746 0.0
C1226 C 0.79589 0.31401 0.12362 0.0
C1227 C 0.80008 0.28297 0.13676 0.0
C1228 C 0.78069 0.27973 0.15964 0.0
C1229 C 0.76486 0.30852 0.15844 0.0
N1230 N 0.73207 0.37092 0.15198 0.0
C1231 C 0.72158 0.34244 0.16378 0.0
C1232 C 0.69347 0.34506 0.16565 0.0
C1233 C 0.68659 0.37669 0.1558 0.0
C1234 C 0.71061 0.39141 0.14769 0.0
N1235 N 0.76198 0.42767 0.13223 0.0
C1236 C 0.73792 0.44334 0.13237 0.0
C1237 C 0.74063 0.47766 0.13245 0.0
C1238 C 0.76817 0.48364 0.13263 0.0
C1239 C 0.78067 0.45257 0.13248 0.0
N1240 N 0.75015 0.37195 0.09199 0.0
C1241 C 0.71361 0.36262 0.04058 0.0
C1242 C 0.71878 0.33713 0.06215 0.0
C1243 C 0.73663 0.34223 0.08734 0.0
C1244 C 0.72829 0.39271 0.04419 0.0
C1245 C 0.7468 0.39667 0.06981 0.0
N1246 N 0.78479 0.38255 0.17624 0.0
C1247 C 0.78024 0.38501 0.23286 0.0
C1248 C 0.80614 0.3709 0.23677 0.0
C1249 C 0.8215 0.36457 0.21018 0.0
C1250 C 0.81062 0.37048 0.18048 0.0
C1251 C 0.76974 0.39013 0.20229 0.0
H1252 H 0.82284 0.36261 0.16118 0.0
H1253 H 0.74949 0.4001 0.19976 0.0
H1254 H 0.73771 0.32215 0.10405 0.0
H1255 H 0.75747 0.42013 0.07231 0.0
C1256 C 0.81438 0.33134 0.10458 0.0
C1257 C 0.81019 0.4468 0.13507 0.0
C1258 C 0.7378 0.31284 0.17316 0.0
C1259 C 0.71425 0.42494 0.13833 0.0
H1260 H 0.86294 0.42541 0.10874 0.0
H1261 H 0.8623 0.36435 0.08621 0.0
H1262 H 0.81632 0.26558 0.13175 0.0
H1263 H 0.77826 0.25828 0.17488 0.0
H1264 H 0.67926 0.32613 0.17306 0.0
H1265 H 0.6665 0.38759 0.15477 0.0
H1266 H 0.72464 0.49612 0.13422 0.0
H1267 H 0.77796 0.50784 0.13387 0.0
H1268 H 0.70811 0.3135 0.06031 0.0
H1269 H 0.7251 0.41311 0.02777 0.0
H1270 H 0.76787 0.39055 0.25314 0.0
H1271 H 0.84152 0.35351 0.21229 0.0
C1272 C 0.17663 0.51875 0.15024 0.0
C1273 C 0.2002 0.53545 0.16176 0.0
C1274 C 0.19646 0.50008 0.20951 0.0
C1275 C 0.17005 0.48876 0.20049 0.0
N1276 N 0.13215 0.49993 0.16538 0.0
N1277 N 0.2291 0.54469 0.20752 0.0
C1278 C 0.15923 0.50173 0.17172 0.0
C1279 C 0.20908 0.52687 0.1929 0.0
N1280 N 0.17163 0.51667 0.11867 0.0
N1281 N 0.21017 0.48487 0.23358 0.0
H1282 H 0.23909 0.56419 0.19673 0.0
H1283 H 0.23389 0.54205 0.23141 0.0
H1284 H 0.20223 0.46473 0.24563 0.0
H1285 H 0.23045 0.48978 0.23899 0.0
H1286 H 0.15545 0.50281 0.10946 0.0
H1287 H 0.18519 0.52604 0.10214 0.0
H1288 H 0.12351 0.51098 0.14535 0.0
H1289 H 0.11845 0.49036 0.18162 0.0
C1290 C 0.50431 0.17998 0.19504 0.0
C1291 C 0.52783 0.16623 0.18116 0.0
C1292 C 0.50804 0.17652 0.12825 0.0
C1293 C 0.48589 0.19354 0.14217 0.0
N1294 N 0.46458 0.21524 0.18889 0.0
N1295 N 0.55336 0.1532 0.13465 0.0
C1296 C 0.4844 0.19607 0.17563 0.0
C1297 C 0.52998 0.16487 0.14773 0.0
N1298 N 0.50098 0.17758 0.22692 0.0
N1299 N 0.50772 0.17067 0.0965 0.0
H1300 H 0.56912 0.14285 0.14806 0.0
H1301 H 0.55775 0.15528 0.11078 0.0
H1302 H 0.49217 0.17915 0.08163 0.0
H1303 H 0.52169 0.15541 0.08518 0.0
H1304 H 0.48305 0.18375 0.23828 0.0
H1305 H 0.51538 0.16659 0.24185 0.0
H1306 H 0.464 0.2213 0.21274 0.0
H1307 H 0.44978 0.2276 0.17561 0.0
C1308 C 0.82201 0.47724 0.18708 0.0
C1309 C 0.82844 0.46981 0.15512 0.0
C1310 C 0.87244 0.49793 0.16423 0.0
C1311 C 0.8646 0.50949 0.19452 0.0
N1312 N 0.82773 0.51345 0.23168 0.0
N1313 N 0.85605 0.48677 0.11136 0.0
C1314 C 0.83819 0.50012 0.20491 0.0
C1315 C 0.85258 0.48417 0.14307 0.0
N1316 N 0.80082 0.46189 0.20143 0.0
N1317 N 0.89909 0.49748 0.15619 0.0
H1318 H 0.84107 0.47932 0.09525 0.0
H1319 H 0.8726 0.4992 0.1017 0.0
H1320 H 0.91442 0.50441 0.17204 0.0
H1321 H 0.90571 0.48702 0.13508 0.0
H1322 H 0.79822 0.46188 0.2258 0.0
H1323 H 0.78673 0.44753 0.18954 0.0
H1324 H 0.80732 0.51173 0.23761 0.0
H1325 H 0.83886 0.52808 0.24696 0.0
C1326 C 0.52193 0.81104 0.19548 0.0
C1327 C 0.52885 0.81977 0.16396 0.0
C1328 C 0.49188 0.862 0.16342 0.0
C1329 C 0.4843 0.85211 0.1943 0.0
N1330 N 0.48965 0.81701 0.23879 0.0
N1331 N 0.52033 0.8526 0.11738 0.0
C1332 C 0.49906 0.82662 0.21007 0.0
C1333 C 0.51377 0.84508 0.1478 0.0
N1334 N 0.53743 0.78798 0.21137 0.0
N1335 N 0.47803 0.88761 0.14916 0.0
H1336 H 0.53638 0.84117 0.10572 0.0
H1337 H 0.5095 0.86902 0.103 0.0
H1338 H 0.46193 0.89991 0.15995 0.0
H1339 H 0.48296 0.89795 0.12751 0.0
H1340 H 0.53615 0.78322 0.2354 0.0
H1341 H 0.55274 0.77412 0.20071 0.0
H1342 H 0.49724 0.79725 0.25222 0.0
H1343 H 0.49724 0.79725 0.25222 0.0
C1344 C 0.19124 0.47762 0.80955 0.0
C1345 C 0.18721 0.47232 0.84239 0.0
C1346 C 0.14123 0.49542 0.83436 0.0
C1347 C 0.14717 0.50692 0.80343 0.0
N1348 N 0.18329 0.51258 0.76486 0.0
N1349 N 0.16047 0.49034 0.88669 0.0
C1350 C 0.17372 0.49915 0.79205 0.0
C1351 C 0.16279 0.48528 0.85512 0.0
N1352 N 0.21151 0.46159 0.79411 0.0
N1353 N 0.11513 0.49065 0.84323 0.0
H1354 H 0.17677 0.48665 0.90221 0.0
H1355 H 0.14328 0.50143 0.89636 0.0
H1356 H 0.09901 0.49308 0.82722 0.0
H1357 H 0.11027 0.48051 0.86513 0.0
H1358 H 0.21297 0.46106 0.76959 0.0
H1359 H 0.22539 0.44645 0.8054 0.0
H1360 H 0.2037 0.5116 0.75872 0.0
H1361 H 0.17192 0.52684 0.74953 0.0
C1362 C 0.50961 0.18835 0.84226 0.0
C1363 C 0.51742 0.17618 0.87257 0.0
C1364 C 0.48033 0.1347 0.86983 0.0
C1365 C 0.47172 0.14811 0.84031 0.0
N1366 N 0.47622 0.1899 0.79973 0.0
N1367 N 0.50917 0.14004 0.9167 0.0
C1368 C 0.48591 0.17551 0.82689 0.0
C1369 C 0.50244 0.14994 0.88677 0.0
N1370 N 0.5254 0.21171 0.82771 0.0
N1371 N 0.46753 0.10703 0.88135 0.0
H1372 H 0.52533 0.1505 0.92936 0.0
H1373 H 0.49791 0.12322 0.92989 0.0
H1374 H 0.45122 0.09571 0.86967 0.0
H1375 H 0.47396 0.09386 0.90122 0.0
H1376 H 0.52323 0.21846 0.80412 0.0
H1377 H 0.54187 0.22322 0.83881 0.0
H1378 H 0.48318 0.21257 0.79087 0.0
H1379 H 0.46002 0.18013 0.78668 0.0
C1380 C 0.79385 0.5297 0.80101 0.0
C1381 C 0.80141 0.54057 0.83196 0.0
C1382 C 0.84594 0.51391 0.8225 0.0
C1383 C 0.83665 0.49772 0.79445 0.0
N1384 N 0.79703 0.48686 0.76157 0.0
N1385 N 0.83234 0.52886 0.87517 0.0
C1386 C 0.80924 0.50463 0.78514 0.0
C1387 C 0.82683 0.52865 0.84367 0.0
N1388 N 0.77225 0.54376 0.78578 0.0
N1389 N 0.87294 0.51811 0.82798 0.0
H1390 H 0.81789 0.53609 0.89163 0.0
H1391 H 0.85016 0.51857 0.88451 0.0
H1392 H 0.88739 0.51129 0.81136 0.0
H1393 H 0.88027 0.53157 0.84738 0.0
H1394 H 0.76027 0.56175 0.79608 0.0
H1395 H 0.768 0.53985 0.76191 0.0
H1396 H 0.77625 0.48796 0.75686 0.0
H1397 H 0.80699 0.4689 0.74865 0.0
C1398 C 0.50145 0.88241 0.81823 0.0
C1399 C 0.52772 0.86777 0.82108 0.0
C1400 C 0.50765 0.82516 0.85584 0.0
C1401 C 0.48088 0.83569 0.84776 0.0
N1402 N 0.45348 0.87087 0.81337 0.0
N1403 N 0.55289 0.81794 0.83599 0.0
C1404 C 0.47804 0.86346 0.8268 0.0
C1405 C 0.53005 0.8371 0.83812 0.0
N1406 N 0.49863 0.91476 0.80842 0.0
N1407 N 0.51203 0.80443 0.88095 0.0
H1408 H 0.56861 0.82355 0.82069 0.0
H1409 H 0.55446 0.79428 0.84625 0.0
H1410 H 0.49652 0.79708 0.89595 0.0
H1411 H 0.53146 0.79809 0.8889 0.0
H1412 H 0.48001 0.92716 0.80831 0.0
H1413 H 0.5152 0.93023 0.80418 0.0
H1414 H 0.45114 0.88919 0.79603 0.0
H1415 H 0.43627 0.85622 0.81651 0.0
C1416 C 0.15706 0.16915 0.52388 0.0
C1417 C 0.13861 0.19374 0.51216 0.0
C1418 C 0.15098 0.17851 0.45785 0.0
C1419 C 0.17089 0.15549 0.46944 0.0
N1420 N 0.18526 0.1205 0.51266 0.0
N1421 N 0.10984 0.20991 0.46877 0.0
C1422 C 0.17145 0.14814 0.5023 0.0
C1423 C 0.13282 0.19427 0.47935 0.0
N1424 N 0.16124 0.16618 0.55559 0.0
N1425 N 0.15031 0.18722 0.42671 0.0
H1426 H 0.09624 0.22126 0.48416 0.0
H1427 H 0.10303 0.20866 0.44546 0.0
H1428 H 0.16368 0.17776 0.41013 0.0
H1429 H 0.13798 0.20625 0.41779 0.0
H1430 H 0.17574 0.1506 0.56582 0.0
H1431 H 0.15037 0.17989 0.57195 0.0
H1432 H 0.18483 0.11176 0.53575 0.0
H1433 H 0.19497 0.10413 0.49726 0.0
C1434 C 0.86922 0.14213 0.52939 0.0
C1435 C 0.84035 0.14377 0.53004 0.0
C1436 C 0.84153 0.17732 0.4815 0.0
C1437 C 0.87012 0.1808 0.48397 0.0
N1438 N 0.91101 0.1693 0.51357 0.0
N1439 N 0.7994 0.1691 0.50909 0.0
C1440 C 0.88402 0.16358 0.50862 0.0
C1441 C 0.82655 0.16281 0.50656 0.0
N1442 N 0.88249 0.12012 0.54874 0.0
N1443 N 0.82865 0.18809 0.4549 0.0
H1444 H 0.78756 0.16001 0.52735 0.0
H1445 H 0.78907 0.18615 0.49477 0.0
H1446 H 0.83967 0.19526 0.43533 0.0
H1447 H 0.80787 0.18579 0.45097 0.0
H1448 H 0.90326 0.11563 0.54755 0.0
H1449 H 0.8722 0.10402 0.56384 0.0
H1450 H 0.92163 0.16047 0.53324 0.0
H1451 H 0.9223 0.18502 0.49916 0.0
C1452 C 0.80056 0.80118 0.47294 0.0
C1453 C 0.8071 0.83453 0.46368 0.0
C1454 C 0.85233 0.82496 0.48808 0.0
C1455 C 0.84412 0.79411 0.50186 0.0
N1456 N 0.80562 0.75746 0.51079 0.0
N1457 N 0.83698 0.88087 0.47531 0.0
C1458 C 0.81692 0.78372 0.49529 0.0
C1459 C 0.8324 0.8473 0.47487 0.0
N1460 N 0.77882 0.78498 0.46019 0.0
N1461 N 0.87912 0.83207 0.48496 0.0
H1462 H 0.8219 0.89809 0.46911 0.0
H1463 H 0.8546 0.89113 0.48513 0.0
H1464 H 0.89416 0.81461 0.49063 0.0
H1465 H 0.88581 0.85347 0.4733 0.0
H1466 H 0.77598 0.75918 0.46205 0.0
H1467 H 0.76454 0.79659 0.44625 0.0
H1468 H 0.78482 0.75272 0.51064 0.0
H1469 H 0.81628 0.74178 0.52554 0.0
C1470 C 0.17043 0.84048 0.48563 0.0
C1471 C 0.15366 0.81502 0.4984 0.0
C1472 C 0.17102 0.82844 0.55139 0.0
C1473 C 0.18999 0.85128 0.53858 0.0
N1474 N 0.20004 0.88837 0.49573 0.0
N1475 N 0.12883 0.79786 0.54382 0.0
C1476 C 0.18691 0.86059 0.50637 0.0
C1477 C 0.15067 0.81392 0.53149 0.0
N1478 N 0.17121 0.84484 0.45381 0.0
N1479 N 0.17355 0.81831 0.58191 0.0
H1480 H 0.11396 0.78699 0.52939 0.0
H1481 H 0.12436 0.79823 0.56779 0.0
H1482 H 0.18773 0.82837 0.59761 0.0
H1483 H 0.16285 0.79789 0.59046 0.0
H1484 H 0.18489 0.86048 0.44258 0.0
H1485 H 0.15796 0.83249 0.43859 0.0
H1486 H 0.19737 0.89819 0.47318 0.0
H1487 H 0.21193 0.90322 0.51068 0.0
C1488 C 0.65287 0.01738 0.67536 0.0
C1489 C 0.66072 0.98314 0.677 0.0
C1490 C 0.70135 0.99669 0.64594 0.0
C1491 C 0.69651 0.03144 0.64995 0.0
N1492 N 0.66557 0.07529 0.66441 0.0
N1493 N 0.69279 0.94024 0.66383 0.0
C1494 C 0.67138 0.0419 0.66309 0.0
C1495 C 0.68483 0.97282 0.6618 0.0
N1496 N 0.62798 0.02628 0.6865 0.0
N1497 N 0.72149 0.98645 0.6263 0.0
H1498 H 0.68015 0.92163 0.6725 0.0
H1499 H 0.71233 0.93231 0.65846 0.0
H1500 H 0.73353 0.00333 0.61396 0.0
H1501 H 0.72452 0.96153 0.62 0.0
H1502 H 0.61993 0.0503 0.68566 0.0
H1503 H 0.6144 0.00869 0.69533 0.0
H1504 H 0.64783 0.08524 0.6734 0.0
H1505 H 0.67874 0.09358 0.65626 0.0
C1506 C 0.97898 0.66123 0.65259 0.0
C1507 C 0.97107 0.64772 0.62282 0.0
C1508 C 0.00461 0.60225 0.62975 0.0
C1509 C 0.01347 0.61679 0.65868 0.0
N1510 N 0.01091 0.66149 0.69667 0.0
N1511 N 0.97743 0.60731 0.58156 0.0
C1512 C 1.00102 0.64659 0.66986 0.0
C1513 C 0.98423 0.61872 0.611 0.0
N1514 N 0.96489 0.68773 0.66471 0.0
N1515 N 0.01556 0.5724 0.62053 0.0
H1516 H 0.96252 0.61867 0.56757 0.0
H1517 H 0.98754 0.58814 0.56999 0.0
H1518 H 0.0305 0.56003 0.63369 0.0
H1519 H 0.00878 0.55863 0.6012 0.0
H1520 H 0.96695 0.69609 0.68784 0.0
H1521 H 0.94998 0.70065 0.65199 0.0
H1522 H 0.0055 0.6854 0.70403 0.0
H1523 H 0.0257 0.65048 0.71108 0.0
C1524 C 0.34532 0.04299 0.6589 0.0
C1525 C 0.35876 0.0335 0.68743 0.0
C1526 C 0.3477 0.9749 0.67641 0.0
C1527 C 0.33529 0.98377 0.64707 0.0
N1528 N 0.33032 0.02577 0.60655 0.0
N1529 N 0.38239 0.98928 0.71483 0.0
C1530 C 0.33656 0.01774 0.63708 0.0
C1531 C 0.3633 0.99904 0.69319 0.0
N1532 N 0.34025 0.07595 0.65284 0.0
N1533 N 0.34307 0.94434 0.68972 0.0
H1534 H 0.39451 0.0065 0.72699 0.0
H1535 H 0.38778 0.96427 0.71818 0.0
H1536 H 0.32947 0.92704 0.68022 0.0
H1537 H 0.35012 0.93805 0.71223 0.0
H1538 H 0.32868 0.08412 0.63366 0.0
H1539 H 0.34624 0.09505 0.66802 0.0
H1540 H 0.33326 0.04953 0.59711 0.0
H1541 H 0.3251 0.00778 0.58973 0.0
C1542 C 0.0094 0.3372 0.65767 0.0
C1543 C 0.01618 0.34837 0.62685 0.0
C1544 C 0.97996 0.39122 0.63 0.0
C1545 C 0.97213 0.37867 0.65994 0.0
N1546 N 0.97781 0.33794 0.70133 0.0
N1547 N 0.00687 0.38414 0.58248 0.0
C1548 C 0.98656 0.35125 0.67353 0.0
C1549 C 1.00113 0.37493 0.61272 0.0
N1550 N 0.02525 0.31347 0.67211 0.0
N1551 N 0.96726 0.41909 0.61833 0.0
H1552 H 0.02236 0.37307 0.56956 0.0
H1553 H 0.99538 0.40105 0.56933 0.0
H1554 H 0.9517 0.43123 0.63028 0.0
H1555 H 0.97317 0.43169 0.5981 0.0
H1556 H 0.0239 0.30722 0.69585 0.0
H1557 H 0.04093 0.30097 0.66072 0.0
H1558 H 0.9848 0.31538 0.71062 0.0
H1559 H 0.9624 0.34872 0.7146 0.0
C1560 C 0.65106 0.99821 0.36 0.0
C1561 C 0.67918 0.99133 0.35659 0.0
C1562 C 0.68151 0.03679 0.31745 0.0
C1563 C 0.65284 0.04159 0.31873 0.0
N1564 N 0.60999 0.01857 0.33459 0.0
N1565 N 0.71985 0.99987 0.32654 0.0
C1566 C 0.6375 0.02005 0.33828 0.0
C1567 C 0.69412 0.00967 0.33398 0.0
N1568 N 0.63721 0.98373 0.3841 0.0
N1569 N 0.69695 0.05813 0.30029 0.0
H1570 H 0.72998 0.98019 0.33766 0.0
H1571 H 0.73041 0.00932 0.30737 0.0
H1572 H 0.68846 0.07651 0.28622 0.0
H1573 H 0.71804 0.05872 0.30135 0.0
H1574 H 0.61727 0.99001 0.38948 0.0
H1575 H 0.6466 0.96799 0.40057 0.0
H1576 H 0.59801 1.00095 0.34596 0.0
H1577 H 0.59954 0.03273 0.31772 0.0
C1578 C 0.01977 0.63179 0.33471 0.0
C1579 C 0.99518 0.62206 0.34921 0.0
C1580 C 0.01601 0.63548 0.40111 0.0
C1581 C 0.03913 0.64918 0.38606 0.0
N1582 N 0.05897 0.66793 0.33729 0.0
N1583 N 0.96835 0.6208 0.39649 0.0
C1584 C 0.03982 0.64947 0.35248 0.0
C1585 C 0.99288 0.62553 0.38255 0.0
N1586 N 0.02443 0.62331 0.30404 0.0
N1587 N 0.01638 0.63085 0.433 0.0
H1588 H 0.9509 0.61422 0.38388 0.0
H1589 H 0.96481 0.6264 0.42008 0.0
H1590 H 0.03296 0.63727 0.44721 0.0
H1591 H 1.0013 0.61788 0.44488 0.0
H1592 H 0.04305 0.627 0.29321 0.0
H1593 H 0.01077 0.60924 0.29057 0.0
H1594 H 0.05883 0.67152 0.31295 0.0
H1595 H 0.0731 0.6828 0.34919 0.0
C1596 C 0.35954 0.0184 0.31715 0.0
C1597 C 0.35352 0.98398 0.32165 0.0
C1598 C 0.31787 1.00143 0.35945 0.0
C1599 C 0.32012 0.0352 0.34919 0.0
N1600 N 0.34338 0.07577 0.31751 0.0
N1601 N 0.33012 0.9429 0.35271 0.0
C1602 C 0.34128 0.04368 0.32816 0.0
C1603 C 0.33373 0.97559 0.34473 0.0
N1604 N 0.38343 0.02694 0.30335 0.0
N1605 N 0.30079 0.9943 0.38372 0.0
H1606 H 0.34342 0.92431 0.34582 0.0
H1607 H 0.31455 0.93403 0.36668 0.0
H1608 H 0.28925 0.01264 0.39485 0.0
H1609 H 0.29922 0.97102 0.39448 0.0
H1610 H 0.39048 0.05147 0.30204 0.0
H1611 H 0.39741 0.00897 0.29605 0.0
H1612 H 0.35626 0.08248 0.29933 0.0
H1613 H 0.33086 0.09508 0.32524 0.0
C1614 C 0.04212 0.35582 0.37744 0.0
C1615 C 0.03782 0.36992 0.34687 0.0
C1616 C 0.99036 0.35131 0.3492 0.0
C1617 C 0.99348 0.34226 0.38155 0.0
N1618 N 0.02218 0.34308 0.42805 0.0
N1619 N 0.00498 0.38867 0.308 0.0
C1620 C 0.01935 0.34654 0.39617 0.0
C1621 C 0.01108 0.36991 0.33404 0.0
N1622 N 0.06784 0.34968 0.3882 0.0
N1623 N 0.96814 0.34098 0.33233 0.0
H1624 H 0.01904 0.40435 0.29731 0.0
H1625 H 0.98522 0.3916 0.29944 0.0
H1626 H 0.95342 0.32523 0.34164 0.0
H1627 H 0.96614 0.34471 0.30808 0.0
H1628 H 0.07189 0.33664 0.40902 0.0
H1629 H 0.08502 0.35417 0.37477 0.0
H1630 H 0.04007 0.34898 0.44013 0.0
H1631 H 0.00594 0.33775 0.44273 0.0
C1632 C 0.69298 0.64535 0.02145 0.0
C1633 C 0.67844 0.63738 0.99325 0.0
C1634 C 0.63663 0.65925 0.01763 0.0
C1635 C 0.65102 0.66636 0.04601 0.0
N1636 N 0.69064 0.65556 0.07782 0.0
N1637 N 0.63476 0.62677 0.96926 0.0
C1638 C 0.67847 0.65581 0.04881 0.0
C1639 C 0.64966 0.64093 0.99307 0.0
N1640 N 0.72065 0.64519 0.0218 0.0
N1641 N 0.61105 0.67161 0.01319 0.0
H1642 H 0.64366 0.61254 0.95149 0.0
H1643 H 0.61364 0.62613 0.96911 0.0
H1644 H 0.60097 0.68541 0.03033 0.0
H1645 H 0.60076 0.67038 0.99163 0.0
H1646 H 0.73216 0.6544 0.04064 0.0
H1647 H 0.73218 0.63853 0.00237 0.0
H1648 H 0.70996 0.64583 0.08202 0.0
H1649 H 0.67988 0.66124 0.09812 0.0
C1650 C 0.34322 0.65905 0.01006 0.0
C1651 C 0.31447 0.65706 0.00711 0.0
C1652 C 0.31804 0.67817 0.95261 0.0
C1653 C 0.34612 0.68484 0.95719 0.0
N1654 N 0.38525 0.6837 0.99154 0.0
N1655 N 0.27415 0.66718 0.97606 0.0
C1656 C 0.35874 0.67544 0.98617 0.0
C1657 C 0.30181 0.66699 0.97835 0.0
N1658 N 0.35569 0.64505 0.03579 0.0
N1659 N 0.30696 0.68225 0.92329 0.0
H1660 H 0.2617 0.65838 0.99395 0.0
H1661 H 0.26341 0.67799 0.95741 0.0
H1662 H 0.31883 0.68822 0.90397 0.0
H1663 H 0.28697 0.67641 0.91746 0.0
H1664 H 0.37663 0.64272 0.03822 0.0
H1665 H 0.34492 0.63292 0.05348 0.0
H1666 H 0.39489 0.68128 0.01338 0.0
H1667 H 0.39724 0.69505 0.9745 0.0
C1668 C 0.36119 0.3916 0.98288 0.0
C1669 C 0.3325 0.39186 0.98637 0.0
C1670 C 0.33893 0.36753 0.03907 0.0
C1671 C 0.36644 0.36019 0.03249 0.0
N1672 N 0.40358 0.36379 0.99631 0.0
N1673 N 0.29381 0.377 0.01781 0.0
C1674 C 0.37774 0.37244 0.00413 0.0
C1675 C 0.32128 0.37954 0.01474 0.0
N1676 N 0.37243 0.40906 0.95868 0.0
N1677 N 0.32966 0.3627 0.06877 0.0
H1678 H 0.28004 0.38548 1.00083 0.0
H1679 H 0.28466 0.36415 0.03621 0.0
H1680 H 0.34292 0.35672 0.08712 0.0
H1681 H 0.31006 0.36861 0.07563 0.0
H1682 H 0.39327 0.41206 0.95614 0.0
H1683 H 0.36068 0.42329 0.94302 0.0
H1684 H 0.41188 0.36871 0.97433 0.0
H1685 H 0.41609 0.34961 0.01112 0.0
C1686 C 0.6648 0.35089 0.02511 0.0
C1687 C 0.69203 0.35671 0.01563 0.0
C1688 C 0.67885 0.34009 0.96171 0.0
C1689 C 0.65366 0.32781 0.9726 0.0
N1690 N 0.62233 0.32154 0.01515 0.0
N1691 N 0.7254 0.35482 0.97458 0.0
C1692 C 0.64635 0.33375 0.00438 0.0
C1693 C 0.69908 0.35124 0.98368 0.0
N1694 N 0.65668 0.3618 0.05404 0.0
N1695 N 0.68322 0.3415 0.93013 0.0
H1696 H 0.74071 0.36322 0.98975 0.0
H1697 H 0.73243 0.34721 0.95265 0.0
H1698 H 0.66785 0.33591 0.91395 0.0
H1699 H 0.70052 0.35186 0.9203 0.0
H1700 H 0.63667 0.36095 0.06152 0.0
H1701 H 0.66965 0.37469 0.06941 0.0
H1702 H 0.61711 0.32131 0.03887 0.0
H1703 H 0.60815 0.30997 1.00033 0.0
C1704 C 0.2114 0.29414 0.31666 0.0
C1705 C 0.18703 0.303 0.33219 0.0
C1706 C 0.19463 0.25757 0.37048 0.0
C1707 C 0.21765 0.24715 0.35335 0.0
N1708 N 0.25222 0.26003 0.31598 0.0
N1709 N 0.15384 0.29161 0.37205 0.0
C1710 C 0.22726 0.26679 0.32808 0.0
C1711 C 0.17839 0.28457 0.35892 0.0
N1712 N 0.2187 0.31093 0.29002 0.0
N1713 N 0.18892 0.24222 0.39839 0.0
H1714 H 0.14143 0.31116 0.36425 0.0
H1715 H 0.14483 0.27682 0.38918 0.0
H1716 H 0.20047 0.22238 0.40727 0.0
H1717 H 0.17453 0.25106 0.41412 0.0
H1718 H 0.23352 0.30252 0.27465 0.0
H1719 H 0.20875 0.33242 0.28216 0.0
H1720 H 0.26204 0.27555 0.30009 0.0
H1721 H 0.26433 0.2404 0.32422 0.0
C1722 C 0.78277 0.20612 0.32252 0.0
C1723 C 0.79058 0.19283 0.35226 0.0
C1724 C 0.76008 0.14527 0.34357 0.0
C1725 C 0.74883 0.16204 0.317 0.0
N1726 N 0.74698 0.21112 0.2836 0.0
N1727 N 0.78825 0.14854 0.39067 0.0
C1728 C 0.75962 0.19307 0.30689 0.0
C1729 C 0.77974 0.16191 0.36264 0.0
N1730 N 0.79811 0.23021 0.30851 0.0
N1731 N 0.75216 0.11326 0.3501 0.0
H1732 H 0.80425 0.15859 0.40374 0.0
H1733 H 0.7789 0.12835 0.40158 0.0
H1734 H 0.73796 0.10049 0.33624 0.0
H1735 H 0.76116 0.09834 0.3674 0.0
H1736 H 0.79489 0.23798 0.28531 0.0
H1737 H 0.81588 0.23959 0.31867 0.0
H1738 H 0.75247 0.23556 0.27793 0.0
H1739 H 0.72959 0.20296 0.27178 0.0
C1740 C 0.8491 0.70146 0.35657 0.0
C1741 C 0.83816 0.67555 0.33748 0.0
C1742 C 0.79241 0.69804 0.34444 0.0
C1743 C 0.80321 0.72418 0.36341 0.0
N1744 N 0.84032 0.74504 0.39513 0.0
N1745 N 0.79891 0.64236 0.32402 0.0
C1746 C 0.83116 0.72399 0.37195 0.0
C1747 C 0.80965 0.67167 0.33481 0.0
N1748 N 0.87657 0.70476 0.35967 0.0
N1749 N 0.7661 0.69901 0.33416 0.0
H1750 H 0.81092 0.62196 0.31842 0.0
H1751 H 0.77824 0.63702 0.32426 0.0
H1752 H 0.75236 0.71718 0.34118 0.0
H1753 H 0.75843 0.68298 0.31684 0.0
H1754 H 0.88589 0.72531 0.37028 0.0
H1755 H 0.89019 0.68768 0.35002 0.0
H1756 H 0.86001 0.74451 0.4042 0.0
H1757 H 0.82738 0.76095 0.40746 0.0
C1758 C 0.25195 0.82722 0.31259 0.0
C1759 C 0.26298 0.85789 0.32361 0.0
C1760 C 0.24013 0.85036 0.37412 0.0
C1761 C 0.22806 0.82062 0.36242 0.0
N1762 N 0.2153 0.78765 0.31672 0.0
N1763 N 0.26168 0.90307 0.36098 0.0
C1764 C 0.23163 0.81124 0.33042 0.0
C1765 C 0.25501 0.87094 0.35318 0.0
N1766 N 0.26194 0.81215 0.28624 0.0
N1767 N 0.23783 0.85857 0.40524 0.0
H1768 H 0.27161 0.9188 0.34521 0.0
H1769 H 0.25489 0.91502 0.38125 0.0
H1770 H 0.22735 0.84371 0.42121 0.0
H1771 H 0.24822 0.87844 0.4157 0.0
H1772 H 0.25659 0.78796 0.27938 0.0
H1773 H 0.27731 0.82252 0.27281 0.0
H1774 H 0.21558 0.78236 0.29265 0.0
H1775 H 0.1997 0.77571 0.32865 0.0
C1776 C 0.19911 0.68816 0.68727 0.0
C1777 C 0.17044 0.68641 0.68394 0.0
C1778 C 0.16976 0.74085 0.65771 0.0
C1779 C 0.19853 0.74191 0.65932 0.0
N1780 N 0.24112 0.7166 0.67476 0.0
N1781 N 0.12973 0.70614 0.65792 0.0
C1782 C 0.21338 0.71544 0.67375 0.0
C1783 C 0.15614 0.71129 0.66674 0.0
N1784 N 0.21258 0.66386 0.70376 0.0
N1785 N 0.15522 0.76841 0.64865 0.0
H1786 H 0.11907 0.68452 0.6636 0.0
H1787 H 0.11925 0.72173 0.6423 0.0
H1788 H 0.16413 0.791 0.6425 0.0
H1789 H 0.13421 0.77 0.65042 0.0
H1790 H 0.23285 0.66514 0.71064 0.0
H1791 H 0.2029 0.64262 0.71198 0.0
H1792 H 0.25343 0.69662 0.68143 0.0
H1793 H 0.25226 0.73743 0.66781 0.0
C1794 C 0.2576 0.19784 0.68318 0.0
C1795 C 0.26985 0.16811 0.67187 0.0
C1796 C 0.2407 0.17022 0.62445 0.0
C1797 C 0.22948 0.20078 0.63533 0.0
N1798 N 0.23249 0.24813 0.67033 0.0
N1799 N 0.27462 0.12643 0.63133 0.0
C1800 C 0.23953 0.21592 0.66329 0.0
C1801 C 0.26186 0.15443 0.64227 0.0
N1802 N 0.26245 0.20824 0.71341 0.0
N1803 N 0.23093 0.15641 0.59715 0.0
H1804 H 0.28868 0.11314 0.64492 0.0
H1805 H 0.272 0.11683 0.60871 0.0
H1806 H 0.21749 0.16918 0.58231 0.0
H1807 H 0.23568 0.13244 0.58935 0.0
H1808 H 0.25164 0.22751 0.72407 0.0
H1809 H 0.27554 0.19575 0.72887 0.0
H1810 H 0.24154 0.2618 0.68853 0.0
H1811 H 0.21946 0.26233 0.65614 0.0
C1812 C 0.81833 0.24972 0.65558 0.0
C1813 C 0.79115 0.2432 0.66418 0.0
C1814 C 0.78856 0.29848 0.68932 0.0
C1815 C 0.81702 0.30228 0.68562 0.0
N1816 N 0.85908 0.28255 0.66365 0.0
N1817 N 0.74913 0.26214 0.68593 0.0
C1818 C 0.83192 0.2782 0.66818 0.0
C1819 C 0.77584 0.26797 0.67993 0.0
N1820 N 0.83065 0.22939 0.63415 0.0
N1821 N 0.77366 0.32446 0.70095 0.0
H1822 H 0.73884 0.24147 0.67677 0.0
H1823 H 0.73727 0.27721 0.70026 0.0
H1824 H 0.78238 0.34692 0.70816 0.0
H1825 H 0.7526 0.3249 0.70168 0.0
H1826 H 0.84959 0.23408 0.62455 0.0
H1827 H 0.82054 0.20963 0.62322 0.0
H1828 H 0.87179 0.264 0.65492 0.0
H1829 H 0.86939 0.30424 0.67015 0.0
C1830 C 0.74414 0.81929 0.61136 0.0
C1831 C 0.76203 0.7958 0.62533 0.0
C1832 C 0.74348 0.80789 0.67762 0.0
C1833 C 0.72711 0.83353 0.66407 0.0
N1834 N 0.71438 0.86683 0.61868 0.0
N1835 N 0.78185 0.77061 0.67199 0.0
C1836 C 0.72814 0.84007 0.63105 0.0
C1837 C 0.76255 0.79088 0.65854 0.0
N1838 N 0.74236 0.82148 0.57921 0.0
N1839 N 0.74002 0.79867 0.70836 0.0
H1840 H 0.7955 0.75647 0.65892 0.0
H1841 H 0.78559 0.76939 0.69618 0.0
H1842 H 0.72658 0.81054 0.72347 0.0
H1843 H 0.74889 0.77746 0.71833 0.0
H1844 H 0.72776 0.83559 0.56728 0.0
H1845 H 0.7542 0.80694 0.56423 0.0
H1846 H 0.71666 0.87529 0.59566 0.0
H1847 H 0.70214 0.88235 0.63215 0.0
C1848 C 0.35505 0.17831 0.2494 0.0
C1849 C 0.32916 0.1896 0.25923 0.0
C1850 C 0.32979 0.23411 0.2196 0.0
C1851 C 0.35617 0.22389 0.21058 0.0
N1852 N 0.39491 0.18761 0.21738 0.0
N1853 N 0.29401 0.23162 0.25796 0.0
C1854 C 0.36924 0.19657 0.22591 0.0
C1855 C 0.31719 0.21853 0.24559 0.0
N1856 N 0.36539 0.14921 0.2615 0.0
N1857 N 0.31612 0.25753 0.20212 0.0
H1858 H 0.28366 0.22041 0.27643 0.0
H1859 H 0.28616 0.2549 0.25159 0.0
H1860 H 0.32499 0.27049 0.18363 0.0
H1861 H 0.29556 0.26271 0.20459 0.0
H1862 H 0.38273 0.13738 0.25332 0.0
H1863 H 0.35553 0.1355 0.27879 0.0
H1864 H 0.40689 0.17054 0.22975 0.0
H1865 H 0.40505 0.19855 0.1986 0.0
C1866 C 0.81844 0.32148 0.31246 0.0
C1867 C 0.84554 0.3311 0.31946 0.0
C1868 C 0.8423 0.37447 0.27863 0.0
C1869 C 0.81741 0.36041 0.26794 0.0
N1870 N 0.78341 0.31713 0.27245 0.0
N1871 N 0.88326 0.36813 0.31044 0.0
C1872 C 0.80571 0.33322 0.28442 0.0
C1873 C 0.8575 0.35807 0.30286 0.0
N1874 N 0.80453 0.30177 0.33294 0.0
N1875 N 0.85094 0.40401 0.26601 0.0
H1876 H 0.89422 0.35842 0.32952 0.0
H1877 H 0.89437 0.38483 0.29692 0.0
H1878 H 0.83976 0.41711 0.24898 0.0
H1879 H 0.86778 0.41705 0.27432 0.0
H1880 H 0.78375 0.29745 0.3309 0.0
H1881 H 0.81327 0.29187 0.35333 0.0
H1882 H 0.77572 0.29519 0.2821 0.0
H1883 H 0.77386 0.32384 0.25136 0.0
C1884 C 0.65237 0.80308 0.2569 0.0
C1885 C 0.66096 0.77125 0.24616 0.0
C1886 C 0.69467 0.76837 0.28885 0.0
C1887 C 0.68734 0.80124 0.29819 0.0
N1888 N 0.6575 0.84911 0.29273 0.0
N1889 N 0.68342 0.71925 0.25754 0.0
C1890 C 0.66552 0.81811 0.28294 0.0
C1891 C 0.68002 0.75248 0.26394 0.0
N1892 N 0.63163 0.8199 0.24251 0.0
N1893 N 0.71652 0.75309 0.3027 0.0
H1894 H 0.67295 0.70717 0.23931 0.0
H1895 H 0.69471 0.70313 0.27183 0.0
H1896 H 0.72756 0.76397 0.32115 0.0
H1897 H 0.72484 0.73086 0.29443 0.0
H1898 H 0.6202 0.81035 0.22371 0.0
H1899 H 0.6202 0.81035 0.22371 0.0
H1900 H 0.64165 0.86226 0.28188 0.0
H1901 H 0.66666 0.86162 0.3115 0.0
C1902 C 0.21938 0.68171 0.28501 0.0
C1903 C 0.20905 0.65241 0.27031 0.0
C1904 C 0.17082 0.65198 0.30688 0.0
C1905 C 0.18183 0.68059 0.32224 0.0
N1906 N 0.22126 0.71479 0.33258 0.0
N1907 N 0.17884 0.60515 0.2716 0.0
C1908 C 0.20756 0.69304 0.31338 0.0
C1909 C 0.18589 0.63615 0.28263 0.0
N1910 N 0.23947 0.69988 0.27116 0.0
N1911 N 0.14614 0.63978 0.31564 0.0
H1912 H 0.18995 0.59269 0.25437 0.0
H1913 H 0.16373 0.59046 0.28147 0.0
H1914 H 0.13524 0.64938 0.33453 0.0
H1915 H 0.13567 0.62143 0.30305 0.0
H1916 H 0.24554 0.72334 0.27935 0.0
H1917 H 0.24845 0.69308 0.24998 0.0
H1918 H 0.24137 0.7216 0.3289 0.0
H1919 H 0.2133 0.72392 0.35355 0.0
C1920 C 0.32452 0.77824 0.74767 0.0
C1921 C 0.34831 0.79434 0.75898 0.0
C1922 C 0.34564 0.83444 0.71506 0.0
C1923 C 0.32011 0.82075 0.70609 0.0
N1924 N 0.28415 0.78113 0.71443 0.0
N1925 N 0.38187 0.83769 0.75431 0.0
C1926 C 0.30933 0.79288 0.72243 0.0
C1927 C 0.35913 0.82226 0.74268 0.0
N1928 N 0.3167 0.74862 0.76082 0.0
N1929 N 0.35711 0.85869 0.6968 0.0
H1930 H 0.39302 0.82827 0.77339 0.0
H1931 H 0.38907 0.86054 0.74616 0.0
H1932 H 0.34754 0.86865 0.67686 0.0
H1933 H 0.37678 0.86751 0.70001 0.0
H1934 H 0.30156 0.73343 0.75128 0.0
H1935 H 0.327 0.73765 0.77977 0.0
H1936 H 0.27376 0.76333 0.7275 0.0
H1937 H 0.27269 0.79084 0.69573 0.0
C1938 C 0.19543 0.31344 0.73942 0.0
C1939 C 0.19153 0.34775 0.74711 0.0
C1940 C 0.15683 0.35291 0.70575 0.0
C1941 C 0.16299 0.31993 0.69562 0.0
N1942 N 0.18291 0.26604 0.70631 0.0
N1943 N 0.16993 0.40095 0.73732 0.0
C1944 C 0.18082 0.29932 0.71351 0.0
C1945 C 0.17251 0.36769 0.73029 0.0
N1946 N 0.21375 0.29481 0.7564 0.0
N1947 N 0.13514 0.36944 0.69275 0.0
H1948 H 0.1802 0.41235 0.75607 0.0
H1949 H 0.15905 0.4178 0.72338 0.0
H1950 H 0.12267 0.35879 0.67548 0.0
H1951 H 0.12785 0.39224 0.70103 0.0
H1952 H 0.21992 0.27078 0.75042 0.0
H1953 H 0.22377 0.30387 0.7764 0.0
H1954 H 0.19308 0.2485 0.72016 0.0
H1955 H 0.17332 0.25521 0.68681 0.0
C1956 C 0.65006 0.16269 0.74614 0.0
C1957 C 0.673 0.17888 0.73328 0.0
C1958 C 0.66454 0.22812 0.76625 0.0
C1959 C 0.64494 0.20969 0.78282 0.0
N1960 N 0.61665 0.16108 0.78791 0.0
N1961 N 0.7034 0.22609 0.73213 0.0
C1962 C 0.63657 0.17764 0.77211 0.0
C1963 C 0.68032 0.21163 0.74322 0.0
N1964 N 0.64147 0.13299 0.73361 0.0
N1965 N 0.66807 0.26134 0.77275 0.0
H1966 H 0.71593 0.21438 0.71589 0.0
H1967 H 0.71129 0.24842 0.74085 0.0
H1968 H 0.65695 0.2738 0.78995 0.0
H1969 H 0.68004 0.27714 0.75925 0.0
H1970 H 0.62359 0.12104 0.73986 0.0
H1971 H 0.65164 0.12115 0.71535 0.0
H1972 H 0.61149 0.13618 0.78397 0.0
H1973 H 0.60565 0.17226 0.80597 0.0
C1974 C 0.7853 0.67845 0.6772 0.0
C1975 C 0.8133 0.67084 0.67463 0.0
C1976 C 0.81002 0.63399 0.72071 0.0
C1977 C 0.78362 0.64662 0.7264 0.0
N1978 N 0.74638 0.68256 0.711 0.0
N1979 N 0.85257 0.64024 0.69321 0.0
C1980 C 0.7712 0.66907 0.70475 0.0
C1981 C 0.82574 0.64813 0.69615 0.0
N1982 N 0.77188 0.6936 0.6528 0.0
N1983 N 0.81968 0.6079 0.73845 0.0
H1984 H 0.86431 0.64842 0.67448 0.0
H1985 H 0.86365 0.6271 0.71019 0.0
H1986 H 0.80827 0.59657 0.75606 0.0
H1987 H 0.83777 0.59546 0.73395 0.0
H1988 H 0.75093 0.69684 0.65192 0.0
H1989 H 0.78145 0.69987 0.63197 0.0
H1990 H 0.73814 0.7026 0.6984 0.0
H1991 H 0.73463 0.67513 0.72996 0.0
C1992 C 0.28081 0.36026 0.23171 0.0
C1993 C 0.26239 0.38489 0.22065 0.0
C1994 C 0.28467 0.38623 0.16939 0.0
C1995 C 0.30176 0.35974 0.17964 0.0
N1996 N 0.32251 0.3298 0.22325 0.0
N1997 N 0.25081 0.42784 0.18322 0.0
C1998 C 0.30195 0.34943 0.21173 0.0
C1999 C 0.26583 0.40015 0.19081 0.0
N2000 N 0.27719 0.34593 0.2606 0.0
N2001 N 0.28629 0.39763 0.13912 0.0
H2002 H 0.237 0.43833 0.19884 0.0
H2003 H 0.25339 0.44195 0.16287 0.0
H2004 H 0.30142 0.38979 0.12387 0.0
H2005 H 0.27248 0.41412 0.1288 0.0
H2006 H 0.28739 0.3245 0.26816 0.0
H2007 H 0.26295 0.35466 0.27662 0.0
H2008 H 0.32517 0.32433 0.24708 0.0
H2009 H 0.33838 0.32111 0.20947 0.0
C2010 C 0.26539 0.64182 0.83497 0.0
C2011 C 0.26827 0.67598 0.82595 0.0
C2012 C 0.22842 0.67088 0.79127 0.0
C2013 C 0.22741 0.63601 0.79784 0.0
N2014 N 0.24648 0.58718 0.82283 0.0
N2015 N 0.25531 0.72141 0.79125 0.0
C2016 C 0.2464 0.62114 0.81877 0.0
C2017 C 0.25046 0.69017 0.80305 0.0
N2018 N 0.28038 0.62936 0.85961 0.0
N2019 N 0.208 0.68579 0.77425 0.0
H2020 H 0.27107 0.73667 0.79917 0.0
H2021 H 0.24509 0.73119 0.77169 0.0
H2022 H 0.19193 0.67256 0.76407 0.0
H2023 H 0.20594 0.71163 0.77202 0.0
H2024 H 0.27713 0.60593 0.8696 0.0
H2025 H 0.29469 0.64353 0.8719 0.0
H2026 H 0.26172 0.57435 0.83497 0.0
H2027 H 0.23238 0.57141 0.8119 0.0
C2028 C 0.29893 0.28645 0.78608 0.0
C2029 C 0.30429 0.29533 0.81804 0.0
C2030 C 0.33967 0.25234 0.82143 0.0
C2031 C 0.33158 0.24037 0.79137 0.0
N2032 N 0.30915 0.24986 0.74169 0.0
N2033 N 0.32918 0.28626 0.86676 0.0
C2034 C 0.31282 0.25863 0.7726 0.0
C2035 C 0.32464 0.27829 0.83582 0.0
N2036 N 0.28009 0.30423 0.76911 0.0
N2037 N 0.36251 0.23972 0.83559 0.0
H2038 H 0.31959 0.30598 0.87803 0.0
H2039 H 0.34099 0.27184 0.88206 0.0
H2040 H 0.37466 0.22181 0.82486 0.0
H2041 H 0.37121 0.2495 0.85607 0.0
H2042 H 0.2736 0.29827 0.74641 0.0
H2043 H 0.27015 0.32508 0.77819 0.0
H2044 H 0.29737 0.26316 0.72554 0.0
H2045 H 0.31926 0.22972 0.73143 0.0
C2046 C 0.73156 0.31792 0.80922 0.0
C2047 C 0.71567 0.3363 0.83097 0.0
C2048 C 0.73673 0.38868 0.81328 0.0
C2049 C 0.75456 0.3698 0.79436 0.0
N2050 N 0.77171 0.31627 0.77701 0.0
N2051 N 0.70511 0.38877 0.85653 0.0
C2052 C 0.7527 0.33435 0.79301 0.0
C2053 C 0.71864 0.37166 0.83363 0.0
N2054 N 0.72587 0.28503 0.80312 0.0
N2055 N 0.73718 0.42288 0.81178 0.0
H2056 H 0.69161 0.37738 0.87185 0.0
H2057 H 0.70873 0.41376 0.86205 0.0
H2058 H 0.75068 0.43601 0.79762 0.0
H2059 H 0.72289 0.4382 0.82249 0.0
H2060 H 0.73509 0.27132 0.78533 0.0
H2061 H 0.71022 0.27195 0.81384 0.0
H2062 H 0.77359 0.29036 0.77856 0.0
H2063 H 0.78703 0.32725 0.76382 0.0
C2064 C 0.69152 0.73378 0.78361 0.0
C2065 C 0.68256 0.7207 0.8128 0.0
C2066 C 0.64548 0.76205 0.81354 0.0
C2067 C 0.65532 0.77591 0.78512 0.0
N2068 N 0.68272 0.77051 0.73902 0.0
N2069 N 0.6528 0.724 0.85746 0.0
C2070 C 0.67686 0.76037 0.76892 0.0
C2071 C 0.65975 0.73501 0.82811 0.0
N2072 N 0.71502 0.72208 0.77087 0.0
N2073 N 0.62232 0.77481 0.82627 0.0
H2074 H 0.66275 0.70442 0.86888 0.0
H2075 H 0.63832 0.73534 0.87154 0.0
H2076 H 0.61176 0.79475 0.81607 0.0
H2077 H 0.61232 0.76441 0.84535 0.0
H2078 H 0.72469 0.73359 0.7521 0.0
H2079 H 0.72606 0.70223 0.78058 0.0
H2080 H 0.69577 0.75754 0.72423 0.0
H2081 H 0.67251 0.79017 0.72786 0.0
C2082 C 0.73391 0.6152 0.18191 0.0
C2083 C 0.72793 0.64938 0.1882 0.0
C2084 C 0.76377 0.65073 0.22888 0.0
C2085 C 0.76906 0.61629 0.2233 0.0
N2086 N 0.75678 0.56416 0.19886 0.0
N2087 N 0.73394 0.69826 0.22115 0.0
C2088 C 0.75316 0.59798 0.20129 0.0
C2089 C 0.74188 0.66669 0.21279 0.0
N2090 N 0.72226 0.59979 0.15635 0.0
N2091 N 0.78063 0.6686 0.24843 0.0
H2092 H 0.71836 0.71125 0.20974 0.0
H2093 H 0.74132 0.7108 0.24096 0.0
H2094 H 0.79631 0.65763 0.26148 0.0
H2095 H 0.78027 0.69457 0.25038 0.0
H2096 H 0.72768 0.57603 0.14854 0.0
H2097 H 0.70865 0.61188 0.14117 0.0
H2098 H 0.74441 0.5486 0.18528 0.0
H2099 H 0.77089 0.55119 0.21273 0.0
C2100 C 0.32868 0.74789 0.22778 0.0
C2101 C 0.32173 0.78234 0.2251 0.0
C2102 C 0.28861 0.76568 0.18501 0.0
C2103 C 0.29128 0.73134 0.19305 0.0
N2104 N 0.30921 0.69285 0.23241 0.0
N2105 N 0.28644 0.82086 0.20748 0.0
C2106 C 0.30917 0.72361 0.21861 0.0
C2107 C 0.29816 0.79 0.2067 0.0
N2108 N 0.35464 0.73787 0.23364 0.0
N2109 N 0.28118 0.7755 0.1554 0.0
H2110 H 0.29279 0.83941 0.2232 0.0
H2111 H 0.26905 0.82637 0.19418 0.0
H2112 H 0.27903 0.75853 0.13684 0.0
H2113 H 0.28078 0.80069 0.14883 0.0
H2114 H 0.36012 0.71261 0.23375 0.0
H2115 H 0.37082 0.75464 0.23389 0.0
H2116 H 0.32218 0.68718 0.25129 0.0
H2117 H 0.29472 0.67475 0.22676 0.0
C2118 C 0.70772 0.29524 0.21841 0.0
C2119 C 0.72419 0.28606 0.19249 0.0
C2120 C 0.71205 0.22833 0.2035 0.0
C2121 C 0.68998 0.23849 0.22271 0.0
N2122 N 0.6616 0.28677 0.23347 0.0
N2123 N 0.72987 0.24263 0.15301 0.0
C2124 C 0.68633 0.2735 0.22684 0.0
C2125 C 0.72343 0.25207 0.18289 0.0
N2126 N 0.71077 0.32533 0.23311 0.0
N2127 N 0.72105 0.19614 0.20313 0.0
H2128 H 0.73374 0.25996 0.13524 0.0
H2129 H 0.72777 0.21792 0.14534 0.0
H2130 H 0.71373 0.17819 0.21858 0.0
H2131 H 0.7375 0.1888 0.18946 0.0
H2132 H 0.69883 0.33208 0.25227 0.0
H2133 H 0.72661 0.34159 0.22777 0.0
H2134 H 0.65843 0.3126 0.23455 0.0
H2135 H 0.64404 0.27227 0.2336 0.0
loop_
_geom_bond_atom_site_label_1
_geom_bond_atom_site_label_2
_geom_bond_distance
_geom_bond_site_symmetry_2
_ccdc_geom_bond_type
C0 C1 1.443 . S
C0 N4 1.376 . S
C0 C38 1.389 . S
C1 C0 1.443 . S
C1 C2 1.340 . S
C1 H41 0.951 . S
C2 C1 1.340 . S
C2 C3 1.439 . S
C2 H42 0.950 . S
C3 C2 1.439 . S
C3 N4 1.374 . S
C3 C37 1.395 . S
N4 C0 1.376 . S
N4 C3 1.374 . S
N4 Co5 2.008 . S
Co5 N4 2.008 . S
Co5 N6 1.995 . S
Co5 N11 2.008 . S
Co5 N16 1.995 . S
Co5 N21 2.282 . S
Co5 N27 2.282 . S
N6 Co5 1.995 . S
N6 C7 1.376 . S
N6 C10 1.383 . S
C7 N6 1.376 . S
C7 C8 1.446 . S
C7 C37 1.391 . S
C8 C7 1.446 . S
C8 C9 1.339 . S
C8 H43 0.949 . S
C9 C8 1.339 . S
C9 C10 1.439 . S
C9 H44 0.950 . S
C10 N6 1.383 . S
C10 C9 1.439 . S
C10 C39 1.392 . S
N11 Co5 2.008 . S
N11 C12 1.376 . S
N11 C15 1.374 . S
C12 N11 1.376 . S
C12 C13 1.443 . S
C12 C39 1.389 . S
C13 C12 1.443 . S
C13 C14 1.340 . S
C13 H45 0.951 . S
C14 C13 1.340 . S
C14 C15 1.439 . S
C14 H46 0.950 . S
C15 N11 1.374 . S
C15 C14 1.439 . S
C15 C40 1.395 . S
N16 Co5 1.995 . S
N16 C17 1.376 . S
N16 C20 1.383 . S
C17 N16 1.376 . S
C17 C18 1.446 . S
C17 C40 1.391 . S
C18 C17 1.446 . S
C18 C19 1.339 . S
C18 H47 0.949 . S
C19 C18 1.339 . S
C19 C20 1.439 . S
C19 H48 0.950 . S
C20 N16 1.383 . S
C20 C19 1.439 . S
C20 C38 1.392 . S
N21 Co5 2.282 . S
N21 C24 1.332 . S
N21 C26 1.332 . S
C22 C23 1.386 . S
C22 C25 1.388 . S
C23 C22 1.386 . S
C23 C24 1.382 . S
C23 H49 0.950 . S
C24 N21 1.332 . S
C24 C23 1.382 . S
C24 H35 0.952 . S
C25 C22 1.388 . S
C25 C26 1.382 . S
C25 H50 0.950 . S
C26 N21 1.332 . S
C26 C25 1.382 . S
C26 H36 0.948 . S
N27 Co5 2.282 . S
N27 C31 1.332 . S
N27 C32 1.332 . S
C28 C29 1.388 . S
C28 C32 1.382 . S
C28 H51 0.950 . S
C29 C28 1.388 . S
C29 C30 1.386 . S
C30 C29 1.386 . S
C30 C31 1.382 . S
C30 H52 0.950 . S
C31 N27 1.332 . S
C31 C30 1.382 . S
C31 H33 0.952 . S
C32 N27 1.332 . S
C32 C28 1.382 . S
C32 H34 0.948 . S
H33 C31 0.952 . S
H34 C32 0.948 . S
H35 C24 0.952 . S
H36 C26 0.948 . S
C37 C3 1.395 . S
C37 C7 1.391 . S
C38 C0 1.389 . S
C38 C20 1.392 . S
C39 C10 1.392 . S
C39 C12 1.389 . S
C40 C15 1.395 . S
C40 C17 1.391 . S
H41 C1 0.951 . S
H42 C2 0.950 . S
H43 C8 0.949 . S
H44 C9 0.950 . S
H45 C13 0.951 . S
H46 C14 0.950 . S
H47 C18 0.949 . S
H48 C19 0.950 . S
H49 C23 0.950 . S
H50 C25 0.950 . S
H51 C28 0.950 . S
H52 C30 0.950 . S
C53 C54 1.443 . S
C53 N57 1.376 . S
C53 C91 1.389 . S
C54 C53 1.443 . S
C54 C55 1.340 . S
C54 H94 0.951 . S
C55 C54 1.340 . S
C55 C56 1.439 . S
C55 H95 0.950 . S
C56 C55 1.439 . S
C56 N57 1.374 . S
C56 C90 1.395 . S
N57 C53 1.376 . S
N57 C56 1.374 . S
N57 Co58 2.008 . S
Co58 N57 2.008 . S
Co58 N59 1.995 . S
Co58 N64 2.008 . S
Co58 N69 1.995 . S
Co58 N74 2.282 . S
Co58 N80 2.282 . S
N59 Co58 1.995 . S
N59 C60 1.376 . S
N59 C63 1.383 . S
C60 N59 1.376 . S
C60 C61 1.446 . S
C60 C90 1.391 . S
C61 C60 1.446 . S
C61 C62 1.339 . S
C61 H96 0.949 . S
C62 C61 1.339 . S
C62 C63 1.439 . S
C62 H97 0.950 . S
C63 N59 1.383 . S
C63 C62 1.439 . S
C63 C92 1.392 . S
N64 Co58 2.008 . S
N64 C65 1.376 . S
N64 C68 1.374 . S
C65 N64 1.376 . S
C65 C66 1.443 . S
C65 C92 1.389 . S
C66 C65 1.443 . S
C66 C67 1.340 . S
C66 H98 0.951 . S
C67 C66 1.340 . S
C67 C68 1.439 . S
C67 H99 0.950 . S
C68 N64 1.374 . S
C68 C67 1.439 . S
C68 C93 1.395 . S
N69 Co58 1.995 . S
N69 C70 1.376 . S
N69 C73 1.383 . S
C70 N69 1.376 . S
C70 C71 1.446 . S
C70 C93 1.391 . S
C71 C70 1.446 . S
C71 C72 1.339 . S
C71 H100 0.949 1_545 S
C72 C71 1.339 . S
C72 C73 1.439 . S
C72 H101 0.950 1_545 S
C73 N69 1.383 . S
C73 C72 1.439 . S
C73 C91 1.392 . S
N74 Co58 2.282 . S
N74 C77 1.332 . S
N74 C79 1.332 . S
C75 C76 1.386 . S
C75 C78 1.388 . S
C76 C75 1.386 . S
C76 C77 1.382 . S
C76 H102 0.950 . S
C77 N74 1.332 . S
C77 C76 1.382 . S
C77 H88 0.952 . S
C78 C75 1.388 . S
C78 C79 1.382 . S
C78 H103 0.950 . S
C79 N74 1.332 . S
C79 C78 1.382 . S
C79 H89 0.948 . S
N80 Co58 2.282 . S
N80 C84 1.332 . S
N80 C85 1.332 . S
C81 C82 1.388 . S
C81 C85 1.382 . S
C81 H104 0.950 . S
C82 C81 1.388 . S
C82 C83 1.386 . S
C83 C82 1.386 . S
C83 C84 1.382 . S
C83 H105 0.950 . S
C84 N80 1.332 . S
C84 C83 1.382 . S
C84 H86 0.952 . S
C85 N80 1.332 . S
C85 C81 1.382 . S
C85 H87 0.948 . S
H86 C84 0.952 . S
H87 C85 0.948 . S
H88 C77 0.952 . S
H89 C79 0.948 . S
C90 C56 1.395 . S
C90 C60 1.391 . S
C91 C53 1.389 . S
C91 C73 1.392 . S
C92 C63 1.392 . S
C92 C65 1.389 . S
C93 C68 1.395 . S
C93 C70 1.391 . S
H94 C54 0.951 . S
H95 C55 0.950 . S
H96 C61 0.949 . S
H97 C62 0.950 . S
H98 C66 0.951 . S
H99 C67 0.950 . S
H100 C71 0.949 1_565 S
H101 C72 0.950 1_565 S
H102 C76 0.950 . S
H103 C78 0.950 . S
H104 C81 0.950 . S
H105 C83 0.950 . S
C106 C107 1.443 . S
C106 N110 1.376 . S
C106 C144 1.389 . S
C107 C106 1.443 . S
C107 C108 1.340 . S
C107 H147 0.951 . S
C108 C107 1.340 . S
C108 C109 1.439 . S
C108 H148 0.950 . S
C109 C108 1.439 . S
C109 N110 1.374 . S
C109 C143 1.395 . S
N110 C106 1.376 . S
N110 C109 1.374 . S
N110 Co111 2.008 . S
Co111 N110 2.008 . S
Co111 N112 1.995 . S
Co111 N117 2.008 . S
Co111 N122 1.995 . S
Co111 N127 2.282 . S
Co111 N133 2.282 . S
N112 Co111 1.995 . S
N112 C113 1.376 . S
N112 C116 1.383 . S
C113 N112 1.376 . S
C113 C114 1.446 . S
C113 C143 1.391 . S
C114 C113 1.446 . S
C114 C115 1.339 . S
C114 H149 0.949 . S
C115 C114 1.339 . S
C115 C116 1.439 . S
C115 H150 0.950 . S
C116 N112 1.383 . S
C116 C115 1.439 . S
C116 C145 1.392 . S
N117 Co111 2.008 . S
N117 C118 1.376 . S
N117 C121 1.374 . S
C118 N117 1.376 . S
C118 C119 1.443 . S
C118 C145 1.389 . S
C119 C118 1.443 . S
C119 C120 1.340 . S
C119 H151 0.951 . S
C120 C119 1.340 . S
C120 C121 1.439 . S
C120 H152 0.950 . S
C121 N117 1.374 . S
C121 C120 1.439 . S
C121 C146 1.395 . S
N122 Co111 1.995 . S
N122 C123 1.376 . S
N122 C126 1.383 . S
C123 N122 1.376 . S
C123 C124 1.446 . S
C123 C146 1.391 . S
C124 C123 1.446 . S
C124 C125 1.339 . S
C124 H153 0.949 . S
C125 C124 1.339 . S
C125 C126 1.439 . S
C125 H154 0.950 . S
C126 N122 1.383 . S
C126 C125 1.439 . S
C126 C144 1.392 . S
N127 Co111 2.282 . S
N127 C130 1.332 . S
N127 C132 1.332 . S
C128 C129 1.386 . S
C128 C131 1.388 . S
C129 C128 1.386 . S
C129 C130 1.382 . S
C129 H155 0.950 . S
C130 N127 1.332 . S
C130 C129 1.382 . S
C130 H141 0.952 . S
C131 C128 1.388 . S
C131 C132 1.382 . S
C131 H156 0.950 . S
C132 N127 1.332 . S
C132 C131 1.382 . S
C132 H142 0.948 . S
N133 Co111 2.282 . S
N133 C137 1.332 . S
N133 C138 1.332 . S
C134 C135 1.388 . S
C134 C138 1.382 . S
C134 H157 0.950 . S
C135 C134 1.388 . S
C135 C136 1.386 . S
C136 C135 1.386 . S
C136 C137 1.382 . S
C136 H158 0.950 . S
C137 N133 1.332 . S
C137 C136 1.382 . S
C137 H139 0.952 . S
C138 N133 1.332 . S
C138 C134 1.382 . S
C138 H140 0.948 . S
H139 C137 0.952 . S
H140 C138 0.948 . S
H141 C130 0.952 . S
H142 C132 0.948 . S
C143 C109 1.395 . S
C143 C113 1.391 . S
C144 C106 1.389 . S
C144 C126 1.392 . S
C145 C116 1.392 . S
C145 C118 1.389 . S
C146 C121 1.395 . S
C146 C123 1.391 . S
H147 C107 0.951 . S
H148 C108 0.950 . S
H149 C114 0.949 . S
H150 C115 0.950 . S
H151 C119 0.951 . S
H152 C120 0.950 . S
H153 C124 0.949 . S
H154 C125 0.950 . S
H155 C129 0.950 . S
H156 C131 0.950 . S
H157 C134 0.950 . S
H158 C136 0.950 . S
C159 C160 1.443 . S
C159 N163 1.376 . S
C159 C197 1.389 . S
C160 C159 1.443 . S
C160 C161 1.340 . S
C160 H200 0.951 . S
C161 C160 1.340 . S
C161 C162 1.439 . S
C161 H201 0.950 . S
C162 C161 1.439 . S
C162 N163 1.374 . S
C162 C196 1.395 . S
N163 C159 1.376 . S
N163 C162 1.374 . S
N163 Co164 2.008 . S
Co164 N163 2.008 . S
Co164 N165 1.995 . S
Co164 N170 2.008 . S
Co164 N175 1.995 . S
Co164 N180 2.282 . S
Co164 N186 2.282 . S
N165 Co164 1.995 . S
N165 C166 1.376 . S
N165 C169 1.383 . S
C166 N165 1.376 . S
C166 C167 1.446 . S
C166 C196 1.391 . S
C167 C166 1.446 . S
C167 C168 1.339 . S
C167 H202 0.949 . S
C168 C167 1.339 . S
C168 C169 1.439 . S
C168 H203 0.950 . S
C169 N165 1.383 . S
C169 C168 1.439 . S
C169 C198 1.392 . S
N170 Co164 2.008 . S
N170 C171 1.376 . S
N170 C174 1.374 . S
C171 N170 1.376 . S
C171 C172 1.443 . S
C171 C198 1.389 . S
C172 C171 1.443 . S
C172 C173 1.340 . S
C172 H204 0.951 . S
C173 C172 1.340 . S
C173 C174 1.439 . S
C173 H205 0.950 . S
C174 N170 1.374 . S
C174 C173 1.439 . S
C174 C199 1.395 . S
N175 Co164 1.995 . S
N175 C176 1.376 . S
N175 C179 1.383 . S
C176 N175 1.376 . S
C176 C177 1.446 1_565 S
C176 C199 1.391 . S
C177 C176 1.446 1_545 S
C177 C178 1.339 . S
C177 H206 0.949 . S
C178 C177 1.339 . S
C178 C179 1.439 1_545 S
C178 H207 0.950 . S
C179 N175 1.383 . S
C179 C178 1.439 1_565 S
C179 C197 1.392 . S
N180 Co164 2.282 . S
N180 C183 1.332 . S
N180 C185 1.332 . S
C181 C182 1.386 . S
C181 C184 1.388 . S
C182 C181 1.386 . S
C182 C183 1.382 . S
C182 H208 0.950 . S
C183 N180 1.332 . S
C183 C182 1.382 . S
C183 H194 0.952 . S
C184 C181 1.388 . S
C184 C185 1.382 . S
C184 H209 0.950 . S
C185 N180 1.332 . S
C185 C184 1.382 . S
C185 H195 0.948 . S
N186 Co164 2.282 . S
N186 C190 1.332 . S
N186 C191 1.332 . S
C187 C188 1.388 . S
C187 C191 1.382 . S
C187 H210 0.950 . S
C188 C187 1.388 . S
C188 C189 1.386 . S
C189 C188 1.386 . S
C189 C190 1.382 . S
C189 H211 0.950 . S
C190 N186 1.332 . S
C190 C189 1.382 . S
C190 H192 0.952 . S
C191 N186 1.332 . S
C191 C187 1.382 . S
C191 H193 0.948 . S
H192 C190 0.952 . S
H193 C191 0.948 . S
H194 C183 0.952 . S
H195 C185 0.948 . S
C196 C162 1.395 . S
C196 C166 1.391 . S
C197 C159 1.389 . S
C197 C179 1.392 . S
C198 C169 1.392 . S
C198 C171 1.389 . S
C199 C174 1.395 . S
C199 C176 1.391 . S
H200 C160 0.951 . S
H201 C161 0.950 . S
H202 C167 0.949 . S
H203 C168 0.950 . S
H204 C172 0.951 . S
H205 C173 0.950 . S
H206 C177 0.949 . S
H207 C178 0.950 . S
H208 C182 0.950 . S
H209 C184 0.950 . S
H210 C187 0.950 . S
H211 C189 0.950 . S
C212 C213 1.443 . S
C212 N216 1.376 . S
C212 C250 1.389 . S
C213 C212 1.443 . S
C213 C214 1.340 . S
C213 H253 0.951 . S
C214 C213 1.340 . S
C214 C215 1.439 . S
C214 H254 0.950 . S
C215 C214 1.439 . S
C215 N216 1.374 . S
C215 C249 1.395 . S
N216 C212 1.376 . S
N216 C215 1.374 . S
N216 Co217 2.008 . S
Co217 N216 2.008 . S
Co217 N218 1.995 . S
Co217 N223 2.008 . S
Co217 N228 1.995 . S
Co217 N233 2.282 . S
Co217 N239 2.282 . S
N218 Co217 1.995 . S
N218 C219 1.376 . S
N218 C222 1.383 . S
C219 N218 1.376 . S
C219 C220 1.446 . S
C219 C249 1.391 . S
C220 C219 1.446 . S
C220 C221 1.339 . S
C220 H255 0.949 . S
C221 C220 1.339 . S
C221 C222 1.439 . S
C221 H256 0.950 . S
C222 N218 1.383 . S
C222 C221 1.439 . S
C222 C251 1.392 . S
N223 Co217 2.008 . S
N223 C224 1.376 . S
N223 C227 1.374 . S
C224 N223 1.376 . S
C224 C225 1.443 . S
C224 C251 1.389 . S
C225 C224 1.443 . S
C225 C226 1.340 . S
C225 H257 0.951 . S
C226 C225 1.340 . S
C226 C227 1.439 . S
C226 H258 0.950 . S
C227 N223 1.374 . S
C227 C226 1.439 . S
C227 C252 1.395 . S
N228 Co217 1.995 . S
N228 C229 1.376 . S
N228 C232 1.383 . S
C229 N228 1.376 . S
C229 C230 1.446 . S
C229 C252 1.391 . S
C230 C229 1.446 . S
C230 C231 1.339 . S
C230 H259 0.949 . S
C231 C230 1.339 . S
C231 C232 1.439 . S
C231 H260 0.950 . S
C232 N228 1.383 . S
C232 C231 1.439 . S
C232 C250 1.392 . S
N233 Co217 2.282 . S
N233 C236 1.332 . S
N233 C238 1.332 . S
C234 C235 1.386 . S
C234 C237 1.388 . S
C235 C234 1.386 . S
C235 C236 1.382 . S
C235 H261 0.950 . S
C236 N233 1.332 . S
C236 C235 1.382 . S
C236 H247 0.952 . S
C237 C234 1.388 . S
C237 C238 1.382 . S
C237 H262 0.950 . S
C238 N233 1.332 . S
C238 C237 1.382 . S
C238 H248 0.948 . S
N239 Co217 2.282 . S
N239 C243 1.332 . S
N239 C244 1.332 . S
C240 C241 1.388 . S
C240 C244 1.382 . S
C240 H263 0.950 . S
C241 C240 1.388 . S
C241 C242 1.386 . S
C242 C241 1.386 . S
C242 C243 1.382 . S
C242 H264 0.950 . S
C243 N239 1.332 . S
C243 C242 1.382 . S
C243 H245 0.952 . S
C244 N239 1.332 . S
C244 C240 1.382 . S
C244 H246 0.948 . S
H245 C243 0.952 . S
H246 C244 0.948 . S
H247 C236 0.952 . S
H248 C238 0.948 . S
C249 C215 1.395 . S
C249 C219 1.391 . S
C250 C212 1.389 . S
C250 C232 1.392 . S
C251 C222 1.392 . S
C251 C224 1.389 . S
C252 C227 1.395 . S
C252 C229 1.391 . S
H253 C213 0.951 . S
H254 C214 0.950 . S
H255 C220 0.949 . S
H256 C221 0.950 . S
H257 C225 0.951 . S
H258 C226 0.950 . S
H259 C230 0.949 . S
H260 C231 0.950 . S
H261 C235 0.950 . S
H262 C237 0.950 . S
H263 C240 0.950 . S
H264 C242 0.950 . S
C265 C266 1.443 . S
C265 N269 1.376 . S
C265 C303 1.389 . S
C266 C265 1.443 . S
C266 C267 1.340 . S
C266 H306 0.951 . S
C267 C266 1.340 . S
C267 C268 1.439 . S
C267 H307 0.950 . S
C268 C267 1.439 . S
C268 N269 1.374 . S
C268 C302 1.395 . S
N269 C265 1.376 . S
N269 C268 1.374 . S
N269 Co270 2.008 . S
Co270 N269 2.008 . S
Co270 N271 1.995 . S
Co270 N276 2.008 . S
Co270 N281 1.995 . S
Co270 N286 2.282 . S
Co270 N292 2.282 . S
N271 Co270 1.995 . S
N271 C272 1.376 . S
N271 C275 1.383 . S
C272 N271 1.376 . S
C272 C273 1.446 . S
C272 C302 1.391 . S
C273 C272 1.446 . S
C273 C274 1.339 . S
C273 H308 0.949 . S
C274 C273 1.339 . S
C274 C275 1.439 . S
C274 H309 0.950 . S
C275 N271 1.383 . S
C275 C274 1.439 . S
C275 C304 1.392 . S
N276 Co270 2.008 . S
N276 C277 1.376 . S
N276 C280 1.374 . S
C277 N276 1.376 . S
C277 C278 1.443 . S
C277 C304 1.389 . S
C278 C277 1.443 . S
C278 C279 1.340 . S
C278 H310 0.951 . S
C279 C278 1.340 . S
C279 C280 1.439 . S
C279 H311 0.950 . S
C280 N276 1.374 . S
C280 C279 1.439 . S
C280 C305 1.395 . S
N281 Co270 1.995 . S
N281 C282 1.376 . S
N281 C285 1.383 . S
C282 N281 1.376 . S
C282 C283 1.446 . S
C282 C305 1.391 . S
C283 C282 1.446 . S
C283 C284 1.339 . S
C283 H312 0.949 1_545 S
C284 C283 1.339 . S
C284 C285 1.439 . S
C284 H313 0.950 1_545 S
C285 N281 1.383 . S
C285 C284 1.439 . S
C285 C303 1.392 . S
N286 Co270 2.282 . S
N286 C289 1.332 . S
N286 C291 1.332 . S
C287 C288 1.386 . S
C287 C290 1.388 . S
C288 C287 1.386 . S
C288 C289 1.382 . S
C288 H314 0.950 . S
C289 N286 1.332 . S
C289 C288 1.382 . S
C289 H300 0.952 . S
C290 C287 1.388 . S
C290 C291 1.382 . S
C290 H315 0.950 . S
C291 N286 1.332 . S
C291 C290 1.382 . S
C291 H301 0.948 . S
N292 Co270 2.282 . S
N292 C296 1.332 . S
N292 C297 1.332 . S
C293 C294 1.388 . S
C293 C297 1.382 . S
C293 H316 0.950 . S
C294 C293 1.388 . S
C294 C295 1.386 . S
C295 C294 1.386 . S
C295 C296 1.382 . S
C295 H317 0.950 . S
C296 N292 1.332 . S
C296 C295 1.382 . S
C296 H298 0.952 . S
C297 N292 1.332 . S
C297 C293 1.382 . S
C297 H299 0.948 . S
H298 C296 0.952 . S
H299 C297 0.948 . S
H300 C289 0.952 . S
H301 C291 0.948 . S
C302 C268 1.395 . S
C302 C272 1.391 . S
C303 C265 1.389 . S
C303 C285 1.392 . S
C304 C275 1.392 . S
C304 C277 1.389 . S
C305 C280 1.395 . S
C305 C282 1.391 . S
H306 C266 0.951 . S
H307 C267 0.950 . S
H308 C273 0.949 . S
H309 C274 0.950 . S
H310 C278 0.951 . S
H311 C279 0.950 . S
H312 C283 0.949 1_565 S
H313 C284 0.950 1_565 S
H314 C288 0.950 . S
H315 C290 0.950 . S
H316 C293 0.950 . S
H317 C295 0.950 . S
C318 C319 1.443 . S
C318 N322 1.376 . S
C318 C356 1.389 . S
C319 C318 1.443 . S
C319 C320 1.340 . S
C319 H359 0.951 . S
C320 C319 1.340 . S
C320 C321 1.439 . S
C320 H360 0.950 . S
C321 C320 1.439 . S
C321 N322 1.374 . S
C321 C355 1.395 . S
N322 C318 1.376 . S
N322 C321 1.374 . S
N322 Co323 2.008 . S
Co323 N322 2.008 . S
Co323 N324 1.995 . S
Co323 N329 2.008 . S
Co323 N334 1.995 . S
Co323 N339 2.282 . S
Co323 N345 2.282 . S
N324 Co323 1.995 . S
N324 C325 1.376 . S
N324 C328 1.383 . S
C325 N324 1.376 . S
C325 C326 1.446 . S
C325 C355 1.391 . S
C326 C325 1.446 . S
C326 C327 1.339 . S
C326 H361 0.949 . S
C327 C326 1.339 . S
C327 C328 1.439 . S
C327 H362 0.950 . S
C328 N324 1.383 . S
C328 C327 1.439 . S
C328 C357 1.392 . S
N329 Co323 2.008 . S
N329 C330 1.376 . S
N329 C333 1.374 . S
C330 N329 1.376 . S
C330 C331 1.443 . S
C330 C357 1.389 . S
C331 C330 1.443 . S
C331 C332 1.340 . S
C331 H363 0.951 . S
C332 C331 1.340 . S
C332 C333 1.439 . S
C332 H364 0.950 . S
C333 N329 1.374 . S
C333 C332 1.439 . S
C333 C358 1.395 . S
N334 Co323 1.995 . S
N334 C335 1.376 . S
N334 C338 1.383 . S
C335 N334 1.376 . S
C335 C336 1.446 . S
C335 C358 1.391 . S
C336 C335 1.446 . S
C336 C337 1.339 . S
C336 H365 0.949 . S
C337 C336 1.339 . S
C337 C338 1.439 . S
C337 H366 0.950 . S
C338 N334 1.383 . S
C338 C337 1.439 . S
C338 C356 1.392 . S
N339 Co323 2.282 . S
N339 C342 1.332 . S
N339 C344 1.332 . S
C340 C341 1.386 . S
C340 C343 1.388 . S
C341 C340 1.386 . S
C341 C342 1.382 . S
C341 H367 0.950 . S
C342 N339 1.332 . S
C342 C341 1.382 . S
C342 H353 0.952 . S
C343 C340 1.388 . S
C343 C344 1.382 . S
C343 H368 0.950 . S
C344 N339 1.332 . S
C344 C343 1.382 . S
C344 H354 0.948 . S
N345 Co323 2.282 . S
N345 C349 1.332 . S
N345 C350 1.332 . S
C346 C347 1.388 . S
C346 C350 1.382 . S
C346 H369 0.950 . S
C347 C346 1.388 . S
C347 C348 1.386 . S
C348 C347 1.386 . S
C348 C349 1.382 . S
C348 H370 0.950 . S
C349 N345 1.332 . S
C349 C348 1.382 . S
C349 H351 0.952 . S
C350 N345 1.332 . S
C350 C346 1.382 . S
C350 H352 0.948 . S
H351 C349 0.952 . S
H352 C350 0.948 . S
H353 C342 0.952 . S
H354 C344 0.948 . S
C355 C321 1.395 . S
C355 C325 1.391 . S
C356 C318 1.389 . S
C356 C338 1.392 . S
C357 C328 1.392 . S
C357 C330 1.389 . S
C358 C333 1.395 . S
C358 C335 1.391 . S
H359 C319 0.951 . S
H360 C320 0.950 . S
H361 C326 0.949 . S
H362 C327 0.950 . S
H363 C331 0.951 . S
H364 C332 0.950 . S
H365 C336 0.949 . S
H366 C337 0.950 . S
H367 C341 0.950 . S
H368 C343 0.950 . S
H369 C346 0.950 . S
H370 C348 0.950 . S
C371 C372 1.443 . S
C371 N375 1.376 . S
C371 C409 1.389 . S
C372 C371 1.443 . S
C372 C373 1.340 . S
C372 H412 0.951 . S
C373 C372 1.340 . S
C373 C374 1.439 . S
C373 H413 0.950 . S
C374 C373 1.439 . S
C374 N375 1.374 . S
C374 C408 1.395 . S
N375 C371 1.376 . S
N375 C374 1.374 . S
N375 Co376 2.008 . S
Co376 N375 2.008 . S
Co376 N377 1.995 . S
Co376 N382 2.008 . S
Co376 N387 1.995 . S
Co376 N392 2.282 . S
Co376 N398 2.282 . S
N377 Co376 1.995 . S
N377 C378 1.376 . S
N377 C381 1.383 . S
C378 N377 1.376 . S
C378 C379 1.446 . S
C378 C408 1.391 . S
C379 C378 1.446 . S
C379 C380 1.339 . S
C379 H414 0.949 . S
C380 C379 1.339 . S
C380 C381 1.439 . S
C380 H415 0.950 . S
C381 N377 1.383 . S
C381 C380 1.439 . S
C381 C410 1.392 . S
N382 Co376 2.008 . S
N382 C383 1.376 . S
N382 C386 1.374 . S
C383 N382 1.376 . S
C383 C384 1.443 . S
C383 C410 1.389 . S
C384 C383 1.443 . S
C384 C385 1.340 . S
C384 H416 0.951 . S
C385 C384 1.340 . S
C385 C386 1.439 . S
C385 H417 0.950 . S
C386 N382 1.374 . S
C386 C385 1.439 . S
C386 C411 1.395 . S
N387 Co376 1.995 . S
N387 C388 1.376 . S
N387 C391 1.383 . S
C388 N387 1.376 . S
C388 C389 1.446 1_565 S
C388 C411 1.391 . S
C389 C388 1.446 1_545 S
C389 C390 1.339 . S
C389 H418 0.949 . S
C390 C389 1.339 . S
C390 C391 1.439 1_545 S
C390 H419 0.950 . S
C391 N387 1.383 . S
C391 C390 1.439 1_565 S
C391 C409 1.392 . S
N392 Co376 2.282 . S
N392 C395 1.332 . S
N392 C397 1.332 . S
C393 C394 1.386 . S
C393 C396 1.388 . S
C394 C393 1.386 . S
C394 C395 1.382 . S
C394 H420 0.950 . S
C395 N392 1.332 . S
C395 C394 1.382 . S
C395 H406 0.952 . S
C396 C393 1.388 . S
C396 C397 1.382 . S
C396 H421 0.950 . S
C397 N392 1.332 . S
C397 C396 1.382 . S
C397 H407 0.948 . S
N398 Co376 2.282 . S
N398 C402 1.332 . S
N398 C403 1.332 . S
C399 C400 1.388 . S
C399 C403 1.382 . S
C399 H422 0.950 . S
C400 C399 1.388 . S
C400 C401 1.386 . S
C401 C400 1.386 . S
C401 C402 1.382 . S
C401 H423 0.950 . S
C402 N398 1.332 . S
C402 C401 1.382 . S
C402 H404 0.952 . S
C403 N398 1.332 . S
C403 C399 1.382 . S
C403 H405 0.948 . S
H404 C402 0.952 . S
H405 C403 0.948 . S
H406 C395 0.952 . S
H407 C397 0.948 . S
C408 C374 1.395 . S
C408 C378 1.391 . S
C409 C371 1.389 . S
C409 C391 1.392 . S
C410 C381 1.392 . S
C410 C383 1.389 . S
C411 C386 1.395 . S
C411 C388 1.391 . S
H412 C372 0.951 . S
H413 C373 0.950 . S
H414 C379 0.949 . S
H415 C380 0.950 . S
H416 C384 0.951 . S
H417 C385 0.950 . S
H418 C389 0.949 . S
H419 C390 0.950 . S
H420 C394 0.950 . S
H421 C396 0.950 . S
H422 C399 0.950 . S
H423 C401 0.950 . S
C424 C425 1.443 . S
C424 N428 1.376 . S
C424 C462 1.389 . S
C425 C424 1.443 . S
C425 C426 1.340 . S
C425 H465 0.951 . S
C426 C425 1.340 . S
C426 C427 1.439 . S
C426 H466 0.950 . S
C427 C426 1.439 . S
C427 N428 1.374 . S
C427 C461 1.395 . S
N428 C424 1.376 . S
N428 C427 1.374 . S
N428 Co429 2.008 . S
Co429 N428 2.008 . S
Co429 N430 1.995 . S
Co429 N435 2.008 . S
Co429 N440 1.995 . S
Co429 N445 2.282 . S
Co429 N451 2.282 . S
N430 Co429 1.995 . S
N430 C431 1.376 . S
N430 C434 1.383 . S
C431 N430 1.376 . S
C431 C432 1.446 . S
C431 C461 1.391 . S
C432 C431 1.446 . S
C432 C433 1.339 . S
C432 H467 0.949 . S
C433 C432 1.339 . S
C433 C434 1.439 . S
C433 H468 0.950 . S
C434 N430 1.383 . S
C434 C433 1.439 . S
C434 C463 1.392 . S
N435 Co429 2.008 . S
N435 C436 1.376 . S
N435 C439 1.374 . S
C436 N435 1.376 . S
C436 C437 1.443 . S
C436 C463 1.389 . S
C437 C436 1.443 . S
C437 C438 1.340 . S
C437 H469 0.951 . S
C438 C437 1.340 . S
C438 C439 1.439 . S
C438 H470 0.950 . S
C439 N435 1.374 . S
C439 C438 1.439 . S
C439 C464 1.395 . S
N440 Co429 1.995 . S
N440 C441 1.376 . S
N440 C444 1.383 . S
C441 N440 1.376 . S
C441 C442 1.446 . S
C441 C464 1.391 . S
C442 C441 1.446 . S
C442 C443 1.339 . S
C442 H471 0.949 . S
C443 C442 1.339 . S
C443 C444 1.439 . S
C443 H472 0.950 . S
C444 N440 1.383 . S
C444 C443 1.439 . S
C444 C462 1.392 . S
N445 Co429 2.282 . S
N445 C448 1.332 . S
N445 C450 1.332 . S
C446 C447 1.386 . S
C446 C449 1.388 . S
C447 C446 1.386 . S
C447 C448 1.382 . S
C447 H473 0.950 . S
C448 N445 1.332 . S
C448 C447 1.382 . S
C448 H459 0.952 . S
C449 C446 1.388 . S
C449 C450 1.382 . S
C449 H474 0.950 . S
C450 N445 1.332 . S
C450 C449 1.382 . S
C450 H460 0.948 . S
N451 Co429 2.282 . S
N451 C455 1.332 . S
N451 C456 1.332 . S
C452 C453 1.388 . S
C452 C456 1.382 . S
C452 H475 0.950 . S
C453 C452 1.388 . S
C453 C454 1.386 . S
C454 C453 1.386 . S
C454 C455 1.382 . S
C454 H476 0.950 . S
C455 N451 1.332 . S
C455 C454 1.382 . S
C455 H457 0.952 . S
C456 N451 1.332 . S
C456 C452 1.382 . S
C456 H458 0.948 . S
H457 C455 0.952 . S
H458 C456 0.948 . S
H459 C448 0.952 . S
H460 C450 0.948 . S
C461 C427 1.395 . S
C461 C431 1.391 . S
C462 C424 1.389 . S
C462 C444 1.392 . S
C463 C434 1.392 . S
C463 C436 1.389 . S
C464 C439 1.395 . S
C464 C441 1.391 . S
H465 C425 0.951 . S
H466 C426 0.950 . S
H467 C432 0.949 . S
H468 C433 0.950 . S
H469 C437 0.951 . S
H470 C438 0.950 . S
H471 C442 0.949 . S
H472 C443 0.950 . S
H473 C447 0.950 . S
H474 C449 0.950 . S
H475 C452 0.950 . S
H476 C454 0.950 . S
C477 C478 1.443 . S
C477 N481 1.376 . S
C477 C515 1.389 . S
C478 C477 1.443 . S
C478 C479 1.340 . S
C478 H518 0.951 . S
C479 C478 1.340 . S
C479 C480 1.439 . S
C479 H519 0.950 . S
C480 C479 1.439 . S
C480 N481 1.374 . S
C480 C514 1.395 . S
N481 C477 1.376 . S
N481 C480 1.374 . S
N481 Co482 2.008 . S
Co482 N481 2.008 . S
Co482 N483 1.995 . S
Co482 N488 2.008 . S
Co482 N493 1.995 . S
Co482 N498 2.282 . S
Co482 N504 2.282 . S
N483 Co482 1.995 . S
N483 C484 1.376 . S
N483 C487 1.383 . S
C484 N483 1.376 . S
C484 C485 1.446 . S
C484 C514 1.391 . S
C485 C484 1.446 . S
C485 C486 1.339 . S
C485 H520 0.949 . S
C486 C485 1.339 . S
C486 C487 1.439 . S
C486 H521 0.950 . S
C487 N483 1.383 . S
C487 C486 1.439 . S
C487 C516 1.392 . S
N488 Co482 2.008 . S
N488 C489 1.376 . S
N488 C492 1.374 . S
C489 N488 1.376 . S
C489 C490 1.443 . S
C489 C516 1.389 . S
C490 C489 1.443 . S
C490 C491 1.340 . S
C490 H522 0.951 . S
C491 C490 1.340 . S
C491 C492 1.439 . S
C491 H523 0.950 . S
C492 N488 1.374 . S
C492 C491 1.439 . S
C492 C517 1.395 . S
N493 Co482 1.995 . S
N493 C494 1.376 . S
N493 C497 1.383 . S
C494 N493 1.376 . S
C494 C495 1.446 . S
C494 C517 1.391 . S
C495 C494 1.446 . S
C495 C496 1.339 . S
C495 H524 0.949 . S
C496 C495 1.339 . S
C496 C497 1.439 . S
C496 H525 0.950 . S
C497 N493 1.383 . S
C497 C496 1.439 . S
C497 C515 1.392 . S
N498 Co482 2.282 . S
N498 C501 1.332 . S
N498 C503 1.332 . S
C499 C500 1.386 . S
C499 C502 1.388 . S
C500 C499 1.386 . S
C500 C501 1.382 . S
C500 H526 0.950 . S
C501 N498 1.332 . S
C501 C500 1.382 . S
C501 H512 0.952 . S
C502 C499 1.388 . S
C502 C503 1.382 . S
C502 H527 0.950 . S
C503 N498 1.332 . S
C503 C502 1.382 . S
C503 H513 0.948 . S
N504 Co482 2.282 . S
N504 C508 1.332 . S
N504 C509 1.332 . S
C505 C506 1.388 . S
C505 C509 1.382 . S
C505 H528 0.950 . S
C506 C505 1.388 . S
C506 C507 1.386 . S
C507 C506 1.386 . S
C507 C508 1.382 . S
C507 H529 0.950 . S
C508 N504 1.332 . S
C508 C507 1.382 . S
C508 H510 0.952 . S
C509 N504 1.332 . S
C509 C505 1.382 . S
C509 H511 0.948 . S
H510 C508 0.952 . S
H511 C509 0.948 . S
H512 C501 0.952 . S
H513 C503 0.948 . S
C514 C480 1.395 . S
C514 C484 1.391 . S
C515 C477 1.389 . S
C515 C497 1.392 . S
C516 C487 1.392 . S
C516 C489 1.389 . S
C517 C492 1.395 . S
C517 C494 1.391 . S
H518 C478 0.951 . S
H519 C479 0.950 . S
H520 C485 0.949 . S
H521 C486 0.950 . S
H522 C490 0.951 . S
H523 C491 0.950 . S
H524 C495 0.949 . S
H525 C496 0.950 . S
H526 C500 0.950 . S
H527 C502 0.950 . S
H528 C505 0.950 . S
H529 C507 0.950 . S
C530 C531 1.443 . S
C530 N534 1.376 . S
C530 C568 1.389 . S
C531 C530 1.443 . S
C531 C532 1.340 . S
C531 H571 0.951 . S
C532 C531 1.340 . S
C532 C533 1.439 . S
C532 H572 0.950 . S
C533 C532 1.439 . S
C533 N534 1.374 . S
C533 C567 1.395 . S
N534 C530 1.376 . S
N534 C533 1.374 . S
N534 Co535 2.008 . S
Co535 N534 2.008 . S
Co535 N536 1.995 . S
Co535 N541 2.008 . S
Co535 N546 1.995 . S
Co535 N551 2.282 . S
Co535 N557 2.282 . S
N536 Co535 1.995 . S
N536 C537 1.376 . S
N536 C540 1.383 . S
C537 N536 1.376 . S
C537 C538 1.446 . S
C537 C567 1.391 . S
C538 C537 1.446 . S
C538 C539 1.339 . S
C538 H573 0.949 . S
C539 C538 1.339 . S
C539 C540 1.439 . S
C539 H574 0.950 . S
C540 N536 1.383 . S
C540 C539 1.439 . S
C540 C569 1.392 . S
N541 Co535 2.008 . S
N541 C542 1.376 . S
N541 C545 1.374 . S
C542 N541 1.376 . S
C542 C543 1.443 . S
C542 C569 1.389 . S
C543 C542 1.443 . S
C543 C544 1.340 . S
C543 H575 0.951 . S
C544 C543 1.340 . S
C544 C545 1.439 . S
C544 H576 0.950 . S
C545 N541 1.374 . S
C545 C544 1.439 . S
C545 C570 1.395 . S
N546 Co535 1.995 . S
N546 C547 1.376 . S
N546 C550 1.383 . S
C547 N546 1.376 . S
C547 C548 1.446 . S
C547 C570 1.391 . S
C548 C547 1.446 . S
C548 C549 1.339 . S
C548 H577 0.949 . S
C549 C548 1.339 . S
C549 C550 1.439 . S
C549 H578 0.950 . S
C550 N546 1.383 . S
C550 C549 1.439 . S
C550 C568 1.392 . S
N551 Co535 2.282 . S
N551 C554 1.332 . S
N551 C556 1.332 . S
C552 C553 1.386 . S
C552 C555 1.388 . S
C553 C552 1.386 . S
C553 C554 1.382 . S
C553 H579 0.950 . S
C554 N551 1.332 . S
C554 C553 1.382 . S
C554 H565 0.952 . S
C555 C552 1.388 . S
C555 C556 1.382 . S
C555 H580 0.950 . S
C556 N551 1.332 . S
C556 C555 1.382 . S
C556 H566 0.948 . S
N557 Co535 2.282 . S
N557 C561 1.332 . S
N557 C562 1.332 . S
C558 C559 1.388 . S
C558 C562 1.382 . S
C558 H581 0.950 . S
C559 C558 1.388 . S
C559 C560 1.386 . S
C560 C559 1.386 . S
C560 C561 1.382 . S
C560 H582 0.950 . S
C561 N557 1.332 . S
C561 C560 1.382 . S
C561 H563 0.952 . S
C562 N557 1.332 . S
C562 C558 1.382 . S
C562 H564 0.948 . S
H563 C561 0.952 . S
H564 C562 0.948 . S
H565 C554 0.952 . S
H566 C556 0.948 . S
C567 C533 1.395 . S
C567 C537 1.391 . S
C568 C530 1.389 . S
C568 C550 1.392 . S
C569 C540 1.392 . S
C569 C542 1.389 . S
C570 C545 1.395 . S
C570 C547 1.391 . S
H571 C531 0.951 . S
H572 C532 0.950 . S
H573 C538 0.949 . S
H574 C539 0.950 . S
H575 C543 0.951 . S
H576 C544 0.950 . S
H577 C548 0.949 . S
H578 C549 0.950 . S
H579 C553 0.950 . S
H580 C555 0.950 . S
H581 C558 0.950 . S
H582 C560 0.950 . S
C583 C584 1.443 . S
C583 N587 1.376 . S
C583 C621 1.389 . S
C584 C583 1.443 . S
C584 C585 1.340 . S
C584 H624 0.951 . S
C585 C584 1.340 . S
C585 C586 1.439 . S
C585 H625 0.950 . S
C586 C585 1.439 . S
C586 N587 1.374 . S
C586 C620 1.395 . S
N587 C583 1.376 . S
N587 C586 1.374 . S
N587 Co588 2.008 . S
Co588 N587 2.008 . S
Co588 N589 1.995 . S
Co588 N594 2.008 . S
Co588 N599 1.995 . S
Co588 N604 2.282 . S
Co588 N610 2.282 . S
N589 Co588 1.995 . S
N589 C590 1.376 . S
N589 C593 1.383 . S
C590 N589 1.376 . S
C590 C591 1.446 . S
C590 C620 1.391 . S
C591 C590 1.446 . S
C591 C592 1.339 . S
C591 H626 0.949 . S
C592 C591 1.339 . S
C592 C593 1.439 . S
C592 H627 0.950 . S
C593 N589 1.383 . S
C593 C592 1.439 . S
C593 C622 1.392 . S
N594 Co588 2.008 . S
N594 C595 1.376 . S
N594 C598 1.374 . S
C595 N594 1.376 . S
C595 C596 1.443 . S
C595 C622 1.389 . S
C596 C595 1.443 . S
C596 C597 1.340 . S
C596 H628 0.951 . S
C597 C596 1.340 . S
C597 C598 1.439 . S
C597 H629 0.950 . S
C598 N594 1.374 . S
C598 C597 1.439 . S
C598 C623 1.395 . S
N599 Co588 1.995 . S
N599 C600 1.376 . S
N599 C603 1.383 . S
C600 N599 1.376 . S
C600 C601 1.446 . S
C600 C623 1.391 . S
C601 C600 1.446 . S
C601 C602 1.339 . S
C601 H630 0.949 . S
C602 C601 1.339 . S
C602 C603 1.439 . S
C602 H631 0.950 . S
C603 N599 1.383 . S
C603 C602 1.439 . S
C603 C621 1.392 . S
N604 Co588 2.282 . S
N604 C607 1.332 . S
N604 C609 1.332 . S
C605 C606 1.386 . S
C605 C608 1.388 . S
C606 C605 1.386 . S
C606 C607 1.382 . S
C606 H632 0.950 . S
C607 N604 1.332 . S
C607 C606 1.382 . S
C607 H618 0.952 . S
C608 C605 1.388 . S
C608 C609 1.382 . S
C608 H633 0.950 . S
C609 N604 1.332 . S
C609 C608 1.382 . S
C609 H619 0.948 . S
N610 Co588 2.282 . S
N610 C614 1.332 . S
N610 C615 1.332 . S
C611 C612 1.388 . S
C611 C615 1.382 . S
C611 H634 0.950 . S
C612 C611 1.388 . S
C612 C613 1.386 . S
C613 C612 1.386 . S
C613 C614 1.382 . S
C613 H635 0.950 . S
C614 N610 1.332 . S
C614 C613 1.382 . S
C614 H616 0.952 . S
C615 N610 1.332 . S
C615 C611 1.382 . S
C615 H617 0.948 . S
H616 C614 0.952 . S
H617 C615 0.948 . S
H618 C607 0.952 . S
H619 C609 0.948 . S
C620 C586 1.395 . S
C620 C590 1.391 . S
C621 C583 1.389 . S
C621 C603 1.392 . S
C622 C593 1.392 . S
C622 C595 1.389 . S
C623 C598 1.395 . S
C623 C600 1.391 . S
H624 C584 0.951 . S
H625 C585 0.950 . S
H626 C591 0.949 . S
H627 C592 0.950 . S
H628 C596 0.951 . S
H629 C597 0.950 . S
H630 C601 0.949 . S
H631 C602 0.950 . S
H632 C606 0.950 . S
H633 C608 0.950 . S
H634 C611 0.950 . S
H635 C613 0.950 . S
C636 C637 1.443 . S
C636 N640 1.376 . S
C636 C674 1.389 . S
C637 C636 1.443 . S
C637 C638 1.340 . S
C637 H677 0.951 . S
C638 C637 1.340 . S
C638 C639 1.439 . S
C638 H678 0.950 . S
C639 C638 1.439 . S
C639 N640 1.374 . S
C639 C673 1.395 . S
N640 C636 1.376 . S
N640 C639 1.374 . S
N640 Co641 2.008 . S
Co641 N640 2.008 . S
Co641 N642 1.995 . S
Co641 N647 2.008 . S
Co641 N652 1.995 . S
Co641 N657 2.282 . S
Co641 N663 2.282 . S
N642 Co641 1.995 . S
N642 C643 1.376 . S
N642 C646 1.383 . S
C643 N642 1.376 . S
C643 C644 1.446 . S
C643 C673 1.391 . S
C644 C643 1.446 . S
C644 C645 1.339 . S
C644 H679 0.949 . S
C645 C644 1.339 . S
C645 C646 1.439 . S
C645 H680 0.950 . S
C646 N642 1.383 . S
C646 C645 1.439 . S
C646 C675 1.392 . S
N647 Co641 2.008 . S
N647 C648 1.376 . S
N647 C651 1.374 . S
C648 N647 1.376 . S
C648 C649 1.443 . S
C648 C675 1.389 . S
C649 C648 1.443 . S
C649 C650 1.340 . S
C649 H681 0.951 . S
C650 C649 1.340 . S
C650 C651 1.439 . S
C650 H682 0.950 . S
C651 N647 1.374 . S
C651 C650 1.439 . S
C651 C676 1.395 . S
N652 Co641 1.995 . S
N652 C653 1.376 . S
N652 C656 1.383 . S
C653 N652 1.376 . S
C653 C654 1.446 . S
C653 C676 1.391 . S
C654 C653 1.446 . S
C654 C655 1.339 . S
C654 H683 0.949 . S
C655 C654 1.339 . S
C655 C656 1.439 . S
C655 H684 0.950 . S
C656 N652 1.383 . S
C656 C655 1.439 . S
C656 C674 1.392 . S
N657 Co641 2.282 . S
N657 C660 1.332 . S
N657 C662 1.332 . S
C658 C659 1.386 . S
C658 C661 1.388 . S
C659 C658 1.386 . S
C659 C660 1.382 . S
C659 H685 0.950 . S
C660 N657 1.332 . S
C660 C659 1.382 . S
C660 H671 0.952 . S
C661 C658 1.388 . S
C661 C662 1.382 . S
C661 H686 0.950 . S
C662 N657 1.332 . S
C662 C661 1.382 . S
C662 H672 0.948 . S
N663 Co641 2.282 . S
N663 C667 1.332 . S
N663 C668 1.332 . S
C664 C665 1.388 . S
C664 C668 1.382 . S
C664 H687 0.950 . S
C665 C664 1.388 . S
C665 C666 1.386 . S
C666 C665 1.386 . S
C666 C667 1.382 . S
C666 H688 0.950 . S
C667 N663 1.332 . S
C667 C666 1.382 . S
C667 H669 0.952 . S
C668 N663 1.332 . S
C668 C664 1.382 . S
C668 H670 0.948 . S
H669 C667 0.952 . S
H670 C668 0.948 . S
H671 C660 0.952 . S
H672 C662 0.948 . S
C673 C639 1.395 . S
C673 C643 1.391 . S
C674 C636 1.389 . S
C674 C656 1.392 . S
C675 C646 1.392 . S
C675 C648 1.389 . S
C676 C651 1.395 . S
C676 C653 1.391 . S
H677 C637 0.951 . S
H678 C638 0.950 . S
H679 C644 0.949 . S
H680 C645 0.950 . S
H681 C649 0.951 . S
H682 C650 0.950 . S
H683 C654 0.949 . S
H684 C655 0.950 . S
H685 C659 0.950 . S
H686 C661 0.950 . S
H687 C664 0.950 . S
H688 C666 0.950 . S
C689 C690 1.443 . S
C689 N693 1.376 . S
C689 C727 1.389 . S
C690 C689 1.443 . S
C690 C691 1.340 . S
C690 H730 0.951 . S
C691 C690 1.340 . S
C691 C692 1.439 . S
C691 H731 0.950 . S
C692 C691 1.439 . S
C692 N693 1.374 . S
C692 C726 1.395 . S
N693 C689 1.376 . S
N693 C692 1.374 . S
N693 Co694 2.008 . S
Co694 N693 2.008 . S
Co694 N695 1.995 . S
Co694 N700 2.008 . S
Co694 N705 1.995 . S
Co694 N710 2.282 . S
Co694 N716 2.282 . S
N695 Co694 1.995 . S
N695 C696 1.376 . S
N695 C699 1.383 . S
C696 N695 1.376 . S
C696 C697 1.446 . S
C696 C726 1.391 . S
C697 C696 1.446 . S
C697 C698 1.339 . S
C697 H732 0.949 . S
C698 C697 1.339 . S
C698 C699 1.439 . S
C698 H733 0.950 . S
C699 N695 1.383 . S
C699 C698 1.439 . S
C699 C728 1.392 . S
N700 Co694 2.008 . S
N700 C701 1.376 . S
N700 C704 1.374 . S
C701 N700 1.376 . S
C701 C702 1.443 . S
C701 C728 1.389 . S
C702 C701 1.443 . S
C702 C703 1.340 . S
C702 H734 0.951 . S
C703 C702 1.340 . S
C703 C704 1.439 . S
C703 H735 0.950 . S
C704 N700 1.374 . S
C704 C703 1.439 . S
C704 C729 1.395 . S
N705 Co694 1.995 . S
N705 C706 1.376 . S
N705 C709 1.383 . S
C706 N705 1.376 . S
C706 C707 1.446 . S
C706 C729 1.391 . S
C707 C706 1.446 . S
C707 C708 1.339 . S
C707 H736 0.949 . S
C708 C707 1.339 . S
C708 C709 1.439 . S
C708 H737 0.950 . S
C709 N705 1.383 . S
C709 C708 1.439 . S
C709 C727 1.392 . S
N710 Co694 2.282 . S
N710 C713 1.332 . S
N710 C715 1.332 . S
C711 C712 1.386 . S
C711 C714 1.388 . S
C712 C711 1.386 . S
C712 C713 1.382 . S
C712 H738 0.950 . S
C713 N710 1.332 . S
C713 C712 1.382 . S
C713 H724 0.952 . S
C714 C711 1.388 . S
C714 C715 1.382 . S
C714 H739 0.950 . S
C715 N710 1.332 . S
C715 C714 1.382 . S
C715 H725 0.948 . S
N716 Co694 2.282 . S
N716 C720 1.332 . S
N716 C721 1.332 . S
C717 C718 1.388 . S
C717 C721 1.382 . S
C717 H740 0.950 . S
C718 C717 1.388 . S
C718 C719 1.386 . S
C719 C718 1.386 . S
C719 C720 1.382 . S
C719 H741 0.950 . S
C720 N716 1.332 . S
C720 C719 1.382 . S
C720 H722 0.952 . S
C721 N716 1.332 . S
C721 C717 1.382 . S
C721 H723 0.948 . S
H722 C720 0.952 . S
H723 C721 0.948 . S
H724 C713 0.952 . S
H725 C715 0.948 . S
C726 C692 1.395 . S
C726 C696 1.391 . S
C727 C689 1.389 . S
C727 C709 1.392 . S
C728 C699 1.392 . S
C728 C701 1.389 . S
C729 C704 1.395 . S
C729 C706 1.391 . S
H730 C690 0.951 . S
H731 C691 0.950 . S
H732 C697 0.949 . S
H733 C698 0.950 . S
H734 C702 0.951 . S
H735 C703 0.950 . S
H736 C707 0.949 . S
H737 C708 0.950 . S
H738 C712 0.950 . S
H739 C714 0.950 . S
H740 C717 0.950 . S
H741 C719 0.950 . S
C742 C743 1.443 . S
C742 N746 1.376 . S
C742 C780 1.389 . S
C743 C742 1.443 . S
C743 C744 1.340 . S
C743 H783 0.951 . S
C744 C743 1.340 . S
C744 C745 1.439 . S
C744 H784 0.950 . S
C745 C744 1.439 . S
C745 N746 1.374 . S
C745 C779 1.395 . S
N746 C742 1.376 . S
N746 C745 1.374 . S
N746 Co747 2.008 . S
Co747 N746 2.008 . S
Co747 N748 1.995 . S
Co747 N753 2.008 . S
Co747 N758 1.995 . S
Co747 N763 2.282 . S
Co747 N769 2.282 . S
N748 Co747 1.995 . S
N748 C749 1.376 . S
N748 C752 1.383 . S
C749 N748 1.376 . S
C749 C750 1.446 . S
C749 C779 1.391 . S
C750 C749 1.446 . S
C750 C751 1.339 . S
C750 H785 0.949 . S
C751 C750 1.339 . S
C751 C752 1.439 . S
C751 H786 0.950 . S
C752 N748 1.383 . S
C752 C751 1.439 . S
C752 C781 1.392 . S
N753 Co747 2.008 . S
N753 C754 1.376 . S
N753 C757 1.374 . S
C754 N753 1.376 . S
C754 C755 1.443 . S
C754 C781 1.389 . S
C755 C754 1.443 . S
C755 C756 1.340 . S
C755 H787 0.951 . S
C756 C755 1.340 . S
C756 C757 1.439 . S
C756 H788 0.950 . S
C757 N753 1.374 . S
C757 C756 1.439 . S
C757 C782 1.395 . S
N758 Co747 1.995 . S
N758 C759 1.376 . S
N758 C762 1.383 . S
C759 N758 1.376 . S
C759 C760 1.446 . S
C759 C782 1.391 . S
C760 C759 1.446 . S
C760 C761 1.339 . S
C760 H789 0.949 . S
C761 C760 1.339 . S
C761 C762 1.439 . S
C761 H790 0.950 . S
C762 N758 1.383 . S
C762 C761 1.439 . S
C762 C780 1.392 . S
N763 Co747 2.282 . S
N763 C766 1.332 . S
N763 C768 1.332 . S
C764 C765 1.386 . S
C764 C767 1.388 . S
C765 C764 1.386 . S
C765 C766 1.382 . S
C765 H791 0.950 . S
C766 N763 1.332 . S
C766 C765 1.382 . S
C766 H777 0.952 . S
C767 C764 1.388 . S
C767 C768 1.382 . S
C767 H792 0.950 . S
C768 N763 1.332 . S
C768 C767 1.382 . S
C768 H778 0.948 . S
N769 Co747 2.282 . S
N769 C773 1.332 . S
N769 C774 1.332 . S
C770 C771 1.388 . S
C770 C774 1.382 . S
C770 H793 0.950 . S
C771 C770 1.388 . S
C771 C772 1.386 . S
C772 C771 1.386 . S
C772 C773 1.382 . S
C772 H794 0.950 . S
C773 N769 1.332 . S
C773 C772 1.382 . S
C773 H775 0.952 . S
C774 N769 1.332 . S
C774 C770 1.382 . S
C774 H776 0.948 . S
H775 C773 0.952 . S
H776 C774 0.948 . S
H777 C766 0.952 . S
H778 C768 0.948 . S
C779 C745 1.395 . S
C779 C749 1.391 . S
C780 C742 1.389 . S
C780 C762 1.392 . S
C781 C752 1.392 . S
C781 C754 1.389 . S
C782 C757 1.395 . S
C782 C759 1.391 . S
H783 C743 0.951 . S
H784 C744 0.950 . S
H785 C750 0.949 . S
H786 C751 0.950 . S
H787 C755 0.951 . S
H788 C756 0.950 . S
H789 C760 0.949 . S
H790 C761 0.950 . S
H791 C765 0.950 . S
H792 C767 0.950 . S
H793 C770 0.950 . S
H794 C772 0.950 . S
C795 C796 1.443 . S
C795 N799 1.376 . S
C795 C833 1.389 . S
C796 C795 1.443 . S
C796 C797 1.340 . S
C796 H836 0.951 . S
C797 C796 1.340 . S
C797 C798 1.439 . S
C797 H837 0.950 . S
C798 C797 1.439 . S
C798 N799 1.374 . S
C798 C832 1.395 . S
N799 C795 1.376 . S
N799 C798 1.374 . S
N799 Co800 2.008 . S
Co800 N799 2.008 . S
Co800 N801 1.995 . S
Co800 N806 2.008 . S
Co800 N811 1.995 . S
Co800 N816 2.282 . S
Co800 N822 2.282 . S
N801 Co800 1.995 . S
N801 C802 1.376 . S
N801 C805 1.383 . S
C802 N801 1.376 . S
C802 C803 1.446 . S
C802 C832 1.391 . S
C803 C802 1.446 . S
C803 C804 1.339 . S
C803 H838 0.949 . S
C804 C803 1.339 . S
C804 C805 1.439 . S
C804 H839 0.950 . S
C805 N801 1.383 . S
C805 C804 1.439 . S
C805 C834 1.392 . S
N806 Co800 2.008 . S
N806 C807 1.376 . S
N806 C810 1.374 . S
C807 N806 1.376 . S
C807 C808 1.443 . S
C807 C834 1.389 . S
C808 C807 1.443 . S
C808 C809 1.340 . S
C808 H840 0.951 . S
C809 C808 1.340 . S
C809 C810 1.439 . S
C809 H841 0.950 . S
C810 N806 1.374 . S
C810 C809 1.439 . S
C810 C835 1.395 . S
N811 Co800 1.995 . S
N811 C812 1.376 . S
N811 C815 1.383 . S
C812 N811 1.376 . S
C812 C813 1.446 . S
C812 C835 1.391 . S
C813 C812 1.446 . S
C813 C814 1.339 . S
C813 H842 0.949 . S
C814 C813 1.339 . S
C814 C815 1.439 . S
C814 H843 0.950 . S
C815 N811 1.383 . S
C815 C814 1.439 . S
C815 C833 1.392 . S
N816 Co800 2.282 . S
N816 C819 1.332 . S
N816 C821 1.332 . S
C817 C818 1.386 . S
C817 C820 1.388 . S
C818 C817 1.386 . S
C818 C819 1.382 . S
C818 H844 0.950 . S
C819 N816 1.332 . S
C819 C818 1.382 . S
C819 H830 0.952 . S
C820 C817 1.388 . S
C820 C821 1.382 . S
C820 H845 0.950 . S
C821 N816 1.332 . S
C821 C820 1.382 . S
C821 H831 0.948 . S
N822 Co800 2.282 . S
N822 C826 1.332 . S
N822 C827 1.332 . S
C823 C824 1.388 . S
C823 C827 1.382 . S
C823 H846 0.950 . S
C824 C823 1.388 . S
C824 C825 1.386 . S
C825 C824 1.386 . S
C825 C826 1.382 . S
C825 H847 0.950 . S
C826 N822 1.332 . S
C826 C825 1.382 . S
C826 H828 0.952 . S
C827 N822 1.332 . S
C827 C823 1.382 . S
C827 H829 0.948 . S
H828 C826 0.952 . S
H829 C827 0.948 . S
H830 C819 0.952 . S
H831 C821 0.948 . S
C832 C798 1.395 . S
C832 C802 1.391 . S
C833 C795 1.389 . S
C833 C815 1.392 . S
C834 C805 1.392 . S
C834 C807 1.389 . S
C835 C810 1.395 . S
C835 C812 1.391 . S
H836 C796 0.951 . S
H837 C797 0.950 . S
H838 C803 0.949 . S
H839 C804 0.950 . S
H840 C808 0.951 . S
H841 C809 0.950 . S
H842 C813 0.949 . S
H843 C814 0.950 . S
H844 C818 0.950 . S
H845 C820 0.950 . S
H846 C823 0.950 . S
H847 C825 0.950 . S
C848 C849 1.443 . S
C848 N852 1.376 . S
C848 C886 1.389 . S
C849 C848 1.443 . S
C849 C850 1.340 . S
C849 H889 0.951 . S
C850 C849 1.340 . S
C850 C851 1.439 . S
C850 H890 0.950 . S
C851 C850 1.439 . S
C851 N852 1.374 . S
C851 C885 1.395 . S
N852 C848 1.376 . S
N852 C851 1.374 . S
N852 Co853 2.008 . S
Co853 N852 2.008 . S
Co853 N854 1.995 . S
Co853 N859 2.008 . S
Co853 N864 1.995 . S
Co853 N869 2.282 . S
Co853 N875 2.282 . S
N854 Co853 1.995 . S
N854 C855 1.376 . S
N854 C858 1.383 . S
C855 N854 1.376 . S
C855 C856 1.446 . S
C855 C885 1.391 . S
C856 C855 1.446 . S
C856 C857 1.339 . S
C856 H891 0.949 . S
C857 C856 1.339 . S
C857 C858 1.439 . S
C857 H892 0.950 . S
C858 N854 1.383 . S
C858 C857 1.439 . S
C858 C887 1.392 . S
N859 Co853 2.008 . S
N859 C860 1.376 . S
N859 C863 1.374 . S
C860 N859 1.376 . S
C860 C861 1.443 . S
C860 C887 1.389 . S
C861 C860 1.443 . S
C861 C862 1.340 . S
C861 H893 0.951 . S
C862 C861 1.340 . S
C862 C863 1.439 . S
C862 H894 0.950 . S
C863 N859 1.374 . S
C863 C862 1.439 . S
C863 C888 1.395 . S
N864 Co853 1.995 . S
N864 C865 1.376 . S
N864 C868 1.383 . S
C865 N864 1.376 . S
C865 C866 1.446 . S
C865 C888 1.391 . S
C866 C865 1.446 . S
C866 C867 1.339 . S
C866 H895 0.949 . S
C867 C866 1.339 . S
C867 C868 1.439 . S
C867 H896 0.950 . S
C868 N864 1.383 . S
C868 C867 1.439 . S
C868 C886 1.392 . S
N869 Co853 2.282 . S
N869 C872 1.332 . S
N869 C874 1.332 . S
C870 C871 1.386 . S
C870 C873 1.388 . S
C871 C870 1.386 . S
C871 C872 1.382 . S
C871 H897 0.950 . S
C872 N869 1.332 . S
C872 C871 1.382 . S
C872 H883 0.952 . S
C873 C870 1.388 . S
C873 C874 1.382 . S
C873 H898 0.950 . S
C874 N869 1.332 . S
C874 C873 1.382 . S
C874 H884 0.948 . S
N875 Co853 2.282 . S
N875 C879 1.332 . S
N875 C880 1.332 . S
C876 C877 1.388 . S
C876 C880 1.382 . S
C876 H899 0.950 . S
C877 C876 1.388 . S
C877 C878 1.386 . S
C878 C877 1.386 . S
C878 C879 1.382 . S
C878 H900 0.950 . S
C879 N875 1.332 . S
C879 C878 1.382 . S
C879 H881 0.952 . S
C880 N875 1.332 . S
C880 C876 1.382 . S
C880 H882 0.948 . S
H881 C879 0.952 . S
H882 C880 0.948 . S
H883 C872 0.952 . S
H884 C874 0.948 . S
C885 C851 1.395 . S
C885 C855 1.391 . S
C886 C848 1.389 . S
C886 C868 1.392 . S
C887 C858 1.392 . S
C887 C860 1.389 . S
C888 C863 1.395 . S
C888 C865 1.391 . S
H889 C849 0.951 . S
H890 C850 0.950 . S
H891 C856 0.949 . S
H892 C857 0.950 . S
H893 C861 0.951 . S
H894 C862 0.950 . S
H895 C866 0.949 . S
H896 C867 0.950 . S
H897 C871 0.950 . S
H898 C873 0.950 . S
H899 C876 0.950 . S
H900 C878 0.950 . S
C901 C902 1.443 . S
C901 N905 1.376 . S
C901 C939 1.389 . S
C902 C901 1.443 . S
C902 C903 1.340 . S
C902 H942 0.951 . S
C903 C902 1.340 . S
C903 C904 1.439 . S
C903 H943 0.950 . S
C904 C903 1.439 . S
C904 N905 1.374 . S
C904 C938 1.395 . S
N905 C901 1.376 . S
N905 C904 1.374 . S
N905 Co906 2.008 . S
Co906 N905 2.008 . S
Co906 N907 1.995 . S
Co906 N912 2.008 . S
Co906 N917 1.995 . S
Co906 N922 2.282 . S
Co906 N928 2.282 . S
N907 Co906 1.995 . S
N907 C908 1.376 . S
N907 C911 1.383 . S
C908 N907 1.376 . S
C908 C909 1.446 . S
C908 C938 1.391 . S
C909 C908 1.446 . S
C909 C910 1.339 . S
C909 H944 0.949 . S
C910 C909 1.339 . S
C910 C911 1.439 . S
C910 H945 0.950 . S
C911 N907 1.383 . S
C911 C910 1.439 . S
C911 C940 1.392 . S
N912 Co906 2.008 . S
N912 C913 1.376 . S
N912 C916 1.374 . S
C913 N912 1.376 . S
C913 C914 1.443 . S
C913 C940 1.389 . S
C914 C913 1.443 . S
C914 C915 1.340 . S
C914 H946 0.951 . S
C915 C914 1.340 . S
C915 C916 1.439 . S
C915 H947 0.950 . S
C916 N912 1.374 . S
C916 C915 1.439 . S
C916 C941 1.395 . S
N917 Co906 1.995 . S
N917 C918 1.376 . S
N917 C921 1.383 . S
C918 N917 1.376 . S
C918 C919 1.446 . S
C918 C941 1.391 . S
C919 C918 1.446 . S
C919 C920 1.339 . S
C919 H948 0.949 . S
C920 C919 1.339 . S
C920 C921 1.439 . S
C920 H949 0.950 . S
C921 N917 1.383 . S
C921 C920 1.439 . S
C921 C939 1.392 . S
N922 Co906 2.282 . S
N922 C925 1.332 . S
N922 C927 1.332 . S
C923 C924 1.386 . S
C923 C926 1.388 . S
C924 C923 1.386 . S
C924 C925 1.382 . S
C924 H950 0.950 . S
C925 N922 1.332 . S
C925 C924 1.382 . S
C925 H936 0.952 . S
C926 C923 1.388 . S
C926 C927 1.382 . S
C926 H951 0.950 . S
C927 N922 1.332 . S
C927 C926 1.382 . S
C927 H937 0.948 . S
N928 Co906 2.282 . S
N928 C932 1.332 . S
N928 C933 1.332 . S
C929 C930 1.388 . S
C929 C933 1.382 . S
C929 H952 0.950 . S
C930 C929 1.388 . S
C930 C931 1.386 . S
C931 C930 1.386 . S
C931 C932 1.382 . S
C931 H953 0.950 . S
C932 N928 1.332 . S
C932 C931 1.382 . S
C932 H934 0.952 . S
C933 N928 1.332 . S
C933 C929 1.382 . S
C933 H935 0.948 . S
H934 C932 0.952 . S
H935 C933 0.948 . S
H936 C925 0.952 . S
H937 C927 0.948 . S
C938 C904 1.395 . S
C938 C908 1.391 . S
C939 C901 1.389 . S
C939 C921 1.392 . S
C940 C911 1.392 . S
C940 C913 1.389 . S
C941 C916 1.395 . S
C941 C918 1.391 . S
H942 C902 0.951 . S
H943 C903 0.950 . S
H944 C909 0.949 . S
H945 C910 0.950 . S
H946 C914 0.951 . S
H947 C915 0.950 . S
H948 C919 0.949 . S
H949 C920 0.950 . S
H950 C924 0.950 . S
H951 C926 0.950 . S
H952 C929 0.950 . S
H953 C931 0.950 . S
C954 C955 1.443 . S
C954 N958 1.376 . S
C954 C992 1.389 . S
C955 C954 1.443 . S
C955 C956 1.340 . S
C955 H995 0.951 . S
C956 C955 1.340 . S
C956 C957 1.439 . S
C956 H996 0.950 . S
C957 C956 1.439 . S
C957 N958 1.374 . S
C957 C991 1.395 . S
N958 C954 1.376 . S
N958 C957 1.374 . S
N958 Co959 2.008 . S
Co959 N958 2.008 . S
Co959 N960 1.995 . S
Co959 N965 2.008 . S
Co959 N970 1.995 . S
Co959 N975 2.282 . S
Co959 N981 2.282 . S
N960 Co959 1.995 . S
N960 C961 1.376 . S
N960 C964 1.383 . S
C961 N960 1.376 . S
C961 C962 1.446 . S
C961 C991 1.391 . S
C962 C961 1.446 . S
C962 C963 1.339 . S
C962 H997 0.949 . S
C963 C962 1.339 . S
C963 C964 1.439 . S
C963 H998 0.950 . S
C964 N960 1.383 . S
C964 C963 1.439 . S
C964 C993 1.392 . S
N965 Co959 2.008 . S
N965 C966 1.376 . S
N965 C969 1.374 . S
C966 N965 1.376 . S
C966 C967 1.443 . S
C966 C993 1.389 . S
C967 C966 1.443 . S
C967 C968 1.340 . S
C967 H999 0.951 . S
C968 C967 1.340 . S
C968 C969 1.439 . S
C968 H1000 0.950 . S
C969 N965 1.374 . S
C969 C968 1.439 . S
C969 C994 1.395 . S
N970 Co959 1.995 . S
N970 C971 1.376 . S
N970 C974 1.383 . S
C971 N970 1.376 . S
C971 C972 1.446 . S
C971 C994 1.391 . S
C972 C971 1.446 . S
C972 C973 1.339 . S
C972 H1001 0.949 . S
C973 C972 1.339 . S
C973 C974 1.439 . S
C973 H1002 0.950 . S
C974 N970 1.383 . S
C974 C973 1.439 . S
C974 C992 1.392 . S
N975 Co959 2.282 . S
N975 C978 1.332 . S
N975 C980 1.332 . S
C976 C977 1.386 . S
C976 C979 1.388 . S
C977 C976 1.386 . S
C977 C978 1.382 . S
C977 H1003 0.950 . S
C978 N975 1.332 . S
C978 C977 1.382 . S
C978 H989 0.952 . S
C979 C976 1.388 . S
C979 C980 1.382 . S
C979 H1004 0.950 1_556 S
C980 N975 1.332 . S
C980 C979 1.382 . S
C980 H990 0.948 . S
N981 Co959 2.282 . S
N981 C985 1.332 . S
N981 C986 1.332 . S
C982 C983 1.388 . S
C982 C986 1.382 . S
C982 H1005 0.950 . S
C983 C982 1.388 . S
C983 C984 1.386 . S
C984 C983 1.386 . S
C984 C985 1.382 . S
C984 H1006 0.950 . S
C985 N981 1.332 . S
C985 C984 1.382 . S
C985 H987 0.952 . S
C986 N981 1.332 . S
C986 C982 1.382 . S
C986 H988 0.948 . S
H987 C985 0.952 . S
H988 C986 0.948 . S
H989 C978 0.952 . S
H990 C980 0.948 . S
C991 C957 1.395 . S
C991 C961 1.391 . S
C992 C954 1.389 . S
C992 C974 1.392 . S
C993 C964 1.392 . S
C993 C966 1.389 . S
C994 C969 1.395 . S
C994 C971 1.391 . S
H995 C955 0.951 . S
H996 C956 0.950 . S
H997 C962 0.949 . S
H998 C963 0.950 . S
H999 C967 0.951 . S
H1000 C968 0.950 . S
H1001 C972 0.949 . S
H1002 C973 0.950 . S
H1003 C977 0.950 . S
H1004 C979 0.950 1_554 S
H1005 C982 0.950 . S
H1006 C984 0.950 . S
C1007 C1008 1.443 . S
C1007 N1011 1.376 . S
C1007 C1045 1.389 . S
C1008 C1007 1.443 . S
C1008 C1009 1.340 . S
C1008 H1048 0.951 . S
C1009 C1008 1.340 . S
C1009 C1010 1.439 . S
C1009 H1049 0.950 . S
C1010 C1009 1.439 . S
C1010 N1011 1.374 . S
C1010 C1044 1.395 . S
N1011 C1007 1.376 . S
N1011 C1010 1.374 . S
N1011 Co1012 2.008 . S
Co1012 N1011 2.008 . S
Co1012 N1013 1.995 . S
Co1012 N1018 2.008 . S
Co1012 N1023 1.995 . S
Co1012 N1028 2.282 . S
Co1012 N1034 2.282 . S
N1013 Co1012 1.995 . S
N1013 C1014 1.376 . S
N1013 C1017 1.383 . S
C1014 N1013 1.376 . S
C1014 C1015 1.446 . S
C1014 C1044 1.391 . S
C1015 C1014 1.446 . S
C1015 C1016 1.339 . S
C1015 H1050 0.949 . S
C1016 C1015 1.339 . S
C1016 C1017 1.439 . S
C1016 H1051 0.950 . S
C1017 N1013 1.383 . S
C1017 C1016 1.439 . S
C1017 C1046 1.392 . S
N1018 Co1012 2.008 . S
N1018 C1019 1.376 . S
N1018 C1022 1.374 . S
C1019 N1018 1.376 . S
C1019 C1020 1.443 . S
C1019 C1046 1.389 . S
C1020 C1019 1.443 . S
C1020 C1021 1.340 . S
C1020 H1052 0.951 . S
C1021 C1020 1.340 . S
C1021 C1022 1.439 . S
C1021 H1053 0.950 . S
C1022 N1018 1.374 . S
C1022 C1021 1.439 . S
C1022 C1047 1.395 . S
N1023 Co1012 1.995 . S
N1023 C1024 1.376 . S
N1023 C1027 1.383 . S
C1024 N1023 1.376 . S
C1024 C1025 1.446 . S
C1024 C1047 1.391 . S
C1025 C1024 1.446 . S
C1025 C1026 1.339 . S
C1025 H1054 0.949 . S
C1026 C1025 1.339 . S
C1026 C1027 1.439 . S
C1026 H1055 0.950 . S
C1027 N1023 1.383 . S
C1027 C1026 1.439 . S
C1027 C1045 1.392 . S
N1028 Co1012 2.282 . S
N1028 C1031 1.332 . S
N1028 C1033 1.332 . S
C1029 C1030 1.386 . S
C1029 C1032 1.388 . S
C1030 C1029 1.386 . S
C1030 C1031 1.382 . S
C1030 H1056 0.950 . S
C1031 N1028 1.332 . S
C1031 C1030 1.382 . S
C1031 H1042 0.952 . S
C1032 C1029 1.388 . S
C1032 C1033 1.382 . S
C1032 H1057 0.950 . S
C1033 N1028 1.332 . S
C1033 C1032 1.382 . S
C1033 H1043 0.948 . S
N1034 Co1012 2.282 . S
N1034 C1038 1.332 . S
N1034 C1039 1.332 . S
C1035 C1036 1.388 . S
C1035 C1039 1.382 . S
C1035 H1058 0.950 . S
C1036 C1035 1.388 . S
C1036 C1037 1.386 . S
C1037 C1036 1.386 . S
C1037 C1038 1.382 . S
C1037 H1059 0.950 . S
C1038 N1034 1.332 . S
C1038 C1037 1.382 . S
C1038 H1040 0.952 . S
C1039 N1034 1.332 . S
C1039 C1035 1.382 . S
C1039 H1041 0.948 . S
H1040 C1038 0.952 . S
H1041 C1039 0.948 . S
H1042 C1031 0.952 . S
H1043 C1033 0.948 . S
C1044 C1010 1.395 . S
C1044 C1014 1.391 . S
C1045 C1007 1.389 . S
C1045 C1027 1.392 . S
C1046 C1017 1.392 . S
C1046 C1019 1.389 . S
C1047 C1022 1.395 . S
C1047 C1024 1.391 . S
H1048 C1008 0.951 . S
H1049 C1009 0.950 . S
H1050 C1015 0.949 . S
H1051 C1016 0.950 . S
H1052 C1020 0.951 . S
H1053 C1021 0.950 . S
H1054 C1025 0.949 . S
H1055 C1026 0.950 . S
H1056 C1030 0.950 . S
H1057 C1032 0.950 . S
H1058 C1035 0.950 . S
H1059 C1037 0.950 . S
C1060 C1061 1.443 . S
C1060 N1064 1.376 . S
C1060 C1098 1.389 . S
C1061 C1060 1.443 . S
C1061 C1062 1.340 . S
C1061 H1101 0.951 . S
C1062 C1061 1.340 . S
C1062 C1063 1.439 . S
C1062 H1102 0.950 . S
C1063 C1062 1.439 . S
C1063 N1064 1.374 . S
C1063 C1097 1.395 . S
N1064 C1060 1.376 . S
N1064 C1063 1.374 . S
N1064 Co1065 2.008 . S
Co1065 N1064 2.008 . S
Co1065 N1066 1.995 . S
Co1065 N1071 2.008 . S
Co1065 N1076 1.995 . S
Co1065 N1081 2.282 . S
Co1065 N1087 2.282 . S
N1066 Co1065 1.995 . S
N1066 C1067 1.376 . S
N1066 C1070 1.383 . S
C1067 N1066 1.376 . S
C1067 C1068 1.446 . S
C1067 C1097 1.391 . S
C1068 C1067 1.446 . S
C1068 C1069 1.339 . S
C1068 H1103 0.949 . S
C1069 C1068 1.339 . S
C1069 C1070 1.439 . S
C1069 H1104 0.950 . S
C1070 N1066 1.383 . S
C1070 C1069 1.439 . S
C1070 C1099 1.392 . S
N1071 Co1065 2.008 . S
N1071 C1072 1.376 . S
N1071 C1075 1.374 . S
C1072 N1071 1.376 . S
C1072 C1073 1.443 . S
C1072 C1099 1.389 . S
C1073 C1072 1.443 . S
C1073 C1074 1.340 . S
C1073 H1105 0.951 . S
C1074 C1073 1.340 . S
C1074 C1075 1.439 . S
C1074 H1106 0.950 . S
C1075 N1071 1.374 . S
C1075 C1074 1.439 . S
C1075 C1100 1.395 . S
N1076 Co1065 1.995 . S
N1076 C1077 1.376 . S
N1076 C1080 1.383 . S
C1077 N1076 1.376 . S
C1077 C1078 1.446 . S
C1077 C1100 1.391 . S
C1078 C1077 1.446 . S
C1078 C1079 1.339 . S
C1078 H1107 0.949 . S
C1079 C1078 1.339 . S
C1079 C1080 1.439 . S
C1079 H1108 0.950 . S
C1080 N1076 1.383 . S
C1080 C1079 1.439 . S
C1080 C1098 1.392 . S
N1081 Co1065 2.282 . S
N1081 C1084 1.332 . S
N1081 C1086 1.332 . S
C1082 C1083 1.386 . S
C1082 C1085 1.388 . S
C1083 C1082 1.386 . S
C1083 C1084 1.382 . S
C1083 H1109 0.950 . S
C1084 N1081 1.332 . S
C1084 C1083 1.382 . S
C1084 H1095 0.952 . S
C1085 C1082 1.388 . S
C1085 C1086 1.382 . S
C1085 H1110 0.950 . S
C1086 N1081 1.332 . S
C1086 C1085 1.382 . S
C1086 H1096 0.948 . S
N1087 Co1065 2.282 . S
N1087 C1091 1.332 . S
N1087 C1092 1.332 . S
C1088 C1089 1.388 . S
C1088 C1092 1.382 . S
C1088 H1111 0.950 . S
C1089 C1088 1.388 . S
C1089 C1090 1.386 . S
C1090 C1089 1.386 . S
C1090 C1091 1.382 . S
C1090 H1112 0.950 . S
C1091 N1087 1.332 . S
C1091 C1090 1.382 . S
C1091 H1093 0.952 . S
C1092 N1087 1.332 . S
C1092 C1088 1.382 . S
C1092 H1094 0.948 . S
H1093 C1091 0.952 . S
H1094 C1092 0.948 . S
H1095 C1084 0.952 . S
H1096 C1086 0.948 . S
C1097 C1063 1.395 . S
C1097 C1067 1.391 . S
C1098 C1060 1.389 . S
C1098 C1080 1.392 . S
C1099 C1070 1.392 . S
C1099 C1072 1.389 . S
C1100 C1075 1.395 . S
C1100 C1077 1.391 . S
H1101 C1061 0.951 . S
H1102 C1062 0.950 . S
H1103 C1068 0.949 . S
H1104 C1069 0.950 . S
H1105 C1073 0.951 . S
H1106 C1074 0.950 . S
H1107 C1078 0.949 . S
H1108 C1079 0.950 . S
H1109 C1083 0.950 . S
H1110 C1085 0.950 . S
H1111 C1088 0.950 . S
H1112 C1090 0.950 . S
C1113 C1114 1.443 . S
C1113 N1117 1.376 . S
C1113 C1151 1.389 . S
C1114 C1113 1.443 . S
C1114 C1115 1.340 . S
C1114 H1154 0.951 . S
C1115 C1114 1.340 . S
C1115 C1116 1.439 . S
C1115 H1155 0.950 . S
C1116 C1115 1.439 . S
C1116 N1117 1.374 . S
C1116 C1150 1.395 . S
N1117 C1113 1.376 . S
N1117 C1116 1.374 . S
N1117 Co1118 2.008 . S
Co1118 N1117 2.008 . S
Co1118 N1119 1.995 . S
Co1118 N1124 2.008 . S
Co1118 N1129 1.995 . S
Co1118 N1134 2.282 . S
Co1118 N1140 2.282 . S
N1119 Co1118 1.995 . S
N1119 C1120 1.376 . S
N1119 C1123 1.383 . S
C1120 N1119 1.376 . S
C1120 C1121 1.446 . S
C1120 C1150 1.391 . S
C1121 C1120 1.446 . S
C1121 C1122 1.339 . S
C1121 H1156 0.949 . S
C1122 C1121 1.339 . S
C1122 C1123 1.439 . S
C1122 H1157 0.950 . S
C1123 N1119 1.383 . S
C1123 C1122 1.439 . S
C1123 C1152 1.392 . S
N1124 Co1118 2.008 . S
N1124 C1125 1.376 . S
N1124 C1128 1.374 . S
C1125 N1124 1.376 . S
C1125 C1126 1.443 . S
C1125 C1152 1.389 . S
C1126 C1125 1.443 . S
C1126 C1127 1.340 . S
C1126 H1158 0.951 . S
C1127 C1126 1.340 . S
C1127 C1128 1.439 . S
C1127 H1159 0.950 . S
C1128 N1124 1.374 . S
C1128 C1127 1.439 . S
C1128 C1153 1.395 . S
N1129 Co1118 1.995 . S
N1129 C1130 1.376 . S
N1129 C1133 1.383 . S
C1130 N1129 1.376 . S
C1130 C1131 1.446 . S
C1130 C1153 1.391 . S
C1131 C1130 1.446 . S
C1131 C1132 1.339 . S
C1131 H1160 0.949 . S
C1132 C1131 1.339 . S
C1132 C1133 1.439 . S
C1132 H1161 0.950 . S
C1133 N1129 1.383 . S
C1133 C1132 1.439 . S
C1133 C1151 1.392 . S
N1134 Co1118 2.282 . S
N1134 C1137 1.332 . S
N1134 C1139 1.332 . S
C1135 C1136 1.386 . S
C1135 C1138 1.388 . S
C1136 C1135 1.386 . S
C1136 C1137 1.382 . S
C1136 H1162 0.950 . S
C1137 N1134 1.332 . S
C1137 C1136 1.382 . S
C1137 H1148 0.952 . S
C1138 C1135 1.388 . S
C1138 C1139 1.382 . S
C1138 H1163 0.950 . S
C1139 N1134 1.332 . S
C1139 C1138 1.382 . S
C1139 H1149 0.948 . S
N1140 Co1118 2.282 . S
N1140 C1144 1.332 . S
N1140 C1145 1.332 . S
C1141 C1142 1.388 . S
C1141 C1145 1.382 . S
C1141 H1164 0.950 . S
C1142 C1141 1.388 . S
C1142 C1143 1.386 . S
C1143 C1142 1.386 . S
C1143 C1144 1.382 . S
C1143 H1165 0.950 . S
C1144 N1140 1.332 . S
C1144 C1143 1.382 . S
C1144 H1146 0.952 . S
C1145 N1140 1.332 . S
C1145 C1141 1.382 . S
C1145 H1147 0.948 . S
H1146 C1144 0.952 . S
H1147 C1145 0.948 . S
H1148 C1137 0.952 . S
H1149 C1139 0.948 . S
C1150 C1116 1.395 . S
C1150 C1120 1.391 . S
C1151 C1113 1.389 . S
C1151 C1133 1.392 . S
C1152 C1123 1.392 . S
C1152 C1125 1.389 . S
C1153 C1128 1.395 . S
C1153 C1130 1.391 . S
H1154 C1114 0.951 . S
H1155 C1115 0.950 . S
H1156 C1121 0.949 . S
H1157 C1122 0.950 . S
H1158 C1126 0.951 . S
H1159 C1127 0.950 . S
H1160 C1131 0.949 . S
H1161 C1132 0.950 . S
H1162 C1136 0.950 . S
H1163 C1138 0.950 . S
H1164 C1141 0.950 . S
H1165 C1143 0.950 . S
C1166 C1167 1.443 . S
C1166 N1170 1.376 . S
C1166 C1204 1.389 . S
C1167 C1166 1.443 . S
C1167 C1168 1.340 . S
C1167 H1207 0.951 . S
C1168 C1167 1.340 . S
C1168 C1169 1.439 . S
C1168 H1208 0.950 . S
C1169 C1168 1.439 . S
C1169 N1170 1.374 . S
C1169 C1203 1.395 . S
N1170 C1166 1.376 . S
N1170 C1169 1.374 . S
N1170 Co1171 2.008 . S
Co1171 N1170 2.008 . S
Co1171 N1172 1.995 . S
Co1171 N1177 2.008 . S
Co1171 N1182 1.995 . S
Co1171 N1187 2.282 . S
Co1171 N1193 2.282 . S
N1172 Co1171 1.995 . S
N1172 C1173 1.376 . S
N1172 C1176 1.383 . S
C1173 N1172 1.376 . S
C1173 C1174 1.446 . S
C1173 C1203 1.391 . S
C1174 C1173 1.446 . S
C1174 C1175 1.339 . S
C1174 H1209 0.949 . S
C1175 C1174 1.339 . S
C1175 C1176 1.439 . S
C1175 H1210 0.950 . S
C1176 N1172 1.383 . S
C1176 C1175 1.439 . S
C1176 C1205 1.392 . S
N1177 Co1171 2.008 . S
N1177 C1178 1.376 . S
N1177 C1181 1.374 . S
C1178 N1177 1.376 . S
C1178 C1179 1.443 . S
C1178 C1205 1.389 . S
C1179 C1178 1.443 . S
C1179 C1180 1.340 . S
C1179 H1211 0.951 . S
C1180 C1179 1.340 . S
C1180 C1181 1.439 . S
C1180 H1212 0.950 . S
C1181 N1177 1.374 . S
C1181 C1180 1.439 . S
C1181 C1206 1.395 . S
N1182 Co1171 1.995 . S
N1182 C1183 1.376 . S
N1182 C1186 1.383 . S
C1183 N1182 1.376 . S
C1183 C1184 1.446 . S
C1183 C1206 1.391 . S
C1184 C1183 1.446 . S
C1184 C1185 1.339 . S
C1184 H1213 0.949 . S
C1185 C1184 1.339 . S
C1185 C1186 1.439 . S
C1185 H1214 0.950 . S
C1186 N1182 1.383 . S
C1186 C1185 1.439 . S
C1186 C1204 1.392 . S
N1187 Co1171 2.282 . S
N1187 C1190 1.332 . S
N1187 C1192 1.332 . S
C1188 C1189 1.386 . S
C1188 C1191 1.388 . S
C1189 C1188 1.386 . S
C1189 C1190 1.382 . S
C1189 H1215 0.950 . S
C1190 N1187 1.332 . S
C1190 C1189 1.382 . S
C1190 H1201 0.952 . S
C1191 C1188 1.388 . S
C1191 C1192 1.382 . S
C1191 H1216 0.950 . S
C1192 N1187 1.332 . S
C1192 C1191 1.382 . S
C1192 H1202 0.948 . S
N1193 Co1171 2.282 . S
N1193 C1197 1.332 . S
N1193 C1198 1.332 . S
C1194 C1195 1.388 . S
C1194 C1198 1.382 . S
C1194 H1217 0.950 . S
C1195 C1194 1.388 . S
C1195 C1196 1.386 . S
C1196 C1195 1.386 . S
C1196 C1197 1.382 . S
C1196 H1218 0.950 . S
C1197 N1193 1.332 . S
C1197 C1196 1.382 . S
C1197 H1199 0.952 . S
C1198 N1193 1.332 . S
C1198 C1194 1.382 . S
C1198 H1200 0.948 . S
H1199 C1197 0.952 . S
H1200 C1198 0.948 . S
H1201 C1190 0.952 . S
H1202 C1192 0.948 . S
C1203 C1169 1.395 . S
C1203 C1173 1.391 . S
C1204 C1166 1.389 . S
C1204 C1186 1.392 . S
C1205 C1176 1.392 . S
C1205 C1178 1.389 . S
C1206 C1181 1.395 . S
C1206 C1183 1.391 . S
H1207 C1167 0.951 . S
H1208 C1168 0.950 . S
H1209 C1174 0.949 . S
H1210 C1175 0.950 . S
H1211 C1179 0.951 . S
H1212 C1180 0.950 . S
H1213 C1184 0.949 . S
H1214 C1185 0.950 . S
H1215 C1189 0.950 . S
H1216 C1191 0.950 . S
H1217 C1194 0.950 . S
H1218 C1196 0.950 . S
C1219 C1220 1.443 . S
C1219 N1223 1.376 . S
C1219 C1257 1.389 . S
C1220 C1219 1.443 . S
C1220 C1221 1.340 . S
C1220 H1260 0.951 . S
C1221 C1220 1.340 . S
C1221 C1222 1.439 . S
C1221 H1261 0.950 . S
C1222 C1221 1.439 . S
C1222 N1223 1.374 . S
C1222 C1256 1.395 . S
N1223 C1219 1.376 . S
N1223 C1222 1.374 . S
N1223 Co1224 2.008 . S
Co1224 N1223 2.008 . S
Co1224 N1225 1.995 . S
Co1224 N1230 2.008 . S
Co1224 N1235 1.995 . S
Co1224 N1240 2.282 . S
Co1224 N1246 2.282 . S
N1225 Co1224 1.995 . S
N1225 C1226 1.376 . S
N1225 C1229 1.383 . S
C1226 N1225 1.376 . S
C1226 C1227 1.446 . S
C1226 C1256 1.391 . S
C1227 C1226 1.446 . S
C1227 C1228 1.339 . S
C1227 H1262 0.949 . S
C1228 C1227 1.339 . S
C1228 C1229 1.439 . S
C1228 H1263 0.950 . S
C1229 N1225 1.383 . S
C1229 C1228 1.439 . S
C1229 C1258 1.392 . S
N1230 Co1224 2.008 . S
N1230 C1231 1.376 . S
N1230 C1234 1.374 . S
C1231 N1230 1.376 . S
C1231 C1232 1.443 . S
C1231 C1258 1.389 . S
C1232 C1231 1.443 . S
C1232 C1233 1.340 . S
C1232 H1264 0.951 . S
C1233 C1232 1.340 . S
C1233 C1234 1.439 . S
C1233 H1265 0.950 . S
C1234 N1230 1.374 . S
C1234 C1233 1.439 . S
C1234 C1259 1.395 . S
N1235 Co1224 1.995 . S
N1235 C1236 1.376 . S
N1235 C1239 1.383 . S
C1236 N1235 1.376 . S
C1236 C1237 1.446 . S
C1236 C1259 1.391 . S
C1237 C1236 1.446 . S
C1237 C1238 1.339 . S
C1237 H1266 0.949 . S
C1238 C1237 1.339 . S
C1238 C1239 1.439 . S
C1238 H1267 0.950 . S
C1239 N1235 1.383 . S
C1239 C1238 1.439 . S
C1239 C1257 1.392 . S
N1240 Co1224 2.282 . S
N1240 C1243 1.332 . S
N1240 C1245 1.332 . S
C1241 C1242 1.386 . S
C1241 C1244 1.388 . S
C1242 C1241 1.386 . S
C1242 C1243 1.382 . S
C1242 H1268 0.950 . S
C1243 N1240 1.332 . S
C1243 C1242 1.382 . S
C1243 H1254 0.952 . S
C1244 C1241 1.388 . S
C1244 C1245 1.382 . S
C1244 H1269 0.950 1_554 S
C1245 N1240 1.332 . S
C1245 C1244 1.382 . S
C1245 H1255 0.948 . S
N1246 Co1224 2.282 . S
N1246 C1250 1.332 . S
N1246 C1251 1.332 . S
C1247 C1248 1.388 . S
C1247 C1251 1.382 . S
C1247 H1270 0.950 . S
C1248 C1247 1.388 . S
C1248 C1249 1.386 . S
C1249 C1248 1.386 . S
C1249 C1250 1.382 . S
C1249 H1271 0.950 . S
C1250 N1246 1.332 . S
C1250 C1249 1.382 . S
C1250 H1252 0.952 . S
C1251 N1246 1.332 . S
C1251 C1247 1.382 . S
C1251 H1253 0.948 . S
H1252 C1250 0.952 . S
H1253 C1251 0.948 . S
H1254 C1243 0.952 . S
H1255 C1245 0.948 . S
C1256 C1222 1.395 . S
C1256 C1226 1.391 . S
C1257 C1219 1.389 . S
C1257 C1239 1.392 . S
C1258 C1229 1.392 . S
C1258 C1231 1.389 . S
C1259 C1234 1.395 . S
C1259 C1236 1.391 . S
H1260 C1220 0.951 . S
H1261 C1221 0.950 . S
H1262 C1227 0.949 . S
H1263 C1228 0.950 . S
H1264 C1232 0.951 . S
H1265 C1233 0.950 . S
H1266 C1237 0.949 . S
H1267 C1238 0.950 . S
H1268 C1242 0.950 . S
H1269 C1244 0.950 1_556 S
H1270 C1247 0.950 . S
H1271 C1249 0.950 . S
C1272 C1273 1.363 . S
C1272 C1278 1.379 . S
C1272 N1280 1.356 . S
C1273 C1272 1.363 . S
C1273 C1279 1.363 . S
C1274 C1275 1.363 . S
C1274 C1279 1.379 . S
C1274 N1281 1.356 . S
C1275 C1274 1.363 . S
C1275 C1278 1.363 . S
N1276 C1278 1.356 . S
N1276 H1288 0.984 . S
N1276 H1289 0.985 . S
N1277 C1279 1.356 . S
N1277 H1282 0.984 . S
N1277 H1283 0.985 . S
C1278 C1272 1.379 . S
C1278 C1275 1.363 . S
C1278 N1276 1.356 . S
C1279 C1273 1.363 . S
C1279 C1274 1.379 . S
C1279 N1277 1.356 . S
N1280 C1272 1.356 . S
N1280 H1286 0.984 . S
N1280 H1287 0.984 . S
N1281 C1274 1.356 . S
N1281 H1284 0.984 . S
N1281 H1285 0.985 . S
H1282 N1277 0.984 . S
H1283 N1277 0.985 . S
H1284 N1281 0.984 . S
H1285 N1281 0.985 . S
H1286 N1280 0.984 . S
H1287 N1280 0.984 . S
H1288 N1276 0.984 . S
H1289 N1276 0.985 . S
C1290 C1291 1.363 . S
C1290 C1296 1.379 . S
C1290 N1298 1.356 . S
C1291 C1290 1.363 . S
C1291 C1297 1.363 . S
C1292 C1293 1.363 . S
C1292 C1297 1.379 . S
C1292 N1299 1.356 . S
C1293 C1292 1.363 . S
C1293 C1296 1.363 . S
N1294 C1296 1.356 . S
N1294 H1306 0.984 . S
N1294 H1307 0.985 . S
N1295 C1297 1.356 . S
N1295 H1300 0.984 . S
N1295 H1301 0.985 . S
C1296 C1290 1.379 . S
C1296 C1293 1.363 . S
C1296 N1294 1.356 . S
C1297 C1291 1.363 . S
C1297 C1292 1.379 . S
C1297 N1295 1.356 . S
N1298 C1290 1.356 . S
N1298 H1304 0.984 . S
N1298 H1305 0.984 . S
N1299 C1292 1.356 . S
N1299 H1302 0.984 . S
N1299 H1303 0.985 . S
H1300 N1295 0.984 . S
H1301 N1295 0.985 . S
H1302 N1299 0.984 . S
H1303 N1299 0.985 . S
H1304 N1298 0.984 . S
H1305 N1298 0.984 . S
H1306 N1294 0.984 . S
H1307 N1294 0.985 . S
C1308 C1309 1.363 . S
C1308 C1314 1.379 . S
C1308 N1316 1.356 . S
C1309 C1308 1.363 . S
C1309 C1315 1.363 . S
C1310 C1311 1.363 . S
C1310 C1315 1.379 . S
C1310 N1317 1.356 . S
C1311 C1310 1.363 . S
C1311 C1314 1.363 . S
N1312 C1314 1.356 . S
N1312 H1324 0.984 . S
N1312 H1325 0.985 . S
N1313 C1315 1.356 . S
N1313 H1318 0.984 . S
N1313 H1319 0.985 . S
C1314 C1308 1.379 . S
C1314 C1311 1.363 . S
C1314 N1312 1.356 . S
C1315 C1309 1.363 . S
C1315 C1310 1.379 . S
C1315 N1313 1.356 . S
N1316 C1308 1.356 . S
N1316 H1322 0.984 . S
N1316 H1323 0.984 . S
N1317 C1310 1.356 . S
N1317 H1320 0.984 . S
N1317 H1321 0.985 . S
H1318 N1313 0.984 . S
H1319 N1313 0.985 . S
H1320 N1317 0.984 . S
H1321 N1317 0.985 . S
H1322 N1316 0.984 . S
H1323 N1316 0.984 . S
H1324 N1312 0.984 . S
H1325 N1312 0.985 . S
C1326 C1327 1.363 . S
C1326 C1332 1.379 . S
C1326 N1334 1.356 . S
C1327 C1326 1.363 . S
C1327 C1333 1.363 . S
C1328 C1329 1.363 . S
C1328 C1333 1.379 . S
C1328 N1335 1.356 . S
C1329 C1328 1.363 . S
C1329 C1332 1.363 . S
N1330 C1332 1.356 . S
N1330 H1342 0.984 . S
N1330 H1343 0.985 . S
N1331 C1333 1.356 . S
N1331 H1336 0.984 . S
N1331 H1337 0.985 . S
C1332 C1326 1.379 . S
C1332 C1329 1.363 . S
C1332 N1330 1.356 . S
C1333 C1327 1.363 . S
C1333 C1328 1.379 . S
C1333 N1331 1.356 . S
N1334 C1326 1.356 . S
N1334 H1340 0.984 . S
N1334 H1341 0.984 . S
N1335 C1328 1.356 . S
N1335 H1338 0.984 . S
N1335 H1339 0.985 . S
H1336 N1331 0.984 . S
H1337 N1331 0.985 . S
H1338 N1335 0.984 . S
H1339 N1335 0.985 . S
H1340 N1334 0.984 . S
H1341 N1334 0.984 . S
H1342 N1330 0.984 . S
H1343 N1330 0.985 . S
C1344 C1345 1.363 . S
C1344 C1350 1.379 . S
C1344 N1352 1.356 . S
C1345 C1344 1.363 . S
C1345 C1351 1.363 . S
C1346 C1347 1.363 . S
C1346 C1351 1.379 . S
C1346 N1353 1.356 . S
C1347 C1346 1.363 . S
C1347 C1350 1.363 . S
N1348 C1350 1.356 . S
N1348 H1360 0.984 . S
N1348 H1361 0.985 . S
N1349 C1351 1.356 . S
N1349 H1354 0.984 . S
N1349 H1355 0.985 . S
C1350 C1344 1.379 . S
C1350 C1347 1.363 . S
C1350 N1348 1.356 . S
C1351 C1345 1.363 . S
C1351 C1346 1.379 . S
C1351 N1349 1.356 . S
N1352 C1344 1.356 . S
N1352 H1358 0.984 . S
N1352 H1359 0.984 . S
N1353 C1346 1.356 . S
N1353 H1356 0.984 . S
N1353 H1357 0.985 . S
H1354 N1349 0.984 . S
H1355 N1349 0.985 . S
H1356 N1353 0.984 . S
H1357 N1353 0.985 . S
H1358 N1352 0.984 . S
H1359 N1352 0.984 . S
H1360 N1348 0.984 . S
H1361 N1348 0.985 . S
C1362 C1363 1.363 . S
C1362 C1368 1.379 . S
C1362 N1370 1.356 . S
C1363 C1362 1.363 . S
C1363 C1369 1.363 . S
C1364 C1365 1.363 . S
C1364 C1369 1.379 . S
C1364 N1371 1.356 . S
C1365 C1364 1.363 . S
C1365 C1368 1.363 . S
N1366 C1368 1.356 . S
N1366 H1378 0.984 . S
N1366 H1379 0.985 . S
N1367 C1369 1.356 . S
N1367 H1372 0.984 . S
N1367 H1373 0.985 . S
C1368 C1362 1.379 . S
C1368 C1365 1.363 . S
C1368 N1366 1.356 . S
C1369 C1363 1.363 . S
C1369 C1364 1.379 . S
C1369 N1367 1.356 . S
N1370 C1362 1.356 . S
N1370 H1376 0.984 . S
N1370 H1377 0.984 . S
N1371 C1364 1.356 . S
N1371 H1374 0.984 . S
N1371 H1375 0.985 . S
H1372 N1367 0.984 . S
H1373 N1367 0.985 . S
H1374 N1371 0.984 . S
H1375 N1371 0.985 . S
H1376 N1370 0.984 . S
H1377 N1370 0.984 . S
H1378 N1366 0.984 . S
H1379 N1366 0.985 . S
C1380 C1381 1.363 . S
C1380 C1386 1.379 . S
C1380 N1388 1.356 . S
C1381 C1380 1.363 . S
C1381 C1387 1.363 . S
C1382 C1383 1.363 . S
C1382 C1387 1.379 . S
C1382 N1389 1.356 . S
C1383 C1382 1.363 . S
C1383 C1386 1.363 . S
N1384 C1386 1.356 . S
N1384 H1396 0.984 . S
N1384 H1397 0.985 . S
N1385 C1387 1.356 . S
N1385 H1390 0.984 . S
N1385 H1391 0.985 . S
C1386 C1380 1.379 . S
C1386 C1383 1.363 . S
C1386 N1384 1.356 . S
C1387 C1381 1.363 . S
C1387 C1382 1.379 . S
C1387 N1385 1.356 . S
N1388 C1380 1.356 . S
N1388 H1394 0.984 . S
N1388 H1395 0.984 . S
N1389 C1382 1.356 . S
N1389 H1392 0.984 . S
N1389 H1393 0.985 . S
H1390 N1385 0.984 . S
H1391 N1385 0.985 . S
H1392 N1389 0.984 . S
H1393 N1389 0.985 . S
H1394 N1388 0.984 . S
H1395 N1388 0.984 . S
H1396 N1384 0.984 . S
H1397 N1384 0.985 . S
C1398 C1399 1.363 . S
C1398 C1404 1.379 . S
C1398 N1406 1.356 . S
C1399 C1398 1.363 . S
C1399 C1405 1.363 . S
C1400 C1401 1.363 . S
C1400 C1405 1.379 . S
C1400 N1407 1.356 . S
C1401 C1400 1.363 . S
C1401 C1404 1.363 . S
N1402 C1404 1.356 . S
N1402 H1414 0.984 . S
N1402 H1415 0.985 . S
N1403 C1405 1.356 . S
N1403 H1408 0.984 . S
N1403 H1409 0.985 . S
C1404 C1398 1.379 . S
C1404 C1401 1.363 . S
C1404 N1402 1.356 . S
C1405 C1399 1.363 . S
C1405 C1400 1.379 . S
C1405 N1403 1.356 . S
N1406 C1398 1.356 . S
N1406 H1412 0.984 . S
N1406 H1413 0.984 . S
N1407 C1400 1.356 . S
N1407 H1410 0.984 . S
N1407 H1411 0.985 . S
H1408 N1403 0.984 . S
H1409 N1403 0.985 . S
H1410 N1407 0.984 . S
H1411 N1407 0.985 . S
H1412 N1406 0.984 . S
H1413 N1406 0.984 . S
H1414 N1402 0.984 . S
H1415 N1402 0.985 . S
C1416 C1417 1.363 . S
C1416 C1422 1.379 . S
C1416 N1424 1.356 . S
C1417 C1416 1.363 . S
C1417 C1423 1.363 . S
C1418 C1419 1.363 . S
C1418 C1423 1.379 . S
C1418 N1425 1.356 . S
C1419 C1418 1.363 . S
C1419 C1422 1.363 . S
N1420 C1422 1.356 . S
N1420 H1432 0.984 . S
N1420 H1433 0.985 . S
N1421 C1423 1.356 . S
N1421 H1426 0.984 . S
N1421 H1427 0.985 . S
C1422 C1416 1.379 . S
C1422 C1419 1.363 . S
C1422 N1420 1.356 . S
C1423 C1417 1.363 . S
C1423 C1418 1.379 . S
C1423 N1421 1.356 . S
N1424 C1416 1.356 . S
N1424 H1430 0.984 . S
N1424 H1431 0.984 . S
N1425 C1418 1.356 . S
N1425 H1428 0.984 . S
N1425 H1429 0.985 . S
H1426 N1421 0.984 . S
H1427 N1421 0.985 . S
H1428 N1425 0.984 . S
H1429 N1425 0.985 . S
H1430 N1424 0.984 . S
H1431 N1424 0.984 . S
H1432 N1420 0.984 . S
H1433 N1420 0.985 . S
C1434 C1435 1.363 . S
C1434 C1440 1.379 . S
C1434 N1442 1.356 . S
C1435 C1434 1.363 . S
C1435 C1441 1.363 . S
C1436 C1437 1.363 . S
C1436 C1441 1.379 . S
C1436 N1443 1.356 . S
C1437 C1436 1.363 . S
C1437 C1440 1.363 . S
N1438 C1440 1.356 . S
N1438 H1450 0.984 . S
N1438 H1451 0.985 . S
N1439 C1441 1.356 . S
N1439 H1444 0.984 . S
N1439 H1445 0.985 . S
C1440 C1434 1.379 . S
C1440 C1437 1.363 . S
C1440 N1438 1.356 . S
C1441 C1435 1.363 . S
C1441 C1436 1.379 . S
C1441 N1439 1.356 . S
N1442 C1434 1.356 . S
N1442 H1448 0.984 . S
N1442 H1449 0.984 . S
N1443 C1436 1.356 . S
N1443 H1446 0.984 . S
N1443 H1447 0.985 . S
H1444 N1439 0.984 . S
H1445 N1439 0.985 . S
H1446 N1443 0.984 . S
H1447 N1443 0.985 . S
H1448 N1442 0.984 . S
H1449 N1442 0.984 . S
H1450 N1438 0.984 . S
H1451 N1438 0.985 . S
C1452 C1453 1.363 . S
C1452 C1458 1.379 . S
C1452 N1460 1.356 . S
C1453 C1452 1.363 . S
C1453 C1459 1.363 . S
C1454 C1455 1.363 . S
C1454 C1459 1.379 . S
C1454 N1461 1.356 . S
C1455 C1454 1.363 . S
C1455 C1458 1.363 . S
N1456 C1458 1.356 . S
N1456 H1468 0.984 . S
N1456 H1469 0.985 . S
N1457 C1459 1.356 . S
N1457 H1462 0.984 . S
N1457 H1463 0.985 . S
C1458 C1452 1.379 . S
C1458 C1455 1.363 . S
C1458 N1456 1.356 . S
C1459 C1453 1.363 . S
C1459 C1454 1.379 . S
C1459 N1457 1.356 . S
N1460 C1452 1.356 . S
N1460 H1466 0.984 . S
N1460 H1467 0.984 . S
N1461 C1454 1.356 . S
N1461 H1464 0.984 . S
N1461 H1465 0.985 . S
H1462 N1457 0.984 . S
H1463 N1457 0.985 . S
H1464 N1461 0.984 . S
H1465 N1461 0.985 . S
H1466 N1460 0.984 . S
H1467 N1460 0.984 . S
H1468 N1456 0.984 . S
H1469 N1456 0.985 . S
C1470 C1471 1.363 . S
C1470 C1476 1.379 . S
C1470 N1478 1.356 . S
C1471 C1470 1.363 . S
C1471 C1477 1.363 . S
C1472 C1473 1.363 . S
C1472 C1477 1.379 . S
C1472 N1479 1.356 . S
C1473 C1472 1.363 . S
C1473 C1476 1.363 . S
N1474 C1476 1.356 . S
N1474 H1486 0.984 . S
N1474 H1487 0.985 . S
N1475 C1477 1.356 . S
N1475 H1480 0.984 . S
N1475 H1481 0.985 . S
C1476 C1470 1.379 . S
C1476 C1473 1.363 . S
C1476 N1474 1.356 . S
C1477 C1471 1.363 . S
C1477 C1472 1.379 . S
C1477 N1475 1.356 . S
N1478 C1470 1.356 . S
N1478 H1484 0.984 . S
N1478 H1485 0.984 . S
N1479 C1472 1.356 . S
N1479 H1482 0.984 . S
N1479 H1483 0.985 . S
H1480 N1475 0.984 . S
H1481 N1475 0.985 . S
H1482 N1479 0.984 . S
H1483 N1479 0.985 . S
H1484 N1478 0.984 . S
H1485 N1478 0.984 . S
H1486 N1474 0.984 . S
H1487 N1474 0.985 . S
C1488 C1489 1.363 . S
C1488 C1494 1.379 . S
C1488 N1496 1.356 . S
C1489 C1488 1.363 . S
C1489 C1495 1.363 . S
C1490 C1491 1.363 . S
C1490 C1495 1.379 . S
C1490 N1497 1.356 . S
C1491 C1490 1.363 . S
C1491 C1494 1.363 . S
N1492 C1494 1.356 . S
N1492 H1504 0.984 . S
N1492 H1505 0.985 . S
N1493 C1495 1.356 1_565 S
N1493 H1498 0.984 . S
N1493 H1499 0.985 . S
C1494 C1488 1.379 . S
C1494 C1491 1.363 . S
C1494 N1492 1.356 . S
C1495 C1489 1.363 . S
C1495 C1490 1.379 . S
C1495 N1493 1.356 1_545 S
N1496 C1488 1.356 . S
N1496 H1502 0.984 . S
N1496 H1503 0.984 . S
N1497 C1490 1.356 . S
N1497 H1500 0.984 . S
N1497 H1501 0.985 1_545 S
H1498 N1493 0.984 . S
H1499 N1493 0.985 . S
H1500 N1497 0.984 . S
H1501 N1497 0.985 1_565 S
H1502 N1496 0.984 . S
H1503 N1496 0.984 . S
H1504 N1492 0.984 . S
H1505 N1492 0.985 . S
C1506 C1507 1.363 1_455 S
C1506 C1512 1.379 . S
C1506 N1514 1.356 . S
C1507 C1506 1.363 1_655 S
C1507 C1513 1.363 . S
C1508 C1509 1.363 . S
C1508 C1513 1.379 1_455 S
C1508 N1515 1.356 . S
C1509 C1508 1.363 . S
C1509 C1512 1.363 . S
N1510 C1512 1.356 . S
N1510 H1522 0.984 . S
N1510 H1523 0.985 . S
N1511 C1513 1.356 . S
N1511 H1516 0.984 . S
N1511 H1517 0.985 . S
C1512 C1506 1.379 . S
C1512 C1509 1.363 . S
C1512 N1510 1.356 . S
C1513 C1507 1.363 . S
C1513 C1508 1.379 1_655 S
C1513 N1511 1.356 . S
N1514 C1506 1.356 . S
N1514 H1520 0.984 . S
N1514 H1521 0.967 1_455 S
N1515 C1508 1.356 . S
N1515 H1518 0.984 . S
N1515 H1519 0.985 1_455 S
H1516 N1511 0.984 . S
H1517 N1511 0.985 . S
H1518 N1515 0.984 . S
H1519 N1515 0.985 1_655 S
H1520 N1514 0.984 . S
H1521 N1514 0.967 1_655 S
H1522 N1510 0.984 . S
H1523 N1510 0.985 . S
C1524 C1525 1.363 . S
C1524 C1530 1.379 . S
C1524 N1532 1.356 . S
C1525 C1524 1.363 . S
C1525 C1531 1.363 1_545 S
C1526 C1527 1.363 . S
C1526 C1531 1.379 . S
C1526 N1533 1.356 . S
C1527 C1526 1.363 . S
C1527 C1530 1.363 1_565 S
N1528 C1530 1.356 . S
N1528 H1540 0.984 . S
N1528 H1541 0.985 1_545 S
N1529 C1531 1.356 . S
N1529 H1534 0.984 . S
N1529 H1535 0.985 . S
C1530 C1524 1.379 . S
C1530 C1527 1.363 1_545 S
C1530 N1528 1.356 . S
C1531 C1525 1.363 1_565 S
C1531 C1526 1.379 . S
C1531 N1529 1.356 . S
N1532 C1524 1.356 . S
N1532 H1538 0.984 . S
N1532 H1539 0.984 . S
N1533 C1526 1.356 . S
N1533 H1536 0.984 . S
N1533 H1537 0.985 . S
H1534 N1529 0.984 . S
H1535 N1529 0.985 . S
H1536 N1533 0.984 . S
H1537 N1533 0.985 . S
H1538 N1532 0.984 . S
H1539 N1532 0.984 . S
H1540 N1528 0.984 . S
H1541 N1528 0.985 1_565 S
C1542 C1543 1.363 . S
C1542 C1548 1.379 . S
C1542 N1550 1.356 . S
C1543 C1542 1.363 . S
C1543 C1549 1.363 . S
C1544 C1545 1.363 . S
C1544 C1549 1.379 . S
C1544 N1551 1.356 . S
C1545 C1544 1.363 . S
C1545 C1548 1.363 . S
N1546 C1548 1.356 . S
N1546 H1558 0.984 . S
N1546 H1559 0.985 . S
N1547 C1549 1.356 1_455 S
N1547 H1552 0.984 . S
N1547 H1553 0.985 . S
C1548 C1542 1.379 . S
C1548 C1545 1.363 . S
C1548 N1546 1.356 . S
C1549 C1543 1.363 . S
C1549 C1544 1.379 . S
C1549 N1547 1.356 1_655 S
N1550 C1542 1.356 . S
N1550 H1556 0.984 . S
N1550 H1557 0.984 . S
N1551 C1544 1.356 . S
N1551 H1554 0.984 . S
N1551 H1555 0.985 . S
H1552 N1547 0.984 . S
H1553 N1547 0.985 . S
H1554 N1551 0.984 . S
H1555 N1551 0.985 . S
H1556 N1550 0.984 . S
H1557 N1550 0.984 . S
H1558 N1546 0.984 . S
H1559 N1546 0.985 . S
C1560 C1561 1.357 1_545 S
C1560 C1566 1.382 . S
C1560 N1568 1.357 . S
C1561 C1560 1.357 1_565 S
C1561 C1567 1.363 . S
C1562 C1563 1.363 1_565 S
C1562 C1567 1.379 . S
C1562 N1569 1.356 . S
C1563 C1562 1.363 1_545 S
C1563 C1566 1.363 . S
N1564 C1566 1.356 . S
N1564 H1576 0.984 . S
N1564 H1577 0.985 . S
N1565 C1567 1.356 . S
N1565 H1570 0.984 . S
N1565 H1571 0.985 . S
C1566 C1560 1.382 . S
C1566 C1563 1.363 . S
C1566 N1564 1.356 . S
C1567 C1561 1.363 . S
C1567 C1562 1.379 . S
C1567 N1565 1.356 . S
N1568 C1560 1.357 . S
N1568 H1574 0.984 . S
N1568 H1575 0.984 1_545 S
N1569 C1562 1.356 . S
N1569 H1572 0.984 . S
N1569 H1573 0.985 . S
H1570 N1565 0.984 . S
H1571 N1565 0.985 . S
H1572 N1569 0.984 . S
H1573 N1569 0.985 . S
H1574 N1568 0.984 . S
H1575 N1568 0.984 1_565 S
H1576 N1564 0.984 . S
H1577 N1564 0.985 . S
C1578 C1579 1.363 . S
C1578 C1584 1.379 1_655 S
C1578 N1586 1.356 . S
C1579 C1578 1.363 . S
C1579 C1585 1.363 . S
C1580 C1581 1.363 1_655 S
C1580 C1585 1.379 . S
C1580 N1587 1.356 . S
C1581 C1580 1.363 1_455 S
C1581 C1584 1.363 . S
N1582 C1584 1.356 . S
N1582 H1594 0.984 . S
N1582 H1595 0.985 . S
N1583 C1585 1.356 . S
N1583 H1588 0.984 . S
N1583 H1589 0.985 . S
C1584 C1578 1.379 1_455 S
C1584 C1581 1.363 . S
C1584 N1582 1.356 . S
C1585 C1579 1.363 . S
C1585 C1580 1.379 . S
C1585 N1583 1.356 . S
N1586 C1578 1.356 . S
N1586 H1592 0.984 1_655 S
N1586 H1593 0.984 . S
N1587 C1580 1.356 . S
N1587 H1590 0.984 . S
N1587 H1591 0.985 . S
H1588 N1583 0.984 . S
H1589 N1583 0.985 . S
H1590 N1587 0.984 . S
H1591 N1587 0.985 . S
H1592 N1586 0.984 1_455 S
H1593 N1586 0.984 . S
H1594 N1582 0.984 . S
H1595 N1582 0.985 . S
C1596 C1597 1.363 . S
C1596 C1602 1.379 . S
C1596 N1604 1.356 . S
C1597 C1596 1.363 . S
C1597 C1603 1.363 . S
C1598 C1599 1.363 . S
C1598 C1603 1.379 . S
C1598 N1605 1.356 . S
C1599 C1598 1.363 . S
C1599 C1602 1.363 . S
N1600 C1602 1.356 . S
N1600 H1612 0.984 . S
N1600 H1613 0.985 . S
N1601 C1603 1.356 1_565 S
N1601 H1606 0.984 . S
N1601 H1607 0.985 . S
C1602 C1596 1.379 . S
C1602 C1599 1.363 . S
C1602 N1600 1.356 . S
C1603 C1597 1.363 . S
C1603 C1598 1.379 . S
C1603 N1601 1.356 1_545 S
N1604 C1596 1.356 . S
N1604 H1610 0.984 . S
N1604 H1611 0.984 . S
N1605 C1598 1.356 . S
N1605 H1608 0.984 . S
N1605 H1609 0.985 1_545 S
H1606 N1601 0.984 . S
H1607 N1601 0.985 . S
H1608 N1605 0.984 . S
H1609 N1605 0.985 1_565 S
H1610 N1604 0.984 . S
H1611 N1604 0.984 . S
H1612 N1600 0.984 . S
H1613 N1600 0.985 . S
C1614 C1615 1.363 . S
C1614 C1620 1.379 . S
C1614 N1622 1.356 . S
C1615 C1614 1.363 . S
C1615 C1621 1.363 . S
C1616 C1617 1.363 . S
C1616 C1621 1.379 . S
C1616 N1623 1.356 1_455 S
C1617 C1616 1.363 . S
C1617 C1620 1.363 . S
N1618 C1620 1.356 . S
N1618 H1630 0.984 . S
N1618 H1631 0.985 . S
N1619 C1621 1.356 . S
N1619 H1624 0.984 . S
N1619 H1625 0.985 . S
C1620 C1614 1.379 . S
C1620 C1617 1.363 . S
C1620 N1618 1.356 . S
C1621 C1615 1.363 . S
C1621 C1616 1.379 . S
C1621 N1619 1.356 . S
N1622 C1614 1.356 . S
N1622 H1628 0.984 . S
N1622 H1629 0.984 . S
N1623 C1616 1.356 1_655 S
N1623 H1626 0.984 . S
N1623 H1627 0.985 . S
H1624 N1619 0.984 . S
H1625 N1619 0.985 . S
H1626 N1623 0.984 . S
H1627 N1623 0.985 . S
H1628 N1622 0.984 . S
H1629 N1622 0.984 . S
H1630 N1618 0.984 . S
H1631 N1618 0.985 . S
C1632 C1633 1.363 . S
C1632 C1638 1.379 . S
C1632 N1640 1.356 . S
C1633 C1632 1.363 . S
C1633 C1639 1.363 . S
C1634 C1635 1.363 . S
C1634 C1639 1.379 . S
C1634 N1641 1.356 . S
C1635 C1634 1.363 . S
C1635 C1638 1.363 . S
N1636 C1638 1.356 . S
N1636 H1648 0.984 . S
N1636 H1649 0.985 . S
N1637 C1639 1.356 1_556 S
N1637 H1642 0.984 . S
N1637 H1643 0.985 . S
C1638 C1632 1.379 . S
C1638 C1635 1.363 . S
C1638 N1636 1.356 . S
C1639 C1633 1.363 . S
C1639 C1634 1.379 . S
C1639 N1637 1.356 1_554 S
N1640 C1632 1.356 . S
N1640 H1646 0.984 . S
N1640 H1647 0.984 . S
N1641 C1634 1.356 . S
N1641 H1644 0.984 . S
N1641 H1645 0.985 . S
H1642 N1637 0.984 . S
H1643 N1637 0.985 . S
H1644 N1641 0.984 . S
H1645 N1641 0.985 . S
H1646 N1640 0.984 . S
H1647 N1640 0.984 . S
H1648 N1636 0.984 . S
H1649 N1636 0.985 . S
C1650 C1651 1.363 . S
C1650 C1656 1.379 . S
C1650 N1658 1.356 1_556 S
C1651 C1650 1.363 . S
C1651 C1657 1.363 . S
C1652 C1653 1.363 . S
C1652 C1657 1.379 . S
C1652 N1659 1.356 . S
C1653 C1652 1.363 . S
C1653 C1656 1.363 . S
N1654 C1656 1.356 . S
N1654 H1666 0.984 . S
N1654 H1667 0.985 . S
N1655 C1657 1.356 . S
N1655 H1660 0.984 . S
N1655 H1661 0.985 . S
C1656 C1650 1.379 . S
C1656 C1653 1.363 . S
C1656 N1654 1.356 . S
C1657 C1651 1.363 . S
C1657 C1652 1.379 . S
C1657 N1655 1.356 . S
N1658 C1650 1.356 1_554 S
N1658 H1664 0.984 . S
N1658 H1665 0.984 . S
N1659 C1652 1.356 . S
N1659 H1662 0.984 . S
N1659 H1663 0.985 . S
H1660 N1655 0.984 . S
H1661 N1655 0.985 . S
H1662 N1659 0.984 . S
H1663 N1659 0.985 . S
H1664 N1658 0.984 . S
H1665 N1658 0.984 . S
H1666 N1654 0.984 . S
H1667 N1654 0.985 . S
C1668 C1669 1.363 . S
C1668 C1674 1.379 . S
C1668 N1676 1.356 1_554 S
C1669 C1668 1.363 . S
C1669 C1675 1.363 . S
C1670 C1671 1.363 . S
C1670 C1675 1.379 . S
C1670 N1677 1.356 . S
C1671 C1670 1.363 . S
C1671 C1674 1.363 . S
N1672 C1674 1.356 . S
N1672 H1684 0.984 . S
N1672 H1685 0.985 . S
N1673 C1675 1.356 . S
N1673 H1678 0.984 . S
N1673 H1679 0.985 . S
C1674 C1668 1.379 . S
C1674 C1671 1.363 . S
C1674 N1672 1.356 . S
C1675 C1669 1.363 . S
C1675 C1670 1.379 . S
C1675 N1673 1.356 . S
N1676 C1668 1.356 1_556 S
N1676 H1682 0.984 . S
N1676 H1683 0.984 . S
N1677 C1670 1.356 . S
N1677 H1680 0.984 . S
N1677 H1681 0.985 . S
H1678 N1673 0.984 . S
H1679 N1673 0.985 . S
H1680 N1677 0.984 . S
H1681 N1677 0.985 . S
H1682 N1676 0.984 . S
H1683 N1676 0.984 . S
H1684 N1672 0.984 . S
H1685 N1672 0.985 . S
C1686 C1687 1.363 . S
C1686 C1692 1.379 . S
C1686 N1694 1.356 1_556 S
C1687 C1686 1.363 . S
C1687 C1693 1.363 . S
C1688 C1689 1.363 . S
C1688 C1693 1.379 . S
C1688 N1695 1.356 . S
C1689 C1688 1.363 . S
C1689 C1692 1.363 . S
N1690 C1692 1.356 . S
N1690 H1702 0.984 . S
N1690 H1703 0.985 . S
N1691 C1693 1.356 . S
N1691 H1696 0.984 . S
N1691 H1697 0.985 . S
C1692 C1686 1.379 . S
C1692 C1689 1.363 . S
C1692 N1690 1.356 . S
C1693 C1687 1.363 . S
C1693 C1688 1.379 . S
C1693 N1691 1.356 . S
N1694 C1686 1.356 1_554 S
N1694 H1700 0.984 . S
N1694 H1701 0.984 . S
N1695 C1688 1.356 . S
N1695 H1698 0.984 . S
N1695 H1699 0.985 . S
H1696 N1691 0.984 . S
H1697 N1691 0.985 . S
H1698 N1695 0.984 . S
H1699 N1695 0.985 . S
H1700 N1694 0.984 . S
H1701 N1694 0.984 . S
H1702 N1690 0.984 . S
H1703 N1690 0.985 . S
C1704 C1705 1.363 . S
C1704 C1710 1.379 . S
C1704 N1712 1.356 . S
C1705 C1704 1.363 . S
C1705 C1711 1.363 . S
C1706 C1707 1.363 . S
C1706 C1711 1.379 . S
C1706 N1713 1.356 . S
C1707 C1706 1.363 . S
C1707 C1710 1.363 . S
N1708 C1710 1.356 . S
N1708 H1720 0.984 . S
N1708 H1721 0.985 . S
N1709 C1711 1.356 . S
N1709 H1714 0.984 . S
N1709 H1715 0.985 . S
C1710 C1704 1.379 . S
C1710 C1707 1.363 . S
C1710 N1708 1.356 . S
C1711 C1705 1.363 . S
C1711 C1706 1.379 . S
C1711 N1709 1.356 . S
N1712 C1704 1.356 . S
N1712 H1718 0.984 . S
N1712 H1719 0.984 . S
N1713 C1706 1.356 . S
N1713 H1716 0.984 . S
N1713 H1717 0.985 . S
H1714 N1709 0.984 . S
H1715 N1709 0.985 . S
H1716 N1713 0.984 . S
H1717 N1713 0.985 . S
H1718 N1712 0.984 . S
H1719 N1712 0.984 . S
H1720 N1708 0.984 . S
H1721 N1708 0.985 . S
C1722 C1723 1.363 . S
C1722 C1728 1.379 . S
C1722 N1730 1.356 . S
C1723 C1722 1.363 . S
C1723 C1729 1.363 . S
C1724 C1725 1.363 . S
C1724 C1729 1.379 . S
C1724 N1731 1.356 . S
C1725 C1724 1.363 . S
C1725 C1728 1.363 . S
N1726 C1728 1.356 . S
N1726 H1738 0.984 . S
N1726 H1739 0.985 . S
N1727 C1729 1.356 . S
N1727 H1732 0.984 . S
N1727 H1733 0.985 . S
C1728 C1722 1.379 . S
C1728 C1725 1.363 . S
C1728 N1726 1.356 . S
C1729 C1723 1.363 . S
C1729 C1724 1.379 . S
C1729 N1727 1.356 . S
N1730 C1722 1.356 . S
N1730 H1736 0.984 . S
N1730 H1737 0.984 . S
N1731 C1724 1.356 . S
N1731 H1734 0.984 . S
N1731 H1735 0.985 . S
H1732 N1727 0.984 . S
H1733 N1727 0.985 . S
H1734 N1731 0.984 . S
H1735 N1731 0.985 . S
H1736 N1730 0.984 . S
H1737 N1730 0.984 . S
H1738 N1726 0.984 . S
H1739 N1726 0.985 . S
C1740 C1741 1.363 . S
C1740 C1746 1.379 . S
C1740 N1748 1.356 . S
C1741 C1740 1.363 . S
C1741 C1747 1.363 . S
C1742 C1743 1.363 . S
C1742 C1747 1.379 . S
C1742 N1749 1.356 . S
C1743 C1742 1.363 . S
C1743 C1746 1.363 . S
N1744 C1746 1.356 . S
N1744 H1756 0.984 . S
N1744 H1757 0.985 . S
N1745 C1747 1.356 . S
N1745 H1750 0.984 . S
N1745 H1751 0.985 . S
C1746 C1740 1.379 . S
C1746 C1743 1.363 . S
C1746 N1744 1.356 . S
C1747 C1741 1.363 . S
C1747 C1742 1.379 . S
C1747 N1745 1.356 . S
N1748 C1740 1.356 . S
N1748 H1754 0.984 . S
N1748 H1755 0.984 . S
N1749 C1742 1.356 . S
N1749 H1752 0.984 . S
N1749 H1753 0.985 . S
H1750 N1745 0.984 . S
H1751 N1745 0.985 . S
H1752 N1749 0.984 . S
H1753 N1749 0.985 . S
H1754 N1748 0.984 . S
H1755 N1748 0.984 . S
H1756 N1744 0.984 . S
H1757 N1744 0.985 . S
C1758 C1759 1.363 . S
C1758 C1764 1.379 . S
C1758 N1766 1.356 . S
C1759 C1758 1.363 . S
C1759 C1765 1.363 . S
C1760 C1761 1.363 . S
C1760 C1765 1.379 . S
C1760 N1767 1.356 . S
C1761 C1760 1.363 . S
C1761 C1764 1.363 . S
N1762 C1764 1.356 . S
N1762 H1774 0.984 . S
N1762 H1775 0.985 . S
N1763 C1765 1.356 . S
N1763 H1768 0.984 . S
N1763 H1769 0.985 . S
C1764 C1758 1.379 . S
C1764 C1761 1.363 . S
C1764 N1762 1.356 . S
C1765 C1759 1.363 . S
C1765 C1760 1.379 . S
C1765 N1763 1.356 . S
N1766 C1758 1.356 . S
N1766 H1772 0.984 . S
N1766 H1773 0.984 . S
N1767 C1760 1.356 . S
N1767 H1770 0.984 . S
N1767 H1771 0.985 . S
H1768 N1763 0.984 . S
H1769 N1763 0.985 . S
H1770 N1767 0.984 . S
H1771 N1767 0.985 . S
H1772 N1766 0.984 . S
H1773 N1766 0.984 . S
H1774 N1762 0.984 . S
H1775 N1762 0.985 . S
C1776 C1777 1.363 . S
C1776 C1782 1.379 . S
C1776 N1784 1.356 . S
C1777 C1776 1.363 . S
C1777 C1783 1.363 . S
C1778 C1779 1.363 . S
C1778 C1783 1.379 . S
C1778 N1785 1.356 . S
C1779 C1778 1.363 . S
C1779 C1782 1.363 . S
N1780 C1782 1.356 . S
N1780 H1792 0.984 . S
N1780 H1793 0.985 . S
N1781 C1783 1.356 . S
N1781 H1786 0.984 . S
N1781 H1787 0.985 . S
C1782 C1776 1.379 . S
C1782 C1779 1.363 . S
C1782 N1780 1.356 . S
C1783 C1777 1.363 . S
C1783 C1778 1.379 . S
C1783 N1781 1.356 . S
N1784 C1776 1.356 . S
N1784 H1790 0.984 . S
N1784 H1791 0.984 . S
N1785 C1778 1.356 . S
N1785 H1788 0.984 . S
N1785 H1789 0.985 . S
H1786 N1781 0.984 . S
H1787 N1781 0.985 . S
H1788 N1785 0.984 . S
H1789 N1785 0.985 . S
H1790 N1784 0.984 . S
H1791 N1784 0.984 . S
H1792 N1780 0.984 . S
H1793 N1780 0.985 . S
C1794 C1795 1.363 . S
C1794 C1800 1.379 . S
C1794 N1802 1.356 . S
C1795 C1794 1.363 . S
C1795 C1801 1.363 . S
C1796 C1797 1.363 . S
C1796 C1801 1.379 . S
C1796 N1803 1.356 . S
C1797 C1796 1.363 . S
C1797 C1800 1.363 . S
N1798 C1800 1.356 . S
N1798 H1810 0.984 . S
N1798 H1811 0.985 . S
N1799 C1801 1.356 . S
N1799 H1804 0.984 . S
N1799 H1805 0.985 . S
C1800 C1794 1.379 . S
C1800 C1797 1.363 . S
C1800 N1798 1.356 . S
C1801 C1795 1.363 . S
C1801 C1796 1.379 . S
C1801 N1799 1.356 . S
N1802 C1794 1.356 . S
N1802 H1808 0.984 . S
N1802 H1809 0.984 . S
N1803 C1796 1.356 . S
N1803 H1806 0.984 . S
N1803 H1807 0.985 . S
H1804 N1799 0.984 . S
H1805 N1799 0.985 . S
H1806 N1803 0.984 . S
H1807 N1803 0.985 . S
H1808 N1802 0.984 . S
H1809 N1802 0.984 . S
H1810 N1798 0.984 . S
H1811 N1798 0.985 . S
C1812 C1813 1.363 . S
C1812 C1818 1.379 . S
C1812 N1820 1.356 . S
C1813 C1812 1.363 . S
C1813 C1819 1.363 . S
C1814 C1815 1.363 . S
C1814 C1819 1.379 . S
C1814 N1821 1.356 . S
C1815 C1814 1.363 . S
C1815 C1818 1.363 . S
N1816 C1818 1.356 . S
N1816 H1828 0.984 . S
N1816 H1829 0.985 . S
N1817 C1819 1.356 . S
N1817 H1822 0.984 . S
N1817 H1823 0.985 . S
C1818 C1812 1.379 . S
C1818 C1815 1.363 . S
C1818 N1816 1.356 . S
C1819 C1813 1.363 . S
C1819 C1814 1.379 . S
C1819 N1817 1.356 . S
N1820 C1812 1.356 . S
N1820 H1826 0.984 . S
N1820 H1827 0.984 . S
N1821 C1814 1.356 . S
N1821 H1824 0.984 . S
N1821 H1825 0.985 . S
H1822 N1817 0.984 . S
H1823 N1817 0.985 . S
H1824 N1821 0.984 . S
H1825 N1821 0.985 . S
H1826 N1820 0.984 . S
H1827 N1820 0.984 . S
H1828 N1816 0.984 . S
H1829 N1816 0.985 . S
C1830 C1831 1.363 . S
C1830 C1836 1.379 . S
C1830 N1838 1.356 . S
C1831 C1830 1.363 . S
C1831 C1837 1.363 . S
C1832 C1833 1.363 . S
C1832 C1837 1.379 . S
C1832 N1839 1.356 . S
C1833 C1832 1.363 . S
C1833 C1836 1.363 . S
N1834 C1836 1.356 . S
N1834 H1846 0.984 . S
N1834 H1847 0.985 . S
N1835 C1837 1.356 . S
N1835 H1840 0.984 . S
N1835 H1841 0.985 . S
C1836 C1830 1.379 . S
C1836 C1833 1.363 . S
C1836 N1834 1.356 . S
C1837 C1831 1.363 . S
C1837 C1832 1.379 . S
C1837 N1835 1.356 . S
N1838 C1830 1.356 . S
N1838 H1844 0.984 . S
N1838 H1845 0.984 . S
N1839 C1832 1.356 . S
N1839 H1842 0.984 . S
N1839 H1843 0.985 . S
H1840 N1835 0.984 . S
H1841 N1835 0.985 . S
H1842 N1839 0.984 . S
H1843 N1839 0.985 . S
H1844 N1838 0.984 . S
H1845 N1838 0.984 . S
H1846 N1834 0.984 . S
H1847 N1834 0.985 . S
C1848 C1849 1.363 . S
C1848 C1854 1.379 . S
C1848 N1856 1.356 . S
C1849 C1848 1.363 . S
C1849 C1855 1.363 . S
C1850 C1851 1.363 . S
C1850 C1855 1.379 . S
C1850 N1857 1.356 . S
C1851 C1850 1.363 . S
C1851 C1854 1.363 . S
N1852 C1854 1.356 . S
N1852 H1864 0.984 . S
N1852 H1865 0.985 . S
N1853 C1855 1.356 . S
N1853 H1858 0.984 . S
N1853 H1859 0.985 . S
C1854 C1848 1.379 . S
C1854 C1851 1.363 . S
C1854 N1852 1.356 . S
C1855 C1849 1.363 . S
C1855 C1850 1.379 . S
C1855 N1853 1.356 . S
N1856 C1848 1.356 . S
N1856 H1862 0.984 . S
N1856 H1863 0.984 . S
N1857 C1850 1.356 . S
N1857 H1860 0.984 . S
N1857 H1861 0.985 . S
H1858 N1853 0.984 . S
H1859 N1853 0.985 . S
H1860 N1857 0.984 . S
H1861 N1857 0.985 . S
H1862 N1856 0.984 . S
H1863 N1856 0.984 . S
H1864 N1852 0.984 . S
H1865 N1852 0.985 . S
C1866 C1867 1.363 . S
C1866 C1872 1.379 . S
C1866 N1874 1.356 . S
C1867 C1866 1.363 . S
C1867 C1873 1.363 . S
C1868 C1869 1.363 . S
C1868 C1873 1.379 . S
C1868 N1875 1.356 . S
C1869 C1868 1.363 . S
C1869 C1872 1.363 . S
N1870 C1872 1.356 . S
N1870 H1882 0.984 . S
N1870 H1883 0.985 . S
N1871 C1873 1.356 . S
N1871 H1876 0.984 . S
N1871 H1877 0.985 . S
C1872 C1866 1.379 . S
C1872 C1869 1.363 . S
C1872 N1870 1.356 . S
C1873 C1867 1.363 . S
C1873 C1868 1.379 . S
C1873 N1871 1.356 . S
N1874 C1866 1.356 . S
N1874 H1880 0.984 . S
N1874 H1881 0.984 . S
N1875 C1868 1.356 . S
N1875 H1878 0.984 . S
N1875 H1879 0.985 . S
H1876 N1871 0.984 . S
H1877 N1871 0.985 . S
H1878 N1875 0.984 . S
H1879 N1875 0.985 . S
H1880 N1874 0.984 . S
H1881 N1874 0.984 . S
H1882 N1870 0.984 . S
H1883 N1870 0.985 . S
C1884 C1885 1.363 . S
C1884 C1890 1.379 . S
C1884 N1892 1.356 . S
C1885 C1884 1.363 . S
C1885 C1891 1.363 . S
C1886 C1887 1.363 . S
C1886 C1891 1.379 . S
C1886 N1893 1.356 . S
C1887 C1886 1.363 . S
C1887 C1890 1.363 . S
N1888 C1890 1.356 . S
N1888 H1900 0.984 . S
N1888 H1901 0.985 . S
N1889 C1891 1.356 . S
N1889 H1894 0.984 . S
N1889 H1895 0.985 . S
C1890 C1884 1.379 . S
C1890 C1887 1.363 . S
C1890 N1888 1.356 . S
C1891 C1885 1.363 . S
C1891 C1886 1.379 . S
C1891 N1889 1.356 . S
N1892 C1884 1.356 . S
N1892 H1898 0.984 . S
N1892 H1899 0.984 . S
N1893 C1886 1.356 . S
N1893 H1896 0.984 . S
N1893 H1897 0.985 . S
H1894 N1889 0.984 . S
H1895 N1889 0.985 . S
H1896 N1893 0.984 . S
H1897 N1893 0.985 . S
H1898 N1892 0.984 . S
H1899 N1892 0.984 . S
H1900 N1888 0.984 . S
H1901 N1888 0.985 . S
C1902 C1903 1.363 . S
C1902 C1908 1.379 . S
C1902 N1910 1.356 . S
C1903 C1902 1.363 . S
C1903 C1909 1.363 . S
C1904 C1905 1.363 . S
C1904 C1909 1.379 . S
C1904 N1911 1.356 . S
C1905 C1904 1.363 . S
C1905 C1908 1.363 . S
N1906 C1908 1.356 . S
N1906 H1918 0.984 . S
N1906 H1919 0.985 . S
N1907 C1909 1.356 . S
N1907 H1912 0.984 . S
N1907 H1913 0.985 . S
C1908 C1902 1.379 . S
C1908 C1905 1.363 . S
C1908 N1906 1.356 . S
C1909 C1903 1.363 . S
C1909 C1904 1.379 . S
C1909 N1907 1.356 . S
N1910 C1902 1.356 . S
N1910 H1916 0.984 . S
N1910 H1917 0.984 . S
N1911 C1904 1.356 . S
N1911 H1914 0.984 . S
N1911 H1915 0.985 . S
H1912 N1907 0.984 . S
H1913 N1907 0.985 . S
H1914 N1911 0.984 . S
H1915 N1911 0.985 . S
H1916 N1910 0.984 . S
H1917 N1910 0.984 . S
H1918 N1906 0.984 . S
H1919 N1906 0.985 . S
C1920 C1921 1.363 . S
C1920 C1926 1.379 . S
C1920 N1928 1.356 . S
C1921 C1920 1.363 . S
C1921 C1927 1.363 . S
C1922 C1923 1.363 . S
C1922 C1927 1.379 . S
C1922 N1929 1.356 . S
C1923 C1922 1.363 . S
C1923 C1926 1.363 . S
N1924 C1926 1.356 . S
N1924 H1936 0.984 . S
N1924 H1937 0.985 . S
N1925 C1927 1.356 . S
N1925 H1930 0.984 . S
N1925 H1931 0.985 . S
C1926 C1920 1.379 . S
C1926 C1923 1.363 . S
C1926 N1924 1.356 . S
C1927 C1921 1.363 . S
C1927 C1922 1.379 . S
C1927 N1925 1.356 . S
N1928 C1920 1.356 . S
N1928 H1934 0.984 . S
N1928 H1935 0.984 . S
N1929 C1922 1.356 . S
N1929 H1932 0.984 . S
N1929 H1933 0.985 . S
H1930 N1925 0.984 . S
H1931 N1925 0.985 . S
H1932 N1929 0.984 . S
H1933 N1929 0.985 . S
H1934 N1928 0.984 . S
H1935 N1928 0.984 . S
H1936 N1924 0.984 . S
H1937 N1924 0.985 . S
C1938 C1939 1.363 . S
C1938 C1944 1.379 . S
C1938 N1946 1.356 . S
C1939 C1938 1.363 . S
C1939 C1945 1.363 . S
C1940 C1941 1.363 . S
C1940 C1945 1.379 . S
C1940 N1947 1.356 . S
C1941 C1940 1.363 . S
C1941 C1944 1.363 . S
N1942 C1944 1.356 . S
N1942 H1954 0.984 . S
N1942 H1955 0.985 . S
N1943 C1945 1.356 . S
N1943 H1948 0.984 . S
N1943 H1949 0.985 . S
C1944 C1938 1.379 . S
C1944 C1941 1.363 . S
C1944 N1942 1.356 . S
C1945 C1939 1.363 . S
C1945 C1940 1.379 . S
C1945 N1943 1.356 . S
N1946 C1938 1.356 . S
N1946 H1952 0.984 . S
N1946 H1953 0.984 . S
N1947 C1940 1.356 . S
N1947 H1950 0.984 . S
N1947 H1951 0.985 . S
H1948 N1943 0.984 . S
H1949 N1943 0.985 . S
H1950 N1947 0.984 . S
H1951 N1947 0.985 . S
H1952 N1946 0.984 . S
H1953 N1946 0.984 . S
H1954 N1942 0.984 . S
H1955 N1942 0.985 . S
C1956 C1957 1.363 . S
C1956 C1962 1.379 . S
C1956 N1964 1.356 . S
C1957 C1956 1.363 . S
C1957 C1963 1.363 . S
C1958 C1959 1.363 . S
C1958 C1963 1.379 . S
C1958 N1965 1.356 . S
C1959 C1958 1.363 . S
C1959 C1962 1.363 . S
N1960 C1962 1.356 . S
N1960 H1972 0.984 . S
N1960 H1973 0.985 . S
N1961 C1963 1.356 . S
N1961 H1966 0.984 . S
N1961 H1967 0.985 . S
C1962 C1956 1.379 . S
C1962 C1959 1.363 . S
C1962 N1960 1.356 . S
C1963 C1957 1.363 . S
C1963 C1958 1.379 . S
C1963 N1961 1.356 . S
N1964 C1956 1.356 . S
N1964 H1970 0.984 . S
N1964 H1971 0.984 . S
N1965 C1958 1.356 . S
N1965 H1968 0.984 . S
N1965 H1969 0.985 . S
H1966 N1961 0.984 . S
H1967 N1961 0.985 . S
H1968 N1965 0.984 . S
H1969 N1965 0.985 . S
H1970 N1964 0.984 . S
H1971 N1964 0.984 . S
H1972 N1960 0.984 . S
H1973 N1960 0.985 . S
C1974 C1975 1.363 . S
C1974 C1980 1.379 . S
C1974 N1982 1.356 . S
C1975 C1974 1.363 . S
C1975 C1981 1.363 . S
C1976 C1977 1.363 . S
C1976 C1981 1.379 . S
C1976 N1983 1.356 . S
C1977 C1976 1.363 . S
C1977 C1980 1.363 . S
N1978 C1980 1.356 . S
N1978 H1990 0.984 . S
N1978 H1991 0.985 . S
N1979 C1981 1.356 . S
N1979 H1984 0.984 . S
N1979 H1985 0.985 . S
C1980 C1974 1.379 . S
C1980 C1977 1.363 . S
C1980 N1978 1.356 . S
C1981 C1975 1.363 . S
C1981 C1976 1.379 . S
C1981 N1979 1.356 . S
N1982 C1974 1.356 . S
N1982 H1988 0.984 . S
N1982 H1989 0.984 . S
N1983 C1976 1.356 . S
N1983 H1986 0.984 . S
N1983 H1987 0.985 . S
H1984 N1979 0.984 . S
H1985 N1979 0.985 . S
H1986 N1983 0.984 . S
H1987 N1983 0.985 . S
H1988 N1982 0.984 . S
H1989 N1982 0.984 . S
H1990 N1978 0.984 . S
H1991 N1978 0.985 . S
C1992 C1993 1.363 . S
C1992 C1998 1.379 . S
C1992 N2000 1.356 . S
C1993 C1992 1.363 . S
C1993 C1999 1.363 . S
C1994 C1995 1.363 . S
C1994 C1999 1.379 . S
C1994 N2001 1.356 . S
C1995 C1994 1.363 . S
C1995 C1998 1.363 . S
N1996 C1998 1.356 . S
N1996 H2008 0.984 . S
N1996 H2009 0.985 . S
N1997 C1999 1.356 . S
N1997 H2002 0.984 . S
N1997 H2003 0.985 . S
C1998 C1992 1.379 . S
C1998 C1995 1.363 . S
C1998 N1996 1.356 . S
C1999 C1993 1.363 . S
C1999 C1994 1.379 . S
C1999 N1997 1.356 . S
N2000 C1992 1.356 . S
N2000 H2006 0.984 . S
N2000 H2007 0.984 . S
N2001 C1994 1.356 . S
N2001 H2004 0.984 . S
N2001 H2005 0.985 . S
H2002 N1997 0.984 . S
H2003 N1997 0.985 . S
H2004 N2001 0.984 . S
H2005 N2001 0.985 . S
H2006 N2000 0.984 . S
H2007 N2000 0.984 . S
H2008 N1996 0.984 . S
H2009 N1996 0.985 . S
C2010 C2011 1.363 . S
C2010 C2016 1.379 . S
C2010 N2018 1.356 . S
C2011 C2010 1.363 . S
C2011 C2017 1.363 . S
C2012 C2013 1.363 . S
C2012 C2017 1.379 . S
C2012 N2019 1.356 . S
C2013 C2012 1.363 . S
C2013 C2016 1.363 . S
N2014 C2016 1.356 . S
N2014 H2026 0.984 . S
N2014 H2027 0.985 . S
N2015 C2017 1.356 . S
N2015 H2020 0.984 . S
N2015 H2021 0.985 . S
C2016 C2010 1.379 . S
C2016 C2013 1.363 . S
C2016 N2014 1.356 . S
C2017 C2011 1.363 . S
C2017 C2012 1.379 . S
C2017 N2015 1.356 . S
N2018 C2010 1.356 . S
N2018 H2024 0.984 . S
N2018 H2025 0.984 . S
N2019 C2012 1.356 . S
N2019 H2022 0.984 . S
N2019 H2023 0.985 . S
H2020 N2015 0.984 . S
H2021 N2015 0.985 . S
H2022 N2019 0.984 . S
H2023 N2019 0.985 . S
H2024 N2018 0.984 . S
H2025 N2018 0.984 . S
H2026 N2014 0.984 . S
H2027 N2014 0.985 . S
C2028 C2029 1.363 . S
C2028 C2034 1.379 . S
C2028 N2036 1.356 . S
C2029 C2028 1.363 . S
C2029 C2035 1.363 . S
C2030 C2031 1.363 . S
C2030 C2035 1.379 . S
C2030 N2037 1.356 . S
C2031 C2030 1.363 . S
C2031 C2034 1.363 . S
N2032 C2034 1.356 . S
N2032 H2044 0.984 . S
N2032 H2045 0.985 . S
N2033 C2035 1.356 . S
N2033 H2038 0.984 . S
N2033 H2039 0.985 . S
C2034 C2028 1.379 . S
C2034 C2031 1.363 . S
C2034 N2032 1.356 . S
C2035 C2029 1.363 . S
C2035 C2030 1.379 . S
C2035 N2033 1.356 . S
N2036 C2028 1.356 . S
N2036 H2042 0.984 . S
N2036 H2043 0.984 . S
N2037 C2030 1.356 . S
N2037 H2040 0.984 . S
N2037 H2041 0.985 . S
H2038 N2033 0.984 . S
H2039 N2033 0.985 . S
H2040 N2037 0.984 . S
H2041 N2037 0.985 . S
H2042 N2036 0.984 . S
H2043 N2036 0.984 . S
H2044 N2032 0.984 . S
H2045 N2032 0.985 . S
C2046 C2047 1.363 . S
C2046 C2052 1.379 . S
C2046 N2054 1.356 . S
C2047 C2046 1.363 . S
C2047 C2053 1.363 . S
C2048 C2049 1.363 . S
C2048 C2053 1.379 . S
C2048 N2055 1.356 . S
C2049 C2048 1.363 . S
C2049 C2052 1.363 . S
N2050 C2052 1.356 . S
N2050 H2062 0.984 . S
N2050 H2063 0.985 . S
N2051 C2053 1.356 . S
N2051 H2056 0.984 . S
N2051 H2057 0.985 . S
C2052 C2046 1.379 . S
C2052 C2049 1.363 . S
C2052 N2050 1.356 . S
C2053 C2047 1.363 . S
C2053 C2048 1.379 . S
C2053 N2051 1.356 . S
N2054 C2046 1.356 . S
N2054 H2060 0.984 . S
N2054 H2061 0.984 . S
N2055 C2048 1.356 . S
N2055 H2058 0.984 . S
N2055 H2059 0.985 . S
H2056 N2051 0.984 . S
H2057 N2051 0.985 . S
H2058 N2055 0.984 . S
H2059 N2055 0.985 . S
H2060 N2054 0.984 . S
H2061 N2054 0.984 . S
H2062 N2050 0.984 . S
H2063 N2050 0.985 . S
C2064 C2065 1.363 . S
C2064 C2070 1.379 . S
C2064 N2072 1.356 . S
C2065 C2064 1.363 . S
C2065 C2071 1.363 . S
C2066 C2067 1.363 . S
C2066 C2071 1.379 . S
C2066 N2073 1.356 . S
C2067 C2066 1.363 . S
C2067 C2070 1.363 . S
N2068 C2070 1.356 . S
N2068 H2080 0.984 . S
N2068 H2081 0.985 . S
N2069 C2071 1.356 . S
N2069 H2074 0.984 . S
N2069 H2075 0.985 . S
C2070 C2064 1.379 . S
C2070 C2067 1.363 . S
C2070 N2068 1.356 . S
C2071 C2065 1.363 . S
C2071 C2066 1.379 . S
C2071 N2069 1.356 . S
N2072 C2064 1.356 . S
N2072 H2078 0.984 . S
N2072 H2079 0.984 . S
N2073 C2066 1.356 . S
N2073 H2076 0.984 . S
N2073 H2077 0.985 . S
H2074 N2069 0.984 . S
H2075 N2069 0.985 . S
H2076 N2073 0.984 . S
H2077 N2073 0.985 . S
H2078 N2072 0.984 . S
H2079 N2072 0.984 . S
H2080 N2068 0.984 . S
H2081 N2068 0.985 . S
C2082 C2083 1.363 . S
C2082 C2088 1.379 . S
C2082 N2090 1.356 . S
C2083 C2082 1.363 . S
C2083 C2089 1.363 . S
C2084 C2085 1.363 . S
C2084 C2089 1.379 . S
C2084 N2091 1.356 . S
C2085 C2084 1.363 . S
C2085 C2088 1.363 . S
N2086 C2088 1.356 . S
N2086 H2098 0.984 . S
N2086 H2099 0.985 . S
N2087 C2089 1.356 . S
N2087 H2092 0.984 . S
N2087 H2093 0.985 . S
C2088 C2082 1.379 . S
C2088 C2085 1.363 . S
C2088 N2086 1.356 . S
C2089 C2083 1.363 . S
C2089 C2084 1.379 . S
C2089 N2087 1.356 . S
N2090 C2082 1.356 . S
N2090 H2096 0.984 . S
N2090 H2097 0.984 . S
N2091 C2084 1.356 . S
N2091 H2094 0.984 . S
N2091 H2095 0.985 . S
H2092 N2087 0.984 . S
H2093 N2087 0.985 . S
H2094 N2091 0.984 . S
H2095 N2091 0.985 . S
H2096 N2090 0.984 . S
H2097 N2090 0.984 . S
H2098 N2086 0.984 . S
H2099 N2086 0.985 . S
C2100 C2101 1.363 . S
C2100 C2106 1.379 . S
C2100 N2108 1.356 . S
C2101 C2100 1.363 . S
C2101 C2107 1.363 . S
C2102 C2103 1.363 . S
C2102 C2107 1.379 . S
C2102 N2109 1.356 . S
C2103 C2102 1.363 . S
C2103 C2106 1.363 . S
N2104 C2106 1.356 . S
N2104 H2116 0.984 . S
N2104 H2117 0.985 . S
N2105 C2107 1.356 . S
N2105 H2110 0.984 . S
N2105 H2111 0.985 . S
C2106 C2100 1.379 . S
C2106 C2103 1.363 . S
C2106 N2104 1.356 . S
C2107 C2101 1.363 . S
C2107 C2102 1.379 . S
C2107 N2105 1.356 . S
N2108 C2100 1.356 . S
N2108 H2114 0.984 . S
N2108 H2115 0.984 . S
N2109 C2102 1.356 . S
N2109 H2112 0.984 . S
N2109 H2113 0.985 . S
H2110 N2105 0.984 . S
H2111 N2105 0.985 . S
H2112 N2109 0.984 . S
H2113 N2109 0.985 . S
H2114 N2108 0.984 . S
H2115 N2108 0.984 . S
H2116 N2104 0.984 . S
H2117 N2104 0.985 . S
C2118 C2119 1.363 . S
C2118 C2124 1.379 . S
C2118 N2126 1.356 . S
C2119 C2118 1.363 . S
C2119 C2125 1.363 . S
C2120 C2121 1.363 . S
C2120 C2125 1.379 . S
C2120 N2127 1.356 . S
C2121 C2120 1.363 . S
C2121 C2124 1.363 . S
N2122 C2124 1.356 . S
N2122 H2134 0.984 . S
N2122 H2135 0.985 . S
N2123 C2125 1.356 . S
N2123 H2128 0.984 . S
N2123 H2129 0.985 . S
C2124 C2118 1.379 . S
C2124 C2121 1.363 . S
C2124 N2122 1.356 . S
C2125 C2119 1.363 . S
C2125 C2120 1.379 . S
C2125 N2123 1.356 . S
N2126 C2118 1.356 . S
N2126 H2132 0.984 . S
N2126 H2133 0.984 . S
N2127 C2120 1.356 . S
N2127 H2130 0.984 . S
N2127 H2131 0.985 . S
H2128 N2123 0.984 . S
H2129 N2123 0.985 . S
H2130 N2127 0.984 . S
H2131 N2127 0.985 . S
H2132 N2126 0.984 . S
H2133 N2126 0.984 . S
H2134 N2122 0.984 . S
H2135 N2122 0.985 . S
C1273 C1204 2.210 . S
C1275 C38 2.253 . S
C1291 C75 2.114 . S
C1293 C870 2.204 . S
C1309 C1257 2.144 . S
C1311 C144 2.197 . S
C1327 C1135 2.301 . S
C1329 C181 2.194 . S
C1345 C992 2.144 . S
C1347 C250 2.197 . S
C1363 C1029 2.203 . S
C1365 C287 2.113 . S
C1381 C1098 2.210 . S
C1383 C356 2.253 . S
C1399 C393 2.194 . S
C1401 C923 2.301 . S
C1417 C727 2.206 . S
C1419 C446 2.323 . S
C1435 C764 2.323 . S
C1437 C515 2.206 . S
C1453 C568 2.383 . S
C1455 C833 2.253 . S
C1471 C621 2.252 . S
C1473 C674 2.383 . S
C1489 C409 2.237 1_545 S
C1491 C780 2.189 . S
C1507 C817 2.377 . S
C1509 C234 2.290 . S
C1525 C303 2.220 . S
C1527 C658 2.119 . S
C1543 C711 2.300 1_655 S
C1545 C340 2.224 . S
C1561 C552 2.119 . S
C1563 C91 2.220 . S
C1579 C128 2.291 . S
C1581 C605 2.377 . S
C1597 C197 2.237 1_545 S
C1599 C462 2.189 . S
C1615 C22 2.224 . S
C1617 C499 2.301 1_455 S
C1633 C1082 2.280 1_554 S
C1635 C1151 2.183 . S
C1651 C1188 2.280 1_556 S
C1653 C939 2.183 . S
C1669 C976 2.273 1_554 S
C1671 C886 2.161 . S
C1687 C1241 2.274 1_556 S
C1689 C1045 2.161 . S
C1705 C39 2.092 . S
C1707 C463 2.108 . S
C1723 C506 1.612 . S
C1725 C82 1.650 . S
C1741 C145 1.853 . S
C1743 C559 1.835 . S
C1759 C188 1.775 . S
C1761 C612 1.752 . S
C1777 C251 1.853 . S
C1779 C665 1.835 . S
C1795 C294 1.650 . S
C1797 C718 1.612 . S
C1813 C781 2.108 . S
C1815 C357 2.092 . S
C1831 C824 1.752 . S
C1833 C400 1.775 . S
C1849 C453 1.895 . S
C1851 C887 1.823 . S
C1867 C516 1.690 . S
C1869 C1248 1.772 . S
C1885 C1152 2.005 . S
C1887 C569 2.115 . S
C1903 C1195 1.730 . S
C1905 C622 1.660 . S
C1921 C940 2.005 . S
C1923 C675 2.115 . S
C1939 C983 1.772 . S
C1941 C728 1.690 . S
C1957 C771 1.895 . S
C1959 C1046 1.823 . S
C1975 C834 1.661 . S
C1977 C1089 1.731 . S
C1993 C29 1.589 . S
C1995 C877 1.570 . S
C2011 C930 1.704 . S
C2013 C241 1.654 . S
C2029 C993 2.124 . S
C2031 C304 2.092 . S
C2047 C1036 1.570 . S
C2049 C347 1.589 . S
C2065 C1099 2.126 . S
C2067 C410 2.110 . S
C2083 C1142 1.704 . S
C2085 C135 1.654 . S
C2101 C198 2.110 . S
C2103 C1205 2.126 . S
C2119 C1258 2.124 . S
C2121 C92 2.092 . S
