# Generated by pormake.
# Topology umk, (4)-cn, num edge types: 1
# Building blocks:
#     Node 0, Type 0, BuildingBlock: UXUYUI_clean_sbu_0, # of connection points: 4
#     Node 1, Type 0, BuildingBlock: UXUYUI_clean_sbu_0, # of connection points: 4
#     Node 2, Type 0, BuildingBlock: UXUYUI_clean_sbu_0, # of connection points: 4
#     Node 3, Type 0, BuildingBlock: UXUYUI_clean_sbu_0, # of connection points: 4
#     Node 4, Type 0, BuildingBlock: UXUYUI_clean_sbu_0, # of connection points: 4
#     Node 5, Type 0, BuildingBlock: UXUYUI_clean_sbu_0, # of connection points: 4
#     Node 6, Type 0, BuildingBlock: UXUYUI_clean_sbu_0, # of connection points: 4
#     Node 7, Type 0, BuildingBlock: UXUYUI_clean_sbu_0, # of connection points: 4
#     Node 8, Type 0, BuildingBlock: UXUYUI_clean_sbu_0, # of connection points: 4
#     Node 9, Type 0, BuildingBlock: UXUYUI_clean_sbu_0, # of connection points: 4
#     Node 10, Type 0, BuildingBlock: UXUYUI_clean_sbu_0, # of connection points: 4
#     Node 11, Type 0, BuildingBlock: UXUYUI_clean_sbu_0, # of connection points: 4
#     Node 12, Type 0, BuildingBlock: UXUYUI_clean_sbu_0, # of connection points: 4
#     Node 13, Type 0, BuildingBlock: UXUYUI_clean_sbu_0, # of connection points: 4
#     Node 14, Type 0, BuildingBlock: UXUYUI_clean_sbu_0, # of connection points: 4
#     Node 15, Type 0, BuildingBlock: UXUYUI_clean_sbu_0, # of connection points: 4
#     Node 16, Type 0, BuildingBlock: UXUYUI_clean_sbu_0, # of connection points: 4
#     Node 17, Type 0, BuildingBlock: UXUYUI_clean_sbu_0, # of connection points: 4
#     Node 18, Type 0, BuildingBlock: UXUYUI_clean_sbu_0, # of connection points: 4
#     Node 19, Type 0, BuildingBlock: UXUYUI_clean_sbu_0, # of connection points: 4
#     Node 20, Type 0, BuildingBlock: UXUYUI_clean_sbu_0, # of connection points: 4
#     Node 21, Type 0, BuildingBlock: UXUYUI_clean_sbu_0, # of connection points: 4
#     Node 22, Type 0, BuildingBlock: UXUYUI_clean_sbu_0, # of connection points: 4
#     Node 23, Type 0, BuildingBlock: UXUYUI_clean_sbu_0, # of connection points: 4
#     Edge 24, Type (0, 0), None
#     Edge 25, Type (0, 0), None
#     Edge 26, Type (0, 0), None
#     Edge 27, Type (0, 0), None
#     Edge 28, Type (0, 0), None
#     Edge 29, Type (0, 0), None
#     Edge 30, Type (0, 0), None
#     Edge 31, Type (0, 0), None
#     Edge 32, Type (0, 0), None
#     Edge 33, Type (0, 0), None
#     Edge 34, Type (0, 0), None
#     Edge 35, Type (0, 0), None
#     Edge 36, Type (0, 0), None
#     Edge 37, Type (0, 0), None
#     Edge 38, Type (0, 0), None
#     Edge 39, Type (0, 0), None
#     Edge 40, Type (0, 0), None
#     Edge 41, Type (0, 0), None
#     Edge 42, Type (0, 0), None
#     Edge 43, Type (0, 0), None
#     Edge 44, Type (0, 0), None
#     Edge 45, Type (0, 0), None
#     Edge 46, Type (0, 0), None
#     Edge 47, Type (0, 0), None
#     Edge 48, Type (0, 0), None
#     Edge 49, Type (0, 0), None
#     Edge 50, Type (0, 0), None
#     Edge 51, Type (0, 0), None
#     Edge 52, Type (0, 0), None
#     Edge 53, Type (0, 0), None
#     Edge 54, Type (0, 0), None
#     Edge 55, Type (0, 0), None
#     Edge 56, Type (0, 0), None
#     Edge 57, Type (0, 0), None
#     Edge 58, Type (0, 0), None
#     Edge 59, Type (0, 0), None
#     Edge 60, Type (0, 0), None
#     Edge 61, Type (0, 0), None
#     Edge 62, Type (0, 0), None
#     Edge 63, Type (0, 0), None
#     Edge 64, Type (0, 0), None
#     Edge 65, Type (0, 0), None
#     Edge 66, Type (0, 0), None
#     Edge 67, Type (0, 0), None
#     Edge 68, Type (0, 0), None
#     Edge 69, Type (0, 0), None
#     Edge 70, Type (0, 0), None
#     Edge 71, Type (0, 0), None
# Relax obj value: 0.190
# Max RMSD: 0.162
# Mean RMSD: 0.162
data_MOF--net-umk--node1-UXUYUI_clean_sbu_0--edge1-none
_symmetry_space_group_name_H-M    P1
_symmetry_Int_Tables_number       1
_symmetry_cell_setting            triclinic
loop_
_symmetry_equiv_pos_as_xyz
'x, y, z'
_cell_length_a     61.002444
_cell_length_b     61.00223
_cell_length_c     38.973789
_cell_angle_alpha  90.000011
_cell_angle_beta   89.999996
_cell_angle_gamma 119.99906
loop_
_atom_site_label
_atom_site_type_symbol
_atom_site_fract_x
_atom_site_fract_y
_atom_site_fract_z
_atom_type_partial_charge
Li0 Li 0.33214 0.46426 0.11093 0.0
Li1 Li 0.33919 0.43935 0.06537 0.0
Li2 Li 0.35455 0.48496 0.05775 0.0
Li3 Li 0.3097 0.45485 0.05467 0.0
C4 C 0.38739 0.48659 0.10472 0.0
N5 N 0.4344 0.52506 0.12502 0.0
C6 C 0.40914 0.48557 0.09643 0.0
C7 C 0.38951 0.50716 0.12329 0.0
C8 C 0.43275 0.50521 0.10696 0.0
C9 C 0.41345 0.52642 0.13334 0.0
C10 C 0.28945 0.40597 0.09384 0.0
C11 C 0.25603 0.3672 0.06963 0.0
N12 N 0.2531 0.35548 0.10036 0.0
C13 C 0.28594 0.39361 0.12528 0.0
C14 C 0.27424 0.39274 0.06585 0.0
C15 C 0.26754 0.36805 0.12801 0.0
C16 C 0.32454 0.48229 0.17554 0.0
N17 N 0.33064 0.46631 0.15937 0.0
C18 C 0.33602 0.45069 0.21304 0.0
C19 C 0.33654 0.45086 0.17728 0.0
C20 C 0.32965 0.46683 0.2306 0.0
C21 C 0.32404 0.48295 0.21144 0.0
H22 H 0.32012 0.49452 0.16059 0.0
H23 H 0.34167 0.43863 0.16363 0.0
C24 C 0.37182 0.42391 0.04209 0.0
N25 N 0.34924 0.4147 0.05837 0.0
C26 C 0.38351 0.40933 0.0395 0.0
C27 C 0.34777 0.37533 0.06878 0.0
C28 C 0.33688 0.39075 0.07116 0.0
C29 C 0.37173 0.38478 0.05349 0.0
H30 H 0.38126 0.44308 0.03235 0.0
H31 H 0.31899 0.38379 0.08412 0.0
C32 C 0.32144 0.50457 0.06508 0.0
N33 N 0.30969 0.5377 0.03276 0.0
C34 C 0.32508 0.50864 0.02973 0.0
C35 C 0.31177 0.5173 0.08398 0.0
C36 C 0.31904 0.52547 0.01387 0.0
C37 C 0.30597 0.534 0.06718 0.0
C38 C 0.33102 0.44675 0.99269 0.0
C39 C 0.33871 0.46223 0.9636 0.0
C40 C 0.31749 0.42046 0.98888 0.0
C41 C 0.33218 0.45111 0.93112 0.0
C42 C 0.31135 0.41006 0.95596 0.0
N43 N 0.31872 0.42547 0.928 0.0
C44 C 0.3985 0.51085 0.01871 0.0
C45 C 0.3866 0.53838 0.04512 0.0
C46 C 0.4195 0.53134 0.0036 0.0
N47 N 0.38253 0.51468 0.03888 0.0
C48 C 0.40706 0.55938 0.02984 0.0
C49 C 0.42377 0.55592 0.00885 0.0
H50 H 0.39487 0.4918 0.01444 0.0
H51 H 0.37399 0.54101 0.06188 0.0
C52 C 0.25784 0.43986 0.05447 0.0
N53 N 0.27851 0.44832 0.0339 0.0
C54 C 0.23532 0.43745 0.0417 0.0
C55 C 0.25565 0.45222 0.98666 0.0
C56 C 0.27771 0.45423 1.00045 0.0
C57 C 0.23412 0.44407 0.00745 0.0
H58 H 0.25906 0.43556 0.08109 0.0
H59 H 0.29448 0.46153 0.98476 0.0
O60 O 0.36418 0.46799 0.09371 0.0
O61 O 0.30734 0.43102 0.09082 0.0
O62 O 0.32678 0.48781 0.08111 0.0
O63 O 0.33741 0.4574 0.02461 0.0
H64 H 0.40784 0.46985 0.08193 0.0
H65 H 0.37288 0.50843 0.12943 0.0
H66 H 0.44976 0.50471 0.10069 0.0
H67 H 0.4154 0.54251 0.14761 0.0
H68 H 0.24416 0.35673 0.04815 0.0
H69 H 0.29737 0.40359 0.1473 0.0
H70 H 0.27628 0.40208 0.04154 0.0
H71 H 0.26472 0.35822 0.15214 0.0
H72 H 0.3409 0.4383 0.22683 0.0
H73 H 0.31898 0.49562 0.22404 0.0
H74 H 0.40214 0.41779 0.02804 0.0
H75 H 0.33774 0.35643 0.07947 0.0
H76 H 0.33247 0.49891 0.01468 0.0
H77 H 0.30871 0.51426 0.11134 0.0
H78 H 0.32175 0.52878 0.98653 0.0
H79 H 0.29847 0.54399 0.08149 0.0
H80 H 0.34949 0.48263 0.96614 0.0
H81 H 0.31203 0.4082 0.01103 0.0
H82 H 0.33784 0.46285 0.90839 0.0
H83 H 0.30081 0.38974 0.95263 0.0
H84 H 0.43205 0.52802 0.98756 0.0
H85 H 0.41002 0.57816 0.03475 0.0
H86 H 0.21916 0.43084 0.05862 0.0
H87 H 0.25588 0.45805 0.96036 0.0
Li88 Li 0.90049 0.33885 0.56539 0.0
Li89 Li 0.8685 0.33179 0.61096 0.0
Li90 Li 0.8555 0.30937 0.55468 0.0
Li91 Li 0.87024 0.35421 0.55777 0.0
C92 C 0.88404 0.28905 0.59379 0.0
N93 N 0.89803 0.25259 0.60017 0.0
C94 C 0.89274 0.28537 0.62525 0.0
C95 C 0.88214 0.27395 0.56571 0.0
C96 C 0.89982 0.26691 0.62792 0.0
C97 C 0.88938 0.25568 0.56942 0.0
C98 C 0.90151 0.38711 0.6045 0.0
C99 C 0.88792 0.41339 0.63296 0.0
N100 N 0.91014 0.43427 0.62422 0.0
C101 C 0.9242 0.40882 0.59577 0.0
C102 C 0.88319 0.38937 0.62322 0.0
C103 C 0.92821 0.4325 0.606 0.0
C104 C 0.94854 0.37131 0.54182 0.0
N105 N 0.93517 0.34886 0.55842 0.0
C106 C 0.97307 0.34746 0.56918 0.0
C107 C 0.94676 0.3366 0.57154 0.0
C108 C 0.98758 0.3713 0.55357 0.0
C109 C 0.97481 0.38297 0.53924 0.0
H110 H 0.93881 0.38068 0.53182 0.0
H111 H 0.93584 0.31883 0.58477 0.0
C112 C 0.84288 0.32427 0.67557 0.0
N113 N 0.86494 0.33028 0.6594 0.0
C114 C 0.84173 0.32377 0.71146 0.0
C115 C 0.88591 0.33556 0.71306 0.0
C116 C 0.88627 0.33608 0.6773 0.0
C117 C 0.86343 0.32929 0.73063 0.0
H118 H 0.82626 0.31993 0.66063 0.0
H119 H 0.90361 0.34114 0.66365 0.0
C120 C 0.88492 0.33074 0.49267 0.0
N121 N 0.89387 0.31854 0.42791 0.0
C122 C 0.87707 0.33843 0.46365 0.0
C123 C 0.89773 0.31727 0.48877 0.0
C124 C 0.88165 0.33195 0.43112 0.0
C125 C 0.90197 0.31117 0.45581 0.0
C126 C 0.81752 0.32112 0.56509 0.0
C127 C 0.81708 0.32476 0.52975 0.0
C128 C 0.79512 0.31143 0.58399 0.0
C129 C 0.79421 0.31872 0.51389 0.0
C130 C 0.77261 0.30562 0.56719 0.0
N131 N 0.77263 0.30936 0.53278 0.0
C132 C 0.81863 0.25752 0.55448 0.0
C133 C 0.82413 0.27739 0.50046 0.0
C134 C 0.79852 0.235 0.5417 0.0
N135 N 0.83083 0.27819 0.5339 0.0
C136 C 0.80407 0.25533 0.48666 0.0
C137 C 0.79069 0.23379 0.50746 0.0
H138 H 0.82415 0.25873 0.5811 0.0
H139 H 0.83359 0.29415 0.48477 0.0
C140 C 0.88826 0.39811 0.51862 0.0
N141 N 0.86851 0.38219 0.53888 0.0
C142 C 0.88877 0.41911 0.50351 0.0
C143 C 0.84835 0.40674 0.52992 0.0
C144 C 0.84891 0.3863 0.5452 0.0
C145 C 0.8685 0.42342 0.50885 0.0
H146 H 0.90367 0.39446 0.51428 0.0
H147 H 0.8337 0.37371 0.56203 0.0
O148 O 0.87696 0.307 0.59084 0.0
O149 O 0.89684 0.36383 0.59379 0.0
O150 O 0.88066 0.33708 0.52464 0.0
O151 O 0.83961 0.32645 0.58111 0.0
H152 H 0.89412 0.29672 0.64734 0.0
H153 H 0.87494 0.27611 0.54138 0.0
H154 H 0.90672 0.26397 0.65206 0.0
H155 H 0.88805 0.24389 0.54787 0.0
H156 H 0.87388 0.41543 0.64734 0.0
H157 H 0.93852 0.40742 0.58115 0.0
H158 H 0.86535 0.37278 0.62972 0.0
H159 H 0.94567 0.44947 0.59938 0.0
H160 H 0.98193 0.33751 0.58014 0.0
H161 H 0.98499 0.40151 0.52752 0.0
H162 H 0.82402 0.31879 0.72407 0.0
H163 H 0.90316 0.34037 0.72684 0.0
H164 H 0.86742 0.34917 0.46625 0.0
H165 H 0.90458 0.31181 0.51087 0.0
H166 H 0.87553 0.33762 0.40843 0.0
H167 H 0.91179 0.30068 0.45241 0.0
H168 H 0.83421 0.33217 0.5147 0.0
H169 H 0.7951 0.30835 0.61134 0.0
H170 H 0.79362 0.32145 0.48655 0.0
H171 H 0.75513 0.29811 0.5815 0.0
H172 H 0.78897 0.21884 0.55863 0.0
H173 H 0.79847 0.25556 0.46037 0.0
H174 H 0.90461 0.43163 0.4874 0.0
H175 H 0.83257 0.40974 0.5349 0.0
Li176 Li 0.56224 0.90015 0.06536 0.0
Li177 Li 0.53733 0.8682 0.11092 0.0
Li178 Li 0.54674 0.85517 0.05467 0.0
Li179 Li 0.51662 0.8699 0.05774 0.0
C180 C 0.59561 0.8838 0.09386 0.0
N181 N 0.6461 0.89796 0.10043 0.0
C182 C 0.60796 0.89267 0.1253 0.0
C183 C 0.60886 0.88181 0.06589 0.0
C184 C 0.63352 0.89983 0.12806 0.0
C185 C 0.63439 0.88914 0.0697 0.0
C186 C 0.515 0.90111 0.10474 0.0
C187 C 0.47517 0.88733 0.13337 0.0
N188 N 0.47653 0.90964 0.12511 0.0
C189 C 0.51602 0.9239 0.0965 0.0
C190 C 0.49442 0.88265 0.12329 0.0
C191 C 0.49638 0.92786 0.10705 0.0
C192 C 0.57766 0.94822 0.04211 0.0
N193 N 0.58688 0.93485 0.05836 0.0
C194 C 0.62626 0.97275 0.06874 0.0
C195 C 0.61084 0.94644 0.07112 0.0
C196 C 0.6168 0.98726 0.05348 0.0
C197 C 0.59224 0.97449 0.03952 0.0
H198 H 0.55848 0.93849 0.03239 0.0
H199 H 0.61781 0.93551 0.08406 0.0
C200 C 0.51932 0.84257 0.17553 0.0
N201 N 0.53527 0.86466 0.15936 0.0
C202 C 0.51867 0.84141 0.21143 0.0
C203 C 0.55087 0.88567 0.21303 0.0
C204 C 0.5507 0.88602 0.17727 0.0
C205 C 0.53476 0.86315 0.2306 0.0
H206 H 0.50711 0.82591 0.16059 0.0
H207 H 0.56291 0.90338 0.16362 0.0
C208 C 0.55485 0.88459 0.99269 0.0
N209 N 0.57615 0.89356 0.92802 0.0
C210 C 0.53938 0.87681 0.96359 0.0
C211 C 0.58114 0.89733 0.9889 0.0
C212 C 0.55052 0.8814 0.93112 0.0
C213 C 0.59155 0.90158 0.95599 0.0
C214 C 0.49702 0.8172 0.06508 0.0
C215 C 0.49296 0.81676 0.02973 0.0
C216 C 0.48428 0.79479 0.08398 0.0
C217 C 0.47612 0.79389 0.01386 0.0
C218 C 0.46758 0.77229 0.06717 0.0
N219 N 0.46389 0.77231 0.03275 0.0
C220 C 0.56173 0.8183 0.05448 0.0
C221 C 0.54736 0.8238 1.00045 0.0
C222 C 0.56414 0.79819 0.0417 0.0
N223 N 0.55327 0.8305 0.0339 0.0
C224 C 0.54937 0.80375 0.98666 0.0
C225 C 0.55753 0.79037 0.00746 0.0
H226 H 0.56602 0.82382 0.0811 0.0
H227 H 0.54007 0.83326 0.98475 0.0
C228 C 0.49073 0.88797 0.01872 0.0
N229 N 0.4869 0.86816 0.03887 0.0
C230 C 0.47024 0.88848 0.00361 0.0
C231 C 0.4422 0.84798 0.02983 0.0
C232 C 0.4632 0.84853 0.04511 0.0
C233 C 0.44566 0.86817 0.00885 0.0
H234 H 0.50978 0.9034 0.01445 0.0
H235 H 0.46057 0.83329 0.06186 0.0
O236 O 0.57057 0.87664 0.09082 0.0
O237 O 0.5336 0.89651 0.0937 0.0
O238 O 0.54418 0.88032 0.02461 0.0
O239 O 0.51377 0.83928 0.08111 0.0
H240 H 0.59797 0.89412 0.1473 0.0
H241 H 0.59953 0.87449 0.04158 0.0
H242 H 0.64335 0.90686 0.15219 0.0
H243 H 0.64488 0.88774 0.04824 0.0
H244 H 0.45908 0.87317 0.14763 0.0
H245 H 0.53175 0.93833 0.082 0.0
H246 H 0.49315 0.86474 0.1294 0.0
H247 H 0.4969 0.94539 0.10082 0.0
H248 H 0.64517 0.98161 0.07941 0.0
H249 H 0.58378 0.98467 0.02808 0.0
H250 H 0.50601 0.82368 0.22404 0.0
H251 H 0.56324 0.90294 0.22682 0.0
H252 H 0.51899 0.8672 0.96611 0.0
H253 H 0.59339 0.90412 0.01106 0.0
H254 H 0.53878 0.87533 0.90837 0.0
H255 H 0.61188 0.91136 0.95268 0.0
H256 H 0.50269 0.83388 0.01467 0.0
H257 H 0.48731 0.79477 0.11133 0.0
H258 H 0.47282 0.7933 0.98652 0.0
H259 H 0.45758 0.75481 0.08148 0.0
H260 H 0.57075 0.78864 0.05863 0.0
H261 H 0.54355 0.79814 0.96036 0.0
H262 H 0.47356 0.90436 0.98759 0.0
H263 H 0.42343 0.83218 0.03473 0.0
Li264 Li 0.66272 0.56193 0.56537 0.0
Li265 Li 0.66977 0.53702 0.61094 0.0
Li266 Li 0.69221 0.54643 0.55467 0.0
Li267 Li 0.64736 0.51631 0.55776 0.0
C268 C 0.71246 0.59531 0.59385 0.0
N269 N 0.7488 0.64579 0.60038 0.0
C270 C 0.71596 0.60767 0.62529 0.0
C271 C 0.72768 0.60855 0.56587 0.0
C272 C 0.73436 0.63322 0.62803 0.0
C273 C 0.74588 0.63408 0.56965 0.0
C274 C 0.61452 0.51469 0.60472 0.0
C275 C 0.58846 0.47485 0.63334 0.0
N276 N 0.56751 0.47621 0.62503 0.0
C277 C 0.59277 0.51571 0.59643 0.0
C278 C 0.6124 0.49411 0.62329 0.0
C279 C 0.56916 0.49606 0.60695 0.0
C280 C 0.63009 0.57737 0.54209 0.0
N281 N 0.65267 0.58658 0.55838 0.0
C282 C 0.65414 0.62595 0.56878 0.0
C283 C 0.66503 0.61053 0.57116 0.0
C284 C 0.63018 0.6165 0.55349 0.0
C285 C 0.6184 0.59194 0.5395 0.0
H286 H 0.62065 0.55819 0.53235 0.0
H287 H 0.68292 0.61749 0.58412 0.0
C288 C 0.67738 0.51899 0.67554 0.0
N289 N 0.67127 0.53496 0.65938 0.0
C290 C 0.67788 0.51834 0.71144 0.0
C291 C 0.66588 0.55058 0.71305 0.0
C292 C 0.66536 0.55042 0.67728 0.0
C293 C 0.67226 0.53445 0.73061 0.0
H294 H 0.6818 0.50677 0.6606 0.0
H295 H 0.66022 0.56264 0.66364 0.0
C296 C 0.67089 0.55453 0.4927 0.0
N297 N 0.6832 0.57582 0.42801 0.0
C298 C 0.6632 0.53906 0.46361 0.0
C299 C 0.68442 0.58082 0.48889 0.0
C300 C 0.66974 0.55018 0.43112 0.0
C301 C 0.69057 0.59122 0.45597 0.0
C302 C 0.68046 0.49671 0.56509 0.0
C303 C 0.67683 0.49264 0.52974 0.0
C304 C 0.69013 0.48398 0.58398 0.0
C305 C 0.68287 0.47581 0.51387 0.0
C306 C 0.69594 0.46728 0.56718 0.0
N307 N 0.69222 0.46358 0.53276 0.0
C308 C 0.74406 0.56142 0.55447 0.0
C309 C 0.72419 0.54704 0.50046 0.0
C310 C 0.76659 0.56383 0.54169 0.0
N311 N 0.7234 0.55296 0.5339 0.0
C312 C 0.74625 0.54905 0.48666 0.0
C313 C 0.76779 0.55721 0.50745 0.0
H314 H 0.74285 0.56572 0.58109 0.0
H315 H 0.70743 0.53975 0.48476 0.0
C316 C 0.60342 0.49043 0.51871 0.0
N317 N 0.61938 0.48659 0.53888 0.0
C318 C 0.58241 0.46994 0.5036 0.0
C319 C 0.59485 0.44189 0.52985 0.0
C320 C 0.6153 0.4629 0.54513 0.0
C321 C 0.57814 0.44536 0.50885 0.0
H322 H 0.60704 0.50948 0.51443 0.0
H323 H 0.62791 0.46026 0.56189 0.0
O324 O 0.69457 0.57026 0.59083 0.0
O325 O 0.63773 0.53329 0.59372 0.0
O326 O 0.6645 0.54388 0.52462 0.0
O327 O 0.67513 0.51346 0.58111 0.0
H328 H 0.70453 0.59768 0.6473 0.0
H329 H 0.72564 0.5992 0.54155 0.0
H330 H 0.73718 0.64306 0.65215 0.0
H331 H 0.75775 0.64455 0.54818 0.0
H332 H 0.58651 0.45877 0.64761 0.0
H333 H 0.59406 0.53143 0.58193 0.0
H334 H 0.62903 0.49284 0.62944 0.0
H335 H 0.55214 0.49657 0.60068 0.0
H336 H 0.66417 0.64485 0.57947 0.0
H337 H 0.59977 0.58349 0.52804 0.0
H338 H 0.68294 0.50567 0.72404 0.0
H339 H 0.661 0.56297 0.72684 0.0
H340 H 0.65242 0.51866 0.46613 0.0
H341 H 0.68989 0.59308 0.51104 0.0
H342 H 0.66407 0.53844 0.40839 0.0
H343 H 0.70112 0.61155 0.45265 0.0
H344 H 0.66944 0.50237 0.51468 0.0
H345 H 0.6932 0.48702 0.61134 0.0
H346 H 0.68015 0.4725 0.48653 0.0
H347 H 0.70344 0.45729 0.58148 0.0
H348 H 0.78275 0.57045 0.55862 0.0
H349 H 0.74603 0.54322 0.46036 0.0
H350 H 0.56986 0.47326 0.48755 0.0
H351 H 0.59188 0.42312 0.53476 0.0
Li352 Li 0.13341 0.66948 0.11096 0.0
Li353 Li 0.10142 0.66242 0.06539 0.0
Li354 Li 0.13167 0.64706 0.05777 0.0
Li355 Li 0.14642 0.6919 0.05468 0.0
C356 C 0.1004 0.61416 0.10448 0.0
N357 N 0.09175 0.56699 0.12417 0.0
C358 C 0.07771 0.59246 0.09573 0.0
C359 C 0.11871 0.61189 0.12321 0.0
C360 C 0.07369 0.56877 0.10594 0.0
C361 C 0.11397 0.58787 0.13294 0.0
C362 C 0.11788 0.71223 0.09378 0.0
C363 C 0.11254 0.7456 0.06939 0.0
N364 N 0.1039 0.7487 0.10014 0.0
C365 C 0.1092 0.71592 0.12524 0.0
C366 C 0.11978 0.72732 0.06569 0.0
C367 C 0.10212 0.73439 0.1279 0.0
C368 C 0.15903 0.67699 0.17557 0.0
N369 N 0.13698 0.67099 0.1594 0.0
C370 C 0.116 0.66573 0.21306 0.0
C371 C 0.11565 0.6652 0.17729 0.0
C372 C 0.13848 0.67199 0.23063 0.0
C373 C 0.16018 0.67749 0.21146 0.0
H374 H 0.17565 0.68132 0.16063 0.0
H375 H 0.09831 0.66015 0.16364 0.0
C376 C 0.05337 0.62997 0.0418 0.0
N377 N 0.06674 0.65241 0.05842 0.0
C378 C 0.0271 0.61832 0.03922 0.0
C379 C 0.02885 0.65382 0.0692 0.0
C380 C 0.05515 0.66467 0.07157 0.0
C381 C 0.01433 0.62998 0.05357 0.0
H382 H 0.0631 0.62061 0.03178 0.0
H383 H 0.06607 0.68243 0.08481 0.0
C384 C 0.18439 0.68016 0.06509 0.0
N385 N 0.22929 0.69192 0.03278 0.0
C386 C 0.18483 0.67651 0.02975 0.0
C387 C 0.20679 0.68985 0.08399 0.0
C388 C 0.2077 0.68255 0.01389 0.0
C389 C 0.2293 0.69565 0.06719 0.0
C390 C 0.117 0.67053 0.99267 0.0
C391 C 0.12485 0.66284 0.96365 0.0
C392 C 0.10418 0.68399 0.98875 0.0
C393 C 0.12027 0.66931 0.93112 0.0
C394 C 0.09994 0.69008 0.95579 0.0
N395 N 0.10804 0.68271 0.92789 0.0
C396 C 0.11365 0.60316 0.01862 0.0
C397 C 0.153 0.61498 0.0452 0.0
C398 C 0.11314 0.58216 0.00351 0.0
N399 N 0.1334 0.61908 0.03888 0.0
C400 C 0.15356 0.59453 0.02992 0.0
C401 C 0.13341 0.57785 0.00885 0.0
H402 H 0.09824 0.60681 0.01428 0.0
H403 H 0.16821 0.62756 0.06202 0.0
C404 C 0.18328 0.74376 0.05448 0.0
N405 N 0.17108 0.72309 0.0339 0.0
C406 C 0.2034 0.76627 0.0417 0.0
C407 C 0.19784 0.74594 0.98666 0.0
C408 C 0.17779 0.72388 1.00046 0.0
C409 C 0.21122 0.76748 0.00746 0.0
H410 H 0.17776 0.74254 0.0811 0.0
H411 H 0.16832 0.70712 0.98477 0.0
O412 O 0.10507 0.63745 0.09379 0.0
O413 O 0.12495 0.69427 0.09084 0.0
O414 O 0.1623 0.67482 0.08111 0.0
O415 O 0.12125 0.6642 0.02464 0.0
H416 H 0.0634 0.59386 0.0811 0.0
H417 H 0.13654 0.62848 0.12973 0.0
H418 H 0.05623 0.5518 0.09931 0.0
H419 H 0.12801 0.58582 0.14732 0.0
H420 H 0.11387 0.75738 0.04783 0.0
H421 H 0.10782 0.70459 0.14734 0.0
H422 H 0.12696 0.72515 0.04136 0.0
H423 H 0.09523 0.73735 0.15204 0.0
H424 H 0.09875 0.66093 0.22684 0.0
H425 H 0.17789 0.68247 0.22407 0.0
H426 H 0.01692 0.59978 0.02749 0.0
H427 H 0.01998 0.66376 0.08019 0.0
H428 H 0.16771 0.6691 0.01469 0.0
H429 H 0.20681 0.69292 0.11134 0.0
H430 H 0.2083 0.67983 0.98655 0.0
H431 H 0.24679 0.70317 0.08151 0.0
H432 H 0.1345 0.6521 0.96626 0.0
H433 H 0.09732 0.68945 0.01085 0.0
H434 H 0.1264 0.66365 0.90843 0.0
H435 H 0.09011 0.70057 0.95237 0.0
H436 H 0.0973 0.56964 0.9874 0.0
H437 H 0.16934 0.59153 0.03489 0.0
H438 H 0.21294 0.78244 0.05863 0.0
H439 H 0.20345 0.74572 0.96037 0.0
Li440 Li 0.46458 0.13307 0.61092 0.0
Li441 Li 0.43967 0.10112 0.56536 0.0
Li442 Li 0.48529 0.13138 0.55774 0.0
Li443 Li 0.45517 0.14611 0.55467 0.0
C444 C 0.48691 0.10018 0.60477 0.0
N445 N 0.52536 0.09166 0.62524 0.0
C446 C 0.48588 0.07738 0.59661 0.0
C447 C 0.50749 0.11866 0.62331 0.0
C448 C 0.50552 0.07343 0.60721 0.0
C449 C 0.52674 0.11399 0.63344 0.0
C450 C 0.40629 0.11746 0.59387 0.0
C451 C 0.3675 0.11212 0.56975 0.0
N452 N 0.3558 0.10328 0.60048 0.0
C453 C 0.39394 0.10856 0.62531 0.0
C454 C 0.39304 0.11946 0.56593 0.0
C455 C 0.36839 0.10138 0.62809 0.0
C456 C 0.48257 0.15871 0.67553 0.0
N457 N 0.46663 0.13661 0.65936 0.0
C458 C 0.45105 0.1156 0.71303 0.0
C459 C 0.45122 0.11524 0.67727 0.0
C460 C 0.46715 0.13812 0.73059 0.0
C461 C 0.48323 0.15986 0.71143 0.0
H462 H 0.49476 0.17536 0.66059 0.0
H463 H 0.43902 0.09788 0.66362 0.0
C464 C 0.42427 0.05305 0.54216 0.0
N465 N 0.41503 0.06642 0.55836 0.0
C466 C 0.40969 0.02678 0.53956 0.0
C467 C 0.37564 0.02853 0.56868 0.0
C468 C 0.39105 0.05483 0.57106 0.0
C469 C 0.38512 0.01401 0.55347 0.0
H470 H 0.44346 0.06278 0.53248 0.0
H471 H 0.38406 0.06576 0.58396 0.0
C472 C 0.50489 0.18408 0.56508 0.0
N473 N 0.53802 0.22896 0.53275 0.0
C474 C 0.50895 0.18451 0.52973 0.0
C475 C 0.51763 0.20648 0.58398 0.0
C476 C 0.52578 0.20738 0.51386 0.0
C477 C 0.53433 0.22898 0.56717 0.0
C478 C 0.44705 0.11669 0.4927 0.0
C479 C 0.4625 0.12445 0.46359 0.0
C480 C 0.42075 0.10395 0.48893 0.0
C481 C 0.45135 0.11986 0.43112 0.0
C482 C 0.41033 0.0997 0.45603 0.0
N483 N 0.42571 0.10771 0.42805 0.0
C484 C 0.51118 0.11331 0.51873 0.0
C485 C 0.53871 0.15274 0.5451 0.0
C486 C 0.53167 0.11279 0.50362 0.0
N487 N 0.51501 0.13311 0.53887 0.0
C488 C 0.55971 0.15329 0.52982 0.0
C489 C 0.55625 0.1331 0.50885 0.0
H490 H 0.49213 0.09787 0.51447 0.0
H491 H 0.54134 0.168 0.56185 0.0
C492 C 0.44018 0.18297 0.55448 0.0
N493 N 0.44864 0.17077 0.5339 0.0
C494 C 0.43777 0.20309 0.5417 0.0
C495 C 0.45253 0.19753 0.48666 0.0
C496 C 0.45454 0.17748 0.50045 0.0
C497 C 0.44438 0.21091 0.50746 0.0
H498 H 0.43588 0.17746 0.5811 0.0
H499 H 0.46184 0.16801 0.48475 0.0
O500 O 0.46831 0.10476 0.59369 0.0
O501 O 0.43134 0.12464 0.59082 0.0
O502 O 0.48813 0.16199 0.58111 0.0
O503 O 0.45773 0.12096 0.5246 0.0
H504 H 0.47016 0.06293 0.58214 0.0
H505 H 0.50876 0.13658 0.62936 0.0
H506 H 0.505 0.05588 0.60104 0.0
H507 H 0.54283 0.12816 0.64768 0.0
H508 H 0.35701 0.11353 0.54831 0.0
H509 H 0.40395 0.10709 0.6473 0.0
H510 H 0.40237 0.1268 0.54162 0.0
H511 H 0.35856 0.09433 0.65222 0.0
H512 H 0.4387 0.09832 0.72682 0.0
H513 H 0.49587 0.1776 0.72404 0.0
H514 H 0.41817 0.0166 0.52817 0.0
H515 H 0.35672 0.01966 0.57931 0.0
H516 H 0.49921 0.16739 0.51467 0.0
H517 H 0.5146 0.2065 0.61133 0.0
H518 H 0.52908 0.20797 0.48651 0.0
H519 H 0.54433 0.24646 0.58148 0.0
H520 H 0.4829 0.13405 0.46608 0.0
H521 H 0.40851 0.09718 0.5111 0.0
H522 H 0.46307 0.12592 0.40837 0.0
H523 H 0.39 0.08993 0.45274 0.0
H524 H 0.52835 0.09691 0.4876 0.0
H525 H 0.57848 0.16911 0.53472 0.0
H526 H 0.43116 0.21263 0.55863 0.0
H527 H 0.45836 0.20313 0.46036 0.0
Li528 Li 0.51665 0.64705 0.94375 0.0
Li529 Li 0.54676 0.6919 0.94684 0.0
Li530 Li 0.53734 0.66947 0.89057 0.0
Li531 Li 0.56226 0.66241 0.93614 0.0
C532 C 0.49704 0.68015 0.93643 0.0
N533 N 0.46391 0.69192 0.96874 0.0
C534 C 0.49296 0.67651 0.97177 0.0
C535 C 0.48432 0.68984 0.91753 0.0
C536 C 0.47613 0.68256 0.98764 0.0
C537 C 0.46762 0.69564 0.93433 0.0
C538 C 0.55483 0.67055 0.00884 0.0
C539 C 0.59147 0.69016 0.04564 0.0
N540 N 0.57604 0.68279 0.07357 0.0
C541 C 0.53932 0.66286 0.03789 0.0
C542 C 0.58111 0.68404 0.0127 0.0
C543 C 0.5504 0.66936 0.0704 0.0
C544 C 0.49077 0.60313 0.98285 0.0
N545 N 0.48693 0.61907 0.96264 0.0
C546 C 0.44223 0.59453 0.97163 0.0
C547 C 0.46324 0.61498 0.95635 0.0
C548 C 0.4457 0.57784 0.99267 0.0
C549 C 0.47027 0.58213 0.99796 0.0
H550 H 0.50982 0.60677 0.98716 0.0
H551 H 0.46061 0.62758 0.93956 0.0
C552 C 0.56175 0.74375 0.94705 0.0
N553 N 0.55328 0.72308 0.96762 0.0
C554 C 0.56415 0.76627 0.95982 0.0
C555 C 0.54937 0.74594 0.01486 0.0
C556 C 0.54737 0.72388 0.00106 0.0
C557 C 0.55753 0.76747 0.99406 0.0
H558 H 0.56605 0.74253 0.92043 0.0
H559 H 0.54007 0.70712 0.01675 0.0
C560 C 0.51502 0.61418 0.89691 0.0
N561 N 0.47652 0.5671 0.87691 0.0
C562 C 0.51602 0.59245 0.90542 0.0
C563 C 0.49445 0.61199 0.87826 0.0
C564 C 0.49636 0.56881 0.89505 0.0
C565 C 0.47517 0.58801 0.86837 0.0
C566 C 0.59563 0.71218 0.90771 0.0
C567 C 0.608 0.71578 0.87626 0.0
C568 C 0.60884 0.72734 0.93575 0.0
C569 C 0.63355 0.73421 0.87357 0.0
C570 C 0.63437 0.74558 0.93201 0.0
N571 N 0.6461 0.74859 0.90127 0.0
C572 C 0.51927 0.67702 0.82596 0.0
C573 C 0.55079 0.66513 0.82423 0.0
C574 C 0.51862 0.67753 0.79007 0.0
N575 N 0.53529 0.67097 0.84213 0.0
C576 C 0.55095 0.66565 0.78846 0.0
C577 C 0.53477 0.67197 0.7709 0.0
H578 H 0.50702 0.6814 0.84091 0.0
H579 H 0.56304 0.66004 0.83787 0.0
C580 C 0.57777 0.62986 0.95956 0.0
N581 N 0.58692 0.65238 0.94312 0.0
C582 C 0.59237 0.61819 0.96215 0.0
C583 C 0.62625 0.65382 0.93254 0.0
C584 C 0.61082 0.66469 0.93016 0.0
C585 C 0.61687 0.62991 0.94799 0.0
H586 H 0.55864 0.62046 0.96943 0.0
H587 H 0.61773 0.68252 0.91707 0.0
O588 O 0.51379 0.67482 0.9204 0.0
O589 O 0.54421 0.66419 0.97689 0.0
O590 O 0.53363 0.63743 0.90776 0.0
O591 O 0.57059 0.69426 0.91068 0.0
H592 H 0.50268 0.66911 0.98683 0.0
H593 H 0.48737 0.69291 0.89018 0.0
H594 H 0.47281 0.67983 0.01497 0.0
H595 H 0.45764 0.70315 0.92002 0.0
H596 H 0.6118 0.70068 0.04901 0.0
H597 H 0.51892 0.6521 0.03532 0.0
H598 H 0.5934 0.68951 0.99058 0.0
H599 H 0.53863 0.6637 0.09311 0.0
H600 H 0.42346 0.59156 0.96669 0.0
H601 H 0.4736 0.56959 0.01404 0.0
H602 H 0.57077 0.78243 0.9429 0.0
H603 H 0.54354 0.74571 0.04115 0.0
H604 H 0.53174 0.5938 0.91999 0.0
H605 H 0.49319 0.6286 0.87193 0.0
H606 H 0.49686 0.55181 0.9015 0.0
H607 H 0.45908 0.58602 0.85404 0.0
H608 H 0.59802 0.7044 0.8542 0.0
H609 H 0.59949 0.72523 0.96007 0.0
H610 H 0.64339 0.7371 0.84943 0.0
H611 H 0.64483 0.7574 0.95353 0.0
H612 H 0.50591 0.68254 0.77746 0.0
H613 H 0.56337 0.66082 0.77468 0.0
H614 H 0.58396 0.5996 0.97374 0.0
H615 H 0.64511 0.6638 0.92171 0.0
Li616 Li 0.87021 0.51629 0.44378 0.0
Li617 Li 0.85548 0.54642 0.44685 0.0
Li618 Li 0.86853 0.53701 0.3906 0.0
Li619 Li 0.90047 0.56192 0.43616 0.0
C620 C 0.81752 0.4967 0.43644 0.0
N621 N 0.77263 0.46357 0.46877 0.0
C622 C 0.81708 0.49265 0.47179 0.0
C623 C 0.79511 0.48395 0.41754 0.0
C624 C 0.79421 0.47581 0.48766 0.0
C625 C 0.77261 0.46725 0.43435 0.0
C626 C 0.8849 0.55455 0.50882 0.0
C627 C 0.90188 0.59128 0.54546 0.0
N628 N 0.89389 0.57591 0.57345 0.0
C629 C 0.87715 0.53911 0.53794 0.0
C630 C 0.89763 0.58084 0.51256 0.0
C631 C 0.88175 0.55027 0.5704 0.0
C632 C 0.88829 0.4904 0.48277 0.0
N633 N 0.86848 0.48657 0.46265 0.0
C634 C 0.84829 0.44187 0.47171 0.0
C635 C 0.84884 0.46288 0.45643 0.0
C636 C 0.86849 0.44534 0.49266 0.0
C637 C 0.88881 0.46991 0.49788 0.0
H638 H 0.90373 0.50946 0.48702 0.0
H639 H 0.83358 0.46024 0.4397 0.0
C640 C 0.81862 0.56141 0.44704 0.0
N641 N 0.83082 0.55295 0.46762 0.0
C642 C 0.7985 0.56382 0.45982 0.0
C643 C 0.80406 0.54905 0.51486 0.0
C644 C 0.82412 0.54704 0.50106 0.0
C645 C 0.79068 0.55721 0.49406 0.0
H646 H 0.82414 0.56571 0.42042 0.0
H647 H 0.83358 0.53975 0.51676 0.0
C648 C 0.9014 0.51468 0.39669 0.0
N649 N 0.9099 0.47624 0.37609 0.0
C650 C 0.92422 0.51572 0.40476 0.0
C651 C 0.88289 0.4941 0.3782 0.0
C652 C 0.92816 0.49609 0.39409 0.0
C653 C 0.88755 0.47486 0.368 0.0
C654 C 0.88415 0.5953 0.40763 0.0
C655 C 0.89309 0.60765 0.3762 0.0
C656 C 0.88213 0.60856 0.43556 0.0
C657 C 0.90028 0.63321 0.37341 0.0
C658 C 0.88949 0.6341 0.43173 0.0
N659 N 0.89837 0.6458 0.401 0.0
C660 C 0.84289 0.51903 0.32599 0.0
C661 C 0.88636 0.55036 0.32425 0.0
C662 C 0.84174 0.51838 0.29009 0.0
N663 N 0.86499 0.53496 0.34216 0.0
C664 C 0.88601 0.55052 0.28849 0.0
C665 C 0.86348 0.53444 0.27093 0.0
H666 H 0.82623 0.50685 0.34093 0.0
H667 H 0.90373 0.56254 0.3379 0.0
C668 C 0.94854 0.57729 0.4593 0.0
N669 N 0.93517 0.58655 0.44317 0.0
C670 C 0.97481 0.59185 0.4619 0.0
C671 C 0.97307 0.62596 0.43292 0.0
C672 C 0.94676 0.61055 0.43053 0.0
C673 C 0.98758 0.61646 0.44807 0.0
H674 H 0.93881 0.55808 0.46893 0.0
H675 H 0.93583 0.61756 0.4177 0.0
O676 O 0.8396 0.51345 0.42041 0.0
O677 O 0.88063 0.54386 0.47692 0.0
O678 O 0.89683 0.53327 0.40784 0.0
O679 O 0.87696 0.57025 0.4107 0.0
H680 H 0.8342 0.50239 0.48684 0.0
H681 H 0.79509 0.48698 0.39018 0.0
H682 H 0.79362 0.47251 0.51501 0.0
H683 H 0.75513 0.45725 0.42004 0.0
H684 H 0.91164 0.61161 0.54874 0.0
H685 H 0.86756 0.51871 0.53546 0.0
H686 H 0.90439 0.59308 0.49038 0.0
H687 H 0.87569 0.53856 0.59316 0.0
H688 H 0.83247 0.4231 0.46683 0.0
H689 H 0.9047 0.47324 0.51389 0.0
H690 H 0.78896 0.57043 0.44288 0.0
H691 H 0.79846 0.54323 0.54116 0.0
H692 H 0.93869 0.53144 0.41921 0.0
H693 H 0.86496 0.49282 0.37222 0.0
H694 H 0.94572 0.49661 0.40019 0.0
H695 H 0.87336 0.45877 0.35378 0.0
H696 H 0.89456 0.59764 0.35423 0.0
H697 H 0.87477 0.59924 0.45986 0.0
H698 H 0.90735 0.64303 0.34929 0.0
H699 H 0.88807 0.6446 0.45315 0.0
H700 H 0.82399 0.50574 0.27749 0.0
H701 H 0.90329 0.56287 0.2747 0.0
H702 H 0.98499 0.58336 0.47324 0.0
H703 H 0.98194 0.64489 0.42235 0.0
Li704 Li 0.35453 0.86992 0.94375 0.0
Li705 Li 0.30969 0.85518 0.94684 0.0
Li706 Li 0.33211 0.86818 0.89056 0.0
Li707 Li 0.33917 0.90017 0.93614 0.0
C708 C 0.32144 0.8172 0.93643 0.0
N709 N 0.30967 0.77231 0.96874 0.0
C710 C 0.32508 0.81676 0.97178 0.0
C711 C 0.31175 0.7948 0.91753 0.0
C712 C 0.31904 0.79389 0.98763 0.0
C713 C 0.30594 0.77229 0.93433 0.0
C714 C 0.33106 0.88459 0.00885 0.0
C715 C 0.3115 0.90165 0.04573 0.0
N716 N 0.31887 0.89355 0.07362 0.0
C717 C 0.33875 0.87675 0.03788 0.0
C718 C 0.31759 0.89741 0.01277 0.0
C719 C 0.33228 0.88133 0.07041 0.0
C720 C 0.39844 0.88795 0.9829 0.0
N721 N 0.38251 0.86819 0.96264 0.0
C722 C 0.40706 0.84803 0.97161 0.0
C723 C 0.38661 0.84859 0.95632 0.0
C724 C 0.42374 0.86818 0.99267 0.0
C725 C 0.41944 0.88845 0.998 0.0
H726 H 0.39479 0.90335 0.98723 0.0
H727 H 0.37403 0.83338 0.93951 0.0
C728 C 0.25784 0.81831 0.94704 0.0
N729 N 0.27851 0.83051 0.96762 0.0
C730 C 0.23532 0.79819 0.95982 0.0
C731 C 0.25565 0.80375 0.01486 0.0
C732 C 0.27771 0.8238 0.00106 0.0
C733 C 0.23411 0.79037 0.99406 0.0
H734 H 0.25906 0.82383 0.92042 0.0
H735 H 0.29447 0.83327 0.01676 0.0
C736 C 0.38743 0.90119 0.89703 0.0
N737 N 0.4346 0.90983 0.87731 0.0
C738 C 0.40914 0.92388 0.90575 0.0
C739 C 0.38969 0.88287 0.8783 0.0
C740 C 0.43282 0.9279 0.89553 0.0
C741 C 0.41371 0.88761 0.86856 0.0
C742 C 0.28937 0.88372 0.90774 0.0
C743 C 0.28569 0.89241 0.87628 0.0
C744 C 0.27427 0.88182 0.93582 0.0
C745 C 0.26723 0.89949 0.87361 0.0
C746 C 0.256 0.88906 0.93212 0.0
N747 N 0.2529 0.8977 0.90136 0.0
C748 C 0.3246 0.84256 0.82595 0.0
C749 C 0.3364 0.88595 0.82423 0.0
C750 C 0.32409 0.84141 0.79006 0.0
N751 N 0.3306 0.86462 0.84213 0.0
C752 C 0.33588 0.8856 0.78846 0.0
C753 C 0.32961 0.86311 0.7709 0.0
H754 H 0.32026 0.82594 0.84089 0.0
H755 H 0.34146 0.90329 0.83788 0.0
C756 C 0.37163 0.94822 0.95971 0.0
N757 N 0.34918 0.93485 0.94311 0.0
C758 C 0.38329 0.97449 0.96229 0.0
C759 C 0.34778 0.97274 0.93234 0.0
C760 C 0.33692 0.94644 0.92997 0.0
C761 C 0.37162 0.98726 0.94795 0.0
H762 H 0.381 0.93849 0.96971 0.0
H763 H 0.31915 0.93552 0.91674 0.0
O764 O 0.32678 0.83929 0.92041 0.0
O765 O 0.3374 0.88034 0.97688 0.0
O766 O 0.36415 0.89652 0.90774 0.0
O767 O 0.30732 0.87664 0.91068 0.0
H768 H 0.33249 0.83388 0.98683 0.0
H769 H 0.30867 0.79478 0.89018 0.0
H770 H 0.32177 0.79329 0.01497 0.0
H771 H 0.29843 0.75481 0.92002 0.0
H772 H 0.30101 0.91147 0.04913 0.0
H773 H 0.34949 0.86709 0.03527 0.0
H774 H 0.31213 0.90426 0.99067 0.0
H775 H 0.33794 0.8752 0.09309 0.0
H776 H 0.41006 0.83225 0.96664 0.0
H777 H 0.43196 0.9043 0.01411 0.0
H778 H 0.21916 0.78865 0.94289 0.0
H779 H 0.25587 0.79815 0.04115 0.0
H780 H 0.40773 0.9382 0.92038 0.0
H781 H 0.3731 0.86504 0.87181 0.0
H782 H 0.44979 0.94536 0.90214 0.0
H783 H 0.41575 0.87356 0.85418 0.0
H784 H 0.29703 0.89379 0.85418 0.0
H785 H 0.27644 0.87462 0.96015 0.0
H786 H 0.26427 0.90638 0.84947 0.0
H787 H 0.24421 0.88773 0.95367 0.0
H788 H 0.31911 0.8237 0.77745 0.0
H789 H 0.34069 0.90285 0.77468 0.0
H790 H 0.40183 0.98467 0.97401 0.0
H791 H 0.33783 0.98161 0.92137 0.0
Li792 Li 0.48526 0.35422 0.44375 0.0
Li793 Li 0.45515 0.30938 0.44684 0.0
Li794 Li 0.46457 0.33181 0.39057 0.0
Li795 Li 0.43965 0.33886 0.43614 0.0
C796 C 0.50487 0.32112 0.43643 0.0
N797 N 0.538 0.30936 0.46875 0.0
C798 C 0.50895 0.32476 0.47178 0.0
C799 C 0.51759 0.31144 0.41753 0.0
C800 C 0.52578 0.31872 0.48764 0.0
C801 C 0.53429 0.30564 0.43433 0.0
C802 C 0.44707 0.33072 0.50883 0.0
C803 C 0.41041 0.31108 0.54561 0.0
N804 N 0.42584 0.31845 0.57354 0.0
C805 C 0.46257 0.33841 0.53789 0.0
C806 C 0.42078 0.31721 0.51267 0.0
C807 C 0.45147 0.33189 0.57039 0.0
C808 C 0.51115 0.39815 0.48283 0.0
N809 N 0.51498 0.38221 0.46264 0.0
C810 C 0.55968 0.40674 0.47165 0.0
C811 C 0.53868 0.38629 0.45636 0.0
C812 C 0.55622 0.42344 0.49267 0.0
C813 C 0.53164 0.41915 0.49794 0.0
H814 H 0.49209 0.39452 0.48713 0.0
H815 H 0.54131 0.37369 0.43958 0.0
C816 C 0.44016 0.25752 0.44704 0.0
N817 N 0.44863 0.27819 0.46762 0.0
C818 C 0.43776 0.235 0.45982 0.0
C819 C 0.45254 0.25534 0.51485 0.0
C820 C 0.45454 0.27739 0.50106 0.0
C821 C 0.44438 0.2338 0.49406 0.0
H822 H 0.43586 0.25874 0.42042 0.0
H823 H 0.46184 0.29416 0.51675 0.0
C824 C 0.48689 0.38708 0.39686 0.0
N825 N 0.52538 0.43414 0.37674 0.0
C826 C 0.48589 0.40882 0.40528 0.0
C827 C 0.50747 0.38924 0.37824 0.0
C828 C 0.50554 0.43245 0.39486 0.0
C829 C 0.52674 0.41321 0.36829 0.0
C830 C 0.40628 0.28911 0.40769 0.0
C831 C 0.39391 0.28554 0.37625 0.0
C832 C 0.39306 0.27393 0.43571 0.0
C833 C 0.36836 0.26712 0.37354 0.0
C834 C 0.36753 0.2557 0.43196 0.0
N835 N 0.3558 0.25272 0.40123 0.0
C836 C 0.48263 0.32424 0.32597 0.0
C837 C 0.45114 0.33617 0.32423 0.0
C838 C 0.48328 0.32374 0.29007 0.0
N839 N 0.46662 0.33031 0.34213 0.0
C840 C 0.45097 0.33565 0.28846 0.0
C841 C 0.46714 0.32931 0.2709 0.0
H842 H 0.49487 0.31985 0.34091 0.0
H843 H 0.43889 0.34128 0.33787 0.0
C844 C 0.42417 0.37144 0.45951 0.0
N845 N 0.415 0.3489 0.44313 0.0
C846 C 0.40958 0.38313 0.46209 0.0
C847 C 0.37565 0.34745 0.43261 0.0
C848 C 0.39108 0.33657 0.43023 0.0
C849 C 0.38506 0.37138 0.448 0.0
H850 H 0.44332 0.38086 0.46933 0.0
H851 H 0.38415 0.31872 0.41719 0.0
O852 O 0.48812 0.32646 0.4204 0.0
O853 O 0.4577 0.33708 0.47689 0.0
O854 O 0.46828 0.36385 0.40777 0.0
O855 O 0.43132 0.30701 0.41068 0.0
H856 H 0.49922 0.33216 0.48683 0.0
H857 H 0.51455 0.30837 0.39018 0.0
H858 H 0.52909 0.32144 0.51498 0.0
H859 H 0.54428 0.29813 0.42002 0.0
H860 H 0.39009 0.30056 0.54896 0.0
H861 H 0.48296 0.34917 0.53534 0.0
H862 H 0.40851 0.31174 0.49054 0.0
H863 H 0.46323 0.33756 0.59311 0.0
H864 H 0.57846 0.40971 0.46672 0.0
H865 H 0.52831 0.4317 0.51401 0.0
H866 H 0.43114 0.21884 0.44289 0.0
H867 H 0.45837 0.25556 0.54115 0.0
H868 H 0.47016 0.40749 0.41983 0.0
H869 H 0.50873 0.37263 0.37199 0.0
H870 H 0.50504 0.44946 0.40123 0.0
H871 H 0.54282 0.41518 0.35399 0.0
H872 H 0.40389 0.29694 0.35421 0.0
H873 H 0.40241 0.27601 0.46003 0.0
H874 H 0.35852 0.26426 0.34941 0.0
H875 H 0.35706 0.24386 0.45346 0.0
H876 H 0.49597 0.31871 0.27746 0.0
H877 H 0.43856 0.3405 0.27468 0.0
H878 H 0.41801 0.40173 0.47363 0.0
H879 H 0.35677 0.33745 0.42184 0.0
Li880 Li 0.13169 0.48498 0.94377 0.0
Li881 Li 0.14642 0.45486 0.94685 0.0
Li882 Li 0.13339 0.46427 0.8906 0.0
Li883 Li 0.10144 0.43936 0.93616 0.0
C884 C 0.18439 0.50457 0.93644 0.0
N885 N 0.22928 0.53771 0.96877 0.0
C886 C 0.18483 0.50864 0.97179 0.0
C887 C 0.20679 0.51732 0.91754 0.0
C888 C 0.2077 0.52547 0.98766 0.0
C889 C 0.2293 0.53402 0.93435 0.0
C890 C 0.117 0.44674 0.00882 0.0
C891 C 0.10001 0.41002 0.0455 0.0
N892 N 0.10803 0.42541 0.07348 0.0
C893 C 0.12477 0.46219 0.03793 0.0
C894 C 0.10427 0.42045 0.0126 0.0
C895 C 0.12018 0.45105 0.0704 0.0
C896 C 0.11362 0.51087 0.98279 0.0
N897 N 0.13343 0.5147 0.96264 0.0
C898 C 0.15361 0.5594 0.9717 0.0
C899 C 0.15306 0.53839 0.95642 0.0
C900 C 0.13342 0.55593 0.99266 0.0
C901 C 0.11311 0.53136 0.99789 0.0
H902 H 0.09819 0.49181 0.98704 0.0
H903 H 0.16831 0.54103 0.93967 0.0
C904 C 0.18329 0.43987 0.94704 0.0
N905 N 0.17109 0.44833 0.96762 0.0
C906 C 0.2034 0.43746 0.95982 0.0
C907 C 0.19784 0.45222 0.01486 0.0
C908 C 0.17779 0.45423 0.00106 0.0
C909 C 0.21123 0.44407 0.99406 0.0
H910 H 0.17777 0.43557 0.92042 0.0
H911 H 0.16833 0.46153 0.01676 0.0
C912 C 0.10049 0.4866 0.89675 0.0
N913 N 0.09197 0.52505 0.87629 0.0
C914 C 0.07769 0.48557 0.90492 0.0
C915 C 0.11897 0.50717 0.87821 0.0
C916 C 0.07374 0.5052 0.89433 0.0
C917 C 0.1143 0.52642 0.86809 0.0
C918 C 0.11777 0.40598 0.90765 0.0
C919 C 0.10888 0.39363 0.87621 0.0
C920 C 0.11978 0.39272 0.9356 0.0
C921 C 0.10171 0.36807 0.87344 0.0
C922 C 0.11243 0.36719 0.93178 0.0
N923 N 0.1036 0.35548 0.90106 0.0
C924 C 0.15902 0.48226 0.82599 0.0
C925 C 0.11556 0.4509 0.82425 0.0
C926 C 0.16018 0.48291 0.79009 0.0
N927 N 0.13693 0.46632 0.84215 0.0
C928 C 0.11591 0.45073 0.78848 0.0
C929 C 0.13844 0.46684 0.77092 0.0
H930 H 0.17568 0.49446 0.84093 0.0
H931 H 0.0982 0.4387 0.8379 0.0
C932 C 0.05336 0.42395 0.95937 0.0
N933 N 0.06674 0.41472 0.94316 0.0
C934 C 0.0271 0.40938 0.96196 0.0
C935 C 0.02884 0.37533 0.93284 0.0
C936 C 0.05515 0.39074 0.93045 0.0
C937 C 0.01433 0.3848 0.94805 0.0
H938 H 0.0631 0.44314 0.96905 0.0
H939 H 0.06608 0.38375 0.91755 0.0
O940 O 0.16231 0.48782 0.92041 0.0
O941 O 0.12127 0.45741 0.97691 0.0
O942 O 0.10508 0.468 0.90783 0.0
O943 O 0.12495 0.43102 0.9107 0.0
H944 H 0.16771 0.4989 0.98684 0.0
H945 H 0.20682 0.51428 0.89018 0.0
H946 H 0.20829 0.52877 0.015 0.0
H947 H 0.24678 0.54401 0.92004 0.0
H948 H 0.09025 0.3897 0.0488 0.0
H949 H 0.13437 0.48259 0.03543 0.0
H950 H 0.09749 0.4082 0.99043 0.0
H951 H 0.12624 0.46277 0.09315 0.0
H952 H 0.16942 0.57817 0.9668 0.0
H953 H 0.09722 0.52803 0.01391 0.0
H954 H 0.21295 0.43084 0.94289 0.0
H955 H 0.20345 0.45805 0.04116 0.0
H956 H 0.06324 0.46984 0.9194 0.0
H957 H 0.13689 0.50845 0.87215 0.0
H958 H 0.0562 0.50469 0.90051 0.0
H959 H 0.12847 0.54251 0.85384 0.0
H960 H 0.10742 0.40363 0.85422 0.0
H961 H 0.12711 0.40206 0.95991 0.0
H962 H 0.09466 0.35825 0.84931 0.0
H963 H 0.11384 0.3567 0.95323 0.0
H964 H 0.17792 0.49556 0.77748 0.0
H965 H 0.09864 0.43837 0.7747 0.0
H966 H 0.01692 0.41785 0.97336 0.0
H967 H 0.01997 0.35641 0.9222 0.0
Li968 Li 0.69222 0.1461 0.44684 0.0
Li969 Li 0.64738 0.13136 0.44375 0.0
Li970 Li 0.66274 0.10111 0.43614 0.0
Li971 Li 0.6698 0.13309 0.39056 0.0
C972 C 0.67086 0.11668 0.50885 0.0
N973 N 0.68307 0.10772 0.5736 0.0
C974 C 0.66317 0.12452 0.53788 0.0
C975 C 0.68434 0.10388 0.51274 0.0
C976 C 0.66966 0.11994 0.5704 0.0
C977 C 0.69045 0.09964 0.54569 0.0
C978 C 0.68047 0.18407 0.43643 0.0
C979 C 0.69596 0.22898 0.43433 0.0
N980 N 0.69224 0.22897 0.46874 0.0
C981 C 0.67683 0.18452 0.47178 0.0
C982 C 0.69016 0.20648 0.41753 0.0
C983 C 0.68287 0.20739 0.48764 0.0
C984 C 0.74407 0.18297 0.44704 0.0
N985 N 0.72341 0.17076 0.46762 0.0
C986 C 0.74626 0.19752 0.51486 0.0
C987 C 0.7242 0.17747 0.50106 0.0
C988 C 0.7678 0.2109 0.49406 0.0
C989 C 0.76659 0.20308 0.45982 0.0
H990 H 0.74286 0.17745 0.42042 0.0
H991 H 0.70744 0.16801 0.51675 0.0
C992 C 0.60347 0.11333 0.48288 0.0
N993 N 0.6194 0.13309 0.46264 0.0
C994 C 0.58247 0.11282 0.49799 0.0
C995 C 0.59485 0.15325 0.47161 0.0
C996 C 0.6153 0.15269 0.45633 0.0
C997 C 0.57817 0.1331 0.49267 0.0
H998 H 0.60712 0.09792 0.48721 0.0
H999 H 0.62789 0.16791 0.43952 0.0
C1000 C 0.71253 0.11754 0.40772 0.0
N1001 N 0.74898 0.10353 0.40132 0.0
C1002 C 0.71618 0.10882 0.37627 0.0
C1003 C 0.72765 0.11946 0.43579 0.0
C1004 C 0.73463 0.10173 0.37358 0.0
C1005 C 0.74591 0.1122 0.43207 0.0
C1006 C 0.61449 0.1001 0.39699 0.0
C1007 C 0.59277 0.07739 0.40564 0.0
C1008 C 0.61226 0.11844 0.37829 0.0
C1009 C 0.56911 0.07338 0.39537 0.0
C1010 C 0.58825 0.11371 0.3685 0.0
N1011 N 0.56735 0.09148 0.37717 0.0
C1012 C 0.63025 0.05305 0.45966 0.0
C1013 C 0.665 0.05483 0.43004 0.0
C1014 C 0.61859 0.02679 0.46224 0.0
N1015 N 0.65272 0.06642 0.44311 0.0
C1016 C 0.65414 0.02853 0.4324 0.0
C1017 C 0.63028 0.01401 0.44797 0.0
H1018 H 0.62087 0.06279 0.46962 0.0
H1019 H 0.68279 0.06576 0.41685 0.0
C1020 C 0.67733 0.15871 0.32596 0.0
N1021 N 0.6713 0.13665 0.34213 0.0
C1022 C 0.67783 0.15986 0.29006 0.0
C1023 C 0.666 0.11567 0.28846 0.0
C1024 C 0.66548 0.11532 0.32423 0.0
C1025 C 0.67229 0.13816 0.2709 0.0
H1026 H 0.68169 0.17534 0.3409 0.0
H1027 H 0.66041 0.09797 0.33788 0.0
O1028 O 0.66452 0.12094 0.47689 0.0
O1029 O 0.67514 0.16199 0.42041 0.0
O1030 O 0.69459 0.12464 0.41068 0.0
O1031 O 0.63776 0.10475 0.40775 0.0
H1032 H 0.65242 0.13416 0.53529 0.0
H1033 H 0.6898 0.09704 0.49063 0.0
H1034 H 0.66399 0.12606 0.5931 0.0
H1035 H 0.70095 0.08982 0.54908 0.0
H1036 H 0.70347 0.24647 0.42002 0.0
H1037 H 0.66943 0.16739 0.48683 0.0
H1038 H 0.69323 0.2065 0.39018 0.0
H1039 H 0.68015 0.20798 0.51498 0.0
H1040 H 0.74604 0.20313 0.54115 0.0
H1041 H 0.78276 0.21263 0.44289 0.0
H1042 H 0.56994 0.09697 0.51409 0.0
H1043 H 0.59186 0.16903 0.46665 0.0
H1044 H 0.70482 0.10743 0.35418 0.0
H1045 H 0.72551 0.12667 0.46012 0.0
H1046 H 0.73756 0.09481 0.34945 0.0
H1047 H 0.75771 0.11354 0.4536 0.0
H1048 H 0.59416 0.06305 0.42025 0.0
H1049 H 0.62885 0.13629 0.37185 0.0
H1050 H 0.55212 0.05591 0.40192 0.0
H1051 H 0.58622 0.12777 0.35414 0.0
H1052 H 0.60003 0.0166 0.47392 0.0
H1053 H 0.6641 0.01966 0.42148 0.0
H1054 H 0.68282 0.17758 0.27745 0.0
H1055 H 0.66118 0.09841 0.27468 0.0
Li1056 Li 0.6468 0.51354 0.93937 0.0
Li1057 Li 0.66296 0.56083 0.93294 0.0
Li1058 Li 0.67028 0.53711 0.88909 0.0
Li1059 Li 0.69414 0.54652 0.94107 0.0
C1060 C 0.62329 0.52498 0.87668 0.0
N1061 N 0.59701 0.51189 0.81541 0.0
C1062 C 0.62416 0.54375 0.85521 0.0
C1063 C 0.60897 0.49956 0.86712 0.0
C1064 C 0.61079 0.53674 0.82428 0.0
C1065 C 0.59581 0.49332 0.83603 0.0
C1066 C 0.66491 0.54875 0.00522 0.0
C1067 C 0.68325 0.57681 0.05357 0.0
N1068 N 0.66159 0.5626 0.07168 0.0
C1069 C 0.64292 0.53429 0.02442 0.0
C1070 C 0.68533 0.57008 0.01997 0.0
C1071 C 0.64158 0.54166 0.05793 0.0
C1072 C 0.62471 0.46659 0.97543 0.0
N1073 N 0.62029 0.48369 0.95909 0.0
C1074 C 0.57648 0.46036 0.97381 0.0
C1075 C 0.5968 0.48093 0.95788 0.0
C1076 C 0.5804 0.44252 0.99151 0.0
C1077 C 0.60487 0.44567 0.99186 0.0
H1078 H 0.6437 0.46948 0.97625 0.0
H1079 H 0.59394 0.49499 0.94493 0.0
C1080 C 0.65707 0.60256 0.91623 0.0
N1081 N 0.65302 0.58552 0.9414 0.0
C1082 C 0.64638 0.61814 0.91852 0.0
C1083 C 0.62891 0.59947 0.97363 0.0
C1084 C 0.63955 0.58398 0.96997 0.0
C1085 C 0.63149 0.61629 0.94718 0.0
H1086 H 0.66761 0.60319 0.89356 0.0
H1087 H 0.63606 0.57002 0.98935 0.0
C1088 C 0.68274 0.50038 0.89522 0.0
N1089 N 0.6965 0.47475 0.8496 0.0
C1090 C 0.70553 0.51334 0.8772 0.0
C1091 C 0.667 0.47438 0.89026 0.0
C1092 C 0.71212 0.50005 0.85417 0.0
C1093 C 0.67429 0.46176 0.86703 0.0
C1094 C 0.71577 0.59418 0.91148 0.0
C1095 C 0.73591 0.60267 0.88835 0.0
C1096 C 0.7174 0.60948 0.93915 0.0
C1097 C 0.75753 0.62623 0.89359 0.0
C1098 C 0.73933 0.63294 0.9435 0.0
N1099 N 0.75878 0.64075 0.92084 0.0
C1100 C 0.68334 0.55716 0.82268 0.0
C1101 C 0.66106 0.51231 0.82307 0.0
C1102 C 0.68399 0.55743 0.78689 0.0
N1103 N 0.67195 0.53484 0.84002 0.0
C1104 C 0.6615 0.5117 0.78723 0.0
C1105 C 0.67286 0.53449 0.76869 0.0
H1106 H 0.69143 0.5748 0.83668 0.0
H1107 H 0.65143 0.49479 0.83726 0.0
C1108 C 0.72384 0.54544 0.99556 0.0
N1109 N 0.72494 0.55289 0.96242 0.0
C1110 C 0.74528 0.5475 0.01154 0.0
C1111 C 0.76862 0.56462 0.95891 0.0
C1112 C 0.74677 0.56246 0.94404 0.0
C1113 C 0.76796 0.55687 0.99301 0.0
H1114 H 0.70609 0.53713 0.00929 0.0
H1115 H 0.74708 0.56772 0.91753 0.0
O1116 O 0.63681 0.5315 0.90659 0.0
O1117 O 0.66651 0.54175 0.97237 0.0
O1118 O 0.67586 0.51303 0.91775 0.0
O1119 O 0.69454 0.5711 0.9067 0.0
H1120 H 0.63528 0.56351 0.86214 0.0
H1121 H 0.60833 0.48482 0.88328 0.0
H1122 H 0.61143 0.55107 0.80728 0.0
H1123 H 0.58476 0.47373 0.82819 0.0
H1124 H 0.69889 0.59329 0.06529 0.0
H1125 H 0.62698 0.51766 0.01348 0.0
H1126 H 0.7027 0.58117 0.00581 0.0
H1127 H 0.62462 0.53073 0.07301 0.0
H1128 H 0.5579 0.4585 0.97234 0.0
H1129 H 0.60879 0.43253 0.00546 0.0
H1130 H 0.64869 0.63047 0.89719 0.0
H1131 H 0.61805 0.59763 0.99651 0.0
H1132 H 0.71777 0.53351 0.88056 0.0
H1133 H 0.64929 0.46411 0.90406 0.0
H1134 H 0.72962 0.50986 0.83985 0.0
H1135 H 0.66228 0.44165 0.86282 0.0
H1136 H 0.73492 0.59105 0.86675 0.0
H1137 H 0.70191 0.60339 0.95704 0.0
H1138 H 0.77331 0.63297 0.876 0.0
H1139 H 0.74086 0.64495 0.96487 0.0
H1140 H 0.69302 0.57542 0.77357 0.0
H1141 H 0.65233 0.49361 0.77416 0.0
H1142 H 0.74381 0.54083 0.03765 0.0
H1143 H 0.78574 0.57194 0.94374 0.0
Li1144 Li 0.1338 0.66997 0.3891 0.0
Li1145 Li 0.14824 0.69382 0.44108 0.0
Li1146 Li 0.1339 0.64648 0.43937 0.0
Li1147 Li 0.10277 0.66263 0.43296 0.0
C1148 C 0.18296 0.68239 0.3952 0.0
N1149 N 0.22231 0.6961 0.34951 0.0
C1150 C 0.19281 0.70518 0.37717 0.0
C1151 C 0.1932 0.66663 0.39021 0.0
C1152 C 0.21267 0.71175 0.3541 0.0
C1153 C 0.21308 0.67389 0.36694 0.0
C1154 C 0.12221 0.71545 0.41151 0.0
C1155 C 0.107 0.739 0.44353 0.0
N1156 N 0.11866 0.75846 0.42088 0.0
C1157 C 0.13388 0.73559 0.3884 0.0
C1158 C 0.10853 0.71707 0.43917 0.0
C1159 C 0.13194 0.75722 0.39365 0.0
C1160 C 0.12688 0.68309 0.32271 0.0
N1161 N 0.13775 0.67164 0.34004 0.0
C1162 C 0.15039 0.66114 0.28725 0.0
C1163 C 0.14933 0.66069 0.32309 0.0
C1164 C 0.13903 0.67257 0.26871 0.0
C1165 C 0.12728 0.68376 0.28691 0.0
H1166 H 0.11738 0.69124 0.3367 0.0
H1167 H 0.15717 0.65101 0.33728 0.0
C1168 C 0.17903 0.72352 0.49556 0.0
N1169 N 0.17267 0.72462 0.46243 0.0
C1170 C 0.1984 0.74496 0.51154 0.0
C1171 C 0.20461 0.7683 0.45891 0.0
C1172 C 0.18493 0.74645 0.44405 0.0
C1173 C 0.21172 0.76764 0.49301 0.0
H1174 H 0.16958 0.70577 0.5093 0.0
H1175 H 0.17998 0.74675 0.41753 0.0
C1176 C 0.09887 0.623 0.37668 0.0
N1177 N 0.08555 0.59677 0.31537 0.0
C1178 C 0.081 0.62397 0.35526 0.0
C1179 C 0.10987 0.60859 0.36704 0.0
C1180 C 0.07457 0.61062 0.32431 0.0
C1181 C 0.10288 0.59546 0.33593 0.0
C1182 C 0.11678 0.66458 0.50522 0.0
C1183 C 0.10925 0.64259 0.52443 0.0
C1184 C 0.11584 0.68498 0.51996 0.0
C1185 C 0.10053 0.64124 0.55794 0.0
C1186 C 0.10702 0.6829 0.55355 0.0
N1187 N 0.09958 0.66125 0.57167 0.0
C1188 C 0.15875 0.62437 0.47543 0.0
C1189 C 0.1165 0.59647 0.45784 0.0
C1190 C 0.15982 0.60453 0.49186 0.0
N1191 N 0.13724 0.61997 0.45907 0.0
C1192 C 0.11676 0.57615 0.47377 0.0
C1193 C 0.13849 0.58006 0.49149 0.0
H1194 H 0.17485 0.64337 0.47627 0.0
H1195 H 0.0996 0.59362 0.44488 0.0
C1196 C 0.05514 0.65686 0.41642 0.0
N1197 N 0.06812 0.65265 0.44145 0.0
C1198 C 0.02887 0.64615 0.41875 0.0
C1199 C 0.03006 0.62834 0.47358 0.0
C1200 C 0.05618 0.639 0.4699 0.0
C1201 C 0.01583 0.63109 0.44727 0.0
H1202 H 0.06505 0.66753 0.39384 0.0
H1203 H 0.06666 0.63539 0.48914 0.0
O1204 O 0.16347 0.67555 0.41776 0.0
O1205 O 0.12405 0.69421 0.40672 0.0
O1206 O 0.10595 0.63649 0.4066 0.0
O1207 O 0.1254 0.66618 0.47239 0.0
H1208 H 0.18491 0.71745 0.38055 0.0
H1209 H 0.18575 0.64892 0.40402 0.0
H1210 H 0.22037 0.72924 0.33978 0.0
H1211 H 0.22115 0.66185 0.36271 0.0
H1212 H 0.09652 0.74053 0.46489 0.0
H1213 H 0.14452 0.73462 0.36681 0.0
H1214 H 0.09912 0.70158 0.45704 0.0
H1215 H 0.141 0.77301 0.37608 0.0
H1216 H 0.15926 0.65192 0.27418 0.0
H1217 H 0.11838 0.69286 0.2736 0.0
H1218 H 0.20361 0.74349 0.53765 0.0
H1219 H 0.2144 0.78542 0.44374 0.0
H1220 H 0.07244 0.63515 0.36225 0.0
H1221 H 0.12395 0.60788 0.38315 0.0
H1222 H 0.0609 0.61134 0.30736 0.0
H1223 H 0.11134 0.58435 0.32803 0.0
H1224 H 0.10996 0.62666 0.51351 0.0
H1225 H 0.12212 0.70236 0.5058 0.0
H1226 H 0.09451 0.62429 0.57302 0.0
H1227 H 0.10617 0.69854 0.56526 0.0
H1228 H 0.17688 0.60845 0.50548 0.0
H1229 H 0.10003 0.55757 0.47229 0.0
H1230 H 0.01885 0.64859 0.39752 0.0
H1231 H 0.02104 0.61733 0.49635 0.0
Li1232 Li 0.48803 0.13355 0.93936 0.0
Li1233 Li 0.44075 0.10244 0.93291 0.0
Li1234 Li 0.46447 0.13346 0.88907 0.0
Li1235 Li 0.45507 0.14793 0.94105 0.0
C1236 C 0.47664 0.09864 0.87667 0.0
N1237 N 0.48984 0.08554 0.81542 0.0
C1238 C 0.45792 0.08073 0.85516 0.0
C1239 C 0.50208 0.10979 0.86715 0.0
C1240 C 0.46498 0.07441 0.82425 0.0
C1241 C 0.50837 0.10291 0.83607 0.0
C1242 C 0.45286 0.11651 0.00522 0.0
C1243 C 0.4249 0.10693 0.05366 0.0
N1244 N 0.43909 0.09944 0.07174 0.0
C1245 C 0.4673 0.10893 0.02438 0.0
C1246 C 0.43159 0.11569 0.02004 0.0
C1247 C 0.45997 0.10027 0.05793 0.0
C1248 C 0.53498 0.1584 0.97542 0.0
N1249 N 0.51788 0.13688 0.95909 0.0
C1250 C 0.54121 0.11641 0.97382 0.0
C1251 C 0.52064 0.11615 0.95788 0.0
C1252 C 0.55905 0.13816 0.99151 0.0
C1253 C 0.5559 0.15949 0.99186 0.0
H1254 H 0.53209 0.17451 0.97624 0.0
H1255 H 0.50658 0.09923 0.94494 0.0
C1256 C 0.39907 0.05481 0.9161 0.0
N1257 N 0.41603 0.0678 0.94136 0.0
C1258 C 0.38349 0.02854 0.91839 0.0
C1259 C 0.40196 0.02975 0.97366 0.0
C1260 C 0.41746 0.05588 0.97001 0.0
C1261 C 0.38524 0.01551 0.94713 0.0
H1262 H 0.39852 0.06471 0.89338 0.0
H1263 H 0.43135 0.06637 0.98947 0.0
C1264 C 0.50117 0.18267 0.89524 0.0
N1265 N 0.52672 0.22213 0.84968 0.0
C1266 C 0.48816 0.19248 0.87727 0.0
C1267 C 0.52718 0.193 0.89025 0.0
C1268 C 0.50141 0.21239 0.85426 0.0
C1269 C 0.53976 0.21294 0.86706 0.0
C1270 C 0.40738 0.12184 0.91149 0.0
C1271 C 0.39879 0.13339 0.88834 0.0
C1272 C 0.39216 0.10822 0.93925 0.0
C1273 C 0.3752 0.13138 0.89362 0.0
C1274 C 0.36867 0.10663 0.94364 0.0
N1275 N 0.36076 0.11816 0.92094 0.0
C1276 C 0.44444 0.12644 0.82267 0.0
C1277 C 0.48928 0.14909 0.82306 0.0
C1278 C 0.44417 0.12682 0.78687 0.0
N1279 N 0.46675 0.13742 0.84001 0.0
C1280 C 0.48989 0.15014 0.78722 0.0
C1281 C 0.46711 0.13867 0.76868 0.0
H1282 H 0.42679 0.11687 0.83666 0.0
H1283 H 0.50681 0.15702 0.83725 0.0
C1284 C 0.45628 0.1788 0.99548 0.0
N1285 N 0.44871 0.17237 0.9624 0.0
C1286 C 0.45421 0.19817 0.01147 0.0
C1287 C 0.43686 0.20423 0.95894 0.0
C1288 C 0.43903 0.18455 0.94407 0.0
C1289 C 0.44473 0.2114 0.993 0.0
H1290 H 0.46467 0.16941 0.00917 0.0
H1291 H 0.43368 0.17953 0.9176 0.0
O1292 O 0.47007 0.1056 0.90657 0.0
O1293 O 0.45982 0.12506 0.97235 0.0
O1294 O 0.48856 0.16312 0.91773 0.0
O1295 O 0.43049 0.12376 0.90667 0.0
H1296 H 0.43814 0.07204 0.86206 0.0
H1297 H 0.51678 0.12391 0.88333 0.0
H1298 H 0.45068 0.06071 0.80722 0.0
H1299 H 0.52797 0.1115 0.82826 0.0
H1300 H 0.40848 0.10618 0.06543 0.0
H1301 H 0.48387 0.10954 0.0134 0.0
H1302 H 0.42052 0.12201 0.00591 0.0
H1303 H 0.47088 0.09421 0.07298 0.0
H1304 H 0.54307 0.09968 0.97235 0.0
H1305 H 0.56904 0.17655 0.00545 0.0
H1306 H 0.37123 0.01851 0.897 0.0
H1307 H 0.40372 0.02075 0.9966 0.0
H1308 H 0.46799 0.18451 0.88064 0.0
H1309 H 0.53748 0.18558 0.90402 0.0
H1310 H 0.49157 0.22007 0.83998 0.0
H1311 H 0.55987 0.22108 0.86283 0.0
H1312 H 0.41035 0.14398 0.86667 0.0
H1313 H 0.39833 0.09891 0.95716 0.0
H1314 H 0.36839 0.14034 0.87601 0.0
H1315 H 0.35673 0.09619 0.96507 0.0
H1316 H 0.42617 0.11783 0.77355 0.0
H1317 H 0.50798 0.1591 0.77415 0.0
H1318 H 0.46096 0.20343 0.03754 0.0
H1319 H 0.42945 0.21396 0.94382 0.0
Li1320 Li 0.35511 0.48774 0.43936 0.0
Li1321 Li 0.33895 0.44046 0.43294 0.0
Li1322 Li 0.33163 0.46416 0.38908 0.0
Li1323 Li 0.30777 0.45475 0.44107 0.0
C1324 C 0.37861 0.47628 0.37668 0.0
N1325 N 0.40488 0.48933 0.3154 0.0
C1326 C 0.37773 0.4575 0.35522 0.0
C1327 C 0.39295 0.5017 0.3671 0.0
C1328 C 0.39109 0.46448 0.32429 0.0
C1329 C 0.40611 0.50792 0.336 0.0
C1330 C 0.337 0.45252 0.50521 0.0
C1331 C 0.31867 0.42445 0.55355 0.0
N1332 N 0.34032 0.43866 0.57167 0.0
C1333 C 0.35899 0.46699 0.52442 0.0
C1334 C 0.31659 0.43118 0.51995 0.0
C1335 C 0.36033 0.45961 0.55793 0.0
C1336 C 0.3772 0.53469 0.47543 0.0
N1337 N 0.38162 0.51759 0.45908 0.0
C1338 C 0.42543 0.54092 0.4738 0.0
C1339 C 0.40511 0.52035 0.45786 0.0
C1340 C 0.42151 0.55876 0.4915 0.0
C1341 C 0.39704 0.55561 0.49186 0.0
H1342 H 0.35821 0.5318 0.47625 0.0
H1343 H 0.40797 0.5063 0.44491 0.0
C1344 C 0.34482 0.39869 0.41626 0.0
N1345 N 0.34891 0.41576 0.44141 0.0
C1346 C 0.35551 0.38312 0.41856 0.0
C1347 C 0.37305 0.40185 0.47362 0.0
C1348 C 0.36241 0.41734 0.46995 0.0
C1349 C 0.37043 0.385 0.4472 0.0
H1350 H 0.33425 0.39804 0.39361 0.0
H1351 H 0.36592 0.43133 0.4893 0.0
C1352 C 0.31918 0.50089 0.39521 0.0
N1353 N 0.30542 0.52653 0.34958 0.0
C1354 C 0.29639 0.48794 0.37719 0.0
C1355 C 0.33491 0.5269 0.39025 0.0
C1356 C 0.2898 0.50123 0.35415 0.0
C1357 C 0.32763 0.53952 0.36702 0.0
C1358 C 0.28614 0.4071 0.41147 0.0
C1359 C 0.266 0.39862 0.38835 0.0
C1360 C 0.2845 0.39179 0.43913 0.0
C1361 C 0.24438 0.37506 0.39358 0.0
C1362 C 0.26257 0.36833 0.44347 0.0
N1363 N 0.24312 0.36053 0.42081 0.0
C1364 C 0.31857 0.44412 0.32268 0.0
C1365 C 0.34086 0.48897 0.32307 0.0
C1366 C 0.31792 0.44385 0.28688 0.0
N1367 N 0.32996 0.46644 0.34002 0.0
C1368 C 0.34042 0.48958 0.28723 0.0
C1369 C 0.32906 0.46679 0.26869 0.0
H1370 H 0.31047 0.42648 0.33667 0.0
H1371 H 0.35049 0.50649 0.33725 0.0
C1372 C 0.27807 0.45583 0.49555 0.0
N1373 N 0.27697 0.44838 0.46241 0.0
C1374 C 0.25663 0.45376 0.51154 0.0
C1375 C 0.23329 0.43666 0.4589 0.0
C1376 C 0.25514 0.43882 0.44403 0.0
C1377 C 0.23395 0.4444 0.49301 0.0
H1378 H 0.29582 0.46413 0.50929 0.0
H1379 H 0.25483 0.43356 0.41752 0.0
O1380 O 0.3651 0.46978 0.40659 0.0
O1381 O 0.3354 0.45953 0.47237 0.0
O1382 O 0.32605 0.48825 0.41774 0.0
O1383 O 0.30738 0.43018 0.40669 0.0
H1384 H 0.3666 0.43774 0.36216 0.0
H1385 H 0.3936 0.51645 0.38324 0.0
H1386 H 0.39044 0.45015 0.3073 0.0
H1387 H 0.41716 0.5275 0.32815 0.0
H1388 H 0.30303 0.40797 0.56526 0.0
H1389 H 0.37493 0.48362 0.51349 0.0
H1390 H 0.29922 0.42009 0.50579 0.0
H1391 H 0.37729 0.47054 0.57301 0.0
H1392 H 0.44401 0.54278 0.47233 0.0
H1393 H 0.39312 0.56875 0.50546 0.0
H1394 H 0.35317 0.37076 0.39725 0.0
H1395 H 0.38394 0.40373 0.49647 0.0
H1396 H 0.28415 0.46777 0.38054 0.0
H1397 H 0.35262 0.53716 0.40406 0.0
H1398 H 0.2723 0.49142 0.33983 0.0
H1399 H 0.33964 0.55963 0.3628 0.0
H1400 H 0.26699 0.41025 0.36675 0.0
H1401 H 0.29999 0.39787 0.45702 0.0
H1402 H 0.22859 0.36833 0.37599 0.0
H1403 H 0.26104 0.35632 0.46483 0.0
H1404 H 0.30888 0.42585 0.27357 0.0
H1405 H 0.34959 0.50767 0.27415 0.0
H1406 H 0.2581 0.46042 0.53766 0.0
H1407 H 0.21618 0.42934 0.44373 0.0
Li1408 Li 0.86801 0.35479 0.93937 0.0
Li1409 Li 0.89914 0.33864 0.93296 0.0
Li1410 Li 0.86811 0.33131 0.88911 0.0
Li1411 Li 0.85367 0.30746 0.94109 0.0
C1412 C 0.90302 0.37828 0.87668 0.0
N1413 N 0.91631 0.40452 0.81538 0.0
C1414 C 0.92089 0.37733 0.85525 0.0
C1415 C 0.892 0.39267 0.86706 0.0
C1416 C 0.92731 0.39068 0.82431 0.0
C1417 C 0.89898 0.40581 0.83596 0.0
C1418 C 0.88512 0.33669 0.00523 0.0
C1419 C 0.89487 0.31836 0.05357 0.0
N1420 N 0.90231 0.34002 0.07168 0.0
C1421 C 0.89265 0.35869 0.02443 0.0
C1422 C 0.88605 0.31628 0.01997 0.0
C1423 C 0.90138 0.36003 0.05794 0.0
C1424 C 0.84317 0.3769 0.97543 0.0
N1425 N 0.86468 0.38131 0.95908 0.0
C1426 C 0.88516 0.42512 0.97378 0.0
C1427 C 0.88541 0.40481 0.95785 0.0
C1428 C 0.86342 0.42122 0.9915 0.0
C1429 C 0.84209 0.39675 0.99187 0.0
H1430 H 0.82706 0.35791 0.97627 0.0
H1431 H 0.90232 0.40766 0.9449 0.0
C1432 C 0.94677 0.34444 0.91638 0.0
N1433 N 0.93379 0.34861 0.94144 0.0
C1434 C 0.97304 0.35514 0.9187 0.0
C1435 C 0.97185 0.37288 0.9736 0.0
C1436 C 0.94572 0.36222 0.96992 0.0
C1437 C 0.98608 0.37017 0.94726 0.0
H1438 H 0.93686 0.3338 0.89377 0.0
H1439 H 0.93525 0.3658 0.98919 0.0
C1440 C 0.81894 0.31888 0.8952 0.0
N1441 N 0.77959 0.30517 0.84953 0.0
C1442 C 0.8091 0.29609 0.87719 0.0
C1443 C 0.80871 0.33464 0.89022 0.0
C1444 C 0.78924 0.28952 0.85412 0.0
C1445 C 0.78882 0.32738 0.86696 0.0
C1446 C 0.8797 0.28583 0.91151 0.0
C1447 C 0.86804 0.26568 0.88841 0.0
C1448 C 0.89338 0.28421 0.93919 0.0
C1449 C 0.86999 0.24406 0.89366 0.0
C1450 C 0.89491 0.26228 0.94355 0.0
N1451 N 0.88326 0.24282 0.9209 0.0
C1452 C 0.87503 0.31819 0.82271 0.0
C1453 C 0.85257 0.34058 0.82309 0.0
C1454 C 0.87464 0.31752 0.78691 0.0
N1455 N 0.86416 0.32963 0.84004 0.0
C1456 C 0.85151 0.34013 0.78725 0.0
C1457 C 0.86288 0.3287 0.76871 0.0
H1458 H 0.88454 0.31005 0.8367 0.0
H1459 H 0.84473 0.35025 0.83728 0.0
C1460 C 0.82288 0.27776 0.99556 0.0
N1461 N 0.82923 0.27666 0.96243 0.0
C1462 C 0.8035 0.25632 0.01154 0.0
C1463 C 0.7973 0.23298 0.95891 0.0
C1464 C 0.81698 0.25483 0.94405 0.0
C1465 C 0.79019 0.23363 0.99301 0.0
H1466 H 0.83231 0.29551 0.0093 0.0
H1467 H 0.82193 0.25452 0.91754 0.0
O1468 O 0.89596 0.36478 0.9066 0.0
O1469 O 0.87652 0.3351 0.97239 0.0
O1470 O 0.83844 0.32573 0.91776 0.0
O1471 O 0.87785 0.30706 0.90672 0.0
H1472 H 0.92947 0.36616 0.86222 0.0
H1473 H 0.87792 0.39337 0.88319 0.0
H1474 H 0.94098 0.38998 0.80734 0.0
H1475 H 0.8905 0.41691 0.82807 0.0
H1476 H 0.8957 0.30272 0.06528 0.0
H1477 H 0.89196 0.37462 0.0135 0.0
H1478 H 0.87976 0.29891 0.00581 0.0
H1479 H 0.9074 0.37698 0.07302 0.0
H1480 H 0.90189 0.4437 0.9723 0.0
H1481 H 0.82504 0.39283 0.00547 0.0
H1482 H 0.98306 0.35274 0.89745 0.0
H1483 H 0.98087 0.38385 0.9964 0.0
H1484 H 0.817 0.28383 0.88056 0.0
H1485 H 0.81616 0.35235 0.90402 0.0
H1486 H 0.78153 0.27202 0.8398 0.0
H1487 H 0.78075 0.33941 0.86272 0.0
H1488 H 0.8574 0.26666 0.86681 0.0
H1489 H 0.90278 0.2997 0.95706 0.0
H1490 H 0.86093 0.22827 0.87608 0.0
H1491 H 0.90539 0.26076 0.96491 0.0
H1492 H 0.88355 0.30843 0.7736 0.0
H1493 H 0.84264 0.34934 0.77418 0.0
H1494 H 0.79829 0.25779 0.03765 0.0
H1495 H 0.78751 0.21586 0.94374 0.0
Li1496 Li 0.56116 0.89883 0.43291 0.0
Li1497 Li 0.51388 0.86772 0.43936 0.0
Li1498 Li 0.54684 0.85335 0.44105 0.0
Li1499 Li 0.53744 0.86781 0.38907 0.0
C1500 C 0.54905 0.88477 0.50522 0.0
N1501 N 0.56284 0.90186 0.57173 0.0
C1502 C 0.53461 0.89235 0.52439 0.0
C1503 C 0.57033 0.88561 0.52002 0.0
C1504 C 0.54195 0.90102 0.55793 0.0
C1505 C 0.57703 0.89438 0.55364 0.0
C1506 C 0.52528 0.90265 0.37667 0.0
C1507 C 0.49358 0.89841 0.33605 0.0
N1508 N 0.51212 0.91577 0.31541 0.0
C1509 C 0.54402 0.92055 0.35517 0.0
C1510 C 0.49985 0.89151 0.36714 0.0
C1511 C 0.53698 0.92689 0.32425 0.0
C1512 C 0.60286 0.94647 0.41614 0.0
N1513 N 0.58587 0.93347 0.44137 0.0
C1514 C 0.5999 0.97152 0.47365 0.0
C1515 C 0.5844 0.9454 0.47 0.0
C1516 C 0.61666 0.98576 0.44715 0.0
C1517 C 0.61844 0.97273 0.41843 0.0
H1518 H 0.60343 0.93656 0.39343 0.0
H1519 H 0.57049 0.93491 0.48943 0.0
C1520 C 0.46693 0.84287 0.47542 0.0
N1521 N 0.48403 0.86439 0.45909 0.0
C1522 C 0.44601 0.84178 0.49186 0.0
C1523 C 0.46069 0.88486 0.47382 0.0
C1524 C 0.48126 0.88512 0.45788 0.0
C1525 C 0.44286 0.86311 0.49151 0.0
H1526 H 0.46982 0.82676 0.47624 0.0
H1527 H 0.49532 0.90204 0.44493 0.0
C1528 C 0.59453 0.87943 0.41149 0.0
N1529 N 0.64114 0.88309 0.42093 0.0
C1530 C 0.6031 0.86787 0.38834 0.0
C1531 C 0.60976 0.89306 0.43923 0.0
C1532 C 0.62668 0.86987 0.39362 0.0
C1533 C 0.63324 0.89464 0.44362 0.0
C1534 C 0.50074 0.8186 0.39523 0.0
C1535 C 0.51374 0.8088 0.37725 0.0
C1536 C 0.47473 0.80829 0.39025 0.0
C1537 C 0.50048 0.78889 0.35424 0.0
C1538 C 0.46215 0.78836 0.36704 0.0
N1539 N 0.47518 0.77917 0.34965 0.0
C1540 C 0.54565 0.82249 0.49549 0.0
C1541 C 0.56287 0.81672 0.44407 0.0
C1542 C 0.54772 0.80312 0.51148 0.0
N1543 N 0.5532 0.82891 0.4624 0.0
C1544 C 0.56504 0.79704 0.45893 0.0
C1545 C 0.55719 0.78988 0.493 0.0
H1546 H 0.53727 0.83189 0.50919 0.0
H1547 H 0.56821 0.82173 0.41759 0.0
C1548 C 0.55747 0.87482 0.32267 0.0
N1549 N 0.53516 0.86386 0.34001 0.0
C1550 C 0.55774 0.87444 0.28687 0.0
C1551 C 0.51201 0.85114 0.28722 0.0
C1552 C 0.51263 0.8522 0.32307 0.0
C1553 C 0.5348 0.8626 0.26868 0.0
H1554 H 0.57512 0.88438 0.33666 0.0
H1555 H 0.4951 0.84428 0.33725 0.0
O1556 O 0.54208 0.87622 0.47235 0.0
O1557 O 0.53183 0.89567 0.40658 0.0
O1558 O 0.57142 0.87752 0.40667 0.0
O1559 O 0.51335 0.83815 0.41773 0.0
H1560 H 0.51803 0.89173 0.51341 0.0
H1561 H 0.5814 0.87929 0.50589 0.0
H1562 H 0.53103 0.90707 0.57298 0.0
H1563 H 0.59346 0.89514 0.5654 0.0
H1564 H 0.47398 0.88984 0.32824 0.0
H1565 H 0.56379 0.92922 0.36208 0.0
H1566 H 0.48513 0.8774 0.38331 0.0
H1567 H 0.55128 0.94058 0.30724 0.0
H1568 H 0.59811 0.98053 0.49657 0.0
H1569 H 0.63072 0.98276 0.39706 0.0
H1570 H 0.43286 0.82472 0.50545 0.0
H1571 H 0.45884 0.90159 0.47235 0.0
H1572 H 0.59153 0.85726 0.36669 0.0
H1573 H 0.6036 0.90238 0.45715 0.0
H1574 H 0.63349 0.86089 0.37601 0.0
H1575 H 0.6452 0.90509 0.46504 0.0
H1576 H 0.53391 0.81676 0.38062 0.0
H1577 H 0.46443 0.81571 0.40402 0.0
H1578 H 0.51032 0.78121 0.33996 0.0
H1579 H 0.44203 0.78022 0.36281 0.0
H1580 H 0.54097 0.79787 0.53755 0.0
H1581 H 0.57244 0.7873 0.44381 0.0
H1582 H 0.57574 0.88341 0.27356 0.0
H1583 H 0.49392 0.8422 0.27415 0.0
Li1584 Li 0.44078 0.33864 0.06856 0.0
Li1585 Li 0.48806 0.35479 0.06215 0.0
Li1586 Li 0.45506 0.30745 0.06044 0.0
Li1587 Li 0.46448 0.33131 0.11242 0.0
C1588 C 0.45284 0.33669 0.9963 0.0
N1589 N 0.43895 0.34002 0.92986 0.0
C1590 C 0.4673 0.35868 0.97709 0.0
C1591 C 0.43148 0.31629 0.98157 0.0
C1592 C 0.45992 0.36002 0.94358 0.0
C1593 C 0.42473 0.31837 0.94799 0.0
C1594 C 0.47656 0.37829 0.12484 0.0
C1595 C 0.50816 0.4058 0.16554 0.0
N1596 N 0.48956 0.40454 0.18613 0.0
C1597 C 0.45776 0.37737 0.14628 0.0
C1598 C 0.50198 0.39265 0.13444 0.0
C1599 C 0.46472 0.39073 0.17722 0.0
C1600 C 0.39898 0.34447 0.08519 0.0
N1601 N 0.4161 0.34861 0.06009 0.0
C1602 C 0.40225 0.37282 0.02791 0.0
C1603 C 0.41773 0.36217 0.03158 0.0
C1604 C 0.38535 0.37015 0.05429 0.0
C1605 C 0.38341 0.35517 0.08288 0.0
H1606 H 0.39828 0.33386 0.10781 0.0
H1607 H 0.43176 0.36573 0.01228 0.0
C1608 C 0.53501 0.37689 0.02609 0.0
N1609 N 0.51791 0.3813 0.04244 0.0
C1610 C 0.55593 0.39673 0.00965 0.0
C1611 C 0.54125 0.42511 0.02773 0.0
C1612 C 0.52067 0.4048 0.04366 0.0
C1613 C 0.55908 0.4212 0.01002 0.0
H1614 H 0.53212 0.35789 0.02525 0.0
H1615 H 0.50662 0.40766 0.05661 0.0
C1616 C 0.40741 0.28582 0.09004 0.0
N1617 N 0.36086 0.24278 0.0807 0.0
C1618 C 0.39896 0.26568 0.11315 0.0
C1619 C 0.39209 0.28418 0.06239 0.0
C1620 C 0.3754 0.24404 0.10792 0.0
C1621 C 0.36864 0.26224 0.05806 0.0
C1622 C 0.50122 0.31888 0.10631 0.0
C1623 C 0.48828 0.29609 0.12435 0.0
C1624 C 0.52722 0.33463 0.11127 0.0
C1625 C 0.50158 0.28953 0.1474 0.0
C1626 C 0.53985 0.32737 0.13452 0.0
N1627 N 0.52688 0.30517 0.15197 0.0
C1628 C 0.45611 0.27774 0.00594 0.0
C1629 C 0.43915 0.25483 0.05749 0.0
C1630 C 0.45405 0.2563 0.98996 0.0
N1631 N 0.44869 0.27665 0.03909 0.0
C1632 C 0.43699 0.23298 0.04263 0.0
C1633 C 0.44472 0.23363 0.00851 0.0
H1634 H 0.4644 0.29549 0.99219 0.0
H1635 H 0.43392 0.25453 0.08401 0.0
C1636 C 0.44443 0.31822 0.17882 0.0
N1637 N 0.46675 0.32963 0.16149 0.0
C1638 C 0.44416 0.31757 0.21462 0.0
C1639 C 0.48989 0.34011 0.21428 0.0
C1640 C 0.48928 0.34055 0.17844 0.0
C1641 C 0.4671 0.32872 0.23282 0.0
H1642 H 0.42679 0.3101 0.16483 0.0
H1643 H 0.5068 0.35021 0.16425 0.0
O1644 O 0.45986 0.33509 0.02914 0.0
O1645 O 0.4701 0.36478 0.09492 0.0
O1646 O 0.43049 0.30706 0.0948 0.0
O1647 O 0.48856 0.32572 0.08376 0.0
H1648 H 0.48395 0.37461 0.988 0.0
H1649 H 0.42039 0.29892 0.99574 0.0
H1650 H 0.47086 0.37697 0.92849 0.0
H1651 H 0.40824 0.30274 0.93628 0.0
H1652 H 0.52774 0.41687 0.17341 0.0
H1653 H 0.43801 0.36622 0.13931 0.0
H1654 H 0.51674 0.39332 0.11831 0.0
H1655 H 0.45036 0.39005 0.19419 0.0
H1656 H 0.40417 0.38376 0.00509 0.0
H1657 H 0.371 0.35279 0.10415 0.0
H1658 H 0.56907 0.39281 0.99605 0.0
H1659 H 0.5431 0.44369 0.02921 0.0
H1660 H 0.4106 0.26667 0.13473 0.0
H1661 H 0.39815 0.29967 0.04452 0.0
H1662 H 0.36869 0.22825 0.1255 0.0
H1663 H 0.35662 0.2607 0.03671 0.0
H1664 H 0.46811 0.28383 0.12099 0.0
H1665 H 0.53747 0.35234 0.09746 0.0
H1666 H 0.49179 0.27203 0.16173 0.0
H1667 H 0.55996 0.3394 0.13874 0.0
H1668 H 0.46069 0.25776 0.96383 0.0
H1669 H 0.4297 0.21587 0.0578 0.0
H1670 H 0.42616 0.3085 0.22793 0.0
H1671 H 0.50798 0.3493 0.22735 0.0
Li1672 Li 0.14825 0.45475 0.56046 0.0
Li1673 Li 0.13379 0.46416 0.61245 0.0
Li1674 Li 0.10276 0.44043 0.5686 0.0
Li1675 Li 0.13387 0.48772 0.56216 0.0
C1676 C 0.12217 0.40707 0.59003 0.0
N1677 N 0.11851 0.36046 0.58059 0.0
C1678 C 0.13373 0.3985 0.61318 0.0
C1679 C 0.10854 0.39183 0.56229 0.0
C1680 C 0.13173 0.37491 0.6079 0.0
C1681 C 0.10696 0.36836 0.5579 0.0
C1682 C 0.18299 0.50086 0.60628 0.0
C1683 C 0.21325 0.53945 0.63446 0.0
N1684 N 0.22244 0.52642 0.65185 0.0
C1685 C 0.1928 0.48786 0.62426 0.0
C1686 C 0.19331 0.52687 0.61126 0.0
C1687 C 0.21271 0.50111 0.64727 0.0
C1688 C 0.1791 0.45594 0.50602 0.0
N1689 N 0.17269 0.4484 0.53912 0.0
C1690 C 0.20456 0.43656 0.54258 0.0
C1691 C 0.18488 0.43873 0.55745 0.0
C1692 C 0.21172 0.44441 0.50852 0.0
C1693 C 0.19847 0.45387 0.49004 0.0
H1694 H 0.16971 0.46432 0.49233 0.0
H1695 H 0.17988 0.43339 0.58393 0.0
C1696 C 0.12677 0.44412 0.67885 0.0
N1697 N 0.13774 0.46644 0.66151 0.0
C1698 C 0.12714 0.44385 0.71465 0.0
C1699 C 0.15046 0.48958 0.7143 0.0
C1700 C 0.14941 0.48897 0.67845 0.0
C1701 C 0.13899 0.46679 0.73284 0.0
H1702 H 0.1172 0.42648 0.66486 0.0
H1703 H 0.15733 0.50649 0.66427 0.0
C1704 C 0.11682 0.45254 0.4963 0.0
N1705 N 0.09974 0.43876 0.42979 0.0
C1706 C 0.10925 0.46698 0.47713 0.0
C1707 C 0.11599 0.43126 0.48149 0.0
C1708 C 0.10058 0.45965 0.44359 0.0
C1709 C 0.10722 0.42457 0.44787 0.0
C1710 C 0.09896 0.47632 0.62484 0.0
C1711 C 0.08105 0.4576 0.64635 0.0
C1712 C 0.11011 0.50177 0.63436 0.0
C1713 C 0.07473 0.46466 0.67727 0.0
C1714 C 0.10323 0.50805 0.66545 0.0
N1715 N 0.08586 0.48953 0.6861 0.0
C1716 C 0.05513 0.39876 0.58541 0.0
C1717 C 0.0562 0.41715 0.53151 0.0
C1718 C 0.02886 0.38317 0.58312 0.0
N1719 N 0.06812 0.41571 0.56016 0.0
C1720 C 0.03007 0.40165 0.52786 0.0
C1721 C 0.01583 0.38492 0.55439 0.0
H1722 H 0.06503 0.3982 0.60813 0.0
H1723 H 0.06668 0.43104 0.51206 0.0
C1724 C 0.15873 0.53467 0.5261 0.0
N1725 N 0.13721 0.51756 0.54243 0.0
C1726 C 0.15981 0.55559 0.50966 0.0
C1727 C 0.11674 0.5409 0.52769 0.0
C1728 C 0.11647 0.52033 0.54363 0.0
C1729 C 0.13849 0.55873 0.51 0.0
H1730 H 0.17483 0.53178 0.52528 0.0
H1731 H 0.09956 0.50627 0.55657 0.0
O1732 O 0.12408 0.43018 0.59485 0.0
O1733 O 0.16344 0.48824 0.58378 0.0
O1734 O 0.12538 0.45951 0.52917 0.0
O1735 O 0.10593 0.46976 0.59494 0.0
H1736 H 0.14433 0.41006 0.63484 0.0
H1737 H 0.09922 0.39799 0.54437 0.0
H1738 H 0.14071 0.36811 0.62551 0.0
H1739 H 0.09651 0.3564 0.53648 0.0
H1740 H 0.22139 0.55956 0.63869 0.0
H1741 H 0.18483 0.46769 0.62089 0.0
H1742 H 0.18589 0.53717 0.59749 0.0
H1743 H 0.22038 0.49128 0.66155 0.0
H1744 H 0.2143 0.42917 0.55771 0.0
H1745 H 0.20372 0.46062 0.46396 0.0
H1746 H 0.11816 0.42586 0.72796 0.0
H1747 H 0.15941 0.50767 0.72737 0.0
H1748 H 0.10987 0.48356 0.48811 0.0
H1749 H 0.1223 0.42019 0.49562 0.0
H1750 H 0.09452 0.47056 0.42854 0.0
H1751 H 0.10646 0.40814 0.43611 0.0
H1752 H 0.07237 0.43783 0.63945 0.0
H1753 H 0.12422 0.51647 0.61818 0.0
H1754 H 0.06103 0.45036 0.69429 0.0
H1755 H 0.11181 0.52765 0.67325 0.0
H1756 H 0.01883 0.37091 0.60452 0.0
H1757 H 0.02107 0.40342 0.50492 0.0
H1758 H 0.17688 0.56873 0.49607 0.0
H1759 H 0.10001 0.54275 0.52916 0.0
Li1760 Li 0.69413 0.14792 0.06044 0.0
Li1761 Li 0.67027 0.13347 0.11242 0.0
Li1762 Li 0.66295 0.10245 0.06857 0.0
Li1763 Li 0.64679 0.13357 0.06215 0.0
C1764 C 0.71575 0.12187 0.09001 0.0
N1765 N 0.75874 0.11829 0.0806 0.0
C1766 C 0.7359 0.13351 0.11312 0.0
C1767 C 0.71737 0.10821 0.06232 0.0
C1768 C 0.75751 0.13155 0.10786 0.0
C1769 C 0.73928 0.10666 0.05795 0.0
C1770 C 0.68272 0.18265 0.10631 0.0
C1771 C 0.67425 0.2128 0.13455 0.0
N1772 N 0.69646 0.22202 0.15197 0.0
C1773 C 0.70551 0.19249 0.12432 0.0
C1774 C 0.66697 0.1929 0.11131 0.0
C1775 C 0.7121 0.21236 0.14738 0.0
C1776 C 0.72382 0.17873 0.00598 0.0
N1777 N 0.72493 0.17236 0.0391 0.0
C1778 C 0.76861 0.20427 0.04261 0.0
C1779 C 0.74677 0.18459 0.05747 0.0
C1780 C 0.76795 0.2114 0.00852 0.0
C1781 C 0.74526 0.19811 0.99 0.0
H1782 H 0.70606 0.16931 0.99225 0.0
H1783 H 0.74708 0.17963 0.08397 0.0
C1784 C 0.68338 0.12654 0.17882 0.0
N1785 N 0.67195 0.13743 0.16148 0.0
C1786 C 0.68405 0.12693 0.21461 0.0
C1787 C 0.66147 0.15009 0.21427 0.0
C1788 C 0.66102 0.14902 0.17843 0.0
C1789 C 0.67288 0.1387 0.23281 0.0
H1790 H 0.69151 0.11702 0.16482 0.0
H1791 H 0.65135 0.15688 0.16425 0.0
C1792 C 0.6649 0.11647 0.99629 0.0
N1793 N 0.66158 0.09931 0.92983 0.0
C1794 C 0.6429 0.10893 0.9771 0.0
C1795 C 0.68531 0.11557 0.98154 0.0
C1796 C 0.64156 0.10022 0.94358 0.0
C1797 C 0.68324 0.10676 0.94793 0.0
C1798 C 0.6233 0.09857 0.12484 0.0
C1799 C 0.62423 0.0807 0.14628 0.0
C1800 C 0.60892 0.10961 0.13445 0.0
C1801 C 0.61088 0.07429 0.17722 0.0
C1802 C 0.59578 0.10264 0.16555 0.0
N1803 N 0.59705 0.0853 0.18614 0.0
C1804 C 0.65713 0.05482 0.08518 0.0
C1805 C 0.63941 0.05587 0.03159 0.0
C1806 C 0.64643 0.02855 0.08286 0.0
N1807 N 0.65298 0.0678 0.06009 0.0
C1808 C 0.62875 0.02974 0.02792 0.0
C1809 C 0.63144 0.01551 0.05428 0.0
H1810 H 0.66774 0.06472 0.1078 0.0
H1811 H 0.63585 0.06635 0.01229 0.0
C1812 C 0.62468 0.15842 0.02609 0.0
N1813 N 0.62027 0.13691 0.04244 0.0
C1814 C 0.60484 0.15949 0.00965 0.0
C1815 C 0.57646 0.11643 0.02773 0.0
C1816 C 0.59678 0.11617 0.04367 0.0
C1817 C 0.58037 0.13816 0.01002 0.0
H1818 H 0.64368 0.17452 0.02525 0.0
H1819 H 0.59392 0.09926 0.05662 0.0
O1820 O 0.69453 0.12374 0.09481 0.0
O1821 O 0.67585 0.16314 0.08376 0.0
O1822 O 0.66649 0.12507 0.02914 0.0
O1823 O 0.6368 0.10563 0.09492 0.0
H1824 H 0.73492 0.14414 0.13474 0.0
H1825 H 0.70187 0.09883 0.04443 0.0
H1826 H 0.7733 0.14058 0.12544 0.0
H1827 H 0.7408 0.09619 0.03657 0.0
H1828 H 0.66223 0.22088 0.13879 0.0
H1829 H 0.71777 0.18458 0.12094 0.0
H1830 H 0.64926 0.18546 0.09751 0.0
H1831 H 0.7296 0.22005 0.16169 0.0
H1832 H 0.78574 0.21405 0.05776 0.0
H1833 H 0.74379 0.20333 0.9639 0.0
H1834 H 0.69313 0.11802 0.22793 0.0
H1835 H 0.65227 0.15897 0.22735 0.0
H1836 H 0.62696 0.10961 0.98804 0.0
H1837 H 0.70269 0.12186 0.99569 0.0
H1838 H 0.6246 0.09419 0.92851 0.0
H1839 H 0.69889 0.10594 0.93621 0.0
H1840 H 0.6354 0.07211 0.13932 0.0
H1841 H 0.60824 0.12369 0.11832 0.0
H1842 H 0.61157 0.06062 0.1942 0.0
H1843 H 0.5847 0.11114 0.17343 0.0
H1844 H 0.64881 0.01852 0.10413 0.0
H1845 H 0.61781 0.02073 0.0051 0.0
H1846 H 0.60876 0.17655 0.99605 0.0
H1847 H 0.55788 0.0997 0.02922 0.0
Li1848 Li 0.53743 0.66997 0.61242 0.0
Li1849 Li 0.54684 0.69382 0.56044 0.0
Li1850 Li 0.51385 0.64649 0.56215 0.0
Li1851 Li 0.56113 0.66264 0.56856 0.0
C1852 C 0.50069 0.6824 0.60631 0.0
N1853 N 0.47504 0.6961 0.65197 0.0
C1854 C 0.51364 0.70519 0.62434 0.0
C1855 C 0.47469 0.66664 0.61128 0.0
C1856 C 0.50033 0.71175 0.6474 0.0
C1857 C 0.46206 0.6739 0.63453 0.0
C1858 C 0.5945 0.71546 0.59003 0.0
C1859 C 0.63326 0.73903 0.55804 0.0
N1860 N 0.64105 0.75849 0.58068 0.0
C1861 C 0.60296 0.7356 0.61314 0.0
C1862 C 0.60982 0.71709 0.56238 0.0
C1863 C 0.62652 0.75723 0.60791 0.0
C1864 C 0.55748 0.68306 0.67882 0.0
N1865 N 0.53516 0.67164 0.66148 0.0
C1866 C 0.51202 0.66116 0.71428 0.0
C1867 C 0.51263 0.66072 0.67844 0.0
C1868 C 0.53481 0.67256 0.73281 0.0
C1869 C 0.55775 0.68372 0.71461 0.0
H1870 H 0.57512 0.69119 0.66482 0.0
H1871 H 0.49511 0.65106 0.66425 0.0
C1872 C 0.54579 0.72353 0.50594 0.0
N1873 N 0.55321 0.72463 0.53909 0.0
C1874 C 0.54786 0.74497 0.48996 0.0
C1875 C 0.56492 0.7683 0.54262 0.0
C1876 C 0.56276 0.74645 0.55748 0.0
C1877 C 0.55719 0.76765 0.50851 0.0
H1878 H 0.5375 0.70579 0.49219 0.0
H1879 H 0.568 0.74675 0.584 0.0
C1880 C 0.52535 0.62299 0.62484 0.0
N1881 N 0.51235 0.59673 0.68612 0.0
C1882 C 0.54415 0.62391 0.64628 0.0
C1883 C 0.49993 0.60862 0.63444 0.0
C1884 C 0.53719 0.61055 0.67722 0.0
C1885 C 0.49375 0.59547 0.66554 0.0
C1886 C 0.54907 0.66459 0.4963 0.0
C1887 C 0.5346 0.6426 0.47709 0.0
C1888 C 0.57042 0.68499 0.48157 0.0
C1889 C 0.54199 0.64125 0.44358 0.0
C1890 C 0.57717 0.68291 0.44798 0.0
N1891 N 0.56295 0.66126 0.42985 0.0
C1892 C 0.4669 0.62439 0.52609 0.0
C1893 C 0.48124 0.59648 0.54366 0.0
C1894 C 0.44598 0.60455 0.50965 0.0
N1895 N 0.484 0.61998 0.54243 0.0
C1896 C 0.46066 0.57616 0.52772 0.0
C1897 C 0.44283 0.58008 0.51001 0.0
H1898 H 0.46979 0.64338 0.52526 0.0
H1899 H 0.49529 0.59362 0.55661 0.0
C1900 C 0.60293 0.65681 0.58519 0.0
N1901 N 0.58581 0.65267 0.56009 0.0
C1902 C 0.6185 0.64611 0.58288 0.0
C1903 C 0.59966 0.62845 0.52791 0.0
C1904 C 0.58418 0.6391 0.53158 0.0
C1905 C 0.61656 0.63113 0.55429 0.0
H1906 H 0.60363 0.66742 0.60781 0.0
H1907 H 0.57015 0.63555 0.51228 0.0
O1908 O 0.51335 0.67555 0.58376 0.0
O1909 O 0.57142 0.69421 0.5948 0.0
O1910 O 0.53181 0.6365 0.59492 0.0
O1911 O 0.54205 0.66619 0.52913 0.0
H1912 H 0.5338 0.71744 0.62098 0.0
H1913 H 0.46444 0.64893 0.59747 0.0
H1914 H 0.51013 0.72924 0.66173 0.0
H1915 H 0.44195 0.66187 0.63875 0.0
H1916 H 0.64529 0.74056 0.53668 0.0
H1917 H 0.59133 0.73461 0.63472 0.0
H1918 H 0.60374 0.7016 0.5445 0.0
H1919 H 0.63324 0.77302 0.62548 0.0
H1920 H 0.49393 0.65196 0.72735 0.0
H1921 H 0.57575 0.69279 0.72793 0.0
H1922 H 0.5412 0.74351 0.46384 0.0
H1923 H 0.57223 0.78541 0.5578 0.0
H1924 H 0.56391 0.63507 0.63932 0.0
H1925 H 0.48516 0.60794 0.6183 0.0
H1926 H 0.55155 0.61123 0.69419 0.0
H1927 H 0.47417 0.5844 0.67341 0.0
H1928 H 0.51796 0.62667 0.48801 0.0
H1929 H 0.58152 0.70236 0.49573 0.0
H1930 H 0.53105 0.6243 0.42849 0.0
H1931 H 0.59365 0.69854 0.43627 0.0
H1932 H 0.43284 0.60847 0.49605 0.0
H1933 H 0.45881 0.55758 0.5292 0.0
H1934 H 0.63091 0.64849 0.60415 0.0
H1935 H 0.59774 0.61752 0.50509 0.0
Li1936 Li 0.85367 0.54653 0.06047 0.0
Li1937 Li 0.86813 0.53712 0.11245 0.0
Li1938 Li 0.89915 0.56085 0.06861 0.0
Li1939 Li 0.86804 0.51356 0.06216 0.0
C1940 C 0.87974 0.59421 0.09004 0.0
N1941 N 0.8834 0.64082 0.0806 0.0
C1942 C 0.86818 0.60278 0.11319 0.0
C1943 C 0.89337 0.60944 0.06229 0.0
C1944 C 0.87018 0.62636 0.10792 0.0
C1945 C 0.89495 0.63292 0.05791 0.0
C1946 C 0.81892 0.50042 0.10628 0.0
C1947 C 0.78865 0.46183 0.13445 0.0
N1948 N 0.77946 0.47486 0.15183 0.0
C1949 C 0.80911 0.51342 0.12426 0.0
C1950 C 0.80859 0.47441 0.11125 0.0
C1951 C 0.7892 0.50017 0.14726 0.0
C1952 C 0.82281 0.54533 0.00603 0.0
N1953 N 0.82922 0.55288 0.03912 0.0
C1954 C 0.79735 0.56471 0.04258 0.0
C1955 C 0.81703 0.56255 0.05745 0.0
C1956 C 0.79019 0.55686 0.00852 0.0
C1957 C 0.80344 0.5474 0.99004 0.0
H1958 H 0.83221 0.53695 0.99233 0.0
H1959 H 0.82204 0.56788 0.08393 0.0
C1960 C 0.87516 0.55715 0.17886 0.0
N1961 N 0.86418 0.53484 0.16151 0.0
C1962 C 0.87478 0.55742 0.21465 0.0
C1963 C 0.85145 0.5117 0.2143 0.0
C1964 C 0.8525 0.51231 0.17846 0.0
C1965 C 0.86293 0.53448 0.23284 0.0
H1966 H 0.88474 0.5748 0.16486 0.0
H1967 H 0.84456 0.49478 0.16427 0.0
C1968 C 0.88509 0.54874 0.9963 0.0
N1969 N 0.90217 0.56251 0.92979 0.0
C1970 C 0.89267 0.5343 0.97713 0.0
C1971 C 0.88592 0.57001 0.98149 0.0
C1972 C 0.90133 0.54163 0.94359 0.0
C1973 C 0.89469 0.57671 0.94787 0.0
C1974 C 0.90295 0.52494 0.12484 0.0
C1975 C 0.92086 0.54366 0.14635 0.0
C1976 C 0.89178 0.4995 0.13436 0.0
C1977 C 0.92718 0.5366 0.17727 0.0
C1978 C 0.89866 0.49321 0.16544 0.0
N1979 N 0.91604 0.51173 0.1861 0.0
C1980 C 0.94678 0.60251 0.08543 0.0
C1981 C 0.94571 0.58414 0.0315 0.0
C1982 C 0.97305 0.6181 0.08314 0.0
N1983 N 0.93379 0.58556 0.06016 0.0
C1984 C 0.97184 0.59964 0.02786 0.0
C1985 C 0.98608 0.61636 0.05439 0.0
H1986 H 0.93688 0.60306 0.10815 0.0
H1987 H 0.93523 0.57026 0.01204 0.0
C1988 C 0.84319 0.46661 0.0261 0.0
N1989 N 0.86471 0.48371 0.04243 0.0
C1990 C 0.8421 0.44569 0.00966 0.0
C1991 C 0.88518 0.46038 0.0277 0.0
C1992 C 0.88544 0.48095 0.04364 0.0
C1993 C 0.86343 0.44254 0.01 0.0
H1994 H 0.82708 0.4695 0.02528 0.0
H1995 H 0.90236 0.495 0.05658 0.0
O1996 O 0.87783 0.5711 0.09485 0.0
O1997 O 0.83847 0.51303 0.08379 0.0
O1998 O 0.87654 0.54177 0.02917 0.0
O1999 O 0.89599 0.53151 0.09495 0.0
H2000 H 0.85758 0.59121 0.13485 0.0
H2001 H 0.90268 0.60328 0.04438 0.0
H2002 H 0.86121 0.63317 0.12553 0.0
H2003 H 0.90539 0.64488 0.03649 0.0
H2004 H 0.78051 0.44171 0.13867 0.0
H2005 H 0.81708 0.53359 0.12089 0.0
H2006 H 0.81601 0.46411 0.09748 0.0
H2007 H 0.78152 0.51001 0.16154 0.0
H2008 H 0.7876 0.57211 0.05771 0.0
H2009 H 0.79819 0.54066 0.96396 0.0
H2010 H 0.88378 0.57542 0.22797 0.0
H2011 H 0.84249 0.49361 0.22737 0.0
H2012 H 0.89205 0.51771 0.98811 0.0
H2013 H 0.8796 0.58109 0.99562 0.0
H2014 H 0.90739 0.53071 0.92854 0.0
H2015 H 0.89545 0.59314 0.93611 0.0
H2016 H 0.92956 0.56344 0.13946 0.0
H2017 H 0.87767 0.4848 0.11818 0.0
H2018 H 0.94088 0.55089 0.1943 0.0
H2019 H 0.89007 0.47361 0.17325 0.0
H2020 H 0.98308 0.63035 0.10454 0.0
H2021 H 0.98084 0.59789 0.00491 0.0
H2022 H 0.82504 0.43255 0.99607 0.0
H2023 H 0.9019 0.45852 0.02917 0.0
Li2024 Li 0.33163 0.8678 0.61242 0.0
Li2025 Li 0.30778 0.85335 0.56044 0.0
Li2026 Li 0.35511 0.8677 0.56215 0.0
Li2027 Li 0.33896 0.89883 0.56857 0.0
C2028 C 0.31919 0.81863 0.60632 0.0
N2029 N 0.30546 0.77927 0.65199 0.0
C2030 C 0.2964 0.80879 0.62433 0.0
C2031 C 0.33494 0.80838 0.61132 0.0
C2032 C 0.28982 0.78892 0.64739 0.0
C2033 C 0.32767 0.78849 0.63457 0.0
C2034 C 0.28616 0.8794 0.59001 0.0
C2035 C 0.26262 0.89461 0.55795 0.0
N2036 N 0.24316 0.88298 0.58061 0.0
C2037 C 0.26601 0.86776 0.61312 0.0
C2038 C 0.28454 0.89307 0.56232 0.0
C2039 C 0.2444 0.86971 0.60786 0.0
C2040 C 0.31851 0.87472 0.67882 0.0
N2041 N 0.32995 0.86385 0.66148 0.0
C2042 C 0.34045 0.8512 0.71427 0.0
C2043 C 0.3409 0.85226 0.67843 0.0
C2044 C 0.32903 0.86257 0.73281 0.0
C2045 C 0.31785 0.87433 0.71461 0.0
H2046 H 0.31037 0.88423 0.66482 0.0
H2047 H 0.35057 0.84441 0.66425 0.0
C2048 C 0.27808 0.82255 0.50597 0.0
N2049 N 0.27698 0.82892 0.5391 0.0
C2050 C 0.25664 0.80317 0.49 0.0
C2051 C 0.23329 0.797 0.54261 0.0
C2052 C 0.25514 0.81668 0.55747 0.0
C2053 C 0.23395 0.78988 0.50852 0.0
H2054 H 0.29584 0.83197 0.49224 0.0
H2055 H 0.25483 0.82164 0.58397 0.0
C2056 C 0.3786 0.90271 0.62484 0.0
N2057 N 0.40484 0.916 0.68614 0.0
C2058 C 0.37765 0.92058 0.64627 0.0
C2059 C 0.39299 0.89169 0.63446 0.0
C2060 C 0.391 0.927 0.67722 0.0
C2061 C 0.40613 0.89867 0.66557 0.0
C2062 C 0.33701 0.8848 0.4963 0.0
C2063 C 0.35901 0.89234 0.4771 0.0
C2064 C 0.3166 0.88572 0.48154 0.0
C2065 C 0.36035 0.90105 0.44358 0.0
C2066 C 0.31867 0.89453 0.44794 0.0
N2067 N 0.34033 0.90198 0.42983 0.0
C2068 C 0.37722 0.84285 0.52609 0.0
C2069 C 0.40512 0.8851 0.54367 0.0
C2070 C 0.39706 0.84178 0.50965 0.0
N2071 N 0.38163 0.86436 0.54244 0.0
C2072 C 0.42544 0.88484 0.52773 0.0
C2073 C 0.42153 0.8631 0.51002 0.0
H2074 H 0.35823 0.82675 0.52525 0.0
H2075 H 0.40798 0.90201 0.55662 0.0
C2076 C 0.34476 0.94646 0.58514 0.0
N2077 N 0.34893 0.93347 0.56008 0.0
C2078 C 0.35546 0.97272 0.58282 0.0
C2079 C 0.37319 0.97153 0.52793 0.0
C2080 C 0.36254 0.94541 0.5316 0.0
C2081 C 0.37048 0.98576 0.55426 0.0
H2082 H 0.33412 0.93655 0.60775 0.0
H2083 H 0.36612 0.93493 0.51233 0.0
O2084 O 0.32605 0.83813 0.58376 0.0
O2085 O 0.30738 0.87753 0.59481 0.0
O2086 O 0.3651 0.89564 0.59492 0.0
O2087 O 0.33541 0.8762 0.52914 0.0
H2088 H 0.28414 0.81669 0.62095 0.0
H2089 H 0.35266 0.81583 0.59751 0.0
H2090 H 0.27232 0.78123 0.66171 0.0
H2091 H 0.3397 0.78041 0.63881 0.0
H2092 H 0.2611 0.90508 0.53658 0.0
H2093 H 0.26698 0.85712 0.63473 0.0
H2094 H 0.30003 0.90246 0.54444 0.0
H2095 H 0.2286 0.86067 0.62544 0.0
H2096 H 0.34966 0.84232 0.72734 0.0
H2097 H 0.30876 0.88323 0.72792 0.0
H2098 H 0.25812 0.79795 0.46389 0.0
H2099 H 0.21617 0.78722 0.55777 0.0
H2100 H 0.36648 0.92916 0.6393 0.0
H2101 H 0.39369 0.87761 0.61834 0.0
H2102 H 0.3903 0.94067 0.69418 0.0
H2103 H 0.41723 0.89019 0.67345 0.0
H2104 H 0.37495 0.89165 0.48803 0.0
H2105 H 0.29922 0.87942 0.49569 0.0
H2106 H 0.37731 0.90708 0.4285 0.0
H2107 H 0.30303 0.89535 0.43622 0.0
H2108 H 0.39315 0.82472 0.49605 0.0
H2109 H 0.44402 0.90157 0.52922 0.0
H2110 H 0.35305 0.98275 0.60407 0.0
H2111 H 0.38417 0.98055 0.50513 0.0
loop_
_geom_bond_atom_site_label_1
_geom_bond_atom_site_label_2
_geom_bond_distance
_geom_bond_site_symmetry_2
_ccdc_geom_bond_type
Li0 N17 1.990 . S
Li0 O60 1.956 . S
Li0 O61 1.970 . S
Li0 O62 1.961 . S
Li1 N25 1.990 . S
Li1 O60 1.970 . S
Li1 O61 1.956 . S
Li1 O63 1.961 . S
Li2 N47 1.990 . S
Li2 O60 1.961 . S
Li2 O62 1.956 . S
Li2 O63 1.970 . S
Li3 N53 1.990 . S
Li3 O61 1.961 . S
Li3 O62 1.970 . S
Li3 O63 1.956 . S
C4 C6 1.348 . S
C4 C7 1.356 . S
C4 O60 1.325 . S
N5 C8 1.314 . S
N5 C9 1.279 . S
C6 C4 1.348 . S
C6 C8 1.353 . S
C6 H64 0.929 . S
C7 C4 1.356 . S
C7 C9 1.358 . S
C7 H65 0.930 . S
C8 N5 1.314 . S
C8 C6 1.353 . S
C8 H66 0.930 . S
C9 N5 1.279 . S
C9 C7 1.358 . S
C9 H67 0.930 . S
C10 C13 1.348 . S
C10 C14 1.356 . S
C10 O61 1.325 . S
C11 N12 1.279 . S
C11 C14 1.358 . S
C11 H68 0.930 . S
N12 C11 1.279 . S
N12 C15 1.314 . S
C13 C10 1.348 . S
C13 C15 1.353 . S
C13 H69 0.929 . S
C14 C10 1.356 . S
C14 C11 1.358 . S
C14 H70 0.930 . S
C15 N12 1.314 . S
C15 C13 1.353 . S
C15 H71 0.930 . S
C16 N17 1.314 . S
C16 C21 1.353 . S
C16 H22 0.930 . S
N17 Li0 1.990 . S
N17 C16 1.314 . S
N17 C19 1.279 . S
C18 C19 1.358 . S
C18 C20 1.356 . S
C18 H72 0.930 . S
C19 N17 1.279 . S
C19 C18 1.358 . S
C19 H23 0.930 . S
C20 C18 1.356 . S
C20 C21 1.348 . S
C21 C16 1.353 . S
C21 C20 1.348 . S
C21 H73 0.929 . S
H22 C16 0.930 . S
H23 C19 0.930 . S
C24 N25 1.314 . S
C24 C26 1.353 . S
C24 H30 0.930 . S
N25 Li1 1.990 . S
N25 C24 1.314 . S
N25 C28 1.279 . S
C26 C24 1.353 . S
C26 C29 1.348 . S
C26 H74 0.948 . S
C27 C28 1.358 . S
C27 C29 1.356 . S
C27 H75 0.930 . S
C28 N25 1.279 . S
C28 C27 1.358 . S
C28 H31 0.930 . S
C29 C26 1.348 . S
C29 C27 1.356 . S
H30 C24 0.930 . S
H31 C28 0.930 . S
C32 C34 1.348 . S
C32 C35 1.356 . S
C32 O62 1.325 . S
N33 C36 1.314 . S
N33 C37 1.279 . S
C34 C32 1.348 . S
C34 C36 1.353 . S
C34 H76 0.929 . S
C35 C32 1.356 . S
C35 C37 1.358 . S
C35 H77 0.930 . S
C36 N33 1.314 . S
C36 C34 1.353 . S
C36 H78 0.930 . S
C37 N33 1.279 . S
C37 C35 1.358 . S
C37 H79 0.930 . S
C38 C39 1.348 . S
C38 C40 1.356 . S
C38 O63 1.325 1_556 S
C39 C38 1.348 . S
C39 C41 1.353 . S
C39 H80 0.929 . S
C40 C38 1.356 . S
C40 C42 1.358 . S
C40 H81 0.930 . S
C41 C39 1.353 . S
C41 N43 1.314 . S
C41 H82 0.930 . S
C42 C40 1.358 . S
C42 N43 1.279 . S
C42 H83 0.930 . S
N43 C41 1.314 . S
N43 C42 1.279 . S
C44 C46 1.353 . S
C44 N47 1.314 . S
C44 H50 0.930 . S
C45 N47 1.279 . S
C45 C48 1.358 . S
C45 H51 0.930 . S
C46 C44 1.353 . S
C46 C49 1.348 . S
C46 H84 0.929 . S
N47 Li2 1.990 . S
N47 C44 1.314 . S
N47 C45 1.279 . S
C48 C45 1.358 . S
C48 C49 1.356 . S
C48 H85 0.930 . S
C49 C46 1.348 . S
C49 C48 1.356 . S
H50 C44 0.930 . S
H51 C45 0.930 . S
C52 N53 1.314 . S
C52 C54 1.353 . S
C52 H58 0.930 . S
N53 Li3 1.990 . S
N53 C52 1.314 . S
N53 C56 1.279 1_554 S
C54 C52 1.353 . S
C54 C57 1.348 1_554 S
C54 H86 0.929 . S
C55 C56 1.358 . S
C55 C57 1.356 . S
C55 H87 0.930 . S
C56 N53 1.279 1_556 S
C56 C55 1.358 . S
C56 H59 0.930 . S
C57 C54 1.348 1_556 S
C57 C55 1.356 . S
H58 C52 0.930 . S
H59 C56 0.930 . S
O60 Li0 1.956 . S
O60 Li1 1.970 . S
O60 Li2 1.961 . S
O60 C4 1.325 . S
O61 Li0 1.970 . S
O61 Li1 1.956 . S
O61 Li3 1.961 . S
O61 C10 1.325 . S
O62 Li0 1.961 . S
O62 Li2 1.956 . S
O62 Li3 1.970 . S
O62 C32 1.325 . S
O63 Li1 1.961 . S
O63 Li2 1.970 . S
O63 Li3 1.956 . S
O63 C38 1.325 1_554 S
H64 C6 0.929 . S
H65 C7 0.930 . S
H66 C8 0.930 . S
H67 C9 0.930 . S
H68 C11 0.930 . S
H69 C13 0.929 . S
H70 C14 0.930 . S
H71 C15 0.930 . S
H72 C18 0.930 . S
H73 C21 0.929 . S
H74 C26 0.948 . S
H75 C27 0.930 . S
H76 C34 0.929 . S
H77 C35 0.930 . S
H78 C36 0.930 . S
H79 C37 0.930 . S
H80 C39 0.929 . S
H81 C40 0.930 . S
H82 C41 0.930 . S
H83 C42 0.930 . S
H84 C46 0.929 . S
H85 C48 0.930 . S
H86 C54 0.929 . S
H87 C55 0.930 . S
Li88 N105 1.990 . S
Li88 O148 1.956 . S
Li88 O149 1.970 . S
Li88 O150 1.961 . S
Li89 N113 1.990 . S
Li89 O148 1.970 . S
Li89 O149 1.956 . S
Li89 O151 1.961 . S
Li90 N135 1.990 . S
Li90 O148 1.961 . S
Li90 O150 1.956 . S
Li90 O151 1.970 . S
Li91 N141 1.990 . S
Li91 O149 1.961 . S
Li91 O150 1.970 . S
Li91 O151 1.956 . S
C92 C94 1.348 . S
C92 C95 1.356 . S
C92 O148 1.325 . S
N93 C96 1.314 . S
N93 C97 1.279 . S
C94 C92 1.348 . S
C94 C96 1.353 . S
C94 H152 0.929 . S
C95 C92 1.356 . S
C95 C97 1.358 . S
C95 H153 0.930 . S
C96 N93 1.314 . S
C96 C94 1.353 . S
C96 H154 0.930 . S
C97 N93 1.279 . S
C97 C95 1.358 . S
C97 H155 0.930 . S
C98 C101 1.348 . S
C98 C102 1.356 . S
C98 O149 1.325 . S
C99 N100 1.279 . S
C99 C102 1.358 . S
C99 H156 0.930 . S
N100 C99 1.279 . S
N100 C103 1.314 . S
C101 C98 1.348 . S
C101 C103 1.353 . S
C101 H157 0.929 . S
C102 C98 1.356 . S
C102 C99 1.358 . S
C102 H158 0.930 . S
C103 N100 1.314 . S
C103 C101 1.353 . S
C103 H159 0.930 . S
C104 N105 1.314 . S
C104 C109 1.353 . S
C104 H110 0.930 . S
N105 Li88 1.990 . S
N105 C104 1.314 . S
N105 C107 1.279 . S
C106 C107 1.358 . S
C106 C108 1.356 . S
C106 H160 0.930 . S
C107 N105 1.279 . S
C107 C106 1.358 . S
C107 H111 0.930 . S
C108 C106 1.356 . S
C108 C109 1.348 . S
C109 C104 1.353 . S
C109 C108 1.348 . S
C109 H161 0.929 . S
H110 C104 0.930 . S
H111 C107 0.930 . S
C112 N113 1.314 . S
C112 C114 1.353 . S
C112 H118 0.930 . S
N113 Li89 1.990 . S
N113 C112 1.314 . S
N113 C116 1.279 . S
C114 C112 1.353 . S
C114 C117 1.348 . S
C114 H162 0.929 . S
C115 C116 1.358 . S
C115 C117 1.356 . S
C115 H163 0.930 . S
C116 N113 1.279 . S
C116 C115 1.358 . S
C116 H119 0.930 . S
C117 C114 1.348 . S
C117 C115 1.356 . S
H118 C112 0.930 . S
H119 C116 0.930 . S
C120 C122 1.348 . S
C120 C123 1.356 . S
C120 O150 1.325 . S
N121 C124 1.314 . S
N121 C125 1.279 . S
C122 C120 1.348 . S
C122 C124 1.353 . S
C122 H164 0.929 . S
C123 C120 1.356 . S
C123 C125 1.358 . S
C123 H165 0.930 . S
C124 N121 1.314 . S
C124 C122 1.353 . S
C124 H166 0.930 . S
C125 N121 1.279 . S
C125 C123 1.358 . S
C125 H167 0.930 . S
C126 C127 1.348 . S
C126 C128 1.356 . S
C126 O151 1.325 . S
C127 C126 1.348 . S
C127 C129 1.353 . S
C127 H168 0.929 . S
C128 C126 1.356 . S
C128 C130 1.358 . S
C128 H169 0.930 . S
C129 C127 1.353 . S
C129 N131 1.314 . S
C129 H170 0.930 . S
C130 C128 1.358 . S
C130 N131 1.279 . S
C130 H171 0.930 . S
N131 C129 1.314 . S
N131 C130 1.279 . S
C132 C134 1.353 . S
C132 N135 1.314 . S
C132 H138 0.930 . S
C133 N135 1.279 . S
C133 C136 1.358 . S
C133 H139 0.930 . S
C134 C132 1.353 . S
C134 C137 1.348 . S
C134 H172 0.929 . S
N135 Li90 1.990 . S
N135 C132 1.314 . S
N135 C133 1.279 . S
C136 C133 1.358 . S
C136 C137 1.356 . S
C136 H173 0.930 . S
C137 C134 1.348 . S
C137 C136 1.356 . S
H138 C132 0.930 . S
H139 C133 0.930 . S
C140 N141 1.314 . S
C140 C142 1.353 . S
C140 H146 0.930 . S
N141 Li91 1.990 . S
N141 C140 1.314 . S
N141 C144 1.279 . S
C142 C140 1.353 . S
C142 C145 1.348 . S
C142 H174 0.929 . S
C143 C144 1.358 . S
C143 C145 1.356 . S
C143 H175 0.930 . S
C144 N141 1.279 . S
C144 C143 1.358 . S
C144 H147 0.930 . S
C145 C142 1.348 . S
C145 C143 1.356 . S
H146 C140 0.930 . S
H147 C144 0.930 . S
O148 Li88 1.956 . S
O148 Li89 1.970 . S
O148 Li90 1.961 . S
O148 C92 1.325 . S
O149 Li88 1.970 . S
O149 Li89 1.956 . S
O149 Li91 1.961 . S
O149 C98 1.325 . S
O150 Li88 1.961 . S
O150 Li90 1.956 . S
O150 Li91 1.970 . S
O150 C120 1.325 . S
O151 Li89 1.961 . S
O151 Li90 1.970 . S
O151 Li91 1.956 . S
O151 C126 1.325 . S
H152 C94 0.929 . S
H153 C95 0.930 . S
H154 C96 0.930 . S
H155 C97 0.930 . S
H156 C99 0.930 . S
H157 C101 0.929 . S
H158 C102 0.930 . S
H159 C103 0.930 . S
H160 C106 0.930 . S
H161 C109 0.929 . S
H162 C114 0.929 . S
H163 C115 0.930 . S
H164 C122 0.929 . S
H165 C123 0.930 . S
H166 C124 0.930 . S
H167 C125 0.930 . S
H168 C127 0.929 . S
H169 C128 0.930 . S
H170 C129 0.930 . S
H171 C130 0.930 . S
H172 C134 0.929 . S
H173 C136 0.930 . S
H174 C142 0.929 . S
H175 C143 0.930 . S
Li176 N193 1.990 . S
Li176 O236 1.956 . S
Li176 O237 1.970 . S
Li176 O238 1.961 . S
Li177 N201 1.990 . S
Li177 O236 1.970 . S
Li177 O237 1.956 . S
Li177 O239 1.961 . S
Li178 N223 1.990 . S
Li178 O236 1.961 . S
Li178 O238 1.956 . S
Li178 O239 1.970 . S
Li179 N229 1.990 . S
Li179 O237 1.961 . S
Li179 O238 1.970 . S
Li179 O239 1.956 . S
C180 C182 1.348 . S
C180 C183 1.356 . S
C180 O236 1.325 . S
N181 C184 1.314 . S
N181 C185 1.279 . S
C182 C180 1.348 . S
C182 C184 1.353 . S
C182 H240 0.929 . S
C183 C180 1.356 . S
C183 C185 1.358 . S
C183 H241 0.930 . S
C184 N181 1.314 . S
C184 C182 1.353 . S
C184 H242 0.930 . S
C185 N181 1.279 . S
C185 C183 1.358 . S
C185 H243 0.930 . S
C186 C189 1.348 . S
C186 C190 1.356 . S
C186 O237 1.325 . S
C187 N188 1.279 . S
C187 C190 1.358 . S
C187 H244 0.930 . S
N188 C187 1.279 . S
N188 C191 1.314 . S
C189 C186 1.348 . S
C189 C191 1.353 . S
C189 H245 0.929 . S
C190 C186 1.356 . S
C190 C187 1.358 . S
C190 H246 0.930 . S
C191 N188 1.314 . S
C191 C189 1.353 . S
C191 H247 0.930 . S
C192 N193 1.314 . S
C192 C197 1.353 . S
C192 H198 0.930 . S
N193 Li176 1.990 . S
N193 C192 1.314 . S
N193 C195 1.279 . S
C194 C195 1.358 . S
C194 C196 1.356 . S
C194 H248 0.930 . S
C195 N193 1.279 . S
C195 C194 1.358 . S
C195 H199 0.930 . S
C196 C194 1.356 . S
C196 C197 1.348 . S
C197 C192 1.353 . S
C197 C196 1.348 . S
C197 H249 0.949 . S
H198 C192 0.930 . S
H199 C195 0.930 . S
C200 N201 1.314 . S
C200 C202 1.353 . S
C200 H206 0.930 . S
N201 Li177 1.990 . S
N201 C200 1.314 . S
N201 C204 1.279 . S
C202 C200 1.353 . S
C202 C205 1.348 . S
C202 H250 0.929 . S
C203 C204 1.358 . S
C203 C205 1.356 . S
C203 H251 0.930 . S
C204 N201 1.279 . S
C204 C203 1.358 . S
C204 H207 0.930 . S
C205 C202 1.348 . S
C205 C203 1.356 . S
H206 C200 0.930 . S
H207 C204 0.930 . S
C208 C210 1.348 . S
C208 C211 1.356 . S
C208 O238 1.325 1_556 S
N209 C212 1.314 . S
N209 C213 1.279 . S
C210 C208 1.348 . S
C210 C212 1.353 . S
C210 H252 0.929 . S
C211 C208 1.356 . S
C211 C213 1.358 . S
C211 H253 0.930 . S
C212 N209 1.314 . S
C212 C210 1.353 . S
C212 H254 0.930 . S
C213 N209 1.279 . S
C213 C211 1.358 . S
C213 H255 0.930 . S
C214 C215 1.348 . S
C214 C216 1.356 . S
C214 O239 1.325 . S
C215 C214 1.348 . S
C215 C217 1.353 . S
C215 H256 0.929 . S
C216 C214 1.356 . S
C216 C218 1.358 . S
C216 H257 0.930 . S
C217 C215 1.353 . S
C217 N219 1.314 . S
C217 H258 0.930 . S
C218 C216 1.358 . S
C218 N219 1.279 . S
C218 H259 0.930 . S
N219 C217 1.314 . S
N219 C218 1.279 . S
C220 C222 1.353 . S
C220 N223 1.314 . S
C220 H226 0.930 . S
C221 N223 1.279 1_556 S
C221 C224 1.358 . S
C221 H227 0.930 . S
C222 C220 1.353 . S
C222 C225 1.348 1_554 S
C222 H260 0.929 . S
N223 Li178 1.990 . S
N223 C220 1.314 . S
N223 C221 1.279 1_554 S
C224 C221 1.358 . S
C224 C225 1.356 . S
C224 H261 0.930 . S
C225 C222 1.348 1_556 S
C225 C224 1.356 . S
H226 C220 0.930 . S
H227 C221 0.930 . S
C228 N229 1.314 . S
C228 C230 1.353 . S
C228 H234 0.930 . S
N229 Li179 1.990 . S
N229 C228 1.314 . S
N229 C232 1.279 . S
C230 C228 1.353 . S
C230 C233 1.348 . S
C230 H262 0.929 . S
C231 C232 1.358 . S
C231 C233 1.356 . S
C231 H263 0.930 . S
C232 N229 1.279 . S
C232 C231 1.358 . S
C232 H235 0.930 . S
C233 C230 1.348 . S
C233 C231 1.356 . S
H234 C228 0.930 . S
H235 C232 0.930 . S
O236 Li176 1.956 . S
O236 Li177 1.970 . S
O236 Li178 1.961 . S
O236 C180 1.325 . S
O237 Li176 1.970 . S
O237 Li177 1.956 . S
O237 Li179 1.961 . S
O237 C186 1.325 . S
O238 Li176 1.961 . S
O238 Li178 1.956 . S
O238 Li179 1.970 . S
O238 C208 1.325 1_554 S
O239 Li177 1.961 . S
O239 Li178 1.970 . S
O239 Li179 1.956 . S
O239 C214 1.325 . S
H240 C182 0.929 . S
H241 C183 0.930 . S
H242 C184 0.930 . S
H243 C185 0.930 . S
H244 C187 0.930 . S
H245 C189 0.929 . S
H246 C190 0.930 . S
H247 C191 0.930 . S
H248 C194 0.930 . S
H249 C197 0.949 . S
H250 C202 0.929 . S
H251 C203 0.930 . S
H252 C210 0.929 . S
H253 C211 0.930 . S
H254 C212 0.930 . S
H255 C213 0.930 . S
H256 C215 0.929 . S
H257 C216 0.930 . S
H258 C217 0.930 . S
H259 C218 0.930 . S
H260 C222 0.929 . S
H261 C224 0.930 . S
H262 C230 0.929 . S
H263 C231 0.930 . S
Li264 N281 1.990 . S
Li264 O324 1.956 . S
Li264 O325 1.970 . S
Li264 O326 1.961 . S
Li265 N289 1.990 . S
Li265 O324 1.970 . S
Li265 O325 1.956 . S
Li265 O327 1.961 . S
Li266 N311 1.990 . S
Li266 O324 1.961 . S
Li266 O326 1.956 . S
Li266 O327 1.970 . S
Li267 N317 1.990 . S
Li267 O325 1.961 . S
Li267 O326 1.970 . S
Li267 O327 1.956 . S
C268 C270 1.348 . S
C268 C271 1.356 . S
C268 O324 1.325 . S
N269 C272 1.314 . S
N269 C273 1.279 . S
C270 C268 1.348 . S
C270 C272 1.353 . S
C270 H328 0.929 . S
C271 C268 1.356 . S
C271 C273 1.358 . S
C271 H329 0.930 . S
C272 N269 1.314 . S
C272 C270 1.353 . S
C272 H330 0.930 . S
C273 N269 1.279 . S
C273 C271 1.358 . S
C273 H331 0.930 . S
C274 C277 1.348 . S
C274 C278 1.356 . S
C274 O325 1.325 . S
C275 N276 1.279 . S
C275 C278 1.358 . S
C275 H332 0.930 . S
N276 C275 1.279 . S
N276 C279 1.314 . S
C277 C274 1.348 . S
C277 C279 1.353 . S
C277 H333 0.929 . S
C278 C274 1.356 . S
C278 C275 1.358 . S
C278 H334 0.930 . S
C279 N276 1.314 . S
C279 C277 1.353 . S
C279 H335 0.930 . S
C280 N281 1.314 . S
C280 C285 1.353 . S
C280 H286 0.930 . S
N281 Li264 1.990 . S
N281 C280 1.314 . S
N281 C283 1.279 . S
C282 C283 1.358 . S
C282 C284 1.356 . S
C282 H336 0.930 . S
C283 N281 1.279 . S
C283 C282 1.358 . S
C283 H287 0.930 . S
C284 C282 1.356 . S
C284 C285 1.348 . S
C285 C280 1.353 . S
C285 C284 1.348 . S
C285 H337 0.929 . S
H286 C280 0.930 . S
H287 C283 0.930 . S
C288 N289 1.314 . S
C288 C290 1.353 . S
C288 H294 0.930 . S
N289 Li265 1.990 . S
N289 C288 1.314 . S
N289 C292 1.279 . S
C290 C288 1.353 . S
C290 C293 1.348 . S
C290 H338 0.929 . S
C291 C292 1.358 . S
C291 C293 1.356 . S
C291 H339 0.930 . S
C292 N289 1.279 . S
C292 C291 1.358 . S
C292 H295 0.930 . S
C293 C290 1.348 . S
C293 C291 1.356 . S
H294 C288 0.930 . S
H295 C292 0.930 . S
C296 C298 1.348 . S
C296 C299 1.356 . S
C296 O326 1.325 . S
N297 C300 1.314 . S
N297 C301 1.279 . S
C298 C296 1.348 . S
C298 C300 1.353 . S
C298 H340 0.929 . S
C299 C296 1.356 . S
C299 C301 1.358 . S
C299 H341 0.930 . S
C300 N297 1.314 . S
C300 C298 1.353 . S
C300 H342 0.930 . S
C301 N297 1.279 . S
C301 C299 1.358 . S
C301 H343 0.930 . S
C302 C303 1.348 . S
C302 C304 1.356 . S
C302 O327 1.325 . S
C303 C302 1.348 . S
C303 C305 1.353 . S
C303 H344 0.929 . S
C304 C302 1.356 . S
C304 C306 1.358 . S
C304 H345 0.930 . S
C305 C303 1.353 . S
C305 N307 1.314 . S
C305 H346 0.930 . S
C306 C304 1.358 . S
C306 N307 1.279 . S
C306 H347 0.930 . S
N307 C305 1.314 . S
N307 C306 1.279 . S
C308 C310 1.353 . S
C308 N311 1.314 . S
C308 H314 0.930 . S
C309 N311 1.279 . S
C309 C312 1.358 . S
C309 H315 0.930 . S
C310 C308 1.353 . S
C310 C313 1.348 . S
C310 H348 0.929 . S
N311 Li266 1.990 . S
N311 C308 1.314 . S
N311 C309 1.279 . S
C312 C309 1.358 . S
C312 C313 1.356 . S
C312 H349 0.930 . S
C313 C310 1.348 . S
C313 C312 1.356 . S
H314 C308 0.930 . S
H315 C309 0.930 . S
C316 N317 1.314 . S
C316 C318 1.353 . S
C316 H322 0.930 . S
N317 Li267 1.990 . S
N317 C316 1.314 . S
N317 C320 1.279 . S
C318 C316 1.353 . S
C318 C321 1.348 . S
C318 H350 0.929 . S
C319 C320 1.358 . S
C319 C321 1.356 . S
C319 H351 0.930 . S
C320 N317 1.279 . S
C320 C319 1.358 . S
C320 H323 0.930 . S
C321 C318 1.348 . S
C321 C319 1.356 . S
H322 C316 0.930 . S
H323 C320 0.930 . S
O324 Li264 1.956 . S
O324 Li265 1.970 . S
O324 Li266 1.961 . S
O324 C268 1.325 . S
O325 Li264 1.970 . S
O325 Li265 1.956 . S
O325 Li267 1.961 . S
O325 C274 1.325 . S
O326 Li264 1.961 . S
O326 Li266 1.956 . S
O326 Li267 1.970 . S
O326 C296 1.325 . S
O327 Li265 1.961 . S
O327 Li266 1.970 . S
O327 Li267 1.956 . S
O327 C302 1.325 . S
H328 C270 0.929 . S
H329 C271 0.930 . S
H330 C272 0.930 . S
H331 C273 0.930 . S
H332 C275 0.930 . S
H333 C277 0.929 . S
H334 C278 0.930 . S
H335 C279 0.930 . S
H336 C282 0.930 . S
H337 C285 0.929 . S
H338 C290 0.929 . S
H339 C291 0.930 . S
H340 C298 0.929 . S
H341 C299 0.930 . S
H342 C300 0.930 . S
H343 C301 0.930 . S
H344 C303 0.929 . S
H345 C304 0.930 . S
H346 C305 0.930 . S
H347 C306 0.930 . S
H348 C310 0.929 . S
H349 C312 0.930 . S
H350 C318 0.929 . S
H351 C319 0.930 . S
Li352 N369 1.990 . S
Li352 O412 1.956 . S
Li352 O413 1.970 . S
Li352 O414 1.961 . S
Li353 N377 1.990 . S
Li353 O412 1.970 . S
Li353 O413 1.956 . S
Li353 O415 1.961 . S
Li354 N399 1.990 . S
Li354 O412 1.961 . S
Li354 O414 1.956 . S
Li354 O415 1.970 . S
Li355 N405 1.990 . S
Li355 O413 1.961 . S
Li355 O414 1.970 . S
Li355 O415 1.956 . S
C356 C358 1.348 . S
C356 C359 1.356 . S
C356 O412 1.325 . S
N357 C360 1.314 . S
N357 C361 1.279 . S
C358 C356 1.348 . S
C358 C360 1.353 . S
C358 H416 0.929 . S
C359 C356 1.356 . S
C359 C361 1.358 . S
C359 H417 0.930 . S
C360 N357 1.314 . S
C360 C358 1.353 . S
C360 H418 0.930 . S
C361 N357 1.279 . S
C361 C359 1.358 . S
C361 H419 0.930 . S
C362 C365 1.348 . S
C362 C366 1.356 . S
C362 O413 1.325 . S
C363 N364 1.279 . S
C363 C366 1.358 . S
C363 H420 0.930 . S
N364 C363 1.279 . S
N364 C367 1.314 . S
C365 C362 1.348 . S
C365 C367 1.353 . S
C365 H421 0.929 . S
C366 C362 1.356 . S
C366 C363 1.358 . S
C366 H422 0.930 . S
C367 N364 1.314 . S
C367 C365 1.353 . S
C367 H423 0.930 . S
C368 N369 1.314 . S
C368 C373 1.353 . S
C368 H374 0.930 . S
N369 Li352 1.990 . S
N369 C368 1.314 . S
N369 C371 1.279 . S
C370 C371 1.358 . S
C370 C372 1.356 . S
C370 H424 0.930 . S
C371 N369 1.279 . S
C371 C370 1.358 . S
C371 H375 0.930 . S
C372 C370 1.356 . S
C372 C373 1.348 . S
C373 C368 1.353 . S
C373 C372 1.348 . S
C373 H425 0.929 . S
H374 C368 0.930 . S
H375 C371 0.930 . S
C376 N377 1.314 . S
C376 C378 1.353 . S
C376 H382 0.930 . S
N377 Li353 1.990 . S
N377 C376 1.314 . S
N377 C380 1.279 . S
C378 C376 1.353 . S
C378 C381 1.348 . S
C378 H426 0.948 . S
C379 C380 1.358 . S
C379 C381 1.356 . S
C379 H427 0.930 . S
C380 N377 1.279 . S
C380 C379 1.358 . S
C380 H383 0.930 . S
C381 C378 1.348 . S
C381 C379 1.356 . S
H382 C376 0.930 . S
H383 C380 0.930 . S
C384 C386 1.348 . S
C384 C387 1.356 . S
C384 O414 1.325 . S
N385 C388 1.314 . S
N385 C389 1.279 . S
C386 C384 1.348 . S
C386 C388 1.353 . S
C386 H428 0.929 . S
C387 C384 1.356 . S
C387 C389 1.358 . S
C387 H429 0.930 . S
C388 N385 1.314 . S
C388 C386 1.353 . S
C388 H430 0.930 . S
C389 N385 1.279 . S
C389 C387 1.358 . S
C389 H431 0.930 . S
C390 C391 1.348 . S
C390 C392 1.356 . S
C390 O415 1.325 1_556 S
C391 C390 1.348 . S
C391 C393 1.353 . S
C391 H432 0.929 . S
C392 C390 1.356 . S
C392 C394 1.358 . S
C392 H433 0.930 . S
C393 C391 1.353 . S
C393 N395 1.314 . S
C393 H434 0.930 . S
C394 C392 1.358 . S
C394 N395 1.279 . S
C394 H435 0.930 . S
N395 C393 1.314 . S
N395 C394 1.279 . S
C396 C398 1.353 . S
C396 N399 1.314 . S
C396 H402 0.930 . S
C397 N399 1.279 . S
C397 C400 1.358 . S
C397 H403 0.930 . S
C398 C396 1.353 . S
C398 C401 1.348 . S
C398 H436 0.929 . S
N399 Li354 1.990 . S
N399 C396 1.314 . S
N399 C397 1.279 . S
C400 C397 1.358 . S
C400 C401 1.356 . S
C400 H437 0.930 . S
C401 C398 1.348 . S
C401 C400 1.356 . S
H402 C396 0.930 . S
H403 C397 0.930 . S
C404 N405 1.314 . S
C404 C406 1.353 . S
C404 H410 0.930 . S
N405 Li355 1.990 . S
N405 C404 1.314 . S
N405 C408 1.279 1_554 S
C406 C404 1.353 . S
C406 C409 1.348 1_554 S
C406 H438 0.929 . S
C407 C408 1.358 . S
C407 C409 1.356 . S
C407 H439 0.930 . S
C408 N405 1.279 1_556 S
C408 C407 1.358 . S
C408 H411 0.930 . S
C409 C406 1.348 1_556 S
C409 C407 1.356 . S
H410 C404 0.930 . S
H411 C408 0.930 . S
O412 Li352 1.956 . S
O412 Li353 1.970 . S
O412 Li354 1.961 . S
O412 C356 1.325 . S
O413 Li352 1.970 . S
O413 Li353 1.956 . S
O413 Li355 1.961 . S
O413 C362 1.325 . S
O414 Li352 1.961 . S
O414 Li354 1.956 . S
O414 Li355 1.970 . S
O414 C384 1.325 . S
O415 Li353 1.961 . S
O415 Li354 1.970 . S
O415 Li355 1.956 . S
O415 C390 1.325 1_554 S
H416 C358 0.929 . S
H417 C359 0.930 . S
H418 C360 0.930 . S
H419 C361 0.930 . S
H420 C363 0.930 . S
H421 C365 0.929 . S
H422 C366 0.930 . S
H423 C367 0.930 . S
H424 C370 0.930 . S
H425 C373 0.929 . S
H426 C378 0.948 . S
H427 C379 0.930 . S
H428 C386 0.929 . S
H429 C387 0.930 . S
H430 C388 0.930 . S
H431 C389 0.930 . S
H432 C391 0.929 . S
H433 C392 0.930 . S
H434 C393 0.930 . S
H435 C394 0.930 . S
H436 C398 0.929 . S
H437 C400 0.930 . S
H438 C406 0.929 . S
H439 C407 0.930 . S
Li440 N457 1.990 . S
Li440 O500 1.956 . S
Li440 O501 1.970 . S
Li440 O502 1.961 . S
Li441 N465 1.990 . S
Li441 O500 1.970 . S
Li441 O501 1.956 . S
Li441 O503 1.961 . S
Li442 N487 1.990 . S
Li442 O500 1.961 . S
Li442 O502 1.956 . S
Li442 O503 1.970 . S
Li443 N493 1.990 . S
Li443 O501 1.961 . S
Li443 O502 1.970 . S
Li443 O503 1.956 . S
C444 C446 1.348 . S
C444 C447 1.356 . S
C444 O500 1.325 . S
N445 C448 1.314 . S
N445 C449 1.279 . S
C446 C444 1.348 . S
C446 C448 1.353 . S
C446 H504 0.929 . S
C447 C444 1.356 . S
C447 C449 1.358 . S
C447 H505 0.930 . S
C448 N445 1.314 . S
C448 C446 1.353 . S
C448 H506 0.930 . S
C449 N445 1.279 . S
C449 C447 1.358 . S
C449 H507 0.930 . S
C450 C453 1.348 . S
C450 C454 1.356 . S
C450 O501 1.325 . S
C451 N452 1.279 . S
C451 C454 1.358 . S
C451 H508 0.930 . S
N452 C451 1.279 . S
N452 C455 1.314 . S
C453 C450 1.348 . S
C453 C455 1.353 . S
C453 H509 0.929 . S
C454 C450 1.356 . S
C454 C451 1.358 . S
C454 H510 0.930 . S
C455 N452 1.314 . S
C455 C453 1.353 . S
C455 H511 0.930 . S
C456 N457 1.314 . S
C456 C461 1.353 . S
C456 H462 0.930 . S
N457 Li440 1.990 . S
N457 C456 1.314 . S
N457 C459 1.279 . S
C458 C459 1.358 . S
C458 C460 1.356 . S
C458 H512 0.930 . S
C459 N457 1.279 . S
C459 C458 1.358 . S
C459 H463 0.930 . S
C460 C458 1.356 . S
C460 C461 1.348 . S
C461 C456 1.353 . S
C461 C460 1.348 . S
C461 H513 0.929 . S
H462 C456 0.930 . S
H463 C459 0.930 . S
C464 N465 1.314 . S
C464 C466 1.353 . S
C464 H470 0.930 . S
N465 Li441 1.990 . S
N465 C464 1.314 . S
N465 C468 1.279 . S
C466 C464 1.353 . S
C466 C469 1.348 . S
C466 H514 0.929 . S
C467 C468 1.358 . S
C467 C469 1.356 . S
C467 H515 0.930 . S
C468 N465 1.279 . S
C468 C467 1.358 . S
C468 H471 0.930 . S
C469 C466 1.348 . S
C469 C467 1.356 . S
H470 C464 0.930 . S
H471 C468 0.930 . S
C472 C474 1.348 . S
C472 C475 1.356 . S
C472 O502 1.325 . S
N473 C476 1.314 . S
N473 C477 1.279 . S
C474 C472 1.348 . S
C474 C476 1.353 . S
C474 H516 0.929 . S
C475 C472 1.356 . S
C475 C477 1.358 . S
C475 H517 0.930 . S
C476 N473 1.314 . S
C476 C474 1.353 . S
C476 H518 0.930 . S
C477 N473 1.279 . S
C477 C475 1.358 . S
C477 H519 0.930 . S
C478 C479 1.348 . S
C478 C480 1.356 . S
C478 O503 1.325 . S
C479 C478 1.348 . S
C479 C481 1.353 . S
C479 H520 0.929 . S
C480 C478 1.356 . S
C480 C482 1.358 . S
C480 H521 0.930 . S
C481 C479 1.353 . S
C481 N483 1.314 . S
C481 H522 0.930 . S
C482 C480 1.358 . S
C482 N483 1.279 . S
C482 H523 0.930 . S
N483 C481 1.314 . S
N483 C482 1.279 . S
C484 C486 1.353 . S
C484 N487 1.314 . S
C484 H490 0.930 . S
C485 N487 1.279 . S
C485 C488 1.358 . S
C485 H491 0.930 . S
C486 C484 1.353 . S
C486 C489 1.348 . S
C486 H524 0.929 . S
N487 Li442 1.990 . S
N487 C484 1.314 . S
N487 C485 1.279 . S
C488 C485 1.358 . S
C488 C489 1.356 . S
C488 H525 0.930 . S
C489 C486 1.348 . S
C489 C488 1.356 . S
H490 C484 0.930 . S
H491 C485 0.930 . S
C492 N493 1.314 . S
C492 C494 1.353 . S
C492 H498 0.930 . S
N493 Li443 1.990 . S
N493 C492 1.314 . S
N493 C496 1.279 . S
C494 C492 1.353 . S
C494 C497 1.348 . S
C494 H526 0.929 . S
C495 C496 1.358 . S
C495 C497 1.356 . S
C495 H527 0.930 . S
C496 N493 1.279 . S
C496 C495 1.358 . S
C496 H499 0.930 . S
C497 C494 1.348 . S
C497 C495 1.356 . S
H498 C492 0.930 . S
H499 C496 0.930 . S
O500 Li440 1.956 . S
O500 Li441 1.970 . S
O500 Li442 1.961 . S
O500 C444 1.325 . S
O501 Li440 1.970 . S
O501 Li441 1.956 . S
O501 Li443 1.961 . S
O501 C450 1.325 . S
O502 Li440 1.961 . S
O502 Li442 1.956 . S
O502 Li443 1.970 . S
O502 C472 1.325 . S
O503 Li441 1.961 . S
O503 Li442 1.970 . S
O503 Li443 1.956 . S
O503 C478 1.325 . S
H504 C446 0.929 . S
H505 C447 0.930 . S
H506 C448 0.930 . S
H507 C449 0.930 . S
H508 C451 0.930 . S
H509 C453 0.929 . S
H510 C454 0.930 . S
H511 C455 0.930 . S
H512 C458 0.930 . S
H513 C461 0.929 . S
H514 C466 0.929 . S
H515 C467 0.930 . S
H516 C474 0.929 . S
H517 C475 0.930 . S
H518 C476 0.930 . S
H519 C477 0.930 . S
H520 C479 0.929 . S
H521 C480 0.930 . S
H522 C481 0.930 . S
H523 C482 0.930 . S
H524 C486 0.929 . S
H525 C488 0.930 . S
H526 C494 0.929 . S
H527 C495 0.930 . S
Li528 N545 1.990 . S
Li528 O588 1.956 . S
Li528 O589 1.970 . S
Li528 O590 1.961 . S
Li529 N553 1.990 . S
Li529 O588 1.970 . S
Li529 O589 1.956 . S
Li529 O591 1.961 . S
Li530 N575 1.990 . S
Li530 O588 1.961 . S
Li530 O590 1.956 . S
Li530 O591 1.970 . S
Li531 N581 1.990 . S
Li531 O589 1.961 . S
Li531 O590 1.970 . S
Li531 O591 1.956 . S
C532 C534 1.348 . S
C532 C535 1.356 . S
C532 O588 1.325 . S
N533 C536 1.314 . S
N533 C537 1.279 . S
C534 C532 1.348 . S
C534 C536 1.353 . S
C534 H592 0.929 . S
C535 C532 1.356 . S
C535 C537 1.358 . S
C535 H593 0.930 . S
C536 N533 1.314 . S
C536 C534 1.353 . S
C536 H594 0.930 . S
C537 N533 1.279 . S
C537 C535 1.358 . S
C537 H595 0.930 . S
C538 C541 1.348 . S
C538 C542 1.356 . S
C538 O589 1.325 1_554 S
C539 N540 1.279 . S
C539 C542 1.358 . S
C539 H596 0.930 . S
N540 C539 1.279 . S
N540 C543 1.314 . S
C541 C538 1.348 . S
C541 C543 1.353 . S
C541 H597 0.929 . S
C542 C538 1.356 . S
C542 C539 1.358 . S
C542 H598 0.930 . S
C543 N540 1.314 . S
C543 C541 1.353 . S
C543 H599 0.930 . S
C544 N545 1.314 . S
C544 C549 1.353 . S
C544 H550 0.930 . S
N545 Li528 1.990 . S
N545 C544 1.314 . S
N545 C547 1.279 . S
C546 C547 1.358 . S
C546 C548 1.356 . S
C546 H600 0.930 . S
C547 N545 1.279 . S
C547 C546 1.358 . S
C547 H551 0.930 . S
C548 C546 1.356 . S
C548 C549 1.348 . S
C549 C544 1.353 . S
C549 C548 1.348 . S
C549 H601 0.929 . S
H550 C544 0.930 . S
H551 C547 0.930 . S
C552 N553 1.314 . S
C552 C554 1.353 . S
C552 H558 0.930 . S
N553 Li529 1.990 . S
N553 C552 1.314 . S
N553 C556 1.279 1_556 S
C554 C552 1.353 . S
C554 C557 1.348 1_556 S
C554 H602 0.929 . S
C555 C556 1.358 . S
C555 C557 1.356 . S
C555 H603 0.930 . S
C556 N553 1.279 1_554 S
C556 C555 1.358 . S
C556 H559 0.930 . S
C557 C554 1.348 1_554 S
C557 C555 1.356 . S
H558 C552 0.930 . S
H559 C556 0.930 . S
C560 C562 1.348 . S
C560 C563 1.356 . S
C560 O590 1.325 . S
N561 C564 1.314 . S
N561 C565 1.279 . S
C562 C560 1.348 . S
C562 C564 1.353 . S
C562 H604 0.929 . S
C563 C560 1.356 . S
C563 C565 1.358 . S
C563 H605 0.930 . S
C564 N561 1.314 . S
C564 C562 1.353 . S
C564 H606 0.930 . S
C565 N561 1.279 . S
C565 C563 1.358 . S
C565 H607 0.930 . S
C566 C567 1.348 . S
C566 C568 1.356 . S
C566 O591 1.325 . S
C567 C566 1.348 . S
C567 C569 1.353 . S
C567 H608 0.929 . S
C568 C566 1.356 . S
C568 C570 1.358 . S
C568 H609 0.930 . S
C569 C567 1.353 . S
C569 N571 1.314 . S
C569 H610 0.930 . S
C570 C568 1.358 . S
C570 N571 1.279 . S
C570 H611 0.930 . S
N571 C569 1.314 . S
N571 C570 1.279 . S
C572 C574 1.353 . S
C572 N575 1.314 . S
C572 H578 0.930 . S
C573 N575 1.279 . S
C573 C576 1.358 . S
C573 H579 0.930 . S
C574 C572 1.353 . S
C574 C577 1.348 . S
C574 H612 0.929 . S
N575 Li530 1.990 . S
N575 C572 1.314 . S
N575 C573 1.279 . S
C576 C573 1.358 . S
C576 C577 1.356 . S
C576 H613 0.930 . S
C577 C574 1.348 . S
C577 C576 1.356 . S
H578 C572 0.930 . S
H579 C573 0.930 . S
C580 N581 1.314 . S
C580 C582 1.353 . S
C580 H586 0.930 . S
N581 Li531 1.990 . S
N581 C580 1.314 . S
N581 C584 1.279 . S
C582 C580 1.353 . S
C582 C585 1.348 . S
C582 H614 0.948 . S
C583 C584 1.358 . S
C583 C585 1.356 . S
C583 H615 0.930 . S
C584 N581 1.279 . S
C584 C583 1.358 . S
C584 H587 0.930 . S
C585 C582 1.348 . S
C585 C583 1.356 . S
H586 C580 0.930 . S
H587 C584 0.930 . S
O588 Li528 1.956 . S
O588 Li529 1.970 . S
O588 Li530 1.961 . S
O588 C532 1.325 . S
O589 Li528 1.970 . S
O589 Li529 1.956 . S
O589 Li531 1.961 . S
O589 C538 1.325 1_556 S
O590 Li528 1.961 . S
O590 Li530 1.956 . S
O590 Li531 1.970 . S
O590 C560 1.325 . S
O591 Li529 1.961 . S
O591 Li530 1.970 . S
O591 Li531 1.956 . S
O591 C566 1.325 . S
H592 C534 0.929 . S
H593 C535 0.930 . S
H594 C536 0.930 . S
H595 C537 0.930 . S
H596 C539 0.930 . S
H597 C541 0.929 . S
H598 C542 0.930 . S
H599 C543 0.930 . S
H600 C546 0.930 . S
H601 C549 0.929 . S
H602 C554 0.929 . S
H603 C555 0.930 . S
H604 C562 0.929 . S
H605 C563 0.930 . S
H606 C564 0.930 . S
H607 C565 0.930 . S
H608 C567 0.929 . S
H609 C568 0.930 . S
H610 C569 0.930 . S
H611 C570 0.930 . S
H612 C574 0.929 . S
H613 C576 0.930 . S
H614 C582 0.948 . S
H615 C583 0.930 . S
Li616 N633 1.990 . S
Li616 O676 1.956 . S
Li616 O677 1.970 . S
Li616 O678 1.961 . S
Li617 N641 1.990 . S
Li617 O676 1.970 . S
Li617 O677 1.956 . S
Li617 O679 1.961 . S
Li618 N663 1.990 . S
Li618 O676 1.961 . S
Li618 O678 1.956 . S
Li618 O679 1.970 . S
Li619 N669 1.990 . S
Li619 O677 1.961 . S
Li619 O678 1.970 . S
Li619 O679 1.956 . S
C620 C622 1.348 . S
C620 C623 1.356 . S
C620 O676 1.325 . S
N621 C624 1.314 . S
N621 C625 1.279 . S
C622 C620 1.348 . S
C622 C624 1.353 . S
C622 H680 0.929 . S
C623 C620 1.356 . S
C623 C625 1.358 . S
C623 H681 0.930 . S
C624 N621 1.314 . S
C624 C622 1.353 . S
C624 H682 0.930 . S
C625 N621 1.279 . S
C625 C623 1.358 . S
C625 H683 0.930 . S
C626 C629 1.348 . S
C626 C630 1.356 . S
C626 O677 1.325 . S
C627 N628 1.279 . S
C627 C630 1.358 . S
C627 H684 0.930 . S
N628 C627 1.279 . S
N628 C631 1.314 . S
C629 C626 1.348 . S
C629 C631 1.353 . S
C629 H685 0.929 . S
C630 C626 1.356 . S
C630 C627 1.358 . S
C630 H686 0.930 . S
C631 N628 1.314 . S
C631 C629 1.353 . S
C631 H687 0.930 . S
C632 N633 1.314 . S
C632 C637 1.353 . S
C632 H638 0.930 . S
N633 Li616 1.990 . S
N633 C632 1.314 . S
N633 C635 1.279 . S
C634 C635 1.358 . S
C634 C636 1.356 . S
C634 H688 0.930 . S
C635 N633 1.279 . S
C635 C634 1.358 . S
C635 H639 0.930 . S
C636 C634 1.356 . S
C636 C637 1.348 . S
C637 C632 1.353 . S
C637 C636 1.348 . S
C637 H689 0.929 . S
H638 C632 0.930 . S
H639 C635 0.930 . S
C640 N641 1.314 . S
C640 C642 1.353 . S
C640 H646 0.930 . S
N641 Li617 1.990 . S
N641 C640 1.314 . S
N641 C644 1.279 . S
C642 C640 1.353 . S
C642 C645 1.348 . S
C642 H690 0.929 . S
C643 C644 1.358 . S
C643 C645 1.356 . S
C643 H691 0.930 . S
C644 N641 1.279 . S
C644 C643 1.358 . S
C644 H647 0.930 . S
C645 C642 1.348 . S
C645 C643 1.356 . S
H646 C640 0.930 . S
H647 C644 0.930 . S
C648 C650 1.348 . S
C648 C651 1.356 . S
C648 O678 1.325 . S
N649 C652 1.314 . S
N649 C653 1.279 . S
C650 C648 1.348 . S
C650 C652 1.353 . S
C650 H692 0.929 . S
C651 C648 1.356 . S
C651 C653 1.358 . S
C651 H693 0.930 . S
C652 N649 1.314 . S
C652 C650 1.353 . S
C652 H694 0.930 . S
C653 N649 1.279 . S
C653 C651 1.358 . S
C653 H695 0.930 . S
C654 C655 1.348 . S
C654 C656 1.356 . S
C654 O679 1.325 . S
C655 C654 1.348 . S
C655 C657 1.353 . S
C655 H696 0.929 . S
C656 C654 1.356 . S
C656 C658 1.358 . S
C656 H697 0.930 . S
C657 C655 1.353 . S
C657 N659 1.314 . S
C657 H698 0.930 . S
C658 C656 1.358 . S
C658 N659 1.279 . S
C658 H699 0.930 . S
N659 C657 1.314 . S
N659 C658 1.279 . S
C660 C662 1.353 . S
C660 N663 1.314 . S
C660 H666 0.930 . S
C661 N663 1.279 . S
C661 C664 1.358 . S
C661 H667 0.930 . S
C662 C660 1.353 . S
C662 C665 1.348 . S
C662 H700 0.929 . S
N663 Li618 1.990 . S
N663 C660 1.314 . S
N663 C661 1.279 . S
C664 C661 1.358 . S
C664 C665 1.356 . S
C664 H701 0.930 . S
C665 C662 1.348 . S
C665 C664 1.356 . S
H666 C660 0.930 . S
H667 C661 0.930 . S
C668 N669 1.314 . S
C668 C670 1.353 . S
C668 H674 0.930 . S
N669 Li619 1.990 . S
N669 C668 1.314 . S
N669 C672 1.279 . S
C670 C668 1.353 . S
C670 C673 1.348 . S
C670 H702 0.929 . S
C671 C672 1.358 . S
C671 C673 1.356 . S
C671 H703 0.930 . S
C672 N669 1.279 . S
C672 C671 1.358 . S
C672 H675 0.930 . S
C673 C670 1.348 . S
C673 C671 1.356 . S
H674 C668 0.930 . S
H675 C672 0.930 . S
O676 Li616 1.956 . S
O676 Li617 1.970 . S
O676 Li618 1.961 . S
O676 C620 1.325 . S
O677 Li616 1.970 . S
O677 Li617 1.956 . S
O677 Li619 1.961 . S
O677 C626 1.325 . S
O678 Li616 1.961 . S
O678 Li618 1.956 . S
O678 Li619 1.970 . S
O678 C648 1.325 . S
O679 Li617 1.961 . S
O679 Li618 1.970 . S
O679 Li619 1.956 . S
O679 C654 1.325 . S
H680 C622 0.929 . S
H681 C623 0.930 . S
H682 C624 0.930 . S
H683 C625 0.930 . S
H684 C627 0.930 . S
H685 C629 0.929 . S
H686 C630 0.930 . S
H687 C631 0.930 . S
H688 C634 0.930 . S
H689 C637 0.929 . S
H690 C642 0.929 . S
H691 C643 0.930 . S
H692 C650 0.929 . S
H693 C651 0.930 . S
H694 C652 0.930 . S
H695 C653 0.930 . S
H696 C655 0.929 . S
H697 C656 0.930 . S
H698 C657 0.930 . S
H699 C658 0.930 . S
H700 C662 0.929 . S
H701 C664 0.930 . S
H702 C670 0.929 . S
H703 C671 0.930 . S
Li704 N721 1.990 . S
Li704 O764 1.956 . S
Li704 O765 1.970 . S
Li704 O766 1.961 . S
Li705 N729 1.990 . S
Li705 O764 1.970 . S
Li705 O765 1.956 . S
Li705 O767 1.961 . S
Li706 N751 1.990 . S
Li706 O764 1.961 . S
Li706 O766 1.956 . S
Li706 O767 1.970 . S
Li707 N757 1.990 . S
Li707 O765 1.961 . S
Li707 O766 1.970 . S
Li707 O767 1.956 . S
C708 C710 1.348 . S
C708 C711 1.356 . S
C708 O764 1.325 . S
N709 C712 1.314 . S
N709 C713 1.279 . S
C710 C708 1.348 . S
C710 C712 1.353 . S
C710 H768 0.929 . S
C711 C708 1.356 . S
C711 C713 1.358 . S
C711 H769 0.930 . S
C712 N709 1.314 . S
C712 C710 1.353 . S
C712 H770 0.930 . S
C713 N709 1.279 . S
C713 C711 1.358 . S
C713 H771 0.930 . S
C714 C717 1.348 . S
C714 C718 1.356 . S
C714 O765 1.325 1_554 S
C715 N716 1.279 . S
C715 C718 1.358 . S
C715 H772 0.930 . S
N716 C715 1.279 . S
N716 C719 1.314 . S
C717 C714 1.348 . S
C717 C719 1.353 . S
C717 H773 0.929 . S
C718 C714 1.356 . S
C718 C715 1.358 . S
C718 H774 0.930 . S
C719 N716 1.314 . S
C719 C717 1.353 . S
C719 H775 0.930 . S
C720 N721 1.314 . S
C720 C725 1.353 . S
C720 H726 0.930 . S
N721 Li704 1.990 . S
N721 C720 1.314 . S
N721 C723 1.279 . S
C722 C723 1.358 . S
C722 C724 1.356 . S
C722 H776 0.930 . S
C723 N721 1.279 . S
C723 C722 1.358 . S
C723 H727 0.930 . S
C724 C722 1.356 . S
C724 C725 1.348 . S
C725 C720 1.353 . S
C725 C724 1.348 . S
C725 H777 0.929 . S
H726 C720 0.930 . S
H727 C723 0.930 . S
C728 N729 1.314 . S
C728 C730 1.353 . S
C728 H734 0.930 . S
N729 Li705 1.990 . S
N729 C728 1.314 . S
N729 C732 1.279 1_556 S
C730 C728 1.353 . S
C730 C733 1.348 1_556 S
C730 H778 0.929 . S
C731 C732 1.358 . S
C731 C733 1.356 . S
C731 H779 0.930 . S
C732 N729 1.279 1_554 S
C732 C731 1.358 . S
C732 H735 0.930 . S
C733 C730 1.348 1_554 S
C733 C731 1.356 . S
H734 C728 0.930 . S
H735 C732 0.930 . S
C736 C738 1.348 . S
C736 C739 1.356 . S
C736 O766 1.325 . S
N737 C740 1.314 . S
N737 C741 1.279 . S
C738 C736 1.348 . S
C738 C740 1.353 . S
C738 H780 0.929 . S
C739 C736 1.356 . S
C739 C741 1.358 . S
C739 H781 0.930 . S
C740 N737 1.314 . S
C740 C738 1.353 . S
C740 H782 0.930 . S
C741 N737 1.279 . S
C741 C739 1.358 . S
C741 H783 0.930 . S
C742 C743 1.348 . S
C742 C744 1.356 . S
C742 O767 1.325 . S
C743 C742 1.348 . S
C743 C745 1.353 . S
C743 H784 0.929 . S
C744 C742 1.356 . S
C744 C746 1.358 . S
C744 H785 0.930 . S
C745 C743 1.353 . S
C745 N747 1.314 . S
C745 H786 0.930 . S
C746 C744 1.358 . S
C746 N747 1.279 . S
C746 H787 0.930 . S
N747 C745 1.314 . S
N747 C746 1.279 . S
C748 C750 1.353 . S
C748 N751 1.314 . S
C748 H754 0.930 . S
C749 N751 1.279 . S
C749 C752 1.358 . S
C749 H755 0.930 . S
C750 C748 1.353 . S
C750 C753 1.348 . S
C750 H788 0.929 . S
N751 Li706 1.990 . S
N751 C748 1.314 . S
N751 C749 1.279 . S
C752 C749 1.358 . S
C752 C753 1.356 . S
C752 H789 0.930 . S
C753 C750 1.348 . S
C753 C752 1.356 . S
H754 C748 0.930 . S
H755 C749 0.930 . S
C756 N757 1.314 . S
C756 C758 1.353 . S
C756 H762 0.930 . S
N757 Li707 1.990 . S
N757 C756 1.314 . S
N757 C760 1.279 . S
C758 C756 1.353 . S
C758 C761 1.348 . S
C758 H790 0.948 . S
C759 C760 1.358 . S
C759 C761 1.356 . S
C759 H791 0.930 . S
C760 N757 1.279 . S
C760 C759 1.358 . S
C760 H763 0.930 . S
C761 C758 1.348 . S
C761 C759 1.356 . S
H762 C756 0.930 . S
H763 C760 0.930 . S
O764 Li704 1.956 . S
O764 Li705 1.970 . S
O764 Li706 1.961 . S
O764 C708 1.325 . S
O765 Li704 1.970 . S
O765 Li705 1.956 . S
O765 Li707 1.961 . S
O765 C714 1.325 1_556 S
O766 Li704 1.961 . S
O766 Li706 1.956 . S
O766 Li707 1.970 . S
O766 C736 1.325 . S
O767 Li705 1.961 . S
O767 Li706 1.970 . S
O767 Li707 1.956 . S
O767 C742 1.325 . S
H768 C710 0.929 . S
H769 C711 0.930 . S
H770 C712 0.930 . S
H771 C713 0.930 . S
H772 C715 0.930 . S
H773 C717 0.929 . S
H774 C718 0.930 . S
H775 C719 0.930 . S
H776 C722 0.930 . S
H777 C725 0.929 . S
H778 C730 0.929 . S
H779 C731 0.930 . S
H780 C738 0.929 . S
H781 C739 0.930 . S
H782 C740 0.930 . S
H783 C741 0.930 . S
H784 C743 0.929 . S
H785 C744 0.930 . S
H786 C745 0.930 . S
H787 C746 0.930 . S
H788 C750 0.929 . S
H789 C752 0.930 . S
H790 C758 0.948 . S
H791 C759 0.930 . S
Li792 N809 1.990 . S
Li792 O852 1.956 . S
Li792 O853 1.970 . S
Li792 O854 1.961 . S
Li793 N817 1.990 . S
Li793 O852 1.970 . S
Li793 O853 1.956 . S
Li793 O855 1.961 . S
Li794 N839 1.990 . S
Li794 O852 1.961 . S
Li794 O854 1.956 . S
Li794 O855 1.970 . S
Li795 N845 1.990 . S
Li795 O853 1.961 . S
Li795 O854 1.970 . S
Li795 O855 1.956 . S
C796 C798 1.348 . S
C796 C799 1.356 . S
C796 O852 1.325 . S
N797 C800 1.314 . S
N797 C801 1.279 . S
C798 C796 1.348 . S
C798 C800 1.353 . S
C798 H856 0.929 . S
C799 C796 1.356 . S
C799 C801 1.358 . S
C799 H857 0.930 . S
C800 N797 1.314 . S
C800 C798 1.353 . S
C800 H858 0.930 . S
C801 N797 1.279 . S
C801 C799 1.358 . S
C801 H859 0.930 . S
C802 C805 1.348 . S
C802 C806 1.356 . S
C802 O853 1.325 . S
C803 N804 1.279 . S
C803 C806 1.358 . S
C803 H860 0.930 . S
N804 C803 1.279 . S
N804 C807 1.314 . S
C805 C802 1.348 . S
C805 C807 1.353 . S
C805 H861 0.929 . S
C806 C802 1.356 . S
C806 C803 1.358 . S
C806 H862 0.930 . S
C807 N804 1.314 . S
C807 C805 1.353 . S
C807 H863 0.930 . S
C808 N809 1.314 . S
C808 C813 1.353 . S
C808 H814 0.930 . S
N809 Li792 1.990 . S
N809 C808 1.314 . S
N809 C811 1.279 . S
C810 C811 1.358 . S
C810 C812 1.356 . S
C810 H864 0.930 . S
C811 N809 1.279 . S
C811 C810 1.358 . S
C811 H815 0.930 . S
C812 C810 1.356 . S
C812 C813 1.348 . S
C813 C808 1.353 . S
C813 C812 1.348 . S
C813 H865 0.929 . S
H814 C808 0.930 . S
H815 C811 0.930 . S
C816 N817 1.314 . S
C816 C818 1.353 . S
C816 H822 0.930 . S
N817 Li793 1.990 . S
N817 C816 1.314 . S
N817 C820 1.279 . S
C818 C816 1.353 . S
C818 C821 1.348 . S
C818 H866 0.929 . S
C819 C820 1.358 . S
C819 C821 1.356 . S
C819 H867 0.930 . S
C820 N817 1.279 . S
C820 C819 1.358 . S
C820 H823 0.930 . S
C821 C818 1.348 . S
C821 C819 1.356 . S
H822 C816 0.930 . S
H823 C820 0.930 . S
C824 C826 1.348 . S
C824 C827 1.356 . S
C824 O854 1.325 . S
N825 C828 1.314 . S
N825 C829 1.279 . S
C826 C824 1.348 . S
C826 C828 1.353 . S
C826 H868 0.929 . S
C827 C824 1.356 . S
C827 C829 1.358 . S
C827 H869 0.930 . S
C828 N825 1.314 . S
C828 C826 1.353 . S
C828 H870 0.930 . S
C829 N825 1.279 . S
C829 C827 1.358 . S
C829 H871 0.930 . S
C830 C831 1.348 . S
C830 C832 1.356 . S
C830 O855 1.325 . S
C831 C830 1.348 . S
C831 C833 1.353 . S
C831 H872 0.929 . S
C832 C830 1.356 . S
C832 C834 1.358 . S
C832 H873 0.930 . S
C833 C831 1.353 . S
C833 N835 1.314 . S
C833 H874 0.930 . S
C834 C832 1.358 . S
C834 N835 1.279 . S
C834 H875 0.930 . S
N835 C833 1.314 . S
N835 C834 1.279 . S
C836 C838 1.353 . S
C836 N839 1.314 . S
C836 H842 0.930 . S
C837 N839 1.279 . S
C837 C840 1.358 . S
C837 H843 0.930 . S
C838 C836 1.353 . S
C838 C841 1.348 . S
C838 H876 0.929 . S
N839 Li794 1.990 . S
N839 C836 1.314 . S
N839 C837 1.279 . S
C840 C837 1.358 . S
C840 C841 1.356 . S
C840 H877 0.930 . S
C841 C838 1.348 . S
C841 C840 1.356 . S
H842 C836 0.930 . S
H843 C837 0.930 . S
C844 N845 1.314 . S
C844 C846 1.353 . S
C844 H850 0.930 . S
N845 Li795 1.990 . S
N845 C844 1.314 . S
N845 C848 1.279 . S
C846 C844 1.353 . S
C846 C849 1.348 . S
C846 H878 0.929 . S
C847 C848 1.358 . S
C847 C849 1.356 . S
C847 H879 0.930 . S
C848 N845 1.279 . S
C848 C847 1.358 . S
C848 H851 0.930 . S
C849 C846 1.348 . S
C849 C847 1.356 . S
H850 C844 0.930 . S
H851 C848 0.930 . S
O852 Li792 1.956 . S
O852 Li793 1.970 . S
O852 Li794 1.961 . S
O852 C796 1.325 . S
O853 Li792 1.970 . S
O853 Li793 1.956 . S
O853 Li795 1.961 . S
O853 C802 1.325 . S
O854 Li792 1.961 . S
O854 Li794 1.956 . S
O854 Li795 1.970 . S
O854 C824 1.325 . S
O855 Li793 1.961 . S
O855 Li794 1.970 . S
O855 Li795 1.956 . S
O855 C830 1.325 . S
H856 C798 0.929 . S
H857 C799 0.930 . S
H858 C800 0.930 . S
H859 C801 0.930 . S
H860 C803 0.930 . S
H861 C805 0.929 . S
H862 C806 0.930 . S
H863 C807 0.930 . S
H864 C810 0.930 . S
H865 C813 0.929 . S
H866 C818 0.929 . S
H867 C819 0.930 . S
H868 C826 0.929 . S
H869 C827 0.930 . S
H870 C828 0.930 . S
H871 C829 0.930 . S
H872 C831 0.929 . S
H873 C832 0.930 . S
H874 C833 0.930 . S
H875 C834 0.930 . S
H876 C838 0.929 . S
H877 C840 0.930 . S
H878 C846 0.929 . S
H879 C847 0.930 . S
Li880 N897 1.990 . S
Li880 O940 1.956 . S
Li880 O941 1.970 . S
Li880 O942 1.961 . S
Li881 N905 1.990 . S
Li881 O940 1.970 . S
Li881 O941 1.956 . S
Li881 O943 1.961 . S
Li882 N927 1.990 . S
Li882 O940 1.961 . S
Li882 O942 1.956 . S
Li882 O943 1.970 . S
Li883 N933 1.990 . S
Li883 O941 1.961 . S
Li883 O942 1.970 . S
Li883 O943 1.956 . S
C884 C886 1.348 . S
C884 C887 1.356 . S
C884 O940 1.325 . S
N885 C888 1.314 . S
N885 C889 1.279 . S
C886 C884 1.348 . S
C886 C888 1.353 . S
C886 H944 0.929 . S
C887 C884 1.356 . S
C887 C889 1.358 . S
C887 H945 0.930 . S
C888 N885 1.314 . S
C888 C886 1.353 . S
C888 H946 0.930 . S
C889 N885 1.279 . S
C889 C887 1.358 . S
C889 H947 0.930 . S
C890 C893 1.348 . S
C890 C894 1.356 . S
C890 O941 1.325 1_554 S
C891 N892 1.279 . S
C891 C894 1.358 . S
C891 H948 0.930 . S
N892 C891 1.279 . S
N892 C895 1.314 . S
C893 C890 1.348 . S
C893 C895 1.353 . S
C893 H949 0.929 . S
C894 C890 1.356 . S
C894 C891 1.358 . S
C894 H950 0.930 . S
C895 N892 1.314 . S
C895 C893 1.353 . S
C895 H951 0.930 . S
C896 N897 1.314 . S
C896 C901 1.353 . S
C896 H902 0.930 . S
N897 Li880 1.990 . S
N897 C896 1.314 . S
N897 C899 1.279 . S
C898 C899 1.358 . S
C898 C900 1.356 . S
C898 H952 0.930 . S
C899 N897 1.279 . S
C899 C898 1.358 . S
C899 H903 0.930 . S
C900 C898 1.356 . S
C900 C901 1.348 . S
C901 C896 1.353 . S
C901 C900 1.348 . S
C901 H953 0.929 . S
H902 C896 0.930 . S
H903 C899 0.930 . S
C904 N905 1.314 . S
C904 C906 1.353 . S
C904 H910 0.930 . S
N905 Li881 1.990 . S
N905 C904 1.314 . S
N905 C908 1.279 1_556 S
C906 C904 1.353 . S
C906 C909 1.348 1_556 S
C906 H954 0.929 . S
C907 C908 1.358 . S
C907 C909 1.356 . S
C907 H955 0.930 . S
C908 N905 1.279 1_554 S
C908 C907 1.358 . S
C908 H911 0.930 . S
C909 C906 1.348 1_554 S
C909 C907 1.356 . S
H910 C904 0.930 . S
H911 C908 0.930 . S
C912 C914 1.348 . S
C912 C915 1.356 . S
C912 O942 1.325 . S
N913 C916 1.314 . S
N913 C917 1.279 . S
C914 C912 1.348 . S
C914 C916 1.353 . S
C914 H956 0.929 . S
C915 C912 1.356 . S
C915 C917 1.358 . S
C915 H957 0.930 . S
C916 N913 1.314 . S
C916 C914 1.353 . S
C916 H958 0.930 . S
C917 N913 1.279 . S
C917 C915 1.358 . S
C917 H959 0.930 . S
C918 C919 1.348 . S
C918 C920 1.356 . S
C918 O943 1.325 . S
C919 C918 1.348 . S
C919 C921 1.353 . S
C919 H960 0.929 . S
C920 C918 1.356 . S
C920 C922 1.358 . S
C920 H961 0.930 . S
C921 C919 1.353 . S
C921 N923 1.314 . S
C921 H962 0.930 . S
C922 C920 1.358 . S
C922 N923 1.279 . S
C922 H963 0.930 . S
N923 C921 1.314 . S
N923 C922 1.279 . S
C924 C926 1.353 . S
C924 N927 1.314 . S
C924 H930 0.930 . S
C925 N927 1.279 . S
C925 C928 1.358 . S
C925 H931 0.930 . S
C926 C924 1.353 . S
C926 C929 1.348 . S
C926 H964 0.929 . S
N927 Li882 1.990 . S
N927 C924 1.314 . S
N927 C925 1.279 . S
C928 C925 1.358 . S
C928 C929 1.356 . S
C928 H965 0.930 . S
C929 C926 1.348 . S
C929 C928 1.356 . S
H930 C924 0.930 . S
H931 C925 0.930 . S
C932 N933 1.314 . S
C932 C934 1.353 . S
C932 H938 0.930 . S
N933 Li883 1.990 . S
N933 C932 1.314 . S
N933 C936 1.279 . S
C934 C932 1.353 . S
C934 C937 1.348 . S
C934 H966 0.949 . S
C935 C936 1.358 . S
C935 C937 1.356 . S
C935 H967 0.930 . S
C936 N933 1.279 . S
C936 C935 1.358 . S
C936 H939 0.930 . S
C937 C934 1.348 . S
C937 C935 1.356 . S
H938 C932 0.930 . S
H939 C936 0.930 . S
O940 Li880 1.956 . S
O940 Li881 1.970 . S
O940 Li882 1.961 . S
O940 C884 1.325 . S
O941 Li880 1.970 . S
O941 Li881 1.956 . S
O941 Li883 1.961 . S
O941 C890 1.325 1_556 S
O942 Li880 1.961 . S
O942 Li882 1.956 . S
O942 Li883 1.970 . S
O942 C912 1.325 . S
O943 Li881 1.961 . S
O943 Li882 1.970 . S
O943 Li883 1.956 . S
O943 C918 1.325 . S
H944 C886 0.929 . S
H945 C887 0.930 . S
H946 C888 0.930 . S
H947 C889 0.930 . S
H948 C891 0.930 . S
H949 C893 0.929 . S
H950 C894 0.930 . S
H951 C895 0.930 . S
H952 C898 0.930 . S
H953 C901 0.929 . S
H954 C906 0.929 . S
H955 C907 0.930 . S
H956 C914 0.929 . S
H957 C915 0.930 . S
H958 C916 0.930 . S
H959 C917 0.930 . S
H960 C919 0.929 . S
H961 C920 0.930 . S
H962 C921 0.930 . S
H963 C922 0.930 . S
H964 C926 0.929 . S
H965 C928 0.930 . S
H966 C934 0.949 . S
H967 C935 0.930 . S
Li968 N985 1.990 . S
Li968 O1028 1.956 . S
Li968 O1029 1.970 . S
Li968 O1030 1.961 . S
Li969 N993 1.990 . S
Li969 O1028 1.970 . S
Li969 O1029 1.956 . S
Li969 O1031 1.961 . S
Li970 N1015 1.990 . S
Li970 O1028 1.961 . S
Li970 O1030 1.956 . S
Li970 O1031 1.970 . S
Li971 N1021 1.990 . S
Li971 O1029 1.961 . S
Li971 O1030 1.970 . S
Li971 O1031 1.956 . S
C972 C974 1.348 . S
C972 C975 1.356 . S
C972 O1028 1.325 . S
N973 C976 1.314 . S
N973 C977 1.279 . S
C974 C972 1.348 . S
C974 C976 1.353 . S
C974 H1032 0.929 . S
C975 C972 1.356 . S
C975 C977 1.358 . S
C975 H1033 0.930 . S
C976 N973 1.314 . S
C976 C974 1.353 . S
C976 H1034 0.930 . S
C977 N973 1.279 . S
C977 C975 1.358 . S
C977 H1035 0.930 . S
C978 C981 1.348 . S
C978 C982 1.356 . S
C978 O1029 1.325 . S
C979 N980 1.279 . S
C979 C982 1.358 . S
C979 H1036 0.930 . S
N980 C979 1.279 . S
N980 C983 1.314 . S
C981 C978 1.348 . S
C981 C983 1.353 . S
C981 H1037 0.929 . S
C982 C978 1.356 . S
C982 C979 1.358 . S
C982 H1038 0.930 . S
C983 N980 1.314 . S
C983 C981 1.353 . S
C983 H1039 0.930 . S
C984 N985 1.314 . S
C984 C989 1.353 . S
C984 H990 0.930 . S
N985 Li968 1.990 . S
N985 C984 1.314 . S
N985 C987 1.279 . S
C986 C987 1.358 . S
C986 C988 1.356 . S
C986 H1040 0.930 . S
C987 N985 1.279 . S
C987 C986 1.358 . S
C987 H991 0.930 . S
C988 C986 1.356 . S
C988 C989 1.348 . S
C989 C984 1.353 . S
C989 C988 1.348 . S
C989 H1041 0.929 . S
H990 C984 0.930 . S
H991 C987 0.930 . S
C992 N993 1.314 . S
C992 C994 1.353 . S
C992 H998 0.930 . S
N993 Li969 1.990 . S
N993 C992 1.314 . S
N993 C996 1.279 . S
C994 C992 1.353 . S
C994 C997 1.348 . S
C994 H1042 0.929 . S
C995 C996 1.358 . S
C995 C997 1.356 . S
C995 H1043 0.930 . S
C996 N993 1.279 . S
C996 C995 1.358 . S
C996 H999 0.930 . S
C997 C994 1.348 . S
C997 C995 1.356 . S
H998 C992 0.930 . S
H999 C996 0.930 . S
C1000 C1002 1.348 . S
C1000 C1003 1.356 . S
C1000 O1030 1.325 . S
N1001 C1004 1.314 . S
N1001 C1005 1.279 . S
C1002 C1000 1.348 . S
C1002 C1004 1.353 . S
C1002 H1044 0.929 . S
C1003 C1000 1.356 . S
C1003 C1005 1.358 . S
C1003 H1045 0.930 . S
C1004 N1001 1.314 . S
C1004 C1002 1.353 . S
C1004 H1046 0.930 . S
C1005 N1001 1.279 . S
C1005 C1003 1.358 . S
C1005 H1047 0.930 . S
C1006 C1007 1.348 . S
C1006 C1008 1.356 . S
C1006 O1031 1.325 . S
C1007 C1006 1.348 . S
C1007 C1009 1.353 . S
C1007 H1048 0.929 . S
C1008 C1006 1.356 . S
C1008 C1010 1.358 . S
C1008 H1049 0.930 . S
C1009 C1007 1.353 . S
C1009 N1011 1.314 . S
C1009 H1050 0.930 . S
C1010 C1008 1.358 . S
C1010 N1011 1.279 . S
C1010 H1051 0.930 . S
N1011 C1009 1.314 . S
N1011 C1010 1.279 . S
C1012 C1014 1.353 . S
C1012 N1015 1.314 . S
C1012 H1018 0.930 . S
C1013 N1015 1.279 . S
C1013 C1016 1.358 . S
C1013 H1019 0.930 . S
C1014 C1012 1.353 . S
C1014 C1017 1.348 . S
C1014 H1052 0.929 . S
N1015 Li970 1.990 . S
N1015 C1012 1.314 . S
N1015 C1013 1.279 . S
C1016 C1013 1.358 . S
C1016 C1017 1.356 . S
C1016 H1053 0.930 . S
C1017 C1014 1.348 . S
C1017 C1016 1.356 . S
H1018 C1012 0.930 . S
H1019 C1013 0.930 . S
C1020 N1021 1.314 . S
C1020 C1022 1.353 . S
C1020 H1026 0.930 . S
N1021 Li971 1.990 . S
N1021 C1020 1.314 . S
N1021 C1024 1.279 . S
C1022 C1020 1.353 . S
C1022 C1025 1.348 . S
C1022 H1054 0.929 . S
C1023 C1024 1.358 . S
C1023 C1025 1.356 . S
C1023 H1055 0.930 . S
C1024 N1021 1.279 . S
C1024 C1023 1.358 . S
C1024 H1027 0.930 . S
C1025 C1022 1.348 . S
C1025 C1023 1.356 . S
H1026 C1020 0.930 . S
H1027 C1024 0.930 . S
O1028 Li968 1.956 . S
O1028 Li969 1.970 . S
O1028 Li970 1.961 . S
O1028 C972 1.325 . S
O1029 Li968 1.970 . S
O1029 Li969 1.956 . S
O1029 Li971 1.961 . S
O1029 C978 1.325 . S
O1030 Li968 1.961 . S
O1030 Li970 1.956 . S
O1030 Li971 1.970 . S
O1030 C1000 1.325 . S
O1031 Li969 1.961 . S
O1031 Li970 1.970 . S
O1031 Li971 1.956 . S
O1031 C1006 1.325 . S
H1032 C974 0.929 . S
H1033 C975 0.930 . S
H1034 C976 0.930 . S
H1035 C977 0.930 . S
H1036 C979 0.930 . S
H1037 C981 0.929 . S
H1038 C982 0.930 . S
H1039 C983 0.930 . S
H1040 C986 0.930 . S
H1041 C989 0.929 . S
H1042 C994 0.929 . S
H1043 C995 0.930 . S
H1044 C1002 0.929 . S
H1045 C1003 0.930 . S
H1046 C1004 0.930 . S
H1047 C1005 0.930 . S
H1048 C1007 0.929 . S
H1049 C1008 0.930 . S
H1050 C1009 0.930 . S
H1051 C1010 0.930 . S
H1052 C1014 0.929 . S
H1053 C1016 0.930 . S
H1054 C1022 0.929 . S
H1055 C1023 0.930 . S
Li1056 N1073 1.990 . S
Li1056 O1116 1.956 . S
Li1056 O1117 1.970 . S
Li1056 O1118 1.961 . S
Li1057 N1081 1.990 . S
Li1057 O1116 1.970 . S
Li1057 O1117 1.956 . S
Li1057 O1119 1.961 . S
Li1058 N1103 1.990 . S
Li1058 O1116 1.961 . S
Li1058 O1118 1.956 . S
Li1058 O1119 1.970 . S
Li1059 N1109 1.990 . S
Li1059 O1117 1.961 . S
Li1059 O1118 1.970 . S
Li1059 O1119 1.956 . S
C1060 C1062 1.348 . S
C1060 C1063 1.356 . S
C1060 O1116 1.325 . S
N1061 C1064 1.314 . S
N1061 C1065 1.279 . S
C1062 C1060 1.348 . S
C1062 C1064 1.353 . S
C1062 H1120 0.929 . S
C1063 C1060 1.356 . S
C1063 C1065 1.358 . S
C1063 H1121 0.930 . S
C1064 N1061 1.314 . S
C1064 C1062 1.353 . S
C1064 H1122 0.930 . S
C1065 N1061 1.279 . S
C1065 C1063 1.358 . S
C1065 H1123 0.930 . S
C1066 C1069 1.348 . S
C1066 C1070 1.356 . S
C1066 O1117 1.325 1_554 S
C1067 N1068 1.279 . S
C1067 C1070 1.358 . S
C1067 H1124 0.930 . S
N1068 C1067 1.279 . S
N1068 C1071 1.314 . S
C1069 C1066 1.348 . S
C1069 C1071 1.353 . S
C1069 H1125 0.929 . S
C1070 C1066 1.356 . S
C1070 C1067 1.358 . S
C1070 H1126 0.930 . S
C1071 N1068 1.314 . S
C1071 C1069 1.353 . S
C1071 H1127 0.930 . S
C1072 N1073 1.314 . S
C1072 C1077 1.353 . S
C1072 H1078 0.930 . S
N1073 Li1056 1.990 . S
N1073 C1072 1.314 . S
N1073 C1075 1.279 . S
C1074 C1075 1.358 . S
C1074 C1076 1.356 . S
C1074 H1128 0.930 . S
C1075 N1073 1.279 . S
C1075 C1074 1.358 . S
C1075 H1079 0.930 . S
C1076 C1074 1.356 . S
C1076 C1077 1.348 . S
C1077 C1072 1.353 . S
C1077 C1076 1.348 . S
C1077 H1129 0.929 1_556 S
H1078 C1072 0.930 . S
H1079 C1075 0.930 . S
C1080 N1081 1.314 . S
C1080 C1082 1.353 . S
C1080 H1086 0.930 . S
N1081 Li1057 1.990 . S
N1081 C1080 1.314 . S
N1081 C1084 1.279 . S
C1082 C1080 1.353 . S
C1082 C1085 1.348 . S
C1082 H1130 0.929 . S
C1083 C1084 1.358 . S
C1083 C1085 1.356 . S
C1083 H1131 0.930 1_556 S
C1084 N1081 1.279 . S
C1084 C1083 1.358 . S
C1084 H1087 0.922 1_556 S
C1085 C1082 1.348 . S
C1085 C1083 1.356 . S
H1086 C1080 0.930 . S
H1087 C1084 0.922 1_554 S
C1088 C1090 1.348 . S
C1088 C1091 1.356 . S
C1088 O1118 1.325 . S
N1089 C1092 1.314 . S
N1089 C1093 1.279 . S
C1090 C1088 1.348 . S
C1090 C1092 1.353 . S
C1090 H1132 0.929 . S
C1091 C1088 1.356 . S
C1091 C1093 1.358 . S
C1091 H1133 0.930 . S
C1092 N1089 1.314 . S
C1092 C1090 1.353 . S
C1092 H1134 0.930 . S
C1093 N1089 1.279 . S
C1093 C1091 1.358 . S
C1093 H1135 0.930 . S
C1094 C1095 1.348 . S
C1094 C1096 1.356 . S
C1094 O1119 1.325 . S
C1095 C1094 1.348 . S
C1095 C1097 1.353 . S
C1095 H1136 0.929 . S
C1096 C1094 1.356 . S
C1096 C1098 1.358 . S
C1096 H1137 0.930 . S
C1097 C1095 1.353 . S
C1097 N1099 1.314 . S
C1097 H1138 0.930 . S
C1098 C1096 1.358 . S
C1098 N1099 1.279 . S
C1098 H1139 0.930 . S
N1099 C1097 1.314 . S
N1099 C1098 1.279 . S
C1100 C1102 1.353 . S
C1100 N1103 1.314 . S
C1100 H1106 0.930 . S
C1101 N1103 1.279 . S
C1101 C1104 1.358 . S
C1101 H1107 0.930 . S
C1102 C1100 1.353 . S
C1102 C1105 1.348 . S
C1102 H1140 0.929 . S
N1103 Li1058 1.990 . S
N1103 C1100 1.314 . S
N1103 C1101 1.279 . S
C1104 C1101 1.358 . S
C1104 C1105 1.356 . S
C1104 H1141 0.930 . S
C1105 C1102 1.348 . S
C1105 C1104 1.356 . S
H1106 C1100 0.930 . S
H1107 C1101 0.930 . S
C1108 N1109 1.314 1_554 S
C1108 C1110 1.353 . S
C1108 H1114 0.930 . S
N1109 Li1059 1.990 . S
N1109 C1108 1.314 1_556 S
N1109 C1112 1.279 . S
C1110 C1108 1.353 . S
C1110 C1113 1.348 . S
C1110 H1142 0.929 . S
C1111 C1112 1.358 . S
C1111 C1113 1.356 1_556 S
C1111 H1143 0.930 . S
C1112 N1109 1.279 . S
C1112 C1111 1.358 . S
C1112 H1115 0.930 . S
C1113 C1110 1.348 . S
C1113 C1111 1.356 1_554 S
H1114 C1108 0.930 . S
H1115 C1112 0.930 . S
O1116 Li1056 1.956 . S
O1116 Li1057 1.970 . S
O1116 Li1058 1.961 . S
O1116 C1060 1.325 . S
O1117 Li1056 1.970 . S
O1117 Li1057 1.956 . S
O1117 Li1059 1.961 . S
O1117 C1066 1.325 1_556 S
O1118 Li1056 1.961 . S
O1118 Li1058 1.956 . S
O1118 Li1059 1.970 . S
O1118 C1088 1.325 . S
O1119 Li1057 1.961 . S
O1119 Li1058 1.970 . S
O1119 Li1059 1.956 . S
O1119 C1094 1.325 . S
H1120 C1062 0.929 . S
H1121 C1063 0.930 . S
H1122 C1064 0.930 . S
H1123 C1065 0.930 . S
H1124 C1067 0.930 . S
H1125 C1069 0.929 . S
H1126 C1070 0.930 . S
H1127 C1071 0.930 . S
H1128 C1074 0.930 . S
H1129 C1077 0.929 1_554 S
H1130 C1082 0.929 . S
H1131 C1083 0.930 1_554 S
H1132 C1090 0.929 . S
H1133 C1091 0.930 . S
H1134 C1092 0.930 . S
H1135 C1093 0.930 . S
H1136 C1095 0.929 . S
H1137 C1096 0.930 . S
H1138 C1097 0.930 . S
H1139 C1098 0.930 . S
H1140 C1102 0.929 . S
H1141 C1104 0.930 . S
H1142 C1110 0.929 . S
H1143 C1111 0.930 . S
Li1144 N1161 1.990 . S
Li1144 O1204 1.956 . S
Li1144 O1205 1.970 . S
Li1144 O1206 1.961 . S
Li1145 N1169 1.990 . S
Li1145 O1204 1.970 . S
Li1145 O1205 1.956 . S
Li1145 O1207 1.961 . S
Li1146 N1191 1.990 . S
Li1146 O1204 1.961 . S
Li1146 O1206 1.956 . S
Li1146 O1207 1.970 . S
Li1147 N1197 1.990 . S
Li1147 O1205 1.961 . S
Li1147 O1206 1.970 . S
Li1147 O1207 1.956 . S
C1148 C1150 1.348 . S
C1148 C1151 1.356 . S
C1148 O1204 1.325 . S
N1149 C1152 1.314 . S
N1149 C1153 1.279 . S
C1150 C1148 1.348 . S
C1150 C1152 1.353 . S
C1150 H1208 0.929 . S
C1151 C1148 1.356 . S
C1151 C1153 1.358 . S
C1151 H1209 0.930 . S
C1152 N1149 1.314 . S
C1152 C1150 1.353 . S
C1152 H1210 0.930 . S
C1153 N1149 1.279 . S
C1153 C1151 1.358 . S
C1153 H1211 0.930 . S
C1154 C1157 1.348 . S
C1154 C1158 1.356 . S
C1154 O1205 1.325 . S
C1155 N1156 1.279 . S
C1155 C1158 1.358 . S
C1155 H1212 0.930 . S
N1156 C1155 1.279 . S
N1156 C1159 1.314 . S
C1157 C1154 1.348 . S
C1157 C1159 1.353 . S
C1157 H1213 0.929 . S
C1158 C1154 1.356 . S
C1158 C1155 1.358 . S
C1158 H1214 0.930 . S
C1159 N1156 1.314 . S
C1159 C1157 1.353 . S
C1159 H1215 0.930 . S
C1160 N1161 1.314 . S
C1160 C1165 1.353 . S
C1160 H1166 0.930 . S
N1161 Li1144 1.990 . S
N1161 C1160 1.314 . S
N1161 C1163 1.279 . S
C1162 C1163 1.358 . S
C1162 C1164 1.356 . S
C1162 H1216 0.930 . S
C1163 N1161 1.279 . S
C1163 C1162 1.358 . S
C1163 H1167 0.930 . S
C1164 C1162 1.356 . S
C1164 C1165 1.348 . S
C1165 C1160 1.353 . S
C1165 C1164 1.348 . S
C1165 H1217 0.929 . S
H1166 C1160 0.930 . S
H1167 C1163 0.930 . S
C1168 N1169 1.314 . S
C1168 C1170 1.353 . S
C1168 H1174 0.930 . S
N1169 Li1145 1.990 . S
N1169 C1168 1.314 . S
N1169 C1172 1.279 . S
C1170 C1168 1.353 . S
C1170 C1173 1.348 . S
C1170 H1218 0.929 . S
C1171 C1172 1.358 . S
C1171 C1173 1.356 . S
C1171 H1219 0.930 . S
C1172 N1169 1.279 . S
C1172 C1171 1.358 . S
C1172 H1175 0.930 . S
C1173 C1170 1.348 . S
C1173 C1171 1.356 . S
H1174 C1168 0.930 . S
H1175 C1172 0.930 . S
C1176 C1178 1.348 . S
C1176 C1179 1.356 . S
C1176 O1206 1.325 . S
N1177 C1180 1.314 . S
N1177 C1181 1.279 . S
C1178 C1176 1.348 . S
C1178 C1180 1.353 . S
C1178 H1220 0.929 . S
C1179 C1176 1.356 . S
C1179 C1181 1.358 . S
C1179 H1221 0.930 . S
C1180 N1177 1.314 . S
C1180 C1178 1.353 . S
C1180 H1222 0.930 . S
C1181 N1177 1.279 . S
C1181 C1179 1.358 . S
C1181 H1223 0.930 . S
C1182 C1183 1.348 . S
C1182 C1184 1.356 . S
C1182 O1207 1.325 . S
C1183 C1182 1.348 . S
C1183 C1185 1.353 . S
C1183 H1224 0.929 . S
C1184 C1182 1.356 . S
C1184 C1186 1.358 . S
C1184 H1225 0.930 . S
C1185 C1183 1.353 . S
C1185 N1187 1.314 . S
C1185 H1226 0.930 . S
C1186 C1184 1.358 . S
C1186 N1187 1.279 . S
C1186 H1227 0.930 . S
N1187 C1185 1.314 . S
N1187 C1186 1.279 . S
C1188 C1190 1.353 . S
C1188 N1191 1.314 . S
C1188 H1194 0.930 . S
C1189 N1191 1.279 . S
C1189 C1192 1.358 . S
C1189 H1195 0.930 . S
C1190 C1188 1.353 . S
C1190 C1193 1.348 . S
C1190 H1228 0.929 . S
N1191 Li1146 1.990 . S
N1191 C1188 1.314 . S
N1191 C1189 1.279 . S
C1192 C1189 1.358 . S
C1192 C1193 1.356 . S
C1192 H1229 0.930 . S
C1193 C1190 1.348 . S
C1193 C1192 1.356 . S
H1194 C1188 0.930 . S
H1195 C1189 0.930 . S
C1196 N1197 1.314 . S
C1196 C1198 1.353 . S
C1196 H1202 0.930 . S
N1197 Li1147 1.990 . S
N1197 C1196 1.314 . S
N1197 C1200 1.279 . S
C1198 C1196 1.353 . S
C1198 C1201 1.348 . S
C1198 H1230 0.929 . S
C1199 C1200 1.358 . S
C1199 C1201 1.356 . S
C1199 H1231 0.930 . S
C1200 N1197 1.279 . S
C1200 C1199 1.358 . S
C1200 H1203 0.930 . S
C1201 C1198 1.348 . S
C1201 C1199 1.356 . S
H1202 C1196 0.930 . S
H1203 C1200 0.930 . S
O1204 Li1144 1.956 . S
O1204 Li1145 1.970 . S
O1204 Li1146 1.961 . S
O1204 C1148 1.325 . S
O1205 Li1144 1.970 . S
O1205 Li1145 1.956 . S
O1205 Li1147 1.961 . S
O1205 C1154 1.325 . S
O1206 Li1144 1.961 . S
O1206 Li1146 1.956 . S
O1206 Li1147 1.970 . S
O1206 C1176 1.325 . S
O1207 Li1145 1.961 . S
O1207 Li1146 1.970 . S
O1207 Li1147 1.956 . S
O1207 C1182 1.325 . S
H1208 C1150 0.929 . S
H1209 C1151 0.930 . S
H1210 C1152 0.930 . S
H1211 C1153 0.930 . S
H1212 C1155 0.930 . S
H1213 C1157 0.929 . S
H1214 C1158 0.930 . S
H1215 C1159 0.930 . S
H1216 C1162 0.930 . S
H1217 C1165 0.929 . S
H1218 C1170 0.929 . S
H1219 C1171 0.930 . S
H1220 C1178 0.929 . S
H1221 C1179 0.930 . S
H1222 C1180 0.930 . S
H1223 C1181 0.930 . S
H1224 C1183 0.929 . S
H1225 C1184 0.930 . S
H1226 C1185 0.930 . S
H1227 C1186 0.930 . S
H1228 C1190 0.929 . S
H1229 C1192 0.930 . S
H1230 C1198 0.929 . S
H1231 C1199 0.930 . S
Li1232 N1249 1.990 . S
Li1232 O1292 1.956 . S
Li1232 O1293 1.970 . S
Li1232 O1294 1.961 . S
Li1233 N1257 1.990 . S
Li1233 O1292 1.970 . S
Li1233 O1293 1.956 . S
Li1233 O1295 1.961 . S
Li1234 N1279 1.990 . S
Li1234 O1292 1.961 . S
Li1234 O1294 1.956 . S
Li1234 O1295 1.970 . S
Li1235 N1285 1.990 . S
Li1235 O1293 1.961 . S
Li1235 O1294 1.970 . S
Li1235 O1295 1.956 . S
C1236 C1238 1.348 . S
C1236 C1239 1.356 . S
C1236 O1292 1.325 . S
N1237 C1240 1.314 . S
N1237 C1241 1.279 . S
C1238 C1236 1.348 . S
C1238 C1240 1.353 . S
C1238 H1296 0.929 . S
C1239 C1236 1.356 . S
C1239 C1241 1.358 . S
C1239 H1297 0.930 . S
C1240 N1237 1.314 . S
C1240 C1238 1.353 . S
C1240 H1298 0.930 . S
C1241 N1237 1.279 . S
C1241 C1239 1.358 . S
C1241 H1299 0.930 . S
C1242 C1245 1.348 . S
C1242 C1246 1.356 . S
C1242 O1293 1.325 1_554 S
C1243 N1244 1.279 . S
C1243 C1246 1.358 . S
C1243 H1300 0.930 . S
N1244 C1243 1.279 . S
N1244 C1247 1.314 . S
C1245 C1242 1.348 . S
C1245 C1247 1.353 . S
C1245 H1301 0.929 . S
C1246 C1242 1.356 . S
C1246 C1243 1.358 . S
C1246 H1302 0.930 . S
C1247 N1244 1.314 . S
C1247 C1245 1.353 . S
C1247 H1303 0.930 . S
C1248 N1249 1.314 . S
C1248 C1253 1.353 . S
C1248 H1254 0.930 . S
N1249 Li1232 1.990 . S
N1249 C1248 1.314 . S
N1249 C1251 1.279 . S
C1250 C1251 1.358 . S
C1250 C1252 1.356 . S
C1250 H1304 0.930 . S
C1251 N1249 1.279 . S
C1251 C1250 1.358 . S
C1251 H1255 0.930 . S
C1252 C1250 1.356 . S
C1252 C1253 1.348 . S
C1253 C1248 1.353 . S
C1253 C1252 1.348 . S
C1253 H1305 0.929 1_556 S
H1254 C1248 0.930 . S
H1255 C1251 0.930 . S
C1256 N1257 1.314 . S
C1256 C1258 1.353 . S
C1256 H1262 0.930 . S
N1257 Li1233 1.990 . S
N1257 C1256 1.314 . S
N1257 C1260 1.279 . S
C1258 C1256 1.353 . S
C1258 C1261 1.348 . S
C1258 H1306 0.929 . S
C1259 C1260 1.358 . S
C1259 C1261 1.356 . S
C1259 H1307 0.930 1_556 S
C1260 N1257 1.279 . S
C1260 C1259 1.358 . S
C1260 H1263 0.922 1_556 S
C1261 C1258 1.348 . S
C1261 C1259 1.356 . S
H1262 C1256 0.930 . S
H1263 C1260 0.922 1_554 S
C1264 C1266 1.348 . S
C1264 C1267 1.356 . S
C1264 O1294 1.325 . S
N1265 C1268 1.314 . S
N1265 C1269 1.279 . S
C1266 C1264 1.348 . S
C1266 C1268 1.353 . S
C1266 H1308 0.929 . S
C1267 C1264 1.356 . S
C1267 C1269 1.358 . S
C1267 H1309 0.930 . S
C1268 N1265 1.314 . S
C1268 C1266 1.353 . S
C1268 H1310 0.930 . S
C1269 N1265 1.279 . S
C1269 C1267 1.358 . S
C1269 H1311 0.930 . S
C1270 C1271 1.348 . S
C1270 C1272 1.356 . S
C1270 O1295 1.325 . S
C1271 C1270 1.348 . S
C1271 C1273 1.353 . S
C1271 H1312 0.929 . S
C1272 C1270 1.356 . S
C1272 C1274 1.358 . S
C1272 H1313 0.930 . S
C1273 C1271 1.353 . S
C1273 N1275 1.314 . S
C1273 H1314 0.930 . S
C1274 C1272 1.358 . S
C1274 N1275 1.279 . S
C1274 H1315 0.930 . S
N1275 C1273 1.314 . S
N1275 C1274 1.279 . S
C1276 C1278 1.353 . S
C1276 N1279 1.314 . S
C1276 H1282 0.930 . S
C1277 N1279 1.279 . S
C1277 C1280 1.358 . S
C1277 H1283 0.930 . S
C1278 C1276 1.353 . S
C1278 C1281 1.348 . S
C1278 H1316 0.929 . S
N1279 Li1234 1.990 . S
N1279 C1276 1.314 . S
N1279 C1277 1.279 . S
C1280 C1277 1.358 . S
C1280 C1281 1.356 . S
C1280 H1317 0.930 . S
C1281 C1278 1.348 . S
C1281 C1280 1.356 . S
H1282 C1276 0.930 . S
H1283 C1277 0.930 . S
C1284 N1285 1.314 1_554 S
C1284 C1286 1.353 . S
C1284 H1290 0.930 . S
N1285 Li1235 1.990 . S
N1285 C1284 1.314 1_556 S
N1285 C1288 1.279 . S
C1286 C1284 1.353 . S
C1286 C1289 1.348 . S
C1286 H1318 0.929 . S
C1287 C1288 1.358 . S
C1287 C1289 1.356 1_556 S
C1287 H1319 0.930 . S
C1288 N1285 1.279 . S
C1288 C1287 1.358 . S
C1288 H1291 0.930 . S
C1289 C1286 1.348 . S
C1289 C1287 1.356 1_554 S
H1290 C1284 0.930 . S
H1291 C1288 0.930 . S
O1292 Li1232 1.956 . S
O1292 Li1233 1.970 . S
O1292 Li1234 1.961 . S
O1292 C1236 1.325 . S
O1293 Li1232 1.970 . S
O1293 Li1233 1.956 . S
O1293 Li1235 1.961 . S
O1293 C1242 1.325 1_556 S
O1294 Li1232 1.961 . S
O1294 Li1234 1.956 . S
O1294 Li1235 1.970 . S
O1294 C1264 1.325 . S
O1295 Li1233 1.961 . S
O1295 Li1234 1.970 . S
O1295 Li1235 1.956 . S
O1295 C1270 1.325 . S
H1296 C1238 0.929 . S
H1297 C1239 0.930 . S
H1298 C1240 0.930 . S
H1299 C1241 0.930 . S
H1300 C1243 0.930 . S
H1301 C1245 0.929 . S
H1302 C1246 0.930 . S
H1303 C1247 0.930 . S
H1304 C1250 0.930 . S
H1305 C1253 0.929 1_554 S
H1306 C1258 0.929 . S
H1307 C1259 0.930 1_554 S
H1308 C1266 0.929 . S
H1309 C1267 0.930 . S
H1310 C1268 0.930 . S
H1311 C1269 0.930 . S
H1312 C1271 0.929 . S
H1313 C1272 0.930 . S
H1314 C1273 0.930 . S
H1315 C1274 0.930 . S
H1316 C1278 0.929 . S
H1317 C1280 0.930 . S
H1318 C1286 0.929 . S
H1319 C1287 0.930 . S
Li1320 N1337 1.990 . S
Li1320 O1380 1.956 . S
Li1320 O1381 1.970 . S
Li1320 O1382 1.961 . S
Li1321 N1345 1.990 . S
Li1321 O1380 1.970 . S
Li1321 O1381 1.956 . S
Li1321 O1383 1.961 . S
Li1322 N1367 1.990 . S
Li1322 O1380 1.961 . S
Li1322 O1382 1.956 . S
Li1322 O1383 1.970 . S
Li1323 N1373 1.990 . S
Li1323 O1381 1.961 . S
Li1323 O1382 1.970 . S
Li1323 O1383 1.956 . S
C1324 C1326 1.348 . S
C1324 C1327 1.356 . S
C1324 O1380 1.325 . S
N1325 C1328 1.314 . S
N1325 C1329 1.279 . S
C1326 C1324 1.348 . S
C1326 C1328 1.353 . S
C1326 H1384 0.929 . S
C1327 C1324 1.356 . S
C1327 C1329 1.358 . S
C1327 H1385 0.930 . S
C1328 N1325 1.314 . S
C1328 C1326 1.353 . S
C1328 H1386 0.930 . S
C1329 N1325 1.279 . S
C1329 C1327 1.358 . S
C1329 H1387 0.930 . S
C1330 C1333 1.348 . S
C1330 C1334 1.356 . S
C1330 O1381 1.325 . S
C1331 N1332 1.279 . S
C1331 C1334 1.358 . S
C1331 H1388 0.930 . S
N1332 C1331 1.279 . S
N1332 C1335 1.314 . S
C1333 C1330 1.348 . S
C1333 C1335 1.353 . S
C1333 H1389 0.929 . S
C1334 C1330 1.356 . S
C1334 C1331 1.358 . S
C1334 H1390 0.930 . S
C1335 N1332 1.314 . S
C1335 C1333 1.353 . S
C1335 H1391 0.930 . S
C1336 N1337 1.314 . S
C1336 C1341 1.353 . S
C1336 H1342 0.930 . S
N1337 Li1320 1.990 . S
N1337 C1336 1.314 . S
N1337 C1339 1.279 . S
C1338 C1339 1.358 . S
C1338 C1340 1.356 . S
C1338 H1392 0.930 . S
C1339 N1337 1.279 . S
C1339 C1338 1.358 . S
C1339 H1343 0.930 . S
C1340 C1338 1.356 . S
C1340 C1341 1.348 . S
C1341 C1336 1.353 . S
C1341 C1340 1.348 . S
C1341 H1393 0.929 . S
H1342 C1336 0.930 . S
H1343 C1339 0.930 . S
C1344 N1345 1.314 . S
C1344 C1346 1.353 . S
C1344 H1350 0.930 . S
N1345 Li1321 1.990 . S
N1345 C1344 1.314 . S
N1345 C1348 1.279 . S
C1346 C1344 1.353 . S
C1346 C1349 1.348 . S
C1346 H1394 0.929 . S
C1347 C1348 1.358 . S
C1347 C1349 1.356 . S
C1347 H1395 0.930 . S
C1348 N1345 1.279 . S
C1348 C1347 1.358 . S
C1348 H1351 0.930 . S
C1349 C1346 1.348 . S
C1349 C1347 1.356 . S
H1350 C1344 0.930 . S
H1351 C1348 0.930 . S
C1352 C1354 1.348 . S
C1352 C1355 1.356 . S
C1352 O1382 1.325 . S
N1353 C1356 1.314 . S
N1353 C1357 1.279 . S
C1354 C1352 1.348 . S
C1354 C1356 1.353 . S
C1354 H1396 0.929 . S
C1355 C1352 1.356 . S
C1355 C1357 1.358 . S
C1355 H1397 0.930 . S
C1356 N1353 1.314 . S
C1356 C1354 1.353 . S
C1356 H1398 0.930 . S
C1357 N1353 1.279 . S
C1357 C1355 1.358 . S
C1357 H1399 0.930 . S
C1358 C1359 1.348 . S
C1358 C1360 1.356 . S
C1358 O1383 1.325 . S
C1359 C1358 1.348 . S
C1359 C1361 1.353 . S
C1359 H1400 0.929 . S
C1360 C1358 1.356 . S
C1360 C1362 1.358 . S
C1360 H1401 0.930 . S
C1361 C1359 1.353 . S
C1361 N1363 1.314 . S
C1361 H1402 0.930 . S
C1362 C1360 1.358 . S
C1362 N1363 1.279 . S
C1362 H1403 0.930 . S
N1363 C1361 1.314 . S
N1363 C1362 1.279 . S
C1364 C1366 1.353 . S
C1364 N1367 1.314 . S
C1364 H1370 0.930 . S
C1365 N1367 1.279 . S
C1365 C1368 1.358 . S
C1365 H1371 0.930 . S
C1366 C1364 1.353 . S
C1366 C1369 1.348 . S
C1366 H1404 0.929 . S
N1367 Li1322 1.990 . S
N1367 C1364 1.314 . S
N1367 C1365 1.279 . S
C1368 C1365 1.358 . S
C1368 C1369 1.356 . S
C1368 H1405 0.930 . S
C1369 C1366 1.348 . S
C1369 C1368 1.356 . S
H1370 C1364 0.930 . S
H1371 C1365 0.930 . S
C1372 N1373 1.314 . S
C1372 C1374 1.353 . S
C1372 H1378 0.930 . S
N1373 Li1323 1.990 . S
N1373 C1372 1.314 . S
N1373 C1376 1.279 . S
C1374 C1372 1.353 . S
C1374 C1377 1.348 . S
C1374 H1406 0.929 . S
C1375 C1376 1.358 . S
C1375 C1377 1.356 . S
C1375 H1407 0.930 . S
C1376 N1373 1.279 . S
C1376 C1375 1.358 . S
C1376 H1379 0.930 . S
C1377 C1374 1.348 . S
C1377 C1375 1.356 . S
H1378 C1372 0.930 . S
H1379 C1376 0.930 . S
O1380 Li1320 1.956 . S
O1380 Li1321 1.970 . S
O1380 Li1322 1.961 . S
O1380 C1324 1.325 . S
O1381 Li1320 1.970 . S
O1381 Li1321 1.956 . S
O1381 Li1323 1.961 . S
O1381 C1330 1.325 . S
O1382 Li1320 1.961 . S
O1382 Li1322 1.956 . S
O1382 Li1323 1.970 . S
O1382 C1352 1.325 . S
O1383 Li1321 1.961 . S
O1383 Li1322 1.970 . S
O1383 Li1323 1.956 . S
O1383 C1358 1.325 . S
H1384 C1326 0.929 . S
H1385 C1327 0.930 . S
H1386 C1328 0.930 . S
H1387 C1329 0.930 . S
H1388 C1331 0.930 . S
H1389 C1333 0.929 . S
H1390 C1334 0.930 . S
H1391 C1335 0.930 . S
H1392 C1338 0.930 . S
H1393 C1341 0.929 . S
H1394 C1346 0.929 . S
H1395 C1347 0.930 . S
H1396 C1354 0.929 . S
H1397 C1355 0.930 . S
H1398 C1356 0.930 . S
H1399 C1357 0.930 . S
H1400 C1359 0.929 . S
H1401 C1360 0.930 . S
H1402 C1361 0.930 . S
H1403 C1362 0.930 . S
H1404 C1366 0.929 . S
H1405 C1368 0.930 . S
H1406 C1374 0.929 . S
H1407 C1375 0.930 . S
Li1408 N1425 1.990 . S
Li1408 O1468 1.956 . S
Li1408 O1469 1.970 . S
Li1408 O1470 1.961 . S
Li1409 N1433 1.990 . S
Li1409 O1468 1.970 . S
Li1409 O1469 1.956 . S
Li1409 O1471 1.961 . S
Li1410 N1455 1.990 . S
Li1410 O1468 1.961 . S
Li1410 O1470 1.956 . S
Li1410 O1471 1.970 . S
Li1411 N1461 1.990 . S
Li1411 O1469 1.961 . S
Li1411 O1470 1.970 . S
Li1411 O1471 1.956 . S
C1412 C1414 1.348 . S
C1412 C1415 1.356 . S
C1412 O1468 1.325 . S
N1413 C1416 1.314 . S
N1413 C1417 1.279 . S
C1414 C1412 1.348 . S
C1414 C1416 1.353 . S
C1414 H1472 0.929 . S
C1415 C1412 1.356 . S
C1415 C1417 1.358 . S
C1415 H1473 0.930 . S
C1416 N1413 1.314 . S
C1416 C1414 1.353 . S
C1416 H1474 0.930 . S
C1417 N1413 1.279 . S
C1417 C1415 1.358 . S
C1417 H1475 0.930 . S
C1418 C1421 1.348 . S
C1418 C1422 1.356 . S
C1418 O1469 1.325 1_554 S
C1419 N1420 1.279 . S
C1419 C1422 1.358 . S
C1419 H1476 0.930 . S
N1420 C1419 1.279 . S
N1420 C1423 1.314 . S
C1421 C1418 1.348 . S
C1421 C1423 1.353 . S
C1421 H1477 0.929 . S
C1422 C1418 1.356 . S
C1422 C1419 1.358 . S
C1422 H1478 0.930 . S
C1423 N1420 1.314 . S
C1423 C1421 1.353 . S
C1423 H1479 0.930 . S
C1424 N1425 1.314 . S
C1424 C1429 1.353 . S
C1424 H1430 0.930 . S
N1425 Li1408 1.990 . S
N1425 C1424 1.314 . S
N1425 C1427 1.279 . S
C1426 C1427 1.358 . S
C1426 C1428 1.356 . S
C1426 H1480 0.930 . S
C1427 N1425 1.279 . S
C1427 C1426 1.358 . S
C1427 H1431 0.930 . S
C1428 C1426 1.356 . S
C1428 C1429 1.348 . S
C1429 C1424 1.353 . S
C1429 C1428 1.348 . S
C1429 H1481 0.929 1_556 S
H1430 C1424 0.930 . S
H1431 C1427 0.930 . S
C1432 N1433 1.314 . S
C1432 C1434 1.353 . S
C1432 H1438 0.930 . S
N1433 Li1409 1.990 . S
N1433 C1432 1.314 . S
N1433 C1436 1.279 . S
C1434 C1432 1.353 . S
C1434 C1437 1.348 . S
C1434 H1482 0.929 . S
C1435 C1436 1.358 . S
C1435 C1437 1.356 . S
C1435 H1483 0.930 1_556 S
C1436 N1433 1.279 . S
C1436 C1435 1.358 . S
C1436 H1439 0.922 1_556 S
C1437 C1434 1.348 . S
C1437 C1435 1.356 . S
H1438 C1432 0.930 . S
H1439 C1436 0.922 1_554 S
C1440 C1442 1.348 . S
C1440 C1443 1.356 . S
C1440 O1470 1.325 . S
N1441 C1444 1.314 . S
N1441 C1445 1.279 . S
C1442 C1440 1.348 . S
C1442 C1444 1.353 . S
C1442 H1484 0.929 . S
C1443 C1440 1.356 . S
C1443 C1445 1.358 . S
C1443 H1485 0.930 . S
C1444 N1441 1.314 . S
C1444 C1442 1.353 . S
C1444 H1486 0.930 . S
C1445 N1441 1.279 . S
C1445 C1443 1.358 . S
C1445 H1487 0.930 . S
C1446 C1447 1.348 . S
C1446 C1448 1.356 . S
C1446 O1471 1.325 . S
C1447 C1446 1.348 . S
C1447 C1449 1.353 . S
C1447 H1488 0.929 . S
C1448 C1446 1.356 . S
C1448 C1450 1.358 . S
C1448 H1489 0.930 . S
C1449 C1447 1.353 . S
C1449 N1451 1.314 . S
C1449 H1490 0.930 . S
C1450 C1448 1.358 . S
C1450 N1451 1.279 . S
C1450 H1491 0.930 . S
N1451 C1449 1.314 . S
N1451 C1450 1.279 . S
C1452 C1454 1.353 . S
C1452 N1455 1.314 . S
C1452 H1458 0.930 . S
C1453 N1455 1.279 . S
C1453 C1456 1.358 . S
C1453 H1459 0.930 . S
C1454 C1452 1.353 . S
C1454 C1457 1.348 . S
C1454 H1492 0.929 . S
N1455 Li1410 1.990 . S
N1455 C1452 1.314 . S
N1455 C1453 1.279 . S
C1456 C1453 1.358 . S
C1456 C1457 1.356 . S
C1456 H1493 0.930 . S
C1457 C1454 1.348 . S
C1457 C1456 1.356 . S
H1458 C1452 0.930 . S
H1459 C1453 0.930 . S
C1460 N1461 1.314 1_554 S
C1460 C1462 1.353 . S
C1460 H1466 0.930 . S
N1461 Li1411 1.990 . S
N1461 C1460 1.314 1_556 S
N1461 C1464 1.279 . S
C1462 C1460 1.353 . S
C1462 C1465 1.348 . S
C1462 H1494 0.929 . S
C1463 C1464 1.358 . S
C1463 C1465 1.356 1_556 S
C1463 H1495 0.930 . S
C1464 N1461 1.279 . S
C1464 C1463 1.358 . S
C1464 H1467 0.930 . S
C1465 C1462 1.348 . S
C1465 C1463 1.356 1_554 S
H1466 C1460 0.930 . S
H1467 C1464 0.930 . S
O1468 Li1408 1.956 . S
O1468 Li1409 1.970 . S
O1468 Li1410 1.961 . S
O1468 C1412 1.325 . S
O1469 Li1408 1.970 . S
O1469 Li1409 1.956 . S
O1469 Li1411 1.961 . S
O1469 C1418 1.325 1_556 S
O1470 Li1408 1.961 . S
O1470 Li1410 1.956 . S
O1470 Li1411 1.970 . S
O1470 C1440 1.325 . S
O1471 Li1409 1.961 . S
O1471 Li1410 1.970 . S
O1471 Li1411 1.956 . S
O1471 C1446 1.325 . S
H1472 C1414 0.929 . S
H1473 C1415 0.930 . S
H1474 C1416 0.930 . S
H1475 C1417 0.930 . S
H1476 C1419 0.930 . S
H1477 C1421 0.929 . S
H1478 C1422 0.930 . S
H1479 C1423 0.930 . S
H1480 C1426 0.930 . S
H1481 C1429 0.929 1_554 S
H1482 C1434 0.929 . S
H1483 C1435 0.930 1_554 S
H1484 C1442 0.929 . S
H1485 C1443 0.930 . S
H1486 C1444 0.930 . S
H1487 C1445 0.930 . S
H1488 C1447 0.929 . S
H1489 C1448 0.930 . S
H1490 C1449 0.930 . S
H1491 C1450 0.930 . S
H1492 C1454 0.929 . S
H1493 C1456 0.930 . S
H1494 C1462 0.929 . S
H1495 C1463 0.930 . S
Li1496 N1513 1.990 . S
Li1496 O1556 1.956 . S
Li1496 O1557 1.970 . S
Li1496 O1558 1.961 . S
Li1497 N1521 1.990 . S
Li1497 O1556 1.970 . S
Li1497 O1557 1.956 . S
Li1497 O1559 1.961 . S
Li1498 N1543 1.990 . S
Li1498 O1556 1.961 . S
Li1498 O1558 1.956 . S
Li1498 O1559 1.970 . S
Li1499 N1549 1.990 . S
Li1499 O1557 1.961 . S
Li1499 O1558 1.970 . S
Li1499 O1559 1.956 . S
C1500 C1502 1.348 . S
C1500 C1503 1.356 . S
C1500 O1556 1.325 . S
N1501 C1504 1.314 . S
N1501 C1505 1.279 . S
C1502 C1500 1.348 . S
C1502 C1504 1.353 . S
C1502 H1560 0.929 . S
C1503 C1500 1.356 . S
C1503 C1505 1.358 . S
C1503 H1561 0.930 . S
C1504 N1501 1.314 . S
C1504 C1502 1.353 . S
C1504 H1562 0.930 . S
C1505 N1501 1.279 . S
C1505 C1503 1.358 . S
C1505 H1563 0.930 . S
C1506 C1509 1.348 . S
C1506 C1510 1.356 . S
C1506 O1557 1.325 . S
C1507 N1508 1.279 . S
C1507 C1510 1.358 . S
C1507 H1564 0.930 . S
N1508 C1507 1.279 . S
N1508 C1511 1.314 . S
C1509 C1506 1.348 . S
C1509 C1511 1.353 . S
C1509 H1565 0.929 . S
C1510 C1506 1.356 . S
C1510 C1507 1.358 . S
C1510 H1566 0.930 . S
C1511 N1508 1.314 . S
C1511 C1509 1.353 . S
C1511 H1567 0.930 . S
C1512 N1513 1.314 . S
C1512 C1517 1.353 . S
C1512 H1518 0.930 . S
N1513 Li1496 1.990 . S
N1513 C1512 1.314 . S
N1513 C1515 1.279 . S
C1514 C1515 1.358 . S
C1514 C1516 1.356 . S
C1514 H1568 0.930 . S
C1515 N1513 1.279 . S
C1515 C1514 1.358 . S
C1515 H1519 0.930 . S
C1516 C1514 1.356 . S
C1516 C1517 1.348 . S
C1517 C1512 1.353 . S
C1517 C1516 1.348 . S
C1517 H1569 0.929 . S
H1518 C1512 0.930 . S
H1519 C1515 0.930 . S
C1520 N1521 1.314 . S
C1520 C1522 1.353 . S
C1520 H1526 0.930 . S
N1521 Li1497 1.990 . S
N1521 C1520 1.314 . S
N1521 C1524 1.279 . S
C1522 C1520 1.353 . S
C1522 C1525 1.348 . S
C1522 H1570 0.929 . S
C1523 C1524 1.358 . S
C1523 C1525 1.356 . S
C1523 H1571 0.930 . S
C1524 N1521 1.279 . S
C1524 C1523 1.358 . S
C1524 H1527 0.930 . S
C1525 C1522 1.348 . S
C1525 C1523 1.356 . S
H1526 C1520 0.930 . S
H1527 C1524 0.930 . S
C1528 C1530 1.348 . S
C1528 C1531 1.356 . S
C1528 O1558 1.325 . S
N1529 C1532 1.314 . S
N1529 C1533 1.279 . S
C1530 C1528 1.348 . S
C1530 C1532 1.353 . S
C1530 H1572 0.929 . S
C1531 C1528 1.356 . S
C1531 C1533 1.358 . S
C1531 H1573 0.930 . S
C1532 N1529 1.314 . S
C1532 C1530 1.353 . S
C1532 H1574 0.930 . S
C1533 N1529 1.279 . S
C1533 C1531 1.358 . S
C1533 H1575 0.930 . S
C1534 C1535 1.348 . S
C1534 C1536 1.356 . S
C1534 O1559 1.325 . S
C1535 C1534 1.348 . S
C1535 C1537 1.353 . S
C1535 H1576 0.929 . S
C1536 C1534 1.356 . S
C1536 C1538 1.358 . S
C1536 H1577 0.930 . S
C1537 C1535 1.353 . S
C1537 N1539 1.314 . S
C1537 H1578 0.930 . S
C1538 C1536 1.358 . S
C1538 N1539 1.279 . S
C1538 H1579 0.930 . S
N1539 C1537 1.314 . S
N1539 C1538 1.279 . S
C1540 C1542 1.353 . S
C1540 N1543 1.314 . S
C1540 H1546 0.930 . S
C1541 N1543 1.279 . S
C1541 C1544 1.358 . S
C1541 H1547 0.930 . S
C1542 C1540 1.353 . S
C1542 C1545 1.348 . S
C1542 H1580 0.929 . S
N1543 Li1498 1.990 . S
N1543 C1540 1.314 . S
N1543 C1541 1.279 . S
C1544 C1541 1.358 . S
C1544 C1545 1.356 . S
C1544 H1581 0.930 . S
C1545 C1542 1.348 . S
C1545 C1544 1.356 . S
H1546 C1540 0.930 . S
H1547 C1541 0.930 . S
C1548 N1549 1.314 . S
C1548 C1550 1.353 . S
C1548 H1554 0.930 . S
N1549 Li1499 1.990 . S
N1549 C1548 1.314 . S
N1549 C1552 1.279 . S
C1550 C1548 1.353 . S
C1550 C1553 1.348 . S
C1550 H1582 0.929 . S
C1551 C1552 1.358 . S
C1551 C1553 1.356 . S
C1551 H1583 0.930 . S
C1552 N1549 1.279 . S
C1552 C1551 1.358 . S
C1552 H1555 0.930 . S
C1553 C1550 1.348 . S
C1553 C1551 1.356 . S
H1554 C1548 0.930 . S
H1555 C1552 0.930 . S
O1556 Li1496 1.956 . S
O1556 Li1497 1.970 . S
O1556 Li1498 1.961 . S
O1556 C1500 1.325 . S
O1557 Li1496 1.970 . S
O1557 Li1497 1.956 . S
O1557 Li1499 1.961 . S
O1557 C1506 1.325 . S
O1558 Li1496 1.961 . S
O1558 Li1498 1.956 . S
O1558 Li1499 1.970 . S
O1558 C1528 1.325 . S
O1559 Li1497 1.961 . S
O1559 Li1498 1.970 . S
O1559 Li1499 1.956 . S
O1559 C1534 1.325 . S
H1560 C1502 0.929 . S
H1561 C1503 0.930 . S
H1562 C1504 0.930 . S
H1563 C1505 0.930 . S
H1564 C1507 0.930 . S
H1565 C1509 0.929 . S
H1566 C1510 0.930 . S
H1567 C1511 0.930 . S
H1568 C1514 0.930 . S
H1569 C1517 0.929 . S
H1570 C1522 0.929 . S
H1571 C1523 0.930 . S
H1572 C1530 0.929 . S
H1573 C1531 0.930 . S
H1574 C1532 0.930 . S
H1575 C1533 0.930 . S
H1576 C1535 0.929 . S
H1577 C1536 0.930 . S
H1578 C1537 0.930 . S
H1579 C1538 0.930 . S
H1580 C1542 0.929 . S
H1581 C1544 0.930 . S
H1582 C1550 0.929 . S
H1583 C1551 0.930 . S
Li1584 N1601 1.990 . S
Li1584 O1644 1.956 . S
Li1584 O1645 1.970 . S
Li1584 O1646 1.961 . S
Li1585 N1609 1.990 . S
Li1585 O1644 1.970 . S
Li1585 O1645 1.956 . S
Li1585 O1647 1.961 . S
Li1586 N1631 1.990 . S
Li1586 O1644 1.961 . S
Li1586 O1646 1.956 . S
Li1586 O1647 1.970 . S
Li1587 N1637 1.990 . S
Li1587 O1645 1.961 . S
Li1587 O1646 1.970 . S
Li1587 O1647 1.956 . S
C1588 C1590 1.348 . S
C1588 C1591 1.356 . S
C1588 O1644 1.325 1_556 S
N1589 C1592 1.314 . S
N1589 C1593 1.279 . S
C1590 C1588 1.348 . S
C1590 C1592 1.353 . S
C1590 H1648 0.929 . S
C1591 C1588 1.356 . S
C1591 C1593 1.358 . S
C1591 H1649 0.930 . S
C1592 N1589 1.314 . S
C1592 C1590 1.353 . S
C1592 H1650 0.930 . S
C1593 N1589 1.279 . S
C1593 C1591 1.358 . S
C1593 H1651 0.930 . S
C1594 C1597 1.348 . S
C1594 C1598 1.356 . S
C1594 O1645 1.325 . S
C1595 N1596 1.279 . S
C1595 C1598 1.358 . S
C1595 H1652 0.930 . S
N1596 C1595 1.279 . S
N1596 C1599 1.314 . S
C1597 C1594 1.348 . S
C1597 C1599 1.353 . S
C1597 H1653 0.929 . S
C1598 C1594 1.356 . S
C1598 C1595 1.358 . S
C1598 H1654 0.930 . S
C1599 N1596 1.314 . S
C1599 C1597 1.353 . S
C1599 H1655 0.930 . S
C1600 N1601 1.314 . S
C1600 C1605 1.353 . S
C1600 H1606 0.930 . S
N1601 Li1584 1.990 . S
N1601 C1600 1.314 . S
N1601 C1603 1.279 . S
C1602 C1603 1.358 . S
C1602 C1604 1.356 . S
C1602 H1656 0.930 1_554 S
C1603 N1601 1.279 . S
C1603 C1602 1.358 . S
C1603 H1607 0.922 1_554 S
C1604 C1602 1.356 . S
C1604 C1605 1.348 . S
C1605 C1600 1.353 . S
C1605 C1604 1.348 . S
C1605 H1657 0.929 . S
H1606 C1600 0.930 . S
H1607 C1603 0.922 1_556 S
C1608 N1609 1.314 . S
C1608 C1610 1.353 . S
C1608 H1614 0.930 . S
N1609 Li1585 1.990 . S
N1609 C1608 1.314 . S
N1609 C1612 1.279 . S
C1610 C1608 1.353 . S
C1610 C1613 1.348 . S
C1610 H1658 0.929 1_554 S
C1611 C1612 1.358 . S
C1611 C1613 1.356 . S
C1611 H1659 0.930 . S
C1612 N1609 1.279 . S
C1612 C1611 1.358 . S
C1612 H1615 0.930 . S
C1613 C1610 1.348 . S
C1613 C1611 1.356 . S
H1614 C1608 0.930 . S
H1615 C1612 0.930 . S
C1616 C1618 1.348 . S
C1616 C1619 1.356 . S
C1616 O1646 1.325 . S
N1617 C1620 1.314 . S
N1617 C1621 1.279 . S
C1618 C1616 1.348 . S
C1618 C1620 1.353 . S
C1618 H1660 0.929 . S
C1619 C1616 1.356 . S
C1619 C1621 1.358 . S
C1619 H1661 0.930 . S
C1620 N1617 1.314 . S
C1620 C1618 1.353 . S
C1620 H1662 0.930 . S
C1621 N1617 1.279 . S
C1621 C1619 1.358 . S
C1621 H1663 0.930 . S
C1622 C1623 1.348 . S
C1622 C1624 1.356 . S
C1622 O1647 1.325 . S
C1623 C1622 1.348 . S
C1623 C1625 1.353 . S
C1623 H1664 0.929 . S
C1624 C1622 1.356 . S
C1624 C1626 1.358 . S
C1624 H1665 0.930 . S
C1625 C1623 1.353 . S
C1625 N1627 1.314 . S
C1625 H1666 0.930 . S
C1626 C1624 1.358 . S
C1626 N1627 1.279 . S
C1626 H1667 0.930 . S
N1627 C1625 1.314 . S
N1627 C1626 1.279 . S
C1628 C1630 1.353 . S
C1628 N1631 1.314 1_556 S
C1628 H1634 0.930 . S
C1629 N1631 1.279 . S
C1629 C1632 1.358 . S
C1629 H1635 0.930 . S
C1630 C1628 1.353 . S
C1630 C1633 1.348 . S
C1630 H1668 0.929 . S
N1631 Li1586 1.990 . S
N1631 C1628 1.314 1_554 S
N1631 C1629 1.279 . S
C1632 C1629 1.358 . S
C1632 C1633 1.356 1_554 S
C1632 H1669 0.930 . S
C1633 C1630 1.348 . S
C1633 C1632 1.356 1_556 S
H1634 C1628 0.930 . S
H1635 C1629 0.930 . S
C1636 N1637 1.314 . S
C1636 C1638 1.353 . S
C1636 H1642 0.930 . S
N1637 Li1587 1.990 . S
N1637 C1636 1.314 . S
N1637 C1640 1.279 . S
C1638 C1636 1.353 . S
C1638 C1641 1.348 . S
C1638 H1670 0.929 . S
C1639 C1640 1.358 . S
C1639 C1641 1.356 . S
C1639 H1671 0.930 . S
C1640 N1637 1.279 . S
C1640 C1639 1.358 . S
C1640 H1643 0.930 . S
C1641 C1638 1.348 . S
C1641 C1639 1.356 . S
H1642 C1636 0.930 . S
H1643 C1640 0.930 . S
O1644 Li1584 1.956 . S
O1644 Li1585 1.970 . S
O1644 Li1586 1.961 . S
O1644 C1588 1.325 1_554 S
O1645 Li1584 1.970 . S
O1645 Li1585 1.956 . S
O1645 Li1587 1.961 . S
O1645 C1594 1.325 . S
O1646 Li1584 1.961 . S
O1646 Li1586 1.956 . S
O1646 Li1587 1.970 . S
O1646 C1616 1.325 . S
O1647 Li1585 1.961 . S
O1647 Li1586 1.970 . S
O1647 Li1587 1.956 . S
O1647 C1622 1.325 . S
H1648 C1590 0.929 . S
H1649 C1591 0.930 . S
H1650 C1592 0.930 . S
H1651 C1593 0.930 . S
H1652 C1595 0.930 . S
H1653 C1597 0.929 . S
H1654 C1598 0.930 . S
H1655 C1599 0.930 . S
H1656 C1602 0.930 1_556 S
H1657 C1605 0.929 . S
H1658 C1610 0.929 1_556 S
H1659 C1611 0.930 . S
H1660 C1618 0.929 . S
H1661 C1619 0.930 . S
H1662 C1620 0.930 . S
H1663 C1621 0.930 . S
H1664 C1623 0.929 . S
H1665 C1624 0.930 . S
H1666 C1625 0.930 . S
H1667 C1626 0.930 . S
H1668 C1630 0.929 . S
H1669 C1632 0.930 . S
H1670 C1638 0.929 . S
H1671 C1639 0.930 . S
Li1672 N1689 1.990 . S
Li1672 O1732 1.956 . S
Li1672 O1733 1.970 . S
Li1672 O1734 1.961 . S
Li1673 N1697 1.990 . S
Li1673 O1732 1.970 . S
Li1673 O1733 1.956 . S
Li1673 O1735 1.961 . S
Li1674 N1719 1.990 . S
Li1674 O1732 1.961 . S
Li1674 O1734 1.956 . S
Li1674 O1735 1.970 . S
Li1675 N1725 1.990 . S
Li1675 O1733 1.961 . S
Li1675 O1734 1.970 . S
Li1675 O1735 1.956 . S
C1676 C1678 1.348 . S
C1676 C1679 1.356 . S
C1676 O1732 1.325 . S
N1677 C1680 1.314 . S
N1677 C1681 1.279 . S
C1678 C1676 1.348 . S
C1678 C1680 1.353 . S
C1678 H1736 0.929 . S
C1679 C1676 1.356 . S
C1679 C1681 1.358 . S
C1679 H1737 0.930 . S
C1680 N1677 1.314 . S
C1680 C1678 1.353 . S
C1680 H1738 0.930 . S
C1681 N1677 1.279 . S
C1681 C1679 1.358 . S
C1681 H1739 0.930 . S
C1682 C1685 1.348 . S
C1682 C1686 1.356 . S
C1682 O1733 1.325 . S
C1683 N1684 1.279 . S
C1683 C1686 1.358 . S
C1683 H1740 0.930 . S
N1684 C1683 1.279 . S
N1684 C1687 1.314 . S
C1685 C1682 1.348 . S
C1685 C1687 1.353 . S
C1685 H1741 0.929 . S
C1686 C1682 1.356 . S
C1686 C1683 1.358 . S
C1686 H1742 0.930 . S
C1687 N1684 1.314 . S
C1687 C1685 1.353 . S
C1687 H1743 0.930 . S
C1688 N1689 1.314 . S
C1688 C1693 1.353 . S
C1688 H1694 0.930 . S
N1689 Li1672 1.990 . S
N1689 C1688 1.314 . S
N1689 C1691 1.279 . S
C1690 C1691 1.358 . S
C1690 C1692 1.356 . S
C1690 H1744 0.930 . S
C1691 N1689 1.279 . S
C1691 C1690 1.358 . S
C1691 H1695 0.930 . S
C1692 C1690 1.356 . S
C1692 C1693 1.348 . S
C1693 C1688 1.353 . S
C1693 C1692 1.348 . S
C1693 H1745 0.929 . S
H1694 C1688 0.930 . S
H1695 C1691 0.930 . S
C1696 N1697 1.314 . S
C1696 C1698 1.353 . S
C1696 H1702 0.930 . S
N1697 Li1673 1.990 . S
N1697 C1696 1.314 . S
N1697 C1700 1.279 . S
C1698 C1696 1.353 . S
C1698 C1701 1.348 . S
C1698 H1746 0.929 . S
C1699 C1700 1.358 . S
C1699 C1701 1.356 . S
C1699 H1747 0.930 . S
C1700 N1697 1.279 . S
C1700 C1699 1.358 . S
C1700 H1703 0.930 . S
C1701 C1698 1.348 . S
C1701 C1699 1.356 . S
H1702 C1696 0.930 . S
H1703 C1700 0.930 . S
C1704 C1706 1.348 . S
C1704 C1707 1.356 . S
C1704 O1734 1.325 . S
N1705 C1708 1.314 . S
N1705 C1709 1.279 . S
C1706 C1704 1.348 . S
C1706 C1708 1.353 . S
C1706 H1748 0.929 . S
C1707 C1704 1.356 . S
C1707 C1709 1.358 . S
C1707 H1749 0.930 . S
C1708 N1705 1.314 . S
C1708 C1706 1.353 . S
C1708 H1750 0.930 . S
C1709 N1705 1.279 . S
C1709 C1707 1.358 . S
C1709 H1751 0.930 . S
C1710 C1711 1.348 . S
C1710 C1712 1.356 . S
C1710 O1735 1.325 . S
C1711 C1710 1.348 . S
C1711 C1713 1.353 . S
C1711 H1752 0.929 . S
C1712 C1710 1.356 . S
C1712 C1714 1.358 . S
C1712 H1753 0.930 . S
C1713 C1711 1.353 . S
C1713 N1715 1.314 . S
C1713 H1754 0.930 . S
C1714 C1712 1.358 . S
C1714 N1715 1.279 . S
C1714 H1755 0.930 . S
N1715 C1713 1.314 . S
N1715 C1714 1.279 . S
C1716 C1718 1.353 . S
C1716 N1719 1.314 . S
C1716 H1722 0.930 . S
C1717 N1719 1.279 . S
C1717 C1720 1.358 . S
C1717 H1723 0.930 . S
C1718 C1716 1.353 . S
C1718 C1721 1.348 . S
C1718 H1756 0.929 . S
N1719 Li1674 1.990 . S
N1719 C1716 1.314 . S
N1719 C1717 1.279 . S
C1720 C1717 1.358 . S
C1720 C1721 1.356 . S
C1720 H1757 0.930 . S
C1721 C1718 1.348 . S
C1721 C1720 1.356 . S
H1722 C1716 0.930 . S
H1723 C1717 0.930 . S
C1724 N1725 1.314 . S
C1724 C1726 1.353 . S
C1724 H1730 0.930 . S
N1725 Li1675 1.990 . S
N1725 C1724 1.314 . S
N1725 C1728 1.279 . S
C1726 C1724 1.353 . S
C1726 C1729 1.348 . S
C1726 H1758 0.929 . S
C1727 C1728 1.358 . S
C1727 C1729 1.356 . S
C1727 H1759 0.930 . S
C1728 N1725 1.279 . S
C1728 C1727 1.358 . S
C1728 H1731 0.930 . S
C1729 C1726 1.348 . S
C1729 C1727 1.356 . S
H1730 C1724 0.930 . S
H1731 C1728 0.930 . S
O1732 Li1672 1.956 . S
O1732 Li1673 1.970 . S
O1732 Li1674 1.961 . S
O1732 C1676 1.325 . S
O1733 Li1672 1.970 . S
O1733 Li1673 1.956 . S
O1733 Li1675 1.961 . S
O1733 C1682 1.325 . S
O1734 Li1672 1.961 . S
O1734 Li1674 1.956 . S
O1734 Li1675 1.970 . S
O1734 C1704 1.325 . S
O1735 Li1673 1.961 . S
O1735 Li1674 1.970 . S
O1735 Li1675 1.956 . S
O1735 C1710 1.325 . S
H1736 C1678 0.929 . S
H1737 C1679 0.930 . S
H1738 C1680 0.930 . S
H1739 C1681 0.930 . S
H1740 C1683 0.930 . S
H1741 C1685 0.929 . S
H1742 C1686 0.930 . S
H1743 C1687 0.930 . S
H1744 C1690 0.930 . S
H1745 C1693 0.929 . S
H1746 C1698 0.929 . S
H1747 C1699 0.930 . S
H1748 C1706 0.929 . S
H1749 C1707 0.930 . S
H1750 C1708 0.930 . S
H1751 C1709 0.930 . S
H1752 C1711 0.929 . S
H1753 C1712 0.930 . S
H1754 C1713 0.930 . S
H1755 C1714 0.930 . S
H1756 C1718 0.929 . S
H1757 C1720 0.930 . S
H1758 C1726 0.929 . S
H1759 C1727 0.930 . S
Li1760 N1777 1.990 . S
Li1760 O1820 1.956 . S
Li1760 O1821 1.970 . S
Li1760 O1822 1.961 . S
Li1761 N1785 1.990 . S
Li1761 O1820 1.970 . S
Li1761 O1821 1.956 . S
Li1761 O1823 1.961 . S
Li1762 N1807 1.990 . S
Li1762 O1820 1.961 . S
Li1762 O1822 1.956 . S
Li1762 O1823 1.970 . S
Li1763 N1813 1.990 . S
Li1763 O1821 1.961 . S
Li1763 O1822 1.970 . S
Li1763 O1823 1.956 . S
C1764 C1766 1.348 . S
C1764 C1767 1.356 . S
C1764 O1820 1.325 . S
N1765 C1768 1.314 . S
N1765 C1769 1.279 . S
C1766 C1764 1.348 . S
C1766 C1768 1.353 . S
C1766 H1824 0.929 . S
C1767 C1764 1.356 . S
C1767 C1769 1.358 . S
C1767 H1825 0.930 . S
C1768 N1765 1.314 . S
C1768 C1766 1.353 . S
C1768 H1826 0.930 . S
C1769 N1765 1.279 . S
C1769 C1767 1.358 . S
C1769 H1827 0.930 . S
C1770 C1773 1.348 . S
C1770 C1774 1.356 . S
C1770 O1821 1.325 . S
C1771 N1772 1.279 . S
C1771 C1774 1.358 . S
C1771 H1828 0.930 . S
N1772 C1771 1.279 . S
N1772 C1775 1.314 . S
C1773 C1770 1.348 . S
C1773 C1775 1.353 . S
C1773 H1829 0.929 . S
C1774 C1770 1.356 . S
C1774 C1771 1.358 . S
C1774 H1830 0.930 . S
C1775 N1772 1.314 . S
C1775 C1773 1.353 . S
C1775 H1831 0.930 . S
C1776 N1777 1.314 1_556 S
C1776 C1781 1.353 . S
C1776 H1782 0.930 . S
N1777 Li1760 1.990 . S
N1777 C1776 1.314 1_554 S
N1777 C1779 1.279 . S
C1778 C1779 1.358 . S
C1778 C1780 1.356 1_554 S
C1778 H1832 0.930 . S
C1779 N1777 1.279 . S
C1779 C1778 1.358 . S
C1779 H1783 0.930 . S
C1780 C1778 1.356 1_556 S
C1780 C1781 1.348 . S
C1781 C1776 1.353 . S
C1781 C1780 1.348 . S
C1781 H1833 0.929 . S
H1782 C1776 0.930 . S
H1783 C1779 0.930 . S
C1784 N1785 1.314 . S
C1784 C1786 1.353 . S
C1784 H1790 0.930 . S
N1785 Li1761 1.990 . S
N1785 C1784 1.314 . S
N1785 C1788 1.279 . S
C1786 C1784 1.353 . S
C1786 C1789 1.348 . S
C1786 H1834 0.929 . S
C1787 C1788 1.358 . S
C1787 C1789 1.356 . S
C1787 H1835 0.930 . S
C1788 N1785 1.279 . S
C1788 C1787 1.358 . S
C1788 H1791 0.930 . S
C1789 C1786 1.348 . S
C1789 C1787 1.356 . S
H1790 C1784 0.930 . S
H1791 C1788 0.930 . S
C1792 C1794 1.348 . S
C1792 C1795 1.356 . S
C1792 O1822 1.325 1_556 S
N1793 C1796 1.314 . S
N1793 C1797 1.279 . S
C1794 C1792 1.348 . S
C1794 C1796 1.353 . S
C1794 H1836 0.929 . S
C1795 C1792 1.356 . S
C1795 C1797 1.358 . S
C1795 H1837 0.930 . S
C1796 N1793 1.314 . S
C1796 C1794 1.353 . S
C1796 H1838 0.930 . S
C1797 N1793 1.279 . S
C1797 C1795 1.358 . S
C1797 H1839 0.930 . S
C1798 C1799 1.348 . S
C1798 C1800 1.356 . S
C1798 O1823 1.325 . S
C1799 C1798 1.348 . S
C1799 C1801 1.353 . S
C1799 H1840 0.929 . S
C1800 C1798 1.356 . S
C1800 C1802 1.358 . S
C1800 H1841 0.930 . S
C1801 C1799 1.353 . S
C1801 N1803 1.314 . S
C1801 H1842 0.930 . S
C1802 C1800 1.358 . S
C1802 N1803 1.279 . S
C1802 H1843 0.930 . S
N1803 C1801 1.314 . S
N1803 C1802 1.279 . S
C1804 C1806 1.353 . S
C1804 N1807 1.314 . S
C1804 H1810 0.930 . S
C1805 N1807 1.279 . S
C1805 C1808 1.358 . S
C1805 H1811 0.922 1_554 S
C1806 C1804 1.353 . S
C1806 C1809 1.348 . S
C1806 H1844 0.929 . S
N1807 Li1762 1.990 . S
N1807 C1804 1.314 . S
N1807 C1805 1.279 . S
C1808 C1805 1.358 . S
C1808 C1809 1.356 . S
C1808 H1845 0.930 1_554 S
C1809 C1806 1.348 . S
C1809 C1808 1.356 . S
H1810 C1804 0.930 . S
H1811 C1805 0.922 1_556 S
C1812 N1813 1.314 . S
C1812 C1814 1.353 . S
C1812 H1818 0.930 . S
N1813 Li1763 1.990 . S
N1813 C1812 1.314 . S
N1813 C1816 1.279 . S
C1814 C1812 1.353 . S
C1814 C1817 1.348 . S
C1814 H1846 0.929 1_554 S
C1815 C1816 1.358 . S
C1815 C1817 1.356 . S
C1815 H1847 0.930 . S
C1816 N1813 1.279 . S
C1816 C1815 1.358 . S
C1816 H1819 0.930 . S
C1817 C1814 1.348 . S
C1817 C1815 1.356 . S
H1818 C1812 0.930 . S
H1819 C1816 0.930 . S
O1820 Li1760 1.956 . S
O1820 Li1761 1.970 . S
O1820 Li1762 1.961 . S
O1820 C1764 1.325 . S
O1821 Li1760 1.970 . S
O1821 Li1761 1.956 . S
O1821 Li1763 1.961 . S
O1821 C1770 1.325 . S
O1822 Li1760 1.961 . S
O1822 Li1762 1.956 . S
O1822 Li1763 1.970 . S
O1822 C1792 1.325 1_554 S
O1823 Li1761 1.961 . S
O1823 Li1762 1.970 . S
O1823 Li1763 1.956 . S
O1823 C1798 1.325 . S
H1824 C1766 0.929 . S
H1825 C1767 0.930 . S
H1826 C1768 0.930 . S
H1827 C1769 0.930 . S
H1828 C1771 0.930 . S
H1829 C1773 0.929 . S
H1830 C1774 0.930 . S
H1831 C1775 0.930 . S
H1832 C1778 0.930 . S
H1833 C1781 0.929 . S
H1834 C1786 0.929 . S
H1835 C1787 0.930 . S
H1836 C1794 0.929 . S
H1837 C1795 0.930 . S
H1838 C1796 0.930 . S
H1839 C1797 0.930 . S
H1840 C1799 0.929 . S
H1841 C1800 0.930 . S
H1842 C1801 0.930 . S
H1843 C1802 0.930 . S
H1844 C1806 0.929 . S
H1845 C1808 0.930 1_556 S
H1846 C1814 0.929 1_556 S
H1847 C1815 0.930 . S
Li1848 N1865 1.990 . S
Li1848 O1908 1.956 . S
Li1848 O1909 1.970 . S
Li1848 O1910 1.961 . S
Li1849 N1873 1.990 . S
Li1849 O1908 1.970 . S
Li1849 O1909 1.956 . S
Li1849 O1911 1.961 . S
Li1850 N1895 1.990 . S
Li1850 O1908 1.961 . S
Li1850 O1910 1.956 . S
Li1850 O1911 1.970 . S
Li1851 N1901 1.990 . S
Li1851 O1909 1.961 . S
Li1851 O1910 1.970 . S
Li1851 O1911 1.956 . S
C1852 C1854 1.348 . S
C1852 C1855 1.356 . S
C1852 O1908 1.325 . S
N1853 C1856 1.314 . S
N1853 C1857 1.279 . S
C1854 C1852 1.348 . S
C1854 C1856 1.353 . S
C1854 H1912 0.929 . S
C1855 C1852 1.356 . S
C1855 C1857 1.358 . S
C1855 H1913 0.930 . S
C1856 N1853 1.314 . S
C1856 C1854 1.353 . S
C1856 H1914 0.930 . S
C1857 N1853 1.279 . S
C1857 C1855 1.358 . S
C1857 H1915 0.930 . S
C1858 C1861 1.348 . S
C1858 C1862 1.356 . S
C1858 O1909 1.325 . S
C1859 N1860 1.279 . S
C1859 C1862 1.358 . S
C1859 H1916 0.930 . S
N1860 C1859 1.279 . S
N1860 C1863 1.314 . S
C1861 C1858 1.348 . S
C1861 C1863 1.353 . S
C1861 H1917 0.929 . S
C1862 C1858 1.356 . S
C1862 C1859 1.358 . S
C1862 H1918 0.930 . S
C1863 N1860 1.314 . S
C1863 C1861 1.353 . S
C1863 H1919 0.930 . S
C1864 N1865 1.314 . S
C1864 C1869 1.353 . S
C1864 H1870 0.930 . S
N1865 Li1848 1.990 . S
N1865 C1864 1.314 . S
N1865 C1867 1.279 . S
C1866 C1867 1.358 . S
C1866 C1868 1.356 . S
C1866 H1920 0.930 . S
C1867 N1865 1.279 . S
C1867 C1866 1.358 . S
C1867 H1871 0.930 . S
C1868 C1866 1.356 . S
C1868 C1869 1.348 . S
C1869 C1864 1.353 . S
C1869 C1868 1.348 . S
C1869 H1921 0.929 . S
H1870 C1864 0.930 . S
H1871 C1867 0.930 . S
C1872 N1873 1.314 . S
C1872 C1874 1.353 . S
C1872 H1878 0.930 . S
N1873 Li1849 1.990 . S
N1873 C1872 1.314 . S
N1873 C1876 1.279 . S
C1874 C1872 1.353 . S
C1874 C1877 1.348 . S
C1874 H1922 0.929 . S
C1875 C1876 1.358 . S
C1875 C1877 1.356 . S
C1875 H1923 0.930 . S
C1876 N1873 1.279 . S
C1876 C1875 1.358 . S
C1876 H1879 0.930 . S
C1877 C1874 1.348 . S
C1877 C1875 1.356 . S
H1878 C1872 0.930 . S
H1879 C1876 0.930 . S
C1880 C1882 1.348 . S
C1880 C1883 1.356 . S
C1880 O1910 1.325 . S
N1881 C1884 1.314 . S
N1881 C1885 1.279 . S
C1882 C1880 1.348 . S
C1882 C1884 1.353 . S
C1882 H1924 0.929 . S
C1883 C1880 1.356 . S
C1883 C1885 1.358 . S
C1883 H1925 0.930 . S
C1884 N1881 1.314 . S
C1884 C1882 1.353 . S
C1884 H1926 0.930 . S
C1885 N1881 1.279 . S
C1885 C1883 1.358 . S
C1885 H1927 0.930 . S
C1886 C1887 1.348 . S
C1886 C1888 1.356 . S
C1886 O1911 1.325 . S
C1887 C1886 1.348 . S
C1887 C1889 1.353 . S
C1887 H1928 0.929 . S
C1888 C1886 1.356 . S
C1888 C1890 1.358 . S
C1888 H1929 0.930 . S
C1889 C1887 1.353 . S
C1889 N1891 1.314 . S
C1889 H1930 0.930 . S
C1890 C1888 1.358 . S
C1890 N1891 1.279 . S
C1890 H1931 0.930 . S
N1891 C1889 1.314 . S
N1891 C1890 1.279 . S
C1892 C1894 1.353 . S
C1892 N1895 1.314 . S
C1892 H1898 0.930 . S
C1893 N1895 1.279 . S
C1893 C1896 1.358 . S
C1893 H1899 0.930 . S
C1894 C1892 1.353 . S
C1894 C1897 1.348 . S
C1894 H1932 0.929 . S
N1895 Li1850 1.990 . S
N1895 C1892 1.314 . S
N1895 C1893 1.279 . S
C1896 C1893 1.358 . S
C1896 C1897 1.356 . S
C1896 H1933 0.930 . S
C1897 C1894 1.348 . S
C1897 C1896 1.356 . S
H1898 C1892 0.930 . S
H1899 C1893 0.930 . S
C1900 N1901 1.314 . S
C1900 C1902 1.353 . S
C1900 H1906 0.930 . S
N1901 Li1851 1.990 . S
N1901 C1900 1.314 . S
N1901 C1904 1.279 . S
C1902 C1900 1.353 . S
C1902 C1905 1.348 . S
C1902 H1934 0.929 . S
C1903 C1904 1.358 . S
C1903 C1905 1.356 . S
C1903 H1935 0.930 . S
C1904 N1901 1.279 . S
C1904 C1903 1.358 . S
C1904 H1907 0.930 . S
C1905 C1902 1.348 . S
C1905 C1903 1.356 . S
H1906 C1900 0.930 . S
H1907 C1904 0.930 . S
O1908 Li1848 1.956 . S
O1908 Li1849 1.970 . S
O1908 Li1850 1.961 . S
O1908 C1852 1.325 . S
O1909 Li1848 1.970 . S
O1909 Li1849 1.956 . S
O1909 Li1851 1.961 . S
O1909 C1858 1.325 . S
O1910 Li1848 1.961 . S
O1910 Li1850 1.956 . S
O1910 Li1851 1.970 . S
O1910 C1880 1.325 . S
O1911 Li1849 1.961 . S
O1911 Li1850 1.970 . S
O1911 Li1851 1.956 . S
O1911 C1886 1.325 . S
H1912 C1854 0.929 . S
H1913 C1855 0.930 . S
H1914 C1856 0.930 . S
H1915 C1857 0.930 . S
H1916 C1859 0.930 . S
H1917 C1861 0.929 . S
H1918 C1862 0.930 . S
H1919 C1863 0.930 . S
H1920 C1866 0.930 . S
H1921 C1869 0.929 . S
H1922 C1874 0.929 . S
H1923 C1875 0.930 . S
H1924 C1882 0.929 . S
H1925 C1883 0.930 . S
H1926 C1884 0.930 . S
H1927 C1885 0.930 . S
H1928 C1887 0.929 . S
H1929 C1888 0.930 . S
H1930 C1889 0.930 . S
H1931 C1890 0.930 . S
H1932 C1894 0.929 . S
H1933 C1896 0.930 . S
H1934 C1902 0.929 . S
H1935 C1903 0.930 . S
Li1936 N1953 1.990 . S
Li1936 O1996 1.956 . S
Li1936 O1997 1.970 . S
Li1936 O1998 1.961 . S
Li1937 N1961 1.990 . S
Li1937 O1996 1.970 . S
Li1937 O1997 1.956 . S
Li1937 O1999 1.961 . S
Li1938 N1983 1.990 . S
Li1938 O1996 1.961 . S
Li1938 O1998 1.956 . S
Li1938 O1999 1.970 . S
Li1939 N1989 1.990 . S
Li1939 O1997 1.961 . S
Li1939 O1998 1.970 . S
Li1939 O1999 1.956 . S
C1940 C1942 1.348 . S
C1940 C1943 1.356 . S
C1940 O1996 1.325 . S
N1941 C1944 1.314 . S
N1941 C1945 1.279 . S
C1942 C1940 1.348 . S
C1942 C1944 1.353 . S
C1942 H2000 0.929 . S
C1943 C1940 1.356 . S
C1943 C1945 1.358 . S
C1943 H2001 0.930 . S
C1944 N1941 1.314 . S
C1944 C1942 1.353 . S
C1944 H2002 0.930 . S
C1945 N1941 1.279 . S
C1945 C1943 1.358 . S
C1945 H2003 0.930 . S
C1946 C1949 1.348 . S
C1946 C1950 1.356 . S
C1946 O1997 1.325 . S
C1947 N1948 1.279 . S
C1947 C1950 1.358 . S
C1947 H2004 0.930 . S
N1948 C1947 1.279 . S
N1948 C1951 1.314 . S
C1949 C1946 1.348 . S
C1949 C1951 1.353 . S
C1949 H2005 0.929 . S
C1950 C1946 1.356 . S
C1950 C1947 1.358 . S
C1950 H2006 0.930 . S
C1951 N1948 1.314 . S
C1951 C1949 1.353 . S
C1951 H2007 0.930 . S
C1952 N1953 1.314 1_556 S
C1952 C1957 1.353 . S
C1952 H1958 0.930 . S
N1953 Li1936 1.990 . S
N1953 C1952 1.314 1_554 S
N1953 C1955 1.279 . S
C1954 C1955 1.358 . S
C1954 C1956 1.356 1_554 S
C1954 H2008 0.930 . S
C1955 N1953 1.279 . S
C1955 C1954 1.358 . S
C1955 H1959 0.930 . S
C1956 C1954 1.356 1_556 S
C1956 C1957 1.348 . S
C1957 C1952 1.353 . S
C1957 C1956 1.348 . S
C1957 H2009 0.929 . S
H1958 C1952 0.930 . S
H1959 C1955 0.930 . S
C1960 N1961 1.314 . S
C1960 C1962 1.353 . S
C1960 H1966 0.930 . S
N1961 Li1937 1.990 . S
N1961 C1960 1.314 . S
N1961 C1964 1.279 . S
C1962 C1960 1.353 . S
C1962 C1965 1.348 . S
C1962 H2010 0.929 . S
C1963 C1964 1.358 . S
C1963 C1965 1.356 . S
C1963 H2011 0.930 . S
C1964 N1961 1.279 . S
C1964 C1963 1.358 . S
C1964 H1967 0.930 . S
C1965 C1962 1.348 . S
C1965 C1963 1.356 . S
H1966 C1960 0.930 . S
H1967 C1964 0.930 . S
C1968 C1970 1.348 . S
C1968 C1971 1.356 . S
C1968 O1998 1.325 1_556 S
N1969 C1972 1.314 . S
N1969 C1973 1.279 . S
C1970 C1968 1.348 . S
C1970 C1972 1.353 . S
C1970 H2012 0.929 . S
C1971 C1968 1.356 . S
C1971 C1973 1.358 . S
C1971 H2013 0.930 . S
C1972 N1969 1.314 . S
C1972 C1970 1.353 . S
C1972 H2014 0.930 . S
C1973 N1969 1.279 . S
C1973 C1971 1.358 . S
C1973 H2015 0.930 . S
C1974 C1975 1.348 . S
C1974 C1976 1.356 . S
C1974 O1999 1.325 . S
C1975 C1974 1.348 . S
C1975 C1977 1.353 . S
C1975 H2016 0.929 . S
C1976 C1974 1.356 . S
C1976 C1978 1.358 . S
C1976 H2017 0.930 . S
C1977 C1975 1.353 . S
C1977 N1979 1.314 . S
C1977 H2018 0.930 . S
C1978 C1976 1.358 . S
C1978 N1979 1.279 . S
C1978 H2019 0.930 . S
N1979 C1977 1.314 . S
N1979 C1978 1.279 . S
C1980 C1982 1.353 . S
C1980 N1983 1.314 . S
C1980 H1986 0.930 . S
C1981 N1983 1.279 . S
C1981 C1984 1.358 . S
C1981 H1987 0.922 1_554 S
C1982 C1980 1.353 . S
C1982 C1985 1.348 . S
C1982 H2020 0.929 . S
N1983 Li1938 1.990 . S
N1983 C1980 1.314 . S
N1983 C1981 1.279 . S
C1984 C1981 1.358 . S
C1984 C1985 1.356 . S
C1984 H2021 0.930 1_554 S
C1985 C1982 1.348 . S
C1985 C1984 1.356 . S
H1986 C1980 0.930 . S
H1987 C1981 0.922 1_556 S
C1988 N1989 1.314 . S
C1988 C1990 1.353 . S
C1988 H1994 0.930 . S
N1989 Li1939 1.990 . S
N1989 C1988 1.314 . S
N1989 C1992 1.279 . S
C1990 C1988 1.353 . S
C1990 C1993 1.348 . S
C1990 H2022 0.929 1_554 S
C1991 C1992 1.358 . S
C1991 C1993 1.356 . S
C1991 H2023 0.930 . S
C1992 N1989 1.279 . S
C1992 C1991 1.358 . S
C1992 H1995 0.930 . S
C1993 C1990 1.348 . S
C1993 C1991 1.356 . S
H1994 C1988 0.930 . S
H1995 C1992 0.930 . S
O1996 Li1936 1.956 . S
O1996 Li1937 1.970 . S
O1996 Li1938 1.961 . S
O1996 C1940 1.325 . S
O1997 Li1936 1.970 . S
O1997 Li1937 1.956 . S
O1997 Li1939 1.961 . S
O1997 C1946 1.325 . S
O1998 Li1936 1.961 . S
O1998 Li1938 1.956 . S
O1998 Li1939 1.970 . S
O1998 C1968 1.325 1_554 S
O1999 Li1937 1.961 . S
O1999 Li1938 1.970 . S
O1999 Li1939 1.956 . S
O1999 C1974 1.325 . S
H2000 C1942 0.929 . S
H2001 C1943 0.930 . S
H2002 C1944 0.930 . S
H2003 C1945 0.930 . S
H2004 C1947 0.930 . S
H2005 C1949 0.929 . S
H2006 C1950 0.930 . S
H2007 C1951 0.930 . S
H2008 C1954 0.930 . S
H2009 C1957 0.929 . S
H2010 C1962 0.929 . S
H2011 C1963 0.930 . S
H2012 C1970 0.929 . S
H2013 C1971 0.930 . S
H2014 C1972 0.930 . S
H2015 C1973 0.930 . S
H2016 C1975 0.929 . S
H2017 C1976 0.930 . S
H2018 C1977 0.930 . S
H2019 C1978 0.930 . S
H2020 C1982 0.929 . S
H2021 C1984 0.930 1_556 S
H2022 C1990 0.929 1_556 S
H2023 C1991 0.930 . S
Li2024 N2041 1.990 . S
Li2024 O2084 1.956 . S
Li2024 O2085 1.970 . S
Li2024 O2086 1.961 . S
Li2025 N2049 1.990 . S
Li2025 O2084 1.970 . S
Li2025 O2085 1.956 . S
Li2025 O2087 1.961 . S
Li2026 N2071 1.990 . S
Li2026 O2084 1.961 . S
Li2026 O2086 1.956 . S
Li2026 O2087 1.970 . S
Li2027 N2077 1.990 . S
Li2027 O2085 1.961 . S
Li2027 O2086 1.970 . S
Li2027 O2087 1.956 . S
C2028 C2030 1.348 . S
C2028 C2031 1.356 . S
C2028 O2084 1.325 . S
N2029 C2032 1.314 . S
N2029 C2033 1.279 . S
C2030 C2028 1.348 . S
C2030 C2032 1.353 . S
C2030 H2088 0.929 . S
C2031 C2028 1.356 . S
C2031 C2033 1.358 . S
C2031 H2089 0.930 . S
C2032 N2029 1.314 . S
C2032 C2030 1.353 . S
C2032 H2090 0.930 . S
C2033 N2029 1.279 . S
C2033 C2031 1.358 . S
C2033 H2091 0.930 . S
C2034 C2037 1.348 . S
C2034 C2038 1.356 . S
C2034 O2085 1.325 . S
C2035 N2036 1.279 . S
C2035 C2038 1.358 . S
C2035 H2092 0.930 . S
N2036 C2035 1.279 . S
N2036 C2039 1.314 . S
C2037 C2034 1.348 . S
C2037 C2039 1.353 . S
C2037 H2093 0.929 . S
C2038 C2034 1.356 . S
C2038 C2035 1.358 . S
C2038 H2094 0.930 . S
C2039 N2036 1.314 . S
C2039 C2037 1.353 . S
C2039 H2095 0.930 . S
C2040 N2041 1.314 . S
C2040 C2045 1.353 . S
C2040 H2046 0.930 . S
N2041 Li2024 1.990 . S
N2041 C2040 1.314 . S
N2041 C2043 1.279 . S
C2042 C2043 1.358 . S
C2042 C2044 1.356 . S
C2042 H2096 0.930 . S
C2043 N2041 1.279 . S
C2043 C2042 1.358 . S
C2043 H2047 0.930 . S
C2044 C2042 1.356 . S
C2044 C2045 1.348 . S
C2045 C2040 1.353 . S
C2045 C2044 1.348 . S
C2045 H2097 0.929 . S
H2046 C2040 0.930 . S
H2047 C2043 0.930 . S
C2048 N2049 1.314 . S
C2048 C2050 1.353 . S
C2048 H2054 0.930 . S
N2049 Li2025 1.990 . S
N2049 C2048 1.314 . S
N2049 C2052 1.279 . S
C2050 C2048 1.353 . S
C2050 C2053 1.348 . S
C2050 H2098 0.929 . S
C2051 C2052 1.358 . S
C2051 C2053 1.356 . S
C2051 H2099 0.930 . S
C2052 N2049 1.279 . S
C2052 C2051 1.358 . S
C2052 H2055 0.930 . S
C2053 C2050 1.348 . S
C2053 C2051 1.356 . S
H2054 C2048 0.930 . S
H2055 C2052 0.930 . S
C2056 C2058 1.348 . S
C2056 C2059 1.356 . S
C2056 O2086 1.325 . S
N2057 C2060 1.314 . S
N2057 C2061 1.279 . S
C2058 C2056 1.348 . S
C2058 C2060 1.353 . S
C2058 H2100 0.929 . S
C2059 C2056 1.356 . S
C2059 C2061 1.358 . S
C2059 H2101 0.930 . S
C2060 N2057 1.314 . S
C2060 C2058 1.353 . S
C2060 H2102 0.930 . S
C2061 N2057 1.279 . S
C2061 C2059 1.358 . S
C2061 H2103 0.930 . S
C2062 C2063 1.348 . S
C2062 C2064 1.356 . S
C2062 O2087 1.325 . S
C2063 C2062 1.348 . S
C2063 C2065 1.353 . S
C2063 H2104 0.929 . S
C2064 C2062 1.356 . S
C2064 C2066 1.358 . S
C2064 H2105 0.930 . S
C2065 C2063 1.353 . S
C2065 N2067 1.314 . S
C2065 H2106 0.930 . S
C2066 C2064 1.358 . S
C2066 N2067 1.279 . S
C2066 H2107 0.930 . S
N2067 C2065 1.314 . S
N2067 C2066 1.279 . S
C2068 C2070 1.353 . S
C2068 N2071 1.314 . S
C2068 H2074 0.930 . S
C2069 N2071 1.279 . S
C2069 C2072 1.358 . S
C2069 H2075 0.930 . S
C2070 C2068 1.353 . S
C2070 C2073 1.348 . S
C2070 H2108 0.929 . S
N2071 Li2026 1.990 . S
N2071 C2068 1.314 . S
N2071 C2069 1.279 . S
C2072 C2069 1.358 . S
C2072 C2073 1.356 . S
C2072 H2109 0.930 . S
C2073 C2070 1.348 . S
C2073 C2072 1.356 . S
H2074 C2068 0.930 . S
H2075 C2069 0.930 . S
C2076 N2077 1.314 . S
C2076 C2078 1.353 . S
C2076 H2082 0.930 . S
N2077 Li2027 1.990 . S
N2077 C2076 1.314 . S
N2077 C2080 1.279 . S
C2078 C2076 1.353 . S
C2078 C2081 1.348 . S
C2078 H2110 0.929 . S
C2079 C2080 1.358 . S
C2079 C2081 1.356 . S
C2079 H2111 0.930 . S
C2080 N2077 1.279 . S
C2080 C2079 1.358 . S
C2080 H2083 0.930 . S
C2081 C2078 1.348 . S
C2081 C2079 1.356 . S
H2082 C2076 0.930 . S
H2083 C2080 0.930 . S
O2084 Li2024 1.956 . S
O2084 Li2025 1.970 . S
O2084 Li2026 1.961 . S
O2084 C2028 1.325 . S
O2085 Li2024 1.970 . S
O2085 Li2025 1.956 . S
O2085 Li2027 1.961 . S
O2085 C2034 1.325 . S
O2086 Li2024 1.961 . S
O2086 Li2026 1.956 . S
O2086 Li2027 1.970 . S
O2086 C2056 1.325 . S
O2087 Li2025 1.961 . S
O2087 Li2026 1.970 . S
O2087 Li2027 1.956 . S
O2087 C2062 1.325 . S
H2088 C2030 0.929 . S
H2089 C2031 0.930 . S
H2090 C2032 0.930 . S
H2091 C2033 0.930 . S
H2092 C2035 0.930 . S
H2093 C2037 0.929 . S
H2094 C2038 0.930 . S
H2095 C2039 0.930 . S
H2096 C2042 0.930 . S
H2097 C2045 0.929 . S
H2098 C2050 0.929 . S
H2099 C2051 0.930 . S
H2100 C2058 0.929 . S
H2101 C2059 0.930 . S
H2102 C2060 0.930 . S
H2103 C2061 0.930 . S
H2104 C2063 0.929 . S
H2105 C2064 0.930 . S
H2106 C2065 0.930 . S
H2107 C2066 0.930 . S
H2108 C2070 0.929 . S
H2109 C2072 0.930 . S
H2110 C2078 0.929 . S
H2111 C2079 0.930 . S
C20 C1369 1.584 . S
C117 C1457 1.584 . S
C1553 C205 1.584 . S
C1105 C293 1.584 . S
C1164 C372 1.584 . S
C1281 C460 1.584 . S
C1868 C577 1.584 . S
C665 C1965 1.584 . S
C2044 C753 1.584 . S
C841 C1641 1.584 . S
C1701 C929 1.584 . S
C1025 C1789 1.584 . S
C909 C57 1.167 1_554 S
C988 C137 1.167 . S
C225 C557 1.166 1_556 S
C313 C645 1.167 . S
C733 C409 1.167 1_554 S
C497 C821 1.166 . S
C1956 C1113 1.131 1_556 S
C1173 C2053 1.131 . S
C1289 C1633 1.131 1_554 S
C1692 C1377 1.131 . S
C1465 C1780 1.131 1_554 S
C1545 C1877 1.131 . S
C29 C1604 1.346 . S
C1721 C108 1.346 1_455 S
C196 C1809 1.346 1_565 S
C284 C1905 1.346 . S
C1985 C381 1.346 1_655 S
C469 C2081 1.346 1_545 S
C585 C1085 1.346 . S
C673 C1201 1.346 1_655 S
C1261 C761 1.346 1_545 S
C1349 C849 1.346 . S
C937 C1437 1.346 1_455 S
C1516 C1017 1.346 1_565 S
C548 C49 1.721 1_556 S
C145 C636 1.721 . S
C724 C233 1.721 1_556 S
C812 C321 1.721 . S
C900 C401 1.721 1_556 S
C489 C997 1.721 . S
C1613 C1076 1.716 1_554 S
C1193 C1729 1.716 . S
C1817 C1252 1.716 1_554 S
C1897 C1340 1.716 . S
C1428 C1993 1.716 1_556 S
C1525 C2073 1.716 . S
