# Generated by pormake.
# Topology vbx, (6)-cn, num edge types: 1
# Building blocks:
#     Node 0, Type 0, BuildingBlock: OJICUG_clean_sbu_0, # of connection points: 6
#     Node 1, Type 0, BuildingBlock: OJICUG_clean_sbu_0, # of connection points: 6
#     Node 2, Type 0, BuildingBlock: OJICUG_clean_sbu_0, # of connection points: 6
#     Node 3, Type 0, BuildingBlock: OJICUG_clean_sbu_0, # of connection points: 6
#     Node 4, Type 0, BuildingBlock: OJICUG_clean_sbu_0, # of connection points: 6
#     Node 5, Type 0, BuildingBlock: OJICUG_clean_sbu_0, # of connection points: 6
#     Node 6, Type 0, BuildingBlock: OJICUG_clean_sbu_0, # of connection points: 6
#     Node 7, Type 0, BuildingBlock: OJICUG_clean_sbu_0, # of connection points: 6
#     Node 8, Type 0, BuildingBlock: OJICUG_clean_sbu_0, # of connection points: 6
#     Node 9, Type 0, BuildingBlock: OJICUG_clean_sbu_0, # of connection points: 6
#     Node 10, Type 0, BuildingBlock: OJICUG_clean_sbu_0, # of connection points: 6
#     Node 11, Type 0, BuildingBlock: OJICUG_clean_sbu_0, # of connection points: 6
#     Node 12, Type 0, BuildingBlock: OJICUG_clean_sbu_0, # of connection points: 6
#     Node 13, Type 0, BuildingBlock: OJICUG_clean_sbu_0, # of connection points: 6
#     Node 14, Type 0, BuildingBlock: OJICUG_clean_sbu_0, # of connection points: 6
#     Node 15, Type 0, BuildingBlock: OJICUG_clean_sbu_0, # of connection points: 6
#     Edge 16, Type (0, 0), BuildingBlock: XIVTED_clean_linker_0, # of connection points: 2
#     Edge 17, Type (0, 0), BuildingBlock: XIVTED_clean_linker_0, # of connection points: 2
#     Edge 18, Type (0, 0), BuildingBlock: XIVTED_clean_linker_0, # of connection points: 2
#     Edge 19, Type (0, 0), BuildingBlock: XIVTED_clean_linker_0, # of connection points: 2
#     Edge 20, Type (0, 0), BuildingBlock: XIVTED_clean_linker_0, # of connection points: 2
#     Edge 21, Type (0, 0), BuildingBlock: XIVTED_clean_linker_0, # of connection points: 2
#     Edge 22, Type (0, 0), BuildingBlock: XIVTED_clean_linker_0, # of connection points: 2
#     Edge 23, Type (0, 0), BuildingBlock: XIVTED_clean_linker_0, # of connection points: 2
#     Edge 24, Type (0, 0), BuildingBlock: XIVTED_clean_linker_0, # of connection points: 2
#     Edge 25, Type (0, 0), BuildingBlock: XIVTED_clean_linker_0, # of connection points: 2
#     Edge 26, Type (0, 0), BuildingBlock: XIVTED_clean_linker_0, # of connection points: 2
#     Edge 27, Type (0, 0), BuildingBlock: XIVTED_clean_linker_0, # of connection points: 2
#     Edge 28, Type (0, 0), BuildingBlock: XIVTED_clean_linker_0, # of connection points: 2
#     Edge 29, Type (0, 0), BuildingBlock: XIVTED_clean_linker_0, # of connection points: 2
#     Edge 30, Type (0, 0), BuildingBlock: XIVTED_clean_linker_0, # of connection points: 2
#     Edge 31, Type (0, 0), BuildingBlock: XIVTED_clean_linker_0, # of connection points: 2
#     Edge 32, Type (0, 0), BuildingBlock: XIVTED_clean_linker_0, # of connection points: 2
#     Edge 33, Type (0, 0), BuildingBlock: XIVTED_clean_linker_0, # of connection points: 2
#     Edge 34, Type (0, 0), BuildingBlock: XIVTED_clean_linker_0, # of connection points: 2
#     Edge 35, Type (0, 0), BuildingBlock: XIVTED_clean_linker_0, # of connection points: 2
#     Edge 36, Type (0, 0), BuildingBlock: XIVTED_clean_linker_0, # of connection points: 2
#     Edge 37, Type (0, 0), BuildingBlock: XIVTED_clean_linker_0, # of connection points: 2
#     Edge 38, Type (0, 0), BuildingBlock: XIVTED_clean_linker_0, # of connection points: 2
#     Edge 39, Type (0, 0), BuildingBlock: XIVTED_clean_linker_0, # of connection points: 2
#     Edge 40, Type (0, 0), BuildingBlock: XIVTED_clean_linker_0, # of connection points: 2
#     Edge 41, Type (0, 0), BuildingBlock: XIVTED_clean_linker_0, # of connection points: 2
#     Edge 42, Type (0, 0), BuildingBlock: XIVTED_clean_linker_0, # of connection points: 2
#     Edge 43, Type (0, 0), BuildingBlock: XIVTED_clean_linker_0, # of connection points: 2
#     Edge 44, Type (0, 0), BuildingBlock: XIVTED_clean_linker_0, # of connection points: 2
#     Edge 45, Type (0, 0), BuildingBlock: XIVTED_clean_linker_0, # of connection points: 2
#     Edge 46, Type (0, 0), BuildingBlock: XIVTED_clean_linker_0, # of connection points: 2
#     Edge 47, Type (0, 0), BuildingBlock: XIVTED_clean_linker_0, # of connection points: 2
#     Edge 48, Type (0, 0), BuildingBlock: XIVTED_clean_linker_0, # of connection points: 2
#     Edge 49, Type (0, 0), BuildingBlock: XIVTED_clean_linker_0, # of connection points: 2
#     Edge 50, Type (0, 0), BuildingBlock: XIVTED_clean_linker_0, # of connection points: 2
#     Edge 51, Type (0, 0), BuildingBlock: XIVTED_clean_linker_0, # of connection points: 2
#     Edge 52, Type (0, 0), BuildingBlock: XIVTED_clean_linker_0, # of connection points: 2
#     Edge 53, Type (0, 0), BuildingBlock: XIVTED_clean_linker_0, # of connection points: 2
#     Edge 54, Type (0, 0), BuildingBlock: XIVTED_clean_linker_0, # of connection points: 2
#     Edge 55, Type (0, 0), BuildingBlock: XIVTED_clean_linker_0, # of connection points: 2
#     Edge 56, Type (0, 0), BuildingBlock: XIVTED_clean_linker_0, # of connection points: 2
#     Edge 57, Type (0, 0), BuildingBlock: XIVTED_clean_linker_0, # of connection points: 2
#     Edge 58, Type (0, 0), BuildingBlock: XIVTED_clean_linker_0, # of connection points: 2
#     Edge 59, Type (0, 0), BuildingBlock: XIVTED_clean_linker_0, # of connection points: 2
#     Edge 60, Type (0, 0), BuildingBlock: XIVTED_clean_linker_0, # of connection points: 2
#     Edge 61, Type (0, 0), BuildingBlock: XIVTED_clean_linker_0, # of connection points: 2
#     Edge 62, Type (0, 0), BuildingBlock: XIVTED_clean_linker_0, # of connection points: 2
#     Edge 63, Type (0, 0), BuildingBlock: XIVTED_clean_linker_0, # of connection points: 2
# Relax obj value: 0.244
# Max RMSD: 0.241
# Mean RMSD: 0.241
data_MOF--net-vbx--node1-OJICUG_clean_sbu_0--edge1-XIVTED_clean_linker_0
_symmetry_space_group_name_H-M    P1
_symmetry_Int_Tables_number       1
_symmetry_cell_setting            triclinic
loop_
_symmetry_equiv_pos_as_xyz
'x, y, z'
_cell_length_a     47.523787
_cell_length_b     29.021089
_cell_length_c     58.103283
_cell_angle_alpha  89.993091
_cell_angle_beta   89.99502
_cell_angle_gamma 90.078159
loop_
_atom_site_label
_atom_site_type_symbol
_atom_site_fract_x
_atom_site_fract_y
_atom_site_fract_z
_atom_type_partial_charge
Sc0 Sc 0.34067 0.41482 0.11549 0.0
Sc1 Sc 0.28064 0.34728 0.10846 0.0
Sc2 Sc 0.33947 0.32989 0.07396 0.0
O3 O 0.32008 0.36419 0.09935 0.0
C4 C 0.36174 0.43227 0.06597 0.0
C5 C 0.27761 0.45426 0.11376 0.0
C6 C 0.28045 0.34092 0.05333 0.0
C7 C 0.31099 0.3641 0.15631 0.0
C8 C 0.38754 0.33652 0.10938 0.0
C9 C 0.30228 0.25004 0.09661 0.0
O10 O 0.34982 0.44925 0.0836 0.0
O11 O 0.26643 0.41737 0.10629 0.0
O12 O 0.3066 0.34889 0.05089 0.0
O13 O 0.33276 0.3828 0.14775 0.0
O14 O 0.37297 0.31012 0.09658 0.0
O15 O 0.29138 0.27578 0.11181 0.0
O16 O 0.37995 0.37741 0.11447 0.0
O17 O 0.28904 0.35473 0.14469 0.0
O18 O 0.31775 0.26558 0.08055 0.0
O19 O 0.30354 0.45707 0.11913 0.0
O20 O 0.36334 0.38906 0.06259 0.0
O21 O 0.26883 0.33617 0.07299 0.0
Sc22 Sc 0.6483 0.56735 0.61197 0.0
Sc23 Sc 0.70982 0.63409 0.60717 0.0
Sc24 Sc 0.64549 0.67673 0.58584 0.0
O25 O 0.6679 0.62611 0.60168 0.0
C26 C 0.62038 0.58487 0.56317 0.0
C27 C 0.70763 0.52664 0.59656 0.0
C28 C 0.70247 0.67457 0.5569 0.0
C29 C 0.68855 0.59034 0.65412 0.0
C30 C 0.60196 0.64364 0.62378 0.0
C31 C 0.68801 0.73708 0.61523 0.0
O32 O 0.62835 0.55809 0.57919 0.0
O33 O 0.72053 0.56481 0.5978 0.0
O34 O 0.67666 0.68467 0.55954 0.0
O35 O 0.66689 0.57142 0.64541 0.0
O36 O 0.61203 0.67454 0.61067 0.0
O37 O 0.70574 0.70469 0.61729 0.0
O38 O 0.61245 0.60354 0.6253 0.0
O39 O 0.70585 0.6146 0.64262 0.0
O40 O 0.66451 0.732 0.60512 0.0
O41 O 0.6815 0.5227 0.60064 0.0
O42 O 0.62439 0.62819 0.56366 0.0
O43 O 0.71716 0.65477 0.57227 0.0
Sc44 Sc 0.34774 0.68723 0.8934 0.0
Sc45 Sc 0.28533 0.64411 0.86914 0.0
Sc46 Sc 0.34587 0.57473 0.87068 0.0
O47 O 0.32634 0.63537 0.87771 0.0
C48 C 0.39374 0.64859 0.85876 0.0
C49 C 0.30874 0.74635 0.86092 0.0
C50 C 0.31039 0.59555 0.82512 0.0
C51 C 0.28822 0.68689 0.919 0.0
C52 C 0.36983 0.59833 0.92038 0.0
C53 C 0.28501 0.53737 0.88246 0.0
O54 O 0.38347 0.68054 0.8711 0.0
O55 O 0.29038 0.71478 0.85951 0.0
O56 O 0.32924 0.57396 0.83632 0.0
O57 O 0.31388 0.69861 0.91691 0.0
O58 O 0.36402 0.56991 0.90444 0.0
O59 O 0.27316 0.57492 0.87709 0.0
O60 O 0.36541 0.64134 0.91865 0.0
O61 O 0.27473 0.66458 0.90367 0.0
O62 O 0.31155 0.53255 0.88291 0.0
O63 O 0.33206 0.74078 0.87117 0.0
O64 O 0.38269 0.60878 0.85728 0.0
O65 O 0.29362 0.62437 0.83428 0.0
Sc66 Sc 0.64199 0.41365 0.36797 0.0
Sc67 Sc 0.70419 0.35047 0.37062 0.0
Sc68 Sc 0.64682 0.3196 0.40444 0.0
O69 O 0.66449 0.3615 0.38102 0.0
C70 C 0.62161 0.41759 0.41857 0.0
C71 C 0.70383 0.45797 0.37185 0.0
C72 C 0.70608 0.33054 0.425 0.0
C73 C 0.67258 0.3768 0.32413 0.0
C74 C 0.59804 0.32987 0.3697 0.0
C75 C 0.68596 0.24926 0.37656 0.0
O76 O 0.63196 0.43915 0.40154 0.0
O77 O 0.71605 0.42044 0.37695 0.0
O78 O 0.67975 0.33478 0.42813 0.0
O79 O 0.65044 0.39108 0.33399 0.0
O80 O 0.61348 0.30277 0.3813 0.0
O81 O 0.69573 0.27978 0.36313 0.0
O82 O 0.60403 0.37231 0.36663 0.0
O83 O 0.69486 0.36591 0.33499 0.0
O84 O 0.66978 0.25915 0.39328 0.0
O85 O 0.67775 0.46013 0.36683 0.0
O86 O 0.62199 0.37384 0.41999 0.0
O87 O 0.71743 0.33194 0.4051 0.0
Sc88 Sc 0.64252 0.58765 0.86648 0.0
Sc89 Sc 0.70099 0.66148 0.86907 0.0
Sc90 Sc 0.636 0.69772 0.89161 0.0
O91 O 0.65979 0.649 0.87567 0.0
C92 C 0.5932 0.65832 0.85433 0.0
C93 C 0.68109 0.61385 0.82328 0.0
C94 C 0.67501 0.76227 0.86164 0.0
C95 C 0.70338 0.5539 0.88037 0.0
C96 C 0.61445 0.6048 0.91544 0.0
C97 C 0.69393 0.70064 0.91939 0.0
O98 O 0.6058 0.61997 0.85204 0.0
O99 O 0.69608 0.64362 0.83364 0.0
O100 O 0.65139 0.75444 0.8711 0.0
O101 O 0.677 0.54724 0.8796 0.0
O102 O 0.61819 0.64815 0.91508 0.0
O103 O 0.70871 0.68034 0.90421 0.0
O104 O 0.62192 0.57854 0.89906 0.0
O105 O 0.71463 0.59265 0.8763 0.0
O106 O 0.66806 0.71032 0.91669 0.0
O107 O 0.66185 0.59047 0.8331 0.0
O108 O 0.60168 0.68971 0.86792 0.0
O109 O 0.69423 0.73215 0.86033 0.0
Sc110 Sc 0.35419 0.30989 0.40395 0.0
Sc111 Sc 0.29351 0.3426 0.3743 0.0
Sc112 Sc 0.35643 0.40142 0.3656 0.0
O113 O 0.33454 0.35134 0.38134 0.0
C114 C 0.38004 0.40921 0.41522 0.0
C115 C 0.29709 0.32738 0.42877 0.0
C116 C 0.29605 0.44941 0.37104 0.0
C117 C 0.31108 0.23959 0.38017 0.0
C118 C 0.40035 0.31817 0.3668 0.0
C119 C 0.32145 0.35935 0.32531 0.0
O120 O 0.37994 0.36549 0.41726 0.0
O121 O 0.28346 0.3304 0.40994 0.0
O122 O 0.32151 0.4491 0.3643 0.0
O123 O 0.3304 0.24878 0.39463 0.0
O124 O 0.39407 0.36027 0.36353 0.0
O125 O 0.29995 0.35219 0.33789 0.0
O126 O 0.38569 0.2915 0.3793 0.0
O127 O 0.29857 0.27055 0.36871 0.0
O128 O 0.34479 0.37412 0.33302 0.0
O129 O 0.32378 0.32578 0.42971 0.0
O130 O 0.36897 0.42977 0.39814 0.0
O131 O 0.28392 0.41386 0.37895 0.0
Sc132 Sc 0.63618 0.33811 0.07342 0.0
Sc133 Sc 0.69541 0.37012 0.10497 0.0
Sc134 Sc 0.63267 0.43032 0.11143 0.0
O135 O 0.65484 0.37959 0.09658 0.0
C136 C 0.61105 0.43729 0.061 0.0
C137 C 0.69453 0.3508 0.05067 0.0
C138 C 0.69366 0.47704 0.10594 0.0
C139 C 0.67704 0.26793 0.09987 0.0
C140 C 0.58817 0.34732 0.10917 0.0
C141 C 0.66652 0.39218 0.15317 0.0
O142 O 0.61153 0.39362 0.05878 0.0
O143 O 0.70703 0.35333 0.07002 0.0
O144 O 0.66808 0.47739 0.11249 0.0
O145 O 0.65927 0.27721 0.08414 0.0
O146 O 0.59475 0.38915 0.11314 0.0
O147 O 0.68816 0.38386 0.14097 0.0
O148 O 0.60321 0.32078 0.09693 0.0
O149 O 0.68852 0.29891 0.1121 0.0
O150 O 0.64319 0.40515 0.14473 0.0
O151 O 0.66796 0.35291 0.04863 0.0
O152 O 0.62112 0.45776 0.07851 0.0
O153 O 0.70581 0.4408 0.09883 0.0
Sc154 Sc 0.36002 0.6683 0.58386 0.0
Sc155 Sc 0.29617 0.63096 0.60797 0.0
Sc156 Sc 0.35597 0.55996 0.61119 0.0
O157 O 0.3374 0.61971 0.60102 0.0
C158 C 0.38232 0.5747 0.56134 0.0
C159 C 0.30153 0.66687 0.55682 0.0
C160 C 0.2952 0.52276 0.59843 0.0
C161 C 0.32093 0.73291 0.61368 0.0
C162 C 0.40404 0.63443 0.62137 0.0
C163 C 0.31825 0.58808 0.65451 0.0
O164 O 0.37829 0.61795 0.56125 0.0
O165 O 0.28733 0.64774 0.57275 0.0
O166 O 0.32163 0.51691 0.59975 0.0
O167 O 0.34414 0.72538 0.60356 0.0
O168 O 0.39259 0.59522 0.62423 0.0
O169 O 0.30211 0.61511 0.6435 0.0
O170 O 0.39462 0.66426 0.60738 0.0
O171 O 0.3021 0.70227 0.61593 0.0
O172 O 0.33792 0.5651 0.64507 0.0
O173 O 0.32741 0.67733 0.55883 0.0
O174 O 0.37545 0.54905 0.57818 0.0
O175 O 0.2835 0.56145 0.6015 0.0
Sc176 Sc 0.84588 0.93415 0.11168 0.0
Sc177 Sc 0.78336 0.86942 0.10805 0.0
Sc178 Sc 0.8469 0.82349 0.08701 0.0
O179 O 0.82533 0.87563 0.1023 0.0
C180 C 0.87249 0.9134 0.06277 0.0
C181 C 0.78677 0.97628 0.09645 0.0
C182 C 0.7901 0.82734 0.05801 0.0
C183 C 0.80607 0.91405 0.15447 0.0
C184 C 0.89131 0.85649 0.12405 0.0
C185 C 0.80348 0.76594 0.11701 0.0
O186 O 0.86481 0.94147 0.07834 0.0
O187 O 0.77355 0.93846 0.09782 0.0
O188 O 0.81575 0.81643 0.06078 0.0
O189 O 0.82801 0.93147 0.14542 0.0
O190 O 0.88023 0.82507 0.11185 0.0
O191 O 0.78633 0.79917 0.11893 0.0
O192 O 0.88182 0.89736 0.12472 0.0
O193 O 0.78805 0.89049 0.1433 0.0
O194 O 0.82698 0.76977 0.10677 0.0
O195 O 0.81289 0.97976 0.10066 0.0
O196 O 0.86865 0.87013 0.06424 0.0
O197 O 0.7755 0.84756 0.07332 0.0
Sc198 Sc 0.15198 0.06033 0.61196 0.0
Sc199 Sc 0.21058 0.13251 0.60823 0.0
Sc200 Sc 0.15315 0.14945 0.57253 0.0
O201 O 0.17208 0.1137 0.59763 0.0
C202 C 0.13144 0.0478 0.56184 0.0
C203 C 0.21595 0.02493 0.60969 0.0
C204 C 0.21265 0.1444 0.5533 0.0
C205 C 0.17983 0.10702 0.655 0.0
C206 C 0.10477 0.13875 0.60755 0.0
C207 C 0.1882 0.22884 0.59755 0.0
O208 O 0.1433 0.02941 0.57912 0.0
O209 O 0.22648 0.06388 0.60455 0.0
O210 O 0.18706 0.1334 0.54992 0.0
O211 O 0.15899 0.08739 0.6455 0.0
O212 O 0.1192 0.16611 0.59514 0.0
O213 O 0.19775 0.20268 0.61316 0.0
O214 O 0.11241 0.09747 0.61194 0.0
O215 O 0.20137 0.12066 0.64397 0.0
O216 O 0.17411 0.21355 0.58064 0.0
O217 O 0.18987 0.01921 0.61406 0.0
O218 O 0.12992 0.09121 0.55935 0.0
O219 O 0.22323 0.14837 0.57338 0.0
Sc220 Sc 0.84397 0.18064 0.90567 0.0
Sc221 Sc 0.78637 0.16031 0.8701 0.0
Sc222 Sc 0.84594 0.09027 0.86708 0.0
O223 O 0.82524 0.14352 0.88087 0.0
C224 C 0.89302 0.16907 0.8714 0.0
C225 C 0.80808 0.25821 0.87997 0.0
C226 C 0.81786 0.13421 0.8235 0.0
C227 C 0.78409 0.17395 0.92499 0.0
C228 C 0.86584 0.07965 0.9175 0.0
C229 C 0.78239 0.05247 0.86874 0.0
O230 O 0.87838 0.19693 0.88331 0.0
O231 O 0.7979 0.23127 0.86492 0.0
O232 O 0.83901 0.11625 0.83335 0.0
O233 O 0.81 0.1654 0.92841 0.0
O234 O 0.85437 0.06048 0.90024 0.0
O235 O 0.77121 0.09083 0.87404 0.0
O236 O 0.8671 0.12317 0.91965 0.0
O237 O 0.77329 0.17631 0.9049 0.0
O238 O 0.80857 0.0481 0.86461 0.0
O239 O 0.82299 0.24392 0.89662 0.0
O240 O 0.8853 0.12778 0.86722 0.0
O241 O 0.79608 0.14764 0.83432 0.0
Sc242 Sc 0.14537 0.90297 0.36795 0.0
Sc243 Sc 0.20788 0.83836 0.36969 0.0
Sc244 Sc 0.1449 0.79085 0.39119 0.0
O245 O 0.16606 0.84401 0.37622 0.0
C246 C 0.12049 0.87904 0.41737 0.0
C247 C 0.20464 0.94426 0.38344 0.0
C248 C 0.20307 0.79143 0.41865 0.0
C249 C 0.18449 0.88624 0.32435 0.0
C250 C 0.09926 0.82663 0.35552 0.0
C251 C 0.18664 0.73589 0.35885 0.0
O252 O 0.12658 0.90757 0.4015 0.0
O253 O 0.21798 0.90687 0.38077 0.0
O254 O 0.17747 0.78 0.41602 0.0
O255 O 0.16286 0.90342 0.33395 0.0
O256 O 0.10987 0.7952 0.36796 0.0
O257 O 0.20425 0.76875 0.35788 0.0
O258 O 0.10959 0.86691 0.35429 0.0
O259 O 0.20241 0.86156 0.33494 0.0
O260 O 0.16315 0.73925 0.36917 0.0
O261 O 0.17837 0.94766 0.37989 0.0
O262 O 0.12523 0.83605 0.41577 0.0
O263 O 0.21685 0.81442 0.40381 0.0
Sc264 Sc 0.13943 0.0769 0.86719 0.0
Sc265 Sc 0.1999 0.14401 0.87277 0.0
Sc266 Sc 0.14185 0.16458 0.90732 0.0
O267 O 0.16052 0.12824 0.88232 0.0
C268 C 0.09377 0.15767 0.87192 0.0
C269 C 0.16977 0.12219 0.82518 0.0
C270 C 0.17935 0.24195 0.88301 0.0
C271 C 0.20235 0.03662 0.86998 0.0
C272 C 0.11812 0.06389 0.91709 0.0
C273 C 0.20063 0.15448 0.92771 0.0
O274 O 0.10066 0.11617 0.8673 0.0
O275 O 0.19148 0.1329 0.8368 0.0
O276 O 0.1644 0.22761 0.89966 0.0
O277 O 0.17638 0.03346 0.86466 0.0
O278 O 0.11715 0.10731 0.91975 0.0
O279 O 0.21198 0.15856 0.90792 0.0
O280 O 0.12975 0.04536 0.89973 0.0
O281 O 0.21364 0.07409 0.87659 0.0
O282 O 0.17465 0.14552 0.93039 0.0
O283 O 0.14769 0.10519 0.83408 0.0
O284 O 0.10866 0.18402 0.8845 0.0
O285 O 0.1892 0.21511 0.8678 0.0
Sc286 Sc 0.85623 0.80652 0.39263 0.0
Sc287 Sc 0.79324 0.85318 0.37086 0.0
Sc288 Sc 0.85659 0.91522 0.36584 0.0
O289 O 0.83531 0.85823 0.37639 0.0
C290 C 0.88322 0.89729 0.41505 0.0
C291 C 0.79937 0.8123 0.42131 0.0
C292 C 0.7982 0.96007 0.38132 0.0
C293 C 0.81223 0.74911 0.36279 0.0
C294 C 0.90098 0.83517 0.35493 0.0
C295 C 0.81579 0.89576 0.3238 0.0
O296 O 0.87879 0.85406 0.41446 0.0
O297 O 0.78502 0.83131 0.40549 0.0
O298 O 0.82411 0.9625 0.37611 0.0
O299 O 0.83528 0.75242 0.37378 0.0
O300 O 0.892 0.87627 0.35346 0.0
O301 O 0.7974 0.8744 0.33562 0.0
O302 O 0.8895 0.8051 0.36772 0.0
O303 O 0.79573 0.78294 0.35986 0.0
O304 O 0.83865 0.91119 0.33217 0.0
O305 O 0.82518 0.80201 0.4191 0.0
O306 O 0.87574 0.92434 0.39898 0.0
O307 O 0.78457 0.9225 0.38124 0.0
Sc308 Sc 0.13253 0.80705 0.08747 0.0
Sc309 Sc 0.19761 0.84678 0.10849 0.0
Sc310 Sc 0.13804 0.91813 0.11184 0.0
O311 O 0.15604 0.8573 0.10266 0.0
C312 C 0.11042 0.89867 0.06288 0.0
C313 C 0.1897 0.80441 0.05875 0.0
C314 C 0.19842 0.95377 0.09623 0.0
C315 C 0.17275 0.74587 0.11812 0.0
C316 C 0.0896 0.8459 0.12464 0.0
C317 C 0.17764 0.89469 0.1546 0.0
O318 O 0.11385 0.85531 0.06392 0.0
O319 O 0.20459 0.82525 0.07367 0.0
O320 O 0.1722 0.95994 0.09901 0.0
O321 O 0.14916 0.75212 0.10836 0.0
O322 O 0.10146 0.88504 0.12613 0.0
O323 O 0.19377 0.86766 0.14358 0.0
O324 O 0.0986 0.8141 0.11157 0.0
O325 O 0.19164 0.77674 0.11901 0.0
O326 O 0.15687 0.91554 0.14551 0.0
O327 O 0.16392 0.79448 0.06178 0.0
O328 O 0.11801 0.92594 0.07887 0.0
O329 O 0.21024 0.91514 0.09921 0.0
Sc330 Sc 0.85749 0.16472 0.57412 0.0
Sc331 Sc 0.79689 0.1351 0.6048 0.0
Sc332 Sc 0.85784 0.06954 0.61045 0.0
O333 O 0.83725 0.12299 0.59637 0.0
C334 C 0.8803 0.06468 0.56022 0.0
C335 C 0.79894 0.15719 0.55068 0.0
C336 C 0.79568 0.0277 0.60437 0.0
C337 C 0.81814 0.23643 0.60092 0.0
C338 C 0.90455 0.14909 0.61018 0.0
C339 C 0.82506 0.10873 0.65278 0.0
O340 O 0.88072 0.10846 0.5587 0.0
O341 O 0.78609 0.15338 0.56985 0.0
O342 O 0.82136 0.02502 0.61041 0.0
O343 O 0.83622 0.22668 0.58554 0.0
O344 O 0.8967 0.10759 0.61325 0.0
O345 O 0.80382 0.12027 0.64075 0.0
O346 O 0.8906 0.17768 0.59823 0.0
O347 O 0.80535 0.20571 0.61242 0.0
O348 O 0.84763 0.09304 0.64413 0.0
O349 O 0.82554 0.15468 0.54884 0.0
O350 O 0.86929 0.04362 0.57718 0.0
O351 O 0.7843 0.06534 0.59831 0.0
H352 H 0.29691 0.18734 0.13142 0.0
H353 H 0.18699 0.03199 0.07135 0.0
H354 H 0.28358 0.20568 0.05857 0.0
H355 H 0.25073 0.96801 0.11346 0.0
H356 H 0.21628 0.10199 0.06936 0.0
H357 H 0.27427 0.11116 0.12885 0.0
C358 C 0.28959 0.17493 0.11489 0.0
C359 C 0.29236 0.20218 0.09513 0.0
C360 C 0.22386 0.07224 0.07875 0.0
C361 C 0.2657 0.1169 0.09228 0.0
C362 C 0.20723 0.03256 0.07993 0.0
C363 C 0.21659 0.99427 0.09247 0.0
C364 C 0.24938 0.0739 0.09088 0.0
C365 C 0.24291 -0.00332 0.10341 0.0
C366 C 0.27674 0.13176 0.11343 0.0
C367 C 0.28221 0.18512 0.07409 0.0
N368 N 0.25819 0.0362 0.10274 0.0
N369 N 0.2688 0.14379 0.07327 0.0
H370 H 0.73195 0.76163 0.64296 0.0
H371 H 0.74044 0.01646 0.59136 0.0
H372 H 0.66741 0.8195 0.5994 0.0
H373 H 0.80957 0.94508 0.62387 0.0
H374 H 0.7103 0.94967 0.59884 0.0
H375 H 0.75632 0.83549 0.64262 0.0
C376 C 0.72254 0.79018 0.63374 0.0
C377 C 0.69787 0.78407 0.62082 0.0
C378 C 0.73207 0.94877 0.60432 0.0
C379 C 0.72604 0.86848 0.61994 0.0
C380 C 0.74935 0.98672 0.59993 0.0
C381 C 0.77769 0.98634 0.60684 0.0
C382 C 0.74314 0.91035 0.61585 0.0
C383 C 0.78797 0.94693 0.61803 0.0
C384 C 0.73662 0.83226 0.63339 0.0
C385 C 0.68649 0.82251 0.60946 0.0
N386 N 0.77071 0.91063 0.6222 0.0
N387 N 0.70096 0.86295 0.60894 0.0
H388 H 0.26627 0.77072 0.83174 0.0
H389 H 0.25758 0.02564 0.88288 0.0
H390 H 0.32992 0.82891 0.87612 0.0
H391 H 0.18916 0.95528 0.84871 0.0
H392 H 0.28789 0.95935 0.87522 0.0
H393 H 0.2426 0.84511 0.83081 0.0
C394 C 0.27566 0.79946 0.84085 0.0
C395 C 0.29981 0.79332 0.85441 0.0
C396 C 0.26626 0.95858 0.86936 0.0
C397 C 0.27243 0.87832 0.85384 0.0
C398 C 0.24887 -0.00373 0.87383 0.0
C399 C 0.22064 -0.00408 0.86663 0.0
C400 C 0.25541 0.92039 0.85748 0.0
C401 C 0.21065 0.95699 0.85483 0.0
C402 C 0.26199 0.84185 0.84047 0.0
C403 C 0.31123 0.83196 0.86559 0.0
N404 N 0.228 0.92085 0.85066 0.0
N405 N 0.29712 0.87269 0.86543 0.0
H406 H 0.81511 0.04739 0.37047 0.0
H407 H 0.67194 0.17268 0.40207 0.0
H408 H 0.74459 0.97119 0.39808 0.0
H409 H 0.72882 0.21977 0.34896 0.0
H410 H 0.6993 0.10137 0.40508 0.0
H411 H 0.78573 0.11601 0.36872 0.0
C412 C 0.7936 0.0452 0.37655 0.0
C413 C 0.78224 0.00331 0.38425 0.0
C414 C 0.70548 0.12724 0.39263 0.0
C415 C 0.74844 0.08169 0.38198 0.0
C416 C 0.68982 0.16778 0.39077 0.0
C417 C 0.69819 0.20251 0.37535 0.0
C418 C 0.72982 0.12192 0.37924 0.0
C419 C 0.72157 0.1942 0.36117 0.0
C420 C 0.77676 0.08428 0.37527 0.0
C421 C 0.75414 0.00269 0.39184 0.0
N422 N 0.73678 0.15507 0.3637 0.0
N423 N 0.73812 0.04134 0.39045 0.0
H424 H 0.7956 0.97152 0.84754 0.0
H425 H 0.65351 0.84307 0.8788 0.0
H426 H 0.72707 0.04094 0.88186 0.0
H427 H 0.71576 0.78994 0.83172 0.0
H428 H 0.67714 0.91812 0.87774 0.0
H429 H 0.76506 0.90585 0.84068 0.0
C430 C 0.77414 0.97291 0.85378 0.0
C431 C 0.76401 0.01175 0.86551 0.0
C432 C 0.68523 0.89029 0.86725 0.0
C433 C 0.72863 0.93632 0.85747 0.0
C434 C 0.67158 0.84756 0.86766 0.0
C435 C 0.68299 0.80999 0.85564 0.0
C436 C 0.71044 0.89513 0.85483 0.0
C437 C 0.70653 0.81774 0.84158 0.0
C438 C 0.75657 0.93546 0.84963 0.0
C439 C 0.73582 0.01162 0.87285 0.0
N440 N 0.71974 0.85916 0.84189 0.0
N441 N 0.71915 0.97427 0.86889 0.0
H442 H 0.2599 0.9526 0.39705 0.0
H443 H 0.26803 0.20923 0.35309 0.0
H444 H 0.18697 0.03306 0.37829 0.0
H445 H 0.32671 0.16241 0.4049 0.0
H446 H 0.2428 0.13683 0.3564 0.0
H447 H 0.28838 0.02326 0.39639 0.0
C448 C 0.24978 0.9851 0.39315 0.0
C449 C 0.22102 0.98682 0.3875 0.0
C450 C 0.26128 0.14234 0.36697 0.0
C451 C 0.25355 0.06689 0.38617 0.0
C452 C 0.27593 0.18354 0.36497 0.0
C453 C 0.29941 0.19234 0.37898 0.0
C454 C 0.27027 0.10918 0.38285 0.0
C455 C 0.30863 0.15724 0.39386 0.0
C456 C 0.26607 0.02522 0.39273 0.0
C457 C 0.20903 0.02989 0.38267 0.0
N458 N 0.29393 0.11705 0.39549 0.0
N459 N 0.22545 0.06805 0.38176 0.0
H460 H 0.73332 0.98518 0.07894 0.0
H461 H 0.71671 0.23656 0.13001 0.0
H462 H 0.80208 0.06408 0.10753 0.0
H463 H 0.66455 0.19191 0.07326 0.0
H464 H 0.74284 0.16486 0.12745 0.0
H465 H 0.70373 0.05443 0.08034 0.0
C466 C 0.74231 0.01713 0.0852 0.0
C467 C 0.77021 0.01882 0.09321 0.0
C468 C 0.72556 0.17068 0.11566 0.0
C469 C 0.73634 0.09717 0.09544 0.0
C470 C 0.71039 0.21144 0.11721 0.0
C471 C 0.68858 0.22072 0.10158 0.0
C472 C 0.71875 0.13852 0.09856 0.0
C473 C 0.68132 0.18639 0.08556 0.0
C474 C 0.7254 0.05643 0.08605 0.0
C475 C 0.78077 0.0611 0.10111 0.0
N476 N 0.69652 0.14675 0.08435 0.0
N477 N 0.7637 0.09841 0.10233 0.0
H478 H 0.27312 0.02247 0.60281 0.0
H479 H 0.34505 0.81315 0.59834 0.0
H480 H 0.20274 0.93683 0.62266 0.0
H481 H 0.27812 0.76149 0.64151 0.0
H482 H 0.32349 0.88908 0.59928 0.0
H483 H 0.30448 0.95716 0.60851 0.0
C484 C 0.26418 0.98979 0.60811 0.0
C485 C 0.23512 0.98507 0.61196 0.0
C486 C 0.31393 0.8617 0.6092 0.0
C487 C 0.27097 0.9098 0.6183 0.0
C488 C 0.32634 0.81813 0.60869 0.0
C489 C 0.31312 0.78071 0.61954 0.0
C490 C 0.28818 0.86771 0.62075 0.0
C491 C 0.28881 0.78918 0.63256 0.0
C492 C 0.28217 0.95236 0.6113 0.0
C493 C 0.22489 0.94209 0.61921 0.0
N494 N 0.27686 0.83156 0.63244 0.0
N495 N 0.2428 0.90622 0.62211 0.0
H496 H 0.82532 0.68218 0.10424 0.0
H497 H 0.67803 0.55837 0.12613 0.0
H498 H 0.7566 0.74357 0.14197 0.0
H499 H 0.74868 0.49144 0.09343 0.0
H500 H 0.70775 0.62496 0.13399 0.0
H501 H 0.79984 0.6091 0.1039 0.0
C502 C 0.80524 0.68007 0.113 0.0
C503 C 0.79283 0.71942 0.12273 0.0
C504 C 0.71679 0.59568 0.12513 0.0
C505 C 0.7633 0.63617 0.12188 0.0
C506 C 0.69973 0.55775 0.12042 0.0
C507 C 0.71078 0.51924 0.10896 0.0
C508 C 0.74511 0.59535 0.11824 0.0
C509 C 0.73917 0.52039 0.10222 0.0
C510 C 0.79056 0.63839 0.11258 0.0
C511 C 0.76678 0.71441 0.13388 0.0
N512 N 0.75533 0.55788 0.10691 0.0
N513 N 0.75268 0.67381 0.1328 0.0
H514 H 0.24434 0.50942 0.61844 0.0
H515 H 0.20774 0.27236 0.55959 0.0
H516 H 0.30449 0.44385 0.57347 0.0
H517 H 0.19507 0.29105 0.63253 0.0
H518 H 0.23264 0.34641 0.55813 0.0
H519 H 0.21534 0.43963 0.6173 0.0
C520 C 0.2512 0.48058 0.60801 0.0
C521 C 0.2768 0.48222 0.59598 0.0
C522 C 0.224 0.33445 0.57433 0.0
C523 C 0.24362 0.40316 0.59445 0.0
C524 C 0.20958 0.29268 0.57517 0.0
C525 C 0.19918 0.27607 0.59622 0.0
C526 C 0.22731 0.36014 0.59453 0.0
C527 C 0.2027 0.30299 0.61601 0.0
C528 C 0.23476 0.44088 0.60754 0.0
C529 C 0.28491 0.44375 0.58301 0.0
N530 N 0.21636 0.34408 0.61467 0.0
N531 N 0.26821 0.40567 0.58244 0.0
H532 H 0.75319 0.5397 0.85878 0.0
H533 H 0.79213 0.30457 0.91816 0.0
H534 H 0.6956 0.47656 0.90684 0.0
H535 H 0.79844 0.31838 0.84438 0.0
H536 H 0.76829 0.37932 0.91991 0.0
H537 H 0.78171 0.4694 0.85923 0.0
C538 C 0.74687 0.51137 0.86979 0.0
C539 C 0.72207 0.5138 0.88287 0.0
C540 C 0.7753 0.36614 0.90344 0.0
C541 C 0.75468 0.43415 0.88356 0.0
C542 C 0.7891 0.32391 0.90239 0.0
C543 C 0.79741 0.30568 0.88107 0.0
C544 C 0.77051 0.39072 0.88311 0.0
C545 C 0.79242 0.33151 0.86111 0.0
C546 C 0.763 0.47135 0.86984 0.0
C547 C 0.71457 0.4759 0.89652 0.0
N548 N 0.7794 0.37312 0.86262 0.0
N549 N 0.73098 0.43754 0.89665 0.0
H550 H 0.31145 0.52908 0.34901 0.0
H551 H 0.16383 0.6517 0.36968 0.0
H552 H 0.24117 0.46434 0.38347 0.0
H553 H 0.23333 0.71463 0.33345 0.0
H554 H 0.18909 0.57863 0.3695 0.0
H555 H 0.28148 0.59465 0.33985 0.0
C556 C 0.2898 0.52876 0.35484 0.0
C557 C 0.27893 0.49122 0.36722 0.0
C558 C 0.1986 0.60825 0.36123 0.0
C559 C 0.24432 0.56599 0.35642 0.0
C560 C 0.18403 0.64994 0.36109 0.0
C561 C 0.19679 0.68972 0.3521 0.0
C562 C 0.22609 0.60649 0.35238 0.0
C563 C 0.22294 0.68511 0.34106 0.0
C564 C 0.2726 0.56605 0.34937 0.0
C565 C 0.25056 0.49259 0.37402 0.0
N566 N 0.23697 0.64449 0.34192 0.0
N567 N 0.23429 0.52943 0.3686 0.0
H568 H 0.29405 0.46157 0.90984 0.0
H569 H 0.18722 0.30151 0.84713 0.0
H570 H 0.23531 0.51994 0.86128 0.0
H571 H 0.19729 0.2886 0.92064 0.0
H572 H 0.2108 0.37696 0.84884 0.0
H573 H 0.26477 0.39152 0.91151 0.0
C574 C 0.27494 0.45974 0.89972 0.0
C575 C 0.26696 0.49651 0.88551 0.0
C576 C 0.20745 0.35771 0.86458 0.0
C577 C 0.23419 0.41683 0.88683 0.0
C578 C 0.19406 0.31494 0.86361 0.0
C579 C 0.19006 0.28942 0.8838 0.0
C580 C 0.21774 0.37393 0.88573 0.0
C581 C 0.19959 0.3078 0.90476 0.0
C582 C 0.25829 0.42005 0.90072 0.0
C583 C 0.24205 0.4925 0.87263 0.0
N584 N 0.21347 0.34872 0.90516 0.0
N585 N 0.22677 0.45302 0.8733 0.0
H586 H 0.76624 0.72753 0.33656 0.0
H587 H 0.75906 0.4697 0.38425 0.0
H588 H 0.83244 0.66504 0.37677 0.0
H589 H 0.68887 0.54145 0.35352 0.0
H590 H 0.78862 0.53711 0.37729 0.0
H591 H 0.74111 0.65434 0.3366 0.0
C592 C 0.77582 0.69818 0.34499 0.0
C593 C 0.80127 0.70278 0.35708 0.0
C594 C 0.76675 0.53805 0.37208 0.0
C595 C 0.77227 0.61904 0.35752 0.0
C596 C 0.74978 0.49968 0.37616 0.0
C597 C 0.72133 0.49993 0.36959 0.0
C598 C 0.75527 0.57692 0.36124 0.0
C599 C 0.71059 0.53974 0.35907 0.0
C600 C 0.76131 0.65647 0.34516 0.0
C601 C 0.81278 0.66331 0.36741 0.0
N602 N 0.72758 0.57658 0.35521 0.0
N603 N 0.79796 0.62324 0.36771 0.0
H604 H 0.2909 0.53302 0.13709 0.0
H605 H 0.14971 0.66355 0.10438 0.0
H606 H 0.22289 0.468 0.0999 0.0
H607 H 0.21534 0.72102 0.14703 0.0
H608 H 0.17252 0.58826 0.107 0.0
H609 H 0.261 0.5994 0.14401 0.0
C610 C 0.26969 0.53272 0.13027 0.0
C611 C 0.25955 0.49502 0.11761 0.0
C612 C 0.1816 0.61717 0.11616 0.0
C613 C 0.22496 0.5712 0.12568 0.0
C614 C 0.16843 0.66011 0.11486 0.0
C615 C 0.18097 0.69884 0.12511 0.0
C616 C 0.20744 0.61318 0.12774 0.0
C617 C 0.20524 0.69228 0.13846 0.0
C618 C 0.2525 0.57058 0.13443 0.0
C619 C 0.23168 0.49645 0.10958 0.0
N620 N 0.21793 0.6505 0.13906 0.0
N621 N 0.21542 0.53414 0.11357 0.0
H622 H 0.83381 0.31275 0.57564 0.0
H623 H 0.691 0.43814 0.6047 0.0
H624 H 0.77731 0.26882 0.6297 0.0
H625 H 0.76276 0.51838 0.5826 0.0
H626 H 0.7209 0.37029 0.60673 0.0
H627 H 0.80773 0.38557 0.57303 0.0
C628 C 0.81636 0.31866 0.58726 0.0
C629 C 0.80752 0.28421 0.60269 0.0
C630 C 0.73005 0.40275 0.60133 0.0
C631 C 0.77737 0.36638 0.59922 0.0
C632 C 0.71293 0.44143 0.59989 0.0
C633 C 0.72442 0.48421 0.59367 0.0
C634 C 0.75879 0.40654 0.59622 0.0
C635 C 0.75309 0.48614 0.58766 0.0
C636 C 0.80144 0.36004 0.58563 0.0
C637 C 0.78476 0.29391 0.61732 0.0
N638 N 0.76939 0.44775 0.58912 0.0
N639 N 0.7702 0.3337 0.61493 0.0
H640 H 0.35345 0.52558 0.06098 0.0
H641 H 0.39373 0.51455 0.92923 0.0
H642 H 0.39401 0.40899 0.02889 0.0
H643 H 0.36636 0.63955 0.96268 0.0
H644 H 0.40041 0.47916 0.96685 0.0
H645 H 0.3642 0.5718 0.02687 0.0
C646 C 0.36504 0.50991 0.04697 0.0
C647 C 0.37226 0.46304 0.04759 0.0
C648 C 0.39338 0.5146 0.96603 0.0
C649 C 0.38442 0.51555 0.00852 0.0
C650 C 0.38955 0.5348 0.94451 0.0
C651 C 0.37905 0.57979 0.94281 0.0
C652 C 0.38617 0.53925 0.98599 0.0
C653 C 0.37432 0.60463 0.96319 0.0
C654 C 0.37116 0.53631 0.02749 0.0
C655 C 0.38746 0.4447 0.029 0.0
N656 N 0.37738 0.58371 0.98396 0.0
N657 N 0.39264 0.47078 0.01011 0.0
H658 H 0.59817 0.38427 0.45833 0.0
H659 H 0.61149 0.62643 0.52139 0.0
H660 H 0.62013 0.51151 0.42408 0.0
H661 H 0.60342 0.49567 0.55635 0.0
H662 H 0.6019 0.58783 0.48491 0.0
H663 H 0.5875 0.42775 0.49311 0.0
C664 C 0.60041 0.42141 0.45798 0.0
C665 C 0.61073 0.44414 0.43838 0.0
C666 C 0.60177 0.56776 0.50063 0.0
C667 C 0.59861 0.49405 0.47824 0.0
C668 C 0.60715 0.58978 0.5215 0.0
C669 C 0.60893 0.56405 0.54192 0.0
C670 C 0.59814 0.51976 0.5002 0.0
C671 C 0.60285 0.51675 0.54098 0.0
C672 C 0.59429 0.44621 0.47788 0.0
C673 C 0.61272 0.49241 0.4389 0.0
N674 N 0.59814 0.49602 0.52041 0.0
N675 N 0.60714 0.5157 0.45864 0.0
H676 H 0.60982 0.53159 0.05688 0.0
H677 H 0.5955 0.51644 0.92134 0.0
H678 H 0.58963 0.40659 0.01998 0.0
H679 H 0.60865 0.64398 0.95812 0.0
H680 H 0.58532 0.47816 0.95772 0.0
H681 H 0.60146 0.57559 0.02175 0.0
C682 C 0.60319 0.51342 0.04153 0.0
C683 C 0.60105 0.46515 0.0413 0.0
C684 C 0.59002 0.51468 0.95784 0.0
C685 C 0.59169 0.51534 0.00097 0.0
C686 C 0.59588 0.53657 0.93703 0.0
C687 C 0.60348 0.58331 0.9367 0.0
C688 C 0.59213 0.53951 0.97851 0.0
C689 C 0.60319 0.60778 0.95756 0.0
C690 C 0.59843 0.53861 0.02145 0.0
C691 C 0.59205 0.44364 0.02093 0.0
N692 N 0.59812 0.58539 0.97767 0.0
N693 N 0.58815 0.4688 0.00151 0.0
H694 H 0.39864 0.48496 0.55485 0.0
H695 H 0.38109 0.50346 0.41995 0.0
H696 H 0.38916 0.61431 0.51889 0.0
H697 H 0.40356 0.37775 0.45526 0.0
H698 H 0.39089 0.54652 0.45514 0.0
H699 H 0.4074 0.44692 0.51814 0.0
C700 C 0.3988 0.50552 0.53929 0.0
C701 C 0.39261 0.55277 0.53995 0.0
C702 C 0.39413 0.5096 0.45507 0.0
C703 C 0.40231 0.5093 0.49779 0.0
C704 C 0.38854 0.48496 0.43495 0.0
C705 C 0.3909 0.43675 0.43475 0.0
C706 C 0.40186 0.4858 0.47516 0.0
C707 C 0.40093 0.41477 0.45467 0.0
C708 C 0.40385 0.48377 0.5183 0.0
C709 C 0.3935 0.57771 0.51923 0.0
N710 N 0.40557 0.43937 0.47416 0.0
N711 N 0.39772 0.55552 0.49895 0.0
H712 H 0.89583 0.10821 0.95502 0.0
H713 H 0.87577 0.86998 0.02097 0.0
H714 H 0.86036 0.98609 0.92386 0.0
H715 H 0.8921 0.00048 0.05416 0.0
H716 H 0.88293 0.90673 0.9836 0.0
H717 H 0.90709 0.06352 0.98923 0.0
C718 C 0.89066 0.07185 0.95523 0.0
C719 C 0.87651 0.05112 0.93669 0.0
C720 C 0.88544 0.92707 -0.0009 0.0
C721 C 0.88939 -0.00021 0.97595 0.0
C722 C 0.88152 0.9061 0.02047 0.0
C723 C 0.88281 0.93244 0.04074 0.0
C724 C 0.89083 0.97456 -0.00197 0.0
C725 C 0.8904 0.97904 0.03898 0.0
C726 C 0.89715 0.04636 0.9748 0.0
C727 C 0.87089 0.00367 0.93785 0.0
N728 N 0.89377 -0.00126 0.01798 0.0
N729 N 0.87699 0.97971 0.95733 0.0
H730 H 0.12118 0.83617 0.45941 0.0
H731 H 0.09946 0.07418 0.52507 0.0
H732 H 0.09894 0.96451 0.4265 0.0
H733 H 0.13824 0.95445 0.55574 0.0
H734 H 0.08739 0.02826 0.49145 0.0
H735 H 0.11538 0.87303 0.49691 0.0
C736 C 0.11442 0.87178 0.46004 0.0
C737 C 0.11106 0.89758 0.43976 0.0
C738 C 0.09825 0.01187 0.50564 0.0
C739 C 0.10461 0.93986 0.48259 0.0
C740 C 0.10521 0.03808 0.52487 0.0
C741 C 0.12047 0.0184 0.54308 0.0
C742 C 0.1067 0.96565 0.50448 0.0
C743 C 0.12681 0.97122 0.54198 0.0
C744 C 0.11128 0.89283 0.48147 0.0
C745 C 0.10225 0.94354 0.44167 0.0
N746 N 0.12025 0.94656 0.52282 0.0
N747 N 0.09968 0.96336 0.46271 0.0
H748 H 0.09075 0.98597 0.05515 0.0
H749 H 0.12238 0.96985 0.92215 0.0
H750 H 0.10808 0.8574 0.02055 0.0
H751 H 0.0891 0.0914 0.95527 0.0
H752 H 0.11119 0.9253 0.95668 0.0
H753 H 0.08365 0.02255 0.01785 0.0
C754 C 0.0926 0.96524 0.03972 0.0
C755 C 0.10051 0.91878 0.04098 0.0
C756 C 0.10591 0.96157 0.95622 0.0
C757 C 0.09288 0.9606 -0.00184 0.0
C758 C 0.11231 0.98704 0.9365 0.0
C759 C 0.10727 0.03467 0.93598 0.0
C760 C 0.09462 0.98402 0.97556 0.0
C761 C 0.09394 0.05497 0.95502 0.0
C762 C 0.08852 0.98613 0.01839 0.0
C763 C 0.10225 0.89345 0.02041 0.0
N764 N 0.0885 0.0297 0.97414 0.0
N765 N 0.09903 0.91492 -0.00019 0.0
H766 H 0.89027 0.85544 0.45701 0.0
H767 H 0.90524 0.09689 0.52084 0.0
H768 H 0.90079 0.98608 0.42238 0.0
H769 H 0.87976 0.9707 0.55441 0.0
H770 H 0.91576 0.05317 0.48612 0.0
H771 H 0.89878 0.89374 0.49376 0.0
C772 C 0.89496 0.89198 0.45703 0.0
C773 C 0.89422 0.91776 0.43657 0.0
C774 C 0.90822 0.03497 0.50118 0.0
C775 C 0.90375 0.96173 0.47863 0.0
C776 C 0.90219 0.0599 0.52106 0.0
C777 C 0.89099 0.03761 0.54048 0.0
C778 C 0.90296 0.98739 0.50064 0.0
C779 C 0.88793 0.98949 0.53977 0.0
C780 C 0.89969 0.91383 0.47807 0.0
C781 C 0.90062 0.96495 0.43773 0.0
N782 N 0.8935 0.96607 0.52004 0.0
N783 N 0.90473 0.98552 0.45844 0.0
H784 H 0.41987 0.26635 0.09193 0.0
H785 H 0.55568 0.38268 0.14362 0.0
H786 H 0.4195 0.37279 0.14384 0.0
H787 H 0.55762 0.27425 0.09277 0.0
H788 H 0.50644 0.36497 0.15115 0.0
H789 H 0.46999 0.25421 0.09914 0.0
C790 C 0.43018 0.28648 0.10518 0.0
C791 C 0.41577 0.32166 0.11679 0.0
C792 C 0.51771 0.34447 0.1386 0.0
C793 C 0.47295 0.3082 0.125 0.0
C794 C 0.54583 0.35469 0.13426 0.0
C795 C 0.56049 0.33078 0.11708 0.0
C796 C 0.50402 0.31074 0.12534 0.0
C797 C 0.54692 0.29409 0.10589 0.0
C798 C 0.4588 0.27958 0.10927 0.0
C799 C 0.43003 0.34625 0.13399 0.0
N800 N 0.51921 0.28587 0.10984 0.0
N801 N 0.45795 0.33963 0.13728 0.0
H802 H 0.57059 0.72302 0.6234 0.0
H803 H 0.43493 0.57708 0.64921 0.0
H804 H 0.57112 0.58445 0.65057 0.0
H805 H 0.43479 0.7143 0.62036 0.0
H806 H 0.48369 0.58831 0.66099 0.0
H807 H 0.52107 0.72948 0.63371 0.0
C808 C 0.56049 0.69425 0.63196 0.0
C809 C 0.57476 0.65246 0.63529 0.0
C810 C 0.47282 0.6163 0.65248 0.0
C811 C 0.51799 0.65948 0.64686 0.0
C812 C 0.44494 0.60989 0.6457 0.0
C813 C 0.43106 0.64416 0.63301 0.0
C814 C 0.48691 0.65707 0.64632 0.0
C815 C 0.44493 0.68633 0.62947 0.0
C816 C 0.53216 0.69797 0.63785 0.0
C817 C 0.56074 0.61685 0.647 0.0
N818 N 0.47228 0.69122 0.63564 0.0
N819 N 0.53293 0.62076 0.65185 0.0
H820 H 0.56338 0.59514 0.82894 0.0
H821 H 0.42306 0.72975 0.85561 0.0
H822 H 0.55953 0.73493 0.8543 0.0
H823 H 0.42692 0.58643 0.83579 0.0
H824 H 0.47191 0.73903 0.84378 0.0
H825 H 0.51341 0.59904 0.81972 0.0
C826 C 0.55223 0.62703 0.83212 0.0
C827 C 0.56547 0.66421 0.84319 0.0
C828 C 0.46193 0.70573 0.84164 0.0
C829 C 0.50822 0.66865 0.83285 0.0
C830 C 0.43402 0.70035 0.84845 0.0
C831 C 0.42112 0.65685 0.8474 0.0
C832 C 0.47714 0.66725 0.83396 0.0
C833 C 0.43618 0.62036 0.83743 0.0
C834 C 0.52363 0.62918 0.82687 0.0
C835 C 0.55002 0.70491 0.84641 0.0
N836 N 0.4636 0.62616 0.83154 0.0
N837 N 0.52207 0.70569 0.84173 0.0
H838 H 0.56994 0.25121 0.38229 0.0
H839 H 0.4298 0.352 0.33033 0.0
H840 H 0.5644 0.36895 0.33706 0.0
H841 H 0.43295 0.24766 0.3832 0.0
H842 H 0.47948 0.33892 0.32236 0.0
H843 H 0.5213 0.23156 0.37284 0.0
C844 C 0.55869 0.27245 0.37005 0.0
C845 C 0.57086 0.31269 0.36103 0.0
C846 C 0.46921 0.31819 0.3354 0.0
C847 C 0.51542 0.29033 0.35017 0.0
C848 C 0.44087 0.32569 0.33997 0.0
C849 C 0.42762 0.30201 0.358 0.0
C850 C 0.48444 0.28748 0.34927 0.0
C851 C 0.44261 0.26737 0.36949 0.0
C852 C 0.53094 0.26115 0.36464 0.0
C853 C 0.55551 0.33844 0.34497 0.0
N854 N 0.47052 0.26195 0.36534 0.0
N855 N 0.52841 0.32725 0.34034 0.0
H856 H 0.91968 0.77429 0.12615 0.0
H857 H 0.06078 0.90707 0.15187 0.0
H858 H 0.92463 0.91594 0.14868 0.0
H859 H 0.05585 0.76916 0.12415 0.0
H860 H 0.01134 0.90197 0.16269 0.0
H861 H 0.96867 0.76367 0.13729 0.0
C862 C 0.93087 0.80297 0.13383 0.0
C863 C 0.9183 0.84657 0.13569 0.0
C864 C 0.02123 0.87247 0.15465 0.0
C865 C 0.97446 0.83466 0.14829 0.0
C866 C 0.04951 0.87534 0.14845 0.0
C867 C 0.06225 0.83912 0.1363 0.0
C868 C 0.00557 0.8333 0.14849 0.0
C869 C 0.04671 0.7985 0.13288 0.0
C870 C 0.95888 0.79684 0.14022 0.0
C871 C 0.93366 0.88205 0.14631 0.0
N872 N 0.01901 0.79708 0.13847 0.0
N873 N 0.96115 0.8756 0.15173 0.0
H874 H 0.93517 0.10808 0.64416 0.0
H875 H 0.07521 0.21579 0.59476 0.0
H876 H 0.93777 0.22053 0.59553 0.0
H877 H 0.07096 0.09672 0.63926 0.0
H878 H 0.02608 0.23251 0.60365 0.0
H879 H 0.98515 0.11907 0.65163 0.0
C880 C 0.94619 0.1356 0.63532 0.0
C881 C 0.93258 0.16246 0.61865 0.0
C882 C 0.03606 0.2032 0.61177 0.0
C883 C 0.98979 0.17477 0.62685 0.0
C884 C 0.06411 0.19356 0.60669 0.0
C885 C 0.07691 0.15392 0.61571 0.0
C886 C 0.02081 0.17288 0.6259 0.0
C887 C 0.06168 0.12688 0.63137 0.0
C888 C 0.97472 0.14192 0.63962 0.0
C889 C 0.94762 0.19843 0.60819 0.0
N890 N 0.03428 0.13644 0.63567 0.0
N891 N 0.97566 0.20285 0.61206 0.0
H892 H 0.06158 0.12287 0.83716 0.0
H893 H 0.92524 0.24073 0.88748 0.0
H894 H 0.06284 0.22975 0.88884 0.0
H895 H 0.92538 0.1294 0.83818 0.0
H896 H 0.97542 0.25244 0.8803 0.0
H897 H 0.01239 0.14037 0.82944 0.0
C898 C 0.05158 0.15044 0.84669 0.0
C899 C 0.06601 0.17395 0.86415 0.0
C900 C 0.96432 0.22605 0.87073 0.0
C901 C 0.00966 0.19381 0.85562 0.0
C902 C 0.93567 0.21939 0.8748 0.0
C903 C 0.92139 0.18308 0.86393 0.0
C904 C 0.97861 0.19612 0.85576 0.0
C905 C 0.93582 0.1569 0.84745 0.0
C906 C 0.0235 0.16054 0.84223 0.0
C907 C 0.0523 0.21019 0.87552 0.0
N908 N 0.96375 0.16343 0.84416 0.0
N909 N 0.02463 0.21835 0.87141 0.0
H910 H 0.07024 0.88332 0.32618 0.0
H911 H 0.92953 0.75302 0.35596 0.0
H912 H 0.06582 0.74977 0.35884 0.0
H913 H 0.93415 0.89083 0.32807 0.0
H914 H 0.97866 0.74125 0.34553 0.0
H915 H 0.02093 0.87596 0.31532 0.0
C916 C 0.05908 0.85205 0.33073 0.0
C917 C 0.07193 0.81783 0.34418 0.0
C918 C 0.96876 0.77375 0.34127 0.0
C919 C 0.0154 0.80944 0.33195 0.0
C920 C 0.94066 0.78053 0.34723 0.0
C921 C 0.92796 0.82361 0.34366 0.0
C922 C 0.98428 0.8104 0.33188 0.0
C923 C 0.94328 0.8575 0.33178 0.0
C924 C 0.03089 0.84786 0.32448 0.0
C925 C 0.05659 0.7776 0.34901 0.0
N926 N 0.97084 0.85053 0.32678 0.0
N927 N 0.02893 0.77497 0.34335 0.0
H928 H 0.29727 0.34346 0.00828 0.0
H929 H 0.1845 0.15272 0.9729 0.0
H930 H 0.22904 0.29875 0.05219 0.0
H931 H 0.25073 0.20078 0.92784 0.0
H932 H 0.20206 0.20372 0.00289 0.0
H933 H 0.27919 0.29405 0.97782 0.0
C934 C 0.27812 0.32411 0.01136 0.0
C935 C 0.26503 0.32443 0.03301 0.0
C936 C 0.21288 0.2028 0.98649 0.0
C937 C 0.24475 0.26705 -0.00151 0.0
C938 C 0.2031 0.17322 0.96946 0.0
C939 C 0.21584 0.17311 0.94768 0.0
C940 C 0.23552 0.23233 0.98166 0.0
C941 C 0.24005 0.20003 0.94429 0.0
C942 C 0.26803 0.29546 -0.00595 0.0
C943 C 0.24008 0.29914 0.03589 0.0
N944 N 0.24887 0.22912 0.96103 0.0
N945 N 0.23101 0.27079 0.01893 0.0
H946 H 0.74307 0.8173 0.43122 0.0
H947 H 0.75841 0.66854 0.5461 0.0
H948 H 0.82262 0.77183 0.45924 0.0
H949 H 0.6789 0.71858 0.52001 0.0
H950 H 0.78212 0.7045 0.5136 0.0
H951 H 0.71909 0.78223 0.46392 0.0
C952 C 0.75554 0.80042 0.44435 0.0
C953 C 0.78488 0.79712 0.44237 0.0
C954 C 0.75947 0.70746 0.51496 0.0
C955 C 0.75755 0.75647 0.47958 0.0
C956 C 0.74588 0.68666 0.53343 0.0
C957 C 0.71663 0.69082 0.53588 0.0
C958 C 0.7437 0.73253 0.49884 0.0
C959 C 0.70151 0.7147 0.51891 0.0
C960 C 0.7418 0.78017 0.46293 0.0
C961 C 0.79994 0.7749 0.45993 0.0
N962 N 0.71527 0.73489 0.50114 0.0
N963 N 0.78606 0.75514 0.47773 0.0
H964 H 0.1652 0.76093 0.02199 0.0
H965 H 0.31144 0.7256 0.95724 0.0
H966 H 0.24514 0.81199 0.04681 0.0
H967 H 0.23167 0.68224 0.92869 0.0
H968 H 0.2871 0.75493 -0.0092 0.0
H969 H 0.18881 0.7308 0.98793 0.0
C970 C 0.18768 0.76602 0.02025 0.0
C971 C 0.20326 0.78886 0.03735 0.0
C972 C 0.27487 0.739 0.97723 0.0
C973 C 0.23029 0.75425 -0.00148 0.0
C974 C 0.28876 0.72213 0.95803 0.0
C975 C 0.27353 0.70169 0.94002 0.0
C976 C 0.2455 0.73547 0.97854 0.0
C977 C 0.24422 0.6978 0.94216 0.0
C978 C 0.20112 0.74873 0.00081 0.0
C979 C 0.23228 0.79456 0.03412 0.0
N980 N 0.2311 0.71476 0.9611 0.0
N981 N 0.24486 0.77719 0.01511 0.0
H982 H 0.74424 0.18632 0.54929 0.0
H983 H 0.75986 0.29672 0.4242 0.0
H984 H 0.81808 0.16956 0.50666 0.0
H985 H 0.69014 0.3234 0.47007 0.0
H986 H 0.78194 0.25058 0.45419 0.0
H987 H 0.72283 0.23252 0.51908 0.0
C988 C 0.75575 0.1915 0.53341 0.0
C989 C 0.78318 0.17454 0.53065 0.0
C990 C 0.76194 0.26693 0.45775 0.0
C991 C 0.75902 0.22833 0.49625 0.0
C992 C 0.74946 0.29377 0.44072 0.0
C993 C 0.72288 0.31342 0.4445 0.0
C994 C 0.74772 0.25974 0.47861 0.0
C995 C 0.71046 0.3084 0.46628 0.0
C996 C 0.74364 0.21844 0.51628 0.0
C997 C 0.79701 0.18238 0.50965 0.0
N998 N 0.72284 0.28155 0.48242 0.0
N999 N 0.78488 0.20916 0.49332 0.0
H1000 H 0.81496 0.79113 0.01972 0.0
H1001 H 0.66909 0.73945 0.95708 0.0
H1002 H 0.73394 0.82956 0.04753 0.0
H1003 H 0.7501 0.69925 0.92987 0.0
H1004 H 0.69252 0.77268 -0.00963 0.0
H1005 H 0.79153 0.75931 0.9861 0.0
C1006 C 0.79224 0.79315 0.01871 0.0
C1007 C 0.77634 0.81269 0.03657 0.0
C1008 C 0.70516 0.75648 0.97714 0.0
C1009 C 0.74945 0.77602 -0.00182 0.0
C1010 C 0.69181 0.73735 0.95815 0.0
C1011 C 0.70769 0.71674 0.94058 0.0
C1012 C 0.73459 0.75505 0.97858 0.0
C1013 C 0.73702 0.71482 0.94298 0.0
C1014 C 0.77888 0.77484 -0.00048 0.0
C1015 C 0.74701 0.81471 0.03421 0.0
N1016 N 0.74956 0.73397 0.96162 0.0
N1017 N 0.73447 0.79629 0.01538 0.0
H1018 H 0.26488 0.18409 0.5542 0.0
H1019 H 0.24143 0.30455 0.43257 0.0
H1020 H 0.19491 0.15518 0.50883 0.0
H1021 H 0.31762 0.31927 0.47257 0.0
H1022 H 0.22105 0.25908 0.46353 0.0
H1023 H 0.28349 0.2376 0.52578 0.0
C1024 C 0.25372 0.18815 0.53807 0.0
C1025 C 0.22806 0.1655 0.53404 0.0
C1026 C 0.24212 0.27271 0.46562 0.0
C1027 C 0.24892 0.22755 0.50178 0.0
C1028 C 0.25365 0.29927 0.44808 0.0
C1029 C 0.2816 0.31452 0.4497 0.0
C1030 C 0.25865 0.26162 0.48483 0.0
C1031 C 0.29622 0.30717 0.47037 0.0
C1032 C 0.26419 0.21922 0.52199 0.0
C1033 C 0.21463 0.17214 0.51279 0.0
N1034 N 0.28474 0.28042 0.487 0.0
N1035 N 0.22508 0.20301 0.49755 0.0
H1036 H 0.74882 0.31967 0.04958 0.0
H1037 H 0.73152 0.21234 0.92402 0.0
H1038 H 0.67642 0.34325 0.00613 0.0
H1039 H 0.80015 0.18013 0.97012 0.0
H1040 H 0.71098 0.26085 0.95374 0.0
H1041 H 0.76981 0.27364 0.0191 0.0
C1042 C 0.73759 0.3161 0.03345 0.0
C1043 C 0.71058 0.33468 0.03056 0.0
C1044 C 0.7304 0.24281 0.9574 0.0
C1045 C 0.7342 0.2811 -0.00411 0.0
C1046 C 0.74199 0.21459 0.94054 0.0
C1047 C 0.76783 0.19255 0.94445 0.0
C1048 C 0.74475 0.24896 0.97828 0.0
C1049 C 0.78036 0.19682 0.96623 0.0
C1050 C 0.74944 0.28925 0.01617 0.0
C1051 C 0.69711 0.32899 0.00924 0.0
N1052 N 0.76884 0.22499 0.98225 0.0
N1053 N 0.70893 0.30216 -0.0072 0.0
H1054 H 0.25909 0.79932 0.42904 0.0
H1055 H 0.24559 0.65744 0.54631 0.0
H1056 H 0.18065 0.74469 0.45515 0.0
H1057 H 0.32434 0.70813 0.51887 0.0
H1058 H 0.22149 0.6876 0.51249 0.0
H1059 H 0.28337 0.76623 0.46204 0.0
C1060 C 0.24693 0.78065 0.44177 0.0
C1061 C 0.2178 0.7747 0.43929 0.0
C1062 C 0.24407 0.69191 0.51386 0.0
C1063 C 0.24549 0.73644 0.47695 0.0
C1064 C 0.25786 0.67456 0.53312 0.0
C1065 C 0.287 0.6806 0.53553 0.0
C1066 C 0.25953 0.7155 0.49696 0.0
C1067 C 0.30182 0.70295 0.51785 0.0
C1068 C 0.26084 0.76155 0.46054 0.0
C1069 C 0.20315 0.75004 0.4563 0.0
N1070 N 0.28787 0.71983 0.49936 0.0
N1071 N 0.21719 0.73174 0.4744 0.0
H1072 H 0.26619 0.34649 0.18474 0.0
H1073 H 0.36462 0.34577 0.2955 0.0
H1074 H 0.35696 0.35556 0.18362 0.0
H1075 H 0.27384 0.35028 0.29912 0.0
H1076 H 0.36154 0.33515 0.25418 0.0
H1077 H 0.26807 0.33409 0.22638 0.0
C1078 C 0.28648 0.34549 0.19322 0.0
C1079 C 0.31143 0.35305 0.1809 0.0
C1080 C 0.34225 0.33825 0.26398 0.0
C1081 C 0.31369 0.33872 0.22811 0.0
C1082 C 0.344 0.34457 0.28756 0.0
C1083 C 0.31945 0.34998 0.3006 0.0
C1084 C 0.31577 0.33792 0.25332 0.0
C1085 C 0.29328 0.34685 0.28956 0.0
C1086 C 0.28752 0.33841 0.21692 0.0
C1087 C 0.33717 0.35096 0.19258 0.0
N1088 N 0.29211 0.34164 0.26639 0.0
N1089 N 0.3376 0.34433 0.21558 0.0
H1090 H 0.71887 0.65785 0.79521 0.0
H1091 H 0.663 0.52963 0.68322 0.0
H1092 H 0.65587 0.55019 0.79548 0.0
H1093 H 0.72395 0.64026 0.68169 0.0
H1094 H 0.66579 0.52887 0.72498 0.0
H1095 H 0.72605 0.64481 0.75419 0.0
C1096 C 0.7066 0.63139 0.78668 0.0
C1097 C 0.68641 0.60555 0.79871 0.0
C1098 C 0.67875 0.55306 0.71552 0.0
C1099 C 0.69466 0.5904 0.75192 0.0
C1100 C 0.67713 0.55357 0.69167 0.0
C1101 C 0.69284 0.58572 0.67903 0.0
C1102 C 0.69599 0.5852 0.72678 0.0
C1103 C 0.71123 0.61526 0.69082 0.0
C1104 C 0.71081 0.62387 0.7633 0.0
C1105 C 0.67138 0.57139 0.78685 0.0
N1106 N 0.71201 0.61473 0.71413 0.0
N1107 N 0.67568 0.56505 0.76405 0.0
H1108 H 0.34263 0.53794 0.79881 0.0
H1109 H 0.27751 0.62843 0.68088 0.0
H1110 H 0.27409 0.6354 0.79446 0.0
H1111 H 0.3494 0.53764 0.68512 0.0
H1112 H 0.2725 0.62417 0.72247 0.0
H1113 H 0.34174 0.53015 0.75713 0.0
C1114 C 0.32727 0.55752 0.78913 0.0
C1115 C 0.30863 0.58786 0.80014 0.0
C1116 C 0.28928 0.605 0.71428 0.0
C1117 C 0.3076 0.57908 0.75244 0.0
C1118 C 0.29221 0.60746 0.69052 0.0
C1119 C 0.31414 0.58378 0.67951 0.0
C1120 C 0.30845 0.57881 0.72712 0.0
C1121 C 0.33233 0.55678 0.69289 0.0
C1122 C 0.32679 0.55301 0.76532 0.0
C1123 C 0.28904 0.61196 0.7867 0.0
N1124 N 0.32918 0.5553 0.71606 0.0
N1125 N 0.28919 0.6073 0.7635 0.0
H1126 H 0.7134 0.37351 0.17915 0.0
H1127 H 0.62654 0.37871 0.2965 0.0
H1128 H 0.62377 0.39674 0.18429 0.0
H1129 H 0.71715 0.36678 0.29441 0.0
H1130 H 0.62542 0.37799 0.25487 0.0
H1131 H 0.71544 0.36451 0.22096 0.0
C1132 C 0.69417 0.37666 0.18903 0.0
C1133 C 0.6684 0.38623 0.17824 0.0
C1134 C 0.64559 0.37546 0.26344 0.0
C1135 C 0.67062 0.37577 0.22582 0.0
C1136 C 0.64627 0.37595 0.28726 0.0
C1137 C 0.67204 0.37345 0.29892 0.0
C1138 C 0.67087 0.37267 0.25109 0.0
C1139 C 0.69685 0.36905 0.28604 0.0
C1140 C 0.69537 0.37148 0.21285 0.0
C1141 C 0.64415 0.38979 0.19184 0.0
N1142 N 0.69568 0.36917 0.26268 0.0
N1143 N 0.6459 0.38462 0.21492 0.0
H1144 H 0.83347 0.97403 0.18278 0.0
H1145 H 0.77394 0.85833 0.2972 0.0
H1146 H 0.76997 0.86726 0.18292 0.0
H1147 H 0.8447 0.95197 0.29455 0.0
H1148 H 0.76651 0.8704 0.25603 0.0
H1149 H 0.83144 0.97639 0.22453 0.0
C1150 C 0.81895 0.95126 0.19159 0.0
C1151 C 0.80228 0.9197 0.1794 0.0
C1152 C 0.78353 0.88847 0.26456 0.0
C1153 C 0.80001 0.92206 0.22719 0.0
C1154 C 0.78783 0.88156 0.28801 0.0
C1155 C 0.81024 0.90364 0.29923 0.0
C1156 C 0.80173 0.91774 0.25238 0.0
C1157 C 0.82743 0.93363 0.28655 0.0
C1158 C 0.81778 0.95267 0.21544 0.0
C1159 C 0.78343 0.89174 0.19168 0.0
N1160 N 0.82288 0.93958 0.26376 0.0
N1161 N 0.78307 0.89313 0.21501 0.0
H1162 H 0.12575 0.11555 0.79533 0.0
H1163 H 0.22193 0.13755 0.68347 0.0
H1164 H 0.21517 0.14261 0.79796 0.0
H1165 H 0.13462 0.09544 0.68319 0.0
H1166 H 0.21895 0.14922 0.72504 0.0
H1167 H 0.12771 0.11881 0.75363 0.0
C1168 C 0.14581 0.12232 0.78714 0.0
C1169 C 0.17044 0.12804 0.8001 0.0
C1170 C 0.20047 0.13758 0.7158 0.0
C1171 C 0.17282 0.13165 0.75236 0.0
C1172 C 0.20215 0.13085 0.69212 0.0
C1173 C 0.17858 0.11497 0.67992 0.0
C1174 C 0.17504 0.12849 0.7272 0.0
C1175 C 0.15344 0.10712 0.69193 0.0
C1176 C 0.1469 0.12423 0.76331 0.0
C1177 C 0.19573 0.13756 0.78858 0.0
N1178 N 0.15239 0.11383 0.71493 0.0
N1179 N 0.19633 0.13862 0.76526 0.0
H1180 H 0.86781 0.09777 0.68353 0.0
H1181 H 0.77411 0.15262 0.79399 0.0
H1182 H 0.7799 0.13492 0.67919 0.0
H1183 H 0.86323 0.1232 0.79553 0.0
H1184 H 0.77563 0.1503 0.7519 0.0
H1185 H 0.86617 0.10959 0.72477 0.0
C1186 C 0.84809 0.10828 0.69125 0.0
C1187 C 0.82389 0.11508 0.67788 0.0
C1188 C 0.79483 0.14468 0.76152 0.0
C1189 C 0.82192 0.12894 0.72526 0.0
C1190 C 0.794 0.14612 0.7855 0.0
C1191 C 0.8185 0.13747 0.79826 0.0
C1192 C 0.82032 0.13457 0.7504 0.0
C1193 C 0.84372 0.12937 0.78642 0.0
C1194 C 0.84721 0.11526 0.71485 0.0
C1195 C 0.79902 0.12912 0.68887 0.0
N1196 N 0.84391 0.12784 0.76318 0.0
N1197 N 0.79864 0.13544 0.71201 0.0
H1198 H 0.22405 0.84778 0.29611 0.0
H1199 H 0.22591 0.87566 0.17814 0.0
H1200 H 0.15382 0.94224 0.29603 0.0
H1201 H 0.14185 0.92912 0.18715 0.0
H1202 H 0.23335 0.88096 0.21938 0.0
H1203 H 0.2273 0.85526 0.25471 0.0
C1204 C 0.20962 0.8708 0.28741 0.0
C1205 C 0.18844 0.89403 0.29954 0.0
C1206 C 0.21311 0.89088 0.21251 0.0
C1207 C 0.19247 0.9039 0.25196 0.0
C1208 C 0.20893 0.8882 0.18887 0.0
C1209 C 0.18299 0.90101 0.17929 0.0
C1210 C 0.19096 0.90566 0.22668 0.0
C1211 C 0.16204 0.91834 0.19386 0.0
C1212 C 0.21166 0.87548 0.26365 0.0
C1213 C 0.1703 0.92327 0.28735 0.0
N1214 N 0.16641 0.91969 0.2169 0.0
N1215 N 0.17258 0.927 0.26418 0.0
loop_
_geom_bond_atom_site_label_1
_geom_bond_atom_site_label_2
_geom_bond_distance
_geom_bond_site_symmetry_2
_ccdc_geom_bond_type
Sc0 O3 2.025 . S
Sc0 O10 2.105 . S
Sc0 O13 2.105 . S
Sc0 O16 2.105 . S
Sc0 O19 2.105 . S
Sc1 O3 2.025 . S
Sc1 O11 2.105 . S
Sc1 O15 2.105 . S
Sc1 O17 2.105 . S
Sc1 O21 2.105 . S
Sc2 O3 2.025 . S
Sc2 O12 2.105 . S
Sc2 O14 2.105 . S
Sc2 O18 2.105 . S
Sc2 O20 2.105 . S
O3 Sc0 2.025 . S
O3 Sc1 2.025 . S
O3 Sc2 2.025 . S
C4 O10 1.268 . S
C4 O20 1.268 . S
C5 O11 1.268 . S
C5 O19 1.268 . S
C6 O12 1.268 . S
C6 O21 1.268 . S
C7 O13 1.268 . S
C7 O17 1.268 . S
C8 O14 1.268 . S
C8 O16 1.268 . S
C9 O15 1.268 . S
C9 O18 1.268 . S
O10 Sc0 2.105 . S
O10 C4 1.268 . S
O11 Sc1 2.105 . S
O11 C5 1.268 . S
O12 Sc2 2.105 . S
O12 C6 1.268 . S
O13 Sc0 2.105 . S
O13 C7 1.268 . S
O14 Sc2 2.105 . S
O14 C8 1.268 . S
O15 Sc1 2.105 . S
O15 C9 1.268 . S
O16 Sc0 2.105 . S
O16 C8 1.268 . S
O17 Sc1 2.105 . S
O17 C7 1.268 . S
O18 Sc2 2.105 . S
O18 C9 1.268 . S
O19 Sc0 2.105 . S
O19 C5 1.268 . S
O20 Sc2 2.105 . S
O20 C4 1.268 . S
O21 Sc1 2.105 . S
O21 C6 1.268 . S
Sc22 O25 2.025 . S
Sc22 O32 2.105 . S
Sc22 O35 2.105 . S
Sc22 O38 2.105 . S
Sc22 O41 2.105 . S
Sc23 O25 2.025 . S
Sc23 O33 2.105 . S
Sc23 O37 2.105 . S
Sc23 O39 2.105 . S
Sc23 O43 2.105 . S
Sc24 O25 2.025 . S
Sc24 O34 2.105 . S
Sc24 O36 2.105 . S
Sc24 O40 2.105 . S
Sc24 O42 2.105 . S
O25 Sc22 2.025 . S
O25 Sc23 2.025 . S
O25 Sc24 2.025 . S
C26 O32 1.268 . S
C26 O42 1.268 . S
C27 O33 1.268 . S
C27 O41 1.268 . S
C28 O34 1.268 . S
C28 O43 1.268 . S
C29 O35 1.268 . S
C29 O39 1.268 . S
C30 O36 1.268 . S
C30 O38 1.268 . S
C31 O37 1.268 . S
C31 O40 1.268 . S
O32 Sc22 2.105 . S
O32 C26 1.268 . S
O33 Sc23 2.105 . S
O33 C27 1.268 . S
O34 Sc24 2.105 . S
O34 C28 1.268 . S
O35 Sc22 2.105 . S
O35 C29 1.268 . S
O36 Sc24 2.105 . S
O36 C30 1.268 . S
O37 Sc23 2.105 . S
O37 C31 1.268 . S
O38 Sc22 2.105 . S
O38 C30 1.268 . S
O39 Sc23 2.105 . S
O39 C29 1.268 . S
O40 Sc24 2.105 . S
O40 C31 1.268 . S
O41 Sc22 2.105 . S
O41 C27 1.268 . S
O42 Sc24 2.105 . S
O42 C26 1.268 . S
O43 Sc23 2.105 . S
O43 C28 1.268 . S
Sc44 O47 2.025 . S
Sc44 O54 2.105 . S
Sc44 O57 2.105 . S
Sc44 O60 2.105 . S
Sc44 O63 2.105 . S
Sc45 O47 2.025 . S
Sc45 O55 2.105 . S
Sc45 O59 2.105 . S
Sc45 O61 2.105 . S
Sc45 O65 2.105 . S
Sc46 O47 2.025 . S
Sc46 O56 2.105 . S
Sc46 O58 2.105 . S
Sc46 O62 2.105 . S
Sc46 O64 2.105 . S
O47 Sc44 2.025 . S
O47 Sc45 2.025 . S
O47 Sc46 2.025 . S
C48 O54 1.268 . S
C48 O64 1.268 . S
C49 O55 1.268 . S
C49 O63 1.268 . S
C50 O56 1.268 . S
C50 O65 1.268 . S
C51 O57 1.268 . S
C51 O61 1.268 . S
C52 O58 1.268 . S
C52 O60 1.268 . S
C53 O59 1.268 . S
C53 O62 1.268 . S
O54 Sc44 2.105 . S
O54 C48 1.268 . S
O55 Sc45 2.105 . S
O55 C49 1.268 . S
O56 Sc46 2.105 . S
O56 C50 1.268 . S
O57 Sc44 2.105 . S
O57 C51 1.268 . S
O58 Sc46 2.105 . S
O58 C52 1.268 . S
O59 Sc45 2.105 . S
O59 C53 1.268 . S
O60 Sc44 2.105 . S
O60 C52 1.268 . S
O61 Sc45 2.105 . S
O61 C51 1.268 . S
O62 Sc46 2.105 . S
O62 C53 1.268 . S
O63 Sc44 2.105 . S
O63 C49 1.268 . S
O64 Sc46 2.105 . S
O64 C48 1.268 . S
O65 Sc45 2.105 . S
O65 C50 1.268 . S
Sc66 O69 2.025 . S
Sc66 O76 2.105 . S
Sc66 O79 2.105 . S
Sc66 O82 2.105 . S
Sc66 O85 2.105 . S
Sc67 O69 2.025 . S
Sc67 O77 2.105 . S
Sc67 O81 2.105 . S
Sc67 O83 2.105 . S
Sc67 O87 2.105 . S
Sc68 O69 2.025 . S
Sc68 O78 2.105 . S
Sc68 O80 2.105 . S
Sc68 O84 2.105 . S
Sc68 O86 2.105 . S
O69 Sc66 2.025 . S
O69 Sc67 2.025 . S
O69 Sc68 2.025 . S
C70 O76 1.268 . S
C70 O86 1.268 . S
C71 O77 1.268 . S
C71 O85 1.268 . S
C72 O78 1.268 . S
C72 O87 1.268 . S
C73 O79 1.268 . S
C73 O83 1.268 . S
C74 O80 1.268 . S
C74 O82 1.268 . S
C75 O81 1.268 . S
C75 O84 1.268 . S
O76 Sc66 2.105 . S
O76 C70 1.268 . S
O77 Sc67 2.105 . S
O77 C71 1.268 . S
O78 Sc68 2.105 . S
O78 C72 1.268 . S
O79 Sc66 2.105 . S
O79 C73 1.268 . S
O80 Sc68 2.105 . S
O80 C74 1.268 . S
O81 Sc67 2.105 . S
O81 C75 1.268 . S
O82 Sc66 2.105 . S
O82 C74 1.268 . S
O83 Sc67 2.105 . S
O83 C73 1.268 . S
O84 Sc68 2.105 . S
O84 C75 1.268 . S
O85 Sc66 2.105 . S
O85 C71 1.268 . S
O86 Sc68 2.105 . S
O86 C70 1.268 . S
O87 Sc67 2.105 . S
O87 C72 1.268 . S
Sc88 O91 2.025 . S
Sc88 O98 2.105 . S
Sc88 O101 2.105 . S
Sc88 O104 2.105 . S
Sc88 O107 2.105 . S
Sc89 O91 2.025 . S
Sc89 O99 2.105 . S
Sc89 O103 2.105 . S
Sc89 O105 2.105 . S
Sc89 O109 2.105 . S
Sc90 O91 2.025 . S
Sc90 O100 2.105 . S
Sc90 O102 2.105 . S
Sc90 O106 2.105 . S
Sc90 O108 2.105 . S
O91 Sc88 2.025 . S
O91 Sc89 2.025 . S
O91 Sc90 2.025 . S
C92 O98 1.268 . S
C92 O108 1.268 . S
C93 O99 1.268 . S
C93 O107 1.268 . S
C94 O100 1.268 . S
C94 O109 1.268 . S
C95 O101 1.268 . S
C95 O105 1.268 . S
C96 O102 1.268 . S
C96 O104 1.268 . S
C97 O103 1.268 . S
C97 O106 1.268 . S
O98 Sc88 2.105 . S
O98 C92 1.268 . S
O99 Sc89 2.105 . S
O99 C93 1.268 . S
O100 Sc90 2.105 . S
O100 C94 1.268 . S
O101 Sc88 2.105 . S
O101 C95 1.268 . S
O102 Sc90 2.105 . S
O102 C96 1.268 . S
O103 Sc89 2.105 . S
O103 C97 1.268 . S
O104 Sc88 2.105 . S
O104 C96 1.268 . S
O105 Sc89 2.105 . S
O105 C95 1.268 . S
O106 Sc90 2.105 . S
O106 C97 1.268 . S
O107 Sc88 2.105 . S
O107 C93 1.268 . S
O108 Sc90 2.105 . S
O108 C92 1.268 . S
O109 Sc89 2.105 . S
O109 C94 1.268 . S
Sc110 O113 2.025 . S
Sc110 O120 2.105 . S
Sc110 O123 2.105 . S
Sc110 O126 2.105 . S
Sc110 O129 2.105 . S
Sc111 O113 2.025 . S
Sc111 O121 2.105 . S
Sc111 O125 2.105 . S
Sc111 O127 2.105 . S
Sc111 O131 2.105 . S
Sc112 O113 2.025 . S
Sc112 O122 2.105 . S
Sc112 O124 2.105 . S
Sc112 O128 2.105 . S
Sc112 O130 2.105 . S
O113 Sc110 2.025 . S
O113 Sc111 2.025 . S
O113 Sc112 2.025 . S
C114 O120 1.268 . S
C114 O130 1.268 . S
C115 O121 1.268 . S
C115 O129 1.268 . S
C116 O122 1.268 . S
C116 O131 1.268 . S
C117 O123 1.268 . S
C117 O127 1.268 . S
C118 O124 1.268 . S
C118 O126 1.268 . S
C119 O125 1.268 . S
C119 O128 1.268 . S
O120 Sc110 2.105 . S
O120 C114 1.268 . S
O121 Sc111 2.105 . S
O121 C115 1.268 . S
O122 Sc112 2.105 . S
O122 C116 1.268 . S
O123 Sc110 2.105 . S
O123 C117 1.268 . S
O124 Sc112 2.105 . S
O124 C118 1.268 . S
O125 Sc111 2.105 . S
O125 C119 1.268 . S
O126 Sc110 2.105 . S
O126 C118 1.268 . S
O127 Sc111 2.105 . S
O127 C117 1.268 . S
O128 Sc112 2.105 . S
O128 C119 1.268 . S
O129 Sc110 2.105 . S
O129 C115 1.268 . S
O130 Sc112 2.105 . S
O130 C114 1.268 . S
O131 Sc111 2.105 . S
O131 C116 1.268 . S
Sc132 O135 2.025 . S
Sc132 O142 2.105 . S
Sc132 O145 2.105 . S
Sc132 O148 2.105 . S
Sc132 O151 2.105 . S
Sc133 O135 2.025 . S
Sc133 O143 2.105 . S
Sc133 O147 2.105 . S
Sc133 O149 2.105 . S
Sc133 O153 2.105 . S
Sc134 O135 2.025 . S
Sc134 O144 2.105 . S
Sc134 O146 2.105 . S
Sc134 O150 2.105 . S
Sc134 O152 2.105 . S
O135 Sc132 2.025 . S
O135 Sc133 2.025 . S
O135 Sc134 2.025 . S
C136 O142 1.268 . S
C136 O152 1.268 . S
C137 O143 1.268 . S
C137 O151 1.268 . S
C138 O144 1.268 . S
C138 O153 1.268 . S
C139 O145 1.268 . S
C139 O149 1.268 . S
C140 O146 1.268 . S
C140 O148 1.268 . S
C141 O147 1.268 . S
C141 O150 1.268 . S
O142 Sc132 2.105 . S
O142 C136 1.268 . S
O143 Sc133 2.105 . S
O143 C137 1.268 . S
O144 Sc134 2.105 . S
O144 C138 1.268 . S
O145 Sc132 2.105 . S
O145 C139 1.268 . S
O146 Sc134 2.105 . S
O146 C140 1.268 . S
O147 Sc133 2.105 . S
O147 C141 1.268 . S
O148 Sc132 2.105 . S
O148 C140 1.268 . S
O149 Sc133 2.105 . S
O149 C139 1.268 . S
O150 Sc134 2.105 . S
O150 C141 1.268 . S
O151 Sc132 2.105 . S
O151 C137 1.268 . S
O152 Sc134 2.105 . S
O152 C136 1.268 . S
O153 Sc133 2.105 . S
O153 C138 1.268 . S
Sc154 O157 2.025 . S
Sc154 O164 2.105 . S
Sc154 O167 2.105 . S
Sc154 O170 2.105 . S
Sc154 O173 2.105 . S
Sc155 O157 2.025 . S
Sc155 O165 2.105 . S
Sc155 O169 2.105 . S
Sc155 O171 2.105 . S
Sc155 O175 2.105 . S
Sc156 O157 2.025 . S
Sc156 O166 2.105 . S
Sc156 O168 2.105 . S
Sc156 O172 2.105 . S
Sc156 O174 2.105 . S
O157 Sc154 2.025 . S
O157 Sc155 2.025 . S
O157 Sc156 2.025 . S
C158 O164 1.268 . S
C158 O174 1.268 . S
C159 O165 1.268 . S
C159 O173 1.268 . S
C160 O166 1.268 . S
C160 O175 1.268 . S
C161 O167 1.268 . S
C161 O171 1.268 . S
C162 O168 1.268 . S
C162 O170 1.268 . S
C163 O169 1.268 . S
C163 O172 1.268 . S
O164 Sc154 2.105 . S
O164 C158 1.268 . S
O165 Sc155 2.105 . S
O165 C159 1.268 . S
O166 Sc156 2.105 . S
O166 C160 1.268 . S
O167 Sc154 2.105 . S
O167 C161 1.268 . S
O168 Sc156 2.105 . S
O168 C162 1.268 . S
O169 Sc155 2.105 . S
O169 C163 1.268 . S
O170 Sc154 2.105 . S
O170 C162 1.268 . S
O171 Sc155 2.105 . S
O171 C161 1.268 . S
O172 Sc156 2.105 . S
O172 C163 1.268 . S
O173 Sc154 2.105 . S
O173 C159 1.268 . S
O174 Sc156 2.105 . S
O174 C158 1.268 . S
O175 Sc155 2.105 . S
O175 C160 1.268 . S
Sc176 O179 2.025 . S
Sc176 O186 2.105 . S
Sc176 O189 2.105 . S
Sc176 O192 2.105 . S
Sc176 O195 2.105 . S
Sc177 O179 2.025 . S
Sc177 O187 2.105 . S
Sc177 O191 2.105 . S
Sc177 O193 2.105 . S
Sc177 O197 2.105 . S
Sc178 O179 2.025 . S
Sc178 O188 2.105 . S
Sc178 O190 2.105 . S
Sc178 O194 2.105 . S
Sc178 O196 2.105 . S
O179 Sc176 2.025 . S
O179 Sc177 2.025 . S
O179 Sc178 2.025 . S
C180 O186 1.268 . S
C180 O196 1.268 . S
C181 O187 1.268 . S
C181 O195 1.268 . S
C182 O188 1.268 . S
C182 O197 1.268 . S
C183 O189 1.268 . S
C183 O193 1.268 . S
C184 O190 1.268 . S
C184 O192 1.268 . S
C185 O191 1.268 . S
C185 O194 1.268 . S
O186 Sc176 2.105 . S
O186 C180 1.268 . S
O187 Sc177 2.105 . S
O187 C181 1.268 . S
O188 Sc178 2.105 . S
O188 C182 1.268 . S
O189 Sc176 2.105 . S
O189 C183 1.268 . S
O190 Sc178 2.105 . S
O190 C184 1.268 . S
O191 Sc177 2.105 . S
O191 C185 1.268 . S
O192 Sc176 2.105 . S
O192 C184 1.268 . S
O193 Sc177 2.105 . S
O193 C183 1.268 . S
O194 Sc178 2.105 . S
O194 C185 1.268 . S
O195 Sc176 2.105 . S
O195 C181 1.268 . S
O196 Sc178 2.105 . S
O196 C180 1.268 . S
O197 Sc177 2.105 . S
O197 C182 1.268 . S
Sc198 O201 2.025 . S
Sc198 O208 2.105 . S
Sc198 O211 2.105 . S
Sc198 O214 2.105 . S
Sc198 O217 2.105 . S
Sc199 O201 2.025 . S
Sc199 O209 2.105 . S
Sc199 O213 2.105 . S
Sc199 O215 2.105 . S
Sc199 O219 2.105 . S
Sc200 O201 2.025 . S
Sc200 O210 2.105 . S
Sc200 O212 2.105 . S
Sc200 O216 2.105 . S
Sc200 O218 2.105 . S
O201 Sc198 2.025 . S
O201 Sc199 2.025 . S
O201 Sc200 2.025 . S
C202 O208 1.268 . S
C202 O218 1.268 . S
C203 O209 1.268 . S
C203 O217 1.268 . S
C204 O210 1.268 . S
C204 O219 1.268 . S
C205 O211 1.268 . S
C205 O215 1.268 . S
C206 O212 1.268 . S
C206 O214 1.268 . S
C207 O213 1.268 . S
C207 O216 1.268 . S
O208 Sc198 2.105 . S
O208 C202 1.268 . S
O209 Sc199 2.105 . S
O209 C203 1.268 . S
O210 Sc200 2.105 . S
O210 C204 1.268 . S
O211 Sc198 2.105 . S
O211 C205 1.268 . S
O212 Sc200 2.105 . S
O212 C206 1.268 . S
O213 Sc199 2.105 . S
O213 C207 1.268 . S
O214 Sc198 2.105 . S
O214 C206 1.268 . S
O215 Sc199 2.105 . S
O215 C205 1.268 . S
O216 Sc200 2.105 . S
O216 C207 1.268 . S
O217 Sc198 2.105 . S
O217 C203 1.268 . S
O218 Sc200 2.105 . S
O218 C202 1.268 . S
O219 Sc199 2.105 . S
O219 C204 1.268 . S
Sc220 O223 2.025 . S
Sc220 O230 2.105 . S
Sc220 O233 2.105 . S
Sc220 O236 2.105 . S
Sc220 O239 2.105 . S
Sc221 O223 2.025 . S
Sc221 O231 2.105 . S
Sc221 O235 2.105 . S
Sc221 O237 2.105 . S
Sc221 O241 2.105 . S
Sc222 O223 2.025 . S
Sc222 O232 2.105 . S
Sc222 O234 2.105 . S
Sc222 O238 2.105 . S
Sc222 O240 2.105 . S
O223 Sc220 2.025 . S
O223 Sc221 2.025 . S
O223 Sc222 2.025 . S
C224 O230 1.268 . S
C224 O240 1.268 . S
C225 O231 1.268 . S
C225 O239 1.268 . S
C226 O232 1.268 . S
C226 O241 1.268 . S
C227 O233 1.268 . S
C227 O237 1.268 . S
C228 O234 1.268 . S
C228 O236 1.268 . S
C229 O235 1.268 . S
C229 O238 1.268 . S
O230 Sc220 2.105 . S
O230 C224 1.268 . S
O231 Sc221 2.105 . S
O231 C225 1.268 . S
O232 Sc222 2.105 . S
O232 C226 1.268 . S
O233 Sc220 2.105 . S
O233 C227 1.268 . S
O234 Sc222 2.105 . S
O234 C228 1.268 . S
O235 Sc221 2.105 . S
O235 C229 1.268 . S
O236 Sc220 2.105 . S
O236 C228 1.268 . S
O237 Sc221 2.105 . S
O237 C227 1.268 . S
O238 Sc222 2.105 . S
O238 C229 1.268 . S
O239 Sc220 2.105 . S
O239 C225 1.268 . S
O240 Sc222 2.105 . S
O240 C224 1.268 . S
O241 Sc221 2.105 . S
O241 C226 1.268 . S
Sc242 O245 2.025 . S
Sc242 O252 2.105 . S
Sc242 O255 2.105 . S
Sc242 O258 2.105 . S
Sc242 O261 2.105 . S
Sc243 O245 2.025 . S
Sc243 O253 2.105 . S
Sc243 O257 2.105 . S
Sc243 O259 2.105 . S
Sc243 O263 2.105 . S
Sc244 O245 2.025 . S
Sc244 O254 2.105 . S
Sc244 O256 2.105 . S
Sc244 O260 2.105 . S
Sc244 O262 2.105 . S
O245 Sc242 2.025 . S
O245 Sc243 2.025 . S
O245 Sc244 2.025 . S
C246 O252 1.268 . S
C246 O262 1.268 . S
C247 O253 1.268 . S
C247 O261 1.268 . S
C248 O254 1.268 . S
C248 O263 1.268 . S
C249 O255 1.268 . S
C249 O259 1.268 . S
C250 O256 1.268 . S
C250 O258 1.268 . S
C251 O257 1.268 . S
C251 O260 1.268 . S
O252 Sc242 2.105 . S
O252 C246 1.268 . S
O253 Sc243 2.105 . S
O253 C247 1.268 . S
O254 Sc244 2.105 . S
O254 C248 1.268 . S
O255 Sc242 2.105 . S
O255 C249 1.268 . S
O256 Sc244 2.105 . S
O256 C250 1.268 . S
O257 Sc243 2.105 . S
O257 C251 1.268 . S
O258 Sc242 2.105 . S
O258 C250 1.268 . S
O259 Sc243 2.105 . S
O259 C249 1.268 . S
O260 Sc244 2.105 . S
O260 C251 1.268 . S
O261 Sc242 2.105 . S
O261 C247 1.268 . S
O262 Sc244 2.105 . S
O262 C246 1.268 . S
O263 Sc243 2.105 . S
O263 C248 1.268 . S
Sc264 O267 2.025 . S
Sc264 O274 2.105 . S
Sc264 O277 2.105 . S
Sc264 O280 2.105 . S
Sc264 O283 2.105 . S
Sc265 O267 2.025 . S
Sc265 O275 2.105 . S
Sc265 O279 2.105 . S
Sc265 O281 2.105 . S
Sc265 O285 2.105 . S
Sc266 O267 2.025 . S
Sc266 O276 2.105 . S
Sc266 O278 2.105 . S
Sc266 O282 2.105 . S
Sc266 O284 2.105 . S
O267 Sc264 2.025 . S
O267 Sc265 2.025 . S
O267 Sc266 2.025 . S
C268 O274 1.268 . S
C268 O284 1.268 . S
C269 O275 1.268 . S
C269 O283 1.268 . S
C270 O276 1.268 . S
C270 O285 1.268 . S
C271 O277 1.268 . S
C271 O281 1.268 . S
C272 O278 1.268 . S
C272 O280 1.268 . S
C273 O279 1.268 . S
C273 O282 1.268 . S
O274 Sc264 2.105 . S
O274 C268 1.268 . S
O275 Sc265 2.105 . S
O275 C269 1.268 . S
O276 Sc266 2.105 . S
O276 C270 1.268 . S
O277 Sc264 2.105 . S
O277 C271 1.268 . S
O278 Sc266 2.105 . S
O278 C272 1.268 . S
O279 Sc265 2.105 . S
O279 C273 1.268 . S
O280 Sc264 2.105 . S
O280 C272 1.268 . S
O281 Sc265 2.105 . S
O281 C271 1.268 . S
O282 Sc266 2.105 . S
O282 C273 1.268 . S
O283 Sc264 2.105 . S
O283 C269 1.268 . S
O284 Sc266 2.105 . S
O284 C268 1.268 . S
O285 Sc265 2.105 . S
O285 C270 1.268 . S
Sc286 O289 2.025 . S
Sc286 O296 2.105 . S
Sc286 O299 2.105 . S
Sc286 O302 2.105 . S
Sc286 O305 2.105 . S
Sc287 O289 2.025 . S
Sc287 O297 2.105 . S
Sc287 O301 2.105 . S
Sc287 O303 2.105 . S
Sc287 O307 2.105 . S
Sc288 O289 2.025 . S
Sc288 O298 2.105 . S
Sc288 O300 2.105 . S
Sc288 O304 2.105 . S
Sc288 O306 2.105 . S
O289 Sc286 2.025 . S
O289 Sc287 2.025 . S
O289 Sc288 2.025 . S
C290 O296 1.268 . S
C290 O306 1.268 . S
C291 O297 1.268 . S
C291 O305 1.268 . S
C292 O298 1.268 . S
C292 O307 1.268 . S
C293 O299 1.268 . S
C293 O303 1.268 . S
C294 O300 1.268 . S
C294 O302 1.268 . S
C295 O301 1.268 . S
C295 O304 1.268 . S
O296 Sc286 2.105 . S
O296 C290 1.268 . S
O297 Sc287 2.105 . S
O297 C291 1.268 . S
O298 Sc288 2.105 . S
O298 C292 1.268 . S
O299 Sc286 2.105 . S
O299 C293 1.268 . S
O300 Sc288 2.105 . S
O300 C294 1.268 . S
O301 Sc287 2.105 . S
O301 C295 1.268 . S
O302 Sc286 2.105 . S
O302 C294 1.268 . S
O303 Sc287 2.105 . S
O303 C293 1.268 . S
O304 Sc288 2.105 . S
O304 C295 1.268 . S
O305 Sc286 2.105 . S
O305 C291 1.268 . S
O306 Sc288 2.105 . S
O306 C290 1.268 . S
O307 Sc287 2.105 . S
O307 C292 1.268 . S
Sc308 O311 2.025 . S
Sc308 O318 2.105 . S
Sc308 O321 2.105 . S
Sc308 O324 2.105 . S
Sc308 O327 2.105 . S
Sc309 O311 2.025 . S
Sc309 O319 2.105 . S
Sc309 O323 2.105 . S
Sc309 O325 2.105 . S
Sc309 O329 2.105 . S
Sc310 O311 2.025 . S
Sc310 O320 2.105 . S
Sc310 O322 2.105 . S
Sc310 O326 2.105 . S
Sc310 O328 2.105 . S
O311 Sc308 2.025 . S
O311 Sc309 2.025 . S
O311 Sc310 2.025 . S
C312 O318 1.268 . S
C312 O328 1.268 . S
C313 O319 1.268 . S
C313 O327 1.268 . S
C314 O320 1.268 . S
C314 O329 1.268 . S
C315 O321 1.268 . S
C315 O325 1.268 . S
C316 O322 1.268 . S
C316 O324 1.268 . S
C317 O323 1.268 . S
C317 O326 1.268 . S
O318 Sc308 2.105 . S
O318 C312 1.268 . S
O319 Sc309 2.105 . S
O319 C313 1.268 . S
O320 Sc310 2.105 . S
O320 C314 1.268 . S
O321 Sc308 2.105 . S
O321 C315 1.268 . S
O322 Sc310 2.105 . S
O322 C316 1.268 . S
O323 Sc309 2.105 . S
O323 C317 1.268 . S
O324 Sc308 2.105 . S
O324 C316 1.268 . S
O325 Sc309 2.105 . S
O325 C315 1.268 . S
O326 Sc310 2.105 . S
O326 C317 1.268 . S
O327 Sc308 2.105 . S
O327 C313 1.268 . S
O328 Sc310 2.105 . S
O328 C312 1.268 . S
O329 Sc309 2.105 . S
O329 C314 1.268 . S
Sc330 O333 2.025 . S
Sc330 O340 2.105 . S
Sc330 O343 2.105 . S
Sc330 O346 2.105 . S
Sc330 O349 2.105 . S
Sc331 O333 2.025 . S
Sc331 O341 2.105 . S
Sc331 O345 2.105 . S
Sc331 O347 2.105 . S
Sc331 O351 2.105 . S
Sc332 O333 2.025 . S
Sc332 O342 2.105 . S
Sc332 O344 2.105 . S
Sc332 O348 2.105 . S
Sc332 O350 2.105 . S
O333 Sc330 2.025 . S
O333 Sc331 2.025 . S
O333 Sc332 2.025 . S
C334 O340 1.268 . S
C334 O350 1.268 . S
C335 O341 1.268 . S
C335 O349 1.268 . S
C336 O342 1.268 . S
C336 O351 1.268 . S
C337 O343 1.268 . S
C337 O347 1.268 . S
C338 O344 1.268 . S
C338 O346 1.268 . S
C339 O345 1.268 . S
C339 O348 1.268 . S
O340 Sc330 2.105 . S
O340 C334 1.268 . S
O341 Sc331 2.105 . S
O341 C335 1.268 . S
O342 Sc332 2.105 . S
O342 C336 1.268 . S
O343 Sc330 2.105 . S
O343 C337 1.268 . S
O344 Sc332 2.105 . S
O344 C338 1.268 . S
O345 Sc331 2.105 . S
O345 C339 1.268 . S
O346 Sc330 2.105 . S
O346 C338 1.268 . S
O347 Sc331 2.105 . S
O347 C337 1.268 . S
O348 Sc332 2.105 . S
O348 C339 1.268 . S
O349 Sc330 2.105 . S
O349 C335 1.268 . S
O350 Sc332 2.105 . S
O350 C334 1.268 . S
O351 Sc331 2.105 . S
O351 C336 1.268 . S
H352 C358 0.930 . S
H353 C362 0.930 . S
H354 C367 0.929 . S
H355 C365 0.929 . S
H356 C360 0.929 . S
H357 C366 0.929 . S
C358 H352 0.930 . S
C358 C359 1.367 . S
C358 C366 1.378 . S
C359 C358 1.367 . S
C359 C367 1.433 . S
C360 H356 0.929 . S
C360 C362 1.378 1_545 S
C360 C364 1.350 . S
C361 C364 1.463 . S
C361 C366 1.350 . S
C361 N369 1.427 . S
C362 H353 0.930 . S
C362 C360 1.378 1_565 S
C362 C363 1.367 . S
C363 C362 1.367 . S
C363 C365 1.433 . S
C364 C360 1.350 . S
C364 C361 1.463 . S
C364 N368 1.427 . S
C365 H355 0.929 . S
C365 C363 1.433 . S
C365 N368 1.384 1_565 S
C366 H357 0.929 . S
C366 C358 1.378 . S
C366 C361 1.350 . S
C367 H354 0.929 . S
C367 C359 1.433 . S
C367 N369 1.384 . S
N368 C364 1.427 . S
N368 C365 1.384 1_545 S
N369 C361 1.427 . S
N369 C367 1.384 . S
H370 C376 0.930 . S
H371 C380 0.930 . S
H372 C385 0.929 . S
H373 C383 0.929 . S
H374 C378 0.929 . S
H375 C384 0.929 . S
C376 H370 0.930 . S
C376 C377 1.367 . S
C376 C384 1.378 . S
C377 C376 1.367 . S
C377 C385 1.433 . S
C378 H374 0.929 . S
C378 C380 1.378 1_565 S
C378 C382 1.350 . S
C379 C382 1.463 . S
C379 C384 1.350 . S
C379 N387 1.427 . S
C380 H371 0.930 . S
C380 C378 1.378 1_545 S
C380 C381 1.367 . S
C381 C380 1.367 . S
C381 C383 1.433 . S
C382 C378 1.350 . S
C382 C379 1.463 . S
C382 N386 1.427 . S
C383 H373 0.929 . S
C383 C381 1.433 . S
C383 N386 1.384 1_545 S
C384 H375 0.929 . S
C384 C376 1.378 . S
C384 C379 1.350 . S
C385 H372 0.929 . S
C385 C377 1.433 . S
C385 N387 1.384 . S
N386 C382 1.427 . S
N386 C383 1.384 1_565 S
N387 C379 1.427 . S
N387 C385 1.384 . S
H388 C394 0.930 . S
H389 C398 0.930 . S
H390 C403 0.929 . S
H391 C401 0.929 . S
H392 C396 0.930 . S
H393 C402 0.929 . S
C394 H388 0.930 . S
C394 C395 1.367 . S
C394 C402 1.378 . S
C395 C394 1.367 . S
C395 C403 1.433 . S
C396 H392 0.930 . S
C396 C398 1.372 1_565 S
C396 C400 1.354 . S
C397 C400 1.463 . S
C397 C402 1.350 . S
C397 N405 1.427 . S
C398 H389 0.930 . S
C398 C396 1.372 1_545 S
C398 C399 1.367 . S
C399 C398 1.367 . S
C399 C401 1.433 . S
C400 C396 1.354 . S
C400 C397 1.463 . S
C400 N404 1.427 . S
C401 H391 0.929 . S
C401 C399 1.433 . S
C401 N404 1.384 1_545 S
C402 H393 0.929 . S
C402 C394 1.378 . S
C402 C397 1.350 . S
C403 H390 0.929 . S
C403 C395 1.433 . S
C403 N405 1.384 . S
N404 C400 1.427 . S
N404 C401 1.384 1_565 S
N405 C397 1.427 . S
N405 C403 1.384 . S
H406 C412 0.930 . S
H407 C416 0.930 . S
H408 C421 0.929 . S
H409 C419 0.929 . S
H410 C414 0.929 . S
H411 C420 0.929 . S
C412 H406 0.930 . S
C412 C413 1.367 . S
C412 C420 1.378 1_565 S
C413 C412 1.367 . S
C413 C421 1.433 . S
C414 H410 0.929 . S
C414 C416 1.378 . S
C414 C418 1.350 . S
C415 C418 1.463 . S
C415 C420 1.350 . S
C415 N423 1.427 1_545 S
C416 H407 0.930 . S
C416 C414 1.378 . S
C416 C417 1.367 . S
C417 C416 1.367 . S
C417 C419 1.433 . S
C418 C414 1.350 . S
C418 C415 1.463 . S
C418 N422 1.427 . S
C419 H409 0.929 . S
C419 C417 1.433 . S
C419 N422 1.384 . S
C420 H411 0.929 . S
C420 C412 1.378 1_545 S
C420 C415 1.350 . S
C421 H408 0.929 . S
C421 C413 1.433 . S
C421 N423 1.384 . S
N422 C418 1.427 . S
N422 C419 1.384 . S
N423 C415 1.427 1_565 S
N423 C421 1.384 . S
H424 C430 0.930 . S
H425 C434 0.930 . S
H426 C439 0.929 . S
H427 C437 0.929 . S
H428 C432 0.929 . S
H429 C438 0.929 . S
C430 H424 0.930 . S
C430 C431 1.367 . S
C430 C438 1.378 1_545 S
C431 C430 1.367 . S
C431 C439 1.433 . S
C432 H428 0.929 . S
C432 C434 1.378 . S
C432 C436 1.350 . S
C433 C436 1.463 . S
C433 C438 1.350 . S
C433 N441 1.427 . S
C434 H425 0.930 . S
C434 C432 1.378 . S
C434 C435 1.367 . S
C435 C434 1.367 . S
C435 C437 1.433 . S
C436 C432 1.350 . S
C436 C433 1.463 . S
C436 N440 1.427 . S
C437 H427 0.929 . S
C437 C435 1.433 . S
C437 N440 1.384 . S
C438 H429 0.929 . S
C438 C430 1.378 1_565 S
C438 C433 1.350 . S
C439 H426 0.929 . S
C439 C431 1.433 . S
C439 N441 1.384 1_545 S
N440 C436 1.427 . S
N440 C437 1.384 . S
N441 C433 1.427 . S
N441 C439 1.384 1_565 S
H442 C448 0.930 . S
H443 C452 0.930 . S
H444 C457 0.929 . S
H445 C455 0.929 . S
H446 C450 0.929 . S
H447 C456 0.929 . S
C448 H442 0.930 . S
C448 C449 1.367 . S
C448 C456 1.378 1_565 S
C449 C448 1.367 . S
C449 C457 1.433 . S
C450 H446 0.929 . S
C450 C452 1.378 . S
C450 C454 1.350 . S
C451 C454 1.463 . S
C451 C456 1.350 . S
C451 N459 1.427 . S
C452 H443 0.930 . S
C452 C450 1.378 . S
C452 C453 1.367 . S
C453 C452 1.367 . S
C453 C455 1.433 . S
C454 C450 1.350 . S
C454 C451 1.463 . S
C454 N458 1.427 . S
C455 H445 0.929 . S
C455 C453 1.433 . S
C455 N458 1.384 . S
C456 H447 0.929 . S
C456 C448 1.378 1_545 S
C456 C451 1.350 . S
C457 H444 0.929 . S
C457 C449 1.433 . S
C457 N459 1.384 1_565 S
N458 C454 1.427 . S
N458 C455 1.384 . S
N459 C451 1.427 . S
N459 C457 1.384 1_545 S
H460 C466 0.930 . S
H461 C470 0.930 . S
H462 C475 0.929 . S
H463 C473 0.929 . S
H464 C468 0.929 . S
H465 C474 0.929 . S
C466 H460 0.930 . S
C466 C467 1.367 . S
C466 C474 1.378 1_565 S
C467 C466 1.367 . S
C467 C475 1.433 . S
C468 H464 0.929 . S
C468 C470 1.378 . S
C468 C472 1.350 . S
C469 C472 1.463 . S
C469 C474 1.350 . S
C469 N477 1.427 . S
C470 H461 0.930 . S
C470 C468 1.378 . S
C470 C471 1.367 . S
C471 C470 1.367 . S
C471 C473 1.433 . S
C472 C468 1.350 . S
C472 C469 1.463 . S
C472 N476 1.427 . S
C473 H463 0.929 . S
C473 C471 1.433 . S
C473 N476 1.384 . S
C474 H465 0.929 . S
C474 C466 1.378 1_545 S
C474 C469 1.350 . S
C475 H462 0.929 . S
C475 C467 1.433 . S
C475 N477 1.384 1_565 S
N476 C472 1.427 . S
N476 C473 1.384 . S
N477 C469 1.427 . S
N477 C475 1.384 1_545 S
H478 C484 0.930 . S
H479 C488 0.930 . S
H480 C493 0.929 . S
H481 C491 0.929 . S
H482 C486 0.929 . S
H483 C492 0.929 . S
C484 H478 0.930 . S
C484 C485 1.367 . S
C484 C492 1.378 1_545 S
C485 C484 1.367 . S
C485 C493 1.433 . S
C486 H482 0.929 . S
C486 C488 1.378 . S
C486 C490 1.350 . S
C487 C490 1.463 . S
C487 C492 1.350 . S
C487 N495 1.427 . S
C488 H479 0.930 . S
C488 C486 1.378 . S
C488 C489 1.367 . S
C489 C488 1.367 . S
C489 C491 1.433 . S
C490 C486 1.350 . S
C490 C487 1.463 . S
C490 N494 1.427 . S
C491 H481 0.929 . S
C491 C489 1.433 . S
C491 N494 1.384 . S
C492 H483 0.929 . S
C492 C484 1.378 1_565 S
C492 C487 1.350 . S
C493 H480 0.929 . S
C493 C485 1.433 . S
C493 N495 1.384 1_545 S
N494 C490 1.427 . S
N494 C491 1.384 . S
N495 C487 1.427 . S
N495 C493 1.384 1_565 S
H496 C502 0.930 . S
H497 C506 0.930 . S
H498 C511 0.929 . S
H499 C509 0.929 . S
H500 C504 0.929 . S
H501 C510 0.929 . S
C502 H496 0.930 . S
C502 C503 1.367 . S
C502 C510 1.378 . S
C503 C502 1.367 . S
C503 C511 1.433 . S
C504 H500 0.929 . S
C504 C506 1.378 . S
C504 C508 1.350 . S
C505 C508 1.463 . S
C505 C510 1.350 . S
C505 N513 1.427 . S
C506 H497 0.930 . S
C506 C504 1.378 . S
C506 C507 1.367 . S
C507 C506 1.367 . S
C507 C509 1.433 . S
C508 C504 1.350 . S
C508 C505 1.463 . S
C508 N512 1.427 . S
C509 H499 0.929 . S
C509 C507 1.433 . S
C509 N512 1.384 . S
C510 H501 0.929 . S
C510 C502 1.378 . S
C510 C505 1.350 . S
C511 H498 0.929 . S
C511 C503 1.433 . S
C511 N513 1.384 . S
N512 C508 1.427 . S
N512 C509 1.384 . S
N513 C505 1.427 . S
N513 C511 1.384 . S
H514 C520 0.930 . S
H515 C524 0.930 . S
H516 C529 0.929 . S
H517 C527 0.929 . S
H518 C522 0.929 . S
H519 C528 0.929 . S
C520 H514 0.930 . S
C520 C521 1.367 . S
C520 C528 1.378 . S
C521 C520 1.367 . S
C521 C529 1.433 . S
C522 H518 0.929 . S
C522 C524 1.378 . S
C522 C526 1.350 . S
C523 C526 1.463 . S
C523 C528 1.350 . S
C523 N531 1.427 . S
C524 H515 0.930 . S
C524 C522 1.378 . S
C524 C525 1.367 . S
C525 C524 1.367 . S
C525 C527 1.433 . S
C526 C522 1.350 . S
C526 C523 1.463 . S
C526 N530 1.427 . S
C527 H517 0.929 . S
C527 C525 1.433 . S
C527 N530 1.384 . S
C528 H519 0.929 . S
C528 C520 1.378 . S
C528 C523 1.350 . S
C529 H516 0.929 . S
C529 C521 1.433 . S
C529 N531 1.384 . S
N530 C526 1.427 . S
N530 C527 1.384 . S
N531 C523 1.427 . S
N531 C529 1.384 . S
H532 C538 0.930 . S
H533 C542 0.930 . S
H534 C547 0.929 . S
H535 C545 0.929 . S
H536 C540 0.929 . S
H537 C546 0.929 . S
C538 H532 0.930 . S
C538 C539 1.367 . S
C538 C546 1.378 . S
C539 C538 1.367 . S
C539 C547 1.433 . S
C540 H536 0.929 . S
C540 C542 1.378 . S
C540 C544 1.350 . S
C541 C544 1.463 . S
C541 C546 1.350 . S
C541 N549 1.427 . S
C542 H533 0.930 . S
C542 C540 1.378 . S
C542 C543 1.367 . S
C543 C542 1.367 . S
C543 C545 1.433 . S
C544 C540 1.350 . S
C544 C541 1.463 . S
C544 N548 1.427 . S
C545 H535 0.929 . S
C545 C543 1.433 . S
C545 N548 1.384 . S
C546 H537 0.929 . S
C546 C538 1.378 . S
C546 C541 1.350 . S
C547 H534 0.929 . S
C547 C539 1.433 . S
C547 N549 1.384 . S
N548 C544 1.427 . S
N548 C545 1.384 . S
N549 C541 1.427 . S
N549 C547 1.384 . S
H550 C556 0.930 . S
H551 C560 0.930 . S
H552 C565 0.929 . S
H553 C563 0.929 . S
H554 C558 0.929 . S
H555 C564 0.929 . S
C556 H550 0.930 . S
C556 C557 1.367 . S
C556 C564 1.378 . S
C557 C556 1.367 . S
C557 C565 1.433 . S
C558 H554 0.929 . S
C558 C560 1.378 . S
C558 C562 1.350 . S
C559 C562 1.463 . S
C559 C564 1.350 . S
C559 N567 1.427 . S
C560 H551 0.930 . S
C560 C558 1.378 . S
C560 C561 1.367 . S
C561 C560 1.367 . S
C561 C563 1.433 . S
C562 C558 1.350 . S
C562 C559 1.463 . S
C562 N566 1.427 . S
C563 H553 0.929 . S
C563 C561 1.433 . S
C563 N566 1.384 . S
C564 H555 0.929 . S
C564 C556 1.378 . S
C564 C559 1.350 . S
C565 H552 0.929 . S
C565 C557 1.433 . S
C565 N567 1.384 . S
N566 C562 1.427 . S
N566 C563 1.384 . S
N567 C559 1.427 . S
N567 C565 1.384 . S
H568 C574 0.930 . S
H569 C578 0.930 . S
H570 C583 0.929 . S
H571 C581 0.929 . S
H572 C576 0.929 . S
H573 C582 0.929 . S
C574 H568 0.930 . S
C574 C575 1.367 . S
C574 C582 1.378 . S
C575 C574 1.367 . S
C575 C583 1.433 . S
C576 H572 0.929 . S
C576 C578 1.378 . S
C576 C580 1.350 . S
C577 C580 1.463 . S
C577 C582 1.350 . S
C577 N585 1.427 . S
C578 H569 0.930 . S
C578 C576 1.378 . S
C578 C579 1.367 . S
C579 C578 1.367 . S
C579 C581 1.433 . S
C580 C576 1.350 . S
C580 C577 1.463 . S
C580 N584 1.427 . S
C581 H571 0.929 . S
C581 C579 1.433 . S
C581 N584 1.384 . S
C582 H573 0.929 . S
C582 C574 1.378 . S
C582 C577 1.350 . S
C583 H570 0.929 . S
C583 C575 1.433 . S
C583 N585 1.384 . S
N584 C580 1.427 . S
N584 C581 1.384 . S
N585 C577 1.427 . S
N585 C583 1.384 . S
H586 C592 0.930 . S
H587 C596 0.930 . S
H588 C601 0.929 . S
H589 C599 0.929 . S
H590 C594 0.929 . S
H591 C600 0.929 . S
C592 H586 0.930 . S
C592 C593 1.367 . S
C592 C600 1.378 . S
C593 C592 1.367 . S
C593 C601 1.433 . S
C594 H590 0.929 . S
C594 C596 1.378 . S
C594 C598 1.350 . S
C595 C598 1.463 . S
C595 C600 1.350 . S
C595 N603 1.427 . S
C596 H587 0.930 . S
C596 C594 1.378 . S
C596 C597 1.367 . S
C597 C596 1.367 . S
C597 C599 1.433 . S
C598 C594 1.350 . S
C598 C595 1.463 . S
C598 N602 1.427 . S
C599 H589 0.929 . S
C599 C597 1.433 . S
C599 N602 1.384 . S
C600 H591 0.929 . S
C600 C592 1.378 . S
C600 C595 1.350 . S
C601 H588 0.929 . S
C601 C593 1.433 . S
C601 N603 1.384 . S
N602 C598 1.427 . S
N602 C599 1.384 . S
N603 C595 1.427 . S
N603 C601 1.384 . S
H604 C610 0.930 . S
H605 C614 0.930 . S
H606 C619 0.929 . S
H607 C617 0.929 . S
H608 C612 0.929 . S
H609 C618 0.929 . S
C610 H604 0.930 . S
C610 C611 1.367 . S
C610 C618 1.378 . S
C611 C610 1.367 . S
C611 C619 1.433 . S
C612 H608 0.929 . S
C612 C614 1.378 . S
C612 C616 1.350 . S
C613 C616 1.463 . S
C613 C618 1.350 . S
C613 N621 1.427 . S
C614 H605 0.930 . S
C614 C612 1.378 . S
C614 C615 1.367 . S
C615 C614 1.367 . S
C615 C617 1.433 . S
C616 C612 1.350 . S
C616 C613 1.463 . S
C616 N620 1.427 . S
C617 H607 0.929 . S
C617 C615 1.433 . S
C617 N620 1.384 . S
C618 H609 0.929 . S
C618 C610 1.378 . S
C618 C613 1.350 . S
C619 H606 0.929 . S
C619 C611 1.433 . S
C619 N621 1.384 . S
N620 C616 1.427 . S
N620 C617 1.384 . S
N621 C613 1.427 . S
N621 C619 1.384 . S
H622 C628 0.930 . S
H623 C632 0.930 . S
H624 C637 0.929 . S
H625 C635 0.929 . S
H626 C630 0.929 . S
H627 C636 0.929 . S
C628 H622 0.930 . S
C628 C629 1.367 . S
C628 C636 1.378 . S
C629 C628 1.367 . S
C629 C637 1.433 . S
C630 H626 0.929 . S
C630 C632 1.378 . S
C630 C634 1.350 . S
C631 C634 1.463 . S
C631 C636 1.350 . S
C631 N639 1.427 . S
C632 H623 0.930 . S
C632 C630 1.378 . S
C632 C633 1.367 . S
C633 C632 1.367 . S
C633 C635 1.433 . S
C634 C630 1.350 . S
C634 C631 1.463 . S
C634 N638 1.427 . S
C635 H625 0.929 . S
C635 C633 1.433 . S
C635 N638 1.384 . S
C636 H627 0.929 . S
C636 C628 1.378 . S
C636 C631 1.350 . S
C637 H624 0.929 . S
C637 C629 1.433 . S
C637 N639 1.384 . S
N638 C634 1.427 . S
N638 C635 1.384 . S
N639 C631 1.427 . S
N639 C637 1.384 . S
H640 C646 0.930 . S
H641 C650 0.930 . S
H642 C655 0.929 . S
H643 C653 0.929 . S
H644 C648 0.929 . S
H645 C654 0.929 . S
C646 H640 0.930 . S
C646 C647 1.367 . S
C646 C654 1.378 . S
C647 C646 1.367 . S
C647 C655 1.433 . S
C648 H644 0.929 . S
C648 C650 1.378 . S
C648 C652 1.350 . S
C649 C652 1.463 1_554 S
C649 C654 1.350 . S
C649 N657 1.427 . S
C650 H641 0.930 . S
C650 C648 1.378 . S
C650 C651 1.367 . S
C651 C650 1.367 . S
C651 C653 1.433 . S
C652 C648 1.350 . S
C652 C649 1.463 1_556 S
C652 N656 1.427 . S
C653 H643 0.929 . S
C653 C651 1.433 . S
C653 N656 1.384 . S
C654 H645 0.929 . S
C654 C646 1.378 . S
C654 C649 1.350 . S
C655 H642 0.929 . S
C655 C647 1.433 . S
C655 N657 1.384 . S
N656 C652 1.427 . S
N656 C653 1.384 . S
N657 C649 1.427 . S
N657 C655 1.384 . S
H658 C664 0.930 . S
H659 C668 0.930 . S
H660 C673 0.929 . S
H661 C671 0.929 . S
H662 C666 0.929 . S
H663 C672 0.929 . S
C664 H658 0.930 . S
C664 C665 1.367 . S
C664 C672 1.378 . S
C665 C664 1.367 . S
C665 C673 1.433 . S
C666 H662 0.929 . S
C666 C668 1.378 . S
C666 C670 1.350 . S
C667 C670 1.463 . S
C667 C672 1.350 . S
C667 N675 1.427 . S
C668 H659 0.930 . S
C668 C666 1.378 . S
C668 C669 1.367 . S
C669 C668 1.367 . S
C669 C671 1.433 . S
C670 C666 1.350 . S
C670 C667 1.463 . S
C670 N674 1.427 . S
C671 H661 0.929 . S
C671 C669 1.433 . S
C671 N674 1.384 . S
C672 H663 0.929 . S
C672 C664 1.378 . S
C672 C667 1.350 . S
C673 H660 0.929 . S
C673 C665 1.433 . S
C673 N675 1.384 . S
N674 C670 1.427 . S
N674 C671 1.384 . S
N675 C667 1.427 . S
N675 C673 1.384 . S
H676 C682 0.930 . S
H677 C686 0.930 . S
H678 C691 0.929 . S
H679 C689 0.929 . S
H680 C684 0.929 . S
H681 C690 0.929 . S
C682 H676 0.930 . S
C682 C683 1.367 . S
C682 C690 1.378 . S
C683 C682 1.367 . S
C683 C691 1.433 . S
C684 H680 0.929 . S
C684 C686 1.378 . S
C684 C688 1.350 . S
C685 C688 1.463 1_554 S
C685 C690 1.350 . S
C685 N693 1.427 . S
C686 H677 0.930 . S
C686 C684 1.378 . S
C686 C687 1.367 . S
C687 C686 1.367 . S
C687 C689 1.433 . S
C688 C684 1.350 . S
C688 C685 1.463 1_556 S
C688 N692 1.427 . S
C689 H679 0.929 . S
C689 C687 1.433 . S
C689 N692 1.384 . S
C690 H681 0.929 . S
C690 C682 1.378 . S
C690 C685 1.350 . S
C691 H678 0.929 . S
C691 C683 1.433 . S
C691 N693 1.384 . S
N692 C688 1.427 . S
N692 C689 1.384 . S
N693 C685 1.427 . S
N693 C691 1.384 . S
H694 C700 0.930 . S
H695 C704 0.930 . S
H696 C709 0.929 . S
H697 C707 0.929 . S
H698 C702 0.929 . S
H699 C708 0.929 . S
C700 H694 0.930 . S
C700 C701 1.367 . S
C700 C708 1.378 . S
C701 C700 1.367 . S
C701 C709 1.433 . S
C702 H698 0.929 . S
C702 C704 1.378 . S
C702 C706 1.350 . S
C703 C706 1.463 . S
C703 C708 1.350 . S
C703 N711 1.427 . S
C704 H695 0.930 . S
C704 C702 1.378 . S
C704 C705 1.367 . S
C705 C704 1.367 . S
C705 C707 1.433 . S
C706 C702 1.350 . S
C706 C703 1.463 . S
C706 N710 1.427 . S
C707 H697 0.929 . S
C707 C705 1.433 . S
C707 N710 1.384 . S
C708 H699 0.929 . S
C708 C700 1.378 . S
C708 C703 1.350 . S
C709 H696 0.929 . S
C709 C701 1.433 . S
C709 N711 1.384 . S
N710 C706 1.427 . S
N710 C707 1.384 . S
N711 C703 1.427 . S
N711 C709 1.384 . S
H712 C718 0.930 . S
H713 C722 0.930 . S
H714 C727 0.929 . S
H715 C725 0.929 . S
H716 C720 0.929 1_556 S
H717 C726 0.929 1_554 S
C718 H712 0.930 . S
C718 C719 1.367 . S
C718 C726 1.378 . S
C719 C718 1.367 . S
C719 C727 1.433 . S
C720 H716 0.929 1_554 S
C720 C722 1.378 . S
C720 C724 1.350 . S
C721 C724 1.463 1_546 S
C721 C726 1.350 . S
C721 N729 1.427 . S
C722 H713 0.930 . S
C722 C720 1.378 . S
C722 C723 1.367 . S
C723 C722 1.367 . S
C723 C725 1.433 . S
C724 C720 1.350 . S
C724 C721 1.463 1_564 S
C724 N728 1.427 . S
C725 H715 0.929 . S
C725 C723 1.433 . S
C725 N728 1.384 . S
C726 H717 0.929 1_556 S
C726 C718 1.378 . S
C726 C721 1.350 . S
C727 H714 0.929 . S
C727 C719 1.433 . S
C727 N729 1.384 . S
N728 C724 1.427 . S
N728 C725 1.384 . S
N729 C721 1.427 . S
N729 C727 1.384 . S
H730 C736 0.930 . S
H731 C740 0.930 . S
H732 C745 0.929 . S
H733 C743 0.929 . S
H734 C738 0.929 . S
H735 C744 0.929 . S
C736 H730 0.930 . S
C736 C737 1.367 . S
C736 C744 1.378 . S
C737 C736 1.367 . S
C737 C745 1.433 . S
C738 H734 0.929 . S
C738 C740 1.378 . S
C738 C742 1.350 . S
C739 C742 1.463 1_565 S
C739 C744 1.350 . S
C739 N747 1.427 . S
C740 H731 0.930 . S
C740 C738 1.378 . S
C740 C741 1.367 . S
C741 C740 1.367 . S
C741 C743 1.433 . S
C742 C738 1.350 . S
C742 C739 1.463 1_545 S
C742 N746 1.427 . S
C743 H733 0.929 . S
C743 C741 1.433 . S
C743 N746 1.384 . S
C744 H735 0.929 . S
C744 C736 1.378 . S
C744 C739 1.350 . S
C745 H732 0.929 . S
C745 C737 1.433 . S
C745 N747 1.384 . S
N746 C742 1.427 . S
N746 C743 1.384 . S
N747 C739 1.427 . S
N747 C745 1.384 . S
H748 C754 0.930 . S
H749 C758 0.930 . S
H750 C763 0.929 . S
H751 C761 0.929 . S
H752 C756 0.929 1_565 S
H753 C762 0.929 1_545 S
C754 H748 0.930 . S
C754 C755 1.367 . S
C754 C762 1.378 . S
C755 C754 1.367 . S
C755 C763 1.433 . S
C756 H752 0.929 1_545 S
C756 C758 1.378 . S
C756 C760 1.350 . S
C757 C760 1.463 1_564 S
C757 C762 1.350 . S
C757 N765 1.427 . S
C758 H749 0.930 . S
C758 C756 1.378 . S
C758 C759 1.367 . S
C759 C758 1.367 . S
C759 C761 1.433 . S
C760 C756 1.350 . S
C760 C757 1.463 1_546 S
C760 N764 1.427 . S
C761 H751 0.929 . S
C761 C759 1.433 . S
C761 N764 1.384 . S
C762 H753 0.929 1_565 S
C762 C754 1.378 . S
C762 C757 1.350 . S
C763 H750 0.929 . S
C763 C755 1.433 . S
C763 N765 1.384 . S
N764 C760 1.427 . S
N764 C761 1.384 . S
N765 C757 1.427 . S
N765 C763 1.384 . S
H766 C772 0.930 . S
H767 C776 0.930 . S
H768 C781 0.929 . S
H769 C779 0.929 . S
H770 C774 0.929 . S
H771 C780 0.929 . S
C772 H766 0.930 . S
C772 C773 1.367 . S
C772 C780 1.378 . S
C773 C772 1.367 . S
C773 C781 1.433 . S
C774 H770 0.929 . S
C774 C776 1.378 . S
C774 C778 1.350 . S
C775 C778 1.463 1_565 S
C775 C780 1.350 . S
C775 N783 1.427 . S
C776 H767 0.930 . S
C776 C774 1.378 . S
C776 C777 1.367 . S
C777 C776 1.367 . S
C777 C779 1.433 . S
C778 C774 1.350 . S
C778 C775 1.463 1_545 S
C778 N782 1.427 . S
C779 H769 0.929 . S
C779 C777 1.433 . S
C779 N782 1.384 . S
C780 H771 0.929 . S
C780 C772 1.378 . S
C780 C775 1.350 . S
C781 H768 0.929 . S
C781 C773 1.433 . S
C781 N783 1.384 . S
N782 C778 1.427 . S
N782 C779 1.384 . S
N783 C775 1.427 . S
N783 C781 1.384 . S
H784 C790 0.930 . S
H785 C794 0.930 . S
H786 C799 0.929 . S
H787 C797 0.929 . S
H788 C792 0.929 . S
H789 C798 0.929 . S
C790 H784 0.930 . S
C790 C791 1.367 . S
C790 C798 1.378 . S
C791 C790 1.367 . S
C791 C799 1.433 . S
C792 H788 0.929 . S
C792 C794 1.378 . S
C792 C796 1.350 . S
C793 C796 1.463 . S
C793 C798 1.350 . S
C793 N801 1.427 . S
C794 H785 0.930 . S
C794 C792 1.378 . S
C794 C795 1.367 . S
C795 C794 1.367 . S
C795 C797 1.433 . S
C796 C792 1.350 . S
C796 C793 1.463 . S
C796 N800 1.427 . S
C797 H787 0.929 . S
C797 C795 1.433 . S
C797 N800 1.384 . S
C798 H789 0.929 . S
C798 C790 1.378 . S
C798 C793 1.350 . S
C799 H786 0.929 . S
C799 C791 1.433 . S
C799 N801 1.384 . S
N800 C796 1.427 . S
N800 C797 1.384 . S
N801 C793 1.427 . S
N801 C799 1.384 . S
H802 C808 0.930 . S
H803 C812 0.930 . S
H804 C817 0.929 . S
H805 C815 0.929 . S
H806 C810 0.929 . S
H807 C816 0.929 . S
C808 H802 0.930 . S
C808 C809 1.367 . S
C808 C816 1.378 . S
C809 C808 1.367 . S
C809 C817 1.433 . S
C810 H806 0.929 . S
C810 C812 1.378 . S
C810 C814 1.350 . S
C811 C814 1.463 . S
C811 C816 1.350 . S
C811 N819 1.427 . S
C812 H803 0.930 . S
C812 C810 1.378 . S
C812 C813 1.367 . S
C813 C812 1.367 . S
C813 C815 1.433 . S
C814 C810 1.350 . S
C814 C811 1.463 . S
C814 N818 1.427 . S
C815 H805 0.929 . S
C815 C813 1.433 . S
C815 N818 1.384 . S
C816 H807 0.929 . S
C816 C808 1.378 . S
C816 C811 1.350 . S
C817 H804 0.929 . S
C817 C809 1.433 . S
C817 N819 1.384 . S
N818 C814 1.427 . S
N818 C815 1.384 . S
N819 C811 1.427 . S
N819 C817 1.384 . S
H820 C826 0.930 . S
H821 C830 0.930 . S
H822 C835 0.929 . S
H823 C833 0.929 . S
H824 C828 0.929 . S
H825 C834 0.929 . S
C826 H820 0.930 . S
C826 C827 1.367 . S
C826 C834 1.378 . S
C827 C826 1.367 . S
C827 C835 1.433 . S
C828 H824 0.929 . S
C828 C830 1.378 . S
C828 C832 1.350 . S
C829 C832 1.463 . S
C829 C834 1.350 . S
C829 N837 1.427 . S
C830 H821 0.930 . S
C830 C828 1.378 . S
C830 C831 1.367 . S
C831 C830 1.367 . S
C831 C833 1.433 . S
C832 C828 1.350 . S
C832 C829 1.463 . S
C832 N836 1.427 . S
C833 H823 0.929 . S
C833 C831 1.433 . S
C833 N836 1.384 . S
C834 H825 0.929 . S
C834 C826 1.378 . S
C834 C829 1.350 . S
C835 H822 0.929 . S
C835 C827 1.433 . S
C835 N837 1.384 . S
N836 C832 1.427 . S
N836 C833 1.384 . S
N837 C829 1.427 . S
N837 C835 1.384 . S
H838 C844 0.930 . S
H839 C848 0.930 . S
H840 C853 0.929 . S
H841 C851 0.929 . S
H842 C846 0.929 . S
H843 C852 0.929 . S
C844 H838 0.930 . S
C844 C845 1.367 . S
C844 C852 1.378 . S
C845 C844 1.367 . S
C845 C853 1.433 . S
C846 H842 0.929 . S
C846 C848 1.378 . S
C846 C850 1.350 . S
C847 C850 1.463 . S
C847 C852 1.350 . S
C847 N855 1.427 . S
C848 H839 0.930 . S
C848 C846 1.378 . S
C848 C849 1.367 . S
C849 C848 1.367 . S
C849 C851 1.433 . S
C850 C846 1.350 . S
C850 C847 1.463 . S
C850 N854 1.427 . S
C851 H841 0.929 . S
C851 C849 1.433 . S
C851 N854 1.384 . S
C852 H843 0.929 . S
C852 C844 1.378 . S
C852 C847 1.350 . S
C853 H840 0.929 . S
C853 C845 1.433 . S
C853 N855 1.384 . S
N854 C850 1.427 . S
N854 C851 1.384 . S
N855 C847 1.427 . S
N855 C853 1.384 . S
H856 C862 0.930 . S
H857 C866 0.930 . S
H858 C871 0.929 . S
H859 C869 0.929 . S
H860 C864 0.929 . S
H861 C870 0.929 . S
C862 H856 0.930 . S
C862 C863 1.367 . S
C862 C870 1.378 . S
C863 C862 1.367 . S
C863 C871 1.433 . S
C864 H860 0.929 . S
C864 C866 1.378 . S
C864 C868 1.350 . S
C865 C868 1.463 1_655 S
C865 C870 1.350 . S
C865 N873 1.427 . S
C866 H857 0.930 . S
C866 C864 1.378 . S
C866 C867 1.367 . S
C867 C866 1.367 . S
C867 C869 1.433 . S
C868 C864 1.350 . S
C868 C865 1.463 1_455 S
C868 N872 1.427 . S
C869 H859 0.929 . S
C869 C867 1.433 . S
C869 N872 1.384 . S
C870 H861 0.929 . S
C870 C862 1.378 . S
C870 C865 1.350 . S
C871 H858 0.929 . S
C871 C863 1.433 . S
C871 N873 1.384 . S
N872 C868 1.427 . S
N872 C869 1.384 . S
N873 C865 1.427 . S
N873 C871 1.384 . S
H874 C880 0.930 . S
H875 C884 0.930 . S
H876 C889 0.929 . S
H877 C887 0.929 . S
H878 C882 0.929 . S
H879 C888 0.929 . S
C880 H874 0.930 . S
C880 C881 1.367 . S
C880 C888 1.378 . S
C881 C880 1.367 . S
C881 C889 1.433 . S
C882 H878 0.929 . S
C882 C884 1.378 . S
C882 C886 1.350 . S
C883 C886 1.463 1_655 S
C883 C888 1.350 . S
C883 N891 1.427 . S
C884 H875 0.930 . S
C884 C882 1.378 . S
C884 C885 1.367 . S
C885 C884 1.367 . S
C885 C887 1.433 . S
C886 C882 1.350 . S
C886 C883 1.463 1_455 S
C886 N890 1.427 . S
C887 H877 0.929 . S
C887 C885 1.433 . S
C887 N890 1.384 . S
C888 H879 0.929 . S
C888 C880 1.378 . S
C888 C883 1.350 . S
C889 H876 0.929 . S
C889 C881 1.433 . S
C889 N891 1.384 . S
N890 C886 1.427 . S
N890 C887 1.384 . S
N891 C883 1.427 . S
N891 C889 1.384 . S
H892 C898 0.930 . S
H893 C902 0.930 . S
H894 C907 0.929 . S
H895 C905 0.929 . S
H896 C900 0.929 . S
H897 C906 0.929 . S
C898 H892 0.930 . S
C898 C899 1.367 . S
C898 C906 1.378 . S
C899 C898 1.367 . S
C899 C907 1.433 . S
C900 H896 0.929 . S
C900 C902 1.378 . S
C900 C904 1.350 . S
C901 C904 1.463 1_455 S
C901 C906 1.350 . S
C901 N909 1.427 . S
C902 H893 0.930 . S
C902 C900 1.378 . S
C902 C903 1.367 . S
C903 C902 1.367 . S
C903 C905 1.433 . S
C904 C900 1.350 . S
C904 C901 1.463 1_655 S
C904 N908 1.427 . S
C905 H895 0.929 . S
C905 C903 1.433 . S
C905 N908 1.384 . S
C906 H897 0.929 . S
C906 C898 1.378 . S
C906 C901 1.350 . S
C907 H894 0.929 . S
C907 C899 1.433 . S
C907 N909 1.384 . S
N908 C904 1.427 . S
N908 C905 1.384 . S
N909 C901 1.427 . S
N909 C907 1.384 . S
H910 C916 0.930 . S
H911 C920 0.930 . S
H912 C925 0.929 . S
H913 C923 0.929 . S
H914 C918 0.929 . S
H915 C924 0.929 . S
C916 H910 0.930 . S
C916 C917 1.367 . S
C916 C924 1.378 . S
C917 C916 1.367 . S
C917 C925 1.433 . S
C918 H914 0.929 . S
C918 C920 1.378 . S
C918 C922 1.350 . S
C919 C922 1.463 1_455 S
C919 C924 1.350 . S
C919 N927 1.427 . S
C920 H911 0.930 . S
C920 C918 1.378 . S
C920 C921 1.367 . S
C921 C920 1.367 . S
C921 C923 1.433 . S
C922 C918 1.350 . S
C922 C919 1.463 1_655 S
C922 N926 1.427 . S
C923 H913 0.929 . S
C923 C921 1.433 . S
C923 N926 1.384 . S
C924 H915 0.929 . S
C924 C916 1.378 . S
C924 C919 1.350 . S
C925 H912 0.929 . S
C925 C917 1.433 . S
C925 N927 1.384 . S
N926 C922 1.427 . S
N926 C923 1.384 . S
N927 C919 1.427 . S
N927 C925 1.384 . S
H928 C934 0.930 . S
H929 C938 0.930 . S
H930 C943 0.929 . S
H931 C941 0.929 . S
H932 C936 0.929 . S
H933 C942 0.929 . S
C934 H928 0.930 . S
C934 C935 1.367 . S
C934 C942 1.378 . S
C935 C934 1.367 . S
C935 C943 1.433 . S
C936 H932 0.929 . S
C936 C938 1.378 . S
C936 C940 1.350 . S
C937 C940 1.463 1_554 S
C937 C942 1.350 . S
C937 N945 1.427 . S
C938 H929 0.930 . S
C938 C936 1.378 . S
C938 C939 1.367 . S
C939 C938 1.367 . S
C939 C941 1.433 . S
C940 C936 1.350 . S
C940 C937 1.463 1_556 S
C940 N944 1.427 . S
C941 H931 0.929 . S
C941 C939 1.433 . S
C941 N944 1.384 . S
C942 H933 0.929 . S
C942 C934 1.378 . S
C942 C937 1.350 . S
C943 H930 0.929 . S
C943 C935 1.433 . S
C943 N945 1.384 . S
N944 C940 1.427 . S
N944 C941 1.384 . S
N945 C937 1.427 . S
N945 C943 1.384 . S
H946 C952 0.930 . S
H947 C956 0.930 . S
H948 C961 0.929 . S
H949 C959 0.929 . S
H950 C954 0.929 . S
H951 C960 0.929 . S
C952 H946 0.930 . S
C952 C953 1.367 . S
C952 C960 1.378 . S
C953 C952 1.367 . S
C953 C961 1.433 . S
C954 H950 0.929 . S
C954 C956 1.378 . S
C954 C958 1.350 . S
C955 C958 1.463 . S
C955 C960 1.350 . S
C955 N963 1.427 . S
C956 H947 0.930 . S
C956 C954 1.378 . S
C956 C957 1.367 . S
C957 C956 1.367 . S
C957 C959 1.433 . S
C958 C954 1.350 . S
C958 C955 1.463 . S
C958 N962 1.427 . S
C959 H949 0.929 . S
C959 C957 1.433 . S
C959 N962 1.384 . S
C960 H951 0.929 . S
C960 C952 1.378 . S
C960 C955 1.350 . S
C961 H948 0.929 . S
C961 C953 1.433 . S
C961 N963 1.384 . S
N962 C958 1.427 . S
N962 C959 1.384 . S
N963 C955 1.427 . S
N963 C961 1.384 . S
H964 C970 0.930 . S
H965 C974 0.930 . S
H966 C979 0.929 . S
H967 C977 0.929 . S
H968 C972 0.929 . S
H969 C978 0.929 . S
C970 H964 0.930 . S
C970 C971 1.367 . S
C970 C978 1.378 . S
C971 C970 1.367 . S
C971 C979 1.433 . S
C972 H968 0.929 . S
C972 C974 1.378 . S
C972 C976 1.350 . S
C973 C976 1.463 1_554 S
C973 C978 1.350 . S
C973 N981 1.427 . S
C974 H965 0.930 . S
C974 C972 1.378 . S
C974 C975 1.367 . S
C975 C974 1.367 . S
C975 C977 1.433 . S
C976 C972 1.350 . S
C976 C973 1.463 1_556 S
C976 N980 1.427 . S
C977 H967 0.929 . S
C977 C975 1.433 . S
C977 N980 1.384 . S
C978 H969 0.929 . S
C978 C970 1.378 . S
C978 C973 1.350 . S
C979 H966 0.929 . S
C979 C971 1.433 . S
C979 N981 1.384 . S
N980 C976 1.427 . S
N980 C977 1.384 . S
N981 C973 1.427 . S
N981 C979 1.384 . S
H982 C988 0.930 . S
H983 C992 0.930 . S
H984 C997 0.929 . S
H985 C995 0.929 . S
H986 C990 0.929 . S
H987 C996 0.929 . S
C988 H982 0.930 . S
C988 C989 1.367 . S
C988 C996 1.378 . S
C989 C988 1.367 . S
C989 C997 1.433 . S
C990 H986 0.929 . S
C990 C992 1.378 . S
C990 C994 1.350 . S
C991 C994 1.463 . S
C991 C996 1.350 . S
C991 N999 1.427 . S
C992 H983 0.930 . S
C992 C990 1.378 . S
C992 C993 1.367 . S
C993 C992 1.367 . S
C993 C995 1.433 . S
C994 C990 1.350 . S
C994 C991 1.463 . S
C994 N998 1.427 . S
C995 H985 0.929 . S
C995 C993 1.433 . S
C995 N998 1.384 . S
C996 H987 0.929 . S
C996 C988 1.378 . S
C996 C991 1.350 . S
C997 H984 0.929 . S
C997 C989 1.433 . S
C997 N999 1.384 . S
N998 C994 1.427 . S
N998 C995 1.384 . S
N999 C991 1.427 . S
N999 C997 1.384 . S
H1000 C1006 0.930 . S
H1001 C1010 0.930 . S
H1002 C1015 0.929 . S
H1003 C1013 0.929 . S
H1004 C1008 0.929 . S
H1005 C1014 0.929 . S
C1006 H1000 0.930 . S
C1006 C1007 1.367 . S
C1006 C1014 1.378 . S
C1007 C1006 1.367 . S
C1007 C1015 1.433 . S
C1008 H1004 0.929 . S
C1008 C1010 1.378 . S
C1008 C1012 1.350 . S
C1009 C1012 1.463 1_554 S
C1009 C1014 1.350 . S
C1009 N1017 1.427 . S
C1010 H1001 0.930 . S
C1010 C1008 1.378 . S
C1010 C1011 1.367 . S
C1011 C1010 1.367 . S
C1011 C1013 1.433 . S
C1012 C1008 1.350 . S
C1012 C1009 1.463 1_556 S
C1012 N1016 1.427 . S
C1013 H1003 0.929 . S
C1013 C1011 1.433 . S
C1013 N1016 1.384 . S
C1014 H1005 0.929 . S
C1014 C1006 1.378 . S
C1014 C1009 1.350 . S
C1015 H1002 0.929 . S
C1015 C1007 1.433 . S
C1015 N1017 1.384 . S
N1016 C1012 1.427 . S
N1016 C1013 1.384 . S
N1017 C1009 1.427 . S
N1017 C1015 1.384 . S
H1018 C1024 0.930 . S
H1019 C1028 0.930 . S
H1020 C1033 0.929 . S
H1021 C1031 0.929 . S
H1022 C1026 0.929 . S
H1023 C1032 0.929 . S
C1024 H1018 0.930 . S
C1024 C1025 1.367 . S
C1024 C1032 1.378 . S
C1025 C1024 1.367 . S
C1025 C1033 1.433 . S
C1026 H1022 0.929 . S
C1026 C1028 1.378 . S
C1026 C1030 1.350 . S
C1027 C1030 1.463 . S
C1027 C1032 1.350 . S
C1027 N1035 1.427 . S
C1028 H1019 0.930 . S
C1028 C1026 1.378 . S
C1028 C1029 1.367 . S
C1029 C1028 1.367 . S
C1029 C1031 1.433 . S
C1030 C1026 1.350 . S
C1030 C1027 1.463 . S
C1030 N1034 1.427 . S
C1031 H1021 0.929 . S
C1031 C1029 1.433 . S
C1031 N1034 1.384 . S
C1032 H1023 0.929 . S
C1032 C1024 1.378 . S
C1032 C1027 1.350 . S
C1033 H1020 0.929 . S
C1033 C1025 1.433 . S
C1033 N1035 1.384 . S
N1034 C1030 1.427 . S
N1034 C1031 1.384 . S
N1035 C1027 1.427 . S
N1035 C1033 1.384 . S
H1036 C1042 0.930 . S
H1037 C1046 0.930 . S
H1038 C1051 0.929 . S
H1039 C1049 0.929 . S
H1040 C1044 0.929 . S
H1041 C1050 0.929 . S
C1042 H1036 0.930 . S
C1042 C1043 1.367 . S
C1042 C1050 1.378 . S
C1043 C1042 1.367 . S
C1043 C1051 1.433 . S
C1044 H1040 0.929 . S
C1044 C1046 1.378 . S
C1044 C1048 1.350 . S
C1045 C1048 1.463 1_554 S
C1045 C1050 1.350 . S
C1045 N1053 1.427 . S
C1046 H1037 0.930 . S
C1046 C1044 1.378 . S
C1046 C1047 1.367 . S
C1047 C1046 1.367 . S
C1047 C1049 1.433 . S
C1048 C1044 1.350 . S
C1048 C1045 1.463 1_556 S
C1048 N1052 1.427 . S
C1049 H1039 0.929 . S
C1049 C1047 1.433 . S
C1049 N1052 1.384 . S
C1050 H1041 0.929 . S
C1050 C1042 1.378 . S
C1050 C1045 1.350 . S
C1051 H1038 0.929 . S
C1051 C1043 1.433 . S
C1051 N1053 1.384 . S
N1052 C1048 1.427 . S
N1052 C1049 1.384 . S
N1053 C1045 1.427 . S
N1053 C1051 1.384 . S
H1054 C1060 0.930 . S
H1055 C1064 0.930 . S
H1056 C1069 0.929 . S
H1057 C1067 0.929 . S
H1058 C1062 0.929 . S
H1059 C1068 0.929 . S
C1060 H1054 0.930 . S
C1060 C1061 1.367 . S
C1060 C1068 1.378 . S
C1061 C1060 1.367 . S
C1061 C1069 1.433 . S
C1062 H1058 0.929 . S
C1062 C1064 1.378 . S
C1062 C1066 1.350 . S
C1063 C1066 1.463 . S
C1063 C1068 1.350 . S
C1063 N1071 1.427 . S
C1064 H1055 0.930 . S
C1064 C1062 1.378 . S
C1064 C1065 1.367 . S
C1065 C1064 1.367 . S
C1065 C1067 1.433 . S
C1066 C1062 1.350 . S
C1066 C1063 1.463 . S
C1066 N1070 1.427 . S
C1067 H1057 0.929 . S
C1067 C1065 1.433 . S
C1067 N1070 1.384 . S
C1068 H1059 0.929 . S
C1068 C1060 1.378 . S
C1068 C1063 1.350 . S
C1069 H1056 0.929 . S
C1069 C1061 1.433 . S
C1069 N1071 1.384 . S
N1070 C1066 1.427 . S
N1070 C1067 1.384 . S
N1071 C1063 1.427 . S
N1071 C1069 1.384 . S
H1072 C1078 0.930 . S
H1073 C1082 0.930 . S
H1074 C1087 0.929 . S
H1075 C1085 0.929 . S
H1076 C1080 0.929 . S
H1077 C1086 0.929 . S
C1078 H1072 0.930 . S
C1078 C1079 1.367 . S
C1078 C1086 1.378 . S
C1079 C1078 1.367 . S
C1079 C1087 1.433 . S
C1080 H1076 0.929 . S
C1080 C1082 1.378 . S
C1080 C1084 1.350 . S
C1081 C1084 1.463 . S
C1081 C1086 1.350 . S
C1081 N1089 1.427 . S
C1082 H1073 0.930 . S
C1082 C1080 1.378 . S
C1082 C1083 1.367 . S
C1083 C1082 1.367 . S
C1083 C1085 1.433 . S
C1084 C1080 1.350 . S
C1084 C1081 1.463 . S
C1084 N1088 1.427 . S
C1085 H1075 0.929 . S
C1085 C1083 1.433 . S
C1085 N1088 1.384 . S
C1086 H1077 0.929 . S
C1086 C1078 1.378 . S
C1086 C1081 1.350 . S
C1087 H1074 0.929 . S
C1087 C1079 1.433 . S
C1087 N1089 1.384 . S
N1088 C1084 1.427 . S
N1088 C1085 1.384 . S
N1089 C1081 1.427 . S
N1089 C1087 1.384 . S
H1090 C1096 0.930 . S
H1091 C1100 0.930 . S
H1092 C1105 0.929 . S
H1093 C1103 0.929 . S
H1094 C1098 0.929 . S
H1095 C1104 0.929 . S
C1096 H1090 0.930 . S
C1096 C1097 1.367 . S
C1096 C1104 1.378 . S
C1097 C1096 1.367 . S
C1097 C1105 1.433 . S
C1098 H1094 0.929 . S
C1098 C1100 1.378 . S
C1098 C1102 1.350 . S
C1099 C1102 1.463 . S
C1099 C1104 1.350 . S
C1099 N1107 1.427 . S
C1100 H1091 0.930 . S
C1100 C1098 1.378 . S
C1100 C1101 1.367 . S
C1101 C1100 1.367 . S
C1101 C1103 1.433 . S
C1102 C1098 1.350 . S
C1102 C1099 1.463 . S
C1102 N1106 1.427 . S
C1103 H1093 0.929 . S
C1103 C1101 1.433 . S
C1103 N1106 1.384 . S
C1104 H1095 0.929 . S
C1104 C1096 1.378 . S
C1104 C1099 1.350 . S
C1105 H1092 0.929 . S
C1105 C1097 1.433 . S
C1105 N1107 1.384 . S
N1106 C1102 1.427 . S
N1106 C1103 1.384 . S
N1107 C1099 1.427 . S
N1107 C1105 1.384 . S
H1108 C1114 0.930 . S
H1109 C1118 0.930 . S
H1110 C1123 0.929 . S
H1111 C1121 0.929 . S
H1112 C1116 0.929 . S
H1113 C1122 0.929 . S
C1114 H1108 0.930 . S
C1114 C1115 1.367 . S
C1114 C1122 1.378 . S
C1115 C1114 1.367 . S
C1115 C1123 1.433 . S
C1116 H1112 0.929 . S
C1116 C1118 1.378 . S
C1116 C1120 1.350 . S
C1117 C1120 1.463 . S
C1117 C1122 1.350 . S
C1117 N1125 1.427 . S
C1118 H1109 0.930 . S
C1118 C1116 1.378 . S
C1118 C1119 1.367 . S
C1119 C1118 1.367 . S
C1119 C1121 1.433 . S
C1120 C1116 1.350 . S
C1120 C1117 1.463 . S
C1120 N1124 1.427 . S
C1121 H1111 0.929 . S
C1121 C1119 1.433 . S
C1121 N1124 1.384 . S
C1122 H1113 0.929 . S
C1122 C1114 1.378 . S
C1122 C1117 1.350 . S
C1123 H1110 0.929 . S
C1123 C1115 1.433 . S
C1123 N1125 1.384 . S
N1124 C1120 1.427 . S
N1124 C1121 1.384 . S
N1125 C1117 1.427 . S
N1125 C1123 1.384 . S
H1126 C1132 0.930 . S
H1127 C1136 0.930 . S
H1128 C1141 0.929 . S
H1129 C1139 0.929 . S
H1130 C1134 0.929 . S
H1131 C1140 0.929 . S
C1132 H1126 0.930 . S
C1132 C1133 1.367 . S
C1132 C1140 1.378 . S
C1133 C1132 1.367 . S
C1133 C1141 1.433 . S
C1134 H1130 0.929 . S
C1134 C1136 1.378 . S
C1134 C1138 1.350 . S
C1135 C1138 1.463 . S
C1135 C1140 1.350 . S
C1135 N1143 1.427 . S
C1136 H1127 0.930 . S
C1136 C1134 1.378 . S
C1136 C1137 1.367 . S
C1137 C1136 1.367 . S
C1137 C1139 1.433 . S
C1138 C1134 1.350 . S
C1138 C1135 1.463 . S
C1138 N1142 1.427 . S
C1139 H1129 0.929 . S
C1139 C1137 1.433 . S
C1139 N1142 1.384 . S
C1140 H1131 0.929 . S
C1140 C1132 1.378 . S
C1140 C1135 1.350 . S
C1141 H1128 0.929 . S
C1141 C1133 1.433 . S
C1141 N1143 1.384 . S
N1142 C1138 1.427 . S
N1142 C1139 1.384 . S
N1143 C1135 1.427 . S
N1143 C1141 1.384 . S
H1144 C1150 0.930 . S
H1145 C1154 0.930 . S
H1146 C1159 0.929 . S
H1147 C1157 0.929 . S
H1148 C1152 0.929 . S
H1149 C1158 0.929 . S
C1150 H1144 0.930 . S
C1150 C1151 1.367 . S
C1150 C1158 1.378 . S
C1151 C1150 1.367 . S
C1151 C1159 1.433 . S
C1152 H1148 0.929 . S
C1152 C1154 1.378 . S
C1152 C1156 1.350 . S
C1153 C1156 1.463 . S
C1153 C1158 1.350 . S
C1153 N1161 1.427 . S
C1154 H1145 0.930 . S
C1154 C1152 1.378 . S
C1154 C1155 1.367 . S
C1155 C1154 1.367 . S
C1155 C1157 1.433 . S
C1156 C1152 1.350 . S
C1156 C1153 1.463 . S
C1156 N1160 1.427 . S
C1157 H1147 0.929 . S
C1157 C1155 1.433 . S
C1157 N1160 1.384 . S
C1158 H1149 0.929 . S
C1158 C1150 1.378 . S
C1158 C1153 1.350 . S
C1159 H1146 0.929 . S
C1159 C1151 1.433 . S
C1159 N1161 1.384 . S
N1160 C1156 1.427 . S
N1160 C1157 1.384 . S
N1161 C1153 1.427 . S
N1161 C1159 1.384 . S
H1162 C1168 0.930 . S
H1163 C1172 0.930 . S
H1164 C1177 0.929 . S
H1165 C1175 0.929 . S
H1166 C1170 0.929 . S
H1167 C1176 0.929 . S
C1168 H1162 0.930 . S
C1168 C1169 1.367 . S
C1168 C1176 1.378 . S
C1169 C1168 1.367 . S
C1169 C1177 1.433 . S
C1170 H1166 0.929 . S
C1170 C1172 1.378 . S
C1170 C1174 1.350 . S
C1171 C1174 1.463 . S
C1171 C1176 1.350 . S
C1171 N1179 1.427 . S
C1172 H1163 0.930 . S
C1172 C1170 1.378 . S
C1172 C1173 1.367 . S
C1173 C1172 1.367 . S
C1173 C1175 1.433 . S
C1174 C1170 1.350 . S
C1174 C1171 1.463 . S
C1174 N1178 1.427 . S
C1175 H1165 0.929 . S
C1175 C1173 1.433 . S
C1175 N1178 1.384 . S
C1176 H1167 0.929 . S
C1176 C1168 1.378 . S
C1176 C1171 1.350 . S
C1177 H1164 0.929 . S
C1177 C1169 1.433 . S
C1177 N1179 1.384 . S
N1178 C1174 1.427 . S
N1178 C1175 1.384 . S
N1179 C1171 1.427 . S
N1179 C1177 1.384 . S
H1180 C1186 0.930 . S
H1181 C1190 0.930 . S
H1182 C1195 0.929 . S
H1183 C1193 0.929 . S
H1184 C1188 0.929 . S
H1185 C1194 0.929 . S
C1186 H1180 0.930 . S
C1186 C1187 1.367 . S
C1186 C1194 1.378 . S
C1187 C1186 1.367 . S
C1187 C1195 1.433 . S
C1188 H1184 0.929 . S
C1188 C1190 1.378 . S
C1188 C1192 1.350 . S
C1189 C1192 1.463 . S
C1189 C1194 1.350 . S
C1189 N1197 1.427 . S
C1190 H1181 0.930 . S
C1190 C1188 1.378 . S
C1190 C1191 1.367 . S
C1191 C1190 1.367 . S
C1191 C1193 1.433 . S
C1192 C1188 1.350 . S
C1192 C1189 1.463 . S
C1192 N1196 1.427 . S
C1193 H1183 0.929 . S
C1193 C1191 1.433 . S
C1193 N1196 1.384 . S
C1194 H1185 0.929 . S
C1194 C1186 1.378 . S
C1194 C1189 1.350 . S
C1195 H1182 0.929 . S
C1195 C1187 1.433 . S
C1195 N1197 1.384 . S
N1196 C1192 1.427 . S
N1196 C1193 1.384 . S
N1197 C1189 1.427 . S
N1197 C1195 1.384 . S
H1198 C1204 0.930 . S
H1199 C1208 0.930 . S
H1200 C1213 0.929 . S
H1201 C1211 0.929 . S
H1202 C1206 0.929 . S
H1203 C1212 0.929 . S
C1204 H1198 0.930 . S
C1204 C1205 1.367 . S
C1204 C1212 1.378 . S
C1205 C1204 1.367 . S
C1205 C1213 1.433 . S
C1206 H1202 0.929 . S
C1206 C1208 1.378 . S
C1206 C1210 1.350 . S
C1207 C1210 1.463 . S
C1207 C1212 1.350 . S
C1207 N1215 1.427 . S
C1208 H1199 0.930 . S
C1208 C1206 1.378 . S
C1208 C1209 1.367 . S
C1209 C1208 1.367 . S
C1209 C1211 1.433 . S
C1210 C1206 1.350 . S
C1210 C1207 1.463 . S
C1210 N1214 1.427 . S
C1211 H1201 0.929 . S
C1211 C1209 1.433 . S
C1211 N1214 1.384 . S
C1212 H1203 0.929 . S
C1212 C1204 1.378 . S
C1212 C1207 1.350 . S
C1213 H1200 0.929 . S
C1213 C1205 1.433 . S
C1213 N1215 1.384 . S
N1214 C1210 1.427 . S
N1214 C1211 1.384 . S
N1215 C1207 1.427 . S
N1215 C1213 1.384 . S
C359 C9 1.464 . S
C363 C314 1.582 . S
C377 C31 1.461 . S
C381 C336 1.582 . S
C395 C49 1.458 . S
C399 C271 1.582 . S
C413 C292 1.577 . S
C417 C75 1.457 . S
C431 C229 1.577 . S
C435 C94 1.450 . S
C449 C247 1.577 . S
C453 C117 1.450 . S
C467 C181 1.582 . S
C471 C139 1.458 . S
C485 C203 1.577 . S
C489 C161 1.449 . S
C503 C185 1.447 . S
C507 C138 1.580 . S
C521 C160 1.578 . S
C525 C207 1.447 . S
C539 C95 1.579 . S
C543 C225 1.447 . S
C557 C116 1.577 . S
C561 C251 1.450 . S
C575 C53 1.582 . S
C579 C270 1.463 . S
C593 C293 1.465 . S
C597 C71 1.581 . S
C611 C5 1.577 . S
C615 C315 1.462 . S
C629 C337 1.447 . S
C633 C27 1.578 . S
C647 C4 1.602 . S
C651 C52 1.602 . S
C665 C70 1.602 . S
C669 C26 1.603 . S
C683 C136 1.602 . S
C687 C96 1.602 . S
C701 C158 1.602 . S
C705 C114 1.602 . S
C719 C228 1.603 . S
C723 C180 1.603 . S
C737 C246 1.603 . S
C741 C202 1.603 . S
C755 C312 1.602 . S
C759 C272 1.602 . S
C773 C290 1.603 . S
C777 C334 1.603 . S
C791 C8 1.533 . S
C795 C140 1.519 . S
C809 C30 1.530 . S
C813 C162 1.521 . S
C827 C92 1.529 . S
C831 C48 1.523 . S
C845 C74 1.528 . S
C849 C118 1.523 . S
C863 C184 1.531 . S
C867 C316 1.520 . S
C881 C338 1.532 . S
C885 C206 1.519 . S
C899 C268 1.520 . S
C903 C224 1.531 . S
C917 C250 1.523 . S
C921 C294 1.528 . S
C935 C6 0.819 . S
C939 C273 0.819 . S
C953 C291 0.792 . S
C957 C28 0.792 . S
C971 C313 0.809 . S
C975 C51 0.809 . S
C989 C335 0.790 . S
C993 C72 0.790 . S
C1007 C182 0.800 . S
C1011 C97 0.800 . S
C1025 C204 0.820 . S
C1029 C115 0.820 . S
C1043 C137 0.798 . S
C1047 C227 0.798 . S
C1061 C248 0.803 . S
C1065 C159 0.803 . S
C1079 C7 1.438 . S
C1083 C119 1.446 . S
C1097 C93 1.444 . S
C1101 C29 1.440 . S
C1115 C50 1.437 . S
C1119 C163 1.447 . S
C1133 C141 1.443 . S
C1137 C73 1.441 . S
C1151 C183 1.447 . S
C1155 C295 1.437 . S
C1169 C269 1.441 . S
C1173 C205 1.443 . S
C1187 C339 1.442 . S
C1191 C226 1.441 . S
C1205 C249 1.447 . S
C1209 C317 1.437 . S
