# Generated by pormake.
# Topology ung, (4)-cn, num edge types: 1
# Building blocks:
#     Node 0, Type 0, BuildingBlock: ICAMEG_clean_sbu_1, # of connection points: 4
#     Node 1, Type 0, BuildingBlock: ICAMEG_clean_sbu_1, # of connection points: 4
#     Node 2, Type 0, BuildingBlock: ICAMEG_clean_sbu_1, # of connection points: 4
#     Node 3, Type 0, BuildingBlock: ICAMEG_clean_sbu_1, # of connection points: 4
#     Node 4, Type 0, BuildingBlock: ICAMEG_clean_sbu_1, # of connection points: 4
#     Node 5, Type 0, BuildingBlock: ICAMEG_clean_sbu_1, # of connection points: 4
#     Node 6, Type 0, BuildingBlock: ICAMEG_clean_sbu_1, # of connection points: 4
#     Node 7, Type 0, BuildingBlock: ICAMEG_clean_sbu_1, # of connection points: 4
#     Node 8, Type 0, BuildingBlock: ICAMEG_clean_sbu_1, # of connection points: 4
#     Node 9, Type 0, BuildingBlock: ICAMEG_clean_sbu_1, # of connection points: 4
#     Node 10, Type 0, BuildingBlock: ICAMEG_clean_sbu_1, # of connection points: 4
#     Node 11, Type 0, BuildingBlock: ICAMEG_clean_sbu_1, # of connection points: 4
#     Node 12, Type 0, BuildingBlock: ICAMEG_clean_sbu_1, # of connection points: 4
#     Node 13, Type 0, BuildingBlock: ICAMEG_clean_sbu_1, # of connection points: 4
#     Node 14, Type 0, BuildingBlock: ICAMEG_clean_sbu_1, # of connection points: 4
#     Node 15, Type 0, BuildingBlock: ICAMEG_clean_sbu_1, # of connection points: 4
#     Node 16, Type 0, BuildingBlock: ICAMEG_clean_sbu_1, # of connection points: 4
#     Node 17, Type 0, BuildingBlock: ICAMEG_clean_sbu_1, # of connection points: 4
#     Edge 18, Type (0, 0), None
#     Edge 19, Type (0, 0), None
#     Edge 20, Type (0, 0), None
#     Edge 21, Type (0, 0), None
#     Edge 22, Type (0, 0), None
#     Edge 23, Type (0, 0), None
#     Edge 24, Type (0, 0), None
#     Edge 25, Type (0, 0), None
#     Edge 26, Type (0, 0), None
#     Edge 27, Type (0, 0), None
#     Edge 28, Type (0, 0), None
#     Edge 29, Type (0, 0), None
#     Edge 30, Type (0, 0), None
#     Edge 31, Type (0, 0), None
#     Edge 32, Type (0, 0), None
#     Edge 33, Type (0, 0), None
#     Edge 34, Type (0, 0), None
#     Edge 35, Type (0, 0), None
#     Edge 36, Type (0, 0), None
#     Edge 37, Type (0, 0), None
#     Edge 38, Type (0, 0), None
#     Edge 39, Type (0, 0), None
#     Edge 40, Type (0, 0), None
#     Edge 41, Type (0, 0), None
#     Edge 42, Type (0, 0), None
#     Edge 43, Type (0, 0), None
#     Edge 44, Type (0, 0), None
#     Edge 45, Type (0, 0), None
#     Edge 46, Type (0, 0), None
#     Edge 47, Type (0, 0), None
#     Edge 48, Type (0, 0), None
#     Edge 49, Type (0, 0), None
#     Edge 50, Type (0, 0), None
#     Edge 51, Type (0, 0), None
#     Edge 52, Type (0, 0), None
#     Edge 53, Type (0, 0), None
# Relax obj value: 0.037
# Max RMSD: 0.120
# Mean RMSD: 0.119
data_MOF--net-ung--node1-ICAMEG_clean_sbu_1--edge1-none
_symmetry_space_group_name_H-M    P1
_symmetry_Int_Tables_number       1
_symmetry_cell_setting            triclinic
loop_
_symmetry_equiv_pos_as_xyz
'x, y, z'
_cell_length_a     35.500389
_cell_length_b     35.402491
_cell_length_c     12.13333
_cell_angle_alpha  90.236107
_cell_angle_beta   90.2355
_cell_angle_gamma 119.96002
loop_
_atom_site_label
_atom_site_type_symbol
_atom_site_fract_x
_atom_site_fract_y
_atom_site_fract_z
_atom_type_partial_charge
Co0 Co 0.10151 0.65921 0.16584 0.0
Co1 Co 0.01891 0.61978 0.34161 0.0
O2 O 0.06028 0.61182 0.257 0.0
C3 C 0.06084 0.57278 0.04253 0.0
O4 O 0.02333 0.56604 0.07944 0.0
C5 C 0.06145 0.57986 0.47883 0.0
O6 O 0.09872 0.61046 0.44031 0.0
O7 O 0.06651 0.67021 0.42028 0.0
O8 O 0.10498 0.70726 0.27603 0.0
H9 H 0.96191 0.71589 0.46846 0.0
H10 H 0.13567 0.5969 0.18821 0.0
O11 O 0.09571 0.6104 0.05928 0.0
H12 H 0.2508 0.73945 0.32442 0.0
H13 H 0.24408 0.74744 0.97324 0.0
H14 H 0.10822 0.74098 0.08931 0.0
H15 H 0.17708 0.72579 0.30259 0.0
H16 H 0.18421 0.67989 0.04798 0.0
O17 O 0.02615 0.5815 0.45969 0.0
H18 H 0.01703 0.69933 0.40322 0.0
H19 H 0.93103 0.56403 0.45086 0.0
H20 H 0.16607 0.80805 0.00616 0.0
H21 H 0.21152 0.61387 0.18767 0.0
H22 H 0.2345 0.81152 0.94696 0.0
H23 H 0.26924 0.68383 0.26463 0.0
O24 O 0.05352 0.65886 0.07856 0.0
H25 H 0.91649 0.46208 0.34577 0.0
H26 H 0.94026 0.60185 0.20338 0.0
H27 H 0.86721 0.53861 0.19998 0.0
H28 H 0.85423 0.46807 0.27389 0.0
H29 H 0.99027 0.52426 0.33475 0.0
H30 H 0.87419 0.57926 0.50896 0.0
H31 H 0.88862 0.65541 0.51535 0.0
O32 O 1.01359 0.65806 0.21951 0.0
C33 C 0.09459 0.70569 0.37889 0.0
C34 C 0.95489 0.68242 0.46488 0.0
C35 C 0.90522 0.60582 0.48357 0.0
N36 N 0.97817 0.63046 0.42463 0.0
C37 C 0.9866 0.67269 0.43098 0.0
C38 C 0.93814 0.59739 0.45313 0.0
C39 C 0.91372 0.64857 0.49007 0.0
C40 C 0.16016 0.62805 0.22011 0.0
N41 N 0.15064 0.66021 0.24326 0.0
C42 C 0.20318 0.63687 0.22237 0.0
C43 C 0.23582 0.67664 0.26282 0.0
C44 C 0.22536 0.70767 0.29719 0.0
C45 C 0.18251 0.69892 0.2876 0.0
C46 C 0.21441 0.74634 -0.00092 0.0
C47 C 0.13751 0.74183 0.06164 0.0
C48 C 0.18034 0.70811 0.04181 0.0
N49 N 0.14279 0.70641 0.07467 0.0
C50 C 0.1704 0.78021 0.01622 0.0
C51 C 0.20899 0.78235 0.98452 0.0
C52 C 0.02284 0.6634 0.11579 0.0
C53 C 0.92181 0.49222 0.30994 0.0
C54 C 0.93661 0.57083 0.22634 0.0
C55 C 0.89435 0.53507 0.22703 0.0
C56 C 0.88692 0.49566 0.27015 0.0
N57 N 0.97031 0.56799 0.27349 0.0
C58 C 0.96374 0.52814 0.30513 0.0
Co59 Co 0.48677 0.45313 0.3434 0.0
Co60 Co 0.45026 0.49863 0.16658 0.0
O61 O 0.49651 0.50369 0.26184 0.0
C62 C 0.52721 0.53336 0.48781 0.0
O63 O 0.49716 0.54105 0.449 0.0
C64 C 0.53796 0.54781 0.0563 0.0
O65 O 0.54538 0.51751 0.09441 0.0
O66 O 0.45271 0.45188 0.07617 0.0
O67 O 0.44916 0.41116 0.21802 0.0
H68 H 0.30582 0.41543 0.98603 0.0
H69 H 0.58105 0.52012 0.33001 0.0
O70 O 0.52535 0.49652 0.46534 0.0
H71 H 0.56717 0.382 0.19821 0.0
H72 H 0.52005 0.34332 0.51066 0.0
H73 H 0.4053 0.37313 0.39724 0.0
H74 H 0.50302 0.38973 0.21369 0.0
H75 H 0.53906 0.41661 0.45096 0.0
O76 O 0.4996 0.54357 0.06689 0.0
H77 H 0.37269 0.42472 0.06976 0.0
H78 H 0.42783 0.56221 0.06001 0.0
H79 H 0.3853 0.30075 0.46293 0.0
H80 H 0.64552 0.51213 0.32206 0.0
H81 H 0.44317 0.28428 0.51304 0.0
H82 H 0.63893 0.44231 0.25646 0.0
O83 O 0.43696 0.45197 0.41832 0.0
H84 H 0.49478 0.65446 0.21727 0.0
H85 H 0.3815 0.50502 0.29839 0.0
H86 H 0.3675 0.56436 0.33021 0.0
H87 H 0.42398 0.64008 0.28912 0.0
H88 H 0.51101 0.59501 0.20106 0.0
H89 H 0.35908 0.55369 0.99032 0.0
H90 H 0.29746 0.47954 0.94971 0.0
O91 O 0.40106 0.45234 0.26943 0.0
C92 C 0.44786 0.41624 0.11315 0.0
C93 C 0.33182 0.44751 0.00516 0.0
C94 C 0.3617 0.52518 0.00836 0.0
N95 N 0.40424 0.49398 0.07173 0.0
C96 C 0.37051 0.45321 0.04927 0.0
C97 C 0.40066 0.52979 0.04823 0.0
C98 C 0.32713 0.48358 0.98593 0.0
C99 C 0.57767 0.48994 0.2992 0.0
N100 N 0.53759 0.45504 0.27642 0.0
C101 C 0.6147 0.48592 0.29306 0.0
C102 C 0.61097 0.44683 0.25665 0.0
C103 C 0.57069 0.41299 0.22292 0.0
C104 C 0.53429 0.41807 0.23019 0.0
C105 C 0.49471 0.34966 0.48513 0.0
C106 C 0.43087 0.3681 0.42787 0.0
C107 C 0.50526 0.3917 0.45469 0.0
N108 N 0.47363 0.40058 0.42411 0.0
C109 C 0.41913 0.32614 0.46181 0.0
C110 C 0.4515 0.31683 0.48929 0.0
C111 C 0.40181 0.44419 0.37317 0.0
C112 C 0.47127 0.62198 0.24361 0.0
C113 C 0.40859 0.53756 0.29063 0.0
C114 C 0.39965 0.5714 0.30609 0.0
C115 C 0.43112 0.61382 0.2817 0.0
N116 N 0.44771 0.54542 0.24841 0.0
C117 C 0.47988 0.58765 0.23293 0.0
Co118 Co 0.61336 1.00696 0.1683 0.0
Co119 Co 0.65718 0.09067 0.35123 0.0
O120 O 0.6083 0.04904 0.26366 0.0
C121 C 0.56931 0.0486 0.04824 0.0
O122 O 0.60092 0.08592 0.08568 0.0
C123 C 0.5752 0.04488 0.48967 0.0
O124 O 0.56584 1.00826 0.43996 0.0
O125 O 0.66554 0.04477 0.41729 0.0
O126 O 0.65849 1.00277 0.27417 0.0
H127 H 0.83235 0.18675 0.36923 0.0
H128 H 0.51738 0.97319 0.19241 0.0
O129 O 0.57038 0.01296 0.06493 0.0
H130 H 0.54444 0.85957 0.33907 0.0
H131 H 0.55651 0.85905 0.99349 0.0
H132 H 0.68559 1.00208 0.06773 0.0
H133 H 0.60465 0.9324 0.30998 0.0
H134 H 0.54878 0.92002 0.06133 0.0
O135 O 0.61356 0.07903 0.47822 0.0
H136 H 0.75417 0.11876 0.32525 0.0
H137 H 0.71413 0.17361 0.57067 0.0
H138 H 0.69486 0.94225 0.99699 0.0
H139 H 0.45811 0.89764 0.19927 0.0
H140 H 0.63021 0.86985 0.96027 0.0
H141 H 0.4701 0.84081 0.28213 0.0
O142 O 0.66048 0.05464 0.07737 0.0
H143 H 0.59442 0.18783 0.39036 0.0
H144 H 0.70899 0.1712 0.21032 0.0
H145 H 0.71234 0.24161 0.2065 0.0
H146 H 0.65592 0.25127 0.29973 0.0
H147 H 0.58801 0.11643 0.37781 0.0
H148 H 0.78958 0.25113 0.65874 0.0
H149 H 0.85189 0.24872 0.52538 0.0
O150 O 0.69767 0.10082 0.21312 0.0
C151 C 0.66988 0.0147 0.37571 0.0
C152 C 0.80557 0.18463 0.41499 0.0
C153 C 0.77867 0.22478 0.59812 0.0
N154 N 0.70791 0.13101 0.43947 0.0
C155 C 0.75363 0.14137 0.38348 0.0
C156 C 0.70049 0.15649 0.54127 0.0
C157 C 0.81865 0.22427 0.51513 0.0
C158 C 0.52409 0.94906 0.22601 0.0
N159 N 0.56576 0.9586 0.24814 0.0
C160 C 0.4896 0.90625 0.233 0.0
C161 C 0.49658 0.8741 0.27679 0.0
C162 C 0.53822 0.88477 0.3098 0.0
C163 C 0.57253 0.92726 0.29553 0.0
C164 C 0.58515 0.89007 0.0121 0.0
C165 C 0.65727 0.97087 0.05159 0.0
C166 C 0.58099 0.92486 0.05137 0.0
N167 N 0.61691 0.96431 0.07457 0.0
C168 C 0.66275 0.9369 0.01253 0.0
C169 C 0.62649 0.89614 0.99364 0.0
C170 C 0.69372 0.08952 0.10946 0.0
C171 C 0.61937 0.18424 0.34898 0.0
C172 C 0.68221 0.1732 0.24502 0.0
C173 C 0.68469 0.21387 0.24288 0.0
C174 C 0.65352 0.21958 0.29726 0.0
N175 N 0.64957 0.13896 0.30058 0.0
C176 C 0.61652 0.14357 0.34375 0.0
Co177 Co 0.01975 0.45417 0.84027 0.0
Co178 Co 0.10156 0.49738 0.66272 0.0
O179 O 0.06065 0.50379 0.75568 0.0
C180 C 0.06174 0.53655 0.97929 0.0
O181 O 0.09906 0.54379 0.93952 0.0
C182 C 0.0609 0.54284 0.54083 0.0
O183 O 0.02346 0.51159 0.57665 0.0
O184 O 0.053 0.45013 0.57519 0.0
O185 O 1.01436 0.41081 0.71698 0.0
H186 H 0.16282 0.41045 0.50105 0.0
H187 H 0.99058 0.52051 0.83629 0.0
O188 O 0.02668 0.49933 0.96008 0.0
H189 H 0.86781 0.38298 0.69843 0.0
H190 H 0.87517 0.34636 0.00217 0.0
H191 H 0.01993 0.37373 0.90131 0.0
H192 H 0.94079 0.39286 0.70236 0.0
H193 H 0.93081 0.41931 0.94678 0.0
O194 O 0.096 0.54064 0.55788 0.0
H195 H 0.1055 0.4215 0.57957 0.0
H196 H 0.1862 0.55864 0.54976 0.0
H197 H 0.96617 0.30153 0.96439 0.0
H198 H 0.91683 0.5089 0.84609 0.0
H199 H 0.89178 0.28621 0.00807 0.0
H200 H 0.85474 0.44065 0.7724 0.0
O201 O 0.06804 0.45216 0.91676 0.0
H202 H 0.21316 0.65281 0.68926 0.0
H203 H 0.17687 0.50566 0.79928 0.0
H204 H 0.25072 0.56517 0.82258 0.0
H205 H 0.2701 0.63958 0.76522 0.0
H206 H 0.13689 0.59425 0.68754 0.0
H207 H 0.24556 0.54896 0.47992 0.0
H208 H 0.23342 0.47443 0.44983 0.0
O209 O 0.10494 0.45241 0.77025 0.0
C210 C 0.02245 0.41494 0.6127 0.0
C211 C 0.16819 0.44303 0.51182 0.0
C212 C 0.21489 0.52079 0.50194 0.0
N213 N 0.14231 0.4908 0.57031 0.0
C214 C 0.13557 0.44961 0.55459 0.0
C215 C 0.18108 0.52609 0.54193 0.0
C216 C 0.20801 0.47889 0.48504 0.0
C217 C 0.96413 0.49011 0.80577 0.0
N218 N 0.97073 0.45681 0.77373 0.0
C219 C 0.92224 0.48415 0.80966 0.0
C220 C 0.88742 0.44577 0.76901 0.0
C221 C 0.89491 0.41375 0.72574 0.0
C222 C 0.93714 0.42025 0.72561 0.0
C223 C 0.90679 0.352 0.97859 0.0
C224 C 0.98923 0.36921 0.92892 0.0
C225 C 0.93906 0.39389 0.94985 0.0
N226 N 0.97969 0.40226 0.92278 0.0
C227 C 0.95821 0.32732 0.96132 0.0
C228 C 0.91648 0.31862 0.98487 0.0
C229 C 0.09549 0.44418 0.8735 0.0
C230 C 0.20433 0.62116 0.7223 0.0
C231 C 0.18257 0.53807 0.78536 0.0
C232 C 0.22555 0.57188 0.79586 0.0
C233 C 0.23656 0.61355 0.76259 0.0
N234 N 0.15108 0.54532 0.74091 0.0
C235 C 0.1611 0.58721 0.71907 0.0
Co236 Co 0.61084 0.65659 0.67019 0.0
Co237 Co 0.65478 0.61763 0.85574 0.0
O238 O 0.60588 0.61038 0.76794 0.0
C239 C 0.56401 0.56885 0.55305 0.0
O240 O 0.59393 0.56131 0.59355 0.0
C241 C 0.57414 0.58517 0.99593 0.0
O242 O 0.56607 0.6133 0.94681 0.0
O243 O 0.66465 0.67305 0.91782 0.0
O244 O 0.65653 0.70687 0.77395 0.0
H245 H 0.83028 0.69233 0.87398 0.0
H246 H 0.51452 0.59529 0.69475 0.0
O247 O 0.56717 0.60672 0.5679 0.0
H248 H 0.54366 0.73759 0.83765 0.0
H249 H 0.55541 0.74935 0.50077 0.0
H250 H 0.68225 0.73125 0.55872 0.0
H251 H 0.60309 0.72366 0.81094 0.0
H252 H 0.54641 0.67993 0.56515 0.0
O253 O 0.61157 0.58753 0.98336 0.0
H254 H 0.75292 0.68427 0.82756 0.0
H255 H 0.71044 0.59147 0.07771 0.0
H256 H 0.69352 0.80154 0.49591 0.0
H257 H 0.45597 0.61263 0.70073 0.0
H258 H 0.62953 0.81119 0.46505 0.0
H259 H 0.46903 0.68231 0.78147 0.0
O260 O 0.65802 0.65496 0.58129 0.0
H261 H 0.58471 0.45657 0.89026 0.0
H262 H 0.70531 0.58598 0.71969 0.0
H263 H 0.7052 0.51686 0.71614 0.0
H264 H 0.64594 0.45187 0.80621 0.0
H265 H 0.58264 0.52406 0.87923 0.0
H266 H 0.78444 0.58768 0.16762 0.0
H267 H 0.8478 0.65065 0.03587 0.0
O268 O 0.69498 0.64641 0.71833 0.0
C269 C 0.66899 0.70716 0.8747 0.0
C270 C 0.80304 0.66895 0.92076 0.0
C271 C 0.77424 0.60321 0.10608 0.0
N272 N 0.70545 0.62755 0.94448 0.0
C273 C 0.75164 0.66156 0.88797 0.0
C274 C 0.69712 0.5952 0.04775 0.0
C275 C 0.81489 0.64237 0.02283 0.0
C276 C 0.52164 0.62634 0.72838 0.0
N277 N 0.56353 0.6583 0.7498 0.0
C278 C 0.48755 0.63528 0.73468 0.0
C279 C 0.49516 0.67497 0.77701 0.0
C280 C 0.53697 0.70579 0.80947 0.0
C281 C 0.57083 0.69687 0.7965 0.0
C282 C 0.5837 0.74612 0.51639 0.0
C283 C 0.65461 0.73516 0.54759 0.0
C284 C 0.57883 0.70674 0.55395 0.0
N285 N 0.61431 0.70218 0.5741 0.0
C286 C 0.66099 0.77516 0.51127 0.0
C287 C 0.62527 0.78076 0.49623 0.0
C288 C 0.69131 0.65373 0.61501 0.0
C289 C 0.61127 0.48481 0.85215 0.0
C290 C 0.67767 0.55768 0.75341 0.0
C291 C 0.67811 0.5184 0.75148 0.0
C292 C 0.64526 0.48208 0.80383 0.0
N293 N 0.64548 0.56083 0.80695 0.0
C294 C 0.61071 0.52384 0.84717 0.0
Co295 Co 0.49409 0.09162 0.84941 0.0
Co296 Co 0.45311 1.00833 0.67111 0.0
O297 O 0.50007 0.04937 0.76264 0.0
C298 C 0.53308 0.04872 0.98525 0.0
O299 O 0.50129 1.01144 0.94828 0.0
C300 C 0.53977 0.04716 0.55203 0.0
O301 O 0.5486 0.08497 0.59342 0.0
O302 O 0.4526 0.05769 0.58777 0.0
O303 O 0.45413 0.09768 0.73183 0.0
H304 H 0.30617 0.94851 0.50295 0.0
H305 H 0.58737 0.11541 0.82615 0.0
O306 O 0.53331 0.08468 0.96371 0.0
H307 H 0.5762 0.24157 0.70156 0.0
H308 H 0.54652 0.2407 0.00907 0.0
H309 H 0.42055 0.09494 0.95885 0.0
H310 H 0.51133 0.17025 0.7142 0.0
H311 H 0.55624 0.1806 0.94867 0.0
O312 O 0.50093 0.01362 0.56296 0.0
H313 H 0.37587 1.00516 0.58212 0.0
H314 H 0.42621 0.91956 0.56736 0.0
H315 H 0.40919 0.15378 0.02587 0.0
H316 H 0.65237 0.18747 0.82204 0.0
H317 H 0.47245 0.22845 0.04359 0.0
H318 H 0.6472 0.25166 0.76015 0.0
O319 O 0.44352 0.044 0.92825 0.0
H320 H 0.50303 0.90065 0.70221 0.0
H321 H 0.38861 0.93234 0.80862 0.0
H322 H 0.37719 0.85953 0.83336 0.0
H323 H 0.43424 0.84256 0.77992 0.0
H324 H 0.51675 0.97551 0.69229 0.0
H325 H 0.35556 0.86006 0.50589 0.0
H326 H 0.2951 0.87449 0.46987 0.0
O327 O 0.40637 1.00442 0.78239 0.0
C328 C 0.44792 0.08852 0.62745 0.0
C329 C 0.33207 0.94166 0.51958 0.0
C330 C 0.35953 0.89189 0.5229 0.0
N331 N 0.40523 0.96625 0.5801 0.0
C332 C 0.37201 0.97417 0.56051 0.0
C333 C 0.39969 0.92592 0.55813 0.0
C334 C 0.32567 0.90006 0.50235 0.0
C335 C 0.58455 0.14257 0.79638 0.0
N336 N 0.54474 0.13832 0.7757 0.0
C337 C 0.62199 0.18338 0.79191 0.0
C338 C 0.61902 0.2193 0.75773 0.0
C339 C 0.57912 0.2136 0.72377 0.0
C340 C 0.54224 0.17232 0.72944 0.0
C341 C 0.5182 0.20938 0.99161 0.0
C342 C 0.44806 0.12681 0.96645 0.0
C343 C 0.52359 0.17477 0.95831 0.0
N344 N 0.48853 0.13456 0.9386 0.0
C345 C 0.44143 0.16028 0.00429 0.0
C346 C 0.47674 0.20216 0.01351 0.0
C347 C 0.40843 0.01422 0.88598 0.0
C348 C 0.47918 0.90847 0.73305 0.0
C349 C 0.41597 0.92775 0.79469 0.0
C350 C 0.40856 0.88536 0.80683 0.0
C351 C 0.44027 0.87564 0.77497 0.0
N352 N 0.45357 0.95962 0.74755 0.0
C353 C 0.48629 0.95093 0.72556 0.0
Co354 Co 0.68946 0.95564 0.68055 0.0
Co355 Co 0.76992 0.99039 0.4974 0.0
O356 O 0.72926 0.94547 0.59571 0.0
C357 C 0.73166 0.91616 0.82457 0.0
O358 O 0.76903 0.94486 0.78209 0.0
C359 C 0.72471 0.90126 0.38307 0.0
O360 O 0.68783 0.89599 0.42072 0.0
O361 O 0.72156 0.99116 0.41404 0.0
O362 O 0.68302 0.99226 0.55554 0.0
H363 H 0.85396 0.13977 0.33456 0.0
H364 H 0.65962 0.85987 0.68311 0.0
O365 O 0.69691 0.91861 0.80299 0.0
H366 H 0.53739 0.87235 0.53344 0.0
H367 H 0.54719 0.92324 0.84955 0.0
H368 H 0.69177 0.03758 0.73845 0.0
H369 H 0.60969 0.93644 0.54404 0.0
H370 H 0.60079 0.90368 0.7895 0.0
O371 O 0.76022 0.9386 0.39594 0.0
H372 H 0.79273 0.08091 0.43471 0.0
H373 H 0.83708 0.99352 0.34798 0.0
H374 H 0.6399 0.05811 0.8043 0.0
H375 H 0.58617 0.79694 0.68847 0.0
H376 H 0.56554 1.00051 0.85291 0.0
H377 H 0.52445 0.80196 0.60825 0.0
O378 O 0.73871 1.00678 0.75225 0.0
H379 H 0.87644 0.93938 0.52705 0.0
H380 H 0.84882 0.05819 0.61812 0.0
H381 H 0.92149 0.06916 0.64273 0.0
H382 H 0.9365 1.01 0.59369 0.0
H383 H 0.80154 0.92584 0.52491 0.0
H384 H 0.89828 0.05173 0.24536 0.0
H385 H 0.90652 0.12535 0.23764 0.0
O386 O 0.77691 0.04139 0.60479 0.0
C387 C 0.691 0.99601 0.45117 0.0
C388 C 0.84982 0.10758 0.33549 0.0
C389 C 0.87486 0.05811 0.28556 0.0
N390 N 0.81118 0.03359 0.39719 0.0
C391 C 0.8156 0.07415 0.39334 0.0
C392 C 0.83996 0.02525 0.34307 0.0
C393 C 0.87955 0.09945 0.28124 0.0
C394 C 0.63324 0.86345 0.65094 0.0
N395 N 0.6397 0.90316 0.61805 0.0
C396 C 0.59154 0.82707 0.65217 0.0
C397 C 0.55695 0.82995 0.60766 0.0
C398 C 0.5644 0.86928 0.56384 0.0
C399 C 0.60624 0.90559 0.56789 0.0
C400 C 0.57884 0.9485 0.82398 0.0
C401 C 0.66119 0.01207 0.76847 0.0
C402 C 0.60998 0.93763 0.79281 0.0
N403 N 0.65065 0.96911 0.76359 0.0
C404 C 0.63122 0.02413 0.80243 0.0
C405 C 0.58953 0.99192 0.82901 0.0
C406 C 0.76681 0.04155 0.70772 0.0
C407 C 0.86965 0.96437 0.55503 0.0
C408 C 0.8529 0.03026 0.6077 0.0
C409 C 0.89509 0.03735 0.61885 0.0
C410 C 0.9036 1.00434 0.5905 0.0
N411 N 0.81953 0.99101 0.57035 0.0
C412 C 0.82722 0.95732 0.55193 0.0
Co413 Co 0.15393 0.78766 0.67842 0.0
Co414 Co 0.11783 0.83244 0.49 0.0
O415 O 0.16211 0.8357 0.5894 0.0
C416 C 0.19886 0.87285 0.80836 0.0
O417 O 0.17281 0.88391 0.75989 0.0
C418 C 0.20721 0.87306 0.37633 0.0
O419 O 0.21294 0.84184 0.41564 0.0
O420 O 0.11381 0.78014 0.41274 0.0
O421 O 0.11603 0.74272 0.55768 0.0
H422 H 0.01752 0.90113 0.36824 0.0
H423 H 0.25071 0.85247 0.68407 0.0
O424 O 0.19222 0.83347 0.79685 0.0
H425 H 0.23539 0.71901 0.51652 0.0
H426 H 0.18908 0.67575 0.82336 0.0
H427 H 0.07868 0.71862 0.81234 0.0
H428 H 0.17256 0.72848 0.53 0.0
H429 H 0.20871 0.74861 0.76861 0.0
O430 O 0.17001 0.87107 0.38819 0.0
H431 H 0.03867 0.8522 0.49974 0.0
H432 H 0.09309 0.838 0.21368 0.0
H433 H 0.05788 0.64438 0.86295 0.0
H434 H 0.31197 0.8397 0.68791 0.0
H435 H 0.11225 0.6202 0.85371 0.0
H436 H 0.30584 0.77391 0.59749 0.0
O437 O 0.10247 0.78667 0.74753 0.0
H438 H 0.16757 0.99347 0.50265 0.0
H439 H 0.07628 0.8546 0.6877 0.0
H440 H 0.07537 0.91861 0.74861 0.0
H441 H 0.11892 0.98877 0.6542 0.0
H442 H 0.17351 0.93136 0.45207 0.0
H443 H 0.08298 0.88601 0.03348 0.0
H444 H 0.03585 0.91753 0.14838 0.0
O445 O 0.06652 0.79158 0.60069 0.0
C446 C 0.11096 0.74573 0.45295 0.0
C447 C 0.0331 0.88527 0.32976 0.0
C448 C 0.07498 0.87667 0.11934 0.0
N449 N 0.07603 0.83165 0.37996 0.0
C450 C 0.04778 0.85415 0.41474 0.0
C451 C 0.09393 0.82962 0.25984 0.0
C452 C 0.04526 0.89662 0.19026 0.0
C453 C 0.24611 0.82254 0.64884 0.0
N454 N 0.20609 0.79033 0.6134 0.0
C455 C 0.28186 0.81618 0.64836 0.0
C456 C 0.27837 0.77926 0.59812 0.0
C457 C 0.23906 0.74893 0.55039 0.0
C458 C 0.20328 0.75529 0.55658 0.0
C459 C 0.16378 0.68328 0.80813 0.0
C460 C 0.10284 0.70923 0.80592 0.0
C461 C 0.17477 0.72545 0.77867 0.0
N462 N 0.1439 0.73751 0.76914 0.0
C463 C 0.09065 0.66666 0.83629 0.0
C464 C 0.12103 0.65307 0.83189 0.0
C465 C 0.06738 0.78105 0.70429 0.0
C466 C 0.14817 0.96301 0.54523 0.0
C467 C 0.09802 0.88424 0.64751 0.0
C468 C 0.09655 0.92104 0.68289 0.0
C469 C 0.1209 0.96039 0.62963 0.0
N470 N 0.1235 0.88604 0.56049 0.0
C471 C 0.15097 0.92632 0.51636 0.0
Co472 Co 0.32165 0.4212 0.67008 0.0
Co473 Co 0.27825 0.33858 0.48367 0.0
O474 O 0.27253 0.37761 0.58705 0.0
C475 C 0.24149 0.38094 0.8136 0.0
O476 O 0.23679 0.34289 0.7876 0.0
C477 C 0.23166 0.38228 0.37436 0.0
O478 O 0.26305 0.4201 0.40957 0.0
O479 O 0.32702 0.38949 0.40424 0.0
O480 O 0.36531 0.42784 0.54951 0.0
H481 H 0.20553 0.1721 0.33557 0.0
H482 H 0.25243 0.44692 0.66324 0.0
O483 O 0.27763 0.41565 0.78971 0.0
H484 H 0.38636 0.57208 0.52465 0.0
H485 H 0.42269 0.56849 0.838 0.0
H486 H 0.40078 0.4242 0.74843 0.0
H487 H 0.37969 0.50032 0.53044 0.0
H488 H 0.35233 0.51119 0.77305 0.0
O489 O 0.23501 0.34776 0.38726 0.0
H490 H 0.27205 0.28154 0.39768 0.0
H491 H 0.27797 0.31458 0.20099 0.0
H492 H 0.4708 0.47954 0.82989 0.0
H493 H 0.26182 0.52003 0.67579 0.0
H494 H 0.48328 0.55355 0.86542 0.0
H495 H 0.32798 0.58318 0.60004 0.0
O496 O 0.3263 0.37285 0.74149 0.0
H497 H 0.12228 0.21568 0.50039 0.0
H498 H 0.26773 0.26991 0.65701 0.0
H499 H 0.21146 0.19762 0.69709 0.0
H500 H 0.13719 0.16924 0.62357 0.0
H501 H 0.17886 0.28846 0.45794 0.0
H502 H 0.23034 0.26043 0.01188 0.0
H503 H 0.19217 0.17979 0.11802 0.0
O504 O 0.32347 0.3332 0.59217 0.0
C505 C 0.36167 0.42074 0.44478 0.0
C506 C 0.22305 0.20446 0.30306 0.0
C507 C 0.2382 0.25981 0.09868 0.0
N508 N 0.28078 0.29948 0.36865 0.0
C509 C 0.25467 0.2473 0.39664 0.0
C510 C 0.28596 0.32272 0.24835 0.0
C511 C 0.2144 0.2088 0.16347 0.0
C512 C 0.28228 0.47397 0.63366 0.0
N513 N 0.31631 0.46865 0.60229 0.0
C514 C 0.28688 0.51546 0.63859 0.0
C515 C 0.32403 0.55084 0.5966 0.0
C516 C 0.35637 0.54439 0.55202 0.0
C517 C 0.35169 0.50275 0.55321 0.0
C518 C 0.41892 0.53733 0.81479 0.0
C519 C 0.405 0.45518 0.77155 0.0
C520 C 0.37844 0.50415 0.77939 0.0
N521 N 0.372 0.46377 0.75453 0.0
C522 C 0.44522 0.48689 0.81364 0.0
C523 C 0.45239 0.52854 0.83313 0.0
C524 C 0.33329 0.34426 0.69695 0.0
C525 C 0.15407 0.22844 0.5378 0.0
C526 C 0.23619 0.26114 0.62641 0.0
C527 C 0.2037 0.2187 0.65057 0.0
C528 C 0.16236 0.20235 0.60666 0.0
N529 N 0.22883 0.28697 0.55513 0.0
C530 C 0.18737 0.27067 0.5141 0.0
Co531 Co 0.68417 0.78309 0.18119 0.0
Co532 Co 0.76789 0.82965 0.01064 0.0
O533 O 0.72482 0.83323 0.10086 0.0
C534 C 0.72478 0.86351 0.32546 0.0
O535 O 0.76236 0.86817 0.29679 0.0
C536 C 0.72993 0.87938 0.89164 0.0
O537 O 0.69178 0.84849 0.92466 0.0
O538 O 0.72064 0.78286 0.91558 0.0
O539 O 0.6805 0.74172 0.05438 0.0
H540 H 0.84264 0.75733 0.83731 0.0
H541 H 0.65456 0.84913 0.17517 0.0
O542 O 0.68935 0.82722 0.3021 0.0
H543 H 0.53291 0.71169 0.03278 0.0
H544 H 0.54215 0.67459 0.35444 0.0
H545 H 0.68494 0.70263 0.2323 0.0
H546 H 0.60573 0.72113 0.04453 0.0
H547 H 0.5957 0.74726 0.28988 0.0
O548 O 0.76436 0.87625 0.91236 0.0
H549 H 0.78065 0.75926 0.92162 0.0
H550 H 0.84938 0.89746 0.9059 0.0
H551 H 0.6331 0.63066 0.30169 0.0
H552 H 0.58076 0.83791 0.178 0.0
H553 H 0.55987 0.61528 0.35761 0.0
H554 H 0.51941 0.7698 0.10124 0.0
O555 O 0.73248 0.78116 0.25874 0.0
H556 H 0.85622 0.97963 0.17283 0.0
H557 H 0.84761 0.83815 0.1187 0.0
H558 H 0.91542 0.90032 0.18684 0.0
H559 H 0.91973 0.97174 0.2175 0.0
H560 H 0.78932 0.91636 0.09395 0.0
H561 H 0.91288 0.89673 0.82642 0.0
H562 H 0.90912 0.82579 0.78911 0.0
O563 O 0.77091 0.78309 0.11372 0.0
C564 C 0.68937 0.74701 0.95027 0.0
C565 C 0.84435 0.78799 0.85244 0.0
C566 C 0.884 0.86641 0.84701 0.0
N567 N 0.81143 0.82835 0.91834 0.0
C568 C 0.80919 0.78936 0.89854 0.0
C569 C 0.8478 0.86657 0.89085 0.0
C570 C 0.88189 0.82664 0.82635 0.0
C571 C 0.62833 0.81876 0.14373 0.0
N572 N 0.63509 0.78533 0.11398 0.0
C573 C 0.58648 0.81303 0.14349 0.0
C574 C 0.55204 0.77471 0.10127 0.0
C575 C 0.55979 0.74242 0.06107 0.0
C576 C 0.60184 0.74859 0.06568 0.0
C577 C 0.57327 0.68041 0.3259 0.0
C578 C 0.6546 0.69781 0.26392 0.0
C579 C 0.60434 0.72207 0.29237 0.0
N580 N 0.64452 0.73052 0.26067 0.0
C581 C 0.62475 0.65618 0.30023 0.0
C582 C 0.58365 0.64747 0.33075 0.0
C583 C 0.76092 0.77429 0.21685 0.0
C584 C 0.85424 0.9486 0.16123 0.0
C585 C 0.84868 0.86883 0.1322 0.0
C586 C 0.88751 0.90409 0.17019 0.0
C587 C 0.89008 0.94419 0.1862 0.0
N588 N 0.81467 0.87432 0.10016 0.0
C589 C 0.81676 0.91321 0.11676 0.0
Co590 Co 0.32494 0.95041 0.17748 0.0
Co591 Co 0.28562 0.99369 0.99449 0.0
O592 O 0.27634 0.94589 0.09072 0.0
C593 C 0.2444 0.9109 0.31835 0.0
O594 O 0.24122 0.94523 0.29441 0.0
C595 C 0.23684 0.9071 0.87311 0.0
O596 O 0.26339 0.89631 0.92007 0.0
O597 O 0.33319 0.98956 0.91659 0.0
O598 O 0.37093 0.98991 0.06245 0.0
H599 H 0.38399 0.13635 0.81677 0.0
H600 H 0.25587 0.85569 0.15999 0.0
O601 O 0.27948 0.91064 0.29212 0.0
H602 H 0.39161 0.86691 0.0261 0.0
H603 H 0.41884 0.89678 0.3476 0.0
H604 H 0.40522 0.02405 0.25814 0.0
H605 H 0.38476 0.93175 0.03862 0.0
H606 H 0.34974 0.88775 0.28296 0.0
O607 O 0.24391 0.94667 0.88305 0.0
H608 H 0.36204 0.06175 0.86853 0.0
H609 H 0.23135 0.03186 0.89401 0.0
H610 H 0.47397 0.03542 0.33971 0.0
H611 H 0.26535 0.7919 0.1662 0.0
H612 H 0.48172 0.971 0.37814 0.0
H613 H 0.33226 0.79613 0.09201 0.0
O614 O 0.32967 1.00267 0.25613 0.0
H615 H 0.12983 0.95906 0.00404 0.0
H616 H 0.27597 0.05639 0.15133 0.0
H617 H 0.21839 0.07213 0.18567 0.0
H618 H 0.1443 0.02342 0.1157 0.0
H619 H 0.18681 0.94211 0.97199 0.0
H620 H 0.25158 0.10482 0.83965 0.0
H621 H 0.32888 0.16005 0.8156 0.0
O622 O 0.32923 0.04037 0.10903 0.0
C623 C 0.36828 0.99494 0.95818 0.0
C624 C 0.3506 0.11384 0.83847 0.0
C625 C 0.27669 0.09679 0.85543 0.0
N626 N 0.29615 0.04272 0.89984 0.0
C627 C 0.33787 0.07117 0.86859 0.0
C628 C 0.26533 0.05468 0.88589 0.0
C629 C 0.31991 0.12715 0.83699 0.0
C630 C 0.28593 0.85889 0.1305 0.0
N631 N 0.32028 0.89874 0.10392 0.0
C632 C 0.29057 0.822 0.13171 0.0
C633 C 0.32827 0.8245 0.09116 0.0
C634 C 0.36122 0.86407 0.05212 0.0
C635 C 0.35646 0.90092 0.05703 0.0
C636 C 0.41671 0.92524 0.3257 0.0
C637 C 0.40784 0.99649 0.28159 0.0
C638 C 0.3772 0.92026 0.28993 0.0
N639 N 0.37345 0.95568 0.26427 0.0
C640 C 0.44717 1.00291 0.32403 0.0
C641 C 0.45173 0.96687 0.34437 0.0
C642 C 0.33717 0.03854 0.21317 0.0
C643 C 0.16153 0.97916 0.04099 0.0
C644 C 0.24392 0.03212 0.12569 0.0
C645 C 0.21106 0.04209 0.14501 0.0
C646 C 0.16963 0.01534 0.10311 0.0
N647 N 0.23639 0.99656 0.06292 0.0
C648 C 0.19493 0.9698 0.0232 0.0
Co649 Co 0.15369 0.42103 0.17136 0.0
Co650 Co 0.11478 0.33872 0.98321 0.0
O651 O 0.1596 0.37801 0.08649 0.0
C652 C 0.19255 0.3802 0.31848 0.0
O653 O 0.1581 0.34217 0.29822 0.0
C654 C 0.20501 0.38304 0.87241 0.0
O655 O 0.21238 0.42058 0.91253 0.0
O656 O 0.11528 0.38917 0.90517 0.0
O657 O 0.11605 0.42785 0.05102 0.0
H658 H 1.00851 0.17056 0.85299 0.0
H659 H 0.249 0.44812 0.16845 0.0
O660 O 0.1922 0.41513 0.29026 0.0
H661 H 0.23847 0.57085 0.01556 0.0
H662 H 0.1987 0.56999 0.32672 0.0
H663 H 0.07939 0.42059 0.28787 0.0
H664 H 0.17396 0.49925 0.02612 0.0
H665 H 0.21284 0.51311 0.26672 0.0
O666 O 0.16689 0.34876 0.88395 0.0
H667 H 0.06158 0.28188 0.90159 0.0
H668 H 0.09145 0.30956 0.70266 0.0
H669 H 0.06357 0.47702 0.34958 0.0
H670 H 0.31185 0.52153 0.17841 0.0
H671 H 0.12317 0.55375 0.35848 0.0
H672 H 0.30808 0.58344 0.09501 0.0
O673 O 0.1013 0.37211 0.24159 0.0
H674 H 0.15432 0.21991 0.00286 0.0
H675 H 0.05826 0.26887 0.15437 0.0
H676 H 0.04633 0.19803 0.1985 0.0
H677 H 0.09468 0.17241 0.1274 0.0
H678 H 0.16753 0.29179 0.95923 0.0
H679 H 0.08028 0.24952 0.52374 0.0
H680 H 0.02916 0.17171 0.63619 0.0
O681 O 0.06447 0.33231 0.09256 0.0
C682 C 0.11195 0.42046 0.9461 0.0
C683 C 0.02663 0.20208 0.81737 0.0
C684 C 0.07161 0.2516 0.60871 0.0
N685 N 0.07242 0.29914 0.87022 0.0
C686 C 0.04183 0.24779 0.90467 0.0
C687 C 0.09237 0.31905 0.74836 0.0
C688 C 0.03985 0.20233 0.67872 0.0
C689 C 0.24567 0.47465 0.13641 0.0
N690 N 0.20612 0.46866 0.10351 0.0
C691 C 0.28215 0.51631 0.13961 0.0
C692 C 0.27996 0.55098 0.09331 0.0
C693 C 0.24109 0.54367 0.04649 0.0
C694 C 0.20442 0.50201 0.05046 0.0
C695 C 0.17162 0.53815 0.30801 0.0
C696 C 0.1053 0.4534 0.29001 0.0
C697 C 0.17952 0.50507 0.27523 0.0
N698 N 0.14621 0.46349 0.25893 0.0
C699 C 0.09614 0.48548 0.32551 0.0
C700 C 0.12945 0.52847 0.33055 0.0
C701 C 0.06586 0.34328 0.19715 0.0
C702 C 0.13447 0.2317 0.03982 0.0
C703 C 0.08203 0.26128 0.12499 0.0
C704 C 0.07444 0.21972 0.15142 0.0
C705 C 0.10089 0.20491 0.10906 0.0
N706 N 0.11443 0.2877 0.05341 0.0
C707 C 0.14128 0.27313 0.01437 0.0
Co708 Co 0.43896 0.32742 0.83241 0.0
Co709 Co 0.35432 0.28687 0.01297 0.0
O710 O 0.39638 0.28054 0.92586 0.0
C711 C 0.39628 0.24167 0.70779 0.0
O712 O 0.35899 0.23654 0.74187 0.0
C713 C 0.40174 0.25108 0.15336 0.0
O714 O 0.4378 0.27723 0.10177 0.0
O715 O 0.3988 0.34251 0.0771 0.0
O716 O 0.44453 0.37669 0.94023 0.0
H717 H 0.24687 0.35518 0.02497 0.0
H718 H 0.46892 0.26165 0.85483 0.0
O719 O 0.43175 0.27832 0.72627 0.0
H720 H 0.58655 0.39986 0.0052 0.0
H721 H 0.58528 0.41077 0.64954 0.0
H722 H 0.45112 0.4095 0.75104 0.0
H723 H 0.5143 0.39023 0.97822 0.0
H724 H 0.52273 0.34447 0.72068 0.0
O725 O 0.36785 0.256 0.14173 0.0
H726 H 0.31842 0.35068 0.98017 0.0
H727 H 0.27277 0.25945 0.23389 0.0
H728 H 0.51171 0.47648 0.67409 0.0
H729 H 0.54353 0.27548 0.85582 0.0
H730 H 0.57968 0.4773 0.6219 0.0
H731 H 0.60245 0.34303 0.94082 0.0
O732 O 0.3918 0.33002 0.74308 0.0
H733 H 0.26381 0.12728 0.05698 0.0
H734 H 0.27275 0.25474 0.87268 0.0
H735 H 0.20325 0.18616 0.87634 0.0
H736 H 0.19772 0.12212 0.97155 0.0
H737 H 0.33355 0.19323 0.03689 0.0
H738 H 0.19273 0.2509 0.31802 0.0
H739 H 0.18827 0.31134 0.18533 0.0
O740 O 0.34286 0.31602 0.87483 0.0
C741 C 0.42992 0.37655 0.03784 0.0
C742 C 0.25259 0.33313 0.07308 0.0
C743 C 0.21913 0.26853 0.26062 0.0
N744 N 0.31263 0.29582 0.10014 0.0
C745 C 0.29807 0.32797 0.04152 0.0
C746 C 0.29004 0.26379 0.20442 0.0
C747 C 0.21497 0.30583 0.17543 0.0
C748 C 0.49409 0.29226 0.88782 0.0
N749 N 0.48624 0.32549 0.9118 0.0
C750 C 0.53635 0.2991 0.89185 0.0
C751 C 0.56961 0.33749 0.93686 0.0
C752 C 0.56052 0.36922 0.97372 0.0
C753 C 0.51857 0.3628 0.96065 0.0
C754 C 0.55594 0.41101 0.67203 0.0
C755 C 0.47977 0.40953 0.72544 0.0
C756 C 0.5203 0.37345 0.71338 0.0
N757 N 0.48289 0.37321 0.74132 0.0
C758 C 0.51438 0.44758 0.68337 0.0
C759 C 0.55267 0.44822 0.65595 0.0
C760 C 0.35589 0.32658 0.77368 0.0
C761 C 0.26552 0.15493 0.01506 0.0
C762 C 0.27213 0.22662 0.90823 0.0
C763 C 0.23218 0.18767 0.91003 0.0
C764 C 0.22873 0.15196 0.96606 0.0
N765 N 0.30758 0.23001 0.96241 0.0
C766 C 0.30524 0.19328 0.0056 0.0
Co767 Co 0.8219 0.12303 0.01171 0.0
Co768 Co 0.78437 0.1661 0.82417 0.0
O769 O 0.82852 0.17148 0.92801 0.0
C770 C 0.85877 0.20518 0.15071 0.0
O771 O 0.83081 0.21414 0.10391 0.0
C772 C 0.8762 0.21534 0.726 0.0
O773 O 0.88381 0.18537 0.76557 0.0
O774 O 0.78618 0.11689 0.74197 0.0
O775 O 0.78812 0.07912 0.88527 0.0
H776 H 0.69949 0.24567 0.66664 0.0
H777 H 0.9195 0.18636 0.05691 0.0
O778 O 0.85503 0.16709 0.13693 0.0
H779 H 0.91133 0.06583 0.83791 0.0
H780 H 0.81529 0.98165 0.01689 0.0
H781 H 0.76025 0.06768 0.20638 0.0
H782 H 0.85269 0.08173 0.82874 0.0
H783 H 0.82768 0.07429 0.06244 0.0
O784 O 0.8374 0.21006 0.73199 0.0
H785 H 0.73581 0.17465 0.7358 0.0
H786 H 0.76142 0.16382 0.54181 0.0
H787 H 0.72172 0.98819 0.22181 0.0
H788 H 0.97748 0.16917 0.07211 0.0
H789 H 0.74839 0.94533 0.13111 0.0
H790 H 0.97185 0.10553 0.97024 0.0
O791 O 0.76824 0.11764 0.07515 0.0
H792 H 0.82628 0.32381 0.86195 0.0
H793 H 0.72104 0.17597 0.97936 0.0
H794 H 0.70779 0.23461 0.01974 0.0
H795 H 0.75991 0.30969 0.96133 0.0
H796 H 0.84252 0.26576 0.83338 0.0
H797 H 0.75954 0.21162 0.34881 0.0
H798 H 0.72092 0.25525 0.44907 0.0
O799 O 0.7324 0.12072 0.92704 0.0
C800 C 0.7834 0.08229 0.78073 0.0
C801 C 0.71333 0.22674 0.63612 0.0
C802 C 0.75083 0.20527 0.43572 0.0
N803 N 0.74384 0.16443 0.70806 0.0
C804 C 0.72113 0.19403 0.73224 0.0
C805 C 0.76079 0.15604 0.58965 0.0
C806 C 0.72663 0.23297 0.49703 0.0
C807 C 0.91577 0.15859 0.01158 0.0
N808 N 0.87835 0.13125 0.95458 0.0
C809 C 0.9496 0.14942 0.01982 0.0
C810 C 0.94665 0.11409 0.96199 0.0
C811 C 0.913 0.09222 0.88659 0.0
C812 C 0.87971 0.10234 0.88085 0.0
C813 C 0.80422 1.00066 0.0613 0.0
C814 C 0.77351 0.04973 0.16647 0.0
C815 C 0.82781 0.04553 0.04867 0.0
N816 N 0.81097 0.07046 0.09602 0.0
C817 C 0.75197 1.00483 0.17845 0.0
C818 C 0.76683 0.98042 0.12471 0.0
C819 C 0.73327 0.11129 0.03143 0.0
C820 C 0.80432 0.29153 0.8928 0.0
C821 C 0.74677 0.20801 0.96004 0.0
C822 C 0.7382 0.24169 0.98256 0.0
C823 C 0.76696 0.28362 0.94772 0.0
N824 N 0.78263 0.21521 0.90017 0.0
C825 C 0.81271 0.25744 0.87448 0.0
Co826 Co 0.9472 0.67527 0.83356 0.0
Co827 Co 0.98986 0.75922 0.02186 0.0
O828 O 0.9403 0.71495 0.93584 0.0
C829 C 0.89743 0.71303 0.71885 0.0
O830 O 0.92512 0.75057 0.76425 0.0
C831 C 0.91198 0.71306 0.1747 0.0
O832 O 0.90844 0.67545 0.14824 0.0
O833 O 1.00014 0.7143 0.08565 0.0
O834 O 0.99296 0.67271 0.93939 0.0
H835 H 0.16472 0.87326 0.03979 0.0
H836 H 0.84866 0.6297 0.83604 0.0
O837 O 0.90305 0.67973 0.73023 0.0
H838 H 0.88688 0.52834 0.00818 0.0
H839 H 0.89963 0.52913 0.65946 0.0
H840 H 0.02145 0.67727 0.71914 0.0
H841 H 0.94283 0.60214 0.97399 0.0
H842 H 0.88672 0.58713 0.7206 0.0
O843 O 0.94722 0.74858 0.15019 0.0
H844 H 0.09121 0.80162 0.98694 0.0
H845 H 0.04112 0.83854 0.2503 0.0
H846 H 0.03636 0.62062 0.65292 0.0
H847 H 0.79232 0.55507 0.87033 0.0
H848 H 0.97498 0.54487 0.62819 0.0
H849 H 0.81034 0.50381 0.96074 0.0
O850 O 0.99355 0.72578 0.74697 0.0
H851 H 0.91344 0.84308 0.05219 0.0
H852 H 0.03957 0.84231 0.88852 0.0
H853 H 0.03584 0.91017 0.89039 0.0
H854 H 0.9741 0.91148 0.97728 0.0
H855 H 0.91423 0.77492 0.0324 0.0
H856 H 0.10996 0.92027 0.34291 0.0
H857 H 0.17625 0.93075 0.20953 0.0
O858 O 0.03089 0.77025 0.88524 0.0
C859 C 1.00346 0.68378 0.04198 0.0
C860 C 0.13657 0.86689 0.0874 0.0
C861 C 0.10276 0.89493 0.28199 0.0
N862 N 0.04032 0.80208 0.11033 0.0
C863 C 0.08736 0.82015 0.05154 0.0
C864 C 0.02921 0.82164 0.21899 0.0
C865 C 0.14495 0.90284 0.19515 0.0
C866 C 0.85791 0.60928 0.87964 0.0
N867 N 0.90039 0.62357 0.9082 0.0
C868 C 0.82509 0.56639 0.89887 0.0
C869 C 0.83525 0.53741 0.94836 0.0
C870 C 0.87805 0.55146 0.97709 0.0
C871 C 0.91003 0.59469 0.95892 0.0
C872 C 0.92692 0.5612 0.67703 0.0
C873 C 0.99488 0.64493 0.7082 0.0
C874 C 0.9198 0.59449 0.7129 0.0
N875 N 0.95381 0.63533 0.73489 0.0
C876 C 1.00342 0.61269 0.67089 0.0
C877 C 0.96921 0.57025 0.65816 0.0
C878 C 0.02729 0.75981 0.78125 0.0
C879 C 0.94103 0.84316 0.01477 0.0
C880 C 1.01078 0.84146 0.91987 0.0
C881 C 1.00921 0.88024 0.92088 0.0
C882 C 0.97477 0.8813 0.97178 0.0
N883 N 0.97884 0.80491 0.96939 0.0
C884 C 0.94219 0.80456 0.00525 0.0
Co885 Co 0.35312 0.12201 0.50907 0.0
Co886 Co 0.43848 0.16451 0.3386 0.0
O887 O 0.39688 0.17 0.42692 0.0
C888 C 0.39658 0.20481 0.64661 0.0
O889 O 0.43396 0.21023 0.61247 0.0
C890 C 0.39955 0.21339 0.21756 0.0
O891 O 0.36192 0.18514 0.25917 0.0
O892 O 0.3904 0.11422 0.2516 0.0
O893 O 0.34644 0.07652 0.38947 0.0
H894 H 0.50282 0.07995 0.17857 0.0
H895 H 0.33263 0.19451 0.48565 0.0
O896 O 0.36099 0.16864 0.62462 0.0
H897 H 0.20269 0.05698 0.37556 0.0
H898 H 0.20587 0.03524 0.68182 0.0
H899 H 0.3395 0.03703 0.57252 0.0
H900 H 0.27431 0.06345 0.37057 0.0
H901 H 0.26946 0.10292 0.62151 0.0
O902 O 0.43273 0.20726 0.22926 0.0
H903 H 0.44526 0.09141 0.25695 0.0
H904 H 0.52589 0.22772 0.23519 0.0
H905 H 0.27926 0.96962 0.6522 0.0
H906 H 0.2606 0.18688 0.50525 0.0
H907 H 0.21101 0.96811 0.70182 0.0
H908 H 0.19458 0.11703 0.45342 0.0
O909 O 0.39851 0.1149 0.59114 0.0
H910 H 0.54509 0.32217 0.37039 0.0
H911 H 0.51349 0.17646 0.48253 0.0
H912 H 0.58608 0.23832 0.5103 0.0
H913 H 0.60291 0.3119 0.45351 0.0
H914 H 0.47048 0.26112 0.35925 0.0
H915 H 0.58612 0.21869 0.17043 0.0
H916 H 0.57465 0.14435 0.13813 0.0
O917 O 0.4422 0.12134 0.45186 0.0
C918 C 0.35819 0.07918 0.28772 0.0
C919 C 0.50834 0.11252 0.19239 0.0
C920 C 0.55528 0.19028 0.18986 0.0
N921 N 0.48155 0.15966 0.25073 0.0
C922 C 0.47534 0.11891 0.23371 0.0
C923 C 0.52083 0.19521 0.22689 0.0
C924 C 0.5487 0.14855 0.171 0.0
C925 C 0.30448 0.16437 0.4599 0.0
N926 N 0.30788 0.12856 0.43451 0.0
C927 C 0.26363 0.16059 0.46947 0.0
C928 C 0.22668 0.12139 0.44106 0.0
C929 C 0.23123 0.08762 0.3973 0.0
C930 C 0.27257 0.09217 0.39139 0.0
C931 C 0.23507 0.03502 0.65784 0.0
C932 C 0.31107 0.03693 0.60139 0.0
C933 C 0.27136 0.07349 0.62373 0.0
N934 N 0.30838 0.07384 0.59242 0.0
C935 C 0.27654 0.99851 0.64262 0.0
C936 C 0.23808 0.99751 0.66962 0.0
C937 C 0.42929 0.1103 0.55271 0.0
C938 C 0.53727 0.29067 0.40268 0.0
C939 C 0.51812 0.2084 0.46703 0.0
C940 C 0.56028 0.24354 0.48101 0.0
C941 C 0.56997 0.28481 0.44749 0.0
N942 N 0.48634 0.21394 0.41757 0.0
C943 C 0.49494 0.25531 0.3944 0.0
Co944 Co 0.94504 0.32801 0.32998 0.0
Co945 Co 0.98902 0.2866 0.5117 0.0
O946 O 0.93919 0.28158 0.42928 0.0
C947 C 0.896 0.24041 0.21512 0.0
O948 O 0.92455 0.23154 0.25864 0.0
C949 C 0.91284 0.25423 0.66989 0.0
O950 O 0.90919 0.28853 0.64778 0.0
O951 O 0.99943 0.3414 0.57949 0.0
O952 O 0.99063 0.37616 0.43693 0.0
H953 H 0.16373 0.34219 0.53128 0.0
H954 H 0.8467 0.2731 0.33497 0.0
O955 O 0.9011 0.27916 0.22621 0.0
H956 H 0.88319 0.41282 0.50705 0.0
H957 H 0.89216 0.42096 0.14856 0.0
H958 H 0.01796 0.40381 0.23092 0.0
H959 H 0.93984 0.39568 0.47368 0.0
H960 H 0.88235 0.35164 0.21474 0.0
O961 O 0.94704 0.25331 0.63888 0.0
H962 H 0.09147 0.34243 0.4726 0.0
H963 H 0.03861 0.258 0.73866 0.0
H964 H 0.03032 0.47386 0.15975 0.0
H965 H 0.79032 0.29138 0.36392 0.0
H966 H 0.96659 0.48287 0.11854 0.0
H967 H 0.80712 0.36043 0.45581 0.0
O968 O 0.99209 0.32552 0.24096 0.0
H969 H 0.90796 0.12464 0.51012 0.0
H970 H 0.04008 0.25467 0.38046 0.0
H971 H 0.03554 0.18293 0.37405 0.0
H972 H 0.96932 0.11739 0.43827 0.0
H973 H 0.91237 0.19589 0.51028 0.0
H974 H 0.10353 0.24203 0.83501 0.0
H975 H 0.17161 0.29494 0.70226 0.0
O976 O 0.0297 0.31771 0.37692 0.0
C977 C 1.00228 0.37533 0.53812 0.0
C978 C 0.135 0.32162 0.57813 0.0
C979 C 0.09775 0.26067 0.77319 0.0
N980 N 0.03937 0.2936 0.59787 0.0
C981 C 0.08682 0.32094 0.53968 0.0
C982 C 0.02689 0.26335 0.70684 0.0
C983 C 0.14122 0.29344 0.68748 0.0
C984 C 0.85559 0.30282 0.37869 0.0
N985 N 0.89796 0.33164 0.40688 0.0
C986 C 0.82261 0.31276 0.39556 0.0
C987 C 0.83222 0.35192 0.44499 0.0
C988 C 0.8748 0.38096 0.47539 0.0
C989 C 0.90713 0.37014 0.45779 0.0
C990 C 0.92025 0.41798 0.16918 0.0
C991 C 0.99075 0.40762 0.21306 0.0
C992 C 0.91489 0.37862 0.20817 0.0
N993 N 0.95006 0.37429 0.23418 0.0
C994 C 0.99764 0.4474 0.17324 0.0
C995 C 0.96205 0.45267 0.15207 0.0
C996 C 0.02589 0.32505 0.2739 0.0
C997 C 0.93679 0.1529 0.47958 0.0
C998 C 1.01037 0.22626 0.40567 0.0
C999 C 1.00796 0.18559 0.40059 0.0
C1000 C 0.97114 0.14884 0.43915 0.0
N1001 N 0.97791 0.23041 0.45375 0.0
C1002 C 0.93993 0.19376 0.48132 0.0
Co1003 Co 0.8171 0.75019 0.51899 0.0
Co1004 Co 0.78224 0.67053 0.3292 0.0
O1005 O 0.8259 0.71003 0.43217 0.0
C1006 C 0.85992 0.71001 0.65383 0.0
O1007 O 0.83176 0.67227 0.61019 0.0
C1008 C 0.87443 0.71448 0.22984 0.0
O1009 O 0.88131 0.7519 0.26954 0.0
O1010 O 0.78348 0.72122 0.24985 0.0
O1011 O 0.77928 0.75653 0.3969 0.0
H1012 H 0.69316 0.50459 0.177 0.0
H1013 H 0.91215 0.7786 0.51057 0.0
O1014 O 0.85555 0.74385 0.63776 0.0
H1015 H 0.89797 0.90274 0.38509 0.0
H1016 H 0.85092 0.89659 0.6718 0.0
H1017 H 0.74001 0.7434 0.64224 0.0
H1018 H 0.83496 0.82994 0.3839 0.0
H1019 H 0.87105 0.84311 0.61612 0.0
O1020 O 0.83567 0.68053 0.23513 0.0
H1021 H 0.7325 0.6131 0.24253 0.0
H1022 H 0.75874 0.64776 0.04724 0.0
H1023 H 0.719 0.79641 0.698 0.0
H1024 H 0.97492 0.85208 0.52001 0.0
H1025 H 0.7739 0.8749 0.69909 0.0
H1026 H 0.96809 0.91529 0.45807 0.0
O1027 O 0.76645 0.69951 0.58647 0.0
H1028 H 0.82698 0.55676 0.36422 0.0
H1029 H 0.7201 0.59673 0.4844 0.0
H1030 H 0.70965 0.52645 0.53024 0.0
H1031 H 0.76243 0.50458 0.46952 0.0
H1032 H 0.84136 0.63018 0.33393 0.0
H1033 H 0.75522 0.59578 0.85648 0.0
H1034 H 0.71489 0.51439 0.9588 0.0
O1035 O 0.7306 0.66335 0.43387 0.0
C1036 C 0.77757 0.75088 0.29104 0.0
C1037 C 0.70784 0.5372 0.14535 0.0
C1038 C 0.74667 0.59436 0.94333 0.0
N1039 N 0.74104 0.63118 0.21403 0.0
C1040 C 0.71684 0.5789 0.24007 0.0
C1041 C 0.7584 0.65543 0.09484 0.0
C1042 C 0.72123 0.5429 0.00612 0.0
C1043 C 0.90849 0.80539 0.48206 0.0
N1044 N 0.86857 0.79953 0.45412 0.0
C1045 C 0.94475 0.84707 0.48538 0.0
C1046 C 0.94092 0.8824 0.45063 0.0
C1047 C 0.90163 0.87528 0.40765 0.0
C1048 C 0.86585 0.8331 0.40568 0.0
C1049 C 0.82585 0.86359 0.65556 0.0
C1050 C 0.76449 0.7769 0.64213 0.0
C1051 C 0.83709 0.83251 0.62539 0.0
N1052 N 0.80609 0.7899 0.60974 0.0
C1053 C 0.75216 0.80703 0.67469 0.0
C1054 C 0.78286 0.85096 0.67634 0.0
C1055 C 0.73134 0.6719 0.53971 0.0
C1056 C 0.80482 0.56666 0.39624 0.0
C1057 C 0.74639 0.59128 0.4651 0.0
C1058 C 0.73929 0.54978 0.49019 0.0
C1059 C 0.76844 0.53723 0.45431 0.0
N1060 N 0.78154 0.62007 0.40353 0.0
C1061 C 0.81206 0.60862 0.37669 0.0
loop_
_geom_bond_atom_site_label_1
_geom_bond_atom_site_label_2
_geom_bond_distance
_geom_bond_site_symmetry_2
_ccdc_geom_bond_type
Co0 O2 2.143 . S
Co0 O8 2.074 . S
Co0 O11 2.093 . S
Co0 O24 2.097 . S
Co0 N41 2.151 . S
Co0 N49 2.214 . S
Co1 O2 2.160 . S
Co1 O7 2.058 . S
Co1 O17 2.057 . S
Co1 O32 2.037 1_455 S
Co1 N36 2.145 1_455 S
Co1 N57 2.257 1_455 S
O2 Co0 2.143 . S
O2 Co1 2.160 . S
C3 O4 1.278 . S
C3 O11 1.224 . S
O4 C3 1.278 . S
C5 O6 1.245 . S
C5 O17 1.232 . S
O6 C5 1.245 . S
O7 Co1 2.058 . S
O7 C33 1.269 . S
O8 Co0 2.074 . S
O8 C33 1.257 . S
H9 C34 0.930 . S
H10 C40 0.930 . S
O11 Co0 2.093 . S
O11 C3 1.224 . S
H12 C44 0.929 . S
H13 C46 0.930 . S
H14 C47 0.930 . S
H15 C45 0.929 . S
H16 C48 0.928 . S
O17 Co1 2.057 . S
O17 C5 1.232 . S
H18 C37 0.929 . S
H19 C38 0.929 . S
H20 C50 0.931 . S
H21 C42 0.929 . S
H22 C51 0.930 . S
H23 C43 0.931 . S
O24 Co0 2.097 . S
O24 C52 1.214 1_455 S
H25 C53 0.929 . S
H26 C54 0.929 . S
H27 C55 0.930 . S
H28 C56 0.929 . S
H29 C58 0.930 . S
H30 C35 0.930 . S
H31 C39 0.930 . S
O32 Co1 2.037 1_655 S
O32 C52 1.234 . S
C33 O7 1.269 . S
C33 O8 1.257 . S
C34 H9 0.930 . S
C34 C37 1.388 . S
C34 C39 1.418 . S
C35 H30 0.930 . S
C35 C38 1.404 . S
C35 C39 1.353 . S
N36 Co1 2.145 1_655 S
N36 C37 1.397 . S
N36 C38 1.334 . S
C37 H18 0.929 . S
C37 C34 1.388 . S
C37 N36 1.397 . S
C38 H19 0.929 . S
C38 C35 1.404 . S
C38 N36 1.334 . S
C39 H31 0.930 . S
C39 C34 1.418 . S
C39 C35 1.353 . S
C40 H10 0.930 . S
C40 N41 1.330 . S
C40 C42 1.446 . S
N41 Co0 2.151 . S
N41 C40 1.330 . S
N41 C45 1.418 . S
C42 H21 0.929 . S
C42 C40 1.446 . S
C42 C43 1.332 . S
C43 H23 0.931 . S
C43 C42 1.332 . S
C43 C44 1.267 . S
C44 H12 0.929 . S
C44 C43 1.267 . S
C44 C45 1.251 . S
C45 H15 0.929 . S
C45 N41 1.418 . S
C45 C44 1.251 . S
C46 H13 0.930 . S
C46 C48 1.406 . S
C46 C51 1.261 . S
C47 H14 0.930 . S
C47 N49 1.325 . S
C47 C50 1.357 1_554 S
C48 H16 0.928 . S
C48 C46 1.406 . S
C48 N49 1.261 1_556 S
N49 Co0 2.214 . S
N49 C47 1.325 . S
N49 C48 1.261 1_554 S
C50 H20 0.931 . S
C50 C47 1.357 1_556 S
C50 C51 1.312 . S
C51 H22 0.930 . S
C51 C46 1.261 . S
C51 C50 1.312 . S
C52 O24 1.214 1_655 S
C52 O32 1.234 . S
C53 H25 0.929 . S
C53 C56 1.391 . S
C53 C58 1.391 . S
C54 H26 0.929 . S
C54 C55 1.390 . S
C54 N57 1.391 . S
C55 H27 0.930 . S
C55 C54 1.390 . S
C55 C56 1.392 . S
C56 H28 0.929 . S
C56 C53 1.391 . S
C56 C55 1.392 . S
N57 Co1 2.257 1_655 S
N57 C54 1.391 . S
N57 C58 1.388 . S
C58 H29 0.930 . S
C58 C53 1.391 . S
C58 N57 1.388 . S
Co59 O61 2.143 . S
Co59 O67 2.074 . S
Co59 O70 2.093 . S
Co59 O83 2.097 . S
Co59 N100 2.151 . S
Co59 N108 2.214 . S
Co60 O61 2.160 . S
Co60 O66 2.058 . S
Co60 O76 2.057 . S
Co60 O91 2.037 . S
Co60 N95 2.145 . S
Co60 N116 2.257 . S
O61 Co59 2.143 . S
O61 Co60 2.160 . S
C62 O63 1.278 . S
C62 O70 1.224 . S
O63 C62 1.278 . S
C64 O65 1.245 . S
C64 O76 1.232 . S
O65 C64 1.245 . S
O66 Co60 2.058 . S
O66 C92 1.269 . S
O67 Co59 2.074 . S
O67 C92 1.257 . S
H68 C93 0.930 . S
H69 C99 0.930 . S
O70 Co59 2.093 . S
O70 C62 1.224 . S
H71 C103 0.929 . S
H72 C105 0.930 . S
H73 C106 0.930 . S
H74 C104 0.929 . S
H75 C107 0.928 . S
O76 Co60 2.057 . S
O76 C64 1.232 . S
H77 C96 0.929 . S
H78 C97 0.929 . S
H79 C109 0.931 . S
H80 C101 0.929 . S
H81 C110 0.930 . S
H82 C102 0.931 . S
O83 Co59 2.097 . S
O83 C111 1.214 . S
H84 C112 0.929 . S
H85 C113 0.929 . S
H86 C114 0.930 . S
H87 C115 0.929 . S
H88 C117 0.930 . S
H89 C94 0.930 . S
H90 C98 0.930 . S
O91 Co60 2.037 . S
O91 C111 1.234 . S
C92 O66 1.269 . S
C92 O67 1.257 . S
C93 H68 0.930 . S
C93 C96 1.388 1_556 S
C93 C98 1.418 . S
C94 H89 0.930 . S
C94 C97 1.404 . S
C94 C98 1.353 . S
N95 Co60 2.145 . S
N95 C96 1.397 . S
N95 C97 1.334 1_554 S
C96 H77 0.929 . S
C96 C93 1.388 1_554 S
C96 N95 1.397 . S
C97 H78 0.929 . S
C97 C94 1.404 . S
C97 N95 1.334 1_556 S
C98 H90 0.930 . S
C98 C93 1.418 . S
C98 C94 1.353 . S
C99 H69 0.930 . S
C99 N100 1.330 . S
C99 C101 1.446 . S
N100 Co59 2.151 . S
N100 C99 1.330 . S
N100 C104 1.418 . S
C101 H80 0.929 . S
C101 C99 1.446 . S
C101 C102 1.332 . S
C102 H82 0.931 . S
C102 C101 1.332 . S
C102 C103 1.267 . S
C103 H71 0.929 . S
C103 C102 1.267 . S
C103 C104 1.251 . S
C104 H74 0.929 . S
C104 N100 1.418 . S
C104 C103 1.251 . S
C105 H72 0.930 . S
C105 C107 1.406 . S
C105 C110 1.261 . S
C106 H73 0.930 . S
C106 N108 1.325 . S
C106 C109 1.357 . S
C107 H75 0.928 . S
C107 C105 1.406 . S
C107 N108 1.261 . S
N108 Co59 2.214 . S
N108 C106 1.325 . S
N108 C107 1.261 . S
C109 H79 0.931 . S
C109 C106 1.357 . S
C109 C110 1.312 . S
C110 H81 0.930 . S
C110 C105 1.261 . S
C110 C109 1.312 . S
C111 O83 1.214 . S
C111 O91 1.234 . S
C112 H84 0.929 . S
C112 C115 1.391 . S
C112 C117 1.391 . S
C113 H85 0.929 . S
C113 C114 1.390 . S
C113 N116 1.391 . S
C114 H86 0.930 . S
C114 C113 1.390 . S
C114 C115 1.392 . S
C115 H87 0.929 . S
C115 C112 1.391 . S
C115 C114 1.392 . S
N116 Co60 2.257 . S
N116 C113 1.391 . S
N116 C117 1.388 . S
C117 H88 0.930 . S
C117 C112 1.391 . S
C117 N116 1.388 . S
Co118 O120 2.143 . S
Co118 O126 2.074 1_545 S
Co118 O129 2.093 . S
Co118 O142 2.097 . S
Co118 N159 2.151 1_545 S
Co118 N167 2.214 1_545 S
Co119 O120 2.160 . S
Co119 O125 2.058 . S
Co119 O135 2.057 . S
Co119 O150 2.037 . S
Co119 N154 2.145 . S
Co119 N175 2.257 . S
O120 Co118 2.143 . S
O120 Co119 2.160 . S
C121 O122 1.278 . S
C121 O129 1.224 . S
O122 C121 1.278 . S
C123 O124 1.245 . S
C123 O135 1.232 . S
O124 C123 1.245 . S
O125 Co119 2.058 . S
O125 C151 1.269 . S
O126 Co118 2.074 1_565 S
O126 C151 1.257 1_565 S
H127 C152 0.930 . S
H128 C158 0.930 . S
O129 Co118 2.093 . S
O129 C121 1.224 . S
H130 C162 0.929 . S
H131 C164 0.930 . S
H132 C165 0.930 . S
H133 C163 0.929 . S
H134 C166 0.928 . S
O135 Co119 2.057 . S
O135 C123 1.232 . S
H136 C155 0.929 . S
H137 C156 0.929 . S
H138 C168 0.931 . S
H139 C160 0.929 . S
H140 C169 0.930 . S
H141 C161 0.931 . S
O142 Co118 2.097 . S
O142 C170 1.214 . S
H143 C171 0.929 . S
H144 C172 0.929 . S
H145 C173 0.930 . S
H146 C174 0.929 . S
H147 C176 0.930 . S
H148 C153 0.930 . S
H149 C157 0.930 . S
O150 Co119 2.037 . S
O150 C170 1.234 . S
C151 O125 1.269 . S
C151 O126 1.257 1_545 S
C152 H127 0.930 . S
C152 C155 1.388 . S
C152 C157 1.418 . S
C153 H148 0.930 . S
C153 C156 1.404 . S
C153 C157 1.353 . S
N154 Co119 2.145 . S
N154 C155 1.397 . S
N154 C156 1.334 . S
C155 H136 0.929 . S
C155 C152 1.388 . S
C155 N154 1.397 . S
C156 H137 0.929 . S
C156 C153 1.404 . S
C156 N154 1.334 . S
C157 H149 0.930 . S
C157 C152 1.418 . S
C157 C153 1.353 . S
C158 H128 0.930 . S
C158 N159 1.330 . S
C158 C160 1.446 . S
N159 Co118 2.151 1_565 S
N159 C158 1.330 . S
N159 C163 1.418 . S
C160 H139 0.929 . S
C160 C158 1.446 . S
C160 C161 1.332 . S
C161 H141 0.931 . S
C161 C160 1.332 . S
C161 C162 1.267 . S
C162 H130 0.929 . S
C162 C161 1.267 . S
C162 C163 1.251 . S
C163 H133 0.929 . S
C163 N159 1.418 . S
C163 C162 1.251 . S
C164 H131 0.930 . S
C164 C166 1.406 . S
C164 C169 1.261 . S
C165 H132 0.930 . S
C165 N167 1.325 . S
C165 C168 1.357 1_554 S
C166 H134 0.928 . S
C166 C164 1.406 . S
C166 N167 1.261 1_556 S
N167 Co118 2.214 1_565 S
N167 C165 1.325 . S
N167 C166 1.261 1_554 S
C168 H138 0.931 . S
C168 C165 1.357 1_556 S
C168 C169 1.312 . S
C169 H140 0.930 . S
C169 C164 1.261 . S
C169 C168 1.312 . S
C170 O142 1.214 . S
C170 O150 1.234 . S
C171 H143 0.929 . S
C171 C174 1.391 . S
C171 C176 1.391 . S
C172 H144 0.929 . S
C172 C173 1.390 . S
C172 N175 1.391 . S
C173 H145 0.930 . S
C173 C172 1.390 . S
C173 C174 1.392 . S
C174 H146 0.929 . S
C174 C171 1.391 . S
C174 C173 1.392 . S
N175 Co119 2.257 . S
N175 C172 1.391 . S
N175 C176 1.388 . S
C176 H147 0.930 . S
C176 C171 1.391 . S
C176 N175 1.388 . S
Co177 O179 2.143 . S
Co177 O185 2.074 1_455 S
Co177 O188 2.093 . S
Co177 O201 2.097 . S
Co177 N218 2.151 1_455 S
Co177 N226 2.214 1_455 S
Co178 O179 2.160 . S
Co178 O184 2.058 . S
Co178 O194 2.057 . S
Co178 O209 2.037 . S
Co178 N213 2.145 . S
Co178 N234 2.257 . S
O179 Co177 2.143 . S
O179 Co178 2.160 . S
C180 O181 1.278 . S
C180 O188 1.224 . S
O181 C180 1.278 . S
C182 O183 1.245 . S
C182 O194 1.232 . S
O183 C182 1.245 . S
O184 Co178 2.058 . S
O184 C210 1.266 1_455 S
O185 Co177 2.074 1_655 S
O185 C210 1.260 . S
H186 C211 0.930 . S
H187 C217 0.930 . S
O188 Co177 2.093 . S
O188 C180 1.224 . S
H189 C221 0.929 . S
H190 C223 0.930 . S
H191 C224 0.930 . S
H192 C222 0.929 . S
H193 C225 0.928 . S
O194 Co178 2.057 . S
O194 C182 1.232 . S
H195 C214 0.929 . S
H196 C215 0.929 . S
H197 C227 0.931 . S
H198 C219 0.929 . S
H199 C228 0.930 . S
H200 C220 0.931 . S
O201 Co177 2.097 . S
O201 C229 1.214 . S
H202 C230 0.929 . S
H203 C231 0.929 . S
H204 C232 0.930 . S
H205 C233 0.929 . S
H206 C235 0.930 . S
H207 C212 0.930 . S
H208 C216 0.930 . S
O209 Co178 2.037 . S
O209 C229 1.234 . S
C210 O184 1.266 1_655 S
C210 O185 1.260 . S
C211 H186 0.930 . S
C211 C214 1.388 . S
C211 C216 1.418 . S
C212 H207 0.930 . S
C212 C215 1.404 . S
C212 C216 1.353 . S
N213 Co178 2.145 . S
N213 C214 1.397 . S
N213 C215 1.334 . S
C214 H195 0.929 . S
C214 C211 1.388 . S
C214 N213 1.397 . S
C215 H196 0.929 . S
C215 C212 1.404 . S
C215 N213 1.334 . S
C216 H208 0.930 . S
C216 C211 1.418 . S
C216 C212 1.353 . S
C217 H187 0.930 . S
C217 N218 1.330 . S
C217 C219 1.446 . S
N218 Co177 2.151 1_655 S
N218 C217 1.330 . S
N218 C222 1.418 . S
C219 H198 0.929 . S
C219 C217 1.446 . S
C219 C220 1.332 . S
C220 H200 0.931 . S
C220 C219 1.332 . S
C220 C221 1.267 . S
C221 H189 0.929 . S
C221 C220 1.267 . S
C221 C222 1.251 . S
C222 H192 0.929 . S
C222 N218 1.418 . S
C222 C221 1.251 . S
C223 H190 0.930 . S
C223 C225 1.406 . S
C223 C228 1.261 . S
C224 H191 0.930 . S
C224 N226 1.325 . S
C224 C227 1.357 1_556 S
C225 H193 0.928 . S
C225 C223 1.406 . S
C225 N226 1.261 1_554 S
N226 Co177 2.214 1_655 S
N226 C224 1.325 . S
N226 C225 1.261 1_556 S
C227 H197 0.931 . S
C227 C224 1.357 1_554 S
C227 C228 1.312 . S
C228 H199 0.930 . S
C228 C223 1.261 . S
C228 C227 1.312 . S
C229 O201 1.214 . S
C229 O209 1.234 . S
C230 H202 0.929 . S
C230 C233 1.391 . S
C230 C235 1.391 . S
C231 H203 0.929 . S
C231 C232 1.390 . S
C231 N234 1.391 . S
C232 H204 0.930 . S
C232 C231 1.390 . S
C232 C233 1.392 . S
C233 H205 0.929 . S
C233 C230 1.391 . S
C233 C232 1.392 . S
N234 Co178 2.257 . S
N234 C231 1.391 . S
N234 C235 1.388 . S
C235 H206 0.930 . S
C235 C230 1.391 . S
C235 N234 1.388 . S
Co236 O238 2.143 . S
Co236 O244 2.074 . S
Co236 O247 2.093 . S
Co236 O260 2.097 . S
Co236 N277 2.151 . S
Co236 N285 2.214 . S
Co237 O238 2.160 . S
Co237 O243 2.058 . S
Co237 O253 2.057 . S
Co237 O268 2.037 . S
Co237 N272 2.145 . S
Co237 N293 2.257 . S
O238 Co236 2.143 . S
O238 Co237 2.160 . S
C239 O240 1.278 . S
C239 O247 1.224 . S
O240 C239 1.278 . S
C241 O242 1.245 . S
C241 O253 1.232 . S
O242 C241 1.245 . S
O243 Co237 2.058 . S
O243 C269 1.269 . S
O244 Co236 2.074 . S
O244 C269 1.257 . S
H245 C270 0.930 . S
H246 C276 0.930 . S
O247 Co236 2.093 . S
O247 C239 1.224 . S
H248 C280 0.929 . S
H249 C282 0.930 . S
H250 C283 0.930 . S
H251 C281 0.929 . S
H252 C284 0.928 . S
O253 Co237 2.057 . S
O253 C241 1.232 . S
H254 C273 0.929 . S
H255 C274 0.929 . S
H256 C286 0.931 . S
H257 C278 0.929 . S
H258 C287 0.930 . S
H259 C279 0.931 . S
O260 Co236 2.097 . S
O260 C288 1.214 . S
H261 C289 0.929 . S
H262 C290 0.929 . S
H263 C291 0.930 . S
H264 C292 0.929 . S
H265 C294 0.930 . S
H266 C271 0.930 . S
H267 C275 0.930 . S
O268 Co237 2.037 . S
O268 C288 1.234 . S
C269 O243 1.269 . S
C269 O244 1.257 . S
C270 H245 0.930 . S
C270 C273 1.388 1_554 S
C270 C275 1.418 . S
C271 H266 0.930 . S
C271 C274 1.404 . S
C271 C275 1.353 . S
N272 Co237 2.145 . S
N272 C273 1.397 . S
N272 C274 1.334 1_556 S
C273 H254 0.929 . S
C273 C270 1.388 1_556 S
C273 N272 1.397 . S
C274 H255 0.929 . S
C274 C271 1.404 . S
C274 N272 1.334 1_554 S
C275 H267 0.930 . S
C275 C270 1.418 . S
C275 C271 1.353 . S
C276 H246 0.930 . S
C276 N277 1.330 . S
C276 C278 1.446 . S
N277 Co236 2.151 . S
N277 C276 1.330 . S
N277 C281 1.418 . S
C278 H257 0.929 . S
C278 C276 1.446 . S
C278 C279 1.332 . S
C279 H259 0.931 . S
C279 C278 1.332 . S
C279 C280 1.267 . S
C280 H248 0.929 . S
C280 C279 1.267 . S
C280 C281 1.251 . S
C281 H251 0.929 . S
C281 N277 1.418 . S
C281 C280 1.251 . S
C282 H249 0.930 . S
C282 C284 1.406 . S
C282 C287 1.261 . S
C283 H250 0.930 . S
C283 N285 1.325 . S
C283 C286 1.357 . S
C284 H252 0.928 . S
C284 C282 1.406 . S
C284 N285 1.261 . S
N285 Co236 2.214 . S
N285 C283 1.325 . S
N285 C284 1.261 . S
C286 H256 0.931 . S
C286 C283 1.357 . S
C286 C287 1.312 . S
C287 H258 0.930 . S
C287 C282 1.261 . S
C287 C286 1.312 . S
C288 O260 1.214 . S
C288 O268 1.234 . S
C289 H261 0.929 . S
C289 C292 1.391 . S
C289 C294 1.391 . S
C290 H262 0.929 . S
C290 C291 1.390 . S
C290 N293 1.391 . S
C291 H263 0.930 . S
C291 C290 1.390 . S
C291 C292 1.392 . S
C292 H264 0.929 . S
C292 C289 1.391 . S
C292 C291 1.392 . S
N293 Co237 2.257 . S
N293 C290 1.391 . S
N293 C294 1.388 . S
C294 H265 0.930 . S
C294 C289 1.391 . S
C294 N293 1.388 . S
Co295 O297 2.143 . S
Co295 O303 2.074 . S
Co295 O306 2.093 . S
Co295 O319 2.097 . S
Co295 N336 2.151 . S
Co295 N344 2.214 . S
Co296 O297 2.160 . S
Co296 O302 2.058 . S
Co296 O312 2.057 . S
Co296 O327 2.037 1_545 S
Co296 N331 2.145 1_545 S
Co296 N352 2.257 1_545 S
O297 Co295 2.143 . S
O297 Co296 2.160 . S
C298 O299 1.278 . S
C298 O306 1.224 . S
O299 C298 1.278 . S
C300 O301 1.245 . S
C300 O312 1.232 . S
O301 C300 1.245 . S
O302 Co296 2.058 . S
O302 C328 1.269 . S
O303 Co295 2.074 . S
O303 C328 1.257 . S
H304 C329 0.930 . S
H305 C335 0.930 . S
O306 Co295 2.093 . S
O306 C298 1.224 . S
H307 C339 0.929 . S
H308 C341 0.930 . S
H309 C342 0.930 . S
H310 C340 0.929 . S
H311 C343 0.928 . S
O312 Co296 2.057 . S
O312 C300 1.232 . S
H313 C332 0.929 . S
H314 C333 0.929 . S
H315 C345 0.931 . S
H316 C337 0.929 . S
H317 C346 0.930 . S
H318 C338 0.931 . S
O319 Co295 2.097 . S
O319 C347 1.214 . S
H320 C348 0.929 . S
H321 C349 0.929 . S
H322 C350 0.930 . S
H323 C351 0.929 . S
H324 C353 0.930 . S
H325 C330 0.930 . S
H326 C334 0.930 . S
O327 Co296 2.037 1_565 S
O327 C347 1.234 1_565 S
C328 O302 1.269 . S
C328 O303 1.257 . S
C329 H304 0.930 . S
C329 C332 1.388 . S
C329 C334 1.418 . S
C330 H325 0.930 . S
C330 C333 1.404 . S
C330 C334 1.353 . S
N331 Co296 2.145 1_565 S
N331 C332 1.397 . S
N331 C333 1.334 . S
C332 H313 0.929 . S
C332 C329 1.388 . S
C332 N331 1.397 . S
C333 H314 0.929 . S
C333 C330 1.404 . S
C333 N331 1.334 . S
C334 H326 0.930 . S
C334 C329 1.418 . S
C334 C330 1.353 . S
C335 H305 0.930 . S
C335 N336 1.330 . S
C335 C337 1.446 . S
N336 Co295 2.151 . S
N336 C335 1.330 . S
N336 C340 1.418 . S
C337 H316 0.929 . S
C337 C335 1.446 . S
C337 C338 1.332 . S
C338 H318 0.931 . S
C338 C337 1.332 . S
C338 C339 1.267 . S
C339 H307 0.929 . S
C339 C338 1.267 . S
C339 C340 1.251 . S
C340 H310 0.929 . S
C340 N336 1.418 . S
C340 C339 1.251 . S
C341 H308 0.930 . S
C341 C343 1.406 . S
C341 C346 1.261 . S
C342 H309 0.930 . S
C342 N344 1.325 . S
C342 C345 1.357 1_556 S
C343 H311 0.928 . S
C343 C341 1.406 . S
C343 N344 1.261 1_554 S
N344 Co295 2.214 . S
N344 C342 1.325 . S
N344 C343 1.261 1_556 S
C345 H315 0.931 . S
C345 C342 1.357 1_554 S
C345 C346 1.312 . S
C346 H317 0.930 . S
C346 C341 1.261 . S
C346 C345 1.312 . S
C347 O319 1.214 . S
C347 O327 1.234 1_545 S
C348 H320 0.929 . S
C348 C351 1.391 . S
C348 C353 1.391 . S
C349 H321 0.929 . S
C349 C350 1.390 . S
C349 N352 1.391 . S
C350 H322 0.930 . S
C350 C349 1.390 . S
C350 C351 1.392 . S
C351 H323 0.929 . S
C351 C348 1.391 . S
C351 C350 1.392 . S
N352 Co296 2.257 1_565 S
N352 C349 1.391 . S
N352 C353 1.388 . S
C353 H324 0.930 . S
C353 C348 1.391 . S
C353 N352 1.388 . S
Co354 O356 2.143 . S
Co354 O362 2.074 . S
Co354 O365 2.093 . S
Co354 O378 2.097 . S
Co354 N395 2.151 . S
Co354 N403 2.214 . S
Co355 O356 2.160 . S
Co355 O361 2.058 . S
Co355 O371 2.057 . S
Co355 O386 2.037 1_565 S
Co355 N390 2.145 1_565 S
Co355 N411 2.257 . S
O356 Co354 2.143 . S
O356 Co355 2.160 . S
C357 O358 1.278 . S
C357 O365 1.224 . S
O358 C357 1.278 . S
C359 O360 1.245 . S
C359 O371 1.232 . S
O360 C359 1.245 . S
O361 Co355 2.058 . S
O361 C387 1.269 . S
O362 Co354 2.074 . S
O362 C387 1.257 . S
H363 C388 0.930 . S
H364 C394 0.930 . S
O365 Co354 2.093 . S
O365 C357 1.224 . S
H366 C398 0.929 . S
H367 C400 0.927 1_554 S
H368 C401 0.930 . S
H369 C399 0.929 . S
H370 C402 0.928 . S
O371 Co355 2.057 . S
O371 C359 1.232 . S
H372 C391 0.929 . S
H373 C392 0.929 1_565 S
H374 C404 0.931 . S
H375 C396 0.929 . S
H376 C405 0.930 1_545 S
H377 C397 0.931 . S
O378 Co354 2.097 . S
O378 C406 1.214 1_565 S
H379 C407 0.929 . S
H380 C408 0.929 . S
H381 C409 0.930 . S
H382 C410 0.929 . S
H383 C412 0.930 . S
H384 C389 0.930 . S
H385 C393 0.930 . S
O386 Co355 2.037 1_545 S
O386 C406 1.234 . S
C387 O361 1.269 . S
C387 O362 1.257 . S
C388 H363 0.930 . S
C388 C391 1.388 . S
C388 C393 1.418 . S
C389 H384 0.930 . S
C389 C392 1.404 . S
C389 C393 1.353 . S
N390 Co355 2.145 1_545 S
N390 C391 1.397 . S
N390 C392 1.334 . S
C391 H372 0.929 . S
C391 C388 1.388 . S
C391 N390 1.397 . S
C392 H373 0.929 1_545 S
C392 C389 1.404 . S
C392 N390 1.334 . S
C393 H385 0.930 . S
C393 C388 1.418 . S
C393 C389 1.353 . S
C394 H364 0.930 . S
C394 N395 1.330 . S
C394 C396 1.446 . S
N395 Co354 2.151 . S
N395 C394 1.330 . S
N395 C399 1.418 . S
C396 H375 0.929 . S
C396 C394 1.446 . S
C396 C397 1.332 . S
C397 H377 0.931 . S
C397 C396 1.332 . S
C397 C398 1.267 . S
C398 H366 0.929 . S
C398 C397 1.267 . S
C398 C399 1.251 . S
C399 H369 0.929 . S
C399 N395 1.418 . S
C399 C398 1.251 . S
C400 H367 0.927 1_556 S
C400 C402 1.406 . S
C400 C405 1.261 . S
C401 H368 0.930 . S
C401 N403 1.325 1_545 S
C401 C404 1.357 . S
C402 H370 0.928 . S
C402 C400 1.406 . S
C402 N403 1.261 . S
N403 Co354 2.214 . S
N403 C401 1.325 1_565 S
N403 C402 1.261 . S
C404 H374 0.931 . S
C404 C401 1.357 . S
C404 C405 1.312 1_545 S
C405 H376 0.930 1_565 S
C405 C400 1.261 . S
C405 C404 1.312 1_565 S
C406 O378 1.214 1_545 S
C406 O386 1.234 . S
C407 H379 0.929 . S
C407 C410 1.391 . S
C407 C412 1.391 . S
C408 H380 0.929 . S
C408 C409 1.390 . S
C408 N411 1.391 1_545 S
C409 H381 0.930 . S
C409 C408 1.390 . S
C409 C410 1.392 1_545 S
C410 H382 0.929 . S
C410 C407 1.391 . S
C410 C409 1.392 1_565 S
N411 Co355 2.257 . S
N411 C408 1.391 1_565 S
N411 C412 1.388 . S
C412 H383 0.930 . S
C412 C407 1.391 . S
C412 N411 1.388 . S
Co413 O415 2.143 . S
Co413 O421 2.074 . S
Co413 O424 2.093 . S
Co413 O437 2.097 . S
Co413 N454 2.151 . S
Co413 N462 2.214 . S
Co414 O415 2.160 . S
Co414 O420 2.058 . S
Co414 O430 2.057 . S
Co414 O445 2.037 . S
Co414 N449 2.145 . S
Co414 N470 2.257 . S
O415 Co413 2.143 . S
O415 Co414 2.160 . S
C416 O417 1.278 . S
C416 O424 1.224 . S
O417 C416 1.278 . S
C418 O419 1.245 . S
C418 O430 1.232 . S
O419 C418 1.245 . S
O420 Co414 2.058 . S
O420 C446 1.269 . S
O421 Co413 2.074 . S
O421 C446 1.257 . S
H422 C447 0.930 . S
H423 C453 0.930 . S
O424 Co413 2.093 . S
O424 C416 1.224 . S
H425 C457 0.929 . S
H426 C459 0.932 . S
H427 C460 0.930 . S
H428 C458 0.929 . S
H429 C461 0.928 . S
O430 Co414 2.057 . S
O430 C418 1.232 . S
H431 C450 0.929 . S
H432 C451 0.929 . S
H433 C463 0.931 . S
H434 C455 0.929 . S
H435 C464 0.930 . S
H436 C456 0.931 . S
O437 Co413 2.097 . S
O437 C465 1.214 . S
H438 C466 0.929 . S
H439 C467 0.929 . S
H440 C468 0.930 . S
H441 C469 0.929 . S
H442 C471 0.930 . S
H443 C448 0.930 . S
H444 C452 0.930 . S
O445 Co414 2.037 . S
O445 C465 1.234 . S
C446 O420 1.269 . S
C446 O421 1.257 . S
C447 H422 0.930 . S
C447 C450 1.388 1_655 S
C447 C452 1.418 . S
C448 H443 0.930 . S
C448 C451 1.404 . S
C448 C452 1.353 1_455 S
N449 Co414 2.145 . S
N449 C450 1.397 . S
N449 C451 1.334 . S
C450 H431 0.929 . S
C450 C447 1.388 1_455 S
C450 N449 1.397 . S
C451 H432 0.929 . S
C451 C448 1.404 . S
C451 N449 1.334 . S
C452 H444 0.930 . S
C452 C447 1.418 . S
C452 C448 1.353 1_655 S
C453 H423 0.930 . S
C453 N454 1.330 . S
C453 C455 1.446 . S
N454 Co413 2.151 . S
N454 C453 1.330 . S
N454 C458 1.418 . S
C455 H434 0.929 . S
C455 C453 1.446 . S
C455 C456 1.332 . S
C456 H436 0.931 . S
C456 C455 1.332 . S
C456 C457 1.267 . S
C457 H425 0.929 . S
C457 C456 1.267 . S
C457 C458 1.251 . S
C458 H428 0.929 . S
C458 N454 1.418 . S
C458 C457 1.251 . S
C459 H426 0.932 . S
C459 C461 1.406 . S
C459 C464 1.261 . S
C460 H427 0.930 . S
C460 N462 1.325 . S
C460 C463 1.357 . S
C461 H429 0.928 . S
C461 C459 1.406 . S
C461 N462 1.261 . S
N462 Co413 2.214 . S
N462 C460 1.325 . S
N462 C461 1.261 . S
C463 H433 0.931 . S
C463 C460 1.357 . S
C463 C464 1.312 . S
C464 H435 0.930 . S
C464 C459 1.261 . S
C464 C463 1.312 . S
C465 O437 1.214 . S
C465 O445 1.234 . S
C466 H438 0.929 . S
C466 C469 1.391 . S
C466 C471 1.391 . S
C467 H439 0.929 . S
C467 C468 1.390 . S
C467 N470 1.391 . S
C468 H440 0.930 . S
C468 C467 1.390 . S
C468 C469 1.392 . S
C469 H441 0.929 . S
C469 C466 1.391 . S
C469 C468 1.392 . S
N470 Co414 2.257 . S
N470 C467 1.391 . S
N470 C471 1.388 . S
C471 H442 0.930 . S
C471 C466 1.391 . S
C471 N470 1.388 . S
Co472 O474 2.143 . S
Co472 O480 2.074 . S
Co472 O483 2.093 . S
Co472 O496 2.097 . S
Co472 N513 2.151 . S
Co472 N521 2.214 . S
Co473 O474 2.160 . S
Co473 O479 2.058 . S
Co473 O489 2.057 . S
Co473 O504 2.037 . S
Co473 N508 2.145 . S
Co473 N529 2.257 . S
O474 Co472 2.143 . S
O474 Co473 2.160 . S
C475 O476 1.278 . S
C475 O483 1.224 . S
O476 C475 1.278 . S
C477 O478 1.245 . S
C477 O489 1.232 . S
O478 C477 1.245 . S
O479 Co473 2.058 . S
O479 C505 1.269 . S
O480 Co472 2.074 . S
O480 C505 1.257 . S
H481 C506 0.930 . S
H482 C512 0.930 . S
O483 Co472 2.093 . S
O483 C475 1.224 . S
H484 C516 0.929 . S
H485 C518 0.930 1_554 S
H486 C519 0.930 . S
H487 C517 0.929 . S
H488 C520 0.928 . S
O489 Co473 2.057 . S
O489 C477 1.232 . S
H490 C509 0.929 . S
H491 C510 0.929 . S
H492 C522 0.931 . S
H493 C514 0.929 . S
H494 C523 0.930 . S
H495 C515 0.931 . S
O496 Co472 2.097 . S
O496 C524 1.214 . S
H497 C525 0.929 . S
H498 C526 0.929 . S
H499 C527 0.930 . S
H500 C528 0.929 . S
H501 C530 0.930 . S
H502 C507 0.930 . S
H503 C511 0.930 . S
O504 Co473 2.037 . S
O504 C524 1.234 . S
C505 O479 1.269 . S
C505 O480 1.257 . S
C506 H481 0.930 . S
C506 C509 1.388 . S
C506 C511 1.418 . S
C507 H502 0.930 . S
C507 C510 1.404 . S
C507 C511 1.353 . S
N508 Co473 2.145 . S
N508 C509 1.397 . S
N508 C510 1.334 . S
C509 H490 0.929 . S
C509 C506 1.388 . S
C509 N508 1.397 . S
C510 H491 0.929 . S
C510 C507 1.404 . S
C510 N508 1.334 . S
C511 H503 0.930 . S
C511 C506 1.418 . S
C511 C507 1.353 . S
C512 H482 0.930 . S
C512 N513 1.330 . S
C512 C514 1.446 . S
N513 Co472 2.151 . S
N513 C512 1.330 . S
N513 C517 1.418 . S
C514 H493 0.929 . S
C514 C512 1.446 . S
C514 C515 1.332 . S
C515 H495 0.931 . S
C515 C514 1.332 . S
C515 C516 1.267 . S
C516 H484 0.929 . S
C516 C515 1.267 . S
C516 C517 1.251 . S
C517 H487 0.929 . S
C517 N513 1.418 . S
C517 C516 1.251 . S
C518 H485 0.930 1_556 S
C518 C520 1.406 . S
C518 C523 1.261 . S
C519 H486 0.930 . S
C519 N521 1.325 . S
C519 C522 1.357 . S
C520 H488 0.928 . S
C520 C518 1.406 . S
C520 N521 1.261 . S
N521 Co472 2.214 . S
N521 C519 1.325 . S
N521 C520 1.261 . S
C522 H492 0.931 . S
C522 C519 1.357 . S
C522 C523 1.312 . S
C523 H494 0.930 . S
C523 C518 1.261 . S
C523 C522 1.312 . S
C524 O496 1.214 . S
C524 O504 1.234 . S
C525 H497 0.929 . S
C525 C528 1.391 . S
C525 C530 1.391 . S
C526 H498 0.929 . S
C526 C527 1.390 . S
C526 N529 1.391 . S
C527 H499 0.930 . S
C527 C526 1.390 . S
C527 C528 1.392 . S
C528 H500 0.929 . S
C528 C525 1.391 . S
C528 C527 1.392 . S
N529 Co473 2.257 . S
N529 C526 1.391 . S
N529 C530 1.388 . S
C530 H501 0.930 . S
C530 C525 1.391 . S
C530 N529 1.388 . S
Co531 O533 2.143 . S
Co531 O539 2.074 . S
Co531 O542 2.093 . S
Co531 O555 2.097 . S
Co531 N572 2.151 . S
Co531 N580 2.214 . S
Co532 O533 2.160 1_556 S
Co532 O538 2.058 . S
Co532 O548 2.057 . S
Co532 O563 2.037 1_556 S
Co532 N567 2.145 . S
Co532 N588 2.257 1_556 S
O533 Co531 2.143 . S
O533 Co532 2.160 1_554 S
C534 O535 1.278 . S
C534 O542 1.224 . S
O535 C534 1.278 . S
C536 O537 1.245 . S
C536 O548 1.232 . S
O537 C536 1.245 . S
O538 Co532 2.058 . S
O538 C564 1.269 . S
O539 Co531 2.074 . S
O539 C564 1.257 1_554 S
H540 C565 0.930 . S
H541 C571 0.930 . S
O542 Co531 2.093 . S
O542 C534 1.224 . S
H543 C575 0.929 . S
H544 C577 0.930 . S
H545 C578 0.930 . S
H546 C576 0.929 . S
H547 C579 0.928 . S
O548 Co532 2.057 . S
O548 C536 1.232 . S
H549 C568 0.929 . S
H550 C569 0.929 . S
H551 C581 0.931 . S
H552 C573 0.929 . S
H553 C582 0.930 . S
H554 C574 0.931 . S
O555 Co531 2.097 . S
O555 C583 1.214 . S
H556 C584 0.929 . S
H557 C585 0.929 . S
H558 C586 0.930 . S
H559 C587 0.929 . S
H560 C589 0.930 . S
H561 C566 0.930 . S
H562 C570 0.930 . S
O563 Co532 2.037 1_554 S
O563 C583 1.234 . S
C564 O538 1.269 . S
C564 O539 1.257 1_556 S
C565 H540 0.930 . S
C565 C568 1.388 . S
C565 C570 1.418 . S
C566 H561 0.930 . S
C566 C569 1.404 . S
C566 C570 1.353 . S
N567 Co532 2.145 . S
N567 C568 1.397 . S
N567 C569 1.334 . S
C568 H549 0.929 . S
C568 C565 1.388 . S
C568 N567 1.397 . S
C569 H550 0.929 . S
C569 C566 1.404 . S
C569 N567 1.334 . S
C570 H562 0.930 . S
C570 C565 1.418 . S
C570 C566 1.353 . S
C571 H541 0.930 . S
C571 N572 1.330 . S
C571 C573 1.446 . S
N572 Co531 2.151 . S
N572 C571 1.330 . S
N572 C576 1.418 . S
C573 H552 0.929 . S
C573 C571 1.446 . S
C573 C574 1.332 . S
C574 H554 0.931 . S
C574 C573 1.332 . S
C574 C575 1.267 . S
C575 H543 0.929 . S
C575 C574 1.267 . S
C575 C576 1.251 . S
C576 H546 0.929 . S
C576 N572 1.418 . S
C576 C575 1.251 . S
C577 H544 0.930 . S
C577 C579 1.406 . S
C577 C582 1.261 . S
C578 H545 0.930 . S
C578 N580 1.325 . S
C578 C581 1.357 . S
C579 H547 0.928 . S
C579 C577 1.406 . S
C579 N580 1.261 . S
N580 Co531 2.214 . S
N580 C578 1.325 . S
N580 C579 1.261 . S
C581 H551 0.931 . S
C581 C578 1.357 . S
C581 C582 1.312 . S
C582 H553 0.930 . S
C582 C577 1.261 . S
C582 C581 1.312 . S
C583 O555 1.214 . S
C583 O563 1.234 . S
C584 H556 0.929 . S
C584 C587 1.391 . S
C584 C589 1.391 . S
C585 H557 0.929 . S
C585 C586 1.390 . S
C585 N588 1.391 . S
C586 H558 0.930 . S
C586 C585 1.390 . S
C586 C587 1.392 . S
C587 H559 0.929 . S
C587 C584 1.391 . S
C587 C586 1.392 . S
N588 Co532 2.257 1_554 S
N588 C585 1.391 . S
N588 C589 1.388 . S
C589 H560 0.930 . S
C589 C584 1.391 . S
C589 N588 1.388 . S
Co590 O592 2.143 . S
Co590 O598 2.074 . S
Co590 O601 2.093 . S
Co590 O614 2.097 . S
Co590 N631 2.151 . S
Co590 N639 2.214 . S
Co591 O592 2.160 1_556 S
Co591 O597 2.058 . S
Co591 O607 2.057 . S
Co591 O622 2.037 1_566 S
Co591 N626 2.145 1_565 S
Co591 N647 2.257 1_556 S
O592 Co590 2.143 . S
O592 Co591 2.160 1_554 S
C593 O594 1.278 . S
C593 O601 1.224 . S
O594 C593 1.278 . S
C595 O596 1.245 . S
C595 O607 1.232 . S
O596 C595 1.245 . S
O597 Co591 2.058 . S
O597 C623 1.269 . S
O598 Co590 2.074 . S
O598 C623 1.257 1_554 S
H599 C624 0.930 . S
H600 C630 0.930 . S
O601 Co590 2.093 . S
O601 C593 1.224 . S
H602 C634 0.929 . S
H603 C636 0.930 . S
H604 C637 0.930 . S
H605 C635 0.929 . S
H606 C638 0.928 . S
O607 Co591 2.057 . S
O607 C595 1.232 . S
H608 C627 0.929 . S
H609 C628 0.929 1_565 S
H610 C640 0.931 . S
H611 C632 0.929 . S
H612 C641 0.930 1_545 S
H613 C633 0.931 . S
O614 Co590 2.097 . S
O614 C642 1.214 1_565 S
H615 C643 0.929 . S
H616 C644 0.929 . S
H617 C645 0.930 . S
H618 C646 0.929 . S
H619 C648 0.930 . S
H620 C625 0.930 . S
H621 C629 0.930 . S
O622 Co591 2.037 1_544 S
O622 C642 1.234 . S
C623 O597 1.269 . S
C623 O598 1.257 1_556 S
C624 H599 0.930 . S
C624 C627 1.388 . S
C624 C629 1.418 . S
C625 H620 0.930 . S
C625 C628 1.404 . S
C625 C629 1.353 . S
N626 Co591 2.145 1_545 S
N626 C627 1.397 . S
N626 C628 1.334 . S
C627 H608 0.929 . S
C627 C624 1.388 . S
C627 N626 1.397 . S
C628 H609 0.929 1_545 S
C628 C625 1.404 . S
C628 N626 1.334 . S
C629 H621 0.930 . S
C629 C624 1.418 . S
C629 C625 1.353 . S
C630 H600 0.930 . S
C630 N631 1.330 . S
C630 C632 1.446 . S
N631 Co590 2.151 . S
N631 C630 1.330 . S
N631 C635 1.418 . S
C632 H611 0.929 . S
C632 C630 1.446 . S
C632 C633 1.332 . S
C633 H613 0.931 . S
C633 C632 1.332 . S
C633 C634 1.267 . S
C634 H602 0.929 . S
C634 C633 1.267 . S
C634 C635 1.251 . S
C635 H605 0.929 . S
C635 N631 1.418 . S
C635 C634 1.251 . S
C636 H603 0.930 . S
C636 C638 1.406 . S
C636 C641 1.261 . S
C637 H604 0.930 . S
C637 N639 1.325 1_545 S
C637 C640 1.357 . S
C638 H606 0.928 . S
C638 C636 1.406 . S
C638 N639 1.261 . S
N639 Co590 2.214 . S
N639 C637 1.325 1_565 S
N639 C638 1.261 . S
C640 H610 0.931 . S
C640 C637 1.357 . S
C640 C641 1.312 1_545 S
C641 H612 0.930 1_565 S
C641 C636 1.261 . S
C641 C640 1.312 1_565 S
C642 O614 1.214 1_545 S
C642 O622 1.234 . S
C643 H615 0.929 . S
C643 C646 1.391 . S
C643 C648 1.391 . S
C644 H616 0.929 . S
C644 C645 1.390 . S
C644 N647 1.391 1_545 S
C645 H617 0.930 . S
C645 C644 1.390 . S
C645 C646 1.392 1_545 S
C646 H618 0.929 . S
C646 C643 1.391 . S
C646 C645 1.392 1_565 S
N647 Co591 2.257 1_554 S
N647 C644 1.391 1_565 S
N647 C648 1.388 . S
C648 H619 0.930 . S
C648 C643 1.391 . S
C648 N647 1.388 . S
Co649 O651 2.143 . S
Co649 O657 2.074 . S
Co649 O660 2.093 . S
Co649 O673 2.097 . S
Co649 N690 2.151 . S
Co649 N698 2.214 . S
Co650 O651 2.160 1_556 S
Co650 O656 2.058 . S
Co650 O666 2.057 . S
Co650 O681 2.037 1_556 S
Co650 N685 2.145 . S
Co650 N706 2.257 1_556 S
O651 Co649 2.143 . S
O651 Co650 2.160 1_554 S
C652 O653 1.278 . S
C652 O660 1.224 . S
O653 C652 1.278 . S
C654 O655 1.245 . S
C654 O666 1.232 . S
O655 C654 1.245 . S
O656 Co650 2.058 . S
O656 C682 1.269 . S
O657 Co649 2.074 . S
O657 C682 1.257 1_554 S
H658 C683 0.930 . S
H659 C689 0.930 . S
O660 Co649 2.093 . S
O660 C652 1.224 . S
H661 C693 0.929 . S
H662 C695 0.930 . S
H663 C696 0.930 . S
H664 C694 0.929 . S
H665 C697 0.928 . S
O666 Co650 2.057 . S
O666 C654 1.232 . S
H667 C686 0.929 . S
H668 C687 0.929 . S
H669 C699 0.931 . S
H670 C691 0.929 . S
H671 C700 0.930 . S
H672 C692 0.931 . S
O673 Co649 2.097 . S
O673 C701 1.214 . S
H674 C702 0.929 . S
H675 C703 0.929 . S
H676 C704 0.930 . S
H677 C705 0.929 . S
H678 C707 0.930 . S
H679 C684 0.930 . S
H680 C688 0.930 . S
O681 Co650 2.037 1_554 S
O681 C701 1.234 . S
C682 O656 1.269 . S
C682 O657 1.257 1_556 S
C683 H658 0.930 . S
C683 C686 1.388 1_655 S
C683 C688 1.418 . S
C684 H679 0.930 . S
C684 C687 1.404 . S
C684 C688 1.353 1_455 S
N685 Co650 2.145 . S
N685 C686 1.397 . S
N685 C687 1.334 . S
C686 H667 0.929 . S
C686 C683 1.388 1_455 S
C686 N685 1.397 . S
C687 H668 0.929 . S
C687 C684 1.404 . S
C687 N685 1.334 . S
C688 H680 0.930 . S
C688 C683 1.418 . S
C688 C684 1.353 1_655 S
C689 H659 0.930 . S
C689 N690 1.330 . S
C689 C691 1.446 . S
N690 Co649 2.151 . S
N690 C689 1.330 . S
N690 C694 1.418 . S
C691 H670 0.929 . S
C691 C689 1.446 . S
C691 C692 1.332 . S
C692 H672 0.931 . S
C692 C691 1.332 . S
C692 C693 1.267 . S
C693 H661 0.929 . S
C693 C692 1.267 . S
C693 C694 1.251 . S
C694 H664 0.929 . S
C694 N690 1.418 . S
C694 C693 1.251 . S
C695 H662 0.930 . S
C695 C697 1.406 . S
C695 C700 1.261 . S
C696 H663 0.930 . S
C696 N698 1.325 . S
C696 C699 1.357 . S
C697 H665 0.928 . S
C697 C695 1.406 . S
C697 N698 1.261 . S
N698 Co649 2.214 . S
N698 C696 1.325 . S
N698 C697 1.261 . S
C699 H669 0.931 . S
C699 C696 1.357 . S
C699 C700 1.312 . S
C700 H671 0.930 . S
C700 C695 1.261 . S
C700 C699 1.312 . S
C701 O673 1.214 . S
C701 O681 1.234 . S
C702 H674 0.929 . S
C702 C705 1.391 . S
C702 C707 1.391 . S
C703 H675 0.929 . S
C703 C704 1.390 . S
C703 N706 1.391 . S
C704 H676 0.930 . S
C704 C703 1.390 . S
C704 C705 1.392 . S
C705 H677 0.929 . S
C705 C702 1.391 . S
C705 C704 1.392 . S
N706 Co650 2.257 1_554 S
N706 C703 1.391 . S
N706 C707 1.388 . S
C707 H678 0.930 . S
C707 C702 1.391 . S
C707 N706 1.388 . S
Co708 O710 2.143 . S
Co708 O716 2.074 . S
Co708 O719 2.093 . S
Co708 O732 2.097 . S
Co708 N749 2.151 . S
Co708 N757 2.214 . S
Co709 O710 2.160 1_554 S
Co709 O715 2.058 . S
Co709 O725 2.057 . S
Co709 O740 2.037 1_554 S
Co709 N744 2.145 . S
Co709 N765 2.257 1_554 S
O710 Co708 2.143 . S
O710 Co709 2.160 1_556 S
C711 O712 1.278 . S
C711 O719 1.224 . S
O712 C711 1.278 . S
C713 O714 1.245 . S
C713 O725 1.232 . S
O714 C713 1.245 . S
O715 Co709 2.058 . S
O715 C741 1.269 . S
O716 Co708 2.074 . S
O716 C741 1.257 1_556 S
H717 C742 0.930 . S
H718 C748 0.930 . S
O719 Co708 2.093 . S
O719 C711 1.224 . S
H720 C752 0.929 . S
H721 C754 0.930 . S
H722 C755 0.930 . S
H723 C753 0.929 . S
H724 C756 0.928 . S
O725 Co709 2.057 . S
O725 C713 1.232 . S
H726 C745 0.929 . S
H727 C746 0.929 . S
H728 C758 0.931 . S
H729 C750 0.929 . S
H730 C759 0.930 . S
H731 C751 0.931 . S
O732 Co708 2.097 . S
O732 C760 1.214 . S
H733 C761 0.929 . S
H734 C762 0.929 . S
H735 C763 0.930 . S
H736 C764 0.929 . S
H737 C766 0.930 . S
H738 C743 0.930 . S
H739 C747 0.930 . S
O740 Co709 2.037 1_556 S
O740 C760 1.234 . S
C741 O715 1.269 . S
C741 O716 1.257 1_554 S
C742 H717 0.930 . S
C742 C745 1.388 . S
C742 C747 1.418 . S
C743 H738 0.930 . S
C743 C746 1.404 . S
C743 C747 1.353 . S
N744 Co709 2.145 . S
N744 C745 1.397 . S
N744 C746 1.334 . S
C745 H726 0.929 . S
C745 C742 1.388 . S
C745 N744 1.397 . S
C746 H727 0.929 . S
C746 C743 1.404 . S
C746 N744 1.334 . S
C747 H739 0.930 . S
C747 C742 1.418 . S
C747 C743 1.353 . S
C748 H718 0.930 . S
C748 N749 1.330 . S
C748 C750 1.446 . S
N749 Co708 2.151 . S
N749 C748 1.330 . S
N749 C753 1.418 . S
C750 H729 0.929 . S
C750 C748 1.446 . S
C750 C751 1.332 . S
C751 H731 0.931 . S
C751 C750 1.332 . S
C751 C752 1.267 . S
C752 H720 0.929 . S
C752 C751 1.267 . S
C752 C753 1.251 . S
C753 H723 0.929 . S
C753 N749 1.418 . S
C753 C752 1.251 . S
C754 H721 0.930 . S
C754 C756 1.406 . S
C754 C759 1.261 . S
C755 H722 0.930 . S
C755 N757 1.325 . S
C755 C758 1.357 . S
C756 H724 0.928 . S
C756 C754 1.406 . S
C756 N757 1.261 . S
N757 Co708 2.214 . S
N757 C755 1.325 . S
N757 C756 1.261 . S
C758 H728 0.931 . S
C758 C755 1.357 . S
C758 C759 1.312 . S
C759 H730 0.930 . S
C759 C754 1.261 . S
C759 C758 1.312 . S
C760 O732 1.214 . S
C760 O740 1.234 . S
C761 H733 0.929 . S
C761 C764 1.391 . S
C761 C766 1.391 . S
C762 H734 0.929 . S
C762 C763 1.390 . S
C762 N765 1.391 . S
C763 H735 0.930 . S
C763 C762 1.390 . S
C763 C764 1.392 . S
C764 H736 0.929 . S
C764 C761 1.391 . S
C764 C763 1.392 . S
N765 Co709 2.257 1_556 S
N765 C762 1.391 . S
N765 C766 1.388 . S
C766 H737 0.930 . S
C766 C761 1.391 . S
C766 N765 1.388 . S
Co767 O769 2.143 1_554 S
Co767 O775 2.074 1_554 S
Co767 O778 2.093 . S
Co767 O791 2.097 . S
Co767 N808 2.151 1_554 S
Co767 N816 2.214 . S
Co768 O769 2.160 . S
Co768 O774 2.058 . S
Co768 O784 2.057 . S
Co768 O799 2.037 . S
Co768 N803 2.145 . S
Co768 N824 2.257 . S
O769 Co767 2.143 1_556 S
O769 Co768 2.160 . S
C770 O771 1.278 . S
C770 O778 1.224 . S
O771 C770 1.278 . S
C772 O773 1.245 . S
C772 O784 1.232 . S
O773 C772 1.245 . S
O774 Co768 2.058 . S
O774 C800 1.269 . S
O775 Co767 2.074 1_556 S
O775 C800 1.257 . S
H776 C801 0.930 . S
H777 C807 0.930 . S
O778 Co767 2.093 . S
O778 C770 1.224 . S
H779 C811 0.929 . S
H780 C813 0.930 . S
H781 C814 0.930 . S
H782 C812 0.929 . S
H783 C815 0.928 . S
O784 Co768 2.057 . S
O784 C772 1.232 . S
H785 C804 0.929 . S
H786 C805 0.929 . S
H787 C817 0.931 . S
H788 C809 0.929 . S
H789 C818 0.930 . S
H790 C810 0.931 . S
O791 Co767 2.097 . S
O791 C819 1.214 . S
H792 C820 0.929 . S
H793 C821 0.929 . S
H794 C822 0.930 . S
H795 C823 0.929 1_554 S
H796 C825 0.930 . S
H797 C802 0.930 . S
H798 C806 0.930 . S
O799 Co768 2.037 . S
O799 C819 1.234 1_556 S
C800 O774 1.269 . S
C800 O775 1.257 . S
C801 H776 0.930 . S
C801 C804 1.388 . S
C801 C806 1.418 . S
C802 H797 0.930 . S
C802 C805 1.404 . S
C802 C806 1.353 . S
N803 Co768 2.145 . S
N803 C804 1.397 . S
N803 C805 1.334 . S
C804 H785 0.929 . S
C804 C801 1.388 . S
C804 N803 1.397 . S
C805 H786 0.929 . S
C805 C802 1.404 . S
C805 N803 1.334 . S
C806 H798 0.930 . S
C806 C801 1.418 . S
C806 C802 1.353 . S
C807 H777 0.930 . S
C807 N808 1.330 1_554 S
C807 C809 1.446 1_554 S
N808 Co767 2.151 1_556 S
N808 C807 1.330 1_556 S
N808 C812 1.418 . S
C809 H788 0.929 . S
C809 C807 1.446 1_556 S
C809 C810 1.332 . S
C810 H790 0.931 . S
C810 C809 1.332 . S
C810 C811 1.267 . S
C811 H779 0.929 . S
C811 C810 1.267 . S
C811 C812 1.251 . S
C812 H782 0.929 . S
C812 N808 1.418 . S
C812 C811 1.251 . S
C813 H780 0.930 . S
C813 C815 1.406 . S
C813 C818 1.261 1_545 S
C814 H781 0.930 . S
C814 N816 1.325 . S
C814 C817 1.357 1_545 S
C815 H783 0.928 . S
C815 C813 1.406 . S
C815 N816 1.261 . S
N816 Co767 2.214 . S
N816 C814 1.325 . S
N816 C815 1.261 . S
C817 H787 0.931 . S
C817 C814 1.357 1_565 S
C817 C818 1.312 . S
C818 H789 0.930 . S
C818 C813 1.261 1_565 S
C818 C817 1.312 . S
C819 O791 1.214 . S
C819 O799 1.234 1_554 S
C820 H792 0.929 . S
C820 C823 1.391 . S
C820 C825 1.391 . S
C821 H793 0.929 . S
C821 C822 1.390 . S
C821 N824 1.391 . S
C822 H794 0.930 . S
C822 C821 1.390 . S
C822 C823 1.392 . S
C823 H795 0.929 1_556 S
C823 C820 1.391 . S
C823 C822 1.392 . S
N824 Co768 2.257 . S
N824 C821 1.391 . S
N824 C825 1.388 . S
C825 H796 0.930 . S
C825 C820 1.391 . S
C825 N824 1.388 . S
Co826 O828 2.143 . S
Co826 O834 2.074 . S
Co826 O837 2.093 . S
Co826 O850 2.097 . S
Co826 N867 2.151 . S
Co826 N875 2.214 . S
Co827 O828 2.160 1_554 S
Co827 O833 2.058 . S
Co827 O843 2.057 . S
Co827 O858 2.037 1_654 S
Co827 N862 2.145 1_655 S
Co827 N883 2.257 1_554 S
O828 Co826 2.143 . S
O828 Co827 2.160 1_556 S
C829 O830 1.278 . S
C829 O837 1.224 . S
O830 C829 1.278 . S
C831 O832 1.245 . S
C831 O843 1.232 . S
O832 C831 1.245 . S
O833 Co827 2.058 . S
O833 C859 1.269 . S
O834 Co826 2.074 . S
O834 C859 1.257 1_556 S
H835 C860 0.930 . S
H836 C866 0.930 . S
O837 Co826 2.093 . S
O837 C829 1.224 . S
H838 C870 0.929 . S
H839 C872 0.930 . S
H840 C873 0.939 . S
H841 C871 0.929 . S
H842 C874 0.928 . S
O843 Co827 2.057 . S
O843 C831 1.232 . S
H844 C863 0.929 . S
H845 C864 0.929 1_655 S
H846 C876 0.931 . S
H847 C868 0.929 . S
H848 C877 0.922 1_455 S
H849 C869 0.931 . S
O850 Co826 2.097 . S
O850 C878 1.214 1_655 S
H851 C879 0.929 . S
H852 C880 0.929 . S
H853 C881 0.930 . S
H854 C882 0.929 . S
H855 C884 0.930 . S
H856 C861 0.930 . S
H857 C865 0.930 . S
O858 Co827 2.037 1_456 S
O858 C878 1.234 . S
C859 O833 1.269 . S
C859 O834 1.257 1_554 S
C860 H835 0.930 . S
C860 C863 1.388 . S
C860 C865 1.418 . S
C861 H856 0.930 . S
C861 C864 1.404 . S
C861 C865 1.353 . S
N862 Co827 2.145 1_455 S
N862 C863 1.397 . S
N862 C864 1.334 . S
C863 H844 0.929 . S
C863 C860 1.388 . S
C863 N862 1.397 . S
C864 H845 0.929 1_455 S
C864 C861 1.404 . S
C864 N862 1.334 . S
C865 H857 0.930 . S
C865 C860 1.418 . S
C865 C861 1.353 . S
C866 H836 0.930 . S
C866 N867 1.330 . S
C866 C868 1.446 . S
N867 Co826 2.151 . S
N867 C866 1.330 . S
N867 C871 1.418 . S
C868 H847 0.929 . S
C868 C866 1.446 . S
C868 C869 1.332 . S
C869 H849 0.931 . S
C869 C868 1.332 . S
C869 C870 1.267 . S
C870 H838 0.929 . S
C870 C869 1.267 . S
C870 C871 1.251 . S
C871 H841 0.929 . S
C871 N867 1.418 . S
C871 C870 1.251 . S
C872 H839 0.930 . S
C872 C874 1.406 . S
C872 C877 1.261 . S
C873 H840 0.939 . S
C873 N875 1.297 1_455 S
C873 C876 1.377 . S
C874 H842 0.928 . S
C874 C872 1.406 . S
C874 N875 1.261 . S
N875 Co826 2.214 . S
N875 C873 1.297 1_655 S
N875 C874 1.261 . S
C876 H846 0.931 . S
C876 C873 1.377 . S
C876 C877 1.312 1_455 S
C877 H848 0.922 1_655 S
C877 C872 1.261 . S
C877 C876 1.312 1_655 S
C878 O850 1.214 1_455 S
C878 O858 1.234 . S
C879 H851 0.929 . S
C879 C882 1.391 . S
C879 C884 1.391 . S
C880 H852 0.929 . S
C880 C881 1.390 . S
C880 N883 1.391 1_455 S
C881 H853 0.930 . S
C881 C880 1.390 . S
C881 C882 1.392 1_455 S
C882 H854 0.929 . S
C882 C879 1.391 . S
C882 C881 1.392 1_655 S
N883 Co827 2.257 1_556 S
N883 C880 1.391 1_655 S
N883 C884 1.388 . S
C884 H855 0.930 . S
C884 C879 1.391 . S
C884 N883 1.388 . S
Co885 O887 2.143 . S
Co885 O893 2.074 . S
Co885 O896 2.093 . S
Co885 O909 2.097 . S
Co885 N926 2.151 . S
Co885 N934 2.214 . S
Co886 O887 2.160 . S
Co886 O892 2.058 . S
Co886 O902 2.057 . S
Co886 O917 2.037 . S
Co886 N921 2.145 . S
Co886 N942 2.257 . S
O887 Co885 2.143 . S
O887 Co886 2.160 . S
C888 O889 1.278 . S
C888 O896 1.224 . S
O889 C888 1.278 . S
C890 O891 1.245 . S
C890 O902 1.232 . S
O891 C890 1.245 . S
O892 Co886 2.058 . S
O892 C918 1.269 . S
O893 Co885 2.074 . S
O893 C918 1.257 . S
H894 C919 0.930 . S
H895 C925 0.930 . S
O896 Co885 2.093 . S
O896 C888 1.224 . S
H897 C929 0.929 . S
H898 C931 0.930 . S
H899 C932 0.930 . S
H900 C930 0.929 . S
H901 C933 0.928 . S
O902 Co886 2.057 . S
O902 C890 1.232 . S
H903 C922 0.929 . S
H904 C923 0.929 . S
H905 C935 0.931 . S
H906 C927 0.929 . S
H907 C936 0.930 . S
H908 C928 0.931 . S
O909 Co885 2.097 . S
O909 C937 1.214 . S
H910 C938 0.929 . S
H911 C939 0.929 . S
H912 C940 0.930 . S
H913 C941 0.929 . S
H914 C943 0.930 . S
H915 C920 0.930 1_556 S
H916 C924 0.930 . S
O917 Co886 2.037 . S
O917 C937 1.234 . S
C918 O892 1.269 . S
C918 O893 1.257 . S
C919 H894 0.930 . S
C919 C922 1.388 . S
C919 C924 1.418 . S
C920 H915 0.930 1_554 S
C920 C923 1.404 . S
C920 C924 1.353 . S
N921 Co886 2.145 . S
N921 C922 1.397 . S
N921 C923 1.334 . S
C922 H903 0.929 . S
C922 C919 1.388 . S
C922 N921 1.397 . S
C923 H904 0.929 . S
C923 C920 1.404 . S
C923 N921 1.334 . S
C924 H916 0.930 . S
C924 C919 1.418 . S
C924 C920 1.353 . S
C925 H895 0.930 . S
C925 N926 1.330 . S
C925 C927 1.446 . S
N926 Co885 2.151 . S
N926 C925 1.330 . S
N926 C930 1.418 . S
C927 H906 0.929 . S
C927 C925 1.446 . S
C927 C928 1.332 . S
C928 H908 0.931 . S
C928 C927 1.332 . S
C928 C929 1.267 . S
C929 H897 0.929 . S
C929 C928 1.267 . S
C929 C930 1.251 . S
C930 H900 0.929 . S
C930 N926 1.418 . S
C930 C929 1.251 . S
C931 H898 0.930 . S
C931 C933 1.406 . S
C931 C936 1.261 1_545 S
C932 H899 0.930 . S
C932 N934 1.325 . S
C932 C935 1.357 1_545 S
C933 H901 0.928 . S
C933 C931 1.406 . S
C933 N934 1.261 . S
N934 Co885 2.214 . S
N934 C932 1.325 . S
N934 C933 1.261 . S
C935 H905 0.931 . S
C935 C932 1.357 1_565 S
C935 C936 1.312 . S
C936 H907 0.930 . S
C936 C931 1.261 1_565 S
C936 C935 1.312 . S
C937 O909 1.214 . S
C937 O917 1.234 . S
C938 H910 0.929 . S
C938 C941 1.391 . S
C938 C943 1.391 . S
C939 H911 0.929 . S
C939 C940 1.390 . S
C939 N942 1.391 . S
C940 H912 0.930 . S
C940 C939 1.390 . S
C940 C941 1.392 . S
C941 H913 0.929 . S
C941 C938 1.391 . S
C941 C940 1.392 . S
N942 Co886 2.257 . S
N942 C939 1.391 . S
N942 C943 1.388 . S
C943 H914 0.930 . S
C943 C938 1.391 . S
C943 N942 1.388 . S
Co944 O946 2.143 . S
Co944 O952 2.074 . S
Co944 O955 2.093 . S
Co944 O968 2.097 . S
Co944 N985 2.151 . S
Co944 N993 2.214 . S
Co945 O946 2.160 . S
Co945 O951 2.058 . S
Co945 O961 2.057 . S
Co945 O976 2.037 1_655 S
Co945 N980 2.145 1_655 S
Co945 N1001 2.257 . S
O946 Co944 2.143 . S
O946 Co945 2.160 . S
C947 O948 1.278 . S
C947 O955 1.224 . S
O948 C947 1.278 . S
C949 O950 1.245 . S
C949 O961 1.232 . S
O950 C949 1.245 . S
O951 Co945 2.058 . S
O951 C977 1.269 . S
O952 Co944 2.074 . S
O952 C977 1.257 . S
H953 C978 0.930 . S
H954 C984 0.930 . S
O955 Co944 2.093 . S
O955 C947 1.224 . S
H956 C988 0.929 . S
H957 C990 0.930 1_556 S
H958 C991 0.942 . S
H959 C989 0.929 . S
H960 C992 0.928 . S
O961 Co945 2.057 . S
O961 C949 1.232 . S
H962 C981 0.929 . S
H963 C982 0.929 1_655 S
H964 C994 0.931 . S
H965 C986 0.929 . S
H966 C995 0.930 . S
H967 C987 0.931 . S
O968 Co944 2.097 . S
O968 C996 1.214 1_655 S
H969 C997 0.929 . S
H970 C998 0.929 . S
H971 C999 0.930 . S
H972 C1000 0.929 . S
H973 C1002 0.930 . S
H974 C979 0.930 . S
H975 C983 0.930 . S
O976 Co945 2.037 1_455 S
O976 C996 1.234 . S
C977 O951 1.269 . S
C977 O952 1.257 . S
C978 H953 0.930 . S
C978 C981 1.388 . S
C978 C983 1.418 . S
C979 H974 0.930 . S
C979 C982 1.404 . S
C979 C983 1.353 . S
N980 Co945 2.145 1_455 S
N980 C981 1.397 . S
N980 C982 1.334 . S
C981 H962 0.929 . S
C981 C978 1.388 . S
C981 N980 1.397 . S
C982 H963 0.929 1_455 S
C982 C979 1.404 . S
C982 N980 1.334 . S
C983 H975 0.930 . S
C983 C978 1.418 . S
C983 C979 1.353 . S
C984 H954 0.930 . S
C984 N985 1.330 . S
C984 C986 1.446 . S
N985 Co944 2.151 . S
N985 C984 1.330 . S
N985 C989 1.418 . S
C986 H965 0.929 . S
C986 C984 1.446 . S
C986 C987 1.332 . S
C987 H967 0.931 . S
C987 C986 1.332 . S
C987 C988 1.267 . S
C988 H956 0.929 . S
C988 C987 1.267 . S
C988 C989 1.251 . S
C989 H959 0.929 . S
C989 N985 1.418 . S
C989 C988 1.251 . S
C990 H957 0.930 1_554 S
C990 C992 1.406 . S
C990 C995 1.261 . S
C991 H958 0.942 . S
C991 N993 1.315 1_455 S
C991 C994 1.356 . S
C992 H960 0.928 . S
C992 C990 1.406 . S
C992 N993 1.261 . S
N993 Co944 2.214 . S
N993 C991 1.315 1_655 S
N993 C992 1.261 . S
C994 H964 0.931 . S
C994 C991 1.356 . S
C994 C995 1.312 1_455 S
C995 H966 0.930 . S
C995 C990 1.261 . S
C995 C994 1.312 1_655 S
C996 O968 1.214 1_455 S
C996 O976 1.234 . S
C997 H969 0.929 . S
C997 C1000 1.391 . S
C997 C1002 1.391 . S
C998 H970 0.929 . S
C998 C999 1.390 . S
C998 N1001 1.391 1_455 S
C999 H971 0.930 . S
C999 C998 1.390 . S
C999 C1000 1.392 1_455 S
C1000 H972 0.929 . S
C1000 C997 1.391 . S
C1000 C999 1.392 1_655 S
N1001 Co945 2.257 . S
N1001 C998 1.391 1_655 S
N1001 C1002 1.388 . S
C1002 H973 0.930 . S
C1002 C997 1.391 . S
C1002 N1001 1.388 . S
Co1003 O1005 2.143 . S
Co1003 O1011 2.074 . S
Co1003 O1014 2.093 . S
Co1003 O1027 2.097 . S
Co1003 N1044 2.151 . S
Co1003 N1052 2.214 . S
Co1004 O1005 2.160 . S
Co1004 O1010 2.058 . S
Co1004 O1020 2.057 . S
Co1004 O1035 2.037 . S
Co1004 N1039 2.145 . S
Co1004 N1060 2.257 . S
O1005 Co1003 2.143 . S
O1005 Co1004 2.160 . S
C1006 O1007 1.278 . S
C1006 O1014 1.224 . S
O1007 C1006 1.278 . S
C1008 O1009 1.245 . S
C1008 O1020 1.232 . S
O1009 C1008 1.245 . S
O1010 Co1004 2.058 . S
O1010 C1036 1.269 . S
O1011 Co1003 2.074 . S
O1011 C1036 1.257 . S
H1012 C1037 0.930 . S
H1013 C1043 0.930 . S
O1014 Co1003 2.093 . S
O1014 C1006 1.224 . S
H1015 C1047 0.929 . S
H1016 C1049 0.930 . S
H1017 C1050 0.930 . S
H1018 C1048 0.929 . S
H1019 C1051 0.928 . S
O1020 Co1004 2.057 . S
O1020 C1008 1.232 . S
H1021 C1040 0.929 . S
H1022 C1041 0.929 . S
H1023 C1053 0.931 . S
H1024 C1045 0.929 . S
H1025 C1054 0.930 . S
H1026 C1046 0.931 . S
O1027 Co1003 2.097 . S
O1027 C1055 1.214 . S
H1028 C1056 0.929 . S
H1029 C1057 0.929 . S
H1030 C1058 0.930 . S
H1031 C1059 0.929 . S
H1032 C1061 0.930 . S
H1033 C1038 0.930 1_556 S
H1034 C1042 0.930 . S
O1035 Co1004 2.037 . S
O1035 C1055 1.234 . S
C1036 O1010 1.269 . S
C1036 O1011 1.257 . S
C1037 H1012 0.930 . S
C1037 C1040 1.388 . S
C1037 C1042 1.418 . S
C1038 H1033 0.930 1_554 S
C1038 C1041 1.404 . S
C1038 C1042 1.353 . S
N1039 Co1004 2.145 . S
N1039 C1040 1.397 . S
N1039 C1041 1.334 . S
C1040 H1021 0.929 . S
C1040 C1037 1.388 . S
C1040 N1039 1.397 . S
C1041 H1022 0.929 . S
C1041 C1038 1.404 . S
C1041 N1039 1.334 . S
C1042 H1034 0.930 . S
C1042 C1037 1.418 . S
C1042 C1038 1.353 . S
C1043 H1013 0.930 . S
C1043 N1044 1.330 . S
C1043 C1045 1.446 . S
N1044 Co1003 2.151 . S
N1044 C1043 1.330 . S
N1044 C1048 1.418 . S
C1045 H1024 0.929 . S
C1045 C1043 1.446 . S
C1045 C1046 1.332 . S
C1046 H1026 0.931 . S
C1046 C1045 1.332 . S
C1046 C1047 1.267 . S
C1047 H1015 0.929 . S
C1047 C1046 1.267 . S
C1047 C1048 1.251 . S
C1048 H1018 0.929 . S
C1048 N1044 1.418 . S
C1048 C1047 1.251 . S
C1049 H1016 0.930 . S
C1049 C1051 1.406 . S
C1049 C1054 1.261 . S
C1050 H1017 0.930 . S
C1050 N1052 1.325 . S
C1050 C1053 1.357 . S
C1051 H1019 0.928 . S
C1051 C1049 1.406 . S
C1051 N1052 1.261 . S
N1052 Co1003 2.214 . S
N1052 C1050 1.325 . S
N1052 C1051 1.261 . S
C1053 H1023 0.931 . S
C1053 C1050 1.357 . S
C1053 C1054 1.312 . S
C1054 H1025 0.930 . S
C1054 C1049 1.261 . S
C1054 C1053 1.312 . S
C1055 O1027 1.214 . S
C1055 O1035 1.234 . S
C1056 H1028 0.929 . S
C1056 C1059 1.391 . S
C1056 C1061 1.391 . S
C1057 H1029 0.929 . S
C1057 C1058 1.390 . S
C1057 N1060 1.391 . S
C1058 H1030 0.930 . S
C1058 C1057 1.390 . S
C1058 C1059 1.392 . S
C1059 H1031 0.929 . S
C1059 C1056 1.391 . S
C1059 C1058 1.392 . S
N1060 Co1004 2.257 . S
N1060 C1057 1.391 . S
N1060 C1061 1.388 . S
C1061 H1032 0.930 . S
C1061 C1056 1.391 . S
C1061 N1060 1.388 . S
C180 C3 1.567 1_556 S
C241 C64 1.497 1_556 S
C121 C298 1.569 1_554 S
C123 C300 1.494 . S
C5 C182 1.493 . S
C239 C62 1.564 . S
C534 C359 1.523 . S
C418 C593 1.526 . S
C477 C652 1.527 . S
C654 C475 1.530 . S
C536 C357 1.527 . S
C595 C416 1.527 . S
C711 C888 1.568 . S
C772 C949 1.497 . S
C829 C1006 1.570 . S
C1008 C831 1.495 . S
C890 C713 1.494 . S
C947 C770 1.566 . S
C33 C446 1.712 . S
C111 C505 1.702 . S
C387 C151 1.712 1_565 S
C170 C819 1.688 . S
C859 C52 1.700 . S
C741 C92 1.710 . S
C977 C210 1.710 . S
C288 C1055 1.689 . S
C937 C328 1.700 . S
C623 C347 1.698 1_565 S
C229 C682 1.699 . S
C269 C564 1.708 . S
C406 C800 1.699 . S
C465 C878 1.687 . S
C524 C760 1.687 . S
C996 C701 1.691 . S
C1036 C583 1.703 . S
C642 C918 1.702 . S
