# Generated by pormake.
# Topology uox, (4)-cn, num edge types: 1
# Building blocks:
#     Node 0, Type 0, BuildingBlock: QUQFOY_clean_sbu_1, # of connection points: 4
#     Node 1, Type 0, BuildingBlock: QUQFOY_clean_sbu_1, # of connection points: 4
#     Node 2, Type 0, BuildingBlock: QUQFOY_clean_sbu_1, # of connection points: 4
#     Node 3, Type 0, BuildingBlock: QUQFOY_clean_sbu_1, # of connection points: 4
#     Node 4, Type 0, BuildingBlock: QUQFOY_clean_sbu_1, # of connection points: 4
#     Node 5, Type 0, BuildingBlock: QUQFOY_clean_sbu_1, # of connection points: 4
#     Node 6, Type 0, BuildingBlock: QUQFOY_clean_sbu_1, # of connection points: 4
#     Node 7, Type 0, BuildingBlock: QUQFOY_clean_sbu_1, # of connection points: 4
#     Node 8, Type 0, BuildingBlock: QUQFOY_clean_sbu_1, # of connection points: 4
#     Node 9, Type 0, BuildingBlock: QUQFOY_clean_sbu_1, # of connection points: 4
#     Node 10, Type 0, BuildingBlock: QUQFOY_clean_sbu_1, # of connection points: 4
#     Node 11, Type 0, BuildingBlock: QUQFOY_clean_sbu_1, # of connection points: 4
#     Node 12, Type 0, BuildingBlock: QUQFOY_clean_sbu_1, # of connection points: 4
#     Node 13, Type 0, BuildingBlock: QUQFOY_clean_sbu_1, # of connection points: 4
#     Node 14, Type 0, BuildingBlock: QUQFOY_clean_sbu_1, # of connection points: 4
#     Node 15, Type 0, BuildingBlock: QUQFOY_clean_sbu_1, # of connection points: 4
#     Node 16, Type 0, BuildingBlock: QUQFOY_clean_sbu_1, # of connection points: 4
#     Node 17, Type 0, BuildingBlock: QUQFOY_clean_sbu_1, # of connection points: 4
#     Node 18, Type 0, BuildingBlock: QUQFOY_clean_sbu_1, # of connection points: 4
#     Node 19, Type 0, BuildingBlock: QUQFOY_clean_sbu_1, # of connection points: 4
#     Node 20, Type 0, BuildingBlock: QUQFOY_clean_sbu_1, # of connection points: 4
#     Node 21, Type 0, BuildingBlock: QUQFOY_clean_sbu_1, # of connection points: 4
#     Node 22, Type 0, BuildingBlock: QUQFOY_clean_sbu_1, # of connection points: 4
#     Node 23, Type 0, BuildingBlock: QUQFOY_clean_sbu_1, # of connection points: 4
#     Node 24, Type 0, BuildingBlock: QUQFOY_clean_sbu_1, # of connection points: 4
#     Node 25, Type 0, BuildingBlock: QUQFOY_clean_sbu_1, # of connection points: 4
#     Node 26, Type 0, BuildingBlock: QUQFOY_clean_sbu_1, # of connection points: 4
#     Node 27, Type 0, BuildingBlock: QUQFOY_clean_sbu_1, # of connection points: 4
#     Node 28, Type 0, BuildingBlock: QUQFOY_clean_sbu_1, # of connection points: 4
#     Node 29, Type 0, BuildingBlock: QUQFOY_clean_sbu_1, # of connection points: 4
#     Node 30, Type 0, BuildingBlock: QUQFOY_clean_sbu_1, # of connection points: 4
#     Node 31, Type 0, BuildingBlock: QUQFOY_clean_sbu_1, # of connection points: 4
#     Edge 32, Type (0, 0), BuildingBlock: XUDNAN_clean_linker_2, # of connection points: 2
#     Edge 33, Type (0, 0), BuildingBlock: XUDNAN_clean_linker_2, # of connection points: 2
#     Edge 34, Type (0, 0), BuildingBlock: XUDNAN_clean_linker_2, # of connection points: 2
#     Edge 35, Type (0, 0), BuildingBlock: XUDNAN_clean_linker_2, # of connection points: 2
#     Edge 36, Type (0, 0), BuildingBlock: XUDNAN_clean_linker_2, # of connection points: 2
#     Edge 37, Type (0, 0), BuildingBlock: XUDNAN_clean_linker_2, # of connection points: 2
#     Edge 38, Type (0, 0), BuildingBlock: XUDNAN_clean_linker_2, # of connection points: 2
#     Edge 39, Type (0, 0), BuildingBlock: XUDNAN_clean_linker_2, # of connection points: 2
#     Edge 40, Type (0, 0), BuildingBlock: XUDNAN_clean_linker_2, # of connection points: 2
#     Edge 41, Type (0, 0), BuildingBlock: XUDNAN_clean_linker_2, # of connection points: 2
#     Edge 42, Type (0, 0), BuildingBlock: XUDNAN_clean_linker_2, # of connection points: 2
#     Edge 43, Type (0, 0), BuildingBlock: XUDNAN_clean_linker_2, # of connection points: 2
#     Edge 44, Type (0, 0), BuildingBlock: XUDNAN_clean_linker_2, # of connection points: 2
#     Edge 45, Type (0, 0), BuildingBlock: XUDNAN_clean_linker_2, # of connection points: 2
#     Edge 46, Type (0, 0), BuildingBlock: XUDNAN_clean_linker_2, # of connection points: 2
#     Edge 47, Type (0, 0), BuildingBlock: XUDNAN_clean_linker_2, # of connection points: 2
#     Edge 48, Type (0, 0), BuildingBlock: XUDNAN_clean_linker_2, # of connection points: 2
#     Edge 49, Type (0, 0), BuildingBlock: XUDNAN_clean_linker_2, # of connection points: 2
#     Edge 50, Type (0, 0), BuildingBlock: XUDNAN_clean_linker_2, # of connection points: 2
#     Edge 51, Type (0, 0), BuildingBlock: XUDNAN_clean_linker_2, # of connection points: 2
#     Edge 52, Type (0, 0), BuildingBlock: XUDNAN_clean_linker_2, # of connection points: 2
#     Edge 53, Type (0, 0), BuildingBlock: XUDNAN_clean_linker_2, # of connection points: 2
#     Edge 54, Type (0, 0), BuildingBlock: XUDNAN_clean_linker_2, # of connection points: 2
#     Edge 55, Type (0, 0), BuildingBlock: XUDNAN_clean_linker_2, # of connection points: 2
#     Edge 56, Type (0, 0), BuildingBlock: XUDNAN_clean_linker_2, # of connection points: 2
#     Edge 57, Type (0, 0), BuildingBlock: XUDNAN_clean_linker_2, # of connection points: 2
#     Edge 58, Type (0, 0), BuildingBlock: XUDNAN_clean_linker_2, # of connection points: 2
#     Edge 59, Type (0, 0), BuildingBlock: XUDNAN_clean_linker_2, # of connection points: 2
#     Edge 60, Type (0, 0), BuildingBlock: XUDNAN_clean_linker_2, # of connection points: 2
#     Edge 61, Type (0, 0), BuildingBlock: XUDNAN_clean_linker_2, # of connection points: 2
#     Edge 62, Type (0, 0), BuildingBlock: XUDNAN_clean_linker_2, # of connection points: 2
#     Edge 63, Type (0, 0), BuildingBlock: XUDNAN_clean_linker_2, # of connection points: 2
#     Edge 64, Type (0, 0), BuildingBlock: XUDNAN_clean_linker_2, # of connection points: 2
#     Edge 65, Type (0, 0), BuildingBlock: XUDNAN_clean_linker_2, # of connection points: 2
#     Edge 66, Type (0, 0), BuildingBlock: XUDNAN_clean_linker_2, # of connection points: 2
#     Edge 67, Type (0, 0), BuildingBlock: XUDNAN_clean_linker_2, # of connection points: 2
#     Edge 68, Type (0, 0), BuildingBlock: XUDNAN_clean_linker_2, # of connection points: 2
#     Edge 69, Type (0, 0), BuildingBlock: XUDNAN_clean_linker_2, # of connection points: 2
#     Edge 70, Type (0, 0), BuildingBlock: XUDNAN_clean_linker_2, # of connection points: 2
#     Edge 71, Type (0, 0), BuildingBlock: XUDNAN_clean_linker_2, # of connection points: 2
#     Edge 72, Type (0, 0), BuildingBlock: XUDNAN_clean_linker_2, # of connection points: 2
#     Edge 73, Type (0, 0), BuildingBlock: XUDNAN_clean_linker_2, # of connection points: 2
#     Edge 74, Type (0, 0), BuildingBlock: XUDNAN_clean_linker_2, # of connection points: 2
#     Edge 75, Type (0, 0), BuildingBlock: XUDNAN_clean_linker_2, # of connection points: 2
#     Edge 76, Type (0, 0), BuildingBlock: XUDNAN_clean_linker_2, # of connection points: 2
#     Edge 77, Type (0, 0), BuildingBlock: XUDNAN_clean_linker_2, # of connection points: 2
#     Edge 78, Type (0, 0), BuildingBlock: XUDNAN_clean_linker_2, # of connection points: 2
#     Edge 79, Type (0, 0), BuildingBlock: XUDNAN_clean_linker_2, # of connection points: 2
#     Edge 80, Type (0, 0), BuildingBlock: XUDNAN_clean_linker_2, # of connection points: 2
#     Edge 81, Type (0, 0), BuildingBlock: XUDNAN_clean_linker_2, # of connection points: 2
#     Edge 82, Type (0, 0), BuildingBlock: XUDNAN_clean_linker_2, # of connection points: 2
#     Edge 83, Type (0, 0), BuildingBlock: XUDNAN_clean_linker_2, # of connection points: 2
#     Edge 84, Type (0, 0), BuildingBlock: XUDNAN_clean_linker_2, # of connection points: 2
#     Edge 85, Type (0, 0), BuildingBlock: XUDNAN_clean_linker_2, # of connection points: 2
#     Edge 86, Type (0, 0), BuildingBlock: XUDNAN_clean_linker_2, # of connection points: 2
#     Edge 87, Type (0, 0), BuildingBlock: XUDNAN_clean_linker_2, # of connection points: 2
#     Edge 88, Type (0, 0), BuildingBlock: XUDNAN_clean_linker_2, # of connection points: 2
#     Edge 89, Type (0, 0), BuildingBlock: XUDNAN_clean_linker_2, # of connection points: 2
#     Edge 90, Type (0, 0), BuildingBlock: XUDNAN_clean_linker_2, # of connection points: 2
#     Edge 91, Type (0, 0), BuildingBlock: XUDNAN_clean_linker_2, # of connection points: 2
#     Edge 92, Type (0, 0), BuildingBlock: XUDNAN_clean_linker_2, # of connection points: 2
#     Edge 93, Type (0, 0), BuildingBlock: XUDNAN_clean_linker_2, # of connection points: 2
#     Edge 94, Type (0, 0), BuildingBlock: XUDNAN_clean_linker_2, # of connection points: 2
#     Edge 95, Type (0, 0), BuildingBlock: XUDNAN_clean_linker_2, # of connection points: 2
# Relax obj value: 0.074
# Max RMSD: 0.135
# Mean RMSD: 0.135
data_MOF--net-uox--node1-QUQFOY_clean_sbu_1--edge1-XUDNAN_clean_linker_2
_symmetry_space_group_name_H-M    P1
_symmetry_Int_Tables_number       1
_symmetry_cell_setting            triclinic
loop_
_symmetry_equiv_pos_as_xyz
'x, y, z'
_cell_length_a     46.78115
_cell_length_b     46.712695
_cell_length_c     86.177245
_cell_angle_alpha  90.007959
_cell_angle_beta   89.965043
_cell_angle_gamma 90.011854
loop_
_atom_site_label
_atom_site_type_symbol
_atom_site_fract_x
_atom_site_fract_y
_atom_site_fract_z
_atom_type_partial_charge
O0 O 0.38803 1.00033 0.15995 0.0
Cd1 Cd 0.40084 0.03935 0.16902 0.0
Cd2 Cd 0.43419 0.03391 0.13972 0.0
O3 O 0.41557 0.9941 0.13933 0.0
O4 O 0.37516 0.0413 0.18748 0.0
O5 O 0.42191 0.03836 0.18978 0.0
C6 C 0.39714 0.03927 0.19635 0.0
C7 C 0.48125 0.04023 0.13107 0.0
C8 C 0.39624 0.98527 0.1485 0.0
C9 C 0.39265 0.08312 0.1432 0.0
O10 O 0.40805 0.06763 0.13444 0.0
O11 O 0.38927 0.07689 0.15747 0.0
O12 O 0.461 0.03309 0.12174 0.0
O13 O 0.47512 0.04267 0.14563 0.0
O14 O 0.25161 0.14067 0.41472 0.0
Cd15 Cd 0.213 0.15074 0.42518 0.0
Cd16 Cd 0.21488 0.18587 0.39512 0.0
O17 O 0.25523 0.1687 0.39407 0.0
O18 O 0.21523 0.12395 0.44322 0.0
O19 O 0.21555 0.17066 0.4463 0.0
C20 C 0.21753 0.14551 0.4524 0.0
C21 C 0.20684 0.23146 0.38441 0.0
C22 C 0.26547 0.14969 0.40301 0.0
C23 C 0.16783 0.14124 0.40027 0.0
O24 O 0.18185 0.1579 0.39145 0.0
O25 O 0.17507 0.13752 0.41439 0.0
O26 O 0.21337 0.20979 0.37591 0.0
O27 O 0.20573 0.22762 0.39924 0.0
O28 O 0.10986 0.00637 0.66626 0.0
Cd29 Cd 0.09667 0.97185 0.67952 0.0
Cd30 Cd 0.06515 0.96065 0.65092 0.0
O31 O 0.08163 1.00045 0.64599 0.0
O32 O 0.1115 0.98105 0.70069 0.0
O33 O 0.06543 0.97781 0.69544 0.0
C34 C 0.08543 0.98298 0.70539 0.0
C35 C 0.02013 0.95013 0.64043 0.0
C36 C 0.10039 0.01487 0.65323 0.0
C37 C 0.10927 0.91727 0.66179 0.0
O38 O 0.09261 0.9262 0.65121 0.0
O39 O 0.11259 0.93145 0.67428 0.0
O40 O 0.04237 0.95314 0.63181 0.0
O41 O 0.02316 0.95352 0.6552 0.0
O42 O 0.25584 0.85944 0.90713 0.0
Cd43 Cd 0.29337 0.84774 0.91828 0.0
Cd44 Cd 0.29539 0.81157 0.89298 0.0
O45 O 0.25458 0.82596 0.88906 0.0
O46 O 0.28911 0.86305 0.93985 0.0
O47 O 0.29131 0.8168 0.93462 0.0
C48 C 0.28806 0.83697 0.94474 0.0
C49 C 0.30648 0.76296 0.89068 0.0
C50 C 0.24324 0.84731 0.89581 0.0
C51 C 0.34013 0.85819 0.89536 0.0
O52 O 0.3276 0.83943 0.88715 0.0
O53 O 0.33159 0.86348 0.9091 0.0
O54 O 0.30136 0.77849 0.87864 0.0
O55 O 0.3044 0.7749 0.90417 0.0
O56 O 0.3882 0.0044 0.34785 0.0
Cd57 Cd 0.39712 0.97073 0.33296 0.0
Cd58 Cd 0.43351 0.95721 0.36166 0.0
O59 O 0.41713 0.99649 0.36766 0.0
O60 O 0.37134 0.98108 0.31541 0.0
O61 O 0.41807 0.979 0.31265 0.0
C62 C 0.39336 0.9844 0.30667 0.0
C63 C 0.47837 0.94622 0.37232 0.0
C64 C 0.39841 0.01173 0.36093 0.0
C65 C 0.38803 0.91476 0.35073 0.0
O66 O 0.40603 0.92286 0.36085 0.0
O67 O 0.38299 0.92984 0.33873 0.0
O68 O 0.45581 0.9484 0.38076 0.0
O69 O 0.47575 0.95055 0.3576 0.0
O70 O 0.24805 0.14169 0.59994 0.0
Cd71 Cd 0.28654 0.14993 0.58887 0.0
Cd72 Cd 0.28736 0.18617 0.61682 0.0
O73 O 0.24703 0.17026 0.62044 0.0
O74 O 0.28248 0.12303 0.57098 0.0
O75 O 0.28401 0.1697 0.56772 0.0
C76 C 0.28075 0.14458 0.56174 0.0
C77 C 0.2976 0.23488 0.61918 0.0
C78 C 0.23545 0.15137 0.61192 0.0
C79 C 0.33312 0.14073 0.61306 0.0
O80 O 0.32039 0.15889 0.62158 0.0
O81 O 0.32447 0.13567 0.5993 0.0
O82 O 0.29306 0.21917 0.63124 0.0
O83 O 0.29525 0.22304 0.60567 0.0
O84 O 0.11251 1.00125 0.85006 0.0
Cd85 Cd 0.09849 0.04053 0.84181 0.0
Cd86 Cd 0.06883 0.03673 0.86893 0.0
O87 O 0.08525 0.99618 0.87084 0.0
O88 O 0.11271 0.04053 0.81993 0.0
O89 O 0.0668 0.03987 0.82588 0.0
C90 C 0.08652 0.03892 0.81539 0.0
C91 C 0.02029 0.04713 0.86882 0.0
C92 C 0.10416 0.98658 0.86164 0.0
C93 C 0.11112 0.08444 0.86652 0.0
O94 O 0.09534 0.06947 0.87534 0.0
O95 O 0.11379 0.07802 0.85221 0.0
O96 O 0.03334 0.04055 0.88153 0.0
O97 O 0.0347 0.04642 0.85601 0.0
O98 O 0.24974 0.86073 0.09448 0.0
Cd99 Cd 0.21609 0.84873 0.08019 0.0
Cd100 Cd 0.2025 0.81682 0.10737 0.0
O101 O 0.24062 0.83362 0.1149 0.0
O102 O 0.22711 0.86362 0.05922 0.0
O103 O 0.22232 0.81754 0.06422 0.0
C104 C 0.22853 0.83753 0.05442 0.0
C105 C 0.19295 0.76832 0.11155 0.0
C106 C 0.25622 0.85189 0.108 0.0
C107 C 0.16013 0.8614 0.09663 0.0
O108 O 0.16764 0.84363 0.10701 0.0
O109 O 0.17569 0.86555 0.08471 0.0
O110 O 0.19215 0.78656 0.12276 0.0
O111 O 0.19976 0.77759 0.09791 0.0
O112 O 0.60474 0.00308 0.84177 0.0
Cd113 Cd 0.59093 0.96688 0.83007 0.0
Cd114 Cd 0.56837 0.9583 0.86033 0.0
O115 O 0.58638 0.99742 0.86522 0.0
O116 O 0.60509 0.97512 0.80863 0.0
O117 O 0.55922 0.97186 0.81422 0.0
C118 C 0.57894 0.97698 0.8041 0.0
C119 C 0.51993 0.94903 0.86374 0.0
C120 C 0.60086 0.01196 0.85556 0.0
C121 C 0.60864 0.91364 0.84832 0.0
O122 O 0.59489 0.92337 0.85989 0.0
O123 O 0.60856 0.92698 0.83541 0.0
O124 O 0.53716 0.94984 0.87543 0.0
O125 O 0.53018 0.95463 0.85012 0.0
O126 O 0.74914 0.86 0.60411 0.0
Cd127 Cd 0.78386 0.85023 0.59022 0.0
Cd128 Cd 0.79605 0.81826 0.62086 0.0
O129 O 0.75644 0.83527 0.62563 0.0
O130 O 0.77538 0.87661 0.57266 0.0
O131 O 0.77696 0.82993 0.56952 0.0
C132 C 0.77267 0.85494 0.56361 0.0
C133 C 0.80663 0.77357 0.63188 0.0
C134 C 0.74126 0.85224 0.61759 0.0
C135 C 0.83863 0.86225 0.60882 0.0
O136 O 0.83035 0.84579 0.61967 0.0
O137 O 0.82403 0.86515 0.59646 0.0
O138 O 0.80418 0.79629 0.64021 0.0
O139 O 0.80264 0.77595 0.61711 0.0
O140 O 0.89068 0.006 0.35132 0.0
Cd141 Cd 0.90201 0.03975 0.33703 0.0
Cd142 Cd 0.93454 0.05087 0.36588 0.0
O143 O 0.91712 0.01217 0.37229 0.0
O144 O 0.876 0.03149 0.31929 0.0
O145 O 0.92277 0.03093 0.31669 0.0
C146 C 0.89787 0.02731 0.31056 0.0
C147 C 0.9833 0.05946 0.36922 0.0
C148 C 0.89884 0.99779 0.36467 0.0
C149 C 0.89254 0.09553 0.35506 0.0
O150 O 0.90855 0.08647 0.36591 0.0
O151 O 0.88902 0.08094 0.34273 0.0
O152 O 0.96594 0.05968 0.38084 0.0
O153 O 0.973 0.05354 0.35567 0.0
O154 O 0.75292 0.13217 0.09658 0.0
Cd155 Cd 0.71836 0.14111 0.08249 0.0
Cd156 Cd 0.70507 0.17434 0.11327 0.0
O157 O 0.74492 0.15747 0.11785 0.0
O158 O 0.72746 0.11457 0.06503 0.0
O159 O 0.72527 0.16117 0.0617 0.0
C160 C 0.73005 0.13616 0.05591 0.0
C161 C 0.69492 0.21847 0.12523 0.0
C162 C 0.76045 0.14046 0.11001 0.0
C163 C 0.66325 0.12931 0.10105 0.0
O164 O 0.6708 0.14662 0.11168 0.0
O165 O 0.67844 0.12581 0.08893 0.0
O166 O 0.69721 0.19517 0.13309 0.0
O167 O 0.69846 0.21696 0.1104 0.0
O168 O 0.60713 0.0071 0.66133 0.0
Cd169 Cd 0.5911 0.04571 0.66932 0.0
Cd170 Cd 0.56418 0.04053 0.64116 0.0
O171 O 0.58181 1.00029 0.64001 0.0
O172 O 0.60477 0.04567 0.69129 0.0
O173 O 0.55907 0.04325 0.68508 0.0
C174 C 0.57861 0.04258 0.69566 0.0
C175 C 0.51541 0.04974 0.64006 0.0
C176 C 0.60028 0.99169 0.64975 0.0
C177 C 0.60455 0.08988 0.6449 0.0
O178 O 0.59046 0.0741 0.63565 0.0
O179 O 0.60577 0.08382 0.65931 0.0
O180 O 0.5297 0.04371 0.62765 0.0
O181 O 0.52873 0.04913 0.65321 0.0
O182 O 0.75127 0.8606 0.41435 0.0
Cd183 Cd 0.71383 0.84963 0.42572 0.0
Cd184 Cd 0.70855 0.82452 0.39411 0.0
O185 O 0.74786 0.84319 0.39054 0.0
O186 O 0.71792 0.87583 0.44381 0.0
O187 O 0.71762 0.82908 0.44661 0.0
C188 C 0.71974 0.85408 0.45286 0.0
C189 C 0.70085 0.77558 0.39158 0.0
C190 C 0.76154 0.85704 0.40083 0.0
C191 C 0.66211 0.86371 0.40457 0.0
O192 O 0.67306 0.85024 0.39323 0.0
O193 O 0.6744 0.86414 0.41775 0.0
O194 O 0.70243 0.79193 0.37952 0.0
O195 O 0.70477 0.78704 0.40508 0.0
O196 O 0.89581 0.9944 0.1622 0.0
Cd197 Cd 0.90639 0.95752 0.17417 0.0
Cd198 Cd 0.93112 0.95016 0.14059 0.0
O199 O 0.91223 0.98974 0.13822 0.0
O200 O 0.87973 0.96275 0.19198 0.0
O201 O 0.92632 0.96259 0.19516 0.0
C202 C 0.90119 0.96522 0.20116 0.0
C203 C 0.97604 0.94226 0.12942 0.0
C204 C 0.89902 0.00403 0.14851 0.0
C205 C 0.89209 0.90456 0.15374 0.0
O206 O 0.90515 0.91475 0.14204 0.0
O207 O 0.89201 0.91765 0.1667 0.0
O208 O 0.9534 0.94484 0.12104 0.0
O209 O 0.97337 0.94476 0.14429 0.0
O210 O 0.75233 0.13334 0.90641 0.0
Cd211 Cd 0.78974 0.14248 0.91829 0.0
Cd212 Cd 0.79162 0.18316 0.89383 0.0
O213 O 0.7509 0.16877 0.88947 0.0
O214 O 0.7868 0.11565 0.9362 0.0
O215 O 0.78677 0.16247 0.93925 0.0
C216 C 0.78502 0.1373 0.94537 0.0
C217 C 0.80236 0.23199 0.89349 0.0
C218 C 0.73965 0.1467 0.89555 0.0
C219 C 0.83729 0.1376 0.89474 0.0
O220 O 0.82457 0.15693 0.88702 0.0
O221 O 0.82825 0.13033 0.9081 0.0
O222 O 0.79696 0.21817 0.88089 0.0
O223 O 0.80052 0.21823 0.90647 0.0
O224 O 0.89136 0.50101 0.67187 0.0
Cd225 Cd 0.9076 0.53724 0.68239 0.0
Cd226 Cd 0.92765 0.54293 0.65 0.0
O227 O 0.90823 0.50348 0.64793 0.0
O228 O 0.89278 0.5315 0.70392 0.0
O229 O 0.93882 0.53202 0.69855 0.0
C230 C 0.91869 0.52873 0.70866 0.0
C231 C 0.97216 0.5513 0.63847 0.0
C232 C 0.89391 0.49056 0.65832 0.0
C233 C 0.88979 0.58937 0.66324 0.0
O234 O 0.90171 0.57835 0.6514 0.0
O235 O 0.89117 0.57714 0.67643 0.0
O236 O 0.94937 0.54814 0.63026 0.0
O237 O 0.96994 0.54877 0.65335 0.0
O238 O 0.74607 0.65102 0.91154 0.0
Cd239 Cd 0.70866 0.66249 0.92267 0.0
Cd240 Cd 0.69972 0.68377 0.89051 0.0
O241 O 0.73968 0.66611 0.88745 0.0
O242 O 0.71647 0.64689 0.94385 0.0
O243 O 0.71111 0.69301 0.93946 0.0
C244 C 0.71669 0.67264 0.94913 0.0
C245 C 0.68993 0.72846 0.87942 0.0
C246 C 0.75487 0.6538 0.89768 0.0
C247 C 0.65729 0.64131 0.90372 0.0
O248 O 0.6658 0.65598 0.89219 0.0
O249 O 0.6707 0.64197 0.91658 0.0
O250 O 0.69269 0.70579 0.87104 0.0
O251 O 0.69317 0.72594 0.89424 0.0
O252 O 0.62541 0.4927 0.16592 0.0
Cd253 Cd 0.61119 0.45888 0.17943 0.0
Cd254 Cd 0.57795 0.44838 0.15136 0.0
O255 O 0.59585 0.48741 0.14616 0.0
O256 O 0.6256 0.46805 0.20071 0.0
O257 O 0.57964 0.46607 0.195 0.0
C258 C 0.59943 0.4709 0.20513 0.0
C259 C 0.53252 0.44027 0.14072 0.0
C260 C 0.61554 0.50126 0.15298 0.0
C261 C 0.62111 0.4036 0.16185 0.0
O262 O 0.60408 0.41288 0.15153 0.0
O263 O 0.62564 0.41787 0.1742 0.0
O264 O 0.55498 0.44205 0.13219 0.0
O265 O 0.53558 0.44321 0.15552 0.0
O266 O 0.76105 0.36551 0.41538 0.0
Cd267 Cd 0.79791 0.35686 0.42785 0.0
Cd268 Cd 0.8069 0.32864 0.39554 0.0
O269 O 0.76746 0.34684 0.392 0.0
O270 O 0.7915 0.38368 0.44552 0.0
O271 O 0.79293 0.33705 0.44887 0.0
C272 C 0.78948 0.36221 0.45476 0.0
C273 C 0.8155 0.28313 0.3852 0.0
C274 C 0.75235 0.36069 0.40165 0.0
C275 C 0.8512 0.37019 0.40761 0.0
O276 O 0.84176 0.35517 0.39645 0.0
O277 O 0.83765 0.37187 0.4204 0.0
O278 O 0.81312 0.30536 0.37645 0.0
O279 O 0.81253 0.28655 0.39999 0.0
O280 O 0.88365 0.50001 0.85372 0.0
Cd281 Cd 0.89913 0.46279 0.84382 0.0
Cd282 Cd 0.93355 0.46447 0.86983 0.0
O283 O 0.9173 0.50531 0.87137 0.0
O284 O 0.88622 0.46491 0.82181 0.0
O285 O 0.93177 0.46634 0.82862 0.0
C286 C 0.91264 0.46782 0.81782 0.0
C287 C 0.98099 0.45694 0.87749 0.0
C288 C 0.89532 0.51471 0.86439 0.0
C289 C 0.88977 0.41679 0.86718 0.0
O290 O 0.90667 0.43124 0.87565 0.0
O291 O 0.88532 0.42411 0.85316 0.0
O292 O 0.96146 0.46404 0.88727 0.0
O293 O 0.97388 0.45478 0.86306 0.0
O294 O 0.75608 0.63623 0.09455 0.0
Cd295 Cd 0.79203 0.65118 0.0832 0.0
Cd296 Cd 0.80074 0.67352 0.11412 0.0
O297 O 0.76184 0.65424 0.11807 0.0
O298 O 0.78428 0.63864 0.06142 0.0
O299 O 0.78732 0.68412 0.06804 0.0
C300 C 0.78254 0.66514 0.05745 0.0
C301 C 0.80952 0.71892 0.12453 0.0
C302 C 0.74744 0.63962 0.10841 0.0
C303 C 0.8449 0.63277 0.10123 0.0
O304 O 0.83572 0.64716 0.1127 0.0
O305 O 0.83134 0.63259 0.08841 0.0
O306 O 0.80758 0.69657 0.13321 0.0
O307 O 0.80581 0.7157 0.10977 0.0
O308 O 0.62269 0.50635 0.3512 0.0
Cd309 Cd 0.60856 0.54299 0.34006 0.0
Cd310 Cd 0.57273 0.54361 0.36674 0.0
O311 O 0.58853 0.50269 0.36876 0.0
O312 O 0.62361 0.53899 0.31845 0.0
O313 O 0.57747 0.53889 0.32395 0.0
C314 C 0.59757 0.53635 0.31375 0.0
C315 C 0.5265 0.55224 0.37643 0.0
C316 C 0.61061 0.49262 0.36213 0.0
C317 C 0.61808 0.59009 0.36277 0.0
O318 O 0.60077 0.57646 0.3714 0.0
O319 O 0.62253 0.58211 0.34884 0.0
O320 O 0.5474 0.54545 0.38537 0.0
O321 O 0.53147 0.55349 0.36171 0.0
O322 O 0.74457 0.3688 0.60484 0.0
Cd323 Cd 0.71082 0.36083 0.58997 0.0
Cd324 Cd 0.69613 0.32677 0.61742 0.0
O325 O 0.73496 0.34174 0.62521 0.0
O326 O 0.72169 0.38704 0.57269 0.0
O327 O 0.7187 0.34045 0.5694 0.0
C328 C 0.7244 0.36532 0.56366 0.0
C329 C 0.68553 0.27802 0.61905 0.0
C330 C 0.7511 0.35944 0.61823 0.0
C331 C 0.65507 0.37294 0.6075 0.0
O332 O 0.66197 0.3546 0.61773 0.0
O333 O 0.67081 0.37703 0.59565 0.0
O334 O 0.6851 0.29419 0.63118 0.0
O335 O 0.6926 0.28952 0.60595 0.0
O336 O 0.11775 0.502 0.34326 0.0
Cd337 Cd 0.10308 0.46564 0.33215 0.0
Cd338 Cd 0.08051 0.45836 0.36375 0.0
O339 O 0.09974 0.49757 0.36687 0.0
O340 O 0.11669 0.47291 0.31049 0.0
O341 O 0.07097 0.47035 0.3165 0.0
C342 C 0.09044 0.47495 0.30617 0.0
C343 C 0.03564 0.45033 0.37493 0.0
C344 C 0.11427 0.51147 0.35696 0.0
C345 C 0.12054 0.41307 0.35099 0.0
O346 O 0.10657 0.42306 0.36243 0.0
O347 O 0.12076 0.42606 0.33798 0.0
O348 O 0.05836 0.45253 0.38327 0.0
O349 O 0.03819 0.45326 0.36009 0.0
O350 O 0.25764 0.36378 0.10192 0.0
Cd351 Cd 0.2924 0.35554 0.08764 0.0
Cd352 Cd 0.30431 0.31977 0.11449 0.0
O353 O 0.26578 0.33547 0.12198 0.0
O354 O 0.28417 0.38219 0.07015 0.0
O355 O 0.28613 0.33552 0.06685 0.0
C356 C 0.28215 0.3606 0.06097 0.0
C357 C 0.31354 0.27085 0.11594 0.0
C358 C 0.25035 0.35386 0.11509 0.0
C359 C 0.34746 0.36472 0.10629 0.0
O360 O 0.33924 0.3462 0.1161 0.0
O361 O 0.33263 0.37002 0.09425 0.0
O362 O 0.31333 0.28668 0.12819 0.0
O363 O 0.30776 0.28279 0.10277 0.0
O364 O 0.39057 0.49789 0.84356 0.0
Cd365 Cd 0.40524 0.53647 0.83491 0.0
Cd366 Cd 0.43586 0.53184 0.86355 0.0
O367 O 0.41889 0.49122 0.86377 0.0
O368 O 0.38987 0.53545 0.81326 0.0
O369 O 0.43605 0.53427 0.81843 0.0
C370 C 0.41572 0.53273 0.80832 0.0
C371 C 0.48206 0.54049 0.87298 0.0
C372 C 0.39926 0.48249 0.85475 0.0
C373 C 0.39254 0.5799 0.85964 0.0
O374 O 0.40803 0.56451 0.86839 0.0
O375 O 0.39028 0.57418 0.84522 0.0
O376 O 0.46161 0.53251 0.88199 0.0
O377 O 0.47671 0.54231 0.85831 0.0
O378 O 0.24054 0.64269 0.60074 0.0
Cd379 Cd 0.2062 0.65528 0.58719 0.0
Cd380 Cd 0.19305 0.68631 0.61618 0.0
O381 O 0.23215 0.66889 0.6216 0.0
O382 O 0.21605 0.6404 0.56607 0.0
O383 O 0.21171 0.68649 0.57114 0.0
C384 C 0.21737 0.66647 0.56126 0.0
C385 C 0.18343 0.73111 0.62745 0.0
C386 C 0.24757 0.65109 0.61424 0.0
C387 C 0.15107 0.64145 0.60434 0.0
O388 O 0.15862 0.65886 0.61491 0.0
O389 O 0.16628 0.63803 0.59221 0.0
O390 O 0.18501 0.70815 0.63562 0.0
O391 O 0.18729 0.72888 0.61266 0.0
O392 O 0.11626 0.50378 0.16345 0.0
Cd393 Cd 0.09979 0.54234 0.17118 0.0
Cd394 Cd 0.07133 0.53545 0.14237 0.0
O395 O 0.08915 0.49532 0.14296 0.0
O396 O 0.11372 0.5431 0.19309 0.0
O397 O 0.06797 0.54 0.18707 0.0
C398 C 0.08766 0.53978 0.19759 0.0
C399 C 0.02507 0.54224 0.13269 0.0
C400 C 0.10855 0.48758 0.15236 0.0
C401 C 0.11308 0.58468 0.14605 0.0
O402 O 0.09869 0.56836 0.13723 0.0
O403 O 0.11429 0.57996 0.1606 0.0
O404 O 0.04585 0.53451 0.12383 0.0
O405 O 0.03022 0.54501 0.14734 0.0
O406 O 0.25336 0.36066 0.90869 0.0
Cd407 Cd 0.21889 0.35461 0.92343 0.0
Cd408 Cd 0.203 0.31984 0.89636 0.0
O409 O 0.2418 0.33428 0.88835 0.0
O410 O 0.22962 0.38128 0.94053 0.0
O411 O 0.2247 0.335 0.9444 0.0
C412 C 0.23055 0.35998 0.94995 0.0
C413 C 0.1921 0.27123 0.89447 0.0
C414 C 0.25897 0.35113 0.8952 0.0
C415 C 0.16326 0.36729 0.90573 0.0
O416 O 0.16913 0.34791 0.89589 0.0
O417 O 0.17963 0.37188 0.91726 0.0
O418 O 0.19181 0.28763 0.88244 0.0
O419 O 0.1991 0.28243 0.90765 0.0
O420 O 0.37914 0.50077 0.66518 0.0
Cd421 Cd 0.39567 0.46286 0.67371 0.0
Cd422 Cd 0.42547 0.46769 0.64555 0.0
O423 O 0.40681 0.5075 0.64471 0.0
O424 O 0.38306 0.4638 0.69588 0.0
O425 O 0.42843 0.46632 0.68891 0.0
C426 C 0.40941 0.46739 0.69978 0.0
C427 C 0.47262 0.46127 0.63712 0.0
C428 C 0.38705 0.51595 0.65372 0.0
C429 C 0.3838 0.41841 0.64947 0.0
O430 O 0.39912 0.43385 0.64063 0.0
O431 O 0.38121 0.42456 0.66382 0.0
O432 O 0.45244 0.46795 0.62764 0.0
O433 O 0.46634 0.4592 0.65167 0.0
O434 O 0.25623 0.64079 0.41287 0.0
Cd435 Cd 0.29055 0.65415 0.42614 0.0
Cd436 Cd 0.30285 0.68488 0.39703 0.0
O437 O 0.26356 0.6673 0.39201 0.0
O438 O 0.28126 0.63958 0.4474 0.0
O439 O 0.28496 0.68562 0.44203 0.0
C440 C 0.2797 0.66574 0.45206 0.0
C441 C 0.31224 0.72961 0.38566 0.0
C442 C 0.24863 0.6492 0.39946 0.0
C443 C 0.34539 0.64048 0.40874 0.0
O444 O 0.33752 0.65766 0.39813 0.0
O445 O 0.33042 0.63716 0.42096 0.0
O446 O 0.31031 0.70665 0.3775 0.0
O447 O 0.30874 0.72743 0.40048 0.0
H448 H 0.43371 0.98741 0.28304 0.0
H449 H 0.34491 0.00594 0.29388 0.0
H450 H 0.33786 0.02477 0.26755 0.0
H451 H 0.4461 0.04961 0.25824 0.0
H452 H 0.46793 0.03037 0.24451 0.0
H453 H 0.46692 0.01929 0.26454 0.0
H454 H 0.45182 0.96824 0.25615 0.0
H455 H 0.45297 0.97911 0.23611 0.0
H456 H 0.42078 0.96367 0.24401 0.0
H457 H 0.3394 0.04058 0.2403 0.0
H458 H 0.34873 0.05006 0.21271 0.0
H459 H 0.43635 0.02118 0.21842 0.0
C460 C 0.41285 0.99556 0.27986 0.0
C461 C 0.38988 0.99521 0.29058 0.0
C462 C 0.36285 0.00587 0.28592 0.0
C463 C 0.35862 0.01677 0.27099 0.0
C464 C 0.38158 0.01686 0.26073 0.0
C465 C 0.40814 0.0064 0.26485 0.0
C466 C 0.4287 0.008 0.2512 0.0
C467 C 0.45391 0.02801 0.25485 0.0
C468 C 0.43918 0.97797 0.2466 0.0
C469 C 0.40939 0.02072 0.2388 0.0
C470 C 0.3824 0.02585 0.24469 0.0
C471 C 0.36047 0.03676 0.23555 0.0
C472 C 0.36602 0.04208 0.21986 0.0
C473 C 0.39328 0.03645 0.21337 0.0
C474 C 0.41539 0.02603 0.22307 0.0
H475 H 0.27013 0.18522 0.53885 0.0
H476 H 0.27336 0.09354 0.54715 0.0
H477 H 0.25626 0.08468 0.52065 0.0
H478 H 0.20644 0.18505 0.51572 0.0
H479 H 0.21851 0.21198 0.50225 0.0
H480 H 0.23177 0.21183 0.52187 0.0
H481 H 0.28382 0.20965 0.51171 0.0
H482 H 0.27073 0.21014 0.49205 0.0
H483 H 0.29397 0.18168 0.49838 0.0
H484 H 0.23709 0.08503 0.494 0.0
H485 H 0.22092 0.09444 0.46738 0.0
H486 H 0.23055 0.18586 0.47508 0.0
C487 C 0.26755 0.16331 0.53501 0.0
C488 C 0.27312 0.14008 0.54517 0.0
C489 C 0.2693 0.11173 0.53968 0.0
C490 C 0.25947 0.10642 0.52462 0.0
C491 C 0.25363 0.12965 0.51504 0.0
C492 C 0.25781 0.15754 0.51987 0.0
C493 C 0.24998 0.17843 0.507 0.0
C494 C 0.2252 0.19797 0.51202 0.0
C495 C 0.27619 0.19601 0.50199 0.0
C496 C 0.24067 0.15784 0.49429 0.0
C497 C 0.24283 0.12984 0.49931 0.0
C498 C 0.23544 0.10685 0.48988 0.0
C499 C 0.22616 0.11248 0.47475 0.0
C500 C 0.22442 0.1409 0.46906 0.0
C501 C 0.23149 0.16391 0.47908 0.0
H502 H 0.12428 0.03173 0.79146 0.0
H503 H 0.03352 0.03356 0.80183 0.0
H504 H 0.0229 0.02037 0.77461 0.0
H505 H 0.11955 0.06013 0.75215 0.0
H506 H 0.14768 0.03722 0.74506 0.0
H507 H 0.14766 0.04864 0.76503 0.0
H508 H 0.14964 0.99564 0.77387 0.0
H509 H 0.14938 0.98406 0.75395 0.0
H510 H 0.12261 0.97101 0.76723 0.0
H511 H 0.02263 0.00453 0.74622 0.0
H512 H 0.03274 0.9889 0.7193 0.0
H513 H 0.1237 0.99702 0.72815 0.0
C514 C 0.10212 0.02981 0.78799 0.0
C515 C 0.07971 0.03385 0.79879 0.0
C516 C 0.05104 0.03075 0.79376 0.0
C517 C 0.04481 0.0232 0.77832 0.0
C518 C 0.06748 0.01882 0.76806 0.0
C519 C 0.09556 0.0222 0.7727 0.0
C520 C 0.11614 0.01538 0.75966 0.0
C521 C 0.13379 0.04193 0.75521 0.0
C522 C 0.13558 0.99001 0.76394 0.0
C523 C 0.09533 0.00738 0.74694 0.0
C524 C 0.06734 0.00955 0.75195 0.0
C525 C 0.04448 0.00288 0.74219 0.0
C526 C 0.05043 0.99395 0.72693 0.0
C527 C 0.079 0.99168 0.72159 0.0
C528 C 0.10161 0.99847 0.73183 0.0
H529 H 0.27825 0.87543 0.96818 0.0
H530 H 0.28254 0.78429 0.95869 0.0
H531 H 0.26832 0.77418 0.98582 0.0
H532 H 0.3055 0.87231 0.00762 0.0
H533 H 0.28196 0.90017 0.01441 0.0
H534 H 0.29365 0.89991 0.99449 0.0
H535 H 0.24086 0.90055 0.9854 0.0
H536 H 0.22901 0.90061 1.00527 0.0
H537 H 0.2167 0.87319 0.99217 0.0
H538 H 0.25165 0.77431 0.01401 0.0
H539 H 0.23555 0.78469 0.04081 0.0
H540 H 0.24223 0.87574 0.03144 0.0
C541 C 0.27653 0.8533 0.97181 0.0
C542 C 0.28163 0.83064 0.96128 0.0
C543 C 0.27888 0.80202 0.96654 0.0
C544 C 0.27075 0.79607 0.98193 0.0
C545 C 0.26548 0.81896 0.99194 0.0
C546 C 0.26843 0.84701 0.98708 0.0
C547 C 0.26101 0.8678 0.99996 0.0
C548 C 0.28709 0.88612 1.00438 0.0
C549 C 0.23537 0.88664 0.99542 0.0
C550 C 0.25322 0.84712 0.01282 0.0
C551 C 0.25594 0.81904 0.00801 0.0
C552 C 0.24957 0.79624 0.0179 0.0
C553 C 0.24037 0.80235 0.03309 0.0
C554 C 0.2376 0.83101 0.03827 0.0
C555 C 0.24412 0.85357 0.0279 0.0
H556 H 0.61674 0.9929 0.7815 0.0
H557 H 0.52602 0.98235 0.79034 0.0
H558 H 0.51546 0.99986 0.7638 0.0
H559 H 0.61128 0.05774 0.75953 0.0
H560 H 0.63961 0.04821 0.74632 0.0
H561 H 0.6398 0.03458 0.76587 0.0
H562 H 0.64244 0.98262 0.7554 0.0
H563 H 0.64255 0.99609 0.73584 0.0
H564 H 0.61594 0.97039 0.74174 0.0
H565 H 0.51531 0.01839 0.7358 0.0
H566 H 0.52565 0.03472 0.70902 0.0
H567 H 0.61641 0.0339 0.71937 0.0
C568 C 0.59461 0.9941 0.77788 0.0
C569 C 0.57219 0.98613 0.78801 0.0
C570 C 0.54356 0.98824 0.78278 0.0
C571 C 0.53736 0.99825 0.76774 0.0
C572 C 0.56003 0.00619 0.75811 0.0
C573 C 0.58808 0.00414 0.76301 0.0
C574 C 0.60867 0.01388 0.75053 0.0
C575 C 0.62584 0.04017 0.75589 0.0
C576 C 0.62856 0.98928 0.74559 0.0
C577 C 0.5879 0.02162 0.73775 0.0
C578 C 0.55992 0.01711 0.74229 0.0
C579 C 0.53715 0.02211 0.73218 0.0
C580 C 0.54322 0.03147 0.71701 0.0
C581 C 0.57182 0.03581 0.71209 0.0
C582 C 0.59429 0.03112 0.72276 0.0
H583 H 0.73306 0.81365 0.4754 0.0
H584 H 0.71868 0.90463 0.46833 0.0
H585 H 0.73022 0.91382 0.49564 0.0
H586 H 0.70359 0.81082 0.51484 0.0
H587 H 0.72984 0.78559 0.5217 0.0
H588 H 0.71941 0.78551 0.50158 0.0
H589 H 0.77238 0.79157 0.49347 0.0
H590 H 0.78295 0.79185 0.51357 0.0
H591 H 0.79272 0.82121 0.50107 0.0
H592 H 0.74489 0.91422 0.52295 0.0
H593 H 0.76034 0.90559 0.54974 0.0
H594 H 0.76541 0.81431 0.54034 0.0
C595 C 0.73205 0.83543 0.47967 0.0
C596 C 0.72494 0.85841 0.46967 0.0
C597 C 0.72409 0.88664 0.47569 0.0
C598 C 0.73061 0.89213 0.49122 0.0
C599 C 0.73794 0.86921 0.5007 0.0
C600 C 0.73857 0.84138 0.49528 0.0
C601 C 0.74766 0.82091 0.50809 0.0
C602 C 0.72369 0.79944 0.51177 0.0
C603 C 0.77559 0.80548 0.50379 0.0
C604 C 0.75219 0.84172 0.52144 0.0
C605 C 0.74642 0.86943 0.5168 0.0
C606 C 0.74935 0.89261 0.52678 0.0
C607 C 0.75823 0.88744 0.542 0.0
C608 C 0.7641 0.85926 0.54721 0.0
C609 C 0.76107 0.83608 0.53673 0.0
H610 H 0.93902 0.01713 0.2879 0.0
H611 H 0.84744 0.01551 0.29638 0.0
H612 H 0.83935 0.9981 0.26989 0.0
H613 H 0.93429 0.04153 0.24807 0.0
H614 H 0.96364 0.01987 0.2413 0.0
H615 H 0.96279 0.03194 0.26115 0.0
H616 H 0.96724 0.9795 0.27058 0.0
H617 H 0.96794 0.96724 0.25075 0.0
H618 H 0.94166 0.95326 0.26404 0.0
H619 H 0.84033 0.98087 0.243 0.0
H620 H 0.85017 0.96669 0.21611 0.0
H621 H 0.94109 0.97938 0.22381 0.0
C622 C 0.9173 0.01314 0.28415 0.0
C623 C 0.89387 0.0177 0.29429 0.0
C624 C 0.86577 0.01225 0.2889 0.0
C625 C 0.8609 0.00225 0.27385 0.0
C626 C 0.88431 0.99781 0.26421 0.0
C627 C 0.91196 0.00318 0.26901 0.0
C628 C 0.93307 0.99695 0.25601 0.0
C629 C 0.94941 0.0242 0.25136 0.0
C630 C 0.9537 0.9728 0.26063 0.0
C631 C 0.91285 0.98736 0.24321 0.0
C632 C 0.88487 0.98793 0.24834 0.0
C633 C 0.86213 0.98033 0.23881 0.0
C634 C 0.868 0.97228 0.22352 0.0
C635 C 0.89641 0.9719 0.21779 0.0
C636 C 0.91918 0.9793 0.22786 0.0
H637 H 0.77091 0.17743 0.96787 0.0
H638 H 0.78709 0.08675 0.96091 0.0
H639 H 0.77536 0.07745 0.98824 0.0
H640 H 0.7996 0.18107 0.00748 0.0
H641 H 0.77271 0.20585 0.01412 0.0
H642 H 0.78363 0.20598 0.99407 0.0
H643 H 0.73098 0.19886 0.98564 0.0
H644 H 0.71993 0.1985 0.00567 0.0
H645 H 0.71103 0.16889 0.99316 0.0
H646 H 0.76004 0.07698 0.01558 0.0
H647 H 0.74367 0.08556 0.04224 0.0
H648 H 0.73718 0.17663 0.03255 0.0
C649 C 0.77233 0.15571 0.97217 0.0
C650 C 0.77998 0.13282 0.9622 0.0
C651 C 0.78129 0.10465 0.96826 0.0
C652 C 0.77466 0.09911 0.9838 0.0
C653 C 0.76675 0.12194 0.99323 0.0
C654 C 0.76569 0.14971 0.98776 0.0
C655 C 0.7559 0.17009 1.00047 0.0
C656 C 0.77937 0.19205 1.00426 0.0
C657 C 0.72779 0.18496 0.99596 0.0
C658 C 0.75144 0.1493 0.01383 0.0
C659 C 0.75787 0.12167 0.00929 0.0
C660 C 0.75508 0.09853 0.01932 0.0
C661 C 0.74566 0.10367 0.03447 0.0
C662 C 0.73912 0.13178 0.03956 0.0
C663 C 0.74203 0.15491 0.02904 0.0
H664 H 0.87961 0.51598 0.73114 0.0
H665 H 0.97096 0.52233 0.72306 0.0
H666 H 0.97991 0.50625 0.75004 0.0
H667 H 0.87985 0.54083 0.77055 0.0
H668 H 0.85207 0.51647 0.77655 0.0
H669 H 0.85339 0.5289 0.75679 0.0
H670 H 0.85442 0.47635 0.74712 0.0
H671 H 0.85336 0.46375 0.76686 0.0
H672 H 0.88179 0.45247 0.75413 0.0
H673 H 0.97831 0.48929 0.77834 0.0
H674 H 0.96635 0.47409 0.80512 0.0
H675 H 0.87609 0.47802 0.79373 0.0
C676 C 0.90156 0.5142 0.73502 0.0
C677 C 0.9246 0.52055 0.72498 0.0
C678 C 0.95296 0.5177 0.73055 0.0
C679 C 0.95823 0.50851 0.74584 0.0
C680 C 0.93493 0.50215 0.75538 0.0
C681 C 0.90716 0.50495 0.75013 0.0
C682 C 0.88575 0.49665 0.7625 0.0
C683 C 0.86665 0.52224 0.76686 0.0
C684 C 0.86778 0.47077 0.75734 0.0
C685 C 0.90573 0.48881 0.77561 0.0
C686 C 0.93403 0.49208 0.77135 0.0
C687 C 0.95621 0.48658 0.78175 0.0
C688 C 0.94922 0.47788 0.79693 0.0
C689 C 0.9203 0.47468 0.80153 0.0
C690 C 0.89843 0.47999 0.7906 0.0
H691 H 0.77051 0.62892 0.03344 0.0
H692 H 0.7744 0.71913 0.04528 0.0
H693 H 0.75715 0.73142 0.01891 0.0
H694 H 0.79407 0.63587 0.99383 0.0
H695 H 0.77049 0.60815 0.9869 0.0
H696 H 0.78365 0.60702 0.00652 0.0
H697 H 0.73157 0.60468 0.01675 0.0
H698 H 0.71825 0.60606 0.99717 0.0
H699 H 0.7065 0.63214 0.01121 0.0
H700 H 0.73847 0.73333 0.99091 0.0
H701 H 0.72194 0.7247 0.96398 0.0
H702 H 0.73024 0.63318 0.97131 0.0
C703 C 0.76796 0.65131 0.03051 0.0
C704 C 0.77389 0.67307 0.04144 0.0
C705 C 0.7701 0.70208 0.03709 0.0
C706 C 0.76023 0.70925 0.02215 0.0
C707 C 0.75425 0.68717 0.01172 0.0
C708 C 0.75813 0.65879 0.01574 0.0
C709 C 0.75011 0.63895 1.00257 0.0
C710 C 0.77613 0.62148 0.99714 0.0
C711 C 0.72512 0.61931 0.00721 0.0
C712 C 0.74106 0.66052 0.99045 0.0
C713 C 0.74352 0.68825 0.99588 0.0
C714 C 0.73648 0.71168 0.98657 0.0
C715 C 0.72702 0.70658 0.97131 0.0
C716 C 0.72469 0.67828 0.96551 0.0
C717 C 0.73164 0.65509 0.97535 0.0
H718 H 0.63612 0.52519 0.2906 0.0
H719 H 0.54503 0.5297 0.29983 0.0
H720 H 0.5352 0.51373 0.27296 0.0
H721 H 0.63345 0.54981 0.25072 0.0
H722 H 0.66137 0.52583 0.24448 0.0
H723 H 0.66084 0.53881 0.26416 0.0
H724 H 0.66139 0.48654 0.27426 0.0
H725 H 0.66169 0.4734 0.25462 0.0
H726 H 0.63415 0.46192 0.26787 0.0
H727 H 0.53568 0.49573 0.24496 0.0
H728 H 0.54643 0.4784 0.21843 0.0
H729 H 0.63721 0.48523 0.22812 0.0
C730 C 0.61406 0.52317 0.28696 0.0
C731 C 0.59133 0.52886 0.29734 0.0
C732 C 0.56281 0.52561 0.29209 0.0
C733 C 0.55702 0.51649 0.27685 0.0
C734 C 0.57999 0.51067 0.267 0.0
C735 C 0.60794 0.514 0.27186 0.0
C736 C 0.62886 0.50577 0.25921 0.0
C737 C 0.64721 0.53159 0.25436 0.0
C738 C 0.64762 0.4804 0.2643 0.0
C739 C 0.60837 0.49715 0.24645 0.0
C740 C 0.58026 0.50014 0.25111 0.0
C741 C 0.55764 0.49336 0.24121 0.0
C742 C 0.56395 0.48347 0.22617 0.0
C743 C 0.59265 0.48037 0.22117 0.0
C744 C 0.61502 0.48726 0.23155 0.0
H745 H 0.7341 0.32431 0.54086 0.0
H746 H 0.73797 0.41578 0.54986 0.0
H747 H 0.75632 0.4239 0.52355 0.0
H748 H 0.79859 0.32046 0.5176 0.0
H749 H 0.78441 0.29472 0.50405 0.0
H750 H 0.77155 0.29541 0.52377 0.0
H751 H 0.71962 0.30133 0.51387 0.0
H752 H 0.73231 0.30049 0.49413 0.0
H753 H 0.71119 0.3303 0.50083 0.0
H754 H 0.77404 0.42296 0.49671 0.0
H755 H 0.7887 0.41315 0.46987 0.0
H756 H 0.77387 0.32231 0.47714 0.0
C757 C 0.73876 0.34602 0.53725 0.0
C758 C 0.73457 0.3694 0.54749 0.0
C759 C 0.74095 0.39748 0.54231 0.0
C760 C 0.75148 0.40237 0.52736 0.0
C761 C 0.75556 0.37899 0.51762 0.0
C762 C 0.74933 0.35137 0.52224 0.0
C763 C 0.75546 0.33029 0.5092 0.0
C764 C 0.7789 0.30896 0.51394 0.0
C765 C 0.72801 0.31468 0.50421 0.0
C766 C 0.76596 0.3505 0.49659 0.0
C767 C 0.76588 0.37845 0.50183 0.0
C768 C 0.77422 0.40117 0.49244 0.0
C769 C 0.78254 0.39533 0.47719 0.0
C770 C 0.78248 0.36696 0.47135 0.0
C771 C 0.77433 0.34419 0.48128 0.0
H772 H 0.12769 0.49083 0.28329 0.0
H773 H 0.03721 0.47994 0.2927 0.0
H774 H 0.02603 0.49723 0.26619 0.0
H775 H 0.12141 0.55557 0.2613 0.0
H776 H 0.14954 0.54617 0.24794 0.0
H777 H 0.15019 0.5326 0.26749 0.0
H778 H 0.15294 0.48062 0.25706 0.0
H779 H 0.1526 0.49404 0.23748 0.0
H780 H 0.12626 0.46819 0.24356 0.0
H781 H 0.02524 0.51556 0.23814 0.0
H782 H 0.03498 0.53177 0.21127 0.0
H783 H 0.12593 0.53158 0.22112 0.0
C784 C 0.10548 0.49189 0.2798 0.0
C785 C 0.08332 0.48388 0.29008 0.0
C786 C 0.05457 0.48584 0.28502 0.0
C787 C 0.04802 0.49573 0.27 0.0
C788 C 0.07045 0.50373 0.26022 0.0
C789 C 0.09861 0.50184 0.26496 0.0
C790 C 0.1189 0.51166 0.25235 0.0
C791 C 0.13601 0.53807 0.25759 0.0
C792 C 0.13884 0.48717 0.24732 0.0
C793 C 0.09784 0.51924 0.23968 0.0
C794 C 0.06998 0.51459 0.24439 0.0
C795 C 0.04699 0.5194 0.23439 0.0
C796 C 0.05272 0.5287 0.21916 0.0
C797 C 0.08119 0.53318 0.21408 0.0
C798 C 0.10389 0.5287 0.22464 0.0
H799 H 0.27037 0.32003 0.03827 0.0
H800 H 0.27823 0.41162 0.04602 0.0
H801 H 0.26596 0.42061 0.01876 0.0
H802 H 0.30002 0.31985 0.99928 0.0
H803 H 0.27565 0.2931 0.99205 0.0
H804 H 0.28545 0.29333 0.01226 0.0
H805 H 0.23199 0.2959 0.01995 0.0
H806 H 0.22202 0.29575 0.99976 0.0
H807 H 0.21 0.32424 0.01227 0.0
H808 H 0.25286 0.42046 0.99113 0.0
H809 H 0.23946 0.41118 0.96406 0.0
H810 H 0.23913 0.3197 0.97322 0.0
C811 C 0.26961 0.34194 0.03419 0.0
C812 C 0.27531 0.36511 0.04434 0.0
C813 C 0.27395 0.39348 0.03855 0.0
C814 C 0.267 0.39886 0.02304 0.0
C815 C 0.26137 0.37569 0.01339 0.0
C816 C 0.26256 0.34777 0.01864 0.0
C817 C 0.2552 0.32697 0.00566 0.0
C818 C 0.2806 0.30714 1.00211 0.0
C819 C 0.22819 0.3097 0.00965 0.0
C820 C 0.24972 0.34766 0.99237 0.0
C821 C 0.25349 0.37561 0.99719 0.0
C822 C 0.24984 0.39868 0.98719 0.0
C823 C 0.24221 0.39313 0.9718 0.0
C824 C 0.23821 0.3647 0.96646 0.0
C825 C 0.24196 0.34165 0.97695 0.0
H826 H 0.37636 0.52059 0.7858 0.0
H827 H 0.46775 0.52712 0.79362 0.0
H828 H 0.47657 0.51032 0.76676 0.0
H829 H 0.37853 0.45636 0.76389 0.0
H830 H 0.3501 0.46666 0.75094 0.0
H831 H 0.35109 0.48067 0.77039 0.0
H832 H 0.35005 0.53251 0.75969 0.0
H833 H 0.34868 0.51867 0.74021 0.0
H834 H 0.37644 0.54347 0.74564 0.0
H835 H 0.47496 0.49167 0.73881 0.0
H836 H 0.46307 0.47444 0.7124 0.0
H837 H 0.37279 0.47888 0.72375 0.0
C838 C 0.39827 0.51891 0.78185 0.0
C839 C 0.42138 0.52541 0.79182 0.0
C840 C 0.4497 0.52247 0.78618 0.0
C841 C 0.4549 0.51284 0.77095 0.0
C842 C 0.43157 0.50609 0.76154 0.0
C843 C 0.40382 0.50914 0.76679 0.0
C844 C 0.38242 0.49992 0.7546 0.0
C845 C 0.36449 0.47439 0.7603 0.0
C846 C 0.36328 0.52515 0.74975 0.0
C847 C 0.40239 0.49117 0.74162 0.0
C848 C 0.43068 0.4949 0.74577 0.0
C849 C 0.45287 0.48863 0.73548 0.0
C850 C 0.44592 0.47875 0.72051 0.0
C851 C 0.41702 0.47508 0.716 0.0
C852 C 0.39512 0.48113 0.72684 0.0
H853 H 0.23034 0.62813 0.53828 0.0
H854 H 0.22399 0.71925 0.54748 0.0
H855 H 0.23973 0.72939 0.52058 0.0
H856 H 0.29323 0.63119 0.51474 0.0
H857 H 0.28152 0.6034 0.5017 0.0
H858 H 0.26942 0.60353 0.52154 0.0
H859 H 0.21675 0.60314 0.51222 0.0
H860 H 0.22869 0.60287 0.49235 0.0
H861 H 0.20461 0.63041 0.49897 0.0
H862 H 0.25684 0.72921 0.4924 0.0
H863 H 0.27256 0.71871 0.46554 0.0
H864 H 0.26749 0.62771 0.47531 0.0
C865 C 0.23213 0.65026 0.53467 0.0
C866 C 0.22588 0.67291 0.54502 0.0
C867 C 0.2286 0.70153 0.53977 0.0
C868 C 0.23757 0.70749 0.52451 0.0
C869 C 0.24374 0.6846 0.51465 0.0
C870 C 0.24103 0.65656 0.51954 0.0
C871 C 0.24893 0.63575 0.50677 0.0
C872 C 0.27481 0.61739 0.51147 0.0
C873 C 0.22321 0.61694 0.50232 0.0
C874 C 0.25654 0.6564 0.49389 0.0
C875 C 0.25348 0.68451 0.49861 0.0
C876 C 0.25928 0.70727 0.4886 0.0
C877 C 0.26825 0.7011 0.47337 0.0
C878 C 0.27131 0.67241 0.46829 0.0
C879 C 0.26544 0.6499 0.47879 0.0
H880 H 0.38135 0.9647 0.12006 0.0
H881 H 0.37486 0.94683 0.16928 0.0
H882 H 0.34313 0.90576 0.16368 0.0
H883 H 0.30998 0.95463 0.11252 0.0
H884 H 0.31435 0.93894 0.09355 0.0
H885 H 0.34108 0.96292 0.10099 0.0
H886 H 0.38001 0.92416 0.097 0.0
H887 H 0.35337 0.90005 0.08941 0.0
H888 H 0.37536 0.88925 0.10555 0.0
H889 H 0.30833 0.87032 0.15307 0.0
H890 H 0.27066 0.845 0.13855 0.0
H891 H 0.29735 0.88797 0.09627 0.0
C892 C 0.37407 0.95144 0.12958 0.0
C893 C 0.38094 0.95843 0.14507 0.0
C894 C 0.37007 0.94148 0.15733 0.0
C895 C 0.35215 0.9181 0.15425 0.0
C896 C 0.34509 0.91221 0.13886 0.0
C897 C 0.35564 0.92844 0.12672 0.0
C898 C 0.34177 0.92012 0.11148 0.0
C899 C 0.32585 0.94567 0.10422 0.0
C900 C 0.36395 0.90765 0.1002 0.0
C901 C 0.32116 0.89729 0.11703 0.0
C902 C 0.3239 0.8926 0.13279 0.0
C903 C 0.30621 0.87356 0.14069 0.0
C904 C 0.28483 0.85929 0.13233 0.0
C905 C 0.28099 0.86448 0.11625 0.0
C906 C 0.2998 0.8834 0.10851 0.0
H907 H 0.28408 0.13464 0.37422 0.0
H908 H 0.30664 0.13106 0.42294 0.0
H909 H 0.34842 0.10081 0.41658 0.0
H910 H 0.29599 0.06353 0.36736 0.0
H911 H 0.30969 0.0674 0.34792 0.0
H912 H 0.28563 0.09378 0.35565 0.0
H913 H 0.32264 0.13374 0.35002 0.0
H914 H 0.34683 0.10743 0.34214 0.0
H915 H 0.35839 0.13063 0.35763 0.0
H916 H 0.38387 0.06661 0.40548 0.0
H917 H 0.40844 0.02849 0.3909 0.0
H918 H 0.36089 0.05179 0.34951 0.0
C919 C 0.29853 0.12839 0.38344 0.0
C920 C 0.29266 0.1356 0.39901 0.0
C921 C 0.31114 0.12602 0.41091 0.0
C922 C 0.33492 0.10895 0.4074 0.0
C923 C 0.3397 0.10144 0.39195 0.0
C924 C 0.32196 0.11078 0.38015 0.0
C925 C 0.32927 0.09636 0.3649 0.0
C926 C 0.30363 0.07925 0.3586 0.0
C927 C 0.33992 0.11836 0.35297 0.0
C928 C 0.35321 0.07676 0.37008 0.0
C929 C 0.35936 0.08054 0.38563 0.0
C930 C 0.37952 0.06371 0.39325 0.0
C931 C 0.39335 0.04207 0.38485 0.0
C932 C 0.38661 0.03709 0.36904 0.0
C933 C 0.36667 0.05513 0.36154 0.0
H934 H 0.14135 0.05124 0.66491 0.0
H935 H 0.0881 0.03629 0.62444 0.0
H936 H 0.11285 0.0752 0.61065 0.0
H937 H 0.14726 0.13098 0.65993 0.0
H938 H 0.18391 0.13105 0.66639 0.0
H939 H 0.15915 0.10498 0.67398 0.0
H940 H 0.19309 0.06412 0.66537 0.0
H941 H 0.21785 0.08997 0.65775 0.0
H942 H 0.20421 0.06204 0.64536 0.0
H943 H 0.14841 0.10913 0.59974 0.0
H944 H 0.19099 0.13793 0.59302 0.0
H945 H 0.21961 0.1336 0.64077 0.0
C946 C 0.13438 0.05663 0.65329 0.0
C947 C 0.11275 0.04065 0.64578 0.0
C948 C 0.10453 0.04821 0.63049 0.0
C949 C 0.11842 0.07037 0.62255 0.0
C950 C 0.14018 0.08513 0.63012 0.0
C951 C 0.14788 0.07888 0.64523 0.0
C952 C 0.17352 0.09643 0.65024 0.0
C953 C 0.16547 0.11709 0.66342 0.0
C954 C 0.19864 0.07697 0.65495 0.0
C955 C 0.17982 0.11251 0.63536 0.0
C956 C 0.16017 0.10583 0.62394 0.0
C957 C 0.16344 0.11524 0.60869 0.0
C958 C 0.18766 0.1315 0.60496 0.0
C959 C 0.20804 0.13845 0.61647 0.0
C960 C 0.20372 0.12941 0.63192 0.0
H961 H 0.12502 0.96836 0.88936 0.0
H962 H 0.11682 0.94436 0.84102 0.0
H963 H 0.14584 0.90097 0.84585 0.0
H964 H 0.19665 0.95235 0.89163 0.0
H965 H 0.19624 0.93961 0.91137 0.0
H966 H 0.16992 0.96507 0.90504 0.0
H967 H 0.1294 0.93082 0.91378 0.0
H968 H 0.15568 0.90521 0.92019 0.0
H969 H 0.12856 0.89465 0.90649 0.0
H970 H 0.17938 0.86322 0.85524 0.0
H971 H 0.21882 0.83667 0.86757 0.0
H972 H 0.20842 0.88747 0.90938 0.0
C973 C 0.12853 0.95334 0.87997 0.0
C974 C 0.11824 0.95911 0.86492 0.0
C975 C 0.12424 0.93989 0.85267 0.0
C976 C 0.14056 0.9152 0.85534 0.0
C977 C 0.15102 0.91037 0.87026 0.0
C978 C 0.14544 0.92903 0.88236 0.0
C979 C 0.16264 0.92131 0.89665 0.0
C980 C 0.18254 0.94605 0.90144 0.0
C981 C 0.14289 0.91246 0.91007 0.0
C982 C 0.17941 0.89595 0.89056 0.0
C983 C 0.17179 0.88951 0.87546 0.0
C984 C 0.18531 0.86786 0.86711 0.0
C985 C 0.2077 0.85286 0.87423 0.0
C986 C 0.21674 0.85999 0.88944 0.0
C987 C 0.20192 0.88142 0.89778 0.0
H988 H 0.70726 0.10258 0.90706 0.0
H989 H 0.71227 0.16299 0.86886 0.0
H990 H 0.67235 0.1382 0.85589 0.0
H991 H 0.69638 0.04249 0.88524 0.0
H992 H 0.67152 0.02529 0.89823 0.0
H993 H 0.69723 0.05031 0.90573 0.0
H994 H 0.6565 0.08044 0.91791 0.0
H995 H 0.63056 0.05534 0.91053 0.0
H996 H 0.62755 0.09283 0.90585 0.0
H997 H 0.63834 0.10224 0.84505 0.0
H998 H 0.60992 0.05956 0.83802 0.0
H999 H 0.62476 0.02388 0.88374 0.0
C1000 C 0.69948 0.11108 0.89616 0.0
C1001 C 0.71293 0.13475 0.88899 0.0
C1002 C 0.70225 0.14502 0.87465 0.0
C1003 C 0.67955 0.13108 0.86718 0.0
C1004 C 0.66742 0.10723 0.87433 0.0
C1005 C 0.67667 0.09759 0.88863 0.0
C1006 C 0.66149 0.07023 0.89326 0.0
C1007 C 0.68294 0.04564 0.89575 0.0
C1008 C 0.64292 0.07501 0.90775 0.0
C1009 C 0.64323 0.06526 0.87902 0.0
C1010 C 0.64684 0.08696 0.86827 0.0
C1011 C 0.6347 0.08554 0.85352 0.0
C1012 C 0.61873 0.0612 0.84961 0.0
C1013 C 0.61481 0.03878 0.86044 0.0
C1014 C 0.62674 0.04115 0.87542 0.0
H1015 H 0.61819 0.9687 0.62228 0.0
H1016 H 0.61778 0.95428 0.67196 0.0
H1017 H 0.64846 0.91172 0.66843 0.0
H1018 H 0.62298 0.89185 0.60969 0.0
H1019 H 0.64737 0.90051 0.59419 0.0
H1020 H 0.6208 0.92618 0.6002 0.0
H1021 H 0.66061 0.96382 0.60479 0.0
H1022 H 0.68722 0.93832 0.59886 0.0
H1023 H 0.68988 0.95532 0.61758 0.0
H1024 H 0.68327 0.87447 0.65999 0.0
H1025 H 0.72222 0.84731 0.64757 0.0
H1026 H 0.70219 0.88747 0.60344 0.0
C1027 C 0.62377 0.95592 0.63232 0.0
C1028 C 0.61529 0.96432 0.64735 0.0
C1029 C 0.62389 0.9479 0.66033 0.0
C1030 C 0.64117 0.92366 0.65843 0.0
C1031 C 0.64986 0.9163 0.64348 0.0
C1032 C 0.64154 0.93199 0.63064 0.0
C1033 C 0.65695 0.92194 0.61616 0.0
C1034 C 0.63576 0.90937 0.60436 0.0
C1035 C 0.67472 0.94629 0.60893 0.0
C1036 C 0.6759 0.89885 0.62296 0.0
C1037 C 0.67098 0.89547 0.63867 0.0
C1038 C 0.68706 0.87664 0.64765 0.0
C1039 C 0.70918 0.8613 0.64048 0.0
C1040 C 0.71532 0.86522 0.62452 0.0
C1041 C 0.69796 0.88381 0.61564 0.0
H1042 H 0.77779 0.87946 0.37284 0.0
H1043 H 0.80573 0.86838 0.42043 0.0
H1044 H 0.84793 0.89865 0.41523 0.0
H1045 H 0.8504 0.88423 0.35451 0.0
H1046 H 0.83885 0.91174 0.34126 0.0
H1047 H 0.81388 0.88497 0.34786 0.0
H1048 H 0.7799 0.92498 0.35753 0.0
H1049 H 0.80478 0.9518 0.3511 0.0
H1050 H 0.79309 0.95135 0.37103 0.0
H1051 H 0.88348 0.93467 0.40594 0.0
H1052 H 0.90933 0.97447 0.39336 0.0
H1053 H 0.85744 0.96337 0.35201 0.0
C1054 C 0.79337 0.88259 0.38198 0.0
C1055 C 0.7888 0.87129 0.39696 0.0
C1056 C 0.80903 0.87669 0.40883 0.0
C1057 C 0.83308 0.89377 0.40597 0.0
C1058 C 0.83654 0.9054 0.39121 0.0
C1059 C 0.81729 0.89999 0.37938 0.0
C1060 C 0.82408 0.91777 0.36514 0.0
C1061 C 0.8323 0.89852 0.35138 0.0
C1062 C 0.79897 0.93765 0.36097 0.0
C1063 C 0.84958 0.93459 0.37098 0.0
C1064 C 0.85672 0.92681 0.38594 0.0
C1065 C 0.87839 0.94066 0.39413 0.0
C1066 C 0.8929 0.96331 0.3869 0.0
C1067 C 0.88551 0.97207 0.37168 0.0
C1068 C 0.86385 0.95709 0.36359 0.0
H1069 H 0.79654 0.10014 0.09764 0.0
H1070 H 0.78275 0.15203 0.13879 0.0
H1071 H 0.82205 0.12665 0.15196 0.0
H1072 H 0.80702 0.0366 0.11651 0.0
H1073 H 0.83433 0.02297 0.10373 0.0
H1074 H 0.80857 0.04827 0.09659 0.0
H1075 H 0.84944 0.08209 0.08787 0.0
H1076 H 0.87543 0.05677 0.09493 0.0
H1077 H 0.87604 0.09326 0.10173 0.0
H1078 H 0.85708 0.09097 0.16201 0.0
H1079 H 0.88642 0.04843 0.1679 0.0
H1080 H 0.87866 0.02043 0.12009 0.0
C1081 C 0.80226 0.10675 0.10926 0.0
C1082 C 0.78653 0.12816 0.11715 0.0
C1083 C 0.79449 0.13579 0.13246 0.0
C1084 C 0.81686 0.12155 0.14005 0.0
C1085 C 0.83131 0.09995 0.13211 0.0
C1086 C 0.82455 0.09279 0.11699 0.0
C1087 C 0.84157 0.06707 0.11155 0.0
C1088 C 0.82168 0.04228 0.10683 0.0
C1089 C 0.86183 0.0753 0.09823 0.0
C1090 C 0.85805 0.06012 0.12619 0.0
C1091 C 0.85206 0.07956 0.13786 0.0
C1092 C 0.86247 0.07601 0.15287 0.0
C1093 C 0.87902 0.05174 0.15613 0.0
C1094 C 0.88509 0.03137 0.1444 0.0
C1095 C 0.87499 0.03604 0.12917 0.0
H1096 H 0.79057 0.39694 0.60644 0.0
H1097 H 0.769 0.34924 0.64808 0.0
H1098 H 0.80799 0.37364 0.66212 0.0
H1099 H 0.8694 0.39954 0.61312 0.0
H1100 H 0.87186 0.43538 0.60549 0.0
H1101 H 0.84513 0.41112 0.59815 0.0
H1102 H 0.8056 0.44806 0.60471 0.0
H1103 H 0.83211 0.47232 0.61212 0.0
H1104 H 0.80265 0.46149 0.62426 0.0
H1105 H 0.84418 0.40812 0.67255 0.0
H1106 H 0.87593 0.44896 0.67835 0.0
H1107 H 0.87493 0.47328 0.62977 0.0
C1108 C 0.79444 0.39106 0.61841 0.0
C1109 C 0.7767 0.37111 0.62614 0.0
C1110 C 0.78235 0.36432 0.64187 0.0
C1111 C 0.8045 0.37805 0.64994 0.0
C1112 C 0.82103 0.3982 0.64208 0.0
C1113 C 0.81648 0.40445 0.6266 0.0
C1114 C 0.83566 0.42858 0.62116 0.0
C1115 C 0.85677 0.41801 0.60875 0.0
C1116 C 0.81794 0.45411 0.61522 0.0
C1117 C 0.85091 0.43574 0.63615 0.0
C1118 C 0.84238 0.41778 0.64804 0.0
C1119 C 0.8515 0.4219 0.66327 0.0
C1120 C 0.86944 0.44522 0.66646 0.0
C1121 C 0.87813 0.46407 0.65448 0.0
C1122 C 0.8692 0.45882 0.63909 0.0
H1123 H 0.84939 0.54261 0.85152 0.0
H1124 H 0.91021 0.54741 0.88948 0.0
H1125 H 0.88388 0.58843 0.90036 0.0
H1126 H 0.83631 0.62176 0.84845 0.0
H1127 H 0.79897 0.61639 0.84418 0.0
H1128 H 0.82497 0.59019 0.83811 0.0
H1129 H 0.79673 0.55069 0.85264 0.0
H1130 H 0.7708 0.5767 0.85881 0.0
H1131 H 0.78909 0.55511 0.87301 0.0
H1132 H 0.84683 0.62278 0.90948 0.0
H1133 H 0.80306 0.65045 0.91525 0.0
H1134 H 0.76756 0.62577 0.87077 0.0
C1135 C 0.85761 0.55274 0.8619 0.0
C1136 C 0.88188 0.54174 0.86964 0.0
C1137 C 0.89175 0.55547 0.88329 0.0
C1138 C 0.87695 0.57885 0.88956 0.0
C1139 C 0.85262 0.58859 0.88191 0.0
C1140 C 0.84324 0.57629 0.86824 0.0
C1141 C 0.81528 0.58943 0.86296 0.0
C1142 C 0.81913 0.60539 0.84751 0.0
C1143 C 0.79159 0.56663 0.8618 0.0
C1144 C 0.80974 0.6101 0.87617 0.0
C1145 C 0.83166 0.60941 0.88692 0.0
C1146 C 0.82992 0.62415 0.90096 0.0
C1147 C 0.80498 0.6397 0.90416 0.0
C1148 C 0.78231 0.64061 0.89332 0.0
C1149 C 0.78502 0.62612 0.87902 0.0
H1150 H 0.73598 0.61806 0.13724 0.0
H1151 H 0.70094 0.626 0.09085 0.0
H1152 H 0.65976 0.59605 0.09852 0.0
H1153 H 0.72087 0.54597 0.14117 0.0
H1154 H 0.71235 0.54708 0.16156 0.0
H1155 H 0.73631 0.57318 0.15342 0.0
H1156 H 0.7042 0.61414 0.16379 0.0
H1157 H 0.68015 0.58811 0.17205 0.0
H1158 H 0.66679 0.61479 0.1588 0.0
H1159 H 0.62526 0.56179 0.11025 0.0
H1160 H 0.6009 0.52346 0.12471 0.0
H1161 H 0.65947 0.53567 0.16326 0.0
C1162 C 0.71915 0.61421 0.12886 0.0
C1163 C 0.72133 0.62464 0.11353 0.0
C1164 C 0.69949 0.61835 0.10269 0.0
C1165 C 0.676 0.60148 0.10696 0.0
C1166 C 0.6748 0.59092 0.12207 0.0
C1167 C 0.69581 0.59695 0.13286 0.0
C1168 C 0.69115 0.58025 0.14773 0.0
C1169 C 0.71668 0.56045 0.15116 0.0
C1170 C 0.68521 0.60054 0.1614 0.0
C1171 C 0.66471 0.56328 0.14345 0.0
C1172 C 0.65533 0.57021 0.12871 0.0
C1173 C 0.63219 0.55639 0.12187 0.0
C1174 C 0.61852 0.53458 0.13019 0.0
C1175 C 0.62824 0.52648 0.14515 0.0
C1176 C 0.65136 0.54146 0.15192 0.0
H1177 H 0.73989 0.38491 0.37367 0.0
H1178 H 0.70382 0.36608 0.41886 0.0
H1179 H 0.65967 0.39197 0.41168 0.0
H1180 H 0.7173 0.45495 0.3729 0.0
H1181 H 0.71009 0.45654 0.35237 0.0
H1182 H 0.73616 0.43172 0.35968 0.0
H1183 H 0.70905 0.38973 0.34666 0.0
H1184 H 0.68284 0.41451 0.33925 0.0
H1185 H 0.67166 0.38438 0.35083 0.0
H1186 H 0.622 0.42383 0.40082 0.0
H1187 H 0.59524 0.46272 0.38815 0.0
H1188 H 0.65707 0.46357 0.35054 0.0
C1189 C 0.72226 0.38544 0.38181 0.0
C1190 C 0.72489 0.37311 0.39669 0.0
C1191 C 0.70196 0.37518 0.40734 0.0
C1192 C 0.67681 0.38968 0.40333 0.0
C1193 C 0.67508 0.40224 0.38869 0.0
C1194 C 0.69726 0.40043 0.37811 0.0
C1195 C 0.69168 0.41911 0.36406 0.0
C1196 C 0.71519 0.44193 0.36216 0.0
C1197 C 0.68862 0.40083 0.34933 0.0
C1198 C 0.66339 0.43245 0.36863 0.0
C1199 C 0.65385 0.42185 0.38268 0.0
C1200 C 0.62906 0.43206 0.38972 0.0
C1201 C 0.614 0.4542 0.38242 0.0
C1202 C 0.62403 0.46627 0.36834 0.0
C1203 C 0.64871 0.45469 0.36122 0.0
H1204 H 0.1342 0.52609 0.38572 0.0
H1205 H 0.12817 0.55647 0.33828 0.0
H1206 H 0.15683 0.599 0.3452 0.0
H1207 H 0.13485 0.59748 0.40526 0.0
H1208 H 0.16098 0.58599 0.4193 0.0
H1209 H 0.13593 0.56058 0.41136 0.0
H1210 H 0.17799 0.52829 0.40259 0.0
H1211 H 0.2031 0.55356 0.41046 0.0
H1212 H 0.20557 0.54309 0.39037 0.0
H1213 H 0.18987 0.63526 0.35641 0.0
H1214 H 0.2273 0.66139 0.37064 0.0
H1215 H 0.2137 0.60651 0.41066 0.0
C1216 C 0.13821 0.54216 0.37693 0.0
C1217 C 0.1287 0.53827 0.36152 0.0
C1218 C 0.13515 0.5592 0.35017 0.0
C1219 C 0.15126 0.58347 0.35402 0.0
C1220 C 0.1609 0.58638 0.36923 0.0
C1221 C 0.15469 0.56628 0.38051 0.0
C1222 C 0.17042 0.57275 0.39548 0.0
C1223 C 0.14928 0.57962 0.40863 0.0
C1224 C 0.19045 0.54795 0.39998 0.0
C1225 C 0.18709 0.59911 0.39069 0.0
C1226 C 0.18082 0.60693 0.37561 0.0
C1227 C 0.19471 0.62957 0.3683 0.0
C1228 C 0.21601 0.64427 0.37649 0.0
C1229 C 0.2235 0.63605 0.39179 0.0
C1230 C 0.20833 0.61353 0.39905 0.0
H1231 H 0.20803 0.38715 0.10253 0.0
H1232 H 0.23583 0.34834 0.14573 0.0
H1233 H 0.19759 0.37396 0.15971 0.0
H1234 H 0.19496 0.45408 0.11682 0.0
H1235 H 0.1636 0.46132 0.10533 0.0
H1236 H 0.19011 0.43665 0.09834 0.0
H1237 H 0.15149 0.3972 0.0956 0.0
H1238 H 0.12473 0.42186 0.10252 0.0
H1239 H 0.12966 0.38791 0.11209 0.0
H1240 H 0.16264 0.41014 0.16954 0.0
H1241 H 0.13077 0.45155 0.17413 0.0
H1242 H 0.12333 0.46451 0.1245 0.0
C1243 C 0.20563 0.38345 0.11487 0.0
C1244 C 0.22494 0.36575 0.12303 0.0
C1245 C 0.2212 0.36165 0.1392 0.0
C1246 C 0.19952 0.37611 0.14725 0.0
C1247 C 0.18141 0.39412 0.13893 0.0
C1248 C 0.18389 0.39743 0.12305 0.0
C1249 C 0.16307 0.4196 0.117 0.0
C1250 C 0.17889 0.44437 0.10891 0.0
C1251 C 0.14092 0.40581 0.10616 0.0
C1252 C 0.14945 0.42922 0.13206 0.0
C1253 C 0.16021 0.41415 0.14458 0.0
C1254 C 0.1534 0.42151 0.15982 0.0
C1255 C 0.13542 0.44508 0.16233 0.0
C1256 C 0.12424 0.46072 0.14966 0.0
C1257 C 0.13087 0.45227 0.13436 0.0
H1258 H 0.38635 0.4602 0.8831 0.0
H1259 H 0.37688 0.44508 0.83376 0.0
H1260 H 0.34557 0.40365 0.83924 0.0
H1261 H 0.38061 0.38361 0.89651 0.0
H1262 H 0.35963 0.39384 0.91317 0.0
H1263 H 0.38625 0.41796 0.90554 0.0
H1264 H 0.34774 0.45752 0.90281 0.0
H1265 H 0.32107 0.43356 0.91032 0.0
H1266 H 0.31591 0.4503 0.89168 0.0
H1267 H 0.3107 0.36827 0.84985 0.0
H1268 H 0.27249 0.3439 0.86449 0.0
H1269 H 0.30251 0.38392 0.90695 0.0
C1270 C 0.37857 0.44742 0.8735 0.0
C1271 C 0.38439 0.45535 0.85802 0.0
C1272 C 0.37287 0.43902 0.84569 0.0
C1273 C 0.3552 0.41542 0.84871 0.0
C1274 C 0.34909 0.40863 0.86411 0.0
C1275 C 0.36038 0.4242 0.87632 0.0
C1276 C 0.3472 0.41528 0.89163 0.0
C1277 C 0.36977 0.40187 0.90234 0.0
C1278 C 0.33208 0.44067 0.89956 0.0
C1279 C 0.32598 0.39307 0.88607 0.0
C1280 C 0.32793 0.38901 0.87022 0.0
C1281 C 0.30925 0.37095 0.8623 0.0
C1282 C 0.28758 0.3572 0.87073 0.0
C1283 C 0.28447 0.36199 0.88688 0.0
C1284 C 0.30442 0.37964 0.89464 0.0
H1285 H 0.37088 0.53579 0.62532 0.0
H1286 H 0.36667 0.5548 0.6745 0.0
H1287 H 0.33553 0.59637 0.66902 0.0
H1288 H 0.36596 0.61089 0.61043 0.0
H1289 H 0.34304 0.60036 0.59461 0.0
H1290 H 0.36934 0.5757 0.60202 0.0
H1291 H 0.3296 0.53803 0.60673 0.0
H1292 H 0.30323 0.56255 0.59942 0.0
H1293 H 0.29916 0.5474 0.61853 0.0
H1294 H 0.30148 0.63252 0.65861 0.0
H1295 H 0.26387 0.65846 0.64446 0.0
H1296 H 0.28747 0.61399 0.60207 0.0
C1297 C 0.36415 0.54936 0.63484 0.0
C1298 C 0.37153 0.54261 0.65029 0.0
C1299 C 0.36144 0.55996 0.66257 0.0
C1300 C 0.34389 0.58363 0.65956 0.0
C1301 C 0.33639 0.58937 0.64422 0.0
C1302 C 0.34605 0.57265 0.63205 0.0
C1303 C 0.3318 0.58103 0.61693 0.0
C1304 C 0.35385 0.5927 0.60531 0.0
C1305 C 0.31495 0.55575 0.61001 0.0
C1306 C 0.31202 0.6045 0.62257 0.0
C1307 C 0.31553 0.60942 0.63827 0.0
C1308 C 0.29874 0.62908 0.64628 0.0
C1309 C 0.27738 0.64371 0.63811 0.0
C1310 C 0.27264 0.63828 0.62213 0.0
C1311 C 0.29063 0.61877 0.61425 0.0
H1312 H 0.3709 0.13032 0.15836 0.0
H1313 H 0.38251 0.09336 0.11256 0.0
H1314 H 0.36031 0.13592 0.10077 0.0
H1315 H 0.30258 0.16592 0.15061 0.0
H1316 H 0.31166 0.19708 0.16192 0.0
H1317 H 0.32641 0.16268 0.16695 0.0
H1318 H 0.3776 0.18366 0.1651 0.0
H1319 H 0.36301 0.21809 0.16009 0.0
H1320 H 0.38874 0.20123 0.14748 0.0
H1321 H 0.33871 0.18315 0.09375 0.0
H1322 H 0.32126 0.23296 0.09202 0.0
H1323 H 0.32472 0.23985 0.14223 0.0
C1324 C 0.36842 0.13104 0.14588 0.0
C1325 C 0.37836 0.10845 0.1364 0.0
C1326 C 0.37513 0.11042 0.12007 0.0
C1327 C 0.36241 0.13445 0.11325 0.0
C1328 C 0.35309 0.15645 0.12288 0.0
C1329 C 0.35602 0.15507 0.13883 0.0
C1330 C 0.34579 0.18246 0.14644 0.0
C1331 C 0.32008 0.17668 0.15711 0.0
C1332 C 0.37024 0.19723 0.1553 0.0
C1333 C 0.33704 0.19951 0.13225 0.0
C1334 C 0.34111 0.18399 0.1188 0.0
C1335 C 0.33527 0.19549 0.10421 0.0
C1336 C 0.32534 0.22378 0.10334 0.0
C1337 C 0.3216 0.24029 0.11697 0.0
C1338 C 0.32725 0.22777 0.1316 0.0
H1339 H 0.11906 0.12102 0.41486 0.0
H1340 H 0.16132 0.12626 0.37009 0.0
H1341 H 0.12031 0.1024 0.35777 0.0
H1342 H 0.08332 0.05155 0.40843 0.0
H1343 H 0.051 0.06246 0.41817 0.0
H1344 H 0.08488 0.07745 0.42392 0.0
H1345 H 0.06504 0.12856 0.41939 0.0
H1346 H 0.03116 0.11372 0.41363 0.0
H1347 H 0.05 0.13761 0.40077 0.0
H1348 H 0.07416 0.08049 0.34986 0.0
H1349 H 0.02449 0.06365 0.34677 0.0
H1350 H 0.01088 0.07355 0.39634 0.0
C1351 C 0.11981 0.11667 0.40253 0.0
C1352 C 0.14344 0.12541 0.39345 0.0
C1353 C 0.14342 0.11985 0.37728 0.0
C1354 C 0.12029 0.10616 0.37016 0.0
C1355 C 0.09715 0.09821 0.37933 0.0
C1356 C 0.09659 0.1033 0.39514 0.0
C1357 C 0.06811 0.09436 0.40204 0.0
C1358 C 0.07207 0.07 0.41384 0.0
C1359 C 0.05267 0.1201 0.40938 0.0
C1360 C 0.05273 0.08393 0.38759 0.0
C1361 C 0.07005 0.08602 0.37467 0.0
C1362 C 0.06041 0.07855 0.35991 0.0
C1363 C 0.03215 0.06901 0.35827 0.0
C1364 C 0.01378 0.06721 0.37129 0.0
C1365 C 0.02442 0.0745 0.38616 0.0
H1366 H 0.11553 0.88719 0.63467 0.0
H1367 H 0.13742 0.88505 0.68362 0.0
H1368 H 0.16084 0.83813 0.67981 0.0
H1369 H 0.09917 0.81374 0.6305 0.0
H1370 H 0.11444 0.81047 0.61137 0.0
H1371 H 0.10056 0.84439 0.61781 0.0
H1372 H 0.14938 0.86834 0.61203 0.0
H1373 H 0.16343 0.83447 0.60556 0.0
H1374 H 0.18138 0.85403 0.62072 0.0
H1375 H 0.1786 0.79 0.67106 0.0
H1376 H 0.19155 0.745 0.6578 0.0
H1377 H 0.1601 0.77939 0.61427 0.0
C1378 C 0.12539 0.87698 0.6446 0.0
C1379 C 0.12455 0.88979 0.65948 0.0
C1380 C 0.13784 0.87571 0.67212 0.0
C1381 C 0.15118 0.84905 0.67007 0.0
C1382 C 0.15135 0.83694 0.65527 0.0
C1383 C 0.13905 0.85056 0.64273 0.0
C1384 C 0.14182 0.83277 0.62808 0.0
C1385 C 0.11224 0.82488 0.62156 0.0
C1386 C 0.1601 0.84834 0.61588 0.0
C1387 C 0.15715 0.80672 0.63441 0.0
C1388 C 0.1624 0.80957 0.65012 0.0
C1389 C 0.17492 0.78769 0.65873 0.0
C1390 C 0.18213 0.76218 0.65109 0.0
C1391 C 0.17703 0.75882 0.63499 0.0
C1392 C 0.16466 0.78155 0.62653 0.0
H1393 H 0.49205 0.93639 0.891 0.0
H1394 H 0.47991 0.94044 0.84109 0.0
H1395 H 0.43143 0.92046 0.84417 0.0
H1396 H 0.45789 0.87064 0.8969 0.0
H1397 H 0.4413 0.88016 0.91507 0.0
H1398 H 0.47407 0.89726 0.90925 0.0
H1399 H 0.45018 0.94703 0.91194 0.0
H1400 H 0.41733 0.93009 0.91789 0.0
H1401 H 0.41747 0.95435 0.90163 0.0
H1402 H 0.3869 0.8955 0.85219 0.0
H1403 H 0.34723 0.86981 0.86479 0.0
H1404 H 0.38667 0.88326 0.90978 0.0
C1405 C 0.47901 0.93357 0.88074 0.0
C1406 C 0.48979 0.94004 0.86579 0.0
C1407 C 0.47211 0.93579 0.85266 0.0
C1408 C 0.44454 0.92442 0.85429 0.0
C1409 C 0.43482 0.9177 0.86914 0.0
C1410 C 0.45132 0.92241 0.88217 0.0
C1411 C 0.43611 0.91222 0.89673 0.0
C1412 C 0.45337 0.88867 0.90496 0.0
C1413 C 0.4299 0.93743 0.90769 0.0
C1414 C 0.40877 0.90038 0.88979 0.0
C1415 C 0.40856 0.90383 0.87385 0.0
C1416 C 0.3866 0.89306 0.86467 0.0
C1417 C 0.36424 0.87836 0.87195 0.0
C1418 C 0.3638 0.87467 0.88827 0.0
C1419 C 0.38624 0.88614 0.89732 0.0
H1420 H 0.33741 0.77717 0.39855 0.0
H1421 H 0.30258 0.74397 0.35551 0.0
H1422 H 0.31591 0.78877 0.34213 0.0
H1423 H 0.31771 0.85227 0.39269 0.0
H1424 H 0.35053 0.86557 0.40094 0.0
H1425 H 0.33596 0.83193 0.40744 0.0
H1426 H 0.38379 0.80677 0.40077 0.0
H1427 H 0.39844 0.84027 0.3942 0.0
H1428 H 0.39811 0.80973 0.38141 0.0
H1429 H 0.33419 0.8367 0.33323 0.0
H1430 H 0.35822 0.88328 0.32922 0.0
H1431 H 0.38333 0.88409 0.37772 0.0
C1432 C 0.33217 0.77957 0.38638 0.0
C1433 C 0.31874 0.75725 0.37808 0.0
C1434 C 0.31281 0.76088 0.36208 0.0
C1435 C 0.32022 0.78626 0.35439 0.0
C1436 C 0.33381 0.80773 0.36283 0.0
C1437 C 0.33987 0.80462 0.37845 0.0
C1438 C 0.35629 0.8302 0.38456 0.0
C1439 C 0.33909 0.84592 0.39715 0.0
C1440 C 0.38591 0.82119 0.39058 0.0
C1441 C 0.3587 0.84801 0.36992 0.0
C1442 C 0.34528 0.83486 0.35756 0.0
C1443 C 0.34475 0.84723 0.34283 0.0
C1444 C 0.35843 0.87369 0.34066 0.0
C1445 C 0.37278 0.88729 0.35312 0.0
C1446 C 0.37272 0.87419 0.36793 0.0
H1447 H 0.37684 0.11243 0.59772 0.0
H1448 H 0.34505 0.13354 0.64367 0.0
H1449 H 0.38608 0.10888 0.65544 0.0
H1450 H 0.40671 0.04189 0.60766 0.0
H1451 H 0.43767 0.04642 0.59544 0.0
H1452 H 0.40445 0.06364 0.59042 0.0
H1453 H 0.43008 0.1128 0.5897 0.0
H1454 H 0.46333 0.09573 0.59465 0.0
H1455 H 0.44991 0.12464 0.60645 0.0
H1456 H 0.43139 0.08435 0.66243 0.0
H1457 H 0.47968 0.06338 0.66408 0.0
H1458 H 0.48325 0.05855 0.61379 0.0
C1459 C 0.37836 0.1115 0.61024 0.0
C1460 C 0.35765 0.12489 0.61975 0.0
C1461 C 0.36065 0.12357 0.63612 0.0
C1462 C 0.38382 0.10945 0.64295 0.0
C1463 C 0.40399 0.09675 0.6333 0.0
C1464 C 0.40164 0.09768 0.61731 0.0
C1465 C 0.42741 0.08385 0.60967 0.0
C1466 C 0.41852 0.05737 0.60024 0.0
C1467 C 0.44364 0.10556 0.59952 0.0
C1468 C 0.44467 0.07547 0.62387 0.0
C1469 C 0.43056 0.08282 0.63737 0.0
C1470 C 0.4426 0.07827 0.65195 0.0
C1471 C 0.47005 0.06633 0.65277 0.0
C1472 C 0.48524 0.0592 0.63909 0.0
C1473 C 0.4721 0.06348 0.62447 0.0
H1474 H 0.13195 0.13218 0.8514 0.0
H1475 H 0.12407 0.09318 0.89693 0.0
H1476 H 0.14696 0.13535 0.90877 0.0
H1477 H 0.20069 0.16825 0.85815 0.0
H1478 H 0.19044 0.19978 0.84746 0.0
H1479 H 0.17571 0.16543 0.8423 0.0
H1480 H 0.1245 0.18574 0.8455 0.0
H1481 H 0.13906 0.22009 0.85069 0.0
H1482 H 0.11443 0.20234 0.86359 0.0
H1483 H 0.16856 0.18244 0.91594 0.0
H1484 H 0.18587 0.23226 0.91799 0.0
H1485 H 0.17861 0.24149 0.868 0.0
C1486 C 0.13548 0.13236 0.86382 0.0
C1487 C 0.12634 0.10933 0.87323 0.0
C1488 C 0.13085 0.11059 0.88948 0.0
C1489 C 0.14395 0.1344 0.89633 0.0
C1490 C 0.15235 0.15691 0.88679 0.0
C1491 C 0.14826 0.15619 0.8709 0.0
C1492 C 0.15764 0.18406 0.86346 0.0
C1493 C 0.18261 0.17907 0.85218 0.0
C1494 C 0.1324 0.19893 0.85534 0.0
C1495 C 0.16723 0.2006 0.87768 0.0
C1496 C 0.16431 0.18442 0.89099 0.0
C1497 C 0.17112 0.1953 0.90559 0.0
C1498 C 0.18093 0.22362 0.90664 0.0
C1499 C 0.18362 0.24078 0.89318 0.0
C1500 C 0.17689 0.22891 0.87852 0.0
H1501 H 0.1286 0.86729 0.12324 0.0
H1502 H 0.13032 0.89183 0.07466 0.0
H1503 H 0.0844 0.91732 0.07808 0.0
H1504 H 0.05415 0.85453 0.12609 0.0
H1505 H 0.05083 0.86899 0.1454 0.0
H1506 H 0.08417 0.85356 0.13918 0.0
H1507 H 0.11042 0.90075 0.14606 0.0
H1508 H 0.07711 0.91636 0.15227 0.0
H1509 H 0.09837 0.93397 0.13766 0.0
H1510 H 0.03669 0.93726 0.08648 0.0
H1511 H 0.99179 0.95181 0.09938 0.0
H1512 H 0.02254 0.91631 0.14278 0.0
C1513 C 0.11941 0.87809 0.11331 0.0
C1514 C 0.13302 0.87744 0.09864 0.0
C1515 C 0.12033 0.89204 0.086 0.0
C1516 C 0.09425 0.90657 0.08784 0.0
C1517 C 0.08136 0.90662 0.10244 0.0
C1518 C 0.09364 0.89296 0.11498 0.0
C1519 C 0.07536 0.89598 0.12941 0.0
C1520 C 0.06555 0.86651 0.13536 0.0
C1521 C 0.09127 0.91277 0.1421 0.0
C1522 C 0.05055 0.91307 0.12298 0.0
C1523 C 0.0544 0.91895 0.10739 0.0
C1524 C 0.03363 0.9331 0.09872 0.0
C1525 C 0.00819 0.94124 0.10614 0.0
C1526 C 0.00383 0.93545 0.12211 0.0
C1527 C 0.0255 0.92149 0.13064 0.0
H1528 H 0.6675 0.77633 0.89344 0.0
H1529 H 0.69447 0.74277 0.84882 0.0
H1530 H 0.67901 0.78755 0.83615 0.0
H1531 H 0.60441 0.80935 0.87972 0.0
H1532 H 0.60674 0.83997 0.89239 0.0
H1533 H 0.62225 0.80638 0.89819 0.0
H1534 H 0.6713 0.83115 0.9021 0.0
H1535 H 0.65589 0.86488 0.89637 0.0
H1536 H 0.68687 0.85125 0.88636 0.0
H1537 H 0.65883 0.83528 0.82814 0.0
H1538 H 0.63414 0.88177 0.82535 0.0
H1539 H 0.61892 0.88345 0.87506 0.0
C1540 C 0.67059 0.77861 0.88105 0.0
C1541 C 0.68238 0.75614 0.87213 0.0
C1542 C 0.68554 0.75973 0.85589 0.0
C1543 C 0.67689 0.78511 0.84858 0.0
C1544 C 0.66496 0.8067 0.85766 0.0
C1545 C 0.66175 0.80371 0.87353 0.0
C1546 C 0.64678 0.82947 0.88047 0.0
C1547 C 0.61836 0.82076 0.88814 0.0
C1548 C 0.66638 0.84511 0.892 0.0
C1549 C 0.64181 0.84722 0.86601 0.0
C1550 C 0.6527 0.83387 0.85299 0.0
C1551 C 0.6503 0.846 0.83826 0.0
C1552 C 0.63624 0.87243 0.83679 0.0
C1553 C 0.62451 0.8863 0.84996 0.0
C1554 C 0.62757 0.87345 0.86474 0.0
H1555 H 0.97481 0.92282 0.65433 0.0
H1556 H 0.00362 0.95827 0.61049 0.0
H1557 H 0.95935 0.94144 0.59789 0.0
H1558 H 0.94569 0.85945 0.63838 0.0
H1559 H 0.91575 0.85758 0.65152 0.0
H1560 H 0.94836 0.87475 0.65753 0.0
H1561 H 0.92037 0.92115 0.66393 0.0
H1562 H 0.8876 0.90404 0.65803 0.0
H1563 H 0.89828 0.93736 0.64922 0.0
H1564 H 0.91298 0.91926 0.58977 0.0
H1565 H 0.86799 0.89226 0.58659 0.0
H1566 H 0.87019 0.86937 0.63543 0.0
C1567 C 0.9715 0.9275 0.64216 0.0
C1568 C 0.99248 0.94206 0.6334 0.0
C1569 C 0.98775 0.94721 0.61741 0.0
C1570 C 0.96266 0.93779 0.61015 0.0
C1571 C 0.94261 0.92303 0.61902 0.0
C1572 C 0.94672 0.91785 0.63466 0.0
C1573 C 0.92259 0.89997 0.64128 0.0
C1574 C 0.93378 0.87124 0.64754 0.0
C1575 C 0.90624 0.91663 0.65386 0.0
C1576 C 0.90445 0.89575 0.62689 0.0
C1577 C 0.91624 0.90946 0.61422 0.0
C1578 C 0.90347 0.90848 0.59962 0.0
C1579 C 0.87793 0.89307 0.59793 0.0
C1580 C 0.86556 0.8786 0.61073 0.0
C1581 C 0.87912 0.88006 0.62539 0.0
H1582 H 0.83997 0.23654 0.39946 0.0
H1583 H 0.80731 0.26655 0.35524 0.0
H1584 H 0.82161 0.22098 0.343 0.0
H1585 H 0.90167 0.20291 0.38406 0.0
H1586 H 0.90125 0.17321 0.39741 0.0
H1587 H 0.88621 0.2071 0.40309 0.0
H1588 H 0.83801 0.18234 0.4094 0.0
H1589 H 0.85296 0.14832 0.40381 0.0
H1590 H 0.82065 0.161 0.39474 0.0
H1591 H 0.84074 0.17298 0.33534 0.0
H1592 H 0.86471 0.1262 0.33258 0.0
H1593 H 0.88688 0.12804 0.38151 0.0
C1594 C 0.8354 0.23328 0.38727 0.0
C1595 C 0.82232 0.25496 0.37831 0.0
C1596 C 0.81724 0.25018 0.36232 0.0
C1597 C 0.82524 0.22436 0.35527 0.0
C1598 C 0.83849 0.20359 0.36434 0.0
C1599 C 0.84362 0.20774 0.37998 0.0
C1600 C 0.85969 0.18259 0.38686 0.0
C1601 C 0.88894 0.19203 0.39323 0.0
C1602 C 0.84175 0.16768 0.39945 0.0
C1603 C 0.86297 0.16382 0.37263 0.0
C1604 C 0.85033 0.17621 0.3598 0.0
C1605 C 0.85067 0.16301 0.3453 0.0
C1606 C 0.86435 0.13643 0.34386 0.0
C1607 C 0.87777 0.12343 0.3568 0.0
C1608 C 0.87695 0.13742 0.37137 0.0
H1609 H 0.62793 0.12697 0.1266 0.0
H1610 H 0.63836 0.093 0.08 0.0
H1611 H 0.59456 0.06425 0.08335 0.0
H1612 H 0.60128 0.06153 0.14408 0.0
H1613 H 0.57628 0.07985 0.15652 0.0
H1614 H 0.60888 0.09736 0.15067 0.0
H1615 H 0.5797 0.13988 0.13963 0.0
H1616 H 0.54706 0.12261 0.14555 0.0
H1617 H 0.55196 0.13306 0.12559 0.0
H1618 H 0.54872 0.04076 0.09127 0.0
H1619 H 0.50343 0.02467 0.10307 0.0
H1620 H 0.52323 0.07272 0.14481 0.0
C1621 C 0.62107 0.11348 0.11708 0.0
C1622 C 0.63667 0.11232 0.10301 0.0
C1623 C 0.62687 0.0943 0.09089 0.0
C1624 C 0.60203 0.07781 0.09269 0.0
C1625 C 0.58728 0.07939 0.10671 0.0
C1626 C 0.5964 0.09675 0.11871 0.0
C1627 C 0.57627 0.09497 0.13248 0.0
C1628 C 0.5916 0.08269 0.14678 0.0
C1629 C 0.56296 0.12437 0.13601 0.0
C1630 C 0.55418 0.07419 0.12627 0.0
C1631 C 0.56102 0.06542 0.1114 0.0
C1632 C 0.54327 0.04727 0.10295 0.0
C1633 C 0.51759 0.03824 0.10976 0.0
C1634 C 0.50993 0.04724 0.12491 0.0
C1635 C 0.52876 0.06507 0.13333 0.0
H1636 H 0.67053 0.24788 0.64518 0.0
H1637 H 0.68081 0.23931 0.59532 0.0
H1638 H 0.66356 0.18943 0.59687 0.0
H1639 H 0.69229 0.17469 0.65512 0.0
H1640 H 0.66643 0.17166 0.67055 0.0
H1641 H 0.68124 0.20612 0.66568 0.0
H1642 H 0.63017 0.22623 0.66167 0.0
H1643 H 0.61521 0.19185 0.66647 0.0
H1644 H 0.60634 0.20864 0.64827 0.0
H1645 H 0.64202 0.14206 0.60348 0.0
H1646 H 0.61904 0.09942 0.61473 0.0
H1647 H 0.6236 0.1379 0.66054 0.0
C1648 C 0.66949 0.23542 0.6346 0.0
C1649 C 0.67706 0.24752 0.62011 0.0
C1650 C 0.67522 0.23051 0.60654 0.0
C1651 C 0.66545 0.20215 0.60731 0.0
C1652 C 0.6578 0.19104 0.62174 0.0
C1653 C 0.6599 0.20704 0.63517 0.0
C1654 C 0.64945 0.19022 0.64913 0.0
C1655 C 0.67381 0.18539 0.66081 0.0
C1656 C 0.62377 0.20513 0.65683 0.0
C1657 C 0.64065 0.16243 0.64141 0.0
C1658 C 0.64573 0.16341 0.62561 0.0
C1659 C 0.63821 0.14092 0.61585 0.0
C1660 C 0.62506 0.11682 0.62237 0.0
C1661 C 0.61959 0.11524 0.63854 0.0
C1662 C 0.6278 0.13831 0.64818 0.0
H1663 H 0.52561 0.92225 0.35833 0.0
H1664 H 0.49293 0.95166 0.4027 0.0
H1665 H 0.53723 0.93563 0.41548 0.0
H1666 H 0.55739 0.85877 0.37284 0.0
H1667 H 0.58806 0.85991 0.36018 0.0
H1668 H 0.55486 0.8759 0.35414 0.0
H1669 H 0.5806 0.92431 0.34963 0.0
H1670 H 0.61394 0.90842 0.35558 0.0
H1671 H 0.60095 0.94015 0.36518 0.0
H1672 H 0.58387 0.9149 0.42371 0.0
H1673 H 0.62988 0.88992 0.42696 0.0
H1674 H 0.63209 0.87231 0.37746 0.0
C1675 C 0.52804 0.92574 0.37068 0.0
C1676 C 0.50594 0.93838 0.37951 0.0
C1677 C 0.50962 0.94206 0.39571 0.0
C1678 C 0.53473 0.93308 0.40308 0.0
C1679 C 0.55592 0.92028 0.39412 0.0
C1680 C 0.5529 0.91655 0.37828 0.0
C1681 C 0.57836 0.90072 0.37156 0.0
C1682 C 0.5691 0.87213 0.36425 0.0
C1683 C 0.59441 0.91953 0.35979 0.0
C1684 C 0.59595 0.89597 0.38611 0.0
C1685 C 0.58269 0.90765 0.39895 0.0
C1686 C 0.59455 0.90574 0.41373 0.0
C1687 C 0.62071 0.89148 0.41546 0.0
C1688 C 0.63466 0.87909 0.40249 0.0
C1689 C 0.62201 0.8815 0.38762 0.0
H1690 H 0.83225 0.76598 0.10986 0.0
H1691 H 0.80458 0.7347 0.15484 0.0
H1692 H 0.82063 0.77974 0.16698 0.0
H1693 H 0.89574 0.79853 0.12325 0.0
H1694 H 0.89403 0.82876 0.11028 0.0
H1695 H 0.87792 0.79526 0.10479 0.0
H1696 H 0.82933 0.82072 0.10058 0.0
H1697 H 0.84535 0.85436 0.10597 0.0
H1698 H 0.81409 0.84167 0.11609 0.0
H1699 H 0.84163 0.82704 0.17448 0.0
H1700 H 0.86677 0.87325 0.17688 0.0
H1701 H 0.88233 0.87333 0.12717 0.0
C1702 C 0.82908 0.76887 0.12221 0.0
C1703 C 0.81696 0.74695 0.1314 0.0
C1704 C 0.81374 0.75125 0.14758 0.0
C1705 C 0.82275 0.77678 0.15458 0.0
C1706 C 0.83509 0.79776 0.14526 0.0
C1707 C 0.83829 0.79413 0.12943 0.0
C1708 C 0.85376 0.81938 0.12224 0.0
C1709 C 0.88204 0.80991 0.1147 0.0
C1710 C 0.83448 0.83495 0.11053 0.0
C1711 C 0.85902 0.83756 0.13653 0.0
C1712 C 0.84784 0.82481 0.14966 0.0
C1713 C 0.85037 0.83731 0.16427 0.0
C1714 C 0.86473 0.86357 0.16551 0.0
C1715 C 0.8766 0.87698 0.15223 0.0
C1716 C 0.87356 0.86369 0.13756 0.0
H1717 H 0.98493 0.05176 0.89411 0.0
H1718 H 0.98834 0.06673 0.84442 0.0
H1719 H 0.94066 0.08927 0.84554 0.0
H1720 H 0.90751 0.03679 0.89624 0.0
H1721 H 0.90377 0.05473 0.91465 0.0
H1722 H 0.937 0.0375 0.90969 0.0
H1723 H 0.96397 0.08511 0.91454 0.0
H1724 H 0.93085 0.10255 0.91937 0.0
H1725 H 0.95321 0.11688 0.90421 0.0
H1726 H 0.89511 0.11432 0.85242 0.0
H1727 H 0.85313 0.13752 0.86426 0.0
H1728 H 0.87853 0.10539 0.90947 0.0
C1729 C 0.97544 0.05926 0.8834 0.0
C1730 C 0.99036 0.05741 0.86916 0.0
C1731 C 0.97728 0.06777 0.85545 0.0
C1732 C 0.95021 0.08065 0.85597 0.0
C1733 C 0.93641 0.08277 0.87026 0.0
C1734 C 0.9484 0.07207 0.88371 0.0
C1735 C 0.92959 0.07813 0.89767 0.0
C1736 C 0.91883 0.05012 0.90499 0.0
C1737 C 0.94535 0.09678 0.90965 0.0
C1738 C 0.90545 0.09447 0.89002 0.0
C1739 C 0.90982 0.09686 0.87421 0.0
C1740 C 0.89126 0.11226 0.86475 0.0
C1741 C 0.86754 0.1255 0.87162 0.0
C1742 C 0.86245 0.12319 0.88779 0.0
C1743 C 0.88165 0.10728 0.89706 0.0
H1744 H 0.8286 0.72547 0.61781 0.0
H1745 H 0.80364 0.75994 0.66258 0.0
H1746 H 0.82012 0.71567 0.67534 0.0
H1747 H 0.81009 0.6506 0.62579 0.0
H1748 H 0.84062 0.63685 0.61543 0.0
H1749 H 0.82473 0.67032 0.60966 0.0
H1750 H 0.87382 0.69544 0.61261 0.0
H1751 H 0.88982 0.66211 0.61846 0.0
H1752 H 0.89262 0.69311 0.63082 0.0
H1753 H 0.84114 0.66861 0.68343 0.0
H1754 H 0.86597 0.62226 0.68627 0.0
H1755 H 0.87851 0.61889 0.63635 0.0
C1756 C 0.82617 0.72347 0.63026 0.0
C1757 C 0.81466 0.74607 0.63919 0.0
C1758 C 0.81234 0.74288 0.6555 0.0
C1759 C 0.82159 0.71779 0.66286 0.0
C1760 C 0.83325 0.6961 0.65377 0.0
C1761 C 0.83559 0.69865 0.63783 0.0
C1762 C 0.85035 0.67276 0.63089 0.0
C1763 C 0.83024 0.65668 0.61979 0.0
C1764 C 0.87831 0.68138 0.62272 0.0
C1765 C 0.85616 0.65546 0.64542 0.0
C1766 C 0.84592 0.66918 0.65848 0.0
C1767 C 0.84916 0.65758 0.67328 0.0
C1768 C 0.86331 0.63124 0.67477 0.0
C1769 C 0.87425 0.61688 0.66156 0.0
C1770 C 0.87045 0.62926 0.6467 0.0
H1771 H 0.62482 0.63317 0.87753 0.0
H1772 H 0.63189 0.60722 0.92577 0.0
H1773 H 0.58965 0.57604 0.92258 0.0
H1774 H 0.54891 0.63633 0.87625 0.0
H1775 H 0.54636 0.62273 0.85672 0.0
H1776 H 0.57774 0.6421 0.86271 0.0
H1777 H 0.60946 0.59925 0.85443 0.0
H1778 H 0.57812 0.57965 0.84851 0.0
H1779 H 0.60247 0.56425 0.86239 0.0
H1780 H 0.54555 0.54922 0.91442 0.0
H1781 H 0.50209 0.52969 0.90213 0.0
H1782 H 0.52427 0.57242 0.85905 0.0
C1783 C 0.6176 0.6209 0.88744 0.0
C1784 C 0.63176 0.6227 0.90193 0.0
C1785 C 0.62148 0.60625 0.91457 0.0
C1786 C 0.59754 0.58839 0.91285 0.0
C1787 C 0.58419 0.5871 0.89841 0.0
C1788 C 0.59383 0.60292 0.88593 0.0
C1789 C 0.57519 0.59831 0.87176 0.0
C1790 C 0.56122 0.62654 0.86656 0.0
C1791 C 0.59234 0.58454 0.85849 0.0
C1792 C 0.55327 0.57768 0.87828 0.0
C1793 C 0.55895 0.57139 0.89365 0.0
C1794 C 0.54103 0.55381 0.90236 0.0
C1795 C 0.5164 0.5428 0.89526 0.0
C1796 C 0.50989 0.54935 0.8796 0.0
C1797 C 0.5289 0.56664 0.87096 0.0
H1798 H 0.62612 0.37394 0.13452 0.0
H1799 H 0.64914 0.37036 0.18329 0.0
H1800 H 0.67207 0.32333 0.17896 0.0
H1801 H 0.60951 0.30029 0.12976 0.0
H1802 H 0.62443 0.29777 0.11052 0.0
H1803 H 0.61053 0.3314 0.11739 0.0
H1804 H 0.65914 0.35575 0.11157 0.0
H1805 H 0.67321 0.32217 0.10468 0.0
H1806 H 0.69136 0.34129 0.11994 0.0
H1807 H 0.68978 0.27544 0.16962 0.0
H1808 H 0.70311 0.23115 0.15576 0.0
H1809 H 0.67064 0.26696 0.11279 0.0
C1810 C 0.63604 0.36334 0.14431 0.0
C1811 C 0.63571 0.37581 0.15928 0.0
C1812 C 0.64914 0.36127 0.17172 0.0
C1813 C 0.6622 0.33454 0.16938 0.0
C1814 C 0.66196 0.32282 0.15449 0.0
C1815 C 0.64945 0.33686 0.14214 0.0
C1816 C 0.65203 0.3196 0.1273 0.0
C1817 C 0.62236 0.3118 0.12087 0.0
C1818 C 0.67001 0.33566 0.11516 0.0
C1819 C 0.66758 0.29338 0.13327 0.0
C1820 C 0.67302 0.29566 0.149 0.0
C1821 C 0.68592 0.27357 0.15728 0.0
C1822 C 0.69335 0.24848 0.1493 0.0
C1823 C 0.68812 0.24572 0.13318 0.0
C1824 C 0.67531 0.26864 0.12506 0.0
H1825 H 0.88153 0.3783 0.38067 0.0
H1826 H 0.88277 0.39762 0.42997 0.0
H1827 H 0.92892 0.4226 0.42665 0.0
H1828 H 0.9555 0.36425 0.37651 0.0
H1829 H 0.95841 0.38054 0.35761 0.0
H1830 H 0.92495 0.36526 0.36377 0.0
H1831 H 0.89959 0.41365 0.35862 0.0
H1832 H 0.93302 0.42911 0.35246 0.0
H1833 H 0.91277 0.4457 0.36782 0.0
H1834 H 0.97632 0.44266 0.41826 0.0
H1835 H 0.02103 0.45749 0.40532 0.0
H1836 H 0.98807 0.42676 0.3613 0.0
C1837 C 0.89139 0.38788 0.39079 0.0
C1838 C 0.8785 0.38591 0.40561 0.0
C1839 C 0.89216 0.39886 0.4185 0.0
C1840 C 0.91838 0.41311 0.41673 0.0
C1841 C 0.93052 0.41449 0.40197 0.0
C1842 C 0.91739 0.40239 0.3892 0.0
C1843 C 0.93518 0.40644 0.37466 0.0
C1844 C 0.94404 0.37739 0.36774 0.0
C1845 C 0.91918 0.42482 0.36268 0.0
C1846 C 0.96064 0.42229 0.38128 0.0
C1847 C 0.9575 0.42673 0.39706 0.0
C1848 C 0.97886 0.43961 0.40589 0.0
C1849 C 0.00419 0.44791 0.39843 0.0
C1850 C 0.0079 0.4435 0.38229 0.0
C1851 C 0.98563 0.43085 0.3736 0.0
H1852 H 0.86151 0.37298 0.85204 0.0
H1853 H 0.88521 0.40342 0.89788 0.0
H1854 H 0.86228 0.36125 0.90965 0.0
H1855 H 0.7925 0.34185 0.863 0.0
H1856 H 0.79651 0.31149 0.85027 0.0
H1857 H 0.81301 0.34517 0.84538 0.0
H1858 H 0.86229 0.32012 0.84331 0.0
H1859 H 0.84594 0.2864 0.84815 0.0
H1860 H 0.87544 0.29962 0.85953 0.0
H1861 H 0.83871 0.3149 0.91654 0.0
H1862 H 0.81785 0.26637 0.91786 0.0
H1863 H 0.80995 0.26545 0.86766 0.0
C1864 C 0.86158 0.37093 0.86455 0.0
C1865 C 0.87512 0.39161 0.87402 0.0
C1866 C 0.87505 0.38789 0.89036 0.0
C1867 C 0.86195 0.36405 0.89718 0.0
C1868 C 0.849 0.34398 0.88755 0.0
C1869 C 0.84876 0.34707 0.87159 0.0
C1870 C 0.83473 0.32152 0.86388 0.0
C1871 C 0.80757 0.33056 0.85512 0.0
C1872 C 0.85586 0.306 0.85308 0.0
C1873 C 0.82751 0.30349 0.87798 0.0
C1874 C 0.83567 0.31698 0.89153 0.0
C1875 C 0.83204 0.30417 0.90601 0.0
C1876 C 0.82015 0.27661 0.90665 0.0
C1877 C 0.81218 0.26212 0.89289 0.0
C1878 C 0.81561 0.27601 0.87841 0.0
H1879 H 0.98117 0.57217 0.14632 0.0
H1880 H 0.00601 0.53005 0.10349 0.0
H1881 H 0.96166 0.54696 0.09102 0.0
H1882 H 0.90375 0.55942 0.14287 0.0
H1883 H 0.89481 0.59402 0.15076 0.0
H1884 H 0.92721 0.57632 0.15671 0.0
H1885 H 0.95651 0.62089 0.14846 0.0
H1886 H 0.92427 0.6386 0.14235 0.0
H1887 H 0.95344 0.63417 0.12888 0.0
H1888 H 0.9161 0.5711 0.08266 0.0
H1889 H 0.87216 0.59981 0.07929 0.0
H1890 H 0.87763 0.6268 0.12744 0.0
C1891 C 0.97698 0.56599 0.13443 0.0
C1892 C 0.99696 0.54963 0.12591 0.0
C1893 C 0.99096 0.54248 0.11027 0.0
C1894 C 0.96582 0.55198 0.10307 0.0
C1895 C 0.94688 0.56866 0.11166 0.0
C1896 C 0.95207 0.57548 0.12702 0.0
C1897 C 0.92899 0.59494 0.1334 0.0
C1898 C 0.91273 0.58029 0.14672 0.0
C1899 C 0.94156 0.62386 0.13857 0.0
C1900 C 0.91028 0.59829 0.11918 0.0
C1901 C 0.92085 0.58284 0.10678 0.0
C1902 C 0.9075 0.58314 0.09232 0.0
C1903 C 0.88259 0.59958 0.0905 0.0
C1904 C 0.87137 0.61561 0.10307 0.0
C1905 C 0.88555 0.61482 0.11757 0.0
H1906 H 0.64084 0.63714 0.34765 0.0
H1907 H 0.62984 0.59905 0.39321 0.0
H1908 H 0.65355 0.64057 0.40518 0.0
H1909 H 0.71038 0.67156 0.35518 0.0
H1910 H 0.70143 0.70331 0.34433 0.0
H1911 H 0.68602 0.66932 0.33902 0.0
H1912 H 0.63523 0.69094 0.34156 0.0
H1913 H 0.65047 0.72494 0.34685 0.0
H1914 H 0.62486 0.70794 0.35948 0.0
H1915 H 0.67604 0.68684 0.41252 0.0
H1916 H 0.69377 0.73638 0.41484 0.0
H1917 H 0.68925 0.74578 0.36476 0.0
C1918 C 0.64387 0.6374 0.36011 0.0
C1919 C 0.6336 0.61479 0.36949 0.0
C1920 C 0.63746 0.61614 0.38579 0.0
C1921 C 0.65105 0.63957 0.39271 0.0
C1922 C 0.6606 0.66166 0.38321 0.0
C1923 C 0.65711 0.66093 0.36727 0.0
C1924 C 0.66755 0.68853 0.35993 0.0
C1925 C 0.69285 0.68283 0.34896 0.0
C1926 C 0.64307 0.704 0.35146 0.0
C1927 C 0.67699 0.70493 0.37424 0.0
C1928 C 0.67312 0.68884 0.38751 0.0
C1929 C 0.67937 0.69962 0.4022 0.0
C1930 C 0.68945 0.7278 0.40341 0.0
C1931 C 0.69299 0.74498 0.39 0.0
C1932 C 0.687 0.73315 0.37523 0.0
H1933 H 0.61932 0.37462 0.63288 0.0
H1934 H 0.63106 0.41039 0.58679 0.0
H1935 H 0.58732 0.43919 0.59015 0.0
H1936 H 0.54352 0.36879 0.63129 0.0
H1937 H 0.53808 0.37856 0.65131 0.0
H1938 H 0.57086 0.36149 0.64549 0.0
H1939 H 0.59977 0.4036 0.65718 0.0
H1940 H 0.56703 0.4209 0.66297 0.0
H1941 H 0.59236 0.43966 0.65091 0.0
H1942 H 0.54119 0.46219 0.59789 0.0
H1943 H 0.49549 0.47772 0.60946 0.0
H1944 H 0.51424 0.42841 0.65089 0.0
C1945 C 0.61277 0.38855 0.62349 0.0
C1946 C 0.62869 0.39017 0.60954 0.0
C1947 C 0.61931 0.40874 0.59758 0.0
C1948 C 0.5945 0.42526 0.59939 0.0
C1949 C 0.57939 0.42317 0.61328 0.0
C1950 C 0.58815 0.40534 0.62514 0.0
C1951 C 0.56765 0.40664 0.63877 0.0
C1952 C 0.55423 0.37712 0.64189 0.0
C1953 C 0.5826 0.41841 0.65332 0.0
C1954 C 0.54574 0.42764 0.6326 0.0
C1955 C 0.553 0.43696 0.61789 0.0
C1956 C 0.53542 0.4553 0.60946 0.0
C1957 C 0.50951 0.46399 0.61613 0.0
C1958 C 0.50146 0.45449 0.63112 0.0
C1959 C 0.52009 0.43645 0.63954 0.0
H1960 H 0.12709 0.38183 0.37773 0.0
H1961 H 0.15108 0.38316 0.32904 0.0
H1962 H 0.17801 0.33814 0.3327 0.0
H1963 H 0.19412 0.3538 0.39236 0.0
H1964 H 0.17715 0.33208 0.40699 0.0
H1965 H 0.16047 0.36481 0.40064 0.0
H1966 H 0.11435 0.33688 0.39371 0.0
H1967 H 0.13081 0.30412 0.40009 0.0
H1968 H 0.11649 0.30668 0.38073 0.0
H1969 H 0.2006 0.29195 0.34146 0.0
H1970 H 0.21688 0.24788 0.35451 0.0
H1971 H 0.17894 0.27723 0.39765 0.0
C1972 C 0.13806 0.37278 0.36781 0.0
C1973 C 0.13691 0.38611 0.35307 0.0
C1974 C 0.15162 0.37342 0.34044 0.0
C1975 C 0.16702 0.34787 0.34241 0.0
C1976 C 0.16766 0.33535 0.3571 0.0
C1977 C 0.15359 0.3474 0.36959 0.0
C1978 C 0.15709 0.32937 0.38409 0.0
C1979 C 0.17317 0.34601 0.39677 0.0
C1980 C 0.12795 0.31863 0.38999 0.0
C1981 C 0.17506 0.30504 0.37778 0.0
C1982 C 0.18098 0.30896 0.3622 0.0
C1983 C 0.19628 0.28879 0.35368 0.0
C1984 C 0.20543 0.26381 0.36121 0.0
C1985 C 0.19935 0.25918 0.37713 0.0
C1986 C 0.18428 0.28033 0.38553 0.0
H1987 H 0.37895 0.36744 0.13314 0.0
H1988 H 0.37753 0.39705 0.08537 0.0
H1989 H 0.42354 0.42178 0.08953 0.0
H1990 H 0.41003 0.43241 0.14953 0.0
H1991 H 0.43124 0.41316 0.16352 0.0
H1992 H 0.39772 0.39851 0.15697 0.0
H1993 H 0.42343 0.35185 0.14861 0.0
H1994 H 0.45699 0.36632 0.15516 0.0
H1995 H 0.45335 0.35387 0.13546 0.0
H1996 H 0.47107 0.44024 0.09824 0.0
H1997 H 0.51632 0.45292 0.11125 0.0
H1998 H 0.48598 0.41356 0.15378 0.0
C1999 C 0.38824 0.37922 0.12356 0.0
C2000 C 0.37466 0.38023 0.1089 0.0
C2001 C 0.38748 0.39601 0.0967 0.0
C2002 C 0.41361 0.41013 0.09895 0.0
C2003 C 0.42646 0.40857 0.11351 0.0
C2004 C 0.41413 0.39373 0.12565 0.0
C2005 C 0.43258 0.39512 0.14009 0.0
C2006 C 0.41696 0.41074 0.15331 0.0
C2007 C 0.44215 0.365 0.14512 0.0
C2008 C 0.45751 0.41261 0.13408 0.0
C2009 C 0.45351 0.42011 0.11871 0.0
C2010 C 0.47428 0.43484 0.11033 0.0
C2011 C 0.49991 0.44188 0.1178 0.0
C2012 C 0.50447 0.43446 0.13354 0.0
C2013 C 0.48281 0.41997 0.14183 0.0
H2014 H 0.31787 0.73396 0.86365 0.0
H2015 H 0.31708 0.72411 0.91376 0.0
H2016 H 0.33625 0.67514 0.91092 0.0
H2017 H 0.29857 0.65969 0.85413 0.0
H2018 H 0.32194 0.65849 0.8375 0.0
H2019 H 0.30604 0.69193 0.84336 0.0
H2020 H 0.35633 0.71491 0.84509 0.0
H2021 H 0.37239 0.68156 0.8393 0.0
H2022 H 0.38321 0.69851 0.85715 0.0
H2023 H 0.35852 0.6291 0.90291 0.0
H2024 H 0.38194 0.58812 0.89034 0.0
H2025 H 0.36833 0.62708 0.84518 0.0
C2026 C 0.32129 0.72135 0.87403 0.0
C2027 C 0.31585 0.73284 0.88895 0.0
C2028 C 0.32098 0.71576 0.90222 0.0
C2029 C 0.33184 0.68791 0.90072 0.0
C2030 C 0.33737 0.67743 0.88587 0.0
C2031 C 0.33217 0.69352 0.87274 0.0
C2032 C 0.34125 0.6776 0.85818 0.0
C2033 C 0.3154 0.67157 0.84767 0.0
C2034 C 0.36469 0.69413 0.84942 0.0
C2035 C 0.35285 0.65021 0.86521 0.0
C2036 C 0.35024 0.65061 0.8812 0.0
C2037 C 0.36046 0.62842 0.8904 0.0
C2038 C 0.37386 0.60526 0.88311 0.0
C2039 C 0.37699 0.6043 0.86674 0.0
C2040 C 0.36602 0.62702 0.85768 0.0
H2041 H 0.01795 0.57891 0.65154 0.0
H2042 H 0.98742 0.54274 0.60825 0.0
H2043 H 0.03098 0.55991 0.59495 0.0
H2044 H 0.0452 0.64238 0.63509 0.0
H2045 H 0.07568 0.64486 0.6478 0.0
H2046 H 0.04366 0.62717 0.6543 0.0
H2047 H 0.07272 0.5813 0.66037 0.0
H2048 H 0.10491 0.59894 0.654 0.0
H2049 H 0.09443 0.56538 0.64539 0.0
H2050 H 0.07712 0.58276 0.58614 0.0
H2051 H 0.12157 0.6106 0.5824 0.0
H2052 H 0.12057 0.63382 0.63119 0.0
C2053 C 0.02074 0.57408 0.63934 0.0
C2054 C 0.99948 0.55921 0.63095 0.0
C2055 C 0.00354 0.55396 0.61491 0.0
C2056 C 0.02822 0.5636 0.60726 0.0
C2057 C 0.04853 0.57869 0.61579 0.0
C2058 C 0.04504 0.58395 0.63147 0.0
C2059 C 0.06913 0.60229 0.63773 0.0
C2060 C 0.05773 0.63087 0.6441 0.0
C2061 C 0.08632 0.586 0.6501 0.0
C2062 C 0.08655 0.60673 0.6231 0.0
C2063 C 0.07451 0.5927 0.6106 0.0
C2064 C 0.08677 0.5938 0.59586 0.0
C2065 C 0.11201 0.60968 0.59384 0.0
C2066 C 0.12452 0.62453 0.60646 0.0
C2067 C 0.11149 0.6229 0.62126 0.0
H2068 H 0.13047 0.6356 0.15955 0.0
H2069 H 0.13061 0.58851 0.1161 0.0
H2070 H 0.15407 0.62908 0.1031 0.0
H2071 H 0.11313 0.70269 0.14296 0.0
H2072 H 0.13532 0.72355 0.15579 0.0
H2073 H 0.12097 0.68982 0.16222 0.0
H2074 H 0.17207 0.67196 0.16858 0.0
H2075 H 0.18658 0.70571 0.16218 0.0
H2076 H 0.1992 0.67276 0.15371 0.0
H2077 H 0.17499 0.67525 0.09428 0.0
H2078 H 0.19103 0.72502 0.09016 0.0
H2079 H 0.17668 0.74313 0.13898 0.0
C2080 C 0.13589 0.63371 0.14737 0.0
C2081 C 0.12877 0.60884 0.13886 0.0
C2082 C 0.13575 0.60737 0.12287 0.0
C2083 C 0.14922 0.63026 0.11536 0.0
C2084 C 0.15554 0.65462 0.12397 0.0
C2085 C 0.14912 0.65661 0.1396 0.0
C2086 C 0.15665 0.68603 0.14583 0.0
C2087 C 0.12992 0.70142 0.15206 0.0
C2088 C 0.18002 0.68398 0.15832 0.0
C2089 C 0.16785 0.70025 0.13121 0.0
C2090 C 0.16729 0.68163 0.11878 0.0
C2091 C 0.17575 0.69002 0.10395 0.0
C2092 C 0.18481 0.71835 0.10171 0.0
C2093 C 0.18518 0.73798 0.11423 0.0
C2094 C 0.17681 0.72861 0.12918 0.0
H2095 H 0.12627 0.36792 0.88088 0.0
H2096 H 0.14138 0.40697 0.9259 0.0
H2097 H 0.09813 0.43648 0.92261 0.0
H2098 H 0.09947 0.43222 0.86184 0.0
H2099 H 0.0731 0.41304 0.85069 0.0
H2100 H 0.10588 0.39559 0.85626 0.0
H2101 H 0.07696 0.35494 0.8694 0.0
H2102 H 0.04414 0.37217 0.8638 0.0
H2103 H 0.05065 0.36382 0.88391 0.0
H2104 H 0.05205 0.45964 0.91525 0.0
H2105 H 0.00586 0.47501 0.90427 0.0
H2106 H 0.02112 0.42239 0.8636 0.0
C2107 C 0.12057 0.38274 0.89004 0.0
C2108 C 0.13728 0.38506 0.90367 0.0
C2109 C 0.12901 0.40478 0.91535 0.0
C2110 C 0.10449 0.4217 0.91358 0.0
C2111 C 0.08856 0.41887 0.90001 0.0
C2112 C 0.09625 0.39996 0.88842 0.0
C2113 C 0.07496 0.40061 0.87516 0.0
C2114 C 0.08921 0.41099 0.8601 0.0
C2115 C 0.06084 0.37114 0.87295 0.0
C2116 C 0.05381 0.42248 0.88125 0.0
C2117 C 0.06217 0.43278 0.89559 0.0
C2118 C 0.04543 0.45199 0.90396 0.0
C2119 C 0.01923 0.46057 0.89763 0.0
C2120 C 0.01007 0.45009 0.88303 0.0
C2121 C 0.02785 0.43117 0.87464 0.0
H2122 H 0.30926 0.26405 0.64616 0.0
H2123 H 0.30763 0.27373 0.59605 0.0
H2124 H 0.32697 0.32263 0.59871 0.0
H2125 H 0.29026 0.33852 0.65564 0.0
H2126 H 0.31387 0.33978 0.67215 0.0
H2127 H 0.29779 0.30634 0.66644 0.0
H2128 H 0.34799 0.28323 0.66453 0.0
H2129 H 0.36424 0.31659 0.67014 0.0
H2130 H 0.37473 0.29946 0.65228 0.0
H2131 H 0.34968 0.36851 0.60649 0.0
H2132 H 0.37325 0.40961 0.61883 0.0
H2133 H 0.36006 0.37118 0.66418 0.0
C2134 C 0.31252 0.27661 0.63575 0.0
C2135 C 0.30681 0.26507 0.62087 0.0
C2136 C 0.31172 0.28211 0.60755 0.0
C2137 C 0.3227 0.30993 0.60895 0.0
C2138 C 0.32854 0.32044 0.62375 0.0
C2139 C 0.32348 0.30445 0.63694 0.0
C2140 C 0.33283 0.32046 0.65141 0.0
C2141 C 0.30715 0.32664 0.66204 0.0
C2142 C 0.35634 0.30395 0.6601 0.0
C2143 C 0.34442 0.34778 0.64427 0.0
C2144 C 0.34159 0.34724 0.62829 0.0
C2145 C 0.35176 0.36931 0.61899 0.0
C2146 C 0.36527 0.39253 0.62615 0.0
C2147 C 0.36852 0.39371 0.64251 0.0
C2148 C 0.35767 0.37106 0.65168 0.0
H2149 H 0.48327 0.58377 0.36315 0.0
H2150 H 0.50673 0.5384 0.40519 0.0
H2151 H 0.46208 0.55447 0.41769 0.0
H2152 H 0.45505 0.64461 0.38195 0.0
H2153 H 0.42631 0.65023 0.36836 0.0
H2154 H 0.45873 0.63299 0.36209 0.0
H2155 H 0.42963 0.58925 0.35248 0.0
H2156 H 0.39706 0.60647 0.3586 0.0
H2157 H 0.40575 0.57122 0.36568 0.0
H2158 H 0.41616 0.57737 0.42614 0.0
H2159 H 0.37201 0.60552 0.42987 0.0
H2160 H 0.37903 0.63722 0.38264 0.0
C2161 C 0.4787 0.57675 0.37487 0.0
C2162 C 0.49836 0.55966 0.38316 0.0
C2163 C 0.49193 0.55143 0.3986 0.0
C2164 C 0.46661 0.56042 0.40581 0.0
C2165 C 0.44795 0.57776 0.39745 0.0
C2166 C 0.45361 0.58582 0.38231 0.0
C2167 C 0.43073 0.60586 0.37624 0.0
C2168 C 0.44347 0.63515 0.37191 0.0
C2169 C 0.41485 0.59238 0.36243 0.0
C2170 C 0.41156 0.60803 0.39038 0.0
C2171 C 0.42176 0.59149 0.40244 0.0
C2172 C 0.40788 0.59032 0.41675 0.0
C2173 C 0.38283 0.60643 0.41877 0.0
C2174 C 0.37201 0.62367 0.40659 0.0
C2175 C 0.38671 0.62436 0.39222 0.0
loop_
_geom_bond_atom_site_label_1
_geom_bond_atom_site_label_2
_geom_bond_distance
_geom_bond_site_symmetry_2
_ccdc_geom_bond_type
O0 Cd1 2.223 . S
O0 C8 1.315 . S
Cd1 O0 2.223 . S
Cd1 O4 2.297 . S
Cd1 O5 2.439 . S
Cd1 O11 2.240 . S
Cd2 O3 2.240 . S
Cd2 O10 2.223 . S
Cd2 O12 2.297 . S
Cd2 O13 2.439 . S
O3 Cd2 2.240 . S
O3 C8 1.279 . S
O4 Cd1 2.297 . S
O4 C6 1.247 . S
O5 Cd1 2.439 . S
O5 C6 1.208 . S
C6 O4 1.247 . S
C6 O5 1.208 . S
C7 O12 1.247 . S
C7 O13 1.208 . S
C8 O0 1.315 . S
C8 O3 1.279 . S
C9 O10 1.315 . S
C9 O11 1.279 . S
O10 Cd2 2.223 . S
O10 C9 1.315 . S
O11 Cd1 2.240 . S
O11 C9 1.279 . S
O12 Cd2 2.297 . S
O12 C7 1.247 . S
O13 Cd2 2.439 . S
O13 C7 1.208 . S
O14 Cd15 2.223 . S
O14 C22 1.315 . S
Cd15 O14 2.223 . S
Cd15 O18 2.297 . S
Cd15 O19 2.439 . S
Cd15 O25 2.240 . S
Cd16 O17 2.240 . S
Cd16 O24 2.223 . S
Cd16 O26 2.297 . S
Cd16 O27 2.439 . S
O17 Cd16 2.240 . S
O17 C22 1.279 . S
O18 Cd15 2.297 . S
O18 C20 1.247 . S
O19 Cd15 2.439 . S
O19 C20 1.208 . S
C20 O18 1.247 . S
C20 O19 1.208 . S
C21 O26 1.247 . S
C21 O27 1.208 . S
C22 O14 1.315 . S
C22 O17 1.279 . S
C23 O24 1.315 . S
C23 O25 1.279 . S
O24 Cd16 2.223 . S
O24 C23 1.315 . S
O25 Cd15 2.240 . S
O25 C23 1.279 . S
O26 Cd16 2.297 . S
O26 C21 1.247 . S
O27 Cd16 2.439 . S
O27 C21 1.208 . S
O28 Cd29 2.223 . S
O28 C36 1.315 . S
Cd29 O28 2.223 . S
Cd29 O32 2.297 . S
Cd29 O33 2.439 . S
Cd29 O39 2.240 . S
Cd30 O31 2.240 . S
Cd30 O38 2.223 . S
Cd30 O40 2.297 . S
Cd30 O41 2.439 . S
O31 Cd30 2.240 . S
O31 C36 1.279 . S
O32 Cd29 2.297 . S
O32 C34 1.247 . S
O33 Cd29 2.439 . S
O33 C34 1.208 . S
C34 O32 1.247 . S
C34 O33 1.208 . S
C35 O40 1.247 . S
C35 O41 1.208 . S
C36 O28 1.315 . S
C36 O31 1.279 . S
C37 O38 1.315 . S
C37 O39 1.279 . S
O38 Cd30 2.223 . S
O38 C37 1.315 . S
O39 Cd29 2.240 . S
O39 C37 1.279 . S
O40 Cd30 2.297 . S
O40 C35 1.247 . S
O41 Cd30 2.439 . S
O41 C35 1.208 . S
O42 Cd43 2.223 . S
O42 C50 1.315 . S
Cd43 O42 2.223 . S
Cd43 O46 2.297 . S
Cd43 O47 2.439 . S
Cd43 O53 2.240 . S
Cd44 O45 2.240 . S
Cd44 O52 2.223 . S
Cd44 O54 2.297 . S
Cd44 O55 2.439 . S
O45 Cd44 2.240 . S
O45 C50 1.279 . S
O46 Cd43 2.297 . S
O46 C48 1.247 . S
O47 Cd43 2.439 . S
O47 C48 1.208 . S
C48 O46 1.247 . S
C48 O47 1.208 . S
C49 O54 1.247 . S
C49 O55 1.208 . S
C50 O42 1.315 . S
C50 O45 1.279 . S
C51 O52 1.315 . S
C51 O53 1.279 . S
O52 Cd44 2.223 . S
O52 C51 1.315 . S
O53 Cd43 2.240 . S
O53 C51 1.279 . S
O54 Cd44 2.297 . S
O54 C49 1.247 . S
O55 Cd44 2.439 . S
O55 C49 1.208 . S
O56 Cd57 2.223 . S
O56 C64 1.315 . S
Cd57 O56 2.223 . S
Cd57 O60 2.297 . S
Cd57 O61 2.439 . S
Cd57 O67 2.240 . S
Cd58 O59 2.240 . S
Cd58 O66 2.223 . S
Cd58 O68 2.297 . S
Cd58 O69 2.439 . S
O59 Cd58 2.240 . S
O59 C64 1.279 . S
O60 Cd57 2.297 . S
O60 C62 1.247 . S
O61 Cd57 2.439 . S
O61 C62 1.208 . S
C62 O60 1.247 . S
C62 O61 1.208 . S
C63 O68 1.247 . S
C63 O69 1.208 . S
C64 O56 1.315 . S
C64 O59 1.279 . S
C65 O66 1.315 . S
C65 O67 1.279 . S
O66 Cd58 2.223 . S
O66 C65 1.315 . S
O67 Cd57 2.240 . S
O67 C65 1.279 . S
O68 Cd58 2.297 . S
O68 C63 1.247 . S
O69 Cd58 2.439 . S
O69 C63 1.208 . S
O70 Cd71 2.223 . S
O70 C78 1.315 . S
Cd71 O70 2.223 . S
Cd71 O74 2.297 . S
Cd71 O75 2.439 . S
Cd71 O81 2.240 . S
Cd72 O73 2.240 . S
Cd72 O80 2.223 . S
Cd72 O82 2.297 . S
Cd72 O83 2.439 . S
O73 Cd72 2.240 . S
O73 C78 1.279 . S
O74 Cd71 2.297 . S
O74 C76 1.247 . S
O75 Cd71 2.439 . S
O75 C76 1.208 . S
C76 O74 1.247 . S
C76 O75 1.208 . S
C77 O82 1.247 . S
C77 O83 1.208 . S
C78 O70 1.315 . S
C78 O73 1.279 . S
C79 O80 1.315 . S
C79 O81 1.279 . S
O80 Cd72 2.223 . S
O80 C79 1.315 . S
O81 Cd71 2.240 . S
O81 C79 1.279 . S
O82 Cd72 2.297 . S
O82 C77 1.247 . S
O83 Cd72 2.439 . S
O83 C77 1.208 . S
O84 Cd85 2.223 . S
O84 C92 1.315 . S
Cd85 O84 2.223 . S
Cd85 O88 2.297 . S
Cd85 O89 2.439 . S
Cd85 O95 2.240 . S
Cd86 O87 2.240 . S
Cd86 O94 2.223 . S
Cd86 O96 2.297 . S
Cd86 O97 2.439 . S
O87 Cd86 2.240 . S
O87 C92 1.279 . S
O88 Cd85 2.297 . S
O88 C90 1.247 . S
O89 Cd85 2.439 . S
O89 C90 1.208 . S
C90 O88 1.247 . S
C90 O89 1.208 . S
C91 O96 1.247 . S
C91 O97 1.208 . S
C92 O84 1.315 . S
C92 O87 1.279 . S
C93 O94 1.315 . S
C93 O95 1.279 . S
O94 Cd86 2.223 . S
O94 C93 1.315 . S
O95 Cd85 2.240 . S
O95 C93 1.279 . S
O96 Cd86 2.297 . S
O96 C91 1.247 . S
O97 Cd86 2.439 . S
O97 C91 1.208 . S
O98 Cd99 2.223 . S
O98 C106 1.315 . S
Cd99 O98 2.223 . S
Cd99 O102 2.297 . S
Cd99 O103 2.439 . S
Cd99 O109 2.240 . S
Cd100 O101 2.240 . S
Cd100 O108 2.223 . S
Cd100 O110 2.297 . S
Cd100 O111 2.439 . S
O101 Cd100 2.240 . S
O101 C106 1.279 . S
O102 Cd99 2.297 . S
O102 C104 1.247 . S
O103 Cd99 2.439 . S
O103 C104 1.208 . S
C104 O102 1.247 . S
C104 O103 1.208 . S
C105 O110 1.247 . S
C105 O111 1.208 . S
C106 O98 1.315 . S
C106 O101 1.279 . S
C107 O108 1.315 . S
C107 O109 1.279 . S
O108 Cd100 2.223 . S
O108 C107 1.315 . S
O109 Cd99 2.240 . S
O109 C107 1.279 . S
O110 Cd100 2.297 . S
O110 C105 1.247 . S
O111 Cd100 2.439 . S
O111 C105 1.208 . S
O112 Cd113 2.223 . S
O112 C120 1.315 . S
Cd113 O112 2.223 . S
Cd113 O116 2.297 . S
Cd113 O117 2.439 . S
Cd113 O123 2.240 . S
Cd114 O115 2.240 . S
Cd114 O122 2.223 . S
Cd114 O124 2.297 . S
Cd114 O125 2.439 . S
O115 Cd114 2.240 . S
O115 C120 1.279 . S
O116 Cd113 2.297 . S
O116 C118 1.247 . S
O117 Cd113 2.439 . S
O117 C118 1.208 . S
C118 O116 1.247 . S
C118 O117 1.208 . S
C119 O124 1.247 . S
C119 O125 1.208 . S
C120 O112 1.315 . S
C120 O115 1.279 . S
C121 O122 1.315 . S
C121 O123 1.279 . S
O122 Cd114 2.223 . S
O122 C121 1.315 . S
O123 Cd113 2.240 . S
O123 C121 1.279 . S
O124 Cd114 2.297 . S
O124 C119 1.247 . S
O125 Cd114 2.439 . S
O125 C119 1.208 . S
O126 Cd127 2.223 . S
O126 C134 1.315 . S
Cd127 O126 2.223 . S
Cd127 O130 2.297 . S
Cd127 O131 2.439 . S
Cd127 O137 2.240 . S
Cd128 O129 2.240 . S
Cd128 O136 2.223 . S
Cd128 O138 2.297 . S
Cd128 O139 2.439 . S
O129 Cd128 2.240 . S
O129 C134 1.279 . S
O130 Cd127 2.297 . S
O130 C132 1.247 . S
O131 Cd127 2.439 . S
O131 C132 1.208 . S
C132 O130 1.247 . S
C132 O131 1.208 . S
C133 O138 1.247 . S
C133 O139 1.208 . S
C134 O126 1.315 . S
C134 O129 1.279 . S
C135 O136 1.315 . S
C135 O137 1.279 . S
O136 Cd128 2.223 . S
O136 C135 1.315 . S
O137 Cd127 2.240 . S
O137 C135 1.279 . S
O138 Cd128 2.297 . S
O138 C133 1.247 . S
O139 Cd128 2.439 . S
O139 C133 1.208 . S
O140 Cd141 2.223 . S
O140 C148 1.315 . S
Cd141 O140 2.223 . S
Cd141 O144 2.297 . S
Cd141 O145 2.439 . S
Cd141 O151 2.240 . S
Cd142 O143 2.240 . S
Cd142 O150 2.223 . S
Cd142 O152 2.297 . S
Cd142 O153 2.439 . S
O143 Cd142 2.240 . S
O143 C148 1.279 . S
O144 Cd141 2.297 . S
O144 C146 1.247 . S
O145 Cd141 2.439 . S
O145 C146 1.208 . S
C146 O144 1.247 . S
C146 O145 1.208 . S
C147 O152 1.247 . S
C147 O153 1.208 . S
C148 O140 1.315 . S
C148 O143 1.279 . S
C149 O150 1.315 . S
C149 O151 1.279 . S
O150 Cd142 2.223 . S
O150 C149 1.315 . S
O151 Cd141 2.240 . S
O151 C149 1.279 . S
O152 Cd142 2.297 . S
O152 C147 1.247 . S
O153 Cd142 2.439 . S
O153 C147 1.208 . S
O154 Cd155 2.223 . S
O154 C162 1.315 . S
Cd155 O154 2.223 . S
Cd155 O158 2.297 . S
Cd155 O159 2.439 . S
Cd155 O165 2.240 . S
Cd156 O157 2.240 . S
Cd156 O164 2.223 . S
Cd156 O166 2.297 . S
Cd156 O167 2.439 . S
O157 Cd156 2.240 . S
O157 C162 1.279 . S
O158 Cd155 2.297 . S
O158 C160 1.247 . S
O159 Cd155 2.439 . S
O159 C160 1.208 . S
C160 O158 1.247 . S
C160 O159 1.208 . S
C161 O166 1.247 . S
C161 O167 1.208 . S
C162 O154 1.315 . S
C162 O157 1.279 . S
C163 O164 1.315 . S
C163 O165 1.279 . S
O164 Cd156 2.223 . S
O164 C163 1.315 . S
O165 Cd155 2.240 . S
O165 C163 1.279 . S
O166 Cd156 2.297 . S
O166 C161 1.247 . S
O167 Cd156 2.439 . S
O167 C161 1.208 . S
O168 Cd169 2.223 . S
O168 C176 1.315 . S
Cd169 O168 2.223 . S
Cd169 O172 2.297 . S
Cd169 O173 2.439 . S
Cd169 O179 2.240 . S
Cd170 O171 2.240 . S
Cd170 O178 2.223 . S
Cd170 O180 2.297 . S
Cd170 O181 2.439 . S
O171 Cd170 2.240 . S
O171 C176 1.279 . S
O172 Cd169 2.297 . S
O172 C174 1.247 . S
O173 Cd169 2.439 . S
O173 C174 1.208 . S
C174 O172 1.247 . S
C174 O173 1.208 . S
C175 O180 1.247 . S
C175 O181 1.208 . S
C176 O168 1.315 . S
C176 O171 1.279 . S
C177 O178 1.315 . S
C177 O179 1.279 . S
O178 Cd170 2.223 . S
O178 C177 1.315 . S
O179 Cd169 2.240 . S
O179 C177 1.279 . S
O180 Cd170 2.297 . S
O180 C175 1.247 . S
O181 Cd170 2.439 . S
O181 C175 1.208 . S
O182 Cd183 2.223 . S
O182 C190 1.315 . S
Cd183 O182 2.223 . S
Cd183 O186 2.297 . S
Cd183 O187 2.439 . S
Cd183 O193 2.240 . S
Cd184 O185 2.240 . S
Cd184 O192 2.223 . S
Cd184 O194 2.297 . S
Cd184 O195 2.439 . S
O185 Cd184 2.240 . S
O185 C190 1.279 . S
O186 Cd183 2.297 . S
O186 C188 1.247 . S
O187 Cd183 2.439 . S
O187 C188 1.208 . S
C188 O186 1.247 . S
C188 O187 1.208 . S
C189 O194 1.247 . S
C189 O195 1.208 . S
C190 O182 1.315 . S
C190 O185 1.279 . S
C191 O192 1.315 . S
C191 O193 1.279 . S
O192 Cd184 2.223 . S
O192 C191 1.315 . S
O193 Cd183 2.240 . S
O193 C191 1.279 . S
O194 Cd184 2.297 . S
O194 C189 1.247 . S
O195 Cd184 2.439 . S
O195 C189 1.208 . S
O196 Cd197 2.223 . S
O196 C204 1.315 . S
Cd197 O196 2.223 . S
Cd197 O200 2.297 . S
Cd197 O201 2.439 . S
Cd197 O207 2.240 . S
Cd198 O199 2.240 . S
Cd198 O206 2.223 . S
Cd198 O208 2.297 . S
Cd198 O209 2.439 . S
O199 Cd198 2.240 . S
O199 C204 1.279 . S
O200 Cd197 2.297 . S
O200 C202 1.247 . S
O201 Cd197 2.439 . S
O201 C202 1.208 . S
C202 O200 1.247 . S
C202 O201 1.208 . S
C203 O208 1.247 . S
C203 O209 1.208 . S
C204 O196 1.315 . S
C204 O199 1.279 . S
C205 O206 1.315 . S
C205 O207 1.279 . S
O206 Cd198 2.223 . S
O206 C205 1.315 . S
O207 Cd197 2.240 . S
O207 C205 1.279 . S
O208 Cd198 2.297 . S
O208 C203 1.247 . S
O209 Cd198 2.439 . S
O209 C203 1.208 . S
O210 Cd211 2.223 . S
O210 C218 1.315 . S
Cd211 O210 2.223 . S
Cd211 O214 2.297 . S
Cd211 O215 2.439 . S
Cd211 O221 2.240 . S
Cd212 O213 2.240 . S
Cd212 O220 2.223 . S
Cd212 O222 2.297 . S
Cd212 O223 2.439 . S
O213 Cd212 2.240 . S
O213 C218 1.279 . S
O214 Cd211 2.297 . S
O214 C216 1.247 . S
O215 Cd211 2.439 . S
O215 C216 1.208 . S
C216 O214 1.247 . S
C216 O215 1.208 . S
C217 O222 1.247 . S
C217 O223 1.208 . S
C218 O210 1.315 . S
C218 O213 1.279 . S
C219 O220 1.315 . S
C219 O221 1.279 . S
O220 Cd212 2.223 . S
O220 C219 1.315 . S
O221 Cd211 2.240 . S
O221 C219 1.279 . S
O222 Cd212 2.297 . S
O222 C217 1.247 . S
O223 Cd212 2.439 . S
O223 C217 1.208 . S
O224 Cd225 2.223 . S
O224 C232 1.315 . S
Cd225 O224 2.223 . S
Cd225 O228 2.297 . S
Cd225 O229 2.439 . S
Cd225 O235 2.240 . S
Cd226 O227 2.240 . S
Cd226 O234 2.223 . S
Cd226 O236 2.297 . S
Cd226 O237 2.439 . S
O227 Cd226 2.240 . S
O227 C232 1.279 . S
O228 Cd225 2.297 . S
O228 C230 1.247 . S
O229 Cd225 2.439 . S
O229 C230 1.208 . S
C230 O228 1.247 . S
C230 O229 1.208 . S
C231 O236 1.247 . S
C231 O237 1.208 . S
C232 O224 1.315 . S
C232 O227 1.279 . S
C233 O234 1.315 . S
C233 O235 1.279 . S
O234 Cd226 2.223 . S
O234 C233 1.315 . S
O235 Cd225 2.240 . S
O235 C233 1.279 . S
O236 Cd226 2.297 . S
O236 C231 1.247 . S
O237 Cd226 2.439 . S
O237 C231 1.208 . S
O238 Cd239 2.223 . S
O238 C246 1.315 . S
Cd239 O238 2.223 . S
Cd239 O242 2.297 . S
Cd239 O243 2.439 . S
Cd239 O249 2.240 . S
Cd240 O241 2.240 . S
Cd240 O248 2.223 . S
Cd240 O250 2.297 . S
Cd240 O251 2.439 . S
O241 Cd240 2.240 . S
O241 C246 1.279 . S
O242 Cd239 2.297 . S
O242 C244 1.247 . S
O243 Cd239 2.439 . S
O243 C244 1.208 . S
C244 O242 1.247 . S
C244 O243 1.208 . S
C245 O250 1.247 . S
C245 O251 1.208 . S
C246 O238 1.315 . S
C246 O241 1.279 . S
C247 O248 1.315 . S
C247 O249 1.279 . S
O248 Cd240 2.223 . S
O248 C247 1.315 . S
O249 Cd239 2.240 . S
O249 C247 1.279 . S
O250 Cd240 2.297 . S
O250 C245 1.247 . S
O251 Cd240 2.439 . S
O251 C245 1.208 . S
O252 Cd253 2.223 . S
O252 C260 1.315 . S
Cd253 O252 2.223 . S
Cd253 O256 2.297 . S
Cd253 O257 2.439 . S
Cd253 O263 2.240 . S
Cd254 O255 2.240 . S
Cd254 O262 2.223 . S
Cd254 O264 2.297 . S
Cd254 O265 2.439 . S
O255 Cd254 2.240 . S
O255 C260 1.279 . S
O256 Cd253 2.297 . S
O256 C258 1.247 . S
O257 Cd253 2.439 . S
O257 C258 1.208 . S
C258 O256 1.247 . S
C258 O257 1.208 . S
C259 O264 1.247 . S
C259 O265 1.208 . S
C260 O252 1.315 . S
C260 O255 1.279 . S
C261 O262 1.315 . S
C261 O263 1.279 . S
O262 Cd254 2.223 . S
O262 C261 1.315 . S
O263 Cd253 2.240 . S
O263 C261 1.279 . S
O264 Cd254 2.297 . S
O264 C259 1.247 . S
O265 Cd254 2.439 . S
O265 C259 1.208 . S
O266 Cd267 2.223 . S
O266 C274 1.315 . S
Cd267 O266 2.223 . S
Cd267 O270 2.297 . S
Cd267 O271 2.439 . S
Cd267 O277 2.240 . S
Cd268 O269 2.240 . S
Cd268 O276 2.223 . S
Cd268 O278 2.297 . S
Cd268 O279 2.439 . S
O269 Cd268 2.240 . S
O269 C274 1.279 . S
O270 Cd267 2.297 . S
O270 C272 1.247 . S
O271 Cd267 2.439 . S
O271 C272 1.208 . S
C272 O270 1.247 . S
C272 O271 1.208 . S
C273 O278 1.247 . S
C273 O279 1.208 . S
C274 O266 1.315 . S
C274 O269 1.279 . S
C275 O276 1.315 . S
C275 O277 1.279 . S
O276 Cd268 2.223 . S
O276 C275 1.315 . S
O277 Cd267 2.240 . S
O277 C275 1.279 . S
O278 Cd268 2.297 . S
O278 C273 1.247 . S
O279 Cd268 2.439 . S
O279 C273 1.208 . S
O280 Cd281 2.223 . S
O280 C288 1.315 . S
Cd281 O280 2.223 . S
Cd281 O284 2.297 . S
Cd281 O285 2.439 . S
Cd281 O291 2.240 . S
Cd282 O283 2.240 . S
Cd282 O290 2.223 . S
Cd282 O292 2.297 . S
Cd282 O293 2.439 . S
O283 Cd282 2.240 . S
O283 C288 1.279 . S
O284 Cd281 2.297 . S
O284 C286 1.247 . S
O285 Cd281 2.439 . S
O285 C286 1.208 . S
C286 O284 1.247 . S
C286 O285 1.208 . S
C287 O292 1.247 . S
C287 O293 1.208 . S
C288 O280 1.315 . S
C288 O283 1.279 . S
C289 O290 1.315 . S
C289 O291 1.279 . S
O290 Cd282 2.223 . S
O290 C289 1.315 . S
O291 Cd281 2.240 . S
O291 C289 1.279 . S
O292 Cd282 2.297 . S
O292 C287 1.247 . S
O293 Cd282 2.439 . S
O293 C287 1.208 . S
O294 Cd295 2.223 . S
O294 C302 1.315 . S
Cd295 O294 2.223 . S
Cd295 O298 2.297 . S
Cd295 O299 2.439 . S
Cd295 O305 2.240 . S
Cd296 O297 2.240 . S
Cd296 O304 2.223 . S
Cd296 O306 2.297 . S
Cd296 O307 2.439 . S
O297 Cd296 2.240 . S
O297 C302 1.279 . S
O298 Cd295 2.297 . S
O298 C300 1.247 . S
O299 Cd295 2.439 . S
O299 C300 1.208 . S
C300 O298 1.247 . S
C300 O299 1.208 . S
C301 O306 1.247 . S
C301 O307 1.208 . S
C302 O294 1.315 . S
C302 O297 1.279 . S
C303 O304 1.315 . S
C303 O305 1.279 . S
O304 Cd296 2.223 . S
O304 C303 1.315 . S
O305 Cd295 2.240 . S
O305 C303 1.279 . S
O306 Cd296 2.297 . S
O306 C301 1.247 . S
O307 Cd296 2.439 . S
O307 C301 1.208 . S
O308 Cd309 2.223 . S
O308 C316 1.315 . S
Cd309 O308 2.223 . S
Cd309 O312 2.297 . S
Cd309 O313 2.439 . S
Cd309 O319 2.240 . S
Cd310 O311 2.240 . S
Cd310 O318 2.223 . S
Cd310 O320 2.297 . S
Cd310 O321 2.439 . S
O311 Cd310 2.240 . S
O311 C316 1.279 . S
O312 Cd309 2.297 . S
O312 C314 1.247 . S
O313 Cd309 2.439 . S
O313 C314 1.208 . S
C314 O312 1.247 . S
C314 O313 1.208 . S
C315 O320 1.247 . S
C315 O321 1.208 . S
C316 O308 1.315 . S
C316 O311 1.279 . S
C317 O318 1.315 . S
C317 O319 1.279 . S
O318 Cd310 2.223 . S
O318 C317 1.315 . S
O319 Cd309 2.240 . S
O319 C317 1.279 . S
O320 Cd310 2.297 . S
O320 C315 1.247 . S
O321 Cd310 2.439 . S
O321 C315 1.208 . S
O322 Cd323 2.223 . S
O322 C330 1.315 . S
Cd323 O322 2.223 . S
Cd323 O326 2.297 . S
Cd323 O327 2.439 . S
Cd323 O333 2.240 . S
Cd324 O325 2.240 . S
Cd324 O332 2.223 . S
Cd324 O334 2.297 . S
Cd324 O335 2.439 . S
O325 Cd324 2.240 . S
O325 C330 1.279 . S
O326 Cd323 2.297 . S
O326 C328 1.247 . S
O327 Cd323 2.439 . S
O327 C328 1.208 . S
C328 O326 1.247 . S
C328 O327 1.208 . S
C329 O334 1.247 . S
C329 O335 1.208 . S
C330 O322 1.315 . S
C330 O325 1.279 . S
C331 O332 1.315 . S
C331 O333 1.279 . S
O332 Cd324 2.223 . S
O332 C331 1.315 . S
O333 Cd323 2.240 . S
O333 C331 1.279 . S
O334 Cd324 2.297 . S
O334 C329 1.247 . S
O335 Cd324 2.439 . S
O335 C329 1.208 . S
O336 Cd337 2.223 . S
O336 C344 1.315 . S
Cd337 O336 2.223 . S
Cd337 O340 2.297 . S
Cd337 O341 2.439 . S
Cd337 O347 2.240 . S
Cd338 O339 2.240 . S
Cd338 O346 2.223 . S
Cd338 O348 2.297 . S
Cd338 O349 2.439 . S
O339 Cd338 2.240 . S
O339 C344 1.279 . S
O340 Cd337 2.297 . S
O340 C342 1.247 . S
O341 Cd337 2.439 . S
O341 C342 1.208 . S
C342 O340 1.247 . S
C342 O341 1.208 . S
C343 O348 1.247 . S
C343 O349 1.208 . S
C344 O336 1.315 . S
C344 O339 1.279 . S
C345 O346 1.315 . S
C345 O347 1.279 . S
O346 Cd338 2.223 . S
O346 C345 1.315 . S
O347 Cd337 2.240 . S
O347 C345 1.279 . S
O348 Cd338 2.297 . S
O348 C343 1.247 . S
O349 Cd338 2.439 . S
O349 C343 1.208 . S
O350 Cd351 2.223 . S
O350 C358 1.315 . S
Cd351 O350 2.223 . S
Cd351 O354 2.297 . S
Cd351 O355 2.439 . S
Cd351 O361 2.240 . S
Cd352 O353 2.240 . S
Cd352 O360 2.223 . S
Cd352 O362 2.297 . S
Cd352 O363 2.439 . S
O353 Cd352 2.240 . S
O353 C358 1.279 . S
O354 Cd351 2.297 . S
O354 C356 1.247 . S
O355 Cd351 2.439 . S
O355 C356 1.208 . S
C356 O354 1.247 . S
C356 O355 1.208 . S
C357 O362 1.247 . S
C357 O363 1.208 . S
C358 O350 1.315 . S
C358 O353 1.279 . S
C359 O360 1.315 . S
C359 O361 1.279 . S
O360 Cd352 2.223 . S
O360 C359 1.315 . S
O361 Cd351 2.240 . S
O361 C359 1.279 . S
O362 Cd352 2.297 . S
O362 C357 1.247 . S
O363 Cd352 2.439 . S
O363 C357 1.208 . S
O364 Cd365 2.223 . S
O364 C372 1.315 . S
Cd365 O364 2.223 . S
Cd365 O368 2.297 . S
Cd365 O369 2.439 . S
Cd365 O375 2.240 . S
Cd366 O367 2.240 . S
Cd366 O374 2.223 . S
Cd366 O376 2.297 . S
Cd366 O377 2.439 . S
O367 Cd366 2.240 . S
O367 C372 1.279 . S
O368 Cd365 2.297 . S
O368 C370 1.247 . S
O369 Cd365 2.439 . S
O369 C370 1.208 . S
C370 O368 1.247 . S
C370 O369 1.208 . S
C371 O376 1.247 . S
C371 O377 1.208 . S
C372 O364 1.315 . S
C372 O367 1.279 . S
C373 O374 1.315 . S
C373 O375 1.279 . S
O374 Cd366 2.223 . S
O374 C373 1.315 . S
O375 Cd365 2.240 . S
O375 C373 1.279 . S
O376 Cd366 2.297 . S
O376 C371 1.247 . S
O377 Cd366 2.439 . S
O377 C371 1.208 . S
O378 Cd379 2.223 . S
O378 C386 1.315 . S
Cd379 O378 2.223 . S
Cd379 O382 2.297 . S
Cd379 O383 2.439 . S
Cd379 O389 2.240 . S
Cd380 O381 2.240 . S
Cd380 O388 2.223 . S
Cd380 O390 2.297 . S
Cd380 O391 2.439 . S
O381 Cd380 2.240 . S
O381 C386 1.279 . S
O382 Cd379 2.297 . S
O382 C384 1.247 . S
O383 Cd379 2.439 . S
O383 C384 1.208 . S
C384 O382 1.247 . S
C384 O383 1.208 . S
C385 O390 1.247 . S
C385 O391 1.208 . S
C386 O378 1.315 . S
C386 O381 1.279 . S
C387 O388 1.315 . S
C387 O389 1.279 . S
O388 Cd380 2.223 . S
O388 C387 1.315 . S
O389 Cd379 2.240 . S
O389 C387 1.279 . S
O390 Cd380 2.297 . S
O390 C385 1.247 . S
O391 Cd380 2.439 . S
O391 C385 1.208 . S
O392 Cd393 2.223 . S
O392 C400 1.315 . S
Cd393 O392 2.223 . S
Cd393 O396 2.297 . S
Cd393 O397 2.439 . S
Cd393 O403 2.240 . S
Cd394 O395 2.240 . S
Cd394 O402 2.223 . S
Cd394 O404 2.297 . S
Cd394 O405 2.439 . S
O395 Cd394 2.240 . S
O395 C400 1.279 . S
O396 Cd393 2.297 . S
O396 C398 1.247 . S
O397 Cd393 2.439 . S
O397 C398 1.208 . S
C398 O396 1.247 . S
C398 O397 1.208 . S
C399 O404 1.247 . S
C399 O405 1.208 . S
C400 O392 1.315 . S
C400 O395 1.279 . S
C401 O402 1.315 . S
C401 O403 1.279 . S
O402 Cd394 2.223 . S
O402 C401 1.315 . S
O403 Cd393 2.240 . S
O403 C401 1.279 . S
O404 Cd394 2.297 . S
O404 C399 1.247 . S
O405 Cd394 2.439 . S
O405 C399 1.208 . S
O406 Cd407 2.223 . S
O406 C414 1.315 . S
Cd407 O406 2.223 . S
Cd407 O410 2.297 . S
Cd407 O411 2.439 . S
Cd407 O417 2.240 . S
Cd408 O409 2.240 . S
Cd408 O416 2.223 . S
Cd408 O418 2.297 . S
Cd408 O419 2.439 . S
O409 Cd408 2.240 . S
O409 C414 1.279 . S
O410 Cd407 2.297 . S
O410 C412 1.247 . S
O411 Cd407 2.439 . S
O411 C412 1.208 . S
C412 O410 1.247 . S
C412 O411 1.208 . S
C413 O418 1.247 . S
C413 O419 1.208 . S
C414 O406 1.315 . S
C414 O409 1.279 . S
C415 O416 1.315 . S
C415 O417 1.279 . S
O416 Cd408 2.223 . S
O416 C415 1.315 . S
O417 Cd407 2.240 . S
O417 C415 1.279 . S
O418 Cd408 2.297 . S
O418 C413 1.247 . S
O419 Cd408 2.439 . S
O419 C413 1.208 . S
O420 Cd421 2.223 . S
O420 C428 1.315 . S
Cd421 O420 2.223 . S
Cd421 O424 2.297 . S
Cd421 O425 2.439 . S
Cd421 O431 2.240 . S
Cd422 O423 2.240 . S
Cd422 O430 2.223 . S
Cd422 O432 2.297 . S
Cd422 O433 2.439 . S
O423 Cd422 2.240 . S
O423 C428 1.279 . S
O424 Cd421 2.297 . S
O424 C426 1.247 . S
O425 Cd421 2.439 . S
O425 C426 1.208 . S
C426 O424 1.247 . S
C426 O425 1.208 . S
C427 O432 1.247 . S
C427 O433 1.208 . S
C428 O420 1.315 . S
C428 O423 1.279 . S
C429 O430 1.315 . S
C429 O431 1.279 . S
O430 Cd422 2.223 . S
O430 C429 1.315 . S
O431 Cd421 2.240 . S
O431 C429 1.279 . S
O432 Cd422 2.297 . S
O432 C427 1.247 . S
O433 Cd422 2.439 . S
O433 C427 1.208 . S
O434 Cd435 2.223 . S
O434 C442 1.315 . S
Cd435 O434 2.223 . S
Cd435 O438 2.297 . S
Cd435 O439 2.439 . S
Cd435 O445 2.240 . S
Cd436 O437 2.240 . S
Cd436 O444 2.223 . S
Cd436 O446 2.297 . S
Cd436 O447 2.439 . S
O437 Cd436 2.240 . S
O437 C442 1.279 . S
O438 Cd435 2.297 . S
O438 C440 1.247 . S
O439 Cd435 2.439 . S
O439 C440 1.208 . S
C440 O438 1.247 . S
C440 O439 1.208 . S
C441 O446 1.247 . S
C441 O447 1.208 . S
C442 O434 1.315 . S
C442 O437 1.279 . S
C443 O444 1.315 . S
C443 O445 1.279 . S
O444 Cd436 2.223 . S
O444 C443 1.315 . S
O445 Cd435 2.240 . S
O445 C443 1.279 . S
O446 Cd436 2.297 . S
O446 C441 1.247 . S
O447 Cd436 2.439 . S
O447 C441 1.208 . S
H448 C460 0.930 . S
H449 C462 0.930 . S
H450 C463 0.930 . S
H451 C467 0.959 . S
H452 C467 0.959 . S
H453 C467 0.961 . S
H454 C468 0.960 . S
H455 C468 0.961 . S
H456 C468 0.959 . S
H457 C471 0.929 . S
H458 C472 0.931 . S
H459 C474 0.930 . S
C460 H448 0.930 . S
C460 C461 1.399 . S
C460 C465 1.399 . S
C461 C460 1.399 . S
C461 C462 1.376 1_565 S
C462 H449 0.930 . S
C462 C461 1.376 1_545 S
C462 C463 1.388 . S
C463 H450 0.930 . S
C463 C462 1.388 . S
C463 C464 1.390 . S
C464 C463 1.390 . S
C464 C465 1.394 1_545 S
C464 C470 1.465 . S
C465 C460 1.399 . S
C465 C464 1.394 1_565 S
C465 C466 1.516 . S
C466 C465 1.516 . S
C466 C467 1.502 . S
C466 C468 1.561 . S
C466 C469 1.526 . S
C467 H451 0.959 . S
C467 H452 0.959 . S
C467 H453 0.961 . S
C467 C466 1.502 . S
C468 H454 0.960 . S
C468 H455 0.961 . S
C468 H456 0.959 . S
C468 C466 1.561 . S
C469 C466 1.526 . S
C469 C470 1.396 1_565 S
C469 C474 1.390 . S
C470 C464 1.465 . S
C470 C469 1.396 1_545 S
C470 C471 1.399 . S
C471 H457 0.929 . S
C471 C470 1.399 . S
C471 C472 1.385 . S
C472 H458 0.931 . S
C472 C471 1.385 . S
C472 C473 1.389 . S
C473 C472 1.389 . S
C473 C474 1.387 1_545 S
C474 H459 0.930 . S
C474 C469 1.390 . S
C474 C473 1.387 1_565 S
H475 C487 0.930 . S
H476 C489 0.930 . S
H477 C490 0.930 . S
H478 C494 0.959 . S
H479 C494 0.959 . S
H480 C494 0.961 . S
H481 C495 0.960 . S
H482 C495 0.961 . S
H483 C495 0.959 . S
H484 C498 0.929 . S
H485 C499 0.931 . S
H486 C501 0.930 . S
C487 H475 0.930 . S
C487 C488 1.399 . S
C487 C492 1.399 . S
C488 C487 1.399 . S
C488 C489 1.376 . S
C489 H476 0.930 . S
C489 C488 1.376 . S
C489 C490 1.388 . S
C490 H477 0.930 . S
C490 C489 1.388 . S
C490 C491 1.390 . S
C491 C490 1.390 . S
C491 C492 1.394 . S
C491 C497 1.465 . S
C492 C487 1.399 . S
C492 C491 1.394 . S
C492 C493 1.516 . S
C493 C492 1.516 . S
C493 C494 1.502 . S
C493 C495 1.561 . S
C493 C496 1.526 . S
C494 H478 0.959 . S
C494 H479 0.959 . S
C494 H480 0.961 . S
C494 C493 1.502 . S
C495 H481 0.960 . S
C495 H482 0.961 . S
C495 H483 0.959 . S
C495 C493 1.561 . S
C496 C493 1.526 . S
C496 C497 1.396 . S
C496 C501 1.390 . S
C497 C491 1.465 . S
C497 C496 1.396 . S
C497 C498 1.399 . S
C498 H484 0.929 . S
C498 C497 1.399 . S
C498 C499 1.385 . S
C499 H485 0.931 . S
C499 C498 1.385 . S
C499 C500 1.389 . S
C500 C499 1.389 . S
C500 C501 1.387 . S
C501 H486 0.930 . S
C501 C496 1.390 . S
C501 C500 1.387 . S
H502 C514 0.930 . S
H503 C516 0.930 . S
H504 C517 0.930 . S
H505 C521 0.959 . S
H506 C521 0.959 . S
H507 C521 0.961 . S
H508 C522 0.960 . S
H509 C522 0.961 . S
H510 C522 0.959 . S
H511 C525 0.929 . S
H512 C526 0.931 . S
H513 C528 0.930 . S
C514 H502 0.930 . S
C514 C515 1.399 . S
C514 C519 1.399 . S
C515 C514 1.399 . S
C515 C516 1.376 1_545 S
C516 H503 0.930 . S
C516 C515 1.376 1_565 S
C516 C517 1.388 . S
C517 H504 0.930 . S
C517 C516 1.388 . S
C517 C518 1.390 . S
C518 C517 1.390 . S
C518 C519 1.394 1_565 S
C518 C524 1.465 . S
C519 C514 1.399 . S
C519 C518 1.394 1_545 S
C519 C520 1.516 . S
C520 C519 1.516 . S
C520 C521 1.502 . S
C520 C522 1.561 . S
C520 C523 1.526 . S
C521 H505 0.959 . S
C521 H506 0.959 . S
C521 H507 0.961 . S
C521 C520 1.502 . S
C522 H508 0.960 . S
C522 H509 0.961 . S
C522 H510 0.959 . S
C522 C520 1.561 . S
C523 C520 1.526 . S
C523 C524 1.396 1_545 S
C523 C528 1.390 . S
C524 C518 1.465 . S
C524 C523 1.396 1_565 S
C524 C525 1.399 . S
C525 H511 0.929 . S
C525 C524 1.399 . S
C525 C526 1.385 . S
C526 H512 0.931 . S
C526 C525 1.385 . S
C526 C527 1.389 . S
C527 C526 1.389 . S
C527 C528 1.387 1_565 S
C528 H513 0.930 . S
C528 C523 1.390 . S
C528 C527 1.387 1_545 S
H529 C541 0.930 . S
H530 C543 0.930 . S
H531 C544 0.930 . S
H532 C548 0.959 . S
H533 C548 0.959 . S
H534 C548 0.961 1_556 S
H535 C549 0.960 . S
H536 C549 0.961 1_554 S
H537 C549 0.959 . S
H538 C552 0.929 . S
H539 C553 0.931 . S
H540 C555 0.930 . S
C541 H529 0.930 . S
C541 C542 1.399 . S
C541 C546 1.399 . S
C542 C541 1.399 . S
C542 C543 1.376 . S
C543 H530 0.930 . S
C543 C542 1.376 . S
C543 C544 1.388 . S
C544 H531 0.930 . S
C544 C543 1.388 . S
C544 C545 1.390 . S
C545 C544 1.390 . S
C545 C546 1.394 . S
C545 C551 1.465 1_556 S
C546 C541 1.399 . S
C546 C545 1.394 . S
C546 C547 1.488 1_556 S
C547 C546 1.488 1_554 S
C547 C548 1.507 . S
C547 C549 1.559 1_554 S
C547 C550 1.553 . S
C548 H532 0.959 . S
C548 H533 0.959 . S
C548 H534 0.961 1_554 S
C548 C547 1.507 . S
C549 H535 0.960 . S
C549 H536 0.961 1_556 S
C549 H537 0.959 . S
C549 C547 1.559 1_556 S
C550 C547 1.553 . S
C550 C551 1.396 . S
C550 C555 1.390 . S
C551 C545 1.465 1_554 S
C551 C550 1.396 . S
C551 C552 1.399 . S
C552 H538 0.929 . S
C552 C551 1.399 . S
C552 C553 1.385 . S
C553 H539 0.931 . S
C553 C552 1.385 . S
C553 C554 1.389 . S
C554 C553 1.389 . S
C554 C555 1.387 . S
C555 H540 0.930 . S
C555 C550 1.390 . S
C555 C554 1.387 . S
H556 C568 0.930 . S
H557 C570 0.930 . S
H558 C571 0.930 . S
H559 C575 0.959 . S
H560 C575 0.959 . S
H561 C575 0.961 . S
H562 C576 0.960 . S
H563 C576 0.961 . S
H564 C576 0.959 . S
H565 C579 0.929 . S
H566 C580 0.931 . S
H567 C582 0.930 . S
C568 H556 0.930 . S
C568 C569 1.399 . S
C568 C573 1.399 . S
C569 C568 1.399 . S
C569 C570 1.376 1_565 S
C570 H557 0.930 . S
C570 C569 1.376 1_545 S
C570 C571 1.388 . S
C571 H558 0.930 . S
C571 C570 1.388 . S
C571 C572 1.390 . S
C572 C571 1.390 . S
C572 C573 1.394 1_545 S
C572 C578 1.465 . S
C573 C568 1.399 . S
C573 C572 1.394 1_565 S
C573 C574 1.516 . S
C574 C573 1.516 . S
C574 C575 1.502 . S
C574 C576 1.561 . S
C574 C577 1.526 . S
C575 H559 0.959 . S
C575 H560 0.959 . S
C575 H561 0.961 . S
C575 C574 1.502 . S
C576 H562 0.960 . S
C576 H563 0.961 . S
C576 H564 0.959 . S
C576 C574 1.561 . S
C577 C574 1.526 . S
C577 C578 1.396 1_565 S
C577 C582 1.390 . S
C578 C572 1.465 . S
C578 C577 1.396 1_545 S
C578 C579 1.399 . S
C579 H565 0.929 . S
C579 C578 1.399 . S
C579 C580 1.385 . S
C580 H566 0.931 . S
C580 C579 1.385 . S
C580 C581 1.389 . S
C581 C580 1.389 . S
C581 C582 1.387 1_545 S
C582 H567 0.930 . S
C582 C577 1.390 . S
C582 C581 1.387 1_565 S
H583 C595 0.930 . S
H584 C597 0.930 . S
H585 C598 0.930 . S
H586 C602 0.959 . S
H587 C602 0.959 . S
H588 C602 0.961 . S
H589 C603 0.960 . S
H590 C603 0.961 . S
H591 C603 0.959 . S
H592 C606 0.929 . S
H593 C607 0.931 . S
H594 C609 0.930 . S
C595 H583 0.930 . S
C595 C596 1.399 . S
C595 C600 1.399 . S
C596 C595 1.399 . S
C596 C597 1.376 . S
C597 H584 0.930 . S
C597 C596 1.376 . S
C597 C598 1.388 . S
C598 H585 0.930 . S
C598 C597 1.388 . S
C598 C599 1.390 . S
C599 C598 1.390 . S
C599 C600 1.394 . S
C599 C605 1.465 . S
C600 C595 1.399 . S
C600 C599 1.394 . S
C600 C601 1.516 . S
C601 C600 1.516 . S
C601 C602 1.502 . S
C601 C603 1.561 . S
C601 C604 1.526 . S
C602 H586 0.959 . S
C602 H587 0.959 . S
C602 H588 0.961 . S
C602 C601 1.502 . S
C603 H589 0.960 . S
C603 H590 0.961 . S
C603 H591 0.959 . S
C603 C601 1.561 . S
C604 C601 1.526 . S
C604 C605 1.396 . S
C604 C609 1.390 . S
C605 C599 1.465 . S
C605 C604 1.396 . S
C605 C606 1.399 . S
C606 H592 0.929 . S
C606 C605 1.399 . S
C606 C607 1.385 . S
C607 H593 0.931 . S
C607 C606 1.385 . S
C607 C608 1.389 . S
C608 C607 1.389 . S
C608 C609 1.387 . S
C609 H594 0.930 . S
C609 C604 1.390 . S
C609 C608 1.387 . S
H610 C622 0.930 . S
H611 C624 0.930 . S
H612 C625 0.930 . S
H613 C629 0.959 . S
H614 C629 0.959 . S
H615 C629 0.961 . S
H616 C630 0.960 . S
H617 C630 0.961 . S
H618 C630 0.959 . S
H619 C633 0.929 . S
H620 C634 0.931 . S
H621 C636 0.930 . S
C622 H610 0.930 . S
C622 C623 1.399 1_565 S
C622 C627 1.399 . S
C623 C622 1.399 1_545 S
C623 C624 1.376 . S
C624 H611 0.930 . S
C624 C623 1.376 . S
C624 C625 1.388 . S
C625 H612 0.930 . S
C625 C624 1.388 . S
C625 C626 1.390 . S
C626 C625 1.390 . S
C626 C627 1.394 1_545 S
C626 C632 1.465 . S
C627 C622 1.399 . S
C627 C626 1.394 1_565 S
C627 C628 1.516 . S
C628 C627 1.516 . S
C628 C629 1.502 . S
C628 C630 1.561 . S
C628 C631 1.526 . S
C629 H613 0.959 . S
C629 H614 0.959 . S
C629 H615 0.961 . S
C629 C628 1.502 . S
C630 H616 0.960 . S
C630 H617 0.961 . S
C630 H618 0.959 . S
C630 C628 1.561 . S
C631 C628 1.526 . S
C631 C632 1.396 1_565 S
C631 C636 1.390 . S
C632 C626 1.465 . S
C632 C631 1.396 1_545 S
C632 C633 1.399 . S
C633 H619 0.929 . S
C633 C632 1.399 . S
C633 C634 1.385 . S
C634 H620 0.931 . S
C634 C633 1.385 . S
C634 C635 1.389 1_545 S
C635 C634 1.389 1_565 S
C635 C636 1.387 . S
C636 H621 0.930 . S
C636 C631 1.390 . S
C636 C635 1.387 . S
H637 C649 0.930 . S
H638 C651 0.930 . S
H639 C652 0.930 . S
H640 C656 0.959 . S
H641 C656 0.959 . S
H642 C656 0.961 1_556 S
H643 C657 0.960 . S
H644 C657 0.961 1_554 S
H645 C657 0.959 . S
H646 C660 0.929 . S
H647 C661 0.931 . S
H648 C663 0.930 . S
C649 H637 0.930 . S
C649 C650 1.399 . S
C649 C654 1.399 . S
C650 C649 1.399 . S
C650 C651 1.376 . S
C651 H638 0.930 . S
C651 C650 1.376 . S
C651 C652 1.388 . S
C652 H639 0.930 . S
C652 C651 1.388 . S
C652 C653 1.390 . S
C653 C652 1.390 . S
C653 C654 1.394 . S
C653 C659 1.465 1_556 S
C654 C649 1.399 . S
C654 C653 1.394 . S
C654 C655 1.495 1_556 S
C655 C654 1.495 1_554 S
C655 C656 1.505 . S
C655 C657 1.559 1_554 S
C655 C658 1.546 . S
C656 H640 0.959 . S
C656 H641 0.959 . S
C656 H642 0.961 1_554 S
C656 C655 1.505 . S
C657 H643 0.960 . S
C657 H644 0.961 1_556 S
C657 H645 0.959 . S
C657 C655 1.559 1_556 S
C658 C655 1.546 . S
C658 C659 1.396 . S
C658 C663 1.390 . S
C659 C653 1.465 1_554 S
C659 C658 1.396 . S
C659 C660 1.399 . S
C660 H646 0.929 . S
C660 C659 1.399 . S
C660 C661 1.385 . S
C661 H647 0.931 . S
C661 C660 1.385 . S
C661 C662 1.389 . S
C662 C661 1.389 . S
C662 C663 1.387 . S
C663 H648 0.930 . S
C663 C658 1.390 . S
C663 C662 1.387 . S
H664 C676 0.930 . S
H665 C678 0.930 . S
H666 C679 0.930 . S
H667 C683 0.959 . S
H668 C683 0.959 . S
H669 C683 0.961 . S
H670 C684 0.960 . S
H671 C684 0.961 . S
H672 C684 0.959 . S
H673 C687 0.929 . S
H674 C688 0.931 . S
H675 C690 0.930 . S
C676 H664 0.930 . S
C676 C677 1.399 . S
C676 C681 1.399 . S
C677 C676 1.399 . S
C677 C678 1.376 . S
C678 H665 0.930 . S
C678 C677 1.376 . S
C678 C679 1.388 . S
C679 H666 0.930 . S
C679 C678 1.388 . S
C679 C680 1.390 . S
C680 C679 1.390 . S
C680 C681 1.394 . S
C680 C686 1.465 . S
C681 C676 1.399 . S
C681 C680 1.394 . S
C681 C682 1.516 . S
C682 C681 1.516 . S
C682 C683 1.502 . S
C682 C684 1.561 . S
C682 C685 1.526 . S
C683 H667 0.959 . S
C683 H668 0.959 . S
C683 H669 0.961 . S
C683 C682 1.502 . S
C684 H670 0.960 . S
C684 H671 0.961 . S
C684 H672 0.959 . S
C684 C682 1.561 . S
C685 C682 1.526 . S
C685 C686 1.396 . S
C685 C690 1.390 . S
C686 C680 1.465 . S
C686 C685 1.396 . S
C686 C687 1.399 . S
C687 H673 0.929 . S
C687 C686 1.399 . S
C687 C688 1.385 . S
C688 H674 0.931 . S
C688 C687 1.385 . S
C688 C689 1.389 . S
C689 C688 1.389 . S
C689 C690 1.387 . S
C690 H675 0.930 . S
C690 C685 1.390 . S
C690 C689 1.387 . S
H691 C703 0.930 . S
H692 C705 0.930 . S
H693 C706 0.930 . S
H694 C710 0.959 . S
H695 C710 0.959 . S
H696 C710 0.961 1_554 S
H697 C711 0.924 1_554 S
H698 C711 0.998 . S
H699 C711 0.958 . S
H700 C714 0.929 . S
H701 C715 0.931 . S
H702 C717 0.930 . S
C703 H691 0.930 . S
C703 C704 1.399 . S
C703 C708 1.399 . S
C704 C703 1.399 . S
C704 C705 1.376 . S
C705 H692 0.930 . S
C705 C704 1.376 . S
C705 C706 1.388 . S
C706 H693 0.930 . S
C706 C705 1.388 . S
C706 C707 1.390 . S
C707 C706 1.390 . S
C707 C708 1.394 . S
C707 C713 1.465 1_554 S
C708 C703 1.399 . S
C708 C707 1.394 . S
C708 C709 1.516 1_554 S
C709 C708 1.516 1_556 S
C709 C710 1.502 . S
C709 C711 1.564 . S
C709 C712 1.526 . S
C710 H694 0.959 . S
C710 H695 0.959 . S
C710 H696 0.961 1_556 S
C710 C709 1.502 . S
C711 H697 0.924 1_556 S
C711 H698 0.998 . S
C711 H699 0.958 . S
C711 C709 1.564 . S
C712 C709 1.526 . S
C712 C713 1.396 . S
C712 C717 1.390 . S
C713 C707 1.465 1_556 S
C713 C712 1.396 . S
C713 C714 1.399 . S
C714 H700 0.929 . S
C714 C713 1.399 . S
C714 C715 1.385 . S
C715 H701 0.931 . S
C715 C714 1.385 . S
C715 C716 1.389 . S
C716 C715 1.389 . S
C716 C717 1.387 . S
C717 H702 0.930 . S
C717 C712 1.390 . S
C717 C716 1.387 . S
H718 C730 0.930 . S
H719 C732 0.930 . S
H720 C733 0.930 . S
H721 C737 0.959 . S
H722 C737 0.959 . S
H723 C737 0.961 . S
H724 C738 0.960 . S
H725 C738 0.961 . S
H726 C738 0.959 . S
H727 C741 0.929 . S
H728 C742 0.931 . S
H729 C744 0.930 . S
C730 H718 0.930 . S
C730 C731 1.399 . S
C730 C735 1.399 . S
C731 C730 1.399 . S
C731 C732 1.376 . S
C732 H719 0.930 . S
C732 C731 1.376 . S
C732 C733 1.388 . S
C733 H720 0.930 . S
C733 C732 1.388 . S
C733 C734 1.390 . S
C734 C733 1.390 . S
C734 C735 1.394 . S
C734 C740 1.465 . S
C735 C730 1.399 . S
C735 C734 1.394 . S
C735 C736 1.516 . S
C736 C735 1.516 . S
C736 C737 1.502 . S
C736 C738 1.561 . S
C736 C739 1.526 . S
C737 H721 0.959 . S
C737 H722 0.959 . S
C737 H723 0.961 . S
C737 C736 1.502 . S
C738 H724 0.960 . S
C738 H725 0.961 . S
C738 H726 0.959 . S
C738 C736 1.561 . S
C739 C736 1.526 . S
C739 C740 1.396 . S
C739 C744 1.390 . S
C740 C734 1.465 . S
C740 C739 1.396 . S
C740 C741 1.399 . S
C741 H727 0.929 . S
C741 C740 1.399 . S
C741 C742 1.385 . S
C742 H728 0.931 . S
C742 C741 1.385 . S
C742 C743 1.389 . S
C743 C742 1.389 . S
C743 C744 1.387 . S
C744 H729 0.930 . S
C744 C739 1.390 . S
C744 C743 1.387 . S
H745 C757 0.930 . S
H746 C759 0.930 . S
H747 C760 0.930 . S
H748 C764 0.959 . S
H749 C764 0.959 . S
H750 C764 0.961 . S
H751 C765 0.960 . S
H752 C765 0.961 . S
H753 C765 0.959 . S
H754 C768 0.929 . S
H755 C769 0.931 . S
H756 C771 0.930 . S
C757 H745 0.930 . S
C757 C758 1.399 . S
C757 C762 1.399 . S
C758 C757 1.399 . S
C758 C759 1.376 . S
C759 H746 0.930 . S
C759 C758 1.376 . S
C759 C760 1.388 . S
C760 H747 0.930 . S
C760 C759 1.388 . S
C760 C761 1.390 . S
C761 C760 1.390 . S
C761 C762 1.394 . S
C761 C767 1.465 . S
C762 C757 1.399 . S
C762 C761 1.394 . S
C762 C763 1.516 . S
C763 C762 1.516 . S
C763 C764 1.502 . S
C763 C765 1.561 . S
C763 C766 1.526 . S
C764 H748 0.959 . S
C764 H749 0.959 . S
C764 H750 0.961 . S
C764 C763 1.502 . S
C765 H751 0.960 . S
C765 H752 0.961 . S
C765 H753 0.959 . S
C765 C763 1.561 . S
C766 C763 1.526 . S
C766 C767 1.396 . S
C766 C771 1.390 . S
C767 C761 1.465 . S
C767 C766 1.396 . S
C767 C768 1.399 . S
C768 H754 0.929 . S
C768 C767 1.399 . S
C768 C769 1.385 . S
C769 H755 0.931 . S
C769 C768 1.385 . S
C769 C770 1.389 . S
C770 C769 1.389 . S
C770 C771 1.387 . S
C771 H756 0.930 . S
C771 C766 1.390 . S
C771 C770 1.387 . S
H772 C784 0.930 . S
H773 C786 0.930 . S
H774 C787 0.930 . S
H775 C791 0.959 . S
H776 C791 0.959 . S
H777 C791 0.961 . S
H778 C792 0.960 . S
H779 C792 0.961 . S
H780 C792 0.959 . S
H781 C795 0.929 . S
H782 C796 0.931 . S
H783 C798 0.930 . S
C784 H772 0.930 . S
C784 C785 1.399 . S
C784 C789 1.399 . S
C785 C784 1.399 . S
C785 C786 1.376 . S
C786 H773 0.930 . S
C786 C785 1.376 . S
C786 C787 1.388 . S
C787 H774 0.930 . S
C787 C786 1.388 . S
C787 C788 1.390 . S
C788 C787 1.390 . S
C788 C789 1.394 . S
C788 C794 1.465 . S
C789 C784 1.399 . S
C789 C788 1.394 . S
C789 C790 1.516 . S
C790 C789 1.516 . S
C790 C791 1.502 . S
C790 C792 1.561 . S
C790 C793 1.526 . S
C791 H775 0.959 . S
C791 H776 0.959 . S
C791 H777 0.961 . S
C791 C790 1.502 . S
C792 H778 0.960 . S
C792 H779 0.961 . S
C792 H780 0.959 . S
C792 C790 1.561 . S
C793 C790 1.526 . S
C793 C794 1.396 . S
C793 C798 1.390 . S
C794 C788 1.465 . S
C794 C793 1.396 . S
C794 C795 1.399 . S
C795 H781 0.929 . S
C795 C794 1.399 . S
C795 C796 1.385 . S
C796 H782 0.931 . S
C796 C795 1.385 . S
C796 C797 1.389 . S
C797 C796 1.389 . S
C797 C798 1.387 . S
C798 H783 0.930 . S
C798 C793 1.390 . S
C798 C797 1.387 . S
H799 C811 0.930 . S
H800 C813 0.930 . S
H801 C814 0.930 . S
H802 C818 0.959 . S
H803 C818 0.959 . S
H804 C818 0.961 1_554 S
H805 C819 1.013 . S
H806 C819 0.912 1_556 S
H807 C819 0.963 . S
H808 C822 0.929 . S
H809 C823 0.931 . S
H810 C825 0.930 . S
C811 H799 0.930 . S
C811 C812 1.399 . S
C811 C816 1.399 . S
C812 C811 1.399 . S
C812 C813 1.376 . S
C813 H800 0.930 . S
C813 C812 1.376 . S
C813 C814 1.388 . S
C814 H801 0.930 . S
C814 C813 1.388 . S
C814 C815 1.390 . S
C815 C814 1.390 . S
C815 C816 1.394 . S
C815 C821 1.465 1_554 S
C816 C811 1.399 . S
C816 C815 1.394 . S
C816 C817 1.480 1_554 S
C817 C816 1.480 1_556 S
C817 C818 1.508 . S
C817 C819 1.556 1_556 S
C817 C820 1.560 . S
C818 H802 0.959 . S
C818 H803 0.959 . S
C818 H804 0.961 1_556 S
C818 C817 1.508 . S
C819 H805 1.013 . S
C819 H806 0.912 1_554 S
C819 H807 0.963 . S
C819 C817 1.556 1_554 S
C820 C817 1.560 . S
C820 C821 1.396 . S
C820 C825 1.390 . S
C821 C815 1.465 1_556 S
C821 C820 1.396 . S
C821 C822 1.399 . S
C822 H808 0.929 . S
C822 C821 1.399 . S
C822 C823 1.385 . S
C823 H809 0.931 . S
C823 C822 1.385 . S
C823 C824 1.389 . S
C824 C823 1.389 . S
C824 C825 1.387 . S
C825 H810 0.930 . S
C825 C820 1.390 . S
C825 C824 1.387 . S
H826 C838 0.930 . S
H827 C840 0.930 . S
H828 C841 0.930 . S
H829 C845 0.959 . S
H830 C845 0.959 . S
H831 C845 0.961 . S
H832 C846 0.960 . S
H833 C846 0.961 . S
H834 C846 0.959 . S
H835 C849 0.929 . S
H836 C850 0.931 . S
H837 C852 0.930 . S
C838 H826 0.930 . S
C838 C839 1.399 . S
C838 C843 1.399 . S
C839 C838 1.399 . S
C839 C840 1.376 . S
C840 H827 0.930 . S
C840 C839 1.376 . S
C840 C841 1.388 . S
C841 H828 0.930 . S
C841 C840 1.388 . S
C841 C842 1.390 . S
C842 C841 1.390 . S
C842 C843 1.394 . S
C842 C848 1.465 . S
C843 C838 1.399 . S
C843 C842 1.394 . S
C843 C844 1.516 . S
C844 C843 1.516 . S
C844 C845 1.502 . S
C844 C846 1.561 . S
C844 C847 1.526 . S
C845 H829 0.959 . S
C845 H830 0.959 . S
C845 H831 0.961 . S
C845 C844 1.502 . S
C846 H832 0.960 . S
C846 H833 0.961 . S
C846 H834 0.959 . S
C846 C844 1.561 . S
C847 C844 1.526 . S
C847 C848 1.396 . S
C847 C852 1.390 . S
C848 C842 1.465 . S
C848 C847 1.396 . S
C848 C849 1.399 . S
C849 H835 0.929 . S
C849 C848 1.399 . S
C849 C850 1.385 . S
C850 H836 0.931 . S
C850 C849 1.385 . S
C850 C851 1.389 . S
C851 C850 1.389 . S
C851 C852 1.387 . S
C852 H837 0.930 . S
C852 C847 1.390 . S
C852 C851 1.387 . S
H853 C865 0.930 . S
H854 C867 0.930 . S
H855 C868 0.930 . S
H856 C872 0.959 . S
H857 C872 0.959 . S
H858 C872 0.961 . S
H859 C873 0.960 . S
H860 C873 0.961 . S
H861 C873 0.959 . S
H862 C876 0.929 . S
H863 C877 0.931 . S
H864 C879 0.930 . S
C865 H853 0.930 . S
C865 C866 1.399 . S
C865 C870 1.399 . S
C866 C865 1.399 . S
C866 C867 1.376 . S
C867 H854 0.930 . S
C867 C866 1.376 . S
C867 C868 1.388 . S
C868 H855 0.930 . S
C868 C867 1.388 . S
C868 C869 1.390 . S
C869 C868 1.390 . S
C869 C870 1.394 . S
C869 C875 1.465 . S
C870 C865 1.399 . S
C870 C869 1.394 . S
C870 C871 1.516 . S
C871 C870 1.516 . S
C871 C872 1.502 . S
C871 C873 1.561 . S
C871 C874 1.526 . S
C872 H856 0.959 . S
C872 H857 0.959 . S
C872 H858 0.961 . S
C872 C871 1.502 . S
C873 H859 0.960 . S
C873 H860 0.961 . S
C873 H861 0.959 . S
C873 C871 1.561 . S
C874 C871 1.526 . S
C874 C875 1.396 . S
C874 C879 1.390 . S
C875 C869 1.465 . S
C875 C874 1.396 . S
C875 C876 1.399 . S
C876 H862 0.929 . S
C876 C875 1.399 . S
C876 C877 1.385 . S
C877 H863 0.931 . S
C877 C876 1.385 . S
C877 C878 1.389 . S
C878 C877 1.389 . S
C878 C879 1.387 . S
C879 H864 0.930 . S
C879 C874 1.390 . S
C879 C878 1.387 . S
H880 C892 0.930 . S
H881 C894 0.930 . S
H882 C895 0.930 . S
H883 C899 0.959 . S
H884 C899 0.959 . S
H885 C899 0.961 . S
H886 C900 0.960 . S
H887 C900 0.961 . S
H888 C900 0.959 . S
H889 C903 0.929 . S
H890 C904 0.931 . S
H891 C906 0.930 . S
C892 H880 0.930 . S
C892 C893 1.399 . S
C892 C897 1.399 . S
C893 C892 1.399 . S
C893 C894 1.376 . S
C894 H881 0.930 . S
C894 C893 1.376 . S
C894 C895 1.388 . S
C895 H882 0.930 . S
C895 C894 1.388 . S
C895 C896 1.390 . S
C896 C895 1.390 . S
C896 C897 1.394 . S
C896 C902 1.465 . S
C897 C892 1.399 . S
C897 C896 1.394 . S
C897 C898 1.516 . S
C898 C897 1.516 . S
C898 C899 1.502 . S
C898 C900 1.561 . S
C898 C901 1.526 . S
C899 H883 0.959 . S
C899 H884 0.959 . S
C899 H885 0.961 . S
C899 C898 1.502 . S
C900 H886 0.960 . S
C900 H887 0.961 . S
C900 H888 0.959 . S
C900 C898 1.561 . S
C901 C898 1.526 . S
C901 C902 1.396 . S
C901 C906 1.390 . S
C902 C896 1.465 . S
C902 C901 1.396 . S
C902 C903 1.399 . S
C903 H889 0.929 . S
C903 C902 1.399 . S
C903 C904 1.385 . S
C904 H890 0.931 . S
C904 C903 1.385 . S
C904 C905 1.389 . S
C905 C904 1.389 . S
C905 C906 1.387 . S
C906 H891 0.930 . S
C906 C901 1.390 . S
C906 C905 1.387 . S
H907 C919 0.930 . S
H908 C921 0.930 . S
H909 C922 0.930 . S
H910 C926 0.959 . S
H911 C926 0.959 . S
H912 C926 0.961 . S
H913 C927 0.960 . S
H914 C927 0.961 . S
H915 C927 0.959 . S
H916 C930 0.929 . S
H917 C931 0.931 1_565 S
H918 C933 0.930 . S
C919 H907 0.930 . S
C919 C920 1.399 . S
C919 C924 1.399 . S
C920 C919 1.399 . S
C920 C921 1.376 . S
C921 H908 0.930 . S
C921 C920 1.376 . S
C921 C922 1.388 . S
C922 H909 0.930 . S
C922 C921 1.388 . S
C922 C923 1.390 . S
C923 C922 1.390 . S
C923 C924 1.394 . S
C923 C929 1.465 . S
C924 C919 1.399 . S
C924 C923 1.394 . S
C924 C925 1.516 . S
C925 C924 1.516 . S
C925 C926 1.502 . S
C925 C927 1.561 . S
C925 C928 1.526 . S
C926 H910 0.959 . S
C926 H911 0.959 . S
C926 H912 0.961 . S
C926 C925 1.502 . S
C927 H913 0.960 . S
C927 H914 0.961 . S
C927 H915 0.959 . S
C927 C925 1.561 . S
C928 C925 1.526 . S
C928 C929 1.396 . S
C928 C933 1.390 . S
C929 C923 1.465 . S
C929 C928 1.396 . S
C929 C930 1.399 . S
C930 H916 0.929 . S
C930 C929 1.399 . S
C930 C931 1.385 . S
C931 H917 0.931 1_545 S
C931 C930 1.385 . S
C931 C932 1.389 . S
C932 C931 1.389 . S
C932 C933 1.387 . S
C933 H918 0.930 . S
C933 C928 1.390 . S
C933 C932 1.387 . S
H934 C946 0.930 . S
H935 C948 0.930 . S
H936 C949 0.930 . S
H937 C953 0.959 . S
H938 C953 0.959 . S
H939 C953 0.961 . S
H940 C954 0.960 . S
H941 C954 0.961 . S
H942 C954 0.959 . S
H943 C957 0.929 . S
H944 C958 0.931 . S
H945 C960 0.930 . S
C946 H934 0.930 . S
C946 C947 1.399 . S
C946 C951 1.399 . S
C947 C946 1.399 . S
C947 C948 1.376 1_545 S
C948 H935 0.930 . S
C948 C947 1.376 1_565 S
C948 C949 1.388 1_565 S
C949 H936 0.930 . S
C949 C948 1.388 1_545 S
C949 C950 1.390 . S
C950 C949 1.390 . S
C950 C951 1.394 . S
C950 C956 1.465 . S
C951 C946 1.399 . S
C951 C950 1.394 . S
C951 C952 1.516 . S
C952 C951 1.516 . S
C952 C953 1.502 . S
C952 C954 1.561 . S
C952 C955 1.526 . S
C953 H937 0.959 . S
C953 H938 0.959 . S
C953 H939 0.961 . S
C953 C952 1.502 . S
C954 H940 0.960 . S
C954 H941 0.961 . S
C954 H942 0.959 . S
C954 C952 1.561 . S
C955 C952 1.526 . S
C955 C956 1.396 . S
C955 C960 1.390 . S
C956 C950 1.465 . S
C956 C955 1.396 . S
C956 C957 1.399 . S
C957 H943 0.929 . S
C957 C956 1.399 . S
C957 C958 1.385 . S
C958 H944 0.931 . S
C958 C957 1.385 . S
C958 C959 1.389 . S
C959 C958 1.389 . S
C959 C960 1.387 . S
C960 H945 0.930 . S
C960 C955 1.390 . S
C960 C959 1.387 . S
H961 C973 0.930 . S
H962 C975 0.930 . S
H963 C976 0.930 . S
H964 C980 0.959 . S
H965 C980 0.959 . S
H966 C980 0.961 . S
H967 C981 0.960 . S
H968 C981 0.961 . S
H969 C981 0.959 . S
H970 C984 0.929 . S
H971 C985 0.931 . S
H972 C987 0.930 . S
C973 H961 0.930 . S
C973 C974 1.399 . S
C973 C978 1.399 . S
C974 C973 1.399 . S
C974 C975 1.376 . S
C975 H962 0.930 . S
C975 C974 1.376 . S
C975 C976 1.388 . S
C976 H963 0.930 . S
C976 C975 1.388 . S
C976 C977 1.390 . S
C977 C976 1.390 . S
C977 C978 1.394 . S
C977 C983 1.465 . S
C978 C973 1.399 . S
C978 C977 1.394 . S
C978 C979 1.516 . S
C979 C978 1.516 . S
C979 C980 1.502 . S
C979 C981 1.561 . S
C979 C982 1.526 . S
C980 H964 0.959 . S
C980 H965 0.959 . S
C980 H966 0.961 . S
C980 C979 1.502 . S
C981 H967 0.960 . S
C981 H968 0.961 . S
C981 H969 0.959 . S
C981 C979 1.561 . S
C982 C979 1.526 . S
C982 C983 1.396 . S
C982 C987 1.390 . S
C983 C977 1.465 . S
C983 C982 1.396 . S
C983 C984 1.399 . S
C984 H970 0.929 . S
C984 C983 1.399 . S
C984 C985 1.385 . S
C985 H971 0.931 . S
C985 C984 1.385 . S
C985 C986 1.389 . S
C986 C985 1.389 . S
C986 C987 1.387 . S
C987 H972 0.930 . S
C987 C982 1.390 . S
C987 C986 1.387 . S
H988 C1000 0.930 . S
H989 C1002 0.930 . S
H990 C1003 0.930 . S
H991 C1007 0.959 . S
H992 C1007 0.959 . S
H993 C1007 0.961 . S
H994 C1008 0.960 . S
H995 C1008 0.961 . S
H996 C1008 0.959 . S
H997 C1011 0.929 . S
H998 C1012 0.931 . S
H999 C1014 0.930 . S
C1000 H988 0.930 . S
C1000 C1001 1.399 . S
C1000 C1005 1.399 . S
C1001 C1000 1.399 . S
C1001 C1002 1.376 . S
C1002 H989 0.930 . S
C1002 C1001 1.376 . S
C1002 C1003 1.388 . S
C1003 H990 0.930 . S
C1003 C1002 1.388 . S
C1003 C1004 1.390 . S
C1004 C1003 1.390 . S
C1004 C1005 1.394 . S
C1004 C1010 1.465 . S
C1005 C1000 1.399 . S
C1005 C1004 1.394 . S
C1005 C1006 1.516 . S
C1006 C1005 1.516 . S
C1006 C1007 1.502 . S
C1006 C1008 1.561 . S
C1006 C1009 1.526 . S
C1007 H991 0.959 . S
C1007 H992 0.959 . S
C1007 H993 0.961 . S
C1007 C1006 1.502 . S
C1008 H994 0.960 . S
C1008 H995 0.961 . S
C1008 H996 0.959 . S
C1008 C1006 1.561 . S
C1009 C1006 1.526 . S
C1009 C1010 1.396 . S
C1009 C1014 1.390 . S
C1010 C1004 1.465 . S
C1010 C1009 1.396 . S
C1010 C1011 1.399 . S
C1011 H997 0.929 . S
C1011 C1010 1.399 . S
C1011 C1012 1.385 . S
C1012 H998 0.931 . S
C1012 C1011 1.385 . S
C1012 C1013 1.389 . S
C1013 C1012 1.389 . S
C1013 C1014 1.387 . S
C1014 H999 0.930 . S
C1014 C1009 1.390 . S
C1014 C1013 1.387 . S
H1015 C1027 0.930 . S
H1016 C1029 0.930 . S
H1017 C1030 0.930 . S
H1018 C1034 0.959 . S
H1019 C1034 0.959 . S
H1020 C1034 0.961 . S
H1021 C1035 0.960 . S
H1022 C1035 0.961 . S
H1023 C1035 0.959 . S
H1024 C1038 0.929 . S
H1025 C1039 0.931 . S
H1026 C1041 0.930 . S
C1027 H1015 0.930 . S
C1027 C1028 1.399 . S
C1027 C1032 1.399 . S
C1028 C1027 1.399 . S
C1028 C1029 1.376 . S
C1029 H1016 0.930 . S
C1029 C1028 1.376 . S
C1029 C1030 1.388 . S
C1030 H1017 0.930 . S
C1030 C1029 1.388 . S
C1030 C1031 1.390 . S
C1031 C1030 1.390 . S
C1031 C1032 1.394 . S
C1031 C1037 1.465 . S
C1032 C1027 1.399 . S
C1032 C1031 1.394 . S
C1032 C1033 1.516 . S
C1033 C1032 1.516 . S
C1033 C1034 1.502 . S
C1033 C1035 1.561 . S
C1033 C1036 1.526 . S
C1034 H1018 0.959 . S
C1034 H1019 0.959 . S
C1034 H1020 0.961 . S
C1034 C1033 1.502 . S
C1035 H1021 0.960 . S
C1035 H1022 0.961 . S
C1035 H1023 0.959 . S
C1035 C1033 1.561 . S
C1036 C1033 1.526 . S
C1036 C1037 1.396 . S
C1036 C1041 1.390 . S
C1037 C1031 1.465 . S
C1037 C1036 1.396 . S
C1037 C1038 1.399 . S
C1038 H1024 0.929 . S
C1038 C1037 1.399 . S
C1038 C1039 1.385 . S
C1039 H1025 0.931 . S
C1039 C1038 1.385 . S
C1039 C1040 1.389 . S
C1040 C1039 1.389 . S
C1040 C1041 1.387 . S
C1041 H1026 0.930 . S
C1041 C1036 1.390 . S
C1041 C1040 1.387 . S
H1042 C1054 0.930 . S
H1043 C1056 0.930 . S
H1044 C1057 0.930 . S
H1045 C1061 0.959 . S
H1046 C1061 0.959 . S
H1047 C1061 0.961 . S
H1048 C1062 0.960 . S
H1049 C1062 0.961 1_545 S
H1050 C1062 0.959 . S
H1051 C1065 0.929 . S
H1052 C1066 0.931 . S
H1053 C1068 0.930 1_545 S
C1054 H1042 0.930 . S
C1054 C1055 1.399 . S
C1054 C1059 1.399 . S
C1055 C1054 1.399 . S
C1055 C1056 1.376 . S
C1056 H1043 0.930 . S
C1056 C1055 1.376 . S
C1056 C1057 1.388 . S
C1057 H1044 0.930 . S
C1057 C1056 1.388 . S
C1057 C1058 1.390 . S
C1058 C1057 1.390 . S
C1058 C1059 1.394 . S
C1058 C1064 1.465 . S
C1059 C1054 1.399 . S
C1059 C1058 1.394 . S
C1059 C1060 1.516 . S
C1060 C1059 1.516 . S
C1060 C1061 1.502 . S
C1060 C1062 1.561 . S
C1060 C1063 1.526 . S
C1061 H1045 0.959 . S
C1061 H1046 0.959 . S
C1061 H1047 0.961 . S
C1061 C1060 1.502 . S
C1062 H1048 0.960 . S
C1062 H1049 0.961 1_565 S
C1062 H1050 0.959 . S
C1062 C1060 1.561 . S
C1063 C1060 1.526 . S
C1063 C1064 1.396 . S
C1063 C1068 1.390 . S
C1064 C1058 1.465 . S
C1064 C1063 1.396 . S
C1064 C1065 1.399 . S
C1065 H1051 0.929 . S
C1065 C1064 1.399 . S
C1065 C1066 1.385 . S
C1066 H1052 0.931 . S
C1066 C1065 1.385 . S
C1066 C1067 1.389 . S
C1067 C1066 1.389 . S
C1067 C1068 1.387 . S
C1068 H1053 0.930 1_565 S
C1068 C1063 1.390 . S
C1068 C1067 1.387 . S
H1069 C1081 0.930 . S
H1070 C1083 0.930 . S
H1071 C1084 0.930 . S
H1072 C1088 0.959 . S
H1073 C1088 0.959 1_565 S
H1074 C1088 0.961 . S
H1075 C1089 0.960 . S
H1076 C1089 0.961 . S
H1077 C1089 0.959 . S
H1078 C1092 0.929 . S
H1079 C1093 0.931 . S
H1080 C1095 0.930 1_565 S
C1081 H1069 0.930 . S
C1081 C1082 1.399 . S
C1081 C1086 1.399 . S
C1082 C1081 1.399 . S
C1082 C1083 1.376 . S
C1083 H1070 0.930 . S
C1083 C1082 1.376 . S
C1083 C1084 1.388 . S
C1084 H1071 0.930 . S
C1084 C1083 1.388 . S
C1084 C1085 1.390 . S
C1085 C1084 1.390 . S
C1085 C1086 1.394 . S
C1085 C1091 1.465 . S
C1086 C1081 1.399 . S
C1086 C1085 1.394 . S
C1086 C1087 1.516 . S
C1087 C1086 1.516 . S
C1087 C1088 1.502 . S
C1087 C1089 1.561 . S
C1087 C1090 1.526 . S
C1088 H1072 0.959 . S
C1088 H1073 0.959 1_545 S
C1088 H1074 0.961 . S
C1088 C1087 1.502 . S
C1089 H1075 0.960 . S
C1089 H1076 0.961 . S
C1089 H1077 0.959 . S
C1089 C1087 1.561 . S
C1090 C1087 1.526 . S
C1090 C1091 1.396 . S
C1090 C1095 1.390 . S
C1091 C1085 1.465 . S
C1091 C1090 1.396 . S
C1091 C1092 1.399 . S
C1092 H1078 0.929 . S
C1092 C1091 1.399 . S
C1092 C1093 1.385 . S
C1093 H1079 0.931 . S
C1093 C1092 1.385 . S
C1093 C1094 1.389 . S
C1094 C1093 1.389 . S
C1094 C1095 1.387 . S
C1095 H1080 0.930 1_545 S
C1095 C1090 1.390 . S
C1095 C1094 1.387 . S
H1096 C1108 0.930 . S
H1097 C1110 0.930 . S
H1098 C1111 0.930 . S
H1099 C1115 0.959 . S
H1100 C1115 0.959 . S
H1101 C1115 0.961 . S
H1102 C1116 0.960 . S
H1103 C1116 0.961 . S
H1104 C1116 0.959 . S
H1105 C1119 0.929 . S
H1106 C1120 0.931 . S
H1107 C1122 0.930 . S
C1108 H1096 0.930 . S
C1108 C1109 1.399 . S
C1108 C1113 1.399 . S
C1109 C1108 1.399 . S
C1109 C1110 1.376 . S
C1110 H1097 0.930 . S
C1110 C1109 1.376 . S
C1110 C1111 1.388 . S
C1111 H1098 0.930 . S
C1111 C1110 1.388 . S
C1111 C1112 1.390 . S
C1112 C1111 1.390 . S
C1112 C1113 1.394 . S
C1112 C1118 1.465 . S
C1113 C1108 1.399 . S
C1113 C1112 1.394 . S
C1113 C1114 1.516 . S
C1114 C1113 1.516 . S
C1114 C1115 1.502 . S
C1114 C1116 1.561 . S
C1114 C1117 1.526 . S
C1115 H1099 0.959 . S
C1115 H1100 0.959 . S
C1115 H1101 0.961 . S
C1115 C1114 1.502 . S
C1116 H1102 0.960 . S
C1116 H1103 0.961 . S
C1116 H1104 0.959 . S
C1116 C1114 1.561 . S
C1117 C1114 1.526 . S
C1117 C1118 1.396 . S
C1117 C1122 1.390 . S
C1118 C1112 1.465 . S
C1118 C1117 1.396 . S
C1118 C1119 1.399 . S
C1119 H1105 0.929 . S
C1119 C1118 1.399 . S
C1119 C1120 1.385 . S
C1120 H1106 0.931 . S
C1120 C1119 1.385 . S
C1120 C1121 1.389 . S
C1121 C1120 1.389 . S
C1121 C1122 1.387 . S
C1122 H1107 0.930 . S
C1122 C1117 1.390 . S
C1122 C1121 1.387 . S
H1123 C1135 0.930 . S
H1124 C1137 0.930 . S
H1125 C1138 0.930 . S
H1126 C1142 0.959 . S
H1127 C1142 0.959 . S
H1128 C1142 0.961 . S
H1129 C1143 0.960 . S
H1130 C1143 0.961 . S
H1131 C1143 0.959 . S
H1132 C1146 0.929 . S
H1133 C1147 0.931 . S
H1134 C1149 0.930 . S
C1135 H1123 0.930 . S
C1135 C1136 1.399 . S
C1135 C1140 1.399 . S
C1136 C1135 1.399 . S
C1136 C1137 1.376 . S
C1137 H1124 0.930 . S
C1137 C1136 1.376 . S
C1137 C1138 1.388 . S
C1138 H1125 0.930 . S
C1138 C1137 1.388 . S
C1138 C1139 1.390 . S
C1139 C1138 1.390 . S
C1139 C1140 1.394 . S
C1139 C1145 1.465 . S
C1140 C1135 1.399 . S
C1140 C1139 1.394 . S
C1140 C1141 1.516 . S
C1141 C1140 1.516 . S
C1141 C1142 1.502 . S
C1141 C1143 1.561 . S
C1141 C1144 1.526 . S
C1142 H1126 0.959 . S
C1142 H1127 0.959 . S
C1142 H1128 0.961 . S
C1142 C1141 1.502 . S
C1143 H1129 0.960 . S
C1143 H1130 0.961 . S
C1143 H1131 0.959 . S
C1143 C1141 1.561 . S
C1144 C1141 1.526 . S
C1144 C1145 1.396 . S
C1144 C1149 1.390 . S
C1145 C1139 1.465 . S
C1145 C1144 1.396 . S
C1145 C1146 1.399 . S
C1146 H1132 0.929 . S
C1146 C1145 1.399 . S
C1146 C1147 1.385 . S
C1147 H1133 0.931 . S
C1147 C1146 1.385 . S
C1147 C1148 1.389 . S
C1148 C1147 1.389 . S
C1148 C1149 1.387 . S
C1149 H1134 0.930 . S
C1149 C1144 1.390 . S
C1149 C1148 1.387 . S
H1150 C1162 0.930 . S
H1151 C1164 0.930 . S
H1152 C1165 0.930 . S
H1153 C1169 0.959 . S
H1154 C1169 0.959 . S
H1155 C1169 0.961 . S
H1156 C1170 0.960 . S
H1157 C1170 0.961 . S
H1158 C1170 0.959 . S
H1159 C1173 0.929 . S
H1160 C1174 0.931 . S
H1161 C1176 0.930 . S
C1162 H1150 0.930 . S
C1162 C1163 1.399 . S
C1162 C1167 1.399 . S
C1163 C1162 1.399 . S
C1163 C1164 1.376 . S
C1164 H1151 0.930 . S
C1164 C1163 1.376 . S
C1164 C1165 1.388 . S
C1165 H1152 0.930 . S
C1165 C1164 1.388 . S
C1165 C1166 1.390 . S
C1166 C1165 1.390 . S
C1166 C1167 1.394 . S
C1166 C1172 1.465 . S
C1167 C1162 1.399 . S
C1167 C1166 1.394 . S
C1167 C1168 1.516 . S
C1168 C1167 1.516 . S
C1168 C1169 1.502 . S
C1168 C1170 1.561 . S
C1168 C1171 1.526 . S
C1169 H1153 0.959 . S
C1169 H1154 0.959 . S
C1169 H1155 0.961 . S
C1169 C1168 1.502 . S
C1170 H1156 0.960 . S
C1170 H1157 0.961 . S
C1170 H1158 0.959 . S
C1170 C1168 1.561 . S
C1171 C1168 1.526 . S
C1171 C1172 1.396 . S
C1171 C1176 1.390 . S
C1172 C1166 1.465 . S
C1172 C1171 1.396 . S
C1172 C1173 1.399 . S
C1173 H1159 0.929 . S
C1173 C1172 1.399 . S
C1173 C1174 1.385 . S
C1174 H1160 0.931 . S
C1174 C1173 1.385 . S
C1174 C1175 1.389 . S
C1175 C1174 1.389 . S
C1175 C1176 1.387 . S
C1176 H1161 0.930 . S
C1176 C1171 1.390 . S
C1176 C1175 1.387 . S
H1177 C1189 0.930 . S
H1178 C1191 0.930 . S
H1179 C1192 0.930 . S
H1180 C1196 0.959 . S
H1181 C1196 0.959 . S
H1182 C1196 0.961 . S
H1183 C1197 0.960 . S
H1184 C1197 0.961 . S
H1185 C1197 0.959 . S
H1186 C1200 0.929 . S
H1187 C1201 0.931 . S
H1188 C1203 0.930 . S
C1189 H1177 0.930 . S
C1189 C1190 1.399 . S
C1189 C1194 1.399 . S
C1190 C1189 1.399 . S
C1190 C1191 1.376 . S
C1191 H1178 0.930 . S
C1191 C1190 1.376 . S
C1191 C1192 1.388 . S
C1192 H1179 0.930 . S
C1192 C1191 1.388 . S
C1192 C1193 1.390 . S
C1193 C1192 1.390 . S
C1193 C1194 1.394 . S
C1193 C1199 1.465 . S
C1194 C1189 1.399 . S
C1194 C1193 1.394 . S
C1194 C1195 1.516 . S
C1195 C1194 1.516 . S
C1195 C1196 1.502 . S
C1195 C1197 1.561 . S
C1195 C1198 1.526 . S
C1196 H1180 0.959 . S
C1196 H1181 0.959 . S
C1196 H1182 0.961 . S
C1196 C1195 1.502 . S
C1197 H1183 0.960 . S
C1197 H1184 0.961 . S
C1197 H1185 0.959 . S
C1197 C1195 1.561 . S
C1198 C1195 1.526 . S
C1198 C1199 1.396 . S
C1198 C1203 1.390 . S
C1199 C1193 1.465 . S
C1199 C1198 1.396 . S
C1199 C1200 1.399 . S
C1200 H1186 0.929 . S
C1200 C1199 1.399 . S
C1200 C1201 1.385 . S
C1201 H1187 0.931 . S
C1201 C1200 1.385 . S
C1201 C1202 1.389 . S
C1202 C1201 1.389 . S
C1202 C1203 1.387 . S
C1203 H1188 0.930 . S
C1203 C1198 1.390 . S
C1203 C1202 1.387 . S
H1204 C1216 0.930 . S
H1205 C1218 0.930 . S
H1206 C1219 0.930 . S
H1207 C1223 0.959 . S
H1208 C1223 0.959 . S
H1209 C1223 0.961 . S
H1210 C1224 0.960 . S
H1211 C1224 0.961 . S
H1212 C1224 0.959 . S
H1213 C1227 0.929 . S
H1214 C1228 0.931 . S
H1215 C1230 0.930 . S
C1216 H1204 0.930 . S
C1216 C1217 1.399 . S
C1216 C1221 1.399 . S
C1217 C1216 1.399 . S
C1217 C1218 1.376 . S
C1218 H1205 0.930 . S
C1218 C1217 1.376 . S
C1218 C1219 1.388 . S
C1219 H1206 0.930 . S
C1219 C1218 1.388 . S
C1219 C1220 1.390 . S
C1220 C1219 1.390 . S
C1220 C1221 1.394 . S
C1220 C1226 1.465 . S
C1221 C1216 1.399 . S
C1221 C1220 1.394 . S
C1221 C1222 1.516 . S
C1222 C1221 1.516 . S
C1222 C1223 1.502 . S
C1222 C1224 1.561 . S
C1222 C1225 1.526 . S
C1223 H1207 0.959 . S
C1223 H1208 0.959 . S
C1223 H1209 0.961 . S
C1223 C1222 1.502 . S
C1224 H1210 0.960 . S
C1224 H1211 0.961 . S
C1224 H1212 0.959 . S
C1224 C1222 1.561 . S
C1225 C1222 1.526 . S
C1225 C1226 1.396 . S
C1225 C1230 1.390 . S
C1226 C1220 1.465 . S
C1226 C1225 1.396 . S
C1226 C1227 1.399 . S
C1227 H1213 0.929 . S
C1227 C1226 1.399 . S
C1227 C1228 1.385 . S
C1228 H1214 0.931 . S
C1228 C1227 1.385 . S
C1228 C1229 1.389 . S
C1229 C1228 1.389 . S
C1229 C1230 1.387 . S
C1230 H1215 0.930 . S
C1230 C1225 1.390 . S
C1230 C1229 1.387 . S
H1231 C1243 0.930 . S
H1232 C1245 0.930 . S
H1233 C1246 0.930 . S
H1234 C1250 0.959 . S
H1235 C1250 0.959 . S
H1236 C1250 0.961 . S
H1237 C1251 0.960 . S
H1238 C1251 0.961 . S
H1239 C1251 0.959 . S
H1240 C1254 0.929 . S
H1241 C1255 0.931 . S
H1242 C1257 0.930 . S
C1243 H1231 0.930 . S
C1243 C1244 1.399 . S
C1243 C1248 1.399 . S
C1244 C1243 1.399 . S
C1244 C1245 1.376 . S
C1245 H1232 0.930 . S
C1245 C1244 1.376 . S
C1245 C1246 1.388 . S
C1246 H1233 0.930 . S
C1246 C1245 1.388 . S
C1246 C1247 1.390 . S
C1247 C1246 1.390 . S
C1247 C1248 1.394 . S
C1247 C1253 1.465 . S
C1248 C1243 1.399 . S
C1248 C1247 1.394 . S
C1248 C1249 1.516 . S
C1249 C1248 1.516 . S
C1249 C1250 1.502 . S
C1249 C1251 1.561 . S
C1249 C1252 1.526 . S
C1250 H1234 0.959 . S
C1250 H1235 0.959 . S
C1250 H1236 0.961 . S
C1250 C1249 1.502 . S
C1251 H1237 0.960 . S
C1251 H1238 0.961 . S
C1251 H1239 0.959 . S
C1251 C1249 1.561 . S
C1252 C1249 1.526 . S
C1252 C1253 1.396 . S
C1252 C1257 1.390 . S
C1253 C1247 1.465 . S
C1253 C1252 1.396 . S
C1253 C1254 1.399 . S
C1254 H1240 0.929 . S
C1254 C1253 1.399 . S
C1254 C1255 1.385 . S
C1255 H1241 0.931 . S
C1255 C1254 1.385 . S
C1255 C1256 1.389 . S
C1256 C1255 1.389 . S
C1256 C1257 1.387 . S
C1257 H1242 0.930 . S
C1257 C1252 1.390 . S
C1257 C1256 1.387 . S
H1258 C1270 0.930 . S
H1259 C1272 0.930 . S
H1260 C1273 0.930 . S
H1261 C1277 0.959 . S
H1262 C1277 0.959 . S
H1263 C1277 0.961 . S
H1264 C1278 0.960 . S
H1265 C1278 0.961 . S
H1266 C1278 0.959 . S
H1267 C1281 0.929 . S
H1268 C1282 0.931 . S
H1269 C1284 0.930 . S
C1270 H1258 0.930 . S
C1270 C1271 1.399 . S
C1270 C1275 1.399 . S
C1271 C1270 1.399 . S
C1271 C1272 1.376 . S
C1272 H1259 0.930 . S
C1272 C1271 1.376 . S
C1272 C1273 1.388 . S
C1273 H1260 0.930 . S
C1273 C1272 1.388 . S
C1273 C1274 1.390 . S
C1274 C1273 1.390 . S
C1274 C1275 1.394 . S
C1274 C1280 1.465 . S
C1275 C1270 1.399 . S
C1275 C1274 1.394 . S
C1275 C1276 1.516 . S
C1276 C1275 1.516 . S
C1276 C1277 1.502 . S
C1276 C1278 1.561 . S
C1276 C1279 1.526 . S
C1277 H1261 0.959 . S
C1277 H1262 0.959 . S
C1277 H1263 0.961 . S
C1277 C1276 1.502 . S
C1278 H1264 0.960 . S
C1278 H1265 0.961 . S
C1278 H1266 0.959 . S
C1278 C1276 1.561 . S
C1279 C1276 1.526 . S
C1279 C1280 1.396 . S
C1279 C1284 1.390 . S
C1280 C1274 1.465 . S
C1280 C1279 1.396 . S
C1280 C1281 1.399 . S
C1281 H1267 0.929 . S
C1281 C1280 1.399 . S
C1281 C1282 1.385 . S
C1282 H1268 0.931 . S
C1282 C1281 1.385 . S
C1282 C1283 1.389 . S
C1283 C1282 1.389 . S
C1283 C1284 1.387 . S
C1284 H1269 0.930 . S
C1284 C1279 1.390 . S
C1284 C1283 1.387 . S
H1285 C1297 0.930 . S
H1286 C1299 0.930 . S
H1287 C1300 0.930 . S
H1288 C1304 0.959 . S
H1289 C1304 0.959 . S
H1290 C1304 0.961 . S
H1291 C1305 0.960 . S
H1292 C1305 0.961 . S
H1293 C1305 0.959 . S
H1294 C1308 0.929 . S
H1295 C1309 0.931 . S
H1296 C1311 0.930 . S
C1297 H1285 0.930 . S
C1297 C1298 1.399 . S
C1297 C1302 1.399 . S
C1298 C1297 1.399 . S
C1298 C1299 1.376 . S
C1299 H1286 0.930 . S
C1299 C1298 1.376 . S
C1299 C1300 1.388 . S
C1300 H1287 0.930 . S
C1300 C1299 1.388 . S
C1300 C1301 1.390 . S
C1301 C1300 1.390 . S
C1301 C1302 1.394 . S
C1301 C1307 1.465 . S
C1302 C1297 1.399 . S
C1302 C1301 1.394 . S
C1302 C1303 1.516 . S
C1303 C1302 1.516 . S
C1303 C1304 1.502 . S
C1303 C1305 1.561 . S
C1303 C1306 1.526 . S
C1304 H1288 0.959 . S
C1304 H1289 0.959 . S
C1304 H1290 0.961 . S
C1304 C1303 1.502 . S
C1305 H1291 0.960 . S
C1305 H1292 0.961 . S
C1305 H1293 0.959 . S
C1305 C1303 1.561 . S
C1306 C1303 1.526 . S
C1306 C1307 1.396 . S
C1306 C1311 1.390 . S
C1307 C1301 1.465 . S
C1307 C1306 1.396 . S
C1307 C1308 1.399 . S
C1308 H1294 0.929 . S
C1308 C1307 1.399 . S
C1308 C1309 1.385 . S
C1309 H1295 0.931 . S
C1309 C1308 1.385 . S
C1309 C1310 1.389 . S
C1310 C1309 1.389 . S
C1310 C1311 1.387 . S
C1311 H1296 0.930 . S
C1311 C1306 1.390 . S
C1311 C1310 1.387 . S
H1312 C1324 0.930 . S
H1313 C1326 0.930 . S
H1314 C1327 0.930 . S
H1315 C1331 0.959 . S
H1316 C1331 0.959 . S
H1317 C1331 0.961 . S
H1318 C1332 0.960 . S
H1319 C1332 0.961 . S
H1320 C1332 0.959 . S
H1321 C1335 0.929 . S
H1322 C1336 0.931 . S
H1323 C1338 0.930 . S
C1324 H1312 0.930 . S
C1324 C1325 1.399 . S
C1324 C1329 1.399 . S
C1325 C1324 1.399 . S
C1325 C1326 1.376 . S
C1326 H1313 0.930 . S
C1326 C1325 1.376 . S
C1326 C1327 1.388 . S
C1327 H1314 0.930 . S
C1327 C1326 1.388 . S
C1327 C1328 1.390 . S
C1328 C1327 1.390 . S
C1328 C1329 1.394 . S
C1328 C1334 1.465 . S
C1329 C1324 1.399 . S
C1329 C1328 1.394 . S
C1329 C1330 1.516 . S
C1330 C1329 1.516 . S
C1330 C1331 1.502 . S
C1330 C1332 1.561 . S
C1330 C1333 1.526 . S
C1331 H1315 0.959 . S
C1331 H1316 0.959 . S
C1331 H1317 0.961 . S
C1331 C1330 1.502 . S
C1332 H1318 0.960 . S
C1332 H1319 0.961 . S
C1332 H1320 0.959 . S
C1332 C1330 1.561 . S
C1333 C1330 1.526 . S
C1333 C1334 1.396 . S
C1333 C1338 1.390 . S
C1334 C1328 1.465 . S
C1334 C1333 1.396 . S
C1334 C1335 1.399 . S
C1335 H1321 0.929 . S
C1335 C1334 1.399 . S
C1335 C1336 1.385 . S
C1336 H1322 0.931 . S
C1336 C1335 1.385 . S
C1336 C1337 1.389 . S
C1337 C1336 1.389 . S
C1337 C1338 1.387 . S
C1338 H1323 0.930 . S
C1338 C1333 1.390 . S
C1338 C1337 1.387 . S
H1339 C1351 0.930 . S
H1340 C1353 0.930 . S
H1341 C1354 0.930 . S
H1342 C1358 0.959 . S
H1343 C1358 0.959 . S
H1344 C1358 0.961 . S
H1345 C1359 0.960 . S
H1346 C1359 0.961 . S
H1347 C1359 0.959 . S
H1348 C1362 0.929 . S
H1349 C1363 0.939 . S
H1350 C1365 0.930 . S
C1351 H1339 0.930 . S
C1351 C1352 1.399 . S
C1351 C1356 1.399 . S
C1352 C1351 1.399 . S
C1352 C1353 1.376 . S
C1353 H1340 0.930 . S
C1353 C1352 1.376 . S
C1353 C1354 1.388 . S
C1354 H1341 0.930 . S
C1354 C1353 1.388 . S
C1354 C1355 1.390 . S
C1355 C1354 1.390 . S
C1355 C1356 1.394 . S
C1355 C1361 1.465 . S
C1356 C1351 1.399 . S
C1356 C1355 1.394 . S
C1356 C1357 1.516 . S
C1357 C1356 1.516 . S
C1357 C1358 1.502 . S
C1357 C1359 1.561 . S
C1357 C1360 1.526 . S
C1358 H1342 0.959 . S
C1358 H1343 0.959 . S
C1358 H1344 0.961 . S
C1358 C1357 1.502 . S
C1359 H1345 0.960 . S
C1359 H1346 0.961 . S
C1359 H1347 0.959 . S
C1359 C1357 1.561 . S
C1360 C1357 1.526 . S
C1360 C1361 1.396 . S
C1360 C1365 1.390 . S
C1361 C1355 1.465 . S
C1361 C1360 1.396 . S
C1361 C1362 1.399 . S
C1362 H1348 0.929 . S
C1362 C1361 1.399 . S
C1362 C1363 1.385 . S
C1363 H1349 0.939 . S
C1363 C1362 1.385 . S
C1363 C1364 1.389 . S
C1364 C1363 1.389 . S
C1364 C1365 1.387 . S
C1365 H1350 0.930 . S
C1365 C1360 1.390 . S
C1365 C1364 1.387 . S
H1366 C1378 0.930 . S
H1367 C1380 0.930 . S
H1368 C1381 0.930 . S
H1369 C1385 0.959 . S
H1370 C1385 0.959 . S
H1371 C1385 0.961 . S
H1372 C1386 0.960 . S
H1373 C1386 0.961 . S
H1374 C1386 0.959 . S
H1375 C1389 0.929 . S
H1376 C1390 0.931 . S
H1377 C1392 0.930 . S
C1378 H1366 0.930 . S
C1378 C1379 1.399 . S
C1378 C1383 1.399 . S
C1379 C1378 1.399 . S
C1379 C1380 1.376 . S
C1380 H1367 0.930 . S
C1380 C1379 1.376 . S
C1380 C1381 1.388 . S
C1381 H1368 0.930 . S
C1381 C1380 1.388 . S
C1381 C1382 1.390 . S
C1382 C1381 1.390 . S
C1382 C1383 1.394 . S
C1382 C1388 1.465 . S
C1383 C1378 1.399 . S
C1383 C1382 1.394 . S
C1383 C1384 1.516 . S
C1384 C1383 1.516 . S
C1384 C1385 1.502 . S
C1384 C1386 1.561 . S
C1384 C1387 1.526 . S
C1385 H1369 0.959 . S
C1385 H1370 0.959 . S
C1385 H1371 0.961 . S
C1385 C1384 1.502 . S
C1386 H1372 0.960 . S
C1386 H1373 0.961 . S
C1386 H1374 0.959 . S
C1386 C1384 1.561 . S
C1387 C1384 1.526 . S
C1387 C1388 1.396 . S
C1387 C1392 1.390 . S
C1388 C1382 1.465 . S
C1388 C1387 1.396 . S
C1388 C1389 1.399 . S
C1389 H1375 0.929 . S
C1389 C1388 1.399 . S
C1389 C1390 1.385 . S
C1390 H1376 0.931 . S
C1390 C1389 1.385 . S
C1390 C1391 1.389 . S
C1391 C1390 1.389 . S
C1391 C1392 1.387 . S
C1392 H1377 0.930 . S
C1392 C1387 1.390 . S
C1392 C1391 1.387 . S
H1393 C1405 0.930 . S
H1394 C1407 0.930 . S
H1395 C1408 0.930 . S
H1396 C1412 0.959 . S
H1397 C1412 0.959 . S
H1398 C1412 0.961 . S
H1399 C1413 0.960 . S
H1400 C1413 0.961 . S
H1401 C1413 0.959 . S
H1402 C1416 0.929 . S
H1403 C1417 0.931 . S
H1404 C1419 0.930 . S
C1405 H1393 0.930 . S
C1405 C1406 1.399 . S
C1405 C1410 1.399 . S
C1406 C1405 1.399 . S
C1406 C1407 1.376 . S
C1407 H1394 0.930 . S
C1407 C1406 1.376 . S
C1407 C1408 1.388 . S
C1408 H1395 0.930 . S
C1408 C1407 1.388 . S
C1408 C1409 1.390 . S
C1409 C1408 1.390 . S
C1409 C1410 1.394 . S
C1409 C1415 1.465 . S
C1410 C1405 1.399 . S
C1410 C1409 1.394 . S
C1410 C1411 1.516 . S
C1411 C1410 1.516 . S
C1411 C1412 1.502 . S
C1411 C1413 1.561 . S
C1411 C1414 1.526 . S
C1412 H1396 0.959 . S
C1412 H1397 0.959 . S
C1412 H1398 0.961 . S
C1412 C1411 1.502 . S
C1413 H1399 0.960 . S
C1413 H1400 0.961 . S
C1413 H1401 0.959 . S
C1413 C1411 1.561 . S
C1414 C1411 1.526 . S
C1414 C1415 1.396 . S
C1414 C1419 1.390 . S
C1415 C1409 1.465 . S
C1415 C1414 1.396 . S
C1415 C1416 1.399 . S
C1416 H1402 0.929 . S
C1416 C1415 1.399 . S
C1416 C1417 1.385 . S
C1417 H1403 0.931 . S
C1417 C1416 1.385 . S
C1417 C1418 1.389 . S
C1418 C1417 1.389 . S
C1418 C1419 1.387 . S
C1419 H1404 0.930 . S
C1419 C1414 1.390 . S
C1419 C1418 1.387 . S
H1420 C1432 0.930 . S
H1421 C1434 0.930 . S
H1422 C1435 0.930 . S
H1423 C1439 0.959 . S
H1424 C1439 0.959 . S
H1425 C1439 0.961 . S
H1426 C1440 0.960 . S
H1427 C1440 0.961 . S
H1428 C1440 0.959 . S
H1429 C1443 0.929 . S
H1430 C1444 0.931 . S
H1431 C1446 0.930 . S
C1432 H1420 0.930 . S
C1432 C1433 1.399 . S
C1432 C1437 1.399 . S
C1433 C1432 1.399 . S
C1433 C1434 1.376 . S
C1434 H1421 0.930 . S
C1434 C1433 1.376 . S
C1434 C1435 1.388 . S
C1435 H1422 0.930 . S
C1435 C1434 1.388 . S
C1435 C1436 1.390 . S
C1436 C1435 1.390 . S
C1436 C1437 1.394 . S
C1436 C1442 1.465 . S
C1437 C1432 1.399 . S
C1437 C1436 1.394 . S
C1437 C1438 1.516 . S
C1438 C1437 1.516 . S
C1438 C1439 1.502 . S
C1438 C1440 1.561 . S
C1438 C1441 1.526 . S
C1439 H1423 0.959 . S
C1439 H1424 0.959 . S
C1439 H1425 0.961 . S
C1439 C1438 1.502 . S
C1440 H1426 0.960 . S
C1440 H1427 0.961 . S
C1440 H1428 0.959 . S
C1440 C1438 1.561 . S
C1441 C1438 1.526 . S
C1441 C1442 1.396 . S
C1441 C1446 1.390 . S
C1442 C1436 1.465 . S
C1442 C1441 1.396 . S
C1442 C1443 1.399 . S
C1443 H1429 0.929 . S
C1443 C1442 1.399 . S
C1443 C1444 1.385 . S
C1444 H1430 0.931 . S
C1444 C1443 1.385 . S
C1444 C1445 1.389 . S
C1445 C1444 1.389 . S
C1445 C1446 1.387 . S
C1446 H1431 0.930 . S
C1446 C1441 1.390 . S
C1446 C1445 1.387 . S
H1447 C1459 0.930 . S
H1448 C1461 0.930 . S
H1449 C1462 0.930 . S
H1450 C1466 0.959 . S
H1451 C1466 0.959 . S
H1452 C1466 0.961 . S
H1453 C1467 0.960 . S
H1454 C1467 0.961 . S
H1455 C1467 0.959 . S
H1456 C1470 0.929 . S
H1457 C1471 0.931 . S
H1458 C1473 0.930 . S
C1459 H1447 0.930 . S
C1459 C1460 1.399 . S
C1459 C1464 1.399 . S
C1460 C1459 1.399 . S
C1460 C1461 1.376 . S
C1461 H1448 0.930 . S
C1461 C1460 1.376 . S
C1461 C1462 1.388 . S
C1462 H1449 0.930 . S
C1462 C1461 1.388 . S
C1462 C1463 1.390 . S
C1463 C1462 1.390 . S
C1463 C1464 1.394 . S
C1463 C1469 1.465 . S
C1464 C1459 1.399 . S
C1464 C1463 1.394 . S
C1464 C1465 1.516 . S
C1465 C1464 1.516 . S
C1465 C1466 1.502 . S
C1465 C1467 1.561 . S
C1465 C1468 1.526 . S
C1466 H1450 0.959 . S
C1466 H1451 0.959 . S
C1466 H1452 0.961 . S
C1466 C1465 1.502 . S
C1467 H1453 0.960 . S
C1467 H1454 0.961 . S
C1467 H1455 0.959 . S
C1467 C1465 1.561 . S
C1468 C1465 1.526 . S
C1468 C1469 1.396 . S
C1468 C1473 1.390 . S
C1469 C1463 1.465 . S
C1469 C1468 1.396 . S
C1469 C1470 1.399 . S
C1470 H1456 0.929 . S
C1470 C1469 1.399 . S
C1470 C1471 1.385 . S
C1471 H1457 0.931 . S
C1471 C1470 1.385 . S
C1471 C1472 1.389 . S
C1472 C1471 1.389 . S
C1472 C1473 1.387 . S
C1473 H1458 0.930 . S
C1473 C1468 1.390 . S
C1473 C1472 1.387 . S
H1474 C1486 0.930 . S
H1475 C1488 0.930 . S
H1476 C1489 0.930 . S
H1477 C1493 0.959 . S
H1478 C1493 0.959 . S
H1479 C1493 0.961 . S
H1480 C1494 0.960 . S
H1481 C1494 0.961 . S
H1482 C1494 0.959 . S
H1483 C1497 0.929 . S
H1484 C1498 0.931 . S
H1485 C1500 0.930 . S
C1486 H1474 0.930 . S
C1486 C1487 1.399 . S
C1486 C1491 1.399 . S
C1487 C1486 1.399 . S
C1487 C1488 1.376 . S
C1488 H1475 0.930 . S
C1488 C1487 1.376 . S
C1488 C1489 1.388 . S
C1489 H1476 0.930 . S
C1489 C1488 1.388 . S
C1489 C1490 1.390 . S
C1490 C1489 1.390 . S
C1490 C1491 1.394 . S
C1490 C1496 1.465 . S
C1491 C1486 1.399 . S
C1491 C1490 1.394 . S
C1491 C1492 1.516 . S
C1492 C1491 1.516 . S
C1492 C1493 1.502 . S
C1492 C1494 1.561 . S
C1492 C1495 1.526 . S
C1493 H1477 0.959 . S
C1493 H1478 0.959 . S
C1493 H1479 0.961 . S
C1493 C1492 1.502 . S
C1494 H1480 0.960 . S
C1494 H1481 0.961 . S
C1494 H1482 0.959 . S
C1494 C1492 1.561 . S
C1495 C1492 1.526 . S
C1495 C1496 1.396 . S
C1495 C1500 1.390 . S
C1496 C1490 1.465 . S
C1496 C1495 1.396 . S
C1496 C1497 1.399 . S
C1497 H1483 0.929 . S
C1497 C1496 1.399 . S
C1497 C1498 1.385 . S
C1498 H1484 0.931 . S
C1498 C1497 1.385 . S
C1498 C1499 1.389 . S
C1499 C1498 1.389 . S
C1499 C1500 1.387 . S
C1500 H1485 0.930 . S
C1500 C1495 1.390 . S
C1500 C1499 1.387 . S
H1501 C1513 0.930 . S
H1502 C1515 0.930 . S
H1503 C1516 0.930 . S
H1504 C1520 0.959 . S
H1505 C1520 0.959 . S
H1506 C1520 0.961 . S
H1507 C1521 0.960 . S
H1508 C1521 0.961 . S
H1509 C1521 0.959 . S
H1510 C1524 0.929 . S
H1511 C1525 0.931 . S
H1512 C1527 0.930 . S
C1513 H1501 0.930 . S
C1513 C1514 1.399 . S
C1513 C1518 1.399 . S
C1514 C1513 1.399 . S
C1514 C1515 1.376 . S
C1515 H1502 0.930 . S
C1515 C1514 1.376 . S
C1515 C1516 1.388 . S
C1516 H1503 0.930 . S
C1516 C1515 1.388 . S
C1516 C1517 1.390 . S
C1517 C1516 1.390 . S
C1517 C1518 1.394 . S
C1517 C1523 1.465 . S
C1518 C1513 1.399 . S
C1518 C1517 1.394 . S
C1518 C1519 1.516 . S
C1519 C1518 1.516 . S
C1519 C1520 1.502 . S
C1519 C1521 1.561 . S
C1519 C1522 1.526 . S
C1520 H1504 0.959 . S
C1520 H1505 0.959 . S
C1520 H1506 0.961 . S
C1520 C1519 1.502 . S
C1521 H1507 0.960 . S
C1521 H1508 0.961 . S
C1521 H1509 0.959 . S
C1521 C1519 1.561 . S
C1522 C1519 1.526 . S
C1522 C1523 1.396 . S
C1522 C1527 1.390 . S
C1523 C1517 1.465 . S
C1523 C1522 1.396 . S
C1523 C1524 1.399 . S
C1524 H1510 0.929 . S
C1524 C1523 1.399 . S
C1524 C1525 1.385 . S
C1525 H1511 0.931 . S
C1525 C1524 1.385 . S
C1525 C1526 1.389 . S
C1526 C1525 1.389 . S
C1526 C1527 1.387 . S
C1527 H1512 0.930 . S
C1527 C1522 1.390 . S
C1527 C1526 1.387 . S
H1528 C1540 0.930 . S
H1529 C1542 0.930 . S
H1530 C1543 0.930 . S
H1531 C1547 0.959 . S
H1532 C1547 0.959 . S
H1533 C1547 0.961 . S
H1534 C1548 0.960 . S
H1535 C1548 0.961 . S
H1536 C1548 0.959 . S
H1537 C1551 0.929 . S
H1538 C1552 0.931 . S
H1539 C1554 0.930 . S
C1540 H1528 0.930 . S
C1540 C1541 1.399 . S
C1540 C1545 1.399 . S
C1541 C1540 1.399 . S
C1541 C1542 1.376 . S
C1542 H1529 0.930 . S
C1542 C1541 1.376 . S
C1542 C1543 1.388 . S
C1543 H1530 0.930 . S
C1543 C1542 1.388 . S
C1543 C1544 1.390 . S
C1544 C1543 1.390 . S
C1544 C1545 1.394 . S
C1544 C1550 1.465 . S
C1545 C1540 1.399 . S
C1545 C1544 1.394 . S
C1545 C1546 1.516 . S
C1546 C1545 1.516 . S
C1546 C1547 1.502 . S
C1546 C1548 1.561 . S
C1546 C1549 1.526 . S
C1547 H1531 0.959 . S
C1547 H1532 0.959 . S
C1547 H1533 0.961 . S
C1547 C1546 1.502 . S
C1548 H1534 0.960 . S
C1548 H1535 0.961 . S
C1548 H1536 0.959 . S
C1548 C1546 1.561 . S
C1549 C1546 1.526 . S
C1549 C1550 1.396 . S
C1549 C1554 1.390 . S
C1550 C1544 1.465 . S
C1550 C1549 1.396 . S
C1550 C1551 1.399 . S
C1551 H1537 0.929 . S
C1551 C1550 1.399 . S
C1551 C1552 1.385 . S
C1552 H1538 0.931 . S
C1552 C1551 1.385 . S
C1552 C1553 1.389 . S
C1553 C1552 1.389 . S
C1553 C1554 1.387 . S
C1554 H1539 0.930 . S
C1554 C1549 1.390 . S
C1554 C1553 1.387 . S
H1555 C1567 0.930 . S
H1556 C1569 0.930 . S
H1557 C1570 0.930 . S
H1558 C1574 0.959 . S
H1559 C1574 0.959 . S
H1560 C1574 0.961 . S
H1561 C1575 0.960 . S
H1562 C1575 0.961 . S
H1563 C1575 0.959 . S
H1564 C1578 0.929 . S
H1565 C1579 0.931 . S
H1566 C1581 0.930 . S
C1567 H1555 0.930 . S
C1567 C1568 1.399 . S
C1567 C1572 1.399 . S
C1568 C1567 1.399 . S
C1568 C1569 1.376 . S
C1569 H1556 0.930 . S
C1569 C1568 1.376 . S
C1569 C1570 1.388 . S
C1570 H1557 0.930 . S
C1570 C1569 1.388 . S
C1570 C1571 1.390 . S
C1571 C1570 1.390 . S
C1571 C1572 1.394 . S
C1571 C1577 1.465 . S
C1572 C1567 1.399 . S
C1572 C1571 1.394 . S
C1572 C1573 1.516 . S
C1573 C1572 1.516 . S
C1573 C1574 1.502 . S
C1573 C1575 1.561 . S
C1573 C1576 1.526 . S
C1574 H1558 0.959 . S
C1574 H1559 0.959 . S
C1574 H1560 0.961 . S
C1574 C1573 1.502 . S
C1575 H1561 0.960 . S
C1575 H1562 0.961 . S
C1575 H1563 0.959 . S
C1575 C1573 1.561 . S
C1576 C1573 1.526 . S
C1576 C1577 1.396 . S
C1576 C1581 1.390 . S
C1577 C1571 1.465 . S
C1577 C1576 1.396 . S
C1577 C1578 1.399 . S
C1578 H1564 0.929 . S
C1578 C1577 1.399 . S
C1578 C1579 1.385 . S
C1579 H1565 0.931 . S
C1579 C1578 1.385 . S
C1579 C1580 1.389 . S
C1580 C1579 1.389 . S
C1580 C1581 1.387 . S
C1581 H1566 0.930 . S
C1581 C1576 1.390 . S
C1581 C1580 1.387 . S
H1582 C1594 0.930 . S
H1583 C1596 0.930 . S
H1584 C1597 0.930 . S
H1585 C1601 0.959 . S
H1586 C1601 0.959 . S
H1587 C1601 0.961 . S
H1588 C1602 0.960 . S
H1589 C1602 0.961 . S
H1590 C1602 0.959 . S
H1591 C1605 0.929 . S
H1592 C1606 0.931 . S
H1593 C1608 0.930 . S
C1594 H1582 0.930 . S
C1594 C1595 1.399 . S
C1594 C1599 1.399 . S
C1595 C1594 1.399 . S
C1595 C1596 1.376 . S
C1596 H1583 0.930 . S
C1596 C1595 1.376 . S
C1596 C1597 1.388 . S
C1597 H1584 0.930 . S
C1597 C1596 1.388 . S
C1597 C1598 1.390 . S
C1598 C1597 1.390 . S
C1598 C1599 1.394 . S
C1598 C1604 1.465 . S
C1599 C1594 1.399 . S
C1599 C1598 1.394 . S
C1599 C1600 1.516 . S
C1600 C1599 1.516 . S
C1600 C1601 1.502 . S
C1600 C1602 1.561 . S
C1600 C1603 1.526 . S
C1601 H1585 0.959 . S
C1601 H1586 0.959 . S
C1601 H1587 0.961 . S
C1601 C1600 1.502 . S
C1602 H1588 0.960 . S
C1602 H1589 0.961 . S
C1602 H1590 0.959 . S
C1602 C1600 1.561 . S
C1603 C1600 1.526 . S
C1603 C1604 1.396 . S
C1603 C1608 1.390 . S
C1604 C1598 1.465 . S
C1604 C1603 1.396 . S
C1604 C1605 1.399 . S
C1605 H1591 0.929 . S
C1605 C1604 1.399 . S
C1605 C1606 1.385 . S
C1606 H1592 0.931 . S
C1606 C1605 1.385 . S
C1606 C1607 1.389 . S
C1607 C1606 1.389 . S
C1607 C1608 1.387 . S
C1608 H1593 0.930 . S
C1608 C1603 1.390 . S
C1608 C1607 1.387 . S
H1609 C1621 0.930 . S
H1610 C1623 0.930 . S
H1611 C1624 0.930 . S
H1612 C1628 0.959 . S
H1613 C1628 0.959 . S
H1614 C1628 0.961 . S
H1615 C1629 0.960 . S
H1616 C1629 0.961 . S
H1617 C1629 0.959 . S
H1618 C1632 0.929 . S
H1619 C1633 0.931 . S
H1620 C1635 0.930 . S
C1621 H1609 0.930 . S
C1621 C1622 1.399 . S
C1621 C1626 1.399 . S
C1622 C1621 1.399 . S
C1622 C1623 1.376 . S
C1623 H1610 0.930 . S
C1623 C1622 1.376 . S
C1623 C1624 1.388 . S
C1624 H1611 0.930 . S
C1624 C1623 1.388 . S
C1624 C1625 1.390 . S
C1625 C1624 1.390 . S
C1625 C1626 1.394 . S
C1625 C1631 1.465 . S
C1626 C1621 1.399 . S
C1626 C1625 1.394 . S
C1626 C1627 1.516 . S
C1627 C1626 1.516 . S
C1627 C1628 1.502 . S
C1627 C1629 1.561 . S
C1627 C1630 1.526 . S
C1628 H1612 0.959 . S
C1628 H1613 0.959 . S
C1628 H1614 0.961 . S
C1628 C1627 1.502 . S
C1629 H1615 0.960 . S
C1629 H1616 0.961 . S
C1629 H1617 0.959 . S
C1629 C1627 1.561 . S
C1630 C1627 1.526 . S
C1630 C1631 1.396 . S
C1630 C1635 1.390 . S
C1631 C1625 1.465 . S
C1631 C1630 1.396 . S
C1631 C1632 1.399 . S
C1632 H1618 0.929 . S
C1632 C1631 1.399 . S
C1632 C1633 1.385 . S
C1633 H1619 0.931 . S
C1633 C1632 1.385 . S
C1633 C1634 1.389 . S
C1634 C1633 1.389 . S
C1634 C1635 1.387 . S
C1635 H1620 0.930 . S
C1635 C1630 1.390 . S
C1635 C1634 1.387 . S
H1636 C1648 0.930 . S
H1637 C1650 0.930 . S
H1638 C1651 0.930 . S
H1639 C1655 0.959 . S
H1640 C1655 0.959 . S
H1641 C1655 0.961 . S
H1642 C1656 0.960 . S
H1643 C1656 0.961 . S
H1644 C1656 0.959 . S
H1645 C1659 0.929 . S
H1646 C1660 0.931 . S
H1647 C1662 0.930 . S
C1648 H1636 0.930 . S
C1648 C1649 1.399 . S
C1648 C1653 1.399 . S
C1649 C1648 1.399 . S
C1649 C1650 1.376 . S
C1650 H1637 0.930 . S
C1650 C1649 1.376 . S
C1650 C1651 1.388 . S
C1651 H1638 0.930 . S
C1651 C1650 1.388 . S
C1651 C1652 1.390 . S
C1652 C1651 1.390 . S
C1652 C1653 1.394 . S
C1652 C1658 1.465 . S
C1653 C1648 1.399 . S
C1653 C1652 1.394 . S
C1653 C1654 1.516 . S
C1654 C1653 1.516 . S
C1654 C1655 1.502 . S
C1654 C1656 1.561 . S
C1654 C1657 1.526 . S
C1655 H1639 0.959 . S
C1655 H1640 0.959 . S
C1655 H1641 0.961 . S
C1655 C1654 1.502 . S
C1656 H1642 0.960 . S
C1656 H1643 0.961 . S
C1656 H1644 0.959 . S
C1656 C1654 1.561 . S
C1657 C1654 1.526 . S
C1657 C1658 1.396 . S
C1657 C1662 1.390 . S
C1658 C1652 1.465 . S
C1658 C1657 1.396 . S
C1658 C1659 1.399 . S
C1659 H1645 0.929 . S
C1659 C1658 1.399 . S
C1659 C1660 1.385 . S
C1660 H1646 0.931 . S
C1660 C1659 1.385 . S
C1660 C1661 1.389 . S
C1661 C1660 1.389 . S
C1661 C1662 1.387 . S
C1662 H1647 0.930 . S
C1662 C1657 1.390 . S
C1662 C1661 1.387 . S
H1663 C1675 0.930 . S
H1664 C1677 0.930 . S
H1665 C1678 0.930 . S
H1666 C1682 0.959 . S
H1667 C1682 0.959 . S
H1668 C1682 0.961 . S
H1669 C1683 0.960 . S
H1670 C1683 0.961 . S
H1671 C1683 0.959 . S
H1672 C1686 0.929 . S
H1673 C1687 0.931 . S
H1674 C1689 0.930 . S
C1675 H1663 0.930 . S
C1675 C1676 1.399 . S
C1675 C1680 1.399 . S
C1676 C1675 1.399 . S
C1676 C1677 1.376 . S
C1677 H1664 0.930 . S
C1677 C1676 1.376 . S
C1677 C1678 1.388 . S
C1678 H1665 0.930 . S
C1678 C1677 1.388 . S
C1678 C1679 1.390 . S
C1679 C1678 1.390 . S
C1679 C1680 1.394 . S
C1679 C1685 1.465 . S
C1680 C1675 1.399 . S
C1680 C1679 1.394 . S
C1680 C1681 1.516 . S
C1681 C1680 1.516 . S
C1681 C1682 1.502 . S
C1681 C1683 1.561 . S
C1681 C1684 1.526 . S
C1682 H1666 0.959 . S
C1682 H1667 0.959 . S
C1682 H1668 0.961 . S
C1682 C1681 1.502 . S
C1683 H1669 0.960 . S
C1683 H1670 0.961 . S
C1683 H1671 0.959 . S
C1683 C1681 1.561 . S
C1684 C1681 1.526 . S
C1684 C1685 1.396 . S
C1684 C1689 1.390 . S
C1685 C1679 1.465 . S
C1685 C1684 1.396 . S
C1685 C1686 1.399 . S
C1686 H1672 0.929 . S
C1686 C1685 1.399 . S
C1686 C1687 1.385 . S
C1687 H1673 0.931 . S
C1687 C1686 1.385 . S
C1687 C1688 1.389 . S
C1688 C1687 1.389 . S
C1688 C1689 1.387 . S
C1689 H1674 0.930 . S
C1689 C1684 1.390 . S
C1689 C1688 1.387 . S
H1690 C1702 0.930 . S
H1691 C1704 0.930 . S
H1692 C1705 0.930 . S
H1693 C1709 0.959 . S
H1694 C1709 0.959 . S
H1695 C1709 0.961 . S
H1696 C1710 0.960 . S
H1697 C1710 0.961 . S
H1698 C1710 0.959 . S
H1699 C1713 0.929 . S
H1700 C1714 0.931 . S
H1701 C1716 0.930 . S
C1702 H1690 0.930 . S
C1702 C1703 1.399 . S
C1702 C1707 1.399 . S
C1703 C1702 1.399 . S
C1703 C1704 1.376 . S
C1704 H1691 0.930 . S
C1704 C1703 1.376 . S
C1704 C1705 1.388 . S
C1705 H1692 0.930 . S
C1705 C1704 1.388 . S
C1705 C1706 1.390 . S
C1706 C1705 1.390 . S
C1706 C1707 1.394 . S
C1706 C1712 1.465 . S
C1707 C1702 1.399 . S
C1707 C1706 1.394 . S
C1707 C1708 1.516 . S
C1708 C1707 1.516 . S
C1708 C1709 1.502 . S
C1708 C1710 1.561 . S
C1708 C1711 1.526 . S
C1709 H1693 0.959 . S
C1709 H1694 0.959 . S
C1709 H1695 0.961 . S
C1709 C1708 1.502 . S
C1710 H1696 0.960 . S
C1710 H1697 0.961 . S
C1710 H1698 0.959 . S
C1710 C1708 1.561 . S
C1711 C1708 1.526 . S
C1711 C1712 1.396 . S
C1711 C1716 1.390 . S
C1712 C1706 1.465 . S
C1712 C1711 1.396 . S
C1712 C1713 1.399 . S
C1713 H1699 0.929 . S
C1713 C1712 1.399 . S
C1713 C1714 1.385 . S
C1714 H1700 0.931 . S
C1714 C1713 1.385 . S
C1714 C1715 1.389 . S
C1715 C1714 1.389 . S
C1715 C1716 1.387 . S
C1716 H1701 0.930 . S
C1716 C1711 1.390 . S
C1716 C1715 1.387 . S
H1717 C1729 0.930 . S
H1718 C1731 0.930 . S
H1719 C1732 0.930 . S
H1720 C1736 0.959 . S
H1721 C1736 0.959 . S
H1722 C1736 0.961 . S
H1723 C1737 0.960 . S
H1724 C1737 0.961 . S
H1725 C1737 0.959 . S
H1726 C1740 0.929 . S
H1727 C1741 0.931 . S
H1728 C1743 0.930 . S
C1729 H1717 0.930 . S
C1729 C1730 1.399 . S
C1729 C1734 1.399 . S
C1730 C1729 1.399 . S
C1730 C1731 1.376 . S
C1731 H1718 0.930 . S
C1731 C1730 1.376 . S
C1731 C1732 1.388 . S
C1732 H1719 0.930 . S
C1732 C1731 1.388 . S
C1732 C1733 1.390 . S
C1733 C1732 1.390 . S
C1733 C1734 1.394 . S
C1733 C1739 1.465 . S
C1734 C1729 1.399 . S
C1734 C1733 1.394 . S
C1734 C1735 1.516 . S
C1735 C1734 1.516 . S
C1735 C1736 1.502 . S
C1735 C1737 1.561 . S
C1735 C1738 1.526 . S
C1736 H1720 0.959 . S
C1736 H1721 0.959 . S
C1736 H1722 0.961 . S
C1736 C1735 1.502 . S
C1737 H1723 0.960 . S
C1737 H1724 0.961 . S
C1737 H1725 0.959 . S
C1737 C1735 1.561 . S
C1738 C1735 1.526 . S
C1738 C1739 1.396 . S
C1738 C1743 1.390 . S
C1739 C1733 1.465 . S
C1739 C1738 1.396 . S
C1739 C1740 1.399 . S
C1740 H1726 0.929 . S
C1740 C1739 1.399 . S
C1740 C1741 1.385 . S
C1741 H1727 0.931 . S
C1741 C1740 1.385 . S
C1741 C1742 1.389 . S
C1742 C1741 1.389 . S
C1742 C1743 1.387 . S
C1743 H1728 0.930 . S
C1743 C1738 1.390 . S
C1743 C1742 1.387 . S
H1744 C1756 0.930 . S
H1745 C1758 0.930 . S
H1746 C1759 0.930 . S
H1747 C1763 0.959 . S
H1748 C1763 0.959 . S
H1749 C1763 0.961 . S
H1750 C1764 0.960 . S
H1751 C1764 0.961 . S
H1752 C1764 0.959 . S
H1753 C1767 0.929 . S
H1754 C1768 0.931 . S
H1755 C1770 0.930 . S
C1756 H1744 0.930 . S
C1756 C1757 1.399 . S
C1756 C1761 1.399 . S
C1757 C1756 1.399 . S
C1757 C1758 1.376 . S
C1758 H1745 0.930 . S
C1758 C1757 1.376 . S
C1758 C1759 1.388 . S
C1759 H1746 0.930 . S
C1759 C1758 1.388 . S
C1759 C1760 1.390 . S
C1760 C1759 1.390 . S
C1760 C1761 1.394 . S
C1760 C1766 1.465 . S
C1761 C1756 1.399 . S
C1761 C1760 1.394 . S
C1761 C1762 1.516 . S
C1762 C1761 1.516 . S
C1762 C1763 1.502 . S
C1762 C1764 1.561 . S
C1762 C1765 1.526 . S
C1763 H1747 0.959 . S
C1763 H1748 0.959 . S
C1763 H1749 0.961 . S
C1763 C1762 1.502 . S
C1764 H1750 0.960 . S
C1764 H1751 0.961 . S
C1764 H1752 0.959 . S
C1764 C1762 1.561 . S
C1765 C1762 1.526 . S
C1765 C1766 1.396 . S
C1765 C1770 1.390 . S
C1766 C1760 1.465 . S
C1766 C1765 1.396 . S
C1766 C1767 1.399 . S
C1767 H1753 0.929 . S
C1767 C1766 1.399 . S
C1767 C1768 1.385 . S
C1768 H1754 0.931 . S
C1768 C1767 1.385 . S
C1768 C1769 1.389 . S
C1769 C1768 1.389 . S
C1769 C1770 1.387 . S
C1770 H1755 0.930 . S
C1770 C1765 1.390 . S
C1770 C1769 1.387 . S
H1771 C1783 0.930 . S
H1772 C1785 0.930 . S
H1773 C1786 0.930 . S
H1774 C1790 0.959 . S
H1775 C1790 0.959 . S
H1776 C1790 0.961 . S
H1777 C1791 0.960 . S
H1778 C1791 0.961 . S
H1779 C1791 0.959 . S
H1780 C1794 0.929 . S
H1781 C1795 0.931 . S
H1782 C1797 0.930 . S
C1783 H1771 0.930 . S
C1783 C1784 1.399 . S
C1783 C1788 1.399 . S
C1784 C1783 1.399 . S
C1784 C1785 1.376 . S
C1785 H1772 0.930 . S
C1785 C1784 1.376 . S
C1785 C1786 1.388 . S
C1786 H1773 0.930 . S
C1786 C1785 1.388 . S
C1786 C1787 1.390 . S
C1787 C1786 1.390 . S
C1787 C1788 1.394 . S
C1787 C1793 1.465 . S
C1788 C1783 1.399 . S
C1788 C1787 1.394 . S
C1788 C1789 1.516 . S
C1789 C1788 1.516 . S
C1789 C1790 1.502 . S
C1789 C1791 1.561 . S
C1789 C1792 1.526 . S
C1790 H1774 0.959 . S
C1790 H1775 0.959 . S
C1790 H1776 0.961 . S
C1790 C1789 1.502 . S
C1791 H1777 0.960 . S
C1791 H1778 0.961 . S
C1791 H1779 0.959 . S
C1791 C1789 1.561 . S
C1792 C1789 1.526 . S
C1792 C1793 1.396 . S
C1792 C1797 1.390 . S
C1793 C1787 1.465 . S
C1793 C1792 1.396 . S
C1793 C1794 1.399 . S
C1794 H1780 0.929 . S
C1794 C1793 1.399 . S
C1794 C1795 1.385 . S
C1795 H1781 0.931 . S
C1795 C1794 1.385 . S
C1795 C1796 1.389 . S
C1796 C1795 1.389 . S
C1796 C1797 1.387 . S
C1797 H1782 0.930 . S
C1797 C1792 1.390 . S
C1797 C1796 1.387 . S
H1798 C1810 0.930 . S
H1799 C1812 0.930 . S
H1800 C1813 0.930 . S
H1801 C1817 0.959 . S
H1802 C1817 0.959 . S
H1803 C1817 0.961 . S
H1804 C1818 0.960 . S
H1805 C1818 0.961 . S
H1806 C1818 0.959 . S
H1807 C1821 0.929 . S
H1808 C1822 0.931 . S
H1809 C1824 0.930 . S
C1810 H1798 0.930 . S
C1810 C1811 1.399 . S
C1810 C1815 1.399 . S
C1811 C1810 1.399 . S
C1811 C1812 1.376 . S
C1812 H1799 0.930 . S
C1812 C1811 1.376 . S
C1812 C1813 1.388 . S
C1813 H1800 0.930 . S
C1813 C1812 1.388 . S
C1813 C1814 1.390 . S
C1814 C1813 1.390 . S
C1814 C1815 1.394 . S
C1814 C1820 1.465 . S
C1815 C1810 1.399 . S
C1815 C1814 1.394 . S
C1815 C1816 1.516 . S
C1816 C1815 1.516 . S
C1816 C1817 1.502 . S
C1816 C1818 1.561 . S
C1816 C1819 1.526 . S
C1817 H1801 0.959 . S
C1817 H1802 0.959 . S
C1817 H1803 0.961 . S
C1817 C1816 1.502 . S
C1818 H1804 0.960 . S
C1818 H1805 0.961 . S
C1818 H1806 0.959 . S
C1818 C1816 1.561 . S
C1819 C1816 1.526 . S
C1819 C1820 1.396 . S
C1819 C1824 1.390 . S
C1820 C1814 1.465 . S
C1820 C1819 1.396 . S
C1820 C1821 1.399 . S
C1821 H1807 0.929 . S
C1821 C1820 1.399 . S
C1821 C1822 1.385 . S
C1822 H1808 0.931 . S
C1822 C1821 1.385 . S
C1822 C1823 1.389 . S
C1823 C1822 1.389 . S
C1823 C1824 1.387 . S
C1824 H1809 0.930 . S
C1824 C1819 1.390 . S
C1824 C1823 1.387 . S
H1825 C1837 0.930 . S
H1826 C1839 0.930 . S
H1827 C1840 0.930 . S
H1828 C1844 0.959 . S
H1829 C1844 0.959 . S
H1830 C1844 0.961 . S
H1831 C1845 0.960 . S
H1832 C1845 0.961 . S
H1833 C1845 0.959 . S
H1834 C1848 0.929 . S
H1835 C1849 0.931 . S
H1836 C1851 0.930 . S
C1837 H1825 0.930 . S
C1837 C1838 1.399 . S
C1837 C1842 1.399 . S
C1838 C1837 1.399 . S
C1838 C1839 1.376 . S
C1839 H1826 0.930 . S
C1839 C1838 1.376 . S
C1839 C1840 1.388 . S
C1840 H1827 0.930 . S
C1840 C1839 1.388 . S
C1840 C1841 1.390 . S
C1841 C1840 1.390 . S
C1841 C1842 1.394 . S
C1841 C1847 1.465 . S
C1842 C1837 1.399 . S
C1842 C1841 1.394 . S
C1842 C1843 1.516 . S
C1843 C1842 1.516 . S
C1843 C1844 1.502 . S
C1843 C1845 1.561 . S
C1843 C1846 1.526 . S
C1844 H1828 0.959 . S
C1844 H1829 0.959 . S
C1844 H1830 0.961 . S
C1844 C1843 1.502 . S
C1845 H1831 0.960 . S
C1845 H1832 0.961 . S
C1845 H1833 0.959 . S
C1845 C1843 1.561 . S
C1846 C1843 1.526 . S
C1846 C1847 1.396 . S
C1846 C1851 1.390 . S
C1847 C1841 1.465 . S
C1847 C1846 1.396 . S
C1847 C1848 1.399 . S
C1848 H1834 0.929 . S
C1848 C1847 1.399 . S
C1848 C1849 1.385 . S
C1849 H1835 0.931 . S
C1849 C1848 1.385 . S
C1849 C1850 1.389 . S
C1850 C1849 1.389 . S
C1850 C1851 1.387 . S
C1851 H1836 0.930 . S
C1851 C1846 1.390 . S
C1851 C1850 1.387 . S
H1852 C1864 0.930 . S
H1853 C1866 0.930 . S
H1854 C1867 0.930 . S
H1855 C1871 0.959 . S
H1856 C1871 0.959 . S
H1857 C1871 0.961 . S
H1858 C1872 0.960 . S
H1859 C1872 0.961 . S
H1860 C1872 0.959 . S
H1861 C1875 0.929 . S
H1862 C1876 0.931 . S
H1863 C1878 0.930 . S
C1864 H1852 0.930 . S
C1864 C1865 1.399 . S
C1864 C1869 1.399 . S
C1865 C1864 1.399 . S
C1865 C1866 1.376 . S
C1866 H1853 0.930 . S
C1866 C1865 1.376 . S
C1866 C1867 1.388 . S
C1867 H1854 0.930 . S
C1867 C1866 1.388 . S
C1867 C1868 1.390 . S
C1868 C1867 1.390 . S
C1868 C1869 1.394 . S
C1868 C1874 1.465 . S
C1869 C1864 1.399 . S
C1869 C1868 1.394 . S
C1869 C1870 1.516 . S
C1870 C1869 1.516 . S
C1870 C1871 1.502 . S
C1870 C1872 1.561 . S
C1870 C1873 1.526 . S
C1871 H1855 0.959 . S
C1871 H1856 0.959 . S
C1871 H1857 0.961 . S
C1871 C1870 1.502 . S
C1872 H1858 0.960 . S
C1872 H1859 0.961 . S
C1872 H1860 0.959 . S
C1872 C1870 1.561 . S
C1873 C1870 1.526 . S
C1873 C1874 1.396 . S
C1873 C1878 1.390 . S
C1874 C1868 1.465 . S
C1874 C1873 1.396 . S
C1874 C1875 1.399 . S
C1875 H1861 0.929 . S
C1875 C1874 1.399 . S
C1875 C1876 1.385 . S
C1876 H1862 0.931 . S
C1876 C1875 1.385 . S
C1876 C1877 1.389 . S
C1877 C1876 1.389 . S
C1877 C1878 1.387 . S
C1878 H1863 0.930 . S
C1878 C1873 1.390 . S
C1878 C1877 1.387 . S
H1879 C1891 0.930 . S
H1880 C1893 0.930 . S
H1881 C1894 0.930 . S
H1882 C1898 0.959 . S
H1883 C1898 0.959 . S
H1884 C1898 0.961 . S
H1885 C1899 0.960 . S
H1886 C1899 0.961 . S
H1887 C1899 0.959 . S
H1888 C1902 0.929 . S
H1889 C1903 0.931 . S
H1890 C1905 0.930 . S
C1891 H1879 0.930 . S
C1891 C1892 1.399 . S
C1891 C1896 1.399 . S
C1892 C1891 1.399 . S
C1892 C1893 1.376 . S
C1893 H1880 0.930 . S
C1893 C1892 1.376 . S
C1893 C1894 1.388 . S
C1894 H1881 0.930 . S
C1894 C1893 1.388 . S
C1894 C1895 1.390 . S
C1895 C1894 1.390 . S
C1895 C1896 1.394 . S
C1895 C1901 1.465 . S
C1896 C1891 1.399 . S
C1896 C1895 1.394 . S
C1896 C1897 1.516 . S
C1897 C1896 1.516 . S
C1897 C1898 1.502 . S
C1897 C1899 1.561 . S
C1897 C1900 1.526 . S
C1898 H1882 0.959 . S
C1898 H1883 0.959 . S
C1898 H1884 0.961 . S
C1898 C1897 1.502 . S
C1899 H1885 0.960 . S
C1899 H1886 0.961 . S
C1899 H1887 0.959 . S
C1899 C1897 1.561 . S
C1900 C1897 1.526 . S
C1900 C1901 1.396 . S
C1900 C1905 1.390 . S
C1901 C1895 1.465 . S
C1901 C1900 1.396 . S
C1901 C1902 1.399 . S
C1902 H1888 0.929 . S
C1902 C1901 1.399 . S
C1902 C1903 1.385 . S
C1903 H1889 0.931 . S
C1903 C1902 1.385 . S
C1903 C1904 1.389 . S
C1904 C1903 1.389 . S
C1904 C1905 1.387 . S
C1905 H1890 0.930 . S
C1905 C1900 1.390 . S
C1905 C1904 1.387 . S
H1906 C1918 0.930 . S
H1907 C1920 0.930 . S
H1908 C1921 0.930 . S
H1909 C1925 0.959 . S
H1910 C1925 0.959 . S
H1911 C1925 0.961 . S
H1912 C1926 0.960 . S
H1913 C1926 0.961 . S
H1914 C1926 0.959 . S
H1915 C1929 0.929 . S
H1916 C1930 0.931 . S
H1917 C1932 0.930 . S
C1918 H1906 0.930 . S
C1918 C1919 1.399 . S
C1918 C1923 1.399 . S
C1919 C1918 1.399 . S
C1919 C1920 1.376 . S
C1920 H1907 0.930 . S
C1920 C1919 1.376 . S
C1920 C1921 1.388 . S
C1921 H1908 0.930 . S
C1921 C1920 1.388 . S
C1921 C1922 1.390 . S
C1922 C1921 1.390 . S
C1922 C1923 1.394 . S
C1922 C1928 1.465 . S
C1923 C1918 1.399 . S
C1923 C1922 1.394 . S
C1923 C1924 1.516 . S
C1924 C1923 1.516 . S
C1924 C1925 1.502 . S
C1924 C1926 1.561 . S
C1924 C1927 1.526 . S
C1925 H1909 0.959 . S
C1925 H1910 0.959 . S
C1925 H1911 0.961 . S
C1925 C1924 1.502 . S
C1926 H1912 0.960 . S
C1926 H1913 0.961 . S
C1926 H1914 0.959 . S
C1926 C1924 1.561 . S
C1927 C1924 1.526 . S
C1927 C1928 1.396 . S
C1927 C1932 1.390 . S
C1928 C1922 1.465 . S
C1928 C1927 1.396 . S
C1928 C1929 1.399 . S
C1929 H1915 0.929 . S
C1929 C1928 1.399 . S
C1929 C1930 1.385 . S
C1930 H1916 0.931 . S
C1930 C1929 1.385 . S
C1930 C1931 1.389 . S
C1931 C1930 1.389 . S
C1931 C1932 1.387 . S
C1932 H1917 0.930 . S
C1932 C1927 1.390 . S
C1932 C1931 1.387 . S
H1933 C1945 0.930 . S
H1934 C1947 0.930 . S
H1935 C1948 0.930 . S
H1936 C1952 0.959 . S
H1937 C1952 0.959 . S
H1938 C1952 0.961 . S
H1939 C1953 0.960 . S
H1940 C1953 0.961 . S
H1941 C1953 0.959 . S
H1942 C1956 0.929 . S
H1943 C1957 0.931 . S
H1944 C1959 0.930 . S
C1945 H1933 0.930 . S
C1945 C1946 1.399 . S
C1945 C1950 1.399 . S
C1946 C1945 1.399 . S
C1946 C1947 1.376 . S
C1947 H1934 0.930 . S
C1947 C1946 1.376 . S
C1947 C1948 1.388 . S
C1948 H1935 0.930 . S
C1948 C1947 1.388 . S
C1948 C1949 1.390 . S
C1949 C1948 1.390 . S
C1949 C1950 1.394 . S
C1949 C1955 1.465 . S
C1950 C1945 1.399 . S
C1950 C1949 1.394 . S
C1950 C1951 1.516 . S
C1951 C1950 1.516 . S
C1951 C1952 1.502 . S
C1951 C1953 1.561 . S
C1951 C1954 1.526 . S
C1952 H1936 0.959 . S
C1952 H1937 0.959 . S
C1952 H1938 0.961 . S
C1952 C1951 1.502 . S
C1953 H1939 0.960 . S
C1953 H1940 0.961 . S
C1953 H1941 0.959 . S
C1953 C1951 1.561 . S
C1954 C1951 1.526 . S
C1954 C1955 1.396 . S
C1954 C1959 1.390 . S
C1955 C1949 1.465 . S
C1955 C1954 1.396 . S
C1955 C1956 1.399 . S
C1956 H1942 0.929 . S
C1956 C1955 1.399 . S
C1956 C1957 1.385 . S
C1957 H1943 0.931 . S
C1957 C1956 1.385 . S
C1957 C1958 1.389 . S
C1958 C1957 1.389 . S
C1958 C1959 1.387 . S
C1959 H1944 0.930 . S
C1959 C1954 1.390 . S
C1959 C1958 1.387 . S
H1960 C1972 0.930 . S
H1961 C1974 0.930 . S
H1962 C1975 0.930 . S
H1963 C1979 0.959 . S
H1964 C1979 0.959 . S
H1965 C1979 0.961 . S
H1966 C1980 0.960 . S
H1967 C1980 0.961 . S
H1968 C1980 0.959 . S
H1969 C1983 0.929 . S
H1970 C1984 0.931 . S
H1971 C1986 0.930 . S
C1972 H1960 0.930 . S
C1972 C1973 1.399 . S
C1972 C1977 1.399 . S
C1973 C1972 1.399 . S
C1973 C1974 1.376 . S
C1974 H1961 0.930 . S
C1974 C1973 1.376 . S
C1974 C1975 1.388 . S
C1975 H1962 0.930 . S
C1975 C1974 1.388 . S
C1975 C1976 1.390 . S
C1976 C1975 1.390 . S
C1976 C1977 1.394 . S
C1976 C1982 1.465 . S
C1977 C1972 1.399 . S
C1977 C1976 1.394 . S
C1977 C1978 1.516 . S
C1978 C1977 1.516 . S
C1978 C1979 1.502 . S
C1978 C1980 1.561 . S
C1978 C1981 1.526 . S
C1979 H1963 0.959 . S
C1979 H1964 0.959 . S
C1979 H1965 0.961 . S
C1979 C1978 1.502 . S
C1980 H1966 0.960 . S
C1980 H1967 0.961 . S
C1980 H1968 0.959 . S
C1980 C1978 1.561 . S
C1981 C1978 1.526 . S
C1981 C1982 1.396 . S
C1981 C1986 1.390 . S
C1982 C1976 1.465 . S
C1982 C1981 1.396 . S
C1982 C1983 1.399 . S
C1983 H1969 0.929 . S
C1983 C1982 1.399 . S
C1983 C1984 1.385 . S
C1984 H1970 0.931 . S
C1984 C1983 1.385 . S
C1984 C1985 1.389 . S
C1985 C1984 1.389 . S
C1985 C1986 1.387 . S
C1986 H1971 0.930 . S
C1986 C1981 1.390 . S
C1986 C1985 1.387 . S
H1987 C1999 0.930 . S
H1988 C2001 0.930 . S
H1989 C2002 0.930 . S
H1990 C2006 0.959 . S
H1991 C2006 0.959 . S
H1992 C2006 0.961 . S
H1993 C2007 0.960 . S
H1994 C2007 0.961 . S
H1995 C2007 0.959 . S
H1996 C2010 0.929 . S
H1997 C2011 0.931 . S
H1998 C2013 0.930 . S
C1999 H1987 0.930 . S
C1999 C2000 1.399 . S
C1999 C2004 1.399 . S
C2000 C1999 1.399 . S
C2000 C2001 1.376 . S
C2001 H1988 0.930 . S
C2001 C2000 1.376 . S
C2001 C2002 1.388 . S
C2002 H1989 0.930 . S
C2002 C2001 1.388 . S
C2002 C2003 1.390 . S
C2003 C2002 1.390 . S
C2003 C2004 1.394 . S
C2003 C2009 1.465 . S
C2004 C1999 1.399 . S
C2004 C2003 1.394 . S
C2004 C2005 1.516 . S
C2005 C2004 1.516 . S
C2005 C2006 1.502 . S
C2005 C2007 1.561 . S
C2005 C2008 1.526 . S
C2006 H1990 0.959 . S
C2006 H1991 0.959 . S
C2006 H1992 0.961 . S
C2006 C2005 1.502 . S
C2007 H1993 0.960 . S
C2007 H1994 0.961 . S
C2007 H1995 0.959 . S
C2007 C2005 1.561 . S
C2008 C2005 1.526 . S
C2008 C2009 1.396 . S
C2008 C2013 1.390 . S
C2009 C2003 1.465 . S
C2009 C2008 1.396 . S
C2009 C2010 1.399 . S
C2010 H1996 0.929 . S
C2010 C2009 1.399 . S
C2010 C2011 1.385 . S
C2011 H1997 0.931 . S
C2011 C2010 1.385 . S
C2011 C2012 1.389 . S
C2012 C2011 1.389 . S
C2012 C2013 1.387 . S
C2013 H1998 0.930 . S
C2013 C2008 1.390 . S
C2013 C2012 1.387 . S
H2014 C2026 0.930 . S
H2015 C2028 0.930 . S
H2016 C2029 0.930 . S
H2017 C2033 0.959 . S
H2018 C2033 0.959 . S
H2019 C2033 0.961 . S
H2020 C2034 0.960 . S
H2021 C2034 0.961 . S
H2022 C2034 0.959 . S
H2023 C2037 0.929 . S
H2024 C2038 0.931 . S
H2025 C2040 0.930 . S
C2026 H2014 0.930 . S
C2026 C2027 1.399 . S
C2026 C2031 1.399 . S
C2027 C2026 1.399 . S
C2027 C2028 1.376 . S
C2028 H2015 0.930 . S
C2028 C2027 1.376 . S
C2028 C2029 1.388 . S
C2029 H2016 0.930 . S
C2029 C2028 1.388 . S
C2029 C2030 1.390 . S
C2030 C2029 1.390 . S
C2030 C2031 1.394 . S
C2030 C2036 1.465 . S
C2031 C2026 1.399 . S
C2031 C2030 1.394 . S
C2031 C2032 1.516 . S
C2032 C2031 1.516 . S
C2032 C2033 1.502 . S
C2032 C2034 1.561 . S
C2032 C2035 1.526 . S
C2033 H2017 0.959 . S
C2033 H2018 0.959 . S
C2033 H2019 0.961 . S
C2033 C2032 1.502 . S
C2034 H2020 0.960 . S
C2034 H2021 0.961 . S
C2034 H2022 0.959 . S
C2034 C2032 1.561 . S
C2035 C2032 1.526 . S
C2035 C2036 1.396 . S
C2035 C2040 1.390 . S
C2036 C2030 1.465 . S
C2036 C2035 1.396 . S
C2036 C2037 1.399 . S
C2037 H2023 0.929 . S
C2037 C2036 1.399 . S
C2037 C2038 1.385 . S
C2038 H2024 0.931 . S
C2038 C2037 1.385 . S
C2038 C2039 1.389 . S
C2039 C2038 1.389 . S
C2039 C2040 1.387 . S
C2040 H2025 0.930 . S
C2040 C2035 1.390 . S
C2040 C2039 1.387 . S
H2041 C2053 0.930 . S
H2042 C2055 0.930 1_655 S
H2043 C2056 0.930 . S
H2044 C2060 0.959 . S
H2045 C2060 0.959 . S
H2046 C2060 0.961 . S
H2047 C2061 0.960 . S
H2048 C2061 0.961 . S
H2049 C2061 0.959 . S
H2050 C2064 0.929 . S
H2051 C2065 0.931 . S
H2052 C2067 0.930 . S
C2053 H2041 0.930 . S
C2053 C2054 1.399 . S
C2053 C2058 1.399 . S
C2054 C2053 1.399 . S
C2054 C2055 1.376 . S
C2055 H2042 0.930 1_455 S
C2055 C2054 1.376 . S
C2055 C2056 1.388 . S
C2056 H2043 0.930 . S
C2056 C2055 1.388 . S
C2056 C2057 1.390 . S
C2057 C2056 1.390 . S
C2057 C2058 1.394 . S
C2057 C2063 1.465 . S
C2058 C2053 1.399 . S
C2058 C2057 1.394 . S
C2058 C2059 1.516 . S
C2059 C2058 1.516 . S
C2059 C2060 1.502 . S
C2059 C2061 1.561 . S
C2059 C2062 1.526 . S
C2060 H2044 0.959 . S
C2060 H2045 0.959 . S
C2060 H2046 0.961 . S
C2060 C2059 1.502 . S
C2061 H2047 0.960 . S
C2061 H2048 0.961 . S
C2061 H2049 0.959 . S
C2061 C2059 1.561 . S
C2062 C2059 1.526 . S
C2062 C2063 1.396 . S
C2062 C2067 1.390 . S
C2063 C2057 1.465 . S
C2063 C2062 1.396 . S
C2063 C2064 1.399 . S
C2064 H2050 0.929 . S
C2064 C2063 1.399 . S
C2064 C2065 1.385 . S
C2065 H2051 0.931 . S
C2065 C2064 1.385 . S
C2065 C2066 1.389 . S
C2066 C2065 1.389 . S
C2066 C2067 1.387 . S
C2067 H2052 0.930 . S
C2067 C2062 1.390 . S
C2067 C2066 1.387 . S
H2068 C2080 0.930 . S
H2069 C2082 0.930 . S
H2070 C2083 0.930 . S
H2071 C2087 0.959 . S
H2072 C2087 0.959 . S
H2073 C2087 0.961 . S
H2074 C2088 0.960 . S
H2075 C2088 0.961 . S
H2076 C2088 0.959 . S
H2077 C2091 0.929 . S
H2078 C2092 0.931 . S
H2079 C2094 0.930 . S
C2080 H2068 0.930 . S
C2080 C2081 1.399 . S
C2080 C2085 1.399 . S
C2081 C2080 1.399 . S
C2081 C2082 1.376 . S
C2082 H2069 0.930 . S
C2082 C2081 1.376 . S
C2082 C2083 1.388 . S
C2083 H2070 0.930 . S
C2083 C2082 1.388 . S
C2083 C2084 1.390 . S
C2084 C2083 1.390 . S
C2084 C2085 1.394 . S
C2084 C2090 1.465 . S
C2085 C2080 1.399 . S
C2085 C2084 1.394 . S
C2085 C2086 1.516 . S
C2086 C2085 1.516 . S
C2086 C2087 1.502 . S
C2086 C2088 1.561 . S
C2086 C2089 1.526 . S
C2087 H2071 0.959 . S
C2087 H2072 0.959 . S
C2087 H2073 0.961 . S
C2087 C2086 1.502 . S
C2088 H2074 0.960 . S
C2088 H2075 0.961 . S
C2088 H2076 0.959 . S
C2088 C2086 1.561 . S
C2089 C2086 1.526 . S
C2089 C2090 1.396 . S
C2089 C2094 1.390 . S
C2090 C2084 1.465 . S
C2090 C2089 1.396 . S
C2090 C2091 1.399 . S
C2091 H2077 0.929 . S
C2091 C2090 1.399 . S
C2091 C2092 1.385 . S
C2092 H2078 0.931 . S
C2092 C2091 1.385 . S
C2092 C2093 1.389 . S
C2093 C2092 1.389 . S
C2093 C2094 1.387 . S
C2094 H2079 0.930 . S
C2094 C2089 1.390 . S
C2094 C2093 1.387 . S
H2095 C2107 0.930 . S
H2096 C2109 0.930 . S
H2097 C2110 0.930 . S
H2098 C2114 0.959 . S
H2099 C2114 0.959 . S
H2100 C2114 0.961 . S
H2101 C2115 0.960 . S
H2102 C2115 0.961 . S
H2103 C2115 0.959 . S
H2104 C2118 0.929 . S
H2105 C2119 0.950 . S
H2106 C2121 0.930 . S
C2107 H2095 0.930 . S
C2107 C2108 1.399 . S
C2107 C2112 1.399 . S
C2108 C2107 1.399 . S
C2108 C2109 1.376 . S
C2109 H2096 0.930 . S
C2109 C2108 1.376 . S
C2109 C2110 1.388 . S
C2110 H2097 0.930 . S
C2110 C2109 1.388 . S
C2110 C2111 1.390 . S
C2111 C2110 1.390 . S
C2111 C2112 1.394 . S
C2111 C2117 1.465 . S
C2112 C2107 1.399 . S
C2112 C2111 1.394 . S
C2112 C2113 1.516 . S
C2113 C2112 1.516 . S
C2113 C2114 1.502 . S
C2113 C2115 1.561 . S
C2113 C2116 1.526 . S
C2114 H2098 0.959 . S
C2114 H2099 0.959 . S
C2114 H2100 0.961 . S
C2114 C2113 1.502 . S
C2115 H2101 0.960 . S
C2115 H2102 0.961 . S
C2115 H2103 0.959 . S
C2115 C2113 1.561 . S
C2116 C2113 1.526 . S
C2116 C2117 1.396 . S
C2116 C2121 1.390 . S
C2117 C2111 1.465 . S
C2117 C2116 1.396 . S
C2117 C2118 1.399 . S
C2118 H2104 0.929 . S
C2118 C2117 1.399 . S
C2118 C2119 1.385 . S
C2119 H2105 0.950 . S
C2119 C2118 1.385 . S
C2119 C2120 1.389 . S
C2120 C2119 1.389 . S
C2120 C2121 1.387 . S
C2121 H2106 0.930 . S
C2121 C2116 1.390 . S
C2121 C2120 1.387 . S
H2122 C2134 0.930 . S
H2123 C2136 0.930 . S
H2124 C2137 0.930 . S
H2125 C2141 0.959 . S
H2126 C2141 0.959 . S
H2127 C2141 0.961 . S
H2128 C2142 0.960 . S
H2129 C2142 0.961 . S
H2130 C2142 0.959 . S
H2131 C2145 0.929 . S
H2132 C2146 0.931 . S
H2133 C2148 0.930 . S
C2134 H2122 0.930 . S
C2134 C2135 1.399 . S
C2134 C2139 1.399 . S
C2135 C2134 1.399 . S
C2135 C2136 1.376 . S
C2136 H2123 0.930 . S
C2136 C2135 1.376 . S
C2136 C2137 1.388 . S
C2137 H2124 0.930 . S
C2137 C2136 1.388 . S
C2137 C2138 1.390 . S
C2138 C2137 1.390 . S
C2138 C2139 1.394 . S
C2138 C2144 1.465 . S
C2139 C2134 1.399 . S
C2139 C2138 1.394 . S
C2139 C2140 1.516 . S
C2140 C2139 1.516 . S
C2140 C2141 1.502 . S
C2140 C2142 1.561 . S
C2140 C2143 1.526 . S
C2141 H2125 0.959 . S
C2141 H2126 0.959 . S
C2141 H2127 0.961 . S
C2141 C2140 1.502 . S
C2142 H2128 0.960 . S
C2142 H2129 0.961 . S
C2142 H2130 0.959 . S
C2142 C2140 1.561 . S
C2143 C2140 1.526 . S
C2143 C2144 1.396 . S
C2143 C2148 1.390 . S
C2144 C2138 1.465 . S
C2144 C2143 1.396 . S
C2144 C2145 1.399 . S
C2145 H2131 0.929 . S
C2145 C2144 1.399 . S
C2145 C2146 1.385 . S
C2146 H2132 0.931 . S
C2146 C2145 1.385 . S
C2146 C2147 1.389 . S
C2147 C2146 1.389 . S
C2147 C2148 1.387 . S
C2148 H2133 0.930 . S
C2148 C2143 1.390 . S
C2148 C2147 1.387 . S
H2149 C2161 0.930 . S
H2150 C2163 0.930 . S
H2151 C2164 0.930 . S
H2152 C2168 0.959 . S
H2153 C2168 0.959 . S
H2154 C2168 0.961 . S
H2155 C2169 0.960 . S
H2156 C2169 0.961 . S
H2157 C2169 0.959 . S
H2158 C2172 0.929 . S
H2159 C2173 0.931 . S
H2160 C2175 0.930 . S
C2161 H2149 0.930 . S
C2161 C2162 1.399 . S
C2161 C2166 1.399 . S
C2162 C2161 1.399 . S
C2162 C2163 1.376 . S
C2163 H2150 0.930 . S
C2163 C2162 1.376 . S
C2163 C2164 1.388 . S
C2164 H2151 0.930 . S
C2164 C2163 1.388 . S
C2164 C2165 1.390 . S
C2165 C2164 1.390 . S
C2165 C2166 1.394 . S
C2165 C2171 1.465 . S
C2166 C2161 1.399 . S
C2166 C2165 1.394 . S
C2166 C2167 1.516 . S
C2167 C2166 1.516 . S
C2167 C2168 1.502 . S
C2167 C2169 1.561 . S
C2167 C2170 1.526 . S
C2168 H2152 0.959 . S
C2168 H2153 0.959 . S
C2168 H2154 0.961 . S
C2168 C2167 1.502 . S
C2169 H2155 0.960 . S
C2169 H2156 0.961 . S
C2169 H2157 0.959 . S
C2169 C2167 1.561 . S
C2170 C2167 1.526 . S
C2170 C2171 1.396 . S
C2170 C2175 1.390 . S
C2171 C2165 1.465 . S
C2171 C2170 1.396 . S
C2171 C2172 1.399 . S
C2172 H2158 0.929 . S
C2172 C2171 1.399 . S
C2172 C2173 1.385 . S
C2173 H2159 0.931 . S
C2173 C2172 1.385 . S
C2173 C2174 1.389 . S
C2174 C2173 1.389 . S
C2174 C2175 1.387 . S
C2175 H2160 0.930 . S
C2175 C2170 1.390 . S
C2175 C2174 1.387 . S
C461 C62 1.521 . S
C473 C6 1.480 . S
C488 C76 1.479 . S
C500 C20 1.508 . S
C515 C90 1.530 . S
C527 C34 1.482 . S
C542 C48 1.557 . S
C554 C104 1.528 . S
C569 C118 1.557 . S
C581 C174 1.494 . S
C596 C188 1.527 . S
C608 C132 1.481 . S
C623 C146 1.478 . S
C635 C202 1.534 . S
C650 C216 1.519 . S
C662 C160 1.484 . S
C677 C230 1.542 . S
C689 C286 1.490 . S
C704 C300 1.556 . S
C716 C244 1.512 . S
C731 C314 1.517 . S
C743 C258 1.556 . S
C758 C328 1.479 . S
C770 C272 1.505 . S
C785 C342 1.478 . S
C797 C398 1.534 . S
C812 C356 1.523 . S
C824 C412 1.482 . S
C839 C370 1.557 . S
C851 C426 1.499 . S
C866 C384 1.500 . S
C878 C440 1.556 . S
C893 C8 1.729 1_565 S
C905 C106 1.758 . S
C920 C22 1.727 . S
C932 C64 1.758 1_545 S
C947 C36 1.746 1_545 S
C959 C78 1.724 . S
C974 C92 1.731 1_565 S
C986 C50 1.759 . S
C1001 C218 1.758 . S
C1013 C120 1.728 1_545 S
C1028 C176 1.725 1_565 S
C1040 C134 1.753 . S
C1055 C190 1.738 . S
C1067 C148 1.750 1_565 S
C1082 C162 1.753 . S
C1094 C204 1.735 1_545 S
C1109 C330 1.752 . S
C1121 C232 1.724 . S
C1136 C288 1.737 . S
C1148 C246 1.728 . S
C1163 C302 1.723 . S
C1175 C260 1.747 . S
C1190 C274 1.736 . S
C1202 C316 1.758 . S
C1217 C344 1.736 . S
C1229 C442 1.752 . S
C1244 C358 1.749 . S
C1256 C400 1.728 . S
C1271 C372 1.727 . S
C1283 C414 1.749 . S
C1298 C428 1.724 . S
C1310 C386 1.753 . S
C1325 C9 1.389 . S
C1337 C357 1.439 . S
C1352 C23 1.392 . S
C1364 C147 1.428 1_455 S
C1379 C37 1.447 . S
C1391 C385 1.389 . S
C1406 C119 1.432 . S
C1418 C51 1.391 . S
C1433 C441 1.392 . S
C1445 C65 1.422 . S
C1460 C79 1.390 . S
C1472 C175 1.437 . S
C1487 C93 1.393 . S
C1499 C413 1.445 . S
C1514 C107 1.430 . S
C1526 C203 1.425 1_455 S
C1541 C245 1.384 . S
C1553 C121 1.433 . S
C1568 C35 1.418 1_655 S
C1580 C135 1.446 . S
C1595 C273 1.385 . S
C1607 C149 1.434 . S
C1622 C163 1.405 . S
C1634 C7 1.392 . S
C1649 C329 1.444 . S
C1661 C177 1.404 . S
C1676 C63 1.402 . S
C1688 C191 1.447 . S
C1703 C301 1.414 . S
C1715 C205 1.447 . S
C1730 C91 1.442 1_655 S
C1742 C219 1.426 . S
C1757 C133 1.394 . S
C1769 C233 1.420 . S
C1784 C247 1.446 . S
C1796 C371 1.387 . S
C1811 C261 1.415 . S
C1823 C161 1.398 . S
C1838 C275 1.442 . S
C1850 C343 1.409 1_655 S
C1865 C289 1.395 . S
C1877 C217 1.445 . S
C1892 C399 1.384 1_655 S
C1904 C303 1.444 . S
C1919 C317 1.391 . S
C1931 C189 1.432 . S
C1946 C331 1.436 . S
C1958 C427 1.385 . S
C1973 C345 1.420 . S
C1985 C21 1.385 . S
C2000 C359 1.436 . S
C2012 C259 1.387 . S
C2027 C49 1.440 . S
C2039 C373 1.397 . S
C2054 C231 1.397 1_455 S
C2066 C387 1.400 . S
C2081 C401 1.402 . S
C2093 C105 1.443 . S
C2108 C415 1.430 . S
C2120 C287 1.385 1_455 S
C2135 C77 1.439 . S
C2147 C429 1.396 . S
C2162 C315 1.388 . S
C2174 C443 1.440 . S
