# Generated by pormake.
# Topology gis, (4)-cn, num edge types: 1
# Building blocks:
#     Node 0, Type 0, BuildingBlock: AZAVOO_clean_sbu_0, # of connection points: 4
#     Node 1, Type 0, BuildingBlock: AZAVOO_clean_sbu_0, # of connection points: 4
#     Node 2, Type 0, BuildingBlock: AZAVOO_clean_sbu_0, # of connection points: 4
#     Node 3, Type 0, BuildingBlock: AZAVOO_clean_sbu_0, # of connection points: 4
#     Node 4, Type 0, BuildingBlock: AZAVOO_clean_sbu_0, # of connection points: 4
#     Node 5, Type 0, BuildingBlock: AZAVOO_clean_sbu_0, # of connection points: 4
#     Node 6, Type 0, BuildingBlock: AZAVOO_clean_sbu_0, # of connection points: 4
#     Node 7, Type 0, BuildingBlock: AZAVOO_clean_sbu_0, # of connection points: 4
#     Node 8, Type 0, BuildingBlock: AZAVOO_clean_sbu_0, # of connection points: 4
#     Node 9, Type 0, BuildingBlock: AZAVOO_clean_sbu_0, # of connection points: 4
#     Node 10, Type 0, BuildingBlock: AZAVOO_clean_sbu_0, # of connection points: 4
#     Node 11, Type 0, BuildingBlock: AZAVOO_clean_sbu_0, # of connection points: 4
#     Node 12, Type 0, BuildingBlock: AZAVOO_clean_sbu_0, # of connection points: 4
#     Node 13, Type 0, BuildingBlock: AZAVOO_clean_sbu_0, # of connection points: 4
#     Node 14, Type 0, BuildingBlock: AZAVOO_clean_sbu_0, # of connection points: 4
#     Node 15, Type 0, BuildingBlock: AZAVOO_clean_sbu_0, # of connection points: 4
#     Edge 16, Type (0, 0), BuildingBlock: TEMPAE_clean_linker_10, # of connection points: 2
#     Edge 17, Type (0, 0), BuildingBlock: TEMPAE_clean_linker_10, # of connection points: 2
#     Edge 18, Type (0, 0), BuildingBlock: TEMPAE_clean_linker_10, # of connection points: 2
#     Edge 19, Type (0, 0), BuildingBlock: TEMPAE_clean_linker_10, # of connection points: 2
#     Edge 20, Type (0, 0), BuildingBlock: TEMPAE_clean_linker_10, # of connection points: 2
#     Edge 21, Type (0, 0), BuildingBlock: TEMPAE_clean_linker_10, # of connection points: 2
#     Edge 22, Type (0, 0), BuildingBlock: TEMPAE_clean_linker_10, # of connection points: 2
#     Edge 23, Type (0, 0), BuildingBlock: TEMPAE_clean_linker_10, # of connection points: 2
#     Edge 24, Type (0, 0), BuildingBlock: TEMPAE_clean_linker_10, # of connection points: 2
#     Edge 25, Type (0, 0), BuildingBlock: TEMPAE_clean_linker_10, # of connection points: 2
#     Edge 26, Type (0, 0), BuildingBlock: TEMPAE_clean_linker_10, # of connection points: 2
#     Edge 27, Type (0, 0), BuildingBlock: TEMPAE_clean_linker_10, # of connection points: 2
#     Edge 28, Type (0, 0), BuildingBlock: TEMPAE_clean_linker_10, # of connection points: 2
#     Edge 29, Type (0, 0), BuildingBlock: TEMPAE_clean_linker_10, # of connection points: 2
#     Edge 30, Type (0, 0), BuildingBlock: TEMPAE_clean_linker_10, # of connection points: 2
#     Edge 31, Type (0, 0), BuildingBlock: TEMPAE_clean_linker_10, # of connection points: 2
#     Edge 32, Type (0, 0), BuildingBlock: TEMPAE_clean_linker_10, # of connection points: 2
#     Edge 33, Type (0, 0), BuildingBlock: TEMPAE_clean_linker_10, # of connection points: 2
#     Edge 34, Type (0, 0), BuildingBlock: TEMPAE_clean_linker_10, # of connection points: 2
#     Edge 35, Type (0, 0), BuildingBlock: TEMPAE_clean_linker_10, # of connection points: 2
#     Edge 36, Type (0, 0), BuildingBlock: TEMPAE_clean_linker_10, # of connection points: 2
#     Edge 37, Type (0, 0), BuildingBlock: TEMPAE_clean_linker_10, # of connection points: 2
#     Edge 38, Type (0, 0), BuildingBlock: TEMPAE_clean_linker_10, # of connection points: 2
#     Edge 39, Type (0, 0), BuildingBlock: TEMPAE_clean_linker_10, # of connection points: 2
#     Edge 40, Type (0, 0), BuildingBlock: TEMPAE_clean_linker_10, # of connection points: 2
#     Edge 41, Type (0, 0), BuildingBlock: TEMPAE_clean_linker_10, # of connection points: 2
#     Edge 42, Type (0, 0), BuildingBlock: TEMPAE_clean_linker_10, # of connection points: 2
#     Edge 43, Type (0, 0), BuildingBlock: TEMPAE_clean_linker_10, # of connection points: 2
#     Edge 44, Type (0, 0), BuildingBlock: TEMPAE_clean_linker_10, # of connection points: 2
#     Edge 45, Type (0, 0), BuildingBlock: TEMPAE_clean_linker_10, # of connection points: 2
#     Edge 46, Type (0, 0), BuildingBlock: TEMPAE_clean_linker_10, # of connection points: 2
#     Edge 47, Type (0, 0), BuildingBlock: TEMPAE_clean_linker_10, # of connection points: 2
# Relax obj value: 0.172
# Max RMSD: 0.156
# Mean RMSD: 0.154
data_MOF--net-gis--node1-AZAVOO_clean_sbu_0--edge1-TEMPAE_clean_linker_10
_symmetry_space_group_name_H-M    P1
_symmetry_Int_Tables_number       1
_symmetry_cell_setting            triclinic
loop_
_symmetry_equiv_pos_as_xyz
'x, y, z'
_cell_length_a     46.181255
_cell_length_b     44.093324
_cell_length_c     50.877173
_cell_angle_alpha  90.027676
_cell_angle_beta   90.011005
_cell_angle_gamma 90.108763
loop_
_atom_site_label
_atom_site_type_symbol
_atom_site_fract_x
_atom_site_fract_y
_atom_site_fract_z
_atom_type_partial_charge
Mg0 Mg 0.19432 0.65549 0.1148 0.0
O1 O 0.14602 0.64791 0.12331 0.0
O2 O 0.13487 0.67197 0.16083 0.0
Mg3 Mg 0.17527 0.69629 0.17541 0.0
C4 C 0.12802 0.65538 0.14123 0.0
C5 C 0.20129 0.62178 0.06122 0.0
O6 O 0.21095 0.64877 0.05463 0.0
O7 O 0.20581 0.6224 0.14767 0.0
O8 O 0.19352 0.6491 0.18341 0.0
O9 O 0.18362 0.69702 0.09191 0.0
O10 O 0.19168 0.69652 0.1348 0.0
C11 C 0.20318 0.6251 0.17253 0.0
C12 C 0.18354 0.7112 0.11419 0.0
O13 O 0.1932 0.61717 0.08476 0.0
Mg14 Mg 0.68891 0.9214 0.36678 0.0
O15 O 0.63918 0.91682 0.36176 0.0
O16 O 0.63149 0.88218 0.33027 0.0
Mg17 Mg 0.6744 0.86864 0.31242 0.0
C18 C 0.62221 0.90051 0.34771 0.0
C19 C 0.70207 0.95926 0.41444 0.0
O20 O 0.72176 0.9378 0.41376 0.0
O21 O 0.69112 0.95265 0.3307 0.0
O22 O 0.68157 0.91785 0.29988 0.0
O23 O 0.68927 0.88108 0.39329 0.0
O24 O 0.6948 0.87814 0.35033 0.0
C25 C 0.68689 0.94516 0.30673 0.0
C26 C 0.69184 0.86442 0.3725 0.0
O27 O 0.68363 0.96049 0.39588 0.0
Mg28 Mg 0.28134 0.36054 0.61601 0.0
O29 O 0.32764 0.37023 0.63004 0.0
O30 O 0.33908 0.33834 0.66273 0.0
Mg31 Mg 0.29852 0.31038 0.67156 0.0
C32 C 0.34543 0.35991 0.64702 0.0
C33 C 0.263 0.41884 0.58208 0.0
O34 O 0.23684 0.41442 0.59148 0.0
O35 O 0.26502 0.38766 0.65127 0.0
O36 O 0.27536 0.3543 0.68296 0.0
O37 O 0.29663 0.3236 0.58925 0.0
O38 O 0.28471 0.31643 0.63082 0.0
C39 C 0.2649 0.37966 0.6754 0.0
C40 C 0.29517 0.30569 0.60931 0.0
O41 O 0.28366 0.40196 0.58963 0.0
Mg42 Mg 0.90652 0.06498 0.84155 0.0
O43 O 0.90102 0.11512 0.85203 0.0
O44 O 0.93465 0.12738 0.8818 0.0
Mg45 Mg 0.96106 0.08468 0.89084 0.0
C46 C 0.91326 0.13439 0.86711 0.0
C47 C 0.85009 0.04326 0.81176 0.0
O48 O 0.86013 0.01618 0.81744 0.0
O49 O 0.88511 0.05194 0.88049 0.0
O50 O 0.92087 0.06162 0.909 0.0
O51 O 0.93909 0.07679 0.81056 0.0
O52 O 0.95022 0.0666 0.85178 0.0
C53 C 0.89545 0.05173 0.9038 0.0
C54 C 0.95863 0.07486 0.82873 0.0
O55 O 0.8636 0.06659 0.81988 0.0
Mg56 Mg 0.17171 0.40629 0.88689 0.0
O57 O 0.12226 0.40726 0.88092 0.0
O58 O 0.111 0.37195 0.85089 0.0
Mg59 Mg 0.15262 0.35283 0.83426 0.0
C60 C 0.10375 0.39237 0.86737 0.0
C61 C 0.19127 0.45172 0.92839 0.0
O62 O 0.21244 0.43186 0.92755 0.0
O63 O 0.17758 0.43511 0.84979 0.0
O64 O 0.16444 0.40041 0.81998 0.0
O65 O 0.16706 0.36672 0.91456 0.0
O66 O 0.17356 0.36244 0.8718 0.0
C67 C 0.1725 0.42724 0.82607 0.0
C68 C 0.16879 0.34951 0.894 0.0
O69 O 0.16975 0.44809 0.91313 0.0
Mg70 Mg 0.79928 0.89178 0.09439 0.0
O71 O 0.84474 0.9021 0.1103 0.0
O72 O 0.85513 0.8697 0.1429 0.0
Mg73 Mg 0.81488 0.84061 0.14996 0.0
C74 C 0.86189 0.8917 0.1278 0.0
C75 C 0.79824 0.92774 0.0436 0.0
O76 O 0.78997 0.90026 0.03696 0.0
O77 O 0.78044 0.91805 0.12962 0.0
O78 O 0.79013 0.88361 0.16059 0.0
O79 O 0.81641 0.85462 0.0682 0.0
O80 O 0.80238 0.84747 0.10913 0.0
C81 C 0.77928 0.90894 0.15347 0.0
C82 C 0.81377 0.83667 0.08811 0.0
O83 O 0.8022 0.9336 0.06783 0.0
Mg84 Mg 0.34354 0.53574 0.36426 0.0
O85 O 0.34643 0.58742 0.36964 0.0
O86 O 0.37952 0.59719 0.40058 0.0
Mg87 Mg 0.39803 0.55201 0.41446 0.0
C88 C 0.36075 0.606 0.38385 0.0
C89 C 0.29613 0.52377 0.32254 0.0
O90 O 0.31032 0.49803 0.32102 0.0
O91 O 0.31857 0.53063 0.4028 0.0
O92 O 0.35368 0.54006 0.43203 0.0
O93 O 0.37828 0.53917 0.33433 0.0
O94 O 0.38611 0.53098 0.3767 0.0
C95 C 0.32746 0.53328 0.42648 0.0
C96 C 0.39637 0.53637 0.35361 0.0
O97 O 0.30312 0.54285 0.34015 0.0
Mg98 Mg 0.68316 0.12784 0.62504 0.0
O99 O 0.63664 0.11346 0.63555 0.0
O100 O 0.62321 0.13938 0.67136 0.0
Mg101 Mg 0.66115 0.16851 0.68485 0.0
C102 C 0.61791 0.12033 0.65307 0.0
C103 C 0.69714 0.09803 0.57264 0.0
O104 O 0.70697 0.12588 0.5703 0.0
O105 O 0.70091 0.09837 0.65828 0.0
O106 O 0.68739 0.1255 0.69335 0.0
O107 O 0.66665 0.16675 0.60155 0.0
O108 O 0.67643 0.16925 0.64404 0.0
C109 C 0.69998 0.10257 0.68312 0.0
C110 C 0.66633 0.18208 0.62323 0.0
O111 O 0.68612 0.08998 0.59448 0.0
Mg112 Mg 0.83459 0.42058 0.87844 0.0
O113 O 0.84076 0.36846 0.87938 0.0
O114 O 0.86946 0.35838 0.91375 0.0
Mg115 Mg 0.88306 0.40225 0.93338 0.0
C116 C 0.85429 0.3498 0.89417 0.0
C117 C 0.77995 0.43774 0.84643 0.0
O118 O 0.78286 0.46175 0.86151 0.0
O119 O 0.80397 0.41999 0.91414 0.0
O120 O 0.8364 0.41047 0.94564 0.0
O121 O 0.87372 0.42471 0.85298 0.0
O122 O 0.875 0.42645 0.89632 0.0
C123 C 0.81051 0.41592 0.93829 0.0
C124 C 0.88886 0.42608 0.87437 0.0
O125 O 0.79742 0.41575 0.84931 0.0
Mg126 Mg 0.36368 0.02157 0.63451 0.0
O127 O 0.35741 0.07172 0.62347 0.0
O128 O 0.3881 0.08319 0.5909 0.0
Mg129 Mg 0.41272 0.04028 0.57991 0.0
C130 C 0.36833 0.09064 0.60719 0.0
C131 C 0.3276 0.00816 0.6824 0.0
O132 O 0.34983 0.98965 0.68384 0.0
O133 O 0.33705 0.00746 0.59838 0.0
O134 O 0.36993 0.01848 0.56768 0.0
O135 O 0.39961 0.03387 0.66203 0.0
O136 O 0.40608 0.02382 0.61994 0.0
C137 C 0.34511 0.00823 0.57435 0.0
C138 C 0.41672 0.03288 0.64197 0.0
O139 O 0.32456 0.02391 0.66167 0.0
Mg140 Mg 0.65972 0.56879 0.37562 0.0
O141 O 0.66043 0.62097 0.37568 0.0
O142 O 0.62212 0.6371 0.39873 0.0
Mg143 Mg 0.59859 0.59604 0.41534 0.0
C144 C 0.64468 0.64224 0.38494 0.0
C145 C 0.70436 0.54621 0.33828 0.0
O146 O 0.6828 0.52674 0.33741 0.0
O147 O 0.67861 0.56856 0.41739 0.0
O148 O 0.6392 0.58424 0.439 0.0
O149 O 0.62928 0.56744 0.34129 0.0
O150 O 0.61545 0.56922 0.38282 0.0
C151 C 0.66556 0.57546 0.43874 0.0
C152 C 0.60863 0.56924 0.35834 0.0
O153 O 0.70333 0.56751 0.35511 0.0
Mg154 Mg 0.11293 0.99281 0.15279 0.0
O155 O 0.11654 0.94251 0.14185 0.0
O156 O 0.08979 0.93264 0.10623 0.0
Mg157 Mg 0.07208 0.97788 0.09216 0.0
C158 C 0.1066 0.9241 0.12469 0.0
C159 C 0.14402 0.96652 0.20126 0.0
O160 O 0.1192 0.95191 0.20152 0.0
O161 O 0.14602 0.00343 0.12056 0.0
O162 O 0.11888 0.99279 0.08524 0.0
O163 O 0.07208 0.98351 0.17491 0.0
O164 O 0.07316 0.99503 0.13276 0.0
C165 C 0.14273 0.00096 0.09575 0.0
C166 C 0.05838 0.98634 0.15287 0.0
O167 O 0.14868 0.98587 0.1832 0.0
Mg168 Mg 0.87426 0.55544 0.13527 0.0
O169 O 0.86603 0.60284 0.11769 0.0
O170 O 0.89715 0.60868 0.08432 0.0
Mg171 Mg 0.92229 0.56472 0.0786 0.0
C172 C 0.87711 0.61879 0.09922 0.0
C173 C 0.84222 0.54654 0.18465 0.0
O174 O 0.86776 0.53369 0.1869 0.0
O175 O 0.84785 0.53386 0.10206 0.0
O176 O 0.87978 0.53981 0.06949 0.0
O177 O 0.90935 0.5754 0.15966 0.0
O178 O 0.91635 0.55541 0.12029 0.0
C179 C 0.85541 0.53027 0.07811 0.0
C180 C 0.92649 0.57005 0.14013 0.0
O181 O 0.83569 0.55892 0.16286 0.0
Mg182 Mg 0.20535 0.07068 0.86124 0.0
O183 O 0.18359 0.11333 0.8768 0.0
O184 O 0.13579 0.10711 0.88073 0.0
Mg185 Mg 0.12821 0.05651 0.87242 0.0
C186 C 0.15851 0.12355 0.88231 0.0
C187 C 0.27173 0.09533 0.85541 0.0
O188 O 0.29376 0.11065 0.86502 0.0
O189 O 0.20454 0.05155 0.90303 0.0
O190 O 0.15682 0.04541 0.90776 0.0
O191 O 0.19176 0.08554 0.82069 0.0
O192 O 0.16609 0.05534 0.84642 0.0
C193 C 0.18257 0.04411 0.91687 0.0
C194 C 0.16793 0.07097 0.82523 0.0
O195 O 0.249 0.09301 0.8694 0.0
Mg196 Mg 0.59669 0.46573 0.65277 0.0
O197 O 0.60183 0.41524 0.64288 0.0
O198 O 0.57229 0.40338 0.60959 0.0
Mg199 Mg 0.5506 0.44694 0.59614 0.0
C200 C 0.591 0.396 0.62688 0.0
C201 C 0.63262 0.44376 0.69983 0.0
O202 O 0.60888 0.42742 0.70154 0.0
O203 O 0.62574 0.47784 0.61761 0.0
O204 O 0.59494 0.46618 0.58534 0.0
O205 O 0.55854 0.45494 0.67831 0.0
O206 O 0.55501 0.46524 0.63606 0.0
C207 C 0.61951 0.47598 0.59318 0.0
C208 C 0.54264 0.45649 0.65743 0.0
O209 O 0.63522 0.46234 0.68085 0.0
Mg210 Mg 0.35015 0.90408 0.36751 0.0
O211 O 0.35227 0.85165 0.36574 0.0
O212 O 0.38536 0.83735 0.39543 0.0
Mg213 Mg 0.40142 0.87848 0.41792 0.0
C214 C 0.36717 0.83124 0.37733 0.0
C215 C 0.29478 0.9279 0.34102 0.0
O216 O 0.30042 0.94931 0.35826 0.0
O217 O 0.3219 0.9015 0.40444 0.0
O218 O 0.35559 0.88709 0.43334 0.0
O219 O 0.3883 0.90859 0.34038 0.0
O220 O 0.39184 0.90641 0.3835 0.0
C221 C 0.32955 0.89453 0.4278 0.0
C222 C 0.40458 0.90794 0.36109 0.0
O223 O 0.31094 0.90461 0.34038 0.0
C224 C 0.14233 0.88448 0.1378 0.0
C225 C 0.11643 0.89225 0.12508 0.0
C226 C 0.1533 0.8549 0.13638 0.0
C227 C 0.13771 0.83248 0.12232 0.0
C228 C 0.1111 0.83994 0.11017 0.0
C229 C 0.1009 0.86983 0.1115 0.0
C230 C 0.18191 0.84782 0.14937 0.0
C231 C 0.09357 0.81643 0.09552 0.0
C232 C 0.17783 0.76351 0.09662 0.0
C233 C 0.17187 0.74214 0.11622 0.0
C234 C 0.16708 0.79319 0.09848 0.0
C235 C 0.14941 0.80127 0.12013 0.0
C236 C 0.14286 0.77952 0.13968 0.0
C237 C 0.15434 0.75024 0.13754 0.0
C238 C 0.1748 0.81594 0.07744 0.0
C239 C 0.12354 0.78708 0.16271 0.0
H240 H 0.15454 0.90175 0.14819 0.0
H241 H 0.08076 0.87567 0.10179 0.0
H242 H 0.17919 0.82911 0.16373 0.0
H243 H 0.19768 0.84003 0.13437 0.0
H244 H 0.19119 0.86777 0.15976 0.0
H245 H 0.07266 0.82559 0.08825 0.0
H246 H 0.10611 0.80788 0.07847 0.0
H247 H 0.08905 0.79675 0.10847 0.0
H248 H 0.19134 0.75715 0.08009 0.0
H249 H 0.14889 0.73349 0.15223 0.0
H250 H 0.1858 0.8358 0.08642 0.0
H251 H 0.15484 0.82438 0.06779 0.0
H252 H 0.18921 0.80617 0.06216 0.0
H253 H 0.13302 0.80603 0.1742 0.0
H254 H 0.1203 0.76742 0.17604 0.0
H255 H 0.10207 0.79473 0.15552 0.0
C256 C 0.45351 0.90487 0.38201 0.0
C257 C 0.43661 0.90798 0.35924 0.0
C258 C 0.48381 0.90445 0.38075 0.0
C259 C 0.49768 0.9082 0.3562 0.0
C260 C 0.48085 0.91228 0.33319 0.0
C261 C 0.45048 0.9118 0.33494 0.0
C262 C 0.50096 0.89941 0.40566 0.0
C263 C 0.49494 0.91699 0.30673 0.0
C264 C 0.57735 0.93037 0.35717 0.0
C265 C 0.59059 0.90262 0.35134 0.0
C266 C 0.54703 0.93269 0.35844 0.0
C267 C 0.52977 0.90646 0.35452 0.0
C268 C 0.54317 0.87824 0.34937 0.0
C269 C 0.57339 0.87676 0.3475 0.0
C270 C 0.53344 0.96326 0.36346 0.0
C271 C 0.5256 0.84959 0.34587 0.0
H272 H 0.44317 0.90263 0.40095 0.0
H273 H 0.43762 0.91463 0.3173 0.0
H274 H 0.51442 0.87871 0.40366 0.0
H275 H 0.51592 0.91871 0.40908 0.0
H276 H 0.48684 0.8968 0.42319 0.0
H277 H 0.47886 0.92177 0.29103 0.0
H278 H 0.51053 0.93614 0.30773 0.0
H279 H 0.50735 0.89646 0.30115 0.0
H280 H 0.59066 0.95041 0.35987 0.0
H281 H 0.58364 0.85522 0.34319 0.0
H282 H 0.52004 0.96244 0.38153 0.0
H283 H 0.51882 0.96923 0.34694 0.0
H284 H 0.54988 0.98151 0.3657 0.0
H285 H 0.51179 0.84572 0.3634 0.0
H286 H 0.53944 0.8293 0.34284 0.0
H287 H 0.51096 0.85193 0.32871 0.0
C288 C 0.30176 0.25655 0.58593 0.0
C289 C 0.30679 0.27465 0.60808 0.0
C290 C 0.31151 0.22641 0.58507 0.0
C291 C 0.32722 0.21452 0.60664 0.0
C292 C 0.33308 0.23309 0.62871 0.0
C293 C 0.32261 0.26289 0.62921 0.0
C294 C 0.30459 0.20715 0.56134 0.0
C295 C 0.35039 0.2215 0.6518 0.0
C296 C 0.33065 0.12948 0.61783 0.0
C297 C 0.3577 0.12228 0.60702 0.0
C298 C 0.32021 0.15935 0.61739 0.0
C299 C 0.33749 0.18261 0.60628 0.0
C300 C 0.36488 0.17552 0.59549 0.0
C301 C 0.37456 0.1454 0.5958 0.0
C302 C 0.29072 0.16602 0.6288 0.0
C303 C 0.38414 0.19982 0.58393 0.0
H304 H 0.28952 0.26572 0.56959 0.0
H305 H 0.32734 0.27715 0.64596 0.0
H306 H 0.32487 0.19868 0.55229 0.0
H307 H 0.29178 0.18703 0.56743 0.0
H308 H 0.29215 0.21982 0.54623 0.0
H309 H 0.35371 0.23914 0.6671 0.0
H310 H 0.33913 0.20188 0.66087 0.0
H311 H 0.37187 0.21341 0.64504 0.0
H312 H 0.31742 0.11169 0.62637 0.0
H313 H 0.39559 0.14003 0.58756 0.0
H314 H 0.27691 0.17716 0.61381 0.0
H315 H 0.29285 0.182 0.64554 0.0
H316 H 0.27956 0.1452 0.63582 0.0
H317 H 0.37277 0.21155 0.56766 0.0
H318 H 0.40484 0.19051 0.57628 0.0
H319 H 0.38916 0.21714 0.5991 0.0
C320 C 0.12904 0.10689 0.81328 0.0
C321 C 0.14086 0.07775 0.81136 0.0
C322 C 0.09901 0.11131 0.81089 0.0
C323 C 0.08076 0.08598 0.80621 0.0
C324 C 0.09322 0.05728 0.80099 0.0
C325 C 0.12316 0.05346 0.80393 0.0
C326 C 0.08665 0.14228 0.81651 0.0
C327 C 0.07471 0.02972 0.79557 0.0
C328 C 0.01016 0.07775 0.84324 0.0
C329 C 0.98955 0.08144 0.82329 0.0
C330 C 0.03981 0.08087 0.8381 0.0
C331 C 0.04925 0.08766 0.81227 0.0
C332 C 0.02856 0.09281 0.79224 0.0
C333 C -0.00111 0.08959 0.79798 0.0
C334 C 0.06106 0.07523 0.86015 0.0
C335 C 0.03774 0.10031 0.76454 0.0
H336 H 0.14273 0.12556 0.81955 0.0
H337 H 0.13237 0.03089 0.80276 0.0
H338 H 0.06846 0.14744 0.803 0.0
H339 H 0.07803 0.14276 0.83687 0.0
H340 H 0.10334 0.16035 0.81472 0.0
H341 H 0.08767 0.01059 0.78762 0.0
H342 H 0.06433 0.02215 0.81412 0.0
H343 H 0.05722 0.03516 0.7814 0.0
H344 H 0.00328 0.07134 0.8628 0.0
H345 H 0.9831 0.09259 0.78244 0.0
H346 H 0.07712 0.09392 0.86131 0.0
H347 H 0.07309 0.05395 0.85623 0.0
H348 H 0.05021 0.0731 0.87955 0.0
H349 H 0.05507 0.11777 0.76457 0.0
H350 H 0.01933 0.10859 0.75247 0.0
H351 H 0.04669 0.07971 0.75505 0.0
C352 C 0.16955 0.29858 0.87292 0.0
C353 C 0.16389 0.31635 0.8952 0.0
C354 C 0.16553 0.26713 0.87325 0.0
C355 C 0.1559 0.25286 0.89657 0.0
C356 C 0.14978 0.27061 0.91912 0.0
C357 C 0.15388 0.30223 0.91818 0.0
C358 C 0.17242 0.24908 0.84877 0.0
C359 C 0.13955 0.2561 0.94432 0.0
C360 C 0.13035 0.172 0.8854 0.0
C361 C 0.15607 0.1559 0.88965 0.0
C362 C 0.12933 0.20358 0.88912 0.0
C363 C 0.15455 0.21919 0.89752 0.0
C364 C 0.17996 0.20268 0.90348 0.0
C365 C 0.18044 0.17129 0.89934 0.0
C366 C 0.10188 0.22042 0.88246 0.0
C367 C 0.20726 0.21838 0.91263 0.0
H368 H 0.17772 0.30914 0.85519 0.0
H369 H 0.14943 0.31584 0.93545 0.0
H370 H 0.191 0.23379 0.85264 0.0
H371 H 0.15369 0.23463 0.84325 0.0
H372 H 0.17796 0.26383 0.8318 0.0
H373 H 0.13377 0.27319 0.95948 0.0
H374 H 0.12041 0.24152 0.94049 0.0
H375 H 0.15683 0.24129 0.95232 0.0
H376 H 0.11145 0.1602 0.87791 0.0
H377 H 0.20028 0.15888 0.90304 0.0
H378 H 0.1051 0.2334 0.86401 0.0
H379 H 0.09651 0.23698 0.89814 0.0
H380 H 0.08321 0.20482 0.8797 0.0
H381 H 0.21647 0.23191 0.89625 0.0
H382 H 0.22396 0.20203 0.91938 0.0
H383 H 0.20242 0.23428 0.92894 0.0
C384 C 0.89148 0.93821 0.13425 0.0
C385 C 0.89004 0.90664 0.13163 0.0
C386 C 0.91798 0.95277 0.13915 0.0
C387 C 0.94369 0.93537 0.14033 0.0
C388 C 0.94231 0.90345 0.13724 0.0
C389 C 0.91534 0.88938 0.13348 0.0
C390 C 0.91842 0.98668 0.14335 0.0
C391 C 0.96935 0.88424 0.13743 0.0
C392 C 0.01464 0.97513 0.12537 0.0
C393 C 0.02798 0.97588 0.15014 0.0
C394 C 0.9873 0.96189 0.1219 0.0
C395 C 0.97217 0.95056 0.14398 0.0
C396 C 0.98462 0.95303 0.16933 0.0
C397 C 0.01259 0.96522 0.17206 0.0
C398 C 0.97507 0.95909 0.09445 0.0
C399 C 0.96859 0.94237 0.19349 0.0
H400 H 0.87172 0.95141 0.13317 0.0
H401 H 0.91406 0.86494 0.13138 0.0
H402 H 0.92911 0.9921 0.16232 0.0
H403 H 0.93121 0.99781 0.12763 0.0
H404 H 0.89632 0.99658 0.14343 0.0
H405 H 0.9646 0.85986 0.13396 0.0
H406 H 0.98453 0.89226 0.122 0.0
H407 H 0.98061 0.88652 0.15658 0.0
H408 H 0.02571 0.98431 0.10847 0.0
H409 H 0.02248 0.96614 0.19136 0.0
H410 H 0.95409 0.97115 0.09308 0.0
H411 H 0.97086 0.93487 0.08984 0.0
H412 H 0.98992 0.96846 0.07929 0.0
H413 H 0.94655 0.95233 0.19398 0.0
H414 H 0.98007 0.94856 0.21193 0.0
H415 H 0.96603 0.91737 0.19288 0.0
C416 C 0.36002 0.65863 0.40163 0.0
C417 C 0.35637 0.63892 0.3803 0.0
C418 C 0.35824 0.69013 0.39833 0.0
C419 C 0.35355 0.70226 0.37291 0.0
C420 C 0.34905 0.68244 0.35137 0.0
C421 C 0.35015 0.65091 0.3554 0.0
C422 C 0.36242 0.71045 0.42195 0.0
C423 C 0.34462 0.69447 0.3239 0.0
C424 C 0.33503 0.7862 0.37169 0.0
C425 C 0.36276 0.79905 0.37081 0.0
C426 C 0.33138 0.75453 0.37106 0.0
C427 C 0.35603 0.73559 0.36884 0.0
C428 C 0.38382 0.74876 0.36581 0.0
C429 C 0.38689 0.78033 0.3673 0.0
C430 C 0.30147 0.74139 0.37483 0.0
C431 C 0.41058 0.72946 0.36261 0.0
H432 H 0.36451 0.64938 0.42095 0.0
H433 H 0.34748 0.63568 0.33883 0.0
H434 H 0.38319 0.72295 0.42011 0.0
H435 H 0.34483 0.72752 0.42298 0.0
H436 H 0.36276 0.69747 0.44067 0.0
H437 H 0.33834 0.6763 0.30987 0.0
H438 H 0.3277 0.71228 0.32373 0.0
H439 H 0.365 0.70509 0.31689 0.0
H440 H 0.31643 0.80078 0.37471 0.0
H441 H 0.40832 0.7904 0.36654 0.0
H442 H 0.29984 0.73148 0.39483 0.0
H443 H 0.29735 0.72286 0.36057 0.0
H444 H 0.28431 0.75884 0.37265 0.0
H445 H 0.41546 0.71785 0.38143 0.0
H446 H 0.42979 0.74314 0.35687 0.0
H447 H 0.40695 0.71167 0.34753 0.0
C448 C 0.56522 0.12078 0.66388 0.0
C449 C 0.58884 0.10626 0.65201 0.0
C450 C 0.53734 0.10825 0.66264 0.0
C451 C 0.53308 0.0802 0.64966 0.0
C452 C 0.55691 0.06513 0.63805 0.0
C453 C 0.5845 0.07851 0.63912 0.0
C454 C 0.51235 0.12533 0.67477 0.0
C455 C 0.55323 0.03494 0.62442 0.0
C456 C 0.46366 0.0377 0.66573 0.0
C457 C 0.44658 0.04447 0.64378 0.0
C458 C 0.49219 0.04856 0.66765 0.0
C459 C 0.50345 0.06727 0.64745 0.0
C460 C 0.48606 0.07446 0.62542 0.0
C461 C 0.45789 0.06276 0.62378 0.0
C462 C 0.51026 0.04005 0.69124 0.0
C463 C 0.497 0.09502 0.60383 0.0
H464 H 0.56839 0.14236 0.67371 0.0
H465 H 0.60274 0.06709 0.63008 0.0
H466 H 0.49606 0.13073 0.65944 0.0
H467 H 0.50143 0.11103 0.68972 0.0
H468 H 0.51937 0.14682 0.68425 0.0
H469 H 0.57418 0.02546 0.61754 0.0
H470 H 0.54293 0.0184 0.63795 0.0
H471 H 0.53866 0.0375 0.60723 0.0
H472 H 0.45481 0.02354 0.68121 0.0
H473 H 0.44445 0.06879 0.60721 0.0
H474 H 0.5162 0.06072 0.70246 0.0
H475 H 0.53072 0.02924 0.68474 0.0
H476 H 0.49872 0.02421 0.70463 0.0
H477 H 0.50271 0.11753 0.61212 0.0
H478 H 0.48074 0.0983 0.58799 0.0
H479 H 0.51696 0.08546 0.59501 0.0
C480 C 0.87262 0.17153 0.8628 0.0
C481 C 0.90194 0.16572 0.868 0.0
C482 C 0.86128 0.20096 0.86513 0.0
C483 C 0.87986 0.22519 0.87221 0.0
C484 C 0.90969 0.21958 0.87651 0.0
C485 C 0.92028 0.18986 0.8747 0.0
C486 C 0.82927 0.20592 0.86098 0.0
C487 C 0.93037 0.24491 0.88353 0.0
C488 C 0.85998 0.3079 0.86164 0.0
C489 C 0.85491 0.31727 0.88754 0.0
C490 C 0.86694 0.27754 0.85604 0.0
C491 C 0.8681 0.25614 0.87679 0.0
C492 C 0.86075 0.26518 0.90265 0.0
C493 C 0.85468 0.29574 0.90776 0.0
C494 C 0.87513 0.26893 0.82831 0.0
C495 C 0.86093 0.24293 0.92521 0.0
H496 H 0.85833 0.15288 0.85775 0.0
H497 H 0.94301 0.18551 0.87846 0.0
H498 H 0.81918 0.21326 0.87972 0.0
H499 H 0.82564 0.22427 0.84645 0.0
H500 H 0.81807 0.18507 0.85404 0.0
H501 H 0.95324 0.23717 0.88412 0.0
H502 H 0.92855 0.26364 0.86906 0.0
H503 H 0.92468 0.2543 0.90308 0.0
H504 H 0.8605 0.32466 0.84606 0.0
H505 H 0.85066 0.30304 0.92779 0.0
H506 H 0.86388 0.24782 0.82225 0.0
H507 H 0.89874 0.26444 0.82741 0.0
H508 H 0.86989 0.28714 0.814 0.0
H509 H 0.84896 0.22199 0.91983 0.0
H510 H 0.85111 0.25264 0.94328 0.0
H511 H 0.88356 0.23631 0.92973 0.0
C512 C 0.63209 0.69662 0.37878 0.0
C513 C 0.6533 0.67405 0.38065 0.0
C514 C 0.6398 0.72725 0.37647 0.0
C515 C 0.66943 0.73553 0.37681 0.0
C516 C 0.69097 0.7128 0.37848 0.0
C517 C 0.68263 0.68221 0.38001 0.0
C518 C 0.61621 0.75077 0.37396 0.0
C519 C 0.72275 0.72084 0.37951 0.0
C520 C 0.68884 0.81352 0.35081 0.0
C521 C 0.68837 0.83105 0.37382 0.0
C522 C 0.68305 0.78231 0.3515 0.0
C523 C 0.67766 0.76808 0.37592 0.0
C524 C 0.67867 0.78532 0.39939 0.0
C525 C 0.68372 0.81667 0.39804 0.0
C526 C 0.6817 0.76478 0.326 0.0
C527 C 0.67376 0.77075 0.42588 0.0
H528 H 0.60939 0.69027 0.3791 0.0
H529 H 0.69903 0.66476 0.38174 0.0
H530 H 0.61656 0.76602 0.39131 0.0
H531 H 0.62003 0.76503 0.35633 0.0
H532 H 0.59433 0.7404 0.37242 0.0
H533 H 0.73679 0.70043 0.38022 0.0
H534 H 0.72886 0.73457 0.36211 0.0
H535 H 0.72714 0.7349 0.39717 0.0
H536 H 0.69326 0.82416 0.3321 0.0
H537 H 0.68371 0.82995 0.41597 0.0
H538 H 0.65959 0.75541 0.32324 0.0
H539 H 0.69684 0.7453 0.32661 0.0
H540 H 0.68714 0.77908 0.30872 0.0
H541 H 0.65112 0.76247 0.42726 0.0
H542 H 0.67777 0.78676 0.44236 0.0
H543 H 0.68815 0.75082 0.42827 0.0
C544 C 0.84079 0.66029 0.1058 0.0
C545 C 0.86728 0.65045 0.09543 0.0
C546 C 0.83181 0.69052 0.10291 0.0
C547 C 0.85001 0.7115 0.08976 0.0
C548 C 0.87664 0.70164 0.07905 0.0
C549 C 0.88485 0.6712 0.08183 0.0
C550 C 0.80306 0.70014 0.11429 0.0
C551 C 0.89688 0.72343 0.06533 0.0
C552 C 0.8181 0.78625 0.06632 0.0
C553 C 0.82481 0.80538 0.08743 0.0
C554 C 0.8262 0.75554 0.06672 0.0
C555 C 0.84191 0.74409 0.08848 0.0
C556 C 0.84968 0.76375 0.10933 0.0
C557 C 0.84084 0.79412 0.10861 0.0
C558 C 0.81728 0.73518 0.04427 0.0
C559 C 0.86707 0.75264 0.13256 0.0
H560 H 0.82702 0.64435 0.11617 0.0
H561 H 0.90546 0.66385 0.07391 0.0
H562 H 0.80663 0.7169 0.13024 0.0
H563 H 0.78977 0.71138 0.09897 0.0
H564 H 0.79063 0.68069 0.12241 0.0
H565 H 0.91635 0.71192 0.05728 0.0
H566 H 0.88548 0.73501 0.04899 0.0
H567 H 0.90406 0.74123 0.07932 0.0
H568 H 0.80562 0.79506 0.04997 0.0
H569 H 0.84675 0.80914 0.12456 0.0
H570 H 0.80299 0.71683 0.0517 0.0
H571 H 0.83659 0.72418 0.03552 0.0
H572 H 0.80561 0.74773 0.02859 0.0
H573 H 0.85477 0.73483 0.14318 0.0
H574 H 0.87233 0.77116 0.14659 0.0
H575 H 0.88758 0.74225 0.1257 0.0
C576 C 0.62806 0.35708 0.6386 0.0
C577 C 0.60097 0.3642 0.62784 0.0
C578 C 0.63847 0.32722 0.63823 0.0
C579 C 0.62108 0.30391 0.62733 0.0
C580 C 0.59337 0.31083 0.61713 0.0
C581 C 0.58376 0.34097 0.61727 0.0
C582 C 0.66831 0.32072 0.64897 0.0
C583 C 0.57397 0.28645 0.60588 0.0
C584 C 0.65758 0.23235 0.60266 0.0
C585 C 0.65402 0.21284 0.62412 0.0
C586 C 0.64712 0.26217 0.6035 0.0
C587 C 0.63214 0.27236 0.62612 0.0
C588 C 0.62784 0.25245 0.64758 0.0
C589 C 0.63907 0.22296 0.64639 0.0
C590 C 0.65249 0.28291 0.58039 0.0
C591 C 0.61132 0.26227 0.67173 0.0
H592 H 0.6415 0.37499 0.64668 0.0
H593 H 0.56267 0.34633 0.60916 0.0
H594 H 0.66698 0.30353 0.66484 0.0
H595 H 0.68216 0.31113 0.63321 0.0
H596 H 0.679 0.34137 0.65692 0.0
H597 H 0.55246 0.29538 0.59996 0.0
H598 H 0.58439 0.27607 0.58842 0.0
H599 H 0.57071 0.26814 0.62054 0.0
H600 H 0.66922 0.2245 0.58544 0.0
H601 H 0.63564 0.2077 0.66272 0.0
H602 H 0.66478 0.30322 0.58691 0.0
H603 H 0.63159 0.29098 0.57227 0.0
H604 H 0.66481 0.27157 0.56443 0.0
H605 H 0.62243 0.28175 0.68118 0.0
H606 H 0.60919 0.24374 0.6864 0.0
H607 H 0.58933 0.27001 0.6661 0.0
C608 C 0.05247 0.37552 0.86849 0.0
C609 C 0.07273 0.39909 0.87029 0.0
C610 C 0.02273 0.38142 0.86982 0.0
C611 C 0.01309 0.41175 0.87218 0.0
C612 C 0.03349 0.43569 0.87402 0.0
C613 C 0.06319 0.42899 0.87346 0.0
C614 C 0.00165 0.35521 0.8686 0.0
C615 C 0.02393 0.46834 0.87589 0.0
C616 C 0.93571 0.4241 0.84973 0.0
C617 C 0.92086 0.4246 0.87376 0.0
C618 C 0.96596 0.42127 0.84895 0.0
C619 C 0.98157 0.41817 0.87274 0.0
C620 C 0.9668 0.41937 0.89705 0.0
C621 C 0.9367 0.42312 0.89725 0.0
C622 C 0.98113 0.42089 0.82266 0.0
C623 C 0.98264 0.41558 0.92282 0.0
H624 H 0.05993 0.35236 0.86621 0.0
H625 H 0.07894 0.44722 0.87455 0.0
H626 H 0.9871 0.3557 0.88596 0.0
H627 H 0.98783 0.35726 0.85086 0.0
H628 H 0.01277 0.3329 0.86801 0.0
H629 H 0.04255 0.48427 0.87718 0.0
H630 H 0.01078 0.47432 0.85839 0.0
H631 H 0.00999 0.47162 0.8934 0.0
H632 H 0.92369 0.42569 0.83148 0.0
H633 H 0.92562 0.42434 0.91592 0.0
H634 H 0.99047 0.39811 0.81906 0.0
H635 H -0.00069 0.43739 0.82262 0.0
H636 H 0.96625 0.42644 0.8062 0.0
H637 H 0.99297 0.39289 0.9235 0.0
H638 H 0.96803 0.41783 0.94005 0.0
H639 H 0.00018 0.43268 0.92457 0.0
C640 C 0.55889 0.58955 0.36319 0.0
C641 C 0.57811 0.57003 0.35041 0.0
C642 C 0.52894 0.58653 0.3597 0.0
C643 C 0.51815 0.56287 0.34361 0.0
C644 C 0.53762 0.5444 0.32927 0.0
C645 C 0.56754 0.54848 0.33263 0.0
C646 C 0.50888 0.60729 0.3747 0.0
C647 C 0.52697 0.51868 0.31221 0.0
C648 C 0.4474 0.52972 0.36772 0.0
C649 C 0.42753 0.54198 0.34992 0.0
C650 C 0.47706 0.53561 0.36527 0.0
C651 C 0.48698 0.55484 0.34487 0.0
C652 C 0.46702 0.56714 0.32666 0.0
C653 C 0.43746 0.56026 0.32924 0.0
C654 C 0.49774 0.52159 0.3848 0.0
C655 C 0.47677 0.58826 0.30506 0.0
H656 H 0.56723 0.60662 0.37653 0.0
H657 H 0.58257 0.53334 0.32286 0.0
H658 H 0.49115 0.61544 0.36181 0.0
H659 H 0.49882 0.59461 0.39117 0.0
H660 H 0.52049 0.62723 0.38295 0.0
H661 H 0.54446 0.50925 0.29967 0.0
H662 H 0.5185 0.50023 0.32492 0.0
H663 H 0.50893 0.52624 0.29942 0.0
H664 H 0.43974 0.51541 0.3836 0.0
H665 H 0.42203 0.56994 0.31557 0.0
H666 H 0.50819 0.53966 0.39668 0.0
H667 H 0.51518 0.50924 0.37431 0.0
H668 H 0.48672 0.50557 0.39838 0.0
H669 H 0.4858 0.6093 0.31383 0.0
H670 H 0.45877 0.59453 0.29164 0.0
H671 H 0.49429 0.57766 0.29334 0.0
C672 C 0.49974 0.43385 0.68046 0.0
C673 C 0.51249 0.44487 0.65732 0.0
C674 C 0.47186 0.421 0.68014 0.0
C675 C 0.45685 0.41828 0.65598 0.0
C676 C 0.46941 0.42979 0.63268 0.0
C677 C 0.4967 0.44364 0.63379 0.0
C678 C 0.45861 0.41012 0.70557 0.0
C679 C 0.45439 0.42677 0.60641 0.0
C680 C 0.39917 0.35721 0.64956 0.0
C681 C 0.37387 0.37458 0.64956 0.0
C682 C 0.42642 0.37117 0.6516 0.0
C683 C 0.42814 0.40306 0.65483 0.0
C684 C 0.40246 0.42052 0.6557 0.0
C685 C 0.3756 0.40609 0.65249 0.0
C686 C 0.45335 0.35193 0.64962 0.0
C687 C 0.40334 0.45439 0.66007 0.0
H688 H 0.51157 0.4351 0.69883 0.0
H689 H 0.50574 0.45307 0.61601 0.0
H690 H 0.43676 0.42014 0.70815 0.0
H691 H 0.45588 0.38513 0.70501 0.0
H692 H 0.4721 0.41608 0.72291 0.0
H693 H 0.46766 0.43586 0.58999 0.0
H694 H 0.44954 0.40255 0.60237 0.0
H695 H 0.43345 0.43902 0.60675 0.0
H696 H 0.39763 0.33281 0.64724 0.0
H697 H 0.35585 0.41936 0.65283 0.0
H698 H 0.46663 0.35446 0.66764 0.0
H699 H 0.46678 0.35973 0.63283 0.0
H700 H 0.44825 0.32751 0.64682 0.0
H701 H 0.41625 0.45972 0.67789 0.0
H702 H 0.38136 0.46422 0.66241 0.0
H703 H 0.4141 0.46567 0.64322 0.0
C704 C 0.0868 0.62897 0.16229 0.0
C705 C 0.09851 0.64313 0.14011 0.0
C706 C 0.05886 0.61661 0.16167 0.0
C707 C 0.04194 0.61963 0.13861 0.0
C708 C 0.05358 0.63443 0.11626 0.0
C709 C 0.08208 0.6455 0.11711 0.0
C710 C 0.04757 0.60006 0.18557 0.0
C711 C 0.0358 0.63898 0.09168 0.0
C712 C 0.9786 0.566 0.12873 0.0
C713 C 0.95582 0.58287 0.13939 0.0
C714 C 0.00686 0.57765 0.12843 0.0
C715 C 0.01204 0.60732 0.13804 0.0
C716 C 0.98882 0.6248 0.14802 0.0
C717 C 0.961 0.61209 0.14906 0.0
C718 C 0.03125 0.55796 0.1185 0.0
C719 C 0.99335 0.6569 0.15756 0.0
H720 H 0.0998 0.62698 0.17996 0.0
H721 H 0.09129 0.65669 0.10006 0.0
H722 H 0.02834 0.61195 0.19353 0.0
H723 H 0.04058 0.57682 0.18003 0.0
H724 H 0.06407 0.59837 0.20139 0.0
H725 H 0.04775 0.65189 0.07638 0.0
H726 H 0.02935 0.61673 0.08336 0.0
H727 H 0.0156 0.65138 0.09653 0.0
H728 H 0.97441 0.54335 0.12132 0.0
H729 H 0.94316 0.62522 0.15693 0.0
H730 H 0.04756 0.55479 0.13428 0.0
H731 H 0.04237 0.56918 0.10181 0.0
H732 H 0.02355 0.5353 0.11194 0.0
H733 H 0.00759 0.65692 0.17511 0.0
H734 H 0.97265 0.66818 0.16279 0.0
H735 H 0.00436 0.67052 0.14216 0.0
C736 C 0.18701 0.56912 0.04791 0.0
C737 C 0.19941 0.5972 0.04139 0.0
C738 C 0.185 0.5457 0.02929 0.0
C739 C 0.19577 0.55041 0.00356 0.0
C740 C 0.20822 0.57872 0.99682 0.0
C741 C 0.20985 0.60179 0.01579 0.0
C742 C 0.17152 0.51584 0.03721 0.0
C743 C 0.22005 0.58454 0.96961 0.0
C744 C 0.21652 0.48091 0.96378 0.0
C745 C 0.19245 0.47737 0.94721 0.0
C746 C 0.21792 0.50467 0.98208 0.0
C747 C 0.19467 0.52543 0.98391 0.0
C748 C 0.17037 0.52213 0.96716 0.0
C749 C 0.16955 0.49813 0.94899 0.0
C750 C 0.24423 0.50746 -0.00043 0.0
C751 C 0.14517 0.54383 0.96856 0.0
H752 H 0.17879 0.56539 0.0676 0.0
H753 H 0.21946 0.6234 0.01057 0.0
H754 H 0.1531 0.51039 0.02402 0.0
H755 H 0.18761 0.49734 0.0351 0.0
H756 H 0.16358 0.51605 0.05782 0.0
H757 H 0.22859 0.60797 0.96737 0.0
H758 H 0.23774 0.5683 0.96526 0.0
H759 H 0.20285 0.58082 0.95471 0.0
H760 H 0.23434 0.46502 0.96256 0.0
H761 H 0.15087 0.49557 0.93627 0.0
H762 H 0.23767 0.50574 0.02049 0.0
H763 H 0.25449 0.53002 0.99687 0.0
H764 H 0.26062 0.48967 0.99546 0.0
H765 H 0.13552 0.54329 0.98853 0.0
H766 H 0.12802 0.53833 0.954 0.0
H767 H 0.15278 0.56736 0.96502 0.0
C768 C 0.72127 0.97879 0.28355 0.0
C769 C 0.69339 0.96639 0.28519 0.0
C770 C 0.73437 0.98294 0.25886 0.0
C771 C 0.7191 0.97416 0.23593 0.0
C772 C 0.68894 0.96881 0.2376 0.0
C773 C 0.67638 0.96472 0.26242 0.0
C774 C 0.76605 0.99101 0.25768 0.0
C775 C 0.67131 0.96124 0.21353 0.0
C776 C 0.75712 0.95765 0.17059 0.0
C777 C 0.76411 0.9269 0.17392 0.0
C778 C 0.74279 0.97391 0.19065 0.0
C779 C 0.73535 0.95893 0.21438 0.0
C780 C 0.74247 0.92788 0.21764 0.0
C781 C 0.75669 0.91248 0.19752 0.0
C782 C 0.73638 0.00709 0.18654 0.0
C783 C 0.73482 0.91044 0.24234 0.0
H784 H 0.73433 0.98075 0.30119 0.0
H785 H 0.65448 0.95589 0.26376 0.0
H786 H 0.77906 0.96987 0.25745 0.0
H787 H 0.77105 0.00394 0.23953 0.0
H788 H 0.77268 0.0046 0.27508 0.0
H789 H 0.64788 0.96535 0.21696 0.0
H790 H 0.6785 0.97477 0.19634 0.0
H791 H 0.67419 0.93687 0.20869 0.0
H792 H 0.76304 0.96905 0.1525 0.0
H793 H 0.76173 0.8887 0.2003 0.0
H794 H 0.75422 0.02071 0.1952 0.0
H795 H 0.71595 0.014 0.1963 0.0
H796 H 0.73498 0.01274 0.1653 0.0
H797 H 0.74508 0.9212 0.25971 0.0
H798 H 0.74202 0.88643 0.24155 0.0
H799 H 0.71104 0.91056 0.24538 0.0
C800 C 0.29417 0.43922 0.54628 0.0
C801 C 0.26817 0.44067 0.56044 0.0
C802 C 0.29904 0.45782 0.52446 0.0
C803 C 0.2776 0.47894 0.51677 0.0
C804 C 0.25158 0.48121 0.53136 0.0
C805 C 0.24702 0.46179 0.55294 0.0
C806 C 0.32707 0.45446 0.50938 0.0
C807 C 0.22854 0.50392 0.52405 0.0
C808 C 0.31285 0.53746 0.47344 0.0
C809 C 0.30826 0.52479 0.4485 0.0
C810 C 0.30012 0.5247 0.49587 0.0
C811 C 0.283 0.49822 0.4933 0.0
C812 C 0.27608 0.48709 0.46791 0.0
C813 C 0.28862 0.50075 0.44572 0.0
C814 C 0.30736 0.53783 0.52249 0.0
C815 C 0.25806 0.45881 0.46429 0.0
H816 H 0.31062 0.42293 0.55182 0.0
H817 H 0.22691 0.46309 0.56385 0.0
H818 H 0.32242 0.44888 0.48853 0.0
H819 H 0.33924 0.47617 0.50965 0.0
H820 H 0.34119 0.43645 0.51762 0.0
H821 H 0.21044 0.50426 0.53842 0.0
H822 H 0.23806 0.527 0.52281 0.0
H823 H 0.21964 0.4984 0.50437 0.0
H824 H 0.32771 0.55638 0.47559 0.0
H825 H 0.28501 0.4909 0.42646 0.0
H826 H 0.32434 0.52378 0.53194 0.0
H827 H 0.28812 0.53763 0.53553 0.0
H828 H 0.31561 0.56144 0.52093 0.0
H829 H 0.27126 0.43869 0.46953 0.0
H830 H 0.25057 0.45617 0.44366 0.0
H831 H 0.23892 0.45904 0.47744 0.0
C832 C 0.74299 0.06998 0.69224 0.0
C833 C 0.71693 0.08285 0.70083 0.0
C834 C 0.76289 0.05805 0.71036 0.0
C835 C 0.75624 0.05864 0.73755 0.0
C836 C 0.72865 0.06861 0.74593 0.0
C837 C 0.70941 0.08086 0.72748 0.0
C838 C 0.79211 0.04769 0.70061 0.0
C839 C 0.7204 0.06894 0.77465 0.0
C840 C 0.80849 0.0218 0.78583 0.0
C841 C 0.825 0.0469 0.7939 0.0
C842 C 0.78569 0.02516 0.76772 0.0
C843 C 0.77963 0.0542 0.75725 0.0
C844 C 0.79606 0.0796 0.76556 0.0
C845 C 0.81835 0.07567 0.78387 0.0
C846 C 0.76828 0.99769 0.75965 0.0
C847 C 0.79038 0.111 0.75482 0.0
H848 H 0.7489 0.07145 0.67166 0.0
H849 H 0.68906 0.09039 0.73415 0.0
H850 H 0.80859 0.06518 0.70544 0.0
H851 H 0.79871 0.02636 0.71045 0.0
H852 H 0.79223 0.04404 0.679 0.0
H853 H 0.69671 0.07185 0.77741 0.0
H854 H 0.72724 0.04767 0.78447 0.0
H855 H 0.73164 0.08802 0.7846 0.0
H856 H 0.81345 -0.0005 0.79355 0.0
H857 H 0.831 0.0952 0.78992 0.0
H858 H 0.77102 0.99349 0.7383 0.0
H859 H 0.74489 0.00179 0.76313 0.0
H860 H 0.77484 0.97697 0.77053 0.0
H861 H 0.79266 0.11092 0.73311 0.0
H862 H 0.80543 0.12825 0.76304 0.0
H863 H 0.76788 0.11797 0.75942 0.0
C864 C 0.77841 0.45403 0.95845 0.0
C865 C 0.79034 0.42485 0.95935 0.0
C866 C 0.7763 0.47137 0.98157 0.0
C867 C 0.78656 0.45895 0.00548 0.0
C868 C 0.79144 0.42734 0.00709 0.0
C869 C 0.79321 0.41047 0.98379 0.0
C870 C 0.76852 0.50444 0.97953 0.0
C871 C 0.80068 0.41262 0.03248 0.0
C872 C 0.84822 0.50327 0.03577 0.0
C873 C 0.8365 0.51333 0.05961 0.0
C874 C 0.83189 0.48618 0.01804 0.0
C875 C 0.80265 0.47901 0.02401 0.0
C876 C 0.79029 0.4896 0.04779 0.0
C877 C 0.80744 0.50661 0.06542 0.0
C878 C 0.84646 0.47524 0.99313 0.0
C879 C 0.75899 0.48362 0.05452 0.0
H880 H 0.77531 0.46504 0.9396 0.0
H881 H 0.80152 0.3875 0.98453 0.0
H882 H 0.75778 0.5124 0.99777 0.0
H883 H 0.78858 0.51798 0.97673 0.0
H884 H 0.75403 0.50866 0.96249 0.0
H885 H 0.7968 0.38775 0.03205 0.0
H886 H 0.82422 0.41653 0.03546 0.0
H887 H 0.78901 0.42253 0.04947 0.0
H888 H 0.87062 0.50821 0.03105 0.0
H889 H 0.79808 0.51467 0.08366 0.0
H890 H 0.83476 0.48388 0.97565 0.0
H891 H 0.84611 0.45011 0.99234 0.0
H892 H 0.86937 0.48279 0.99169 0.0
H893 H 0.74537 0.50108 0.04488 0.0
H894 H 0.7552 0.48501 0.07605 0.0
H895 H 0.75164 0.46111 0.04739 0.0
C896 C 0.25598 0.05779 0.82081 0.0
C897 C 0.27399 0.08173 0.82881 0.0
C898 C 0.25916 0.04434 0.79591 0.0
C899 C 0.28166 0.05428 0.77907 0.0
C900 C 0.29976 0.07858 0.78698 0.0
C901 C 0.29555 0.09211 0.8116 0.0
C902 C 0.23906 0.01886 0.78806 0.0
C903 C 0.32428 0.08967 0.7698 0.0
C904 C 0.31922 0.00266 0.73059 0.0
C905 C 0.31093 0.01546 0.70649 0.0
C906 C 0.30831 0.01378 0.75441 0.0
C907 C 0.28821 0.03797 0.75415 0.0
C908 C 0.2777 0.04907 0.72985 0.0
C909 C 0.28936 0.03784 0.70625 0.0
C910 C 0.32017 0.00131 0.77987 0.0
C911 C 0.25558 0.07418 0.72878 0.0
H912 H 0.24002 0.04878 0.83421 0.0
H913 H 0.3096 0.1106 0.81757 0.0
H914 H 0.23205 0.02141 0.76732 0.0
H915 H 0.25061 0.99692 0.78972 0.0
H916 H 0.21954 0.01792 0.8008 0.0
H917 H 0.33591 0.10931 0.77856 0.0
H918 H 0.34006 0.07107 0.76664 0.0
H919 H 0.31591 0.09646 0.75025 0.0
H920 H 0.33564 0.98514 0.73101 0.0
H921 H 0.28255 0.04762 0.68771 0.0
H922 H 0.30232 0.99577 0.79362 0.0
H923 H 0.33392 0.01877 0.78948 0.0
H924 H 0.33344 0.98062 0.77677 0.0
H925 H 0.23789 0.06996 0.7431 0.0
H926 H 0.24604 0.07662 0.70884 0.0
H927 H 0.26602 0.09598 0.73421 0.0
C928 C 0.66722 0.5825 0.487 0.0
C929 C 0.67873 0.56854 0.46456 0.0
C930 C 0.66893 0.5684 0.51158 0.0
C931 C 0.68285 0.53994 0.51363 0.0
C932 C 0.69966 0.52925 0.49229 0.0
C933 C 0.69708 0.54348 0.46764 0.0
C934 C 0.65192 0.58159 0.53417 0.0
C935 C 0.71722 0.50061 0.49459 0.0
C936 C 0.66528 0.5033 0.57941 0.0
C937 C 0.63981 0.48756 0.57287 0.0
C938 C 0.6816 0.51829 0.55991 0.0
C939 C 0.67168 0.51811 0.53353 0.0
C940 C 0.64725 0.50026 0.52669 0.0
C941 C 0.63202 0.48493 0.54632 0.0
C942 C 0.70844 0.53538 0.56805 0.0
C943 C 0.63557 0.49913 0.49889 0.0
H944 H 0.65399 0.60265 0.48484 0.0
H945 H 0.70685 0.53304 0.45051 0.0
H946 H 0.63225 0.56763 0.53764 0.0
H947 H 0.66502 0.58127 0.55241 0.0
H948 H 0.64504 0.6053 0.53027 0.0
H949 H 0.73537 0.50053 0.48026 0.0
H950 H 0.72603 0.49799 0.51477 0.0
H951 H 0.70323 0.48071 0.49034 0.0
H952 H 0.67192 0.50495 0.5998 0.0
H953 H 0.61287 0.47215 0.54086 0.0
H954 H 0.70208 0.55679 0.57793 0.0
H955 H 0.7227 0.54086 0.55115 0.0
H956 H 0.72097 0.52189 0.58255 0.0
H957 H 0.62959 0.52227 0.49227 0.0
H958 H 0.61615 0.48437 0.49708 0.0
H959 H 0.65234 0.4904 0.48529 0.0
C960 C 0.25274 0.95704 0.32314 0.0
C961 C 0.2715 0.93214 0.32131 0.0
C962 C 0.23166 0.96244 0.30384 0.0
C963 C 0.22939 0.94257 0.28207 0.0
C964 C 0.248 0.91717 0.28026 0.0
C965 C 0.26876 0.91219 0.29995 0.0
C966 C 0.21201 0.9896 0.3066 0.0
C967 C 0.24628 0.89555 0.25728 0.0
C968 C 0.15914 0.94176 0.24326 0.0
C969 C 0.16601 0.96039 0.22178 0.0
C970 C 0.17956 0.93576 0.263 0.0
C971 C 0.20763 0.9485 0.26113 0.0
C972 C 0.2148 0.96715 0.23942 0.0
C973 C 0.19386 0.97297 0.22004 0.0
C974 C 0.17103 0.91595 0.28595 0.0
C975 C 0.24459 0.98096 0.23667 0.0
H976 H 0.25464 0.97252 0.33961 0.0
H977 H 0.28322 0.89295 0.29833 0.0
H978 H 0.21515 0.00513 0.28969 0.0
H979 H 0.18903 0.98222 0.30636 0.0
H980 H 0.21609 0.00243 0.32503 0.0
H981 H 0.2621 0.87669 0.25893 0.0
H982 H 0.22419 0.88577 0.25586 0.0
H983 H 0.25048 0.90796 0.2387 0.0
H984 H 0.13766 0.93198 0.2448 0.0
H985 H 0.19938 0.98729 0.20346 0.0
H986 H 0.17347 0.92877 0.30459 0.0
H987 H 0.18559 0.89602 0.28712 0.0
H988 H 0.14833 0.90775 0.28445 0.0
H989 H 0.24921 0.99586 0.25375 0.0
H990 H 0.24686 0.99452 0.21839 0.0
H991 H 0.26122 0.96283 0.23658 0.0
C992 C 0.71129 0.08634 0.52632 0.0
C993 C 0.69767 0.07726 0.5497 0.0
C994 C 0.71142 0.06756 0.50405 0.0
C995 C 0.69751 0.03896 0.50509 0.0
C996 C 0.68366 0.02962 0.52859 0.0
C997 C 0.68397 0.04885 0.55065 0.0
C998 C 0.72662 0.07826 0.47945 0.0
C999 C 0.66858 0.99929 0.53043 0.0
C1000 C 0.6781 0.001 0.44012 0.0
C1001 C 0.70089 0.98028 0.43719 0.0
C1002 C 0.67654 0.02009 0.46224 0.0
C1003 C 0.69834 0.01849 0.4818 0.0
C1004 C 0.72144 0.99773 0.47886 0.0
C1005 C 0.7224 0.9789 0.45665 0.0
C1006 C 0.65156 0.04193 0.46473 0.0
C1007 C 0.74521 0.99543 0.49916 0.0
H1008 H 0.72194 0.10823 0.52536 0.0
H1009 H 0.67327 0.04171 0.56858 0.0
H1010 H 0.74426 0.0623 0.47427 0.0
H1011 H 0.71122 0.07855 0.46271 0.0
H1012 H 0.73604 0.10131 0.48173 0.0
H1013 H 0.65824 0.99569 0.5499 0.0
H1014 H 0.65171 0.9975 0.51497 0.0
H1015 H 0.68434 0.98077 0.52694 0.0
H1016 H 0.66133 0.00213 0.42525 0.0
H1017 H 0.74012 0.96299 0.4546 0.0
H1018 H 0.65983 0.06555 0.46567 0.0
H1019 H 0.63962 0.03758 0.48328 0.0
H1020 H 0.63616 0.04011 0.44802 0.0
H1021 H 0.75637 0.01762 0.50118 0.0
H1022 H 0.76155 0.97794 0.49404 0.0
H1023 H 0.73582 0.98978 0.51863 0.0
C1024 C 0.24402 0.38654 0.71983 0.0
C1025 C 0.2514 0.3993 0.69555 0.0
C1026 C 0.23065 0.40365 0.7394 0.0
C1027 C 0.22461 0.43475 0.73484 0.0
C1028 C 0.23248 0.44813 0.71055 0.0
C1029 C 0.24574 0.43015 0.69106 0.0
C1030 C 0.2225 0.38793 0.76481 0.0
C1031 C 0.2276 0.48138 0.7052 0.0
C1032 C 0.16448 0.44521 0.78087 0.0
C1033 C 0.18084 0.44697 0.80402 0.0
C1034 C 0.17799 0.44764 0.75632 0.0
C1035 C 0.20837 0.45163 0.75539 0.0
C1036 C 0.22324 0.46078 0.77841 0.0
C1037 C 0.20923 0.45811 0.80283 0.0
C1038 C 0.16085 0.43969 0.73204 0.0
C1039 C 0.25518 0.46768 0.77781 0.0
H1040 H 0.2482 0.36272 0.72349 0.0
H1041 H 0.25182 0.44027 0.67244 0.0
H1042 H 0.23342 0.39907 0.78166 0.0
H1043 H 0.19879 0.38939 0.76802 0.0
H1044 H 0.22862 0.36357 0.76493 0.0
H1045 H 0.22657 0.48609 0.68377 0.0
H1046 H 0.20747 0.48979 0.71458 0.0
H1047 H 0.24599 0.49449 0.71349 0.0
H1048 H 0.14218 0.43751 0.78187 0.0
H1049 H 0.22178 0.46027 0.82075 0.0
H1050 H 0.16329 0.41509 0.72791 0.0
H1051 H 0.16886 0.45241 0.7147 0.0
H1052 H 0.13744 0.44453 0.73477 0.0
H1053 H 0.26751 0.44612 0.77879 0.0
H1054 H 0.26166 0.48195 0.79483 0.0
H1055 H 0.26118 0.47943 0.7593 0.0
C1056 C 0.89279 0.02458 0.94671 0.0
C1057 C 0.8784 0.03789 0.92536 0.0
C1058 C 0.87745 0.00915 0.96639 0.0
C1059 C 0.84685 0.00768 0.96514 0.0
C1060 C 0.83207 0.02231 0.9443 0.0
C1061 C 0.84806 0.03684 0.9244 0.0
C1062 C 0.89415 0.99322 0.98786 0.0
C1063 C 0.79944 0.022 0.94271 0.0
C1064 C 0.81372 0.93853 0.99765 0.0
C1065 C 0.80731 0.94941 0.0229 0.0
C1066 C 0.82575 0.95753 0.97845 0.0
C1067 C 0.83082 0.98846 0.98434 0.0
C1068 C 0.82286 3e-05 0.00931 0.0
C1069 C 0.81158 0.98025 0.02847 0.0
C1070 C 0.83452 0.94403 0.95233 0.0
C1071 C 0.82712 0.03307 0.01605 0.0
H1072 H 0.91624 0.02514 0.94751 0.0
H1073 H 0.83683 0.04736 0.90807 0.0
H1074 H 0.88659 0.00088 0.00745 0.0
H1075 H 0.8902 0.96842 0.98667 0.0
H1076 H 0.91783 0.99735 0.98647 0.0
H1077 H 0.79118 0.03747 0.92721 0.0
H1078 H 0.79175 0.9987 0.93833 0.0
H1079 H 0.78993 0.02874 0.96187 0.0
H1080 H 0.81062 0.91471 0.99319 0.0
H1081 H 0.80647 0.98883 0.04789 0.0
H1082 H 0.85837 0.94566 0.95 0.0
H1083 H 0.82459 0.9569 0.93595 0.0
H1084 H 0.82808 0.91983 0.95048 0.0
H1085 H 0.85058 0.03804 0.01799 0.0
H1086 H 0.81628 0.03931 0.03477 0.0
H1087 H 0.81858 0.04767 8e-05 0.0
C1088 C 0.19415 0.59098 0.21024 0.0
C1089 C 0.21247 0.60045 0.18991 0.0
C1090 C 0.20453 0.5725 0.23053 0.0
C1091 C 0.23416 0.56444 0.23089 0.0
C1092 C 0.25218 0.57214 0.20932 0.0
C1093 C 0.24093 0.58982 0.1888 0.0
C1094 C 0.18437 0.56381 0.25263 0.0
C1095 C 0.284 0.56438 0.20916 0.0
C1096 C 0.27099 0.56412 0.29723 0.0
C1097 C 0.27683 0.53323 0.30089 0.0
C1098 C 0.25672 0.57437 0.27469 0.0
C1099 C 0.24734 0.55313 0.2556 0.0
C1100 C 0.25161 0.52174 0.25987 0.0
C1101 C 0.2667 0.51215 0.28236 0.0
C1102 C 0.25283 0.60812 0.2708 0.0
C1103 C 0.24106 0.49843 0.24035 0.0
H1104 H 0.17202 0.59915 0.21085 0.0
H1105 H 0.25503 0.59741 0.17307 0.0
H1106 H 0.18817 0.54004 0.25888 0.0
H1107 H 0.18852 0.57863 0.26986 0.0
H1108 H 0.16128 0.56634 0.2469 0.0
H1109 H 0.2941 0.56857 0.18968 0.0
H1110 H 0.29539 0.57847 0.22402 0.0
H1111 H 0.28736 0.54029 0.21457 0.0
H1112 H 0.27881 0.58058 0.3114 0.0
H1113 H 0.27104 0.48822 0.28518 0.0
H1114 H 0.22954 0.61357 0.26853 0.0
H1115 H 0.26397 0.61542 0.25253 0.0
H1116 H 0.26159 0.62158 0.28748 0.0
H1117 H 0.21832 0.50314 0.23461 0.0
H1118 H 0.24236 0.47502 0.24832 0.0
H1119 H 0.2544 0.4996 0.22226 0.0
C1120 C 0.33725 0.99512 0.52746 0.0
C1121 C 0.32711 0.99424 0.55341 0.0
C1122 C 0.32518 0.97678 0.50796 0.0
C1123 C 0.30131 0.95778 0.51419 0.0
C1124 C 0.2886 0.95961 0.53951 0.0
C1125 C 0.30196 0.9775 0.55904 0.0
C1126 C 0.33989 0.97595 0.48136 0.0
C1127 C 0.2619 0.94174 0.54671 0.0
C1128 C 0.28927 0.92398 0.44861 0.0
C1129 C 0.31013 0.90094 0.45026 0.0
C1130 C 0.28066 0.93968 0.47138 0.0
C1131 C 0.2942 0.93276 0.49559 0.0
C1132 C 0.31011 0.90549 0.49792 0.0
C1133 C 0.31768 0.88966 0.4751 0.0
C1134 C 0.2605 0.96634 0.4689 0.0
C1135 C 0.32328 0.89584 0.52374 0.0
H1136 H 0.35608 0.00872 0.52261 0.0
H1137 H 0.2934 0.97727 0.57888 0.0
H1138 H 0.34757 0.95266 0.47699 0.0
H1139 H 0.32444 0.98257 0.46574 0.0
H1140 H 0.3588 0.99151 0.48023 0.0
H1141 H 0.24636 0.95663 0.55723 0.0
H1142 H 0.25087 0.93178 0.52935 0.0
H1143 H 0.26788 0.92329 0.56049 0.0
H1144 H 0.28224 0.93209 0.42954 0.0
H1145 H 0.33262 0.87078 0.47654 0.0
H1146 H 0.27313 0.98706 0.4642 0.0
H1147 H 0.24864 0.97034 0.48757 0.0
H1148 H 0.24467 0.96263 0.45276 0.0
H1149 H 0.34063 0.91203 0.52944 0.0
H1150 H 0.33281 0.87275 0.52266 0.0
H1151 H 0.30664 0.89601 0.53942 0.0
C1152 C 0.831 0.53379 0.2313 0.0
C1153 C 0.82235 0.54706 0.20748 0.0
C1154 C 0.81287 0.53404 0.25337 0.0
C1155 C 0.78535 0.54787 0.25163 0.0
C1156 C 0.77648 0.56149 0.22772 0.0
C1157 C 0.79512 0.56093 0.20589 0.0
C1158 C 0.82308 0.51924 0.27849 0.0
C1159 C 0.74721 0.57639 0.22516 0.0
C1160 C 0.72707 0.52198 0.2991 0.0
C1161 C 0.72685 0.54563 0.31756 0.0
C1162 C 0.74611 0.52239 0.27765 0.0
C1163 C 0.76545 0.54704 0.27458 0.0
C1164 C 0.76588 0.57064 0.29346 0.0
C1165 C 0.74657 0.56965 0.31478 0.0
C1166 C 0.74516 0.49666 0.25804 0.0
C1167 C 0.78636 0.5972 0.29087 0.0
H1168 H 0.85204 0.52307 0.23277 0.0
H1169 H 0.78834 0.57129 0.18759 0.0
H1170 H 0.82245 0.53581 0.29489 0.0
H1171 H 0.80836 0.50029 0.28377 0.0
H1172 H 0.84545 0.51023 0.27681 0.0
H1173 H 0.74389 0.58667 0.20546 0.0
H1174 H 0.72987 0.55941 0.22864 0.0
H1175 H 0.74479 0.59433 0.24029 0.0
H1176 H 0.71195 0.50329 0.30111 0.0
H1177 H 0.74647 0.58805 0.32891 0.0
H1178 H 0.7668 0.48592 0.25649 0.0
H1179 H 0.73957 0.50554 0.23829 0.0
H1180 H 0.72909 0.47897 0.26348 0.0
H1181 H 0.80905 0.58905 0.28992 0.0
H1182 H 0.78439 0.6134 0.3075 0.0
H1183 H 0.78194 0.6095 0.27228 0.0
C1184 C 0.17833 0.98421 0.06291 0.0
C1185 C 0.16654 0.00791 0.07772 0.0
C1186 C 0.19101 0.98989 0.03837 0.0
C1187 C 0.19102 0.01985 0.02837 0.0
C1188 C 0.18302 0.04421 0.04504 0.0
C1189 C 0.17071 0.03789 0.06967 0.0
C1190 C 0.20013 0.96334 0.02162 0.0
C1191 C 0.1831 0.07654 0.03536 0.0
C1192 C 0.21305 0.0375 0.95769 0.0
C1193 C 0.18614 0.03558 0.94489 0.0
C1194 C 0.21539 0.03198 0.98489 0.0
C1195 C 0.19025 0.02441 0.99943 0.0
C1196 C 0.16325 0.02172 0.98641 0.0
C1197 C 0.16161 0.02715 0.95942 0.0
C1198 C 0.2446 0.03433 0.99801 0.0
C1199 C 0.13574 0.01372 0.00103 0.0
H1200 H 0.17495 0.96098 0.06924 0.0
H1201 H 0.16135 0.05614 0.08114 0.0
H1202 H 0.182 0.95687 0.00842 0.0
H1203 H 0.219 0.96928 0.00916 0.0
H1204 H 0.20569 0.94333 0.03388 0.0
H1205 H 0.18282 0.09293 0.05196 0.0
H1206 H 0.20232 0.08116 0.02292 0.0
H1207 H 0.1635 0.08043 0.0232 0.0
H1208 H 0.23215 0.04385 0.9466 0.0
H1209 H 0.14073 0.02535 0.94981 0.0
H1210 H 0.25173 0.01144 0.00429 0.0
H1211 H 0.2433 0.0486 0.01593 0.0
H1212 H 0.26131 0.04395 0.98468 0.0
H1213 H 0.13805 0.99131 0.0107 0.0
H1214 H 0.11652 0.0128 0.98791 0.0
H1215 H 0.13152 0.03074 0.01663 0.0
C1216 C 0.6816 0.45676 0.71809 0.0
C1217 C 0.65507 0.4415 0.72056 0.0
C1218 C 0.70248 0.45545 0.73816 0.0
C1219 C 0.69655 0.43873 0.76132 0.0
C1220 C 0.66994 0.42304 0.76379 0.0
C1221 C 0.64961 0.42449 0.74335 0.0
C1222 C 0.73076 0.47221 0.73471 0.0
C1223 C 0.66271 0.40514 0.78824 0.0
C1224 C 0.7587 0.41477 0.80567 0.0
C1225 C 0.75801 0.4373 0.82516 0.0
C1226 C 0.73895 0.41505 0.78468 0.0
C1227 C 0.71783 0.43822 0.78329 0.0
C1228 C 0.71678 0.46078 0.80308 0.0
C1229 C 0.73696 0.46012 0.8237 0.0
C1230 C 0.74085 0.39072 0.76385 0.0
C1231 C 0.69435 0.48565 0.80245 0.0
H1232 H 0.68604 0.46984 0.70051 0.0
H1233 H 0.62916 0.41265 0.74548 0.0
H1234 H 0.73292 0.48992 0.75009 0.0
H1235 H 0.7492 0.45636 0.73715 0.0
H1236 H 0.7325 0.48321 0.71513 0.0
H1237 H 0.64127 0.39379 0.78689 0.0
H1238 H 0.67948 0.38763 0.79178 0.0
H1239 H 0.66264 0.42042 0.80558 0.0
H1240 H 0.77499 0.39714 0.80657 0.0
H1241 H 0.73624 0.47757 0.8387 0.0
H1242 H 0.74439 0.40125 0.74431 0.0
H1243 H 0.72015 0.37797 0.76281 0.0
H1244 H 0.75867 0.37442 0.76769 0.0
H1245 H 0.6966 0.49904 0.78411 0.0
H1246 H 0.69626 0.50129 0.81949 0.0
H1247 H 0.6723 0.47562 0.80244 0.0
loop_
_geom_bond_atom_site_label_1
_geom_bond_atom_site_label_2
_geom_bond_distance
_geom_bond_site_symmetry_2
_ccdc_geom_bond_type
Mg0 O1 2.028 . S
Mg0 O7 1.986 . S
Mg0 O9 2.114 . S
Mg0 O10 2.251 . S
Mg0 O13 2.010 . S
O1 Mg0 2.028 . S
O1 C4 1.250 . S
O2 Mg3 2.028 . S
O2 C4 1.248 . S
Mg3 O2 2.028 . S
Mg3 O8 2.032 . S
Mg3 O10 2.079 . S
C4 O1 1.250 . S
C4 O2 1.248 . S
C5 O6 1.264 . S
C5 O13 1.249 . S
O6 C5 1.264 . S
O7 Mg0 1.986 . S
O7 C11 1.246 . S
O8 Mg3 2.032 . S
O8 C11 1.259 . S
O9 Mg0 2.114 . S
O9 C12 1.252 . S
O10 Mg0 2.251 . S
O10 Mg3 2.079 . S
O10 C12 1.273 . S
C11 O7 1.246 . S
C11 O8 1.259 . S
C12 O9 1.252 . S
C12 O10 1.273 . S
O13 Mg0 2.010 . S
O13 C5 1.249 . S
Mg14 O15 2.028 . S
Mg14 O21 1.986 . S
Mg14 O23 2.114 . S
Mg14 O24 2.251 . S
Mg14 O27 2.010 . S
O15 Mg14 2.028 . S
O15 C18 1.250 . S
O16 Mg17 2.028 . S
O16 C18 1.248 . S
Mg17 O16 2.028 . S
Mg17 O22 2.032 . S
Mg17 O24 2.079 . S
C18 O15 1.250 . S
C18 O16 1.248 . S
C19 O20 1.264 . S
C19 O27 1.249 . S
O20 C19 1.264 . S
O21 Mg14 1.986 . S
O21 C25 1.246 . S
O22 Mg17 2.032 . S
O22 C25 1.259 . S
O23 Mg14 2.114 . S
O23 C26 1.252 . S
O24 Mg14 2.251 . S
O24 Mg17 2.079 . S
O24 C26 1.273 . S
C25 O21 1.246 . S
C25 O22 1.259 . S
C26 O23 1.252 . S
C26 O24 1.273 . S
O27 Mg14 2.010 . S
O27 C19 1.249 . S
Mg28 O29 2.028 . S
Mg28 O35 1.986 . S
Mg28 O37 2.114 . S
Mg28 O38 2.251 . S
Mg28 O41 2.010 . S
O29 Mg28 2.028 . S
O29 C32 1.250 . S
O30 Mg31 2.028 . S
O30 C32 1.248 . S
Mg31 O30 2.028 . S
Mg31 O36 2.032 . S
Mg31 O38 2.079 . S
C32 O29 1.250 . S
C32 O30 1.248 . S
C33 O34 1.264 . S
C33 O41 1.249 . S
O34 C33 1.264 . S
O35 Mg28 1.986 . S
O35 C39 1.246 . S
O36 Mg31 2.032 . S
O36 C39 1.259 . S
O37 Mg28 2.114 . S
O37 C40 1.252 . S
O38 Mg28 2.251 . S
O38 Mg31 2.079 . S
O38 C40 1.273 . S
C39 O35 1.246 . S
C39 O36 1.259 . S
C40 O37 1.252 . S
C40 O38 1.273 . S
O41 Mg28 2.010 . S
O41 C33 1.249 . S
Mg42 O43 2.028 . S
Mg42 O49 1.986 . S
Mg42 O51 2.114 . S
Mg42 O52 2.251 . S
Mg42 O55 2.010 . S
O43 Mg42 2.028 . S
O43 C46 1.250 . S
O44 Mg45 2.028 . S
O44 C46 1.248 . S
Mg45 O44 2.028 . S
Mg45 O50 2.032 . S
Mg45 O52 2.079 . S
C46 O43 1.250 . S
C46 O44 1.248 . S
C47 O48 1.264 . S
C47 O55 1.249 . S
O48 C47 1.264 . S
O49 Mg42 1.986 . S
O49 C53 1.246 . S
O50 Mg45 2.032 . S
O50 C53 1.259 . S
O51 Mg42 2.114 . S
O51 C54 1.252 . S
O52 Mg42 2.251 . S
O52 Mg45 2.079 . S
O52 C54 1.273 . S
C53 O49 1.246 . S
C53 O50 1.259 . S
C54 O51 1.252 . S
C54 O52 1.273 . S
O55 Mg42 2.010 . S
O55 C47 1.249 . S
Mg56 O57 2.028 . S
Mg56 O63 1.986 . S
Mg56 O65 2.114 . S
Mg56 O66 2.251 . S
Mg56 O69 2.010 . S
O57 Mg56 2.028 . S
O57 C60 1.250 . S
O58 Mg59 2.028 . S
O58 C60 1.248 . S
Mg59 O58 2.028 . S
Mg59 O64 2.032 . S
Mg59 O66 2.079 . S
C60 O57 1.250 . S
C60 O58 1.248 . S
C61 O62 1.264 . S
C61 O69 1.249 . S
O62 C61 1.264 . S
O63 Mg56 1.986 . S
O63 C67 1.246 . S
O64 Mg59 2.032 . S
O64 C67 1.259 . S
O65 Mg56 2.114 . S
O65 C68 1.252 . S
O66 Mg56 2.251 . S
O66 Mg59 2.079 . S
O66 C68 1.273 . S
C67 O63 1.246 . S
C67 O64 1.259 . S
C68 O65 1.252 . S
C68 O66 1.273 . S
O69 Mg56 2.010 . S
O69 C61 1.249 . S
Mg70 O71 2.028 . S
Mg70 O77 1.986 . S
Mg70 O79 2.114 . S
Mg70 O80 2.251 . S
Mg70 O83 2.010 . S
O71 Mg70 2.028 . S
O71 C74 1.250 . S
O72 Mg73 2.028 . S
O72 C74 1.248 . S
Mg73 O72 2.028 . S
Mg73 O78 2.032 . S
Mg73 O80 2.079 . S
C74 O71 1.250 . S
C74 O72 1.248 . S
C75 O76 1.264 . S
C75 O83 1.249 . S
O76 C75 1.264 . S
O77 Mg70 1.986 . S
O77 C81 1.246 . S
O78 Mg73 2.032 . S
O78 C81 1.259 . S
O79 Mg70 2.114 . S
O79 C82 1.252 . S
O80 Mg70 2.251 . S
O80 Mg73 2.079 . S
O80 C82 1.273 . S
C81 O77 1.246 . S
C81 O78 1.259 . S
C82 O79 1.252 . S
C82 O80 1.273 . S
O83 Mg70 2.010 . S
O83 C75 1.249 . S
Mg84 O85 2.028 . S
Mg84 O91 1.986 . S
Mg84 O93 2.114 . S
Mg84 O94 2.251 . S
Mg84 O97 2.010 . S
O85 Mg84 2.028 . S
O85 C88 1.250 . S
O86 Mg87 2.028 . S
O86 C88 1.248 . S
Mg87 O86 2.028 . S
Mg87 O92 2.032 . S
Mg87 O94 2.079 . S
C88 O85 1.250 . S
C88 O86 1.248 . S
C89 O90 1.264 . S
C89 O97 1.249 . S
O90 C89 1.264 . S
O91 Mg84 1.986 . S
O91 C95 1.246 . S
O92 Mg87 2.032 . S
O92 C95 1.259 . S
O93 Mg84 2.114 . S
O93 C96 1.252 . S
O94 Mg84 2.251 . S
O94 Mg87 2.079 . S
O94 C96 1.273 . S
C95 O91 1.246 . S
C95 O92 1.259 . S
C96 O93 1.252 . S
C96 O94 1.273 . S
O97 Mg84 2.010 . S
O97 C89 1.249 . S
Mg98 O99 2.028 . S
Mg98 O105 1.986 . S
Mg98 O107 2.114 . S
Mg98 O108 2.251 . S
Mg98 O111 2.010 . S
O99 Mg98 2.028 . S
O99 C102 1.250 . S
O100 Mg101 2.028 . S
O100 C102 1.248 . S
Mg101 O100 2.028 . S
Mg101 O106 2.032 . S
Mg101 O108 2.079 . S
C102 O99 1.250 . S
C102 O100 1.248 . S
C103 O104 1.264 . S
C103 O111 1.249 . S
O104 C103 1.264 . S
O105 Mg98 1.986 . S
O105 C109 1.246 . S
O106 Mg101 2.032 . S
O106 C109 1.259 . S
O107 Mg98 2.114 . S
O107 C110 1.252 . S
O108 Mg98 2.251 . S
O108 Mg101 2.079 . S
O108 C110 1.273 . S
C109 O105 1.246 . S
C109 O106 1.259 . S
C110 O107 1.252 . S
C110 O108 1.273 . S
O111 Mg98 2.010 . S
O111 C103 1.249 . S
Mg112 O113 2.028 . S
Mg112 O119 1.986 . S
Mg112 O121 2.114 . S
Mg112 O122 2.251 . S
Mg112 O125 2.010 . S
O113 Mg112 2.028 . S
O113 C116 1.250 . S
O114 Mg115 2.028 . S
O114 C116 1.248 . S
Mg115 O114 2.028 . S
Mg115 O120 2.032 . S
Mg115 O122 2.079 . S
C116 O113 1.250 . S
C116 O114 1.248 . S
C117 O118 1.264 . S
C117 O125 1.249 . S
O118 C117 1.264 . S
O119 Mg112 1.986 . S
O119 C123 1.246 . S
O120 Mg115 2.032 . S
O120 C123 1.259 . S
O121 Mg112 2.114 . S
O121 C124 1.252 . S
O122 Mg112 2.251 . S
O122 Mg115 2.079 . S
O122 C124 1.273 . S
C123 O119 1.246 . S
C123 O120 1.259 . S
C124 O121 1.252 . S
C124 O122 1.273 . S
O125 Mg112 2.010 . S
O125 C117 1.249 . S
Mg126 O127 2.028 . S
Mg126 O133 1.986 . S
Mg126 O135 2.114 . S
Mg126 O136 2.251 . S
Mg126 O139 2.010 . S
O127 Mg126 2.028 . S
O127 C130 1.250 . S
O128 Mg129 2.028 . S
O128 C130 1.248 . S
Mg129 O128 2.028 . S
Mg129 O134 2.032 . S
Mg129 O136 2.079 . S
C130 O127 1.250 . S
C130 O128 1.248 . S
C131 O132 1.264 . S
C131 O139 1.249 . S
O132 C131 1.264 . S
O133 Mg126 1.986 . S
O133 C137 1.246 . S
O134 Mg129 2.032 . S
O134 C137 1.259 . S
O135 Mg126 2.114 . S
O135 C138 1.252 . S
O136 Mg126 2.251 . S
O136 Mg129 2.079 . S
O136 C138 1.273 . S
C137 O133 1.246 . S
C137 O134 1.259 . S
C138 O135 1.252 . S
C138 O136 1.273 . S
O139 Mg126 2.010 . S
O139 C131 1.249 . S
Mg140 O141 2.028 . S
Mg140 O147 1.986 . S
Mg140 O149 2.114 . S
Mg140 O150 2.251 . S
Mg140 O153 2.010 . S
O141 Mg140 2.028 . S
O141 C144 1.250 . S
O142 Mg143 2.028 . S
O142 C144 1.248 . S
Mg143 O142 2.028 . S
Mg143 O148 2.032 . S
Mg143 O150 2.079 . S
C144 O141 1.250 . S
C144 O142 1.248 . S
C145 O146 1.264 . S
C145 O153 1.249 . S
O146 C145 1.264 . S
O147 Mg140 1.986 . S
O147 C151 1.246 . S
O148 Mg143 2.032 . S
O148 C151 1.259 . S
O149 Mg140 2.114 . S
O149 C152 1.252 . S
O150 Mg140 2.251 . S
O150 Mg143 2.079 . S
O150 C152 1.273 . S
C151 O147 1.246 . S
C151 O148 1.259 . S
C152 O149 1.252 . S
C152 O150 1.273 . S
O153 Mg140 2.010 . S
O153 C145 1.249 . S
Mg154 O155 2.028 . S
Mg154 O161 1.986 . S
Mg154 O163 2.114 . S
Mg154 O164 2.251 . S
Mg154 O167 2.010 . S
O155 Mg154 2.028 . S
O155 C158 1.250 . S
O156 Mg157 2.028 . S
O156 C158 1.248 . S
Mg157 O156 2.028 . S
Mg157 O162 2.032 . S
Mg157 O164 2.079 . S
C158 O155 1.250 . S
C158 O156 1.248 . S
C159 O160 1.264 . S
C159 O167 1.249 . S
O160 C159 1.264 . S
O161 Mg154 1.986 . S
O161 C165 1.246 . S
O162 Mg157 2.032 . S
O162 C165 1.259 . S
O163 Mg154 2.114 . S
O163 C166 1.252 . S
O164 Mg154 2.251 . S
O164 Mg157 2.079 . S
O164 C166 1.273 . S
C165 O161 1.246 . S
C165 O162 1.259 . S
C166 O163 1.252 . S
C166 O164 1.273 . S
O167 Mg154 2.010 . S
O167 C159 1.249 . S
Mg168 O169 2.028 . S
Mg168 O175 1.986 . S
Mg168 O177 2.114 . S
Mg168 O178 2.251 . S
Mg168 O181 2.010 . S
O169 Mg168 2.028 . S
O169 C172 1.250 . S
O170 Mg171 2.028 . S
O170 C172 1.248 . S
Mg171 O170 2.028 . S
Mg171 O176 2.032 . S
Mg171 O178 2.079 . S
C172 O169 1.250 . S
C172 O170 1.248 . S
C173 O174 1.264 . S
C173 O181 1.249 . S
O174 C173 1.264 . S
O175 Mg168 1.986 . S
O175 C179 1.246 . S
O176 Mg171 2.032 . S
O176 C179 1.259 . S
O177 Mg168 2.114 . S
O177 C180 1.252 . S
O178 Mg168 2.251 . S
O178 Mg171 2.079 . S
O178 C180 1.273 . S
C179 O175 1.246 . S
C179 O176 1.259 . S
C180 O177 1.252 . S
C180 O178 1.273 . S
O181 Mg168 2.010 . S
O181 C173 1.249 . S
Mg182 O183 2.028 . S
Mg182 O189 1.986 . S
Mg182 O191 2.114 . S
Mg182 O192 2.251 . S
Mg182 O195 2.010 . S
O183 Mg182 2.028 . S
O183 C186 1.250 . S
O184 Mg185 2.028 . S
O184 C186 1.248 . S
Mg185 O184 2.028 . S
Mg185 O190 2.032 . S
Mg185 O192 2.079 . S
C186 O183 1.250 . S
C186 O184 1.248 . S
C187 O188 1.264 . S
C187 O195 1.249 . S
O188 C187 1.264 . S
O189 Mg182 1.986 . S
O189 C193 1.246 . S
O190 Mg185 2.032 . S
O190 C193 1.259 . S
O191 Mg182 2.114 . S
O191 C194 1.252 . S
O192 Mg182 2.251 . S
O192 Mg185 2.079 . S
O192 C194 1.273 . S
C193 O189 1.246 . S
C193 O190 1.259 . S
C194 O191 1.252 . S
C194 O192 1.273 . S
O195 Mg182 2.010 . S
O195 C187 1.249 . S
Mg196 O197 2.028 . S
Mg196 O203 1.986 . S
Mg196 O205 2.114 . S
Mg196 O206 2.251 . S
Mg196 O209 2.010 . S
O197 Mg196 2.028 . S
O197 C200 1.250 . S
O198 Mg199 2.028 . S
O198 C200 1.248 . S
Mg199 O198 2.028 . S
Mg199 O204 2.032 . S
Mg199 O206 2.079 . S
C200 O197 1.250 . S
C200 O198 1.248 . S
C201 O202 1.264 . S
C201 O209 1.249 . S
O202 C201 1.264 . S
O203 Mg196 1.986 . S
O203 C207 1.246 . S
O204 Mg199 2.032 . S
O204 C207 1.259 . S
O205 Mg196 2.114 . S
O205 C208 1.252 . S
O206 Mg196 2.251 . S
O206 Mg199 2.079 . S
O206 C208 1.273 . S
C207 O203 1.246 . S
C207 O204 1.259 . S
C208 O205 1.252 . S
C208 O206 1.273 . S
O209 Mg196 2.010 . S
O209 C201 1.249 . S
Mg210 O211 2.028 . S
Mg210 O217 1.986 . S
Mg210 O219 2.114 . S
Mg210 O220 2.251 . S
Mg210 O223 2.010 . S
O211 Mg210 2.028 . S
O211 C214 1.250 . S
O212 Mg213 2.028 . S
O212 C214 1.248 . S
Mg213 O212 2.028 . S
Mg213 O218 2.032 . S
Mg213 O220 2.079 . S
C214 O211 1.250 . S
C214 O212 1.248 . S
C215 O216 1.264 . S
C215 O223 1.249 . S
O216 C215 1.264 . S
O217 Mg210 1.986 . S
O217 C221 1.246 . S
O218 Mg213 2.032 . S
O218 C221 1.259 . S
O219 Mg210 2.114 . S
O219 C222 1.252 . S
O220 Mg210 2.251 . S
O220 Mg213 2.079 . S
O220 C222 1.273 . S
C221 O217 1.246 . S
C221 O218 1.259 . S
C222 O219 1.252 . S
C222 O220 1.273 . S
O223 Mg210 2.010 . S
O223 C215 1.249 . S
C224 C225 1.391 . S
C224 C226 1.394 . S
C224 H240 0.931 . S
C225 C224 1.391 . S
C225 C229 1.376 . S
C226 C224 1.394 . S
C226 C227 1.369 . S
C226 C230 1.531 . S
C227 C226 1.369 . S
C227 C228 1.410 . S
C227 C235 1.503 . S
C228 C227 1.410 . S
C228 C229 1.392 . S
C228 C231 1.511 . S
C229 C225 1.376 . S
C229 C228 1.392 . S
C229 H241 0.929 . S
C230 C226 1.531 . S
C230 H242 0.960 . S
C230 H243 0.962 . S
C230 H244 0.960 . S
C231 C228 1.511 . S
C231 H245 0.961 . S
C231 H246 0.961 . S
C231 H247 0.961 . S
C232 C233 1.370 . S
C232 C234 1.363 . S
C232 H248 0.931 . S
C233 C232 1.370 . S
C233 C237 1.408 . S
C234 C232 1.363 . S
C234 C235 1.370 . S
C234 C238 1.524 . S
C235 C227 1.503 . S
C235 C234 1.370 . S
C235 C236 1.403 . S
C236 C235 1.403 . S
C236 C237 1.404 . S
C236 C239 1.539 . S
C237 C233 1.408 . S
C237 C236 1.404 . S
C237 H249 0.930 . S
C238 C234 1.524 . S
C238 H250 0.956 . S
C238 H251 0.961 . S
C238 H252 0.961 . S
C239 C236 1.539 . S
C239 H253 0.958 . S
C239 H254 0.961 . S
C239 H255 0.960 . S
H240 C224 0.931 . S
H241 C229 0.929 . S
H242 C230 0.960 . S
H243 C230 0.962 . S
H244 C230 0.960 . S
H245 C231 0.961 . S
H246 C231 0.961 . S
H247 C231 0.961 . S
H248 C232 0.931 . S
H249 C237 0.930 . S
H250 C238 0.956 . S
H251 C238 0.961 . S
H252 C238 0.961 . S
H253 C239 0.958 . S
H254 C239 0.961 . S
H255 C239 0.960 . S
C256 C257 1.391 . S
C256 C258 1.394 . S
C256 H272 0.931 . S
C257 C256 1.391 . S
C257 C261 1.376 . S
C258 C256 1.394 . S
C258 C259 1.369 . S
C258 C262 1.531 . S
C259 C258 1.369 . S
C259 C260 1.410 . S
C259 C267 1.503 . S
C260 C259 1.410 . S
C260 C261 1.392 . S
C260 C263 1.511 . S
C261 C257 1.376 . S
C261 C260 1.392 . S
C261 H273 0.929 . S
C262 C258 1.531 . S
C262 H274 0.960 . S
C262 H275 0.962 . S
C262 H276 0.960 . S
C263 C260 1.511 . S
C263 H277 0.961 . S
C263 H278 0.961 . S
C263 H279 0.961 . S
C264 C265 1.370 . S
C264 C266 1.363 . S
C264 H280 0.931 . S
C265 C264 1.370 . S
C265 C269 1.408 . S
C266 C264 1.363 . S
C266 C267 1.370 . S
C266 C270 1.524 . S
C267 C259 1.503 . S
C267 C266 1.370 . S
C267 C268 1.403 . S
C268 C267 1.403 . S
C268 C269 1.404 . S
C268 C271 1.539 . S
C269 C265 1.408 . S
C269 C268 1.404 . S
C269 H281 0.930 . S
C270 C266 1.524 . S
C270 H282 0.956 . S
C270 H283 0.961 . S
C270 H284 0.961 . S
C271 C268 1.539 . S
C271 H285 0.958 . S
C271 H286 0.961 . S
C271 H287 0.960 . S
H272 C256 0.931 . S
H273 C261 0.929 . S
H274 C262 0.960 . S
H275 C262 0.962 . S
H276 C262 0.960 . S
H277 C263 0.961 . S
H278 C263 0.961 . S
H279 C263 0.961 . S
H280 C264 0.931 . S
H281 C269 0.930 . S
H282 C270 0.956 . S
H283 C270 0.961 . S
H284 C270 0.961 . S
H285 C271 0.958 . S
H286 C271 0.961 . S
H287 C271 0.960 . S
C288 C289 1.391 . S
C288 C290 1.394 . S
C288 H304 0.931 . S
C289 C288 1.391 . S
C289 C293 1.376 . S
C290 C288 1.394 . S
C290 C291 1.369 . S
C290 C294 1.531 . S
C291 C290 1.369 . S
C291 C292 1.410 . S
C291 C299 1.503 . S
C292 C291 1.410 . S
C292 C293 1.392 . S
C292 C295 1.511 . S
C293 C289 1.376 . S
C293 C292 1.392 . S
C293 H305 0.929 . S
C294 C290 1.531 . S
C294 H306 0.960 . S
C294 H307 0.962 . S
C294 H308 0.960 . S
C295 C292 1.511 . S
C295 H309 0.961 . S
C295 H310 0.961 . S
C295 H311 0.961 . S
C296 C297 1.370 . S
C296 C298 1.363 . S
C296 H312 0.931 . S
C297 C296 1.370 . S
C297 C301 1.408 . S
C298 C296 1.363 . S
C298 C299 1.370 . S
C298 C302 1.524 . S
C299 C291 1.503 . S
C299 C298 1.370 . S
C299 C300 1.403 . S
C300 C299 1.403 . S
C300 C301 1.404 . S
C300 C303 1.539 . S
C301 C297 1.408 . S
C301 C300 1.404 . S
C301 H313 0.930 . S
C302 C298 1.524 . S
C302 H314 0.956 . S
C302 H315 0.961 . S
C302 H316 0.961 . S
C303 C300 1.539 . S
C303 H317 0.958 . S
C303 H318 0.961 . S
C303 H319 0.960 . S
H304 C288 0.931 . S
H305 C293 0.929 . S
H306 C294 0.960 . S
H307 C294 0.962 . S
H308 C294 0.960 . S
H309 C295 0.961 . S
H310 C295 0.961 . S
H311 C295 0.961 . S
H312 C296 0.931 . S
H313 C301 0.930 . S
H314 C302 0.956 . S
H315 C302 0.961 . S
H316 C302 0.961 . S
H317 C303 0.958 . S
H318 C303 0.961 . S
H319 C303 0.960 . S
C320 C321 1.391 . S
C320 C322 1.394 . S
C320 H336 0.931 . S
C321 C320 1.391 . S
C321 C325 1.376 . S
C322 C320 1.394 . S
C322 C323 1.369 . S
C322 C326 1.531 . S
C323 C322 1.369 . S
C323 C324 1.410 . S
C323 C331 1.503 1_455 S
C324 C323 1.410 . S
C324 C325 1.392 . S
C324 C327 1.511 . S
C325 C321 1.376 . S
C325 C324 1.392 . S
C325 H337 0.929 . S
C326 C322 1.531 . S
C326 H338 0.939 1_455 S
C326 H339 0.962 . S
C326 H340 0.960 . S
C327 C324 1.511 . S
C327 H341 0.961 . S
C327 H342 0.961 1_455 S
C327 H343 0.961 . S
C328 C329 1.370 . S
C328 C330 1.363 . S
C328 H344 0.931 . S
C329 C328 1.370 . S
C329 C333 1.408 . S
C330 C328 1.363 . S
C330 C331 1.370 . S
C330 C334 1.524 . S
C331 C323 1.503 1_655 S
C331 C330 1.370 . S
C331 C332 1.403 . S
C332 C331 1.403 . S
C332 C333 1.404 . S
C332 C335 1.539 . S
C333 C329 1.408 . S
C333 C332 1.404 . S
C333 H345 0.930 . S
C334 C330 1.524 . S
C334 H346 0.951 1_655 S
C334 H347 0.961 1_655 S
C334 H348 0.961 . S
C335 C332 1.539 . S
C335 H349 0.958 . S
C335 H350 0.961 . S
C335 H351 0.976 . S
H336 C320 0.931 . S
H337 C325 0.929 . S
H338 C326 0.939 1_655 S
H339 C326 0.962 . S
H340 C326 0.960 . S
H341 C327 0.961 . S
H342 C327 0.961 1_655 S
H343 C327 0.961 . S
H344 C328 0.931 . S
H345 C333 0.930 . S
H346 C334 0.951 1_455 S
H347 C334 0.961 1_455 S
H348 C334 0.961 . S
H349 C335 0.958 . S
H350 C335 0.961 . S
H351 C335 0.976 . S
C352 C353 1.391 . S
C352 C354 1.394 . S
C352 H368 0.931 . S
C353 C352 1.391 . S
C353 C357 1.376 . S
C354 C352 1.394 . S
C354 C355 1.369 . S
C354 C358 1.531 . S
C355 C354 1.369 . S
C355 C356 1.410 . S
C355 C363 1.503 . S
C356 C355 1.410 . S
C356 C357 1.392 . S
C356 C359 1.511 . S
C357 C353 1.376 . S
C357 C356 1.392 . S
C357 H369 0.929 . S
C358 C354 1.531 . S
C358 H370 0.960 . S
C358 H371 0.962 . S
C358 H372 0.960 . S
C359 C356 1.511 . S
C359 H373 0.961 . S
C359 H374 0.961 . S
C359 H375 0.961 . S
C360 C361 1.370 . S
C360 C362 1.363 . S
C360 H376 0.931 . S
C361 C360 1.370 . S
C361 C365 1.408 . S
C362 C360 1.363 . S
C362 C363 1.370 . S
C362 C366 1.524 . S
C363 C355 1.503 . S
C363 C362 1.370 . S
C363 C364 1.403 . S
C364 C363 1.403 . S
C364 C365 1.404 . S
C364 C367 1.539 . S
C365 C361 1.408 . S
C365 C364 1.404 . S
C365 H377 0.930 . S
C366 C362 1.524 . S
C366 H378 0.956 . S
C366 H379 0.961 . S
C366 H380 0.961 . S
C367 C364 1.539 . S
C367 H381 0.958 . S
C367 H382 0.961 . S
C367 H383 0.960 . S
H368 C352 0.931 . S
H369 C357 0.929 . S
H370 C358 0.960 . S
H371 C358 0.962 . S
H372 C358 0.960 . S
H373 C359 0.961 . S
H374 C359 0.961 . S
H375 C359 0.961 . S
H376 C360 0.931 . S
H377 C365 0.930 . S
H378 C366 0.956 . S
H379 C366 0.961 . S
H380 C366 0.961 . S
H381 C367 0.958 . S
H382 C367 0.961 . S
H383 C367 0.960 . S
C384 C385 1.391 . S
C384 C386 1.394 . S
C384 H400 0.931 . S
C385 C384 1.391 . S
C385 C389 1.376 . S
C386 C384 1.394 . S
C386 C387 1.369 . S
C386 C390 1.531 . S
C387 C386 1.369 . S
C387 C388 1.410 . S
C387 C395 1.503 . S
C388 C387 1.410 . S
C388 C389 1.392 . S
C388 C391 1.511 . S
C389 C385 1.376 . S
C389 C388 1.392 . S
C389 H401 0.929 . S
C390 C386 1.531 . S
C390 H402 0.960 . S
C390 H403 0.962 . S
C390 H404 0.954 1_565 S
C391 C388 1.511 . S
C391 H405 0.961 . S
C391 H406 0.961 . S
C391 H407 0.961 . S
C392 C393 1.370 . S
C392 C394 1.363 . S
C392 H408 0.931 . S
C393 C392 1.370 . S
C393 C397 1.408 . S
C394 C392 1.363 . S
C394 C395 1.370 1_455 S
C394 C398 1.524 1_455 S
C395 C387 1.503 . S
C395 C394 1.370 1_655 S
C395 C396 1.403 1_655 S
C396 C395 1.403 1_455 S
C396 C397 1.404 . S
C396 C399 1.539 1_455 S
C397 C393 1.408 . S
C397 C396 1.404 . S
C397 H409 0.930 . S
C398 C394 1.524 1_655 S
C398 H410 0.956 . S
C398 H411 0.961 . S
C398 H412 0.961 1_655 S
C399 C396 1.539 1_655 S
C399 H413 0.958 . S
C399 H414 0.961 1_655 S
C399 H415 0.960 . S
H400 C384 0.931 . S
H401 C389 0.929 . S
H402 C390 0.960 . S
H403 C390 0.962 . S
H404 C390 0.954 1_545 S
H405 C391 0.961 . S
H406 C391 0.961 . S
H407 C391 0.961 . S
H408 C392 0.931 . S
H409 C397 0.930 . S
H410 C398 0.956 . S
H411 C398 0.961 . S
H412 C398 0.961 1_455 S
H413 C399 0.958 . S
H414 C399 0.961 1_455 S
H415 C399 0.960 . S
C416 C417 1.391 . S
C416 C418 1.394 . S
C416 H432 0.931 . S
C417 C416 1.391 . S
C417 C421 1.376 . S
C418 C416 1.394 . S
C418 C419 1.369 . S
C418 C422 1.531 . S
C419 C418 1.369 . S
C419 C420 1.410 . S
C419 C427 1.503 . S
C420 C419 1.410 . S
C420 C421 1.392 . S
C420 C423 1.511 . S
C421 C417 1.376 . S
C421 C420 1.392 . S
C421 H433 0.929 . S
C422 C418 1.531 . S
C422 H434 0.960 . S
C422 H435 0.962 . S
C422 H436 0.960 . S
C423 C420 1.511 . S
C423 H437 0.961 . S
C423 H438 0.961 . S
C423 H439 0.961 . S
C424 C425 1.370 . S
C424 C426 1.363 . S
C424 H440 0.931 . S
C425 C424 1.370 . S
C425 C429 1.408 . S
C426 C424 1.363 . S
C426 C427 1.370 . S
C426 C430 1.524 . S
C427 C419 1.503 . S
C427 C426 1.370 . S
C427 C428 1.403 . S
C428 C427 1.403 . S
C428 C429 1.404 . S
C428 C431 1.539 . S
C429 C425 1.408 . S
C429 C428 1.404 . S
C429 H441 0.930 . S
C430 C426 1.524 . S
C430 H442 0.956 . S
C430 H443 0.961 . S
C430 H444 0.961 . S
C431 C428 1.539 . S
C431 H445 0.958 . S
C431 H446 0.961 . S
C431 H447 0.960 . S
H432 C416 0.931 . S
H433 C421 0.929 . S
H434 C422 0.960 . S
H435 C422 0.962 . S
H436 C422 0.960 . S
H437 C423 0.961 . S
H438 C423 0.961 . S
H439 C423 0.961 . S
H440 C424 0.931 . S
H441 C429 0.930 . S
H442 C430 0.956 . S
H443 C430 0.961 . S
H444 C430 0.961 . S
H445 C431 0.958 . S
H446 C431 0.961 . S
H447 C431 0.960 . S
C448 C449 1.391 . S
C448 C450 1.394 . S
C448 H464 0.931 . S
C449 C448 1.391 . S
C449 C453 1.376 . S
C450 C448 1.394 . S
C450 C451 1.369 . S
C450 C454 1.531 . S
C451 C450 1.369 . S
C451 C452 1.410 . S
C451 C459 1.503 . S
C452 C451 1.410 . S
C452 C453 1.392 . S
C452 C455 1.511 . S
C453 C449 1.376 . S
C453 C452 1.392 . S
C453 H465 0.929 . S
C454 C450 1.531 . S
C454 H466 0.960 . S
C454 H467 0.962 . S
C454 H468 0.960 . S
C455 C452 1.511 . S
C455 H469 0.961 . S
C455 H470 0.961 . S
C455 H471 0.961 . S
C456 C457 1.370 . S
C456 C458 1.363 . S
C456 H472 0.931 . S
C457 C456 1.370 . S
C457 C461 1.408 . S
C458 C456 1.363 . S
C458 C459 1.370 . S
C458 C462 1.524 . S
C459 C451 1.503 . S
C459 C458 1.370 . S
C459 C460 1.403 . S
C460 C459 1.403 . S
C460 C461 1.404 . S
C460 C463 1.539 . S
C461 C457 1.408 . S
C461 C460 1.404 . S
C461 H473 0.930 . S
C462 C458 1.524 . S
C462 H474 0.956 . S
C462 H475 0.961 . S
C462 H476 0.961 . S
C463 C460 1.539 . S
C463 H477 0.958 . S
C463 H478 0.961 . S
C463 H479 0.960 . S
H464 C448 0.931 . S
H465 C453 0.929 . S
H466 C454 0.960 . S
H467 C454 0.962 . S
H468 C454 0.960 . S
H469 C455 0.961 . S
H470 C455 0.961 . S
H471 C455 0.961 . S
H472 C456 0.931 . S
H473 C461 0.930 . S
H474 C462 0.956 . S
H475 C462 0.961 . S
H476 C462 0.961 . S
H477 C463 0.958 . S
H478 C463 0.961 . S
H479 C463 0.960 . S
C480 C481 1.391 . S
C480 C482 1.394 . S
C480 H496 0.931 . S
C481 C480 1.391 . S
C481 C485 1.376 . S
C482 C480 1.394 . S
C482 C483 1.369 . S
C482 C486 1.531 . S
C483 C482 1.369 . S
C483 C484 1.410 . S
C483 C491 1.503 . S
C484 C483 1.410 . S
C484 C485 1.392 . S
C484 C487 1.511 . S
C485 C481 1.376 . S
C485 C484 1.392 . S
C485 H497 0.929 . S
C486 C482 1.531 . S
C486 H498 0.960 . S
C486 H499 0.962 . S
C486 H500 0.960 . S
C487 C484 1.511 . S
C487 H501 0.961 . S
C487 H502 0.961 . S
C487 H503 0.961 . S
C488 C489 1.370 . S
C488 C490 1.363 . S
C488 H504 0.931 . S
C489 C488 1.370 . S
C489 C493 1.408 . S
C490 C488 1.363 . S
C490 C491 1.370 . S
C490 C494 1.524 . S
C491 C483 1.503 . S
C491 C490 1.370 . S
C491 C492 1.403 . S
C492 C491 1.403 . S
C492 C493 1.404 . S
C492 C495 1.539 . S
C493 C489 1.408 . S
C493 C492 1.404 . S
C493 H505 0.930 . S
C494 C490 1.524 . S
C494 H506 0.956 . S
C494 H507 0.961 . S
C494 H508 0.961 . S
C495 C492 1.539 . S
C495 H509 0.958 . S
C495 H510 0.961 . S
C495 H511 0.960 . S
H496 C480 0.931 . S
H497 C485 0.929 . S
H498 C486 0.960 . S
H499 C486 0.962 . S
H500 C486 0.960 . S
H501 C487 0.961 . S
H502 C487 0.961 . S
H503 C487 0.961 . S
H504 C488 0.931 . S
H505 C493 0.930 . S
H506 C494 0.956 . S
H507 C494 0.961 . S
H508 C494 0.961 . S
H509 C495 0.958 . S
H510 C495 0.961 . S
H511 C495 0.960 . S
C512 C513 1.391 . S
C512 C514 1.394 . S
C512 H528 0.931 . S
C513 C512 1.391 . S
C513 C517 1.376 . S
C514 C512 1.394 . S
C514 C515 1.369 . S
C514 C518 1.531 . S
C515 C514 1.369 . S
C515 C516 1.410 . S
C515 C523 1.503 . S
C516 C515 1.410 . S
C516 C517 1.392 . S
C516 C519 1.511 . S
C517 C513 1.376 . S
C517 C516 1.392 . S
C517 H529 0.929 . S
C518 C514 1.531 . S
C518 H530 0.960 . S
C518 H531 0.962 . S
C518 H532 0.960 . S
C519 C516 1.511 . S
C519 H533 0.961 . S
C519 H534 0.961 . S
C519 H535 0.961 . S
C520 C521 1.370 . S
C520 C522 1.363 . S
C520 H536 0.931 . S
C521 C520 1.370 . S
C521 C525 1.408 . S
C522 C520 1.363 . S
C522 C523 1.370 . S
C522 C526 1.524 . S
C523 C515 1.503 . S
C523 C522 1.370 . S
C523 C524 1.403 . S
C524 C523 1.403 . S
C524 C525 1.404 . S
C524 C527 1.539 . S
C525 C521 1.408 . S
C525 C524 1.404 . S
C525 H537 0.930 . S
C526 C522 1.524 . S
C526 H538 0.956 . S
C526 H539 0.961 . S
C526 H540 0.961 . S
C527 C524 1.539 . S
C527 H541 0.958 . S
C527 H542 0.961 . S
C527 H543 0.960 . S
H528 C512 0.931 . S
H529 C517 0.929 . S
H530 C518 0.960 . S
H531 C518 0.962 . S
H532 C518 0.960 . S
H533 C519 0.961 . S
H534 C519 0.961 . S
H535 C519 0.961 . S
H536 C520 0.931 . S
H537 C525 0.930 . S
H538 C526 0.956 . S
H539 C526 0.961 . S
H540 C526 0.961 . S
H541 C527 0.958 . S
H542 C527 0.961 . S
H543 C527 0.960 . S
C544 C545 1.391 . S
C544 C546 1.394 . S
C544 H560 0.931 . S
C545 C544 1.391 . S
C545 C549 1.376 . S
C546 C544 1.394 . S
C546 C547 1.369 . S
C546 C550 1.531 . S
C547 C546 1.369 . S
C547 C548 1.410 . S
C547 C555 1.503 . S
C548 C547 1.410 . S
C548 C549 1.392 . S
C548 C551 1.511 . S
C549 C545 1.376 . S
C549 C548 1.392 . S
C549 H561 0.929 . S
C550 C546 1.531 . S
C550 H562 0.960 . S
C550 H563 0.962 . S
C550 H564 0.960 . S
C551 C548 1.511 . S
C551 H565 0.961 . S
C551 H566 0.961 . S
C551 H567 0.961 . S
C552 C553 1.370 . S
C552 C554 1.363 . S
C552 H568 0.931 . S
C553 C552 1.370 . S
C553 C557 1.408 . S
C554 C552 1.363 . S
C554 C555 1.370 . S
C554 C558 1.524 . S
C555 C547 1.503 . S
C555 C554 1.370 . S
C555 C556 1.403 . S
C556 C555 1.403 . S
C556 C557 1.404 . S
C556 C559 1.539 . S
C557 C553 1.408 . S
C557 C556 1.404 . S
C557 H569 0.930 . S
C558 C554 1.524 . S
C558 H570 0.956 . S
C558 H571 0.961 . S
C558 H572 0.961 . S
C559 C556 1.539 . S
C559 H573 0.958 . S
C559 H574 0.961 . S
C559 H575 0.960 . S
H560 C544 0.931 . S
H561 C549 0.929 . S
H562 C550 0.960 . S
H563 C550 0.962 . S
H564 C550 0.960 . S
H565 C551 0.961 . S
H566 C551 0.961 . S
H567 C551 0.961 . S
H568 C552 0.931 . S
H569 C557 0.930 . S
H570 C558 0.956 . S
H571 C558 0.961 . S
H572 C558 0.961 . S
H573 C559 0.958 . S
H574 C559 0.961 . S
H575 C559 0.960 . S
C576 C577 1.391 . S
C576 C578 1.394 . S
C576 H592 0.931 . S
C577 C576 1.391 . S
C577 C581 1.376 . S
C578 C576 1.394 . S
C578 C579 1.369 . S
C578 C582 1.531 . S
C579 C578 1.369 . S
C579 C580 1.410 . S
C579 C587 1.503 . S
C580 C579 1.410 . S
C580 C581 1.392 . S
C580 C583 1.511 . S
C581 C577 1.376 . S
C581 C580 1.392 . S
C581 H593 0.929 . S
C582 C578 1.531 . S
C582 H594 0.960 . S
C582 H595 0.962 . S
C582 H596 0.960 . S
C583 C580 1.511 . S
C583 H597 0.961 . S
C583 H598 0.961 . S
C583 H599 0.961 . S
C584 C585 1.370 . S
C584 C586 1.363 . S
C584 H600 0.931 . S
C585 C584 1.370 . S
C585 C589 1.408 . S
C586 C584 1.363 . S
C586 C587 1.370 . S
C586 C590 1.524 . S
C587 C579 1.503 . S
C587 C586 1.370 . S
C587 C588 1.403 . S
C588 C587 1.403 . S
C588 C589 1.404 . S
C588 C591 1.539 . S
C589 C585 1.408 . S
C589 C588 1.404 . S
C589 H601 0.930 . S
C590 C586 1.524 . S
C590 H602 0.956 . S
C590 H603 0.961 . S
C590 H604 0.961 . S
C591 C588 1.539 . S
C591 H605 0.958 . S
C591 H606 0.961 . S
C591 H607 0.960 . S
H592 C576 0.931 . S
H593 C581 0.929 . S
H594 C582 0.960 . S
H595 C582 0.962 . S
H596 C582 0.960 . S
H597 C583 0.961 . S
H598 C583 0.961 . S
H599 C583 0.961 . S
H600 C584 0.931 . S
H601 C589 0.930 . S
H602 C590 0.956 . S
H603 C590 0.961 . S
H604 C590 0.961 . S
H605 C591 0.958 . S
H606 C591 0.961 . S
H607 C591 0.960 . S
C608 C609 1.391 . S
C608 C610 1.394 . S
C608 H624 0.931 . S
C609 C608 1.391 . S
C609 C613 1.376 . S
C610 C608 1.394 . S
C610 C611 1.369 . S
C610 C614 1.531 . S
C611 C610 1.369 . S
C611 C612 1.410 . S
C611 C619 1.503 1_455 S
C612 C611 1.410 . S
C612 C613 1.392 . S
C612 C615 1.511 . S
C613 C609 1.376 . S
C613 C612 1.392 . S
C613 H625 0.929 . S
C614 C610 1.531 . S
C614 H626 0.960 . S
C614 H627 0.962 . S
C614 H628 0.960 . S
C615 C612 1.511 . S
C615 H629 0.961 . S
C615 H630 0.961 . S
C615 H631 0.961 . S
C616 C617 1.370 . S
C616 C618 1.363 . S
C616 H632 0.931 . S
C617 C616 1.370 . S
C617 C621 1.408 . S
C618 C616 1.363 . S
C618 C619 1.370 . S
C618 C622 1.524 . S
C619 C611 1.503 1_655 S
C619 C618 1.370 . S
C619 C620 1.403 . S
C620 C619 1.403 . S
C620 C621 1.404 . S
C620 C623 1.539 . S
C621 C617 1.408 . S
C621 C620 1.404 . S
C621 H633 0.930 . S
C622 C618 1.524 . S
C622 H634 0.956 1_655 S
C622 H635 0.961 1_655 S
C622 H636 0.961 . S
C623 C620 1.539 . S
C623 H637 0.958 . S
C623 H638 0.961 . S
C623 H639 0.960 1_655 S
H624 C608 0.931 . S
H625 C613 0.929 . S
H626 C614 0.960 . S
H627 C614 0.962 . S
H628 C614 0.960 . S
H629 C615 0.961 . S
H630 C615 0.961 . S
H631 C615 0.961 . S
H632 C616 0.931 . S
H633 C621 0.930 . S
H634 C622 0.956 1_455 S
H635 C622 0.961 1_455 S
H636 C622 0.961 . S
H637 C623 0.958 . S
H638 C623 0.961 . S
H639 C623 0.960 1_455 S
C640 C641 1.391 . S
C640 C642 1.394 . S
C640 H656 0.931 . S
C641 C640 1.391 . S
C641 C645 1.376 . S
C642 C640 1.394 . S
C642 C643 1.369 . S
C642 C646 1.531 . S
C643 C642 1.369 . S
C643 C644 1.410 . S
C643 C651 1.503 . S
C644 C643 1.410 . S
C644 C645 1.392 . S
C644 C647 1.511 . S
C645 C641 1.376 . S
C645 C644 1.392 . S
C645 H657 0.929 . S
C646 C642 1.531 . S
C646 H658 0.960 . S
C646 H659 0.962 . S
C646 H660 0.960 . S
C647 C644 1.511 . S
C647 H661 0.961 . S
C647 H662 0.961 . S
C647 H663 0.961 . S
C648 C649 1.370 . S
C648 C650 1.363 . S
C648 H664 0.931 . S
C649 C648 1.370 . S
C649 C653 1.408 . S
C650 C648 1.363 . S
C650 C651 1.370 . S
C650 C654 1.524 . S
C651 C643 1.503 . S
C651 C650 1.370 . S
C651 C652 1.403 . S
C652 C651 1.403 . S
C652 C653 1.404 . S
C652 C655 1.539 . S
C653 C649 1.408 . S
C653 C652 1.404 . S
C653 H665 0.930 . S
C654 C650 1.524 . S
C654 H666 0.956 . S
C654 H667 0.961 . S
C654 H668 0.961 . S
C655 C652 1.539 . S
C655 H669 0.958 . S
C655 H670 0.961 . S
C655 H671 0.960 . S
H656 C640 0.931 . S
H657 C645 0.929 . S
H658 C646 0.960 . S
H659 C646 0.962 . S
H660 C646 0.960 . S
H661 C647 0.961 . S
H662 C647 0.961 . S
H663 C647 0.961 . S
H664 C648 0.931 . S
H665 C653 0.930 . S
H666 C654 0.956 . S
H667 C654 0.961 . S
H668 C654 0.961 . S
H669 C655 0.958 . S
H670 C655 0.961 . S
H671 C655 0.960 . S
C672 C673 1.391 . S
C672 C674 1.394 . S
C672 H688 0.931 . S
C673 C672 1.391 . S
C673 C677 1.376 . S
C674 C672 1.394 . S
C674 C675 1.369 . S
C674 C678 1.531 . S
C675 C674 1.369 . S
C675 C676 1.410 . S
C675 C683 1.503 . S
C676 C675 1.410 . S
C676 C677 1.392 . S
C676 C679 1.511 . S
C677 C673 1.376 . S
C677 C676 1.392 . S
C677 H689 0.929 . S
C678 C674 1.531 . S
C678 H690 0.960 . S
C678 H691 0.962 . S
C678 H692 0.960 . S
C679 C676 1.511 . S
C679 H693 0.961 . S
C679 H694 0.961 . S
C679 H695 0.961 . S
C680 C681 1.370 . S
C680 C682 1.363 . S
C680 H696 0.931 . S
C681 C680 1.370 . S
C681 C685 1.408 . S
C682 C680 1.363 . S
C682 C683 1.370 . S
C682 C686 1.524 . S
C683 C675 1.503 . S
C683 C682 1.370 . S
C683 C684 1.403 . S
C684 C683 1.403 . S
C684 C685 1.404 . S
C684 C687 1.539 . S
C685 C681 1.408 . S
C685 C684 1.404 . S
C685 H697 0.930 . S
C686 C682 1.524 . S
C686 H698 0.956 . S
C686 H699 0.961 . S
C686 H700 0.961 . S
C687 C684 1.539 . S
C687 H701 0.958 . S
C687 H702 0.961 . S
C687 H703 0.960 . S
H688 C672 0.931 . S
H689 C677 0.929 . S
H690 C678 0.960 . S
H691 C678 0.962 . S
H692 C678 0.960 . S
H693 C679 0.961 . S
H694 C679 0.961 . S
H695 C679 0.961 . S
H696 C680 0.931 . S
H697 C685 0.930 . S
H698 C686 0.956 . S
H699 C686 0.961 . S
H700 C686 0.961 . S
H701 C687 0.958 . S
H702 C687 0.961 . S
H703 C687 0.960 . S
C704 C705 1.391 . S
C704 C706 1.394 . S
C704 H720 0.931 . S
C705 C704 1.391 . S
C705 C709 1.376 . S
C706 C704 1.394 . S
C706 C707 1.369 . S
C706 C710 1.531 . S
C707 C706 1.369 . S
C707 C708 1.410 . S
C707 C715 1.503 1_455 S
C708 C707 1.410 . S
C708 C709 1.392 . S
C708 C711 1.511 . S
C709 C705 1.376 . S
C709 C708 1.392 . S
C709 H721 0.929 . S
C710 C706 1.531 . S
C710 H722 0.960 . S
C710 H723 0.962 . S
C710 H724 0.960 . S
C711 C708 1.511 . S
C711 H725 0.961 . S
C711 H726 0.961 . S
C711 H727 0.961 . S
C712 C713 1.370 . S
C712 C714 1.363 . S
C712 H728 0.931 . S
C713 C712 1.370 . S
C713 C717 1.408 . S
C714 C712 1.363 . S
C714 C715 1.370 . S
C714 C718 1.524 1_655 S
C715 C707 1.503 1_655 S
C715 C714 1.370 . S
C715 C716 1.403 . S
C716 C715 1.403 . S
C716 C717 1.404 . S
C716 C719 1.539 . S
C717 C713 1.408 . S
C717 C716 1.404 . S
C717 H729 0.930 . S
C718 C714 1.524 1_455 S
C718 H730 0.956 . S
C718 H731 0.961 . S
C718 H732 0.961 1_455 S
C719 C716 1.539 . S
C719 H733 0.958 . S
C719 H734 0.961 . S
C719 H735 0.960 1_655 S
H720 C704 0.931 . S
H721 C709 0.929 . S
H722 C710 0.960 . S
H723 C710 0.962 . S
H724 C710 0.960 . S
H725 C711 0.961 . S
H726 C711 0.961 . S
H727 C711 0.961 . S
H728 C712 0.931 . S
H729 C717 0.930 . S
H730 C718 0.956 . S
H731 C718 0.961 . S
H732 C718 0.961 1_655 S
H733 C719 0.958 . S
H734 C719 0.961 . S
H735 C719 0.960 1_455 S
C736 C737 1.391 . S
C736 C738 1.394 . S
C736 H752 0.931 . S
C737 C736 1.391 . S
C737 C741 1.376 . S
C738 C736 1.394 . S
C738 C739 1.369 . S
C738 C742 1.531 . S
C739 C738 1.369 . S
C739 C740 1.410 . S
C739 C747 1.503 1_554 S
C740 C739 1.410 . S
C740 C741 1.392 . S
C740 C743 1.511 1_554 S
C741 C737 1.376 . S
C741 C740 1.392 . S
C741 H753 0.929 . S
C742 C738 1.531 . S
C742 H754 0.960 . S
C742 H755 0.962 . S
C742 H756 0.960 . S
C743 C740 1.511 1_556 S
C743 H757 0.961 . S
C743 H758 0.961 . S
C743 H759 0.961 . S
C744 C745 1.370 . S
C744 C746 1.363 . S
C744 H760 0.931 . S
C745 C744 1.370 . S
C745 C749 1.408 . S
C746 C744 1.363 . S
C746 C747 1.370 . S
C746 C750 1.524 1_556 S
C747 C739 1.503 1_556 S
C747 C746 1.370 . S
C747 C748 1.403 . S
C748 C747 1.403 . S
C748 C749 1.404 . S
C748 C751 1.539 . S
C749 C745 1.408 . S
C749 C748 1.404 . S
C749 H761 0.930 . S
C750 C746 1.524 1_554 S
C750 H762 0.956 . S
C750 H763 0.961 . S
C750 H764 0.961 . S
C751 C748 1.539 . S
C751 H765 0.958 . S
C751 H766 0.961 . S
C751 H767 0.960 . S
H752 C736 0.931 . S
H753 C741 0.929 . S
H754 C742 0.960 . S
H755 C742 0.962 . S
H756 C742 0.960 . S
H757 C743 0.961 . S
H758 C743 0.961 . S
H759 C743 0.961 . S
H760 C744 0.931 . S
H761 C749 0.930 . S
H762 C750 0.956 . S
H763 C750 0.961 . S
H764 C750 0.961 . S
H765 C751 0.958 . S
H766 C751 0.961 . S
H767 C751 0.960 . S
C768 C769 1.391 . S
C768 C770 1.394 . S
C768 H784 0.931 . S
C769 C768 1.391 . S
C769 C773 1.376 . S
C770 C768 1.394 . S
C770 C771 1.369 . S
C770 C774 1.531 . S
C771 C770 1.369 . S
C771 C772 1.410 . S
C771 C779 1.503 . S
C772 C771 1.410 . S
C772 C773 1.392 . S
C772 C775 1.511 . S
C773 C769 1.376 . S
C773 C772 1.392 . S
C773 H785 0.929 . S
C774 C770 1.531 . S
C774 H786 0.960 . S
C774 H787 0.962 . S
C774 H788 0.960 . S
C775 C772 1.511 . S
C775 H789 0.961 . S
C775 H790 0.961 . S
C775 H791 0.961 . S
C776 C777 1.370 . S
C776 C778 1.363 . S
C776 H792 0.931 . S
C777 C776 1.370 . S
C777 C781 1.408 . S
C778 C776 1.363 . S
C778 C779 1.370 . S
C778 C782 1.524 . S
C779 C771 1.503 . S
C779 C778 1.370 . S
C779 C780 1.403 . S
C780 C779 1.403 . S
C780 C781 1.404 . S
C780 C783 1.539 . S
C781 C777 1.408 . S
C781 C780 1.404 . S
C781 H793 0.930 . S
C782 C778 1.524 . S
C782 H794 0.956 . S
C782 H795 0.961 . S
C782 H796 0.961 . S
C783 C780 1.539 . S
C783 H797 0.958 . S
C783 H798 0.961 . S
C783 H799 0.960 . S
H784 C768 0.931 . S
H785 C773 0.929 . S
H786 C774 0.960 . S
H787 C774 0.962 . S
H788 C774 0.960 . S
H789 C775 0.961 . S
H790 C775 0.961 . S
H791 C775 0.961 . S
H792 C776 0.931 . S
H793 C781 0.930 . S
H794 C782 0.956 . S
H795 C782 0.961 . S
H796 C782 0.961 . S
H797 C783 0.958 . S
H798 C783 0.961 . S
H799 C783 0.960 . S
C800 C801 1.391 . S
C800 C802 1.394 . S
C800 H816 0.931 . S
C801 C800 1.391 . S
C801 C805 1.376 . S
C802 C800 1.394 . S
C802 C803 1.369 . S
C802 C806 1.531 . S
C803 C802 1.369 . S
C803 C804 1.410 . S
C803 C811 1.503 . S
C804 C803 1.410 . S
C804 C805 1.392 . S
C804 C807 1.511 . S
C805 C801 1.376 . S
C805 C804 1.392 . S
C805 H817 0.929 . S
C806 C802 1.531 . S
C806 H818 0.960 . S
C806 H819 0.962 . S
C806 H820 0.960 . S
C807 C804 1.511 . S
C807 H821 0.961 . S
C807 H822 0.961 . S
C807 H823 0.961 . S
C808 C809 1.370 . S
C808 C810 1.363 . S
C808 H824 0.931 . S
C809 C808 1.370 . S
C809 C813 1.408 . S
C810 C808 1.363 . S
C810 C811 1.370 . S
C810 C814 1.524 . S
C811 C803 1.503 . S
C811 C810 1.370 . S
C811 C812 1.403 . S
C812 C811 1.403 . S
C812 C813 1.404 . S
C812 C815 1.539 . S
C813 C809 1.408 . S
C813 C812 1.404 . S
C813 H825 0.930 . S
C814 C810 1.524 . S
C814 H826 0.956 . S
C814 H827 0.961 . S
C814 H828 0.961 . S
C815 C812 1.539 . S
C815 H829 0.958 . S
C815 H830 0.961 . S
C815 H831 0.960 . S
H816 C800 0.931 . S
H817 C805 0.929 . S
H818 C806 0.960 . S
H819 C806 0.962 . S
H820 C806 0.960 . S
H821 C807 0.961 . S
H822 C807 0.961 . S
H823 C807 0.961 . S
H824 C808 0.931 . S
H825 C813 0.930 . S
H826 C814 0.956 . S
H827 C814 0.961 . S
H828 C814 0.961 . S
H829 C815 0.958 . S
H830 C815 0.961 . S
H831 C815 0.960 . S
C832 C833 1.391 . S
C832 C834 1.394 . S
C832 H848 0.931 . S
C833 C832 1.391 . S
C833 C837 1.376 . S
C834 C832 1.394 . S
C834 C835 1.369 . S
C834 C838 1.531 . S
C835 C834 1.369 . S
C835 C836 1.410 . S
C835 C843 1.503 . S
C836 C835 1.410 . S
C836 C837 1.392 . S
C836 C839 1.511 . S
C837 C833 1.376 . S
C837 C836 1.392 . S
C837 H849 0.929 . S
C838 C834 1.531 . S
C838 H850 0.960 . S
C838 H851 0.962 . S
C838 H852 0.960 . S
C839 C836 1.511 . S
C839 H853 0.961 . S
C839 H854 0.961 . S
C839 H855 0.961 . S
C840 C841 1.370 . S
C840 C842 1.363 . S
C840 H856 0.931 . S
C841 C840 1.370 . S
C841 C845 1.408 . S
C842 C840 1.363 . S
C842 C843 1.370 . S
C842 C846 1.524 . S
C843 C835 1.503 . S
C843 C842 1.370 . S
C843 C844 1.403 . S
C844 C843 1.403 . S
C844 C845 1.404 . S
C844 C847 1.539 . S
C845 C841 1.408 . S
C845 C844 1.404 . S
C845 H857 0.930 . S
C846 C842 1.524 . S
C846 H858 0.956 . S
C846 H859 0.961 . S
C846 H860 0.961 . S
C847 C844 1.539 . S
C847 H861 0.958 . S
C847 H862 0.961 . S
C847 H863 0.960 . S
H848 C832 0.931 . S
H849 C837 0.929 . S
H850 C838 0.960 . S
H851 C838 0.962 . S
H852 C838 0.960 . S
H853 C839 0.961 . S
H854 C839 0.961 . S
H855 C839 0.961 . S
H856 C840 0.931 . S
H857 C845 0.930 . S
H858 C846 0.956 . S
H859 C846 0.961 . S
H860 C846 0.961 . S
H861 C847 0.958 . S
H862 C847 0.961 . S
H863 C847 0.960 . S
C864 C865 1.391 . S
C864 C866 1.394 . S
C864 H880 0.931 . S
C865 C864 1.391 . S
C865 C869 1.376 . S
C866 C864 1.394 . S
C866 C867 1.369 . S
C866 C870 1.531 . S
C867 C866 1.369 . S
C867 C868 1.410 . S
C867 C875 1.503 1_556 S
C868 C867 1.410 . S
C868 C869 1.392 . S
C868 C871 1.511 1_556 S
C869 C865 1.376 . S
C869 C868 1.392 . S
C869 H881 0.929 . S
C870 C866 1.531 . S
C870 H882 0.960 . S
C870 H883 0.962 . S
C870 H884 0.960 . S
C871 C868 1.511 1_554 S
C871 H885 0.961 . S
C871 H886 0.961 . S
C871 H887 0.961 . S
C872 C873 1.370 . S
C872 C874 1.363 . S
C872 H888 0.931 . S
C873 C872 1.370 . S
C873 C877 1.408 . S
C874 C872 1.363 . S
C874 C875 1.370 . S
C874 C878 1.524 . S
C875 C867 1.503 1_554 S
C875 C874 1.370 . S
C875 C876 1.403 . S
C876 C875 1.403 . S
C876 C877 1.404 . S
C876 C879 1.539 . S
C877 C873 1.408 . S
C877 C876 1.404 . S
C877 H889 0.930 . S
C878 C874 1.524 . S
C878 H890 0.956 . S
C878 H891 0.961 . S
C878 H892 0.961 . S
C879 C876 1.539 . S
C879 H893 0.958 1_554 S
C879 H894 0.961 . S
C879 H895 0.960 1_554 S
H880 C864 0.931 . S
H881 C869 0.929 . S
H882 C870 0.960 . S
H883 C870 0.962 . S
H884 C870 0.960 . S
H885 C871 0.961 . S
H886 C871 0.961 . S
H887 C871 0.961 . S
H888 C872 0.931 . S
H889 C877 0.930 . S
H890 C878 0.956 . S
H891 C878 0.961 . S
H892 C878 0.961 . S
H893 C879 0.958 1_556 S
H894 C879 0.961 . S
H895 C879 0.960 1_556 S
C896 C897 1.391 . S
C896 C898 1.394 . S
C896 H912 0.931 . S
C897 C896 1.391 . S
C897 C901 1.376 . S
C898 C896 1.394 . S
C898 C899 1.369 . S
C898 C902 1.531 . S
C899 C898 1.369 . S
C899 C900 1.410 . S
C899 C907 1.503 . S
C900 C899 1.410 . S
C900 C901 1.392 . S
C900 C903 1.511 . S
C901 C897 1.376 . S
C901 C900 1.392 . S
C901 H913 0.929 . S
C902 C898 1.531 . S
C902 H914 0.960 . S
C902 H915 0.962 . S
C902 H916 0.960 . S
C903 C900 1.511 . S
C903 H917 0.961 . S
C903 H918 0.961 . S
C903 H919 0.961 . S
C904 C905 1.370 . S
C904 C906 1.363 . S
C904 H920 0.931 . S
C905 C904 1.370 . S
C905 C909 1.408 . S
C906 C904 1.363 . S
C906 C907 1.370 . S
C906 C910 1.524 . S
C907 C899 1.503 . S
C907 C906 1.370 . S
C907 C908 1.403 . S
C908 C907 1.403 . S
C908 C909 1.404 . S
C908 C911 1.539 . S
C909 C905 1.408 . S
C909 C908 1.404 . S
C909 H921 0.930 . S
C910 C906 1.524 . S
C910 H922 0.956 . S
C910 H923 0.961 . S
C910 H924 0.961 . S
C911 C908 1.539 . S
C911 H925 0.958 . S
C911 H926 0.961 . S
C911 H927 0.960 . S
H912 C896 0.931 . S
H913 C901 0.929 . S
H914 C902 0.960 . S
H915 C902 0.962 . S
H916 C902 0.960 . S
H917 C903 0.961 . S
H918 C903 0.961 . S
H919 C903 0.961 . S
H920 C904 0.931 . S
H921 C909 0.930 . S
H922 C910 0.956 . S
H923 C910 0.961 . S
H924 C910 0.961 . S
H925 C911 0.958 . S
H926 C911 0.961 . S
H927 C911 0.960 . S
C928 C929 1.391 . S
C928 C930 1.394 . S
C928 H944 0.931 . S
C929 C928 1.391 . S
C929 C933 1.376 . S
C930 C928 1.394 . S
C930 C931 1.369 . S
C930 C934 1.531 . S
C931 C930 1.369 . S
C931 C932 1.410 . S
C931 C939 1.503 . S
C932 C931 1.410 . S
C932 C933 1.392 . S
C932 C935 1.511 . S
C933 C929 1.376 . S
C933 C932 1.392 . S
C933 H945 0.929 . S
C934 C930 1.531 . S
C934 H946 0.960 . S
C934 H947 0.962 . S
C934 H948 0.960 . S
C935 C932 1.511 . S
C935 H949 0.961 . S
C935 H950 0.961 . S
C935 H951 0.961 . S
C936 C937 1.370 . S
C936 C938 1.363 . S
C936 H952 0.931 . S
C937 C936 1.370 . S
C937 C941 1.408 . S
C938 C936 1.363 . S
C938 C939 1.370 . S
C938 C942 1.524 . S
C939 C931 1.503 . S
C939 C938 1.370 . S
C939 C940 1.403 . S
C940 C939 1.403 . S
C940 C941 1.404 . S
C940 C943 1.539 . S
C941 C937 1.408 . S
C941 C940 1.404 . S
C941 H953 0.930 . S
C942 C938 1.524 . S
C942 H954 0.956 . S
C942 H955 0.961 . S
C942 H956 0.961 . S
C943 C940 1.539 . S
C943 H957 0.958 . S
C943 H958 0.961 . S
C943 H959 0.960 . S
H944 C928 0.931 . S
H945 C933 0.929 . S
H946 C934 0.960 . S
H947 C934 0.962 . S
H948 C934 0.960 . S
H949 C935 0.961 . S
H950 C935 0.961 . S
H951 C935 0.961 . S
H952 C936 0.931 . S
H953 C941 0.930 . S
H954 C942 0.956 . S
H955 C942 0.961 . S
H956 C942 0.961 . S
H957 C943 0.958 . S
H958 C943 0.961 . S
H959 C943 0.960 . S
C960 C961 1.391 . S
C960 C962 1.394 . S
C960 H976 0.931 . S
C961 C960 1.391 . S
C961 C965 1.376 . S
C962 C960 1.394 . S
C962 C963 1.369 . S
C962 C966 1.531 . S
C963 C962 1.369 . S
C963 C964 1.410 . S
C963 C971 1.503 . S
C964 C963 1.410 . S
C964 C965 1.392 . S
C964 C967 1.511 . S
C965 C961 1.376 . S
C965 C964 1.392 . S
C965 H977 0.929 . S
C966 C962 1.531 . S
C966 H978 0.960 . S
C966 H979 0.962 . S
C966 H980 0.960 1_565 S
C967 C964 1.511 . S
C967 H981 0.961 . S
C967 H982 0.961 . S
C967 H983 0.961 . S
C968 C969 1.370 . S
C968 C970 1.363 . S
C968 H984 0.931 . S
C969 C968 1.370 . S
C969 C973 1.408 . S
C970 C968 1.363 . S
C970 C971 1.370 . S
C970 C974 1.524 . S
C971 C963 1.503 . S
C971 C970 1.370 . S
C971 C972 1.403 . S
C972 C971 1.403 . S
C972 C973 1.404 . S
C972 C975 1.539 . S
C973 C969 1.408 . S
C973 C972 1.404 . S
C973 H985 0.930 . S
C974 C970 1.524 . S
C974 H986 0.956 . S
C974 H987 0.961 . S
C974 H988 0.961 . S
C975 C972 1.539 . S
C975 H989 0.958 . S
C975 H990 0.961 . S
C975 H991 0.960 . S
H976 C960 0.931 . S
H977 C965 0.929 . S
H978 C966 0.960 . S
H979 C966 0.962 . S
H980 C966 0.960 1_545 S
H981 C967 0.961 . S
H982 C967 0.961 . S
H983 C967 0.961 . S
H984 C968 0.931 . S
H985 C973 0.930 . S
H986 C974 0.956 . S
H987 C974 0.961 . S
H988 C974 0.961 . S
H989 C975 0.958 . S
H990 C975 0.961 . S
H991 C975 0.960 . S
C992 C993 1.391 . S
C992 C994 1.394 . S
C992 H1008 0.931 . S
C993 C992 1.391 . S
C993 C997 1.376 . S
C994 C992 1.394 . S
C994 C995 1.369 . S
C994 C998 1.531 . S
C995 C994 1.369 . S
C995 C996 1.400 1_545 S
C995 C1003 1.503 1_545 S
C996 C995 1.400 1_565 S
C996 C997 1.380 1_565 S
C996 C999 1.533 . S
C997 C993 1.376 . S
C997 C996 1.380 1_545 S
C997 H1009 0.929 . S
C998 C994 1.531 . S
C998 H1010 0.960 . S
C998 H1011 0.962 . S
C998 H1012 0.960 . S
C999 C996 1.533 . S
C999 H1013 0.961 . S
C999 H1014 0.961 . S
C999 H1015 0.961 . S
C1000 C1001 1.370 . S
C1000 C1002 1.363 . S
C1000 H1016 0.931 . S
C1001 C1000 1.370 . S
C1001 C1005 1.408 . S
C1002 C1000 1.363 . S
C1002 C1003 1.370 . S
C1002 C1006 1.524 1_565 S
C1003 C995 1.503 1_565 S
C1003 C1002 1.370 . S
C1003 C1004 1.403 . S
C1004 C1003 1.403 . S
C1004 C1005 1.404 . S
C1004 C1007 1.539 . S
C1005 C1001 1.408 . S
C1005 C1004 1.404 . S
C1005 H1017 0.930 . S
C1006 C1002 1.524 1_545 S
C1006 H1018 0.956 . S
C1006 H1019 0.961 . S
C1006 H1020 0.961 . S
C1007 C1004 1.539 . S
C1007 H1021 0.958 . S
C1007 H1022 0.961 . S
C1007 H1023 0.960 . S
H1008 C992 0.931 . S
H1009 C997 0.929 . S
H1010 C998 0.960 . S
H1011 C998 0.962 . S
H1012 C998 0.960 . S
H1013 C999 0.961 . S
H1014 C999 0.961 . S
H1015 C999 0.961 . S
H1016 C1000 0.931 . S
H1017 C1005 0.930 . S
H1018 C1006 0.956 . S
H1019 C1006 0.961 . S
H1020 C1006 0.961 . S
H1021 C1007 0.958 . S
H1022 C1007 0.961 . S
H1023 C1007 0.960 . S
C1024 C1025 1.391 . S
C1024 C1026 1.394 . S
C1024 H1040 0.931 . S
C1025 C1024 1.391 . S
C1025 C1029 1.376 . S
C1026 C1024 1.394 . S
C1026 C1027 1.369 . S
C1026 C1030 1.531 . S
C1027 C1026 1.369 . S
C1027 C1028 1.410 . S
C1027 C1035 1.503 . S
C1028 C1027 1.410 . S
C1028 C1029 1.392 . S
C1028 C1031 1.511 . S
C1029 C1025 1.376 . S
C1029 C1028 1.392 . S
C1029 H1041 0.929 . S
C1030 C1026 1.531 . S
C1030 H1042 0.960 . S
C1030 H1043 0.962 . S
C1030 H1044 0.960 . S
C1031 C1028 1.511 . S
C1031 H1045 0.961 . S
C1031 H1046 0.961 . S
C1031 H1047 0.961 . S
C1032 C1033 1.370 . S
C1032 C1034 1.363 . S
C1032 H1048 0.931 . S
C1033 C1032 1.370 . S
C1033 C1037 1.408 . S
C1034 C1032 1.363 . S
C1034 C1035 1.370 . S
C1034 C1038 1.524 . S
C1035 C1027 1.503 . S
C1035 C1034 1.370 . S
C1035 C1036 1.403 . S
C1036 C1035 1.403 . S
C1036 C1037 1.404 . S
C1036 C1039 1.539 . S
C1037 C1033 1.408 . S
C1037 C1036 1.404 . S
C1037 H1049 0.930 . S
C1038 C1034 1.524 . S
C1038 H1050 0.956 . S
C1038 H1051 0.961 . S
C1038 H1052 0.961 . S
C1039 C1036 1.539 . S
C1039 H1053 0.958 . S
C1039 H1054 0.961 . S
C1039 H1055 0.960 . S
H1040 C1024 0.931 . S
H1041 C1029 0.929 . S
H1042 C1030 0.960 . S
H1043 C1030 0.962 . S
H1044 C1030 0.960 . S
H1045 C1031 0.961 . S
H1046 C1031 0.961 . S
H1047 C1031 0.961 . S
H1048 C1032 0.931 . S
H1049 C1037 0.930 . S
H1050 C1038 0.956 . S
H1051 C1038 0.961 . S
H1052 C1038 0.961 . S
H1053 C1039 0.958 . S
H1054 C1039 0.961 . S
H1055 C1039 0.960 . S
C1056 C1057 1.391 . S
C1056 C1058 1.394 . S
C1056 H1072 0.931 . S
C1057 C1056 1.391 . S
C1057 C1061 1.376 . S
C1058 C1056 1.394 . S
C1058 C1059 1.369 . S
C1058 C1062 1.531 1_545 S
C1059 C1058 1.369 . S
C1059 C1060 1.410 . S
C1059 C1067 1.503 1_546 S
C1060 C1059 1.410 . S
C1060 C1061 1.392 . S
C1060 C1063 1.511 1_556 S
C1061 C1057 1.376 . S
C1061 C1060 1.392 . S
C1061 H1073 0.929 . S
C1062 C1058 1.531 1_565 S
C1062 H1074 0.960 . S
C1062 H1075 0.962 . S
C1062 H1076 0.960 . S
C1063 C1060 1.511 1_554 S
C1063 H1077 0.961 1_554 S
C1063 H1078 0.961 . S
C1063 H1079 0.961 . S
C1064 C1065 1.370 . S
C1064 C1066 1.363 . S
C1064 H1080 0.931 . S
C1065 C1064 1.370 . S
C1065 C1069 1.408 . S
C1066 C1064 1.363 . S
C1066 C1067 1.370 . S
C1066 C1070 1.524 1_554 S
C1067 C1059 1.503 1_564 S
C1067 C1066 1.370 . S
C1067 C1068 1.403 1_565 S
C1068 C1067 1.403 1_545 S
C1068 C1069 1.404 1_545 S
C1068 C1071 1.539 . S
C1069 C1065 1.408 . S
C1069 C1068 1.404 1_565 S
C1069 H1081 0.930 . S
C1070 C1066 1.524 1_556 S
C1070 H1082 0.956 . S
C1070 H1083 0.961 . S
C1070 H1084 0.961 . S
C1071 C1068 1.539 . S
C1071 H1085 0.958 . S
C1071 H1086 0.961 . S
C1071 H1087 0.960 . S
H1072 C1056 0.931 . S
H1073 C1061 0.929 . S
H1074 C1062 0.960 . S
H1075 C1062 0.962 . S
H1076 C1062 0.960 . S
H1077 C1063 0.961 1_556 S
H1078 C1063 0.961 . S
H1079 C1063 0.961 . S
H1080 C1064 0.931 . S
H1081 C1069 0.930 . S
H1082 C1070 0.956 . S
H1083 C1070 0.961 . S
H1084 C1070 0.961 . S
H1085 C1071 0.958 . S
H1086 C1071 0.961 . S
H1087 C1071 0.960 . S
C1088 C1089 1.391 . S
C1088 C1090 1.394 . S
C1088 H1104 0.931 . S
C1089 C1088 1.391 . S
C1089 C1093 1.376 . S
C1090 C1088 1.394 . S
C1090 C1091 1.369 . S
C1090 C1094 1.531 . S
C1091 C1090 1.369 . S
C1091 C1092 1.410 . S
C1091 C1099 1.503 . S
C1092 C1091 1.410 . S
C1092 C1093 1.392 . S
C1092 C1095 1.511 . S
C1093 C1089 1.376 . S
C1093 C1092 1.392 . S
C1093 H1105 0.929 . S
C1094 C1090 1.531 . S
C1094 H1106 0.960 . S
C1094 H1107 0.962 . S
C1094 H1108 0.960 . S
C1095 C1092 1.511 . S
C1095 H1109 0.961 . S
C1095 H1110 0.961 . S
C1095 H1111 0.961 . S
C1096 C1097 1.370 . S
C1096 C1098 1.363 . S
C1096 H1112 0.931 . S
C1097 C1096 1.370 . S
C1097 C1101 1.408 . S
C1098 C1096 1.363 . S
C1098 C1099 1.370 . S
C1098 C1102 1.524 . S
C1099 C1091 1.503 . S
C1099 C1098 1.370 . S
C1099 C1100 1.403 . S
C1100 C1099 1.403 . S
C1100 C1101 1.404 . S
C1100 C1103 1.539 . S
C1101 C1097 1.408 . S
C1101 C1100 1.404 . S
C1101 H1113 0.930 . S
C1102 C1098 1.524 . S
C1102 H1114 0.956 . S
C1102 H1115 0.961 . S
C1102 H1116 0.961 . S
C1103 C1100 1.539 . S
C1103 H1117 0.958 . S
C1103 H1118 0.961 . S
C1103 H1119 0.960 . S
H1104 C1088 0.931 . S
H1105 C1093 0.929 . S
H1106 C1094 0.960 . S
H1107 C1094 0.962 . S
H1108 C1094 0.960 . S
H1109 C1095 0.961 . S
H1110 C1095 0.961 . S
H1111 C1095 0.961 . S
H1112 C1096 0.931 . S
H1113 C1101 0.930 . S
H1114 C1102 0.956 . S
H1115 C1102 0.961 . S
H1116 C1102 0.961 . S
H1117 C1103 0.958 . S
H1118 C1103 0.961 . S
H1119 C1103 0.960 . S
C1120 C1121 1.391 . S
C1120 C1122 1.411 . S
C1120 H1136 0.931 . S
C1121 C1120 1.391 . S
C1121 C1125 1.376 . S
C1122 C1120 1.411 . S
C1122 C1123 1.362 1_545 S
C1122 C1126 1.521 1_545 S
C1123 C1122 1.362 1_565 S
C1123 C1124 1.410 1_565 S
C1123 C1131 1.503 . S
C1124 C1123 1.410 1_545 S
C1124 C1125 1.392 . S
C1124 C1127 1.511 1_545 S
C1125 C1121 1.376 . S
C1125 C1124 1.392 . S
C1125 H1137 0.929 . S
C1126 C1122 1.521 1_565 S
C1126 H1138 0.960 . S
C1126 H1139 0.962 1_565 S
C1126 H1140 0.960 . S
C1127 C1124 1.511 1_565 S
C1127 H1141 0.961 1_565 S
C1127 H1142 0.961 . S
C1127 H1143 0.961 . S
C1128 C1129 1.370 . S
C1128 C1130 1.363 . S
C1128 H1144 0.931 . S
C1129 C1128 1.370 . S
C1129 C1133 1.408 . S
C1130 C1128 1.363 . S
C1130 C1131 1.370 . S
C1130 C1134 1.524 1_565 S
C1131 C1123 1.503 . S
C1131 C1130 1.370 . S
C1131 C1132 1.403 . S
C1132 C1131 1.403 . S
C1132 C1133 1.404 . S
C1132 C1135 1.539 . S
C1133 C1129 1.408 . S
C1133 C1132 1.404 . S
C1133 H1145 0.930 . S
C1134 C1130 1.524 1_545 S
C1134 H1146 0.956 . S
C1134 H1147 0.961 . S
C1134 H1148 0.961 . S
C1135 C1132 1.539 . S
C1135 H1149 0.958 . S
C1135 H1150 0.961 . S
C1135 H1151 0.960 . S
H1136 C1120 0.931 . S
H1137 C1125 0.929 . S
H1138 C1126 0.960 . S
H1139 C1126 0.962 1_545 S
H1140 C1126 0.960 . S
H1141 C1127 0.961 1_545 S
H1142 C1127 0.961 . S
H1143 C1127 0.961 . S
H1144 C1128 0.931 . S
H1145 C1133 0.930 . S
H1146 C1134 0.956 . S
H1147 C1134 0.961 . S
H1148 C1134 0.961 . S
H1149 C1135 0.958 . S
H1150 C1135 0.961 . S
H1151 C1135 0.960 . S
C1152 C1153 1.391 . S
C1152 C1154 1.394 . S
C1152 H1168 0.931 . S
C1153 C1152 1.391 . S
C1153 C1157 1.376 . S
C1154 C1152 1.394 . S
C1154 C1155 1.369 . S
C1154 C1158 1.531 . S
C1155 C1154 1.369 . S
C1155 C1156 1.410 . S
C1155 C1163 1.503 . S
C1156 C1155 1.410 . S
C1156 C1157 1.392 . S
C1156 C1159 1.511 . S
C1157 C1153 1.376 . S
C1157 C1156 1.392 . S
C1157 H1169 0.929 . S
C1158 C1154 1.531 . S
C1158 H1170 0.960 . S
C1158 H1171 0.962 . S
C1158 H1172 0.960 . S
C1159 C1156 1.511 . S
C1159 H1173 0.961 . S
C1159 H1174 0.961 . S
C1159 H1175 0.961 . S
C1160 C1161 1.370 . S
C1160 C1162 1.363 . S
C1160 H1176 0.931 . S
C1161 C1160 1.370 . S
C1161 C1165 1.408 . S
C1162 C1160 1.363 . S
C1162 C1163 1.370 . S
C1162 C1166 1.524 . S
C1163 C1155 1.503 . S
C1163 C1162 1.370 . S
C1163 C1164 1.403 . S
C1164 C1163 1.403 . S
C1164 C1165 1.404 . S
C1164 C1167 1.539 . S
C1165 C1161 1.408 . S
C1165 C1164 1.404 . S
C1165 H1177 0.930 . S
C1166 C1162 1.524 . S
C1166 H1178 0.956 . S
C1166 H1179 0.961 . S
C1166 H1180 0.961 . S
C1167 C1164 1.539 . S
C1167 H1181 0.958 . S
C1167 H1182 0.961 . S
C1167 H1183 0.960 . S
H1168 C1152 0.931 . S
H1169 C1157 0.929 . S
H1170 C1158 0.960 . S
H1171 C1158 0.962 . S
H1172 C1158 0.960 . S
H1173 C1159 0.961 . S
H1174 C1159 0.961 . S
H1175 C1159 0.961 . S
H1176 C1160 0.931 . S
H1177 C1165 0.930 . S
H1178 C1166 0.956 . S
H1179 C1166 0.961 . S
H1180 C1166 0.961 . S
H1181 C1167 0.958 . S
H1182 C1167 0.961 . S
H1183 C1167 0.960 . S
C1184 C1185 1.391 . S
C1184 C1186 1.394 . S
C1184 H1200 0.931 . S
C1185 C1184 1.391 . S
C1185 C1189 1.367 1_565 S
C1186 C1184 1.394 . S
C1186 C1187 1.369 1_565 S
C1186 C1190 1.531 1_554 S
C1187 C1186 1.369 1_545 S
C1187 C1188 1.410 . S
C1187 C1195 1.503 1_554 S
C1188 C1187 1.410 . S
C1188 C1189 1.397 . S
C1188 C1191 1.511 . S
C1189 C1185 1.367 1_545 S
C1189 C1188 1.397 . S
C1189 H1201 0.933 . S
C1190 C1186 1.531 1_556 S
C1190 H1202 0.960 . S
C1190 H1203 0.962 . S
C1190 H1204 0.960 1_556 S
C1191 C1188 1.511 . S
C1191 H1205 0.961 . S
C1191 H1206 0.961 . S
C1191 H1207 0.961 . S
C1192 C1193 1.370 . S
C1192 C1194 1.363 . S
C1192 H1208 0.931 . S
C1193 C1192 1.370 . S
C1193 C1197 1.408 . S
C1194 C1192 1.363 . S
C1194 C1195 1.370 . S
C1194 C1198 1.524 1_545 S
C1195 C1187 1.503 1_556 S
C1195 C1194 1.370 . S
C1195 C1196 1.403 . S
C1196 C1195 1.403 . S
C1196 C1197 1.404 . S
C1196 C1199 1.558 . S
C1197 C1193 1.408 . S
C1197 C1196 1.404 . S
C1197 H1209 0.930 . S
C1198 C1194 1.524 1_565 S
C1198 H1210 0.956 . S
C1198 H1211 0.961 1_556 S
C1198 H1212 0.961 . S
C1199 C1196 1.558 . S
C1199 H1213 0.965 . S
C1199 H1214 0.969 . S
C1199 H1215 0.927 1_556 S
H1200 C1184 0.931 . S
H1201 C1189 0.933 . S
H1202 C1190 0.960 . S
H1203 C1190 0.962 . S
H1204 C1190 0.960 1_554 S
H1205 C1191 0.961 . S
H1206 C1191 0.961 . S
H1207 C1191 0.961 . S
H1208 C1192 0.931 . S
H1209 C1197 0.930 . S
H1210 C1198 0.956 . S
H1211 C1198 0.961 1_554 S
H1212 C1198 0.961 . S
H1213 C1199 0.965 . S
H1214 C1199 0.969 . S
H1215 C1199 0.927 1_554 S
C1216 C1217 1.391 . S
C1216 C1218 1.394 . S
C1216 H1232 0.931 . S
C1217 C1216 1.391 . S
C1217 C1221 1.376 . S
C1218 C1216 1.394 . S
C1218 C1219 1.369 . S
C1218 C1222 1.531 . S
C1219 C1218 1.369 . S
C1219 C1220 1.410 . S
C1219 C1227 1.503 . S
C1220 C1219 1.410 . S
C1220 C1221 1.392 . S
C1220 C1223 1.511 . S
C1221 C1217 1.376 . S
C1221 C1220 1.392 . S
C1221 H1233 0.929 . S
C1222 C1218 1.531 . S
C1222 H1234 0.960 . S
C1222 H1235 0.962 . S
C1222 H1236 0.960 . S
C1223 C1220 1.511 . S
C1223 H1237 0.961 . S
C1223 H1238 0.961 . S
C1223 H1239 0.961 . S
C1224 C1225 1.370 . S
C1224 C1226 1.363 . S
C1224 H1240 0.931 . S
C1225 C1224 1.370 . S
C1225 C1229 1.408 . S
C1226 C1224 1.363 . S
C1226 C1227 1.370 . S
C1226 C1230 1.524 . S
C1227 C1219 1.503 . S
C1227 C1226 1.370 . S
C1227 C1228 1.403 . S
C1228 C1227 1.403 . S
C1228 C1229 1.404 . S
C1228 C1231 1.539 . S
C1229 C1225 1.408 . S
C1229 C1228 1.404 . S
C1229 H1241 0.930 . S
C1230 C1226 1.524 . S
C1230 H1242 0.956 . S
C1230 H1243 0.961 . S
C1230 H1244 0.961 . S
C1231 C1228 1.539 . S
C1231 H1245 0.958 . S
C1231 H1246 0.961 . S
C1231 H1247 0.960 . S
H1232 C1216 0.931 . S
H1233 C1221 0.929 . S
H1234 C1222 0.960 . S
H1235 C1222 0.962 . S
H1236 C1222 0.960 . S
H1237 C1223 0.961 . S
H1238 C1223 0.961 . S
H1239 C1223 0.961 . S
H1240 C1224 0.931 . S
H1241 C1229 0.930 . S
H1242 C1230 0.956 . S
H1243 C1230 0.961 . S
H1244 C1230 0.961 . S
H1245 C1231 0.958 . S
H1246 C1231 0.961 . S
H1247 C1231 0.960 . S
C225 C158 1.350 . S
C233 C12 1.353 . S
C257 C222 1.448 . S
C265 C18 1.408 . S
C289 C40 1.454 . S
C297 C130 1.422 . S
C321 C194 1.330 . S
C329 C54 1.327 . S
C353 C68 1.378 . S
C361 C186 1.360 . S
C385 C74 1.450 . S
C393 C166 1.492 . S
C417 C88 1.445 . S
C425 C214 1.467 . S
C449 C102 1.353 . S
C457 C138 1.370 . S
C481 C46 1.451 . S
C489 C116 1.468 . S
C513 C144 1.314 . S
C521 C26 1.383 . S
C545 C172 1.430 . S
C553 C82 1.458 . S
C577 C200 1.307 . S
C585 C110 1.353 . S
C609 C60 1.443 . S
C617 C124 1.454 . S
C641 C152 1.330 . S
C649 C96 1.327 . S
C673 C208 1.497 . S
C681 C32 1.462 . S
C705 C4 1.318 . S
C713 C180 1.373 . S
C737 C5 1.067 . S
C745 C61 1.069 . S
C769 C25 1.052 . S
C777 C81 1.086 . S
C801 C33 1.066 . S
C809 C95 1.143 . S
C833 C109 1.044 . S
C841 C47 1.047 . S
C865 C123 1.197 . S
C873 C179 1.167 . S
C897 C187 1.050 . S
C905 C131 1.050 . S
C929 C151 1.129 . S
C937 C207 1.103 . S
C961 C215 1.019 . S
C969 C159 1.102 . S
C993 C103 1.001 . S
C1001 C19 1.020 . S
C1025 C39 1.049 . S
C1033 C67 1.094 . S
C1057 C53 1.096 . S
C1065 C75 1.091 . S
C1089 C11 1.127 . S
C1097 C89 0.992 . S
C1121 C137 1.183 . S
C1129 C221 1.156 . S
C1153 C173 1.086 . S
C1161 C145 1.039 . S
C1185 C165 1.089 . S
C1193 C193 1.074 . S
C1217 C201 1.039 . S
C1225 C117 1.050 . S
