# Generated by pormake.
# Topology ung, (4)-cn, num edge types: 1
# Building blocks:
#     Node 0, Type 0, BuildingBlock: ESEHIV_clean_sbu_0, # of connection points: 4
#     Node 1, Type 0, BuildingBlock: ESEHIV_clean_sbu_0, # of connection points: 4
#     Node 2, Type 0, BuildingBlock: ESEHIV_clean_sbu_0, # of connection points: 4
#     Node 3, Type 0, BuildingBlock: ESEHIV_clean_sbu_0, # of connection points: 4
#     Node 4, Type 0, BuildingBlock: ESEHIV_clean_sbu_0, # of connection points: 4
#     Node 5, Type 0, BuildingBlock: ESEHIV_clean_sbu_0, # of connection points: 4
#     Node 6, Type 0, BuildingBlock: ESEHIV_clean_sbu_0, # of connection points: 4
#     Node 7, Type 0, BuildingBlock: ESEHIV_clean_sbu_0, # of connection points: 4
#     Node 8, Type 0, BuildingBlock: ESEHIV_clean_sbu_0, # of connection points: 4
#     Node 9, Type 0, BuildingBlock: ESEHIV_clean_sbu_0, # of connection points: 4
#     Node 10, Type 0, BuildingBlock: ESEHIV_clean_sbu_0, # of connection points: 4
#     Node 11, Type 0, BuildingBlock: ESEHIV_clean_sbu_0, # of connection points: 4
#     Node 12, Type 0, BuildingBlock: ESEHIV_clean_sbu_0, # of connection points: 4
#     Node 13, Type 0, BuildingBlock: ESEHIV_clean_sbu_0, # of connection points: 4
#     Node 14, Type 0, BuildingBlock: ESEHIV_clean_sbu_0, # of connection points: 4
#     Node 15, Type 0, BuildingBlock: ESEHIV_clean_sbu_0, # of connection points: 4
#     Node 16, Type 0, BuildingBlock: ESEHIV_clean_sbu_0, # of connection points: 4
#     Node 17, Type 0, BuildingBlock: ESEHIV_clean_sbu_0, # of connection points: 4
#     Edge 18, Type (0, 0), BuildingBlock: KIFKEQ_clean_linker_1, # of connection points: 2
#     Edge 19, Type (0, 0), BuildingBlock: KIFKEQ_clean_linker_1, # of connection points: 2
#     Edge 20, Type (0, 0), BuildingBlock: KIFKEQ_clean_linker_1, # of connection points: 2
#     Edge 21, Type (0, 0), BuildingBlock: KIFKEQ_clean_linker_1, # of connection points: 2
#     Edge 22, Type (0, 0), BuildingBlock: KIFKEQ_clean_linker_1, # of connection points: 2
#     Edge 23, Type (0, 0), BuildingBlock: KIFKEQ_clean_linker_1, # of connection points: 2
#     Edge 24, Type (0, 0), BuildingBlock: KIFKEQ_clean_linker_1, # of connection points: 2
#     Edge 25, Type (0, 0), BuildingBlock: KIFKEQ_clean_linker_1, # of connection points: 2
#     Edge 26, Type (0, 0), BuildingBlock: KIFKEQ_clean_linker_1, # of connection points: 2
#     Edge 27, Type (0, 0), BuildingBlock: KIFKEQ_clean_linker_1, # of connection points: 2
#     Edge 28, Type (0, 0), BuildingBlock: KIFKEQ_clean_linker_1, # of connection points: 2
#     Edge 29, Type (0, 0), BuildingBlock: KIFKEQ_clean_linker_1, # of connection points: 2
#     Edge 30, Type (0, 0), BuildingBlock: KIFKEQ_clean_linker_1, # of connection points: 2
#     Edge 31, Type (0, 0), BuildingBlock: KIFKEQ_clean_linker_1, # of connection points: 2
#     Edge 32, Type (0, 0), BuildingBlock: KIFKEQ_clean_linker_1, # of connection points: 2
#     Edge 33, Type (0, 0), BuildingBlock: KIFKEQ_clean_linker_1, # of connection points: 2
#     Edge 34, Type (0, 0), BuildingBlock: KIFKEQ_clean_linker_1, # of connection points: 2
#     Edge 35, Type (0, 0), BuildingBlock: KIFKEQ_clean_linker_1, # of connection points: 2
#     Edge 36, Type (0, 0), BuildingBlock: KIFKEQ_clean_linker_1, # of connection points: 2
#     Edge 37, Type (0, 0), BuildingBlock: KIFKEQ_clean_linker_1, # of connection points: 2
#     Edge 38, Type (0, 0), BuildingBlock: KIFKEQ_clean_linker_1, # of connection points: 2
#     Edge 39, Type (0, 0), BuildingBlock: KIFKEQ_clean_linker_1, # of connection points: 2
#     Edge 40, Type (0, 0), BuildingBlock: KIFKEQ_clean_linker_1, # of connection points: 2
#     Edge 41, Type (0, 0), BuildingBlock: KIFKEQ_clean_linker_1, # of connection points: 2
#     Edge 42, Type (0, 0), BuildingBlock: KIFKEQ_clean_linker_1, # of connection points: 2
#     Edge 43, Type (0, 0), BuildingBlock: KIFKEQ_clean_linker_1, # of connection points: 2
#     Edge 44, Type (0, 0), BuildingBlock: KIFKEQ_clean_linker_1, # of connection points: 2
#     Edge 45, Type (0, 0), BuildingBlock: KIFKEQ_clean_linker_1, # of connection points: 2
#     Edge 46, Type (0, 0), BuildingBlock: KIFKEQ_clean_linker_1, # of connection points: 2
#     Edge 47, Type (0, 0), BuildingBlock: KIFKEQ_clean_linker_1, # of connection points: 2
#     Edge 48, Type (0, 0), BuildingBlock: KIFKEQ_clean_linker_1, # of connection points: 2
#     Edge 49, Type (0, 0), BuildingBlock: KIFKEQ_clean_linker_1, # of connection points: 2
#     Edge 50, Type (0, 0), BuildingBlock: KIFKEQ_clean_linker_1, # of connection points: 2
#     Edge 51, Type (0, 0), BuildingBlock: KIFKEQ_clean_linker_1, # of connection points: 2
#     Edge 52, Type (0, 0), BuildingBlock: KIFKEQ_clean_linker_1, # of connection points: 2
#     Edge 53, Type (0, 0), BuildingBlock: KIFKEQ_clean_linker_1, # of connection points: 2
# Relax obj value: 0.012
# Max RMSD: 0.188
# Mean RMSD: 0.159
data_MOF--net-ung--node1-ESEHIV_clean_sbu_0--edge1-KIFKEQ_clean_linker_1
_symmetry_space_group_name_H-M    P1
_symmetry_Int_Tables_number       1
_symmetry_cell_setting            triclinic
loop_
_symmetry_equiv_pos_as_xyz
'x, y, z'
_cell_length_a     91.113745
_cell_length_b     88.838287
_cell_length_c     21.514037
_cell_angle_alpha  96.653742
_cell_angle_beta   86.617621
_cell_angle_gamma 122.4977
loop_
_atom_site_label
_atom_site_type_symbol
_atom_site_fract_x
_atom_site_fract_y
_atom_site_fract_z
_atom_type_partial_charge
Cu0 Cu 0.05225 0.60298 0.23661 0.0
N1 N 0.04672 0.591 0.3091 0.0
N2 N 0.04578 0.57447 0.38236 0.0
C3 C 0.05055 0.57907 0.32332 0.0
C4 C 0.03852 0.58376 0.40573 0.0
C5 C 0.03914 0.59391 0.36064 0.0
O6 O 0.05547 0.58898 0.16589 0.0
C7 C 0.08258 0.63256 0.29942 0.0
O8 O 0.08237 0.62012 0.32774 0.0
H9 H 0.05723 0.57434 0.29187 0.0
H10 H 0.03471 0.6031 0.36546 0.0
N11 N 0.0333 0.60421 0.21581 0.0
N12 N 1.01718 0.61243 0.17269 0.0
C13 C 0.0334 0.61599 0.18112 0.0
C14 C 1.01651 0.59288 0.22999 0.0
C15 C 1.00656 0.5979 0.20357 0.0
C16 C 0.06667 0.5845 0.16188 0.0
O17 O 0.07862 0.59096 0.20566 0.0
H18 H 0.04507 0.62662 0.16099 0.0
H19 H 1.01182 0.5816 0.257 0.0
O20 O 0.07169 0.62782 0.25544 0.0
H21 H 0.0332 0.58339 0.45225 0.0
H22 H 0.99256 0.59131 0.20688 0.0
Cu23 Cu 0.49917 0.47896 0.20788 0.0
N24 N 0.50748 0.48905 0.1318 0.0
N25 N 0.5249 0.50457 0.05493 0.0
C26 C 0.52403 0.5005 0.11433 0.0
C27 C 0.50825 0.49527 0.03454 0.0
C28 C 0.4976 0.48572 0.08184 0.0
O29 O 0.51644 0.49386 0.27391 0.0
C30 C 0.4973 0.44691 0.15279 0.0
O31 O 0.51118 0.45776 0.12139 0.0
H32 H 0.53517 0.50582 0.14461 0.0
H33 H 0.48359 0.47681 0.07989 0.0
N34 N 0.47925 0.47945 0.2305 0.0
N35 N 0.45357 0.47249 0.27311 0.0
C36 C 0.46594 0.46839 0.26652 0.0
C37 C 0.47525 0.49097 0.21403 0.0
C38 C 0.45945 0.48671 0.24005 0.0
C39 C 0.5315 0.4964 0.27889 0.0
O40 O 0.53616 0.4873 0.23933 0.0
H41 H 0.46527 0.45745 0.28683 0.0
H42 H 0.48332 0.50177 0.18526 0.0
O43 O 0.49139 0.45354 0.19518 0.0
H44 H 0.50406 0.49506 0.98824 0.0
H45 H 0.45296 0.49378 0.23579 0.0
Cu46 Cu 0.61555 0.02707 0.32701 0.0
N47 N 0.60194 0.02107 0.25523 0.0
N48 N 0.58606 0.02211 0.18198 0.0
C49 C 0.59475 0.02975 0.23691 0.0
C50 C 0.5879 1.00808 0.16524 0.0
C51 C 0.59768 1.00751 0.21027 0.0
O52 O 0.60375 0.03184 0.39815 0.0
C53 C 0.64669 0.04205 0.26409 0.0
O54 O 0.63776 0.02582 0.23489 0.0
H55 H 0.5962 0.04166 0.26261 0.0
H56 H 0.60157 0.99794 0.20983 0.0
N57 N 0.61621 1.00729 0.34501 0.0
N58 N 0.6245 0.99084 0.38554 0.0
C59 C 0.6289 1.00753 0.37531 0.0
C60 C 0.60334 0.98992 0.3359 0.0
C61 C 0.60843 0.97976 0.36043 0.0
C62 C 0.60106 0.04457 0.40839 0.0
O63 O 0.60845 0.05774 0.37234 0.0
H64 H 0.64081 0.01976 0.39164 0.0
H65 H 0.59093 0.98501 0.31437 0.0
O66 O 0.63943 0.04624 0.30944 0.0
H67 H 0.58249 0.99878 0.12363 0.0
H68 H 0.60075 0.96531 0.36027 0.0
Cu69 Cu 0.06518 0.46767 0.74904 0.0
N70 N 0.06905 0.47903 0.67615 0.0
N71 N 0.06881 0.49546 0.60502 0.0
C72 C 0.06537 0.49131 0.66496 0.0
C73 C 0.07491 0.48539 0.57786 0.0
C74 C 0.07499 0.47529 0.62164 0.0
O75 O 0.06259 0.48194 0.8202 0.0
C76 C 0.03453 0.43726 0.69081 0.0
O77 O 0.03355 0.44937 0.66487 0.0
H78 H 0.06012 0.49692 0.69988 0.0
H79 H 0.07871 0.46553 0.61396 0.0
N80 N 0.08508 0.46762 0.76624 0.0
N81 N 0.10325 0.46228 0.81095 0.0
C82 C 0.08673 0.45835 0.80791 0.0
C83 C 0.10105 0.4777 0.74207 0.0
C84 C 0.11224 0.47444 0.76934 0.0
C85 C 0.05058 0.4852 0.82985 0.0
O86 O 0.0371 0.47718 0.7919 0.0
H87 H 0.07612 0.44932 0.83663 0.0
H88 H 0.10438 0.48701 0.70764 0.0
O89 O 0.04615 0.44246 0.7325 0.0
H90 H 0.07851 0.48485 0.5292 0.0
H91 H 0.12596 0.48057 0.75914 0.0
Cu92 Cu 0.65321 0.61284 0.65312 0.0
N93 N 0.64622 0.59876 0.72077 0.0
N94 N 0.62977 0.58124 0.79539 0.0
C95 C 0.62995 0.58832 0.74273 0.0
C96 C 0.6466 0.58743 0.80679 0.0
C97 C 0.65667 0.5982 0.76088 0.0
O98 O 0.63549 0.59968 0.58709 0.0
C99 C 0.67056 0.64598 0.72373 0.0
O100 O 0.68047 0.63988 0.73335 0.0
H101 H 0.6185 0.5864 0.72184 0.0
H102 H 0.6707 0.6054 0.75768 0.0
N103 N 0.67392 0.61558 0.61891 0.0
N104 N 0.69931 0.62594 0.56803 0.0
C105 C 0.68655 0.62893 0.58703 0.0
C106 C 0.67877 0.60372 0.6194 0.0
C107 C 0.69437 0.61006 0.58848 0.0
C108 C 0.61977 0.5956 0.59002 0.0
O109 O 0.61474 0.60214 0.63851 0.0
H110 H 0.68641 0.64061 0.57833 0.0
H111 H 0.67132 0.59117 0.64015 0.0
O112 O 0.6575 0.63639 0.687 0.0
H113 H 0.65135 0.58447 0.84565 0.0
H114 H 0.70131 0.60325 0.58046 0.0
Cu115 Cu 0.49395 0.05353 0.789 0.0
N116 N 0.51002 0.06234 0.85501 0.0
N117 N 0.52601 0.06251 0.93075 0.0
C118 C 0.51172 0.05249 0.89387 0.0
C119 C 0.53331 0.07943 0.91548 0.0
C120 C 0.52345 0.07928 0.86889 0.0
O121 O 0.5026 0.04401 0.71947 0.0
C122 C 0.45629 0.02931 0.79668 0.0
O123 O 0.45548 0.03232 0.73901 0.0
H124 H 0.50292 0.03813 0.89358 0.0
H125 H 0.52633 0.09063 0.84506 0.0
N126 N 0.49454 0.07278 0.75824 0.0
N127 N 0.48805 0.09083 0.71854 0.0
C128 C 0.482 0.07618 0.75001 0.0
C129 C 0.5088 0.08557 0.73087 0.0
C130 C 0.50492 0.09666 0.70671 0.0
C131 C 0.51019 0.03567 0.72544 0.0
O132 O 0.50962 0.02992 0.77956 0.0
H133 H 0.46873 0.06794 0.76562 0.0
H134 H 0.52106 0.08631 0.72665 0.0
O135 O 0.47111 0.03646 0.82268 0.0
H136 H 0.54544 0.09096 0.93407 0.0
H137 H 0.51375 0.10769 0.67989 0.0
Cu138 Cu 0.72906 0.94849 0.66838 0.0
N139 N 0.72631 0.93581 0.73663 0.0
N140 N 0.7272 0.918 0.80023 0.0
C141 C 0.73038 0.92347 0.74199 0.0
C142 C 0.72075 0.92722 0.8322 0.0
C143 C 0.72028 0.93815 0.79307 0.0
O144 O 0.73265 0.9367 0.59142 0.0
C145 C 0.75806 0.97942 0.73287 0.0
O146 O 0.76028 0.96763 0.75519 0.0
H147 H 0.73586 0.91886 0.70436 0.0
H148 H 0.71595 0.94732 0.80497 0.0
N149 N 0.70807 0.94691 0.65661 0.0
N150 N 0.68827 0.95174 0.62292 0.0
C151 C 0.70521 0.95685 0.62204 0.0
C152 C 0.69246 0.93508 0.67976 0.0
C153 C 0.68026 0.93804 0.65928 0.0
C154 C 0.74441 0.93313 0.58005 0.0
O155 O 0.75718 0.93941 0.62033 0.0
H156 H 0.71537 0.96761 0.59698 0.0
H157 H 0.69005 0.92484 0.70882 0.0
O158 O 0.74654 0.97403 0.69057 0.0
H159 H 0.71652 0.92612 0.88041 0.0
H160 H 0.66647 0.93036 0.6692 0.0
Cu161 Cu 0.16108 0.80666 0.59803 0.0
N162 N 0.17615 0.81445 0.66622 0.0
N163 N 0.19551 0.83274 0.74152 0.0
C164 C 0.18601 0.83145 0.69286 0.0
C165 C 0.1914 0.81581 0.74531 0.0
C166 C 0.17949 0.80459 0.69885 0.0
O167 O 0.17203 0.8272 0.54839 0.0
C168 C 0.12366 0.79166 0.60533 0.0
O169 O 0.12313 0.78774 0.54439 0.0
H170 H 0.18602 0.84259 0.67715 0.0
H171 H 0.17372 0.79028 0.68931 0.0
N172 N 0.16078 0.78716 0.55174 0.0
N173 N 0.15302 0.76056 0.49916 0.0
C174 C 0.14744 0.77036 0.53337 0.0
C175 C 0.17516 0.78794 0.52849 0.0
C176 C 0.17047 0.77167 0.49621 0.0
C177 C 0.17322 0.8263 0.48889 0.0
O178 O 0.16424 0.81063 0.45595 0.0
H179 H 0.134 0.76536 0.54536 0.0
H180 H 0.1882 0.79968 0.53415 0.0
O181 O 0.13827 0.79997 0.63365 0.0
H182 H 0.19681 0.8118 0.77858 0.0
H183 H 0.17927 0.76845 0.47137 0.0
Cu184 Cu 0.30015 0.38278 0.61035 0.0
N185 N 0.2923 0.38887 0.68577 0.0
N186 N 0.2744 0.38866 0.7622 0.0
C187 C 0.27565 0.38125 0.70511 0.0
C188 C 0.29095 0.40147 0.77907 0.0
C189 C 0.30192 0.40156 0.73197 0.0
O190 O 0.28111 0.37371 0.55028 0.0
C191 C 0.31919 0.37154 0.66367 0.0
O192 O 0.32764 0.38859 0.685 0.0
H193 H 0.26472 0.37035 0.67802 0.0
H194 H 0.31593 0.41036 0.7313 0.0
N195 N 0.32005 0.40345 0.58366 0.0
N196 N 0.34502 0.42178 0.53552 0.0
C197 C 0.33326 0.40468 0.54778 0.0
C198 C 0.3236 0.42028 0.59474 0.0
C199 C 0.33894 0.43159 0.5654 0.0
C200 C 0.28326 0.37866 0.49537 0.0
O201 O 0.29912 0.3883 0.47364 0.0
H202 H 0.33391 0.39317 0.52958 0.0
H203 H 0.31545 0.42404 0.62173 0.0
O204 O 0.30629 0.36557 0.62696 0.0
H205 H 0.29489 0.41039 0.82193 0.0
H206 H 0.3451 0.44595 0.56622 0.0
Cu207 Cu 0.72966 0.80622 0.09795 0.0
N208 N 0.72195 0.81365 0.17114 0.0
N209 N 0.7206 0.83125 0.25216 0.0
C210 C 0.72933 0.8305 0.19986 0.0
C211 C 0.70728 0.81415 0.25632 0.0
C212 C 0.70818 0.80337 0.2066 0.0
O213 O 0.73779 0.82521 0.04267 0.0
C214 C 0.75738 0.79948 0.08624 0.0
O215 O 0.75585 0.79891 0.02554 0.0
H216 H 0.74078 0.84199 0.18231 0.0
H217 H 0.69947 0.78901 0.19723 0.0
N218 N 0.71126 0.78429 0.05959 0.0
N219 N 0.69661 0.75802 0.99948 0.0
C220 C 0.71218 0.77111 0.02503 0.0
C221 C 0.69452 0.77932 0.056 0.0
C222 C 0.68548 0.76318 0.01932 0.0
C223 C 0.73286 0.82243 0.98599 0.0
O224 O 0.72346 0.80589 0.9598 0.0
H225 H 0.72408 0.77123 1.01809 0.0
H226 H 0.68937 0.7872 0.077 0.0
O227 O 0.74792 0.80297 0.12315 0.0
H228 H 0.69771 0.80962 0.29332 0.0
H229 H 0.67188 0.75616 1.00645 0.0
Cu230 Cu 0.30232 0.95587 0.13396 0.0
N231 N 0.29412 0.94479 0.20838 0.0
N232 N 0.27579 0.92702 0.27921 0.0
C233 C 0.2785 0.92988 0.21799 0.0
C234 C 0.29031 0.94061 0.30902 0.0
C235 C 0.30157 0.9515 0.2653 0.0
O236 O 0.28337 0.94214 0.07316 0.0
C237 C 0.30178 0.98669 0.18789 0.0
O238 O 0.28631 0.97496 0.2086 0.0
H239 H 0.26897 0.92179 0.18131 0.0
H240 H 0.31404 0.96384 0.27457 0.0
N241 N 0.32182 0.9553 0.10395 0.0
N242 N 0.34687 0.96276 0.05417 0.0
C243 C 0.3351 0.96739 0.0702 0.0
C244 C 0.32528 0.94261 0.10968 0.0
C245 C 0.34068 0.94715 0.07921 0.0
C246 C 0.28552 0.94057 1.01426 0.0
O247 O 0.30117 0.95032 0.99095 0.0
H248 H 0.33605 0.97934 0.05772 0.0
H249 H 0.31705 0.93075 0.13372 0.0
O250 O 0.30997 0.98112 0.15245 0.0
H251 H 0.29253 0.94267 0.35902 0.0
H252 H 0.34662 0.93931 0.07474 0.0
Cu253 Cu 0.16013 0.37821 0.14165 0.0
N254 N 0.17274 0.38353 0.21532 0.0
N255 N 0.19048 0.38414 0.28498 0.0
C256 C 0.18359 0.37818 0.22658 0.0
C257 C 0.18365 0.39364 0.31108 0.0
C258 C 0.17275 0.39323 0.26813 0.0
O259 O 0.17103 0.37024 0.07646 0.0
C260 C 0.13042 0.34807 0.19071 0.0
O261 O 0.14192 0.34543 0.21275 0.0
H262 H 0.18613 0.36985 0.19275 0.0
H263 H 0.16536 0.39958 0.27481 0.0
N264 N 0.16178 0.39891 0.12012 0.0
N265 N 0.15563 0.41681 0.07776 0.0
C266 C 0.14998 0.39979 0.08828 0.0
C267 C 0.17533 0.41591 0.13042 0.0
C268 C 0.17159 0.42697 0.10449 0.0
C269 C 0.17242 0.37356 0.01962 0.0
O270 O 0.16422 0.38068 1.00083 0.0
H271 H 0.13758 0.3881 0.07266 0.0
H272 H 0.18724 0.41993 0.15406 0.0
O273 O 0.13557 0.36074 0.15626 0.0
H274 H 0.18649 0.40066 0.3576 0.0
H275 H 0.18023 0.44133 0.10378 0.0
Cu276 Cu 0.38929 0.28741 0.92145 0.0
N277 N 0.38408 0.2758 0.99449 0.0
N278 N 0.38307 0.25883 0.06615 0.0
C279 C 0.38871 0.2645 1.00875 0.0
C280 C 0.37465 0.26701 0.08869 0.0
C281 C 0.37533 0.27746 0.04458 0.0
O282 O 0.39445 0.27398 0.85471 0.0
C283 C 0.42186 0.31726 0.97153 0.0
O284 O 0.42458 0.30498 0.986 0.0
H285 H 0.39598 0.26047 0.9773 0.0
H286 H 0.36996 0.28582 0.04886 0.0
N287 N 0.37006 0.28772 0.89649 0.0
N288 N 0.35413 0.29607 0.85218 0.0
C289 C 0.37027 0.29934 0.86068 0.0
C290 C 0.35326 0.27666 0.91114 0.0
C291 C 0.34344 0.28175 0.8841 0.0
C292 C 0.38308 0.25726 0.84349 0.0
O293 O 0.36873 0.25017 0.87672 0.0
H294 H 0.38209 0.30994 0.84133 0.0
H295 H 0.34851 0.26575 0.94004 0.0
O296 O 0.40817 0.3124 0.94105 0.0
H297 H 0.36868 0.26585 0.13432 0.0
H298 H 0.32953 0.27555 0.88902 0.0
Cu299 Cu 0.81248 0.13673 1.00544 0.0
N300 N 0.81932 0.15091 0.93873 0.0
N301 N 0.83604 0.16842 0.86467 0.0
C302 C 0.83559 0.1608 0.91629 0.0
C303 C 0.81933 0.16302 0.85449 0.0
C304 C 0.80908 0.15219 0.89999 0.0
O305 O 0.8316 0.14924 0.0671 0.0
C306 C 0.80323 0.09932 0.99139 0.0
O307 O 0.80273 0.09975 0.05269 0.0
H308 H 0.8468 0.16223 0.93745 0.0
H309 H 0.79507 0.14535 0.90367 0.0
N310 N 0.79225 0.13466 0.042 0.0
N311 N 0.76659 0.12447 0.09108 0.0
C312 C 0.77894 0.12097 0.0706 0.0
C313 C 0.78818 0.14719 0.04448 0.0
C314 C 0.77246 0.14099 0.07437 0.0
C315 C 0.83758 0.16588 0.08273 0.0
O316 O 0.83034 0.17326 0.0583 0.0
H317 H 0.77843 0.10878 0.07645 0.0
H318 H 0.79605 0.15995 0.02529 0.0
O319 O 0.80744 0.11338 0.96609 0.0
H320 H 0.81469 0.16615 0.81581 0.0
H321 H 0.76577 0.14807 0.08182 0.0
Cu322 Cu 0.97336 0.71087 0.85292 0.0
N323 N 0.95998 0.70489 0.78103 0.0
N324 N 0.94335 0.70512 0.70907 0.0
C325 C 0.94989 0.71098 0.76791 0.0
C326 C 0.94967 0.69503 0.68444 0.0
C327 C 0.95999 0.69503 0.72867 0.0
O328 O 0.96273 0.71873 0.92053 0.0
C329 C 1.01144 0.73531 0.85526 0.0
O330 O 1.01145 0.73119 0.9119 0.0
H331 H 0.94764 0.71975 0.80058 0.0
H332 H 0.96742 0.68872 0.72252 0.0
N333 N 0.97224 0.69011 0.87249 0.0
N334 N 0.97693 0.6709 0.91334 0.0
C335 C 0.98202 0.68828 0.91223 0.0
C336 C 0.96046 0.6733 0.84864 0.0
C337 C 0.96331 0.66151 0.87342 0.0
C338 C 0.94732 0.70694 0.93662 0.0
O339 O 0.94005 0.69055 0.90883 0.0
H340 H 0.99262 0.6994 0.93975 0.0
H341 H 0.95023 0.66978 0.81614 0.0
O342 O 0.99699 0.72893 0.82742 0.0
H343 H 0.94759 0.68869 0.63696 0.0
H344 H 0.95561 0.64707 0.86371 0.0
Cu345 Cu 0.39554 0.14778 0.43169 0.0
N346 N 0.40081 0.15945 0.35884 0.0
N347 N 0.40164 0.17625 0.28688 0.0
C348 C 0.39552 0.17011 0.34342 0.0
C349 C 0.41114 0.1691 0.26628 0.0
C350 C 0.41058 0.15878 0.31062 0.0
O351 O 0.38894 0.16045 0.49674 0.0
C352 C 0.36512 0.11643 0.37461 0.0
O353 O 0.36218 0.12783 0.35305 0.0
H354 H 0.38715 0.17306 0.37283 0.0
H355 H 0.4169 0.15133 0.30805 0.0
N356 N 0.41534 0.14903 0.45955 0.0
N357 N 0.43246 0.14338 0.50966 0.0
C358 C 0.41593 0.13769 0.49463 0.0
C359 C 0.43204 0.16212 0.4515 0.0
C360 C 0.4426 0.15874 0.48265 0.0
C361 C 0.40046 0.17692 0.51223 0.0
O362 O 0.41552 0.18414 0.48347 0.0
H363 H 0.4045 0.12581 0.51024 0.0
H364 H 0.43624 0.17348 0.42548 0.0
O365 O 0.37794 0.12236 0.41152 0.0
H366 H 0.41822 0.17134 0.22266 0.0
H367 H 0.45667 0.16692 0.48517 0.0
Cu368 Cu 0.96537 0.27383 0.4582 0.0
N369 N 0.95766 0.26039 0.52705 0.0
N370 N 0.94051 0.24358 0.60192 0.0
C371 C 0.94127 0.25082 0.54887 0.0
C372 C 0.95711 0.24885 0.61351 0.0
C373 C 0.96762 0.25925 0.5676 0.0
O374 O 0.94623 0.2618 0.39661 0.0
C375 C 0.97763 0.31191 0.46377 0.0
O376 O 0.97803 0.31027 0.40232 0.0
H377 H 0.93025 0.24964 0.52708 0.0
H378 H 0.9816 0.26574 0.5644 0.0
N379 N 0.98487 0.2738 0.42394 0.0
N380 N 1.01002 0.28106 0.37531 0.0
C381 C 0.99859 0.28614 0.39216 0.0
C382 C 0.98784 0.26064 0.42746 0.0
C383 C 1.00321 0.26503 0.39779 0.0
C384 C 0.94102 0.2456 0.37606 0.0
O385 O 0.94887 0.23828 0.39627 0.0
H386 H 1.00009 0.29847 0.38129 0.0
H387 H 0.97943 0.24865 0.45052 0.0
O388 O 0.97222 0.29815 0.49289 0.0
H389 H 0.96145 0.24547 0.65234 0.0
H390 H 1.00908 0.25713 0.39433 0.0
Cu391 Cu 0.84533 0.72962 0.31989 0.0
N392 N 0.85935 0.73771 0.39129 0.0
N393 N 0.87574 0.73851 0.46666 0.0
C394 C 0.86781 0.73047 0.41075 0.0
C395 C 0.87206 0.75129 0.48288 0.0
C396 C 0.86193 0.75072 0.43643 0.0
O397 O 0.8568 0.72248 0.25321 0.0
C398 C 0.80815 0.70098 0.31853 0.0
O399 O 0.80742 0.70259 0.25906 0.0
H400 H 0.86763 0.71914 0.38521 0.0
H401 H 0.85651 0.75896 0.43619 0.0
N402 N 0.84379 0.74852 0.29666 0.0
N403 N 0.83399 0.76455 0.26304 0.0
C404 C 0.83021 0.74798 0.27179 0.0
C405 C 0.85654 0.766 0.30343 0.0
C406 C 0.85056 0.77589 0.28298 0.0
C407 C 0.87305 0.73358 0.24513 0.0
O408 O 0.88076 0.74901 0.28005 0.0
H409 H 0.81772 0.7358 0.26152 0.0
H410 H 0.86932 0.77123 0.32242 0.0
O411 O 0.82265 0.7104 0.34753 0.0
H412 H 0.87632 0.76037 0.52535 0.0
H413 H 0.85791 0.79031 0.28231 0.0
H414 H 1.02639 0.49321 0.87425 0.0
H415 H 0.07978 0.50938 0.89915 0.0
H416 H 0.03037 0.517 0.95397 0.0
H417 H 0.08405 0.53361 0.97655 0.0
H418 H 0.08256 0.56552 0.15554 0.0
H419 H 0.07828 0.54128 0.07795 0.0
H420 H 0.04307 0.54798 0.97555 0.0
H421 H 0.0468 0.5717 0.05494 0.0
C422 C 0.039 0.50186 0.89661 0.0
C423 C 0.05272 0.49927 0.88029 0.0
C424 C 0.04137 0.51568 0.94208 0.0
C425 C 0.05759 0.52745 0.97208 0.0
C426 C 0.07127 0.52474 0.9557 0.0
C427 C 0.06884 0.51082 0.91084 0.0
C428 C 0.07398 0.5619 0.11626 0.0
C429 C 0.06505 0.57063 0.11162 0.0
C430 C 0.07155 0.54798 0.07137 0.0
C431 C 0.06027 0.54247 0.01994 0.0
C432 C 0.05159 0.55147 1.01486 0.0
C433 C 0.05386 0.56526 0.0602 0.0
H434 H 0.62923 0.5787 0.92024 0.0
H435 H 0.59631 0.55847 0.75646 0.0
H436 H 0.60406 0.5604 0.9841 0.0
H437 H 0.57113 0.53996 0.82003 0.0
H438 H 0.52704 0.52338 0.96052 0.0
H439 H 0.55249 0.54192 0.89843 0.0
H440 H 0.58317 0.53028 1.00606 0.0
H441 H 0.55765 0.51188 0.06882 0.0
C442 C 0.61666 0.57019 0.89764 0.0
C443 C 0.61484 0.57011 0.83307 0.0
C444 C 0.60218 0.55965 0.93435 0.0
C445 C 0.58547 0.54867 0.90748 0.0
C446 C 0.5837 0.54848 0.84275 0.0
C447 C 0.59817 0.55909 0.80612 0.0
C448 C 0.53918 0.52468 0.97078 0.0
C449 C 0.54023 0.51604 0.01959 0.0
C450 C 0.55382 0.53531 0.93498 0.0
C451 C 0.56995 0.53756 0.94671 0.0
C452 C 0.57105 0.52907 0.99604 0.0
C453 C 0.5564 0.51849 0.03212 0.0
H454 H 0.57901 1.01544 0.05733 0.0
H455 H 0.57245 0.04192 0.2283 0.0
H456 H 0.56367 0.02487 0.99957 0.0
H457 H 0.55711 0.05143 0.17019 0.0
H458 H 0.54785 0.0814 0.02958 0.0
H459 H 0.56213 0.07155 0.09191 0.0
H460 H 0.53487 0.01934 0.98679 0.0
H461 H 0.52111 0.02935 0.92322 0.0
C462 C 0.57416 0.02311 0.08287 0.0
C463 C 0.57698 0.02783 0.14773 0.0
C464 C 0.56532 0.02853 0.04961 0.0
C465 C 0.55906 0.03885 0.08018 0.0
C466 C 0.56192 0.04366 0.14499 0.0
C467 C 0.57076 0.03821 0.17834 0.0
C468 C 0.54492 0.06783 0.01971 0.0
C469 C 0.53334 0.05622 0.97109 0.0
C470 C 0.55299 0.06212 0.05588 0.0
C471 C 0.54974 0.04467 0.0442 0.0
C472 C 0.53787 0.03295 0.99655 0.0
C473 C 0.52978 0.03863 0.96054 0.0
H474 H 0.59159 0.06896 0.44352 0.0
H475 H 0.58075 1.01722 0.48134 0.0
H476 H 0.56914 0.06604 0.518 0.0
H477 H 0.55802 1.01405 0.55408 0.0
H478 H 0.53108 0.02236 0.72884 0.0
H479 H 0.55305 0.02475 0.65376 0.0
H480 H 0.53832 0.05022 0.53332 0.0
H481 H 0.51663 0.04832 0.60972 0.0
C482 C 0.58445 0.05697 0.46774 0.0
C483 C 0.58809 0.04338 0.45646 0.0
C484 C 0.57141 0.0552 0.51008 0.0
C485 C 0.5616 0.03975 0.54215 0.0
C486 C 0.56539 0.02625 0.53113 0.0
C487 C 0.57845 0.02806 0.48908 0.0
C488 C 0.53236 0.0283 0.68607 0.0
C489 C 0.52201 0.03514 0.67553 0.0
C490 C 0.54499 0.02964 0.64272 0.0
C491 C 0.54763 0.03778 0.58728 0.0
C492 C 0.53694 0.04417 0.57591 0.0
C493 C 0.52432 0.04289 0.61947 0.0
H494 H 0.04778 0.57463 0.50821 0.0
H495 H 0.0507 0.54804 0.3309 0.0
H496 H 0.05332 0.55566 0.56283 0.0
H497 H 0.05632 0.52912 0.38571 0.0
H498 H 0.08474 0.51222 0.50123 0.0
H499 H 0.07891 0.53116 0.44771 0.0
H500 H 0.04019 0.52476 0.58618 0.0
H501 H 0.04596 0.50573 0.63973 0.0
C502 C 0.04941 0.56463 0.48072 0.0
C503 C 0.04877 0.56294 0.41487 0.0
C504 C 0.05261 0.55373 0.51221 0.0
C505 C 0.05531 0.54086 0.47879 0.0
C506 C 0.05459 0.53909 0.41299 0.0
C507 C 0.05135 0.54996 0.38148 0.0
C508 C 0.07488 0.51471 0.52016 0.0
C509 C 0.06579 0.50731 0.57484 0.0
C510 C 0.07153 0.52559 0.48933 0.0
C511 C 0.059 0.52943 0.51232 0.0
C512 C 0.05006 0.52225 0.56748 0.0
C513 C 0.0534 0.51133 0.59832 0.0
H514 H 0.5842 0.57794 0.59542 0.0
H515 H 0.62593 0.58197 0.47744 0.0
H516 H 0.56297 0.55386 0.52234 0.0
H517 H 0.60471 0.55837 0.40285 0.0
H518 H 0.56343 0.50341 0.31174 0.0
H519 H 0.58445 0.52734 0.3861 0.0
H520 H 0.54959 0.54623 0.42446 0.0
H521 H 0.52837 0.5219 0.35216 0.0
C522 C 0.58886 0.57389 0.55333 0.0
C523 C 0.60682 0.58195 0.54248 0.0
C524 C 0.57664 0.56006 0.51107 0.0
C525 C 0.58199 0.55397 0.45628 0.0
C526 C 0.59999 0.56233 0.44491 0.0
C527 C 0.61221 0.57605 0.48751 0.0
C528 C 0.56021 0.51261 0.33637 0.0
C529 C 0.54414 0.51063 0.32596 0.0
C530 C 0.57236 0.52649 0.37875 0.0
C531 C 0.56889 0.53893 0.41156 0.0
C532 C 0.55274 0.53685 0.40117 0.0
C533 C 0.54053 0.52287 0.35928 0.0
H534 H 0.75224 0.86208 0.27558 0.0
H535 H 0.69804 0.83595 0.32705 0.0
H536 H 0.75887 0.88795 0.35011 0.0
H537 H 0.7047 0.86145 0.40239 0.0
H538 H 0.71842 0.91607 0.49175 0.0
H539 H 0.71338 0.89254 0.40925 0.0
H540 H 0.76027 0.8964 0.46323 0.0
H541 H 0.76547 0.92017 0.54546 0.0
C542 C 0.74172 0.86186 0.30245 0.0
C543 C 0.72459 0.84682 0.29517 0.0
C544 C 0.74555 0.87664 0.34571 0.0
C545 C 0.73234 0.87686 0.38246 0.0
C546 C 0.7152 0.86191 0.37454 0.0
C547 C 0.7114 0.84713 0.33169 0.0
C548 C 0.72779 0.91207 0.48576 0.0
C549 C 0.74234 0.92004 0.5257 0.0
C550 C 0.72481 0.89844 0.43859 0.0
C551 C 0.7363 0.89237 0.42975 0.0
C552 C 0.75119 0.90077 0.46823 0.0
C553 C 0.75415 0.9144 0.51564 0.0
H554 H 0.17638 0.8313 0.36419 0.0
H555 H 0.20116 0.85723 0.54323 0.0
H556 H 0.20015 0.85614 0.31252 0.0
H557 H 0.22535 0.88153 0.49184 0.0
H558 H 0.26206 0.93007 0.39141 0.0
H559 H 0.23624 0.90676 0.44053 0.0
H560 H 0.22886 0.86878 0.28142 0.0
H561 H 0.25429 0.89253 0.2314 0.0
C562 C 0.18689 0.84235 0.39258 0.0
C563 C 0.18678 0.84226 0.45792 0.0
C564 C 0.20068 0.85656 0.36285 0.0
C565 C 0.21495 0.87097 0.39751 0.0
C566 C 0.21459 0.87097 0.46315 0.0
C567 C 0.20067 0.85692 0.49288 0.0
C568 C 0.2549 0.91673 0.36704 0.0
C569 C 0.26028 0.91313 0.30764 0.0
C570 C 0.24007 0.90325 0.39533 0.0
C571 C 0.23031 0.88564 0.36559 0.0
C572 C 0.2357 0.88214 0.30573 0.0
C573 C 0.25038 0.89574 0.27697 0.0
H574 H 0.24903 0.36304 0.53147 0.0
H575 H 0.28379 0.38888 0.37974 0.0
H576 H 0.22561 0.36227 0.4786 0.0
H577 H 0.26061 0.38854 0.3279 0.0
H578 H 0.21241 0.37512 0.22588 0.0
H579 H 0.23336 0.37096 0.2739 0.0
H580 H 0.21787 0.38303 0.45703 0.0
H581 H 0.19641 0.38639 0.40925 0.0
C582 C 0.25165 0.36839 0.48655 0.0
C583 C 0.26836 0.37607 0.46007 0.0
C584 C 0.23824 0.3681 0.45645 0.0
C585 C 0.24119 0.3755 0.39908 0.0
C586 C 0.25773 0.38255 0.37159 0.0
C587 C 0.2711 0.38282 0.4016 0.0
C588 C 0.21325 0.37664 0.27639 0.0
C589 C 0.20267 0.3812 0.31343 0.0
C590 C 0.22544 0.37442 0.30403 0.0
C591 C 0.22743 0.37671 0.36951 0.0
C592 C 0.21663 0.38094 0.40654 0.0
C593 C 0.20444 0.38314 0.37894 0.0
H594 H 0.19431 0.36285 0.04682 0.0
H595 H 0.18 0.38136 0.89803 0.0
H596 H 0.21791 0.36422 0.98264 0.0
H597 H 0.20379 0.38309 0.83451 0.0
H598 H 0.24157 0.37337 0.71703 0.0
H599 H 0.2155 0.36678 0.77682 0.0
H600 H 0.24581 0.38774 0.94747 0.0
H601 H 0.27163 0.39369 0.88814 0.0
C602 C 0.19605 0.36702 1.00018 0.0
C603 C 0.18528 0.37209 0.97782 0.0
C604 C 0.2097 0.36795 0.96353 0.0
C605 C 0.21291 0.37396 0.90356 0.0
C606 C 0.20165 0.37826 0.8802 0.0
C607 C 0.18802 0.37735 0.91684 0.0
C608 C 0.24263 0.37634 0.76737 0.0
C609 C 0.25879 0.38417 0.79758 0.0
C610 C 0.2277 0.37271 0.80165 0.0
C611 C 0.22851 0.37675 0.86707 0.0
C612 C 0.2446 0.38425 0.89731 0.0
C613 C 0.25951 0.3879 0.86308 0.0
H614 H 0.75164 0.85848 0.02477 0.0
H615 H 0.71929 0.82036 0.87303 0.0
H616 H 0.7526 0.8825 0.97641 0.0
H617 H 0.7197 0.84416 0.82599 0.0
H618 H 0.73115 0.89238 0.73318 0.0
H619 H 0.73548 0.8706 0.77406 0.0
H620 H 0.73355 0.89224 0.9627 0.0
H621 H 0.73025 0.91455 0.92207 0.0
C622 C 0.74485 0.85523 0.98086 0.0
C623 C 0.73531 0.83745 0.95307 0.0
C624 C 0.74526 0.86899 0.95332 0.0
C625 C 0.73604 0.86531 0.89754 0.0
C626 C 0.72711 0.84762 0.86851 0.0
C627 C 0.72681 0.8339 0.89578 0.0
C628 C 0.73191 0.89271 0.78334 0.0
C629 C 0.73019 0.90526 0.82408 0.0
C630 C 0.73422 0.88004 0.8069 0.0
C631 C 0.73481 0.87954 0.87185 0.0
C632 C 0.7334 0.89229 0.91244 0.0
C633 C 0.7312 0.90498 0.88896 0.0
H634 H 0.28525 0.93405 0.8866 0.0
H635 H 0.25304 0.91415 0.04947 0.0
H636 H 0.2628 0.90846 0.82096 0.0
H637 H 0.23049 0.88869 0.98361 0.0
H638 H 0.20555 0.83477 0.86025 0.0
H639 H 0.22648 0.86155 0.92531 0.0
H640 H 0.23351 0.89416 0.77864 0.0
H641 H 0.21299 0.86728 0.71261 0.0
C642 C 0.27329 0.92436 0.90835 0.0
C643 C 0.27102 0.92616 0.97344 0.0
C644 C 0.26036 0.9097 0.87059 0.0
C645 C 0.24486 0.8964 0.89696 0.0
C646 C 0.24237 0.89851 0.96181 0.0
C647 C 0.25525 0.91322 0.99954 0.0
C648 C 0.21161 0.8476 0.84156 0.0
C649 C 0.20756 0.84875 0.78085 0.0
C650 C 0.22348 0.86303 0.8793 0.0
C651 C 0.23169 0.88007 0.8574 0.0
C652 C 0.22756 0.88126 0.79689 0.0
C653 C 0.21563 0.86582 0.75918 0.0
H654 H 0.40742 0.26733 0.7494 0.0
H655 H 0.36462 0.22072 0.82713 0.0
H656 H 0.41094 0.24786 0.66848 0.0
H657 H 0.36855 0.20127 0.7484 0.0
H658 H 0.36942 0.17036 0.56465 0.0
H659 H 0.36505 0.18993 0.64261 0.0
H660 H 0.42063 0.22817 0.65063 0.0
H661 H 0.4248 0.20908 0.57142 0.0
C662 C 0.39886 0.25293 0.74956 0.0
C663 C 0.38574 0.24563 0.79475 0.0
C664 C 0.40092 0.2417 0.7033 0.0
C665 C 0.39004 0.22285 0.70151 0.0
C666 C 0.37698 0.21563 0.74713 0.0
C667 C 0.37481 0.22685 0.7928 0.0
C668 C 0.38066 0.18294 0.58322 0.0
C669 C 0.39743 0.18815 0.56155 0.0
C670 C 0.3782 0.19418 0.6282 0.0
C671 C 0.39248 0.2108 0.65313 0.0
C672 C 0.40924 0.21577 0.63182 0.0
C673 C 0.41166 0.20468 0.58653 0.0
H674 H 0.867 0.17045 0.85933 0.0
H675 H 0.83939 0.1914 0.78334 0.0
H676 H 0.8921 0.18875 0.79556 0.0
H677 H 0.8645 0.20953 0.71894 0.0
H678 H 0.90652 0.22425 0.56523 0.0
H679 H 0.8811 0.20621 0.62883 0.0
H680 H 0.91453 0.2205 0.78769 0.0
H681 H 0.93986 0.23867 0.72476 0.0
C682 C 0.86626 0.17903 0.82958 0.0
C683 C 0.85104 0.17938 0.82691 0.0
C684 C 0.8807 0.18953 0.79281 0.0
C685 C 0.88033 0.20061 0.75212 0.0
C686 C 0.86514 0.20095 0.74916 0.0
C687 C 0.85071 0.19052 0.78619 0.0
C688 C 0.90848 0.22372 0.61382 0.0
C689 C 0.92535 0.23294 0.63949 0.0
C690 C 0.89388 0.21334 0.65031 0.0
C691 C 0.89578 0.21184 0.71331 0.0
C692 C 0.91261 0.22111 0.73905 0.0
C693 C 0.92718 0.23154 0.70274 0.0
H694 H 0.94193 0.73505 0.73252 0.0
H695 H 0.921 0.68541 0.61266 0.0
H696 H 0.92544 0.74324 0.67459 0.0
H697 H 0.90448 0.69353 0.55495 0.0
H698 H 0.89334 0.72279 0.42217 0.0
H699 H 0.90936 0.7146 0.48253 0.0
H700 H 0.89621 0.73549 0.65327 0.0
H701 H 0.88024 0.74373 0.5928 0.0
C702 C 0.93365 0.72577 0.69438 0.0
C703 C 0.93289 0.7096 0.67711 0.0
C704 C 0.92419 0.73047 0.66106 0.0
C705 C 0.91371 0.71911 0.60973 0.0
C706 C 0.91269 0.70279 0.59334 0.0
C707 C 0.92216 0.6981 0.62654 0.0
C708 C 0.89375 0.72552 0.47259 0.0
C709 C 0.88545 0.7339 0.5025 0.0
C710 C 0.90293 0.7208 0.50729 0.0
C711 C 0.90404 0.72431 0.57288 0.0
C712 C 0.89583 0.73279 0.6028 0.0
C713 C 0.88666 0.73754 0.56806 0.0
H714 H 0.86197 0.70539 0.15231 0.0
H715 H 0.90835 0.75253 0.234 0.0
H716 H 0.87994 0.69946 0.07723 0.0
H717 H 0.92624 0.74632 0.16125 0.0
H718 H 0.95386 0.74014 0.98538 0.0
H719 H 0.93563 0.74654 0.05726 0.0
H720 H 0.89945 0.6897 0.06667 0.0
H721 H 0.91726 0.68341 0.99353 0.0
C722 C 0.87598 0.71442 0.15453 0.0
C723 C 0.88364 0.72945 0.19919 0.0
C724 C 0.88635 0.71099 0.11167 0.0
C725 C 0.90468 0.72241 0.11271 0.0
C726 C 0.91224 0.73738 0.15774 0.0
C727 C 0.90191 0.74087 0.20002 0.0
C728 C 0.94205 0.72905 1.00307 0.0
C729 C 0.93706 0.71128 0.9835 0.0
C730 C 0.93157 0.73269 0.04453 0.0
C731 C 0.91589 0.71864 0.06799 0.0
C732 C 0.91113 0.7009 0.0489 0.0
C733 C 0.9215 0.69729 1.00718 0.0
H734 H 0.40396 0.17958 0.16199 0.0
H735 H 0.39269 0.19965 0.33899 0.0
H736 H 0.39946 0.19948 0.10855 0.0
H737 H 0.38812 0.21951 0.28534 0.0
H738 H 0.36368 0.23888 0.16024 0.0
H739 H 0.36812 0.21893 0.2136 0.0
H740 H 0.41259 0.23112 0.0966 0.0
H741 H 0.40823 0.25117 0.0433 0.0
C742 C 0.40066 0.18832 0.18973 0.0
C743 C 0.39874 0.18795 0.25507 0.0
C744 C 0.39808 0.19977 0.15894 0.0
C745 C 0.39345 0.21116 0.19252 0.0
C746 C 0.39144 0.21075 0.2578 0.0
C747 C 0.39406 0.19932 0.28865 0.0
C748 C 0.37452 0.23748 0.14611 0.0
C749 C 0.3856 0.24676 0.0973 0.0
C750 C 0.37706 0.226 0.17684 0.0
C751 C 0.39073 0.2234 0.1596 0.0
C752 C 0.40178 0.23259 0.1106 0.0
C753 C 0.39926 0.24411 0.07992 0.0
H754 H 0.93234 0.21422 0.30716 0.0
H755 H 0.91585 0.25173 0.34457 0.0
H756 H 0.90772 0.19517 0.23728 0.0
H757 H 0.89061 0.23222 0.27619 0.0
H758 H 0.85644 0.20233 0.10362 0.0
H759 H 0.88119 0.22156 0.17265 0.0
H760 H 0.87764 0.17479 0.23133 0.0
H761 H 0.85314 0.15549 0.15965 0.0
C762 C 0.92337 0.21839 0.30072 0.0
C763 C 0.92613 0.23458 0.33159 0.0
C764 C 0.90908 0.2073 0.26086 0.0
C765 C 0.89692 0.21192 0.25096 0.0
C766 C 0.89974 0.22822 0.28167 0.0
C767 C 0.91421 0.23945 0.32118 0.0
C768 C 0.8609 0.19608 0.1312 0.0
C769 C 0.85273 0.17729 0.1259 0.0
C770 C 0.8751 0.20718 0.17141 0.0
C771 C 0.88155 0.19989 0.20829 0.0
C772 C 0.87331 0.18103 0.20316 0.0
C773 C 0.85916 0.16989 0.16224 0.0
H774 H 0.08294 0.66177 0.26596 0.0
H775 H 0.10745 0.64686 0.39077 0.0
H776 H 0.09985 0.69278 0.3137 0.0
H777 H 0.12402 0.67761 0.43892 0.0
H778 H 0.16378 0.73743 0.47078 0.0
H779 H 0.14734 0.70717 0.41881 0.0
H780 H 0.10226 0.71111 0.41184 0.0
H781 H 0.11902 0.74184 0.46229 0.0
C782 C 0.09202 0.6651 0.30319 0.0
C783 C 0.09385 0.65177 0.32425 0.0
C784 C 0.10159 0.68286 0.33104 0.0
C785 C 0.1133 0.68776 0.38041 0.0
C786 C 0.11531 0.67445 0.40059 0.0
C787 C 0.10573 0.65674 0.37298 0.0
C788 C 0.15042 0.73198 0.4578 0.0
C789 C 0.14281 0.74222 0.47066 0.0
C790 C 0.14089 0.71448 0.42845 0.0
C791 C 0.12342 0.7066 0.411 0.0
C792 C 0.11574 0.71678 0.42396 0.0
C793 C 0.12529 0.73435 0.45362 0.0
H794 H 0.42376 0.47096 0.25151 0.0
H795 H 0.44685 0.45421 0.37498 0.0
H796 H 0.39728 0.45776 0.31335 0.0
H797 H 0.4203 0.44107 0.43755 0.0
H798 H 0.36379 0.40625 0.50573 0.0
H799 H 0.38967 0.41737 0.43983 0.0
H800 H 0.38748 0.46358 0.41325 0.0
H801 H 0.3614 0.45217 0.47639 0.0
C802 C 0.42325 0.46456 0.29213 0.0
C803 C 0.43756 0.46383 0.30847 0.0
C804 C 0.40802 0.45697 0.32775 0.0
C805 C 0.40665 0.44848 0.38102 0.0
C806 C 0.4208 0.44734 0.39657 0.0
C807 C 0.43606 0.45491 0.36069 0.0
C808 C 0.36872 0.41868 0.48532 0.0
C809 C 0.36041 0.42828 0.49673 0.0
C810 C 0.3837 0.42517 0.44801 0.0
C811 C 0.39071 0.44138 0.42093 0.0
C812 C 0.38238 0.45093 0.43243 0.0
C813 C 0.36747 0.44447 0.46958 0.0
H814 H 0.65881 0.95112 0.65617 0.0
H815 H 0.69921 0.96863 0.51634 0.0
H816 H 0.64405 0.96138 0.5993 0.0
H817 H 0.68435 0.97892 0.45907 0.0
H818 H 0.6596 1.00928 0.40278 0.0
H819 H 0.67585 1.00095 0.462 0.0
H820 H 0.62781 0.95251 0.50328 0.0
H821 H 0.61163 0.96109 0.44644 0.0
C822 C 0.66452 0.95706 0.61308 0.0
C823 C 0.68013 0.95884 0.59064 0.0
C824 C 0.65603 0.96297 0.58037 0.0
C825 C 0.66288 0.97081 0.52413 0.0
C826 C 0.67876 0.97307 0.50245 0.0
C827 C 0.68729 0.96716 0.53532 0.0
C828 C 0.6525 0.99693 0.42493 0.0
C829 C 0.63426 0.98588 0.41965 0.0
C830 C 0.66184 0.99207 0.45839 0.0
C831 C 0.65316 0.97608 0.48771 0.0
C832 C 0.63494 0.96504 0.48214 0.0
C833 C 0.62564 0.96986 0.44869 0.0
H834 H 0.67141 0.07577 0.31859 0.0
H835 H 0.6629 0.03707 0.16108 0.0
H836 H 0.70117 0.09581 0.2823 0.0
H837 H 0.69206 0.05703 0.12418 0.0
H838 H 0.74968 0.08831 0.09623 0.0
H839 H 0.72169 0.06897 0.14394 0.0
H840 H 0.71767 0.1148 0.20221 0.0
H841 H 0.74607 0.13428 0.15769 0.0
C842 C 0.67583 0.07157 0.27621 0.0
C843 C 0.66473 0.05477 0.24301 0.0
C844 C 0.69288 0.08307 0.25518 0.0
C845 C 0.69919 0.07804 0.20038 0.0
C846 C 0.68795 0.06128 0.16727 0.0
C847 C 0.67106 0.04983 0.18833 0.0
C848 C 0.74303 0.09438 0.11994 0.0
C849 C 0.75026 0.11296 0.12209 0.0
C850 C 0.72678 0.0832 0.14683 0.0
C851 C 0.71718 0.09021 0.17642 0.0
C852 C 0.72463 0.10885 0.18024 0.0
C853 C 0.74092 0.12005 0.15368 0.0
H854 H 0.9957 0.68589 0.02194 0.0
H855 H 0.97476 0.63915 0.88695 0.0
H856 H 1.00633 0.67243 0.08506 0.0
H857 H 0.98512 0.62575 0.95006 0.0
H858 H 0.98641 0.59813 0.11309 0.0
H859 H 0.97756 0.61319 0.05124 0.0
H860 H 0.02747 0.66248 0.08504 0.0
H861 H 0.03625 0.6474 0.1485 0.0
C862 C 0.99348 0.67286 1.00533 0.0
C863 C 0.98412 0.66355 0.94956 0.0
C864 C 0.99958 0.66513 0.04158 0.0
C865 C 0.99639 0.6479 0.02303 0.0
C866 C 0.98747 0.63886 0.9665 0.0
C867 C 0.98147 0.64657 0.93028 0.0
C868 C 0.99547 0.61221 0.10797 0.0
C869 C 1.01205 0.62152 0.13595 0.0
C870 C 0.99046 0.62082 0.07186 0.0
C871 C 1.00184 0.63904 0.06282 0.0
C872 C 1.01837 0.64847 0.09132 0.0
C873 C 1.02346 0.63978 0.12718 0.0
H874 H 0.41579 0.34447 0.9792 0.0
H875 H 0.45467 0.33336 0.02059 0.0
H876 H 0.43436 0.37531 0.02622 0.0
H877 H 0.47332 0.36432 0.06704 0.0
H878 H 0.50787 0.42746 0.07716 0.0
H879 H 0.49011 0.39611 0.03347 0.0
H880 H 0.44562 0.39084 0.1355 0.0
H881 H 0.46336 0.42209 0.17975 0.0
C882 C 0.42836 0.34863 0.99779 0.0
C883 C 0.43372 0.33639 0.99601 0.0
C884 C 0.43894 0.36628 0.02525 0.0
C885 C 0.45528 0.37225 0.05078 0.0
C886 C 0.46084 0.36016 0.04764 0.0
C887 C 0.45013 0.34241 0.02109 0.0
C888 C 0.49436 0.41955 0.09096 0.0
C889 C 0.48708 0.42733 0.13206 0.0
C890 C 0.48419 0.40158 0.06594 0.0
C891 C 0.46641 0.39102 0.08054 0.0
C892 C 0.45922 0.39867 0.12272 0.0
C893 C 0.46945 0.41655 0.14853 0.0
H894 H 0.981 0.32047 0.59114 0.0
H895 H 0.98995 0.3442 0.41767 0.0
H896 H 0.99325 0.35001 0.64938 0.0
H897 H 1.0024 0.37374 0.47584 0.0
H898 H 0.03571 0.40869 0.72186 0.0
H899 H 1.02105 0.37825 0.66907 0.0
H900 H 0.99501 0.39195 0.54652 0.0
H901 H 1.00979 0.42234 0.59855 0.0
C902 C 0.98552 0.33196 0.56532 0.0
C903 C 0.98444 0.32987 0.4995 0.0
C904 C 0.99267 0.34896 0.59882 0.0
C905 C 0.99886 0.36435 0.56753 0.0
C906 C 0.99757 0.36221 0.50176 0.0
C907 C 0.99049 0.34523 0.46824 0.0
C908 C 1.02669 0.40515 0.68421 0.0
C909 C 1.02403 0.41807 0.66447 0.0
C910 C 1.01823 0.38764 0.65391 0.0
C911 C 1.00694 0.3826 0.60293 0.0
C912 C 1.00385 0.39538 0.58472 0.0
C913 C 1.01225 0.41283 0.61504 0.0
H914 H 0.72987 0.62756 0.56941 0.0
H915 H 0.70426 0.64946 0.486 0.0
H916 H 0.75569 0.64504 0.50742 0.0
H917 H 0.73043 0.66745 0.42485 0.0
H918 H 0.77417 0.6823 0.27758 0.0
H919 H 0.74778 0.66435 0.33764 0.0
H920 H 0.77919 0.67579 0.49992 0.0
H921 H 0.80546 0.69345 0.44002 0.0
C922 C 0.72971 0.63609 0.53778 0.0
C923 C 0.71487 0.63699 0.5327 0.0
C924 C 0.74464 0.64629 0.50257 0.0
C925 C 0.74522 0.6577 0.46099 0.0
C926 C 0.73041 0.65867 0.45591 0.0
C927 C 0.71546 0.64851 0.49152 0.0
C928 C 0.77545 0.68088 0.32595 0.0
C929 C 0.792 0.6893 0.35373 0.0
C930 C 0.76029 0.67071 0.36058 0.0
C931 C 0.7613 0.6686 0.42377 0.0
C932 C 0.77787 0.67691 0.45124 0.0
C933 C 0.79298 0.68712 0.41682 0.0
H934 H 0.45777 0.16044 0.59689 0.0
H935 H 0.42043 0.10804 0.50862 0.0
H936 H 0.46945 0.14745 0.65626 0.0
H937 H 0.43269 0.09486 0.56533 0.0
H938 H 0.45291 0.0743 0.70167 0.0
H939 H 0.43779 0.08668 0.65871 0.0
H940 H 0.48709 0.13627 0.63976 0.0
H941 H 0.50179 0.1245 0.68629 0.0
C942 C 0.45214 0.14609 0.59008 0.0
C943 C 0.43834 0.13528 0.54774 0.0
C944 C 0.45889 0.13859 0.62378 0.0
C945 C 0.45234 0.12006 0.61496 0.0
C946 C 0.43806 0.10913 0.57401 0.0
C947 C 0.43105 0.11666 0.54118 0.0
C948 C 0.46046 0.08796 0.68945 0.0
C949 C 0.47867 0.09828 0.69709 0.0
C950 C 0.45179 0.09502 0.66396 0.0
C951 C 0.46112 0.11254 0.64534 0.0
C952 C 0.47927 0.12287 0.65427 0.0
C953 C 0.48784 0.11594 0.6802 0.0
H954 H 0.35386 0.98622 0.96899 0.0
H955 H 0.37563 0.96075 0.05435 0.0
H956 H 0.38016 1.00196 0.90677 0.0
H957 H 0.40161 0.97596 0.99058 0.0
H958 H 0.45336 0.0211 0.91763 0.0
H959 H 0.42702 1.00514 0.97924 0.0
H960 H 0.39595 0.99727 0.82032 0.0
H961 H 0.42238 1.01358 0.75895 0.0
C962 C 0.36423 0.98397 0.97472 0.0
C963 C 0.36251 0.97217 1.01706 0.0
C964 C 0.37928 0.99286 0.93833 0.0
C965 C 0.39309 0.99026 0.94333 0.0
C966 C 0.39138 0.97848 0.98576 0.0
C967 C 0.37633 0.96957 0.02199 0.0
C968 C 0.44092 1.01591 0.8956 0.0
C969 C 0.44007 1.01867 0.83313 0.0
C970 C 0.42576 1.00665 0.93097 0.0
C971 C 0.40926 0.99988 0.90501 0.0
C972 C 0.4084 1.00249 0.84231 0.0
C973 C 0.42358 1.01174 0.80686 0.0
H974 H 0.13649 0.47882 0.85253 0.0
H975 H 0.08573 0.4304 0.86165 0.0
H976 H 0.14838 0.46735 0.91815 0.0
H977 H 0.09757 0.41909 0.92931 0.0
H978 H 0.13064 0.39737 0.98785 0.0
H979 H 0.11724 0.40811 0.92542 0.0
H980 H 0.1476 0.46086 0.02493 0.0
H981 H 0.16093 0.45015 0.08739 0.0
C982 C 0.12783 0.4657 0.8684 0.0
C983 C 0.11013 0.45553 0.85135 0.0
C984 C 0.13463 0.45919 0.90682 0.0
C985 C 0.12395 0.4423 0.92934 0.0
C986 C 0.10622 0.4321 0.91245 0.0
C987 C 0.09938 0.43866 0.87413 0.0
C988 C 0.13432 0.41119 0.99709 0.0
C989 C 0.14701 0.42289 0.04262 0.0
C990 C 0.12661 0.41737 0.96116 0.0
C991 C 0.13141 0.4354 0.96972 0.0
C992 C 0.14382 0.44698 1.01613 0.0
C993 C 0.1515 0.44082 0.05205 0.0
H994 H 0.69916 0.66986 0.79463 0.0
H995 H 0.65068 0.66117 0.73307 0.0
H996 H 0.70515 0.69693 0.8583 0.0
H997 H 0.65689 0.68877 0.79663 0.0
H998 H 0.66516 0.72692 0.97727 0.0
H999 H 0.65875 0.70062 0.90627 0.0
H1000 H 0.71288 0.72714 0.85342 0.0
H1001 H 0.71929 0.75338 0.92432 0.0
C1002 C 0.6898 0.67381 0.79412 0.0
C1003 C 0.67439 0.66324 0.75858 0.0
C1004 C 0.69333 0.68949 0.83054 0.0
C1005 C 0.68156 0.69516 0.83278 0.0
C1006 C 0.66619 0.68474 0.79659 0.0
C1007 C 0.66268 0.66898 0.75973 0.0
C1008 C 0.67569 0.72725 0.95018 0.0
C1009 C 0.6928 0.74236 0.95718 0.0
C1010 C 0.67198 0.71213 0.90917 0.0
C1011 C 0.68527 0.71165 0.87399 0.0
C1012 C 0.70233 0.72684 0.88044 0.0
C1013 C 0.70604 0.74195 0.92141 0.0
H1014 H 0.78212 0.99449 0.82755 0.0
H1015 H 0.7537 1.00671 0.71053 0.0
H1016 H 0.79403 0.02369 0.88737 0.0
H1017 H 0.76547 0.03592 0.77112 0.0
H1018 H 0.80089 0.09328 0.86321 0.0
H1019 H 0.79147 0.06527 0.7977 0.0
H1020 H 0.78397 0.03856 0.96286 0.0
H1021 H 0.79362 0.06663 0.02833 0.0
C1022 C 0.77851 1.00345 0.81411 0.0
C1023 C 0.76688 0.99814 0.76409 0.0
C1024 C 0.78524 0.02019 0.84892 0.0
C1025 C 0.7806 0.03218 0.83476 0.0
C1026 C 0.76946 0.02714 0.78328 0.0
C1027 C 0.76267 1.01034 0.74847 0.0
C1028 C 0.79732 0.08147 0.88566 0.0
C1029 C 0.79805 0.0823 0.95129 0.0
C1030 C 0.7918 0.06533 0.84797 0.0
C1031 C 0.78691 0.04956 0.87473 0.0
C1032 C 0.78784 0.05045 0.94034 0.0
C1033 C 0.7933 0.06657 0.97806 0.0
H1034 H 0.09001 0.76919 0.56335 0.0
H1035 H 0.12002 0.79936 0.73046 0.0
H1036 H 0.06332 0.75693 0.62437 0.0
H1037 H 0.0933 0.78759 0.79128 0.0
H1038 H 0.04438 0.74652 0.89256 0.0
H1039 H 0.07122 0.76103 0.8327 0.0
H1040 H 0.04337 0.76262 0.68037 0.0
H1041 H 1.01641 0.74756 0.7396 0.0
C1042 C 0.09092 0.77342 0.613 0.0
C1043 C 0.10724 0.78524 0.64184 0.0
C1044 C 0.07554 0.76644 0.64813 0.0
C1045 C 0.076 0.77116 0.71317 0.0
C1046 C 0.09234 0.78333 0.74167 0.0
C1047 C 0.10772 0.79022 0.70659 0.0
C1048 C 0.04398 0.7501 0.84652 0.0
C1049 C 0.02814 0.74578 0.82102 0.0
C1050 C 0.05946 0.75853 0.8121 0.0
C1051 C 0.0596 0.76301 0.75122 0.0
C1052 C 0.04381 0.75912 0.72648 0.0
C1053 C 0.02832 0.75059 0.76077 0.0
H1054 H 0.34513 0.38117 0.74557 0.0
H1055 H 0.30521 0.33526 0.63178 0.0
H1056 H 0.35344 0.36249 0.78611 0.0
H1057 H 0.31396 0.31641 0.67138 0.0
H1058 H 0.32168 0.28568 0.81327 0.0
H1059 H 0.31342 0.30332 0.76385 0.0
H1060 H 0.36734 0.34661 0.76101 0.0
H1061 H 0.37553 0.32945 0.81344 0.0
C1062 C 0.3382 0.36707 0.72853 0.0
C1063 C 0.32446 0.35976 0.68528 0.0
C1064 C 0.3431 0.35632 0.75159 0.0
C1065 C 0.3345 0.33788 0.73193 0.0
C1066 C 0.3208 0.33052 0.68814 0.0
C1067 C 0.31583 0.34133 0.66509 0.0
C1068 C 0.33183 0.299 0.80273 0.0
C1069 C 0.34932 0.30609 0.8186 0.0
C1070 C 0.32706 0.30907 0.77337 0.0
C1071 C 0.33965 0.32651 0.75867 0.0
C1072 C 0.35719 0.33337 0.77261 0.0
C1073 C 0.36195 0.32337 0.80227 0.0
H1074 H 0.03072 0.3171 0.36661 0.0
H1075 H 1.02648 0.26676 0.30732 0.0
H1076 H 0.05926 0.33308 0.31671 0.0
H1077 H 0.0549 0.28267 0.25849 0.0
H1078 H 0.11468 0.31841 0.25504 0.0
H1079 H 0.08509 0.30238 0.29529 0.0
H1080 H 0.07462 0.33789 0.21385 0.0
H1081 H 0.10438 0.35408 0.17364 0.0
C1082 C 0.03573 0.3094 0.34244 0.0
C1083 C 1.02631 0.29061 0.34198 0.0
C1084 C 0.05211 0.31857 0.31381 0.0
C1085 C 0.05949 0.30917 0.28422 0.0
C1086 C 0.04981 0.29037 0.28201 0.0
C1087 C 0.03347 0.28124 0.31026 0.0
C1088 C 0.10606 0.32274 0.24519 0.0
C1089 C 0.11195 0.33753 0.21097 0.0
C1090 C 0.08904 0.3135 0.26813 0.0
C1091 C 0.07745 0.31884 0.25786 0.0
C1092 C 0.08326 0.33353 0.2231 0.0
C1093 C 0.10028 0.34271 0.19963 0.0
H1094 H 0.83448 0.79529 0.29268 0.0
H1095 H 0.80811 0.74478 0.17709 0.0
H1096 H 0.81627 0.80393 0.24903 0.0
H1097 H 0.78966 0.75336 0.13378 0.0
H1098 H 0.77428 0.78462 0.02221 0.0
H1099 H 0.79263 0.77592 0.06511 0.0
H1100 H 0.78527 0.79496 0.25098 0.0
H1101 H 0.76696 0.80366 0.2083 0.0
C1102 C 0.82482 0.78604 0.25781 0.0
C1103 C 0.8228 0.76935 0.23826 0.0
C1104 C 0.81427 0.79094 0.23317 0.0
C1105 C 0.80151 0.77935 0.18785 0.0
C1106 C 0.79947 0.76265 0.16823 0.0
C1107 C 0.80991 0.75766 0.19346 0.0
C1108 C 0.77665 0.78704 0.07219 0.0
C1109 C 0.76917 0.79489 0.11175 0.0
C1110 C 0.78705 0.78192 0.09681 0.0
C1111 C 0.79039 0.78471 0.16148 0.0
C1112 C 0.78308 0.79275 0.2009 0.0
C1113 C 0.77253 0.79769 0.17641 0.0
H1114 H 0.33627 1.01305 0.18026 0.0
H1115 H 0.28705 1.00407 0.25039 0.0
H1116 H 0.35093 0.04413 0.22681 0.0
H1117 H 0.30178 0.03527 0.29651 0.0
H1118 H 0.33425 0.0982 0.30975 0.0
H1119 H 0.31855 0.067 0.26341 0.0
H1120 H 0.35718 0.05981 0.33708 0.0
H1121 H 0.3728 0.09089 0.38387 0.0
C1122 C 0.32853 1.01773 0.20502 0.0
C1123 C 0.31046 1.00601 0.21154 0.0
C1124 C 0.33698 0.03552 0.23216 0.0
C1125 C 0.32755 0.04215 0.26577 0.0
C1126 C 0.30941 0.0306 0.27075 0.0
C1127 C 0.30098 1.01271 0.24439 0.0
C1128 C 0.33932 0.08993 0.31656 0.0
C1129 C 0.3548 0.09709 0.35062 0.0
C1130 C 0.33029 0.07203 0.29007 0.0
C1131 C 0.33668 0.06096 0.29613 0.0
C1132 C 0.35203 0.06805 0.33089 0.0
C1133 C 0.36091 0.08584 0.35816 0.0
loop_
_geom_bond_atom_site_label_1
_geom_bond_atom_site_label_2
_geom_bond_distance
_geom_bond_site_symmetry_2
_ccdc_geom_bond_type
Cu0 N1 1.999 . S
Cu0 O6 1.974 . S
Cu0 N11 1.985 . S
Cu0 O20 1.959 . S
N1 Cu0 1.999 . S
N1 C3 1.263 . S
N1 C5 1.389 . S
N2 C3 1.358 . S
N2 C4 1.400 . S
C3 N1 1.263 . S
C3 N2 1.358 . S
C3 H9 0.930 . S
C4 N2 1.400 . S
C4 C5 1.351 . S
C4 H21 0.930 . S
C5 N1 1.389 . S
C5 C4 1.351 . S
C5 H10 0.930 . S
O6 Cu0 1.974 . S
O6 C16 1.282 . S
C7 O8 1.261 . S
C7 O20 1.251 . S
O8 C7 1.261 . S
H9 C3 0.930 . S
H10 C5 0.930 . S
N11 Cu0 1.985 . S
N11 C13 1.335 . S
N11 C14 1.390 . S
N12 C13 1.345 . S
N12 C15 1.336 . S
C13 N11 1.335 . S
C13 N12 1.345 . S
C13 H18 0.930 . S
C14 N11 1.390 . S
C14 C15 1.346 . S
C14 H19 0.930 . S
C15 N12 1.336 . S
C15 C14 1.346 . S
C15 H22 0.929 . S
C16 O6 1.282 . S
C16 O17 1.216 . S
O17 C16 1.216 . S
H18 C13 0.930 . S
H19 C14 0.930 . S
O20 Cu0 1.959 . S
O20 C7 1.251 . S
H21 C4 0.930 . S
H22 C15 0.929 . S
Cu23 N24 1.999 . S
Cu23 O29 1.974 . S
Cu23 N34 1.985 . S
Cu23 O43 1.959 . S
N24 Cu23 1.999 . S
N24 C26 1.263 . S
N24 C28 1.389 . S
N25 C26 1.358 . S
N25 C27 1.400 . S
C26 N24 1.263 . S
C26 N25 1.358 . S
C26 H32 0.930 . S
C27 N25 1.400 . S
C27 C28 1.351 . S
C27 H44 0.930 1_554 S
C28 N24 1.389 . S
C28 C27 1.351 . S
C28 H33 0.930 . S
O29 Cu23 1.974 . S
O29 C39 1.282 . S
C30 O31 1.261 . S
C30 O43 1.251 . S
O31 C30 1.261 . S
H32 C26 0.930 . S
H33 C28 0.930 . S
N34 Cu23 1.985 . S
N34 C36 1.335 . S
N34 C37 1.390 . S
N35 C36 1.345 . S
N35 C38 1.336 . S
C36 N34 1.335 . S
C36 N35 1.345 . S
C36 H41 0.930 . S
C37 N34 1.390 . S
C37 C38 1.346 . S
C37 H42 0.930 . S
C38 N35 1.336 . S
C38 C37 1.346 . S
C38 H45 0.929 . S
C39 O29 1.282 . S
C39 O40 1.216 . S
O40 C39 1.216 . S
H41 C36 0.930 . S
H42 C37 0.930 . S
O43 Cu23 1.959 . S
O43 C30 1.251 . S
H44 C27 0.930 1_556 S
H45 C38 0.929 . S
Cu46 N47 1.999 . S
Cu46 O52 1.974 . S
Cu46 N57 1.985 . S
Cu46 O66 1.959 . S
N47 Cu46 1.999 . S
N47 C49 1.263 . S
N47 C51 1.389 . S
N48 C49 1.358 . S
N48 C50 1.400 . S
C49 N47 1.263 . S
C49 N48 1.358 . S
C49 H55 0.930 . S
C50 N48 1.400 . S
C50 C51 1.351 . S
C50 H67 0.930 . S
C51 N47 1.389 . S
C51 C50 1.351 . S
C51 H56 0.930 . S
O52 Cu46 1.974 . S
O52 C62 1.282 . S
C53 O54 1.261 . S
C53 O66 1.251 . S
O54 C53 1.261 . S
H55 C49 0.930 . S
H56 C51 0.930 . S
N57 Cu46 1.985 . S
N57 C59 1.335 . S
N57 C60 1.390 . S
N58 C59 1.345 . S
N58 C61 1.336 . S
C59 N57 1.335 . S
C59 N58 1.345 . S
C59 H64 0.930 . S
C60 N57 1.390 . S
C60 C61 1.346 . S
C60 H65 0.930 . S
C61 N58 1.336 . S
C61 C60 1.346 . S
C61 H68 0.929 . S
C62 O52 1.282 . S
C62 O63 1.216 . S
O63 C62 1.216 . S
H64 C59 0.930 . S
H65 C60 0.930 . S
O66 Cu46 1.959 . S
O66 C53 1.251 . S
H67 C50 0.930 . S
H68 C61 0.929 . S
Cu69 N70 1.999 . S
Cu69 O75 1.974 . S
Cu69 N80 1.985 . S
Cu69 O89 1.959 . S
N70 Cu69 1.999 . S
N70 C72 1.263 . S
N70 C74 1.389 . S
N71 C72 1.358 . S
N71 C73 1.400 . S
C72 N70 1.263 . S
C72 N71 1.358 . S
C72 H78 0.930 . S
C73 N71 1.400 . S
C73 C74 1.351 . S
C73 H90 0.930 . S
C74 N70 1.389 . S
C74 C73 1.351 . S
C74 H79 0.930 . S
O75 Cu69 1.974 . S
O75 C85 1.282 . S
C76 O77 1.261 . S
C76 O89 1.251 . S
O77 C76 1.261 . S
H78 C72 0.930 . S
H79 C74 0.930 . S
N80 Cu69 1.985 . S
N80 C82 1.335 . S
N80 C83 1.390 . S
N81 C82 1.345 . S
N81 C84 1.336 . S
C82 N80 1.335 . S
C82 N81 1.345 . S
C82 H87 0.930 . S
C83 N80 1.390 . S
C83 C84 1.346 . S
C83 H88 0.930 . S
C84 N81 1.336 . S
C84 C83 1.346 . S
C84 H91 0.929 . S
C85 O75 1.282 . S
C85 O86 1.216 . S
O86 C85 1.216 . S
H87 C82 0.930 . S
H88 C83 0.930 . S
O89 Cu69 1.959 . S
O89 C76 1.251 . S
H90 C73 0.930 . S
H91 C84 0.929 . S
Cu92 N93 1.999 . S
Cu92 O98 1.974 . S
Cu92 N103 1.985 . S
Cu92 O112 1.959 . S
N93 Cu92 1.999 . S
N93 C95 1.263 . S
N93 C97 1.389 . S
N94 C95 1.358 . S
N94 C96 1.400 . S
C95 N93 1.263 . S
C95 N94 1.358 . S
C95 H101 0.930 . S
C96 N94 1.400 . S
C96 C97 1.351 . S
C96 H113 0.930 . S
C97 N93 1.389 . S
C97 C96 1.351 . S
C97 H102 0.930 . S
O98 Cu92 1.974 . S
O98 C108 1.282 . S
C99 O100 1.261 . S
C99 O112 1.251 . S
O100 C99 1.261 . S
H101 C95 0.930 . S
H102 C97 0.930 . S
N103 Cu92 1.985 . S
N103 C105 1.335 . S
N103 C106 1.390 . S
N104 C105 1.345 . S
N104 C107 1.336 . S
C105 N103 1.335 . S
C105 N104 1.345 . S
C105 H110 0.930 . S
C106 N103 1.390 . S
C106 C107 1.346 . S
C106 H111 0.930 . S
C107 N104 1.336 . S
C107 C106 1.346 . S
C107 H114 0.929 . S
C108 O98 1.282 . S
C108 O109 1.216 . S
O109 C108 1.216 . S
H110 C105 0.930 . S
H111 C106 0.930 . S
O112 Cu92 1.959 . S
O112 C99 1.251 . S
H113 C96 0.930 . S
H114 C107 0.929 . S
Cu115 N116 1.999 . S
Cu115 O121 1.974 . S
Cu115 N126 1.985 . S
Cu115 O135 1.959 . S
N116 Cu115 1.999 . S
N116 C118 1.263 . S
N116 C120 1.389 . S
N117 C118 1.358 . S
N117 C119 1.400 . S
C118 N116 1.263 . S
C118 N117 1.358 . S
C118 H124 0.930 . S
C119 N117 1.400 . S
C119 C120 1.351 . S
C119 H136 0.930 . S
C120 N116 1.389 . S
C120 C119 1.351 . S
C120 H125 0.930 . S
O121 Cu115 1.974 . S
O121 C131 1.282 . S
C122 O123 1.261 . S
C122 O135 1.251 . S
O123 C122 1.261 . S
H124 C118 0.930 . S
H125 C120 0.930 . S
N126 Cu115 1.985 . S
N126 C128 1.335 . S
N126 C129 1.390 . S
N127 C128 1.345 . S
N127 C130 1.336 . S
C128 N126 1.335 . S
C128 N127 1.345 . S
C128 H133 0.930 . S
C129 N126 1.390 . S
C129 C130 1.346 . S
C129 H134 0.930 . S
C130 N127 1.336 . S
C130 C129 1.346 . S
C130 H137 0.929 . S
C131 O121 1.282 . S
C131 O132 1.216 . S
O132 C131 1.216 . S
H133 C128 0.930 . S
H134 C129 0.930 . S
O135 Cu115 1.959 . S
O135 C122 1.251 . S
H136 C119 0.930 . S
H137 C130 0.929 . S
Cu138 N139 1.999 . S
Cu138 O144 1.974 . S
Cu138 N149 1.985 . S
Cu138 O158 1.959 . S
N139 Cu138 1.999 . S
N139 C141 1.263 . S
N139 C143 1.389 . S
N140 C141 1.358 . S
N140 C142 1.400 . S
C141 N139 1.263 . S
C141 N140 1.358 . S
C141 H147 0.930 . S
C142 N140 1.400 . S
C142 C143 1.351 . S
C142 H159 0.930 . S
C143 N139 1.389 . S
C143 C142 1.351 . S
C143 H148 0.930 . S
O144 Cu138 1.974 . S
O144 C154 1.282 . S
C145 O146 1.261 . S
C145 O158 1.251 . S
O146 C145 1.261 . S
H147 C141 0.930 . S
H148 C143 0.930 . S
N149 Cu138 1.985 . S
N149 C151 1.335 . S
N149 C152 1.390 . S
N150 C151 1.345 . S
N150 C153 1.336 . S
C151 N149 1.335 . S
C151 N150 1.345 . S
C151 H156 0.930 . S
C152 N149 1.390 . S
C152 C153 1.346 . S
C152 H157 0.930 . S
C153 N150 1.336 . S
C153 C152 1.346 . S
C153 H160 0.929 . S
C154 O144 1.282 . S
C154 O155 1.216 . S
O155 C154 1.216 . S
H156 C151 0.930 . S
H157 C152 0.930 . S
O158 Cu138 1.959 . S
O158 C145 1.251 . S
H159 C142 0.930 . S
H160 C153 0.929 . S
Cu161 N162 1.999 . S
Cu161 O167 1.974 . S
Cu161 N172 1.985 . S
Cu161 O181 1.959 . S
N162 Cu161 1.999 . S
N162 C164 1.263 . S
N162 C166 1.389 . S
N163 C164 1.358 . S
N163 C165 1.400 . S
C164 N162 1.263 . S
C164 N163 1.358 . S
C164 H170 0.930 . S
C165 N163 1.400 . S
C165 C166 1.351 . S
C165 H182 0.930 . S
C166 N162 1.389 . S
C166 C165 1.351 . S
C166 H171 0.930 . S
O167 Cu161 1.974 . S
O167 C177 1.282 . S
C168 O169 1.261 . S
C168 O181 1.251 . S
O169 C168 1.261 . S
H170 C164 0.930 . S
H171 C166 0.930 . S
N172 Cu161 1.985 . S
N172 C174 1.335 . S
N172 C175 1.390 . S
N173 C174 1.345 . S
N173 C176 1.336 . S
C174 N172 1.335 . S
C174 N173 1.345 . S
C174 H179 0.930 . S
C175 N172 1.390 . S
C175 C176 1.346 . S
C175 H180 0.930 . S
C176 N173 1.336 . S
C176 C175 1.346 . S
C176 H183 0.929 . S
C177 O167 1.282 . S
C177 O178 1.216 . S
O178 C177 1.216 . S
H179 C174 0.930 . S
H180 C175 0.930 . S
O181 Cu161 1.959 . S
O181 C168 1.251 . S
H182 C165 0.930 . S
H183 C176 0.929 . S
Cu184 N185 1.999 . S
Cu184 O190 1.974 . S
Cu184 N195 1.985 . S
Cu184 O204 1.959 . S
N185 Cu184 1.999 . S
N185 C187 1.263 . S
N185 C189 1.389 . S
N186 C187 1.358 . S
N186 C188 1.400 . S
C187 N185 1.263 . S
C187 N186 1.358 . S
C187 H193 0.930 . S
C188 N186 1.400 . S
C188 C189 1.351 . S
C188 H205 0.930 . S
C189 N185 1.389 . S
C189 C188 1.351 . S
C189 H194 0.930 . S
O190 Cu184 1.974 . S
O190 C200 1.282 . S
C191 O192 1.261 . S
C191 O204 1.251 . S
O192 C191 1.261 . S
H193 C187 0.930 . S
H194 C189 0.930 . S
N195 Cu184 1.985 . S
N195 C197 1.335 . S
N195 C198 1.390 . S
N196 C197 1.345 . S
N196 C199 1.336 . S
C197 N195 1.335 . S
C197 N196 1.345 . S
C197 H202 0.930 . S
C198 N195 1.390 . S
C198 C199 1.346 . S
C198 H203 0.930 . S
C199 N196 1.336 . S
C199 C198 1.346 . S
C199 H206 0.929 . S
C200 O190 1.282 . S
C200 O201 1.216 . S
O201 C200 1.216 . S
H202 C197 0.930 . S
H203 C198 0.930 . S
O204 Cu184 1.959 . S
O204 C191 1.251 . S
H205 C188 0.930 . S
H206 C199 0.929 . S
Cu207 N208 1.999 . S
Cu207 O213 1.974 . S
Cu207 N218 1.985 1_554 S
Cu207 O227 1.959 . S
N208 Cu207 1.999 . S
N208 C210 1.263 . S
N208 C212 1.389 . S
N209 C210 1.358 . S
N209 C211 1.400 . S
C210 N208 1.263 . S
C210 N209 1.358 . S
C210 H216 0.930 . S
C211 N209 1.400 . S
C211 C212 1.351 . S
C211 H228 0.930 . S
C212 N208 1.389 . S
C212 C211 1.351 . S
C212 H217 0.930 . S
O213 Cu207 1.974 . S
O213 C223 1.282 1_554 S
C214 O215 1.261 . S
C214 O227 1.251 . S
O215 C214 1.261 . S
H216 C210 0.930 . S
H217 C212 0.930 . S
N218 Cu207 1.985 1_556 S
N218 C220 1.335 . S
N218 C221 1.390 . S
N219 C220 1.345 . S
N219 C222 1.336 . S
C220 N218 1.335 . S
C220 N219 1.345 . S
C220 H225 0.930 1_556 S
C221 N218 1.390 . S
C221 C222 1.346 . S
C221 H226 0.930 . S
C222 N219 1.336 . S
C222 C221 1.346 . S
C222 H229 0.929 . S
C223 O213 1.282 1_556 S
C223 O224 1.216 . S
O224 C223 1.216 . S
H225 C220 0.930 1_554 S
H226 C221 0.930 . S
O227 Cu207 1.959 . S
O227 C214 1.251 . S
H228 C211 0.930 . S
H229 C222 0.929 . S
Cu230 N231 1.999 . S
Cu230 O236 1.974 . S
Cu230 N241 1.985 . S
Cu230 O250 1.959 . S
N231 Cu230 1.999 . S
N231 C233 1.263 . S
N231 C235 1.389 . S
N232 C233 1.358 . S
N232 C234 1.400 . S
C233 N231 1.263 . S
C233 N232 1.358 . S
C233 H239 0.930 . S
C234 N232 1.400 . S
C234 C235 1.351 . S
C234 H251 0.930 . S
C235 N231 1.389 . S
C235 C234 1.351 . S
C235 H240 0.930 . S
O236 Cu230 1.974 . S
O236 C246 1.282 . S
C237 O238 1.261 . S
C237 O250 1.251 . S
O238 C237 1.261 . S
H239 C233 0.930 . S
H240 C235 0.930 . S
N241 Cu230 1.985 . S
N241 C243 1.335 . S
N241 C244 1.390 1_554 S
N242 C243 1.345 1_556 S
N242 C245 1.336 . S
C243 N241 1.335 . S
C243 N242 1.345 1_554 S
C243 H248 0.930 . S
C244 N241 1.390 1_556 S
C244 C245 1.346 . S
C244 H249 0.930 . S
C245 N242 1.336 . S
C245 C244 1.346 . S
C245 H252 0.929 . S
C246 O236 1.282 . S
C246 O247 1.216 . S
O247 C246 1.216 . S
H248 C243 0.930 . S
H249 C244 0.930 . S
O250 Cu230 1.959 . S
O250 C237 1.251 . S
H251 C234 0.930 . S
H252 C245 0.929 . S
Cu253 N254 1.999 . S
Cu253 O259 1.974 . S
Cu253 N264 1.985 . S
Cu253 O273 1.959 . S
N254 Cu253 1.999 . S
N254 C256 1.263 . S
N254 C258 1.389 . S
N255 C256 1.358 . S
N255 C257 1.400 . S
C256 N254 1.263 . S
C256 N255 1.358 . S
C256 H262 0.930 . S
C257 N255 1.400 . S
C257 C258 1.351 . S
C257 H274 0.930 . S
C258 N254 1.389 . S
C258 C257 1.351 . S
C258 H263 0.930 . S
O259 Cu253 1.974 . S
O259 C269 1.282 . S
C260 O261 1.261 . S
C260 O273 1.251 . S
O261 C260 1.261 . S
H262 C256 0.930 . S
H263 C258 0.930 . S
N264 Cu253 1.985 . S
N264 C266 1.335 . S
N264 C267 1.390 1_554 S
N265 C266 1.355 . S
N265 C268 1.329 1_554 S
C266 N264 1.335 . S
C266 N265 1.355 . S
C266 H271 0.930 . S
C267 N264 1.390 1_556 S
C267 C268 1.346 . S
C267 H272 0.930 . S
C268 N265 1.329 1_556 S
C268 C267 1.346 . S
C268 H275 0.929 . S
C269 O259 1.282 . S
C269 O270 1.216 . S
O270 C269 1.216 . S
H271 C266 0.930 . S
H272 C267 0.930 . S
O273 Cu253 1.959 . S
O273 C260 1.251 . S
H274 C257 0.930 . S
H275 C268 0.929 . S
Cu276 N277 1.999 . S
Cu276 O282 1.974 . S
Cu276 N287 1.985 . S
Cu276 O296 1.959 . S
N277 Cu276 1.999 . S
N277 C279 1.263 . S
N277 C281 1.389 1_556 S
N278 C279 1.358 1_554 S
N278 C280 1.400 . S
C279 N277 1.263 . S
C279 N278 1.358 1_556 S
C279 H285 0.930 . S
C280 N278 1.400 . S
C280 C281 1.351 . S
C280 H297 0.930 . S
C281 N277 1.389 1_554 S
C281 C280 1.351 . S
C281 H286 0.930 . S
O282 Cu276 1.974 . S
O282 C292 1.282 . S
C283 O284 1.261 . S
C283 O296 1.251 . S
O284 C283 1.261 . S
H285 C279 0.930 . S
H286 C281 0.930 . S
N287 Cu276 1.985 . S
N287 C289 1.335 . S
N287 C290 1.390 . S
N288 C289 1.345 . S
N288 C291 1.336 . S
C289 N287 1.335 . S
C289 N288 1.345 . S
C289 H294 0.930 . S
C290 N287 1.390 . S
C290 C291 1.346 . S
C290 H295 0.930 . S
C291 N288 1.336 . S
C291 C290 1.346 . S
C291 H298 0.929 . S
C292 O282 1.282 . S
C292 O293 1.216 . S
O293 C292 1.216 . S
H294 C289 0.930 . S
H295 C290 0.930 . S
O296 Cu276 1.959 . S
O296 C283 1.251 . S
H297 C280 0.930 . S
H298 C291 0.929 . S
Cu299 N300 1.999 . S
Cu299 O305 1.974 1_556 S
Cu299 N310 1.985 1_556 S
Cu299 O319 1.959 . S
N300 Cu299 1.999 . S
N300 C302 1.263 . S
N300 C304 1.389 . S
N301 C302 1.358 . S
N301 C303 1.400 . S
C302 N300 1.263 . S
C302 N301 1.358 . S
C302 H308 0.930 . S
C303 N301 1.400 . S
C303 C304 1.351 . S
C303 H320 0.930 . S
C304 N300 1.389 . S
C304 C303 1.351 . S
C304 H309 0.930 . S
O305 Cu299 1.974 1_554 S
O305 C315 1.282 . S
C306 O307 1.261 . S
C306 O319 1.251 . S
O307 C306 1.261 . S
H308 C302 0.930 . S
H309 C304 0.930 . S
N310 Cu299 1.985 1_554 S
N310 C312 1.335 . S
N310 C313 1.390 . S
N311 C312 1.345 . S
N311 C314 1.336 . S
C312 N310 1.335 . S
C312 N311 1.345 . S
C312 H317 0.930 . S
C313 N310 1.390 . S
C313 C314 1.346 . S
C313 H318 0.930 . S
C314 N311 1.336 . S
C314 C313 1.346 . S
C314 H321 0.929 . S
C315 O305 1.282 . S
C315 O316 1.216 . S
O316 C315 1.216 . S
H317 C312 0.930 . S
H318 C313 0.930 . S
O319 Cu299 1.959 . S
O319 C306 1.251 . S
H320 C303 0.930 . S
H321 C314 0.929 . S
Cu322 N323 1.999 . S
Cu322 O328 1.974 . S
Cu322 N333 1.985 . S
Cu322 O342 1.959 . S
N323 Cu322 1.999 . S
N323 C325 1.263 . S
N323 C327 1.389 . S
N324 C325 1.358 . S
N324 C326 1.400 . S
C325 N323 1.263 . S
C325 N324 1.358 . S
C325 H331 0.930 . S
C326 N324 1.400 . S
C326 C327 1.351 . S
C326 H343 0.930 . S
C327 N323 1.389 . S
C327 C326 1.351 . S
C327 H332 0.930 . S
O328 Cu322 1.974 . S
O328 C338 1.282 . S
C329 O330 1.261 . S
C329 O342 1.251 . S
O330 C329 1.261 . S
H331 C325 0.930 . S
H332 C327 0.930 . S
N333 Cu322 1.985 . S
N333 C335 1.335 . S
N333 C336 1.390 . S
N334 C335 1.345 . S
N334 C337 1.336 1_556 S
C335 N333 1.335 . S
C335 N334 1.345 . S
C335 H340 0.930 . S
C336 N333 1.390 . S
C336 C337 1.346 1_556 S
C336 H341 0.923 1_556 S
C337 N334 1.336 1_554 S
C337 C336 1.346 1_554 S
C337 H344 0.929 . S
C338 O328 1.282 . S
C338 O339 1.216 . S
O339 C338 1.216 . S
H340 C335 0.930 . S
H341 C336 0.923 1_554 S
O342 Cu322 1.959 . S
O342 C329 1.251 . S
H343 C326 0.930 . S
H344 C337 0.929 . S
Cu345 N346 1.999 . S
Cu345 O351 1.974 . S
Cu345 N356 1.985 . S
Cu345 O365 1.959 . S
N346 Cu345 1.999 . S
N346 C348 1.263 . S
N346 C350 1.389 . S
N347 C348 1.358 . S
N347 C349 1.400 . S
C348 N346 1.263 . S
C348 N347 1.358 . S
C348 H354 0.930 . S
C349 N347 1.400 . S
C349 C350 1.351 . S
C349 H366 0.930 . S
C350 N346 1.389 . S
C350 C349 1.351 . S
C350 H355 0.930 . S
O351 Cu345 1.974 . S
O351 C361 1.282 . S
C352 O353 1.261 . S
C352 O365 1.251 . S
O353 C352 1.261 . S
H354 C348 0.930 . S
H355 C350 0.930 . S
N356 Cu345 1.985 . S
N356 C358 1.335 . S
N356 C359 1.390 . S
N357 C358 1.345 . S
N357 C360 1.336 . S
C358 N356 1.335 . S
C358 N357 1.345 . S
C358 H363 0.930 . S
C359 N356 1.390 . S
C359 C360 1.346 . S
C359 H364 0.930 . S
C360 N357 1.336 . S
C360 C359 1.346 . S
C360 H367 0.929 . S
C361 O351 1.282 . S
C361 O362 1.216 . S
O362 C361 1.216 . S
H363 C358 0.930 . S
H364 C359 0.930 . S
O365 Cu345 1.959 . S
O365 C352 1.251 . S
H366 C349 0.930 . S
H367 C360 0.929 . S
Cu368 N369 1.999 . S
Cu368 O374 1.974 . S
Cu368 N379 1.985 . S
Cu368 O388 1.959 . S
N369 Cu368 1.999 . S
N369 C371 1.263 . S
N369 C373 1.389 . S
N370 C371 1.358 . S
N370 C372 1.400 . S
C371 N369 1.263 . S
C371 N370 1.358 . S
C371 H377 0.930 . S
C372 N370 1.400 . S
C372 C373 1.351 . S
C372 H389 0.930 . S
C373 N369 1.389 . S
C373 C372 1.351 . S
C373 H378 0.930 . S
O374 Cu368 1.974 . S
O374 C384 1.282 . S
C375 O376 1.261 . S
C375 O388 1.251 . S
O376 C375 1.261 . S
H377 C371 0.930 . S
H378 C373 0.930 . S
N379 Cu368 1.985 . S
N379 C381 1.335 . S
N379 C382 1.390 . S
N380 C381 1.345 . S
N380 C383 1.336 . S
C381 N379 1.335 . S
C381 N380 1.345 . S
C381 H386 0.930 . S
C382 N379 1.390 . S
C382 C383 1.346 . S
C382 H387 0.930 . S
C383 N380 1.336 . S
C383 C382 1.346 . S
C383 H390 0.929 . S
C384 O374 1.282 . S
C384 O385 1.216 . S
O385 C384 1.216 . S
H386 C381 0.930 . S
H387 C382 0.930 . S
O388 Cu368 1.959 . S
O388 C375 1.251 . S
H389 C372 0.930 . S
H390 C383 0.929 . S
Cu391 N392 1.999 . S
Cu391 O397 1.974 . S
Cu391 N402 1.985 . S
Cu391 O411 1.959 . S
N392 Cu391 1.999 . S
N392 C394 1.263 . S
N392 C396 1.389 . S
N393 C394 1.358 . S
N393 C395 1.400 . S
C394 N392 1.263 . S
C394 N393 1.358 . S
C394 H400 0.930 . S
C395 N393 1.400 . S
C395 C396 1.351 . S
C395 H412 0.930 . S
C396 N392 1.389 . S
C396 C395 1.351 . S
C396 H401 0.930 . S
O397 Cu391 1.974 . S
O397 C407 1.282 . S
C398 O399 1.261 . S
C398 O411 1.251 . S
O399 C398 1.261 . S
H400 C394 0.930 . S
H401 C396 0.930 . S
N402 Cu391 1.985 . S
N402 C404 1.335 . S
N402 C405 1.390 . S
N403 C404 1.345 . S
N403 C406 1.336 . S
C404 N402 1.335 . S
C404 N403 1.345 . S
C404 H409 0.930 . S
C405 N402 1.390 . S
C405 C406 1.346 . S
C405 H410 0.930 . S
C406 N403 1.336 . S
C406 C405 1.346 . S
C406 H413 0.929 . S
C407 O397 1.282 . S
C407 O408 1.216 . S
O408 C407 1.216 . S
H409 C404 0.930 . S
H410 C405 0.930 . S
O411 Cu391 1.959 . S
O411 C398 1.251 . S
H412 C395 0.930 . S
H413 C406 0.929 . S
H414 C422 0.950 . S
H415 C427 0.950 . S
H416 C424 0.950 . S
H417 C426 0.950 . S
H418 C428 0.950 . S
H419 C430 0.950 . S
H420 C432 0.950 1_556 S
H421 C433 0.950 . S
C422 H414 0.950 . S
C422 C423 1.386 . S
C422 C424 1.391 . S
C423 C422 1.386 . S
C423 C427 1.393 . S
C424 H416 0.950 . S
C424 C422 1.391 . S
C424 C425 1.400 . S
C425 C424 1.400 . S
C425 C426 1.398 . S
C425 C431 1.491 1_556 S
C426 H417 0.950 . S
C426 C425 1.398 . S
C426 C427 1.391 . S
C427 H415 0.950 . S
C427 C423 1.393 . S
C427 C426 1.391 . S
C428 H418 0.950 . S
C428 C429 1.386 . S
C428 C430 1.391 . S
C429 C428 1.386 . S
C429 C433 1.393 . S
C430 H419 0.950 . S
C430 C428 1.391 . S
C430 C431 1.400 . S
C431 C425 1.491 1_554 S
C431 C430 1.400 . S
C431 C432 1.398 . S
C432 H420 0.950 1_554 S
C432 C431 1.398 . S
C432 C433 1.391 . S
C433 H421 0.950 . S
C433 C429 1.393 . S
C433 C432 1.391 . S
H434 C442 0.950 . S
H435 C447 0.950 . S
H436 C444 0.950 . S
H437 C446 0.950 . S
H438 C448 0.950 . S
H439 C450 0.950 . S
H440 C452 0.950 1_554 S
H441 C453 0.950 . S
C442 H434 0.950 . S
C442 C443 1.386 . S
C442 C444 1.391 . S
C443 C442 1.386 . S
C443 C447 1.393 . S
C444 H436 0.950 . S
C444 C442 1.391 . S
C444 C445 1.400 . S
C445 C444 1.400 . S
C445 C446 1.398 . S
C445 C451 1.491 . S
C446 H437 0.950 . S
C446 C445 1.398 . S
C446 C447 1.391 . S
C447 H435 0.950 . S
C447 C443 1.393 . S
C447 C446 1.391 . S
C448 H438 0.950 . S
C448 C449 1.386 1_556 S
C448 C450 1.391 . S
C449 C448 1.386 1_554 S
C449 C453 1.393 . S
C450 H439 0.950 . S
C450 C448 1.391 . S
C450 C451 1.400 . S
C451 C445 1.491 . S
C451 C450 1.400 . S
C451 C452 1.398 . S
C452 H440 0.950 1_556 S
C452 C451 1.398 . S
C452 C453 1.391 1_556 S
C453 H441 0.950 . S
C453 C449 1.393 . S
C453 C452 1.391 1_554 S
H454 C462 0.950 . S
H455 C467 0.950 . S
H456 C464 0.950 . S
H457 C466 0.950 . S
H458 C468 0.950 . S
H459 C470 0.950 . S
H460 C472 0.976 1_554 S
H461 C473 0.950 1_565 S
C462 H454 0.950 . S
C462 C463 1.386 . S
C462 C464 1.391 . S
C463 C462 1.386 . S
C463 C467 1.393 . S
C464 H456 0.950 . S
C464 C462 1.391 . S
C464 C465 1.400 . S
C465 C464 1.400 . S
C465 C466 1.398 . S
C465 C471 1.491 . S
C466 H457 0.950 . S
C466 C465 1.398 . S
C466 C467 1.391 . S
C467 H455 0.950 . S
C467 C463 1.393 . S
C467 C466 1.391 . S
C468 H458 0.950 . S
C468 C469 1.386 . S
C468 C470 1.392 1_556 S
C469 C468 1.386 . S
C469 C473 1.393 . S
C470 H459 0.950 . S
C470 C468 1.392 1_554 S
C470 C471 1.400 . S
C471 C465 1.491 . S
C471 C470 1.400 . S
C471 C472 1.398 1_554 S
C472 H460 0.976 1_556 S
C472 C471 1.398 1_556 S
C472 C473 1.391 . S
C473 H461 0.950 1_545 S
C473 C469 1.393 . S
C473 C472 1.391 . S
H474 C482 0.950 . S
H475 C487 0.950 1_565 S
H476 C484 0.950 . S
H477 C486 0.966 . S
H478 C488 0.950 . S
H479 C490 0.950 . S
H480 C492 0.950 . S
H481 C493 0.950 . S
C482 H474 0.950 . S
C482 C483 1.386 . S
C482 C484 1.391 . S
C483 C482 1.386 . S
C483 C487 1.393 . S
C484 H476 0.950 . S
C484 C482 1.391 . S
C484 C485 1.400 . S
C485 C484 1.400 . S
C485 C486 1.398 . S
C485 C491 1.491 . S
C486 H477 0.966 . S
C486 C485 1.398 . S
C486 C487 1.391 . S
C487 H475 0.950 1_545 S
C487 C483 1.393 . S
C487 C486 1.391 . S
C488 H478 0.950 . S
C488 C489 1.386 . S
C488 C490 1.391 . S
C489 C488 1.386 . S
C489 C493 1.393 . S
C490 H479 0.950 . S
C490 C488 1.391 . S
C490 C491 1.400 . S
C491 C485 1.491 . S
C491 C490 1.400 . S
C491 C492 1.398 . S
C492 H480 0.950 . S
C492 C491 1.398 . S
C492 C493 1.391 . S
C493 H481 0.950 . S
C493 C489 1.393 . S
C493 C492 1.391 . S
H494 C502 0.950 . S
H495 C507 0.950 . S
H496 C504 0.950 . S
H497 C506 0.950 . S
H498 C508 0.938 1_655 S
H499 C510 0.950 . S
H500 C512 0.950 . S
H501 C513 0.950 . S
C502 H494 0.950 . S
C502 C503 1.386 . S
C502 C504 1.391 . S
C503 C502 1.386 . S
C503 C507 1.393 . S
C504 H496 0.950 . S
C504 C502 1.391 . S
C504 C505 1.400 . S
C505 C504 1.400 . S
C505 C506 1.398 . S
C505 C511 1.491 . S
C506 H497 0.950 . S
C506 C505 1.398 . S
C506 C507 1.391 . S
C507 H495 0.950 . S
C507 C503 1.393 . S
C507 C506 1.391 . S
C508 H498 0.938 1_455 S
C508 C509 1.386 . S
C508 C510 1.391 . S
C509 C508 1.386 . S
C509 C513 1.393 . S
C510 H499 0.950 . S
C510 C508 1.391 . S
C510 C511 1.400 . S
C511 C505 1.491 . S
C511 C510 1.400 . S
C511 C512 1.398 . S
C512 H500 0.950 . S
C512 C511 1.398 . S
C512 C513 1.391 . S
C513 H501 0.950 . S
C513 C509 1.393 . S
C513 C512 1.391 . S
H514 C522 0.950 . S
H515 C527 0.950 . S
H516 C524 0.950 . S
H517 C526 0.950 . S
H518 C528 0.950 . S
H519 C530 0.950 . S
H520 C532 0.950 . S
H521 C533 0.950 . S
C522 H514 0.950 . S
C522 C523 1.386 . S
C522 C524 1.391 . S
C523 C522 1.386 . S
C523 C527 1.393 . S
C524 H516 0.950 . S
C524 C522 1.391 . S
C524 C525 1.400 . S
C525 C524 1.400 . S
C525 C526 1.398 . S
C525 C531 1.491 . S
C526 H517 0.950 . S
C526 C525 1.398 . S
C526 C527 1.391 . S
C527 H515 0.950 . S
C527 C523 1.393 . S
C527 C526 1.391 . S
C528 H518 0.950 . S
C528 C529 1.386 . S
C528 C530 1.391 . S
C529 C528 1.386 . S
C529 C533 1.393 . S
C530 H519 0.950 . S
C530 C528 1.391 . S
C530 C531 1.400 . S
C531 C525 1.491 . S
C531 C530 1.400 . S
C531 C532 1.398 . S
C532 H520 0.950 . S
C532 C531 1.398 . S
C532 C533 1.391 . S
C533 H521 0.950 . S
C533 C529 1.393 . S
C533 C532 1.391 . S
H534 C542 0.950 . S
H535 C547 0.950 . S
H536 C544 0.950 . S
H537 C546 0.950 . S
H538 C548 0.950 . S
H539 C550 0.950 . S
H540 C552 0.950 . S
H541 C553 0.950 . S
C542 H534 0.950 . S
C542 C543 1.386 . S
C542 C544 1.391 . S
C543 C542 1.386 . S
C543 C547 1.393 . S
C544 H536 0.950 . S
C544 C542 1.391 . S
C544 C545 1.400 . S
C545 C544 1.400 . S
C545 C546 1.398 . S
C545 C551 1.491 . S
C546 H537 0.950 . S
C546 C545 1.398 . S
C546 C547 1.391 . S
C547 H535 0.950 . S
C547 C543 1.393 . S
C547 C546 1.391 . S
C548 H538 0.950 . S
C548 C549 1.386 . S
C548 C550 1.391 . S
C549 C548 1.386 . S
C549 C553 1.393 . S
C550 H539 0.950 . S
C550 C548 1.391 . S
C550 C551 1.400 . S
C551 C545 1.491 . S
C551 C550 1.400 . S
C551 C552 1.398 . S
C552 H540 0.950 . S
C552 C551 1.398 . S
C552 C553 1.391 . S
C553 H541 0.950 . S
C553 C549 1.393 . S
C553 C552 1.391 . S
H554 C562 0.950 . S
H555 C567 0.950 . S
H556 C564 0.950 . S
H557 C566 0.950 . S
H558 C568 0.950 . S
H559 C570 0.950 . S
H560 C572 0.950 . S
H561 C573 0.950 . S
C562 H554 0.950 . S
C562 C563 1.386 . S
C562 C564 1.391 . S
C563 C562 1.386 . S
C563 C567 1.393 . S
C564 H556 0.950 . S
C564 C562 1.391 . S
C564 C565 1.400 . S
C565 C564 1.400 . S
C565 C566 1.398 . S
C565 C571 1.491 . S
C566 H557 0.950 . S
C566 C565 1.398 . S
C566 C567 1.391 . S
C567 H555 0.950 . S
C567 C563 1.393 . S
C567 C566 1.391 . S
C568 H558 0.950 . S
C568 C569 1.386 . S
C568 C570 1.391 . S
C569 C568 1.386 . S
C569 C573 1.393 . S
C570 H559 0.950 . S
C570 C568 1.391 . S
C570 C571 1.400 . S
C571 C565 1.491 . S
C571 C570 1.400 . S
C571 C572 1.398 . S
C572 H560 0.950 . S
C572 C571 1.398 . S
C572 C573 1.391 . S
C573 H561 0.950 . S
C573 C569 1.393 . S
C573 C572 1.391 . S
H574 C582 0.950 . S
H575 C587 0.950 . S
H576 C584 0.950 . S
H577 C586 0.950 . S
H578 C588 0.950 . S
H579 C590 0.950 . S
H580 C592 0.950 . S
H581 C593 0.950 . S
C582 H574 0.950 . S
C582 C583 1.386 . S
C582 C584 1.391 . S
C583 C582 1.386 . S
C583 C587 1.393 . S
C584 H576 0.950 . S
C584 C582 1.391 . S
C584 C585 1.400 . S
C585 C584 1.400 . S
C585 C586 1.398 . S
C585 C591 1.491 . S
C586 H577 0.950 . S
C586 C585 1.398 . S
C586 C587 1.391 . S
C587 H575 0.950 . S
C587 C583 1.393 . S
C587 C586 1.391 . S
C588 H578 0.950 . S
C588 C589 1.386 . S
C588 C590 1.391 . S
C589 C588 1.386 . S
C589 C593 1.393 . S
C590 H579 0.950 . S
C590 C588 1.391 . S
C590 C591 1.400 . S
C591 C585 1.491 . S
C591 C590 1.400 . S
C591 C592 1.398 . S
C592 H580 0.950 . S
C592 C591 1.398 . S
C592 C593 1.391 . S
C593 H581 0.950 . S
C593 C589 1.393 . S
C593 C592 1.391 . S
H594 C602 0.950 1_554 S
H595 C607 0.950 . S
H596 C604 0.950 . S
H597 C606 0.950 . S
H598 C608 0.950 . S
H599 C610 0.950 . S
H600 C612 0.950 . S
H601 C613 0.950 . S
C602 H594 0.950 1_556 S
C602 C603 1.386 . S
C602 C604 1.391 . S
C603 C602 1.386 . S
C603 C607 1.393 . S
C604 H596 0.950 . S
C604 C602 1.391 . S
C604 C605 1.400 . S
C605 C604 1.400 . S
C605 C606 1.398 . S
C605 C611 1.491 . S
C606 H597 0.950 . S
C606 C605 1.398 . S
C606 C607 1.391 . S
C607 H595 0.950 . S
C607 C603 1.393 . S
C607 C606 1.391 . S
C608 H598 0.950 . S
C608 C609 1.386 . S
C608 C610 1.391 . S
C609 C608 1.386 . S
C609 C613 1.393 . S
C610 H599 0.950 . S
C610 C608 1.391 . S
C610 C611 1.400 . S
C611 C605 1.491 . S
C611 C610 1.400 . S
C611 C612 1.398 . S
C612 H600 0.950 . S
C612 C611 1.398 . S
C612 C613 1.391 . S
C613 H601 0.950 . S
C613 C609 1.393 . S
C613 C612 1.391 . S
H614 C622 0.951 . S
H615 C627 0.950 . S
H616 C624 0.950 . S
H617 C626 0.950 . S
H618 C628 0.950 . S
H619 C630 0.950 . S
H620 C632 0.950 . S
H621 C633 0.950 . S
C622 H614 0.951 . S
C622 C623 1.386 . S
C622 C624 1.391 . S
C623 C622 1.386 . S
C623 C627 1.393 . S
C624 H616 0.950 . S
C624 C622 1.391 . S
C624 C625 1.400 . S
C625 C624 1.400 . S
C625 C626 1.398 . S
C625 C631 1.491 . S
C626 H617 0.950 . S
C626 C625 1.398 . S
C626 C627 1.391 . S
C627 H615 0.950 . S
C627 C623 1.393 . S
C627 C626 1.391 . S
C628 H618 0.950 . S
C628 C629 1.386 . S
C628 C630 1.391 . S
C629 C628 1.386 . S
C629 C633 1.393 . S
C630 H619 0.950 . S
C630 C628 1.391 . S
C630 C631 1.400 . S
C631 C625 1.491 . S
C631 C630 1.400 . S
C631 C632 1.398 . S
C632 H620 0.950 . S
C632 C631 1.398 . S
C632 C633 1.391 . S
C633 H621 0.950 . S
C633 C629 1.393 . S
C633 C632 1.391 . S
H634 C642 0.950 . S
H635 C647 0.950 . S
H636 C644 0.950 . S
H637 C646 0.950 . S
H638 C648 0.950 . S
H639 C650 0.950 . S
H640 C652 0.950 . S
H641 C653 0.950 . S
C642 H634 0.950 . S
C642 C643 1.386 . S
C642 C644 1.391 . S
C643 C642 1.386 . S
C643 C647 1.393 . S
C644 H636 0.950 . S
C644 C642 1.391 . S
C644 C645 1.400 . S
C645 C644 1.400 . S
C645 C646 1.398 . S
C645 C651 1.491 . S
C646 H637 0.950 . S
C646 C645 1.398 . S
C646 C647 1.391 . S
C647 H635 0.950 . S
C647 C643 1.393 . S
C647 C646 1.391 . S
C648 H638 0.950 . S
C648 C649 1.386 . S
C648 C650 1.391 . S
C649 C648 1.386 . S
C649 C653 1.393 . S
C650 H639 0.950 . S
C650 C648 1.391 . S
C650 C651 1.400 . S
C651 C645 1.491 . S
C651 C650 1.400 . S
C651 C652 1.398 . S
C652 H640 0.950 . S
C652 C651 1.398 . S
C652 C653 1.391 . S
C653 H641 0.950 . S
C653 C649 1.393 . S
C653 C652 1.391 . S
H654 C662 0.950 . S
H655 C667 0.950 . S
H656 C664 0.950 . S
H657 C666 0.950 . S
H658 C668 0.950 . S
H659 C670 0.950 . S
H660 C672 0.950 . S
H661 C673 0.950 . S
C662 H654 0.950 . S
C662 C663 1.386 . S
C662 C664 1.391 . S
C663 C662 1.386 . S
C663 C667 1.393 . S
C664 H656 0.950 . S
C664 C662 1.391 . S
C664 C665 1.400 . S
C665 C664 1.400 . S
C665 C666 1.398 . S
C665 C671 1.491 . S
C666 H657 0.950 . S
C666 C665 1.398 . S
C666 C667 1.391 . S
C667 H655 0.950 . S
C667 C663 1.393 . S
C667 C666 1.391 . S
C668 H658 0.950 . S
C668 C669 1.386 . S
C668 C670 1.391 . S
C669 C668 1.386 . S
C669 C673 1.393 . S
C670 H659 0.950 . S
C670 C668 1.391 . S
C670 C671 1.400 . S
C671 C665 1.491 . S
C671 C670 1.400 . S
C671 C672 1.398 . S
C672 H660 0.950 . S
C672 C671 1.398 . S
C672 C673 1.391 . S
C673 H661 0.950 . S
C673 C669 1.393 . S
C673 C672 1.391 . S
H674 C682 0.950 . S
H675 C687 0.950 . S
H676 C684 0.950 . S
H677 C686 0.950 . S
H678 C688 0.950 . S
H679 C690 0.950 . S
H680 C692 0.950 . S
H681 C693 0.950 . S
C682 H674 0.950 . S
C682 C683 1.386 . S
C682 C684 1.391 . S
C683 C682 1.386 . S
C683 C687 1.393 . S
C684 H676 0.950 . S
C684 C682 1.391 . S
C684 C685 1.400 . S
C685 C684 1.400 . S
C685 C686 1.398 . S
C685 C691 1.491 . S
C686 H677 0.950 . S
C686 C685 1.398 . S
C686 C687 1.391 . S
C687 H675 0.950 . S
C687 C683 1.393 . S
C687 C686 1.391 . S
C688 H678 0.950 . S
C688 C689 1.386 . S
C688 C690 1.391 . S
C689 C688 1.386 . S
C689 C693 1.393 . S
C690 H679 0.950 . S
C690 C688 1.391 . S
C690 C691 1.400 . S
C691 C685 1.491 . S
C691 C690 1.400 . S
C691 C692 1.398 . S
C692 H680 0.950 . S
C692 C691 1.398 . S
C692 C693 1.391 . S
C693 H681 0.950 . S
C693 C689 1.393 . S
C693 C692 1.391 . S
H694 C702 0.950 . S
H695 C707 0.950 . S
H696 C704 0.950 . S
H697 C706 0.950 . S
H698 C708 0.950 . S
H699 C710 0.950 . S
H700 C712 0.950 . S
H701 C713 0.950 . S
C702 H694 0.950 . S
C702 C703 1.386 . S
C702 C704 1.391 . S
C703 C702 1.386 . S
C703 C707 1.393 . S
C704 H696 0.950 . S
C704 C702 1.391 . S
C704 C705 1.400 . S
C705 C704 1.400 . S
C705 C706 1.398 . S
C705 C711 1.491 . S
C706 H697 0.950 . S
C706 C705 1.398 . S
C706 C707 1.391 . S
C707 H695 0.950 . S
C707 C703 1.393 . S
C707 C706 1.391 . S
C708 H698 0.950 . S
C708 C709 1.386 . S
C708 C710 1.391 . S
C709 C708 1.386 . S
C709 C713 1.393 . S
C710 H699 0.950 . S
C710 C708 1.391 . S
C710 C711 1.400 . S
C711 C705 1.491 . S
C711 C710 1.400 . S
C711 C712 1.398 . S
C712 H700 0.950 . S
C712 C711 1.398 . S
C712 C713 1.391 . S
C713 H701 0.950 . S
C713 C709 1.393 . S
C713 C712 1.391 . S
H714 C722 0.950 . S
H715 C727 0.950 . S
H716 C724 0.950 . S
H717 C726 0.950 . S
H718 C728 0.950 . S
H719 C730 0.950 . S
H720 C732 0.950 . S
H721 C733 0.950 . S
C722 H714 0.950 . S
C722 C723 1.386 . S
C722 C724 1.391 . S
C723 C722 1.386 . S
C723 C727 1.393 . S
C724 H716 0.950 . S
C724 C722 1.391 . S
C724 C725 1.400 . S
C725 C724 1.400 . S
C725 C726 1.398 . S
C725 C731 1.491 . S
C726 H717 0.950 . S
C726 C725 1.398 . S
C726 C727 1.391 . S
C727 H715 0.950 . S
C727 C723 1.393 . S
C727 C726 1.391 . S
C728 H718 0.950 . S
C728 C729 1.386 . S
C728 C730 1.391 1_556 S
C729 C728 1.386 . S
C729 C733 1.393 1_556 S
C730 H719 0.950 . S
C730 C728 1.391 1_554 S
C730 C731 1.400 . S
C731 C725 1.491 . S
C731 C730 1.400 . S
C731 C732 1.398 . S
C732 H720 0.950 . S
C732 C731 1.398 . S
C732 C733 1.391 . S
C733 H721 0.950 . S
C733 C729 1.393 1_554 S
C733 C732 1.391 . S
H734 C742 0.950 . S
H735 C747 0.950 . S
H736 C744 0.950 . S
H737 C746 0.950 . S
H738 C748 0.950 . S
H739 C750 0.950 . S
H740 C752 0.950 . S
H741 C753 0.950 1_556 S
C742 H734 0.950 . S
C742 C743 1.386 . S
C742 C744 1.391 . S
C743 C742 1.386 . S
C743 C747 1.393 . S
C744 H736 0.950 . S
C744 C742 1.391 . S
C744 C745 1.400 . S
C745 C744 1.400 . S
C745 C746 1.398 . S
C745 C751 1.491 . S
C746 H737 0.950 . S
C746 C745 1.398 . S
C746 C747 1.391 . S
C747 H735 0.950 . S
C747 C743 1.393 . S
C747 C746 1.391 . S
C748 H738 0.950 . S
C748 C749 1.386 . S
C748 C750 1.391 . S
C749 C748 1.386 . S
C749 C753 1.393 . S
C750 H739 0.950 . S
C750 C748 1.391 . S
C750 C751 1.400 . S
C751 C745 1.491 . S
C751 C750 1.400 . S
C751 C752 1.398 . S
C752 H740 0.950 . S
C752 C751 1.398 . S
C752 C753 1.391 . S
C753 H741 0.950 1_554 S
C753 C749 1.393 . S
C753 C752 1.391 . S
H754 C762 0.950 . S
H755 C767 0.950 . S
H756 C764 0.950 . S
H757 C766 0.950 . S
H758 C768 0.950 . S
H759 C770 0.950 . S
H760 C772 0.950 . S
H761 C773 0.950 . S
C762 H754 0.950 . S
C762 C763 1.386 . S
C762 C764 1.391 . S
C763 C762 1.386 . S
C763 C767 1.393 . S
C764 H756 0.950 . S
C764 C762 1.391 . S
C764 C765 1.400 . S
C765 C764 1.400 . S
C765 C766 1.398 . S
C765 C771 1.491 . S
C766 H757 0.950 . S
C766 C765 1.398 . S
C766 C767 1.391 . S
C767 H755 0.950 . S
C767 C763 1.393 . S
C767 C766 1.391 . S
C768 H758 0.950 . S
C768 C769 1.386 . S
C768 C770 1.391 . S
C769 C768 1.386 . S
C769 C773 1.393 . S
C770 H759 0.950 . S
C770 C768 1.391 . S
C770 C771 1.400 . S
C771 C765 1.491 . S
C771 C770 1.400 . S
C771 C772 1.398 . S
C772 H760 0.950 . S
C772 C771 1.398 . S
C772 C773 1.391 . S
C773 H761 0.950 . S
C773 C769 1.393 . S
C773 C772 1.391 . S
H774 C782 0.950 . S
H775 C787 0.950 . S
H776 C784 0.950 . S
H777 C786 0.950 . S
H778 C788 0.950 . S
H779 C790 0.950 . S
H780 C792 0.950 . S
H781 C793 0.950 . S
C782 H774 0.950 . S
C782 C783 1.386 . S
C782 C784 1.391 . S
C783 C782 1.386 . S
C783 C787 1.393 . S
C784 H776 0.950 . S
C784 C782 1.391 . S
C784 C785 1.400 . S
C785 C784 1.400 . S
C785 C786 1.398 . S
C785 C791 1.491 . S
C786 H777 0.950 . S
C786 C785 1.398 . S
C786 C787 1.391 . S
C787 H775 0.950 . S
C787 C783 1.393 . S
C787 C786 1.391 . S
C788 H778 0.950 . S
C788 C789 1.386 . S
C788 C790 1.391 . S
C789 C788 1.386 . S
C789 C793 1.393 . S
C790 H779 0.950 . S
C790 C788 1.391 . S
C790 C791 1.400 . S
C791 C785 1.491 . S
C791 C790 1.400 . S
C791 C792 1.398 . S
C792 H780 0.950 . S
C792 C791 1.398 . S
C792 C793 1.391 . S
C793 H781 0.950 . S
C793 C789 1.393 . S
C793 C792 1.391 . S
H794 C802 0.950 . S
H795 C807 0.950 . S
H796 C804 0.950 . S
H797 C806 0.950 . S
H798 C808 0.950 . S
H799 C810 0.950 . S
H800 C812 0.950 . S
H801 C813 0.950 . S
C802 H794 0.950 . S
C802 C803 1.386 . S
C802 C804 1.391 . S
C803 C802 1.386 . S
C803 C807 1.393 . S
C804 H796 0.950 . S
C804 C802 1.391 . S
C804 C805 1.400 . S
C805 C804 1.400 . S
C805 C806 1.398 . S
C805 C811 1.491 . S
C806 H797 0.950 . S
C806 C805 1.398 . S
C806 C807 1.391 . S
C807 H795 0.950 . S
C807 C803 1.393 . S
C807 C806 1.391 . S
C808 H798 0.950 . S
C808 C809 1.386 . S
C808 C810 1.391 . S
C809 C808 1.386 . S
C809 C813 1.393 . S
C810 H799 0.950 . S
C810 C808 1.391 . S
C810 C811 1.400 . S
C811 C805 1.491 . S
C811 C810 1.400 . S
C811 C812 1.398 . S
C812 H800 0.950 . S
C812 C811 1.398 . S
C812 C813 1.391 . S
C813 H801 0.950 . S
C813 C809 1.393 . S
C813 C812 1.391 . S
H814 C822 0.950 . S
H815 C827 0.950 . S
H816 C824 0.950 . S
H817 C826 0.950 . S
H818 C828 0.950 . S
H819 C830 0.950 . S
H820 C832 0.950 . S
H821 C833 0.950 . S
C822 H814 0.950 . S
C822 C823 1.386 . S
C822 C824 1.391 . S
C823 C822 1.386 . S
C823 C827 1.393 . S
C824 H816 0.950 . S
C824 C822 1.391 . S
C824 C825 1.400 . S
C825 C824 1.400 . S
C825 C826 1.398 . S
C825 C831 1.491 . S
C826 H817 0.950 . S
C826 C825 1.398 . S
C826 C827 1.391 . S
C827 H815 0.950 . S
C827 C823 1.393 . S
C827 C826 1.391 . S
C828 H818 0.950 . S
C828 C829 1.386 . S
C828 C830 1.391 1_545 S
C829 C828 1.386 . S
C829 C833 1.393 1_545 S
C830 H819 0.950 . S
C830 C828 1.391 1_565 S
C830 C831 1.400 . S
C831 C825 1.491 . S
C831 C830 1.400 . S
C831 C832 1.398 . S
C832 H820 0.950 . S
C832 C831 1.398 . S
C832 C833 1.391 . S
C833 H821 0.950 . S
C833 C829 1.393 1_565 S
C833 C832 1.391 . S
H834 C842 0.950 . S
H835 C847 0.950 . S
H836 C844 0.950 . S
H837 C846 0.950 . S
H838 C848 0.950 . S
H839 C850 0.950 . S
H840 C852 0.950 . S
H841 C853 0.950 . S
C842 H834 0.950 . S
C842 C843 1.386 . S
C842 C844 1.391 . S
C843 C842 1.386 . S
C843 C847 1.393 . S
C844 H836 0.950 . S
C844 C842 1.391 . S
C844 C845 1.400 . S
C845 C844 1.400 . S
C845 C846 1.398 . S
C845 C851 1.491 . S
C846 H837 0.950 . S
C846 C845 1.398 . S
C846 C847 1.391 . S
C847 H835 0.950 . S
C847 C843 1.393 . S
C847 C846 1.391 . S
C848 H838 0.950 . S
C848 C849 1.386 . S
C848 C850 1.391 . S
C849 C848 1.386 . S
C849 C853 1.393 . S
C850 H839 0.950 . S
C850 C848 1.391 . S
C850 C851 1.400 . S
C851 C845 1.491 . S
C851 C850 1.400 . S
C851 C852 1.398 . S
C852 H840 0.950 . S
C852 C851 1.398 . S
C852 C853 1.391 . S
C853 H841 0.950 . S
C853 C849 1.393 . S
C853 C852 1.391 . S
H854 C862 0.950 1_455 S
H855 C867 0.950 . S
H856 C864 0.950 . S
H857 C866 0.950 . S
H858 C868 0.950 . S
H859 C870 0.950 . S
H860 C872 0.950 . S
H861 C873 0.950 . S
C862 H854 0.950 1_655 S
C862 C863 1.386 1_554 S
C862 C864 1.391 1_655 S
C863 C862 1.386 1_556 S
C863 C867 1.393 . S
C864 H856 0.950 . S
C864 C862 1.391 1_455 S
C864 C865 1.400 1_455 S
C865 C864 1.400 1_655 S
C865 C866 1.398 . S
C865 C871 1.486 . S
C866 H857 0.950 . S
C866 C865 1.398 . S
C866 C867 1.391 1_554 S
C867 H855 0.950 . S
C867 C863 1.393 . S
C867 C866 1.391 1_556 S
C868 H858 0.950 . S
C868 C869 1.386 1_655 S
C868 C870 1.391 . S
C869 C868 1.386 1_455 S
C869 C873 1.393 . S
C870 H859 0.950 . S
C870 C868 1.391 . S
C870 C871 1.400 . S
C871 C865 1.486 . S
C871 C870 1.400 . S
C871 C872 1.404 1_655 S
C872 H860 0.950 . S
C872 C871 1.404 1_455 S
C872 C873 1.391 . S
C873 H861 0.950 . S
C873 C869 1.393 . S
C873 C872 1.391 . S
H874 C882 0.950 . S
H875 C887 0.950 . S
H876 C884 0.950 . S
H877 C886 0.950 . S
H878 C888 0.950 . S
H879 C890 0.950 . S
H880 C892 0.950 . S
H881 C893 0.950 . S
C882 H874 0.950 . S
C882 C883 1.386 1_554 S
C882 C884 1.391 . S
C883 C882 1.386 1_556 S
C883 C887 1.393 . S
C884 H876 0.950 . S
C884 C882 1.391 . S
C884 C885 1.400 . S
C885 C884 1.400 . S
C885 C886 1.398 . S
C885 C891 1.491 . S
C886 H877 0.950 . S
C886 C885 1.398 . S
C886 C887 1.391 1_554 S
C887 H875 0.950 . S
C887 C883 1.393 . S
C887 C886 1.391 1_556 S
C888 H878 0.950 . S
C888 C889 1.386 . S
C888 C890 1.391 . S
C889 C888 1.386 . S
C889 C893 1.393 . S
C890 H879 0.950 . S
C890 C888 1.391 . S
C890 C891 1.400 . S
C891 C885 1.491 . S
C891 C890 1.400 . S
C891 C892 1.398 . S
C892 H880 0.950 . S
C892 C891 1.398 . S
C892 C893 1.391 . S
C893 H881 0.950 . S
C893 C889 1.393 . S
C893 C892 1.391 . S
H894 C902 0.950 . S
H895 C907 0.950 . S
H896 C904 0.950 . S
H897 C906 0.950 1_455 S
H898 C908 0.950 . S
H899 C910 0.950 . S
H900 C912 0.950 . S
H901 C913 0.950 . S
C902 H894 0.950 . S
C902 C903 1.386 . S
C902 C904 1.391 . S
C903 C902 1.386 . S
C903 C907 1.393 . S
C904 H896 0.950 . S
C904 C902 1.391 . S
C904 C905 1.400 . S
C905 C904 1.400 . S
C905 C906 1.398 . S
C905 C911 1.491 . S
C906 H897 0.950 1_655 S
C906 C905 1.398 . S
C906 C907 1.391 . S
C907 H895 0.950 . S
C907 C903 1.393 . S
C907 C906 1.391 . S
C908 H898 0.950 . S
C908 C909 1.386 . S
C908 C910 1.391 . S
C909 C908 1.386 . S
C909 C913 1.393 1_455 S
C910 H899 0.950 . S
C910 C908 1.391 . S
C910 C911 1.400 1_455 S
C911 C905 1.491 . S
C911 C910 1.400 1_655 S
C911 C912 1.398 . S
C912 H900 0.950 . S
C912 C911 1.398 . S
C912 C913 1.391 . S
C913 H901 0.950 . S
C913 C909 1.393 1_655 S
C913 C912 1.391 . S
H914 C922 0.950 . S
H915 C927 0.950 . S
H916 C924 0.950 . S
H917 C926 0.950 . S
H918 C928 0.950 . S
H919 C930 0.950 . S
H920 C932 0.950 . S
H921 C933 0.950 . S
C922 H914 0.950 . S
C922 C923 1.386 . S
C922 C924 1.391 . S
C923 C922 1.386 . S
C923 C927 1.393 . S
C924 H916 0.950 . S
C924 C922 1.391 . S
C924 C925 1.400 . S
C925 C924 1.400 . S
C925 C926 1.398 . S
C925 C931 1.491 . S
C926 H917 0.950 . S
C926 C925 1.398 . S
C926 C927 1.391 . S
C927 H915 0.950 . S
C927 C923 1.393 . S
C927 C926 1.391 . S
C928 H918 0.950 . S
C928 C929 1.386 . S
C928 C930 1.391 . S
C929 C928 1.386 . S
C929 C933 1.393 . S
C930 H919 0.950 . S
C930 C928 1.391 . S
C930 C931 1.400 . S
C931 C925 1.491 . S
C931 C930 1.400 . S
C931 C932 1.398 . S
C932 H920 0.950 . S
C932 C931 1.398 . S
C932 C933 1.391 . S
C933 H921 0.950 . S
C933 C929 1.393 . S
C933 C932 1.391 . S
H934 C942 0.950 . S
H935 C947 0.950 . S
H936 C944 0.950 . S
H937 C946 0.950 . S
H938 C948 0.950 . S
H939 C950 0.950 . S
H940 C952 0.950 . S
H941 C953 0.950 . S
C942 H934 0.950 . S
C942 C943 1.386 . S
C942 C944 1.391 . S
C943 C942 1.386 . S
C943 C947 1.393 . S
C944 H936 0.950 . S
C944 C942 1.391 . S
C944 C945 1.400 . S
C945 C944 1.400 . S
C945 C946 1.398 . S
C945 C951 1.491 . S
C946 H937 0.950 . S
C946 C945 1.398 . S
C946 C947 1.391 . S
C947 H935 0.950 . S
C947 C943 1.393 . S
C947 C946 1.391 . S
C948 H938 0.950 . S
C948 C949 1.386 . S
C948 C950 1.391 . S
C949 C948 1.386 . S
C949 C953 1.393 . S
C950 H939 0.950 . S
C950 C948 1.391 . S
C950 C951 1.400 . S
C951 C945 1.491 . S
C951 C950 1.400 . S
C951 C952 1.398 . S
C952 H940 0.950 . S
C952 C951 1.398 . S
C952 C953 1.391 . S
C953 H941 0.950 . S
C953 C949 1.393 . S
C953 C952 1.391 . S
H954 C962 0.950 . S
H955 C967 0.950 . S
H956 C964 0.950 . S
H957 C966 0.950 1_544 S
H958 C968 0.950 . S
H959 C970 0.950 . S
H960 C972 0.950 . S
H961 C973 0.950 . S
C962 H954 0.950 . S
C962 C963 1.386 . S
C962 C964 1.391 . S
C963 C962 1.386 . S
C963 C967 1.393 1_556 S
C964 H956 0.950 . S
C964 C962 1.391 . S
C964 C965 1.400 . S
C965 C964 1.400 . S
C965 C966 1.398 . S
C965 C971 1.491 . S
C966 H957 0.950 1_566 S
C966 C965 1.398 . S
C966 C967 1.391 1_556 S
C967 H955 0.950 . S
C967 C963 1.393 1_554 S
C967 C966 1.391 1_554 S
C968 H958 0.950 . S
C968 C969 1.386 . S
C968 C970 1.391 . S
C969 C968 1.386 . S
C969 C973 1.393 1_545 S
C970 H959 0.950 . S
C970 C968 1.391 . S
C970 C971 1.400 1_545 S
C971 C965 1.491 . S
C971 C970 1.400 1_565 S
C971 C972 1.398 . S
C972 H960 0.950 . S
C972 C971 1.398 . S
C972 C973 1.391 . S
C973 H961 0.950 . S
C973 C969 1.393 1_565 S
C973 C972 1.391 . S
H974 C982 0.950 . S
H975 C987 0.950 . S
H976 C984 0.950 . S
H977 C986 0.950 . S
H978 C988 0.950 . S
H979 C990 0.950 . S
H980 C992 0.950 . S
H981 C993 0.955 . S
C982 H974 0.950 . S
C982 C983 1.386 . S
C982 C984 1.391 . S
C983 C982 1.386 . S
C983 C987 1.393 . S
C984 H976 0.950 . S
C984 C982 1.391 . S
C984 C985 1.400 . S
C985 C984 1.400 . S
C985 C986 1.398 . S
C985 C991 1.491 . S
C986 H977 0.950 . S
C986 C985 1.398 . S
C986 C987 1.391 . S
C987 H975 0.950 . S
C987 C983 1.393 . S
C987 C986 1.391 . S
C988 H978 0.950 . S
C988 C989 1.386 . S
C988 C990 1.391 . S
C989 C988 1.386 . S
C989 C993 1.391 1_556 S
C990 H979 0.950 . S
C990 C988 1.391 . S
C990 C991 1.400 . S
C991 C985 1.491 . S
C991 C990 1.400 . S
C991 C992 1.398 . S
C992 H980 0.950 . S
C992 C991 1.398 . S
C992 C993 1.387 1_556 S
C993 H981 0.955 . S
C993 C989 1.391 1_554 S
C993 C992 1.387 1_554 S
H994 C1002 0.950 . S
H995 C1007 0.950 . S
H996 C1004 0.950 . S
H997 C1006 0.950 . S
H998 C1008 0.950 . S
H999 C1010 0.950 . S
H1000 C1012 0.950 . S
H1001 C1013 0.950 . S
C1002 H994 0.950 . S
C1002 C1003 1.386 . S
C1002 C1004 1.391 . S
C1003 C1002 1.386 . S
C1003 C1007 1.393 . S
C1004 H996 0.950 . S
C1004 C1002 1.391 . S
C1004 C1005 1.400 . S
C1005 C1004 1.400 . S
C1005 C1006 1.398 . S
C1005 C1011 1.491 . S
C1006 H997 0.950 . S
C1006 C1005 1.398 . S
C1006 C1007 1.391 . S
C1007 H995 0.950 . S
C1007 C1003 1.393 . S
C1007 C1006 1.391 . S
C1008 H998 0.950 . S
C1008 C1009 1.386 . S
C1008 C1010 1.391 . S
C1009 C1008 1.386 . S
C1009 C1013 1.393 . S
C1010 H999 0.950 . S
C1010 C1008 1.391 . S
C1010 C1011 1.400 . S
C1011 C1005 1.491 . S
C1011 C1010 1.400 . S
C1011 C1012 1.398 . S
C1012 H1000 0.950 . S
C1012 C1011 1.398 . S
C1012 C1013 1.391 . S
C1013 H1001 0.950 . S
C1013 C1009 1.393 . S
C1013 C1012 1.391 . S
H1014 C1022 0.950 . S
H1015 C1027 0.950 . S
H1016 C1024 0.950 . S
H1017 C1026 0.950 . S
H1018 C1028 0.950 . S
H1019 C1030 0.950 . S
H1020 C1032 0.950 . S
H1021 C1033 0.950 . S
C1022 H1014 0.950 . S
C1022 C1023 1.386 . S
C1022 C1024 1.393 1_565 S
C1023 C1022 1.386 . S
C1023 C1027 1.393 . S
C1024 H1016 0.950 . S
C1024 C1022 1.393 1_545 S
C1024 C1025 1.398 . S
C1025 C1024 1.398 . S
C1025 C1026 1.398 . S
C1025 C1031 1.491 . S
C1026 H1017 0.950 . S
C1026 C1025 1.398 . S
C1026 C1027 1.391 1_545 S
C1027 H1015 0.950 . S
C1027 C1023 1.393 . S
C1027 C1026 1.391 1_565 S
C1028 H1018 0.950 . S
C1028 C1029 1.386 . S
C1028 C1030 1.391 . S
C1029 C1028 1.386 . S
C1029 C1033 1.393 . S
C1030 H1019 0.950 . S
C1030 C1028 1.391 . S
C1030 C1031 1.400 . S
C1031 C1025 1.491 . S
C1031 C1030 1.400 . S
C1031 C1032 1.398 . S
C1032 H1020 0.950 . S
C1032 C1031 1.398 . S
C1032 C1033 1.391 . S
C1033 H1021 0.950 . S
C1033 C1029 1.393 . S
C1033 C1032 1.391 . S
H1034 C1042 0.950 . S
H1035 C1047 0.950 . S
H1036 C1044 0.950 . S
H1037 C1046 0.950 . S
H1038 C1048 0.950 . S
H1039 C1050 0.950 . S
H1040 C1052 0.950 . S
H1041 C1053 0.923 1_655 S
C1042 H1034 0.950 . S
C1042 C1043 1.386 . S
C1042 C1044 1.391 . S
C1043 C1042 1.386 . S
C1043 C1047 1.393 . S
C1044 H1036 0.950 . S
C1044 C1042 1.391 . S
C1044 C1045 1.400 . S
C1045 C1044 1.400 . S
C1045 C1046 1.398 . S
C1045 C1051 1.491 . S
C1046 H1037 0.950 . S
C1046 C1045 1.398 . S
C1046 C1047 1.391 . S
C1047 H1035 0.950 . S
C1047 C1043 1.393 . S
C1047 C1046 1.391 . S
C1048 H1038 0.950 . S
C1048 C1049 1.386 1_455 S
C1048 C1050 1.391 . S
C1049 C1048 1.386 1_655 S
C1049 C1053 1.395 1_655 S
C1050 H1039 0.950 . S
C1050 C1048 1.391 . S
C1050 C1051 1.400 . S
C1051 C1045 1.491 . S
C1051 C1050 1.400 . S
C1051 C1052 1.398 . S
C1052 H1040 0.950 . S
C1052 C1051 1.398 . S
C1052 C1053 1.416 . S
C1053 H1041 0.923 1_455 S
C1053 C1049 1.395 1_455 S
C1053 C1052 1.416 . S
H1054 C1062 0.950 . S
H1055 C1067 0.950 . S
H1056 C1064 0.950 . S
H1057 C1066 0.950 . S
H1058 C1068 0.950 . S
H1059 C1070 0.950 . S
H1060 C1072 0.950 . S
H1061 C1073 0.950 . S
C1062 H1054 0.950 . S
C1062 C1063 1.386 . S
C1062 C1064 1.391 . S
C1063 C1062 1.386 . S
C1063 C1067 1.393 . S
C1064 H1056 0.950 . S
C1064 C1062 1.391 . S
C1064 C1065 1.400 . S
C1065 C1064 1.400 . S
C1065 C1066 1.398 . S
C1065 C1071 1.491 . S
C1066 H1057 0.950 . S
C1066 C1065 1.398 . S
C1066 C1067 1.391 . S
C1067 H1055 0.950 . S
C1067 C1063 1.393 . S
C1067 C1066 1.391 . S
C1068 H1058 0.950 . S
C1068 C1069 1.386 . S
C1068 C1070 1.391 . S
C1069 C1068 1.386 . S
C1069 C1073 1.393 . S
C1070 H1059 0.950 . S
C1070 C1068 1.391 . S
C1070 C1071 1.400 . S
C1071 C1065 1.491 . S
C1071 C1070 1.400 . S
C1071 C1072 1.398 . S
C1072 H1060 0.950 . S
C1072 C1071 1.398 . S
C1072 C1073 1.391 . S
C1073 H1061 0.950 . S
C1073 C1069 1.393 . S
C1073 C1072 1.391 . S
H1074 C1082 0.950 . S
H1075 C1087 0.950 1_655 S
H1076 C1084 0.950 . S
H1077 C1086 0.950 . S
H1078 C1088 0.950 . S
H1079 C1090 0.950 . S
H1080 C1092 0.950 . S
H1081 C1093 0.950 . S
C1082 H1074 0.950 . S
C1082 C1083 1.403 . S
C1082 C1084 1.391 . S
C1083 C1082 1.403 . S
C1083 C1087 1.411 . S
C1084 H1076 0.950 . S
C1084 C1082 1.391 . S
C1084 C1085 1.400 . S
C1085 C1084 1.400 . S
C1085 C1086 1.398 . S
C1085 C1091 1.491 . S
C1086 H1077 0.950 . S
C1086 C1085 1.398 . S
C1086 C1087 1.391 . S
C1087 H1075 0.950 1_455 S
C1087 C1083 1.411 . S
C1087 C1086 1.391 . S
C1088 H1078 0.950 . S
C1088 C1089 1.386 . S
C1088 C1090 1.391 . S
C1089 C1088 1.386 . S
C1089 C1093 1.393 . S
C1090 H1079 0.950 . S
C1090 C1088 1.391 . S
C1090 C1091 1.400 . S
C1091 C1085 1.491 . S
C1091 C1090 1.400 . S
C1091 C1092 1.398 . S
C1092 H1080 0.950 . S
C1092 C1091 1.398 . S
C1092 C1093 1.391 . S
C1093 H1081 0.950 . S
C1093 C1089 1.393 . S
C1093 C1092 1.391 . S
H1094 C1102 0.950 . S
H1095 C1107 0.950 . S
H1096 C1104 0.950 . S
H1097 C1106 0.950 . S
H1098 C1108 0.950 . S
H1099 C1110 0.950 . S
H1100 C1112 0.950 . S
H1101 C1113 0.950 . S
C1102 H1094 0.950 . S
C1102 C1103 1.386 . S
C1102 C1104 1.391 . S
C1103 C1102 1.386 . S
C1103 C1107 1.393 . S
C1104 H1096 0.950 . S
C1104 C1102 1.391 . S
C1104 C1105 1.400 . S
C1105 C1104 1.400 . S
C1105 C1106 1.398 . S
C1105 C1111 1.491 . S
C1106 H1097 0.950 . S
C1106 C1105 1.398 . S
C1106 C1107 1.391 . S
C1107 H1095 0.950 . S
C1107 C1103 1.393 . S
C1107 C1106 1.391 . S
C1108 H1098 0.950 . S
C1108 C1109 1.386 . S
C1108 C1110 1.391 . S
C1109 C1108 1.386 . S
C1109 C1113 1.393 . S
C1110 H1099 0.950 . S
C1110 C1108 1.391 . S
C1110 C1111 1.400 . S
C1111 C1105 1.491 . S
C1111 C1110 1.400 . S
C1111 C1112 1.398 . S
C1112 H1100 0.950 . S
C1112 C1111 1.398 . S
C1112 C1113 1.391 . S
C1113 H1101 0.950 . S
C1113 C1109 1.393 . S
C1113 C1112 1.391 . S
H1114 C1122 0.950 . S
H1115 C1127 0.950 . S
H1116 C1124 0.950 . S
H1117 C1126 0.950 . S
H1118 C1128 0.950 . S
H1119 C1130 0.950 . S
H1120 C1132 0.950 . S
H1121 C1133 0.950 . S
C1122 H1114 0.950 . S
C1122 C1123 1.386 . S
C1122 C1124 1.391 1_565 S
C1123 C1122 1.386 . S
C1123 C1127 1.393 . S
C1124 H1116 0.950 . S
C1124 C1122 1.391 1_545 S
C1124 C1125 1.400 . S
C1125 C1124 1.400 . S
C1125 C1126 1.398 . S
C1125 C1131 1.491 . S
C1126 H1117 0.950 . S
C1126 C1125 1.398 . S
C1126 C1127 1.391 1_545 S
C1127 H1115 0.950 . S
C1127 C1123 1.393 . S
C1127 C1126 1.391 1_565 S
C1128 H1118 0.950 . S
C1128 C1129 1.386 . S
C1128 C1130 1.391 . S
C1129 C1128 1.386 . S
C1129 C1133 1.393 . S
C1130 H1119 0.950 . S
C1130 C1128 1.391 . S
C1130 C1131 1.400 . S
C1131 C1125 1.491 . S
C1131 C1130 1.400 . S
C1131 C1132 1.398 . S
C1132 H1120 0.950 . S
C1132 C1131 1.398 . S
C1132 C1133 1.391 . S
C1133 H1121 0.950 . S
C1133 C1129 1.393 . S
C1133 C1132 1.391 . S
C423 C85 1.610 . S
C429 C16 1.612 . S
C443 N94 1.628 . S
C449 N25 1.628 . S
C463 N48 1.607 . S
C469 N117 1.612 . S
C483 C62 1.748 . S
C489 C131 1.747 . S
C503 N2 1.691 . S
C509 N71 1.685 . S
C523 C108 1.744 . S
C529 C39 1.745 . S
C543 N209 1.823 . S
C549 C154 1.884 . S
C563 C177 1.840 . S
C569 N232 1.780 . S
C583 C200 1.797 . S
C589 N255 1.739 . S
C603 C269 1.596 1_556 S
C609 N186 1.544 . S
C623 C223 1.579 . S
C629 N140 1.531 . S
C643 C246 1.647 1_556 S
C649 N163 1.584 . S
C663 C292 1.658 . S
C669 C361 1.664 . S
C683 N301 1.656 . S
C689 N370 1.659 . S
C703 N324 1.648 . S
C709 N393 1.645 . S
C723 C407 1.773 . S
C729 C338 1.777 . S
C743 N347 1.751 . S
C749 N278 1.747 . S
C763 C384 1.784 . S
C769 C315 1.787 . S
C783 C7 1.565 . S
C789 N173 1.542 . S
C803 N35 1.548 . S
C809 N196 1.542 . S
C823 N150 1.540 . S
C829 N58 1.533 . S
C843 C53 1.657 . S
C849 N311 1.625 . S
C863 N334 1.610 . S
C869 N12 1.629 . S
C883 C283 1.602 . S
C889 C30 1.617 . S
C903 C375 1.605 . S
C909 C76 1.609 . S
C923 N104 1.617 . S
C929 C398 1.634 . S
C943 N357 1.623 . S
C949 N127 1.616 . S
C963 N242 1.633 . S
C969 C122 1.648 . S
C983 N81 1.614 . S
C989 N265 1.601 1_556 S
C1003 C99 1.668 . S
C1009 N219 1.632 . S
C1023 C145 1.698 . S
C1029 C306 1.710 . S
C1043 C168 1.696 . S
C1049 C329 1.691 . S
C1063 C191 1.703 . S
C1069 N288 1.691 . S
C1083 N380 1.568 1_455 S
C1089 C260 1.622 . S
C1103 N403 1.597 . S
C1109 C214 1.620 . S
C1123 C237 1.590 . S
C1129 C352 1.594 . S
