# Generated by pormake.
# Topology uki, (4)-cn, num edge types: 1
# Building blocks:
#     Node 0, Type 0, BuildingBlock: ESEHIV_clean_sbu_0, # of connection points: 4
#     Node 1, Type 0, BuildingBlock: ESEHIV_clean_sbu_0, # of connection points: 4
#     Node 2, Type 0, BuildingBlock: ESEHIV_clean_sbu_0, # of connection points: 4
#     Node 3, Type 0, BuildingBlock: ESEHIV_clean_sbu_0, # of connection points: 4
#     Node 4, Type 0, BuildingBlock: ESEHIV_clean_sbu_0, # of connection points: 4
#     Node 5, Type 0, BuildingBlock: ESEHIV_clean_sbu_0, # of connection points: 4
#     Node 6, Type 0, BuildingBlock: ESEHIV_clean_sbu_0, # of connection points: 4
#     Node 7, Type 0, BuildingBlock: ESEHIV_clean_sbu_0, # of connection points: 4
#     Node 8, Type 0, BuildingBlock: ESEHIV_clean_sbu_0, # of connection points: 4
#     Node 9, Type 0, BuildingBlock: ESEHIV_clean_sbu_0, # of connection points: 4
#     Node 10, Type 0, BuildingBlock: ESEHIV_clean_sbu_0, # of connection points: 4
#     Node 11, Type 0, BuildingBlock: ESEHIV_clean_sbu_0, # of connection points: 4
#     Node 12, Type 0, BuildingBlock: ESEHIV_clean_sbu_0, # of connection points: 4
#     Node 13, Type 0, BuildingBlock: ESEHIV_clean_sbu_0, # of connection points: 4
#     Node 14, Type 0, BuildingBlock: ESEHIV_clean_sbu_0, # of connection points: 4
#     Node 15, Type 0, BuildingBlock: ESEHIV_clean_sbu_0, # of connection points: 4
#     Edge 16, Type (0, 0), BuildingBlock: XIVTED_clean_linker_0, # of connection points: 2
#     Edge 17, Type (0, 0), BuildingBlock: XIVTED_clean_linker_0, # of connection points: 2
#     Edge 18, Type (0, 0), BuildingBlock: XIVTED_clean_linker_0, # of connection points: 2
#     Edge 19, Type (0, 0), BuildingBlock: XIVTED_clean_linker_0, # of connection points: 2
#     Edge 20, Type (0, 0), BuildingBlock: XIVTED_clean_linker_0, # of connection points: 2
#     Edge 21, Type (0, 0), BuildingBlock: XIVTED_clean_linker_0, # of connection points: 2
#     Edge 22, Type (0, 0), BuildingBlock: XIVTED_clean_linker_0, # of connection points: 2
#     Edge 23, Type (0, 0), BuildingBlock: XIVTED_clean_linker_0, # of connection points: 2
#     Edge 24, Type (0, 0), BuildingBlock: XIVTED_clean_linker_0, # of connection points: 2
#     Edge 25, Type (0, 0), BuildingBlock: XIVTED_clean_linker_0, # of connection points: 2
#     Edge 26, Type (0, 0), BuildingBlock: XIVTED_clean_linker_0, # of connection points: 2
#     Edge 27, Type (0, 0), BuildingBlock: XIVTED_clean_linker_0, # of connection points: 2
#     Edge 28, Type (0, 0), BuildingBlock: XIVTED_clean_linker_0, # of connection points: 2
#     Edge 29, Type (0, 0), BuildingBlock: XIVTED_clean_linker_0, # of connection points: 2
#     Edge 30, Type (0, 0), BuildingBlock: XIVTED_clean_linker_0, # of connection points: 2
#     Edge 31, Type (0, 0), BuildingBlock: XIVTED_clean_linker_0, # of connection points: 2
#     Edge 32, Type (0, 0), BuildingBlock: XIVTED_clean_linker_0, # of connection points: 2
#     Edge 33, Type (0, 0), BuildingBlock: XIVTED_clean_linker_0, # of connection points: 2
#     Edge 34, Type (0, 0), BuildingBlock: XIVTED_clean_linker_0, # of connection points: 2
#     Edge 35, Type (0, 0), BuildingBlock: XIVTED_clean_linker_0, # of connection points: 2
#     Edge 36, Type (0, 0), BuildingBlock: XIVTED_clean_linker_0, # of connection points: 2
#     Edge 37, Type (0, 0), BuildingBlock: XIVTED_clean_linker_0, # of connection points: 2
#     Edge 38, Type (0, 0), BuildingBlock: XIVTED_clean_linker_0, # of connection points: 2
#     Edge 39, Type (0, 0), BuildingBlock: XIVTED_clean_linker_0, # of connection points: 2
#     Edge 40, Type (0, 0), BuildingBlock: XIVTED_clean_linker_0, # of connection points: 2
#     Edge 41, Type (0, 0), BuildingBlock: XIVTED_clean_linker_0, # of connection points: 2
#     Edge 42, Type (0, 0), BuildingBlock: XIVTED_clean_linker_0, # of connection points: 2
#     Edge 43, Type (0, 0), BuildingBlock: XIVTED_clean_linker_0, # of connection points: 2
#     Edge 44, Type (0, 0), BuildingBlock: XIVTED_clean_linker_0, # of connection points: 2
#     Edge 45, Type (0, 0), BuildingBlock: XIVTED_clean_linker_0, # of connection points: 2
#     Edge 46, Type (0, 0), BuildingBlock: XIVTED_clean_linker_0, # of connection points: 2
#     Edge 47, Type (0, 0), BuildingBlock: XIVTED_clean_linker_0, # of connection points: 2
# Relax obj value: 0.104
# Max RMSD: 0.190
# Mean RMSD: 0.171
data_MOF--net-uki--node1-ESEHIV_clean_sbu_0--edge1-XIVTED_clean_linker_0
_symmetry_space_group_name_H-M    P1
_symmetry_Int_Tables_number       1
_symmetry_cell_setting            triclinic
loop_
_symmetry_equiv_pos_as_xyz
'x, y, z'
_cell_length_a     35.907682
_cell_length_b     28.960851
_cell_length_c     85.563068
_cell_angle_alpha  90.524028
_cell_angle_beta   90.029847
_cell_angle_gamma 90.227749
loop_
_atom_site_label
_atom_site_type_symbol
_atom_site_fract_x
_atom_site_fract_y
_atom_site_fract_z
_atom_type_partial_charge
Cu0 Cu 0.09817 0.27331 0.30793 0.0
N1 N 0.0541 0.30476 0.30309 0.0
N2 N 1.01243 0.34365 0.289 0.0
C3 C 0.04891 0.33601 0.29168 0.0
C4 C 0.99396 0.31693 0.29925 0.0
C5 C 0.01972 0.29335 0.30803 0.0
O6 O 0.1358 0.2914 0.29258 0.0
C7 C 0.06225 0.18683 0.30032 0.0
O8 O 0.04743 0.2097 0.2887 0.0
H9 H 0.07114 0.35008 0.28463 0.0
H10 H 1.0138 0.26705 0.31658 0.0
N11 N 0.11528 0.29214 0.32773 0.0
N12 N 0.15169 0.30166 0.34888 0.0
C13 C 0.14875 0.28351 0.33426 0.0
C14 C 0.09634 0.31648 0.33854 0.0
C15 C 0.11862 0.32242 0.35155 0.0
C16 C 0.13018 0.29039 0.27787 0.0
O17 O 0.10016 0.2697 0.27245 0.0
H18 H 0.1705 0.26452 0.32831 0.0
H19 H 0.06813 0.32871 0.33711 0.0
O20 O 0.08645 0.20692 0.30899 0.0
H21 H 0.964 0.31286 0.29975 0.0
H22 H 0.11063 0.33996 0.36224 0.0
Cu23 Cu 0.23548 0.99528 0.70188 0.0
N24 N 0.20147 1.03222 0.69106 0.0
N25 N 0.14517 0.05645 0.68348 0.0
C26 C 0.16476 1.02264 0.69043 0.0
C27 C 0.17076 0.08853 0.67945 0.0
C28 C 0.20556 0.07337 0.68407 0.0
O29 O 0.23082 0.9331 0.69282 0.0
C30 C 0.21708 0.04281 0.72961 0.0
O31 O 0.19822 0.0693 0.72013 0.0
H32 H 0.15247 0.99245 0.69576 0.0
H33 H 0.23166 0.09176 0.68293 0.0
N34 N 0.28564 1.01115 0.70023 0.0
N35 N 0.34046 1.00123 0.71235 0.0
C36 C 0.31043 0.98063 0.70577 0.0
C37 C 0.30108 0.05292 0.70293 0.0
C38 C 0.3351 0.04686 0.71025 0.0
C39 C 0.2374 0.93196 0.67813 0.0
O40 O 0.24624 0.97083 0.67122 0.0
H41 H 0.30363 0.94446 0.70719 0.0
H42 H 0.2863 0.08525 0.70206 0.0
O43 O 0.22886 1.00389 0.72449 0.0
H44 H 0.16475 0.12099 0.67383 0.0
H45 H 0.3518 0.07395 0.71557 0.0
Cu46 Cu 0.92118 0.79403 0.33011 0.0
N47 N 0.96961 0.7706 0.3295 0.0
N48 N 0.02418 0.74894 0.3193 0.0
C49 C 0.98914 0.7631 0.31631 0.0
C50 C 0.02683 0.7475 0.33501 0.0
C51 C 0.99321 0.76127 0.34129 0.0
O52 O 0.89417 0.7583 0.31415 0.0
C53 C 0.94892 0.88353 0.33392 0.0
O54 O 0.96204 0.86436 0.34664 0.0
H55 H 0.97791 0.76855 0.30473 0.0
H56 H 0.98696 0.76567 0.35356 0.0
N57 N 0.90002 0.784 0.34998 0.0
N58 N 0.86441 0.78722 0.37151 0.0
C59 C 0.87246 0.80677 0.35756 0.0
C60 C 0.90901 0.74869 0.35936 0.0
C61 C 0.88749 0.7508 0.37262 0.0
C62 C 0.86041 0.74479 0.31506 0.0
O63 O 0.83967 0.75914 0.32676 0.0
H64 H 0.85835 0.83659 0.35289 0.0
H65 H 0.92914 0.72226 0.35653 0.0
O66 O 0.92713 0.85975 0.32519 0.0
H67 H 0.05171 0.73896 0.34151 0.0
H68 H 0.88775 0.72626 0.38209 0.0
Cu69 Cu 0.78048 0.12355 0.71383 0.0
N70 N 0.81323 0.09334 0.70015 0.0
N71 N 0.86821 0.07454 0.68957 0.0
C72 C 0.85018 0.10144 0.70005 0.0
C73 C 0.84139 0.04838 0.68276 0.0
C74 C 0.80739 0.06031 0.68925 0.0
O75 O 0.79301 0.18886 0.71131 0.0
C76 C 0.78762 0.05349 0.73565 0.0
O77 O 0.79614 1.03007 0.72295 0.0
H78 H 0.86366 0.12592 0.70786 0.0
H79 H 0.7805 0.0455 0.6864 0.0
N80 N 0.72995 0.11503 0.70931 0.0
N81 N 0.66984 0.11872 0.71616 0.0
C82 C 0.70498 0.11084 0.72093 0.0
C83 C 0.70988 0.12517 0.6965 0.0
C84 C 0.67266 0.12767 0.70074 0.0
C85 C 0.76923 0.22085 0.70923 0.0
O86 O 0.73428 0.21351 0.71299 0.0
H87 H 0.7129 0.1075 0.73306 0.0
H88 H 0.72167 0.13459 0.68534 0.0
O89 O 0.78488 0.09737 0.73478 0.0
H90 H 0.84597 1.0226 0.67374 0.0
H91 H 0.64992 0.13834 0.69331 0.0
Cu92 Cu 0.10577 0.28586 0.98041 0.0
N93 N 0.06054 0.25565 0.98422 0.0
N94 N 1.0151 0.21848 0.99691 0.0
C95 C 0.05137 0.23118 0.99701 0.0
C96 C 1.00112 0.23541 0.98348 0.0
C97 C 0.02915 0.25836 0.97572 0.0
O98 O 0.14183 0.25801 0.99442 0.0
C99 C 0.07262 0.36878 0.99211 0.0
O100 O 0.05551 0.34067 1.00172 0.0
H101 H 0.0704 0.22496 1.00656 0.0
H102 H 0.02657 0.27702 0.96488 0.0
N103 N 0.12142 0.27316 0.95982 0.0
N104 N 0.15541 0.27 0.93776 0.0
C105 C 0.15217 0.28855 0.95233 0.0
C106 C 0.10484 0.24379 0.94971 0.0
C107 C 0.12552 0.24184 0.93618 0.0
C108 C 0.14752 0.26731 1.00879 0.0
O109 O 0.13113 0.30308 1.0153 0.0
H110 H 0.17179 0.31261 0.95753 0.0
H111 H 0.07987 0.22418 0.95214 0.0
O112 O 0.09738 0.35252 0.98288 0.0
H113 H 0.9725 0.23223 0.97964 0.0
H114 H 0.11945 0.22008 0.92615 0.0
Cu115 Cu 0.29678 0.92417 0.07002 0.0
N116 N 0.34671 0.9372 0.06556 0.0
N117 N 0.40744 0.95387 0.06746 0.0
C118 C 0.3762 0.94165 0.07527 0.0
C119 C 0.39711 0.95688 0.05233 0.0
C120 C 0.35979 0.94659 0.05121 0.0
O121 O 0.29137 0.89195 0.08986 0.0
C122 C 0.28004 1.02167 0.06894 0.0
O123 O 0.31504 1.02917 0.07267 0.0
H124 H 0.37455 0.93729 0.0878 0.0
H125 H 0.34309 0.94652 0.04069 0.0
N126 N 0.2774 0.88666 0.05411 0.0
N127 N 0.23776 0.86166 0.03568 0.0
C128 C 0.24325 0.89104 0.04783 0.0
C129 C 0.29428 0.85332 0.04571 0.0
C130 C 0.26987 0.83781 0.03431 0.0
C131 C 0.31029 0.85551 0.09222 0.0
O132 O 0.33405 0.8419 0.08146 0.0
H133 H 0.22329 0.91647 0.05179 0.0
H134 H 0.32256 0.84182 0.04753 0.0
O135 O 0.2674 0.9805 0.06872 0.0
H136 H 0.41527 0.96583 0.04272 0.0
H137 H 0.27541 0.81111 0.0257 0.0
Cu138 Cu 0.91084 0.75537 0.97009 0.0
N139 N 0.95311 0.79064 0.96578 0.0
N140 N 1.00935 0.82082 0.97068 0.0
C141 C 0.9784 0.80167 0.9768 0.0
C142 C 1.0032 0.8221 0.95511 0.0
C143 C 0.96829 0.80354 0.95212 0.0
O144 O 0.88282 0.79255 0.98532 0.0
C145 C 0.95687 0.67816 0.97086 0.0
O146 O 0.96821 0.69791 0.95794 0.0
H147 H 0.97505 0.79292 0.98899 0.0
H148 H 0.95576 0.79768 0.94077 0.0
N149 N 0.88326 0.7414 0.95186 0.0
N150 N 0.8443 0.74253 0.93131 0.0
C151 C 0.86002 0.76739 0.94314 0.0
C152 C 0.88198 0.69903 0.94531 0.0
C153 C 0.85828 0.6996 0.93273 0.0
C154 C 0.84777 0.79928 0.98557 0.0
O155 O 0.82629 0.7761 0.97583 0.0
H156 H 0.85443 0.80345 0.94554 0.0
H157 H 0.89654 0.66918 0.94965 0.0
O158 O 0.93031 0.69704 0.97853 0.0
H159 H 0.02286 0.83431 0.94649 0.0
H160 H 0.85084 0.67001 0.92555 0.0
Cu161 Cu 0.76391 0.06951 0.09001 0.0
N162 N 0.72848 1.02956 0.09867 0.0
N163 N 0.67051 1.00185 0.10147 0.0
C164 C 0.69186 0.03928 0.0985 0.0
C165 C 0.69495 0.96753 0.10427 0.0
C166 C 0.73071 0.98469 0.10248 0.0
O167 O 0.75727 0.13046 0.09988 0.0
C168 C 0.74164 0.0349 0.05985 0.0
O169 O 0.71185 1.01831 0.06669 0.0
H170 H 0.68122 0.07237 0.09485 0.0
H171 H 0.75616 0.96491 0.10269 0.0
N172 N 0.81355 0.05345 0.0929 0.0
N173 N 0.86879 0.06615 0.0814 0.0
C174 C 0.8389 0.08515 0.08852 0.0
C175 C 0.82877 1.01244 0.08908 0.0
C176 C 0.86298 1.02017 0.08215 0.0
C177 C 0.76268 0.13118 0.11465 0.0
O178 O 0.77158 0.0923 0.12149 0.0
H179 H 0.83233 0.12155 0.08806 0.0
H180 H 0.81359 0.98015 0.08867 0.0
O181 O 0.76164 0.06473 0.0671 0.0
H182 H 0.6876 0.9317 0.10608 0.0
H183 H 0.87929 0.99445 0.07598 0.0
Cu184 Cu 0.57999 0.79457 0.81599 0.0
N185 N 0.53596 0.82736 0.8117 0.0
N186 N 0.49155 0.86382 0.79817 0.0
C187 C 0.52642 0.84629 0.79789 0.0
C188 C 0.47883 0.8558 0.81274 0.0
C189 C 0.50611 0.83339 0.821 0.0
O190 O 0.61883 0.82177 0.80294 0.0
C191 C 0.54275 0.70984 0.81921 0.0
O192 O 0.52474 0.73474 0.82961 0.0
H193 H 0.54411 0.84547 0.78765 0.0
H194 H 0.50365 0.82102 0.83283 0.0
N195 N 0.59592 0.80283 0.83684 0.0
N196 N 0.63371 0.80375 0.85782 0.0
C197 C 0.62852 0.78835 0.84295 0.0
C198 C 0.58004 0.82842 0.8482 0.0
C199 C 0.603 0.8288 0.86111 0.0
C200 C 0.62502 0.86469 0.80538 0.0
O201 O 0.60536 0.88612 0.81615 0.0
H202 H 0.6486 0.76845 0.83634 0.0
H203 H 0.55424 0.84707 0.84709 0.0
O204 O 0.56981 0.72852 0.81186 0.0
H205 H 0.45148 0.86485 0.81706 0.0
H206 H 0.59747 0.84672 0.872 0.0
Cu207 Cu 0.77051 0.49031 0.20229 0.0
N208 N 0.73333 0.52837 0.19409 0.0
N209 N 0.67678 0.56022 0.19287 0.0
C210 C 0.69838 0.52826 0.19971 0.0
C211 C 0.69896 0.58103 0.18228 0.0
C212 C 0.73404 0.56142 0.18313 0.0
O213 O 0.76206 0.42746 0.1938 0.0
C214 C 0.766 0.5418 0.22969 0.0
O215 O 0.76137 0.57394 0.21916 0.0
H216 H 0.68926 0.50543 0.20891 0.0
H217 H 0.75842 0.57117 0.17649 0.0
N218 N 0.8195 0.50598 0.19701 0.0
N219 N 0.87981 0.49721 0.20306 0.0
C220 C 0.84572 0.50899 0.20825 0.0
C221 C 0.83805 0.49328 0.18399 0.0
C222 C 0.87521 0.4876 0.18772 0.0
C223 C 0.75517 0.42495 0.17913 0.0
O224 O 0.75247 0.46357 0.1713 0.0
H225 H 0.83902 0.51154 0.22052 0.0
H226 H 0.82497 0.48221 0.17321 0.0
O227 O 0.76919 0.49971 0.22517 0.0
H228 H 0.69084 0.60939 0.17489 0.0
H229 H 0.89613 0.47211 0.18025 0.0
Cu230 Cu 0.41134 0.29955 0.81753 0.0
N231 N 0.45278 0.26223 0.81315 0.0
N232 N 0.49526 0.22293 0.79923 0.0
C233 C 0.46637 0.25276 0.79878 0.0
C234 C 0.49986 0.2134 0.81455 0.0
C235 C 0.47363 0.23749 0.82306 0.0
O236 O 0.37074 0.27204 0.80522 0.0
C237 C 0.45745 0.37866 0.81393 0.0
O238 O 0.48318 0.34944 0.81835 0.0
H239 H 0.4546 0.26678 0.7882 0.0
H240 H 0.46978 0.2365 0.83558 0.0
N241 N 0.39872 0.29768 0.83886 0.0
N242 N 0.36581 0.2968 0.86122 0.0
C243 C 0.3646 0.29346 0.84539 0.0
C244 C 0.42224 0.30409 0.85092 0.0
C245 C 0.40222 0.3033 0.86464 0.0
C246 C 0.36547 0.22879 0.80714 0.0
O247 O 0.38532 0.20756 0.81777 0.0
H248 H 0.33936 0.28933 0.8386 0.0
H249 H 0.45191 0.30974 0.84978 0.0
O250 O 0.42389 0.36421 0.81241 0.0
H251 H 0.5208 0.19082 0.81935 0.0
H252 H 0.41385 0.30729 0.87624 0.0
Cu253 Cu 0.30074 0.62396 0.21624 0.0
N254 N 0.35055 0.6275 0.22235 0.0
N255 N 0.41275 0.62361 0.22236 0.0
C256 C 0.38124 0.61766 0.21389 0.0
C257 C 0.40125 0.63792 0.23663 0.0
C258 C 0.36297 0.64029 0.23657 0.0
O259 O 0.29796 0.64166 0.19425 0.0
C260 C 0.24996 0.54705 0.21813 0.0
O261 O 0.22724 0.57256 0.20986 0.0
H262 H 0.38037 0.60555 0.20189 0.0
H263 H 0.34532 0.65053 0.24623 0.0
N264 N 0.2743 0.66693 0.2282 0.0
N265 N 0.23263 0.69891 0.24431 0.0
C266 C 0.24634 0.65911 0.23834 0.0
C267 C 0.27869 0.71306 0.22786 0.0
C268 C 0.25292 0.73291 0.23774 0.0
C269 C 0.2709 0.66492 0.18878 0.0
O270 O 0.24142 0.67193 0.19756 0.0
H271 H 0.23565 0.62507 0.24098 0.0
H272 H 0.29889 0.73093 0.22073 0.0
O273 O 0.28253 0.56215 0.22119 0.0
H274 H 0.41918 0.64645 0.24641 0.0
H275 H 0.24946 0.7695 0.23994 0.0
Cu276 Cu 0.60016 0.80984 0.48914 0.0
N277 N 0.55891 0.77159 0.4929 0.0
N278 N 0.52016 0.72393 0.50551 0.0
C279 C 0.55322 0.74637 0.50588 0.0
C280 C 0.50439 0.7357 0.49179 0.0
C281 C 0.52817 0.76529 0.48412 0.0
O282 O 0.63607 0.79265 0.50527 0.0
C283 C 0.56223 0.88999 0.48027 0.0
O284 O 0.55498 0.8637 0.46805 0.0
H285 H 0.57289 0.74475 0.51544 0.0
H286 H 0.52295 0.78176 0.47305 0.0
N287 N 0.61948 0.79915 0.46888 0.0
N288 N 0.65583 0.80007 0.44753 0.0
C289 C 0.65191 0.8141 0.4626 0.0
C290 C 0.60273 0.77464 0.4574 0.0
C291 C 0.62486 0.77531 0.44429 0.0
C292 C 0.65811 0.75884 0.50298 0.0
O293 O 0.65976 0.73972 0.48902 0.0
H294 H 0.67209 0.83493 0.46892 0.0
H295 H 0.57633 0.75703 0.45847 0.0
O296 O 0.583 0.87398 0.49104 0.0
H297 H 0.47706 0.72494 0.48781 0.0
H298 H 0.61899 0.7579 0.43331 0.0
Cu299 Cu 0.79245 0.45202 0.58621 0.0
N300 N 0.841 0.4417 0.57914 0.0
N301 N 0.90318 0.44046 0.57772 0.0
C302 C 0.87324 0.45411 0.58612 0.0
C303 C 0.88909 0.41891 0.56495 0.0
C304 C 0.8508 0.41968 0.56588 0.0
O305 O 0.78962 0.43977 0.60873 0.0
C306 C 0.74672 0.5317 0.58113 0.0
O307 O 0.72062 0.50865 0.58851 0.0
H308 H 0.87464 0.47288 0.59711 0.0
H309 H 0.83139 0.40499 0.55752 0.0
N310 N 0.76034 0.41076 0.57595 0.0
N311 N 0.71698 0.38137 0.55987 0.0
C312 C 0.7375 0.41902 0.56377 0.0
C313 C 0.75432 0.36644 0.57978 0.0
C314 C 0.72763 0.34824 0.56992 0.0
C315 C 0.80876 0.40642 0.61413 0.0
O316 O 0.83011 0.38279 0.60454 0.0
H317 H 0.73529 0.45225 0.55817 0.0
H318 H 0.76809 0.34869 0.5892 0.0
O319 O 0.77918 0.51445 0.58001 0.0
H320 H 0.90527 0.40301 0.5557 0.0
H321 H 0.71698 0.31324 0.57013 0.0
Cu322 Cu 0.42201 0.28496 0.46466 0.0
N323 N 0.46964 0.31144 0.46624 0.0
N324 N 0.52194 0.33656 0.47787 0.0
C325 C 0.48635 0.32261 0.47986 0.0
C326 C 0.5276 0.33527 0.46228 0.0
C327 C 0.4953 0.31976 0.45514 0.0
O328 O 0.39073 0.32307 0.47822 0.0
C329 C 0.4439 0.20532 0.48265 0.0
O330 O 0.45369 0.23493 0.49362 0.0
H331 H 0.47269 0.31987 0.49108 0.0
H332 H 0.49136 0.3138 0.44277 0.0
N333 N 0.40498 0.28522 0.44386 0.0
N334 N 0.36825 0.28459 0.42259 0.0
C335 C 0.37091 0.29519 0.43803 0.0
C336 C 0.42425 0.26779 0.43171 0.0
C337 C 0.40197 0.26767 0.41864 0.0
C338 C 0.35641 0.31844 0.48157 0.0
O339 O 0.3378 0.28262 0.47612 0.0
H340 H 0.34808 0.30777 0.4451 0.0
H341 H 0.45216 0.25412 0.43246 0.0
O342 O 0.42725 0.21989 0.47049 0.0
H343 H 0.55366 0.34295 0.45649 0.0
H344 H 0.40992 0.25516 0.40717 0.0
Cu345 Cu 0.26018 0.57407 0.59071 0.0
N346 N 0.22579 0.53418 0.6001 0.0
N347 N 0.17034 0.49989 0.60288 0.0
C348 C 0.1904 0.53156 0.59506 0.0
C349 C 0.194 0.48204 0.61349 0.0
C350 C 0.22845 0.50312 0.61167 0.0
O351 O 0.25057 0.63615 0.59935 0.0
C352 C 0.25379 0.52076 0.56414 0.0
O353 O 0.25445 0.48957 0.57517 0.0
H354 H 0.17968 0.55249 0.58567 0.0
H355 H 0.2536 0.49601 0.61817 0.0
N356 N 0.31068 0.56151 0.59403 0.0
N357 N 0.37021 0.56892 0.5865 0.0
C358 C 0.33463 0.56256 0.58194 0.0
C359 C 0.33201 0.56682 0.60688 0.0
C360 C 0.36882 0.57142 0.60225 0.0
C361 C 0.24815 0.63803 0.61426 0.0
O362 O 0.25172 0.59956 0.62211 0.0
H363 H 0.32562 0.56479 0.56993 0.0
H364 H 0.32144 0.57171 0.6186 0.0
O365 O 0.25449 0.56354 0.56806 0.0
H366 H 0.18719 0.45492 0.62164 0.0
H367 H 0.39218 0.57952 0.6098 0.0
H368 H 0.11533 0.31395 0.24755 0.0
H369 H 0.28296 0.49652 0.24132 0.0
H370 H 0.19534 0.33714 0.28448 0.0
H371 H 0.1856 0.49886 0.21175 0.0
H372 H 0.25728 0.42923 0.25475 0.0
H373 H 0.14715 0.37209 0.23185 0.0
C374 C 0.13994 0.33068 0.25229 0.0
C375 C 0.15252 0.32063 0.26744 0.0
C376 C 0.24168 0.44428 0.24525 0.0
C377 C 0.18906 0.38768 0.24945 0.0
C378 C 0.25639 0.48262 0.23751 0.0
C379 C 0.23636 0.50364 0.2254 0.0
C380 C 0.20682 0.42637 0.24077 0.0
C381 C 0.20197 0.48404 0.22106 0.0
C382 C 0.15796 0.36416 0.24333 0.0
C383 C 0.18453 0.34378 0.27291 0.0
N384 N 0.18831 0.44663 0.22874 0.0
N385 N 0.20158 0.3763 0.26396 0.0
H386 H 0.41725 0.8578 0.7933 0.0
H387 H 0.41264 1.02337 0.71895 0.0
H388 H 0.5181 0.91419 0.77375 0.0
H389 H 0.32275 0.93335 0.7327 0.0
H390 H 0.45167 0.98965 0.73966 0.0
H391 H 0.38184 0.89145 0.77203 0.0
C392 C 0.43196 0.87756 0.78457 0.0
C393 C 0.47072 0.88333 0.78539 0.0
C394 C 0.4235 0.97709 0.73798 0.0
C395 C 0.43013 0.92205 0.76074 0.0
C396 C 0.40128 0.99634 0.72621 0.0
C397 C 0.3646 0.98067 0.72388 0.0
C398 C 0.40859 0.94258 0.74765 0.0
C399 C 0.35108 0.9458 0.73371 0.0
C400 C 0.41172 0.89654 0.77232 0.0
C401 C 0.48829 0.90867 0.77351 0.0
N402 N 0.37293 0.92824 0.74514 0.0
N403 N 0.46784 0.92738 0.76171 0.0
H404 H 0.72459 0.59993 0.24735 0.0
H405 H 0.89931 0.68797 0.2951 0.0
H406 H 0.82726 0.52357 0.24784 0.0
H407 H 0.78735 0.72217 0.30921 0.0
H408 H 0.87401 0.62992 0.27692 0.0
H409 H 0.74636 0.64534 0.26986 0.0
C410 C 0.75125 0.59172 0.25256 0.0
C411 C 0.77396 0.55759 0.24584 0.0
C412 C 0.85502 0.64995 0.28406 0.0
C413 C 0.79997 0.61113 0.27108 0.0
C414 C 0.8694 0.68345 0.29434 0.0
C415 C 0.84542 0.71033 0.30364 0.0
C416 C 0.8163 0.64374 0.28283 0.0
C417 C 0.80691 0.70244 0.30225 0.0
C418 C 0.76383 0.61796 0.2653 0.0
C419 C 0.80867 0.54912 0.25278 0.0
N420 N 0.79356 0.67028 0.29194 0.0
N421 N 0.82097 0.57638 0.26482 0.0
H422 H 0.50213 0.25929 0.77003 0.0
H423 H 0.65475 0.07454 0.74313 0.0
H424 H 0.53741 0.14484 0.79835 0.0
H425 H 0.61466 0.18238 0.71317 0.0
H426 H 0.60864 0.09679 0.76276 0.0
H427 H 0.53991 0.22928 0.74851 0.0
C428 C 0.51749 0.22769 0.77175 0.0
C429 C 0.5166 0.20488 0.78619 0.0
C430 C 0.60954 0.11533 0.75183 0.0
C431 C 0.5604 0.17046 0.76149 0.0
C432 C 0.63586 0.10256 0.74061 0.0
C433 C 0.63872 0.12676 0.72651 0.0
C434 C 0.58593 0.15296 0.74905 0.0
C435 C 0.61331 0.16258 0.72381 0.0
C436 C 0.53922 0.21063 0.75942 0.0
C437 C 0.5376 0.16425 0.78762 0.0
N438 N 0.58828 0.17495 0.73505 0.0
N439 N 0.55867 0.14856 0.7755 0.0
H440 H 0.21695 1.01363 0.05122 0.0
H441 H 0.18235 0.28142 0.0372 0.0
H442 H 0.29176 0.11564 0.07096 0.0
H443 H 0.15853 0.17597 1.00262 0.0
H444 H 0.21347 0.22281 0.0533 0.0
H445 H 0.1845 0.07485 0.03736 0.0
C446 C 0.22624 0.04898 0.05286 0.0
C447 C 0.25731 0.05942 0.06225 0.0
C448 C 0.20147 0.2128 0.04215 0.0
C449 C 0.22006 0.12976 0.04635 0.0
C450 C 0.18376 0.24609 0.03298 0.0
C451 C 0.16808 0.23366 1.01849 0.0
C452 C 0.2025 0.16665 0.03696 0.0
C453 C 0.17056 0.18731 1.01362 0.0
C454 C 0.20784 0.08385 0.04483 0.0
C455 C 0.26807 0.106 0.0638 0.0
N456 N 0.18708 0.15552 0.02288 0.0
N457 N 0.24945 0.13954 0.05593 0.0
H458 H 0.16677 0.88319 0.04378 0.0
H459 H 0.08075 0.81537 0.96013 0.0
H460 H 0.23319 0.83155 1.00546 0.0
H461 H 1.015 0.85099 1.0006 0.0
H462 H 0.13749 0.8277 0.97563 0.0
H463 H 0.11152 0.87749 0.02732 0.0
C464 C 0.16984 0.87089 0.03187 0.0
C465 C 0.20483 0.85784 0.02604 0.0
C466 C 0.11063 0.83301 0.98109 0.0
C467 C 0.14128 0.85087 1.00705 0.0
C468 C 0.07825 0.82635 0.97221 0.0
C469 C 0.04307 0.8319 0.97911 0.0
C470 C 0.10777 0.84563 0.99695 0.0
C471 C 0.04151 0.84567 0.99487 0.0
C472 C 0.13816 0.86742 0.02248 0.0
C473 C 0.20681 0.84148 1.01054 0.0
N474 N 0.07331 0.85195 1.00324 0.0
N475 N 0.17551 0.83851 1.00159 0.0
H476 H 0.77412 0.82111 0.9899 0.0
H477 H 0.81432 1.03142 0.04953 0.0
H478 H 0.88458 0.86165 1.0046 0.0
H479 H 0.70463 0.97709 0.03969 0.0
H480 H 0.84043 0.9761 0.03069 0.0
H481 H 0.74829 0.88307 1.00612 0.0
C482 C 0.79299 0.84289 0.99657 0.0
C483 C 0.83164 0.83577 0.99592 0.0
C484 C 0.8106 0.97668 0.03251 0.0
C485 C 0.8021 0.90752 1.01448 0.0
C486 C 0.79559 1.00867 0.04315 0.0
C487 C 0.75712 1.00899 0.04624 0.0
C488 C 0.78702 0.94487 0.02482 0.0
C489 C 0.73441 0.97811 0.03774 0.0
C490 C 0.77819 0.87845 1.00582 0.0
C491 C 0.85461 0.8655 1.0048 0.0
N492 N 0.74968 0.94725 0.02753 0.0
N493 N 0.83952 0.89999 1.01368 0.0
H494 H 0.93967 0.04374 0.07303 0.0
H495 H 0.94191 0.22832 1.00389 0.0
H496 H 0.85126 0.13986 0.06346 0.0
H497 H 0.04144 0.15743 1.01831 0.0
H498 H 0.90769 0.1911 0.02484 0.0
H499 H 0.97727 0.0805 0.05244 0.0
C500 C 0.92837 0.07278 0.06675 0.0
C501 C 0.8925 0.08914 0.07021 0.0
C502 C 0.93703 0.18358 0.02348 0.0
C503 C 0.93485 0.13075 0.04656 0.0
C504 C 0.95656 0.2046 1.01138 0.0
C505 C 0.99464 0.19592 1.00925 0.0
C506 C 0.95546 0.15322 0.03357 0.0
C507 C 1.01218 0.16539 1.01959 0.0
C508 C 0.94976 0.09372 0.05502 0.0
C509 C 0.87903 0.12667 0.0616 0.0
N510 N 0.99243 0.14497 0.03128 0.0
N511 N 0.90007 0.14589 0.0502 0.0
H512 H 0.67492 0.83299 0.78322 0.0
H513 H 0.745 0.08638 0.76015 0.0
H514 H 0.63893 0.95735 0.80683 0.0
H515 H 0.79232 0.96111 0.74119 0.0
H516 H 0.70838 0.03986 0.77838 0.0
H517 H 0.71958 0.87918 0.76823 0.0
C518 C 0.67643 0.8699 0.78528 0.0
C519 C 0.65298 0.89122 0.79627 0.0
C520 C 0.72719 1.02259 0.77038 0.0
C521 C 0.70401 0.94442 0.77916 0.0
C522 C 0.74837 0.04923 0.76004 0.0
C523 C 0.77163 1.0277 0.74902 0.0
C524 C 0.72918 0.97406 0.76965 0.0
C525 C 0.77454 0.97928 0.74938 0.0
C526 C 0.70202 0.89629 0.77677 0.0
C527 C 0.65633 0.93928 0.79848 0.0
N528 N 0.7533 0.95416 0.75936 0.0
N529 N 0.68112 0.96418 0.78996 0.0
H530 H 0.96144 0.30972 0.26882 0.0
H531 H 0.91194 0.54093 0.22763 0.0
H532 H 0.02833 0.43002 0.27898 0.0
H533 H 0.90988 0.41188 0.20226 0.0
H534 H 0.94971 0.50437 0.24812 0.0
H535 H 0.93528 0.34909 0.24606 0.0
C536 C 0.97037 0.3446 0.26626 0.0
C537 C 0.99676 0.36695 0.27577 0.0
C538 C 0.9417 0.48446 0.23788 0.0
C539 C 0.96692 0.4122 0.24992 0.0
C540 C 0.9204 0.50529 0.22621 0.0
C541 C 0.90835 0.47951 0.21318 0.0
C542 C 0.94979 0.43718 0.23671 0.0
C543 C 0.91921 0.43312 0.21197 0.0
C544 C 0.95577 0.36683 0.25324 0.0
C545 C 1.00793 0.41189 0.27188 0.0
N546 N 0.93869 0.41318 0.22374 0.0
N547 N 0.99252 0.43345 0.25935 0.0
H548 H 0.27376 1.01087 0.74852 0.0
H549 H 0.31182 0.25923 0.78652 0.0
H550 H 0.199 0.12588 0.74281 0.0
H551 H 0.3614 0.13494 0.80443 0.0
H552 H 0.2721 0.21145 0.76941 0.0
H553 H 0.30756 0.05544 0.76855 0.0
C554 C 0.2639 0.04499 0.7517 0.0
C555 C 0.23341 0.06454 0.74391 0.0
C556 C 0.29154 0.1947 0.77717 0.0
C557 C 0.2727 0.11629 0.76651 0.0
C558 C 0.31429 0.222 0.7869 0.0
C559 C 0.34 0.20119 0.79696 0.0
C560 C 0.29493 0.14626 0.77731 0.0
C561 C 0.34193 0.15263 0.79693 0.0
C562 C 0.28341 0.0706 0.76306 0.0
C563 C 0.22237 0.10931 0.74842 0.0
N564 N 0.32001 0.12693 0.7872 0.0
N565 N 0.24223 0.13379 0.75922 0.0
H566 H 0.03384 0.79052 0.29133 0.0
H567 H 0.21182 0.64063 0.26744 0.0
H568 H 0.08134 0.68836 0.32171 0.0
H569 H 0.1834 0.76945 0.24564 0.0
H570 H 0.1599 0.65134 0.28574 0.0
H571 H 0.08421 0.77688 0.27267 0.0
C572 C 0.05471 0.76493 0.29401 0.0
C573 C 0.05339 0.7405 0.30809 0.0
C574 C 0.16511 0.67725 0.27695 0.0
C575 C 0.11126 0.72481 0.28681 0.0
C576 C 0.19455 0.67102 0.26646 0.0
C577 C 0.20201 0.70431 0.25505 0.0
C578 C 0.14266 0.71671 0.27586 0.0
C579 C 0.17895 0.74326 0.25438 0.0
C580 C 0.08362 0.7574 0.28342 0.0
C581 C 0.08153 0.70821 0.31106 0.0
N582 N 0.15026 0.74829 0.26459 0.0
N583 N 0.10927 0.70115 0.30048 0.0
H584 H 0.68264 0.58333 0.58245 0.0
H585 H 0.72148 0.70751 0.50208 0.0
H586 H 0.78848 0.57491 0.55874 0.0
H587 H 0.63631 0.75543 0.53374 0.0
H588 H 0.7464 0.65877 0.52276 0.0
H589 H 0.66461 0.64616 0.565 0.0
C590 C 0.70227 0.59502 0.57372 0.0
C591 C 0.73708 0.57354 0.57204 0.0
C592 C 0.72261 0.68045 0.52529 0.0
C593 C 0.71637 0.64502 0.55188 0.0
C594 C 0.70839 0.70832 0.51349 0.0
C595 C 0.67682 0.73563 0.51619 0.0
C596 C 0.70463 0.67891 0.53986 0.0
C597 C 0.66089 0.73519 0.53119 0.0
C598 C 0.69197 0.63095 0.56378 0.0
C599 C 0.76136 0.59028 0.5605 0.0
N600 N 0.67458 0.70667 0.54239 0.0
N601 N 0.75035 0.62449 0.55075 0.0
H602 H 0.71182 0.42948 0.53274 0.0
H603 H 0.52255 0.30201 0.50726 0.0
H604 H 0.65684 0.32443 0.55982 0.0
H605 H 0.58406 0.39072 0.47621 0.0
H606 H 0.56939 0.31527 0.52736 0.0
H607 H 0.66345 0.42093 0.51262 0.0
C608 C 0.68954 0.40481 0.5345 0.0
C609 C 0.68857 0.37745 0.54797 0.0
C610 C 0.57269 0.332 0.51618 0.0
C611 C 0.63321 0.36743 0.52501 0.0
C612 C 0.54569 0.32475 0.50469 0.0
C613 C 0.54917 0.34546 0.48999 0.0
C614 C 0.60359 0.36033 0.51305 0.0
C615 C 0.58037 0.37379 0.48732 0.0
C616 C 0.66206 0.39977 0.52297 0.0
C617 C 0.65915 0.34573 0.54955 0.0
N618 N 0.60636 0.38045 0.49874 0.0
N619 N 0.63273 0.34169 0.53825 0.0
H620 H 0.21612 0.45187 0.54965 0.0
H621 H 0.38494 0.40108 0.49214 0.0
H622 H 0.30606 0.54829 0.54264 0.0
H623 H 0.28525 0.31749 0.49354 0.0
H624 H 0.35479 0.45812 0.50907 0.0
H625 H 0.2376 0.40684 0.52715 0.0
C626 C 0.23971 0.46439 0.543 0.0
C627 C 0.25918 0.504 0.54794 0.0
C628 C 0.33937 0.42752 0.50558 0.0
C629 C 0.28515 0.45137 0.52256 0.0
C630 C 0.35665 0.39469 0.49596 0.0
C631 C 0.33778 0.354 0.49149 0.0
C632 C 0.30295 0.41964 0.51094 0.0
C633 C 0.30103 0.34806 0.49674 0.0
C634 C 0.25225 0.43838 0.53025 0.0
C635 C 0.28999 0.51827 0.53911 0.0
N636 N 0.285 0.38024 0.50628 0.0
N637 N 0.30248 0.49145 0.52702 0.0
H638 H 0.47206 0.65251 0.5015 0.0
H639 H 0.42628 0.63064 0.59236 0.0
H640 H 0.53095 0.73033 0.53697 0.0
H641 H 0.38165 0.53956 0.55681 0.0
H642 H 0.46846 0.66377 0.57288 0.0
H643 H 0.44127 0.60818 0.52193 0.0
C644 C 0.47855 0.66023 0.5136 0.0
C645 C 0.50388 0.69549 0.51751 0.0
C646 C 0.4498 0.63606 0.5694 0.0
C647 C 0.46867 0.64469 0.54109 0.0
C648 C 0.42592 0.61684 0.58056 0.0
C649 C 0.40005 0.58257 0.57618 0.0
C650 C 0.44767 0.62103 0.55374 0.0
C651 C 0.40066 0.56645 0.56064 0.0
C652 C 0.46113 0.63469 0.52529 0.0
C653 C 0.51172 0.70338 0.53342 0.0
N654 N 0.42365 0.58614 0.54998 0.0
N655 N 0.49388 0.67855 0.54462 0.0
H656 H 0.30868 0.34246 0.42523 0.0
H657 H 0.209 0.23998 0.34821 0.0
H658 H 0.35332 0.23207 0.3968 0.0
H659 H 0.16663 0.35692 0.37421 0.0
H660 H 0.26118 0.2358 0.36638 0.0
H661 H 0.25513 0.34682 0.40744 0.0
C662 C 0.30722 0.31904 0.41532 0.0
C663 C 0.33589 0.28714 0.4125 0.0
C664 C 0.24046 0.26241 0.36812 0.0
C665 C 0.27467 0.29201 0.39201 0.0
C666 C 0.21062 0.265 0.35765 0.0
C667 C 0.18304 0.2989 0.35955 0.0
C668 C 0.24302 0.29388 0.38069 0.0
C669 C 0.18674 0.32981 0.37228 0.0
C670 C 0.27672 0.32169 0.40511 0.0
C671 C 0.33246 0.25786 0.39936 0.0
N672 N 0.21606 0.32655 0.38232 0.0
N673 N 0.30258 0.26102 0.38967 0.0
H674 H 0.23354 0.64754 0.64534 0.0
H675 H 0.24569 0.92327 0.64656 0.0
H676 H 0.25065 0.72851 0.60384 0.0
H677 H 0.22598 0.84188 0.68777 0.0
H678 H 0.24558 0.85298 0.63074 0.0
H679 H 0.22853 0.71824 0.66072 0.0
C680 C 0.23614 0.68025 0.63939 0.0
C681 C 0.24275 0.68188 0.62319 0.0
C682 C 0.24117 0.85036 0.64322 0.0
C683 C 0.23707 0.76366 0.64099 0.0
C684 C 0.24125 0.89059 0.65234 0.0
C685 C 0.23597 0.88867 0.66862 0.0
C686 C 0.23587 0.80744 0.65035 0.0
C687 C 0.23021 0.84514 0.6753 0.0
C688 C 0.23324 0.72074 0.64826 0.0
C689 C 0.24557 0.72548 0.61626 0.0
N690 N 0.23045 0.8063 0.66615 0.0
N691 N 0.24291 0.76462 0.62521 0.0
H692 H 0.72935 0.807 0.45499 0.0
H693 H 0.79534 0.82092 0.36533 0.0
H694 H 0.65322 0.80944 0.41605 0.0
H695 H 0.86729 0.77982 0.403 0.0
H696 H 0.74449 0.83159 0.38425 0.0
H697 H 0.78169 0.81163 0.43657 0.0
C698 C 0.72364 0.80917 0.44259 0.0
C699 C 0.68686 0.8074 0.43705 0.0
C700 C 0.77153 0.82063 0.38839 0.0
C701 C 0.74655 0.81265 0.41589 0.0
C702 C 0.80059 0.8149 0.3776 0.0
C703 C 0.83551 0.79912 0.38258 0.0
C704 C 0.77755 0.81107 0.40429 0.0
C705 C 0.84067 0.79142 0.39864 0.0
C706 C 0.7535 0.8115 0.43207 0.0
C707 C 0.68113 0.80997 0.42082 0.0
N708 N 0.81207 0.79733 0.40888 0.0
N709 N 0.71056 0.81236 0.41084 0.0
H710 H 0.83707 0.24188 0.69625 0.0
H711 H 0.75154 0.42131 0.63518 0.0
H712 H 0.72317 0.28876 0.6981 0.0
H713 H 0.85856 0.35552 0.63047 0.0
H714 H 0.74431 0.3852 0.66094 0.0
H715 H 0.84913 0.29617 0.67519 0.0
C716 C 0.81473 0.26418 0.69245 0.0
C717 C 0.7789 0.26019 0.69889 0.0
C718 C 0.76956 0.37921 0.65433 0.0
C719 C 0.79245 0.32225 0.67448 0.0
C720 C 0.77376 0.39999 0.63967 0.0
C721 C 0.80552 0.39103 0.63058 0.0
C722 C 0.79749 0.34969 0.65996 0.0
C723 C 0.83338 0.36296 0.63696 0.0
C724 C 0.82159 0.29506 0.68033 0.0
C725 C 0.75117 0.29028 0.69345 0.0
N726 N 0.82862 0.34316 0.65115 0.0
N727 N 0.75838 0.31957 0.68144 0.0
H728 H 0.15285 0.25299 0.90635 0.0
H729 H 0.3647 0.32817 0.89145 0.0
H730 H 0.22611 0.30249 0.94291 0.0
H731 H 0.29578 0.26181 0.85643 0.0
H732 H 0.31339 0.32321 0.90996 0.0
H733 H 0.20358 0.26045 0.88764 0.0
C734 C 0.17957 0.26526 0.91053 0.0
C735 C 0.18498 0.27666 0.92641 0.0
C736 C 0.30947 0.30972 0.89823 0.0
C737 C 0.24356 0.28593 0.90474 0.0
C738 C 0.33896 0.31228 0.88759 0.0
C739 C 0.33503 0.29507 0.87222 0.0
C740 C 0.27542 0.28996 0.89358 0.0
C741 C 0.30034 0.27586 0.86802 0.0
C742 C 0.20859 0.26971 0.89975 0.0
C743 C 0.22028 0.29345 0.93086 0.0
N744 N 0.27203 0.27379 0.87861 0.0
N745 N 0.24814 0.29744 0.92012 0.0
H746 H 0.22228 0.7262 0.17571 0.0
H747 H 0.35178 0.78219 0.102 0.0
H748 H 0.32849 0.66101 0.16756 0.0
H749 H 0.25612 0.86385 0.11486 0.0
H750 H 0.3414 0.73398 0.12487 0.0
H751 H 0.23146 0.77226 0.15224 0.0
C752 C 0.2474 0.72117 0.16892 0.0
C753 C 0.27468 0.68957 0.17368 0.0
C754 C 0.3227 0.76247 0.12272 0.0
C755 C 0.28545 0.74272 0.14674 0.0
C756 C 0.32859 0.7901 0.10964 0.0
C757 C 0.30481 0.82729 0.10647 0.0
C758 C 0.29258 0.77168 0.13272 0.0
C759 C 0.27526 0.83572 0.11685 0.0
C760 C 0.2527 0.74776 0.15554 0.0
C761 C 0.30669 0.68486 0.16437 0.0
N762 N 0.26992 0.80806 0.12946 0.0
N763 N 0.3112 0.71116 0.15138 0.0
H764 H 0.79313 0.81173 0.93415 0.0
H765 H 0.68715 0.73729 0.85519 0.0
H766 H 0.83137 0.70501 0.9026 0.0
H767 H 0.65428 0.85408 0.88365 0.0
H768 H 0.74037 0.72572 0.87242 0.0
H769 H 0.74278 0.82921 0.91574 0.0
C770 C 0.79125 0.7923 0.92332 0.0
C771 C 0.81643 0.75646 0.92006 0.0
C772 C 0.72154 0.75397 0.87488 0.0
C773 C 0.75848 0.77586 0.89898 0.0
C774 C 0.69107 0.76074 0.86496 0.0
C775 C 0.66574 0.79668 0.86787 0.0
C776 C 0.72693 0.78319 0.88791 0.0
C777 C 0.67244 0.82545 0.88096 0.0
C778 C 0.76232 0.80208 0.91283 0.0
C779 C 0.81228 0.73225 0.90583 0.0
N780 N 0.70221 0.818 0.89047 0.0
N781 N 0.78387 0.74218 0.89592 0.0
H782 H 0.77456 0.14073 0.14606 0.0
H783 H 0.73452 0.41243 0.14874 0.0
H784 H 0.74424 0.21979 0.10552 0.0
H785 H 0.77062 0.33585 0.189 0.0
H786 H 0.73488 0.34161 0.13326 0.0
H787 H 0.77065 0.21054 0.1621 0.0
C788 C 0.767 0.17277 0.14048 0.0
C789 C 0.75976 0.17416 0.12431 0.0
C790 C 0.74261 0.34006 0.14548 0.0
C791 C 0.75519 0.25482 0.14285 0.0
C792 C 0.74239 0.38063 0.15441 0.0
C793 C 0.75271 0.3804 0.17028 0.0
C794 C 0.75328 0.29839 0.15235 0.0
C795 C 0.76241 0.33783 0.17686 0.0
C796 C 0.76479 0.21273 0.14972 0.0
C797 C 0.75011 0.21691 0.11788 0.0
N798 N 0.7626 0.29861 0.16785 0.0
N799 N 0.74814 0.25544 0.12715 0.0
H800 H 0.99604 0.94043 0.35025 0.0
H801 H 1.01132 0.134 0.28409 0.0
H802 H 0.93595 0.93177 0.30663 0.0
H803 H 0.07789 0.13389 0.32609 0.0
H804 H 0.98274 0.06109 0.29208 0.0
H805 H 0.02429 1.01261 0.3418 0.0
C806 C 0.9885 0.95381 0.33891 0.0
C807 C 0.96343 0.92968 0.32916 0.0
C808 C 1.00371 0.07687 0.29952 0.0
C809 C 0.99626 1.01298 0.3193 0.0
C810 C 0.0202 0.11854 0.29494 0.0
C811 C 0.0472 0.14036 0.30441 0.0
C812 C 1.01403 0.0567 0.31374 0.0
C813 C 0.05735 0.11847 0.31836 0.0
C814 C 1.00487 0.99512 0.33406 0.0
C815 C 0.95498 0.94908 0.31458 0.0
N816 N 0.04069 0.07812 0.32261 0.0
N817 N 0.97138 0.98948 0.31009 0.0
H818 H 0.91746 0.14537 0.69259 0.0
H819 H 0.09619 0.98524 0.68057 0.0
H820 H 0.90996 1.00082 0.68045 0.0
H821 H 0.10226 0.13374 0.68378 0.0
H822 H 0.02816 0.98994 0.68062 0.0
H823 H 0.9851 0.14169 0.68959 0.0
C824 C 0.93005 0.11282 0.68929 0.0
C825 C 0.90794 0.07326 0.68687 0.0
C826 C 0.04434 1.02155 0.6812 0.0
C827 C 0.98564 0.06876 0.68339 0.0
C828 C 0.08322 1.01887 0.68125 0.0
C829 C 0.10507 0.05915 0.68226 0.0
C830 C 0.02697 0.06483 0.68234 0.0
C831 C 0.08664 0.10182 0.68288 0.0
C832 C 0.9687 0.1108 0.68749 0.0
C833 C 0.92583 1.0322 0.68235 0.0
N834 N 0.04873 0.10351 0.68306 0.0
N835 N 0.9636 1.03092 0.68089 0.0
H836 H 0.0974 0.43601 0.97207 0.0
H837 H 0.93768 0.61876 0.9949 0.0
H838 H 0.01702 0.41212 1.00862 0.0
H839 H 0.01782 0.63753 0.9579 0.0
H840 H 0.96806 0.54529 1.00142 0.0
H841 H 0.0708 0.5126 0.96814 0.0
C842 C 0.07441 0.44697 0.97938 0.0
C843 C 0.05944 0.4173 0.99066 0.0
C844 C 0.979 0.56569 0.99192 0.0
C845 C 0.02838 0.50523 0.9861 0.0
C846 C 0.96166 0.60764 0.9882 0.0
C847 C 0.97497 0.63438 0.97576 0.0
C848 C 1.00992 0.55049 0.98316 0.0
C849 C 1.00625 0.61814 0.96751 0.0
C850 C 0.05908 0.49076 0.9771 0.0
C851 C 0.02951 0.43364 0.99976 0.0
N852 N 0.02247 0.57746 0.97132 0.0
N853 N 1.01486 0.47627 0.99723 0.0
H854 H 0.45766 1.01527 0.05649 0.0
H855 H 0.62215 0.93894 0.11375 0.0
H856 H 0.4409 0.91472 0.09268 0.0
H857 H 0.62832 0.05314 0.08178 0.0
H858 H 0.55622 0.92845 0.10669 0.0
H859 H 0.52068 1.02862 0.06599 0.0
C860 C 0.46732 0.99587 0.06645 0.0
C861 C 0.44405 0.96352 0.0737 0.0
C862 C 0.57205 0.95605 0.10137 0.0
C863 C 0.51663 0.97877 0.0848 0.0
C864 C 0.60969 0.96196 0.10535 0.0
C865 C 0.63101 0.99711 0.09844 0.0
C866 C 0.55572 0.98521 0.09027 0.0
C867 C 0.61322 1.02608 0.08768 0.0
C868 C 0.50333 1.00371 0.07195 0.0
C869 C 0.4579 0.94007 0.08678 0.0
N870 N 0.57689 1.01927 0.0839 0.0
N871 N 0.49344 0.94786 0.09184 0.0
H872 H 0.41243 0.45582 0.81473 0.0
H873 H 0.58114 0.63747 0.80529 0.0
H874 H 0.52684 0.41439 0.8088 0.0
H875 H 0.47535 0.67172 0.82615 0.0
H876 H 0.55938 0.55717 0.80198 0.0
H877 H 0.43261 0.53703 0.81422 0.0
C878 C 0.44167 0.46373 0.81311 0.0
C879 C 0.46795 0.42812 0.81191 0.0
C880 C 0.54093 0.58243 0.80721 0.0
C881 C 0.4913 0.52103 0.81129 0.0
C882 C 0.55332 0.62827 0.80906 0.0
C883 C 0.53022 0.66142 0.81613 0.0
C884 C 0.50496 0.56982 0.81223 0.0
C885 C 0.49435 0.64737 0.82079 0.0
C886 C 0.45324 0.5101 0.81291 0.0
C887 C 0.50558 0.44062 0.8099 0.0
N888 N 0.48288 0.60288 0.81875 0.0
N889 N 0.51609 0.48585 0.80967 0.0
H890 H 0.6447 0.55217 0.22133 0.0
H891 H 0.44144 0.62752 0.19288 0.0
H892 H 0.62225 0.59405 0.17402 0.0
H893 H 0.47109 0.60038 0.24079 0.0
H894 H 0.50632 0.6134 0.18523 0.0
H895 H 0.58027 0.56797 0.22818 0.0
C896 C 0.62611 0.56444 0.21233 0.0
C897 C 0.63887 0.57131 0.19702 0.0
C898 C 0.49855 0.61069 0.19741 0.0
C899 C 0.5646 0.59005 0.20486 0.0
C900 C 0.46148 0.61845 0.20178 0.0
C901 C 0.45071 0.61528 0.21753 0.0
C902 C 0.52497 0.59932 0.20886 0.0
C903 C 0.47805 0.60391 0.22856 0.0
C904 C 0.58927 0.57379 0.21628 0.0
C905 C 0.6136 0.58841 0.18596 0.0
N906 N 0.51373 0.59626 0.22402 0.0
N907 N 0.57757 0.59696 0.19007 0.0
H908 H 0.43293 0.13532 0.46121 0.0
H909 H 0.56802 0.95521 0.50404 0.0
H910 H 0.48633 0.16452 0.50543 0.0
H911 H 0.51596 0.93083 0.45923 0.0
H912 H 0.53704 1.0307 0.50547 0.0
H913 H 0.4608 0.05852 0.46118 0.0
C914 C 0.45019 0.12549 0.47101 0.0
C915 C 0.45724 0.1567 0.48333 0.0
C916 C 0.53243 1.00874 0.49534 0.0
C917 C 0.48983 0.06848 0.48329 0.0
C918 C 0.5502 0.96567 0.4945 0.0
C919 C 0.54475 0.93649 0.48148 0.0
C920 C 0.50898 1.02274 0.48308 0.0
C921 C 0.52118 0.95197 0.4695 0.0
C922 C 0.4663 0.08158 0.47096 0.0
C923 C 0.48003 0.14176 0.49567 0.0
N924 N 0.50428 0.9938 0.4706 0.0
N925 N 0.49562 0.09892 0.4953 0.0
H926 H 0.96066 0.44795 0.55738 0.0
H927 H 0.11766 0.47216 0.62369 0.0
H928 H 0.93469 0.44844 0.6066 0.0
H929 H 0.13599 0.49851 0.57479 0.0
H930 H 0.05176 0.45546 0.61789 0.0
H931 H 0.02628 0.4589 0.56376 0.0
C932 C 0.96877 0.4501 0.56955 0.0
C933 C 0.94204 0.4473 0.58146 0.0
C934 C 0.07029 0.46486 0.60845 0.0
C935 C 0.01745 0.46013 0.5889 0.0
C936 C 0.10786 0.47407 0.61175 0.0
C937 C 0.13219 0.48718 0.59973 0.0
C938 C 0.05722 0.46824 0.593 0.0
C939 C 0.11808 0.48938 0.58445 0.0
C940 C 1.00629 0.45662 0.5732 0.0
C941 C 0.95427 0.45098 0.59704 0.0
N942 N 0.08165 0.48004 0.58154 0.0
N943 N 0.9911 0.4571 0.60032 0.0
loop_
_geom_bond_atom_site_label_1
_geom_bond_atom_site_label_2
_geom_bond_distance
_geom_bond_site_symmetry_2
_ccdc_geom_bond_type
Cu0 N1 1.999 . S
Cu0 O6 1.974 . S
Cu0 N11 1.985 . S
Cu0 O20 1.959 . S
N1 Cu0 1.999 . S
N1 C3 1.263 . S
N1 C5 1.389 . S
N2 C3 1.358 . S
N2 C4 1.400 1_455 S
C3 N1 1.263 . S
C3 N2 1.358 . S
C3 H9 0.930 . S
C4 N2 1.400 1_655 S
C4 C5 1.351 1_655 S
C4 H21 0.930 . S
C5 N1 1.389 . S
C5 C4 1.351 1_455 S
C5 H10 0.930 1_455 S
O6 Cu0 1.974 . S
O6 C16 1.282 . S
C7 O8 1.261 . S
C7 O20 1.251 . S
O8 C7 1.261 . S
H9 C3 0.930 . S
H10 C5 0.930 1_655 S
N11 Cu0 1.985 . S
N11 C13 1.335 . S
N11 C14 1.390 . S
N12 C13 1.345 . S
N12 C15 1.336 . S
C13 N11 1.335 . S
C13 N12 1.345 . S
C13 H18 0.930 . S
C14 N11 1.390 . S
C14 C15 1.346 . S
C14 H19 0.930 . S
C15 N12 1.336 . S
C15 C14 1.346 . S
C15 H22 0.929 . S
C16 O6 1.282 . S
C16 O17 1.216 . S
O17 C16 1.216 . S
H18 C13 0.930 . S
H19 C14 0.930 . S
O20 Cu0 1.959 . S
O20 C7 1.251 . S
H21 C4 0.930 . S
H22 C15 0.929 . S
Cu23 N24 1.999 . S
Cu23 O29 1.974 . S
Cu23 N34 1.985 . S
Cu23 O43 1.959 . S
N24 Cu23 1.999 . S
N24 C26 1.263 . S
N24 C28 1.389 . S
N25 C26 1.358 . S
N25 C27 1.400 . S
C26 N24 1.263 . S
C26 N25 1.358 . S
C26 H32 0.930 . S
C27 N25 1.400 . S
C27 C28 1.351 . S
C27 H44 0.930 1_565 S
C28 N24 1.389 . S
C28 C27 1.351 . S
C28 H33 0.930 . S
O29 Cu23 1.974 . S
O29 C39 1.282 . S
C30 O31 1.261 . S
C30 O43 1.251 1_545 S
O31 C30 1.261 . S
H32 C26 0.930 . S
H33 C28 0.930 . S
N34 Cu23 1.985 . S
N34 C36 1.335 . S
N34 C37 1.390 . S
N35 C36 1.345 . S
N35 C38 1.336 . S
C36 N34 1.335 . S
C36 N35 1.345 . S
C36 H41 0.930 . S
C37 N34 1.390 . S
C37 C38 1.346 . S
C37 H42 0.930 . S
C38 N35 1.336 . S
C38 C37 1.346 . S
C38 H45 0.929 . S
C39 O29 1.282 . S
C39 O40 1.216 . S
O40 C39 1.216 . S
H41 C36 0.930 . S
H42 C37 0.930 . S
O43 Cu23 1.959 . S
O43 C30 1.251 1_565 S
H44 C27 0.930 1_545 S
H45 C38 0.929 . S
Cu46 N47 1.999 . S
Cu46 O52 1.974 . S
Cu46 N57 1.985 . S
Cu46 O66 1.959 . S
N47 Cu46 1.999 . S
N47 C49 1.263 . S
N47 C51 1.389 . S
N48 C49 1.358 . S
N48 C50 1.400 1_655 S
C49 N47 1.263 . S
C49 N48 1.358 . S
C49 H55 0.930 . S
C50 N48 1.400 1_455 S
C50 C51 1.351 1_455 S
C50 H67 0.930 . S
C51 N47 1.389 . S
C51 C50 1.351 1_655 S
C51 H56 0.930 1_655 S
O52 Cu46 1.974 . S
O52 C62 1.282 . S
C53 O54 1.261 . S
C53 O66 1.251 . S
O54 C53 1.261 . S
H55 C49 0.930 . S
H56 C51 0.930 1_455 S
N57 Cu46 1.985 . S
N57 C59 1.335 . S
N57 C60 1.390 . S
N58 C59 1.345 . S
N58 C61 1.336 . S
C59 N57 1.335 . S
C59 N58 1.345 . S
C59 H64 0.930 . S
C60 N57 1.390 . S
C60 C61 1.346 . S
C60 H65 0.930 . S
C61 N58 1.336 . S
C61 C60 1.346 . S
C61 H68 0.929 . S
C62 O52 1.282 . S
C62 O63 1.216 . S
O63 C62 1.216 . S
H64 C59 0.930 . S
H65 C60 0.930 . S
O66 Cu46 1.959 . S
O66 C53 1.251 . S
H67 C50 0.930 . S
H68 C61 0.929 . S
Cu69 N70 1.999 . S
Cu69 O75 1.974 . S
Cu69 N80 1.985 . S
Cu69 O89 1.959 . S
N70 Cu69 1.999 . S
N70 C72 1.263 . S
N70 C74 1.389 . S
N71 C72 1.358 . S
N71 C73 1.400 . S
C72 N70 1.263 . S
C72 N71 1.358 . S
C72 H78 0.930 . S
C73 N71 1.400 . S
C73 C74 1.351 . S
C73 H90 0.930 1_545 S
C74 N70 1.389 . S
C74 C73 1.351 . S
C74 H79 0.930 . S
O75 Cu69 1.974 . S
O75 C85 1.282 . S
C76 O77 1.261 . S
C76 O89 1.251 1_565 S
O77 C76 1.261 . S
H78 C72 0.930 . S
H79 C74 0.930 . S
N80 Cu69 1.985 . S
N80 C82 1.335 . S
N80 C83 1.390 . S
N81 C82 1.345 . S
N81 C84 1.336 . S
C82 N80 1.335 . S
C82 N81 1.345 . S
C82 H87 0.930 . S
C83 N80 1.390 . S
C83 C84 1.346 . S
C83 H88 0.930 . S
C84 N81 1.336 . S
C84 C83 1.346 . S
C84 H91 0.929 . S
C85 O75 1.282 . S
C85 O86 1.216 . S
O86 C85 1.216 . S
H87 C82 0.930 . S
H88 C83 0.930 . S
O89 Cu69 1.959 . S
O89 C76 1.251 1_545 S
H90 C73 0.930 1_565 S
H91 C84 0.929 . S
Cu92 N93 1.999 . S
Cu92 O98 1.974 . S
Cu92 N103 1.985 . S
Cu92 O112 1.959 . S
N93 Cu92 1.999 . S
N93 C95 1.263 . S
N93 C97 1.389 . S
N94 C95 1.358 . S
N94 C96 1.400 1_455 S
C95 N93 1.263 . S
C95 N94 1.358 . S
C95 H101 0.930 . S
C96 N94 1.400 1_655 S
C96 C97 1.351 1_655 S
C96 H113 0.930 . S
C97 N93 1.389 . S
C97 C96 1.351 1_455 S
C97 H102 0.930 1_455 S
O98 Cu92 1.974 . S
O98 C108 1.282 . S
C99 O100 1.261 . S
C99 O112 1.251 . S
O100 C99 1.261 . S
H101 C95 0.930 . S
H102 C97 0.930 1_655 S
N103 Cu92 1.985 . S
N103 C105 1.335 . S
N103 C106 1.390 . S
N104 C105 1.345 . S
N104 C107 1.336 . S
C105 N103 1.335 . S
C105 N104 1.345 . S
C105 H110 0.930 . S
C106 N103 1.390 . S
C106 C107 1.346 . S
C106 H111 0.930 . S
C107 N104 1.336 . S
C107 C106 1.346 . S
C107 H114 0.929 . S
C108 O98 1.282 . S
C108 O109 1.216 . S
O109 C108 1.216 . S
H110 C105 0.930 . S
H111 C106 0.930 . S
O112 Cu92 1.959 . S
O112 C99 1.251 . S
H113 C96 0.930 . S
H114 C107 0.929 . S
Cu115 N116 1.999 . S
Cu115 O121 1.974 . S
Cu115 N126 1.985 . S
Cu115 O135 1.959 . S
N116 Cu115 1.999 . S
N116 C118 1.263 . S
N116 C120 1.389 . S
N117 C118 1.358 . S
N117 C119 1.400 . S
C118 N116 1.263 . S
C118 N117 1.358 . S
C118 H124 0.930 . S
C119 N117 1.400 . S
C119 C120 1.351 . S
C119 H136 0.930 1_565 S
C120 N116 1.389 . S
C120 C119 1.351 . S
C120 H125 0.930 . S
O121 Cu115 1.974 . S
O121 C131 1.282 . S
C122 O123 1.261 . S
C122 O135 1.251 1_545 S
O123 C122 1.261 . S
H124 C118 0.930 . S
H125 C120 0.930 . S
N126 Cu115 1.985 . S
N126 C128 1.335 . S
N126 C129 1.390 . S
N127 C128 1.345 . S
N127 C130 1.336 . S
C128 N126 1.335 . S
C128 N127 1.345 . S
C128 H133 0.930 . S
C129 N126 1.390 . S
C129 C130 1.346 . S
C129 H134 0.930 . S
C130 N127 1.336 . S
C130 C129 1.346 . S
C130 H137 0.929 . S
C131 O121 1.282 . S
C131 O132 1.216 . S
O132 C131 1.216 . S
H133 C128 0.930 . S
H134 C129 0.930 . S
O135 Cu115 1.959 . S
O135 C122 1.251 1_565 S
H136 C119 0.930 1_545 S
H137 C130 0.929 . S
Cu138 N139 1.999 . S
Cu138 O144 1.974 . S
Cu138 N149 1.985 . S
Cu138 O158 1.959 . S
N139 Cu138 1.999 . S
N139 C141 1.263 . S
N139 C143 1.389 . S
N140 C141 1.358 . S
N140 C142 1.400 1_655 S
C141 N139 1.263 . S
C141 N140 1.358 . S
C141 H147 0.930 . S
C142 N140 1.400 1_455 S
C142 C143 1.351 1_455 S
C142 H159 0.930 . S
C143 N139 1.389 . S
C143 C142 1.351 1_655 S
C143 H148 0.930 1_655 S
O144 Cu138 1.974 . S
O144 C154 1.282 . S
C145 O146 1.261 . S
C145 O158 1.251 . S
O146 C145 1.261 . S
H147 C141 0.930 . S
H148 C143 0.930 1_455 S
N149 Cu138 1.985 . S
N149 C151 1.335 . S
N149 C152 1.390 . S
N150 C151 1.345 . S
N150 C153 1.336 . S
C151 N149 1.335 . S
C151 N150 1.345 . S
C151 H156 0.930 . S
C152 N149 1.390 . S
C152 C153 1.346 . S
C152 H157 0.930 . S
C153 N150 1.336 . S
C153 C152 1.346 . S
C153 H160 0.929 . S
C154 O144 1.282 . S
C154 O155 1.216 . S
O155 C154 1.216 . S
H156 C151 0.930 . S
H157 C152 0.930 . S
O158 Cu138 1.959 . S
O158 C145 1.251 . S
H159 C142 0.930 . S
H160 C153 0.929 . S
Cu161 N162 1.999 . S
Cu161 O167 1.974 . S
Cu161 N172 1.985 . S
Cu161 O181 1.959 . S
N162 Cu161 1.999 . S
N162 C164 1.263 . S
N162 C166 1.389 . S
N163 C164 1.358 . S
N163 C165 1.400 . S
C164 N162 1.263 . S
C164 N163 1.358 . S
C164 H170 0.930 . S
C165 N163 1.400 . S
C165 C166 1.351 . S
C165 H182 0.930 1_545 S
C166 N162 1.389 . S
C166 C165 1.351 . S
C166 H171 0.930 . S
O167 Cu161 1.974 . S
O167 C177 1.282 . S
C168 O169 1.261 . S
C168 O181 1.251 1_565 S
O169 C168 1.261 . S
H170 C164 0.930 . S
H171 C166 0.930 . S
N172 Cu161 1.985 . S
N172 C174 1.335 . S
N172 C175 1.390 . S
N173 C174 1.345 . S
N173 C176 1.336 . S
C174 N172 1.335 . S
C174 N173 1.345 . S
C174 H179 0.930 . S
C175 N172 1.390 . S
C175 C176 1.346 . S
C175 H180 0.930 . S
C176 N173 1.336 . S
C176 C175 1.346 . S
C176 H183 0.929 . S
C177 O167 1.282 . S
C177 O178 1.216 . S
O178 C177 1.216 . S
H179 C174 0.930 . S
H180 C175 0.930 . S
O181 Cu161 1.959 . S
O181 C168 1.251 1_545 S
H182 C165 0.930 1_565 S
H183 C176 0.929 . S
Cu184 N185 1.999 . S
Cu184 O190 1.974 . S
Cu184 N195 1.985 . S
Cu184 O204 1.959 . S
N185 Cu184 1.999 . S
N185 C187 1.263 . S
N185 C189 1.389 . S
N186 C187 1.358 . S
N186 C188 1.400 . S
C187 N185 1.263 . S
C187 N186 1.358 . S
C187 H193 0.930 . S
C188 N186 1.400 . S
C188 C189 1.351 . S
C188 H205 0.930 . S
C189 N185 1.389 . S
C189 C188 1.351 . S
C189 H194 0.930 . S
O190 Cu184 1.974 . S
O190 C200 1.282 . S
C191 O192 1.261 . S
C191 O204 1.251 . S
O192 C191 1.261 . S
H193 C187 0.930 . S
H194 C189 0.930 . S
N195 Cu184 1.985 . S
N195 C197 1.335 . S
N195 C198 1.390 . S
N196 C197 1.345 . S
N196 C199 1.336 . S
C197 N195 1.335 . S
C197 N196 1.345 . S
C197 H202 0.930 . S
C198 N195 1.390 . S
C198 C199 1.346 . S
C198 H203 0.930 . S
C199 N196 1.336 . S
C199 C198 1.346 . S
C199 H206 0.929 . S
C200 O190 1.282 . S
C200 O201 1.216 . S
O201 C200 1.216 . S
H202 C197 0.930 . S
H203 C198 0.930 . S
O204 Cu184 1.959 . S
O204 C191 1.251 . S
H205 C188 0.930 . S
H206 C199 0.929 . S
Cu207 N208 1.999 . S
Cu207 O213 1.974 . S
Cu207 N218 1.985 . S
Cu207 O227 1.959 . S
N208 Cu207 1.999 . S
N208 C210 1.263 . S
N208 C212 1.389 . S
N209 C210 1.358 . S
N209 C211 1.400 . S
C210 N208 1.263 . S
C210 N209 1.358 . S
C210 H216 0.930 . S
C211 N209 1.400 . S
C211 C212 1.351 . S
C211 H228 0.930 . S
C212 N208 1.389 . S
C212 C211 1.351 . S
C212 H217 0.930 . S
O213 Cu207 1.974 . S
O213 C223 1.282 . S
C214 O215 1.261 . S
C214 O227 1.251 . S
O215 C214 1.261 . S
H216 C210 0.930 . S
H217 C212 0.930 . S
N218 Cu207 1.985 . S
N218 C220 1.335 . S
N218 C221 1.390 . S
N219 C220 1.345 . S
N219 C222 1.336 . S
C220 N218 1.335 . S
C220 N219 1.345 . S
C220 H225 0.930 . S
C221 N218 1.390 . S
C221 C222 1.346 . S
C221 H226 0.930 . S
C222 N219 1.336 . S
C222 C221 1.346 . S
C222 H229 0.929 . S
C223 O213 1.282 . S
C223 O224 1.216 . S
O224 C223 1.216 . S
H225 C220 0.930 . S
H226 C221 0.930 . S
O227 Cu207 1.959 . S
O227 C214 1.251 . S
H228 C211 0.930 . S
H229 C222 0.929 . S
Cu230 N231 1.999 . S
Cu230 O236 1.974 . S
Cu230 N241 1.985 . S
Cu230 O250 1.959 . S
N231 Cu230 1.999 . S
N231 C233 1.263 . S
N231 C235 1.389 . S
N232 C233 1.358 . S
N232 C234 1.400 . S
C233 N231 1.263 . S
C233 N232 1.358 . S
C233 H239 0.930 . S
C234 N232 1.400 . S
C234 C235 1.351 . S
C234 H251 0.930 . S
C235 N231 1.389 . S
C235 C234 1.351 . S
C235 H240 0.930 . S
O236 Cu230 1.974 . S
O236 C246 1.282 . S
C237 O238 1.261 . S
C237 O250 1.251 . S
O238 C237 1.261 . S
H239 C233 0.930 . S
H240 C235 0.930 . S
N241 Cu230 1.985 . S
N241 C243 1.335 . S
N241 C244 1.390 . S
N242 C243 1.345 . S
N242 C245 1.336 . S
C243 N241 1.335 . S
C243 N242 1.345 . S
C243 H248 0.930 . S
C244 N241 1.390 . S
C244 C245 1.346 . S
C244 H249 0.930 . S
C245 N242 1.336 . S
C245 C244 1.346 . S
C245 H252 0.929 . S
C246 O236 1.282 . S
C246 O247 1.216 . S
O247 C246 1.216 . S
H248 C243 0.930 . S
H249 C244 0.930 . S
O250 Cu230 1.959 . S
O250 C237 1.251 . S
H251 C234 0.930 . S
H252 C245 0.929 . S
Cu253 N254 1.999 . S
Cu253 O259 1.974 . S
Cu253 N264 1.985 . S
Cu253 O273 1.959 . S
N254 Cu253 1.999 . S
N254 C256 1.263 . S
N254 C258 1.389 . S
N255 C256 1.358 . S
N255 C257 1.400 . S
C256 N254 1.263 . S
C256 N255 1.358 . S
C256 H262 0.930 . S
C257 N255 1.400 . S
C257 C258 1.351 . S
C257 H274 0.930 . S
C258 N254 1.389 . S
C258 C257 1.351 . S
C258 H263 0.930 . S
O259 Cu253 1.974 . S
O259 C269 1.282 . S
C260 O261 1.261 . S
C260 O273 1.251 . S
O261 C260 1.261 . S
H262 C256 0.930 . S
H263 C258 0.930 . S
N264 Cu253 1.985 . S
N264 C266 1.335 . S
N264 C267 1.390 . S
N265 C266 1.345 . S
N265 C268 1.336 . S
C266 N264 1.335 . S
C266 N265 1.345 . S
C266 H271 0.930 . S
C267 N264 1.390 . S
C267 C268 1.346 . S
C267 H272 0.930 . S
C268 N265 1.336 . S
C268 C267 1.346 . S
C268 H275 0.929 . S
C269 O259 1.282 . S
C269 O270 1.216 . S
O270 C269 1.216 . S
H271 C266 0.930 . S
H272 C267 0.930 . S
O273 Cu253 1.959 . S
O273 C260 1.251 . S
H274 C257 0.930 . S
H275 C268 0.929 . S
Cu276 N277 1.999 . S
Cu276 O282 1.974 . S
Cu276 N287 1.985 . S
Cu276 O296 1.959 . S
N277 Cu276 1.999 . S
N277 C279 1.263 . S
N277 C281 1.389 . S
N278 C279 1.358 . S
N278 C280 1.400 . S
C279 N277 1.263 . S
C279 N278 1.358 . S
C279 H285 0.930 . S
C280 N278 1.400 . S
C280 C281 1.351 . S
C280 H297 0.930 . S
C281 N277 1.389 . S
C281 C280 1.351 . S
C281 H286 0.930 . S
O282 Cu276 1.974 . S
O282 C292 1.282 . S
C283 O284 1.261 . S
C283 O296 1.251 . S
O284 C283 1.261 . S
H285 C279 0.930 . S
H286 C281 0.930 . S
N287 Cu276 1.985 . S
N287 C289 1.335 . S
N287 C290 1.390 . S
N288 C289 1.345 . S
N288 C291 1.336 . S
C289 N287 1.335 . S
C289 N288 1.345 . S
C289 H294 0.930 . S
C290 N287 1.390 . S
C290 C291 1.346 . S
C290 H295 0.930 . S
C291 N288 1.336 . S
C291 C290 1.346 . S
C291 H298 0.929 . S
C292 O282 1.282 . S
C292 O293 1.216 . S
O293 C292 1.216 . S
H294 C289 0.930 . S
H295 C290 0.930 . S
O296 Cu276 1.959 . S
O296 C283 1.251 . S
H297 C280 0.930 . S
H298 C291 0.929 . S
Cu299 N300 1.999 . S
Cu299 O305 1.974 . S
Cu299 N310 1.985 . S
Cu299 O319 1.959 . S
N300 Cu299 1.999 . S
N300 C302 1.263 . S
N300 C304 1.389 . S
N301 C302 1.358 . S
N301 C303 1.400 . S
C302 N300 1.263 . S
C302 N301 1.358 . S
C302 H308 0.930 . S
C303 N301 1.400 . S
C303 C304 1.351 . S
C303 H320 0.930 . S
C304 N300 1.389 . S
C304 C303 1.351 . S
C304 H309 0.930 . S
O305 Cu299 1.974 . S
O305 C315 1.282 . S
C306 O307 1.261 . S
C306 O319 1.251 . S
O307 C306 1.261 . S
H308 C302 0.930 . S
H309 C304 0.930 . S
N310 Cu299 1.985 . S
N310 C312 1.335 . S
N310 C313 1.390 . S
N311 C312 1.345 . S
N311 C314 1.336 . S
C312 N310 1.335 . S
C312 N311 1.345 . S
C312 H317 0.930 . S
C313 N310 1.390 . S
C313 C314 1.346 . S
C313 H318 0.930 . S
C314 N311 1.336 . S
C314 C313 1.346 . S
C314 H321 0.929 . S
C315 O305 1.282 . S
C315 O316 1.216 . S
O316 C315 1.216 . S
H317 C312 0.930 . S
H318 C313 0.930 . S
O319 Cu299 1.959 . S
O319 C306 1.251 . S
H320 C303 0.930 . S
H321 C314 0.929 . S
Cu322 N323 1.999 . S
Cu322 O328 1.974 . S
Cu322 N333 1.985 . S
Cu322 O342 1.959 . S
N323 Cu322 1.999 . S
N323 C325 1.263 . S
N323 C327 1.389 . S
N324 C325 1.358 . S
N324 C326 1.400 . S
C325 N323 1.263 . S
C325 N324 1.358 . S
C325 H331 0.930 . S
C326 N324 1.400 . S
C326 C327 1.351 . S
C326 H343 0.930 . S
C327 N323 1.389 . S
C327 C326 1.351 . S
C327 H332 0.930 . S
O328 Cu322 1.974 . S
O328 C338 1.282 . S
C329 O330 1.261 . S
C329 O342 1.251 . S
O330 C329 1.261 . S
H331 C325 0.930 . S
H332 C327 0.930 . S
N333 Cu322 1.985 . S
N333 C335 1.335 . S
N333 C336 1.390 . S
N334 C335 1.345 . S
N334 C337 1.336 . S
C335 N333 1.335 . S
C335 N334 1.345 . S
C335 H340 0.930 . S
C336 N333 1.390 . S
C336 C337 1.346 . S
C336 H341 0.930 . S
C337 N334 1.336 . S
C337 C336 1.346 . S
C337 H344 0.929 . S
C338 O328 1.282 . S
C338 O339 1.216 . S
O339 C338 1.216 . S
H340 C335 0.930 . S
H341 C336 0.930 . S
O342 Cu322 1.959 . S
O342 C329 1.251 . S
H343 C326 0.930 . S
H344 C337 0.929 . S
Cu345 N346 1.999 . S
Cu345 O351 1.974 . S
Cu345 N356 1.985 . S
Cu345 O365 1.959 . S
N346 Cu345 1.999 . S
N346 C348 1.263 . S
N346 C350 1.389 . S
N347 C348 1.358 . S
N347 C349 1.400 . S
C348 N346 1.263 . S
C348 N347 1.358 . S
C348 H354 0.930 . S
C349 N347 1.400 . S
C349 C350 1.351 . S
C349 H366 0.930 . S
C350 N346 1.389 . S
C350 C349 1.351 . S
C350 H355 0.930 . S
O351 Cu345 1.974 . S
O351 C361 1.282 . S
C352 O353 1.261 . S
C352 O365 1.251 . S
O353 C352 1.261 . S
H354 C348 0.930 . S
H355 C350 0.930 . S
N356 Cu345 1.985 . S
N356 C358 1.335 . S
N356 C359 1.390 . S
N357 C358 1.345 . S
N357 C360 1.336 . S
C358 N356 1.335 . S
C358 N357 1.345 . S
C358 H363 0.930 . S
C359 N356 1.390 . S
C359 C360 1.346 . S
C359 H364 0.930 . S
C360 N357 1.336 . S
C360 C359 1.346 . S
C360 H367 0.929 . S
C361 O351 1.282 . S
C361 O362 1.216 . S
O362 C361 1.216 . S
H363 C358 0.930 . S
H364 C359 0.930 . S
O365 Cu345 1.959 . S
O365 C352 1.251 . S
H366 C349 0.930 . S
H367 C360 0.929 . S
H368 C374 0.930 . S
H369 C378 0.930 . S
H370 C383 0.929 . S
H371 C381 0.929 . S
H372 C376 0.929 . S
H373 C382 0.929 . S
C374 H368 0.930 . S
C374 C375 1.367 . S
C374 C382 1.378 . S
C375 C374 1.367 . S
C375 C383 1.433 . S
C376 H372 0.929 . S
C376 C378 1.378 . S
C376 C380 1.350 . S
C377 C380 1.463 . S
C377 C382 1.350 . S
C377 N385 1.427 . S
C378 H369 0.930 . S
C378 C376 1.378 . S
C378 C379 1.367 . S
C379 C378 1.367 . S
C379 C381 1.433 . S
C380 C376 1.350 . S
C380 C377 1.463 . S
C380 N384 1.427 . S
C381 H371 0.929 . S
C381 C379 1.433 . S
C381 N384 1.384 . S
C382 H373 0.929 . S
C382 C374 1.378 . S
C382 C377 1.350 . S
C383 H370 0.929 . S
C383 C375 1.433 . S
C383 N385 1.384 . S
N384 C380 1.427 . S
N384 C381 1.384 . S
N385 C377 1.427 . S
N385 C383 1.384 . S
H386 C392 0.930 . S
H387 C396 0.930 . S
H388 C401 0.929 . S
H389 C399 0.929 . S
H390 C394 0.929 . S
H391 C400 0.929 . S
C392 H386 0.930 . S
C392 C393 1.367 . S
C392 C400 1.378 . S
C393 C392 1.367 . S
C393 C401 1.433 . S
C394 H390 0.929 . S
C394 C396 1.378 . S
C394 C398 1.350 . S
C395 C398 1.463 . S
C395 C400 1.350 . S
C395 N403 1.427 . S
C396 H387 0.930 . S
C396 C394 1.378 . S
C396 C397 1.367 . S
C397 C396 1.367 . S
C397 C399 1.433 . S
C398 C394 1.350 . S
C398 C395 1.463 . S
C398 N402 1.427 . S
C399 H389 0.929 . S
C399 C397 1.433 . S
C399 N402 1.384 . S
C400 H391 0.929 . S
C400 C392 1.378 . S
C400 C395 1.350 . S
C401 H388 0.929 . S
C401 C393 1.433 . S
C401 N403 1.384 . S
N402 C398 1.427 . S
N402 C399 1.384 . S
N403 C395 1.427 . S
N403 C401 1.384 . S
H404 C410 0.930 . S
H405 C414 0.930 . S
H406 C419 0.929 . S
H407 C417 0.929 . S
H408 C412 0.929 . S
H409 C418 0.929 . S
C410 H404 0.930 . S
C410 C411 1.367 . S
C410 C418 1.378 . S
C411 C410 1.367 . S
C411 C419 1.433 . S
C412 H408 0.929 . S
C412 C414 1.378 . S
C412 C416 1.350 . S
C413 C416 1.463 . S
C413 C418 1.350 . S
C413 N421 1.427 . S
C414 H405 0.930 . S
C414 C412 1.378 . S
C414 C415 1.367 . S
C415 C414 1.367 . S
C415 C417 1.433 . S
C416 C412 1.350 . S
C416 C413 1.463 . S
C416 N420 1.427 . S
C417 H407 0.929 . S
C417 C415 1.433 . S
C417 N420 1.384 . S
C418 H409 0.929 . S
C418 C410 1.378 . S
C418 C413 1.350 . S
C419 H406 0.929 . S
C419 C411 1.433 . S
C419 N421 1.384 . S
N420 C416 1.427 . S
N420 C417 1.384 . S
N421 C413 1.427 . S
N421 C419 1.384 . S
H422 C428 0.930 . S
H423 C432 0.930 . S
H424 C437 0.929 . S
H425 C435 0.929 . S
H426 C430 0.929 . S
H427 C436 0.929 . S
C428 H422 0.930 . S
C428 C429 1.367 . S
C428 C436 1.378 . S
C429 C428 1.367 . S
C429 C437 1.433 . S
C430 H426 0.929 . S
C430 C432 1.378 . S
C430 C434 1.350 . S
C431 C434 1.463 . S
C431 C436 1.350 . S
C431 N439 1.427 . S
C432 H423 0.930 . S
C432 C430 1.378 . S
C432 C433 1.367 . S
C433 C432 1.367 . S
C433 C435 1.433 . S
C434 C430 1.350 . S
C434 C431 1.463 . S
C434 N438 1.427 . S
C435 H425 0.929 . S
C435 C433 1.433 . S
C435 N438 1.384 . S
C436 H427 0.929 . S
C436 C428 1.378 . S
C436 C431 1.350 . S
C437 H424 0.929 . S
C437 C429 1.433 . S
C437 N439 1.384 . S
N438 C434 1.427 . S
N438 C435 1.384 . S
N439 C431 1.427 . S
N439 C437 1.384 . S
H440 C446 0.930 1_565 S
H441 C450 0.930 . S
H442 C455 0.929 . S
H443 C453 0.929 . S
H444 C448 0.929 . S
H445 C454 0.929 . S
C446 H440 0.930 1_545 S
C446 C447 1.367 . S
C446 C454 1.378 . S
C447 C446 1.367 . S
C447 C455 1.433 . S
C448 H444 0.929 . S
C448 C450 1.378 1_554 S
C448 C452 1.350 . S
C449 C452 1.463 . S
C449 C454 1.350 . S
C449 N457 1.427 . S
C450 H441 0.930 . S
C450 C448 1.378 1_556 S
C450 C451 1.367 . S
C451 C450 1.367 . S
C451 C453 1.433 . S
C452 C448 1.350 . S
C452 C449 1.463 . S
C452 N456 1.427 1_554 S
C453 H443 0.929 . S
C453 C451 1.433 . S
C453 N456 1.384 . S
C454 H445 0.929 . S
C454 C446 1.378 . S
C454 C449 1.350 . S
C455 H442 0.929 . S
C455 C447 1.433 . S
C455 N457 1.384 . S
N456 C452 1.427 1_556 S
N456 C453 1.384 . S
N457 C449 1.427 . S
N457 C455 1.384 . S
H458 C464 0.930 . S
H459 C468 0.930 . S
H460 C473 0.929 . S
H461 C471 0.936 . S
H462 C466 0.929 . S
H463 C472 0.929 . S
C464 H458 0.930 . S
C464 C465 1.367 . S
C464 C472 1.378 . S
C465 C464 1.367 . S
C465 C473 1.433 . S
C466 H462 0.929 . S
C466 C468 1.378 . S
C466 C470 1.350 . S
C467 C470 1.463 . S
C467 C472 1.350 . S
C467 N475 1.427 . S
C468 H459 0.930 . S
C468 C466 1.378 . S
C468 C469 1.367 1_554 S
C469 C468 1.367 1_556 S
C469 C471 1.433 . S
C470 C466 1.350 . S
C470 C467 1.463 . S
C470 N474 1.427 . S
C471 H461 0.936 . S
C471 C469 1.433 . S
C471 N474 1.384 1_556 S
C472 H463 0.929 . S
C472 C464 1.378 . S
C472 C467 1.350 . S
C473 H460 0.929 . S
C473 C465 1.433 . S
C473 N475 1.384 . S
N474 C470 1.427 . S
N474 C471 1.384 1_554 S
N475 C467 1.427 . S
N475 C473 1.384 . S
H476 C482 0.930 . S
H477 C486 0.930 . S
H478 C491 0.929 . S
H479 C489 0.929 . S
H480 C484 0.929 . S
H481 C490 0.929 . S
C482 H476 0.930 . S
C482 C483 1.367 . S
C482 C490 1.378 . S
C483 C482 1.367 . S
C483 C491 1.433 . S
C484 H480 0.929 . S
C484 C486 1.378 . S
C484 C488 1.350 . S
C485 C488 1.463 . S
C485 C490 1.350 1_554 S
C485 N493 1.427 . S
C486 H477 0.930 . S
C486 C484 1.378 . S
C486 C487 1.367 . S
C487 C486 1.367 . S
C487 C489 1.433 . S
C488 C484 1.350 . S
C488 C485 1.463 . S
C488 N492 1.427 . S
C489 H479 0.929 . S
C489 C487 1.433 . S
C489 N492 1.384 . S
C490 H481 0.929 . S
C490 C482 1.378 . S
C490 C485 1.350 1_556 S
C491 H478 0.929 . S
C491 C483 1.433 . S
C491 N493 1.384 1_556 S
N492 C488 1.427 . S
N492 C489 1.384 . S
N493 C485 1.427 . S
N493 C491 1.384 1_554 S
H494 C500 0.930 . S
H495 C504 0.930 . S
H496 C509 0.929 . S
H497 C507 0.929 . S
H498 C502 0.936 . S
H499 C508 0.929 . S
C500 H494 0.930 . S
C500 C501 1.367 . S
C500 C508 1.378 . S
C501 C500 1.367 . S
C501 C509 1.433 . S
C502 H498 0.936 . S
C502 C504 1.403 . S
C502 C506 1.318 1_556 S
C503 C506 1.463 . S
C503 C508 1.350 . S
C503 N511 1.427 . S
C504 H495 0.930 . S
C504 C502 1.403 . S
C504 C505 1.367 . S
C505 C504 1.367 . S
C505 C507 1.433 1_556 S
C506 C502 1.318 1_554 S
C506 C503 1.463 . S
C506 N510 1.427 . S
C507 H497 0.929 . S
C507 C505 1.433 1_554 S
C507 N510 1.384 . S
C508 H499 0.929 . S
C508 C500 1.378 . S
C508 C503 1.350 . S
C509 H496 0.929 . S
C509 C501 1.433 . S
C509 N511 1.384 . S
N510 C506 1.427 . S
N510 C507 1.384 . S
N511 C503 1.427 . S
N511 C509 1.384 . S
H512 C518 0.930 . S
H513 C522 0.930 . S
H514 C527 0.929 . S
H515 C525 0.929 1_545 S
H516 C520 0.929 . S
H517 C526 0.929 . S
C518 H512 0.930 . S
C518 C519 1.367 . S
C518 C526 1.378 . S
C519 C518 1.367 . S
C519 C527 1.433 . S
C520 H516 0.929 . S
C520 C522 1.378 . S
C520 C524 1.350 . S
C521 C524 1.463 . S
C521 C526 1.350 . S
C521 N529 1.427 . S
C522 H513 0.930 . S
C522 C520 1.378 . S
C522 C523 1.367 . S
C523 C522 1.367 . S
C523 C525 1.433 . S
C524 C520 1.350 . S
C524 C521 1.463 . S
C524 N528 1.427 . S
C525 H515 0.929 1_565 S
C525 C523 1.433 . S
C525 N528 1.384 . S
C526 H517 0.929 . S
C526 C518 1.378 . S
C526 C521 1.350 . S
C527 H514 0.929 . S
C527 C519 1.433 . S
C527 N529 1.384 . S
N528 C524 1.427 . S
N528 C525 1.384 . S
N529 C521 1.427 . S
N529 C527 1.384 . S
H530 C536 0.930 . S
H531 C540 0.930 . S
H532 C545 0.929 1_455 S
H533 C543 0.929 . S
H534 C538 0.929 . S
H535 C544 0.929 . S
C536 H530 0.930 . S
C536 C537 1.367 . S
C536 C544 1.378 . S
C537 C536 1.367 . S
C537 C545 1.433 . S
C538 H534 0.929 . S
C538 C540 1.378 . S
C538 C542 1.350 . S
C539 C542 1.463 . S
C539 C544 1.350 . S
C539 N547 1.427 . S
C540 H531 0.930 . S
C540 C538 1.378 . S
C540 C541 1.367 . S
C541 C540 1.367 . S
C541 C543 1.433 . S
C542 C538 1.350 . S
C542 C539 1.463 . S
C542 N546 1.427 . S
C543 H533 0.929 . S
C543 C541 1.433 . S
C543 N546 1.384 . S
C544 H535 0.929 . S
C544 C536 1.378 . S
C544 C539 1.350 . S
C545 H532 0.929 1_655 S
C545 C537 1.433 . S
C545 N547 1.384 . S
N546 C542 1.427 . S
N546 C543 1.384 . S
N547 C539 1.427 . S
N547 C545 1.384 . S
H548 C554 0.930 . S
H549 C558 0.930 . S
H550 C563 0.929 . S
H551 C561 0.929 . S
H552 C556 0.929 . S
H553 C562 0.929 . S
C554 H548 0.930 . S
C554 C555 1.367 . S
C554 C562 1.378 . S
C555 C554 1.367 . S
C555 C563 1.433 . S
C556 H552 0.929 . S
C556 C558 1.378 . S
C556 C560 1.350 . S
C557 C560 1.463 . S
C557 C562 1.350 . S
C557 N565 1.427 . S
C558 H549 0.930 . S
C558 C556 1.378 . S
C558 C559 1.367 . S
C559 C558 1.367 . S
C559 C561 1.433 . S
C560 C556 1.350 . S
C560 C557 1.463 . S
C560 N564 1.427 . S
C561 H551 0.929 . S
C561 C559 1.433 . S
C561 N564 1.384 . S
C562 H553 0.929 . S
C562 C554 1.378 . S
C562 C557 1.350 . S
C563 H550 0.929 . S
C563 C555 1.433 . S
C563 N565 1.384 . S
N564 C560 1.427 . S
N564 C561 1.384 . S
N565 C557 1.427 . S
N565 C563 1.384 . S
H566 C572 0.930 1_655 S
H567 C576 0.930 . S
H568 C581 0.929 . S
H569 C579 0.929 . S
H570 C574 0.929 . S
H571 C580 0.929 . S
C572 H566 0.930 1_455 S
C572 C573 1.367 . S
C572 C580 1.378 . S
C573 C572 1.367 . S
C573 C581 1.433 . S
C574 H570 0.929 . S
C574 C576 1.378 . S
C574 C578 1.350 . S
C575 C578 1.463 . S
C575 C580 1.350 . S
C575 N583 1.427 . S
C576 H567 0.930 . S
C576 C574 1.378 . S
C576 C577 1.367 . S
C577 C576 1.367 . S
C577 C579 1.433 . S
C578 C574 1.350 . S
C578 C575 1.463 . S
C578 N582 1.427 . S
C579 H569 0.929 . S
C579 C577 1.433 . S
C579 N582 1.384 . S
C580 H571 0.929 . S
C580 C572 1.378 . S
C580 C575 1.350 . S
C581 H568 0.929 . S
C581 C573 1.433 . S
C581 N583 1.384 . S
N582 C578 1.427 . S
N582 C579 1.384 . S
N583 C575 1.427 . S
N583 C581 1.384 . S
H584 C590 0.930 . S
H585 C594 0.930 . S
H586 C599 0.929 . S
H587 C597 0.929 . S
H588 C592 0.929 . S
H589 C598 0.929 . S
C590 H584 0.930 . S
C590 C591 1.367 . S
C590 C598 1.378 . S
C591 C590 1.367 . S
C591 C599 1.433 . S
C592 H588 0.929 . S
C592 C594 1.378 . S
C592 C596 1.350 . S
C593 C596 1.463 . S
C593 C598 1.350 . S
C593 N601 1.427 . S
C594 H585 0.930 . S
C594 C592 1.378 . S
C594 C595 1.367 . S
C595 C594 1.367 . S
C595 C597 1.433 . S
C596 C592 1.350 . S
C596 C593 1.463 . S
C596 N600 1.427 . S
C597 H587 0.929 . S
C597 C595 1.433 . S
C597 N600 1.384 . S
C598 H589 0.929 . S
C598 C590 1.378 . S
C598 C593 1.350 . S
C599 H586 0.929 . S
C599 C591 1.433 . S
C599 N601 1.384 . S
N600 C596 1.427 . S
N600 C597 1.384 . S
N601 C593 1.427 . S
N601 C599 1.384 . S
H602 C608 0.930 . S
H603 C612 0.930 . S
H604 C617 0.929 . S
H605 C615 0.929 . S
H606 C610 0.929 . S
H607 C616 0.929 . S
C608 H602 0.930 . S
C608 C609 1.367 . S
C608 C616 1.378 . S
C609 C608 1.367 . S
C609 C617 1.433 . S
C610 H606 0.929 . S
C610 C612 1.378 . S
C610 C614 1.350 . S
C611 C614 1.463 . S
C611 C616 1.350 . S
C611 N619 1.427 . S
C612 H603 0.930 . S
C612 C610 1.378 . S
C612 C613 1.367 . S
C613 C612 1.367 . S
C613 C615 1.433 . S
C614 C610 1.350 . S
C614 C611 1.463 . S
C614 N618 1.427 . S
C615 H605 0.929 . S
C615 C613 1.433 . S
C615 N618 1.384 . S
C616 H607 0.929 . S
C616 C608 1.378 . S
C616 C611 1.350 . S
C617 H604 0.929 . S
C617 C609 1.433 . S
C617 N619 1.384 . S
N618 C614 1.427 . S
N618 C615 1.384 . S
N619 C611 1.427 . S
N619 C617 1.384 . S
H620 C626 0.930 . S
H621 C630 0.930 . S
H622 C635 0.929 . S
H623 C633 0.929 . S
H624 C628 0.929 . S
H625 C634 0.929 . S
C626 H620 0.930 . S
C626 C627 1.367 . S
C626 C634 1.378 . S
C627 C626 1.367 . S
C627 C635 1.433 . S
C628 H624 0.929 . S
C628 C630 1.378 . S
C628 C632 1.350 . S
C629 C632 1.463 . S
C629 C634 1.350 . S
C629 N637 1.427 . S
C630 H621 0.930 . S
C630 C628 1.378 . S
C630 C631 1.367 . S
C631 C630 1.367 . S
C631 C633 1.433 . S
C632 C628 1.350 . S
C632 C629 1.463 . S
C632 N636 1.427 . S
C633 H623 0.929 . S
C633 C631 1.433 . S
C633 N636 1.384 . S
C634 H625 0.929 . S
C634 C626 1.378 . S
C634 C629 1.350 . S
C635 H622 0.929 . S
C635 C627 1.433 . S
C635 N637 1.384 . S
N636 C632 1.427 . S
N636 C633 1.384 . S
N637 C629 1.427 . S
N637 C635 1.384 . S
H638 C644 0.930 . S
H639 C648 0.930 . S
H640 C653 0.929 . S
H641 C651 0.929 . S
H642 C646 0.929 . S
H643 C652 0.929 . S
C644 H638 0.930 . S
C644 C645 1.367 . S
C644 C652 1.378 . S
C645 C644 1.367 . S
C645 C653 1.433 . S
C646 H642 0.929 . S
C646 C648 1.378 . S
C646 C650 1.350 . S
C647 C650 1.463 . S
C647 C652 1.350 . S
C647 N655 1.427 . S
C648 H639 0.930 . S
C648 C646 1.378 . S
C648 C649 1.367 . S
C649 C648 1.367 . S
C649 C651 1.433 . S
C650 C646 1.350 . S
C650 C647 1.463 . S
C650 N654 1.427 . S
C651 H641 0.929 . S
C651 C649 1.433 . S
C651 N654 1.384 . S
C652 H643 0.929 . S
C652 C644 1.378 . S
C652 C647 1.350 . S
C653 H640 0.929 . S
C653 C645 1.433 . S
C653 N655 1.384 . S
N654 C650 1.427 . S
N654 C651 1.384 . S
N655 C647 1.427 . S
N655 C653 1.384 . S
H656 C662 0.930 . S
H657 C666 0.930 . S
H658 C671 0.929 . S
H659 C669 0.929 . S
H660 C664 0.929 . S
H661 C670 0.929 . S
C662 H656 0.930 . S
C662 C663 1.367 . S
C662 C670 1.378 . S
C663 C662 1.367 . S
C663 C671 1.433 . S
C664 H660 0.929 . S
C664 C666 1.378 . S
C664 C668 1.350 . S
C665 C668 1.463 . S
C665 C670 1.350 . S
C665 N673 1.427 . S
C666 H657 0.930 . S
C666 C664 1.378 . S
C666 C667 1.367 . S
C667 C666 1.367 . S
C667 C669 1.433 . S
C668 C664 1.350 . S
C668 C665 1.463 . S
C668 N672 1.427 . S
C669 H659 0.929 . S
C669 C667 1.433 . S
C669 N672 1.384 . S
C670 H661 0.929 . S
C670 C662 1.378 . S
C670 C665 1.350 . S
C671 H658 0.929 . S
C671 C663 1.433 . S
C671 N673 1.384 . S
N672 C668 1.427 . S
N672 C669 1.384 . S
N673 C665 1.427 . S
N673 C671 1.384 . S
H674 C680 0.930 . S
H675 C684 0.930 . S
H676 C689 0.929 . S
H677 C687 0.929 . S
H678 C682 0.929 . S
H679 C688 0.929 . S
C680 H674 0.930 . S
C680 C681 1.367 . S
C680 C688 1.378 . S
C681 C680 1.367 . S
C681 C689 1.433 . S
C682 H678 0.929 . S
C682 C684 1.378 . S
C682 C686 1.350 . S
C683 C686 1.463 . S
C683 C688 1.350 . S
C683 N691 1.427 . S
C684 H675 0.930 . S
C684 C682 1.378 . S
C684 C685 1.367 . S
C685 C684 1.367 . S
C685 C687 1.433 . S
C686 C682 1.350 . S
C686 C683 1.463 . S
C686 N690 1.427 . S
C687 H677 0.929 . S
C687 C685 1.433 . S
C687 N690 1.384 . S
C688 H679 0.929 . S
C688 C680 1.378 . S
C688 C683 1.350 . S
C689 H676 0.929 . S
C689 C681 1.433 . S
C689 N691 1.384 . S
N690 C686 1.427 . S
N690 C687 1.384 . S
N691 C683 1.427 . S
N691 C689 1.384 . S
H692 C698 0.930 . S
H693 C702 0.930 . S
H694 C707 0.929 . S
H695 C705 0.929 . S
H696 C700 0.929 . S
H697 C706 0.929 . S
C698 H692 0.930 . S
C698 C699 1.367 . S
C698 C706 1.378 . S
C699 C698 1.367 . S
C699 C707 1.433 . S
C700 H696 0.929 . S
C700 C702 1.378 . S
C700 C704 1.350 . S
C701 C704 1.463 . S
C701 C706 1.350 . S
C701 N709 1.427 . S
C702 H693 0.930 . S
C702 C700 1.378 . S
C702 C703 1.367 . S
C703 C702 1.367 . S
C703 C705 1.433 . S
C704 C700 1.350 . S
C704 C701 1.463 . S
C704 N708 1.427 . S
C705 H695 0.929 . S
C705 C703 1.433 . S
C705 N708 1.384 . S
C706 H697 0.929 . S
C706 C698 1.378 . S
C706 C701 1.350 . S
C707 H694 0.929 . S
C707 C699 1.433 . S
C707 N709 1.384 . S
N708 C704 1.427 . S
N708 C705 1.384 . S
N709 C701 1.427 . S
N709 C707 1.384 . S
H710 C716 0.930 . S
H711 C720 0.930 . S
H712 C725 0.929 . S
H713 C723 0.929 . S
H714 C718 0.929 . S
H715 C724 0.929 . S
C716 H710 0.930 . S
C716 C717 1.367 . S
C716 C724 1.378 . S
C717 C716 1.367 . S
C717 C725 1.433 . S
C718 H714 0.929 . S
C718 C720 1.378 . S
C718 C722 1.350 . S
C719 C722 1.463 . S
C719 C724 1.350 . S
C719 N727 1.427 . S
C720 H711 0.930 . S
C720 C718 1.378 . S
C720 C721 1.367 . S
C721 C720 1.367 . S
C721 C723 1.433 . S
C722 C718 1.350 . S
C722 C719 1.463 . S
C722 N726 1.427 . S
C723 H713 0.929 . S
C723 C721 1.433 . S
C723 N726 1.384 . S
C724 H715 0.929 . S
C724 C716 1.378 . S
C724 C719 1.350 . S
C725 H712 0.929 . S
C725 C717 1.433 . S
C725 N727 1.384 . S
N726 C722 1.427 . S
N726 C723 1.384 . S
N727 C719 1.427 . S
N727 C725 1.384 . S
H728 C734 0.930 . S
H729 C738 0.930 . S
H730 C743 0.929 . S
H731 C741 0.929 . S
H732 C736 0.929 . S
H733 C742 0.929 . S
C734 H728 0.930 . S
C734 C735 1.367 . S
C734 C742 1.378 . S
C735 C734 1.367 . S
C735 C743 1.433 . S
C736 H732 0.929 . S
C736 C738 1.378 . S
C736 C740 1.350 . S
C737 C740 1.463 . S
C737 C742 1.350 . S
C737 N745 1.427 . S
C738 H729 0.930 . S
C738 C736 1.378 . S
C738 C739 1.367 . S
C739 C738 1.367 . S
C739 C741 1.433 . S
C740 C736 1.350 . S
C740 C737 1.463 . S
C740 N744 1.427 . S
C741 H731 0.929 . S
C741 C739 1.433 . S
C741 N744 1.384 . S
C742 H733 0.929 . S
C742 C734 1.378 . S
C742 C737 1.350 . S
C743 H730 0.929 . S
C743 C735 1.433 . S
C743 N745 1.384 . S
N744 C740 1.427 . S
N744 C741 1.384 . S
N745 C737 1.427 . S
N745 C743 1.384 . S
H746 C752 0.930 . S
H747 C756 0.930 . S
H748 C761 0.929 . S
H749 C759 0.929 . S
H750 C754 0.929 . S
H751 C760 0.929 . S
C752 H746 0.930 . S
C752 C753 1.367 . S
C752 C760 1.378 . S
C753 C752 1.367 . S
C753 C761 1.433 . S
C754 H750 0.929 . S
C754 C756 1.378 . S
C754 C758 1.350 . S
C755 C758 1.463 . S
C755 C760 1.350 . S
C755 N763 1.427 . S
C756 H747 0.930 . S
C756 C754 1.378 . S
C756 C757 1.367 . S
C757 C756 1.367 . S
C757 C759 1.433 . S
C758 C754 1.350 . S
C758 C755 1.463 . S
C758 N762 1.427 . S
C759 H749 0.929 . S
C759 C757 1.433 . S
C759 N762 1.384 . S
C760 H751 0.929 . S
C760 C752 1.378 . S
C760 C755 1.350 . S
C761 H748 0.929 . S
C761 C753 1.433 . S
C761 N763 1.384 . S
N762 C758 1.427 . S
N762 C759 1.384 . S
N763 C755 1.427 . S
N763 C761 1.384 . S
H764 C770 0.930 . S
H765 C774 0.930 . S
H766 C779 0.929 . S
H767 C777 0.929 . S
H768 C772 0.929 . S
H769 C778 0.929 . S
C770 H764 0.930 . S
C770 C771 1.367 . S
C770 C778 1.378 . S
C771 C770 1.367 . S
C771 C779 1.433 . S
C772 H768 0.929 . S
C772 C774 1.378 . S
C772 C776 1.350 . S
C773 C776 1.463 . S
C773 C778 1.350 . S
C773 N781 1.427 . S
C774 H765 0.930 . S
C774 C772 1.378 . S
C774 C775 1.367 . S
C775 C774 1.367 . S
C775 C777 1.433 . S
C776 C772 1.350 . S
C776 C773 1.463 . S
C776 N780 1.427 . S
C777 H767 0.929 . S
C777 C775 1.433 . S
C777 N780 1.384 . S
C778 H769 0.929 . S
C778 C770 1.378 . S
C778 C773 1.350 . S
C779 H766 0.929 . S
C779 C771 1.433 . S
C779 N781 1.384 . S
N780 C776 1.427 . S
N780 C777 1.384 . S
N781 C773 1.427 . S
N781 C779 1.384 . S
H782 C788 0.930 . S
H783 C792 0.930 . S
H784 C797 0.929 . S
H785 C795 0.929 . S
H786 C790 0.929 . S
H787 C796 0.929 . S
C788 H782 0.930 . S
C788 C789 1.367 . S
C788 C796 1.378 . S
C789 C788 1.367 . S
C789 C797 1.433 . S
C790 H786 0.929 . S
C790 C792 1.378 . S
C790 C794 1.350 . S
C791 C794 1.463 . S
C791 C796 1.350 . S
C791 N799 1.427 . S
C792 H783 0.930 . S
C792 C790 1.378 . S
C792 C793 1.367 . S
C793 C792 1.367 . S
C793 C795 1.433 . S
C794 C790 1.350 . S
C794 C791 1.463 . S
C794 N798 1.427 . S
C795 H785 0.929 . S
C795 C793 1.433 . S
C795 N798 1.384 . S
C796 H787 0.929 . S
C796 C788 1.378 . S
C796 C791 1.350 . S
C797 H784 0.929 . S
C797 C789 1.433 . S
C797 N799 1.384 . S
N798 C794 1.427 . S
N798 C795 1.384 . S
N799 C791 1.427 . S
N799 C797 1.384 . S
H800 C806 0.930 . S
H801 C810 0.930 . S
H802 C815 0.929 . S
H803 C813 0.929 . S
H804 C808 0.937 . S
H805 C814 0.937 . S
C806 H800 0.930 . S
C806 C807 1.367 . S
C806 C814 1.378 . S
C807 C806 1.367 . S
C807 C815 1.433 . S
C808 H804 0.937 . S
C808 C810 1.378 . S
C808 C812 1.350 . S
C809 C812 1.463 1_665 S
C809 C814 1.350 . S
C809 N817 1.427 1_655 S
C810 H801 0.930 . S
C810 C808 1.378 . S
C810 C811 1.367 . S
C811 C810 1.367 . S
C811 C813 1.433 . S
C812 C808 1.350 . S
C812 C809 1.463 1_445 S
C812 N816 1.427 1_455 S
C813 H803 0.929 . S
C813 C811 1.433 . S
C813 N816 1.384 1_455 S
C814 H805 0.937 . S
C814 C806 1.378 . S
C814 C809 1.350 . S
C815 H802 0.929 . S
C815 C807 1.433 . S
C815 N817 1.384 1_655 S
N816 C812 1.427 1_655 S
N816 C813 1.384 1_655 S
N817 C809 1.427 1_455 S
N817 C815 1.384 1_455 S
H818 C824 0.930 . S
H819 C828 0.930 . S
H820 C833 0.929 . S
H821 C831 0.929 . S
H822 C826 0.929 . S
H823 C832 0.929 . S
C824 H818 0.930 . S
C824 C825 1.367 . S
C824 C832 1.378 . S
C825 C824 1.367 . S
C825 C833 1.433 1_545 S
C826 H822 0.929 . S
C826 C828 1.378 . S
C826 C830 1.350 . S
C827 C830 1.463 1_645 S
C827 C832 1.350 . S
C827 N835 1.427 1_545 S
C828 H819 0.930 . S
C828 C826 1.378 . S
C828 C829 1.367 . S
C829 C828 1.367 . S
C829 C831 1.433 1_565 S
C830 C826 1.350 . S
C830 C827 1.463 1_465 S
C830 N834 1.427 1_565 S
C831 H821 0.929 . S
C831 C829 1.433 1_545 S
C831 N834 1.384 . S
C832 H823 0.929 . S
C832 C824 1.378 . S
C832 C827 1.350 . S
C833 H820 0.929 . S
C833 C825 1.433 1_565 S
C833 N835 1.384 . S
N834 C830 1.427 1_545 S
N834 C831 1.384 . S
N835 C827 1.427 1_565 S
N835 C833 1.384 . S
H836 C842 0.930 . S
H837 C846 0.930 . S
H838 C851 0.929 . S
H839 C849 0.929 . S
H840 C844 0.929 1_455 S
H841 C850 0.929 1_655 S
C842 H836 0.930 . S
C842 C843 1.367 . S
C842 C850 1.378 . S
C843 C842 1.367 . S
C843 C851 1.433 . S
C844 H840 0.929 1_655 S
C844 C846 1.378 . S
C844 C848 1.350 . S
C845 C848 1.463 1_455 S
C845 C850 1.350 . S
C845 N853 1.427 . S
C846 H837 0.930 . S
C846 C844 1.378 . S
C846 C847 1.367 . S
C847 C846 1.367 . S
C847 C849 1.433 . S
C848 C844 1.350 . S
C848 C845 1.463 1_655 S
C848 N852 1.427 . S
C849 H839 0.929 . S
C849 C847 1.433 . S
C849 N852 1.384 . S
C850 H841 0.929 1_455 S
C850 C842 1.378 . S
C850 C845 1.350 . S
C851 H838 0.929 . S
C851 C843 1.433 . S
C851 N853 1.384 . S
N852 C848 1.427 . S
N852 C849 1.384 . S
N853 C845 1.427 . S
N853 C851 1.384 . S
H854 C860 0.930 . S
H855 C864 0.930 . S
H856 C869 0.929 . S
H857 C867 0.929 . S
H858 C862 0.929 . S
H859 C868 0.929 . S
C860 H854 0.930 . S
C860 C861 1.367 1_545 S
C860 C868 1.378 . S
C861 C860 1.367 1_565 S
C861 C869 1.433 . S
C862 H858 0.929 . S
C862 C864 1.378 . S
C862 C866 1.350 1_565 S
C863 C866 1.463 1_565 S
C863 C868 1.350 1_565 S
C863 N871 1.427 . S
C864 H855 0.930 . S
C864 C862 1.378 . S
C864 C865 1.367 1_565 S
C865 C864 1.367 1_545 S
C865 C867 1.433 . S
C866 C862 1.350 1_545 S
C866 C863 1.463 1_545 S
C866 N870 1.427 . S
C867 H857 0.929 . S
C867 C865 1.433 . S
C867 N870 1.384 . S
C868 H859 0.929 . S
C868 C860 1.378 . S
C868 C863 1.350 1_545 S
C869 H856 0.929 . S
C869 C861 1.433 . S
C869 N871 1.384 . S
N870 C866 1.427 . S
N870 C867 1.384 . S
N871 C863 1.427 . S
N871 C869 1.384 . S
H872 C878 0.930 . S
H873 C882 0.930 . S
H874 C887 0.929 . S
H875 C885 0.929 . S
H876 C880 0.929 . S
H877 C886 0.929 . S
C878 H872 0.930 . S
C878 C879 1.367 . S
C878 C886 1.378 . S
C879 C878 1.367 . S
C879 C887 1.433 . S
C880 H876 0.929 . S
C880 C882 1.378 . S
C880 C884 1.350 . S
C881 C884 1.463 . S
C881 C886 1.350 . S
C881 N889 1.427 . S
C882 H873 0.930 . S
C882 C880 1.378 . S
C882 C883 1.367 . S
C883 C882 1.367 . S
C883 C885 1.433 . S
C884 C880 1.350 . S
C884 C881 1.463 . S
C884 N888 1.427 . S
C885 H875 0.929 . S
C885 C883 1.433 . S
C885 N888 1.384 . S
C886 H877 0.929 . S
C886 C878 1.378 . S
C886 C881 1.350 . S
C887 H874 0.929 . S
C887 C879 1.433 . S
C887 N889 1.384 . S
N888 C884 1.427 . S
N888 C885 1.384 . S
N889 C881 1.427 . S
N889 C887 1.384 . S
H890 C896 0.930 . S
H891 C900 0.930 . S
H892 C905 0.929 . S
H893 C903 0.929 . S
H894 C898 0.929 . S
H895 C904 0.929 . S
C896 H890 0.930 . S
C896 C897 1.367 . S
C896 C904 1.378 . S
C897 C896 1.367 . S
C897 C905 1.433 . S
C898 H894 0.929 . S
C898 C900 1.378 . S
C898 C902 1.350 . S
C899 C902 1.463 . S
C899 C904 1.350 . S
C899 N907 1.427 . S
C900 H891 0.930 . S
C900 C898 1.378 . S
C900 C901 1.367 . S
C901 C900 1.367 . S
C901 C903 1.433 . S
C902 C898 1.350 . S
C902 C899 1.463 . S
C902 N906 1.427 . S
C903 H893 0.929 . S
C903 C901 1.433 . S
C903 N906 1.384 . S
C904 H895 0.929 . S
C904 C896 1.378 . S
C904 C899 1.350 . S
C905 H892 0.929 . S
C905 C897 1.433 . S
C905 N907 1.384 . S
N906 C902 1.427 . S
N906 C903 1.384 . S
N907 C899 1.427 . S
N907 C905 1.384 . S
H908 C914 0.930 . S
H909 C918 0.930 . S
H910 C923 0.929 . S
H911 C921 0.929 . S
H912 C916 0.929 . S
H913 C922 0.929 . S
C914 H908 0.930 . S
C914 C915 1.367 . S
C914 C922 1.378 . S
C915 C914 1.367 . S
C915 C923 1.433 . S
C916 H912 0.929 . S
C916 C918 1.378 . S
C916 C920 1.350 . S
C917 C920 1.463 1_545 S
C917 C922 1.350 . S
C917 N925 1.427 . S
C918 H909 0.930 . S
C918 C916 1.378 . S
C918 C919 1.367 . S
C919 C918 1.367 . S
C919 C921 1.433 . S
C920 C916 1.350 . S
C920 C917 1.463 1_565 S
C920 N924 1.427 . S
C921 H911 0.929 . S
C921 C919 1.433 . S
C921 N924 1.384 . S
C922 H913 0.929 . S
C922 C914 1.378 . S
C922 C917 1.350 . S
C923 H910 0.929 . S
C923 C915 1.433 . S
C923 N925 1.384 . S
N924 C920 1.427 . S
N924 C921 1.384 . S
N925 C917 1.427 . S
N925 C923 1.384 . S
H926 C932 0.930 . S
H927 C936 0.930 . S
H928 C941 0.929 . S
H929 C939 0.929 . S
H930 C934 0.929 . S
H931 C940 0.929 . S
C932 H926 0.930 . S
C932 C933 1.367 . S
C932 C940 1.378 . S
C933 C932 1.367 . S
C933 C941 1.433 . S
C934 H930 0.929 . S
C934 C936 1.378 . S
C934 C938 1.350 . S
C935 C938 1.463 1_655 S
C935 C940 1.350 . S
C935 N943 1.427 . S
C936 H927 0.930 . S
C936 C934 1.378 . S
C936 C937 1.367 . S
C937 C936 1.367 . S
C937 C939 1.433 . S
C938 C934 1.350 . S
C938 C935 1.463 1_455 S
C938 N942 1.427 . S
C939 H929 0.929 . S
C939 C937 1.433 . S
C939 N942 1.384 . S
C940 H931 0.929 . S
C940 C932 1.378 . S
C940 C935 1.350 . S
C941 H928 0.929 . S
C941 C933 1.433 . S
C941 N943 1.384 . S
N942 C938 1.427 . S
N942 C939 1.384 . S
N943 C935 1.427 . S
N943 C941 1.384 . S
C375 C16 1.729 . S
C379 C260 1.793 . S
C393 N186 1.330 . S
C397 N35 1.342 . S
C411 C214 1.794 . S
C415 C62 1.738 . S
C429 N232 1.331 . S
C433 N81 1.341 . S
C447 C122 1.792 . S
C451 C108 1.727 . S
C465 N127 1.341 . S
C469 N140 1.331 1_455 S
C483 C154 1.730 . S
C487 C168 1.792 . S
C501 N173 1.328 . S
C505 N94 1.325 1_655 S
C519 C200 1.739 . S
C523 C76 1.795 . S
C537 N2 1.330 1_655 S
C541 N219 1.342 . S
C555 C30 1.795 . S
C559 C246 1.737 . S
C573 N48 1.335 1_455 S
C577 N265 1.331 . S
C591 C306 1.792 . S
C595 C292 1.730 . S
C609 N311 1.330 . S
C613 N324 1.334 . S
C627 C352 1.794 . S
C631 C338 1.738 . S
C645 N278 1.322 . S
C649 N357 1.331 . S
C663 N334 1.765 . S
C667 N12 1.777 . S
C681 C361 1.933 . S
C685 C39 1.925 . S
C699 N288 1.769 . S
C703 N58 1.766 . S
C717 C85 1.932 . S
C721 C315 1.926 . S
C735 N104 1.769 . S
C739 N242 1.777 . S
C753 C269 1.925 . S
C757 C131 1.933 . S
C771 N150 1.764 . S
C775 N196 1.773 . S
C789 C177 1.927 . S
C793 C223 1.932 . S
C807 C53 1.747 . S
C811 C7 1.741 . S
C825 N71 1.673 . S
C829 N25 1.677 . S
C843 C99 1.747 . S
C847 C145 1.738 . S
C861 N117 1.669 . S
C865 N163 1.685 . S
C879 C237 1.745 . S
C883 C191 1.745 . S
C897 N209 1.670 . S
C901 N255 1.681 . S
C915 C329 1.747 . S
C919 C283 1.738 . S
C933 N301 1.674 . S
C937 N347 1.681 . S
