# Generated by pormake.
# Topology umb, (4)-cn, num edge types: 1
# Building blocks:
#     Node 0, Type 0, BuildingBlock: KOZSID_clean_sbu_0, # of connection points: 4
#     Node 1, Type 0, BuildingBlock: KOZSID_clean_sbu_0, # of connection points: 4
#     Node 2, Type 0, BuildingBlock: KOZSID_clean_sbu_0, # of connection points: 4
#     Node 3, Type 0, BuildingBlock: KOZSID_clean_sbu_0, # of connection points: 4
#     Node 4, Type 0, BuildingBlock: KOZSID_clean_sbu_0, # of connection points: 4
#     Node 5, Type 0, BuildingBlock: KOZSID_clean_sbu_0, # of connection points: 4
#     Node 6, Type 0, BuildingBlock: KOZSID_clean_sbu_0, # of connection points: 4
#     Node 7, Type 0, BuildingBlock: KOZSID_clean_sbu_0, # of connection points: 4
#     Node 8, Type 0, BuildingBlock: KOZSID_clean_sbu_0, # of connection points: 4
#     Node 9, Type 0, BuildingBlock: KOZSID_clean_sbu_0, # of connection points: 4
#     Node 10, Type 0, BuildingBlock: KOZSID_clean_sbu_0, # of connection points: 4
#     Node 11, Type 0, BuildingBlock: KOZSID_clean_sbu_0, # of connection points: 4
#     Edge 12, Type (0, 0), BuildingBlock: TEMPAE_clean_linker_10, # of connection points: 2
#     Edge 13, Type (0, 0), BuildingBlock: TEMPAE_clean_linker_10, # of connection points: 2
#     Edge 14, Type (0, 0), BuildingBlock: TEMPAE_clean_linker_10, # of connection points: 2
#     Edge 15, Type (0, 0), BuildingBlock: TEMPAE_clean_linker_10, # of connection points: 2
#     Edge 16, Type (0, 0), BuildingBlock: TEMPAE_clean_linker_10, # of connection points: 2
#     Edge 17, Type (0, 0), BuildingBlock: TEMPAE_clean_linker_10, # of connection points: 2
#     Edge 18, Type (0, 0), BuildingBlock: TEMPAE_clean_linker_10, # of connection points: 2
#     Edge 19, Type (0, 0), BuildingBlock: TEMPAE_clean_linker_10, # of connection points: 2
#     Edge 20, Type (0, 0), BuildingBlock: TEMPAE_clean_linker_10, # of connection points: 2
#     Edge 21, Type (0, 0), BuildingBlock: TEMPAE_clean_linker_10, # of connection points: 2
#     Edge 22, Type (0, 0), BuildingBlock: TEMPAE_clean_linker_10, # of connection points: 2
#     Edge 23, Type (0, 0), BuildingBlock: TEMPAE_clean_linker_10, # of connection points: 2
#     Edge 24, Type (0, 0), BuildingBlock: TEMPAE_clean_linker_10, # of connection points: 2
#     Edge 25, Type (0, 0), BuildingBlock: TEMPAE_clean_linker_10, # of connection points: 2
#     Edge 26, Type (0, 0), BuildingBlock: TEMPAE_clean_linker_10, # of connection points: 2
#     Edge 27, Type (0, 0), BuildingBlock: TEMPAE_clean_linker_10, # of connection points: 2
#     Edge 28, Type (0, 0), BuildingBlock: TEMPAE_clean_linker_10, # of connection points: 2
#     Edge 29, Type (0, 0), BuildingBlock: TEMPAE_clean_linker_10, # of connection points: 2
#     Edge 30, Type (0, 0), BuildingBlock: TEMPAE_clean_linker_10, # of connection points: 2
#     Edge 31, Type (0, 0), BuildingBlock: TEMPAE_clean_linker_10, # of connection points: 2
#     Edge 32, Type (0, 0), BuildingBlock: TEMPAE_clean_linker_10, # of connection points: 2
#     Edge 33, Type (0, 0), BuildingBlock: TEMPAE_clean_linker_10, # of connection points: 2
#     Edge 34, Type (0, 0), BuildingBlock: TEMPAE_clean_linker_10, # of connection points: 2
#     Edge 35, Type (0, 0), BuildingBlock: TEMPAE_clean_linker_10, # of connection points: 2
# Relax obj value: 0.205
# Max RMSD: 0.233
# Mean RMSD: 0.232
data_MOF--net-umb--node1-KOZSID_clean_sbu_0--edge1-TEMPAE_clean_linker_10
_symmetry_space_group_name_H-M    P1
_symmetry_Int_Tables_number       1
_symmetry_cell_setting            triclinic
loop_
_symmetry_equiv_pos_as_xyz
'x, y, z'
_cell_length_a     62.093044
_cell_length_b     62.244653
_cell_length_c     42.659972
_cell_angle_alpha  89.998029
_cell_angle_beta   89.979564
_cell_angle_gamma 119.99393
loop_
_atom_site_label
_atom_site_type_symbol
_atom_site_fract_x
_atom_site_fract_y
_atom_site_fract_z
_atom_type_partial_charge
C0 C 0.57999 0.20719 0.24615 0.0
C1 C 0.59986 0.21379 0.22585 0.0
C2 C 0.61309 0.20316 0.23719 0.0
C3 C 0.60119 0.19104 0.26418 0.0
N4 N 0.58118 0.19331 0.27022 0.0
Co5 Co 0.56225 0.18392 0.31016 0.0
N6 N 0.58946 0.18353 0.33399 0.0
C7 C 0.60823 0.18173 0.32094 0.0
C8 C 0.62486 0.18258 0.34278 0.0
C9 C 0.61573 0.18462 0.37126 0.0
C10 C 0.59367 0.18455 0.36538 0.0
N11 N 0.54319 0.17552 0.34986 0.0
C12 C 0.55089 0.17708 0.38006 0.0
C13 C 0.53069 0.16799 0.40034 0.0
C14 C 0.50987 0.16046 0.38214 0.0
C15 C 0.51833 0.16523 0.35177 0.0
N16 N 0.53515 0.18394 0.28605 0.0
C17 C 0.51101 0.17183 0.29409 0.0
C18 C 0.49656 0.1756 0.27285 0.0
C19 C 0.51279 0.19126 0.25044 0.0
C20 C 0.53638 0.19646 0.25942 0.0
N21 N 0.54861 0.14805 0.30131 0.0
C22 C 0.53342 0.09746 0.29018 0.0
C23 C 0.53857 0.10743 0.32049 0.0
C24 C 0.54626 0.13248 0.32547 0.0
C25 C 0.53579 0.11348 0.26542 0.0
C26 C 0.54307 0.13857 0.27151 0.0
N27 N 0.57628 0.21924 0.31907 0.0
C28 C 0.57206 0.25542 0.32639 0.0
C29 C 0.59779 0.27086 0.32231 0.0
C30 C 0.61244 0.25975 0.3187 0.0
C31 C 0.60142 0.23421 0.31683 0.0
C32 C 0.56165 0.22952 0.32489 0.0
H33 H 0.6134 0.22672 0.31233 0.0
H34 H 0.54178 0.21786 0.32738 0.0
H35 H 0.55092 0.13929 0.34909 0.0
H36 H 0.54464 0.1504 0.25208 0.0
C37 C 0.61226 0.18461 0.2884 0.0
C38 C 0.55965 0.21329 0.2424 0.0
C39 C 0.57636 0.18378 0.3899 0.0
C40 C 0.50416 0.16302 0.32492 0.0
H41 H 0.60551 0.22596 0.20587 0.0
H42 H 0.63074 0.20613 0.22845 0.0
H43 H 0.64225 0.183 0.33847 0.0
H44 H 0.62454 0.18615 0.39364 0.0
H45 H 0.53086 0.16624 0.42556 0.0
H46 H 0.49088 0.15273 0.39018 0.0
H47 H 0.47688 0.16926 0.27459 0.0
H48 H 0.50793 0.19858 0.23035 0.0
H49 H 0.53741 0.09607 0.34037 0.0
H50 H 0.53191 0.10667 0.24156 0.0
H51 H 0.56007 0.26322 0.32979 0.0
H52 H 0.6325 0.27075 0.31678 0.0
C53 C 0.37466 0.56986 0.58339 0.0
C54 C 0.38717 0.58732 0.56021 0.0
C55 C 0.41134 0.60169 0.57047 0.0
C56 C 0.41233 0.5922 0.59927 0.0
N57 N 0.39032 0.57268 0.60735 0.0
Co58 Co 0.38224 0.55523 0.64813 0.0
N59 N 0.41023 0.58353 0.66985 0.0
C60 C 0.43012 0.60211 0.65539 0.0
C61 C 0.44618 0.61972 0.6761 0.0
C62 C 0.43588 0.6115 0.70526 0.0
C63 C 0.41412 0.58897 0.70094 0.0
N64 N 0.37326 0.53758 0.68882 0.0
C65 C 0.38015 0.54644 0.71843 0.0
C66 C 0.37016 0.52705 0.7399 0.0
C67 C 0.35662 0.50556 0.72305 0.0
C68 C 0.35915 0.51284 0.69224 0.0
N69 N 0.35439 0.52713 0.62603 0.0
C70 C 0.34233 0.50345 0.6358 0.0
C71 C 0.32243 0.4886 0.61685 0.0
C72 C 0.32193 0.50404 0.59409 0.0
C73 C 0.34168 0.52756 0.6003 0.0
N74 N 0.40475 0.54183 0.63913 0.0
C75 C 0.4404 0.52683 0.62792 0.0
C76 C 0.43642 0.53311 0.658 0.0
C77 C 0.41897 0.54075 0.663 0.0
C78 C 0.42582 0.528 0.6034 0.0
C79 C 0.40788 0.53519 0.60955 0.0
N80 N 0.36074 0.56894 0.65751 0.0
C81 C 0.32159 0.5645 0.67415 0.0
C82 C 0.33118 0.58998 0.67011 0.0
C83 C 0.35552 0.60456 0.65932 0.0
C84 C 0.3699 0.59375 0.65311 0.0
C85 C 0.33685 0.55431 0.66793 0.0
H86 H 0.3885 0.60556 0.64465 0.0
H87 H 0.32941 0.5347 0.67155 0.0
H88 H 0.41754 0.54635 0.68639 0.0
H89 H 0.39684 0.53578 0.59034 0.0
C90 C 0.43048 0.60473 0.62251 0.0
C91 C 0.34827 0.55011 0.58178 0.0
C92 C 0.39835 0.57245 0.72658 0.0
C93 C 0.34586 0.49777 0.66661 0.0
H94 H 0.37948 0.58968 0.53858 0.0
H95 H 0.42587 0.61823 0.55931 0.0
H96 H 0.46275 0.63711 0.67062 0.0
H97 H 0.44357 0.62122 0.72703 0.0
H98 H 0.37278 0.52821 0.76505 0.0
H99 H 0.34579 0.48694 0.73228 0.0
H100 H 0.30866 0.46931 0.62057 0.0
H101 H 0.30818 0.49867 0.57574 0.0
H102 H 0.44734 0.53287 0.67766 0.0
H103 H 0.42813 0.52324 0.5797 0.0
H104 H 0.30277 0.55274 0.68251 0.0
H105 H 0.36342 0.62434 0.65569 0.0
C106 C 0.80431 0.36441 0.91563 0.0
C107 C 0.79363 0.37392 0.89549 0.0
C108 C 0.79269 0.39248 0.91131 0.0
C109 C 0.80297 0.3934 0.94007 0.0
N110 N 0.81107 0.37707 0.94344 0.0
Co111 Co 0.82592 0.37195 0.98281 0.0
N112 N 0.82473 0.39961 1.00579 0.0
C113 C 0.81387 0.41229 0.99508 0.0
C114 C 0.81466 0.42945 0.01582 0.0
C115 C 0.82647 0.42742 0.04165 0.0
C116 C 0.83247 0.40916 0.03514 0.0
N117 N 0.84055 0.36664 0.02199 0.0
C118 C 0.84736 0.37934 0.04968 0.0
C119 C 0.85733 0.36926 0.07014 0.0
C120 C 0.85618 0.34927 0.0553 0.0
C121 C 0.8458 0.34833 0.02662 0.0
N122 N 0.82667 0.34404 0.95961 0.0
C123 C 0.83352 0.32846 0.97212 0.0
C124 C 0.83097 0.31015 0.95206 0.0
C125 C 0.82128 0.31378 0.9252 0.0
C126 C 0.8185 0.33429 0.93028 0.0
N127 N 0.8603 0.39621 0.96803 0.0
C128 C 0.9108 0.4339 0.95895 0.0
C129 C 0.9043 0.40924 0.96526 0.0
C130 C 0.87921 0.39088 0.96979 0.0
C131 C 0.8912 0.43883 0.9555 0.0
C132 C 0.86635 0.41985 0.9596 0.0
N133 N 0.79206 0.34848 0.99857 0.0
C134 C 0.74918 0.31827 0.98795 0.0
C135 C 0.74195 0.32244 0.01728 0.0
C136 C 0.76061 0.33784 0.03833 0.0
C137 C 0.78541 0.35048 0.02859 0.0
C138 C 0.77418 0.33119 0.97934 0.0
H139 H 0.79882 0.36257 0.04525 0.0
H140 H 0.77848 0.32764 0.95663 0.0
H141 H 0.87546 0.3726 0.97578 0.0
H142 H 0.85221 0.4248 0.95687 0.0
C143 C 0.8042 0.40847 0.96488 0.0
C144 C 0.80458 0.34138 0.9085 0.0
C145 C 0.8428 0.39956 0.05882 0.0
C146 C 0.84175 0.33126 1.00302 0.0
H147 H 0.78619 0.36726 0.8723 0.0
H148 H 0.78463 0.4034 0.90323 0.0
H149 H 0.80736 0.44187 0.01263 0.0
H150 H 0.82954 0.4378 0.06309 0.0
H151 H 0.86425 0.37545 0.09362 0.0
H152 H 0.86225 0.33692 0.06435 0.0
H153 H 0.83494 0.29538 0.95676 0.0
H154 H 0.81583 0.30192 0.9048 0.0
H155 H 0.91861 0.40428 0.96802 0.0
H156 H 0.89502 0.45738 0.9499 0.0
H157 H 0.73555 0.30635 0.97082 0.0
H158 H 0.75603 0.34102 0.06173 0.0
C159 C 0.44485 0.8074 0.2538 0.0
C160 C 0.42782 0.80366 0.23044 0.0
C161 C 0.41541 0.81581 0.2399 0.0
C162 C 0.42554 0.82635 0.26846 0.0
N163 N 0.44344 0.82152 0.27718 0.0
Co164 Co 0.46145 0.83126 0.31745 0.0
N165 N 0.43481 0.83436 0.33852 0.0
C166 C 0.41945 0.84014 0.32318 0.0
C167 C 0.40694 0.84734 0.34317 0.0
C168 C 0.41497 0.84587 0.37274 0.0
C169 C 0.43115 0.8366 0.36952 0.0
N170 N 0.47965 0.84038 0.3577 0.0
C171 C 0.47167 0.8415 0.38705 0.0
C172 C 0.49212 0.85525 0.40639 0.0
C173 C 0.51306 0.86106 0.38919 0.0
C174 C 0.50457 0.85165 0.35986 0.0
N175 N 0.48804 0.8284 0.29591 0.0
C176 C 0.51192 0.83955 0.30492 0.0
C177 C 0.52582 0.833 0.28628 0.0
C178 C 0.50949 0.81672 0.26438 0.0
C179 C 0.48646 0.81426 0.27079 0.0
N180 N 0.47725 0.86711 0.30619 0.0
C181 C 0.49416 0.91765 0.29187 0.0
C182 C 0.48863 0.90876 0.32259 0.0
C183 C 0.48007 0.88378 0.32912 0.0
C184 C 0.49145 0.90063 0.26826 0.0
C185 C 0.48337 0.87556 0.27598 0.0
N186 N 0.44529 0.79633 0.32896 0.0
C187 C 0.44649 0.76012 0.34637 0.0
C188 C 0.42062 0.74578 0.34303 0.0
C189 C 0.40752 0.75722 0.33241 0.0
C190 C 0.42012 0.78234 0.3255 0.0
C191 C 0.4585 0.78557 0.33952 0.0
H192 H 0.40944 0.79044 0.31695 0.0
H193 H 0.4784 0.79655 0.34252 0.0
H194 H 0.47493 0.87801 0.35297 0.0
H195 H 0.4815 0.86291 0.25743 0.0
C196 C 0.41591 0.83633 0.29045 0.0
C197 C 0.46351 0.79919 0.25241 0.0
C198 C 0.44534 0.8332 0.39542 0.0
C199 C 0.51884 0.85118 0.33444 0.0
H200 H 0.42474 0.7933 0.20894 0.0
H201 H 0.40003 0.81587 0.22805 0.0
H202 H 0.39381 0.8533 0.33705 0.0
H203 H 0.41031 0.85222 0.39389 0.0
H204 H 0.49219 0.86161 0.43 0.0
H205 H 0.53217 0.87125 0.39706 0.0
H206 H 0.54512 0.83819 0.28935 0.0
H207 H 0.51401 0.80752 0.24617 0.0
H208 H 0.49005 0.92095 0.34161 0.0
H209 H 0.49559 0.90663 0.2441 0.0
H210 H 0.4572 0.75182 0.35452 0.0
H211 H 0.38755 0.74668 0.32902 0.0
C212 C 0.6426 0.44042 0.58142 0.0
C213 C 0.62893 0.4238 0.55794 0.0
C214 C 0.60455 0.41134 0.56808 0.0
C215 C 0.60463 0.42106 0.59713 0.0
N216 N 0.6275 0.4389 0.60551 0.0
Co217 Co 0.63688 0.45577 0.64671 0.0
N218 N 0.60717 0.42902 0.66786 0.0
C219 C 0.58614 0.41273 0.65294 0.0
C220 C 0.56772 0.39735 0.67332 0.0
C221 C 0.57776 0.40461 0.70278 0.0
C222 C 0.60199 0.424 0.69887 0.0
N223 N 0.64731 0.47262 0.68794 0.0
C224 C 0.64026 0.46334 0.71742 0.0
C225 C 0.65463 0.48132 0.73946 0.0
C226 C 0.66994 0.50265 0.72325 0.0
C227 C 0.6647 0.49658 0.6922 0.0
N228 N 0.66634 0.4825 0.625 0.0
C229 C 0.68058 0.50583 0.63542 0.0
C230 C 0.70083 0.51954 0.61641 0.0
C231 C 0.6993 0.5037 0.59292 0.0
C232 C 0.67811 0.48112 0.59885 0.0
N233 N 0.61728 0.47254 0.63831 0.0
C234 C 0.5827 0.48899 0.62745 0.0
C235 C 0.58762 0.48391 0.65773 0.0
C236 C 0.60454 0.47558 0.66258 0.0
C237 C 0.59619 0.48638 0.60264 0.0
C238 C 0.61367 0.47856 0.60861 0.0
N239 N 0.65525 0.43853 0.65539 0.0
C240 C 0.69237 0.43805 0.67079 0.0
C241 C 0.68013 0.41229 0.6666 0.0
C242 C 0.65548 0.40012 0.65624 0.0
C243 C 0.64347 0.41348 0.6508 0.0
C244 C 0.67947 0.45085 0.6653 0.0
H245 H 0.62457 0.40344 0.64262 0.0
H246 H 0.68901 0.47063 0.66903 0.0
H247 H 0.60638 0.47062 0.68617 0.0
H248 H 0.62368 0.47668 0.58907 0.0
C249 C 0.5858 0.4102 0.62001 0.0
C250 C 0.66958 0.45848 0.57984 0.0
C251 C 0.61863 0.43862 0.72502 0.0
C252 C 0.67867 0.51135 0.66681 0.0
H253 H 0.6359 0.42082 0.53609 0.0
H254 H 0.58899 0.39592 0.55653 0.0
H255 H 0.54937 0.38228 0.66752 0.0
H256 H 0.56811 0.39677 0.72459 0.0
H257 H 0.65433 0.47946 0.76466 0.0
H258 H 0.68405 0.52014 0.73296 0.0
H259 H 0.71611 0.5381 0.62062 0.0
H260 H 0.71274 0.50806 0.57438 0.0
H261 H 0.5776 0.48536 0.67767 0.0
H262 H 0.59324 0.49028 0.57879 0.0
H263 H 0.71149 0.44807 0.67873 0.0
H264 H 0.64551 0.38028 0.65215 0.0
C265 C 0.20292 0.63803 0.91633 0.0
C266 C 0.20761 0.62548 0.89296 0.0
C267 C 0.19797 0.6014 0.90331 0.0
C268 C 0.18784 0.6005 0.93236 0.0
N269 N 0.19034 0.62247 0.94047 0.0
Co270 Co 0.18178 0.63082 0.98164 0.0
N271 N 0.18282 0.60317 1.00321 0.0
C272 C 0.18138 0.58328 0.98868 0.0
C273 C 0.18338 0.5674 0.00924 0.0
C274 C 0.18586 0.5778 0.03839 0.0
C275 C 0.18486 0.59944 0.03422 0.0
N276 N 0.17398 0.64014 0.0227 0.0
C277 C 0.17647 0.63343 0.05222 0.0
C278 C 0.16746 0.64358 0.07402 0.0
C279 C 0.15915 0.65698 0.05748 0.0
C280 C 0.16334 0.65423 0.02652 0.0
N281 N 0.18088 0.65833 0.9596 0.0
C282 C 0.1694 0.67043 0.96984 0.0
C283 C 0.17425 0.6903 0.95099 0.0
C284 C 0.18995 0.69076 0.92784 0.0
C285 C 0.19377 0.67101 0.9337 0.0
N286 N 0.14561 0.60809 0.97407 0.0
C287 C 0.09463 0.57139 0.9652 0.0
C288 C 0.10593 0.57645 0.99485 0.0
C289 C 0.13105 0.59423 0.99862 0.0
C290 C 0.10962 0.58614 0.94008 0.0
C291 C 0.13488 0.60442 0.94503 0.0
N292 N 0.21722 0.65251 0.98968 0.0
C293 C 0.25209 0.69194 1.00481 0.0
C294 C 0.26816 0.68267 0.99955 0.0
C295 C 0.25841 0.65829 0.98919 0.0
C296 C 0.23301 0.64358 0.98439 0.0
C297 C 0.2265 0.67641 0.99988 0.0
H298 H 0.22617 0.62493 0.97623 0.0
H299 H 0.21423 0.68367 1.00425 0.0
H300 H 0.13869 0.59623 0.02175 0.0
H301 H 0.14589 0.61517 0.92526 0.0
C302 C 0.1829 0.58264 0.95572 0.0
C303 C 0.20966 0.66441 0.91483 0.0
C304 C 0.18424 0.61513 0.06003 0.0
C305 C 0.1609 0.66719 1.00099 0.0
H306 H 0.21746 0.6331 0.87118 0.0
H307 H 0.19998 0.58691 0.89207 0.0
H308 H 0.18415 0.55084 1.00363 0.0
H309 H 0.18823 0.57023 0.06006 0.0
H310 H 0.16638 0.6411 0.09919 0.0
H311 H 0.15144 0.66782 0.067 0.0
H312 H 0.16887 0.70414 0.95508 0.0
H313 H 0.19821 0.70456 0.90956 0.0
H314 H 0.09556 0.56666 0.01551 0.0
H315 H 0.10219 0.58329 0.91655 0.0
H316 H 0.25917 0.71075 0.01301 0.0
H317 H 0.27043 0.65061 0.9849 0.0
C318 C 0.81069 0.44063 0.43356 0.0
C319 C 0.80631 0.42327 0.45664 0.0
C320 C 0.81702 0.40975 0.44637 0.0
C321 C 0.82743 0.41962 0.41766 0.0
N322 N 0.82408 0.43859 0.40962 0.0
Co323 Co 0.83295 0.45612 0.36882 0.0
N324 N 0.83443 0.4287 0.34712 0.0
C325 C 0.83676 0.41076 0.36172 0.0
C326 C 0.83698 0.39395 0.3411 0.0
C327 C 0.83509 0.40205 0.31183 0.0
C328 C 0.83415 0.42372 0.31602 0.0
N329 N 0.84086 0.47374 0.32803 0.0
C330 C 0.84004 0.46526 0.29839 0.0
C331 C 0.84849 0.48465 0.27701 0.0
C332 C 0.85481 0.50578 0.29388 0.0
C333 C 0.85005 0.4983 0.3246 0.0
N334 N 0.83176 0.48348 0.39104 0.0
C335 C 0.84234 0.5071 0.38118 0.0
C336 C 0.83647 0.52131 0.40013 0.0
C337 C 0.82106 0.50551 0.42301 0.0
C338 C 0.81843 0.48244 0.41689 0.0
N339 N 0.86906 0.4711 0.37794 0.0
C340 C 0.91985 0.48707 0.38978 0.0
C341 C 0.91007 0.48149 0.35943 0.0
C342 C 0.8849 0.47335 0.35411 0.0
C343 C 0.90363 0.48492 0.41422 0.0
C344 C 0.87845 0.4773 0.40775 0.0
N345 N 0.79742 0.44076 0.3597 0.0
C346 C 0.76044 0.44348 0.35116 0.0
C347 C 0.74549 0.41792 0.35665 0.0
C348 C 0.7573 0.40403 0.36158 0.0
C349 C 0.78299 0.41572 0.36339 0.0
C350 C 0.78646 0.45452 0.35248 0.0
H351 H 0.79103 0.4044 0.36897 0.0
H352 H 0.79766 0.47426 0.34876 0.0
H353 H 0.87825 0.46816 0.33052 0.0
H354 H 0.86644 0.47589 0.42694 0.0
C355 C 0.83413 0.40791 0.39454 0.0
C356 C 0.80311 0.45967 0.4354 0.0
C357 C 0.83476 0.43997 0.29019 0.0
C358 C 0.85113 0.51299 0.35025 0.0
H359 H 0.79609 0.42043 0.47825 0.0
H360 H 0.81572 0.39351 0.45749 0.0
H361 H 0.83737 0.37718 0.34668 0.0
H362 H 0.83447 0.39293 0.29001 0.0
H363 H 0.85062 0.48383 0.25194 0.0
H364 H 0.86176 0.52432 0.28474 0.0
H365 H 0.84102 0.54031 0.39629 0.0
H366 H 0.81217 0.51035 0.44127 0.0
H367 H 0.92165 0.48254 0.33982 0.0
H368 H 0.91035 0.48916 0.4381 0.0
H369 H 0.7522 0.45494 0.34673 0.0
H370 H 0.74678 0.38408 0.36451 0.0
C371 C 0.37051 0.80312 0.76868 0.0
C372 C 0.38331 0.79879 0.7921 0.0
C373 C 0.40754 0.80887 0.78183 0.0
C374 C 0.40827 0.81887 0.75275 0.0
N375 N 0.38604 0.81582 0.74454 0.0
Co376 Co 0.3776 0.82434 0.70343 0.0
N377 N 0.40579 0.82412 0.68208 0.0
C378 C 0.42616 0.82663 0.69662 0.0
C379 C 0.44307 0.82652 0.6759 0.0
C380 C 0.4327 0.82403 0.64665 0.0
C381 C 0.40991 0.82268 0.65107 0.0
N382 N 0.36829 0.83217 0.66238 0.0
C383 C 0.37515 0.82975 0.63292 0.0
C384 C 0.36409 0.83758 0.6109 0.0
C385 C 0.35024 0.84547 0.62729 0.0
C386 C 0.35347 0.84198 0.65835 0.0
N387 N 0.34952 0.82445 0.72523 0.0
C388 C 0.33699 0.83547 0.71493 0.0
C389 C 0.31705 0.83041 0.73387 0.0
C390 C 0.31701 0.81507 0.75716 0.0
C391 C 0.33703 0.81162 0.75123 0.0
N392 N 0.39977 0.86042 0.71155 0.0
C393 C 0.43677 0.91089 0.7217 0.0
C394 C 0.43205 0.90009 0.6918 0.0
C395 C 0.41396 0.87522 0.68735 0.0
C396 C 0.42145 0.89583 0.74635 0.0
C397 C 0.40307 0.87076 0.74078 0.0
N398 N 0.3566 0.78897 0.69485 0.0
C399 C 0.31826 0.75378 0.67728 0.0
C400 C 0.32851 0.73843 0.68151 0.0
C401 C 0.35265 0.74866 0.69321 0.0
C402 C 0.36629 0.77381 0.69976 0.0
C403 C 0.33278 0.7792 0.68392 0.0
H404 H 0.38486 0.78101 0.70862 0.0
H405 H 0.3249 0.79098 0.68001 0.0
H406 H 0.41212 0.86789 0.66406 0.0
H407 H 0.392 0.85956 0.76024 0.0
C408 C 0.42663 0.8248 0.72959 0.0
C409 C 0.34398 0.79615 0.77022 0.0
C410 C 0.39379 0.82237 0.62539 0.0
C411 C 0.34008 0.84391 0.68378 0.0
H412 H 0.3758 0.78902 0.81394 0.0
H413 H 0.42232 0.8074 0.79322 0.0
H414 H 0.46047 0.82734 0.68138 0.0
H415 H 0.44108 0.82357 0.62459 0.0
H416 H 0.36602 0.83786 0.58567 0.0
H417 H 0.33859 0.85219 0.6176 0.0
H418 H 0.30296 0.83548 0.72982 0.0
H419 H 0.30336 0.8068 0.77565 0.0
H420 H 0.44245 0.91071 0.67157 0.0
H421 H 0.42405 0.90304 0.76997 0.0
H422 H 0.29956 0.74635 0.66828 0.0
H423 H 0.36104 0.73723 0.69708 0.0
C424 C 0.57739 0.37599 0.09885 0.0
C425 C 0.59793 0.38991 0.1179 0.0
C426 C 0.61055 0.41343 0.10541 0.0
C427 C 0.59759 0.4128 0.07904 0.0
N428 N 0.57754 0.39032 0.07446 0.0
Co429 Co 0.55703 0.37968 0.03587 0.0
N430 N 0.5833 0.40637 0.01014 0.0
C431 C 0.60186 0.42769 0.02185 0.0
C432 C 0.61634 0.44393 0.99885 0.0
C433 C 0.60605 0.43213 0.97103 0.0
C434 C 0.58589 0.40906 0.97852 0.0
N435 N 0.53647 0.36798 0.99738 0.0
C436 C 0.54334 0.37226 0.96666 0.0
C437 C 0.52289 0.35802 0.94762 0.0
C438 C 0.50265 0.34568 0.96702 0.0
C439 C 0.51172 0.35244 0.9969 0.0
N440 N 0.53092 0.35345 0.06205 0.0
C441 C 0.50651 0.34108 0.05549 0.0
C442 C 0.49298 0.32354 0.07788 0.0
C443 C 0.5101 0.32488 0.09945 0.0
C444 C 0.53327 0.34299 0.08882 0.0
N445 N 0.54389 0.40232 0.04491 0.0
C446 C 0.53099 0.43954 0.05588 0.0
C447 C 0.53452 0.43329 0.02547 0.0
C448 C 0.54095 0.41498 0.02056 0.0
C449 C 0.53302 0.42571 0.08076 0.0
C450 C 0.53943 0.40722 0.07479 0.0
N451 N 0.57047 0.358 0.0265 0.0
C452 C 0.56528 0.31754 0.01669 0.0
C453 C 0.59108 0.3277 0.01735 0.0
C454 C 0.60628 0.35312 0.02231 0.0
C455 C 0.59567 0.36787 0.027 0.0
C456 C 0.5553 0.33318 0.0209 0.0
H457 H 0.60794 0.38725 0.03173 0.0
H458 H 0.53538 0.32519 0.02016 0.0
H459 H 0.54423 0.41168 0.99675 0.0
H460 H 0.54138 0.39731 0.09438 0.0
C461 C 0.60731 0.42983 0.05409 0.0
C462 C 0.55723 0.34974 0.10423 0.0
C463 C 0.56838 0.39126 0.95521 0.0
C464 C 0.4986 0.34151 0.02475 0.0
H465 H 0.60429 0.38407 0.13785 0.0
H466 H 0.62837 0.42846 0.11307 0.0
H467 H 0.6328 0.46193 1.00187 0.0
H468 H 0.61246 0.4399 0.94793 0.0
H469 H 0.52238 0.35646 0.92238 0.0
H470 H 0.48379 0.33246 0.96014 0.0
H471 H 0.47333 0.31 0.07734 0.0
H472 H 0.50612 0.31326 0.11997 0.0
H473 H 0.53249 0.44262 1.00522 0.0
H474 H 0.53042 0.4296 0.10476 0.0
H475 H 0.55306 0.29786 0.01292 0.0
H476 H 0.62634 0.36148 0.02325 0.0
C477 C 0.2091 0.57011 0.43518 0.0
C478 C 0.21382 0.58722 0.45873 0.0
C479 C 0.20389 0.60154 0.44884 0.0
C480 C 0.19358 0.59237 0.41987 0.0
N481 N 0.19628 0.57309 0.41133 0.0
Co482 Co 0.18709 0.55613 0.3702 0.0
N483 N 0.18712 0.58453 0.34915 0.0
C484 C 0.18567 0.60283 0.36409 0.0
C485 C 0.18689 0.62053 0.34379 0.0
C486 C 0.18887 0.61264 0.31439 0.0
C487 C 0.18838 0.59022 0.31816 0.0
N488 N 0.17859 0.53896 0.32915 0.0
C489 C 0.18022 0.54805 0.29973 0.0
C490 C 0.17093 0.52888 0.27796 0.0
C491 C 0.16334 0.50729 0.29441 0.0
C492 C 0.16821 0.51429 0.32529 0.0
N493 N 0.18711 0.52794 0.39166 0.0
C494 C 0.17572 0.50439 0.38141 0.0
C495 C 0.1809 0.48945 0.39995 0.0
C496 C 0.19668 0.50469 0.42298 0.0
C497 C 0.20022 0.52818 0.41733 0.0
N498 N 0.15112 0.54226 0.37923 0.0
C499 C 0.10031 0.52653 0.39057 0.0
C500 C 0.11061 0.53333 0.36055 0.0
C501 C 0.13577 0.54131 0.3555 0.0
C502 C 0.11609 0.52755 0.41496 0.0
C503 C 0.14131 0.53512 0.40873 0.0
N504 N 0.2224 0.57032 0.36083 0.0
C505 C 0.25743 0.56646 0.34415 0.0
C506 C 0.27321 0.59185 0.34916 0.0
C507 C 0.26324 0.60613 0.36019 0.0
C508 C 0.23792 0.59507 0.36588 0.0
C509 C 0.23188 0.55602 0.34997 0.0
H510 H 0.23094 0.60664 0.37458 0.0
H511 H 0.2198 0.53645 0.3458 0.0
H512 H 0.14282 0.54729 0.33219 0.0
H513 H 0.15297 0.53559 0.42782 0.0
C514 C 0.18788 0.60506 0.39699 0.0
C515 C 0.21593 0.55052 0.43636 0.0
C516 C 0.18746 0.574 0.29207 0.0
C517 C 0.16658 0.49902 0.35056 0.0
H518 H 0.22379 0.58939 0.48038 0.0
H519 H 0.20571 0.61785 0.46038 0.0
H520 H 0.18747 0.63772 0.3497 0.0
H521 H 0.19058 0.62247 0.29281 0.0
H522 H 0.16921 0.53021 0.25289 0.0
H523 H 0.15566 0.48877 0.28487 0.0
H524 H 0.17556 0.47027 0.3958 0.0
H525 H 0.20511 0.4992 0.44111 0.0
H526 H 0.0994 0.53321 0.34102 0.0
H527 H 0.10898 0.5224 0.43859 0.0
H528 H 0.26468 0.55496 0.3355 0.0
H529 H 0.27503 0.62584 0.36439 0.0
C530 C 0.64497 0.20134 0.76453 0.0
C531 C 0.63341 0.20662 0.78865 0.0
C532 C 0.60903 0.19739 0.77958 0.0
C533 C 0.60697 0.1869 0.75049 0.0
N534 N 0.62851 0.18882 0.74115 0.0
Co535 Co 0.63517 0.17938 0.69953 0.0
N536 N 0.60711 0.18078 0.67955 0.0
C537 C 0.58789 0.18005 0.69516 0.0
C538 C 0.57157 0.1822 0.67549 0.0
C539 C 0.58096 0.18403 0.6458 0.0
C540 C 0.60247 0.18255 0.64877 0.0
N541 N 0.64269 0.17049 0.65802 0.0
C542 C 0.63509 0.1727 0.62893 0.0
C543 C 0.64403 0.16286 0.60657 0.0
C544 C 0.6576 0.15436 0.62233 0.0
C545 C 0.65615 0.15925 0.6534 0.0
N546 N 0.66318 0.17819 0.71989 0.0
C547 C 0.67449 0.16612 0.70899 0.0
C548 C 0.69482 0.17069 0.72682 0.0
C549 C 0.69639 0.1868 0.75003 0.0
C550 C 0.67683 0.19115 0.74518 0.0
N551 N 0.61215 0.1436 0.70845 0.0
C552 C 0.575 0.09338 0.71984 0.0
C553 C 0.5785 0.1042 0.69006 0.0
C554 C 0.5967 0.12895 0.68501 0.0
C555 C 0.59147 0.10834 0.7437 0.0
C556 C 0.60989 0.13329 0.73752 0.0
N557 N 0.65713 0.21449 0.69021 0.0
C558 C 0.69592 0.24842 0.67142 0.0
C559 C 0.68733 0.26491 0.67761 0.0
C560 C 0.66366 0.25585 0.69036 0.0
C561 C 0.6489 0.2307 0.69641 0.0
C562 C 0.6804 0.2231 0.67789 0.0
H563 H 0.63072 0.22439 0.70613 0.0
H564 H 0.68712 0.21048 0.67288 0.0
H565 H 0.59774 0.13629 0.66189 0.0
H566 H 0.62193 0.1444 0.75639 0.0
C567 C 0.5884 0.18204 0.72814 0.0
C568 C 0.67125 0.20748 0.76458 0.0
C569 C 0.61714 0.18117 0.62215 0.0
C570 C 0.6699 0.15697 0.67812 0.0
H571 H 0.64188 0.21658 0.81009 0.0
H572 H 0.59509 0.19986 0.79167 0.0
H573 H 0.55539 0.18347 0.68201 0.0
H574 H 0.57282 0.18631 0.62456 0.0
H575 H 0.64065 0.16143 0.58157 0.0
H576 H 0.66775 0.1461 0.6122 0.0
H577 H 0.70816 0.16473 0.72206 0.0
H578 H 0.71072 0.19491 0.76775 0.0
H579 H 0.56714 0.09367 0.67037 0.0
H580 H 0.5898 0.10111 0.76719 0.0
H581 H 0.71417 0.25496 0.66137 0.0
H582 H 0.6565 0.26821 0.69535 0.0
C583 C 0.44325 0.64192 0.10228 0.0
C584 C 0.42659 0.6293 0.12623 0.0
C585 C 0.41246 0.60502 0.11647 0.0
C586 C 0.42129 0.60408 0.08717 0.0
N587 N 0.44018 0.62622 0.07829 0.0
Co588 Co 0.45662 0.63412 0.03676 0.0
N589 N 0.42816 0.60538 0.01624 0.0
C590 C 0.41024 0.58552 0.0315 0.0
C591 C 0.39241 0.56877 0.01153 0.0
C592 C 0.39981 0.57857 0.982 0.0
C593 C 0.42209 0.60076 0.98536 0.0
N594 N 0.47332 0.64284 0.99537 0.0
C595 C 0.46391 0.63511 0.96612 0.0
C596 C 0.48287 0.64514 0.94398 0.0
C597 C 0.50464 0.65954 0.95999 0.0
C598 C 0.49796 0.65746 0.991 0.0
N599 N 0.48483 0.66278 0.05765 0.0
C600 C 0.50828 0.67531 0.04685 0.0
C601 C 0.52324 0.6956 0.0651 0.0
C602 C 0.50814 0.69585 0.08855 0.0
C603 C 0.4847 0.67555 0.08346 0.0
N604 N 0.47118 0.61262 0.04536 0.0
C605 C 0.48569 0.57659 0.0565 0.0
C606 C 0.4785 0.58008 0.02667 0.0
C607 C 0.47131 0.5978 0.0217 0.0
C608 C 0.48654 0.59261 0.08053 0.0
C609 C 0.47925 0.61047 0.07448 0.0
N610 N 0.44159 0.65449 0.02768 0.0
C611 C 0.44353 0.69166 1.00767 0.0
C612 C 0.41791 0.68117 0.0124 0.0
C613 C 0.40467 0.65762 0.02586 0.0
C614 C 0.41677 0.64468 0.03331 0.0
C615 C 0.45506 0.67785 0.01534 0.0
H616 H 0.40585 0.62649 0.04331 0.0
H617 H 0.47472 0.68586 0.01094 0.0
H618 H 0.4651 0.59881 0.99852 0.0
H619 H 0.4795 0.62207 0.09349 0.0
C620 C 0.40849 0.58556 0.06447 0.0
C621 C 0.46256 0.66846 0.10326 0.0
C622 C 0.43792 0.6161 0.95897 0.0
C623 C 0.51343 0.67149 0.01593 0.0
H624 H 0.42459 0.63696 0.14809 0.0
H625 H 0.39646 0.59033 0.12836 0.0
H626 H 0.37545 0.55198 0.01775 0.0
H627 H 0.38978 0.57023 0.96059 0.0
H628 H 0.48129 0.64195 0.91894 0.0
H629 H 0.52304 0.67059 0.95009 0.0
H630 H 0.54232 0.70969 0.06053 0.0
H631 H 0.51369 0.7098 0.10663 0.0
H632 H 0.47816 0.56897 1.00694 0.0
H633 H 0.49206 0.59089 0.10404 0.0
H634 H 0.45433 0.70994 0.99741 0.0
H635 H 0.38489 0.64908 0.03034 0.0
C636 C 0.58106 0.20084 0.44499 0.0
C637 C 0.58221 0.18389 0.42431 0.0
C638 C 0.58613 0.20093 0.47734 0.0
C639 C 0.59307 0.184 0.48946 0.0
C640 C 0.59413 0.16678 0.46863 0.0
C641 C 0.58813 0.16654 0.43667 0.0
C642 C 0.58385 0.21904 0.49863 0.0
C643 C 0.60183 0.14864 0.48003 0.0
C644 C 0.62879 0.19906 0.56743 0.0
C645 C 0.61049 0.18279 0.58849 0.0
C646 C 0.62343 0.19969 0.53535 0.0
C647 C 0.59897 0.18404 0.52385 0.0
C648 C 0.58035 0.16781 0.54516 0.0
C649 C 0.58645 0.16696 0.57686 0.0
C650 C 0.64414 0.21672 0.51357 0.0
C651 C 0.55392 0.1511 0.53443 0.0
H652 H 0.57604 0.21399 0.43581 0.0
H653 H 0.58819 0.15277 0.42119 0.0
H654 H 0.57052 0.20886 0.51783 0.0
H655 H 0.60206 0.23166 0.50966 0.0
H656 H 0.57743 0.2304 0.48592 0.0
H657 H 0.60328 0.13754 0.46061 0.0
H658 H 0.62008 0.15872 0.49208 0.0
H659 H 0.58814 0.13575 0.49734 0.0
H660 H 0.64751 0.21103 0.57604 0.0
H661 H 0.57238 0.15365 0.59255 0.0
H662 H 0.6394 0.22979 0.50203 0.0
H663 H 0.64642 0.20568 0.49478 0.0
H664 H 0.66216 0.2276 0.52598 0.0
H665 H 0.54116 0.14134 0.5543 0.0
H666 H 0.55319 0.13701 0.51788 0.0
H667 H 0.54706 0.16205 0.5217 0.0
C668 C 0.38518 0.57782 0.78085 0.0
C669 C 0.40397 0.5798 0.76066 0.0
C670 C 0.38967 0.58335 0.81316 0.0
C671 C 0.41373 0.59165 0.82577 0.0
C672 C 0.43279 0.5938 0.80539 0.0
C673 C 0.42753 0.58729 0.77345 0.0
C674 C 0.3685 0.57987 0.83395 0.0
C675 C 0.45884 0.60297 0.81731 0.0
C676 C 0.43134 0.62707 0.90401 0.0
C677 C 0.43021 0.60925 0.92517 0.0
C678 C 0.42609 0.62167 0.87179 0.0
C679 C 0.4189 0.59761 0.86025 0.0
C680 C 0.41738 0.57943 0.88166 0.0
C681 C 0.4236 0.58562 0.91351 0.0
C682 C 0.42883 0.64194 0.84993 0.0
C683 C 0.40934 0.5534 0.87089 0.0
H684 H 0.3668 0.57158 0.77136 0.0
H685 H 0.44193 0.58794 0.75844 0.0
H686 H 0.36572 0.56661 0.85305 0.0
H687 H 0.37305 0.59773 0.84514 0.0
H688 H 0.35079 0.5728 0.82082 0.0
H689 H 0.47202 0.60555 0.79811 0.0
H690 H 0.46574 0.6209 0.82973 0.0
H691 H 0.45882 0.58955 0.83441 0.0
H692 H 0.43688 0.6455 0.91265 0.0
H693 H 0.42357 0.57197 0.92929 0.0
H694 H 0.41095 0.63626 0.8379 0.0
H695 H 0.44276 0.6451 0.83153 0.0
H696 H 0.43477 0.65972 0.86238 0.0
H697 H 0.4068 0.54082 0.89078 0.0
H698 H 0.42348 0.55365 0.85476 0.0
H699 H 0.3916 0.54565 0.8577 0.0
C700 C 0.85458 0.42884 0.24562 0.0
C701 C 0.83592 0.43356 0.25626 0.0
C702 C 0.85597 0.42306 0.21392 0.0
C703 C 0.83892 0.42296 0.19167 0.0
C704 C 0.82049 0.42847 0.20213 0.0
C705 C 0.81909 0.43346 0.23419 0.0
C706 C 0.87566 0.41692 0.20428 0.0
C707 C 0.80233 0.42931 0.17937 0.0
C708 C 0.85725 0.42989 0.1045 0.0
C709 C 0.84253 0.40563 0.09313 0.0
C710 C 0.85605 0.43585 0.13622 0.0
C711 C 0.8403 0.41698 0.1576 0.0
C712 C 0.82588 0.39232 0.14633 0.0
C713 C 0.82692 0.38704 0.11434 0.0
C714 C 0.87138 0.46247 0.14674 0.0
C715 C 0.80929 0.37142 0.16812 0.0
H716 H 0.8682 0.42968 0.2622 0.0
H717 H 0.80489 0.43751 0.24205 0.0
H718 H 0.86686 0.39849 0.19271 0.0
H719 H 0.88843 0.43072 0.18698 0.0
H720 H 0.88678 0.41669 0.22453 0.0
H721 H 0.78973 0.43477 0.19087 0.0
H722 H 0.81259 0.4427 0.16029 0.0
H723 H 0.79088 0.41085 0.16834 0.0
H724 H 0.86945 0.44434 0.08836 0.0
H725 H 0.81539 0.36826 0.10581 0.0
H726 H 0.88463 0.46404 0.16524 0.0
H727 H 0.8591 0.46879 0.15711 0.0
H728 H 0.88205 0.47511 0.12715 0.0
H729 H 0.82033 0.37061 0.18808 0.0
H730 H 0.80008 0.35313 0.15612 0.0
H731 H 0.79473 0.3748 0.17801 0.0
C732 C 0.41115 0.82051 0.43779 0.0
C733 C 0.43529 0.8258 0.42912 0.0
C734 C 0.40365 0.81834 0.4695 0.0
C735 C 0.41988 0.8197 0.49371 0.0
C736 C 0.44268 0.82132 0.48515 0.0
C737 C 0.4496 0.82346 0.45323 0.0
C738 C 0.37851 0.81525 0.4771 0.0
C739 C 0.46019 0.82152 0.50983 0.0
C740 C 0.41414 0.84348 0.57453 0.0
C741 C 0.40077 0.82151 0.59182 0.0
C742 C 0.42046 0.84307 0.54283 0.0
C743 C 0.41337 0.82013 0.52779 0.0
C744 C 0.40011 0.79787 0.5454 0.0
C745 C 0.39402 0.79885 0.57714 0.0
C746 C 0.43467 0.86728 0.52532 0.0
C747 C 0.39205 0.77294 0.53067 0.0
H748 H 0.39762 0.81768 0.4201 0.0
H749 H 0.46635 0.82311 0.44757 0.0
H750 H 0.36746 0.79821 0.49119 0.0
H751 H 0.38089 0.83116 0.49148 0.0
H752 H 0.36779 0.81414 0.45572 0.0
H753 H 0.47691 0.82213 0.4995 0.0
H754 H 0.46635 0.83794 0.52523 0.0
H755 H 0.45051 0.80481 0.52489 0.0
H756 H 0.41955 0.86104 0.58588 0.0
H757 H 0.38374 0.78185 0.59047 0.0
H758 H 0.42369 0.8673 0.50481 0.0
H759 H 0.45237 0.86936 0.51626 0.0
H760 H 0.43898 0.88355 0.54029 0.0
H761 H 0.37782 0.76906 0.51245 0.0
H762 H 0.38404 0.75766 0.54814 0.0
H763 H 0.40797 0.77295 0.51889 0.0
C764 C 0.55894 0.39924 0.8996 0.0
C765 C 0.57453 0.39602 0.9206 0.0
C766 C 0.56484 0.40408 0.86746 0.0
C767 C 0.58816 0.40825 0.85606 0.0
C768 C 0.6045 0.40608 0.87754 0.0
C769 C 0.59714 0.39923 0.90903 0.0
C770 C 0.54582 0.40487 0.84621 0.0
C771 C 0.63006 0.41132 0.86786 0.0
C772 C 0.60492 0.40709 0.76921 0.0
C773 C 0.61068 0.43074 0.75865 0.0
C774 C 0.59679 0.39919 0.80026 0.0
C775 C 0.59579 0.41585 0.8223 0.0
C776 C 0.60197 0.43993 0.81171 0.0
C777 C 0.60806 0.4465 0.77995 0.0
C778 C 0.58924 0.37283 0.80885 0.0
C779 C 0.60237 0.45923 0.83355 0.0
H780 H 0.54202 0.39817 0.90822 0.0
H781 H 0.60958 0.39717 0.925 0.0
H782 H 0.54691 0.42313 0.84866 0.0
H783 H 0.54848 0.40187 0.82121 0.0
H784 H 0.52674 0.39052 0.85332 0.0
H785 H 0.64317 0.41831 0.88798 0.0
H786 H 0.62889 0.39382 0.85984 0.0
H787 H 0.63792 0.42511 0.8486 0.0
H788 H 0.60637 0.39448 0.75294 0.0
H789 H 0.61112 0.46434 0.77194 0.0
H790 H 0.57671 0.36599 0.82949 0.0
H791 H 0.60616 0.37172 0.81401 0.0
H792 H 0.57972 0.36018 0.78881 0.0
H793 H 0.58438 0.45888 0.83187 0.0
H794 H 0.61716 0.47812 0.82655 0.0
H795 H 0.60555 0.45615 0.85833 0.0
C796 C 0.20473 0.58 0.23696 0.0
C797 C 0.18818 0.58141 0.25817 0.0
C798 C 0.20471 0.58541 0.20477 0.0
C799 C 0.18808 0.59302 0.19332 0.0
C800 C 0.17149 0.5947 0.21474 0.0
C801 C 0.17133 0.58832 0.24656 0.0
C802 C 0.22215 0.58249 0.18287 0.0
C803 C 0.15374 0.60314 0.20406 0.0
C804 C 0.20271 0.62752 0.11445 0.0
C805 C 0.1858 0.60913 0.09401 0.0
C806 C 0.20359 0.62264 0.14667 0.0
C807 C 0.18754 0.59857 0.15891 0.0
C808 C 0.17055 0.57989 0.13826 0.0
C809 C 0.16948 0.58554 0.10643 0.0
C810 C 0.22141 0.64341 0.16775 0.0
C811 C 0.15338 0.55385 0.14978 0.0
H812 H 0.21749 0.57423 0.24556 0.0
H813 H 0.15781 0.58859 0.26238 0.0
H814 H 0.21132 0.56891 0.16421 0.0
H815 H 0.23469 0.6004 0.17117 0.0
H816 H 0.23367 0.57608 0.19522 0.0
H817 H 0.14358 0.60554 0.22395 0.0
H818 H 0.16401 0.62102 0.19128 0.0
H819 H 0.13994 0.58938 0.18756 0.0
H820 H 0.21506 0.64592 0.10524 0.0
H821 H 0.1557 0.57143 0.09121 0.0
H822 H 0.23451 0.63848 0.17884 0.0
H823 H 0.21097 0.64622 0.18692 0.0
H824 H 0.23233 0.66118 0.15488 0.0
H825 H 0.14274 0.54097 0.13039 0.0
H826 H 0.13999 0.5539 0.16695 0.0
H827 H 0.16421 0.5466 0.16203 0.0
C828 C 0.70469 0.38459 0.37691 0.0
C829 C 0.71778 0.4049 0.35682 0.0
C830 C 0.67976 0.36707 0.37139 0.0
C831 C 0.66698 0.37091 0.34642 0.0
C832 C 0.67882 0.39385 0.33009 0.0
C833 C 0.70437 0.41036 0.33486 0.0
C834 C 0.66812 0.34338 0.39039 0.0
C835 C 0.66527 0.40047 0.3061 0.0
C836 C 0.63044 0.31162 0.3017 0.0
C837 C 0.6103 0.29842 0.32205 0.0
C838 C 0.64815 0.33638 0.30753 0.0
C839 C 0.64465 0.34887 0.33311 0.0
C840 C 0.6218 0.33697 0.34979 0.0
C841 C 0.60508 0.31156 0.34463 0.0
C842 C 0.67176 0.34805 0.28823 0.0
C843 C 0.61554 0.35024 0.37456 0.0
H844 H 0.71455 0.38122 0.39548 0.0
H845 H 0.71397 0.42657 0.31999 0.0
H846 H 0.65258 0.34213 0.40455 0.0
H847 H 0.66055 0.32694 0.37475 0.0
H848 H 0.68157 0.34243 0.4067 0.0
H849 H 0.66801 0.41913 0.3115 0.0
H850 H 0.67341 0.40174 0.28253 0.0
H851 H 0.64501 0.387 0.30541 0.0
H852 H 0.63365 0.30183 0.28288 0.0
H853 H 0.58899 0.30179 0.35972 0.0
H854 H 0.68834 0.35521 0.30365 0.0
H855 H 0.67312 0.36385 0.27467 0.0
H856 H 0.67242 0.33479 0.27136 0.0
H857 H 0.61442 0.34176 0.39783 0.0
H858 H 0.59686 0.34775 0.36972 0.0
H859 H 0.62918 0.37041 0.37561 0.0
C860 C 0.29537 0.69461 0.69147 0.0
C861 C 0.31523 0.7119 0.67317 0.0
C862 C 0.28825 0.66931 0.69044 0.0
C863 C 0.30184 0.6616 0.67135 0.0
C864 C 0.3199 0.6787 0.6502 0.0
C865 C 0.32623 0.70363 0.65127 0.0
C866 C 0.2679 0.65148 0.712 0.0
C867 C 0.33486 0.67146 0.62921 0.0
C868 C 0.32639 0.62114 0.70017 0.0
C869 C 0.31688 0.6024 0.67753 0.0
C870 C 0.3193 0.63921 0.70078 0.0
C871 C 0.30204 0.63827 0.67829 0.0
C872 C 0.28988 0.61743 0.65819 0.0
C873 C 0.29772 0.59977 0.65774 0.0
C874 C 0.33272 0.66093 0.72287 0.0
C875 C 0.27042 0.61495 0.63506 0.0
H876 H 0.28681 0.70107 0.70836 0.0
H877 H 0.34149 0.71713 0.63702 0.0
H878 H 0.25845 0.63232 0.70248 0.0
H879 H 0.27599 0.65131 0.73512 0.0
H880 H 0.25388 0.65732 0.71591 0.0
H881 H 0.3468 0.68647 0.61256 0.0
H882 H 0.347 0.6671 0.64377 0.0
H883 H 0.32238 0.65462 0.61553 0.0
H884 H 0.34115 0.62296 0.71551 0.0
H885 H 0.29035 0.58518 0.64023 0.0
H886 H 0.31927 0.66455 0.73551 0.0
H887 H 0.34526 0.67787 0.70927 0.0
H888 H 0.34406 0.6578 0.74045 0.0
H889 H 0.26009 0.62403 0.64377 0.0
H890 H 0.25701 0.59511 0.63011 0.0
H891 H 0.27952 0.62384 0.6126 0.0
C892 C 0.61916 0.31746 0.9885 0.0
C893 C 0.60309 0.3126 0.01385 0.0
C894 C 0.63799 0.31136 0.98993 0.0
C895 C 0.64073 0.30026 0.01751 0.0
C896 C 0.62241 0.2923 0.04131 0.0
C897 C 0.60377 0.29876 0.03931 0.0
C898 C 0.65685 0.31988 0.96372 0.0
C899 C 0.62388 0.27951 0.07056 0.0
C900 C 0.69638 0.29078 0.01279 0.0
C901 C 0.71533 0.31383 0.02377 0.0
C902 C 0.6714 0.28497 0.01298 0.0
C903 C 0.66539 0.30274 0.02407 0.0
C904 C 0.68414 0.32508 0.03764 0.0
C905 C 0.70884 0.33034 0.03731 0.0
C906 C 0.65173 0.26052 0.99962 0.0
C907 C 0.67847 0.34441 0.05031 0.0
H908 H 0.61852 0.32821 0.96888 0.0
H909 H 0.5913 0.29507 0.05898 0.0
H910 H 0.67421 0.33663 0.97137 0.0
H911 H 0.66157 0.30537 0.95785 0.0
H912 H 0.65003 0.32461 0.94219 0.0
H913 H 0.60494 0.26526 0.07816 0.0
H914 H 0.63523 0.27047 0.06714 0.0
H915 H 0.63226 0.29334 0.08971 0.0
H916 H 0.70119 0.27768 1.0029 0.0
H917 H 0.72327 0.34825 0.04565 0.0
H918 H 0.64664 0.26352 0.97575 0.0
H919 H 0.63464 0.25247 0.01421 0.0
H920 H 0.65834 0.24695 0.99795 0.0
H921 H 0.67251 0.3521 0.03086 0.0
H922 H 0.69482 0.35998 0.06199 0.0
H923 H 0.66299 0.33588 0.06745 0.0
C924 C 0.41178 0.70228 0.33421 0.0
C925 C 0.40657 0.71891 0.34999 0.0
C926 C 0.39452 0.67666 0.3344 0.0
C927 C 0.37152 0.66784 0.35019 0.0
C928 C 0.36747 0.68443 0.36868 0.0
C929 C 0.38518 0.70969 0.36855 0.0
C930 C 0.40018 0.65956 0.3156 0.0
C931 C 0.3433 0.67604 0.38601 0.0
C932 C 0.30915 0.62188 0.31813 0.0
C933 C 0.30005 0.60455 0.3425 0.0
C934 C 0.33388 0.64121 0.31808 0.0
C935 C 0.34979 0.64304 0.34303 0.0
C936 C 0.34157 0.62346 0.36509 0.0
C937 C 0.31652 0.60449 0.36485 0.0
C938 C 0.34183 0.66143 0.29377 0.0
C939 C 0.35834 0.62396 0.39097 0.0
H940 H 0.42842 0.70939 0.31994 0.0
H941 H 0.38142 0.72261 0.38116 0.0
H942 H 0.39015 0.64031 0.32481 0.0
H943 H 0.39446 0.65927 0.2909 0.0
H944 H 0.42047 0.66629 0.31563 0.0
H945 H 0.34374 0.69105 0.40059 0.0
H946 H 0.32782 0.66981 0.36894 0.0
H947 H 0.33907 0.6601 0.40148 0.0
H948 H 0.29624 0.62179 0.30092 0.0
H949 H 0.30937 0.591 0.38372 0.0
H950 H 0.36023 0.6663 0.2839 0.0
H951 H 0.3436 0.67836 0.30491 0.0
H952 H 0.32827 0.6559 0.27421 0.0
H953 H 0.37791 0.63261 0.38285 0.0
H954 H 0.35225 0.60495 0.39973 0.0
H955 H 0.35766 0.63505 0.41089 0.0
C956 C 0.71444 0.40264 0.65796 0.0
C957 C 0.69222 0.39739 0.6729 0.0
C958 C 0.72274 0.38532 0.65847 0.0
C959 C 0.70816 0.36222 0.67378 0.0
C960 C 0.68687 0.35793 0.6911 0.0
C961 C 0.67936 0.37567 0.69065 0.0
C962 C 0.74606 0.39116 0.64076 0.0
C963 C 0.67064 0.33365 0.70787 0.0
C964 C 0.69393 0.29993 0.64427 0.0
C965 C 0.70167 0.29148 0.66988 0.0
C966 C 0.69897 0.32449 0.643 0.0
C967 C 0.71209 0.34084 0.66801 0.0
C968 C 0.72308 0.33328 0.69144 0.0
C969 C 0.71742 0.30842 0.69237 0.0
C970 C 0.68716 0.33177 0.61728 0.0
C971 C 0.73833 0.35053 0.71753 0.0
H972 H 0.72448 0.41951 0.6443 0.0
H973 H 0.66242 0.37188 0.70268 0.0
H974 H 0.75522 0.38129 0.65073 0.0
H975 H 0.74127 0.38538 0.61595 0.0
H976 H 0.75948 0.41142 0.64092 0.0
H977 H 0.65536 0.33377 0.72127 0.0
H978 H 0.66226 0.31829 0.69056 0.0
H979 H 0.68189 0.32953 0.72436 0.0
H980 H 0.68166 0.28665 0.62701 0.0
H981 H 0.72337 0.30176 0.71218 0.0
H982 H 0.70058 0.3503 0.60779 0.0
H983 H 0.67112 0.33284 0.62698 0.0
H984 H 0.68036 0.31818 0.5977 0.0
H985 H 0.74959 0.36987 0.70888 0.0
H986 H 0.75088 0.34465 0.72821 0.0
H987 H 0.72575 0.35033 0.73615 0.0
C988 C 0.30463 0.68984 0.03041 0.0
C989 C 0.29505 0.69723 1.0057 0.0
C990 C 0.32963 0.69607 0.03066 0.0
C991 C 0.34533 0.71013 1.00554 0.0
C992 C 0.33645 0.72049 0.98288 0.0
C993 C 0.31116 0.71361 0.98298 0.0
C994 C 0.33821 0.68474 0.05555 0.0
C995 C 0.35284 0.73661 0.95665 0.0
C996 C 0.40825 0.71559 0.01742 0.0
C997 C 0.40397 0.6936 1.00292 0.0
C998 C 0.39044 0.72324 0.01541 0.0
C999 C 0.36786 0.70817 0.99921 0.0
C1000 C 0.36492 0.6875 0.98173 0.0
C1001 C 0.38315 0.68064 0.98364 0.0
C1002 C 0.39494 0.74616 0.03292 0.0
C1003 C 0.34127 0.67085 0.96392 0.0
H1004 H 0.29199 0.67712 0.04789 0.0
H1005 H 0.30362 0.71931 0.96386 0.0
H1006 H 0.34085 0.66994 0.04493 0.0
H1007 H 0.3563 0.69889 0.06546 0.0
H1008 H 0.32458 0.67647 0.07501 0.0
H1009 H 0.34652 0.74941 0.94811 0.0
H1010 H 0.37254 0.74763 0.96422 0.0
H1011 H 0.35186 0.72474 0.93668 0.0
H1012 H 0.42447 0.72571 0.0322 0.0
H1013 H 0.38012 0.66381 0.97212 0.0
H1014 H 0.38794 0.74104 0.05727 0.0
H1015 H 0.38519 0.755 0.02171 0.0
H1016 H 0.41514 0.75988 0.03421 0.0
H1017 H 0.32559 0.66123 0.98066 0.0
H1018 H 0.34273 0.65657 0.94993 0.0
H1019 H 0.33663 0.68192 0.94784 0.0
C1020 C 0.50858 0.05203 0.30476 0.0
C1021 C 0.52624 0.0707 0.28515 0.0
C1022 C 0.5032 0.02719 0.30262 0.0
C1023 C 0.51605 0.02054 0.28066 0.0
C1024 C 0.5335 0.03919 0.26025 0.0
C1025 C 0.5382 0.06388 0.26254 0.0
C1026 C 0.48413 0.00812 0.32452 0.0
C1027 C 0.54797 0.03326 0.2368 0.0
C1028 C 0.52061 0.96334 0.30371 0.0
C1029 C 0.50193 0.94436 0.28546 0.0
C1030 C 0.52605 0.98818 0.30133 0.0
C1031 C 0.51222 0.99451 0.28058 0.0
C1032 C 0.49381 0.97555 0.26139 0.0
C1033 C 0.48905 0.95083 0.26386 0.0
C1034 C 0.54615 0.00757 0.32189 0.0
C1035 C 0.4783 0.98113 0.23926 0.0
H1036 H 0.49903 0.05695 0.32213 0.0
H1037 H 0.55204 0.0781 0.24746 0.0
H1038 H 0.47012 0.99188 0.31103 0.0
H1039 H 0.49333 1.00135 0.34087 0.0
H1040 H 0.47436 0.01571 0.33854 0.0
H1041 H 0.55971 0.04928 0.22132 0.0
H1042 H 0.56016 0.02783 0.24938 0.0
H1043 H 0.53512 0.01728 0.22202 0.0
H1044 H 0.53074 0.95861 0.32041 0.0
H1045 H 0.47438 0.93633 0.24994 0.0
H1046 H 0.53773 0.01447 0.33926 0.0
H1047 H 0.5594 0.02368 0.30756 0.0
H1048 H 0.55665 1.00022 0.33474 0.0
H1049 H 0.46653 0.98652 0.25294 0.0
H1050 H 0.46603 0.96495 0.22432 0.0
H1051 H 0.49043 0.99703 0.22391 0.0
C1052 C 0.47897 0.53178 0.60048 0.0
C1053 C 0.46006 0.51969 0.6229 0.0
C1054 C 0.49915 0.52725 0.5984 0.0
C1055 C 0.50036 0.50979 0.61875 0.0
C1056 C 0.48073 0.49683 0.64051 0.0
C1057 C 0.46113 0.50211 0.64255 0.0
C1058 C 0.51972 0.5419 0.57522 0.0
C1059 C 0.48066 0.47768 0.66228 0.0
C1060 C 0.54357 0.48336 0.60091 0.0
C1061 C 0.563 0.49608 0.6225 0.0
C1062 C 0.52337 0.48786 0.59898 0.0
C1063 C 0.52263 0.50593 0.61863 0.0
C1064 C 0.54276 0.51951 0.63953 0.0
C1065 C 0.56239 0.51427 0.64144 0.0
C1066 C 0.50228 0.47253 0.57676 0.0
C1067 C 0.5433 0.53929 0.66053 0.0
H1068 H 0.47855 0.54559 0.58542 0.0
H1069 H 0.4466 0.49256 0.65985 0.0
H1070 H 0.5373 0.55385 0.58803 0.0
H1071 H 0.5229 0.52922 0.56018 0.0
H1072 H 0.51556 0.55385 0.55998 0.0
H1073 H 0.46319 0.46779 0.67606 0.0
H1074 H 0.4831 0.46383 0.6487 0.0
H1075 H 0.49651 0.48677 0.67883 0.0
H1076 H 0.54361 0.46907 0.58643 0.0
H1077 H 0.5773 0.52432 0.6581 0.0
H1078 H 0.49872 0.48476 0.56133 0.0
H1079 H 0.48502 0.46095 0.59034 0.0
H1080 H 0.50611 0.46017 0.56189 0.0
H1081 H 0.54055 0.55273 0.64646 0.0
H1082 H 0.56108 0.54957 0.67362 0.0
H1083 H 0.52784 0.5307 0.67771 0.0
C1084 C 0.95551 0.45134 0.9405 0.0
C1085 C 0.93766 0.45442 0.95713 0.0
C1086 C 0.98079 0.47032 0.93929 0.0
C1087 C 0.9889 0.49294 0.95575 0.0
C1088 C 0.97093 0.49613 0.97253 0.0
C1089 C 0.94569 0.47709 0.97273 0.0
C1090 C 0.99891 0.46607 0.92048 0.0
C1091 C 0.97849 0.51946 0.99112 0.0
C1092 C 0.05731 0.53009 0.9816 0.0
C1093 C 0.06772 0.55077 0.96127 0.0
C1094 C 0.03199 0.51149 0.98009 0.0
C1095 C 0.01625 0.51264 0.95692 0.0
C1096 C 0.02667 0.53282 0.93546 0.0
C1097 C 0.05201 0.55163 0.93804 0.0
C1098 C 0.02199 0.4907 1.00382 0.0
C1099 C 0.01095 0.53468 0.90985 0.0
H1100 H 0.94963 0.43409 0.9281 0.0
H1101 H 0.93228 0.4797 0.98599 0.0
H1102 H 0.00916 0.48159 0.90376 0.0
H1103 H 0.01286 0.46567 0.93632 0.0
H1104 H 0.98953 0.44838 0.90716 0.0
H1105 H 0.96236 0.51942 1.00246 0.0
H1106 H 0.99197 0.52149 0.00958 0.0
H1107 H 0.98794 0.53595 0.97566 0.0
H1108 H 0.06895 0.52823 0.999 0.0
H1109 H 0.05932 0.56726 0.92212 0.0
H1110 H 0.01466 0.4726 0.99172 0.0
H1111 H 1.0063 0.4902 0.01691 0.0
H1112 H 0.03636 0.49269 0.02092 0.0
H1113 H 1.0018 0.51723 0.89608 0.0
H1114 H 0.02202 0.5504 0.89366 0.0
H1115 H 0.99601 0.5372 0.92033 0.0
C1116 C 0.05493 0.50154 0.3757 0.0
C1117 C 0.07343 0.51901 0.39563 0.0
C1118 C 0.02997 0.49602 0.37766 0.0
C1119 C 0.02308 0.50863 0.39966 0.0
C1120 C 0.04158 0.52593 0.42033 0.0
C1121 C 0.06638 0.53071 0.41829 0.0
C1122 C 0.01105 0.47706 0.35553 0.0
C1123 C 0.03541 0.5402 0.44377 0.0
C1124 C 0.96553 0.51288 0.37666 0.0
C1125 C 0.94663 0.49438 0.39519 0.0
C1126 C 0.99046 0.51834 0.37888 0.0
C1127 C 0.99691 0.50462 0.39963 0.0
C1128 C 0.97798 0.48622 0.41887 0.0
C1129 C 0.95322 0.48153 0.41667 0.0
C1130 C 0.00985 0.53847 0.35833 0.0
C1131 C 0.98365 0.47074 0.44088 0.0
H1132 H 0.06009 0.49229 0.3582 0.0
H1133 H 0.08051 0.54443 0.43356 0.0
H1134 H 0.99467 0.46302 0.36884 0.0
H1135 H 1.00437 0.48628 0.3391 0.0
H1136 H 0.0188 0.46741 0.34162 0.0
H1137 H 0.05138 0.55195 0.45933 0.0
H1138 H 0.02989 0.55229 0.43117 0.0
H1139 H 0.01939 0.52727 0.45846 0.0
H1140 H 0.96072 0.523 0.36007 0.0
H1141 H 0.93877 0.467 0.43081 0.0
H1142 H 0.01689 0.53018 0.34099 0.0
H1143 H 0.02593 0.55176 0.3727 0.0
H1144 H 1.00239 0.54886 0.34545 0.0
H1145 H 0.98947 0.45935 0.42714 0.0
H1146 H 0.96736 0.45816 0.45552 0.0
H1147 H 0.99935 0.48285 0.45653 0.0
C1148 C 0.53167 0.05744 0.70832 0.0
C1149 C 0.55414 0.06692 0.72517 0.0
C1150 C 0.51274 0.03235 0.71051 0.0
C1151 C 0.51566 0.01587 0.73065 0.0
C1152 C 0.53773 0.02545 0.74889 0.0
C1153 C 0.55664 0.05065 0.74585 0.0
C1154 C 0.4898 0.02331 0.6904 0.0
C1155 C 0.54167 0.00886 0.77109 0.0
C1156 C 0.4561 0.95357 0.74806 0.0
C1157 C 0.45774 0.9374 0.72634 0.0
C1158 C 0.47509 0.97878 0.7506 0.0
C1159 C 0.49635 0.98846 0.73082 0.0
C1160 C 0.49844 0.97208 0.70957 0.0
C1161 C 0.47946 0.94698 0.70787 0.0
C1162 C 0.47209 0.99526 0.77401 0.0
C1163 C 0.52049 0.98124 0.68781 0.0
H1164 H 0.52882 0.06966 0.69298 0.0
H1165 H 0.57371 0.05738 0.75907 0.0
H1166 H 0.48851 0.00893 0.67388 0.0
H1167 H 0.47287 0.01456 0.70523 0.0
H1168 H 0.48988 0.03849 0.67662 0.0
H1169 H 0.55844 0.01944 0.78594 0.0
H1170 H 0.52521 0.99867 0.78653 0.0
H1171 H 0.54381 0.99484 0.75755 0.0
H1172 H 0.43963 0.94675 0.76253 0.0
H1173 H 0.48168 0.93483 0.69167 0.0
H1174 H 0.46945 0.00937 0.76145 0.0
H1175 H 0.48915 1.00536 0.78846 0.0
H1176 H 0.45593 0.98462 0.7898 0.0
H1177 H 0.52112 0.99571 0.67202 0.0
H1178 H 0.5198 0.96613 0.67321 0.0
H1179 H 0.53802 0.98989 0.70148 0.0
C1180 C 0.47823 0.53337 0.04559 0.0
C1181 C 0.49165 0.55606 0.06171 0.0
C1182 C 0.48464 0.51463 0.04752 0.0
C1183 C 0.5049 0.51813 0.06646 0.0
C1184 C 0.51792 0.54049 0.08392 0.0
C1185 C 0.51121 0.55912 0.08133 0.0
C1186 C 0.4701 0.49129 0.0284 0.0
C1187 C 0.53946 0.54507 0.10469 0.0
C1188 C 0.50896 0.45946 0.08396 0.0
C1189 C 0.52564 0.46053 0.06083 0.0
C1190 C 0.5027 0.47838 0.08688 0.0
C1191 C 0.51323 0.49903 0.06615 0.0
C1192 C 0.53067 0.50059 0.04349 0.0
C1193 C 0.53672 0.4816 0.04128 0.0
C1194 C 0.48424 0.4759 0.11161 0.0
C1195 C 0.54247 0.52206 0.0208 0.0
H1196 H 0.46264 0.53024 0.03101 0.0
H1197 H 0.52184 0.57642 0.09393 0.0
H1198 H 0.48253 0.48982 0.0109 0.0
H1199 H 0.46283 0.47473 0.04376 0.0
H1200 H 0.45424 0.49087 0.01581 0.0
H1201 H 0.54622 0.56219 0.11894 0.0
H1202 H 0.53398 0.52909 0.12067 0.0
H1203 H 0.55506 0.54687 0.09007 0.0
H1204 H 0.50014 0.44343 0.09923 0.0
H1205 H 0.55016 0.48325 0.02385 0.0
H1206 H 0.46692 0.47298 0.10023 0.0
H1207 H 0.49177 0.49323 0.12555 0.0
H1208 H 0.47946 0.46014 0.12776 0.0
H1209 H 0.5279 0.5221 1.00579 0.0
H1210 H 0.55646 0.5212 1.00543 0.0
H1211 H 0.55165 0.53989 0.03377 0.0
C1212 C 0.5708 0.23916 0.19133 0.0
C1213 C 0.56087 0.2341 0.22187 0.0
C1214 C 0.57233 0.25896 0.1731 0.0
C1215 C 0.56074 0.27252 0.18348 0.0
C1216 C 0.54895 0.26617 0.21345 0.0
C1217 C 0.55025 0.24817 0.23251 0.0
C1218 C 0.58641 0.26474 0.14256 0.0
C1219 C 0.53427 0.27766 0.22593 0.0
C1220 C 0.57053 0.33598 0.15444 0.0
C1221 C 0.55934 0.33057 0.12461 0.0
C1222 C 0.57259 0.31797 0.1726 0.0
C1223 C 0.56043 0.29263 0.16298 0.0
C1224 C 0.54754 0.28673 0.13376 0.0
C1225 C 0.54821 0.3057 0.11465 0.0
C1226 C 0.58789 0.32673 0.20221 0.0
C1227 C 0.53232 0.26038 0.12215 0.0
H1228 H 0.57681 0.2273 0.18078 0.0
H1229 H 0.54206 0.24455 0.25573 0.0
H1230 H 0.57474 0.25062 0.12488 0.0
H1231 H 0.59193 0.28347 0.13339 0.0
H1232 H 0.60349 0.26342 0.14553 0.0
H1233 H 0.54543 0.29161 0.24405 0.0
H1234 H 0.52888 0.28661 0.20747 0.0
H1235 H 0.51706 0.26333 0.23765 0.0
H1236 H 0.57713 0.35408 0.16455 0.0
H1237 H 0.53913 0.30074 0.09197 0.0
H1238 H 0.5937 0.31361 0.2109 0.0
H1239 H 0.577 0.32958 0.2207 0.0
H1240 H 0.60487 0.34499 0.19817 0.0
H1241 H 0.54275 0.2572 0.10333 0.0
H1242 H 0.5147 0.25742 0.11153 0.0
H1243 H 0.52759 0.24638 0.14089 0.0
C1244 C 0.22953 0.53655 0.48498 0.0
C1245 C 0.23574 0.55201 0.45854 0.0
C1246 C 0.24802 0.5371 0.50502 0.0
C1247 C 0.27366 0.55365 0.49893 0.0
C1248 C 0.27996 0.56973 0.47257 0.0
C1249 C 0.26105 0.56874 0.45288 0.0
C1250 C 0.24005 0.51963 0.53263 0.0
C1251 C 0.30679 0.58775 0.46475 0.0
C1252 C 0.32079 0.56783 0.56623 0.0
C1253 C 0.32995 0.55172 0.55977 0.0
C1254 C 0.30284 0.56889 0.54669 0.0
C1255 C 0.29369 0.55358 0.51958 0.0
C1256 C 0.30335 0.53765 0.5127 0.0
C1257 C 0.32125 0.53696 0.53269 0.0
C1258 C 0.29339 0.58622 0.55535 0.0
C1259 C 0.29452 0.521 0.4843 0.0
H1260 H 0.21006 0.52384 0.48991 0.0
H1261 H 0.2661 0.58082 0.43261 0.0
H1262 H 0.24778 0.50703 0.53032 0.0
H1263 H 0.24756 0.53029 0.55465 0.0
H1264 H 0.2195 0.50822 0.53469 0.0
H1265 H 0.31626 0.57736 0.45788 0.0
H1266 H 0.30868 0.60042 0.44525 0.0
H1267 H 0.31661 0.59905 0.48563 0.0
H1268 H 0.32739 0.57936 0.58703 0.0
H1269 H 0.32841 0.5247 0.52719 0.0
H1270 H 0.27315 0.57536 0.56026 0.0
H1271 H 0.29604 0.59878 0.53544 0.0
H1272 H 0.30295 0.59763 0.57631 0.0
H1273 H 0.27419 0.50804 0.48598 0.0
H1274 H 0.30402 0.50999 0.48173 0.0
H1275 H 0.29783 0.53226 0.46279 0.0
C1276 C 0.79178 0.31332 0.85994 0.0
C1277 C 0.78512 0.3223 0.88628 0.0
C1278 C 0.77358 0.29518 0.83972 0.0
C1279 C 0.74779 0.28551 0.84566 0.0
C1280 C 0.74103 0.29487 0.87196 0.0
C1281 C 0.75958 0.31308 0.89159 0.0
C1282 C 0.78198 0.28626 0.81195 0.0
C1283 C 0.71404 0.28551 0.87956 0.0
C1284 C 0.69956 0.25263 0.77944 0.0
C1285 C 0.69051 0.22738 0.78579 0.0
C1286 C 0.71805 0.2716 0.79846 0.0
C1287 C 0.72795 0.26543 0.82483 0.0
C1288 C 0.71851 0.23987 0.83151 0.0
C1289 C 0.70003 0.22131 0.81209 0.0
C1290 C 0.72725 0.29833 0.78993 0.0
C1291 C 0.72796 0.23206 0.85934 0.0
H1292 H 0.81134 0.32053 0.85509 0.0
H1293 H 0.75399 0.32004 0.9114 0.0
H1294 H 0.7745 0.26596 0.81378 0.0
H1295 H 0.77451 0.28961 0.79002 0.0
H1296 H 0.80256 0.29565 0.81014 0.0
H1297 H 0.71169 0.29445 0.90083 0.0
H1298 H 0.70486 0.28907 0.85952 0.0
H1299 H 0.70426 0.26515 0.88334 0.0
H1300 H 0.69237 0.25757 0.75921 0.0
H1301 H 0.69295 0.20191 0.81753 0.0
H1302 H 0.74665 0.30688 0.78122 0.0
H1303 H 0.72742 0.30902 0.81082 0.0
H1304 H 0.71566 0.30017 0.77147 0.0
H1305 H 0.74834 0.23984 0.85729 0.0
H1306 H 0.71889 0.21157 0.86151 0.0
H1307 H 0.72457 0.23958 0.88121 0.0
C1308 C 0.44363 0.69425 0.12161 0.0
C1309 C 0.46111 0.68645 0.12601 0.0
C1310 C 0.44265 0.7119 0.14177 0.0
C1311 C 0.45946 0.72215 0.16739 0.0
C1312 C 0.47678 0.71383 0.17226 0.0
C1313 C 0.47731 0.69615 0.15176 0.0
C1314 C 0.42377 0.71986 0.13533 0.0
C1315 C 0.49507 0.72389 0.19902 0.0
C1316 C 0.47534 0.78588 0.20185 0.0
C1317 C 0.46131 0.77949 0.22963 0.0
C1318 C 0.47462 0.76757 0.18139 0.0
C1319 C 0.45946 0.74193 0.18855 0.0
C1320 C 0.44488 0.73543 0.2164 0.0
C1321 C 0.44594 0.75417 0.23641 0.0
C1322 C 0.4905 0.77574 0.15223 0.0
C1323 C 0.4284 0.70859 0.2254 0.0
H1324 H 0.43093 0.68682 0.10194 0.0
H1325 H 0.49058 0.68997 0.15579 0.0
H1326 H 0.41185 0.71635 0.15626 0.0
H1327 H 0.43341 0.74009 0.13063 0.0
H1328 H 0.41171 0.70996 0.11496 0.0
H1329 H 0.50706 0.71536 0.20013 0.0
H1330 H 0.50714 0.74426 0.19648 0.0
H1331 H 0.48499 0.72049 0.22159 0.0
H1332 H 0.48719 0.80536 0.1963 0.0
H1333 H 0.43507 0.74901 0.25782 0.0
H1334 H 0.47874 0.76729 0.13121 0.0
H1335 H 0.50415 0.76919 0.15314 0.0
H1336 H 0.50077 0.79623 0.14941 0.0
H1337 H 0.41503 0.6985 0.20624 0.0
H1338 H 0.41783 0.70644 0.24732 0.0
H1339 H 0.43983 0.69964 0.22874 0.0
C1340 C 0.69539 0.47019 0.52981 0.0
C1341 C 0.68696 0.45581 0.55723 0.0
C1342 C 0.71344 0.46957 0.51003 0.0
C1343 C 0.72356 0.45412 0.51749 0.0
C1344 C 0.71457 0.43908 0.54485 0.0
C1345 C 0.6965 0.44011 0.56424 0.0
C1346 C 0.72216 0.486 0.4814 0.0
C1347 C 0.72445 0.42223 0.5541 0.0
C1348 C 0.75775 0.43995 0.45171 0.0
C1349 C 0.78287 0.45726 0.45756 0.0
C1350 C 0.73841 0.4384 0.4711 0.0
C1351 C 0.74407 0.45449 0.49733 0.0
C1352 C 0.76954 0.47156 0.5037 0.0
C1353 C 0.78846 0.47263 0.484 0.0
C1354 C 0.71181 0.41979 0.4631 0.0
C1355 C 0.77684 0.4891 0.53117 0.0
H1356 H 0.68817 0.48237 0.52414 0.0
H1357 H 0.69023 0.42901 0.58542 0.0
H1358 H 0.74232 0.49956 0.48346 0.0
H1359 H 0.71959 0.4747 0.46014 0.0
H1360 H 0.71203 0.49634 0.47812 0.0
H1361 H 0.71497 0.41096 0.57519 0.0
H1362 H 0.72208 0.40954 0.53446 0.0
H1363 H 0.74466 0.43343 0.55903 0.0
H1364 H 0.75316 0.4279 0.43148 0.0
H1365 H 0.80777 0.48576 0.48914 0.0
H1366 H 0.70164 0.42963 0.4569 0.0
H1367 H 0.70233 0.40796 0.48376 0.0
H1368 H 0.71041 0.40768 0.44316 0.0
H1369 H 0.76871 0.50132 0.5284 0.0
H1370 H 0.79733 0.5009 0.53352 0.0
H1371 H 0.76928 0.47847 0.55321 0.0
C1372 C 0.22415 0.69264 0.86674 0.0
C1373 C 0.22984 0.68274 0.893 0.0
C1374 C 0.243 0.71047 0.84697 0.0
C1375 C 0.2685 0.71877 0.85309 0.0
C1376 C 0.27427 0.70833 0.87924 0.0
C1377 C 0.25501 0.69057 0.89869 0.0
C1378 C 0.23558 0.72066 0.81955 0.0
C1379 C 0.3009 0.71628 0.88716 0.0
C1380 C 0.31597 0.75108 0.78583 0.0
C1381 C 0.32574 0.77639 0.79249 0.0
C1382 C 0.29775 0.73226 0.80534 0.0
C1383 C 0.28893 0.73866 0.83259 0.0
C1384 C 0.29924 0.76428 0.8397 0.0
C1385 C 0.31737 0.78268 0.81972 0.0
C1386 C 0.28767 0.70546 0.79647 0.0
C1387 C 0.29083 0.77234 0.8683 0.0
H1388 H 0.20481 0.68643 0.86166 0.0
H1389 H 0.25968 0.68305 0.91881 0.0
H1390 H 0.24391 0.74103 0.82209 0.0
H1391 H 0.24285 0.71731 0.79744 0.0
H1392 H 0.21508 0.71218 0.8175 0.0
H1393 H 0.30228 0.70437 0.90553 0.0
H1394 H 0.311 0.71575 0.86598 0.0
H1395 H 0.31046 0.7357 0.89574 0.0
H1396 H 0.32227 0.74597 0.76489 0.0
H1397 H 0.3249 0.80213 0.82528 0.0
H1398 H 0.26738 0.69648 0.79207 0.0
H1399 H 0.29035 0.69534 0.81612 0.0
H1400 H 0.29679 0.70338 0.77517 0.0
H1401 H 0.27061 0.76564 0.86666 0.0
H1402 H 0.30089 0.79283 0.87111 0.0
H1403 H 0.29379 0.76395 0.88964 0.0
loop_
_geom_bond_atom_site_label_1
_geom_bond_atom_site_label_2
_geom_bond_distance
_geom_bond_site_symmetry_2
_ccdc_geom_bond_type
C0 C1 1.443 . S
C0 N4 1.376 . S
C0 C38 1.389 . S
C1 C0 1.443 . S
C1 C2 1.340 . S
C1 H41 0.951 . S
C2 C1 1.340 . S
C2 C3 1.439 . S
C2 H42 0.950 . S
C3 C2 1.439 . S
C3 N4 1.374 . S
C3 C37 1.395 . S
N4 C0 1.376 . S
N4 C3 1.374 . S
N4 Co5 2.008 . S
Co5 N4 2.008 . S
Co5 N6 1.995 . S
Co5 N11 2.008 . S
Co5 N16 1.995 . S
Co5 N21 2.282 . S
Co5 N27 2.282 . S
N6 Co5 1.995 . S
N6 C7 1.376 . S
N6 C10 1.383 . S
C7 N6 1.376 . S
C7 C8 1.446 . S
C7 C37 1.391 . S
C8 C7 1.446 . S
C8 C9 1.339 . S
C8 H43 0.949 . S
C9 C8 1.339 . S
C9 C10 1.439 . S
C9 H44 0.950 . S
C10 N6 1.383 . S
C10 C9 1.439 . S
C10 C39 1.392 . S
N11 Co5 2.008 . S
N11 C12 1.376 . S
N11 C15 1.374 . S
C12 N11 1.376 . S
C12 C13 1.443 . S
C12 C39 1.389 . S
C13 C12 1.443 . S
C13 C14 1.340 . S
C13 H45 0.951 . S
C14 C13 1.340 . S
C14 C15 1.439 . S
C14 H46 0.950 . S
C15 N11 1.374 . S
C15 C14 1.439 . S
C15 C40 1.395 . S
N16 Co5 1.995 . S
N16 C17 1.376 . S
N16 C20 1.383 . S
C17 N16 1.376 . S
C17 C18 1.446 . S
C17 C40 1.391 . S
C18 C17 1.446 . S
C18 C19 1.339 . S
C18 H47 0.949 . S
C19 C18 1.339 . S
C19 C20 1.439 . S
C19 H48 0.950 . S
C20 N16 1.383 . S
C20 C19 1.439 . S
C20 C38 1.392 . S
N21 Co5 2.282 . S
N21 C24 1.332 . S
N21 C26 1.332 . S
C22 C23 1.386 . S
C22 C25 1.388 . S
C23 C22 1.386 . S
C23 C24 1.382 . S
C23 H49 0.950 . S
C24 N21 1.332 . S
C24 C23 1.382 . S
C24 H35 0.952 . S
C25 C22 1.388 . S
C25 C26 1.382 . S
C25 H50 0.950 . S
C26 N21 1.332 . S
C26 C25 1.382 . S
C26 H36 0.948 . S
N27 Co5 2.282 . S
N27 C31 1.332 . S
N27 C32 1.332 . S
C28 C29 1.388 . S
C28 C32 1.382 . S
C28 H51 0.950 . S
C29 C28 1.388 . S
C29 C30 1.386 . S
C30 C29 1.386 . S
C30 C31 1.382 . S
C30 H52 0.950 . S
C31 N27 1.332 . S
C31 C30 1.382 . S
C31 H33 0.952 . S
C32 N27 1.332 . S
C32 C28 1.382 . S
C32 H34 0.948 . S
H33 C31 0.952 . S
H34 C32 0.948 . S
H35 C24 0.952 . S
H36 C26 0.948 . S
C37 C3 1.395 . S
C37 C7 1.391 . S
C38 C0 1.389 . S
C38 C20 1.392 . S
C39 C10 1.392 . S
C39 C12 1.389 . S
C40 C15 1.395 . S
C40 C17 1.391 . S
H41 C1 0.951 . S
H42 C2 0.950 . S
H43 C8 0.949 . S
H44 C9 0.950 . S
H45 C13 0.951 . S
H46 C14 0.950 . S
H47 C18 0.949 . S
H48 C19 0.950 . S
H49 C23 0.950 . S
H50 C25 0.950 . S
H51 C28 0.950 . S
H52 C30 0.950 . S
C53 C54 1.443 . S
C53 N57 1.376 . S
C53 C91 1.389 . S
C54 C53 1.443 . S
C54 C55 1.340 . S
C54 H94 0.951 . S
C55 C54 1.340 . S
C55 C56 1.439 . S
C55 H95 0.950 . S
C56 C55 1.439 . S
C56 N57 1.374 . S
C56 C90 1.395 . S
N57 C53 1.376 . S
N57 C56 1.374 . S
N57 Co58 2.008 . S
Co58 N57 2.008 . S
Co58 N59 1.995 . S
Co58 N64 2.008 . S
Co58 N69 1.995 . S
Co58 N74 2.282 . S
Co58 N80 2.282 . S
N59 Co58 1.995 . S
N59 C60 1.376 . S
N59 C63 1.383 . S
C60 N59 1.376 . S
C60 C61 1.446 . S
C60 C90 1.391 . S
C61 C60 1.446 . S
C61 C62 1.339 . S
C61 H96 0.949 . S
C62 C61 1.339 . S
C62 C63 1.439 . S
C62 H97 0.950 . S
C63 N59 1.383 . S
C63 C62 1.439 . S
C63 C92 1.392 . S
N64 Co58 2.008 . S
N64 C65 1.376 . S
N64 C68 1.374 . S
C65 N64 1.376 . S
C65 C66 1.443 . S
C65 C92 1.389 . S
C66 C65 1.443 . S
C66 C67 1.340 . S
C66 H98 0.951 . S
C67 C66 1.340 . S
C67 C68 1.439 . S
C67 H99 0.950 . S
C68 N64 1.374 . S
C68 C67 1.439 . S
C68 C93 1.395 . S
N69 Co58 1.995 . S
N69 C70 1.376 . S
N69 C73 1.383 . S
C70 N69 1.376 . S
C70 C71 1.446 . S
C70 C93 1.391 . S
C71 C70 1.446 . S
C71 C72 1.339 . S
C71 H100 0.949 . S
C72 C71 1.339 . S
C72 C73 1.439 . S
C72 H101 0.950 . S
C73 N69 1.383 . S
C73 C72 1.439 . S
C73 C91 1.392 . S
N74 Co58 2.282 . S
N74 C77 1.332 . S
N74 C79 1.332 . S
C75 C76 1.386 . S
C75 C78 1.388 . S
C76 C75 1.386 . S
C76 C77 1.382 . S
C76 H102 0.950 . S
C77 N74 1.332 . S
C77 C76 1.382 . S
C77 H88 0.952 . S
C78 C75 1.388 . S
C78 C79 1.382 . S
C78 H103 0.950 . S
C79 N74 1.332 . S
C79 C78 1.382 . S
C79 H89 0.948 . S
N80 Co58 2.282 . S
N80 C84 1.332 . S
N80 C85 1.332 . S
C81 C82 1.388 . S
C81 C85 1.382 . S
C81 H104 0.950 . S
C82 C81 1.388 . S
C82 C83 1.386 . S
C83 C82 1.386 . S
C83 C84 1.382 . S
C83 H105 0.950 . S
C84 N80 1.332 . S
C84 C83 1.382 . S
C84 H86 0.952 . S
C85 N80 1.332 . S
C85 C81 1.382 . S
C85 H87 0.948 . S
H86 C84 0.952 . S
H87 C85 0.948 . S
H88 C77 0.952 . S
H89 C79 0.948 . S
C90 C56 1.395 . S
C90 C60 1.391 . S
C91 C53 1.389 . S
C91 C73 1.392 . S
C92 C63 1.392 . S
C92 C65 1.389 . S
C93 C68 1.395 . S
C93 C70 1.391 . S
H94 C54 0.951 . S
H95 C55 0.950 . S
H96 C61 0.949 . S
H97 C62 0.950 . S
H98 C66 0.951 . S
H99 C67 0.950 . S
H100 C71 0.949 . S
H101 C72 0.950 . S
H102 C76 0.950 . S
H103 C78 0.950 . S
H104 C81 0.950 . S
H105 C83 0.950 . S
C106 C107 1.443 . S
C106 N110 1.376 . S
C106 C144 1.389 . S
C107 C106 1.443 . S
C107 C108 1.340 . S
C107 H147 0.951 . S
C108 C107 1.340 . S
C108 C109 1.439 . S
C108 H148 0.950 . S
C109 C108 1.439 . S
C109 N110 1.374 . S
C109 C143 1.395 . S
N110 C106 1.376 . S
N110 C109 1.374 . S
N110 Co111 2.008 . S
Co111 N110 2.008 . S
Co111 N112 1.995 1_556 S
Co111 N117 2.008 1_556 S
Co111 N122 1.995 . S
Co111 N127 2.282 . S
Co111 N133 2.282 1_556 S
N112 Co111 1.995 1_554 S
N112 C113 1.383 . S
N112 C116 1.383 . S
C113 N112 1.383 . S
C113 C114 1.455 . S
C113 C143 1.377 1_554 S
C114 C113 1.455 . S
C114 C115 1.339 . S
C114 H149 0.949 . S
C115 C114 1.339 . S
C115 C116 1.439 . S
C115 H150 0.950 . S
C116 N112 1.383 . S
C116 C115 1.439 . S
C116 C145 1.392 . S
N117 Co111 2.008 1_554 S
N117 C118 1.376 . S
N117 C121 1.374 . S
C118 N117 1.376 . S
C118 C119 1.443 . S
C118 C145 1.389 . S
C119 C118 1.443 . S
C119 C120 1.340 . S
C119 H151 0.951 . S
C120 C119 1.340 . S
C120 C121 1.439 . S
C120 H152 0.950 . S
C121 N117 1.374 . S
C121 C120 1.439 . S
C121 C146 1.395 . S
N122 Co111 1.995 . S
N122 C123 1.388 . S
N122 C126 1.383 . S
C123 N122 1.388 . S
C123 C124 1.460 . S
C123 C146 1.369 1_556 S
C124 C123 1.460 . S
C124 C125 1.339 . S
C124 H153 0.949 . S
C125 C124 1.339 . S
C125 C126 1.439 . S
C125 H154 0.950 . S
C126 N122 1.383 . S
C126 C125 1.439 . S
C126 C144 1.392 . S
N127 Co111 2.282 . S
N127 C130 1.332 1_556 S
N127 C132 1.332 . S
C128 C129 1.386 . S
C128 C131 1.388 1_554 S
C129 C128 1.386 . S
C129 C130 1.382 . S
C129 H155 0.950 . S
C130 N127 1.332 1_554 S
C130 C129 1.382 . S
C130 H141 0.952 . S
C131 C128 1.388 1_556 S
C131 C132 1.382 . S
C131 H156 0.950 . S
C132 N127 1.332 . S
C132 C131 1.382 . S
C132 H142 0.948 . S
N133 Co111 2.282 1_554 S
N133 C137 1.332 1_554 S
N133 C138 1.332 . S
C134 C135 1.388 1_554 S
C134 C138 1.382 . S
C134 H157 0.950 . S
C135 C134 1.388 1_556 S
C135 C136 1.386 . S
C136 C135 1.386 . S
C136 C137 1.382 . S
C136 H158 0.950 . S
C137 N133 1.332 1_556 S
C137 C136 1.382 . S
C137 H139 0.952 . S
C138 N133 1.332 . S
C138 C134 1.382 . S
C138 H140 0.948 . S
H139 C137 0.952 . S
H140 C138 0.948 . S
H141 C130 0.952 . S
H142 C132 0.948 . S
C143 C109 1.395 . S
C143 C113 1.377 1_556 S
C144 C106 1.389 . S
C144 C126 1.392 . S
C145 C116 1.392 . S
C145 C118 1.389 . S
C146 C121 1.395 . S
C146 C123 1.369 1_554 S
H147 C107 0.951 . S
H148 C108 0.950 . S
H149 C114 0.949 . S
H150 C115 0.950 . S
H151 C119 0.951 . S
H152 C120 0.950 . S
H153 C124 0.949 . S
H154 C125 0.950 . S
H155 C129 0.950 . S
H156 C131 0.950 . S
H157 C134 0.950 . S
H158 C136 0.950 . S
C159 C160 1.443 . S
C159 N163 1.376 . S
C159 C197 1.389 . S
C160 C159 1.443 . S
C160 C161 1.340 . S
C160 H200 0.951 . S
C161 C160 1.340 . S
C161 C162 1.439 . S
C161 H201 0.950 . S
C162 C161 1.439 . S
C162 N163 1.374 . S
C162 C196 1.395 . S
N163 C159 1.376 . S
N163 C162 1.374 . S
N163 Co164 2.008 . S
Co164 N163 2.008 . S
Co164 N165 1.995 . S
Co164 N170 2.008 . S
Co164 N175 1.995 . S
Co164 N180 2.282 . S
Co164 N186 2.282 . S
N165 Co164 1.995 . S
N165 C166 1.376 . S
N165 C169 1.383 . S
C166 N165 1.376 . S
C166 C167 1.446 . S
C166 C196 1.391 . S
C167 C166 1.446 . S
C167 C168 1.339 . S
C167 H202 0.949 . S
C168 C167 1.339 . S
C168 C169 1.439 . S
C168 H203 0.950 . S
C169 N165 1.383 . S
C169 C168 1.439 . S
C169 C198 1.392 . S
N170 Co164 2.008 . S
N170 C171 1.376 . S
N170 C174 1.374 . S
C171 N170 1.376 . S
C171 C172 1.443 . S
C171 C198 1.389 . S
C172 C171 1.443 . S
C172 C173 1.340 . S
C172 H204 0.951 . S
C173 C172 1.340 . S
C173 C174 1.439 . S
C173 H205 0.950 . S
C174 N170 1.374 . S
C174 C173 1.439 . S
C174 C199 1.395 . S
N175 Co164 1.995 . S
N175 C176 1.376 . S
N175 C179 1.383 . S
C176 N175 1.376 . S
C176 C177 1.446 . S
C176 C199 1.391 . S
C177 C176 1.446 . S
C177 C178 1.339 . S
C177 H206 0.949 . S
C178 C177 1.339 . S
C178 C179 1.439 . S
C178 H207 0.950 . S
C179 N175 1.383 . S
C179 C178 1.439 . S
C179 C197 1.392 . S
N180 Co164 2.282 . S
N180 C183 1.332 . S
N180 C185 1.332 . S
C181 C182 1.386 . S
C181 C184 1.388 . S
C182 C181 1.386 . S
C182 C183 1.382 . S
C182 H208 0.950 . S
C183 N180 1.332 . S
C183 C182 1.382 . S
C183 H194 0.952 . S
C184 C181 1.388 . S
C184 C185 1.382 . S
C184 H209 0.950 . S
C185 N180 1.332 . S
C185 C184 1.382 . S
C185 H195 0.948 . S
N186 Co164 2.282 . S
N186 C190 1.332 . S
N186 C191 1.332 . S
C187 C188 1.388 . S
C187 C191 1.382 . S
C187 H210 0.950 . S
C188 C187 1.388 . S
C188 C189 1.386 . S
C189 C188 1.386 . S
C189 C190 1.382 . S
C189 H211 0.950 . S
C190 N186 1.332 . S
C190 C189 1.382 . S
C190 H192 0.952 . S
C191 N186 1.332 . S
C191 C187 1.382 . S
C191 H193 0.948 . S
H192 C190 0.952 . S
H193 C191 0.948 . S
H194 C183 0.952 . S
H195 C185 0.948 . S
C196 C162 1.395 . S
C196 C166 1.391 . S
C197 C159 1.389 . S
C197 C179 1.392 . S
C198 C169 1.392 . S
C198 C171 1.389 . S
C199 C174 1.395 . S
C199 C176 1.391 . S
H200 C160 0.951 . S
H201 C161 0.950 . S
H202 C167 0.949 . S
H203 C168 0.950 . S
H204 C172 0.951 . S
H205 C173 0.950 . S
H206 C177 0.949 . S
H207 C178 0.950 . S
H208 C182 0.950 . S
H209 C184 0.950 . S
H210 C187 0.950 . S
H211 C189 0.950 . S
C212 C213 1.443 . S
C212 N216 1.376 . S
C212 C250 1.389 . S
C213 C212 1.443 . S
C213 C214 1.340 . S
C213 H253 0.951 . S
C214 C213 1.340 . S
C214 C215 1.439 . S
C214 H254 0.950 . S
C215 C214 1.439 . S
C215 N216 1.374 . S
C215 C249 1.395 . S
N216 C212 1.376 . S
N216 C215 1.374 . S
N216 Co217 2.008 . S
Co217 N216 2.008 . S
Co217 N218 1.995 . S
Co217 N223 2.008 . S
Co217 N228 1.995 . S
Co217 N233 2.282 . S
Co217 N239 2.282 . S
N218 Co217 1.995 . S
N218 C219 1.376 . S
N218 C222 1.383 . S
C219 N218 1.376 . S
C219 C220 1.446 . S
C219 C249 1.391 . S
C220 C219 1.446 . S
C220 C221 1.339 . S
C220 H255 0.949 . S
C221 C220 1.339 . S
C221 C222 1.439 . S
C221 H256 0.950 . S
C222 N218 1.383 . S
C222 C221 1.439 . S
C222 C251 1.392 . S
N223 Co217 2.008 . S
N223 C224 1.376 . S
N223 C227 1.374 . S
C224 N223 1.376 . S
C224 C225 1.443 . S
C224 C251 1.389 . S
C225 C224 1.443 . S
C225 C226 1.340 . S
C225 H257 0.951 . S
C226 C225 1.340 . S
C226 C227 1.439 . S
C226 H258 0.950 . S
C227 N223 1.374 . S
C227 C226 1.439 . S
C227 C252 1.395 . S
N228 Co217 1.995 . S
N228 C229 1.376 . S
N228 C232 1.383 . S
C229 N228 1.376 . S
C229 C230 1.446 . S
C229 C252 1.391 . S
C230 C229 1.446 . S
C230 C231 1.339 . S
C230 H259 0.949 . S
C231 C230 1.339 . S
C231 C232 1.439 . S
C231 H260 0.950 . S
C232 N228 1.383 . S
C232 C231 1.439 . S
C232 C250 1.392 . S
N233 Co217 2.282 . S
N233 C236 1.332 . S
N233 C238 1.332 . S
C234 C235 1.386 . S
C234 C237 1.388 . S
C235 C234 1.386 . S
C235 C236 1.382 . S
C235 H261 0.950 . S
C236 N233 1.332 . S
C236 C235 1.382 . S
C236 H247 0.952 . S
C237 C234 1.388 . S
C237 C238 1.382 . S
C237 H262 0.950 . S
C238 N233 1.332 . S
C238 C237 1.382 . S
C238 H248 0.948 . S
N239 Co217 2.282 . S
N239 C243 1.332 . S
N239 C244 1.332 . S
C240 C241 1.388 . S
C240 C244 1.382 . S
C240 H263 0.950 . S
C241 C240 1.388 . S
C241 C242 1.386 . S
C242 C241 1.386 . S
C242 C243 1.382 . S
C242 H264 0.950 . S
C243 N239 1.332 . S
C243 C242 1.382 . S
C243 H245 0.952 . S
C244 N239 1.332 . S
C244 C240 1.382 . S
C244 H246 0.948 . S
H245 C243 0.952 . S
H246 C244 0.948 . S
H247 C236 0.952 . S
H248 C238 0.948 . S
C249 C215 1.395 . S
C249 C219 1.391 . S
C250 C212 1.389 . S
C250 C232 1.392 . S
C251 C222 1.392 . S
C251 C224 1.389 . S
C252 C227 1.395 . S
C252 C229 1.391 . S
H253 C213 0.951 . S
H254 C214 0.950 . S
H255 C220 0.949 . S
H256 C221 0.950 . S
H257 C225 0.951 . S
H258 C226 0.950 . S
H259 C230 0.949 . S
H260 C231 0.950 . S
H261 C235 0.950 . S
H262 C237 0.950 . S
H263 C240 0.950 . S
H264 C242 0.950 . S
C265 C266 1.443 . S
C265 N269 1.376 . S
C265 C303 1.389 . S
C266 C265 1.443 . S
C266 C267 1.340 . S
C266 H306 0.951 . S
C267 C266 1.340 . S
C267 C268 1.439 . S
C267 H307 0.950 . S
C268 C267 1.439 . S
C268 N269 1.374 . S
C268 C302 1.395 . S
N269 C265 1.376 . S
N269 C268 1.374 . S
N269 Co270 2.008 . S
Co270 N269 2.008 . S
Co270 N271 1.995 1_556 S
Co270 N276 2.008 1_556 S
Co270 N281 1.995 . S
Co270 N286 2.282 . S
Co270 N292 2.282 1_556 S
N271 Co270 1.995 1_554 S
N271 C272 1.383 . S
N271 C275 1.383 . S
C272 N271 1.383 . S
C272 C273 1.455 . S
C272 C302 1.377 1_554 S
C273 C272 1.455 . S
C273 C274 1.339 . S
C273 H308 0.949 . S
C274 C273 1.339 . S
C274 C275 1.439 . S
C274 H309 0.950 . S
C275 N271 1.383 . S
C275 C274 1.439 . S
C275 C304 1.392 . S
N276 Co270 2.008 1_554 S
N276 C277 1.376 . S
N276 C280 1.374 . S
C277 N276 1.376 . S
C277 C278 1.443 . S
C277 C304 1.389 . S
C278 C277 1.443 . S
C278 C279 1.340 . S
C278 H310 0.951 . S
C279 C278 1.340 . S
C279 C280 1.439 . S
C279 H311 0.950 . S
C280 N276 1.374 . S
C280 C279 1.439 . S
C280 C305 1.395 . S
N281 Co270 1.995 . S
N281 C282 1.388 . S
N281 C285 1.383 . S
C282 N281 1.388 . S
C282 C283 1.460 . S
C282 C305 1.369 1_556 S
C283 C282 1.460 . S
C283 C284 1.339 . S
C283 H312 0.949 . S
C284 C283 1.339 . S
C284 C285 1.439 . S
C284 H313 0.950 . S
C285 N281 1.383 . S
C285 C284 1.439 . S
C285 C303 1.392 . S
N286 Co270 2.282 . S
N286 C289 1.332 1_556 S
N286 C291 1.332 . S
C287 C288 1.386 . S
C287 C290 1.388 1_554 S
C288 C287 1.386 . S
C288 C289 1.382 . S
C288 H314 0.950 . S
C289 N286 1.332 1_554 S
C289 C288 1.382 . S
C289 H300 0.952 . S
C290 C287 1.388 1_556 S
C290 C291 1.382 . S
C290 H315 0.950 . S
C291 N286 1.332 . S
C291 C290 1.382 . S
C291 H301 0.948 . S
N292 Co270 2.282 1_554 S
N292 C296 1.332 1_554 S
N292 C297 1.332 . S
C293 C294 1.388 1_554 S
C293 C297 1.382 . S
C293 H316 0.950 . S
C294 C293 1.388 1_556 S
C294 C295 1.386 . S
C295 C294 1.386 . S
C295 C296 1.382 . S
C295 H317 0.950 . S
C296 N292 1.332 1_556 S
C296 C295 1.382 . S
C296 H298 0.952 . S
C297 N292 1.332 . S
C297 C293 1.382 . S
C297 H299 0.948 . S
H298 C296 0.952 . S
H299 C297 0.948 . S
H300 C289 0.952 . S
H301 C291 0.948 . S
C302 C268 1.395 . S
C302 C272 1.377 1_556 S
C303 C265 1.389 . S
C303 C285 1.392 . S
C304 C275 1.392 . S
C304 C277 1.389 . S
C305 C280 1.395 . S
C305 C282 1.369 1_554 S
H306 C266 0.951 . S
H307 C267 0.950 . S
H308 C273 0.949 . S
H309 C274 0.950 . S
H310 C278 0.951 . S
H311 C279 0.950 . S
H312 C283 0.949 . S
H313 C284 0.950 . S
H314 C288 0.950 . S
H315 C290 0.950 . S
H316 C293 0.950 . S
H317 C295 0.950 . S
C318 C319 1.443 . S
C318 N322 1.376 . S
C318 C356 1.389 . S
C319 C318 1.443 . S
C319 C320 1.340 . S
C319 H359 0.951 . S
C320 C319 1.340 . S
C320 C321 1.439 . S
C320 H360 0.950 . S
C321 C320 1.439 . S
C321 N322 1.374 . S
C321 C355 1.395 . S
N322 C318 1.376 . S
N322 C321 1.374 . S
N322 Co323 2.008 . S
Co323 N322 2.008 . S
Co323 N324 1.995 . S
Co323 N329 2.008 . S
Co323 N334 1.995 . S
Co323 N339 2.282 . S
Co323 N345 2.282 . S
N324 Co323 1.995 . S
N324 C325 1.376 . S
N324 C328 1.383 . S
C325 N324 1.376 . S
C325 C326 1.446 . S
C325 C355 1.391 . S
C326 C325 1.446 . S
C326 C327 1.339 . S
C326 H361 0.949 . S
C327 C326 1.339 . S
C327 C328 1.439 . S
C327 H362 0.950 . S
C328 N324 1.383 . S
C328 C327 1.439 . S
C328 C357 1.392 . S
N329 Co323 2.008 . S
N329 C330 1.376 . S
N329 C333 1.374 . S
C330 N329 1.376 . S
C330 C331 1.443 . S
C330 C357 1.389 . S
C331 C330 1.443 . S
C331 C332 1.340 . S
C331 H363 0.951 . S
C332 C331 1.340 . S
C332 C333 1.439 . S
C332 H364 0.950 . S
C333 N329 1.374 . S
C333 C332 1.439 . S
C333 C358 1.395 . S
N334 Co323 1.995 . S
N334 C335 1.376 . S
N334 C338 1.383 . S
C335 N334 1.376 . S
C335 C336 1.446 . S
C335 C358 1.391 . S
C336 C335 1.446 . S
C336 C337 1.339 . S
C336 H365 0.949 . S
C337 C336 1.339 . S
C337 C338 1.439 . S
C337 H366 0.950 . S
C338 N334 1.383 . S
C338 C337 1.439 . S
C338 C356 1.392 . S
N339 Co323 2.282 . S
N339 C342 1.332 . S
N339 C344 1.332 . S
C340 C341 1.386 . S
C340 C343 1.388 . S
C341 C340 1.386 . S
C341 C342 1.382 . S
C341 H367 0.950 . S
C342 N339 1.332 . S
C342 C341 1.382 . S
C342 H353 0.952 . S
C343 C340 1.388 . S
C343 C344 1.382 . S
C343 H368 0.950 . S
C344 N339 1.332 . S
C344 C343 1.382 . S
C344 H354 0.948 . S
N345 Co323 2.282 . S
N345 C349 1.332 . S
N345 C350 1.332 . S
C346 C347 1.388 . S
C346 C350 1.382 . S
C346 H369 0.950 . S
C347 C346 1.388 . S
C347 C348 1.386 . S
C348 C347 1.386 . S
C348 C349 1.382 . S
C348 H370 0.950 . S
C349 N345 1.332 . S
C349 C348 1.382 . S
C349 H351 0.952 . S
C350 N345 1.332 . S
C350 C346 1.382 . S
C350 H352 0.948 . S
H351 C349 0.952 . S
H352 C350 0.948 . S
H353 C342 0.952 . S
H354 C344 0.948 . S
C355 C321 1.395 . S
C355 C325 1.391 . S
C356 C318 1.389 . S
C356 C338 1.392 . S
C357 C328 1.392 . S
C357 C330 1.389 . S
C358 C333 1.395 . S
C358 C335 1.391 . S
H359 C319 0.951 . S
H360 C320 0.950 . S
H361 C326 0.949 . S
H362 C327 0.950 . S
H363 C331 0.951 . S
H364 C332 0.950 . S
H365 C336 0.949 . S
H366 C337 0.950 . S
H367 C341 0.950 . S
H368 C343 0.950 . S
H369 C346 0.950 . S
H370 C348 0.950 . S
C371 C372 1.443 . S
C371 N375 1.376 . S
C371 C409 1.389 . S
C372 C371 1.443 . S
C372 C373 1.340 . S
C372 H412 0.951 . S
C373 C372 1.340 . S
C373 C374 1.439 . S
C373 H413 0.950 . S
C374 C373 1.439 . S
C374 N375 1.374 . S
C374 C408 1.395 . S
N375 C371 1.376 . S
N375 C374 1.374 . S
N375 Co376 2.008 . S
Co376 N375 2.008 . S
Co376 N377 1.995 . S
Co376 N382 2.008 . S
Co376 N387 1.995 . S
Co376 N392 2.282 . S
Co376 N398 2.282 . S
N377 Co376 1.995 . S
N377 C378 1.376 . S
N377 C381 1.383 . S
C378 N377 1.376 . S
C378 C379 1.446 . S
C378 C408 1.391 . S
C379 C378 1.446 . S
C379 C380 1.339 . S
C379 H414 0.949 . S
C380 C379 1.339 . S
C380 C381 1.439 . S
C380 H415 0.950 . S
C381 N377 1.383 . S
C381 C380 1.439 . S
C381 C410 1.392 . S
N382 Co376 2.008 . S
N382 C383 1.376 . S
N382 C386 1.374 . S
C383 N382 1.376 . S
C383 C384 1.443 . S
C383 C410 1.389 . S
C384 C383 1.443 . S
C384 C385 1.340 . S
C384 H416 0.951 . S
C385 C384 1.340 . S
C385 C386 1.439 . S
C385 H417 0.950 . S
C386 N382 1.374 . S
C386 C385 1.439 . S
C386 C411 1.395 . S
N387 Co376 1.995 . S
N387 C388 1.376 . S
N387 C391 1.383 . S
C388 N387 1.376 . S
C388 C389 1.446 . S
C388 C411 1.391 . S
C389 C388 1.446 . S
C389 C390 1.339 . S
C389 H418 0.949 . S
C390 C389 1.339 . S
C390 C391 1.439 . S
C390 H419 0.950 . S
C391 N387 1.383 . S
C391 C390 1.439 . S
C391 C409 1.392 . S
N392 Co376 2.282 . S
N392 C395 1.332 . S
N392 C397 1.332 . S
C393 C394 1.386 . S
C393 C396 1.388 . S
C394 C393 1.386 . S
C394 C395 1.382 . S
C394 H420 0.950 . S
C395 N392 1.332 . S
C395 C394 1.382 . S
C395 H406 0.952 . S
C396 C393 1.388 . S
C396 C397 1.382 . S
C396 H421 0.950 . S
C397 N392 1.332 . S
C397 C396 1.382 . S
C397 H407 0.948 . S
N398 Co376 2.282 . S
N398 C402 1.332 . S
N398 C403 1.332 . S
C399 C400 1.388 . S
C399 C403 1.382 . S
C399 H422 0.950 . S
C400 C399 1.388 . S
C400 C401 1.386 . S
C401 C400 1.386 . S
C401 C402 1.382 . S
C401 H423 0.950 . S
C402 N398 1.332 . S
C402 C401 1.382 . S
C402 H404 0.952 . S
C403 N398 1.332 . S
C403 C399 1.382 . S
C403 H405 0.948 . S
H404 C402 0.952 . S
H405 C403 0.948 . S
H406 C395 0.952 . S
H407 C397 0.948 . S
C408 C374 1.395 . S
C408 C378 1.391 . S
C409 C371 1.389 . S
C409 C391 1.392 . S
C410 C381 1.392 . S
C410 C383 1.389 . S
C411 C386 1.395 . S
C411 C388 1.391 . S
H412 C372 0.951 . S
H413 C373 0.950 . S
H414 C379 0.949 . S
H415 C380 0.950 . S
H416 C384 0.951 . S
H417 C385 0.950 . S
H418 C389 0.949 . S
H419 C390 0.950 . S
H420 C394 0.950 . S
H421 C396 0.950 . S
H422 C399 0.950 . S
H423 C401 0.950 . S
C424 C425 1.443 . S
C424 N428 1.376 . S
C424 C462 1.389 . S
C425 C424 1.443 . S
C425 C426 1.340 . S
C425 H465 0.951 . S
C426 C425 1.340 . S
C426 C427 1.439 . S
C426 H466 0.950 . S
C427 C426 1.439 . S
C427 N428 1.374 . S
C427 C461 1.395 . S
N428 C424 1.376 . S
N428 C427 1.374 . S
N428 Co429 2.008 . S
Co429 N428 2.008 . S
Co429 N430 1.995 1_554 S
Co429 N435 2.008 1_554 S
Co429 N440 1.995 . S
Co429 N445 2.282 . S
Co429 N451 2.282 1_554 S
N430 Co429 1.995 1_556 S
N430 C431 1.383 . S
N430 C434 1.383 . S
C431 N430 1.383 . S
C431 C432 1.455 . S
C431 C461 1.377 1_556 S
C432 C431 1.455 . S
C432 C433 1.339 . S
C432 H467 0.949 . S
C433 C432 1.339 . S
C433 C434 1.439 . S
C433 H468 0.950 . S
C434 N430 1.383 . S
C434 C433 1.439 . S
C434 C463 1.392 . S
N435 Co429 2.008 1_556 S
N435 C436 1.376 . S
N435 C439 1.374 . S
C436 N435 1.376 . S
C436 C437 1.443 . S
C436 C463 1.389 . S
C437 C436 1.443 . S
C437 C438 1.340 . S
C437 H469 0.951 . S
C438 C437 1.340 . S
C438 C439 1.439 . S
C438 H470 0.950 . S
C439 N435 1.374 . S
C439 C438 1.439 . S
C439 C464 1.395 . S
N440 Co429 1.995 . S
N440 C441 1.388 . S
N440 C444 1.383 . S
C441 N440 1.388 . S
C441 C442 1.460 . S
C441 C464 1.369 1_554 S
C442 C441 1.460 . S
C442 C443 1.339 . S
C442 H471 0.949 . S
C443 C442 1.339 . S
C443 C444 1.439 . S
C443 H472 0.950 . S
C444 N440 1.383 . S
C444 C443 1.439 . S
C444 C462 1.392 . S
N445 Co429 2.282 . S
N445 C448 1.332 1_554 S
N445 C450 1.332 . S
C446 C447 1.386 . S
C446 C449 1.388 1_556 S
C447 C446 1.386 . S
C447 C448 1.382 . S
C447 H473 0.950 . S
C448 N445 1.332 1_556 S
C448 C447 1.382 . S
C448 H459 0.952 . S
C449 C446 1.388 1_554 S
C449 C450 1.382 . S
C449 H474 0.950 . S
C450 N445 1.332 . S
C450 C449 1.382 . S
C450 H460 0.948 . S
N451 Co429 2.282 1_556 S
N451 C455 1.332 1_556 S
N451 C456 1.332 . S
C452 C453 1.388 1_556 S
C452 C456 1.382 . S
C452 H475 0.950 . S
C453 C452 1.388 1_554 S
C453 C454 1.386 . S
C454 C453 1.386 . S
C454 C455 1.382 . S
C454 H476 0.950 . S
C455 N451 1.332 1_554 S
C455 C454 1.382 . S
C455 H457 0.952 . S
C456 N451 1.332 . S
C456 C452 1.382 . S
C456 H458 0.948 . S
H457 C455 0.952 . S
H458 C456 0.948 . S
H459 C448 0.952 . S
H460 C450 0.948 . S
C461 C427 1.395 . S
C461 C431 1.377 1_554 S
C462 C424 1.389 . S
C462 C444 1.392 . S
C463 C434 1.392 . S
C463 C436 1.389 . S
C464 C439 1.395 . S
C464 C441 1.369 1_556 S
H465 C425 0.951 . S
H466 C426 0.950 . S
H467 C432 0.949 . S
H468 C433 0.950 . S
H469 C437 0.951 . S
H470 C438 0.950 . S
H471 C442 0.949 . S
H472 C443 0.950 . S
H473 C447 0.950 . S
H474 C449 0.950 . S
H475 C452 0.950 . S
H476 C454 0.950 . S
C477 C478 1.443 . S
C477 N481 1.376 . S
C477 C515 1.389 . S
C478 C477 1.443 . S
C478 C479 1.340 . S
C478 H518 0.951 . S
C479 C478 1.340 . S
C479 C480 1.439 . S
C479 H519 0.950 . S
C480 C479 1.439 . S
C480 N481 1.374 . S
C480 C514 1.395 . S
N481 C477 1.376 . S
N481 C480 1.374 . S
N481 Co482 2.008 . S
Co482 N481 2.008 . S
Co482 N483 1.995 . S
Co482 N488 2.008 . S
Co482 N493 1.995 . S
Co482 N498 2.282 . S
Co482 N504 2.282 . S
N483 Co482 1.995 . S
N483 C484 1.376 . S
N483 C487 1.383 . S
C484 N483 1.376 . S
C484 C485 1.446 . S
C484 C514 1.391 . S
C485 C484 1.446 . S
C485 C486 1.339 . S
C485 H520 0.949 . S
C486 C485 1.339 . S
C486 C487 1.439 . S
C486 H521 0.950 . S
C487 N483 1.383 . S
C487 C486 1.439 . S
C487 C516 1.392 . S
N488 Co482 2.008 . S
N488 C489 1.376 . S
N488 C492 1.374 . S
C489 N488 1.376 . S
C489 C490 1.443 . S
C489 C516 1.389 . S
C490 C489 1.443 . S
C490 C491 1.340 . S
C490 H522 0.951 . S
C491 C490 1.340 . S
C491 C492 1.439 . S
C491 H523 0.950 . S
C492 N488 1.374 . S
C492 C491 1.439 . S
C492 C517 1.395 . S
N493 Co482 1.995 . S
N493 C494 1.376 . S
N493 C497 1.383 . S
C494 N493 1.376 . S
C494 C495 1.446 . S
C494 C517 1.391 . S
C495 C494 1.446 . S
C495 C496 1.339 . S
C495 H524 0.949 . S
C496 C495 1.339 . S
C496 C497 1.439 . S
C496 H525 0.950 . S
C497 N493 1.383 . S
C497 C496 1.439 . S
C497 C515 1.392 . S
N498 Co482 2.282 . S
N498 C501 1.332 . S
N498 C503 1.332 . S
C499 C500 1.386 . S
C499 C502 1.388 . S
C500 C499 1.386 . S
C500 C501 1.382 . S
C500 H526 0.950 . S
C501 N498 1.332 . S
C501 C500 1.382 . S
C501 H512 0.952 . S
C502 C499 1.388 . S
C502 C503 1.382 . S
C502 H527 0.950 . S
C503 N498 1.332 . S
C503 C502 1.382 . S
C503 H513 0.948 . S
N504 Co482 2.282 . S
N504 C508 1.332 . S
N504 C509 1.332 . S
C505 C506 1.388 . S
C505 C509 1.382 . S
C505 H528 0.950 . S
C506 C505 1.388 . S
C506 C507 1.386 . S
C507 C506 1.386 . S
C507 C508 1.382 . S
C507 H529 0.950 . S
C508 N504 1.332 . S
C508 C507 1.382 . S
C508 H510 0.952 . S
C509 N504 1.332 . S
C509 C505 1.382 . S
C509 H511 0.948 . S
H510 C508 0.952 . S
H511 C509 0.948 . S
H512 C501 0.952 . S
H513 C503 0.948 . S
C514 C480 1.395 . S
C514 C484 1.391 . S
C515 C477 1.389 . S
C515 C497 1.392 . S
C516 C487 1.392 . S
C516 C489 1.389 . S
C517 C492 1.395 . S
C517 C494 1.391 . S
H518 C478 0.951 . S
H519 C479 0.950 . S
H520 C485 0.949 . S
H521 C486 0.950 . S
H522 C490 0.951 . S
H523 C491 0.950 . S
H524 C495 0.949 . S
H525 C496 0.950 . S
H526 C500 0.950 . S
H527 C502 0.950 . S
H528 C505 0.950 . S
H529 C507 0.950 . S
C530 C531 1.443 . S
C530 N534 1.376 . S
C530 C568 1.389 . S
C531 C530 1.443 . S
C531 C532 1.340 . S
C531 H571 0.951 . S
C532 C531 1.340 . S
C532 C533 1.439 . S
C532 H572 0.950 . S
C533 C532 1.439 . S
C533 N534 1.374 . S
C533 C567 1.395 . S
N534 C530 1.376 . S
N534 C533 1.374 . S
N534 Co535 2.008 . S
Co535 N534 2.008 . S
Co535 N536 1.995 . S
Co535 N541 2.008 . S
Co535 N546 1.995 . S
Co535 N551 2.282 . S
Co535 N557 2.282 . S
N536 Co535 1.995 . S
N536 C537 1.376 . S
N536 C540 1.383 . S
C537 N536 1.376 . S
C537 C538 1.446 . S
C537 C567 1.391 . S
C538 C537 1.446 . S
C538 C539 1.339 . S
C538 H573 0.949 . S
C539 C538 1.339 . S
C539 C540 1.439 . S
C539 H574 0.950 . S
C540 N536 1.383 . S
C540 C539 1.439 . S
C540 C569 1.392 . S
N541 Co535 2.008 . S
N541 C542 1.376 . S
N541 C545 1.374 . S
C542 N541 1.376 . S
C542 C543 1.443 . S
C542 C569 1.389 . S
C543 C542 1.443 . S
C543 C544 1.340 . S
C543 H575 0.951 . S
C544 C543 1.340 . S
C544 C545 1.439 . S
C544 H576 0.950 . S
C545 N541 1.374 . S
C545 C544 1.439 . S
C545 C570 1.395 . S
N546 Co535 1.995 . S
N546 C547 1.376 . S
N546 C550 1.383 . S
C547 N546 1.376 . S
C547 C548 1.446 . S
C547 C570 1.391 . S
C548 C547 1.446 . S
C548 C549 1.339 . S
C548 H577 0.949 . S
C549 C548 1.339 . S
C549 C550 1.439 . S
C549 H578 0.950 . S
C550 N546 1.383 . S
C550 C549 1.439 . S
C550 C568 1.392 . S
N551 Co535 2.282 . S
N551 C554 1.332 . S
N551 C556 1.332 . S
C552 C553 1.386 . S
C552 C555 1.388 . S
C553 C552 1.386 . S
C553 C554 1.382 . S
C553 H579 0.950 . S
C554 N551 1.332 . S
C554 C553 1.382 . S
C554 H565 0.952 . S
C555 C552 1.388 . S
C555 C556 1.382 . S
C555 H580 0.950 . S
C556 N551 1.332 . S
C556 C555 1.382 . S
C556 H566 0.948 . S
N557 Co535 2.282 . S
N557 C561 1.332 . S
N557 C562 1.332 . S
C558 C559 1.388 . S
C558 C562 1.382 . S
C558 H581 0.950 . S
C559 C558 1.388 . S
C559 C560 1.386 . S
C560 C559 1.386 . S
C560 C561 1.382 . S
C560 H582 0.950 . S
C561 N557 1.332 . S
C561 C560 1.382 . S
C561 H563 0.952 . S
C562 N557 1.332 . S
C562 C558 1.382 . S
C562 H564 0.948 . S
H563 C561 0.952 . S
H564 C562 0.948 . S
H565 C554 0.952 . S
H566 C556 0.948 . S
C567 C533 1.395 . S
C567 C537 1.391 . S
C568 C530 1.389 . S
C568 C550 1.392 . S
C569 C540 1.392 . S
C569 C542 1.389 . S
C570 C545 1.395 . S
C570 C547 1.391 . S
H571 C531 0.951 . S
H572 C532 0.950 . S
H573 C538 0.949 . S
H574 C539 0.950 . S
H575 C543 0.951 . S
H576 C544 0.950 . S
H577 C548 0.949 . S
H578 C549 0.950 . S
H579 C553 0.950 . S
H580 C555 0.950 . S
H581 C558 0.950 . S
H582 C560 0.950 . S
C583 C584 1.443 . S
C583 N587 1.376 . S
C583 C621 1.389 . S
C584 C583 1.443 . S
C584 C585 1.340 . S
C584 H624 0.951 . S
C585 C584 1.340 . S
C585 C586 1.439 . S
C585 H625 0.950 . S
C586 C585 1.439 . S
C586 N587 1.374 . S
C586 C620 1.395 . S
N587 C583 1.376 . S
N587 C586 1.374 . S
N587 Co588 2.008 . S
Co588 N587 2.008 . S
Co588 N589 1.995 1_554 S
Co588 N594 2.008 1_554 S
Co588 N599 1.995 . S
Co588 N604 2.282 . S
Co588 N610 2.282 1_554 S
N589 Co588 1.995 1_556 S
N589 C590 1.383 . S
N589 C593 1.383 . S
C590 N589 1.383 . S
C590 C591 1.455 . S
C590 C620 1.377 1_556 S
C591 C590 1.455 . S
C591 C592 1.339 . S
C591 H626 0.949 . S
C592 C591 1.339 . S
C592 C593 1.439 . S
C592 H627 0.950 . S
C593 N589 1.383 . S
C593 C592 1.439 . S
C593 C622 1.392 . S
N594 Co588 2.008 1_556 S
N594 C595 1.376 . S
N594 C598 1.374 . S
C595 N594 1.376 . S
C595 C596 1.443 . S
C595 C622 1.389 . S
C596 C595 1.443 . S
C596 C597 1.340 . S
C596 H628 0.951 . S
C597 C596 1.340 . S
C597 C598 1.439 . S
C597 H629 0.950 . S
C598 N594 1.374 . S
C598 C597 1.439 . S
C598 C623 1.395 . S
N599 Co588 1.995 . S
N599 C600 1.388 . S
N599 C603 1.383 . S
C600 N599 1.388 . S
C600 C601 1.460 . S
C600 C623 1.369 1_554 S
C601 C600 1.460 . S
C601 C602 1.339 . S
C601 H630 0.949 . S
C602 C601 1.339 . S
C602 C603 1.439 . S
C602 H631 0.950 . S
C603 N599 1.383 . S
C603 C602 1.439 . S
C603 C621 1.392 . S
N604 Co588 2.282 . S
N604 C607 1.332 1_554 S
N604 C609 1.332 . S
C605 C606 1.386 . S
C605 C608 1.388 1_556 S
C606 C605 1.386 . S
C606 C607 1.382 . S
C606 H632 0.950 . S
C607 N604 1.332 1_556 S
C607 C606 1.382 . S
C607 H618 0.952 . S
C608 C605 1.388 1_554 S
C608 C609 1.382 . S
C608 H633 0.950 . S
C609 N604 1.332 . S
C609 C608 1.382 . S
C609 H619 0.948 . S
N610 Co588 2.282 1_556 S
N610 C614 1.332 1_556 S
N610 C615 1.332 . S
C611 C612 1.388 1_556 S
C611 C615 1.382 . S
C611 H634 0.950 . S
C612 C611 1.388 1_554 S
C612 C613 1.386 . S
C613 C612 1.386 . S
C613 C614 1.382 . S
C613 H635 0.950 . S
C614 N610 1.332 1_554 S
C614 C613 1.382 . S
C614 H616 0.952 . S
C615 N610 1.332 . S
C615 C611 1.382 . S
C615 H617 0.948 . S
H616 C614 0.952 . S
H617 C615 0.948 . S
H618 C607 0.952 . S
H619 C609 0.948 . S
C620 C586 1.395 . S
C620 C590 1.377 1_554 S
C621 C583 1.389 . S
C621 C603 1.392 . S
C622 C593 1.392 . S
C622 C595 1.389 . S
C623 C598 1.395 . S
C623 C600 1.369 1_556 S
H624 C584 0.951 . S
H625 C585 0.950 . S
H626 C591 0.949 . S
H627 C592 0.950 . S
H628 C596 0.951 . S
H629 C597 0.950 . S
H630 C601 0.949 . S
H631 C602 0.950 . S
H632 C606 0.950 . S
H633 C608 0.950 . S
H634 C611 0.950 . S
H635 C613 0.950 . S
C636 C637 1.391 . S
C636 C638 1.394 . S
C636 H652 0.931 . S
C637 C636 1.391 . S
C637 C641 1.376 . S
C638 C636 1.394 . S
C638 C639 1.369 . S
C638 C642 1.531 . S
C639 C638 1.369 . S
C639 C640 1.410 . S
C639 C647 1.503 . S
C640 C639 1.410 . S
C640 C641 1.392 . S
C640 C643 1.511 . S
C641 C637 1.376 . S
C641 C640 1.392 . S
C641 H653 0.929 . S
C642 C638 1.531 . S
C642 H654 0.960 . S
C642 H655 0.962 . S
C642 H656 0.960 . S
C643 C640 1.511 . S
C643 H657 0.961 . S
C643 H658 0.961 . S
C643 H659 0.961 . S
C644 C645 1.370 . S
C644 C646 1.363 . S
C644 H660 0.931 . S
C645 C644 1.370 . S
C645 C649 1.408 . S
C646 C644 1.363 . S
C646 C647 1.370 . S
C646 C650 1.524 . S
C647 C639 1.503 . S
C647 C646 1.370 . S
C647 C648 1.403 . S
C648 C647 1.403 . S
C648 C649 1.404 . S
C648 C651 1.539 . S
C649 C645 1.408 . S
C649 C648 1.404 . S
C649 H661 0.930 . S
C650 C646 1.524 . S
C650 H662 0.956 . S
C650 H663 0.961 . S
C650 H664 0.961 . S
C651 C648 1.539 . S
C651 H665 0.958 . S
C651 H666 0.961 . S
C651 H667 0.960 . S
H652 C636 0.931 . S
H653 C641 0.929 . S
H654 C642 0.960 . S
H655 C642 0.962 . S
H656 C642 0.960 . S
H657 C643 0.961 . S
H658 C643 0.961 . S
H659 C643 0.961 . S
H660 C644 0.931 . S
H661 C649 0.930 . S
H662 C650 0.956 . S
H663 C650 0.961 . S
H664 C650 0.961 . S
H665 C651 0.958 . S
H666 C651 0.961 . S
H667 C651 0.960 . S
C668 C669 1.391 . S
C668 C670 1.394 . S
C668 H684 0.931 . S
C669 C668 1.391 . S
C669 C673 1.376 . S
C670 C668 1.394 . S
C670 C671 1.369 . S
C670 C674 1.531 . S
C671 C670 1.369 . S
C671 C672 1.410 . S
C671 C679 1.503 . S
C672 C671 1.410 . S
C672 C673 1.392 . S
C672 C675 1.511 . S
C673 C669 1.376 . S
C673 C672 1.392 . S
C673 H685 0.929 . S
C674 C670 1.531 . S
C674 H686 0.960 . S
C674 H687 0.962 . S
C674 H688 0.960 . S
C675 C672 1.511 . S
C675 H689 0.961 . S
C675 H690 0.961 . S
C675 H691 0.961 . S
C676 C677 1.370 . S
C676 C678 1.363 . S
C676 H692 0.931 . S
C677 C676 1.370 . S
C677 C681 1.408 . S
C678 C676 1.363 . S
C678 C679 1.370 . S
C678 C682 1.524 . S
C679 C671 1.503 . S
C679 C678 1.370 . S
C679 C680 1.403 . S
C680 C679 1.403 . S
C680 C681 1.404 . S
C680 C683 1.539 . S
C681 C677 1.408 . S
C681 C680 1.404 . S
C681 H693 0.930 . S
C682 C678 1.524 . S
C682 H694 0.956 . S
C682 H695 0.961 . S
C682 H696 0.961 . S
C683 C680 1.539 . S
C683 H697 0.958 . S
C683 H698 0.961 . S
C683 H699 0.960 . S
H684 C668 0.931 . S
H685 C673 0.929 . S
H686 C674 0.960 . S
H687 C674 0.962 . S
H688 C674 0.960 . S
H689 C675 0.961 . S
H690 C675 0.961 . S
H691 C675 0.961 . S
H692 C676 0.931 . S
H693 C681 0.930 . S
H694 C682 0.956 . S
H695 C682 0.961 . S
H696 C682 0.961 . S
H697 C683 0.958 . S
H698 C683 0.961 . S
H699 C683 0.960 . S
C700 C701 1.391 . S
C700 C702 1.394 . S
C700 H716 0.931 . S
C701 C700 1.391 . S
C701 C705 1.376 . S
C702 C700 1.394 . S
C702 C703 1.369 . S
C702 C706 1.531 . S
C703 C702 1.369 . S
C703 C704 1.410 . S
C703 C711 1.503 . S
C704 C703 1.410 . S
C704 C705 1.392 . S
C704 C707 1.511 . S
C705 C701 1.376 . S
C705 C704 1.392 . S
C705 H717 0.929 . S
C706 C702 1.531 . S
C706 H718 0.960 . S
C706 H719 0.962 . S
C706 H720 0.960 . S
C707 C704 1.511 . S
C707 H721 0.961 . S
C707 H722 0.961 . S
C707 H723 0.961 . S
C708 C709 1.370 . S
C708 C710 1.363 . S
C708 H724 0.931 . S
C709 C708 1.370 . S
C709 C713 1.408 . S
C710 C708 1.363 . S
C710 C711 1.370 . S
C710 C714 1.524 . S
C711 C703 1.503 . S
C711 C710 1.370 . S
C711 C712 1.403 . S
C712 C711 1.403 . S
C712 C713 1.404 . S
C712 C715 1.539 . S
C713 C709 1.408 . S
C713 C712 1.404 . S
C713 H725 0.930 . S
C714 C710 1.524 . S
C714 H726 0.956 . S
C714 H727 0.961 . S
C714 H728 0.961 . S
C715 C712 1.539 . S
C715 H729 0.958 . S
C715 H730 0.961 . S
C715 H731 0.960 . S
H716 C700 0.931 . S
H717 C705 0.929 . S
H718 C706 0.960 . S
H719 C706 0.962 . S
H720 C706 0.960 . S
H721 C707 0.961 . S
H722 C707 0.961 . S
H723 C707 0.961 . S
H724 C708 0.931 . S
H725 C713 0.930 . S
H726 C714 0.956 . S
H727 C714 0.961 . S
H728 C714 0.961 . S
H729 C715 0.958 . S
H730 C715 0.961 . S
H731 C715 0.960 . S
C732 C733 1.391 . S
C732 C734 1.394 . S
C732 H748 0.931 . S
C733 C732 1.391 . S
C733 C737 1.376 . S
C734 C732 1.394 . S
C734 C735 1.369 . S
C734 C738 1.531 . S
C735 C734 1.369 . S
C735 C736 1.410 . S
C735 C743 1.503 . S
C736 C735 1.410 . S
C736 C737 1.392 . S
C736 C739 1.511 . S
C737 C733 1.376 . S
C737 C736 1.392 . S
C737 H749 0.929 . S
C738 C734 1.531 . S
C738 H750 0.960 . S
C738 H751 0.962 . S
C738 H752 0.960 . S
C739 C736 1.511 . S
C739 H753 0.961 . S
C739 H754 0.961 . S
C739 H755 0.961 . S
C740 C741 1.370 . S
C740 C742 1.363 . S
C740 H756 0.931 . S
C741 C740 1.370 . S
C741 C745 1.408 . S
C742 C740 1.363 . S
C742 C743 1.370 . S
C742 C746 1.524 . S
C743 C735 1.503 . S
C743 C742 1.370 . S
C743 C744 1.403 . S
C744 C743 1.403 . S
C744 C745 1.404 . S
C744 C747 1.539 . S
C745 C741 1.408 . S
C745 C744 1.404 . S
C745 H757 0.930 . S
C746 C742 1.524 . S
C746 H758 0.956 . S
C746 H759 0.961 . S
C746 H760 0.961 . S
C747 C744 1.539 . S
C747 H761 0.958 . S
C747 H762 0.961 . S
C747 H763 0.960 . S
H748 C732 0.931 . S
H749 C737 0.929 . S
H750 C738 0.960 . S
H751 C738 0.962 . S
H752 C738 0.960 . S
H753 C739 0.961 . S
H754 C739 0.961 . S
H755 C739 0.961 . S
H756 C740 0.931 . S
H757 C745 0.930 . S
H758 C746 0.956 . S
H759 C746 0.961 . S
H760 C746 0.961 . S
H761 C747 0.958 . S
H762 C747 0.961 . S
H763 C747 0.960 . S
C764 C765 1.391 . S
C764 C766 1.394 . S
C764 H780 0.931 . S
C765 C764 1.391 . S
C765 C769 1.376 . S
C766 C764 1.394 . S
C766 C767 1.369 . S
C766 C770 1.531 . S
C767 C766 1.369 . S
C767 C768 1.410 . S
C767 C775 1.503 . S
C768 C767 1.410 . S
C768 C769 1.392 . S
C768 C771 1.511 . S
C769 C765 1.376 . S
C769 C768 1.392 . S
C769 H781 0.929 . S
C770 C766 1.531 . S
C770 H782 0.960 . S
C770 H783 0.962 . S
C770 H784 0.960 . S
C771 C768 1.511 . S
C771 H785 0.961 . S
C771 H786 0.961 . S
C771 H787 0.961 . S
C772 C773 1.370 . S
C772 C774 1.363 . S
C772 H788 0.931 . S
C773 C772 1.370 . S
C773 C777 1.408 . S
C774 C772 1.363 . S
C774 C775 1.370 . S
C774 C778 1.524 . S
C775 C767 1.503 . S
C775 C774 1.370 . S
C775 C776 1.403 . S
C776 C775 1.403 . S
C776 C777 1.404 . S
C776 C779 1.539 . S
C777 C773 1.408 . S
C777 C776 1.404 . S
C777 H789 0.930 . S
C778 C774 1.524 . S
C778 H790 0.956 . S
C778 H791 0.961 . S
C778 H792 0.961 . S
C779 C776 1.539 . S
C779 H793 0.958 . S
C779 H794 0.961 . S
C779 H795 0.960 . S
H780 C764 0.931 . S
H781 C769 0.929 . S
H782 C770 0.960 . S
H783 C770 0.962 . S
H784 C770 0.960 . S
H785 C771 0.961 . S
H786 C771 0.961 . S
H787 C771 0.961 . S
H788 C772 0.931 . S
H789 C777 0.930 . S
H790 C778 0.956 . S
H791 C778 0.961 . S
H792 C778 0.961 . S
H793 C779 0.958 . S
H794 C779 0.961 . S
H795 C779 0.960 . S
C796 C797 1.391 . S
C796 C798 1.394 . S
C796 H812 0.931 . S
C797 C796 1.391 . S
C797 C801 1.376 . S
C798 C796 1.394 . S
C798 C799 1.369 . S
C798 C802 1.531 . S
C799 C798 1.369 . S
C799 C800 1.410 . S
C799 C807 1.503 . S
C800 C799 1.410 . S
C800 C801 1.392 . S
C800 C803 1.511 . S
C801 C797 1.376 . S
C801 C800 1.392 . S
C801 H813 0.929 . S
C802 C798 1.531 . S
C802 H814 0.960 . S
C802 H815 0.962 . S
C802 H816 0.960 . S
C803 C800 1.511 . S
C803 H817 0.961 . S
C803 H818 0.961 . S
C803 H819 0.961 . S
C804 C805 1.370 . S
C804 C806 1.363 . S
C804 H820 0.931 . S
C805 C804 1.370 . S
C805 C809 1.408 . S
C806 C804 1.363 . S
C806 C807 1.370 . S
C806 C810 1.524 . S
C807 C799 1.503 . S
C807 C806 1.370 . S
C807 C808 1.403 . S
C808 C807 1.403 . S
C808 C809 1.404 . S
C808 C811 1.539 . S
C809 C805 1.408 . S
C809 C808 1.404 . S
C809 H821 0.930 . S
C810 C806 1.524 . S
C810 H822 0.956 . S
C810 H823 0.961 . S
C810 H824 0.961 . S
C811 C808 1.539 . S
C811 H825 0.958 . S
C811 H826 0.961 . S
C811 H827 0.960 . S
H812 C796 0.931 . S
H813 C801 0.929 . S
H814 C802 0.960 . S
H815 C802 0.962 . S
H816 C802 0.960 . S
H817 C803 0.961 . S
H818 C803 0.961 . S
H819 C803 0.961 . S
H820 C804 0.931 . S
H821 C809 0.930 . S
H822 C810 0.956 . S
H823 C810 0.961 . S
H824 C810 0.961 . S
H825 C811 0.958 . S
H826 C811 0.961 . S
H827 C811 0.960 . S
C828 C829 1.391 . S
C828 C830 1.394 . S
C828 H844 0.931 . S
C829 C828 1.391 . S
C829 C833 1.376 . S
C830 C828 1.394 . S
C830 C831 1.369 . S
C830 C834 1.531 . S
C831 C830 1.369 . S
C831 C832 1.410 . S
C831 C839 1.503 . S
C832 C831 1.410 . S
C832 C833 1.392 . S
C832 C835 1.511 . S
C833 C829 1.376 . S
C833 C832 1.392 . S
C833 H845 0.929 . S
C834 C830 1.531 . S
C834 H846 0.960 . S
C834 H847 0.962 . S
C834 H848 0.960 . S
C835 C832 1.511 . S
C835 H849 0.961 . S
C835 H850 0.961 . S
C835 H851 0.961 . S
C836 C837 1.370 . S
C836 C838 1.363 . S
C836 H852 0.931 . S
C837 C836 1.370 . S
C837 C841 1.408 . S
C838 C836 1.363 . S
C838 C839 1.370 . S
C838 C842 1.524 . S
C839 C831 1.503 . S
C839 C838 1.370 . S
C839 C840 1.403 . S
C840 C839 1.403 . S
C840 C841 1.404 . S
C840 C843 1.539 . S
C841 C837 1.408 . S
C841 C840 1.404 . S
C841 H853 0.930 . S
C842 C838 1.524 . S
C842 H854 0.956 . S
C842 H855 0.961 . S
C842 H856 0.961 . S
C843 C840 1.539 . S
C843 H857 0.958 . S
C843 H858 0.961 . S
C843 H859 0.960 . S
H844 C828 0.931 . S
H845 C833 0.929 . S
H846 C834 0.960 . S
H847 C834 0.962 . S
H848 C834 0.960 . S
H849 C835 0.961 . S
H850 C835 0.961 . S
H851 C835 0.961 . S
H852 C836 0.931 . S
H853 C841 0.930 . S
H854 C842 0.956 . S
H855 C842 0.961 . S
H856 C842 0.961 . S
H857 C843 0.958 . S
H858 C843 0.961 . S
H859 C843 0.960 . S
C860 C861 1.391 . S
C860 C862 1.394 . S
C860 H876 0.931 . S
C861 C860 1.391 . S
C861 C865 1.376 . S
C862 C860 1.394 . S
C862 C863 1.369 . S
C862 C866 1.531 . S
C863 C862 1.369 . S
C863 C864 1.410 . S
C863 C871 1.503 . S
C864 C863 1.410 . S
C864 C865 1.392 . S
C864 C867 1.511 . S
C865 C861 1.376 . S
C865 C864 1.392 . S
C865 H877 0.929 . S
C866 C862 1.531 . S
C866 H878 0.960 . S
C866 H879 0.962 . S
C866 H880 0.960 . S
C867 C864 1.511 . S
C867 H881 0.961 . S
C867 H882 0.961 . S
C867 H883 0.961 . S
C868 C869 1.370 . S
C868 C870 1.363 . S
C868 H884 0.931 . S
C869 C868 1.370 . S
C869 C873 1.408 . S
C870 C868 1.363 . S
C870 C871 1.370 . S
C870 C874 1.524 . S
C871 C863 1.503 . S
C871 C870 1.370 . S
C871 C872 1.403 . S
C872 C871 1.403 . S
C872 C873 1.404 . S
C872 C875 1.539 . S
C873 C869 1.408 . S
C873 C872 1.404 . S
C873 H885 0.930 . S
C874 C870 1.524 . S
C874 H886 0.956 . S
C874 H887 0.961 . S
C874 H888 0.961 . S
C875 C872 1.539 . S
C875 H889 0.958 . S
C875 H890 0.961 . S
C875 H891 0.960 . S
H876 C860 0.931 . S
H877 C865 0.929 . S
H878 C866 0.960 . S
H879 C866 0.962 . S
H880 C866 0.960 . S
H881 C867 0.961 . S
H882 C867 0.961 . S
H883 C867 0.961 . S
H884 C868 0.931 . S
H885 C873 0.930 . S
H886 C874 0.956 . S
H887 C874 0.961 . S
H888 C874 0.961 . S
H889 C875 0.958 . S
H890 C875 0.961 . S
H891 C875 0.960 . S
C892 C893 1.391 1_556 S
C892 C894 1.394 . S
C892 H908 0.931 . S
C893 C892 1.391 1_554 S
C893 C897 1.376 . S
C894 C892 1.394 . S
C894 C895 1.369 . S
C894 C898 1.531 . S
C895 C894 1.369 . S
C895 C896 1.410 1_556 S
C895 C903 1.503 . S
C896 C895 1.410 1_554 S
C896 C897 1.392 . S
C896 C899 1.511 . S
C897 C893 1.376 . S
C897 C896 1.392 . S
C897 H909 0.929 . S
C898 C894 1.531 . S
C898 H910 0.960 . S
C898 H911 0.962 . S
C898 H912 0.960 . S
C899 C896 1.511 . S
C899 H913 0.961 . S
C899 H914 0.961 . S
C899 H915 0.961 . S
C900 C901 1.370 1_554 S
C900 C902 1.363 . S
C900 H916 0.931 . S
C901 C900 1.370 1_556 S
C901 C905 1.408 . S
C902 C900 1.363 . S
C902 C903 1.370 1_554 S
C902 C906 1.524 . S
C903 C895 1.503 . S
C903 C902 1.370 1_556 S
C903 C904 1.403 . S
C904 C903 1.403 . S
C904 C905 1.404 . S
C904 C907 1.539 . S
C905 C901 1.408 . S
C905 C904 1.404 . S
C905 H917 0.930 . S
C906 C902 1.524 . S
C906 H918 0.956 . S
C906 H919 0.961 . S
C906 H920 0.961 . S
C907 C904 1.539 . S
C907 H921 0.958 . S
C907 H922 0.961 . S
C907 H923 0.960 . S
H908 C892 0.931 . S
H909 C897 0.929 . S
H910 C898 0.960 . S
H911 C898 0.962 . S
H912 C898 0.960 . S
H913 C899 0.961 . S
H914 C899 0.961 . S
H915 C899 0.961 . S
H916 C900 0.931 . S
H917 C905 0.930 . S
H918 C906 0.956 . S
H919 C906 0.961 . S
H920 C906 0.961 . S
H921 C907 0.958 . S
H922 C907 0.961 . S
H923 C907 0.960 . S
C924 C925 1.391 . S
C924 C926 1.394 . S
C924 H940 0.931 . S
C925 C924 1.391 . S
C925 C929 1.376 . S
C926 C924 1.394 . S
C926 C927 1.369 . S
C926 C930 1.531 . S
C927 C926 1.369 . S
C927 C928 1.410 . S
C927 C935 1.503 . S
C928 C927 1.410 . S
C928 C929 1.392 . S
C928 C931 1.511 . S
C929 C925 1.376 . S
C929 C928 1.392 . S
C929 H941 0.929 . S
C930 C926 1.531 . S
C930 H942 0.960 . S
C930 H943 0.962 . S
C930 H944 0.960 . S
C931 C928 1.511 . S
C931 H945 0.961 . S
C931 H946 0.961 . S
C931 H947 0.961 . S
C932 C933 1.370 . S
C932 C934 1.363 . S
C932 H948 0.931 . S
C933 C932 1.370 . S
C933 C937 1.408 . S
C934 C932 1.363 . S
C934 C935 1.370 . S
C934 C938 1.524 . S
C935 C927 1.503 . S
C935 C934 1.370 . S
C935 C936 1.403 . S
C936 C935 1.403 . S
C936 C937 1.404 . S
C936 C939 1.539 . S
C937 C933 1.408 . S
C937 C936 1.404 . S
C937 H949 0.930 . S
C938 C934 1.524 . S
C938 H950 0.956 . S
C938 H951 0.961 . S
C938 H952 0.961 . S
C939 C936 1.539 . S
C939 H953 0.958 . S
C939 H954 0.961 . S
C939 H955 0.960 . S
H940 C924 0.931 . S
H941 C929 0.929 . S
H942 C930 0.960 . S
H943 C930 0.962 . S
H944 C930 0.960 . S
H945 C931 0.961 . S
H946 C931 0.961 . S
H947 C931 0.961 . S
H948 C932 0.931 . S
H949 C937 0.930 . S
H950 C938 0.956 . S
H951 C938 0.961 . S
H952 C938 0.961 . S
H953 C939 0.958 . S
H954 C939 0.961 . S
H955 C939 0.960 . S
C956 C957 1.391 . S
C956 C958 1.394 . S
C956 H972 0.931 . S
C957 C956 1.391 . S
C957 C961 1.376 . S
C958 C956 1.394 . S
C958 C959 1.369 . S
C958 C962 1.531 . S
C959 C958 1.369 . S
C959 C960 1.410 . S
C959 C967 1.503 . S
C960 C959 1.410 . S
C960 C961 1.392 . S
C960 C963 1.511 . S
C961 C957 1.376 . S
C961 C960 1.392 . S
C961 H973 0.929 . S
C962 C958 1.531 . S
C962 H974 0.960 . S
C962 H975 0.962 . S
C962 H976 0.960 . S
C963 C960 1.511 . S
C963 H977 0.961 . S
C963 H978 0.961 . S
C963 H979 0.961 . S
C964 C965 1.370 . S
C964 C966 1.363 . S
C964 H980 0.931 . S
C965 C964 1.370 . S
C965 C969 1.408 . S
C966 C964 1.363 . S
C966 C967 1.370 . S
C966 C970 1.524 . S
C967 C959 1.503 . S
C967 C966 1.370 . S
C967 C968 1.403 . S
C968 C967 1.403 . S
C968 C969 1.404 . S
C968 C971 1.539 . S
C969 C965 1.408 . S
C969 C968 1.404 . S
C969 H981 0.930 . S
C970 C966 1.524 . S
C970 H982 0.956 . S
C970 H983 0.961 . S
C970 H984 0.961 . S
C971 C968 1.539 . S
C971 H985 0.958 . S
C971 H986 0.961 . S
C971 H987 0.960 . S
H972 C956 0.931 . S
H973 C961 0.929 . S
H974 C962 0.960 . S
H975 C962 0.962 . S
H976 C962 0.960 . S
H977 C963 0.961 . S
H978 C963 0.961 . S
H979 C963 0.961 . S
H980 C964 0.931 . S
H981 C969 0.930 . S
H982 C970 0.956 . S
H983 C970 0.961 . S
H984 C970 0.961 . S
H985 C971 0.958 . S
H986 C971 0.961 . S
H987 C971 0.960 . S
C988 C989 1.391 1_554 S
C988 C990 1.394 . S
C988 H1004 0.931 . S
C989 C988 1.391 1_556 S
C989 C993 1.376 . S
C990 C988 1.394 . S
C990 C991 1.369 1_554 S
C990 C994 1.531 . S
C991 C990 1.369 1_556 S
C991 C992 1.410 . S
C991 C999 1.503 1_556 S
C992 C991 1.410 . S
C992 C993 1.392 . S
C992 C995 1.511 . S
C993 C989 1.376 . S
C993 C992 1.392 . S
C993 H1005 0.929 . S
C994 C990 1.531 . S
C994 H1006 0.960 . S
C994 H1007 0.962 . S
C994 H1008 0.960 . S
C995 C992 1.511 . S
C995 H1009 0.961 . S
C995 H1010 0.961 . S
C995 H1011 0.961 . S
C996 C997 1.370 . S
C996 C998 1.363 . S
C996 H1012 0.931 . S
C997 C996 1.370 . S
C997 C1001 1.409 . S
C998 C996 1.363 . S
C998 C999 1.372 . S
C998 C1002 1.524 . S
C999 C991 1.503 1_554 S
C999 C998 1.372 . S
C999 C1000 1.401 1_554 S
C1000 C999 1.401 1_556 S
C1000 C1001 1.403 1_556 S
C1000 C1003 1.545 . S
C1001 C997 1.409 . S
C1001 C1000 1.403 1_554 S
C1001 H1013 0.928 1_554 S
C1002 C998 1.524 . S
C1002 H1014 0.956 . S
C1002 H1015 0.961 1_554 S
C1002 H1016 0.961 . S
C1003 C1000 1.545 . S
C1003 H1017 0.958 1_556 S
C1003 H1018 0.961 . S
C1003 H1019 0.960 . S
H1004 C988 0.931 . S
H1005 C993 0.929 . S
H1006 C994 0.960 . S
H1007 C994 0.962 . S
H1008 C994 0.960 . S
H1009 C995 0.961 . S
H1010 C995 0.961 . S
H1011 C995 0.961 . S
H1012 C996 0.931 . S
H1013 C1001 0.928 1_556 S
H1014 C1002 0.956 . S
H1015 C1002 0.961 1_556 S
H1016 C1002 0.961 . S
H1017 C1003 0.958 1_554 S
H1018 C1003 0.961 . S
H1019 C1003 0.960 . S
C1020 C1021 1.391 . S
C1020 C1022 1.394 . S
C1020 H1036 0.931 . S
C1021 C1020 1.391 . S
C1021 C1025 1.376 . S
C1022 C1020 1.394 . S
C1022 C1023 1.369 . S
C1022 C1026 1.531 1_545 S
C1023 C1022 1.369 . S
C1023 C1024 1.410 . S
C1023 C1031 1.503 1_545 S
C1024 C1023 1.410 . S
C1024 C1025 1.392 . S
C1024 C1027 1.511 . S
C1025 C1021 1.376 . S
C1025 C1024 1.392 . S
C1025 H1037 0.929 . S
C1026 C1022 1.531 1_565 S
C1026 H1038 0.960 . S
C1026 H1039 0.962 . S
C1026 H1040 0.960 . S
C1027 C1024 1.511 . S
C1027 H1041 0.961 . S
C1027 H1042 0.961 . S
C1027 H1043 0.961 . S
C1028 C1029 1.370 . S
C1028 C1030 1.363 . S
C1028 H1044 0.931 . S
C1029 C1028 1.370 . S
C1029 C1033 1.408 . S
C1030 C1028 1.363 . S
C1030 C1031 1.370 . S
C1030 C1034 1.524 1_565 S
C1031 C1023 1.503 1_565 S
C1031 C1030 1.370 . S
C1031 C1032 1.403 . S
C1032 C1031 1.403 . S
C1032 C1033 1.404 . S
C1032 C1035 1.539 . S
C1033 C1029 1.408 . S
C1033 C1032 1.404 . S
C1033 H1045 0.930 . S
C1034 C1030 1.524 1_545 S
C1034 H1046 0.956 . S
C1034 H1047 0.961 . S
C1034 H1048 0.961 . S
C1035 C1032 1.539 . S
C1035 H1049 0.958 . S
C1035 H1050 0.961 . S
C1035 H1051 0.960 . S
H1036 C1020 0.931 . S
H1037 C1025 0.929 . S
H1038 C1026 0.960 . S
H1039 C1026 0.962 . S
H1040 C1026 0.960 . S
H1041 C1027 0.961 . S
H1042 C1027 0.961 . S
H1043 C1027 0.961 . S
H1044 C1028 0.931 . S
H1045 C1033 0.930 . S
H1046 C1034 0.956 . S
H1047 C1034 0.961 . S
H1048 C1034 0.961 . S
H1049 C1035 0.958 . S
H1050 C1035 0.961 . S
H1051 C1035 0.960 . S
C1052 C1053 1.391 . S
C1052 C1054 1.394 . S
C1052 H1068 0.931 . S
C1053 C1052 1.391 . S
C1053 C1057 1.376 . S
C1054 C1052 1.394 . S
C1054 C1055 1.369 . S
C1054 C1058 1.531 . S
C1055 C1054 1.369 . S
C1055 C1056 1.410 . S
C1055 C1063 1.503 . S
C1056 C1055 1.410 . S
C1056 C1057 1.392 . S
C1056 C1059 1.511 . S
C1057 C1053 1.376 . S
C1057 C1056 1.392 . S
C1057 H1069 0.929 . S
C1058 C1054 1.531 . S
C1058 H1070 0.960 . S
C1058 H1071 0.962 . S
C1058 H1072 0.960 . S
C1059 C1056 1.511 . S
C1059 H1073 0.961 . S
C1059 H1074 0.961 . S
C1059 H1075 0.961 . S
C1060 C1061 1.370 . S
C1060 C1062 1.363 . S
C1060 H1076 0.931 . S
C1061 C1060 1.370 . S
C1061 C1065 1.408 . S
C1062 C1060 1.363 . S
C1062 C1063 1.370 . S
C1062 C1066 1.524 . S
C1063 C1055 1.503 . S
C1063 C1062 1.370 . S
C1063 C1064 1.403 . S
C1064 C1063 1.403 . S
C1064 C1065 1.404 . S
C1064 C1067 1.539 . S
C1065 C1061 1.408 . S
C1065 C1064 1.404 . S
C1065 H1077 0.930 . S
C1066 C1062 1.524 . S
C1066 H1078 0.956 . S
C1066 H1079 0.961 . S
C1066 H1080 0.961 . S
C1067 C1064 1.539 . S
C1067 H1081 0.958 . S
C1067 H1082 0.961 . S
C1067 H1083 0.960 . S
H1068 C1052 0.931 . S
H1069 C1057 0.929 . S
H1070 C1058 0.960 . S
H1071 C1058 0.962 . S
H1072 C1058 0.960 . S
H1073 C1059 0.961 . S
H1074 C1059 0.961 . S
H1075 C1059 0.961 . S
H1076 C1060 0.931 . S
H1077 C1065 0.930 . S
H1078 C1066 0.956 . S
H1079 C1066 0.961 . S
H1080 C1066 0.961 . S
H1081 C1067 0.958 . S
H1082 C1067 0.961 . S
H1083 C1067 0.960 . S
C1084 C1085 1.391 1_556 S
C1084 C1086 1.394 . S
C1084 H1100 0.931 . S
C1085 C1084 1.391 1_554 S
C1085 C1089 1.376 . S
C1086 C1084 1.394 . S
C1086 C1087 1.369 . S
C1086 C1090 1.531 1_655 S
C1087 C1086 1.369 . S
C1087 C1088 1.410 1_556 S
C1087 C1095 1.506 1_655 S
C1088 C1087 1.410 1_554 S
C1088 C1089 1.392 . S
C1088 C1091 1.511 . S
C1089 C1085 1.376 . S
C1089 C1088 1.392 . S
C1089 H1101 0.929 . S
C1090 C1086 1.531 1_455 S
C1090 H1102 0.960 . S
C1090 H1103 0.962 . S
C1090 H1104 0.960 . S
C1091 C1088 1.511 . S
C1091 H1105 0.961 . S
C1091 H1106 0.961 . S
C1091 H1107 0.961 1_554 S
C1092 C1093 1.370 . S
C1092 C1094 1.363 . S
C1092 H1108 0.931 . S
C1093 C1092 1.370 . S
C1093 C1097 1.408 1_554 S
C1094 C1092 1.363 . S
C1094 C1095 1.340 1_554 S
C1094 C1098 1.524 . S
C1095 C1087 1.506 1_455 S
C1095 C1094 1.340 1_556 S
C1095 C1096 1.431 . S
C1096 C1095 1.431 . S
C1096 C1097 1.404 . S
C1096 C1099 1.539 1_455 S
C1097 C1093 1.408 1_556 S
C1097 C1096 1.404 . S
C1097 H1109 0.930 . S
C1098 C1094 1.524 . S
C1098 H1110 0.956 . S
C1098 H1111 0.961 1_455 S
C1098 H1112 0.961 . S
C1099 C1096 1.539 1_655 S
C1099 H1113 0.958 1_655 S
C1099 H1114 0.961 . S
C1099 H1115 0.960 . S
H1100 C1084 0.931 . S
H1101 C1089 0.929 . S
H1102 C1090 0.960 . S
H1103 C1090 0.962 . S
H1104 C1090 0.960 . S
H1105 C1091 0.961 . S
H1106 C1091 0.961 . S
H1107 C1091 0.961 1_556 S
H1108 C1092 0.931 . S
H1109 C1097 0.930 . S
H1110 C1098 0.956 . S
H1111 C1098 0.961 1_655 S
H1112 C1098 0.961 . S
H1113 C1099 0.958 1_455 S
H1114 C1099 0.961 . S
H1115 C1099 0.960 . S
C1116 C1117 1.391 . S
C1116 C1118 1.394 . S
C1116 H1132 0.931 . S
C1117 C1116 1.391 . S
C1117 C1121 1.376 . S
C1118 C1116 1.394 . S
C1118 C1119 1.369 . S
C1118 C1122 1.531 . S
C1119 C1118 1.369 . S
C1119 C1120 1.410 . S
C1119 C1127 1.503 1_455 S
C1120 C1119 1.410 . S
C1120 C1121 1.392 . S
C1120 C1123 1.511 . S
C1121 C1117 1.376 . S
C1121 C1120 1.392 . S
C1121 H1133 0.929 . S
C1122 C1118 1.531 . S
C1122 H1134 0.960 1_455 S
C1122 H1135 0.962 . S
C1122 H1136 0.960 . S
C1123 C1120 1.511 . S
C1123 H1137 0.961 . S
C1123 H1138 0.961 1_455 S
C1123 H1139 0.961 1_455 S
C1124 C1125 1.370 . S
C1124 C1126 1.363 . S
C1124 H1140 0.931 . S
C1125 C1124 1.370 . S
C1125 C1129 1.408 . S
C1126 C1124 1.363 . S
C1126 C1127 1.370 . S
C1126 C1130 1.524 1_655 S
C1127 C1119 1.503 1_655 S
C1127 C1126 1.370 . S
C1127 C1128 1.403 . S
C1128 C1127 1.403 . S
C1128 C1129 1.404 . S
C1128 C1131 1.539 . S
C1129 C1125 1.408 . S
C1129 C1128 1.404 . S
C1129 H1141 0.930 . S
C1130 C1126 1.524 1_455 S
C1130 H1142 0.956 . S
C1130 H1143 0.961 . S
C1130 H1144 0.961 . S
C1131 C1128 1.539 . S
C1131 H1145 0.958 . S
C1131 H1146 0.961 . S
C1131 H1147 0.960 . S
H1132 C1116 0.931 . S
H1133 C1121 0.929 . S
H1134 C1122 0.960 1_655 S
H1135 C1122 0.962 . S
H1136 C1122 0.960 . S
H1137 C1123 0.961 . S
H1138 C1123 0.961 1_655 S
H1139 C1123 0.961 1_655 S
H1140 C1124 0.931 . S
H1141 C1129 0.930 . S
H1142 C1130 0.956 . S
H1143 C1130 0.961 . S
H1144 C1130 0.961 . S
H1145 C1131 0.958 . S
H1146 C1131 0.961 . S
H1147 C1131 0.960 . S
C1148 C1149 1.391 . S
C1148 C1150 1.394 . S
C1148 H1164 0.931 . S
C1149 C1148 1.391 . S
C1149 C1153 1.376 . S
C1150 C1148 1.394 . S
C1150 C1151 1.369 . S
C1150 C1154 1.531 . S
C1151 C1150 1.369 . S
C1151 C1152 1.410 . S
C1151 C1159 1.503 1_545 S
C1152 C1151 1.410 . S
C1152 C1153 1.392 . S
C1152 C1155 1.511 1_545 S
C1153 C1149 1.376 . S
C1153 C1152 1.392 . S
C1153 H1165 0.929 . S
C1154 C1150 1.531 . S
C1154 H1166 0.960 . S
C1154 H1167 0.962 . S
C1154 H1168 0.960 . S
C1155 C1152 1.511 1_565 S
C1155 H1169 0.961 . S
C1155 H1170 0.961 . S
C1155 H1171 0.961 . S
C1156 C1157 1.370 . S
C1156 C1158 1.363 . S
C1156 H1172 0.931 . S
C1157 C1156 1.370 . S
C1157 C1161 1.408 . S
C1158 C1156 1.363 . S
C1158 C1159 1.370 . S
C1158 C1162 1.524 1_565 S
C1159 C1151 1.503 1_565 S
C1159 C1158 1.370 . S
C1159 C1160 1.403 . S
C1160 C1159 1.403 . S
C1160 C1161 1.404 . S
C1160 C1163 1.539 . S
C1161 C1157 1.408 . S
C1161 C1160 1.404 . S
C1161 H1173 0.930 . S
C1162 C1158 1.524 1_545 S
C1162 H1174 0.956 . S
C1162 H1175 0.961 . S
C1162 H1176 0.961 . S
C1163 C1160 1.539 . S
C1163 H1177 0.958 . S
C1163 H1178 0.961 . S
C1163 H1179 0.960 . S
H1164 C1148 0.931 . S
H1165 C1153 0.929 . S
H1166 C1154 0.960 . S
H1167 C1154 0.962 . S
H1168 C1154 0.960 . S
H1169 C1155 0.961 . S
H1170 C1155 0.961 . S
H1171 C1155 0.961 . S
H1172 C1156 0.931 . S
H1173 C1161 0.930 . S
H1174 C1162 0.956 . S
H1175 C1162 0.961 . S
H1176 C1162 0.961 . S
H1177 C1163 0.958 . S
H1178 C1163 0.961 . S
H1179 C1163 0.960 . S
C1180 C1181 1.391 . S
C1180 C1182 1.394 . S
C1180 H1196 0.931 . S
C1181 C1180 1.391 . S
C1181 C1185 1.376 1_556 S
C1182 C1180 1.394 . S
C1182 C1183 1.369 . S
C1182 C1186 1.531 . S
C1183 C1182 1.369 . S
C1183 C1184 1.410 1_556 S
C1183 C1191 1.503 . S
C1184 C1183 1.410 1_554 S
C1184 C1185 1.392 . S
C1184 C1187 1.511 . S
C1185 C1181 1.376 1_554 S
C1185 C1184 1.392 . S
C1185 H1197 0.929 . S
C1186 C1182 1.531 . S
C1186 H1198 0.960 . S
C1186 H1199 0.962 . S
C1186 H1200 0.960 . S
C1187 C1184 1.511 . S
C1187 H1201 0.961 . S
C1187 H1202 0.961 . S
C1187 H1203 0.961 . S
C1188 C1189 1.370 1_554 S
C1188 C1190 1.363 . S
C1188 H1204 0.931 . S
C1189 C1188 1.370 1_556 S
C1189 C1193 1.408 . S
C1190 C1188 1.363 . S
C1190 C1191 1.370 1_554 S
C1190 C1194 1.524 . S
C1191 C1183 1.503 . S
C1191 C1190 1.370 1_556 S
C1191 C1192 1.403 . S
C1192 C1191 1.403 . S
C1192 C1193 1.404 . S
C1192 C1195 1.539 . S
C1193 C1189 1.408 . S
C1193 C1192 1.404 . S
C1193 H1205 0.930 . S
C1194 C1190 1.524 . S
C1194 H1206 0.956 . S
C1194 H1207 0.961 . S
C1194 H1208 0.961 . S
C1195 C1192 1.539 . S
C1195 H1209 0.958 . S
C1195 H1210 0.961 . S
C1195 H1211 0.960 . S
H1196 C1180 0.931 . S
H1197 C1185 0.929 . S
H1198 C1186 0.960 . S
H1199 C1186 0.962 . S
H1200 C1186 0.960 . S
H1201 C1187 0.961 . S
H1202 C1187 0.961 . S
H1203 C1187 0.961 . S
H1204 C1188 0.931 . S
H1205 C1193 0.930 . S
H1206 C1194 0.956 . S
H1207 C1194 0.961 . S
H1208 C1194 0.961 . S
H1209 C1195 0.958 . S
H1210 C1195 0.961 . S
H1211 C1195 0.960 . S
C1212 C1213 1.391 . S
C1212 C1214 1.394 . S
C1212 H1228 0.931 . S
C1213 C1212 1.391 . S
C1213 C1217 1.376 . S
C1214 C1212 1.394 . S
C1214 C1215 1.369 . S
C1214 C1218 1.531 . S
C1215 C1214 1.369 . S
C1215 C1216 1.410 . S
C1215 C1223 1.503 . S
C1216 C1215 1.410 . S
C1216 C1217 1.392 . S
C1216 C1219 1.511 . S
C1217 C1213 1.376 . S
C1217 C1216 1.392 . S
C1217 H1229 0.929 . S
C1218 C1214 1.531 . S
C1218 H1230 0.960 . S
C1218 H1231 0.962 . S
C1218 H1232 0.960 . S
C1219 C1216 1.511 . S
C1219 H1233 0.961 . S
C1219 H1234 0.961 . S
C1219 H1235 0.961 . S
C1220 C1221 1.370 . S
C1220 C1222 1.363 . S
C1220 H1236 0.931 . S
C1221 C1220 1.370 . S
C1221 C1225 1.408 . S
C1222 C1220 1.363 . S
C1222 C1223 1.370 . S
C1222 C1226 1.524 . S
C1223 C1215 1.503 . S
C1223 C1222 1.370 . S
C1223 C1224 1.403 . S
C1224 C1223 1.403 . S
C1224 C1225 1.404 . S
C1224 C1227 1.539 . S
C1225 C1221 1.408 . S
C1225 C1224 1.404 . S
C1225 H1237 0.930 . S
C1226 C1222 1.524 . S
C1226 H1238 0.956 . S
C1226 H1239 0.961 . S
C1226 H1240 0.961 . S
C1227 C1224 1.539 . S
C1227 H1241 0.958 . S
C1227 H1242 0.961 . S
C1227 H1243 0.960 . S
H1228 C1212 0.931 . S
H1229 C1217 0.929 . S
H1230 C1218 0.960 . S
H1231 C1218 0.962 . S
H1232 C1218 0.960 . S
H1233 C1219 0.961 . S
H1234 C1219 0.961 . S
H1235 C1219 0.961 . S
H1236 C1220 0.931 . S
H1237 C1225 0.930 . S
H1238 C1226 0.956 . S
H1239 C1226 0.961 . S
H1240 C1226 0.961 . S
H1241 C1227 0.958 . S
H1242 C1227 0.961 . S
H1243 C1227 0.960 . S
C1244 C1245 1.391 . S
C1244 C1246 1.394 . S
C1244 H1260 0.931 . S
C1245 C1244 1.391 . S
C1245 C1249 1.376 . S
C1246 C1244 1.394 . S
C1246 C1247 1.369 . S
C1246 C1250 1.531 . S
C1247 C1246 1.369 . S
C1247 C1248 1.410 . S
C1247 C1255 1.503 . S
C1248 C1247 1.410 . S
C1248 C1249 1.392 . S
C1248 C1251 1.511 . S
C1249 C1245 1.376 . S
C1249 C1248 1.392 . S
C1249 H1261 0.929 . S
C1250 C1246 1.531 . S
C1250 H1262 0.960 . S
C1250 H1263 0.962 . S
C1250 H1264 0.960 . S
C1251 C1248 1.511 . S
C1251 H1265 0.961 . S
C1251 H1266 0.961 . S
C1251 H1267 0.961 . S
C1252 C1253 1.370 . S
C1252 C1254 1.363 . S
C1252 H1268 0.931 . S
C1253 C1252 1.370 . S
C1253 C1257 1.408 . S
C1254 C1252 1.363 . S
C1254 C1255 1.370 . S
C1254 C1258 1.524 . S
C1255 C1247 1.503 . S
C1255 C1254 1.370 . S
C1255 C1256 1.403 . S
C1256 C1255 1.403 . S
C1256 C1257 1.404 . S
C1256 C1259 1.539 . S
C1257 C1253 1.408 . S
C1257 C1256 1.404 . S
C1257 H1269 0.930 . S
C1258 C1254 1.524 . S
C1258 H1270 0.956 . S
C1258 H1271 0.961 . S
C1258 H1272 0.961 . S
C1259 C1256 1.539 . S
C1259 H1273 0.958 . S
C1259 H1274 0.961 . S
C1259 H1275 0.960 . S
H1260 C1244 0.931 . S
H1261 C1249 0.929 . S
H1262 C1250 0.960 . S
H1263 C1250 0.962 . S
H1264 C1250 0.960 . S
H1265 C1251 0.961 . S
H1266 C1251 0.961 . S
H1267 C1251 0.961 . S
H1268 C1252 0.931 . S
H1269 C1257 0.930 . S
H1270 C1258 0.956 . S
H1271 C1258 0.961 . S
H1272 C1258 0.961 . S
H1273 C1259 0.958 . S
H1274 C1259 0.961 . S
H1275 C1259 0.960 . S
C1276 C1277 1.391 . S
C1276 C1278 1.394 . S
C1276 H1292 0.931 . S
C1277 C1276 1.391 . S
C1277 C1281 1.376 . S
C1278 C1276 1.394 . S
C1278 C1279 1.369 . S
C1278 C1282 1.531 . S
C1279 C1278 1.369 . S
C1279 C1280 1.410 . S
C1279 C1287 1.503 . S
C1280 C1279 1.410 . S
C1280 C1281 1.392 . S
C1280 C1283 1.511 . S
C1281 C1277 1.376 . S
C1281 C1280 1.392 . S
C1281 H1293 0.929 . S
C1282 C1278 1.531 . S
C1282 H1294 0.960 . S
C1282 H1295 0.962 . S
C1282 H1296 0.960 . S
C1283 C1280 1.511 . S
C1283 H1297 0.961 . S
C1283 H1298 0.961 . S
C1283 H1299 0.961 . S
C1284 C1285 1.370 . S
C1284 C1286 1.363 . S
C1284 H1300 0.931 . S
C1285 C1284 1.370 . S
C1285 C1289 1.408 . S
C1286 C1284 1.363 . S
C1286 C1287 1.370 . S
C1286 C1290 1.524 . S
C1287 C1279 1.503 . S
C1287 C1286 1.370 . S
C1287 C1288 1.403 . S
C1288 C1287 1.403 . S
C1288 C1289 1.404 . S
C1288 C1291 1.539 . S
C1289 C1285 1.408 . S
C1289 C1288 1.404 . S
C1289 H1301 0.930 . S
C1290 C1286 1.524 . S
C1290 H1302 0.956 . S
C1290 H1303 0.961 . S
C1290 H1304 0.961 . S
C1291 C1288 1.539 . S
C1291 H1305 0.958 . S
C1291 H1306 0.961 . S
C1291 H1307 0.960 . S
H1292 C1276 0.931 . S
H1293 C1281 0.929 . S
H1294 C1282 0.960 . S
H1295 C1282 0.962 . S
H1296 C1282 0.960 . S
H1297 C1283 0.961 . S
H1298 C1283 0.961 . S
H1299 C1283 0.961 . S
H1300 C1284 0.931 . S
H1301 C1289 0.930 . S
H1302 C1290 0.956 . S
H1303 C1290 0.961 . S
H1304 C1290 0.961 . S
H1305 C1291 0.958 . S
H1306 C1291 0.961 . S
H1307 C1291 0.960 . S
C1308 C1309 1.391 . S
C1308 C1310 1.394 . S
C1308 H1324 0.931 . S
C1309 C1308 1.391 . S
C1309 C1313 1.376 . S
C1310 C1308 1.394 . S
C1310 C1311 1.369 . S
C1310 C1314 1.531 . S
C1311 C1310 1.369 . S
C1311 C1312 1.410 . S
C1311 C1319 1.503 . S
C1312 C1311 1.410 . S
C1312 C1313 1.392 . S
C1312 C1315 1.511 . S
C1313 C1309 1.376 . S
C1313 C1312 1.392 . S
C1313 H1325 0.929 . S
C1314 C1310 1.531 . S
C1314 H1326 0.960 . S
C1314 H1327 0.962 . S
C1314 H1328 0.960 . S
C1315 C1312 1.511 . S
C1315 H1329 0.961 . S
C1315 H1330 0.961 . S
C1315 H1331 0.961 . S
C1316 C1317 1.370 . S
C1316 C1318 1.363 . S
C1316 H1332 0.931 . S
C1317 C1316 1.370 . S
C1317 C1321 1.408 . S
C1318 C1316 1.363 . S
C1318 C1319 1.370 . S
C1318 C1322 1.524 . S
C1319 C1311 1.503 . S
C1319 C1318 1.370 . S
C1319 C1320 1.403 . S
C1320 C1319 1.403 . S
C1320 C1321 1.404 . S
C1320 C1323 1.539 . S
C1321 C1317 1.408 . S
C1321 C1320 1.404 . S
C1321 H1333 0.930 . S
C1322 C1318 1.524 . S
C1322 H1334 0.956 . S
C1322 H1335 0.961 . S
C1322 H1336 0.961 . S
C1323 C1320 1.539 . S
C1323 H1337 0.958 . S
C1323 H1338 0.961 . S
C1323 H1339 0.960 . S
H1324 C1308 0.931 . S
H1325 C1313 0.929 . S
H1326 C1314 0.960 . S
H1327 C1314 0.962 . S
H1328 C1314 0.960 . S
H1329 C1315 0.961 . S
H1330 C1315 0.961 . S
H1331 C1315 0.961 . S
H1332 C1316 0.931 . S
H1333 C1321 0.930 . S
H1334 C1322 0.956 . S
H1335 C1322 0.961 . S
H1336 C1322 0.961 . S
H1337 C1323 0.958 . S
H1338 C1323 0.961 . S
H1339 C1323 0.960 . S
C1340 C1341 1.391 . S
C1340 C1342 1.394 . S
C1340 H1356 0.931 . S
C1341 C1340 1.391 . S
C1341 C1345 1.376 . S
C1342 C1340 1.394 . S
C1342 C1343 1.369 . S
C1342 C1346 1.531 . S
C1343 C1342 1.369 . S
C1343 C1344 1.410 . S
C1343 C1351 1.503 . S
C1344 C1343 1.410 . S
C1344 C1345 1.392 . S
C1344 C1347 1.511 . S
C1345 C1341 1.376 . S
C1345 C1344 1.392 . S
C1345 H1357 0.929 . S
C1346 C1342 1.531 . S
C1346 H1358 0.960 . S
C1346 H1359 0.962 . S
C1346 H1360 0.960 . S
C1347 C1344 1.511 . S
C1347 H1361 0.961 . S
C1347 H1362 0.961 . S
C1347 H1363 0.961 . S
C1348 C1349 1.370 . S
C1348 C1350 1.363 . S
C1348 H1364 0.931 . S
C1349 C1348 1.370 . S
C1349 C1353 1.408 . S
C1350 C1348 1.363 . S
C1350 C1351 1.370 . S
C1350 C1354 1.524 . S
C1351 C1343 1.503 . S
C1351 C1350 1.370 . S
C1351 C1352 1.403 . S
C1352 C1351 1.403 . S
C1352 C1353 1.404 . S
C1352 C1355 1.539 . S
C1353 C1349 1.408 . S
C1353 C1352 1.404 . S
C1353 H1365 0.930 . S
C1354 C1350 1.524 . S
C1354 H1366 0.956 . S
C1354 H1367 0.961 . S
C1354 H1368 0.961 . S
C1355 C1352 1.539 . S
C1355 H1369 0.958 . S
C1355 H1370 0.961 . S
C1355 H1371 0.960 . S
H1356 C1340 0.931 . S
H1357 C1345 0.929 . S
H1358 C1346 0.960 . S
H1359 C1346 0.962 . S
H1360 C1346 0.960 . S
H1361 C1347 0.961 . S
H1362 C1347 0.961 . S
H1363 C1347 0.961 . S
H1364 C1348 0.931 . S
H1365 C1353 0.930 . S
H1366 C1354 0.956 . S
H1367 C1354 0.961 . S
H1368 C1354 0.961 . S
H1369 C1355 0.958 . S
H1370 C1355 0.961 . S
H1371 C1355 0.960 . S
C1372 C1373 1.391 . S
C1372 C1374 1.394 . S
C1372 H1388 0.931 . S
C1373 C1372 1.391 . S
C1373 C1377 1.376 . S
C1374 C1372 1.394 . S
C1374 C1375 1.369 . S
C1374 C1378 1.531 . S
C1375 C1374 1.369 . S
C1375 C1376 1.410 . S
C1375 C1383 1.503 . S
C1376 C1375 1.410 . S
C1376 C1377 1.392 . S
C1376 C1379 1.511 . S
C1377 C1373 1.376 . S
C1377 C1376 1.392 . S
C1377 H1389 0.929 . S
C1378 C1374 1.531 . S
C1378 H1390 0.960 . S
C1378 H1391 0.962 . S
C1378 H1392 0.960 . S
C1379 C1376 1.511 . S
C1379 H1393 0.961 . S
C1379 H1394 0.961 . S
C1379 H1395 0.961 . S
C1380 C1381 1.370 . S
C1380 C1382 1.363 . S
C1380 H1396 0.931 . S
C1381 C1380 1.370 . S
C1381 C1385 1.408 . S
C1382 C1380 1.363 . S
C1382 C1383 1.370 . S
C1382 C1386 1.524 . S
C1383 C1375 1.503 . S
C1383 C1382 1.370 . S
C1383 C1384 1.403 . S
C1384 C1383 1.403 . S
C1384 C1385 1.404 . S
C1384 C1387 1.539 . S
C1385 C1381 1.408 . S
C1385 C1384 1.404 . S
C1385 H1397 0.930 . S
C1386 C1382 1.524 . S
C1386 H1398 0.956 . S
C1386 H1399 0.961 . S
C1386 H1400 0.961 . S
C1387 C1384 1.539 . S
C1387 H1401 0.958 . S
C1387 H1402 0.961 . S
C1387 H1403 0.960 . S
H1388 C1372 0.931 . S
H1389 C1377 0.929 . S
H1390 C1378 0.960 . S
H1391 C1378 0.962 . S
H1392 C1378 0.960 . S
H1393 C1379 0.961 . S
H1394 C1379 0.961 . S
H1395 C1379 0.961 . S
H1396 C1380 0.931 . S
H1397 C1385 0.930 . S
H1398 C1386 0.956 . S
H1399 C1386 0.961 . S
H1400 C1386 0.961 . S
H1401 C1387 0.958 . S
H1402 C1387 0.961 . S
H1403 C1387 0.960 . S
C637 C39 1.342 . S
C645 C569 1.327 . S
C669 C92 1.479 . S
C677 C622 1.466 . S
C701 C357 1.431 . S
C709 C145 1.453 . S
C733 C198 1.294 . S
C741 C410 1.308 . S
C765 C463 1.446 . S
C773 C251 1.469 . S
C797 C516 1.475 . S
C805 C304 1.469 . S
C829 C347 1.392 . S
C837 C29 1.384 . S
C861 C400 1.391 . S
C869 C82 1.387 . S
C893 C453 1.351 . S
C901 C135 1.373 . S
C925 C188 1.370 . S
C933 C506 1.378 . S
C957 C241 1.366 . S
C965 C559 1.377 . S
C989 C294 1.353 . S
C997 C612 1.372 . S
C1021 C22 2.959 . S
C1029 C181 2.947 . S
C1053 C75 2.948 . S
C1061 C234 2.954 . S
C1085 C128 2.915 . S
C1093 C287 2.934 . S
C1117 C499 2.971 . S
C1125 C340 2.943 . S
C1149 C552 2.962 . S
C1157 C393 2.946 . S
C1181 C605 2.939 . S
C1189 C446 2.925 . S
C1213 C38 2.316 . S
C1221 C462 2.310 . S
C1245 C515 2.431 . S
C1253 C91 2.433 . S
C1277 C144 2.310 . S
C1285 C568 2.311 . S
C1309 C621 2.317 . S
C1317 C197 2.305 . S
C1341 C250 2.423 . S
C1349 C356 2.434 . S
C1373 C303 2.297 . S
C1381 C409 2.308 . S
