# Generated by pormake.
# Topology wlc, (5)-cn, num edge types: 1
# Building blocks:
#     Node 0, Type 0, BuildingBlock: BEQFEK_clean_sbu_0, # of connection points: 5
#     Node 1, Type 0, BuildingBlock: BEQFEK_clean_sbu_0, # of connection points: 5
#     Node 2, Type 0, BuildingBlock: BEQFEK_clean_sbu_0, # of connection points: 5
#     Node 3, Type 0, BuildingBlock: BEQFEK_clean_sbu_0, # of connection points: 5
#     Node 4, Type 0, BuildingBlock: BEQFEK_clean_sbu_0, # of connection points: 5
#     Node 5, Type 0, BuildingBlock: BEQFEK_clean_sbu_0, # of connection points: 5
#     Node 6, Type 0, BuildingBlock: BEQFEK_clean_sbu_0, # of connection points: 5
#     Node 7, Type 0, BuildingBlock: BEQFEK_clean_sbu_0, # of connection points: 5
#     Node 8, Type 0, BuildingBlock: BEQFEK_clean_sbu_0, # of connection points: 5
#     Node 9, Type 0, BuildingBlock: BEQFEK_clean_sbu_0, # of connection points: 5
#     Node 10, Type 0, BuildingBlock: BEQFEK_clean_sbu_0, # of connection points: 5
#     Node 11, Type 0, BuildingBlock: BEQFEK_clean_sbu_0, # of connection points: 5
#     Edge 12, Type (0, 0), BuildingBlock: TEMPAE_clean_linker_10, # of connection points: 2
#     Edge 13, Type (0, 0), BuildingBlock: TEMPAE_clean_linker_10, # of connection points: 2
#     Edge 14, Type (0, 0), BuildingBlock: TEMPAE_clean_linker_10, # of connection points: 2
#     Edge 15, Type (0, 0), BuildingBlock: TEMPAE_clean_linker_10, # of connection points: 2
#     Edge 16, Type (0, 0), BuildingBlock: TEMPAE_clean_linker_10, # of connection points: 2
#     Edge 17, Type (0, 0), BuildingBlock: TEMPAE_clean_linker_10, # of connection points: 2
#     Edge 18, Type (0, 0), BuildingBlock: TEMPAE_clean_linker_10, # of connection points: 2
#     Edge 19, Type (0, 0), BuildingBlock: TEMPAE_clean_linker_10, # of connection points: 2
#     Edge 20, Type (0, 0), BuildingBlock: TEMPAE_clean_linker_10, # of connection points: 2
#     Edge 21, Type (0, 0), BuildingBlock: TEMPAE_clean_linker_10, # of connection points: 2
#     Edge 22, Type (0, 0), BuildingBlock: TEMPAE_clean_linker_10, # of connection points: 2
#     Edge 23, Type (0, 0), BuildingBlock: TEMPAE_clean_linker_10, # of connection points: 2
#     Edge 24, Type (0, 0), BuildingBlock: TEMPAE_clean_linker_10, # of connection points: 2
#     Edge 25, Type (0, 0), BuildingBlock: TEMPAE_clean_linker_10, # of connection points: 2
#     Edge 26, Type (0, 0), BuildingBlock: TEMPAE_clean_linker_10, # of connection points: 2
#     Edge 27, Type (0, 0), BuildingBlock: TEMPAE_clean_linker_10, # of connection points: 2
#     Edge 28, Type (0, 0), BuildingBlock: TEMPAE_clean_linker_10, # of connection points: 2
#     Edge 29, Type (0, 0), BuildingBlock: TEMPAE_clean_linker_10, # of connection points: 2
#     Edge 30, Type (0, 0), BuildingBlock: TEMPAE_clean_linker_10, # of connection points: 2
#     Edge 31, Type (0, 0), BuildingBlock: TEMPAE_clean_linker_10, # of connection points: 2
#     Edge 32, Type (0, 0), BuildingBlock: TEMPAE_clean_linker_10, # of connection points: 2
#     Edge 33, Type (0, 0), BuildingBlock: TEMPAE_clean_linker_10, # of connection points: 2
#     Edge 34, Type (0, 0), BuildingBlock: TEMPAE_clean_linker_10, # of connection points: 2
#     Edge 35, Type (0, 0), BuildingBlock: TEMPAE_clean_linker_10, # of connection points: 2
#     Edge 36, Type (0, 0), BuildingBlock: TEMPAE_clean_linker_10, # of connection points: 2
#     Edge 37, Type (0, 0), BuildingBlock: TEMPAE_clean_linker_10, # of connection points: 2
#     Edge 38, Type (0, 0), BuildingBlock: TEMPAE_clean_linker_10, # of connection points: 2
#     Edge 39, Type (0, 0), BuildingBlock: TEMPAE_clean_linker_10, # of connection points: 2
#     Edge 40, Type (0, 0), BuildingBlock: TEMPAE_clean_linker_10, # of connection points: 2
#     Edge 41, Type (0, 0), BuildingBlock: TEMPAE_clean_linker_10, # of connection points: 2
# Relax obj value: 0.787
# Max RMSD: 0.281
# Mean RMSD: 0.281
data_MOF--net-wlc--node1-BEQFEK_clean_sbu_0--edge1-TEMPAE_clean_linker_10
_symmetry_space_group_name_H-M    P1
_symmetry_Int_Tables_number       1
_symmetry_cell_setting            triclinic
loop_
_symmetry_equiv_pos_as_xyz
'x, y, z'
_cell_length_a     47.146443
_cell_length_b     47.158054
_cell_length_c     30.56554
_cell_angle_alpha  90.010668
_cell_angle_beta   90.111192
_cell_angle_gamma 119.9587
loop_
_atom_site_label
_atom_site_type_symbol
_atom_site_fract_x
_atom_site_fract_y
_atom_site_fract_z
_atom_type_partial_charge
Co0 Co 0.09857 0.40949 0.15051 0.0
Co1 Co 0.05744 0.35038 0.08906 0.0
C2 C 0.12253 0.36538 0.1283 0.0
O3 O 0.1291 0.39345 0.1418 0.0
O4 O 0.09563 0.34648 0.10906 0.0
C5 C 0.14898 0.47299 0.17997 0.0
O6 O 0.16528 0.47285 0.14522 0.0
C7 C 0.05131 0.32188 0.00326 0.0
C8 C 0.99825 0.28722 -0.00165 0.0
C9 C 0.02695 0.30146 0.97408 0.0
N10 N 0.03735 0.32068 0.04197 0.0
N11 N 0.00578 0.29919 0.03931 0.0
C12 C 0.08717 0.34331 0.99474 0.0
H13 H 0.09284 0.36894 0.98999 0.0
H14 H 0.09483 0.33499 0.9654 0.0
H15 H 0.1014 0.34307 0.0235 0.0
C16 C 0.0804 0.44394 0.08614 0.0
N17 N 0.08323 0.41801 0.09837 0.0
N18 N 0.06625 0.39337 0.07158 0.0
C19 C 0.05235 0.40316 0.04077 0.0
C20 C 0.06081 0.43552 0.04903 0.0
C21 C 0.09097 0.47368 0.11415 0.0
H22 H 0.08485 0.46631 0.14881 0.0
H23 H 0.11787 0.48976 0.11144 0.0
H24 H 0.07896 0.48781 0.1045 0.0
O25 O 0.06091 0.37662 0.18431 0.0
O26 O 0.02792 0.33574 0.14029 0.0
H27 H 0.00858 0.35969 0.0211 0.0
H28 H 0.02054 0.39407 0.98451 0.0
C29 C 0.02958 0.38129 0.00585 0.0
H30 H 0.04273 0.37267 0.98472 0.0
H31 H 0.98909 0.29428 0.06456 0.0
O32 O 0.12076 0.44871 0.1874 0.0
C33 C 0.03469 0.34949 0.17776 0.0
Co34 Co 0.59091 0.67391 0.16136 0.0
Co35 Co 0.65202 0.68996 0.10647 0.0
C36 C 0.6342 0.7404 0.13975 0.0
O37 O 0.60507 0.71945 0.14979 0.0
O38 O 0.65391 0.7316 0.12528 0.0
C39 C 0.52814 0.66233 0.1906 0.0
O40 O 0.53135 0.68369 0.16061 0.0
C41 C 0.6788 0.71679 0.02301 0.0
C42 C 0.71967 0.70725 0.01372 0.0
C43 C 0.7027 0.72071 0.99348 0.0
N44 N 0.68168 0.70221 0.05903 0.0
N45 N 0.70645 0.6969 0.05373 0.0
C46 C 0.6512 0.72337 0.01553 0.0
H47 H 0.63168 0.71068 0.04026 0.0
H48 H 0.64079 0.71532 0.98223 0.0
H49 H 0.66057 0.75006 0.01823 0.0
C50 C 0.5578 0.62204 0.09587 0.0
N51 N 0.58407 0.64959 0.11035 0.0
N52 N 0.61001 0.65498 0.08794 0.0
C53 C 0.6011 0.63043 0.05871 0.0
C54 C 0.56766 0.60853 0.06308 0.0
C55 C 0.52406 0.60821 0.11443 0.0
H56 H 0.51735 0.62759 0.11516 0.0
H57 H 0.50549 0.58757 0.09453 0.0
H58 H 0.52368 0.59972 0.14839 0.0
O59 O 0.62439 0.67134 0.19808 0.0
O60 O 0.66669 0.67676 0.15924 0.0
H61 H 0.61419 0.60053 0.01931 0.0
H62 H 0.63204 0.64279 0.00283 0.0
C63 C 0.62491 0.62606 0.03134 0.0
H64 H 0.64736 0.63276 0.05062 0.0
H65 H 0.71357 0.68527 0.07668 0.0
O66 O 0.55073 0.65543 0.19594 0.0
C67 C 0.65164 0.67179 0.19559 0.0
Co68 Co 0.31282 0.88974 0.14335 0.0
Co69 Co 0.2945 0.93337 0.08968 0.0
C70 C 0.24659 0.86711 0.12869 0.0
O71 O 0.26741 0.85764 0.13028 0.0
O72 O 0.25478 0.8955 0.11456 0.0
C73 C 0.33097 0.84181 0.16699 0.0
O74 O 0.31608 0.82679 0.13068 0.0
C75 C 0.26878 0.93638 0.00597 0.0
C76 C 0.28156 0.98807 0.00074 0.0
C77 C 0.26942 0.95926 0.97677 0.0
N78 N 0.28111 0.95132 0.04432 0.0
N79 N 0.28784 0.98199 0.04157 0.0
C80 C 0.2582 0.90116 -0.00219 0.0
H81 H 0.24562 0.88642 0.02716 0.0
H82 H 0.28007 0.89863 0.99208 0.0
H83 H 0.24153 0.89151 0.96915 0.0
C84 C 0.36653 0.9132 0.07945 0.0
N85 N 0.33734 0.90862 0.09285 0.0
N86 N 0.32901 0.92647 0.06894 0.0
C87 C 0.35269 0.94288 0.03899 0.0
C88 C 0.37722 0.93493 0.04461 0.0
C89 C 0.38659 0.90224 0.10487 0.0
H90 H 0.38478 0.90591 0.14033 0.0
H91 H 0.37707 0.87584 0.09866 0.0
H92 H 0.41282 0.91589 0.09571 0.0
O93 O 0.3141 0.92478 0.18074 0.0
O94 O 0.31035 0.96233 0.14103 0.0
H95 H 0.35053 0.98653 0.0271 0.0
H96 H 0.37581 0.97989 0.98843 0.0
C97 C 0.35316 0.96786 0.00829 0.0
H98 H 0.33219 0.95571 0.98548 0.0
H99 H 0.29873 -0.00075 0.06654 0.0
O100 O 0.33159 0.86809 0.17788 0.0
C101 C 0.3142 0.95183 0.17777 0.0
Co102 Co 0.59726 0.92757 0.33316 0.0
Co103 Co 0.65476 0.95599 0.4007 0.0
C104 C 0.63666 0.89568 0.34811 0.0
O105 O 0.61203 0.89566 0.33148 0.0
O106 O 0.65546 0.91766 0.37494 0.0
C107 C 0.53648 0.8789 0.2994 0.0
O108 O 0.54178 0.86038 0.32645 0.0
C109 C 0.67913 0.95186 0.48559 0.0
C110 C 0.71714 0.003 0.49861 0.0
C111 C 0.6998 0.97241 0.51814 0.0
N112 N 0.6832 0.96978 0.44961 0.0
N113 N 0.70666 0.00013 0.45702 0.0
C114 C 0.65493 0.91599 0.48835 0.0
H115 H 0.62992 0.91229 0.49233 0.0
H116 H 0.66068 0.90449 0.51608 0.0
H117 H 0.65512 0.90375 0.45749 0.0
C118 C 0.56323 0.9394 0.40417 0.0
N119 N 0.58858 0.93649 0.3896 0.0
N120 N 0.61264 0.94933 0.41821 0.0
C121 C 0.60324 0.96113 0.45216 0.0
C122 C 0.57156 0.95506 0.44443 0.0
C123 C 0.53451 0.93312 0.37618 0.0
H124 H 0.54329 0.94509 0.34394 0.0
H125 H 0.51899 0.9064 0.37072 0.0
H126 H 0.51936 0.94244 0.39114 0.0
O127 O 0.63211 0.96818 0.30637 0.0
O128 O 0.67332 0.98938 0.35435 0.0
H129 H 0.64848 0.00094 0.47585 0.0
H130 H 0.61366 0.99097 0.51066 0.0
C131 C 0.62524 0.98077 0.48907 0.0
H132 H 0.63097 0.96482 0.50929 0.0
H133 H 0.71397 0.01927 0.4347 0.0
O134 O 0.55752 0.90919 0.29672 0.0
C135 C 0.66092 0.99016 0.3176 0.0
Co136 Co 0.08996 0.6694 0.35341 0.0
Co137 Co 0.04679 0.69228 0.40016 0.0
C138 C 0.11828 0.7369 0.37324 0.0
O139 O 0.12427 0.71395 0.36589 0.0
O140 O 0.08989 0.73065 0.38507 0.0
C141 C 0.1386 0.65257 0.32674 0.0
O142 O 0.15858 0.67564 0.35376 0.0
C143 C 0.04135 0.71886 0.48129 0.0
C144 C 0.99635 0.72201 0.47489 0.0
C145 C 0.02167 0.72812 0.50363 0.0
N146 N 0.02847 0.70813 0.44156 0.0
N147 N 0.00188 0.71054 0.43738 0.0
C148 C 0.07032 0.71717 0.49828 0.0
H149 H 0.07769 0.70395 0.47519 0.0
H150 H 0.06464 0.70483 0.53062 0.0
H151 H 0.09138 0.74231 0.50219 0.0
C152 C 0.06094 0.61704 0.41841 0.0
N153 N 0.06729 0.64638 0.40335 0.0
N154 N 0.04742 0.65469 0.42197 0.0
C155 C 0.02708 0.63035 0.44897 0.0
C156 C 0.03479 0.60544 0.44729 0.0
C157 C 0.07812 0.59946 0.40281 0.0
H158 H 0.06964 0.59001 0.36924 0.0
H159 H 0.10485 0.61677 0.40164 0.0
H160 H 0.07337 0.57878 0.42469 0.0
O161 O 0.05893 0.67163 0.31118 0.0
O162 O 0.02283 0.68127 0.34495 0.0
H163 H 0.9787 0.6035 0.47743 0.0
H164 H 0.00589 0.6427 0.50194 0.0
C165 C 0.998 0.62906 0.47056 0.0
H166 H 0.98785 0.64106 0.44954 0.0
H167 H 0.9871 0.70357 0.40949 0.0
O168 O 0.10922 0.6464 0.3229 0.0
C169 C 0.03394 0.67541 0.31027 0.0
Co170 Co 0.34053 0.39186 0.32029 0.0
Co171 Co 0.31306 0.334 0.38707 0.0
C172 C 0.26984 0.35285 0.33738 0.0
O173 O 0.29411 0.37747 0.32047 0.0
O174 O 0.27354 0.33381 0.36314 0.0
C175 C 0.35022 0.45152 0.28655 0.0
O176 O 0.32507 0.44433 0.31195 0.0
C177 C 0.28445 0.31146 0.47171 0.0
C178 C 0.28932 0.26795 0.4838 0.0
C179 C 0.27863 0.28773 0.50277 0.0
N180 N 0.29783 0.30596 0.43637 0.0
N181 N 0.30019 0.27957 0.44331 0.0
C182 C 0.28088 0.34112 0.47683 0.0
H183 H 0.29388 0.35902 0.45036 0.0
H184 H 0.29053 0.35284 0.5091 0.0
H185 H 0.25457 0.3337 0.47503 0.0
C186 C 0.3864 0.4264 0.39157 0.0
N187 N 0.35907 0.40031 0.37623 0.0
N188 N 0.349 0.376 0.40417 0.0
C189 C 0.37023 0.38591 0.43823 0.0
C190 C 0.39465 0.41818 0.4312 0.0
C191 C 0.40523 0.45809 0.36741 0.0
H192 H 0.41435 0.45376 0.33611 0.0
H193 H 0.38876 0.46787 0.35985 0.0
H194 H 0.42614 0.47676 0.38681 0.0
O195 O 0.34518 0.35663 0.29203 0.0
O196 O 0.32645 0.31503 0.33919 0.0
H197 H 0.36225 0.33923 0.46003 0.0
H198 H 0.39389 0.37386 0.48984 0.0
C199 C 0.36964 0.36375 0.47369 0.0
H200 H 0.3514 0.36094 0.4987 0.0
H201 H 0.3103 0.27026 0.42114 0.0
O202 O 0.36132 0.43189 0.28451 0.0
C203 C 0.33853 0.32767 0.30209 0.0
Co204 Co 0.92415 0.58671 0.81647 0.0
Co205 Co 0.9549 0.64405 0.88398 0.0
C206 C 0.89023 0.62283 0.84052 0.0
O207 O 0.8912 0.59981 0.82055 0.0
O208 O 0.91306 0.64171 0.86638 0.0
C209 C 0.87403 0.52683 0.78255 0.0
O210 O 0.85613 0.53369 0.80859 0.0
C211 C 0.95555 0.66451 0.9723 0.0
C212 C 0.00365 0.70947 0.97867 0.0
C213 C 0.97629 0.68762 0.0024 0.0
N214 N 0.97033 0.67186 0.93323 0.0
N215 N -0.00122 0.69916 0.93682 0.0
C216 C 0.92223 0.63555 0.97984 0.0
H217 H 0.90646 0.6313 0.95082 0.0
H218 H 0.92433 0.61334 0.98443 0.0
H219 H 0.91056 0.63924 0.00913 0.0
C220 C 0.94043 0.55336 0.88436 0.0
N221 N 0.93672 0.57855 0.87124 0.0
N222 N 0.95241 0.6033 0.89823 0.0
C223 C 0.96801 0.59509 0.92848 0.0
C224 C 0.96091 0.56306 0.92072 0.0
C225 C 0.92552 0.52105 0.86126 0.0
H226 H 0.93822 0.52398 0.82964 0.0
H227 H 0.89939 0.51244 0.8544 0.0
H228 H 0.92698 0.50219 0.88126 0.0
O229 O 0.96266 0.62295 0.78655 0.0
O230 O 0.98448 0.66414 0.83451 0.0
H231 H 0.00636 0.64381 0.94405 0.0
H232 H 0.01214 0.61187 0.96705 0.0
C233 C 0.99369 0.61912 0.95899 0.0
H234 H 0.98192 0.62024 0.98981 0.0
H235 H 0.01547 0.70981 0.91127 0.0
O236 O 0.9047 0.54668 0.78024 0.0
C237 C 0.98401 0.65227 0.79692 0.0
Co238 Co 0.38394 0.33833 0.817 0.0
Co239 Co 0.32828 0.30743 0.88633 0.0
C240 C 0.34785 0.26691 0.83336 0.0
O241 O 0.36997 0.29218 0.81461 0.0
O242 O 0.32962 0.2687 0.86245 0.0
C243 C 0.44516 0.35152 0.78816 0.0
O244 O 0.43925 0.32848 0.81685 0.0
C245 C 0.30693 0.27846 0.97118 0.0
C246 C 0.26369 0.28352 0.98456 0.0
C247 C 0.28396 0.27324 0.00323 0.0
N248 N 0.3007 0.29146 0.93596 0.0
N249 N 0.27439 0.29377 0.94362 0.0
C250 C 0.33657 0.27466 0.97489 0.0
H251 H 0.35381 0.28735 0.94764 0.0
H252 H 0.34925 0.28453 0.00657 0.0
H253 H 0.32887 0.24829 0.97324 0.0
C254 C 0.4197 0.38324 0.88896 0.0
N255 N 0.39345 0.35605 0.87347 0.0
N256 N 0.37015 0.34429 0.90308 0.0
C257 C 0.38102 0.36415 0.93862 0.0
C258 C 0.41302 0.38907 0.93095 0.0
C259 C 0.44876 0.40603 0.8619 0.0
H260 H 0.44087 0.408 0.82843 0.0
H261 H 0.46583 0.39634 0.85998 0.0
H262 H 0.46215 0.43096 0.87624 0.0
O263 O 0.34864 0.34342 0.79128 0.0
O264 O 0.30748 0.31986 0.8389 0.0
H265 H 0.33531 0.35319 0.96794 0.0
H266 H 0.37106 0.38349 -0.00267 0.0
C267 C 0.36066 0.36055 0.97802 0.0
H268 H 0.35987 0.34128 -0.00046 0.0
H269 H 0.26468 0.30371 0.92174 0.0
O270 O 0.4234 0.35937 0.78101 0.0
C271 C 0.31926 0.33422 0.80251 0.0
Co272 Co 0.67892 0.09197 0.85129 0.0
Co273 Co 0.69502 0.0466 0.90602 0.0
C274 C 0.74547 0.11368 0.8701 0.0
O275 O 0.72496 0.12291 0.86181 0.0
O276 O 0.73613 0.08536 0.88558 0.0
C277 C 0.66787 0.14354 0.82037 0.0
O278 O 0.69006 0.16213 0.84932 0.0
C279 C 0.71777 0.04219 0.99143 0.0
C280 C 0.71531 0.9942 0.99144 0.0
C281 C 0.72312 0.02125 0.0176 0.0
N282 N 0.70745 0.02825 0.95206 0.0
N283 N 0.7065 -0.00021 0.95183 0.0
C284 C 0.71954 0.07372 0.00421 0.0
H285 H 0.70865 0.08201 0.97866 0.0
H286 H 0.70676 0.07084 0.03577 0.0
H287 H 0.74553 0.093 0.00809 0.0
C288 C 0.62695 0.07232 0.91627 0.0
N289 N 0.65519 0.0747 0.90283 0.0
N290 N 0.66031 0.05359 0.92435 0.0
C291 C 0.6348 0.03619 0.95135 0.0
C292 C 0.61255 0.0473 0.94687 0.0
C293 C 0.61301 0.09219 0.89778 0.0
H294 H 0.63244 0.11824 0.89627 0.0
H295 H 0.59265 0.09022 0.91816 0.0
H296 H 0.60397 0.08372 0.86407 0.0
O297 O 0.67593 0.05555 0.81445 0.0
O298 O 0.68076 0.01867 0.85432 0.0
H299 H 0.64115 0.99425 0.95698 0.0
H300 H 0.60299 0.98832 0.97909 0.0
C301 C 0.62945 0.00611 0.97501 0.0
H302 H 0.64091 0.01325 0.00789 0.0
H303 H 0.69893 0.98382 0.92516 0.0
O304 O 0.66005 0.11368 0.81657 0.0
C305 C 0.67605 0.02859 0.8177 0.0
Co306 Co 0.41922 0.10018 0.65575 0.0
Co307 Co 0.35989 0.05742 0.59547 0.0
C308 C 0.37583 0.12397 0.63227 0.0
O309 O 0.40405 0.13122 0.64609 0.0
O310 O 0.3572 0.09662 0.61383 0.0
C311 C 0.48129 0.15057 0.69018 0.0
O312 O 0.47915 0.16989 0.66101 0.0
C313 C 0.33733 0.05106 0.50679 0.0
C314 C 0.29309 0.00213 0.50501 0.0
C315 C 0.31379 0.02836 0.47868 0.0
N316 N 0.33125 0.03849 0.54727 0.0
N317 N 0.30442 0.00949 0.54634 0.0
C318 C 0.36533 0.08431 0.49614 0.0
H319 H 0.38766 0.08265 0.49023 0.0
H320 H 0.35991 0.09443 0.46655 0.0
H321 H 0.3705 0.10109 0.52427 0.0
C322 C 0.45379 0.08231 0.59151 0.0
N323 N 0.42753 0.08448 0.60377 0.0
N324 N 0.40217 0.06448 0.57984 0.0
C325 C 0.41125 0.04795 0.55247 0.0
C326 C 0.44433 0.05871 0.55897 0.0
C327 C 0.48679 0.10096 0.61267 0.0
H328 H 0.49392 0.12712 0.61508 0.0
H329 H 0.50577 0.09906 0.59359 0.0
H330 H 0.48568 0.09143 0.64619 0.0
O331 O 0.38498 0.06279 0.68996 0.0
O332 O 0.34415 0.02871 0.64655 0.0
H333 H 0.39675 0.00109 0.5223 0.0
H334 H 0.38405 0.02631 0.49397 0.0
C335 C 0.38756 0.01845 0.52676 0.0
H336 H 0.36355 0.00567 0.54355 0.0
H337 H 0.29471 0.99419 0.57346 0.0
O338 O 0.45863 0.12089 0.69277 0.0
C339 C 0.35764 0.03653 0.68412 0.0
Co340 Co 0.88811 0.30569 0.64842 0.0
Co341 Co 0.93256 0.29186 0.58864 0.0
C342 C 0.86866 0.23937 0.62743 0.0
O343 O 0.85892 0.25925 0.63702 0.0
O344 O 0.89653 0.24936 0.61013 0.0
C345 C 0.83618 0.31716 0.67283 0.0
O346 O 0.82215 0.30112 0.6367 0.0
C347 C 0.93811 0.26923 0.50325 0.0
C348 C 0.99102 0.28697 0.49767 0.0
C349 C 0.96193 0.27212 0.47401 0.0
N350 N 0.95266 0.28268 0.54148 0.0
N351 N 0.98416 0.29253 0.53842 0.0
C352 C 0.90215 0.25487 0.49539 0.0
H353 H 0.89684 0.27479 0.48798 0.0
H354 H 0.89372 0.23719 0.46779 0.0
H355 H 0.88831 0.24233 0.52529 0.0
C356 C 0.90585 0.35949 0.58595 0.0
N357 N 0.9037 0.33088 0.59746 0.0
N358 N 0.92176 0.3245 0.57104 0.0
C359 C 0.93568 0.34879 0.54119 0.0
C360 C 0.926 0.37175 0.54965 0.0
C361 C 0.89445 0.37787 0.61417 0.0
H362 H 0.8989 0.37514 0.6491 0.0
H363 H 0.86785 0.36779 0.60894 0.0
H364 H 0.90723 0.40437 0.60648 0.0
O365 O 0.92583 0.31107 0.68361 0.0
O366 O 0.96192 0.30795 0.63993 0.0
H367 H 0.98099 0.35134 0.52443 0.0
H368 H 0.96921 0.37386 0.48759 0.0
C369 C 0.96012 0.35149 0.50782 0.0
H370 H 0.94847 0.33014 0.48557 0.0
H371 H 0.00119 0.30458 0.56333 0.0
O372 O 0.86374 0.32077 0.68407 0.0
C373 C 0.95329 0.31247 0.67765 0.0
Co374 Co 0.64697 0.61959 0.69872 0.0
Co375 Co 0.68501 0.66573 0.62165 0.0
C376 C 0.72051 0.65147 0.68679 0.0
O377 O 0.69355 0.6364 0.70697 0.0
O378 O 0.72193 0.66231 0.64827 0.0
C379 C 0.63681 0.56226 0.73458 0.0
O380 O 0.66117 0.56959 0.70758 0.0
C381 C 0.71691 0.68753 0.53644 0.0
C382 C 0.69745 0.71908 0.5144 0.0
C383 C 0.71542 0.70478 0.50041 0.0
N384 N 0.69963 0.69062 0.56921 0.0
N385 N 0.68884 0.71024 0.55623 0.0
C386 C 0.73458 0.66863 0.54028 0.0
H387 H 0.74804 0.67459 0.57178 0.0
H388 H 0.71671 0.64201 0.54032 0.0
H389 H 0.75233 0.67457 0.51323 0.0
C390 C 0.60501 0.57764 0.62863 0.0
N391 N 0.63212 0.6048 0.64217 0.0
N392 N 0.64722 0.62367 0.60854 0.0
C393 C 0.6299 0.60864 0.57193 0.0
C394 C 0.60281 0.57879 0.58363 0.0
C395 C 0.57942 0.55314 0.65871 0.0
H396 H 0.57807 0.56529 0.68904 0.0
H397 H 0.58588 0.53422 0.66741 0.0
H398 H 0.55491 0.54078 0.64299 0.0
O399 O 0.63937 0.65509 0.71351 0.0
O400 O 0.67466 0.69117 0.66596 0.0
H401 H 0.63998 0.64696 0.52635 0.0
H402 H 0.62045 0.6065 0.50215 0.0
C403 C 0.63852 0.62276 0.52686 0.0
H404 H 0.66277 0.62629 0.51777 0.0
H405 H 0.67391 0.71596 0.57502 0.0
O406 O 0.62621 0.58219 0.73869 0.0
C407 C 0.65593 0.68428 0.69926 0.0
C408 C 0.99818 0.30764 0.71502 0.0
C409 C 0.9734 0.31587 0.71661 0.0
C410 C 0.01344 0.3057 0.75358 0.0
C411 C 0.00345 0.31195 0.79436 0.0
C412 C 0.97971 0.32194 0.7958 0.0
C413 C 0.96515 0.32392 0.75695 0.0
C414 C 0.03911 0.29558 0.75083 0.0
C415 C 0.96849 0.32909 0.83863 0.0
C416 C 0.00421 0.27421 0.90258 0.0
C417 C 0.0276 0.30174 0.92561 0.0
C418 C 0.99818 0.27629 0.85808 0.0
C419 C 0.01614 0.30664 0.83618 0.0
C420 C 0.04197 0.33358 0.85808 0.0
C421 C 0.04708 0.33098 0.90272 0.0
C422 C 0.97033 0.24696 0.83586 0.0
C423 C 0.06198 0.36624 0.83574 0.0
H424 H 0.0047 0.30137 0.68396 0.0
H425 H 0.9463 0.33067 0.75847 0.0
H426 H 0.06051 0.3116 0.77167 0.0
H427 H 0.02879 0.27021 0.76319 0.0
H428 H 0.04762 0.29643 0.71673 0.0
H429 H 0.9505 0.3375 0.83385 0.0
H430 H 0.95699 0.30672 0.85917 0.0
H431 H 0.98973 0.34822 0.85709 0.0
H432 H 0.98907 0.25157 0.92009 0.0
H433 H 0.06446 0.35281 0.92 0.0
H434 H 0.97751 0.24356 0.80259 0.0
H435 H 0.94918 0.251 0.83226 0.0
H436 H 0.96223 0.22411 0.85486 0.0
H437 H 0.06775 0.36301 0.80156 0.0
H438 H 0.08523 0.38208 0.8535 0.0
H439 H 0.04768 0.3791 0.8346 0.0
C440 C 0.70043 0.75626 0.93431 0.0
C441 C 0.70457 0.72995 0.94698 0.0
C442 C 0.69549 0.76101 0.89022 0.0
C443 C 0.69436 0.73867 0.85844 0.0
C444 C 0.7014 0.7138 0.8708 0.0
C445 C 0.70668 0.70995 0.91496 0.0
C446 C 0.68945 0.78863 0.87855 0.0
C447 C 0.701 0.68964 0.8379 0.0
C448 C 0.63799 0.70306 0.76345 0.0
C449 C 0.66116 0.71042 0.73033 0.0
C450 C 0.64794 0.71636 0.80539 0.0
C451 C 0.68165 0.73775 0.81363 0.0
C452 C 0.70367 0.75052 0.7781 0.0
C453 C 0.69309 0.73667 0.73641 0.0
C454 C 0.62329 0.70326 0.84207 0.0
C455 C 0.73936 0.7751 0.78516 0.0
H456 H 0.69988 0.77245 0.95901 0.0
H457 H 0.71018 0.6898 0.92474 0.0
H458 H 0.69643 0.79688 0.84427 0.0
H459 H 0.66304 0.78025 0.88251 0.0
H460 H 0.70325 0.80985 0.90079 0.0
H461 H 0.70769 0.6723 0.85283 0.0
H462 H 0.67622 0.67525 0.82327 0.0
H463 H 0.71839 0.70281 0.81096 0.0
H464 H 0.61301 0.68347 0.75838 0.0
H465 H 0.71103 0.74319 0.71059 0.0
H466 H 0.62709 0.72318 0.86481 0.0
H467 H 0.62649 0.68495 0.861 0.0
H468 H 0.59774 0.69123 0.82957 0.0
H469 H 0.74258 0.79253 0.8117 0.0
H470 H 0.75078 0.78901 0.75474 0.0
H471 H 0.75253 0.76206 0.79485 0.0
C472 C 0.30785 0.99051 0.71941 0.0
C473 C 0.34002 0.01687 0.72285 0.0
C474 C 0.2898 0.97454 0.75699 0.0
C475 C 0.30425 0.98548 0.79869 0.0
C476 C 0.33707 0.01127 0.80219 0.0
C477 C 0.35456 0.02646 0.76428 0.0
C478 C 0.25507 0.94673 0.75212 0.0
C479 C 0.35353 0.02357 0.84613 0.0
C480 C 0.26175 0.97945 0.90505 0.0
C481 C 0.26889 0.95819 0.92835 0.0
C482 C 0.26996 0.98607 0.8607 0.0
C483 C 0.28552 0.97088 0.83934 0.0
C484 C 0.28939 0.94668 0.86132 0.0
C485 C 0.28153 0.94101 0.90578 0.0
C486 C 0.26535 0.01201 0.83829 0.0
C487 C 0.30542 0.92954 0.8395 0.0
H488 H 0.29643 0.98292 0.6875 0.0
H489 H 0.37944 0.04664 0.76732 0.0
H490 H 0.25105 0.92561 0.77257 0.0
H491 H 0.23787 0.95471 0.76373 0.0
H492 H 0.24892 0.93848 0.71761 0.0
H493 H 0.37925 0.04378 0.84302 0.0
H494 H 0.33979 0.03254 0.8657 0.0
H495 H 0.35348 0.00335 0.86472 0.0
H496 H 0.25195 0.99277 0.92229 0.0
H497 H 0.2883 0.92535 0.9232 0.0
H498 H 0.25632 0.00458 0.80434 0.0
H499 H 0.28928 0.03504 0.83645 0.0
H500 H 0.24792 0.01712 0.85626 0.0
H501 H 0.29732 0.92345 0.80498 0.0
H502 H 0.29991 0.9067 0.85698 0.0
H503 H 0.33237 0.94602 0.83951 0.0
C504 C 0.66645 0.94809 0.58578 0.0
C505 C 0.69712 0.96754 0.56613 0.0
C506 C 0.66203 0.95034 0.63064 0.0
C507 C 0.68863 0.97339 0.65609 0.0
C508 C 0.72028 0.9908 0.63746 0.0
C509 C 0.72415 0.98754 0.59261 0.0
C510 C 0.628 0.93091 0.64947 0.0
C511 C 0.74931 0.01567 0.66361 0.0
C512 C 0.6705 0.02267 0.73688 0.0
C513 C 0.67465 0.01092 0.7771 0.0
C514 C 0.67432 0.01005 0.69743 0.0
C515 C 0.68209 0.98467 0.69811 0.0
C516 C 0.68452 0.97134 0.73844 0.0
C517 C 0.68091 0.98476 0.77764 0.0
C518 C 0.67133 0.02487 0.655 0.0
C519 C 0.69216 0.94387 0.74025 0.0
H520 H 0.64503 0.9333 0.56602 0.0
H521 H 0.74792 0.00258 0.57765 0.0
H522 H 0.62873 0.92265 0.68323 0.0
H523 H 0.61667 0.94662 0.65096 0.0
H524 H 0.61209 0.90916 0.62902 0.0
H525 H 0.77285 0.02284 0.64687 0.0
H526 H 0.74732 0.03796 0.66823 0.0
H527 H 0.74979 0.00603 0.69652 0.0
H528 H 0.66542 0.04269 0.73608 0.0
H529 H 0.68413 0.97551 0.8086 0.0
H530 H 0.65243 0.00562 0.63373 0.0
H531 H 0.6949 0.03589 0.63705 0.0
H532 H 0.66468 0.04413 0.66031 0.0
H533 H 0.6767 0.92427 0.71665 0.0
H534 H 0.68837 0.93306 0.77349 0.0
H535 H 0.71806 0.95332 0.73085 0.0
C536 C 0.99275 0.71811 0.57447 0.0
C537 C 0.02215 0.73385 0.55116 0.0
C538 C 0.99294 0.71415 0.61979 0.0
C539 C 0.02327 0.72585 0.64175 0.0
C540 C 0.05286 0.74578 0.61931 0.0
C541 C 0.05186 0.7501 0.57411 0.0
C542 C 0.96071 0.69409 0.64311 0.0
C543 C 0.08566 0.75942 0.6417 0.0
C544 C 0.01095 0.70716 0.7622 0.0
C545 C 0.00409 0.67457 0.76184 0.0
C546 C 0.02039 0.72584 0.72379 0.0
C547 C 0.0235 0.71159 0.68475 0.0
C548 C 0.02082 0.68029 0.68577 0.0
C549 C 0.01074 0.66195 0.72433 0.0
C550 C 0.02332 0.7592 0.72423 0.0
C551 C 0.0252 0.66474 0.64503 0.0
H552 H 0.96962 0.70628 0.55699 0.0
H553 H 0.07456 0.7642 0.55644 0.0
H554 H 0.95683 0.66926 0.64975 0.0
H555 H 0.96083 0.7054 0.67499 0.0
H556 H 0.93974 0.69148 0.62332 0.0
H557 H 0.10496 0.78095 0.62389 0.0
H558 H 0.08467 0.7666 0.67598 0.0
H559 H 0.09282 0.7403 0.64246 0.0
H560 H 0.00594 0.71708 0.79128 0.0
H561 H 0.00593 0.63693 0.72429 0.0
H562 H -0.00064 0.75665 0.7151 0.0
H563 H 0.04178 0.776 0.70039 0.0
H564 H 0.02997 0.77045 0.75731 0.0
H565 H 0.00392 0.65729 0.62291 0.0
H566 H 0.02709 0.64271 0.65268 0.0
H567 H 0.04751 0.68246 0.62705 0.0
C568 C 0.28853 0.28187 0.58114 0.0
C569 C 0.2709 0.28818 0.54955 0.0
C570 C 0.28674 0.28839 0.6254 0.0
C571 C 0.26661 0.30137 0.63832 0.0
C572 C 0.24635 0.30479 0.60712 0.0
C573 C 0.24868 0.29804 0.56295 0.0
C574 C 0.30842 0.2838 0.65774 0.0
C575 C 0.2239 0.31765 0.6196 0.0
C576 C 0.26759 0.30338 0.76087 0.0
C577 C 0.29713 0.3327 0.76741 0.0
C578 C 0.25416 0.29422 0.71872 0.0
C579 C 0.27066 0.31513 0.68307 0.0
C580 C 0.29701 0.34711 0.69107 0.0
C581 C 0.31003 0.35552 0.73337 0.0
C582 C 0.2253 0.26039 0.71173 0.0
C583 C 0.31463 0.37063 0.65414 0.0
H584 H 0.30543 0.27386 0.57099 0.0
H585 H 0.2339 0.30157 0.53881 0.0
H586 H 0.32783 0.30803 0.66973 0.0
H587 H 0.29402 0.26964 0.6865 0.0
H588 H 0.32039 0.27089 0.64306 0.0
H589 H 0.20343 0.30967 0.59586 0.0
H590 H 0.21362 0.30953 0.65284 0.0
H591 H 0.23798 0.3448 0.61957 0.0
H592 H 0.25734 0.28573 0.78724 0.0
H593 H 0.33259 0.37844 0.73865 0.0
H594 H 0.23431 0.24337 0.7033 0.0
H595 H 0.20963 0.26006 0.68437 0.0
H596 H 0.21019 0.25113 0.74179 0.0
H597 H 0.33016 0.36278 0.63659 0.0
H598 H 0.33062 0.396 0.66624 0.0
H599 H 0.29693 0.37068 0.63025 0.0
C600 C 0.99059 0.67686 0.26417 0.0
C601 C 0.01981 0.67593 0.26737 0.0
C602 C 0.97842 0.6793 0.22323 0.0
C603 C 0.99614 0.6812 0.185 0.0
C604 C 0.02566 0.68038 0.18812 0.0
C605 C 0.03699 0.67755 0.22919 0.0
C606 C 0.94667 0.67975 0.22079 0.0
C607 C 0.04544 0.68256 0.14805 0.0
C608 C 0.96191 0.65549 0.07179 0.0
C609 C 0.97473 0.68582 0.05064 0.0
C610 C 0.96573 0.65364 0.11686 0.0
C611 C 0.98375 0.68283 0.14111 0.0
C612 C 0.99503 0.71352 0.12061 0.0
C613 C 0.99037 0.71464 0.07545 0.0
C614 C 0.9533 0.62041 0.13754 0.0
C615 C 0.01457 0.7452 0.14544 0.0
H616 H 0.97728 0.67573 0.2936 0.0
H617 H 0.05978 0.67722 0.23132 0.0
H618 H 0.95064 0.70234 0.20413 0.0
H619 H 0.92855 0.6587 0.201 0.0
H620 H 0.93609 0.67854 0.25365 0.0
H621 H 0.06842 0.68264 0.15642 0.0
H622 H 0.03069 0.66151 0.12603 0.0
H623 H 0.05187 0.7052 0.12951 0.0
H624 H 0.95106 0.63308 0.05302 0.0
H625 H 0.00045 0.73813 0.05916 0.0
H626 H 0.94221 0.61921 0.16995 0.0
H627 H 0.97409 0.61601 0.14269 0.0
H628 H 0.93483 0.60042 0.11659 0.0
H629 H 0.00331 0.74399 0.17771 0.0
H630 H 0.01664 0.76645 0.12698 0.0
H631 H 0.03962 0.74946 0.15152 0.0
C632 C 0.35797 0.32038 0.23006 0.0
C633 C 0.33713 0.3064 0.26591 0.0
C634 C 0.34906 0.30577 0.18867 0.0
C635 C 0.31837 0.2769 0.18327 0.0
C636 C 0.29966 0.26026 0.22049 0.0
C637 C 0.30946 0.27517 0.26172 0.0
C638 C 0.37034 0.3237 0.14996 0.0
C639 C 0.26712 0.22913 0.21627 0.0
C640 C 0.27842 0.28506 0.08093 0.0
C641 C 0.28608 0.26768 0.05054 0.0
C642 C 0.28663 0.28609 0.12514 0.0
C643 C 0.30296 0.26935 0.13926 0.0
C644 C 0.3078 0.24913 0.10963 0.0
C645 C 0.29894 0.24826 0.06555 0.0
C646 C 0.28015 0.30731 0.15594 0.0
C647 C 0.32447 0.23035 0.12351 0.0
H648 H 0.37961 0.34435 0.23346 0.0
H649 H 0.2933 0.26419 0.28945 0.0
H650 H 0.37168 0.30631 0.12679 0.0
H651 H 0.3595 0.33658 0.13222 0.0
H652 H 0.39558 0.34213 0.16019 0.0
H653 H 0.26025 0.21497 0.24728 0.0
H654 H 0.24789 0.2354 0.20851 0.0
H655 H 0.26746 0.21343 0.18949 0.0
H656 H 0.26796 0.29969 0.06979 0.0
H657 H 0.30332 0.23338 0.04266 0.0
H658 H 0.30371 0.32902 0.16559 0.0
H659 H 0.26811 0.29365 0.1862 0.0
H660 H 0.26443 0.31601 0.14081 0.0
H661 H 0.35138 0.24702 0.12313 0.0
H662 H 0.31859 0.20967 0.10091 0.0
H663 H 0.31745 0.2207 0.15724 0.0
C664 C 0.71398 0.0166 0.27863 0.0
C665 C 0.68233 0.01193 0.28304 0.0
C666 C 0.72999 0.02532 0.23812 0.0
C667 C 0.714 0.02992 0.20193 0.0
C668 C 0.68428 0.03004 0.20815 0.0
C669 C 0.66859 0.02068 0.2487 0.0
C670 C 0.76186 0.02542 0.23305 0.0
C671 C 0.66699 0.03596 0.17066 0.0
C672 C 0.74631 0.05333 0.08687 0.0
C673 C 0.72792 0.02313 0.06557 0.0
C674 C 0.74414 0.05595 0.13229 0.0
C675 C 0.72386 0.02749 0.15674 0.0
C676 C 0.70874 0.99643 0.13606 0.0
C677 C 0.71084 0.99466 0.09058 0.0
C678 C 0.76132 0.08939 0.15327 0.0
C679 C 0.68791 0.96524 0.16134 0.0
H680 H 0.7247 0.00985 0.30523 0.0
H681 H 0.64426 0.01743 0.25238 0.0
H682 H 0.75663 0.00082 0.22212 0.0
H683 H 0.77783 0.04346 0.20821 0.0
H684 H 0.77535 0.03095 0.26461 0.0
H685 H 0.64726 0.04047 0.18227 0.0
H686 H 0.68455 0.05721 0.15084 0.0
H687 H 0.65583 0.01417 0.14893 0.0
H688 H 0.76129 0.07519 0.068 0.0
H689 H 0.69718 0.97112 0.07443 0.0
H690 H 0.7707 0.08856 0.18628 0.0
H691 H 0.74365 0.09826 0.15711 0.0
H692 H 0.78201 0.10737 0.13289 0.0
H693 H 0.70097 0.96445 0.19113 0.0
H694 H 0.68122 0.94304 0.14144 0.0
H695 H 0.66502 0.96441 0.17201 0.0
C696 C 0.31586 0.95483 0.25893 0.0
C697 C 0.31592 0.96928 0.21878 0.0
C698 C 0.31499 0.96906 0.29854 0.0
C699 C 0.31442 0.99876 0.29827 0.0
C700 C 0.31481 0.01382 0.25804 0.0
C701 C 0.31545 0.99881 0.21858 0.0
C702 C 0.31444 0.95206 0.34076 0.0
C703 C 0.31432 0.04556 0.25678 0.0
C704 C 0.2844 0.01027 0.40735 0.0
C705 C 0.31399 0.02754 0.43032 0.0
C706 C 0.28409 0.00333 0.36266 0.0
C707 C 0.31412 0.01383 0.3407 0.0
C708 C 0.34404 0.03347 0.36289 0.0
C709 C 0.34362 0.03975 0.40756 0.0
C710 C 0.25166 0.98223 0.3401 0.0
C711 C 0.3766 0.04501 0.34072 0.0
H712 H 0.31595 0.93189 0.25959 0.0
H713 H 0.31529 0.01001 0.1877 0.0
H714 H 0.33594 0.96846 0.36123 0.0
H715 H 0.29215 0.94625 0.35974 0.0
H716 H 0.31477 0.92895 0.33511 0.0
H717 H 0.31505 0.0543 0.22282 0.0
H718 H 0.29188 0.04236 0.27301 0.0
H719 H 0.33556 0.06475 0.27519 0.0
H720 H 0.26144 0.00072 0.42486 0.0
H721 H 0.36663 0.052 0.42501 0.0
H722 H 0.24742 0.95697 0.33662 0.0
H723 H 0.25172 0.99153 0.30676 0.0
H724 H 0.23096 0.98109 0.35886 0.0
H725 H 0.38118 0.02418 0.33772 0.0
H726 H 0.39713 0.0648 0.35956 0.0
H727 H 0.37654 0.05406 0.30725 0.0
C728 C 0.98342 0.26441 0.4035 0.0
C729 C 0.96028 0.26938 0.42568 0.0
C730 C 0.98863 0.27053 0.35851 0.0
C731 C 0.97 0.28159 0.33526 0.0
C732 C 0.94405 0.2829 0.35638 0.0
C733 C 0.93991 0.27743 0.40156 0.0
C734 C 0.01657 0.26878 0.33715 0.0
C735 C 0.92305 0.29372 0.33243 0.0
C736 C 0.0207 0.34942 0.25599 0.0
C737 C 0.01389 0.33268 0.21601 0.0
C738 C 0.00568 0.33311 0.29463 0.0
C739 C 0.98274 0.29917 0.2933 0.0
C740 C 0.97393 0.28248 0.2527 0.0
C741 C 0.98983 0.29943 0.21437 0.0
C742 C 0.01569 0.35202 0.33723 0.0
C743 C 0.94894 0.24651 0.24991 0.0
H744 H -0.00087 0.25805 0.42191 0.0
H745 H 0.92262 0.28242 0.41801 0.0
H746 H 0.00925 0.25709 0.30448 0.0
H747 H 0.03741 0.29397 0.33241 0.0
H748 H 0.02514 0.25494 0.35738 0.0
H749 H 0.89962 0.28592 0.34984 0.0
H750 H 0.93639 0.32082 0.33007 0.0
H751 H 0.91755 0.28372 0.29867 0.0
H752 H 0.03889 0.37522 0.25752 0.0
H753 H 0.98432 0.28633 0.18355 0.0
H754 H 0.02693 0.34165 0.35929 0.0
H755 H 0.99391 0.34988 0.3541 0.0
H756 H 0.03355 0.37841 0.33235 0.0
H757 H 0.96029 0.23198 0.26068 0.0
H758 H 0.93973 0.23903 0.21597 0.0
H759 H 0.92786 0.24028 0.27179 0.0
C760 C 0.7006 0.68067 0.23965 0.0
C761 C 0.66705 0.67017 0.23706 0.0
C762 C 0.71611 0.68511 0.28052 0.0
C763 C 0.69766 0.67944 0.31932 0.0
C764 C 0.66342 0.66671 0.31664 0.0
C765 C 0.64857 0.66191 0.27564 0.0
C766 C 0.75244 0.69757 0.28201 0.0
C767 C 0.64261 0.66014 0.35711 0.0
C768 C 0.71618 0.67155 0.43668 0.0
C769 C 0.7216 0.70155 0.45363 0.0
C770 C 0.71291 0.66549 0.39149 0.0
C771 C 0.71367 0.68942 0.36291 0.0
C772 C 0.72236 0.72081 0.37935 0.0
C773 C 0.72645 0.72655 0.42455 0.0
C774 C 0.70497 0.63215 0.37501 0.0
C775 C 0.72344 0.7471 0.35002 0.0
H776 H 0.71506 0.68693 0.21 0.0
H777 H 0.62252 0.65321 0.27399 0.0
H778 H 0.76569 0.72449 0.28679 0.0
H779 H 0.75889 0.68658 0.30965 0.0
H780 H 0.76118 0.69225 0.25103 0.0
H781 H 0.61622 0.6496 0.34921 0.0
H782 H 0.64528 0.64293 0.3791 0.0
H783 H 0.65091 0.68329 0.37547 0.0
H784 H 0.71148 0.65161 0.45845 0.0
H785 H 0.73083 0.74983 0.43741 0.0
H786 H 0.71632 0.63395 0.3426 0.0
H787 H 0.67807 0.61653 0.3712 0.0
H788 H 0.71349 0.61984 0.39826 0.0
H789 H 0.73713 0.74926 0.31959 0.0
H790 H 0.735 0.77136 0.36647 0.0
H791 H 0.69811 0.74042 0.34049 0.0
C792 C 0.98 0.54464 0.9858 0.0
C793 C 0.97696 0.54584 0.94034 0.0
C794 C 0.99487 0.52801 0.00442 0.0
C795 C 0.00619 0.51158 0.97687 0.0
C796 C 0.00343 0.51303 0.93093 0.0
C797 C 0.98949 0.5307 0.91327 0.0
C798 C 0.99825 0.52783 0.05352 0.0
C799 C 0.01467 0.49542 0.90039 0.0
C800 C 0.06745 0.4874 0.0175 0.0
C801 C 0.04687 0.45463 0.02922 0.0
C802 C 0.05453 0.50653 0.00147 0.0
C803 C 0.02025 0.49219 -0.00414 0.0
C804 C -0.00061 0.45897 0.00723 0.0
C805 C 0.01292 0.44079 0.02459 0.0
C806 C 0.07751 0.54209 0.99085 0.0
C807 C 0.96278 0.44255 0.00082 0.0
H808 H 0.97052 0.55652 0.00679 0.0
H809 H 0.98827 0.53253 0.87806 0.0
H810 H 0.98326 0.50253 0.06607 0.0
H811 H 0.02408 0.5363 0.06256 0.0
H812 H 0.99036 0.54371 0.07011 0.0
H813 H 0.0101 0.49841 0.86548 0.0
H814 H 0.04123 0.50475 0.90488 0.0
H815 H 0.00173 0.4689 0.90821 0.0
H816 H 0.0937 0.49818 0.02148 0.0
H817 H 0.99688 0.41576 0.03493 0.0
H818 H 0.07011 0.55775 0.00897 0.0
H819 H 0.07612 0.54646 0.95546 0.0
H820 H 0.10333 0.54993 -0.00073 0.0
H821 H 0.95268 0.45508 0.02078 0.0
H822 H 0.9501 0.41626 0.01005 0.0
H823 H 0.95712 0.44452 0.96607 0.0
C824 C 0.53094 0.54853 0.07322 0.0
C825 C 0.54806 0.57507 0.04481 0.0
C826 C 0.50915 0.51717 0.05715 0.0
C827 C 0.50486 0.51205 0.01145 0.0
C828 C 0.52334 0.53848 0.98249 0.0
C829 C 0.54473 0.5698 -0.00041 0.0
C830 C 0.49002 0.48974 0.08915 0.0
C831 C 0.51979 0.53386 0.93351 0.0
C832 C 0.46665 0.42543 0.96657 0.0
C833 C 0.43459 0.41827 0.95756 0.0
C834 C 0.48969 0.45567 0.98466 0.0
C835 C 0.48035 0.47927 0.99405 0.0
C836 C 0.44764 0.47169 0.98631 0.0
C837 C 0.42516 0.4413 0.96784 0.0
C838 C 0.52429 0.46278 0.99226 0.0
C839 C 0.43668 0.49611 -0.00383 0.0
H840 H 0.53402 0.55254 0.10825 0.0
H841 H 0.55809 0.59033 0.97768 0.0
H842 H 0.46345 0.48067 0.08521 0.0
H843 H 0.49402 0.46889 0.08235 0.0
H844 H 0.49697 0.49758 0.12367 0.0
H845 H 0.53719 0.55636 0.91552 0.0
H846 H 0.52393 0.51361 0.92342 0.0
H847 H 0.49449 0.52693 0.9236 0.0
H848 H 0.47398 0.40772 0.95791 0.0
H849 H 0.40064 0.43612 0.95969 0.0
H850 H 0.53172 0.47048 0.02664 0.0
H851 H 0.54135 0.48333 0.97102 0.0
H852 H 0.52717 0.44125 0.98518 0.0
H853 H 0.44214 0.50422 0.03076 0.0
H854 H 0.41006 0.48588 0.99024 0.0
H855 H 0.45042 0.51812 0.97539 0.0
C856 C 0.55309 0.02304 0.93008 0.0
C857 C 0.57788 0.03044 0.96096 0.0
C858 C 0.52014 0.00776 0.94249 0.0
C859 C 0.51165 0.99862 0.98666 0.0
C860 C 0.53648 0.00514 0.01785 0.0
C861 C 0.56942 0.02125 0.00464 0.0
C862 C 0.49446 0.00158 0.90834 0.0
C863 C 0.52825 0.99514 0.0651 0.0
C864 C 0.43031 0.9856 0.02879 0.0
C865 C 0.41066 0.95151 0.02618 0.0
C866 C 0.4631 0.00132 0.01532 0.0
C867 C 0.47673 0.98235 9e-05 0.0
C868 C 0.45692 0.94787 -0.00266 0.0
C869 C 0.42398 0.93289 0.01005 0.0
C870 C 0.48327 0.03817 0.01792 0.0
C871 C 0.47069 0.92678 0.98189 0.0
H872 H 0.55944 0.0291 0.89598 0.0
H873 H 0.58859 0.02677 0.02842 0.0
H874 H 0.47702 0.97494 0.90545 0.0
H875 H 0.48017 0.01337 0.91837 0.0
H876 H 0.50529 0.0111 0.87565 0.0
H877 H 0.5503 0.00095 0.08488 0.0
H878 H 0.5161 0.00785 0.07974 0.0
H879 H 0.51075 0.96846 0.06723 0.0
H880 H 0.42025 -8e-05 0.04239 0.0
H881 H 0.40877 0.90648 0.00853 0.0
H882 H 0.49409 0.04838 0.98549 0.0
H883 H 0.50384 0.04544 0.04122 0.0
H884 H 0.46859 0.04939 0.02869 0.0
H885 H 0.48042 0.93384 0.94822 0.0
H886 H 0.45207 0.90031 0.98206 0.0
H887 H 0.49142 0.93072 0.00323 0.0
C888 C 0.52142 0.94975 0.47945 0.0
C889 C 0.55403 0.96965 0.46664 0.0
C890 C 0.50303 0.9635 0.49532 0.0
C891 C 0.51781 0.99797 0.49878 0.0
C892 C 0.55107 0.01811 0.487 0.0
C893 C 0.56871 0.00369 0.47066 0.0
C894 C 0.46757 0.94123 0.50723 0.0
C895 C 0.56781 0.05491 0.49068 0.0
C896 C 0.46405 0.03702 0.49868 0.0
C897 C 0.46284 0.04293 0.54331 0.0
C898 C 0.48158 0.02205 0.48369 0.0
C899 C 0.4984 0.01303 0.51416 0.0
C900 C 0.49694 0.0187 0.55933 0.0
C901 C 0.47887 0.03325 0.57337 0.0
C902 C 0.48225 0.01603 0.4353 0.0
C903 C 0.51461 0.00958 0.59281 0.0
H904 H 0.51007 0.92343 0.47581 0.0
H905 H 0.59373 0.01909 0.45979 0.0
H906 H 0.46319 0.94572 0.54152 0.0
H907 H 0.45171 0.94661 0.48602 0.0
H908 H 0.45999 0.91494 0.50359 0.0
H909 H 0.59421 0.06696 0.48222 0.0
H910 H 0.55576 0.06435 0.4685 0.0
H911 H 0.56545 0.06207 0.52448 0.0
H912 H 0.45145 0.04432 0.47551 0.0
H913 H 0.47717 0.03693 0.60805 0.0
H914 H 0.47318 0.98967 0.42919 0.0
H915 H 0.50779 0.02977 0.42314 0.0
H916 H 0.46708 0.02356 0.41608 0.0
H917 H 0.50557 0.98291 0.59133 0.0
H918 H 0.5113 0.016 0.62667 0.0
H919 H 0.54118 0.02233 0.5854 0.0
C920 C 0.00633 0.56407 0.50657 0.0
C921 C 0.01474 0.57122 0.46245 0.0
C922 C 0.98953 0.53145 0.52123 0.0
C923 C 0.98131 0.50565 0.49098 0.0
C924 C 0.98865 0.51287 0.44612 0.0
C925 C 0.00494 0.54554 0.43238 0.0
C926 C 0.98152 0.52463 0.56921 0.0
C927 C 0.98041 0.48617 0.41281 0.0
C928 C 0.9741 0.42644 0.53234 0.0
C929 C 0.94015 0.40542 0.53228 0.0
C930 C 0.98777 0.45912 0.51896 0.0
C931 C 0.9669 0.47125 0.50629 0.0
C932 C 0.93253 0.4502 0.50673 0.0
C933 C 0.91957 0.41741 0.51941 0.0
C934 C 0.02456 0.48067 0.51843 0.0
C935 C 0.90949 0.46237 0.49411 0.0
H936 H 0.01367 0.58399 0.52969 0.0
H937 H 0.01062 0.55108 0.39801 0.0
H938 H 0.95533 0.50599 0.57351 0.0
H939 H 0.99618 0.51451 0.58371 0.0
H940 H 0.98673 0.54703 0.58766 0.0
H941 H 0.98664 0.49585 0.37893 0.0
H942 H 0.99403 0.47324 0.42058 0.0
H943 H 0.95393 0.46781 0.41408 0.0
H944 H 0.98999 0.41745 0.54358 0.0
H945 H 0.89327 0.40118 0.52001 0.0
H946 H 0.03206 0.50192 0.54052 0.0
H947 H 0.03287 0.49045 0.485 0.0
H948 H 0.03733 0.46735 0.5288 0.0
H949 H 0.91415 0.48357 0.51489 0.0
H950 H 0.88338 0.44313 0.49755 0.0
H951 H 0.9139 0.47098 0.45971 0.0
C952 C 0.55665 0.56387 0.53116 0.0
C953 C 0.57534 0.5545 0.55648 0.0
C954 C 0.52772 0.54027 0.51057 0.0
C955 C 0.5172 0.50656 0.51582 0.0
C956 C 0.53652 0.49709 0.54055 0.0
C957 C 0.5654 0.52121 0.5605 0.0
C958 C 0.50786 0.55136 0.48432 0.0
C959 C 0.52622 0.46149 0.54699 0.0
C960 C 0.42629 0.44711 0.49836 0.0
C961 C 0.42593 0.43752 0.45498 0.0
C962 C 0.45598 0.46899 0.51909 0.0
C963 C 0.48583 0.48129 0.49576 0.0
C964 C 0.48554 0.47036 0.45256 0.0
C965 C 0.45557 0.44852 0.43275 0.0
C966 C 0.45532 0.47987 0.56534 0.0
C967 C 0.51676 0.48257 0.42671 0.0
H968 H 0.56397 0.58957 0.52888 0.0
H969 H 0.57983 0.51403 0.58039 0.0
H970 H 0.50374 0.54111 0.45072 0.0
H971 H 0.48347 0.54202 0.49961 0.0
H972 H 0.51999 0.57845 0.48208 0.0
H973 H 0.5447 0.4583 0.5656 0.0
H974 H 0.50269 0.44898 0.565 0.0
H975 H 0.52215 0.44909 0.51486 0.0
H976 H 0.40328 0.43847 0.51543 0.0
H977 H 0.45518 0.4407 0.39928 0.0
H978 H 0.46394 0.50648 0.56573 0.0
H979 H 0.47223 0.47591 0.58638 0.0
H980 H 0.43041 0.46662 0.57978 0.0
H981 H 0.52808 0.50932 0.42129 0.0
H982 H 0.51248 0.47029 0.39439 0.0
H983 H 0.53464 0.47853 0.44534 0.0
C984 C 0.14658 0.50076 0.24757 0.0
C985 C 0.15993 0.503 0.20597 0.0
C986 C 0.15049 0.52867 0.26907 0.0
C987 C 0.16796 0.55946 0.24819 0.0
C988 C 0.18416 0.56227 0.20811 0.0
C989 C 0.18002 0.53386 0.1874 0.0
C990 C 0.13319 0.52466 0.31212 0.0
C991 C 0.20325 0.59474 0.18509 0.0
C992 C 0.12896 0.61101 0.26994 0.0
C993 C 0.14888 0.63183 0.30334 0.0
C994 C 0.13607 0.58859 0.25013 0.0
C995 C 0.16377 0.58682 0.26419 0.0
C996 C 0.18499 0.60889 0.29629 0.0
C997 C 0.17729 0.63127 0.31555 0.0
C998 C 0.11291 0.56564 0.21568 0.0
C999 C 0.21479 0.60775 0.31188 0.0
H1000 H 0.13148 0.47691 0.26231 0.0
H1001 H 0.19051 0.53568 0.15529 0.0
H1002 H 0.14943 0.54382 0.33571 0.0
H1003 H 0.1114 0.52742 0.30676 0.0
H1004 H 0.12491 0.50026 0.32697 0.0
H1005 H 0.21963 0.59404 0.15956 0.0
H1006 H 0.18592 0.60098 0.1691 0.0
H1007 H 0.21816 0.61457 0.2087 0.0
H1008 H 0.10721 0.61164 0.25992 0.0
H1009 H 0.19284 0.64741 0.34127 0.0
H1010 H 0.10039 0.54018 0.22829 0.0
H1011 H 0.12666 0.56619 0.18598 0.0
H1012 H 0.09396 0.57191 0.20613 0.0
H1013 H 0.20697 0.58582 0.33269 0.0
H1014 H 0.23152 0.62977 0.33134 0.0
H1015 H 0.2285 0.60565 0.28379 0.0
C1016 C 0.49448 0.62411 0.24889 0.0
C1017 C 0.49597 0.63982 0.20944 0.0
C1018 C 0.46575 0.59595 0.26148 0.0
C1019 C 0.43809 0.58315 0.23354 0.0
C1020 C 0.43845 0.6008 0.19591 0.0
C1021 C 0.46753 0.62923 0.18434 0.0
C1022 C 0.46614 0.57818 0.3024 0.0
C1023 C 0.40934 0.58802 0.16554 0.0
C1024 C 0.39383 0.49105 0.23688 0.0
C1025 C 0.36885 0.48433 0.26688 0.0
C1026 C 0.41512 0.52312 0.22312 0.0
C1027 C 0.41146 0.54903 0.24022 0.0
C1028 C 0.38489 0.54216 0.26808 0.0
C1029 C 0.36375 0.50975 0.28101 0.0
C1030 C 0.44289 0.52947 0.19263 0.0
C1031 C 0.38016 0.56915 0.28673 0.0
H1032 H 0.51649 0.63258 0.26845 0.0
H1033 H 0.46871 0.64135 0.1537 0.0
H1034 H 0.44361 0.57044 0.32185 0.0
H1035 H 0.46683 0.55576 0.29318 0.0
H1036 H 0.48774 0.59355 0.3234 0.0
H1037 H 0.41082 0.60756 0.14374 0.0
H1038 H 0.40857 0.56834 0.14478 0.0
H1039 H 0.3861 0.57735 0.18418 0.0
H1040 H 0.39755 0.4714 0.22539 0.0
H1041 H 0.34433 0.50467 0.30405 0.0
H1042 H 0.46645 0.54214 0.21074 0.0
H1043 H 0.44438 0.5457 0.1654 0.0
H1044 H 0.44015 0.5065 0.17856 0.0
H1045 H 0.39849 0.58198 0.31298 0.0
H1046 H 0.35535 0.55952 0.30092 0.0
H1047 H 0.38404 0.58751 0.2613 0.0
C1048 C 0.36401 0.84526 0.23197 0.0
C1049 C 0.35369 0.83371 0.18938 0.0
C1050 C 0.39156 0.84584 0.25007 0.0
C1051 C 0.4092 0.83474 0.22476 0.0
C1052 C 0.39702 0.82008 0.18342 0.0
C1053 C 0.36919 0.81964 0.16617 0.0
C1054 C 0.40348 0.86125 0.29457 0.0
C1055 C 0.41502 0.80769 0.1557 0.0
C1056 C 0.49998 0.88535 0.24627 0.0
C1057 C 0.50494 0.86564 0.27602 0.0
C1058 C 0.46921 0.87465 0.22739 0.0
C1059 C 0.44273 0.8435 0.23869 0.0
C1060 C 0.44796 0.82272 0.26679 0.0
C1061 C 0.4791 0.83406 0.28518 0.0
C1062 C 0.46467 0.89746 0.19716 0.0
C1063 C 0.42034 0.78929 0.27926 0.0
H1064 H 0.35174 0.85576 0.25016 0.0
H1065 H 0.36124 0.81067 0.13319 0.0
H1066 H 0.41022 0.84606 0.31498 0.0
H1067 H 0.42576 0.8856 0.29067 0.0
H1068 H 0.38478 0.86458 0.31225 0.0
H1069 H 0.39924 0.79127 0.12914 0.0
H1070 H 0.43658 0.82881 0.1405 0.0
H1071 H 0.42413 0.79436 0.17591 0.0
H1072 H 0.51993 0.90963 0.23865 0.0
H1073 H 0.48282 0.8186 0.30795 0.0
H1074 H 0.44857 0.90535 0.21296 0.0
H1075 H 0.45255 0.88466 0.16636 0.0
H1076 H 0.48826 0.91963 0.18886 0.0
H1077 H 0.4035 0.79202 0.30193 0.0
H1078 H 0.42938 0.7743 0.2957 0.0
H1079 H 0.40591 0.77591 0.24998 0.0
C1080 C 0.81102 0.35258 0.66761 0.0
C1081 C 0.82603 0.33901 0.69304 0.0
C1082 C 0.81114 0.381 0.68145 0.0
C1083 C 0.82628 0.39563 0.72168 0.0
C1084 C 0.83767 0.37958 0.74977 0.0
C1085 C 0.83748 0.35143 0.73499 0.0
C1086 C 0.7983 0.39715 0.65091 0.0
C1087 C 0.8534 0.39404 0.79338 0.0
C1088 C 0.87859 0.4872 0.73326 0.0
C1089 C 0.85967 0.49435 0.76159 0.0
C1090 C 0.86695 0.45535 0.71774 0.0
C1091 C 0.83572 0.43004 0.73115 0.0
C1092 C 0.81565 0.43745 0.75747 0.0
C1093 C 0.82788 0.46962 0.77238 0.0
C1094 C 0.88891 0.44846 0.68904 0.0
C1095 C 0.78215 0.41116 0.77207 0.0
H1096 H 0.80201 0.34294 0.63517 0.0
H1097 H 0.84863 0.3406 0.75495 0.0
H1098 H 0.78588 0.40814 0.66927 0.0
H1099 H 0.81911 0.41715 0.63296 0.0
H1100 H 0.78093 0.37953 0.62652 0.0
H1101 H 0.85653 0.37629 0.81379 0.0
H1102 H 0.87789 0.4158 0.78788 0.0
H1103 H 0.83855 0.40224 0.81184 0.0
H1104 H 0.903 0.50629 0.72436 0.0
H1105 H 0.81301 0.47502 0.79405 0.0
H1106 H 0.87546 0.4346 0.65945 0.0
H1107 H 0.8967 0.4331 0.70716 0.0
H1108 H 0.91117 0.47124 0.67851 0.0
H1109 H 0.76849 0.39445 0.74461 0.0
H1110 H 0.76745 0.42166 0.78536 0.0
H1111 H 0.78482 0.39623 0.79806 0.0
C1112 C 0.50516 0.37867 0.80094 0.0
C1113 C 0.47893 0.37427 0.77447 0.0
C1114 C 0.53615 0.40645 0.79617 0.0
C1115 C 0.54079 0.42974 0.76375 0.0
C1116 C 0.51538 0.42334 0.73367 0.0
C1117 C 0.48457 0.39569 0.73964 0.0
C1118 C 0.56275 0.41235 0.82858 0.0
C1119 C 0.51977 0.44722 0.69775 0.0
C1120 C 0.59159 0.52062 0.78026 0.0
C1121 C 0.61709 0.52851 0.7507 0.0
C1122 C 0.56797 0.48796 0.78796 0.0
C1123 C 0.56987 0.46285 0.76502 0.0
C1124 C 0.59722 0.47052 0.73841 0.0
C1125 C 0.62073 0.5034 0.73174 0.0
C1126 C 0.5395 0.48054 0.8177 0.0
C1127 C 0.60019 0.44437 0.7138 0.0
H1128 H 0.50088 0.36206 0.82788 0.0
H1129 H 0.46436 0.39196 0.71876 0.0
H1130 H 0.5871 0.4239 0.81264 0.0
H1131 H 0.56364 0.4293 0.85444 0.0
H1132 H 0.5581 0.38925 0.84453 0.0
H1133 H 0.4992 0.43662 0.6739 0.0
H1134 H 0.5212 0.46946 0.71233 0.0
H1135 H 0.54296 0.45501 0.67984 0.0
H1136 H 0.58904 0.53999 0.79551 0.0
H1137 H 0.6406 0.50935 0.70911 0.0
H1138 H 0.53476 0.46032 0.84044 0.0
H1139 H 0.51706 0.47249 0.79774 0.0
H1140 H 0.54385 0.50223 0.83724 0.0
H1141 H 0.59232 0.42229 0.73431 0.0
H1142 H 0.62566 0.45328 0.70254 0.0
H1143 H 0.58399 0.43692 0.68462 0.0
C1144 C 0.62981 0.13807 0.7605 0.0
C1145 C 0.64802 0.1551 0.79739 0.0
C1146 C 0.60636 0.14459 0.74254 0.0
C1147 C 0.6008 0.16854 0.76228 0.0
C1148 C 0.62079 0.18753 0.79752 0.0
C1149 C 0.64437 0.18065 0.81465 0.0
C1150 C 0.58587 0.12411 0.70445 0.0
C1151 C 0.61567 0.21336 0.81922 0.0
C1152 C 0.54212 0.1848 0.69692 0.0
C1153 C 0.51209 0.16072 0.71404 0.0
C1154 C 0.57177 0.18956 0.7144 0.0
C1155 C 0.57108 0.16991 0.74984 0.0
C1156 C 0.54088 0.14767 0.76958 0.0
C1157 C 0.51173 0.14324 0.75127 0.0
C1158 C 0.60351 0.21363 0.69268 0.0
C1159 C 0.53909 0.12657 0.80786 0.0
H1160 H 0.63294 0.11863 0.74669 0.0
H1161 H 0.65847 0.19393 0.84315 0.0
H1162 H 0.56052 0.10723 0.7157 0.0
H1163 H 0.58451 0.13991 0.67863 0.0
H1164 H 0.59577 0.10927 0.68981 0.0
H1165 H 0.63681 0.22993 0.8402 0.0
H1166 H 0.61164 0.22822 0.79449 0.0
H1167 H 0.59348 0.20132 0.84005 0.0
H1168 H 0.54248 0.19838 0.66812 0.0
H1169 H 0.48851 0.12492 0.76492 0.0
H1170 H 0.61201 0.20011 0.67177 0.0
H1171 H 0.62287 0.22743 0.71738 0.0
H1172 H 0.6006 0.23129 0.67176 0.0
H1173 H 0.5455 0.10806 0.79677 0.0
H1174 H 0.51427 0.11353 0.82261 0.0
H1175 H 0.55697 0.14162 0.83355 0.0
C1176 C 0.22853 0.31731 0.28393 0.0
C1177 C 0.2383 0.34179 0.31585 0.0
C1178 C 0.20652 0.31411 0.25077 0.0
C1179 C 0.19338 0.3353 0.25063 0.0
C1180 C 0.20064 0.35773 0.28557 0.0
C1181 C 0.22373 0.36128 0.31727 0.0
C1182 C 0.19997 0.29042 0.21373 0.0
C1183 C 0.18608 0.37986 0.28753 0.0
C1184 C 0.17525 0.36927 0.1493 0.0
C1185 C 0.14106 0.35137 0.1484 0.0
C1186 C 0.19283 0.36192 0.17993 0.0
C1187 C 0.17558 0.33726 0.21165 0.0
C1188 C 0.14114 0.31764 0.20882 0.0
C1189 C 0.12431 0.32458 0.17656 0.0
C1190 C 0.22972 0.38237 0.18059 0.0
C1191 C 0.12166 0.29183 0.24261 0.0
H1192 H 0.24063 0.30289 0.28231 0.0
H1193 H 0.23188 0.38059 0.34155 0.0
H1194 H 0.17338 0.27583 0.20663 0.0
H1195 H 0.21212 0.30432 0.18364 0.0
H1196 H 0.20927 0.27342 0.22098 0.0
H1197 H 0.19 0.39193 0.31995 0.0
H1198 H 0.19759 0.39917 0.2622 0.0
H1199 H 0.1594 0.36581 0.28064 0.0
H1200 H 0.18808 0.39016 0.12777 0.0
H1201 H 0.09774 0.31123 0.17649 0.0
H1202 H 0.2408 0.36662 0.18524 0.0
H1203 H 0.2376 0.3998 0.20843 0.0
H1204 H 0.23945 0.39662 0.14993 0.0
H1205 H 0.13396 0.27792 0.25201 0.0
H1206 H 0.09656 0.27437 0.23076 0.0
H1207 H 0.11952 0.30396 0.27255 0.0
C1208 C 0.62983 0.84219 0.32545 0.0
C1209 C 0.64837 0.8763 0.32523 0.0
C1210 C 0.63504 0.82382 0.29371 0.0
C1211 C 0.65816 0.84022 0.25993 0.0
C1212 C 0.67813 0.87467 0.2611 0.0
C1213 C 0.67328 0.8923 0.29429 0.0
C1214 C 0.61407 0.78698 0.29445 0.0
C1215 C 0.70227 0.8932 0.22512 0.0
C1216 C 0.67362 0.78406 0.18828 0.0
C1217 C 0.64733 0.77313 0.15889 0.0
C1218 C 0.67904 0.8077 0.22005 0.0
C1219 C 0.65834 0.82139 0.22114 0.0
C1220 C 0.63442 0.81333 0.188 0.0
C1221 C 0.62869 0.78868 0.15775 0.0
C1222 C 0.70436 0.81509 0.25519 0.0
C1223 C 0.61282 0.82853 0.18691 0.0
H1224 H 0.6102 0.83006 0.34901 0.0
H1225 H 0.68692 0.91886 0.29361 0.0
H1226 H 0.59564 0.77888 0.26778 0.0
H1227 H 0.62927 0.77542 0.28879 0.0
H1228 H 0.60094 0.77796 0.32602 0.0
H1229 H 0.71965 0.91892 0.23468 0.0
H1230 H 0.71639 0.88108 0.21592 0.0
H1231 H 0.68869 0.89354 0.1956 0.0
H1232 H 0.68767 0.77157 0.18966 0.0
H1233 H 0.60826 0.78003 0.13515 0.0
H1234 H 0.69186 0.80173 0.28546 0.0
H1235 H 0.71794 0.84157 0.26318 0.0
H1236 H 0.72216 0.80734 0.2454 0.0
H1237 H 0.59452 0.81809 0.2136 0.0
H1238 H 0.59951 0.82387 0.15532 0.0
H1239 H 0.62754 0.85536 0.19227 0.0
C1240 C 0.22307 0.87402 0.19672 0.0
C1241 C 0.22091 0.85343 0.1621 0.0
C1242 C 0.20686 0.8611 0.23628 0.0
C1243 C 0.18699 0.82683 0.24053 0.0
C1244 C 0.18237 0.80614 0.20423 0.0
C1245 C 0.20017 0.81968 0.16569 0.0
C1246 C 0.2136 0.88397 0.2745 0.0
C1247 C 0.16024 0.7695 0.20703 0.0
C1248 C 0.17263 0.77802 0.34378 0.0
C1249 C 0.14 0.76877 0.35256 0.0
C1250 C 0.18965 0.79999 0.30987 0.0
C1251 C 0.17319 0.81204 0.28364 0.0
C1252 C 0.14166 0.8058 0.29566 0.0
C1253 C 0.12565 0.78469 0.33069 0.0
C1254 C 0.22403 0.80761 0.29942 0.0
C1255 C 0.12323 0.81806 0.26845 0.0
H1256 H 0.23991 0.90015 0.1944 0.0
H1257 H 0.199 0.80385 0.13916 0.0
H1258 H 0.19105 0.87692 0.29355 0.0
H1259 H 0.23144 0.88255 0.29683 0.0
H1260 H 0.22418 0.90981 0.26375 0.0
H1261 H 0.15604 0.75752 0.1745 0.0
H1262 H 0.17142 0.75899 0.22892 0.0
H1263 H 0.13622 0.76349 0.22119 0.0
H1264 H 0.1839 0.76601 0.36091 0.0
H1265 H 0.10041 0.77773 0.33731 0.0
H1266 H 0.23979 0.83393 0.29147 0.0
H1267 H 0.22354 0.79329 0.27033 0.0
H1268 H 0.23525 0.80135 0.32703 0.0
H1269 H 0.13932 0.84396 0.25882 0.0
H1270 H 0.10167 0.81592 0.28611 0.0
H1271 H 0.11448 0.80335 0.23797 0.0
C1272 C 0.83547 0.60592 0.80932 0.0
C1273 C 0.86498 0.63068 0.82688 0.0
C1274 C 0.81399 0.61344 0.78741 0.0
C1275 C 0.82242 0.64659 0.78257 0.0
C1276 C 0.85153 0.67168 0.80178 0.0
C1277 C 0.87245 0.66338 0.82406 0.0
C1278 C 0.78273 0.58591 0.76832 0.0
C1279 C 0.86127 0.70727 0.79715 0.0
C1280 C 0.77694 0.65843 0.68828 0.0
C1281 C 0.74987 0.65611 0.7103 0.0
C1282 C 0.8022 0.65758 0.71177 0.0
C1283 C 0.80009 0.65447 0.758 0.0
C1284 C 0.77404 0.65468 0.78036 0.0
C1285 C 0.74931 0.65553 0.75624 0.0
C1286 C 0.83001 0.65789 0.687 0.0
C1287 C 0.77094 0.65158 0.82956 0.0
H1288 H 0.8297 0.58063 0.81148 0.0
H1289 H 0.89553 0.68262 0.83698 0.0
H1290 H 0.76131 0.58704 0.78112 0.0
H1291 H 0.78279 0.58853 0.73224 0.0
H1292 H 0.77947 0.56143 0.77599 0.0
H1293 H 0.88339 0.72357 0.81675 0.0
H1294 H 0.86639 0.71454 0.76227 0.0
H1295 H 0.84094 0.71119 0.80746 0.0
H1296 H 0.77754 0.65915 0.65283 0.0
H1297 H 0.72873 0.6545 0.77351 0.0
H1298 H 0.82743 0.6332 0.68829 0.0
H1299 H 0.85383 0.67526 0.70234 0.0
H1300 H 0.83044 0.66476 0.65214 0.0
H1301 H 0.76491 0.62652 0.83932 0.0
H1302 H 0.7515 0.65614 0.84219 0.0
H1303 H 0.79443 0.66897 0.84559 0.0
C1304 C 0.33197 0.12542 0.67423 0.0
C1305 C 0.36129 0.14255 0.65073 0.0
C1306 C 0.32286 0.14149 0.7049 0.0
C1307 C 0.34301 0.17562 0.71086 0.0
C1308 C 0.37078 0.19348 0.68378 0.0
C1309 C 0.38002 0.17658 0.65465 0.0
C1310 C 0.29358 0.12143 0.73377 0.0
C1311 C 0.39208 0.23016 0.68782 0.0
C1312 C 0.31787 0.22802 0.77484 0.0
C1313 C 0.3383 0.23587 0.81153 0.0
C1314 C 0.31739 0.2066 0.74271 0.0
C1315 C 0.3374 0.19238 0.74814 0.0
C1316 C 0.35549 0.19772 0.78743 0.0
C1317 C 0.35627 0.22007 0.81841 0.0
C1318 C 0.29822 0.20206 0.70114 0.0
C1319 C 0.37619 0.182 0.79507 0.0
H1320 H 0.31782 0.09894 0.67191 0.0
H1321 H 0.40281 0.18972 0.6367 0.0
H1322 H 0.30222 0.11875 0.7665 0.0
H1323 H 0.27898 0.13372 0.73852 0.0
H1324 H 0.27742 0.09658 0.72013 0.0
H1325 H 0.40978 0.24074 0.6604 0.0
H1326 H 0.3768 0.24198 0.68856 0.0
H1327 H 0.40606 0.23625 0.71895 0.0
H1328 H 0.30466 0.24107 0.76922 0.0
H1329 H 0.37253 0.22679 0.84642 0.0
H1330 H 0.28555 0.17614 0.69034 0.0
H1331 H 0.31535 0.21686 0.67472 0.0
H1332 H 0.27977 0.20997 0.70512 0.0
H1333 H 0.36234 0.15563 0.78638 0.0
H1334 H 0.38444 0.18446 0.82964 0.0
H1335 H 0.39817 0.19382 0.77384 0.0
C1336 C 0.87472 0.20339 0.6802 0.0
C1337 C 0.85404 0.20877 0.65256 0.0
C1338 C 0.86251 0.18437 0.71807 0.0
C1339 C 0.8287 0.16947 0.72724 0.0
C1340 C 0.80718 0.17103 0.69608 0.0
C1341 C 0.82024 0.19131 0.65943 0.0
C1342 C 0.88637 0.18378 0.75055 0.0
C1343 C 0.7707 0.1541 0.70373 0.0
C1344 C 0.78421 0.11052 0.81912 0.0
C1345 C 0.77638 0.12999 0.84559 0.0
C1346 C 0.80354 0.1235 0.78166 0.0
C1347 C 0.81624 0.15694 0.77172 0.0
C1348 C 0.81234 0.17759 0.8019 0.0
C1349 C 0.79186 0.16371 0.83818 0.0
C1350 C 0.80673 0.10053 0.75027 0.0
C1351 C 0.82689 0.21377 0.79345 0.0
H1352 H 0.90101 0.21726 0.67531 0.0
H1353 H 0.80433 0.19559 0.63814 0.0
H1354 H 0.89189 0.20258 0.77611 0.0
H1355 H 0.87598 0.15971 0.7671 0.0
H1356 H 0.90978 0.1894 0.73464 0.0
H1357 H 0.75712 0.1532 0.67353 0.0
H1358 H 0.76145 0.12874 0.71559 0.0
H1359 H 0.76533 0.16749 0.72925 0.0
H1360 H 0.77202 0.08429 0.82447 0.0
H1361 H 0.78582 0.17874 0.85863 0.0
H1362 H 0.83113 0.1124 0.73446 0.0
H1363 H 0.78805 0.09343 0.72405 0.0
H1364 H 0.80265 0.07786 0.76692 0.0
H1365 H 0.8526 0.22469 0.78217 0.0
H1366 H 0.82634 0.22708 0.82314 0.0
H1367 H 0.81276 0.21749 0.76723 0.0
loop_
_geom_bond_atom_site_label_1
_geom_bond_atom_site_label_2
_geom_bond_distance
_geom_bond_site_symmetry_2
_ccdc_geom_bond_type
Co0 O3 1.970 . S
Co0 N17 1.989 . S
Co0 O25 1.967 . S
Co0 O32 1.920 . S
Co1 O4 1.966 . S
Co1 N10 2.022 . S
Co1 N18 1.993 . S
Co1 O26 1.941 . S
C2 O3 1.258 . S
C2 O4 1.263 . S
O3 Co0 1.970 . S
O3 C2 1.258 . S
O4 Co1 1.966 . S
O4 C2 1.263 . S
C5 O6 1.235 . S
C5 O32 1.289 . S
O6 C5 1.235 . S
C7 C9 1.400 1_554 S
C7 N10 1.351 . S
C7 C12 1.501 . S
C8 C9 1.387 . S
C8 N11 1.341 1_556 S
C9 C7 1.400 1_556 S
C9 C8 1.387 . S
N10 Co1 2.022 . S
N10 C7 1.351 . S
N10 N11 1.365 . S
N11 C8 1.341 1_554 S
N11 N10 1.365 . S
N11 H31 0.862 1_455 S
C12 C7 1.501 . S
C12 H13 0.961 . S
C12 H14 0.961 1_554 S
C12 H15 0.960 . S
H13 C12 0.961 . S
H14 C12 0.961 1_556 S
H15 C12 0.960 . S
C16 N17 1.342 . S
C16 C20 1.401 . S
C16 C21 1.499 . S
N17 Co0 1.989 . S
N17 C16 1.342 . S
N17 N18 1.388 . S
N18 Co1 1.993 . S
N18 N17 1.388 . S
N18 C19 1.346 . S
C19 N18 1.346 . S
C19 C20 1.396 . S
C19 C29 1.510 1_554 S
C20 C16 1.401 . S
C20 C19 1.396 . S
C21 C16 1.499 . S
C21 H22 0.959 . S
C21 H23 0.960 . S
C21 H24 0.961 . S
H22 C21 0.959 . S
H23 C21 0.960 . S
H24 C21 0.961 . S
O25 Co0 1.967 . S
O25 C33 1.258 . S
O26 Co1 1.941 . S
O26 C33 1.266 . S
H27 C29 0.959 . S
H28 C29 0.961 . S
C29 C19 1.510 1_556 S
C29 H27 0.959 . S
C29 H28 0.961 . S
C29 H30 0.958 1_556 S
H30 C29 0.958 1_554 S
H31 N11 0.862 1_655 S
O32 Co0 1.920 . S
O32 C5 1.289 . S
C33 O25 1.258 . S
C33 O26 1.266 . S
Co34 O37 1.970 . S
Co34 N51 1.989 . S
Co34 O59 1.967 . S
Co34 O66 1.920 . S
Co35 O38 1.966 . S
Co35 N44 2.022 . S
Co35 N52 1.993 . S
Co35 O60 1.941 . S
C36 O37 1.258 . S
C36 O38 1.263 . S
O37 Co34 1.970 . S
O37 C36 1.258 . S
O38 Co35 1.966 . S
O38 C36 1.263 . S
C39 O40 1.235 . S
C39 O66 1.289 . S
O40 C39 1.235 . S
C41 C43 1.400 1_554 S
C41 N44 1.351 . S
C41 C46 1.501 . S
C42 C43 1.387 . S
C42 N45 1.341 1_556 S
C43 C41 1.400 1_556 S
C43 C42 1.387 . S
N44 Co35 2.022 . S
N44 C41 1.351 . S
N44 N45 1.365 . S
N45 C42 1.341 1_554 S
N45 N44 1.365 . S
N45 H65 0.862 . S
C46 C41 1.501 . S
C46 H47 0.961 . S
C46 H48 0.961 1_554 S
C46 H49 0.960 . S
H47 C46 0.961 . S
H48 C46 0.961 1_556 S
H49 C46 0.960 . S
C50 N51 1.342 . S
C50 C54 1.401 . S
C50 C55 1.499 . S
N51 Co34 1.989 . S
N51 C50 1.342 . S
N51 N52 1.388 . S
N52 Co35 1.993 . S
N52 N51 1.388 . S
N52 C53 1.346 . S
C53 N52 1.346 . S
C53 C54 1.396 . S
C53 C63 1.510 1_554 S
C54 C50 1.401 . S
C54 C53 1.396 . S
C55 C50 1.499 . S
C55 H56 0.959 . S
C55 H57 0.960 . S
C55 H58 0.961 . S
H56 C55 0.959 . S
H57 C55 0.960 . S
H58 C55 0.961 . S
O59 Co34 1.967 . S
O59 C67 1.258 . S
O60 Co35 1.941 . S
O60 C67 1.266 . S
H61 C63 0.959 . S
H62 C63 0.961 . S
C63 C53 1.510 1_556 S
C63 H61 0.959 . S
C63 H62 0.961 . S
C63 H64 0.958 1_556 S
H64 C63 0.958 1_554 S
H65 N45 0.862 . S
O66 Co34 1.920 . S
O66 C39 1.289 . S
C67 O59 1.258 . S
C67 O60 1.266 . S
Co68 O71 1.970 . S
Co68 N85 1.989 . S
Co68 O93 1.967 . S
Co68 O100 1.920 . S
Co69 O72 1.966 . S
Co69 N78 2.022 . S
Co69 N86 1.993 . S
Co69 O94 1.941 . S
C70 O71 1.258 . S
C70 O72 1.263 . S
O71 Co68 1.970 . S
O71 C70 1.258 . S
O72 Co69 1.966 . S
O72 C70 1.263 . S
C73 O74 1.235 . S
C73 O100 1.289 . S
O74 C73 1.235 . S
C75 C77 1.400 1_554 S
C75 N78 1.351 . S
C75 C80 1.501 . S
C76 C77 1.387 . S
C76 N79 1.341 1_556 S
C77 C75 1.400 1_556 S
C77 C76 1.387 . S
N78 Co69 2.022 . S
N78 C75 1.351 . S
N78 N79 1.365 . S
N79 C76 1.341 1_554 S
N79 N78 1.365 . S
N79 H99 0.862 1_565 S
C80 C75 1.501 . S
C80 H81 0.961 . S
C80 H82 0.961 1_554 S
C80 H83 0.960 . S
H81 C80 0.961 . S
H82 C80 0.961 1_556 S
H83 C80 0.960 . S
C84 N85 1.342 . S
C84 C88 1.401 . S
C84 C89 1.499 . S
N85 Co68 1.989 . S
N85 C84 1.342 . S
N85 N86 1.388 . S
N86 Co69 1.993 . S
N86 N85 1.388 . S
N86 C87 1.346 . S
C87 N86 1.346 . S
C87 C88 1.396 . S
C87 C97 1.510 1_554 S
C88 C84 1.401 . S
C88 C87 1.396 . S
C89 C84 1.499 . S
C89 H90 0.959 . S
C89 H91 0.960 . S
C89 H92 0.961 . S
H90 C89 0.959 . S
H91 C89 0.960 . S
H92 C89 0.961 . S
O93 Co68 1.967 . S
O93 C101 1.258 . S
O94 Co69 1.941 . S
O94 C101 1.266 . S
H95 C97 0.959 . S
H96 C97 0.961 . S
C97 C87 1.510 1_556 S
C97 H95 0.959 . S
C97 H96 0.961 . S
C97 H98 0.958 1_556 S
H98 C97 0.958 1_554 S
H99 N79 0.862 1_545 S
O100 Co68 1.920 . S
O100 C73 1.289 . S
C101 O93 1.258 . S
C101 O94 1.266 . S
Co102 O105 1.970 . S
Co102 N119 1.989 . S
Co102 O127 1.967 . S
Co102 O134 1.920 . S
Co103 O106 1.966 . S
Co103 N112 2.022 . S
Co103 N120 1.993 . S
Co103 O128 1.941 . S
C104 O105 1.258 . S
C104 O106 1.263 . S
O105 Co102 1.970 . S
O105 C104 1.258 . S
O106 Co103 1.966 . S
O106 C104 1.263 . S
C107 O108 1.235 . S
C107 O134 1.289 . S
O108 C107 1.235 . S
C109 C111 1.400 . S
C109 N112 1.351 . S
C109 C114 1.501 . S
C110 C111 1.387 . S
C110 N113 1.341 . S
C111 C109 1.400 . S
C111 C110 1.387 . S
N112 Co103 2.022 . S
N112 C109 1.351 . S
N112 N113 1.365 . S
N113 C110 1.341 . S
N113 N112 1.365 . S
N113 H133 0.862 1_565 S
C114 C109 1.501 . S
C114 H115 0.961 . S
C114 H116 0.961 . S
C114 H117 0.960 . S
H115 C114 0.961 . S
H116 C114 0.961 . S
H117 C114 0.960 . S
C118 N119 1.342 . S
C118 C122 1.401 . S
C118 C123 1.499 . S
N119 Co102 1.989 . S
N119 C118 1.342 . S
N119 N120 1.388 . S
N120 Co103 1.993 . S
N120 N119 1.388 . S
N120 C121 1.346 . S
C121 N120 1.346 . S
C121 C122 1.396 . S
C121 C131 1.510 . S
C122 C118 1.401 . S
C122 C121 1.396 . S
C123 C118 1.499 . S
C123 H124 0.959 . S
C123 H125 0.960 . S
C123 H126 0.961 . S
H124 C123 0.959 . S
H125 C123 0.960 . S
H126 C123 0.961 . S
O127 Co102 1.967 . S
O127 C135 1.258 . S
O128 Co103 1.941 . S
O128 C135 1.266 . S
H129 C131 0.959 . S
H130 C131 0.961 . S
C131 C121 1.510 . S
C131 H129 0.959 . S
C131 H130 0.961 . S
C131 H132 0.960 . S
H132 C131 0.960 . S
H133 N113 0.862 1_545 S
O134 Co102 1.920 . S
O134 C107 1.289 . S
C135 O127 1.258 . S
C135 O128 1.266 . S
Co136 O139 1.970 . S
Co136 N153 1.989 . S
Co136 O161 1.967 . S
Co136 O168 1.920 . S
Co137 O140 1.966 . S
Co137 N146 2.022 . S
Co137 N154 1.993 . S
Co137 O162 1.941 . S
C138 O139 1.258 . S
C138 O140 1.263 . S
O139 Co136 1.970 . S
O139 C138 1.258 . S
O140 Co137 1.966 . S
O140 C138 1.263 . S
C141 O142 1.235 . S
C141 O168 1.289 . S
O142 C141 1.235 . S
C143 C145 1.400 . S
C143 N146 1.351 . S
C143 C148 1.501 . S
C144 C145 1.387 . S
C144 N147 1.341 . S
C145 C143 1.400 . S
C145 C144 1.387 . S
N146 Co137 2.022 . S
N146 C143 1.351 . S
N146 N147 1.365 . S
N147 C144 1.341 . S
N147 N146 1.365 . S
N147 H167 0.862 1_455 S
C148 C143 1.501 . S
C148 H149 0.961 . S
C148 H150 0.961 . S
C148 H151 0.960 . S
H149 C148 0.961 . S
H150 C148 0.961 . S
H151 C148 0.960 . S
C152 N153 1.342 . S
C152 C156 1.401 . S
C152 C157 1.499 . S
N153 Co136 1.989 . S
N153 C152 1.342 . S
N153 N154 1.388 . S
N154 Co137 1.993 . S
N154 N153 1.388 . S
N154 C155 1.346 . S
C155 N154 1.346 . S
C155 C156 1.396 . S
C155 C165 1.510 . S
C156 C152 1.401 . S
C156 C155 1.396 . S
C157 C152 1.499 . S
C157 H158 0.959 . S
C157 H159 0.960 . S
C157 H160 0.961 . S
H158 C157 0.959 . S
H159 C157 0.960 . S
H160 C157 0.961 . S
O161 Co136 1.967 . S
O161 C169 1.258 . S
O162 Co137 1.941 . S
O162 C169 1.266 . S
H163 C165 0.959 . S
H164 C165 0.961 . S
C165 C155 1.510 . S
C165 H163 0.959 . S
C165 H164 0.961 . S
C165 H166 0.960 . S
H166 C165 0.960 . S
H167 N147 0.862 1_655 S
O168 Co136 1.920 . S
O168 C141 1.289 . S
C169 O161 1.258 . S
C169 O162 1.266 . S
Co170 O173 1.970 . S
Co170 N187 1.989 . S
Co170 O195 1.967 . S
Co170 O202 1.920 . S
Co171 O174 1.966 . S
Co171 N180 2.022 . S
Co171 N188 1.993 . S
Co171 O196 1.941 . S
C172 O173 1.258 . S
C172 O174 1.263 . S
O173 Co170 1.970 . S
O173 C172 1.258 . S
O174 Co171 1.966 . S
O174 C172 1.263 . S
C175 O176 1.235 . S
C175 O202 1.289 . S
O176 C175 1.235 . S
C177 C179 1.400 . S
C177 N180 1.351 . S
C177 C182 1.501 . S
C178 C179 1.387 . S
C178 N181 1.341 . S
C179 C177 1.400 . S
C179 C178 1.387 . S
N180 Co171 2.022 . S
N180 C177 1.351 . S
N180 N181 1.365 . S
N181 C178 1.341 . S
N181 N180 1.365 . S
N181 H201 0.862 . S
C182 C177 1.501 . S
C182 H183 0.961 . S
C182 H184 0.961 . S
C182 H185 0.960 . S
H183 C182 0.961 . S
H184 C182 0.961 . S
H185 C182 0.960 . S
C186 N187 1.342 . S
C186 C190 1.401 . S
C186 C191 1.499 . S
N187 Co170 1.989 . S
N187 C186 1.342 . S
N187 N188 1.388 . S
N188 Co171 1.993 . S
N188 N187 1.388 . S
N188 C189 1.346 . S
C189 N188 1.346 . S
C189 C190 1.396 . S
C189 C199 1.510 . S
C190 C186 1.401 . S
C190 C189 1.396 . S
C191 C186 1.499 . S
C191 H192 0.959 . S
C191 H193 0.960 . S
C191 H194 0.961 . S
H192 C191 0.959 . S
H193 C191 0.960 . S
H194 C191 0.961 . S
O195 Co170 1.967 . S
O195 C203 1.258 . S
O196 Co171 1.941 . S
O196 C203 1.266 . S
H197 C199 0.959 . S
H198 C199 0.961 . S
C199 C189 1.510 . S
C199 H197 0.959 . S
C199 H198 0.961 . S
C199 H200 0.960 . S
H200 C199 0.960 . S
H201 N181 0.862 . S
O202 Co170 1.920 . S
O202 C175 1.289 . S
C203 O195 1.258 . S
C203 O196 1.266 . S
Co204 O207 1.970 . S
Co204 N221 1.989 . S
Co204 O229 1.967 . S
Co204 O236 1.920 . S
Co205 O208 1.966 . S
Co205 N214 2.022 . S
Co205 N222 1.993 . S
Co205 O230 1.941 . S
C206 O207 1.258 . S
C206 O208 1.263 . S
O207 Co204 1.970 . S
O207 C206 1.258 . S
O208 Co205 1.966 . S
O208 C206 1.263 . S
C209 O210 1.235 . S
C209 O236 1.289 . S
O210 C209 1.235 . S
C211 C213 1.400 1_556 S
C211 N214 1.351 . S
C211 C216 1.501 . S
C212 C213 1.387 . S
C212 N215 1.341 1_554 S
C213 C211 1.400 1_554 S
C213 C212 1.387 . S
N214 Co205 2.022 . S
N214 C211 1.351 . S
N214 N215 1.365 . S
N215 C212 1.341 1_556 S
N215 N214 1.365 . S
N215 H235 0.862 1_655 S
C216 C211 1.501 . S
C216 H217 0.961 . S
C216 H218 0.961 1_556 S
C216 H219 0.960 . S
H217 C216 0.961 . S
H218 C216 0.961 1_554 S
H219 C216 0.960 . S
C220 N221 1.342 . S
C220 C224 1.401 . S
C220 C225 1.499 . S
N221 Co204 1.989 . S
N221 C220 1.342 . S
N221 N222 1.388 . S
N222 Co205 1.993 . S
N222 N221 1.388 . S
N222 C223 1.346 . S
C223 N222 1.346 . S
C223 C224 1.396 . S
C223 C233 1.510 1_556 S
C224 C220 1.401 . S
C224 C223 1.396 . S
C225 C220 1.499 . S
C225 H226 0.959 . S
C225 H227 0.960 . S
C225 H228 0.961 . S
H226 C225 0.959 . S
H227 C225 0.960 . S
H228 C225 0.961 . S
O229 Co204 1.967 . S
O229 C237 1.258 . S
O230 Co205 1.941 . S
O230 C237 1.266 . S
H231 C233 0.959 . S
H232 C233 0.961 . S
C233 C223 1.510 1_554 S
C233 H231 0.959 . S
C233 H232 0.961 . S
C233 H234 0.958 1_554 S
H234 C233 0.958 1_556 S
H235 N215 0.862 1_455 S
O236 Co204 1.920 . S
O236 C209 1.289 . S
C237 O229 1.258 . S
C237 O230 1.266 . S
Co238 O241 1.970 . S
Co238 N255 1.989 . S
Co238 O263 1.967 . S
Co238 O270 1.920 . S
Co239 O242 1.966 . S
Co239 N248 2.022 . S
Co239 N256 1.993 . S
Co239 O264 1.941 . S
C240 O241 1.258 . S
C240 O242 1.263 . S
O241 Co238 1.970 . S
O241 C240 1.258 . S
O242 Co239 1.966 . S
O242 C240 1.263 . S
C243 O244 1.235 . S
C243 O270 1.289 . S
O244 C243 1.235 . S
C245 C247 1.400 1_556 S
C245 N248 1.351 . S
C245 C250 1.501 . S
C246 C247 1.387 . S
C246 N249 1.341 1_554 S
C247 C245 1.400 1_554 S
C247 C246 1.387 . S
N248 Co239 2.022 . S
N248 C245 1.351 . S
N248 N249 1.365 . S
N249 C246 1.341 1_556 S
N249 N248 1.365 . S
N249 H269 0.862 . S
C250 C245 1.501 . S
C250 H251 0.961 . S
C250 H252 0.961 1_556 S
C250 H253 0.960 . S
H251 C250 0.961 . S
H252 C250 0.961 1_554 S
H253 C250 0.960 . S
C254 N255 1.342 . S
C254 C258 1.401 . S
C254 C259 1.499 . S
N255 Co238 1.989 . S
N255 C254 1.342 . S
N255 N256 1.388 . S
N256 Co239 1.993 . S
N256 N255 1.388 . S
N256 C257 1.346 . S
C257 N256 1.346 . S
C257 C258 1.396 . S
C257 C267 1.510 1_556 S
C258 C254 1.401 . S
C258 C257 1.396 . S
C259 C254 1.499 . S
C259 H260 0.959 . S
C259 H261 0.960 . S
C259 H262 0.961 . S
H260 C259 0.959 . S
H261 C259 0.960 . S
H262 C259 0.961 . S
O263 Co238 1.967 . S
O263 C271 1.258 . S
O264 Co239 1.941 . S
O264 C271 1.266 . S
H265 C267 0.959 . S
H266 C267 0.961 . S
C267 C257 1.510 1_554 S
C267 H265 0.959 . S
C267 H266 0.961 . S
C267 H268 0.958 1_554 S
H268 C267 0.958 1_556 S
H269 N249 0.862 . S
O270 Co238 1.920 . S
O270 C243 1.289 . S
C271 O263 1.258 . S
C271 O264 1.266 . S
Co272 O275 1.970 . S
Co272 N289 1.989 . S
Co272 O297 1.967 . S
Co272 O304 1.920 . S
Co273 O276 1.966 . S
Co273 N282 2.022 . S
Co273 N290 1.993 . S
Co273 O298 1.941 . S
C274 O275 1.258 . S
C274 O276 1.263 . S
O275 Co272 1.970 . S
O275 C274 1.258 . S
O276 Co273 1.966 . S
O276 C274 1.263 . S
C277 O278 1.235 . S
C277 O304 1.289 . S
O278 C277 1.235 . S
C279 C281 1.400 1_556 S
C279 N282 1.351 . S
C279 C284 1.501 . S
C280 C281 1.387 . S
C280 N283 1.341 1_554 S
C281 C279 1.400 1_554 S
C281 C280 1.387 . S
N282 Co273 2.022 . S
N282 C279 1.351 . S
N282 N283 1.365 . S
N283 C280 1.341 1_556 S
N283 N282 1.365 . S
N283 H303 0.862 1_545 S
C284 C279 1.501 . S
C284 H285 0.961 . S
C284 H286 0.961 1_556 S
C284 H287 0.960 . S
H285 C284 0.961 . S
H286 C284 0.961 1_554 S
H287 C284 0.960 . S
C288 N289 1.342 . S
C288 C292 1.401 . S
C288 C293 1.499 . S
N289 Co272 1.989 . S
N289 C288 1.342 . S
N289 N290 1.388 . S
N290 Co273 1.993 . S
N290 N289 1.388 . S
N290 C291 1.346 . S
C291 N290 1.346 . S
C291 C292 1.396 . S
C291 C301 1.510 1_556 S
C292 C288 1.401 . S
C292 C291 1.396 . S
C293 C288 1.499 . S
C293 H294 0.959 . S
C293 H295 0.960 . S
C293 H296 0.961 . S
H294 C293 0.959 . S
H295 C293 0.960 . S
H296 C293 0.961 . S
O297 Co272 1.967 . S
O297 C305 1.258 . S
O298 Co273 1.941 . S
O298 C305 1.266 . S
H299 C301 0.959 . S
H300 C301 0.961 . S
C301 C291 1.510 1_554 S
C301 H299 0.959 . S
C301 H300 0.961 . S
C301 H302 0.958 1_554 S
H302 C301 0.958 1_556 S
H303 N283 0.862 1_565 S
O304 Co272 1.920 . S
O304 C277 1.289 . S
C305 O297 1.258 . S
C305 O298 1.266 . S
Co306 O309 1.970 . S
Co306 N323 1.989 . S
Co306 O331 1.967 . S
Co306 O338 1.920 . S
Co307 O310 1.966 . S
Co307 N316 2.022 . S
Co307 N324 1.993 . S
Co307 O332 1.941 . S
C308 O309 1.258 . S
C308 O310 1.263 . S
O309 Co306 1.970 . S
O309 C308 1.258 . S
O310 Co307 1.966 . S
O310 C308 1.263 . S
C311 O312 1.235 . S
C311 O338 1.289 . S
O312 C311 1.235 . S
C313 C315 1.400 . S
C313 N316 1.351 . S
C313 C318 1.501 . S
C314 C315 1.387 . S
C314 N317 1.341 . S
C315 C313 1.400 . S
C315 C314 1.387 . S
N316 Co307 2.022 . S
N316 C313 1.351 . S
N316 N317 1.365 . S
N317 C314 1.341 . S
N317 N316 1.365 . S
N317 H337 0.862 1_545 S
C318 C313 1.501 . S
C318 H319 0.961 . S
C318 H320 0.961 . S
C318 H321 0.960 . S
H319 C318 0.961 . S
H320 C318 0.961 . S
H321 C318 0.960 . S
C322 N323 1.342 . S
C322 C326 1.401 . S
C322 C327 1.499 . S
N323 Co306 1.989 . S
N323 C322 1.342 . S
N323 N324 1.388 . S
N324 Co307 1.993 . S
N324 N323 1.388 . S
N324 C325 1.346 . S
C325 N324 1.346 . S
C325 C326 1.396 . S
C325 C335 1.510 . S
C326 C322 1.401 . S
C326 C325 1.396 . S
C327 C322 1.499 . S
C327 H328 0.959 . S
C327 H329 0.960 . S
C327 H330 0.961 . S
H328 C327 0.959 . S
H329 C327 0.960 . S
H330 C327 0.961 . S
O331 Co306 1.967 . S
O331 C339 1.258 . S
O332 Co307 1.941 . S
O332 C339 1.266 . S
H333 C335 0.959 . S
H334 C335 0.961 . S
C335 C325 1.510 . S
C335 H333 0.959 . S
C335 H334 0.961 . S
C335 H336 0.960 . S
H336 C335 0.960 . S
H337 N317 0.862 1_565 S
O338 Co306 1.920 . S
O338 C311 1.289 . S
C339 O331 1.258 . S
C339 O332 1.266 . S
Co340 O343 1.970 . S
Co340 N357 1.989 . S
Co340 O365 1.967 . S
Co340 O372 1.920 . S
Co341 O344 1.966 . S
Co341 N350 2.022 . S
Co341 N358 1.993 . S
Co341 O366 1.941 . S
C342 O343 1.258 . S
C342 O344 1.263 . S
O343 Co340 1.970 . S
O343 C342 1.258 . S
O344 Co341 1.966 . S
O344 C342 1.263 . S
C345 O346 1.235 . S
C345 O372 1.289 . S
O346 C345 1.235 . S
C347 C349 1.400 . S
C347 N350 1.351 . S
C347 C352 1.501 . S
C348 C349 1.387 . S
C348 N351 1.341 . S
C349 C347 1.400 . S
C349 C348 1.387 . S
N350 Co341 2.022 . S
N350 C347 1.351 . S
N350 N351 1.365 . S
N351 C348 1.341 . S
N351 N350 1.365 . S
N351 H371 0.862 1_655 S
C352 C347 1.501 . S
C352 H353 0.961 . S
C352 H354 0.961 . S
C352 H355 0.960 . S
H353 C352 0.961 . S
H354 C352 0.961 . S
H355 C352 0.960 . S
C356 N357 1.342 . S
C356 C360 1.401 . S
C356 C361 1.499 . S
N357 Co340 1.989 . S
N357 C356 1.342 . S
N357 N358 1.388 . S
N358 Co341 1.993 . S
N358 N357 1.388 . S
N358 C359 1.346 . S
C359 N358 1.346 . S
C359 C360 1.396 . S
C359 C369 1.510 . S
C360 C356 1.401 . S
C360 C359 1.396 . S
C361 C356 1.499 . S
C361 H362 0.959 . S
C361 H363 0.960 . S
C361 H364 0.961 . S
H362 C361 0.959 . S
H363 C361 0.960 . S
H364 C361 0.961 . S
O365 Co340 1.967 . S
O365 C373 1.258 . S
O366 Co341 1.941 . S
O366 C373 1.266 . S
H367 C369 0.959 . S
H368 C369 0.961 . S
C369 C359 1.510 . S
C369 H367 0.959 . S
C369 H368 0.961 . S
C369 H370 0.960 . S
H370 C369 0.960 . S
H371 N351 0.862 1_455 S
O372 Co340 1.920 . S
O372 C345 1.289 . S
C373 O365 1.258 . S
C373 O366 1.266 . S
Co374 O377 1.970 . S
Co374 N391 1.989 . S
Co374 O399 1.967 . S
Co374 O406 1.920 . S
Co375 O378 1.966 . S
Co375 N384 2.022 . S
Co375 N392 1.993 . S
Co375 O400 1.941 . S
C376 O377 1.258 . S
C376 O378 1.263 . S
O377 Co374 1.970 . S
O377 C376 1.258 . S
O378 Co375 1.966 . S
O378 C376 1.263 . S
C379 O380 1.235 . S
C379 O406 1.289 . S
O380 C379 1.235 . S
C381 C383 1.400 . S
C381 N384 1.351 . S
C381 C386 1.501 . S
C382 C383 1.387 . S
C382 N385 1.341 . S
C383 C381 1.400 . S
C383 C382 1.387 . S
N384 Co375 2.022 . S
N384 C381 1.351 . S
N384 N385 1.365 . S
N385 C382 1.341 . S
N385 N384 1.365 . S
N385 H405 0.862 . S
C386 C381 1.501 . S
C386 H387 0.961 . S
C386 H388 0.961 . S
C386 H389 0.960 . S
H387 C386 0.961 . S
H388 C386 0.961 . S
H389 C386 0.960 . S
C390 N391 1.342 . S
C390 C394 1.401 . S
C390 C395 1.499 . S
N391 Co374 1.989 . S
N391 C390 1.342 . S
N391 N392 1.388 . S
N392 Co375 1.993 . S
N392 N391 1.388 . S
N392 C393 1.346 . S
C393 N392 1.346 . S
C393 C394 1.396 . S
C393 C403 1.510 . S
C394 C390 1.401 . S
C394 C393 1.396 . S
C395 C390 1.499 . S
C395 H396 0.959 . S
C395 H397 0.960 . S
C395 H398 0.961 . S
H396 C395 0.959 . S
H397 C395 0.960 . S
H398 C395 0.961 . S
O399 Co374 1.967 . S
O399 C407 1.258 . S
O400 Co375 1.941 . S
O400 C407 1.266 . S
H401 C403 0.959 . S
H402 C403 0.961 . S
C403 C393 1.510 . S
C403 H401 0.959 . S
C403 H402 0.961 . S
C403 H404 0.960 . S
H404 C403 0.960 . S
H405 N385 0.862 . S
O406 Co374 1.920 . S
O406 C379 1.289 . S
C407 O399 1.258 . S
C407 O400 1.266 . S
C408 C409 1.391 1_455 S
C408 C410 1.394 . S
C408 H424 0.931 . S
C409 C408 1.391 1_655 S
C409 C413 1.376 . S
C410 C408 1.394 . S
C410 C411 1.369 . S
C410 C414 1.531 . S
C411 C410 1.369 . S
C411 C412 1.410 1_455 S
C411 C419 1.503 . S
C412 C411 1.410 1_655 S
C412 C413 1.392 . S
C412 C415 1.511 . S
C413 C409 1.376 . S
C413 C412 1.392 . S
C413 H425 0.929 . S
C414 C410 1.531 . S
C414 H426 0.960 . S
C414 H427 0.962 . S
C414 H428 0.960 . S
C415 C412 1.511 . S
C415 H429 0.961 . S
C415 H430 0.961 . S
C415 H431 0.961 . S
C416 C417 1.370 . S
C416 C418 1.363 . S
C416 H432 0.931 . S
C417 C416 1.370 . S
C417 C421 1.408 . S
C418 C416 1.363 . S
C418 C419 1.370 . S
C418 C422 1.525 . S
C419 C411 1.503 . S
C419 C418 1.370 . S
C419 C420 1.403 . S
C420 C419 1.403 . S
C420 C421 1.404 . S
C420 C423 1.539 . S
C421 C417 1.408 . S
C421 C420 1.404 . S
C421 H433 0.930 . S
C422 C418 1.525 . S
C422 H434 0.965 . S
C422 H435 0.946 1_455 S
C422 H436 0.966 1_455 S
C423 C420 1.539 . S
C423 H437 0.958 . S
C423 H438 0.961 . S
C423 H439 0.960 . S
H424 C408 0.931 . S
H425 C413 0.929 . S
H426 C414 0.960 . S
H427 C414 0.962 . S
H428 C414 0.960 . S
H429 C415 0.961 . S
H430 C415 0.961 . S
H431 C415 0.961 . S
H432 C416 0.931 . S
H433 C421 0.930 . S
H434 C422 0.965 . S
H435 C422 0.946 1_655 S
H436 C422 0.966 1_655 S
H437 C423 0.958 . S
H438 C423 0.961 . S
H439 C423 0.960 . S
C440 C441 1.391 . S
C440 C442 1.394 . S
C440 H456 0.931 . S
C441 C440 1.391 . S
C441 C445 1.376 . S
C442 C440 1.394 . S
C442 C443 1.369 . S
C442 C446 1.531 . S
C443 C442 1.369 . S
C443 C444 1.410 . S
C443 C451 1.503 . S
C444 C443 1.410 . S
C444 C445 1.392 . S
C444 C447 1.511 . S
C445 C441 1.376 . S
C445 C444 1.392 . S
C445 H457 0.929 . S
C446 C442 1.531 . S
C446 H458 0.960 . S
C446 H459 0.962 . S
C446 H460 0.960 . S
C447 C444 1.511 . S
C447 H461 0.961 . S
C447 H462 0.961 . S
C447 H463 0.961 . S
C448 C449 1.370 . S
C448 C450 1.363 . S
C448 H464 0.931 . S
C449 C448 1.370 . S
C449 C453 1.408 . S
C450 C448 1.363 . S
C450 C451 1.370 . S
C450 C454 1.524 . S
C451 C443 1.503 . S
C451 C450 1.370 . S
C451 C452 1.403 . S
C452 C451 1.403 . S
C452 C453 1.404 . S
C452 C455 1.539 . S
C453 C449 1.408 . S
C453 C452 1.404 . S
C453 H465 0.930 . S
C454 C450 1.524 . S
C454 H466 0.956 . S
C454 H467 0.961 . S
C454 H468 0.961 . S
C455 C452 1.539 . S
C455 H469 0.958 . S
C455 H470 0.961 . S
C455 H471 0.960 . S
H456 C440 0.931 . S
H457 C445 0.929 . S
H458 C446 0.960 . S
H459 C446 0.962 . S
H460 C446 0.960 . S
H461 C447 0.961 . S
H462 C447 0.961 . S
H463 C447 0.961 . S
H464 C448 0.931 . S
H465 C453 0.930 . S
H466 C454 0.956 . S
H467 C454 0.961 . S
H468 C454 0.961 . S
H469 C455 0.958 . S
H470 C455 0.961 . S
H471 C455 0.960 . S
C472 C473 1.391 . S
C472 C474 1.394 1_545 S
C472 H488 0.930 . S
C473 C472 1.391 . S
C473 C477 1.376 . S
C474 C472 1.394 1_565 S
C474 C475 1.369 . S
C474 C478 1.531 . S
C475 C474 1.369 . S
C475 C476 1.410 . S
C475 C483 1.503 . S
C476 C475 1.410 . S
C476 C477 1.392 1_565 S
C476 C479 1.511 . S
C477 C473 1.376 . S
C477 C476 1.392 1_545 S
C477 H489 0.929 . S
C478 C474 1.531 . S
C478 H490 0.960 . S
C478 H491 0.962 . S
C478 H492 0.960 . S
C479 C476 1.511 . S
C479 H493 0.961 1_565 S
C479 H494 0.961 . S
C479 H495 0.961 . S
C480 C481 1.370 . S
C480 C482 1.363 . S
C480 H496 0.931 1_565 S
C481 C480 1.370 . S
C481 C485 1.408 . S
C482 C480 1.363 . S
C482 C483 1.370 . S
C482 C486 1.524 1_565 S
C483 C475 1.503 . S
C483 C482 1.370 . S
C483 C484 1.403 . S
C484 C483 1.403 . S
C484 C485 1.404 . S
C484 C487 1.539 . S
C485 C481 1.408 . S
C485 C484 1.404 . S
C485 H497 0.930 . S
C486 C482 1.524 1_545 S
C486 H498 0.956 . S
C486 H499 0.961 . S
C486 H500 0.961 . S
C487 C484 1.539 . S
C487 H501 0.958 . S
C487 H502 0.961 . S
C487 H503 0.960 . S
H488 C472 0.930 . S
H489 C477 0.929 . S
H490 C478 0.960 . S
H491 C478 0.962 . S
H492 C478 0.960 . S
H493 C479 0.961 1_545 S
H494 C479 0.961 . S
H495 C479 0.961 . S
H496 C480 0.931 1_545 S
H497 C485 0.930 . S
H498 C486 0.956 . S
H499 C486 0.961 . S
H500 C486 0.961 . S
H501 C487 0.958 . S
H502 C487 0.961 . S
H503 C487 0.960 . S
C504 C505 1.391 . S
C504 C506 1.394 . S
C504 H520 0.931 . S
C505 C504 1.391 . S
C505 C509 1.376 . S
C506 C504 1.394 . S
C506 C507 1.369 . S
C506 C510 1.531 . S
C507 C506 1.369 . S
C507 C508 1.410 . S
C507 C515 1.503 . S
C508 C507 1.410 . S
C508 C509 1.392 . S
C508 C511 1.511 1_565 S
C509 C505 1.376 . S
C509 C508 1.392 . S
C509 H521 0.929 . S
C510 C506 1.531 . S
C510 H522 0.960 . S
C510 H523 0.962 . S
C510 H524 0.960 . S
C511 C508 1.511 1_545 S
C511 H525 0.961 . S
C511 H526 0.961 . S
C511 H527 0.961 1_545 S
C512 C513 1.370 . S
C512 C514 1.363 . S
C512 H528 0.931 . S
C513 C512 1.370 . S
C513 C517 1.408 1_545 S
C514 C512 1.363 . S
C514 C515 1.370 1_545 S
C514 C518 1.524 . S
C515 C507 1.503 . S
C515 C514 1.370 1_565 S
C515 C516 1.403 . S
C516 C515 1.403 . S
C516 C517 1.404 . S
C516 C519 1.539 . S
C517 C513 1.408 1_565 S
C517 C516 1.404 . S
C517 H529 0.930 . S
C518 C514 1.524 . S
C518 H530 0.956 . S
C518 H531 0.961 . S
C518 H532 0.961 . S
C519 C516 1.539 . S
C519 H533 0.958 . S
C519 H534 0.961 . S
C519 H535 0.960 . S
H520 C504 0.931 . S
H521 C509 0.929 . S
H522 C510 0.960 . S
H523 C510 0.962 . S
H524 C510 0.960 . S
H525 C511 0.961 . S
H526 C511 0.961 . S
H527 C511 0.961 1_565 S
H528 C512 0.931 . S
H529 C517 0.930 . S
H530 C518 0.956 . S
H531 C518 0.961 . S
H532 C518 0.961 . S
H533 C519 0.958 . S
H534 C519 0.961 . S
H535 C519 0.960 . S
C536 C537 1.391 . S
C536 C538 1.394 1_455 S
C536 H552 0.931 1_455 S
C537 C536 1.391 . S
C537 C541 1.376 . S
C538 C536 1.394 1_655 S
C538 C539 1.369 1_655 S
C538 C542 1.531 . S
C539 C538 1.369 1_455 S
C539 C540 1.410 . S
C539 C547 1.503 . S
C540 C539 1.410 . S
C540 C541 1.392 . S
C540 C543 1.511 . S
C541 C537 1.376 . S
C541 C540 1.392 . S
C541 H553 0.929 . S
C542 C538 1.531 . S
C542 H554 0.960 . S
C542 H555 0.962 . S
C542 H556 0.960 . S
C543 C540 1.511 . S
C543 H557 0.961 . S
C543 H558 0.961 . S
C543 H559 0.961 . S
C544 C545 1.370 . S
C544 C546 1.363 . S
C544 H560 0.931 . S
C545 C544 1.370 . S
C545 C549 1.408 . S
C546 C544 1.363 . S
C546 C547 1.370 1_655 S
C546 C550 1.524 . S
C547 C539 1.503 . S
C547 C546 1.370 1_455 S
C547 C548 1.403 . S
C548 C547 1.403 . S
C548 C549 1.404 1_455 S
C548 C551 1.539 . S
C549 C545 1.408 . S
C549 C548 1.404 1_655 S
C549 H561 0.930 . S
C550 C546 1.524 . S
C550 H562 0.956 . S
C550 H563 0.961 1_655 S
C550 H564 0.961 . S
C551 C548 1.539 . S
C551 H565 0.958 . S
C551 H566 0.961 . S
C551 H567 0.960 . S
H552 C536 0.931 1_655 S
H553 C541 0.929 . S
H554 C542 0.960 . S
H555 C542 0.962 . S
H556 C542 0.960 . S
H557 C543 0.961 . S
H558 C543 0.961 . S
H559 C543 0.961 . S
H560 C544 0.931 . S
H561 C549 0.930 . S
H562 C550 0.956 . S
H563 C550 0.961 1_455 S
H564 C550 0.961 . S
H565 C551 0.958 . S
H566 C551 0.961 . S
H567 C551 0.960 . S
C568 C569 1.391 . S
C568 C570 1.394 . S
C568 H584 0.931 . S
C569 C568 1.391 . S
C569 C573 1.376 . S
C570 C568 1.394 . S
C570 C571 1.369 . S
C570 C574 1.531 . S
C571 C570 1.369 . S
C571 C572 1.410 . S
C571 C579 1.503 . S
C572 C571 1.410 . S
C572 C573 1.392 . S
C572 C575 1.511 . S
C573 C569 1.376 . S
C573 C572 1.392 . S
C573 H585 0.929 . S
C574 C570 1.531 . S
C574 H586 0.960 . S
C574 H587 0.962 . S
C574 H588 0.960 . S
C575 C572 1.511 . S
C575 H589 0.961 . S
C575 H590 0.961 . S
C575 H591 0.961 . S
C576 C577 1.370 . S
C576 C578 1.363 . S
C576 H592 0.931 . S
C577 C576 1.370 . S
C577 C581 1.408 . S
C578 C576 1.363 . S
C578 C579 1.370 . S
C578 C582 1.524 . S
C579 C571 1.503 . S
C579 C578 1.370 . S
C579 C580 1.403 . S
C580 C579 1.403 . S
C580 C581 1.404 . S
C580 C583 1.539 . S
C581 C577 1.408 . S
C581 C580 1.404 . S
C581 H593 0.930 . S
C582 C578 1.524 . S
C582 H594 0.956 . S
C582 H595 0.961 . S
C582 H596 0.961 . S
C583 C580 1.539 . S
C583 H597 0.958 . S
C583 H598 0.961 . S
C583 H599 0.960 . S
H584 C568 0.931 . S
H585 C573 0.929 . S
H586 C574 0.960 . S
H587 C574 0.962 . S
H588 C574 0.960 . S
H589 C575 0.961 . S
H590 C575 0.961 . S
H591 C575 0.961 . S
H592 C576 0.931 . S
H593 C581 0.930 . S
H594 C582 0.956 . S
H595 C582 0.961 . S
H596 C582 0.961 . S
H597 C583 0.958 . S
H598 C583 0.961 . S
H599 C583 0.960 . S
C600 C601 1.391 1_655 S
C600 C602 1.394 . S
C600 H616 0.931 . S
C601 C600 1.391 1_455 S
C601 C605 1.376 . S
C602 C600 1.394 . S
C602 C603 1.369 . S
C602 C606 1.531 . S
C603 C602 1.369 . S
C603 C604 1.410 1_655 S
C603 C611 1.503 . S
C604 C603 1.410 1_455 S
C604 C605 1.392 . S
C604 C607 1.511 . S
C605 C601 1.376 . S
C605 C604 1.392 . S
C605 H617 0.929 . S
C606 C602 1.531 . S
C606 H618 0.960 . S
C606 H619 0.962 . S
C606 H620 0.960 . S
C607 C604 1.511 . S
C607 H621 0.961 . S
C607 H622 0.961 . S
C607 H623 0.961 . S
C608 C609 1.370 . S
C608 C610 1.363 . S
C608 H624 0.931 . S
C609 C608 1.370 . S
C609 C613 1.408 . S
C610 C608 1.363 . S
C610 C611 1.370 . S
C610 C614 1.524 . S
C611 C603 1.503 . S
C611 C610 1.370 . S
C611 C612 1.403 1_655 S
C612 C611 1.403 1_455 S
C612 C613 1.404 1_455 S
C612 C615 1.539 . S
C613 C609 1.408 . S
C613 C612 1.404 1_655 S
C613 H625 0.928 1_655 S
C614 C610 1.524 . S
C614 H626 0.956 . S
C614 H627 0.961 . S
C614 H628 0.961 . S
C615 C612 1.539 . S
C615 H629 0.958 . S
C615 H630 0.961 . S
C615 H631 0.960 . S
H616 C600 0.931 . S
H617 C605 0.929 . S
H618 C606 0.960 . S
H619 C606 0.962 . S
H620 C606 0.960 . S
H621 C607 0.961 . S
H622 C607 0.961 . S
H623 C607 0.961 . S
H624 C608 0.931 . S
H625 C613 0.928 1_455 S
H626 C614 0.956 . S
H627 C614 0.961 . S
H628 C614 0.961 . S
H629 C615 0.958 . S
H630 C615 0.961 . S
H631 C615 0.960 . S
C632 C633 1.391 . S
C632 C634 1.394 . S
C632 H648 0.931 . S
C633 C632 1.391 . S
C633 C637 1.376 . S
C634 C632 1.394 . S
C634 C635 1.369 . S
C634 C638 1.531 . S
C635 C634 1.369 . S
C635 C636 1.410 . S
C635 C643 1.503 . S
C636 C635 1.410 . S
C636 C637 1.392 . S
C636 C639 1.511 . S
C637 C633 1.376 . S
C637 C636 1.392 . S
C637 H649 0.929 . S
C638 C634 1.531 . S
C638 H650 0.960 . S
C638 H651 0.962 . S
C638 H652 0.960 . S
C639 C636 1.511 . S
C639 H653 0.961 . S
C639 H654 0.961 . S
C639 H655 0.961 . S
C640 C641 1.370 . S
C640 C642 1.363 . S
C640 H656 0.931 . S
C641 C640 1.370 . S
C641 C645 1.408 . S
C642 C640 1.363 . S
C642 C643 1.370 . S
C642 C646 1.524 . S
C643 C635 1.503 . S
C643 C642 1.370 . S
C643 C644 1.403 . S
C644 C643 1.403 . S
C644 C645 1.404 . S
C644 C647 1.539 . S
C645 C641 1.408 . S
C645 C644 1.404 . S
C645 H657 0.930 . S
C646 C642 1.524 . S
C646 H658 0.956 . S
C646 H659 0.961 . S
C646 H660 0.961 . S
C647 C644 1.539 . S
C647 H661 0.958 . S
C647 H662 0.961 . S
C647 H663 0.960 . S
H648 C632 0.931 . S
H649 C637 0.929 . S
H650 C638 0.960 . S
H651 C638 0.962 . S
H652 C638 0.960 . S
H653 C639 0.961 . S
H654 C639 0.961 . S
H655 C639 0.961 . S
H656 C640 0.931 . S
H657 C645 0.930 . S
H658 C646 0.956 . S
H659 C646 0.961 . S
H660 C646 0.961 . S
H661 C647 0.958 . S
H662 C647 0.961 . S
H663 C647 0.960 . S
C664 C665 1.391 . S
C664 C666 1.394 . S
C664 H680 0.931 . S
C665 C664 1.391 . S
C665 C669 1.376 1_565 S
C666 C664 1.394 . S
C666 C667 1.369 1_565 S
C666 C670 1.531 . S
C667 C666 1.369 1_545 S
C667 C668 1.410 . S
C667 C675 1.503 . S
C668 C667 1.410 . S
C668 C669 1.392 . S
C668 C671 1.511 . S
C669 C665 1.376 1_545 S
C669 C668 1.392 . S
C669 H681 0.929 . S
C670 C666 1.531 . S
C670 H682 0.960 . S
C670 H683 0.962 . S
C670 H684 0.960 . S
C671 C668 1.511 . S
C671 H685 0.961 . S
C671 H686 0.961 . S
C671 H687 0.961 . S
C672 C673 1.370 . S
C672 C674 1.363 . S
C672 H688 0.931 . S
C673 C672 1.370 . S
C673 C677 1.408 . S
C674 C672 1.363 . S
C674 C675 1.370 . S
C674 C678 1.524 . S
C675 C667 1.503 . S
C675 C674 1.370 . S
C675 C676 1.403 . S
C676 C675 1.403 . S
C676 C677 1.404 . S
C676 C679 1.539 1_545 S
C677 C673 1.408 . S
C677 C676 1.404 . S
C677 H689 0.930 . S
C678 C674 1.524 . S
C678 H690 0.956 . S
C678 H691 0.961 . S
C678 H692 0.961 . S
C679 C676 1.539 1_565 S
C679 H693 0.958 . S
C679 H694 0.961 . S
C679 H695 0.960 . S
H680 C664 0.931 . S
H681 C669 0.929 . S
H682 C670 0.960 . S
H683 C670 0.962 . S
H684 C670 0.960 . S
H685 C671 0.961 . S
H686 C671 0.961 . S
H687 C671 0.961 . S
H688 C672 0.931 . S
H689 C677 0.930 . S
H690 C678 0.956 . S
H691 C678 0.961 . S
H692 C678 0.961 . S
H693 C679 0.958 . S
H694 C679 0.961 . S
H695 C679 0.960 . S
C696 C697 1.391 . S
C696 C698 1.394 . S
C696 H712 0.931 . S
C697 C696 1.391 . S
C697 C701 1.376 1_565 S
C698 C696 1.394 . S
C698 C699 1.369 1_565 S
C698 C702 1.531 . S
C699 C698 1.369 1_545 S
C699 C700 1.410 . S
C699 C707 1.503 . S
C700 C699 1.410 . S
C700 C701 1.392 . S
C700 C703 1.511 . S
C701 C697 1.376 1_545 S
C701 C700 1.392 . S
C701 H713 0.929 . S
C702 C698 1.531 . S
C702 H714 0.960 . S
C702 H715 0.962 . S
C702 H716 0.960 . S
C703 C700 1.511 . S
C703 H717 0.961 . S
C703 H718 0.961 . S
C703 H719 0.961 . S
C704 C705 1.370 . S
C704 C706 1.363 . S
C704 H720 0.931 . S
C705 C704 1.370 . S
C705 C709 1.408 . S
C706 C704 1.363 . S
C706 C707 1.370 . S
C706 C710 1.524 . S
C707 C699 1.503 . S
C707 C706 1.370 . S
C707 C708 1.403 . S
C708 C707 1.403 . S
C708 C709 1.404 . S
C708 C711 1.539 . S
C709 C705 1.408 . S
C709 C708 1.404 . S
C709 H721 0.930 . S
C710 C706 1.524 . S
C710 H722 0.956 1_545 S
C710 H723 0.961 . S
C710 H724 0.961 . S
C711 C708 1.539 . S
C711 H725 0.958 . S
C711 H726 0.961 . S
C711 H727 0.960 . S
H712 C696 0.931 . S
H713 C701 0.929 . S
H714 C702 0.960 . S
H715 C702 0.962 . S
H716 C702 0.960 . S
H717 C703 0.961 . S
H718 C703 0.961 . S
H719 C703 0.961 . S
H720 C704 0.931 . S
H721 C709 0.930 . S
H722 C710 0.956 1_565 S
H723 C710 0.961 . S
H724 C710 0.961 . S
H725 C711 0.958 . S
H726 C711 0.961 . S
H727 C711 0.960 . S
C728 C729 1.391 . S
C728 C730 1.394 . S
C728 H744 0.931 . S
C729 C728 1.391 . S
C729 C733 1.376 . S
C730 C728 1.394 . S
C730 C731 1.369 . S
C730 C734 1.531 . S
C731 C730 1.369 . S
C731 C732 1.410 . S
C731 C739 1.503 . S
C732 C731 1.410 . S
C732 C733 1.392 . S
C732 C735 1.511 . S
C733 C729 1.376 . S
C733 C732 1.392 . S
C733 H745 0.929 . S
C734 C730 1.531 . S
C734 H746 0.960 . S
C734 H747 0.962 . S
C734 H748 0.960 . S
C735 C732 1.511 . S
C735 H749 0.961 . S
C735 H750 0.961 . S
C735 H751 0.961 . S
C736 C737 1.370 . S
C736 C738 1.363 . S
C736 H752 0.931 . S
C737 C736 1.370 . S
C737 C741 1.408 1_455 S
C738 C736 1.363 . S
C738 C739 1.370 1_455 S
C738 C742 1.524 . S
C739 C731 1.503 . S
C739 C738 1.370 1_655 S
C739 C740 1.403 . S
C740 C739 1.403 . S
C740 C741 1.404 . S
C740 C743 1.539 . S
C741 C737 1.408 1_655 S
C741 C740 1.404 . S
C741 H753 0.930 . S
C742 C738 1.524 . S
C742 H754 0.956 . S
C742 H755 0.961 . S
C742 H756 0.961 . S
C743 C740 1.539 . S
C743 H757 0.958 . S
C743 H758 0.961 . S
C743 H759 0.960 . S
H744 C728 0.931 . S
H745 C733 0.929 . S
H746 C734 0.960 . S
H747 C734 0.962 . S
H748 C734 0.960 . S
H749 C735 0.961 . S
H750 C735 0.961 . S
H751 C735 0.961 . S
H752 C736 0.931 . S
H753 C741 0.930 . S
H754 C742 0.956 . S
H755 C742 0.961 . S
H756 C742 0.961 . S
H757 C743 0.958 . S
H758 C743 0.961 . S
H759 C743 0.960 . S
C760 C761 1.391 . S
C760 C762 1.394 . S
C760 H776 0.931 . S
C761 C760 1.391 . S
C761 C765 1.376 . S
C762 C760 1.394 . S
C762 C763 1.369 . S
C762 C766 1.531 . S
C763 C762 1.369 . S
C763 C764 1.410 . S
C763 C771 1.503 . S
C764 C763 1.410 . S
C764 C765 1.392 . S
C764 C767 1.511 . S
C765 C761 1.376 . S
C765 C764 1.392 . S
C765 H777 0.929 . S
C766 C762 1.531 . S
C766 H778 0.960 . S
C766 H779 0.962 . S
C766 H780 0.960 . S
C767 C764 1.511 . S
C767 H781 0.961 . S
C767 H782 0.961 . S
C767 H783 0.961 . S
C768 C769 1.370 . S
C768 C770 1.363 . S
C768 H784 0.931 . S
C769 C768 1.370 . S
C769 C773 1.408 . S
C770 C768 1.363 . S
C770 C771 1.370 . S
C770 C774 1.524 . S
C771 C763 1.503 . S
C771 C770 1.370 . S
C771 C772 1.403 . S
C772 C771 1.403 . S
C772 C773 1.404 . S
C772 C775 1.539 . S
C773 C769 1.408 . S
C773 C772 1.404 . S
C773 H785 0.930 . S
C774 C770 1.524 . S
C774 H786 0.956 . S
C774 H787 0.961 . S
C774 H788 0.961 . S
C775 C772 1.539 . S
C775 H789 0.958 . S
C775 H790 0.961 . S
C775 H791 0.960 . S
H776 C760 0.931 . S
H777 C765 0.929 . S
H778 C766 0.960 . S
H779 C766 0.962 . S
H780 C766 0.960 . S
H781 C767 0.961 . S
H782 C767 0.961 . S
H783 C767 0.961 . S
H784 C768 0.931 . S
H785 C773 0.930 . S
H786 C774 0.956 . S
H787 C774 0.961 . S
H788 C774 0.961 . S
H789 C775 0.958 . S
H790 C775 0.961 . S
H791 C775 0.960 . S
C792 C793 1.391 1_554 S
C792 C794 1.394 . S
C792 H808 0.931 . S
C793 C792 1.391 1_556 S
C793 C797 1.376 . S
C794 C792 1.394 . S
C794 C795 1.369 1_554 S
C794 C798 1.531 . S
C795 C794 1.369 1_556 S
C795 C796 1.410 1_655 S
C795 C803 1.503 1_656 S
C796 C795 1.410 1_455 S
C796 C797 1.392 1_455 S
C796 C799 1.511 . S
C797 C793 1.376 . S
C797 C796 1.392 1_655 S
C797 H809 0.929 1_655 S
C798 C794 1.531 . S
C798 H810 0.960 . S
C798 H811 0.962 . S
C798 H812 0.960 . S
C799 C796 1.511 . S
C799 H813 0.961 . S
C799 H814 0.961 . S
C799 H815 0.961 . S
C800 C801 1.370 . S
C800 C802 1.363 . S
C800 H816 0.931 . S
C801 C800 1.370 . S
C801 C805 1.428 1_554 S
C802 C800 1.363 . S
C802 C803 1.370 . S
C802 C806 1.524 . S
C803 C795 1.503 1_454 S
C803 C802 1.370 . S
C803 C804 1.403 1_454 S
C804 C803 1.403 1_656 S
C804 C805 1.382 1_655 S
C804 C807 1.539 . S
C805 C801 1.428 1_556 S
C805 C804 1.382 1_455 S
C805 H817 0.933 1_455 S
C806 C802 1.524 . S
C806 H818 0.956 . S
C806 H819 0.961 . S
C806 H820 0.961 . S
C807 C804 1.539 . S
C807 H821 0.958 . S
C807 H822 0.961 . S
C807 H823 0.960 . S
H808 C792 0.931 . S
H809 C797 0.929 1_455 S
H810 C798 0.960 . S
H811 C798 0.962 . S
H812 C798 0.960 . S
H813 C799 0.961 . S
H814 C799 0.961 . S
H815 C799 0.961 . S
H816 C800 0.931 . S
H817 C805 0.933 1_655 S
H818 C806 0.956 . S
H819 C806 0.961 . S
H820 C806 0.961 . S
H821 C807 0.958 . S
H822 C807 0.961 . S
H823 C807 0.960 . S
C824 C825 1.391 . S
C824 C826 1.394 . S
C824 H840 0.931 . S
C825 C824 1.391 . S
C825 C829 1.376 1_554 S
C826 C824 1.394 . S
C826 C827 1.369 . S
C826 C830 1.531 . S
C827 C826 1.369 . S
C827 C828 1.410 1_554 S
C827 C835 1.503 1_554 S
C828 C827 1.410 1_556 S
C828 C829 1.392 . S
C828 C831 1.511 . S
C829 C825 1.376 1_556 S
C829 C828 1.392 . S
C829 H841 0.929 . S
C830 C826 1.531 . S
C830 H842 0.960 . S
C830 H843 0.962 . S
C830 H844 0.960 . S
C831 C828 1.511 . S
C831 H845 0.961 . S
C831 H846 0.961 . S
C831 H847 0.961 . S
C832 C833 1.370 . S
C832 C834 1.363 . S
C832 H848 0.931 . S
C833 C832 1.370 . S
C833 C837 1.408 . S
C834 C832 1.363 . S
C834 C835 1.370 . S
C834 C838 1.524 1_556 S
C835 C827 1.503 1_556 S
C835 C834 1.370 . S
C835 C836 1.403 . S
C836 C835 1.403 . S
C836 C837 1.404 . S
C836 C839 1.539 . S
C837 C833 1.408 . S
C837 C836 1.404 . S
C837 H849 0.930 . S
C838 C834 1.524 1_554 S
C838 H850 0.956 . S
C838 H851 0.961 1_554 S
C838 H852 0.961 1_554 S
C839 C836 1.539 . S
C839 H853 0.958 1_556 S
C839 H854 0.961 . S
C839 H855 0.960 . S
H840 C824 0.931 . S
H841 C829 0.929 . S
H842 C830 0.960 . S
H843 C830 0.962 . S
H844 C830 0.960 . S
H845 C831 0.961 . S
H846 C831 0.961 . S
H847 C831 0.961 . S
H848 C832 0.931 . S
H849 C837 0.930 . S
H850 C838 0.956 . S
H851 C838 0.961 1_556 S
H852 C838 0.961 1_556 S
H853 C839 0.958 1_554 S
H854 C839 0.961 . S
H855 C839 0.960 . S
C856 C857 1.391 . S
C856 C858 1.394 1_545 S
C856 H872 0.931 . S
C857 C856 1.391 . S
C857 C861 1.376 1_556 S
C858 C856 1.394 1_565 S
C858 C859 1.369 . S
C858 C862 1.531 . S
C859 C858 1.369 . S
C859 C860 1.410 1_566 S
C859 C867 1.503 1_556 S
C860 C859 1.410 1_544 S
C860 C861 1.392 . S
C860 C863 1.511 . S
C861 C857 1.376 1_554 S
C861 C860 1.392 . S
C861 H873 0.929 . S
C862 C858 1.531 . S
C862 H874 0.960 . S
C862 H875 0.962 . S
C862 H876 0.960 . S
C863 C860 1.511 . S
C863 H877 0.961 . S
C863 H878 0.961 . S
C863 H879 0.961 . S
C864 C865 1.370 1_545 S
C864 C866 1.363 . S
C864 H880 0.931 . S
C865 C864 1.370 1_565 S
C865 C869 1.408 . S
C866 C864 1.363 . S
C866 C867 1.370 1_545 S
C866 C870 1.524 1_554 S
C867 C859 1.503 1_554 S
C867 C866 1.370 1_565 S
C867 C868 1.403 . S
C868 C867 1.403 . S
C868 C869 1.404 . S
C868 C871 1.539 . S
C869 C865 1.408 . S
C869 C868 1.404 . S
C869 H881 0.930 . S
C870 C866 1.524 1_556 S
C870 H882 0.956 . S
C870 H883 0.966 . S
C870 H884 0.961 . S
C871 C868 1.539 . S
C871 H885 0.958 . S
C871 H886 0.961 . S
C871 H887 0.960 . S
H872 C856 0.931 . S
H873 C861 0.929 . S
H874 C862 0.960 . S
H875 C862 0.962 . S
H876 C862 0.960 . S
H877 C863 0.961 . S
H878 C863 0.961 . S
H879 C863 0.961 . S
H880 C864 0.931 . S
H881 C869 0.930 . S
H882 C870 0.956 . S
H883 C870 0.966 . S
H884 C870 0.961 . S
H885 C871 0.958 . S
H886 C871 0.961 . S
H887 C871 0.960 . S
C888 C889 1.391 . S
C888 C890 1.394 . S
C888 H904 0.931 . S
C889 C888 1.391 . S
C889 C893 1.376 1_565 S
C890 C888 1.394 . S
C890 C891 1.369 . S
C890 C894 1.531 . S
C891 C890 1.369 . S
C891 C892 1.410 1_565 S
C891 C899 1.503 1_565 S
C892 C891 1.410 1_545 S
C892 C893 1.392 . S
C892 C895 1.511 . S
C893 C889 1.376 1_545 S
C893 C892 1.392 . S
C893 H905 0.929 . S
C894 C890 1.531 . S
C894 H906 0.960 . S
C894 H907 0.962 . S
C894 H908 0.960 . S
C895 C892 1.511 . S
C895 H909 0.961 . S
C895 H910 0.961 . S
C895 H911 0.961 . S
C896 C897 1.370 . S
C896 C898 1.363 . S
C896 H912 0.931 . S
C897 C896 1.370 . S
C897 C901 1.408 . S
C898 C896 1.363 . S
C898 C899 1.370 . S
C898 C902 1.524 . S
C899 C891 1.503 1_545 S
C899 C898 1.370 . S
C899 C900 1.403 . S
C900 C899 1.403 . S
C900 C901 1.404 . S
C900 C903 1.539 1_545 S
C901 C897 1.408 . S
C901 C900 1.404 . S
C901 H913 0.930 . S
C902 C898 1.524 . S
C902 H914 0.956 1_545 S
C902 H915 0.961 . S
C902 H916 0.961 . S
C903 C900 1.539 1_565 S
C903 H917 0.958 . S
C903 H918 0.961 1_565 S
C903 H919 0.960 . S
H904 C888 0.931 . S
H905 C893 0.929 . S
H906 C894 0.960 . S
H907 C894 0.962 . S
H908 C894 0.960 . S
H909 C895 0.961 . S
H910 C895 0.961 . S
H911 C895 0.961 . S
H912 C896 0.931 . S
H913 C901 0.930 . S
H914 C902 0.956 1_565 S
H915 C902 0.961 . S
H916 C902 0.961 . S
H917 C903 0.958 . S
H918 C903 0.961 1_545 S
H919 C903 0.960 . S
C920 C921 1.391 . S
C920 C922 1.394 . S
C920 H936 0.931 . S
C921 C920 1.391 . S
C921 C925 1.376 1_455 S
C922 C920 1.394 . S
C922 C923 1.369 . S
C922 C926 1.531 . S
C923 C922 1.369 . S
C923 C924 1.410 1_455 S
C923 C931 1.503 1_455 S
C924 C923 1.410 1_655 S
C924 C925 1.392 . S
C924 C927 1.511 . S
C925 C921 1.376 1_655 S
C925 C924 1.392 . S
C925 H937 0.929 . S
C926 C922 1.531 . S
C926 H938 0.960 . S
C926 H939 0.962 . S
C926 H940 0.960 . S
C927 C924 1.511 . S
C927 H941 0.961 . S
C927 H942 0.961 . S
C927 H943 0.961 . S
C928 C929 1.370 . S
C928 C930 1.363 1_655 S
C928 H944 0.931 1_655 S
C929 C928 1.370 . S
C929 C933 1.408 . S
C930 C928 1.363 1_455 S
C930 C931 1.370 1_455 S
C930 C934 1.524 . S
C931 C923 1.503 1_655 S
C931 C930 1.370 1_655 S
C931 C932 1.403 . S
C932 C931 1.403 . S
C932 C933 1.404 . S
C932 C935 1.539 . S
C933 C929 1.408 . S
C933 C932 1.404 . S
C933 H945 0.930 . S
C934 C930 1.524 . S
C934 H946 0.956 . S
C934 H947 0.961 . S
C934 H948 0.961 . S
C935 C932 1.539 . S
C935 H949 0.958 . S
C935 H950 0.961 . S
C935 H951 0.960 . S
H936 C920 0.931 . S
H937 C925 0.929 . S
H938 C926 0.960 . S
H939 C926 0.962 . S
H940 C926 0.960 . S
H941 C927 0.961 . S
H942 C927 0.961 . S
H943 C927 0.961 . S
H944 C928 0.931 1_455 S
H945 C933 0.930 . S
H946 C934 0.956 . S
H947 C934 0.961 . S
H948 C934 0.961 . S
H949 C935 0.958 . S
H950 C935 0.961 . S
H951 C935 0.960 . S
C952 C953 1.391 . S
C952 C954 1.394 . S
C952 H968 0.931 . S
C953 C952 1.391 . S
C953 C957 1.376 . S
C954 C952 1.394 . S
C954 C955 1.369 . S
C954 C958 1.531 . S
C955 C954 1.369 . S
C955 C956 1.410 . S
C955 C963 1.503 . S
C956 C955 1.410 . S
C956 C957 1.392 . S
C956 C959 1.511 . S
C957 C953 1.376 . S
C957 C956 1.392 . S
C957 H969 0.929 . S
C958 C954 1.531 . S
C958 H970 0.960 . S
C958 H971 0.962 . S
C958 H972 0.960 . S
C959 C956 1.511 . S
C959 H973 0.961 . S
C959 H974 0.961 . S
C959 H975 0.961 . S
C960 C961 1.370 . S
C960 C962 1.363 . S
C960 H976 0.931 . S
C961 C960 1.370 . S
C961 C965 1.408 . S
C962 C960 1.363 . S
C962 C963 1.370 . S
C962 C966 1.524 . S
C963 C955 1.503 . S
C963 C962 1.370 . S
C963 C964 1.403 . S
C964 C963 1.403 . S
C964 C965 1.404 . S
C964 C967 1.539 . S
C965 C961 1.408 . S
C965 C964 1.404 . S
C965 H977 0.930 . S
C966 C962 1.524 . S
C966 H978 0.956 . S
C966 H979 0.961 . S
C966 H980 0.961 . S
C967 C964 1.539 . S
C967 H981 0.958 . S
C967 H982 0.961 . S
C967 H983 0.960 . S
H968 C952 0.931 . S
H969 C957 0.929 . S
H970 C958 0.960 . S
H971 C958 0.962 . S
H972 C958 0.960 . S
H973 C959 0.961 . S
H974 C959 0.961 . S
H975 C959 0.961 . S
H976 C960 0.931 . S
H977 C965 0.930 . S
H978 C966 0.956 . S
H979 C966 0.961 . S
H980 C966 0.961 . S
H981 C967 0.958 . S
H982 C967 0.961 . S
H983 C967 0.960 . S
C984 C985 1.391 . S
C984 C986 1.394 . S
C984 H1000 0.931 . S
C985 C984 1.391 . S
C985 C989 1.376 . S
C986 C984 1.394 . S
C986 C987 1.369 . S
C986 C990 1.531 . S
C987 C986 1.369 . S
C987 C988 1.410 . S
C987 C995 1.503 . S
C988 C987 1.410 . S
C988 C989 1.392 . S
C988 C991 1.511 . S
C989 C985 1.376 . S
C989 C988 1.392 . S
C989 H1001 0.929 . S
C990 C986 1.531 . S
C990 H1002 0.960 . S
C990 H1003 0.962 . S
C990 H1004 0.960 . S
C991 C988 1.511 . S
C991 H1005 0.961 . S
C991 H1006 0.961 . S
C991 H1007 0.961 . S
C992 C993 1.370 . S
C992 C994 1.363 . S
C992 H1008 0.931 . S
C993 C992 1.370 . S
C993 C997 1.408 . S
C994 C992 1.363 . S
C994 C995 1.370 . S
C994 C998 1.524 . S
C995 C987 1.503 . S
C995 C994 1.370 . S
C995 C996 1.403 . S
C996 C995 1.403 . S
C996 C997 1.404 . S
C996 C999 1.539 . S
C997 C993 1.408 . S
C997 C996 1.404 . S
C997 H1009 0.930 . S
C998 C994 1.524 . S
C998 H1010 0.956 . S
C998 H1011 0.961 . S
C998 H1012 0.961 . S
C999 C996 1.539 . S
C999 H1013 0.958 . S
C999 H1014 0.961 . S
C999 H1015 0.960 . S
H1000 C984 0.931 . S
H1001 C989 0.929 . S
H1002 C990 0.960 . S
H1003 C990 0.962 . S
H1004 C990 0.960 . S
H1005 C991 0.961 . S
H1006 C991 0.961 . S
H1007 C991 0.961 . S
H1008 C992 0.931 . S
H1009 C997 0.930 . S
H1010 C998 0.956 . S
H1011 C998 0.961 . S
H1012 C998 0.961 . S
H1013 C999 0.958 . S
H1014 C999 0.961 . S
H1015 C999 0.960 . S
C1016 C1017 1.391 . S
C1016 C1018 1.394 . S
C1016 H1032 0.931 . S
C1017 C1016 1.391 . S
C1017 C1021 1.376 . S
C1018 C1016 1.394 . S
C1018 C1019 1.369 . S
C1018 C1022 1.531 . S
C1019 C1018 1.369 . S
C1019 C1020 1.410 . S
C1019 C1027 1.503 . S
C1020 C1019 1.410 . S
C1020 C1021 1.392 . S
C1020 C1023 1.511 . S
C1021 C1017 1.376 . S
C1021 C1020 1.392 . S
C1021 H1033 0.929 . S
C1022 C1018 1.531 . S
C1022 H1034 0.960 . S
C1022 H1035 0.962 . S
C1022 H1036 0.960 . S
C1023 C1020 1.511 . S
C1023 H1037 0.961 . S
C1023 H1038 0.961 . S
C1023 H1039 0.961 . S
C1024 C1025 1.370 . S
C1024 C1026 1.363 . S
C1024 H1040 0.931 . S
C1025 C1024 1.370 . S
C1025 C1029 1.408 . S
C1026 C1024 1.363 . S
C1026 C1027 1.370 . S
C1026 C1030 1.524 . S
C1027 C1019 1.503 . S
C1027 C1026 1.370 . S
C1027 C1028 1.403 . S
C1028 C1027 1.403 . S
C1028 C1029 1.404 . S
C1028 C1031 1.539 . S
C1029 C1025 1.408 . S
C1029 C1028 1.404 . S
C1029 H1041 0.930 . S
C1030 C1026 1.524 . S
C1030 H1042 0.956 . S
C1030 H1043 0.961 . S
C1030 H1044 0.961 . S
C1031 C1028 1.539 . S
C1031 H1045 0.958 . S
C1031 H1046 0.961 . S
C1031 H1047 0.960 . S
H1032 C1016 0.931 . S
H1033 C1021 0.929 . S
H1034 C1022 0.960 . S
H1035 C1022 0.962 . S
H1036 C1022 0.960 . S
H1037 C1023 0.961 . S
H1038 C1023 0.961 . S
H1039 C1023 0.961 . S
H1040 C1024 0.931 . S
H1041 C1029 0.930 . S
H1042 C1030 0.956 . S
H1043 C1030 0.961 . S
H1044 C1030 0.961 . S
H1045 C1031 0.958 . S
H1046 C1031 0.961 . S
H1047 C1031 0.960 . S
C1048 C1049 1.391 . S
C1048 C1050 1.394 . S
C1048 H1064 0.931 . S
C1049 C1048 1.391 . S
C1049 C1053 1.376 . S
C1050 C1048 1.394 . S
C1050 C1051 1.369 . S
C1050 C1054 1.531 . S
C1051 C1050 1.369 . S
C1051 C1052 1.410 . S
C1051 C1059 1.503 . S
C1052 C1051 1.410 . S
C1052 C1053 1.392 . S
C1052 C1055 1.511 . S
C1053 C1049 1.376 . S
C1053 C1052 1.392 . S
C1053 H1065 0.929 . S
C1054 C1050 1.531 . S
C1054 H1066 0.960 . S
C1054 H1067 0.962 . S
C1054 H1068 0.960 . S
C1055 C1052 1.511 . S
C1055 H1069 0.961 . S
C1055 H1070 0.961 . S
C1055 H1071 0.961 . S
C1056 C1057 1.370 . S
C1056 C1058 1.363 . S
C1056 H1072 0.931 . S
C1057 C1056 1.370 . S
C1057 C1061 1.408 . S
C1058 C1056 1.363 . S
C1058 C1059 1.370 . S
C1058 C1062 1.524 . S
C1059 C1051 1.503 . S
C1059 C1058 1.370 . S
C1059 C1060 1.403 . S
C1060 C1059 1.403 . S
C1060 C1061 1.404 . S
C1060 C1063 1.539 . S
C1061 C1057 1.408 . S
C1061 C1060 1.404 . S
C1061 H1073 0.930 . S
C1062 C1058 1.524 . S
C1062 H1074 0.956 . S
C1062 H1075 0.961 . S
C1062 H1076 0.961 . S
C1063 C1060 1.539 . S
C1063 H1077 0.958 . S
C1063 H1078 0.961 . S
C1063 H1079 0.960 . S
H1064 C1048 0.931 . S
H1065 C1053 0.929 . S
H1066 C1054 0.960 . S
H1067 C1054 0.962 . S
H1068 C1054 0.960 . S
H1069 C1055 0.961 . S
H1070 C1055 0.961 . S
H1071 C1055 0.961 . S
H1072 C1056 0.931 . S
H1073 C1061 0.930 . S
H1074 C1062 0.956 . S
H1075 C1062 0.961 . S
H1076 C1062 0.961 . S
H1077 C1063 0.958 . S
H1078 C1063 0.961 . S
H1079 C1063 0.960 . S
C1080 C1081 1.391 . S
C1080 C1082 1.394 . S
C1080 H1096 0.931 . S
C1081 C1080 1.391 . S
C1081 C1085 1.376 . S
C1082 C1080 1.394 . S
C1082 C1083 1.369 . S
C1082 C1086 1.531 . S
C1083 C1082 1.369 . S
C1083 C1084 1.410 . S
C1083 C1091 1.503 . S
C1084 C1083 1.410 . S
C1084 C1085 1.392 . S
C1084 C1087 1.511 . S
C1085 C1081 1.376 . S
C1085 C1084 1.392 . S
C1085 H1097 0.929 . S
C1086 C1082 1.531 . S
C1086 H1098 0.960 . S
C1086 H1099 0.962 . S
C1086 H1100 0.960 . S
C1087 C1084 1.511 . S
C1087 H1101 0.961 . S
C1087 H1102 0.961 . S
C1087 H1103 0.961 . S
C1088 C1089 1.370 . S
C1088 C1090 1.363 . S
C1088 H1104 0.931 . S
C1089 C1088 1.370 . S
C1089 C1093 1.408 . S
C1090 C1088 1.363 . S
C1090 C1091 1.370 . S
C1090 C1094 1.524 . S
C1091 C1083 1.503 . S
C1091 C1090 1.370 . S
C1091 C1092 1.403 . S
C1092 C1091 1.403 . S
C1092 C1093 1.404 . S
C1092 C1095 1.539 . S
C1093 C1089 1.408 . S
C1093 C1092 1.404 . S
C1093 H1105 0.930 . S
C1094 C1090 1.524 . S
C1094 H1106 0.956 . S
C1094 H1107 0.961 . S
C1094 H1108 0.961 . S
C1095 C1092 1.539 . S
C1095 H1109 0.958 . S
C1095 H1110 0.961 . S
C1095 H1111 0.960 . S
H1096 C1080 0.931 . S
H1097 C1085 0.929 . S
H1098 C1086 0.960 . S
H1099 C1086 0.962 . S
H1100 C1086 0.960 . S
H1101 C1087 0.961 . S
H1102 C1087 0.961 . S
H1103 C1087 0.961 . S
H1104 C1088 0.931 . S
H1105 C1093 0.930 . S
H1106 C1094 0.956 . S
H1107 C1094 0.961 . S
H1108 C1094 0.961 . S
H1109 C1095 0.958 . S
H1110 C1095 0.961 . S
H1111 C1095 0.960 . S
C1112 C1113 1.391 . S
C1112 C1114 1.394 . S
C1112 H1128 0.931 . S
C1113 C1112 1.391 . S
C1113 C1117 1.376 . S
C1114 C1112 1.394 . S
C1114 C1115 1.369 . S
C1114 C1118 1.531 . S
C1115 C1114 1.369 . S
C1115 C1116 1.410 . S
C1115 C1123 1.503 . S
C1116 C1115 1.410 . S
C1116 C1117 1.392 . S
C1116 C1119 1.511 . S
C1117 C1113 1.376 . S
C1117 C1116 1.392 . S
C1117 H1129 0.929 . S
C1118 C1114 1.531 . S
C1118 H1130 0.960 . S
C1118 H1131 0.962 . S
C1118 H1132 0.960 . S
C1119 C1116 1.511 . S
C1119 H1133 0.961 . S
C1119 H1134 0.961 . S
C1119 H1135 0.961 . S
C1120 C1121 1.370 . S
C1120 C1122 1.363 . S
C1120 H1136 0.931 . S
C1121 C1120 1.370 . S
C1121 C1125 1.408 . S
C1122 C1120 1.363 . S
C1122 C1123 1.370 . S
C1122 C1126 1.524 . S
C1123 C1115 1.503 . S
C1123 C1122 1.370 . S
C1123 C1124 1.403 . S
C1124 C1123 1.403 . S
C1124 C1125 1.404 . S
C1124 C1127 1.539 . S
C1125 C1121 1.408 . S
C1125 C1124 1.404 . S
C1125 H1137 0.930 . S
C1126 C1122 1.524 . S
C1126 H1138 0.956 . S
C1126 H1139 0.961 . S
C1126 H1140 0.961 . S
C1127 C1124 1.539 . S
C1127 H1141 0.958 . S
C1127 H1142 0.961 . S
C1127 H1143 0.960 . S
H1128 C1112 0.931 . S
H1129 C1117 0.929 . S
H1130 C1118 0.960 . S
H1131 C1118 0.962 . S
H1132 C1118 0.960 . S
H1133 C1119 0.961 . S
H1134 C1119 0.961 . S
H1135 C1119 0.961 . S
H1136 C1120 0.931 . S
H1137 C1125 0.930 . S
H1138 C1126 0.956 . S
H1139 C1126 0.961 . S
H1140 C1126 0.961 . S
H1141 C1127 0.958 . S
H1142 C1127 0.961 . S
H1143 C1127 0.960 . S
C1144 C1145 1.391 . S
C1144 C1146 1.394 . S
C1144 H1160 0.931 . S
C1145 C1144 1.391 . S
C1145 C1149 1.376 . S
C1146 C1144 1.394 . S
C1146 C1147 1.369 . S
C1146 C1150 1.531 . S
C1147 C1146 1.369 . S
C1147 C1148 1.410 . S
C1147 C1155 1.503 . S
C1148 C1147 1.410 . S
C1148 C1149 1.392 . S
C1148 C1151 1.511 . S
C1149 C1145 1.376 . S
C1149 C1148 1.392 . S
C1149 H1161 0.929 . S
C1150 C1146 1.531 . S
C1150 H1162 0.960 . S
C1150 H1163 0.962 . S
C1150 H1164 0.960 . S
C1151 C1148 1.511 . S
C1151 H1165 0.961 . S
C1151 H1166 0.961 . S
C1151 H1167 0.961 . S
C1152 C1153 1.370 . S
C1152 C1154 1.363 . S
C1152 H1168 0.931 . S
C1153 C1152 1.370 . S
C1153 C1157 1.408 . S
C1154 C1152 1.363 . S
C1154 C1155 1.370 . S
C1154 C1158 1.524 . S
C1155 C1147 1.503 . S
C1155 C1154 1.370 . S
C1155 C1156 1.403 . S
C1156 C1155 1.403 . S
C1156 C1157 1.404 . S
C1156 C1159 1.539 . S
C1157 C1153 1.408 . S
C1157 C1156 1.404 . S
C1157 H1169 0.930 . S
C1158 C1154 1.524 . S
C1158 H1170 0.956 . S
C1158 H1171 0.961 . S
C1158 H1172 0.961 . S
C1159 C1156 1.539 . S
C1159 H1173 0.958 . S
C1159 H1174 0.961 . S
C1159 H1175 0.960 . S
H1160 C1144 0.931 . S
H1161 C1149 0.929 . S
H1162 C1150 0.960 . S
H1163 C1150 0.962 . S
H1164 C1150 0.960 . S
H1165 C1151 0.961 . S
H1166 C1151 0.961 . S
H1167 C1151 0.961 . S
H1168 C1152 0.931 . S
H1169 C1157 0.930 . S
H1170 C1158 0.956 . S
H1171 C1158 0.961 . S
H1172 C1158 0.961 . S
H1173 C1159 0.958 . S
H1174 C1159 0.961 . S
H1175 C1159 0.960 . S
C1176 C1177 1.391 . S
C1176 C1178 1.394 . S
C1176 H1192 0.931 . S
C1177 C1176 1.391 . S
C1177 C1181 1.376 . S
C1178 C1176 1.394 . S
C1178 C1179 1.369 . S
C1178 C1182 1.531 . S
C1179 C1178 1.369 . S
C1179 C1180 1.410 . S
C1179 C1187 1.503 . S
C1180 C1179 1.410 . S
C1180 C1181 1.392 . S
C1180 C1183 1.511 . S
C1181 C1177 1.376 . S
C1181 C1180 1.392 . S
C1181 H1193 0.929 . S
C1182 C1178 1.531 . S
C1182 H1194 0.960 . S
C1182 H1195 0.962 . S
C1182 H1196 0.960 . S
C1183 C1180 1.511 . S
C1183 H1197 0.961 . S
C1183 H1198 0.961 . S
C1183 H1199 0.961 . S
C1184 C1185 1.370 . S
C1184 C1186 1.363 . S
C1184 H1200 0.931 . S
C1185 C1184 1.370 . S
C1185 C1189 1.408 . S
C1186 C1184 1.363 . S
C1186 C1187 1.370 . S
C1186 C1190 1.524 . S
C1187 C1179 1.503 . S
C1187 C1186 1.370 . S
C1187 C1188 1.403 . S
C1188 C1187 1.403 . S
C1188 C1189 1.404 . S
C1188 C1191 1.539 . S
C1189 C1185 1.408 . S
C1189 C1188 1.404 . S
C1189 H1201 0.930 . S
C1190 C1186 1.524 . S
C1190 H1202 0.956 . S
C1190 H1203 0.961 . S
C1190 H1204 0.961 . S
C1191 C1188 1.539 . S
C1191 H1205 0.958 . S
C1191 H1206 0.961 . S
C1191 H1207 0.960 . S
H1192 C1176 0.931 . S
H1193 C1181 0.929 . S
H1194 C1182 0.960 . S
H1195 C1182 0.962 . S
H1196 C1182 0.960 . S
H1197 C1183 0.961 . S
H1198 C1183 0.961 . S
H1199 C1183 0.961 . S
H1200 C1184 0.931 . S
H1201 C1189 0.930 . S
H1202 C1190 0.956 . S
H1203 C1190 0.961 . S
H1204 C1190 0.961 . S
H1205 C1191 0.958 . S
H1206 C1191 0.961 . S
H1207 C1191 0.960 . S
C1208 C1209 1.391 . S
C1208 C1210 1.394 . S
C1208 H1224 0.931 . S
C1209 C1208 1.391 . S
C1209 C1213 1.376 . S
C1210 C1208 1.394 . S
C1210 C1211 1.369 . S
C1210 C1214 1.531 . S
C1211 C1210 1.369 . S
C1211 C1212 1.410 . S
C1211 C1219 1.503 . S
C1212 C1211 1.410 . S
C1212 C1213 1.392 . S
C1212 C1215 1.511 . S
C1213 C1209 1.376 . S
C1213 C1212 1.392 . S
C1213 H1225 0.929 . S
C1214 C1210 1.531 . S
C1214 H1226 0.960 . S
C1214 H1227 0.962 . S
C1214 H1228 0.960 . S
C1215 C1212 1.511 . S
C1215 H1229 0.961 . S
C1215 H1230 0.961 . S
C1215 H1231 0.961 . S
C1216 C1217 1.370 . S
C1216 C1218 1.363 . S
C1216 H1232 0.931 . S
C1217 C1216 1.370 . S
C1217 C1221 1.408 . S
C1218 C1216 1.363 . S
C1218 C1219 1.370 . S
C1218 C1222 1.524 . S
C1219 C1211 1.503 . S
C1219 C1218 1.370 . S
C1219 C1220 1.403 . S
C1220 C1219 1.403 . S
C1220 C1221 1.404 . S
C1220 C1223 1.539 . S
C1221 C1217 1.408 . S
C1221 C1220 1.404 . S
C1221 H1233 0.930 . S
C1222 C1218 1.524 . S
C1222 H1234 0.956 . S
C1222 H1235 0.961 . S
C1222 H1236 0.961 . S
C1223 C1220 1.539 . S
C1223 H1237 0.958 . S
C1223 H1238 0.961 . S
C1223 H1239 0.960 . S
H1224 C1208 0.931 . S
H1225 C1213 0.929 . S
H1226 C1214 0.960 . S
H1227 C1214 0.962 . S
H1228 C1214 0.960 . S
H1229 C1215 0.961 . S
H1230 C1215 0.961 . S
H1231 C1215 0.961 . S
H1232 C1216 0.931 . S
H1233 C1221 0.930 . S
H1234 C1222 0.956 . S
H1235 C1222 0.961 . S
H1236 C1222 0.961 . S
H1237 C1223 0.958 . S
H1238 C1223 0.961 . S
H1239 C1223 0.960 . S
C1240 C1241 1.391 . S
C1240 C1242 1.394 . S
C1240 H1256 0.931 . S
C1241 C1240 1.391 . S
C1241 C1245 1.376 . S
C1242 C1240 1.394 . S
C1242 C1243 1.369 . S
C1242 C1246 1.531 . S
C1243 C1242 1.369 . S
C1243 C1244 1.410 . S
C1243 C1251 1.503 . S
C1244 C1243 1.410 . S
C1244 C1245 1.392 . S
C1244 C1247 1.511 . S
C1245 C1241 1.376 . S
C1245 C1244 1.392 . S
C1245 H1257 0.929 . S
C1246 C1242 1.531 . S
C1246 H1258 0.960 . S
C1246 H1259 0.962 . S
C1246 H1260 0.960 . S
C1247 C1244 1.511 . S
C1247 H1261 0.961 . S
C1247 H1262 0.961 . S
C1247 H1263 0.961 . S
C1248 C1249 1.370 . S
C1248 C1250 1.363 . S
C1248 H1264 0.931 . S
C1249 C1248 1.370 . S
C1249 C1253 1.408 . S
C1250 C1248 1.363 . S
C1250 C1251 1.370 . S
C1250 C1254 1.524 . S
C1251 C1243 1.503 . S
C1251 C1250 1.370 . S
C1251 C1252 1.403 . S
C1252 C1251 1.403 . S
C1252 C1253 1.404 . S
C1252 C1255 1.539 . S
C1253 C1249 1.408 . S
C1253 C1252 1.404 . S
C1253 H1265 0.930 . S
C1254 C1250 1.524 . S
C1254 H1266 0.956 . S
C1254 H1267 0.961 . S
C1254 H1268 0.961 . S
C1255 C1252 1.539 . S
C1255 H1269 0.958 . S
C1255 H1270 0.961 . S
C1255 H1271 0.960 . S
H1256 C1240 0.931 . S
H1257 C1245 0.929 . S
H1258 C1246 0.960 . S
H1259 C1246 0.962 . S
H1260 C1246 0.960 . S
H1261 C1247 0.961 . S
H1262 C1247 0.961 . S
H1263 C1247 0.961 . S
H1264 C1248 0.931 . S
H1265 C1253 0.930 . S
H1266 C1254 0.956 . S
H1267 C1254 0.961 . S
H1268 C1254 0.961 . S
H1269 C1255 0.958 . S
H1270 C1255 0.961 . S
H1271 C1255 0.960 . S
C1272 C1273 1.391 . S
C1272 C1274 1.394 . S
C1272 H1288 0.931 . S
C1273 C1272 1.391 . S
C1273 C1277 1.376 . S
C1274 C1272 1.394 . S
C1274 C1275 1.369 . S
C1274 C1278 1.531 . S
C1275 C1274 1.369 . S
C1275 C1276 1.410 . S
C1275 C1283 1.503 . S
C1276 C1275 1.410 . S
C1276 C1277 1.392 . S
C1276 C1279 1.511 . S
C1277 C1273 1.376 . S
C1277 C1276 1.392 . S
C1277 H1289 0.929 . S
C1278 C1274 1.531 . S
C1278 H1290 0.960 . S
C1278 H1291 0.962 . S
C1278 H1292 0.960 . S
C1279 C1276 1.511 . S
C1279 H1293 0.961 . S
C1279 H1294 0.961 . S
C1279 H1295 0.961 . S
C1280 C1281 1.370 . S
C1280 C1282 1.363 . S
C1280 H1296 0.931 . S
C1281 C1280 1.370 . S
C1281 C1285 1.408 . S
C1282 C1280 1.363 . S
C1282 C1283 1.370 . S
C1282 C1286 1.524 . S
C1283 C1275 1.503 . S
C1283 C1282 1.370 . S
C1283 C1284 1.403 . S
C1284 C1283 1.403 . S
C1284 C1285 1.404 . S
C1284 C1287 1.539 . S
C1285 C1281 1.408 . S
C1285 C1284 1.404 . S
C1285 H1297 0.930 . S
C1286 C1282 1.524 . S
C1286 H1298 0.956 . S
C1286 H1299 0.961 . S
C1286 H1300 0.961 . S
C1287 C1284 1.539 . S
C1287 H1301 0.958 . S
C1287 H1302 0.961 . S
C1287 H1303 0.960 . S
H1288 C1272 0.931 . S
H1289 C1277 0.929 . S
H1290 C1278 0.960 . S
H1291 C1278 0.962 . S
H1292 C1278 0.960 . S
H1293 C1279 0.961 . S
H1294 C1279 0.961 . S
H1295 C1279 0.961 . S
H1296 C1280 0.931 . S
H1297 C1285 0.930 . S
H1298 C1286 0.956 . S
H1299 C1286 0.961 . S
H1300 C1286 0.961 . S
H1301 C1287 0.958 . S
H1302 C1287 0.961 . S
H1303 C1287 0.960 . S
C1304 C1305 1.391 . S
C1304 C1306 1.394 . S
C1304 H1320 0.931 . S
C1305 C1304 1.391 . S
C1305 C1309 1.376 . S
C1306 C1304 1.394 . S
C1306 C1307 1.369 . S
C1306 C1310 1.531 . S
C1307 C1306 1.369 . S
C1307 C1308 1.410 . S
C1307 C1315 1.503 . S
C1308 C1307 1.410 . S
C1308 C1309 1.392 . S
C1308 C1311 1.511 . S
C1309 C1305 1.376 . S
C1309 C1308 1.392 . S
C1309 H1321 0.929 . S
C1310 C1306 1.531 . S
C1310 H1322 0.960 . S
C1310 H1323 0.962 . S
C1310 H1324 0.960 . S
C1311 C1308 1.511 . S
C1311 H1325 0.961 . S
C1311 H1326 0.961 . S
C1311 H1327 0.961 . S
C1312 C1313 1.370 . S
C1312 C1314 1.363 . S
C1312 H1328 0.931 . S
C1313 C1312 1.370 . S
C1313 C1317 1.408 . S
C1314 C1312 1.363 . S
C1314 C1315 1.370 . S
C1314 C1318 1.524 . S
C1315 C1307 1.503 . S
C1315 C1314 1.370 . S
C1315 C1316 1.403 . S
C1316 C1315 1.403 . S
C1316 C1317 1.404 . S
C1316 C1319 1.539 . S
C1317 C1313 1.408 . S
C1317 C1316 1.404 . S
C1317 H1329 0.930 . S
C1318 C1314 1.524 . S
C1318 H1330 0.956 . S
C1318 H1331 0.961 . S
C1318 H1332 0.961 . S
C1319 C1316 1.539 . S
C1319 H1333 0.958 . S
C1319 H1334 0.961 . S
C1319 H1335 0.960 . S
H1320 C1304 0.931 . S
H1321 C1309 0.929 . S
H1322 C1310 0.960 . S
H1323 C1310 0.962 . S
H1324 C1310 0.960 . S
H1325 C1311 0.961 . S
H1326 C1311 0.961 . S
H1327 C1311 0.961 . S
H1328 C1312 0.931 . S
H1329 C1317 0.930 . S
H1330 C1318 0.956 . S
H1331 C1318 0.961 . S
H1332 C1318 0.961 . S
H1333 C1319 0.958 . S
H1334 C1319 0.961 . S
H1335 C1319 0.960 . S
C1336 C1337 1.391 . S
C1336 C1338 1.394 . S
C1336 H1352 0.931 . S
C1337 C1336 1.391 . S
C1337 C1341 1.376 . S
C1338 C1336 1.394 . S
C1338 C1339 1.369 . S
C1338 C1342 1.531 . S
C1339 C1338 1.369 . S
C1339 C1340 1.410 . S
C1339 C1347 1.503 . S
C1340 C1339 1.410 . S
C1340 C1341 1.392 . S
C1340 C1343 1.511 . S
C1341 C1337 1.376 . S
C1341 C1340 1.392 . S
C1341 H1353 0.929 . S
C1342 C1338 1.531 . S
C1342 H1354 0.960 . S
C1342 H1355 0.962 . S
C1342 H1356 0.960 . S
C1343 C1340 1.511 . S
C1343 H1357 0.961 . S
C1343 H1358 0.961 . S
C1343 H1359 0.961 . S
C1344 C1345 1.370 . S
C1344 C1346 1.363 . S
C1344 H1360 0.931 . S
C1345 C1344 1.370 . S
C1345 C1349 1.408 . S
C1346 C1344 1.363 . S
C1346 C1347 1.370 . S
C1346 C1350 1.524 . S
C1347 C1339 1.503 . S
C1347 C1346 1.370 . S
C1347 C1348 1.403 . S
C1348 C1347 1.403 . S
C1348 C1349 1.404 . S
C1348 C1351 1.539 . S
C1349 C1345 1.408 . S
C1349 C1348 1.404 . S
C1349 H1361 0.930 . S
C1350 C1346 1.524 . S
C1350 H1362 0.956 . S
C1350 H1363 0.961 . S
C1350 H1364 0.961 . S
C1351 C1348 1.539 . S
C1351 H1365 0.958 . S
C1351 H1366 0.961 . S
C1351 H1367 0.960 . S
H1352 C1336 0.931 . S
H1353 C1341 0.929 . S
H1354 C1342 0.960 . S
H1355 C1342 0.962 . S
H1356 C1342 0.960 . S
H1357 C1343 0.961 . S
H1358 C1343 0.961 . S
H1359 C1343 0.961 . S
H1360 C1344 0.931 . S
H1361 C1349 0.930 . S
H1362 C1350 0.956 . S
H1363 C1350 0.961 . S
H1364 C1350 0.961 . S
H1365 C1351 0.958 . S
H1366 C1351 0.961 . S
H1367 C1351 0.960 . S
C409 C373 1.459 . S
C417 C9 1.286 . S
C441 C43 1.345 . S
C449 C407 1.464 . S
C473 C339 1.476 . S
C481 C77 1.311 . S
C505 C111 1.354 . S
C513 C305 1.470 . S
C537 C145 1.266 . S
C545 C237 1.463 . S
C569 C179 1.295 . S
C577 C271 1.467 . S
C601 C169 1.446 . S
C609 C213 1.295 . S
C633 C203 1.476 . S
C641 C247 1.326 . S
C665 C135 1.443 . S
C673 C281 1.279 . S
C697 C101 1.458 . S
C705 C315 1.292 . S
C729 C349 1.336 . S
C737 C33 1.470 . S
C761 C67 1.441 . S
C769 C383 1.286 . S
C793 C224 1.220 . S
C801 C20 1.262 . S
C825 C54 1.237 . S
C833 C258 1.253 . S
C857 C292 1.269 . S
C865 C88 1.240 . S
C889 C122 1.270 . S
C897 C326 1.240 . S
C921 C156 1.276 . S
C929 C360 1.239 . S
C953 C394 1.249 . S
C961 C190 1.251 . S
C985 C5 0.728 . S
C993 C141 0.648 . S
C1017 C39 0.734 . S
C1025 C175 0.642 . S
C1049 C73 0.647 . S
C1057 C107 0.685 . S
C1081 C345 0.698 . S
C1089 C209 0.656 . S
C1113 C243 0.717 . S
C1121 C379 0.646 . S
C1145 C277 0.585 . S
C1153 C311 0.693 . S
C1177 C172 1.429 . S
C1185 C2 1.421 . S
C1209 C104 1.383 . S
C1217 C36 1.440 . S
C1241 C70 1.391 . S
C1249 C138 1.437 . S
C1273 C206 1.454 . S
C1281 C376 1.405 . S
C1305 C308 1.380 . S
C1313 C240 1.436 . S
C1337 C342 1.386 . S
C1345 C274 1.432 . S
