# Generated by pormake.
# Topology cag, (4)-cn, num edge types: 1
# Building blocks:
#     Node 0, Type 0, BuildingBlock: ICAMEG_clean_sbu_1, # of connection points: 4
#     Node 1, Type 0, BuildingBlock: ICAMEG_clean_sbu_1, # of connection points: 4
#     Node 2, Type 0, BuildingBlock: ICAMEG_clean_sbu_1, # of connection points: 4
#     Node 3, Type 0, BuildingBlock: ICAMEG_clean_sbu_1, # of connection points: 4
#     Node 4, Type 0, BuildingBlock: ICAMEG_clean_sbu_1, # of connection points: 4
#     Node 5, Type 0, BuildingBlock: ICAMEG_clean_sbu_1, # of connection points: 4
#     Node 6, Type 0, BuildingBlock: ICAMEG_clean_sbu_1, # of connection points: 4
#     Node 7, Type 0, BuildingBlock: ICAMEG_clean_sbu_1, # of connection points: 4
#     Node 8, Type 0, BuildingBlock: ICAMEG_clean_sbu_1, # of connection points: 4
#     Node 9, Type 0, BuildingBlock: ICAMEG_clean_sbu_1, # of connection points: 4
#     Node 10, Type 0, BuildingBlock: ICAMEG_clean_sbu_1, # of connection points: 4
#     Node 11, Type 0, BuildingBlock: ICAMEG_clean_sbu_1, # of connection points: 4
#     Node 12, Type 0, BuildingBlock: ICAMEG_clean_sbu_1, # of connection points: 4
#     Node 13, Type 0, BuildingBlock: ICAMEG_clean_sbu_1, # of connection points: 4
#     Node 14, Type 0, BuildingBlock: ICAMEG_clean_sbu_1, # of connection points: 4
#     Node 15, Type 0, BuildingBlock: ICAMEG_clean_sbu_1, # of connection points: 4
#     Edge 16, Type (0, 0), BuildingBlock: UVAHIK_clean_linker_0, # of connection points: 2
#     Edge 17, Type (0, 0), BuildingBlock: UVAHIK_clean_linker_0, # of connection points: 2
#     Edge 18, Type (0, 0), BuildingBlock: UVAHIK_clean_linker_0, # of connection points: 2
#     Edge 19, Type (0, 0), BuildingBlock: UVAHIK_clean_linker_0, # of connection points: 2
#     Edge 20, Type (0, 0), BuildingBlock: UVAHIK_clean_linker_0, # of connection points: 2
#     Edge 21, Type (0, 0), BuildingBlock: UVAHIK_clean_linker_0, # of connection points: 2
#     Edge 22, Type (0, 0), BuildingBlock: UVAHIK_clean_linker_0, # of connection points: 2
#     Edge 23, Type (0, 0), BuildingBlock: UVAHIK_clean_linker_0, # of connection points: 2
#     Edge 24, Type (0, 0), BuildingBlock: UVAHIK_clean_linker_0, # of connection points: 2
#     Edge 25, Type (0, 0), BuildingBlock: UVAHIK_clean_linker_0, # of connection points: 2
#     Edge 26, Type (0, 0), BuildingBlock: UVAHIK_clean_linker_0, # of connection points: 2
#     Edge 27, Type (0, 0), BuildingBlock: UVAHIK_clean_linker_0, # of connection points: 2
#     Edge 28, Type (0, 0), BuildingBlock: UVAHIK_clean_linker_0, # of connection points: 2
#     Edge 29, Type (0, 0), BuildingBlock: UVAHIK_clean_linker_0, # of connection points: 2
#     Edge 30, Type (0, 0), BuildingBlock: UVAHIK_clean_linker_0, # of connection points: 2
#     Edge 31, Type (0, 0), BuildingBlock: UVAHIK_clean_linker_0, # of connection points: 2
#     Edge 32, Type (0, 0), BuildingBlock: UVAHIK_clean_linker_0, # of connection points: 2
#     Edge 33, Type (0, 0), BuildingBlock: UVAHIK_clean_linker_0, # of connection points: 2
#     Edge 34, Type (0, 0), BuildingBlock: UVAHIK_clean_linker_0, # of connection points: 2
#     Edge 35, Type (0, 0), BuildingBlock: UVAHIK_clean_linker_0, # of connection points: 2
#     Edge 36, Type (0, 0), BuildingBlock: UVAHIK_clean_linker_0, # of connection points: 2
#     Edge 37, Type (0, 0), BuildingBlock: UVAHIK_clean_linker_0, # of connection points: 2
#     Edge 38, Type (0, 0), BuildingBlock: UVAHIK_clean_linker_0, # of connection points: 2
#     Edge 39, Type (0, 0), BuildingBlock: UVAHIK_clean_linker_0, # of connection points: 2
#     Edge 40, Type (0, 0), BuildingBlock: UVAHIK_clean_linker_0, # of connection points: 2
#     Edge 41, Type (0, 0), BuildingBlock: UVAHIK_clean_linker_0, # of connection points: 2
#     Edge 42, Type (0, 0), BuildingBlock: UVAHIK_clean_linker_0, # of connection points: 2
#     Edge 43, Type (0, 0), BuildingBlock: UVAHIK_clean_linker_0, # of connection points: 2
#     Edge 44, Type (0, 0), BuildingBlock: UVAHIK_clean_linker_0, # of connection points: 2
#     Edge 45, Type (0, 0), BuildingBlock: UVAHIK_clean_linker_0, # of connection points: 2
#     Edge 46, Type (0, 0), BuildingBlock: UVAHIK_clean_linker_0, # of connection points: 2
#     Edge 47, Type (0, 0), BuildingBlock: UVAHIK_clean_linker_0, # of connection points: 2
# Relax obj value: 0.157
# Max RMSD: 0.213
# Mean RMSD: 0.208
data_MOF--net-cag--node1-ICAMEG_clean_sbu_1--edge1-UVAHIK_clean_linker_0
_symmetry_space_group_name_H-M    P1
_symmetry_Int_Tables_number       1
_symmetry_cell_setting            triclinic
loop_
_symmetry_equiv_pos_as_xyz
'x, y, z'
_cell_length_a     57.40304
_cell_length_b     66.555668
_cell_length_c     56.529218
_cell_angle_alpha  90.013066
_cell_angle_beta   90.003587
_cell_angle_gamma 89.967433
loop_
_atom_site_label
_atom_site_type_symbol
_atom_site_fract_x
_atom_site_fract_y
_atom_site_fract_z
_atom_type_partial_charge
Co0 Co 0.35383 0.13921 0.07192 0.0
Co1 Co 0.3602 0.11294 0.12395 0.0
O2 O 0.34547 0.13467 0.10537 0.0
C3 C 0.34425 0.1813 0.09131 0.0
O4 O 0.33982 0.17471 0.11271 0.0
C5 C 0.31048 0.1156 0.14276 0.0
O6 O 0.30443 0.12868 0.12654 0.0
O7 O 0.35001 0.09271 0.09993 0.0
O8 O 0.35801 0.10966 0.06671 0.0
H9 H 0.40948 0.05106 0.13371 0.0
H10 H 0.30865 0.15513 0.09064 0.0
O11 O 0.35008 0.1692 0.07486 0.0
H12 H 0.28747 0.11247 0.02281 0.0
H13 H 0.34751 0.17148 0.9915 0.0
H14 H 0.39052 0.12268 0.04053 0.0
H15 H 0.32855 0.1168 0.03415 0.0
H16 H 0.33611 0.16551 0.03295 0.0
O17 O 0.33087 0.10799 0.14279 0.0
H18 H 0.3912 0.07885 0.11165 0.0
H19 H 0.35982 0.10045 0.17481 0.0
H20 H 0.40235 0.12807 0.99908 0.0
H21 H 0.26746 0.15152 0.07971 0.0
H22 H 0.38078 0.15262 0.97427 0.0
H23 H 0.25654 0.13 0.04558 0.0
O24 O 0.38719 0.14198 0.08093 0.0
H25 H 0.35045 0.17298 0.17745 0.0
H26 H 0.40477 0.12081 0.14948 0.0
H27 H 0.41831 0.14591 0.17834 0.0
H28 H 0.39103 0.17221 0.19266 0.0
H29 H 0.3378 0.14783 0.14836 0.0
H30 H 0.3776 0.07277 0.19748 0.0
H31 H 0.40272 0.04788 0.17695 0.0
O32 O 0.39053 0.11673 0.10685 0.0
C33 C 0.35332 0.09338 0.0776 0.0
C34 C 0.39862 0.06184 0.14287 0.0
C35 C 0.38069 0.07401 0.17865 0.0
N36 N 0.37455 0.09134 0.14192 0.0
C37 C 0.38825 0.07764 0.13048 0.0
C38 C 0.37061 0.08962 0.16569 0.0
C39 C 0.3948 0.06005 0.16712 0.0
C40 C 0.30424 0.14597 0.07563 0.0
N41 N 0.32121 0.13635 0.06301 0.0
C42 C 0.28077 0.14387 0.06958 0.0
C43 C 0.27465 0.13177 0.05047 0.0
C44 C 0.29199 0.12192 0.03771 0.0
C45 C 0.31527 0.12437 0.04429 0.0
C46 C 0.35702 0.16072 1.00213 0.0
C47 C 0.38096 0.13331 0.02981 0.0
C48 C 0.35069 0.15731 0.02564 0.0
N49 N 0.36254 0.14365 0.03913 0.0
C50 C 0.38778 0.13633 0.00637 0.0
C51 C 0.37568 0.15013 0.99246 0.0
C52 C 0.39947 0.12993 0.09325 0.0
C53 C 0.36248 0.16155 0.17143 0.0
C54 C 0.39281 0.13225 0.15543 0.0
C55 C 0.40057 0.1464 0.17188 0.0
C56 C 0.38526 0.16113 0.17992 0.0
N57 N 0.3704 0.13266 0.14722 0.0
C58 C 0.35535 0.14714 0.15499 0.0
Co59 Co 0.15104 0.86818 0.56314 0.0
Co60 Co 0.14767 0.89137 0.61725 0.0
O61 O 0.16063 0.87054 0.59636 0.0
C62 C 0.15666 0.82509 0.58005 0.0
O63 O 0.15775 0.83065 0.60226 0.0
C64 C 0.1897 0.90796 0.64125 0.0
O65 O 0.18383 0.9258 0.63328 0.0
O66 O 0.15797 0.91275 0.59457 0.0
O67 O 0.1483 0.89804 0.56031 0.0
H68 H 0.10331 0.95467 0.63521 0.0
H69 H 0.19521 0.84984 0.58011 0.0
O70 O 0.15365 0.83803 0.56374 0.0
H71 H 0.218 0.89432 0.51438 0.0
H72 H 0.15338 0.84026 0.48026 0.0
H73 H 0.11429 0.88766 0.53432 0.0
H74 H 0.17683 0.89121 0.52608 0.0
H75 H 0.16631 0.84352 0.52167 0.0
O76 O 0.17834 0.89249 0.63455 0.0
H77 H 0.11945 0.92806 0.60965 0.0
H78 H 0.14888 0.89903 0.66954 0.0
H79 H 0.10095 0.885 0.49298 0.0
H80 H 0.23654 0.85226 0.56878 0.0
H81 H 0.12054 0.86116 0.46563 0.0
H82 H 0.2482 0.87466 0.53571 0.0
O83 O 0.11785 0.86624 0.57315 0.0
H84 H 0.15836 0.82911 0.66649 0.0
H85 H 0.10307 0.88193 0.64238 0.0
H86 H 0.09002 0.85523 0.66944 0.0
H87 H 0.1178 0.82859 0.6818 0.0
H88 H 0.1705 0.85587 0.63902 0.0
H89 H 0.13309 0.92534 0.69571 0.0
H90 H 0.11011 0.95342 0.67857 0.0
O91 O 0.11653 0.89013 0.6011 0.0
C92 C 0.15415 0.91346 0.5723 0.0
C93 C 0.11331 0.94252 0.64289 0.0
C94 C 0.13001 0.92606 0.67684 0.0
N95 N 0.13514 0.91201 0.63804 0.0
C96 C 0.1225 0.9274 0.6285 0.0
C97 C 0.13892 0.9112 0.66192 0.0
C98 C 0.11713 0.94181 0.66722 0.0
C99 C 0.20005 0.85945 0.56554 0.0
N100 N 0.1835 0.8702 0.55363 0.0
C101 C 0.22353 0.86083 0.55928 0.0
C102 C 0.23007 0.87342 0.54075 0.0
C103 C 0.21314 0.88446 0.52878 0.0
C104 C 0.18983 0.88269 0.53555 0.0
C105 C 0.14472 0.85072 0.492 0.0
C106 C 0.12299 0.87733 0.52251 0.0
C107 C 0.15192 0.8526 0.51549 0.0
N108 N 0.14115 0.86587 0.53039 0.0
C109 C 0.11532 0.87586 0.49912 0.0
C110 C 0.1263 0.86246 0.4838 0.0
C111 C 0.10654 0.87798 0.58684 0.0
C112 C 0.14607 0.84062 0.66123 0.0
C113 C 0.11515 0.87024 0.6473 0.0
C114 C 0.10771 0.85523 0.66281 0.0
C115 C 0.12332 0.84032 0.66978 0.0
N116 N 0.13748 0.87043 0.63891 0.0
C117 C 0.15288 0.85587 0.64573 0.0
Co118 Co 0.35303 0.86932 0.93499 0.0
Co119 Co 0.36081 0.89631 0.88383 0.0
O120 O 0.34577 0.87446 0.90155 0.0
C121 C 0.36078 0.82523 0.93621 0.0
O122 O 0.38199 0.82895 0.94376 0.0
C123 C 0.31144 0.89398 0.86424 0.0
O124 O 0.30523 0.88072 0.8802 0.0
O125 O 0.35045 0.9161 0.90828 0.0
O126 O 0.35788 0.89865 0.94135 0.0
H127 H 0.41071 0.958 0.87645 0.0
H128 H 0.3093 0.85249 0.91534 0.0
O129 O 0.34767 0.83973 0.92973 0.0
H130 H 0.28451 0.89697 0.9804 0.0
H131 H 0.34144 0.83699 0.01485 0.0
H132 H 0.38972 0.88345 0.96786 0.0
H133 H 0.32613 0.89265 0.97114 0.0
H134 H 0.33197 0.84382 0.97308 0.0
O135 O 0.33176 0.90169 0.86467 0.0
H136 H 0.39198 0.92986 0.89746 0.0
H137 H 0.36106 0.90989 0.83334 0.0
H138 H 0.39977 0.87708 0.0096 0.0
H139 H 0.26747 0.8561 0.92426 0.0
H140 H 0.37554 0.85369 0.03339 0.0
H141 H 0.25481 0.87854 0.95694 0.0
O142 O 0.38675 0.86647 0.92686 0.0
H143 H 0.35179 0.8363 0.8302 0.0
H144 H 0.40534 0.88912 0.85788 0.0
H145 H 0.41905 0.86439 0.82866 0.0
H146 H 0.39214 0.83778 0.81446 0.0
H147 H 0.33895 0.86109 0.85966 0.0
H148 H 0.37926 0.93794 0.81171 0.0
H149 H 0.40439 0.96219 0.83326 0.0
O150 O 0.3908 0.89192 0.90126 0.0
C151 C 0.35346 0.9151 0.93066 0.0
C152 C 0.39985 0.9475 0.86685 0.0
C153 C 0.38217 0.93626 0.83053 0.0
N154 N 0.37554 0.91816 0.86665 0.0
C155 C 0.38924 0.9315 0.87864 0.0
C156 C 0.37184 0.92045 0.8429 0.0
C157 C 0.39628 0.94986 0.84262 0.0
C158 C 0.30396 0.86221 0.92967 0.0
N159 N 0.3202 0.87245 0.94258 0.0
C160 C 0.28023 0.86423 0.9346 0.0
C161 C 0.27314 0.87683 0.95292 0.0
C162 C 0.28979 0.8872 0.96606 0.0
C163 C 0.31336 0.88482 0.96061 0.0
C164 C 0.35212 0.84721 1.00467 0.0
C165 C 0.37909 0.87326 0.97809 0.0
C166 C 0.34686 0.85114 0.981 0.0
N167 N 0.3603 0.86402 0.96801 0.0
C168 C 0.38486 0.86971 1.00172 0.0
C169 C 0.37126 0.85659 0.01506 0.0
C170 C 0.39937 0.87852 0.91485 0.0
C171 C 0.36363 0.84791 0.83611 0.0
C172 C 0.39351 0.87761 0.8519 0.0
C173 C 0.40138 0.86363 0.83528 0.0
C174 C 0.38628 0.84872 0.82732 0.0
N175 N 0.37117 0.87689 0.86027 0.0
C176 C 0.35638 0.86214 0.85272 0.0
Co177 Co 0.15116 0.14277 0.44396 0.0
Co178 Co 0.14689 0.11889 0.39026 0.0
O179 O 0.16006 0.14001 0.41061 0.0
C180 C 0.15757 0.18574 0.42654 0.0
O181 O 0.16145 0.17993 0.40473 0.0
C182 C 0.18872 0.10227 0.36583 0.0
O183 O 0.18308 0.08445 0.37404 0.0
O184 O 0.15761 0.09772 0.4131 0.0
O185 O 0.14912 0.11295 0.44741 0.0
H186 H 0.10268 0.05526 0.37383 0.0
H187 H 0.19516 0.16061 0.42519 0.0
O188 O 0.15296 0.17297 0.44266 0.0
H189 H 0.2192 0.11849 0.49254 0.0
H190 H 0.15438 0.17221 0.52609 0.0
H191 H 0.11558 0.12308 0.47402 0.0
H192 H 0.17786 0.12108 0.48141 0.0
H193 H 0.16656 0.16847 0.4845 0.0
O194 O 0.17732 0.11773 0.37253 0.0
H195 H 0.11899 0.08219 0.39878 0.0
H196 H 0.14741 0.11071 0.33808 0.0
H197 H 0.10303 0.12619 0.51558 0.0
H198 H 0.2366 0.15872 0.43592 0.0
H199 H 0.12248 0.1509 0.54192 0.0
H200 H 0.24894 0.13751 0.46983 0.0
O201 O 0.11773 0.14413 0.4347 0.0
H202 H 0.15637 0.18091 0.34041 0.0
H203 H 0.10192 0.12786 0.36558 0.0
H204 H 0.08827 0.15435 0.3385 0.0
H205 H 0.11562 0.1811 0.32562 0.0
H206 H 0.16914 0.15433 0.36784 0.0
H207 H 0.13144 0.08408 0.3125 0.0
H208 H 0.10888 0.05609 0.33035 0.0
O209 O 0.11599 0.12017 0.40685 0.0
C210 C 0.15445 0.09734 0.4355 0.0
C211 C 0.11249 0.06737 0.36584 0.0
C212 C 0.12862 0.08354 0.33142 0.0
N213 N 0.13419 0.098 0.36995 0.0
C214 C 0.12178 0.08266 0.37988 0.0
C215 C 0.13764 0.09858 0.34601 0.0
C216 C 0.11597 0.06784 0.34145 0.0
C217 C 0.2002 0.1516 0.44016 0.0
N218 N 0.18388 0.14127 0.45287 0.0
C219 C 0.22379 0.15047 0.44607 0.0
C220 C 0.23072 0.13854 0.46506 0.0
C221 C 0.21405 0.12786 0.4778 0.0
C222 C 0.19062 0.12936 0.47137 0.0
C223 C 0.1458 0.16136 0.51479 0.0
C224 C 0.12423 0.13378 0.4854 0.0
C225 C 0.15256 0.15922 0.4912 0.0
N226 N 0.14189 0.14546 0.47686 0.0
C227 C 0.117 0.13551 0.50891 0.0
C228 C 0.1279 0.1494 0.52367 0.0
C229 C 0.10624 0.13226 0.42135 0.0
C230 C 0.14427 0.16935 0.3459 0.0
C231 C 0.11382 0.1396 0.3604 0.0
C232 C 0.10604 0.15449 0.34489 0.0
C233 C 0.1214 0.16947 0.33764 0.0
N234 N 0.13626 0.13959 0.3685 0.0
C235 C 0.15142 0.15422 0.3614 0.0
Co236 Co 0.69689 0.8838 0.90515 0.0
Co237 Co 0.69051 0.86121 0.95947 0.0
O238 O 0.7054 0.86306 0.92827 0.0
C239 C 0.69032 0.85989 0.8611 0.0
O240 O 0.66891 0.86682 0.86001 0.0
C241 C 0.74148 0.85149 0.9677 0.0
O242 O 0.74721 0.85884 0.94701 0.0
O243 O 0.69853 0.88984 0.96599 0.0
O244 O 0.69127 0.90411 0.93077 0.0
H245 H 0.63848 0.88575 0.02485 0.0
H246 H 0.74179 0.86236 0.89832 0.0
O247 O 0.70305 0.86399 0.87897 0.0
H248 H 0.76284 0.93379 0.90696 0.0
H249 H 0.70573 0.9231 0.82938 0.0
H250 H 0.65885 0.91374 0.90164 0.0
H251 H 0.72178 0.92318 0.90855 0.0
H252 H 0.7167 0.89748 0.85884 0.0
O253 O 0.72045 0.85221 0.97486 0.0
H254 H 0.65717 0.88696 0.9856 0.0
H255 H 0.69275 0.83231 0.99995 0.0
H256 H 0.64729 0.93957 0.87265 0.0
H257 H 0.78305 0.87238 0.89604 0.0
H258 H 0.6708 0.94437 0.8362 0.0
H259 H 0.79383 0.90831 0.90053 0.0
O260 O 0.66358 0.87531 0.90694 0.0
H261 H 0.70658 0.79129 0.92973 0.0
H262 H 0.64787 0.836 0.96548 0.0
H263 H 0.63748 0.80092 0.95648 0.0
H264 H 0.667 0.77824 0.93858 0.0
H265 H 0.71609 0.82655 0.93869 0.0
H266 H 0.6746 0.83062 0.03943 0.0
H267 H 0.64716 0.85742 0.05207 0.0
O268 O 0.65974 0.86949 0.94581 0.0
C269 C 0.69514 0.90527 0.95299 0.0
C270 C 0.65035 0.87395 0.01951 0.0
C271 C 0.67065 0.84303 0.02771 0.0
N272 N 0.67591 0.85966 0.9904 0.0
C273 C 0.66094 0.87452 0.99728 0.0
C274 C 0.68093 0.8441 1.00535 0.0
C275 C 0.65525 0.85806 0.03479 0.0
C276 C 0.74628 0.87806 0.90005 0.0
N277 N 0.72932 0.89213 0.90373 0.0
C278 C 0.76971 0.88363 0.89885 0.0
C279 C 0.77575 0.90378 0.90142 0.0
C280 C 0.75838 0.91807 0.90508 0.0
C281 C 0.73514 0.91194 0.90617 0.0
C282 C 0.69534 0.92115 0.84519 0.0
C283 C 0.66919 0.91575 0.88583 0.0
C284 C 0.70146 0.90666 0.86194 0.0
N285 N 0.68842 0.9041 0.88197 0.0
C286 C 0.66255 0.93039 0.86948 0.0
C287 C 0.67574 0.93308 0.84903 0.0
C288 C 0.65108 0.87228 0.92528 0.0
C289 C 0.69359 0.801 0.93762 0.0
C290 C 0.66077 0.82631 0.95757 0.0
C291 C 0.65481 0.80641 0.95258 0.0
C292 C 0.67137 0.79369 0.94256 0.0
N293 N 0.68264 0.83336 0.95283 0.0
C294 C 0.69891 0.82099 0.94285 0.0
Co295 Co 0.808 0.12873 0.4138 0.0
Co296 Co 0.8171 0.15004 0.46838 0.0
O297 O 0.80094 0.14925 0.43775 0.0
C298 C 0.81351 0.15285 0.36992 0.0
O299 O 0.83486 0.14587 0.36829 0.0
C300 C 0.76697 0.1613 0.47943 0.0
O301 O 0.75973 0.15469 0.45887 0.0
O302 O 0.8081 0.12154 0.47451 0.0
O303 O 0.81413 0.10797 0.43869 0.0
H304 H 0.87053 0.12259 0.53095 0.0
H305 H 0.7635 0.15119 0.40961 0.0
O306 O 0.80132 0.14895 0.38823 0.0
H307 H 0.74078 0.08008 0.41737 0.0
H308 H 0.79496 0.09059 0.3378 0.0
H309 H 0.84514 0.09819 0.40803 0.0
H310 H 0.78217 0.0898 0.4173 0.0
H311 H 0.78585 0.11596 0.3682 0.0
O312 O 0.78832 0.1597 0.48529 0.0
H313 H 0.8502 0.12268 0.49252 0.0
H314 H 0.81795 0.17832 0.50954 0.0
H315 H 0.85484 0.07259 0.37807 0.0
H316 H 0.7219 0.14209 0.40907 0.0
H317 H 0.82967 0.06867 0.34263 0.0
H318 H 0.71028 0.10631 0.41309 0.0
O319 O 0.84163 0.13651 0.41441 0.0
H320 H 0.80289 0.22093 0.44108 0.0
H321 H 0.86105 0.17376 0.47313 0.0
H322 H 0.87258 0.20863 0.4645 0.0
H323 H 0.84335 0.23255 0.44846 0.0
H324 H 0.79223 0.18585 0.44963 0.0
H325 H 0.83777 0.17871 0.54822 0.0
H326 H 0.86436 0.15075 0.55911 0.0
O327 O 0.84684 0.141 0.45332 0.0
C328 C 0.8108 0.10636 0.46094 0.0
C329 C 0.85903 0.13488 0.52638 0.0
C330 C 0.84061 0.16636 0.53609 0.0
N331 N 0.833 0.15053 0.4987 0.0
C332 C 0.8475 0.13505 0.50462 0.0
C333 C 0.82938 0.16602 0.51418 0.0
C334 C 0.85554 0.15068 0.54218 0.0
C335 C 0.75863 0.13557 0.41117 0.0
N336 N 0.77532 0.12107 0.41362 0.0
C337 C 0.73502 0.13051 0.41094 0.0
C338 C 0.72851 0.11045 0.41324 0.0
C339 C 0.74561 0.09573 0.41568 0.0
C340 C 0.76905 0.10135 0.41583 0.0
C341 C 0.80607 0.09215 0.35316 0.0
C342 C 0.83409 0.09658 0.39267 0.0
C343 C 0.80101 0.10651 0.37044 0.0
N344 N 0.81498 0.1086 0.38989 0.0
C345 C 0.83967 0.08205 0.37576 0.0
C346 C 0.82554 0.07986 0.35588 0.0
C347 C 0.85479 0.13857 0.43245 0.0
C348 C 0.81577 0.21068 0.44815 0.0
C349 C 0.84827 0.18399 0.46602 0.0
C350 C 0.85488 0.20377 0.46124 0.0
C351 C 0.83847 0.21718 0.45226 0.0
N352 N 0.82592 0.17773 0.4621 0.0
C353 C 0.80979 0.19078 0.45314 0.0
Co354 Co 0.69554 0.12107 0.10986 0.0
Co355 Co 0.69254 0.14701 0.05756 0.0
O356 O 0.70598 0.14282 0.08908 0.0
C357 C 0.70733 0.15596 0.14252 0.0
O358 O 0.71229 0.16774 0.12464 0.0
C359 C 0.73485 0.15268 0.02771 0.0
O360 O 0.72773 0.13776 0.01432 0.0
O361 O 0.70087 0.11883 0.04863 0.0
O362 O 0.69102 0.10283 0.08206 0.0
H363 H 0.64529 0.12772 0.98627 0.0
H364 H 0.74219 0.14065 0.1157 0.0
O365 O 0.69991 0.13813 0.13907 0.0
H366 H 0.7583 0.06813 0.11016 0.0
H367 H 0.69631 0.07807 0.18326 0.0
H368 H 0.65704 0.09148 0.10729 0.0
H369 H 0.71806 0.08074 0.1079 0.0
H370 H 0.71048 0.10488 0.15684 0.0
O371 O 0.7237 0.15711 0.04653 0.0
H372 H 0.66192 0.12315 0.02613 0.0
H373 H 0.69549 0.17987 0.02146 0.0
H374 H 0.64245 0.06439 0.13308 0.0
H375 H 0.78257 0.12869 0.11844 0.0
H376 H 0.66213 0.05754 0.17137 0.0
H377 H 0.79094 0.09216 0.11565 0.0
O378 O 0.66279 0.13075 0.10705 0.0
H379 H 0.70814 0.21533 0.09212 0.0
H380 H 0.64938 0.17209 0.05415 0.0
H381 H 0.63863 0.20643 0.06618 0.0
H382 H 0.66816 0.22837 0.08524 0.0
H383 H 0.718 0.18075 0.08019 0.0
H384 H 0.67926 0.18504 0.98154 0.0
H385 H 0.65394 0.15885 0.96369 0.0
O386 O 0.66101 0.13763 0.06825 0.0
C387 C 0.69632 0.10278 0.06013 0.0
C388 C 0.6563 0.13924 0.99386 0.0
C389 C 0.67536 0.17141 0.9912 0.0
N390 N 0.67967 0.15121 0.02613 0.0
C391 C 0.66577 0.13674 0.01642 0.0
C392 C 0.68451 0.16839 0.01382 0.0
C393 C 0.66116 0.15671 0.9812 0.0
C394 C 0.74546 0.12475 0.1149 0.0
N395 N 0.72752 0.11144 0.11223 0.0
C396 C 0.76848 0.11805 0.11627 0.0
C397 C 0.77318 0.09756 0.11465 0.0
C398 C 0.75488 0.08408 0.11158 0.0
C399 C 0.73208 0.09133 0.11029 0.0
C400 C 0.6876 0.08089 0.1666 0.0
C401 C 0.66579 0.08852 0.12386 0.0
C402 C 0.6955 0.0961 0.1516 0.0
N403 N 0.68468 0.09968 0.13045 0.0
C404 C 0.65741 0.07319 0.13842 0.0
C405 C 0.66844 0.06937 0.15992 0.0
C406 C 0.65127 0.13433 0.08819 0.0
C407 C 0.6951 0.20591 0.08387 0.0
C408 C 0.66222 0.18138 0.06277 0.0
C409 C 0.65608 0.2009 0.06938 0.0
C410 C 0.67266 0.21321 0.08003 0.0
N411 N 0.68424 0.17428 0.06667 0.0
C412 C 0.70059 0.18631 0.07703 0.0
Co413 Co 0.80943 0.88376 0.60403 0.0
Co414 Co 0.8159 0.86074 0.55 0.0
O415 O 0.80036 0.86284 0.58108 0.0
C416 C 0.79608 0.84759 0.6343 0.0
O417 O 0.791 0.83649 0.61584 0.0
C418 C 0.76525 0.85018 0.54018 0.0
O419 O 0.75831 0.85784 0.56036 0.0
O420 O 0.80731 0.88914 0.5428 0.0
O421 O 0.81541 0.90332 0.5778 0.0
H422 H 0.86816 0.88527 0.48481 0.0
H423 H 0.76252 0.86402 0.60795 0.0
O424 O 0.8038 0.86542 0.63181 0.0
H425 H 0.74654 0.93656 0.60313 0.0
H426 H 0.80376 0.92345 0.67978 0.0
H427 H 0.84776 0.91359 0.60577 0.0
H428 H 0.78684 0.92401 0.60208 0.0
H429 H 0.79151 0.89778 0.65091 0.0
O430 O 0.7866 0.85102 0.53417 0.0
H431 H 0.84873 0.88683 0.52367 0.0
H432 H 0.81548 0.83094 0.51035 0.0
H433 H 0.86047 0.93955 0.63407 0.0
H434 H 0.72209 0.8759 0.60959 0.0
H435 H 0.83841 0.94462 0.67139 0.0
H436 H 0.71377 0.91245 0.60707 0.0
O437 O 0.84238 0.87442 0.60276 0.0
H438 H 0.80047 0.79061 0.57925 0.0
H439 H 0.85951 0.83636 0.54616 0.0
H440 H 0.8705 0.80159 0.55601 0.0
H441 H 0.84084 0.77838 0.57261 0.0
H442 H 0.79037 0.82559 0.56946 0.0
H443 H 0.83439 0.82889 0.47128 0.0
H444 H 0.86103 0.85615 0.45831 0.0
O445 O 0.8463 0.86979 0.56378 0.0
C446 C 0.8111 0.90455 0.5557 0.0
C447 C 0.85663 0.87328 0.49029 0.0
C448 C 0.83766 0.84165 0.48267 0.0
N449 N 0.83107 0.85895 0.51936 0.0
C450 C 0.84561 0.87406 0.51229 0.0
C451 C 0.82694 0.84293 0.5048 0.0
C452 C 0.85261 0.85694 0.47542 0.0
C453 C 0.75929 0.87991 0.60728 0.0
N454 N 0.77729 0.89322 0.60523 0.0
C455 C 0.73622 0.88658 0.60802 0.0
C456 C 0.73156 0.90707 0.60655 0.0
C457 C 0.74993 0.92059 0.60431 0.0
C458 C 0.77276 0.91336 0.60363 0.0
C459 C 0.8135 0.9214 0.66357 0.0
C460 C 0.83799 0.91576 0.62191 0.0
C461 C 0.80669 0.90684 0.64717 0.0
N462 N 0.81883 0.90424 0.62658 0.0
C463 C 0.8453 0.93046 0.63789 0.0
C464 C 0.83293 0.93328 0.65884 0.0
C465 C 0.85495 0.87201 0.58438 0.0
C466 C 0.81356 0.80056 0.57201 0.0
C467 C 0.84657 0.82648 0.5536 0.0
C468 C 0.85286 0.80674 0.55903 0.0
C469 C 0.83621 0.79372 0.56831 0.0
N470 N 0.82431 0.83311 0.55727 0.0
C471 C 0.80791 0.8204 0.56636 0.0
Co472 Co 0.85545 0.63965 0.06954 0.0
Co473 Co 0.86266 0.61532 0.1217 0.0
O474 O 0.84791 0.63646 0.10297 0.0
C475 C 0.86278 0.68379 0.06618 0.0
O476 O 0.88412 0.68009 0.05901 0.0
C477 C 0.82235 0.59903 0.14906 0.0
O478 O 0.82706 0.58115 0.14046 0.0
O479 O 0.84992 0.59477 0.09924 0.0
O480 O 0.86054 0.60997 0.06555 0.0
H481 H 0.90763 0.55128 0.13333 0.0
H482 H 0.81113 0.65607 0.08826 0.0
O483 O 0.84965 0.66935 0.07271 0.0
H484 H 0.78819 0.60945 0.02459 0.0
H485 H 0.84528 0.66808 0.9875 0.0
H486 H 0.89262 0.62381 0.03833 0.0
H487 H 0.82963 0.61473 0.03416 0.0
H488 H 0.83515 0.66333 0.02951 0.0
O489 O 0.83376 0.61429 0.14185 0.0
H490 H 0.88965 0.57863 0.11027 0.0
H491 H 0.86595 0.60636 0.17354 0.0
H492 H 0.90331 0.62806 0.99638 0.0
H493 H 0.76948 0.6514 0.07907 0.0
H494 H 0.87956 0.65034 0.97065 0.0
H495 H 0.75778 0.62793 0.04705 0.0
O496 O 0.88889 0.6431 0.0783 0.0
H497 H 0.85854 0.67778 0.17155 0.0
H498 H 0.90948 0.62323 0.14304 0.0
H499 H 0.92568 0.64941 0.16911 0.0
H500 H 0.90012 0.67689 0.18365 0.0
H501 H 0.8431 0.65143 0.14519 0.0
H502 H 0.88363 0.57928 0.19728 0.0
H503 H 0.90467 0.55148 0.17717 0.0
O504 O 0.89218 0.61668 0.10258 0.0
C505 C 0.85397 0.5944 0.07698 0.0
C506 C 0.8985 0.5633 0.1423 0.0
C507 C 0.88503 0.57901 0.17819 0.0
N508 N 0.87672 0.59407 0.14051 0.0
C509 C 0.88827 0.57883 0.12933 0.0
C510 C 0.87504 0.5943 0.16464 0.0
C511 C 0.89683 0.56342 0.16689 0.0
C512 C 0.80619 0.64594 0.07419 0.0
N513 N 0.82282 0.63581 0.06166 0.0
C514 C 0.78257 0.64331 0.06911 0.0
C515 C 0.77602 0.63012 0.05116 0.0
C516 C 0.79307 0.61974 0.03856 0.0
C517 C 0.81651 0.62276 0.04411 0.0
C518 C 0.85576 0.65832 0.99852 0.0
C519 C 0.88218 0.63351 0.02725 0.0
C520 C 0.85012 0.65559 0.02233 0.0
N521 N 0.86327 0.64328 0.03637 0.0
C522 C 0.88832 0.63586 1.0035 0.0
C523 C 0.87499 0.64837 0.98908 0.0
C524 C 0.90121 0.63044 0.08977 0.0
C525 C 0.86983 0.66584 0.1654 0.0
C526 C 0.89824 0.63518 0.14919 0.0
C527 C 0.90752 0.64994 0.164 0.0
C528 C 0.89317 0.66535 0.17216 0.0
N529 N 0.87528 0.63569 0.14274 0.0
C530 C 0.86116 0.65083 0.15054 0.0
Co531 Co 0.65009 0.37131 0.57502 0.0
Co532 Co 0.64579 0.39625 0.62781 0.0
O533 O 0.65991 0.37491 0.60822 0.0
C534 C 0.66025 0.32883 0.59249 0.0
O535 O 0.66261 0.33469 0.61451 0.0
C536 C 0.6959 0.39291 0.64544 0.0
O537 O 0.70145 0.37984 0.629 0.0
O538 O 0.65585 0.41677 0.60412 0.0
O539 O 0.64438 0.40083 0.57134 0.0
H540 H 0.59715 0.45813 0.64041 0.0
H541 H 0.69619 0.3554 0.59029 0.0
O542 O 0.65528 0.34143 0.5763 0.0
H543 H 0.71326 0.40212 0.52495 0.0
H544 H 0.65403 0.34223 0.49278 0.0
H545 H 0.61098 0.38738 0.54639 0.0
H546 H 0.67281 0.39633 0.53777 0.0
H547 H 0.66717 0.34719 0.53388 0.0
O548 O 0.67559 0.40066 0.64602 0.0
H549 H 0.61475 0.43067 0.61718 0.0
H550 H 0.64755 0.40782 0.67895 0.0
H551 H 0.59736 0.38297 0.50537 0.0
H552 H 0.73684 0.36055 0.57784 0.0
H553 H 0.61895 0.36026 0.47823 0.0
H554 H 0.74564 0.3841 0.54496 0.0
O555 O 0.61746 0.36734 0.58571 0.0
H556 H 0.6562 0.33515 0.67947 0.0
H557 H 0.60179 0.38825 0.65429 0.0
H558 H 0.58869 0.36273 0.68282 0.0
H559 H 0.61603 0.33595 0.69574 0.0
H560 H 0.66839 0.36073 0.6507 0.0
H561 H 0.63051 0.43515 0.70277 0.0
H562 H 0.60501 0.46049 0.68353 0.0
O563 O 0.61493 0.3929 0.61133 0.0
C564 C 0.65089 0.41668 0.58212 0.0
C565 C 0.60819 0.44714 0.64901 0.0
C566 C 0.62694 0.43427 0.684 0.0
N567 N 0.63206 0.41758 0.64669 0.0
C568 C 0.61816 0.43154 0.63596 0.0
C569 C 0.63661 0.41886 0.67039 0.0
C570 C 0.61262 0.44848 0.6732 0.0
C571 C 0.69978 0.3655 0.57584 0.0
N572 N 0.68205 0.37541 0.56472 0.0
C573 C 0.72289 0.36844 0.56891 0.0
C574 C 0.72781 0.38167 0.55049 0.0
C575 C 0.70966 0.3918 0.53928 0.0
C576 C 0.68678 0.38848 0.54668 0.0
C577 C 0.6445 0.35219 0.50441 0.0
C578 C 0.62055 0.37755 0.53468 0.0
C579 C 0.65183 0.35503 0.52774 0.0
N580 N 0.63995 0.36768 0.54252 0.0
C581 C 0.61272 0.37508 0.51147 0.0
C582 C 0.62482 0.36232 0.49626 0.0
C583 C 0.60554 0.37941 0.59838 0.0
C584 C 0.64415 0.34678 0.67406 0.0
C585 C 0.61376 0.3766 0.65961 0.0
C586 C 0.60626 0.36221 0.67589 0.0
C587 C 0.6216 0.34721 0.68315 0.0
N588 N 0.63595 0.37616 0.6508 0.0
C589 C 0.65102 0.36143 0.65781 0.0
Co590 Co 0.85767 0.36699 0.9456 0.0
Co591 Co 0.86141 0.39081 0.8925 0.0
O592 O 0.84783 0.36977 0.91257 0.0
C593 C 0.84755 0.32443 0.92874 0.0
O594 O 0.84321 0.33053 0.90713 0.0
C595 C 0.81987 0.40693 0.86717 0.0
O596 O 0.82502 0.42478 0.87559 0.0
O597 O 0.84963 0.41157 0.91517 0.0
O598 O 0.86199 0.39685 0.94851 0.0
H599 H 0.90513 0.45491 0.87733 0.0
H600 H 0.81166 0.35112 0.92947 0.0
O601 O 0.85365 0.33688 0.94474 0.0
H602 H 0.79388 0.39616 0.99623 0.0
H603 H 0.85555 0.33865 0.02825 0.0
H604 H 0.89587 0.38494 0.97385 0.0
H605 H 0.83441 0.39111 0.98325 0.0
H606 H 0.84206 0.34262 0.9871 0.0
O607 O 0.83147 0.39161 0.87393 0.0
H608 H 0.88853 0.42782 0.90182 0.0
H609 H 0.86208 0.39902 0.84037 0.0
H610 H 0.90979 0.38158 0.01493 0.0
H611 H 0.77098 0.35552 0.94207 0.0
H612 H 0.88958 0.35829 0.04244 0.0
H613 H 0.76181 0.3782 0.9757 0.0
O614 O 0.89041 0.36374 0.93477 0.0
H615 H 0.85464 0.32865 0.84239 0.0
H616 H 0.90735 0.38243 0.86941 0.0
H617 H 0.92228 0.35612 0.84276 0.0
H618 H 0.89584 0.329 0.82898 0.0
H619 H 0.84049 0.35511 0.86932 0.0
H620 H 0.87836 0.42582 0.81523 0.0
H621 H 0.90007 0.45403 0.8337 0.0
O622 O 0.89198 0.38988 0.90997 0.0
C623 C 0.8546 0.4122 0.9372 0.0
C624 C 0.89569 0.44271 0.86907 0.0
C625 C 0.88067 0.42638 0.83422 0.0
N626 N 0.87431 0.41186 0.87258 0.0
C627 C 0.88624 0.42733 0.88285 0.0
C628 C 0.87148 0.41125 0.84856 0.0
C629 C 0.89285 0.4422 0.8446 0.0
C630 C 0.80798 0.36072 0.94434 0.0
N631 N 0.82558 0.37043 0.95591 0.0
C632 C 0.78482 0.36329 0.95131 0.0
C633 C 0.77968 0.37605 0.97014 0.0
C634 C 0.79766 0.38612 0.98167 0.0
C635 C 0.8206 0.38318 0.97422 0.0
C636 C 0.86448 0.34887 0.01644 0.0
C637 C 0.8869 0.37487 0.98575 0.0
C638 C 0.85696 0.35114 0.99309 0.0
N639 N 0.86807 0.36412 0.97811 0.0
C640 C 0.8949 0.37299 0.00897 0.0
C641 C 0.88357 0.3599 0.02439 0.0
C642 C 0.9019 0.37633 0.92242 0.0
C643 C 0.86634 0.34038 0.84828 0.0
C644 C 0.89576 0.37058 0.86373 0.0
C645 C 0.90431 0.35577 0.84852 0.0
C646 C 0.88946 0.34058 0.84078 0.0
N647 N 0.87305 0.37028 0.87106 0.0
C648 C 0.85841 0.35543 0.8635 0.0
Co649 Co 0.6516 0.63839 0.44084 0.0
Co650 Co 0.6483 0.614 0.38762 0.0
O651 O 0.66217 0.63507 0.40782 0.0
C652 C 0.6634 0.6811 0.42482 0.0
O653 O 0.6682 0.67558 0.40308 0.0
C654 C 0.69873 0.61721 0.37068 0.0
O655 O 0.70415 0.63049 0.38694 0.0
O656 O 0.65773 0.59317 0.41124 0.0
O657 O 0.64566 0.60886 0.44396 0.0
H658 H 0.59954 0.55254 0.37314 0.0
H659 H 0.69838 0.65375 0.42666 0.0
O660 O 0.65683 0.66827 0.44014 0.0
H661 H 0.71318 0.60676 0.49228 0.0
H662 H 0.6537 0.66668 0.52353 0.0
H663 H 0.61177 0.62219 0.4683 0.0
H664 H 0.67314 0.61306 0.47849 0.0
H665 H 0.66778 0.66206 0.48269 0.0
O666 O 0.67841 0.60951 0.37 0.0
H667 H 0.61681 0.57966 0.39711 0.0
H668 H 0.65105 0.60291 0.33637 0.0
H669 H 0.59722 0.62625 0.50905 0.0
H670 H 0.73861 0.6481 0.44007 0.0
H671 H 0.61824 0.64863 0.53699 0.0
H672 H 0.74628 0.62442 0.47311 0.0
O673 O 0.61924 0.64265 0.42944 0.0
H674 H 0.65998 0.67588 0.33757 0.0
H675 H 0.60501 0.6224 0.3601 0.0
H676 H 0.59264 0.64834 0.33174 0.0
H677 H 0.62027 0.67531 0.32016 0.0
H678 H 0.67144 0.64986 0.3661 0.0
H679 H 0.63434 0.57591 0.31183 0.0
H680 H 0.60828 0.55053 0.33017 0.0
O681 O 0.61712 0.61737 0.40345 0.0
C682 C 0.6523 0.59309 0.43312 0.0
C683 C 0.61082 0.56354 0.36493 0.0
C684 C 0.63038 0.57664 0.33052 0.0
N685 N 0.63482 0.59294 0.36817 0.0
C686 C 0.62061 0.57896 0.3784 0.0
C687 C 0.63985 0.59186 0.34455 0.0
C688 C 0.61575 0.56241 0.34082 0.0
C689 C 0.70144 0.64363 0.44119 0.0
N690 N 0.68329 0.63397 0.45188 0.0
C691 C 0.72433 0.6404 0.44865 0.0
C692 C 0.72863 0.62708 0.46716 0.0
C693 C 0.71007 0.61717 0.47791 0.0
C694 C 0.68741 0.62078 0.46997 0.0
C695 C 0.64442 0.65685 0.51154 0.0
C696 C 0.6211 0.63187 0.48037 0.0
C697 C 0.65227 0.65421 0.48836 0.0
N698 N 0.64071 0.64174 0.47314 0.0
C699 C 0.61274 0.63414 0.50342 0.0
C700 C 0.62453 0.64672 0.51908 0.0
C701 C 0.60753 0.6308 0.41632 0.0
C702 C 0.64781 0.66415 0.34238 0.0
C703 C 0.61711 0.63411 0.35533 0.0
C704 C 0.61002 0.64875 0.33916 0.0
C705 C 0.62552 0.66385 0.33265 0.0
N706 N 0.63907 0.63439 0.36474 0.0
C707 C 0.65428 0.64925 0.35849 0.0
Co708 Co 0.19909 0.38507 0.90354 0.0
Co709 Co 0.19356 0.36081 0.95647 0.0
O710 O 0.20797 0.36335 0.92511 0.0
C711 C 0.21041 0.34943 0.87169 0.0
O712 O 0.2156 0.33781 0.88967 0.0
C713 C 0.23463 0.35313 0.98735 0.0
O714 O 0.22853 0.36889 0.99989 0.0
O715 O 0.20433 0.38849 0.96459 0.0
O716 O 0.19482 0.40405 0.93079 0.0
H717 H 0.14716 0.38502 0.02628 0.0
H718 H 0.24509 0.36388 0.89993 0.0
O719 O 0.20322 0.36736 0.87491 0.0
H720 H 0.26403 0.43597 0.90291 0.0
H721 H 0.20327 0.42655 0.82904 0.0
H722 H 0.16193 0.416 0.90449 0.0
H723 H 0.22326 0.4247 0.9045 0.0
H724 H 0.21567 0.39979 0.85645 0.0
O725 O 0.22347 0.34878 0.9685 0.0
H726 H 0.16482 0.38752 0.98664 0.0
H727 H 0.19271 0.32867 0.99353 0.0
H728 H 0.14913 0.44308 0.87771 0.0
H729 H 0.28598 0.37448 0.89787 0.0
H730 H 0.16985 0.44849 0.83967 0.0
H731 H 0.29579 0.41079 0.89938 0.0
O732 O 0.16595 0.37639 0.90576 0.0
H733 H 0.20283 0.29096 0.92391 0.0
H734 H 0.14793 0.33926 0.95952 0.0
H735 H 0.13402 0.30561 0.94816 0.0
H736 H 0.16157 0.28114 0.93029 0.0
H737 H 0.21595 0.32488 0.93524 0.0
H738 H 0.17536 0.32556 0.03326 0.0
H739 H 0.15238 0.35387 0.04988 0.0
O740 O 0.16321 0.37222 0.94495 0.0
C741 C 0.20045 0.40443 0.95264 0.0
C742 C 0.15713 0.37258 0.01923 0.0
C743 C 0.17296 0.33921 0.02314 0.0
N744 N 0.17979 0.35827 0.98775 0.0
C745 C 0.16718 0.37391 0.99679 0.0
C746 C 0.18274 0.34107 1.00063 0.0
C747 C 0.16007 0.3551 0.03246 0.0
C748 C 0.24897 0.37968 0.90013 0.0
N749 N 0.23153 0.3936 0.90169 0.0
C750 C 0.27229 0.38562 0.89916 0.0
C751 C 0.27779 0.40598 0.90007 0.0
C752 C 0.25999 0.4201 0.90205 0.0
C753 C 0.23688 0.4136 0.90295 0.0
C754 C 0.19412 0.42436 0.84558 0.0
C755 C 0.17113 0.41833 0.88804 0.0
C756 C 0.201 0.40918 0.86114 0.0
N757 N 0.18963 0.4064 0.88215 0.0
C758 C 0.16376 0.43366 0.87291 0.0
C759 C 0.17538 0.43667 0.85156 0.0
C760 C 0.15392 0.37442 0.92459 0.0
C761 C 0.19066 0.30148 0.93168 0.0
C762 C 0.16 0.3288 0.95153 0.0
C763 C 0.15203 0.30971 0.94525 0.0
C764 C 0.1675 0.29599 0.93525 0.0
N765 N 0.18275 0.3341 0.94798 0.0
C766 C 0.198 0.3207 0.93819 0.0
Co767 Co 0.30974 0.62698 0.40614 0.0
Co768 Co 0.31835 0.64908 0.46038 0.0
O769 O 0.30213 0.64755 0.42983 0.0
C770 C 0.31474 0.65121 0.36222 0.0
O771 O 0.33619 0.64447 0.36052 0.0
C772 C 0.26777 0.6582 0.47148 0.0
O773 O 0.26084 0.65026 0.45147 0.0
O774 O 0.31039 0.62045 0.46694 0.0
O775 O 0.31644 0.60654 0.4313 0.0
H776 H 0.37289 0.62382 0.52323 0.0
H777 H 0.26457 0.6484 0.40151 0.0
O778 O 0.30252 0.64692 0.38039 0.0
H779 H 0.24403 0.57688 0.41033 0.0
H780 H 0.29791 0.58822 0.33039 0.0
H781 H 0.34763 0.5971 0.40075 0.0
H782 H 0.28511 0.58754 0.41027 0.0
H783 H 0.28809 0.6136 0.36057 0.0
O784 O 0.28924 0.6581 0.47714 0.0
H785 H 0.3525 0.62293 0.48484 0.0
H786 H 0.31816 0.67778 0.50113 0.0
H787 H 0.35806 0.57151 0.37102 0.0
H788 H 0.22327 0.63833 0.40093 0.0
H789 H 0.33311 0.56695 0.33552 0.0
H790 H 0.21275 0.60235 0.4055 0.0
O791 O 0.34307 0.63548 0.40661 0.0
H792 H 0.30121 0.71927 0.43239 0.0
H793 H 0.36142 0.67407 0.46452 0.0
H794 H 0.37153 0.70918 0.45535 0.0
H795 H 0.34126 0.7321 0.43927 0.0
H796 H 0.29197 0.68397 0.44149 0.0
H797 H 0.33801 0.67914 0.53976 0.0
H798 H 0.36569 0.65207 0.55099 0.0
O799 O 0.34843 0.64073 0.44537 0.0
C800 C 0.31331 0.60515 0.45361 0.0
C801 C 0.36092 0.63573 0.51851 0.0
C802 C 0.34132 0.66676 0.5278 0.0
N803 N 0.33427 0.65034 0.49065 0.0
C804 C 0.34936 0.63534 0.49677 0.0
C805 C 0.33007 0.66587 0.50592 0.0
C806 C 0.35685 0.65158 0.53409 0.0
C807 C 0.26018 0.63269 0.40326 0.0
N808 N 0.2773 0.61861 0.40603 0.0
C809 C 0.23674 0.62709 0.40303 0.0
C810 C 0.23084 0.6069 0.40564 0.0
C811 C 0.24838 0.59262 0.4084 0.0
C812 C 0.27163 0.59877 0.40853 0.0
C813 C 0.30891 0.59006 0.34578 0.0
C814 C 0.33667 0.5952 0.38537 0.0
C815 C 0.30345 0.60442 0.36293 0.0
N816 N 0.31728 0.60684 0.38242 0.0
C817 C 0.34267 0.58068 0.36859 0.0
C818 C 0.32867 0.57813 0.34867 0.0
C819 C 0.35628 0.63818 0.42448 0.0
C820 C 0.31454 0.70945 0.43946 0.0
C821 C 0.34821 0.68387 0.45737 0.0
C822 C 0.35401 0.70378 0.45229 0.0
C823 C 0.33702 0.71663 0.44329 0.0
N824 N 0.32609 0.67694 0.45369 0.0
C825 C 0.30938 0.68944 0.44474 0.0
Co826 Co 0.19746 0.62374 0.10571 0.0
Co827 Co 0.19227 0.64589 0.05133 0.0
O828 O 0.20656 0.64478 0.08305 0.0
C829 C 0.20863 0.66041 0.13596 0.0
O830 O 0.21363 0.67151 0.11747 0.0
C831 C 0.24224 0.65995 0.04459 0.0
O832 O 0.248 0.65421 0.06599 0.0
O833 O 0.20331 0.61806 0.04502 0.0
O834 O 0.19295 0.60381 0.07932 0.0
H835 H 0.14509 0.61805 0.98399 0.0
H836 H 0.2436 0.64443 0.1114 0.0
O837 O 0.2017 0.64234 0.13353 0.0
H838 H 0.26178 0.57223 0.10739 0.0
H839 H 0.20152 0.58451 0.18188 0.0
H840 H 0.15988 0.59321 0.10626 0.0
H841 H 0.2212 0.58393 0.1049 0.0
H842 H 0.21409 0.6103 0.1533 0.0
O843 O 0.22167 0.65706 0.0368 0.0
H844 H 0.16267 0.61785 0.02378 0.0
H845 H 0.19251 0.67529 0.01134 0.0
H846 H 0.14689 0.5671 0.13424 0.0
H847 H 0.28428 0.63341 0.11442 0.0
H848 H 0.16776 0.56263 0.17237 0.0
H849 H 0.29372 0.59703 0.11233 0.0
O850 O 0.16445 0.63266 0.10317 0.0
H851 H 0.20014 0.71716 0.08012 0.0
H852 H 0.14683 0.66711 0.0455 0.0
H853 H 0.13236 0.70117 0.05418 0.0
H854 H 0.15911 0.72652 0.07154 0.0
H855 H 0.2138 0.6829 0.07144 0.0
H856 H 0.1754 0.67602 0.97135 0.0
H857 H 0.15141 0.64729 0.95747 0.0
O858 O 0.16195 0.63514 0.06382 0.0
C859 C 0.19906 0.60259 0.05764 0.0
C860 C 0.15546 0.63068 0.98986 0.0
C861 C 0.17249 0.66321 0.98276 0.0
N862 N 0.17848 0.64659 0.01997 0.0
C863 C 0.16542 0.63068 0.0124 0.0
C864 C 0.18218 0.66268 1.00541 0.0
C865 C 0.15902 0.64709 0.97498 0.0
C866 C 0.24731 0.62861 0.11079 0.0
N867 N 0.22978 0.61492 0.10813 0.0
C868 C 0.27052 0.62243 0.11236 0.0
C869 C 0.27581 0.60204 0.11115 0.0
C870 C 0.25791 0.58813 0.10835 0.0
C871 C 0.23492 0.59488 0.10684 0.0
C872 C 0.1923 0.5863 0.16531 0.0
C873 C 0.16914 0.59129 0.12275 0.0
C874 C 0.19929 0.60092 0.14908 0.0
N875 N 0.18782 0.60319 0.12804 0.0
C876 C 0.16166 0.57651 0.13856 0.0
C877 C 0.17337 0.57402 0.15995 0.0
C878 C 0.15253 0.63395 0.08421 0.0
C879 C 0.18833 0.70628 0.07247 0.0
C880 C 0.1586 0.678 0.05315 0.0
C881 C 0.15029 0.69729 0.05797 0.0
C882 C 0.16531 0.71151 0.06769 0.0
N883 N 0.18125 0.67297 0.0578 0.0
C884 C 0.19602 0.68683 0.06741 0.0
Co885 Co 0.30712 0.3826 0.59927 0.0
Co886 Co 0.31818 0.36059 0.54546 0.0
O887 O 0.30112 0.36174 0.57553 0.0
C888 C 0.31256 0.35874 0.64335 0.0
O889 O 0.33373 0.36606 0.64514 0.0
C890 C 0.26817 0.35381 0.53175 0.0
O891 O 0.26118 0.3662 0.54835 0.0
O892 O 0.3094 0.38898 0.5384 0.0
O893 O 0.31335 0.40317 0.57419 0.0
H894 H 0.3732 0.38681 0.48363 0.0
H895 H 0.26316 0.35933 0.60226 0.0
O896 O 0.30034 0.36254 0.62502 0.0
H897 H 0.2388 0.42996 0.59318 0.0
H898 H 0.29143 0.42115 0.67444 0.0
H899 H 0.3433 0.41389 0.60543 0.0
H900 H 0.28043 0.42103 0.5946 0.0
H901 H 0.28368 0.39532 0.64419 0.0
O902 O 0.28978 0.35062 0.52847 0.0
H903 H 0.35192 0.38744 0.52153 0.0
H904 H 0.31993 0.33162 0.50505 0.0
H905 H 0.35164 0.43997 0.63524 0.0
H906 H 0.22131 0.36765 0.60142 0.0
H907 H 0.32561 0.44372 0.67006 0.0
H908 H 0.20889 0.40318 0.59673 0.0
O909 O 0.34089 0.37537 0.59963 0.0
H910 H 0.30244 0.29007 0.57281 0.0
H911 H 0.36232 0.33674 0.54317 0.0
H912 H 0.3733 0.30193 0.55295 0.0
H913 H 0.34321 0.27827 0.56781 0.0
H914 H 0.29232 0.32512 0.56309 0.0
H915 H 0.3407 0.33048 0.4669 0.0
H916 H 0.36764 0.35817 0.45602 0.0
O917 O 0.34753 0.36985 0.5611 0.0
C918 C 0.31116 0.4044 0.55175 0.0
C919 C 0.36155 0.37462 0.4882 0.0
C920 C 0.34329 0.34303 0.4788 0.0
N921 N 0.33481 0.35954 0.51558 0.0
C922 C 0.3495 0.37488 0.50966 0.0
C923 C 0.33152 0.34379 0.5004 0.0
C924 C 0.35841 0.35856 0.47271 0.0
C925 C 0.25791 0.37486 0.6005 0.0
N926 N 0.27427 0.38966 0.59849 0.0
C927 C 0.23418 0.37946 0.59991 0.0
C928 C 0.22722 0.39939 0.59723 0.0
C929 C 0.24399 0.41442 0.59519 0.0
C930 C 0.26756 0.40925 0.59586 0.0
C931 C 0.3029 0.41967 0.65935 0.0
C932 C 0.33187 0.41544 0.62052 0.0
C933 C 0.29861 0.40506 0.64216 0.0
N934 N 0.31303 0.40309 0.62304 0.0
C935 C 0.33669 0.43023 0.63734 0.0
C936 C 0.32208 0.43233 0.65688 0.0
C937 C 0.35468 0.37284 0.58217 0.0
C938 C 0.31571 0.30022 0.56634 0.0
C939 C 0.34919 0.32663 0.54983 0.0
C940 C 0.35548 0.30689 0.55524 0.0
C941 C 0.33859 0.29362 0.56355 0.0
N942 N 0.32671 0.333 0.55257 0.0
C943 C 0.31007 0.32008 0.56075 0.0
C944 C 0.32052 0.21282 0.09567 0.0
C945 C 0.33864 0.20226 0.08452 0.0
C946 C 0.31257 0.23113 0.08637 0.0
C947 C 0.31277 0.25948 0.02942 0.0
H948 H 0.28273 0.30059 0.06717 0.0
C949 C 0.25293 0.31891 0.98717 0.0
C950 C 0.25115 0.33814 0.99734 0.0
C951 C 0.26609 0.30384 0.99804 0.0
C952 C 0.29137 0.28945 0.05631 0.0
H953 H 0.36372 0.20322 0.05592 0.0
H954 H 0.35087 0.23549 0.04052 0.0
H955 H 0.30197 0.27251 0.08668 0.0
H956 H 0.26263 0.35674 0.02657 0.0
H957 H 0.28632 0.33063 0.04514 0.0
H958 H 0.30287 0.27663 0.99911 0.0
C959 C 0.34198 0.22938 0.0558 0.0
C960 C 0.30213 0.2731 0.06754 0.0
C961 C 0.34958 0.21095 0.0648 0.0
C962 C 0.26359 0.3421 0.01826 0.0
C963 C 0.27699 0.32703 0.02905 0.0
C964 C 0.3023 0.2759 0.01824 0.0
C965 C 0.32282 0.23944 0.06591 0.0
C966 C 0.31272 0.2577 0.05425 0.0
C967 C 0.27814 0.30757 0.01928 0.0
C968 C 0.29106 0.29097 0.03145 0.0
H969 H 0.31157 0.20639 0.11075 0.0
H970 H 0.29766 0.23821 0.09461 0.0
H971 H 0.32034 0.24789 0.01839 0.0
H972 H 0.24344 0.31519 0.9712 0.0
H973 H 0.26608 0.28904 0.99011 0.0
C974 C 0.23157 0.67907 0.47613 0.0
C975 C 0.25153 0.67028 0.48611 0.0
C976 C 0.2184 0.69305 0.48901 0.0
C977 C 0.22489 0.72815 0.53984 0.0
H978 H 0.15888 0.73698 0.52976 0.0
C979 C 0.17516 0.79152 0.58816 0.0
C980 C 0.16242 0.80419 0.57303 0.0
C981 C 0.1835 0.77296 0.58003 0.0
C982 C 0.17733 0.73466 0.53277 0.0
H983 H 0.27243 0.66819 0.51796 0.0
H984 H 0.24903 0.69177 0.5407 0.0
H985 H 0.178 0.70819 0.51122 0.0
H986 H 0.14733 0.80678 0.53797 0.0
H987 H 0.16157 0.77439 0.52399 0.0
H988 H 0.22418 0.75464 0.56132 0.0
C989 C 0.24393 0.68856 0.52265 0.0
C990 C 0.18834 0.71822 0.52205 0.0
C991 C 0.25726 0.67486 0.50968 0.0
C992 C 0.15715 0.79741 0.55007 0.0
C993 C 0.16522 0.77879 0.54207 0.0
C994 C 0.21383 0.74442 0.55075 0.0
C995 C 0.22473 0.69835 0.51229 0.0
C996 C 0.21239 0.71489 0.52514 0.0
C997 C 0.17898 0.76657 0.55674 0.0
C998 C 0.19 0.74805 0.54707 0.0
H999 H 0.2268 0.67597 0.45795 0.0
H1000 H 0.20392 0.70035 0.48026 0.0
H1001 H 0.24349 0.72645 0.54232 0.0
H1002 H 0.17958 0.79631 0.60591 0.0
H1003 H 0.19391 0.76378 0.59181 0.0
C1004 C 0.36422 0.78863 0.94674 0.0
C1005 C 0.35022 0.80522 0.94082 0.0
C1006 C 0.35414 0.77066 0.95465 0.0
C1007 C 0.29665 0.74411 0.96125 0.0
H1008 H 0.32918 0.71594 0.01132 0.0
C1009 C 0.25489 0.67513 0.00611 0.0
C1010 C 0.25822 0.67282 0.03059 0.0
C1011 C 0.26806 0.68904 0.99324 0.0
C1012 C 0.31968 0.72368 0.99752 0.0
H1013 H 0.31452 0.81566 0.938 0.0
H1014 H 0.29709 0.78487 0.9524 0.0
H1015 H 0.34755 0.74448 0.99226 0.0
H1016 H 0.27833 0.68306 0.06068 0.0
H1017 H 0.30064 0.70783 0.03859 0.0
H1018 H 0.26814 0.72426 0.96757 0.0
C1019 C 0.31583 0.78534 0.9504 0.0
C1020 C 0.33046 0.73994 0.9862 0.0
C1021 C 0.32588 0.80315 0.94215 0.0
C1022 C 0.2755 0.68433 0.04179 0.0
C1023 C 0.28839 0.69853 0.02901 0.0
C1024 C 0.28573 0.72808 0.97281 0.0
C1025 C 0.3298 0.76891 0.9572 0.0
C1026 C 0.31902 0.75057 0.96805 0.0
C1027 C 0.28461 0.70136 1.00458 0.0
C1028 C 0.29696 0.71771 0.9913 0.0
H1029 H 0.38303 0.78968 0.94583 0.0
H1030 H 0.36552 0.75826 0.95913 0.0
H1031 H 0.28734 0.75156 0.94709 0.0
H1032 H 0.2418 0.66638 0.99692 0.0
H1033 H 0.26499 0.69027 0.97441 0.0
C1034 C 0.22934 0.33668 0.52763 0.0
C1035 C 0.25128 0.34152 0.51821 0.0
C1036 C 0.215 0.32263 0.51623 0.0
C1037 C 0.20477 0.29608 0.45958 0.0
H1038 H 0.18499 0.25179 0.49922 0.0
C1039 C 0.17794 0.21881 0.42107 0.0
C1040 C 0.16232 0.20674 0.43384 0.0
C1041 C 0.18526 0.23736 0.43016 0.0
C1042 C 0.18982 0.26418 0.48784 0.0
H1043 H 0.2748 0.33634 0.4888 0.0
H1044 H 0.24966 0.31224 0.46879 0.0
H1045 H 0.20332 0.28096 0.51713 0.0
H1046 H 0.1409 0.20524 0.46537 0.0
H1047 H 0.15272 0.23785 0.48064 0.0
H1048 H 0.19133 0.27936 0.43024 0.0
C1049 C 0.24356 0.31914 0.485 0.0
C1050 C 0.20043 0.28093 0.49819 0.0
C1051 C 0.25802 0.33288 0.49655 0.0
C1052 C 0.15314 0.21412 0.45519 0.0
C1053 C 0.16013 0.23277 0.46408 0.0
C1054 C 0.19386 0.27943 0.44922 0.0
C1055 C 0.22215 0.31347 0.49499 0.0
C1056 C 0.20841 0.2969 0.48415 0.0
C1057 C 0.17686 0.24441 0.45209 0.0
C1058 C 0.1866 0.26304 0.46316 0.0
H1059 H 0.22372 0.34302 0.54434 0.0
H1060 H 0.19851 0.31862 0.52427 0.0
H1061 H 0.21058 0.30825 0.44832 0.0
H1062 H 0.18549 0.21347 0.40467 0.0
H1063 H 0.19834 0.24568 0.42047 0.0
C1064 C 0.82799 0.70601 0.06068 0.0
C1065 C 0.85232 0.70389 0.062 0.0
C1066 C 0.81795 0.72417 0.05355 0.0
C1067 C 0.83238 0.77146 0.02128 0.0
H1068 H 0.76992 0.78563 0.04114 0.0
C1069 C 0.77619 0.82866 0.96941 0.0
C1070 C 0.75828 0.83902 0.98115 0.0
C1071 C 0.78967 0.81438 0.98142 0.0
C1072 C 0.78755 0.78227 0.03562 0.0
H1073 H 0.88515 0.71955 0.05794 0.0
H1074 H 0.86765 0.75156 0.04659 0.0
H1075 H 0.78949 0.75754 0.05959 0.0
H1076 H 0.74141 0.8435 0.01501 0.0
H1077 H 0.76571 0.8196 0.0363 0.0
H1078 H 0.83078 0.79674 0.998 0.0
C1079 C 0.85627 0.73898 0.05025 0.0
C1080 C 0.79868 0.76577 0.04598 0.0
C1081 C 0.86634 0.72066 0.05702 0.0
C1082 C 0.755 0.83564 1.00544 0.0
C1083 C 0.7688 0.8217 0.01758 0.0
C1084 C 0.8214 0.78822 0.01123 0.0
C1085 C 0.83191 0.7409 0.04792 0.0
C1086 C 0.82106 0.75979 0.0386 0.0
C1087 C 0.78588 0.81037 1.00562 0.0
C1088 C 0.7986 0.79365 0.01787 0.0
H1089 H 0.81661 0.69336 0.0641 0.0
H1090 H 0.79921 0.72473 0.05159 0.0
H1091 H 0.84949 0.76736 0.01487 0.0
H1092 H 0.77897 0.83077 0.95062 0.0
H1093 H 0.80232 0.80588 0.97136 0.0
C1094 C 0.75795 0.178 0.51806 0.0
C1095 C 0.75151 0.17371 0.49459 0.0
C1096 C 0.74539 0.19192 0.5315 0.0
C1097 C 0.69042 0.22219 0.5331 0.0
H1098 H 0.72812 0.25837 0.57088 0.0
C1099 C 0.6599 0.30101 0.56272 0.0
C1100 C 0.66639 0.30805 0.58525 0.0
C1101 C 0.6679 0.28249 0.55438 0.0
C1102 C 0.71726 0.24821 0.56076 0.0
H1103 H 0.72622 0.18017 0.46717 0.0
H1104 H 0.70458 0.2048 0.49038 0.0
H1105 H 0.7464 0.23004 0.55106 0.0
H1106 H 0.68574 0.30073 0.61703 0.0
H1107 H 0.69988 0.26829 0.60235 0.0
H1108 H 0.66142 0.24101 0.54218 0.0
C1109 C 0.71912 0.19716 0.49862 0.0
C1110 C 0.72774 0.23188 0.54936 0.0
C1111 C 0.73157 0.18303 0.48523 0.0
C1112 C 0.68038 0.29573 0.59962 0.0
C1113 C 0.68861 0.27723 0.59114 0.0
C1114 C 0.67997 0.23864 0.54437 0.0
C1115 C 0.72618 0.20214 0.52177 0.0
C1116 C 0.71454 0.21874 0.53516 0.0
C1117 C 0.68276 0.27055 0.56826 0.0
C1118 C 0.69331 0.25198 0.55812 0.0
H1119 H 0.7731 0.17093 0.52591 0.0
H1120 H 0.75105 0.19493 0.54943 0.0
H1121 H 0.67959 0.21225 0.52268 0.0
H1122 H 0.64908 0.31008 0.5512 0.0
H1123 H 0.66322 0.27792 0.53661 0.0
C1124 C 0.85241 0.29515 0.95605 0.0
C1125 C 0.84187 0.30359 0.93596 0.0
C1126 C 0.84509 0.27653 0.96477 0.0
C1127 C 0.80653 0.23218 0.95128 0.0
H1128 H 0.80625 0.22748 0.01958 0.0
C1129 C 0.7651 0.1632 0.99784 0.0
C1130 C 0.75247 0.16712 0.01865 0.0
C1131 C 0.77943 0.17802 0.98784 0.0
C1132 C 0.80595 0.22853 1.00047 0.0
H1133 H 0.81572 0.29892 0.90891 0.0
H1134 H 0.80214 0.26695 0.92462 0.0
H1135 H 0.82381 0.25658 1.00132 0.0
H1136 H 0.7455 0.18967 0.04548 0.0
H1137 H 0.76954 0.21541 0.02788 0.0
H1138 H 0.7871 0.20476 0.95064 0.0
C1139 C 0.81662 0.27427 0.93333 0.0
C1140 C 0.81651 0.24518 0.98987 0.0
C1141 C 0.82434 0.29271 0.9243 0.0
C1142 C 0.75508 0.18597 0.02957 0.0
C1143 C 0.76908 0.20081 0.01945 0.0
C1144 C 0.79559 0.21567 0.96193 0.0
C1145 C 0.82657 0.26606 0.954 0.0
C1146 C 0.81675 0.24743 0.9651 0.0
C1147 C 0.78127 0.1972 0.99826 0.0
C1148 C 0.79481 0.21375 0.98673 0.0
H1149 H 0.86611 0.30312 0.96531 0.0
H1150 H 0.85375 0.27056 0.98026 0.0
H1151 H 0.80669 0.23305 0.93216 0.0
H1152 H 0.76355 0.14884 0.98898 0.0
H1153 H 0.78884 0.17448 0.97177 0.0
C1154 C 0.72884 0.82947 0.53546 0.0
C1155 C 0.74942 0.83743 0.5258 0.0
C1156 C 0.716 0.81497 0.52305 0.0
C1157 C 0.70791 0.79119 0.46389 0.0
H1158 H 0.69125 0.74423 0.50066 0.0
C1159 C 0.68453 0.71417 0.4213 0.0
C1160 C 0.66852 0.70178 0.43318 0.0
C1161 C 0.69167 0.73246 0.43133 0.0
C1162 C 0.69533 0.75733 0.4901 0.0
H1163 H 0.77182 0.83727 0.49487 0.0
H1164 H 0.7495 0.81216 0.47335 0.0
H1165 H 0.70768 0.77337 0.52041 0.0
H1166 H 0.64634 0.69952 0.46412 0.0
H1167 H 0.65812 0.73146 0.48111 0.0
H1168 H 0.69574 0.77501 0.43351 0.0
C1169 C 0.74323 0.81704 0.49048 0.0
C1170 C 0.7048 0.7741 0.50149 0.0
C1171 C 0.75612 0.83139 0.50292 0.0
C1172 C 0.65891 0.70858 0.45462 0.0
C1173 C 0.66583 0.72687 0.46449 0.0
C1174 C 0.69829 0.77443 0.45247 0.0
C1175 C 0.72334 0.80826 0.50061 0.0
C1176 C 0.71143 0.79118 0.48854 0.0
C1177 C 0.6828 0.73882 0.45336 0.0
C1178 C 0.69204 0.75718 0.4654 0.0
H1179 H 0.72319 0.83376 0.55303 0.0
H1180 H 0.70058 0.80869 0.53123 0.0
H1181 H 0.71264 0.80418 0.4534 0.0
H1182 H 0.69235 0.70932 0.40483 0.0
H1183 H 0.70488 0.74115 0.42229 0.0
C1184 C 0.3499 0.05557 0.07356 0.0
C1185 C 0.35235 0.07466 0.06318 0.0
C1186 C 0.34957 0.03818 0.05944 0.0
C1187 C 0.36532 0.02032 0.99866 0.0
H1188 H 0.3259 0.97507 0.0146 0.0
C1189 C 0.35042 0.95286 0.93498 0.0
C1190 C 0.35235 0.9337 0.9453 0.0
C1191 C 0.34987 0.97016 0.94919 0.0
C1192 C 0.33707 0.98757 0.00997 0.0
H1193 H 0.35631 0.09019 0.02957 0.0
H1194 H 0.35477 0.06041 1.00535 0.0
H1195 H 0.3262 0.00466 0.04013 0.0
H1196 H 0.35541 0.91793 0.97887 0.0
H1197 H 0.354 0.94785 1.0033 0.0
H1198 H 0.37588 1.00328 0.9683 0.0
C1199 C 0.35371 0.05863 0.02435 0.0
C1200 C 0.33736 0.00451 0.0247 0.0
C1201 C 0.35429 0.07586 0.03838 0.0
C1202 C 0.35361 0.93233 0.97015 0.0
C1203 C 0.35275 0.94953 0.98428 0.0
C1204 C 0.36482 1.00349 0.98383 0.0
C1205 C 0.35156 0.03949 0.0346 0.0
C1206 C 0.35149 0.02115 0.01926 0.0
C1207 C 0.35095 0.96866 0.97402 0.0
C1208 C 0.35075 0.98689 0.98932 0.0
H1209 H 0.34853 0.05402 0.09258 0.0
H1210 H 0.34816 0.02371 0.06805 0.0
H1211 H 0.37684 0.03258 0.99407 0.0
H1212 H 0.34953 0.95453 0.91594 0.0
H1213 H 0.3484 0.98472 0.94077 0.0
C1214 C 0.15952 0.95128 0.57079 0.0
C1215 C 0.15603 0.93282 0.55917 0.0
C1216 C 0.16069 0.96927 0.55781 0.0
C1217 C 0.17245 0.98917 0.49782 0.0
H1218 H 0.13437 0.03432 0.51715 0.0
C1219 C 0.15862 0.05939 0.43765 0.0
C1220 C 0.1564 0.07813 0.44894 0.0
C1221 C 0.15946 0.04156 0.451 0.0
C1222 C 0.14547 0.02203 0.51161 0.0
H1223 H 0.15086 0.91912 0.5246 0.0
H1224 H 0.15345 0.95008 0.50239 0.0
H1225 H 0.13547 1.00419 0.54152 0.0
H1226 H 0.15362 0.09254 0.48337 0.0
H1227 H 0.15619 0.06211 0.50617 0.0
H1228 H 0.18273 0.00703 0.46807 0.0
C1229 C 0.15543 0.9507 0.52144 0.0
C1230 C 0.14604 0.00472 0.52565 0.0
C1231 C 0.1539 0.93288 0.53432 0.0
C1232 C 0.15541 0.07853 0.47384 0.0
C1233 C 0.15657 0.06089 0.48708 0.0
C1234 C 0.17212 0.0066 0.48389 0.0
C1235 C 0.15875 0.96913 0.53295 0.0
C1236 C 0.15942 0.98804 0.51887 0.0
C1237 C 0.15828 0.04208 0.47595 0.0
C1238 C 0.15857 0.02329 0.49054 0.0
H1239 H 0.1611 0.95185 0.58987 0.0
H1240 H 0.16327 0.98329 0.56719 0.0
H1241 H 0.18306 0.97659 0.49218 0.0
H1242 H 0.15928 0.05846 0.41853 0.0
H1243 H 0.16055 0.02736 0.44172 0.0
C1244 C 0.69405 0.9429 0.94947 0.0
C1245 C 0.69543 0.92564 0.96386 0.0
C1246 C 0.6945 0.96213 0.95939 0.0
C1247 C 0.6815 0.98973 0.01376 0.0
H1248 H 0.72161 0.031 0.98756 0.0
C1249 C 0.69379 0.06523 0.06123 0.0
C1250 C 0.69661 0.08295 0.04792 0.0
C1251 C 0.69379 0.04644 0.05035 0.0
C1252 C 0.71002 0.01979 0.99489 0.0
H1253 H 0.69793 0.91531 1.00018 0.0
H1254 H 0.69828 0.94901 0.01751 0.0
H1255 H 0.72145 0.9974 0.97015 0.0
H1256 H 0.70141 0.09458 0.01244 0.0
H1257 H 0.70073 0.06161 0.99322 0.0
H1258 H 0.66953 0.01201 0.03808 0.0
C1259 C 0.69706 0.9475 0.99847 0.0
C1260 C 0.71004 1.00048 0.98497 0.0
C1261 C 0.69695 0.9282 0.98853 0.0
C1262 C 0.69935 0.08128 0.02327 0.0
C1263 C 0.69907 0.06233 0.01228 0.0
C1264 C 0.68125 0.00905 0.02348 0.0
C1265 C 0.69594 0.96467 0.98399 0.0
C1266 C 0.69592 0.9852 0.99443 0.0
C1267 C 0.69621 0.04464 0.02571 0.0
C1268 C 0.6957 0.02433 0.01438 0.0
H1269 H 0.69258 0.94163 0.93044 0.0
H1270 H 0.69329 0.97504 0.94779 0.0
H1271 H 0.6701 0.97839 0.02116 0.0
H1272 H 0.69156 0.06576 0.08023 0.0
H1273 H 0.69209 0.03326 0.06144 0.0
C1274 C 0.8114 0.06892 0.45591 0.0
C1275 C 0.81046 0.08573 0.47106 0.0
C1276 C 0.81102 0.04943 0.46499 0.0
C1277 C 0.82492 0.01996 0.51764 0.0
H1278 H 0.78456 0.97976 0.48954 0.0
C1279 C 0.81396 0.94194 0.55969 0.0
C1280 C 0.81103 0.925 0.54506 0.0
C1281 C 0.81377 0.9613 0.5503 0.0
C1282 C 0.79621 0.99068 0.49737 0.0
H1283 H 0.80881 0.09499 0.50781 0.0
H1284 H 0.80852 0.06075 0.52371 0.0
H1285 H 0.78411 0.01411 0.47442 0.0
H1286 H 0.80603 0.91535 0.50878 0.0
H1287 H 0.80635 0.9493 0.49218 0.0
H1288 H 0.83752 0.99661 0.54018 0.0
C1289 C 0.80936 0.06285 0.50473 0.0
C1290 C 0.79584 0.01041 0.48879 0.0
C1291 C 0.80942 0.08245 0.49562 0.0
C1292 C 0.80816 0.92802 0.52061 0.0
C1293 C 0.80822 0.94752 0.51113 0.0
C1294 C 0.8255 1.00021 0.52605 0.0
C1295 C 0.81004 0.04614 0.48947 0.0
C1296 C 0.81012 0.02528 0.4989 0.0
C1297 C 0.81103 0.96443 0.52589 0.0
C1298 C 0.81103 0.9853 0.51616 0.0
H1299 H 0.81251 0.07073 0.43692 0.0
H1300 H 0.81193 0.03689 0.4528 0.0
H1301 H 0.83642 0.031 0.52551 0.0
H1302 H 0.81635 0.94036 0.5786 0.0
H1303 H 0.81551 0.97385 0.56236 0.0
C1304 C 0.86437 0.43332 0.97244 0.0
C1305 C 0.85289 0.43142 0.95055 0.0
C1306 C 0.86238 0.45082 0.98589 0.0
C1307 C 0.84523 0.5047 0.98246 0.0
H1308 H 0.8479 0.5002 0.05081 0.0
C1309 C 0.86233 0.57388 0.04088 0.0
C1310 C 0.8522 0.57525 0.0635 0.0
C1311 C 0.86044 0.55636 0.02745 0.0
C1312 C 0.84678 0.50182 0.03179 0.0
H1313 H 0.83029 0.44666 0.92567 0.0
H1314 H 0.82625 0.4772 0.9495 0.0
H1315 H 0.84718 0.46999 0.02672 0.0
H1316 H 0.83206 0.55905 0.08967 0.0
H1317 H 0.82817 0.52846 0.06593 0.0
H1318 H 0.84396 0.5365 0.98756 0.0
C1319 C 0.83722 0.4652 0.95606 0.0
C1320 C 0.84677 0.48441 0.01786 0.0
C1321 C 0.83946 0.44766 0.94237 0.0
C1322 C 0.84016 0.55849 0.07239 0.0
C1323 C 0.83802 0.54091 0.05875 0.0
C1324 C 0.84495 0.5221 0.9964 0.0
C1325 C 0.84857 0.46697 0.97812 0.0
C1326 C 0.84651 0.48557 0.99295 0.0
C1327 C 0.84807 0.53963 0.036 0.0
C1328 C 0.84625 0.52096 0.02128 0.0
H1329 H 0.87511 0.42125 0.97926 0.0
H1330 H 0.87197 0.45169 1.00235 0.0
H1331 H 0.8451 0.50634 0.96341 0.0
H1332 H 0.87197 0.58636 0.03346 0.0
H1333 H 0.86902 0.5559 0.01041 0.0
C1334 C 0.66496 0.45224 0.57554 0.0
C1335 C 0.65207 0.43548 0.56798 0.0
C1336 C 0.66707 0.46924 0.56095 0.0
C1337 C 0.65916 0.48546 0.49795 0.0
H1338 H 0.65858 0.53891 0.52498 0.0
C1339 C 0.6664 0.55753 0.43985 0.0
C1340 C 0.65308 0.57417 0.44706 0.0
C1341 C 0.66822 0.54049 0.4544 0.0
C1342 C 0.65858 0.5241 0.51706 0.0
H1343 H 0.6306 0.42382 0.53947 0.0
H1344 H 0.63362 0.45332 0.51474 0.0
H1345 H 0.65759 0.50984 0.55097 0.0
H1346 H 0.63049 0.58552 0.47485 0.0
H1347 H 0.63301 0.55593 0.49949 0.0
H1348 H 0.659 0.49973 0.46402 0.0
C1349 C 0.64283 0.45326 0.53145 0.0
C1350 C 0.65837 0.50736 0.53206 0.0
C1351 C 0.64092 0.43632 0.54583 0.0
C1352 C 0.64116 0.57312 0.46878 0.0
C1353 C 0.64279 0.55614 0.48312 0.0
C1354 C 0.65915 0.5022 0.48295 0.0
C1355 C 0.65618 0.46988 0.53858 0.0
C1356 C 0.65825 0.48779 0.52273 0.0
C1357 C 0.6566 0.53967 0.47638 0.0
C1358 C 0.65846 0.52177 0.49228 0.0
H1359 H 0.67387 0.45205 0.59243 0.0
H1360 H 0.67763 0.48168 0.56702 0.0
H1361 H 0.65963 0.47065 0.49005 0.0
H1362 H 0.6759 0.55789 0.4233 0.0
H1363 H 0.67914 0.52815 0.44864 0.0
C1364 C 0.19766 0.565 0.06098 0.0
C1365 C 0.20024 0.58225 0.04678 0.0
C1366 C 0.19863 0.54579 0.05108 0.0
C1367 C 0.18845 0.51843 0.99619 0.0
H1368 H 0.22627 0.47659 0.02464 0.0
C1369 C 0.19981 0.44199 0.95055 0.0
C1370 C 0.20151 0.42444 0.96433 0.0
C1371 C 0.2003 0.46096 0.961 0.0
C1372 C 0.21532 0.48797 0.01666 0.0
H1373 H 0.20549 0.59263 0.0108 0.0
H1374 H 0.20669 0.55894 0.99342 0.0
H1375 H 0.22608 0.51029 0.04178 0.0
H1376 H 0.20484 0.41327 1.00019 0.0
H1377 H 0.20489 0.44652 0.01865 0.0
H1378 H 0.17702 0.49622 0.97155 0.0
C1379 C 0.20417 0.56045 0.01233 0.0
C1380 C 0.21534 0.50733 0.02642 0.0
C1381 C 0.20357 0.57973 0.0223 0.0
C1382 C 0.20366 0.42644 0.989 0.0
C1383 C 0.20381 0.44555 0.99956 0.0
C1384 C 0.18816 0.49906 0.98663 0.0
C1385 C 0.20178 0.54328 0.02665 0.0
C1386 C 0.20202 0.52279 0.01618 0.0
C1387 C 0.20202 0.46308 0.98567 0.0
C1388 C 0.20176 0.48356 0.99658 0.0
H1389 H 0.19474 0.56625 0.07984 0.0
H1390 H 0.19641 0.53287 0.06251 0.0
H1391 H 0.17768 0.52994 0.98818 0.0
H1392 H 0.19804 0.4412 0.93151 0.0
H1393 H 0.19944 0.47399 0.94957 0.0
C1394 C 0.31533 0.56765 0.44943 0.0
C1395 C 0.31325 0.58466 0.46413 0.0
C1396 C 0.31493 0.54829 0.45892 0.0
C1397 C 0.32518 0.51981 0.51365 0.0
H1398 H 0.28862 0.47852 0.48254 0.0
C1399 C 0.31152 0.44191 0.55584 0.0
C1400 C 0.31112 0.42485 0.54112 0.0
C1401 C 0.31168 0.46124 0.54626 0.0
C1402 C 0.29919 0.48976 0.49127 0.0
H1403 H 0.30954 0.59443 0.50055 0.0
H1404 H 0.30899 0.56048 0.51715 0.0
H1405 H 0.28897 0.51258 0.46664 0.0
H1406 H 0.31083 0.41492 0.50458 0.0
H1407 H 0.3116 0.44875 0.48779 0.0
H1408 H 0.33572 0.49702 0.53808 0.0
C1409 C 0.31088 0.56227 0.49821 0.0
C1410 C 0.29932 0.50933 0.4822 0.0
C1411 C 0.31109 0.58172 0.48868 0.0
C1412 C 0.31097 0.42769 0.51646 0.0
C1413 C 0.3113 0.44711 0.50684 0.0
C1414 C 0.32519 0.50022 0.52263 0.0
C1415 C 0.31266 0.54533 0.4834 0.0
C1416 C 0.31228 0.52459 0.4933 0.0
C1417 C 0.31171 0.46416 0.52164 0.0
C1418 C 0.31212 0.48493 0.51164 0.0
H1419 H 0.31728 0.56921 0.43047 0.0
H1420 H 0.31672 0.53559 0.44706 0.0
H1421 H 0.33563 0.53113 0.52239 0.0
H1422 H 0.31167 0.44044 0.57491 0.0
H1423 H 0.31155 0.47392 0.55826 0.0
C1424 C 0.61245 0.14102 0.06934 0.0
C1425 C 0.62537 0.13435 0.089 0.0
C1426 C 0.58814 0.14121 0.06982 0.0
C1427 C 0.53732 0.13769 0.111 0.0
H1428 H 0.50344 0.12788 0.05274 0.0
C1429 C 0.43903 0.11942 0.10751 0.0
C1430 C 0.42533 0.13096 0.09192 0.0
C1431 C 0.4633 0.12063 0.10703 0.0
C1432 C 0.5127 0.13082 0.06908 0.0
H1433 H 0.62256 0.12211 0.12442 0.0
H1434 H 0.58011 0.12158 0.12491 0.0
H1435 H 0.54589 0.12754 0.05248 0.0
H1436 H 0.42671 0.15233 0.06296 0.0
H1437 H 0.46938 0.15392 0.06169 0.0
H1438 H 0.50386 0.14007 0.12766 0.0
C1439 C 0.5888 0.1274 0.10938 0.0
C1440 C 0.53708 0.13072 0.06898 0.0
C1441 C 0.61322 0.12757 0.10906 0.0
C1442 C 0.43666 0.14336 0.07535 0.0
C1443 C 0.46106 0.14424 0.07457 0.0
C1444 C 0.51295 0.13742 0.11115 0.0
C1445 C 0.57588 0.13429 0.08976 0.0
C1446 C 0.5498 0.13421 0.08994 0.0
C1447 C 0.47458 0.13304 0.09059 0.0
C1448 C 0.5004 0.13401 0.09019 0.0
H1449 H 0.62108 0.14622 0.05346 0.0
H1450 H 0.579 0.14701 0.05452 0.0
H1451 H 0.54633 0.14085 0.12741 0.0
H1452 H 0.43108 0.10941 0.12024 0.0
H1453 H 0.4733 0.1116 0.11933 0.0
C1454 C 0.89201 0.87818 0.60742 0.0
C1455 C 0.88078 0.87223 0.58642 0.0
C1456 C 0.91643 0.87871 0.60867 0.0
C1457 C 0.96891 0.85666 0.58287 0.0
H1458 H 1.00024 0.90606 0.60023 0.0
C1459 C 0.06829 0.86597 0.57006 0.0
C1460 C 0.08063 0.87763 0.58657 0.0
C1461 C 0.04389 0.86535 0.57048 0.0
C1462 C 0.9919 0.89198 0.59575 0.0
H1463 H 0.8867 0.86244 0.55021 0.0
H1464 H 0.92887 0.86262 0.55283 0.0
H1465 H 0.95785 0.90428 0.6019 0.0
H1466 H 0.07669 0.89817 0.6162 0.0
H1467 H 0.03468 0.89623 0.61773 0.0
H1468 H 1.00271 0.84407 0.57725 0.0
C1469 C 0.91882 0.86687 0.56827 0.0
C1470 C 0.96756 0.89104 0.59667 0.0
C1471 C 0.89457 0.86676 0.56684 0.0
C1472 C 0.06792 0.88881 0.60331 0.0
C1473 C 0.04362 0.88792 0.604 0.0
C1474 C 0.99326 0.85746 0.58236 0.0
C1475 C 0.93002 0.87291 0.58912 0.0
C1476 C 0.95584 0.87345 0.58999 0.0
C1477 C 0.03118 0.87617 0.58763 0.0
C1478 C 0.00515 0.8752 0.58855 0.0
H1479 H 0.88198 0.88266 0.62277 0.0
H1480 H 0.9247 0.88346 0.62495 0.0
H1481 H 0.96027 0.84286 0.57777 0.0
H1482 H 0.07746 0.85734 0.55674 0.0
H1483 H 0.03503 0.85649 0.55719 0.0
C1484 C 0.43905 0.88884 0.901 0.0
C1485 C 0.42522 0.8773 0.91642 0.0
C1486 C 0.4633 0.88769 0.90169 0.0
C1487 C 0.51253 0.85667 0.92492 0.0
H1488 H 0.54828 0.90419 0.90876 0.0
C1489 C 0.61145 0.86564 0.94227 0.0
C1490 C 0.62524 0.8722 0.92315 0.0
C1491 C 0.58718 0.86553 0.9407 0.0
C1492 C 0.53851 0.89076 0.91309 0.0
H1493 H 0.42639 0.85584 0.94523 0.0
H1494 H 0.46888 0.8545 0.94724 0.0
H1495 H 0.50592 0.90581 0.90909 0.0
H1496 H 0.62402 0.88418 0.88748 0.0
H1497 H 0.58135 0.88459 0.8851 0.0
H1498 H 0.54549 0.84201 0.92995 0.0
C1499 C 0.46087 0.86394 0.93394 0.0
C1500 C 0.51416 0.89161 0.91321 0.0
C1501 C 0.43644 0.86481 0.93293 0.0
C1502 C 0.614 0.8789 0.90248 0.0
C1503 C 0.5896 0.8792 0.90113 0.0
C1504 C 0.53692 0.85596 0.92524 0.0
C1505 C 0.47467 0.87536 0.91825 0.0
C1506 C 0.50075 0.87453 0.91895 0.0
C1507 C 0.57598 0.87241 0.92021 0.0
C1508 C 0.55014 0.87297 0.91919 0.0
H1509 H 0.43122 0.89879 0.88812 0.0
H1510 H 0.47307 0.8964 0.88893 0.0
H1511 H 0.50298 0.8431 0.92904 0.0
H1512 H 0.61933 0.86064 0.95862 0.0
H1513 H 0.57711 0.86048 0.95579 0.0
C1514 C 0.06722 0.12144 0.40575 0.0
C1515 C 0.08035 0.13237 0.42243 0.0
C1516 C 0.04289 0.122 0.40607 0.0
C1517 C 0.99323 0.12882 0.44483 0.0
H1518 H 0.95867 0.14286 0.38821 0.0
C1519 C 0.89486 0.14295 0.44905 0.0
C1520 C 0.88055 0.1378 0.42976 0.0
C1521 C 0.91904 0.1421 0.44728 0.0
C1522 C 0.96796 0.13856 0.40409 0.0
H1523 H 0.07792 0.15193 0.45305 0.0
H1524 H 0.03528 0.15233 0.454 0.0
H1525 H 1.00122 0.14161 0.38707 0.0
H1526 H 0.88077 0.12739 0.39342 0.0
H1527 H 0.92323 0.12508 0.39057 0.0
H1528 H 0.96034 0.12497 0.46177 0.0
C1529 C 0.04403 0.14366 0.44043 0.0
C1530 C 0.99236 0.13799 0.40344 0.0
C1531 C 0.06843 0.14345 0.43983 0.0
C1532 C 0.89123 0.13162 0.40858 0.0
C1533 C 0.91561 0.13041 0.40693 0.0
C1534 C 0.96889 0.12901 0.44538 0.0
C1535 C 0.03105 0.13308 0.42341 0.0
C1536 C 0.00521 0.13336 0.42389 0.0
C1537 C 0.92986 0.13556 0.42635 0.0
C1538 C 0.95585 0.13419 0.42513 0.0
H1539 H 0.07567 0.11245 0.3923 0.0
H1540 H 0.0333 0.11349 0.39295 0.0
H1541 H 1.00271 0.12485 0.46073 0.0
H1542 H 0.88745 0.14768 0.46574 0.0
H1543 H 0.92922 0.14673 0.46245 0.0
C1544 C 0.11365 0.62956 0.06479 0.0
C1545 C 0.12669 0.63341 0.08539 0.0
C1546 C 0.08933 0.62936 0.06543 0.0
C1547 C 0.03886 0.64887 0.09745 0.0
H1548 H 0.00583 0.6046 0.06797 0.0
C1549 C 0.93865 0.64856 0.08047 0.0
C1550 C 0.927 0.6311 0.08797 0.0
C1551 C 0.96308 0.64925 0.08014 0.0
C1552 C 0.01481 0.61706 0.07628 0.0
H1553 H 0.12423 0.64024 0.12281 0.0
H1554 H 0.08151 0.6402 0.12381 0.0
H1555 H 0.04841 0.60481 0.06821 0.0
H1556 H 0.93193 0.60058 0.10059 0.0
H1557 H 0.97431 0.60171 0.09949 0.0
H1558 H 0.00514 0.66117 0.10533 0.0
C1559 C 0.0903 0.63725 0.10721 0.0
C1560 C 0.03917 0.61722 0.07632 0.0
C1561 C 0.11473 0.63715 0.10666 0.0
C1562 C 0.9403 0.61428 0.09471 0.0
C1563 C 0.96461 0.61488 0.09402 0.0
C1564 C 0.01444 0.64886 0.09708 0.0
C1565 C 0.07737 0.63328 0.08659 0.0
C1566 C 0.05147 0.63308 0.08697 0.0
C1567 C 0.97629 0.63239 0.08689 0.0
C1568 C 1.00218 0.63289 0.08659 0.0
H1569 H 0.12221 0.62661 0.04807 0.0
H1570 H 0.07985 0.62642 0.04923 0.0
H1571 H 0.04789 0.66136 0.10562 0.0
H1572 H 0.92894 0.6618 0.07528 0.0
H1573 H 0.97164 0.6629 0.07442 0.0
C1574 C 0.56628 0.38991 0.61354 0.0
C1575 C 0.57967 0.37837 0.59771 0.0
C1576 C 0.54198 0.38883 0.61341 0.0
C1577 C 0.49251 0.3578 0.59063 0.0
H1578 H 0.45648 0.40541 0.60588 0.0
C1579 C 0.39544 0.36754 0.56762 0.0
C1580 C 0.3803 0.37334 0.58602 0.0
C1581 C 0.41951 0.36761 0.57085 0.0
C1582 C 0.46635 0.39196 0.60186 0.0
H1583 H 0.57775 0.35709 0.56873 0.0
H1584 H 0.53536 0.35589 0.5677 0.0
H1585 H 0.49892 0.40688 0.60682 0.0
H1586 H 0.37893 0.38437 0.62212 0.0
H1587 H 0.42141 0.38511 0.62744 0.0
H1588 H 0.45971 0.34329 0.58452 0.0
C1589 C 0.54365 0.36521 0.58094 0.0
C1590 C 0.49072 0.39272 0.60245 0.0
C1591 C 0.56804 0.36601 0.58138 0.0
C1592 C 0.39002 0.37965 0.60764 0.0
C1593 C 0.41429 0.38012 0.61069 0.0
C1594 C 0.46818 0.35717 0.58962 0.0
C1595 C 0.53024 0.37653 0.59705 0.0
C1596 C 0.5042 0.37566 0.59675 0.0
C1597 C 0.42921 0.37391 0.59235 0.0
C1598 C 0.45488 0.37426 0.59514 0.0
H1599 H 0.57451 0.39979 0.62624 0.0
H1600 H 0.53247 0.39753 0.62638 0.0
H1601 H 0.50211 0.3442 0.58666 0.0
H1602 H 0.38877 0.36293 0.55056 0.0
H1603 H 0.43063 0.36304 0.55631 0.0
C1604 C 0.11489 0.37718 0.94408 0.0
C1605 C 0.12809 0.37497 0.92328 0.0
C1606 C 0.09058 0.37701 0.94333 0.0
C1607 C 0.0401 0.38236 0.90251 0.0
H1608 H 0.00684 0.3584 0.95511 0.0
C1609 C 0.94073 0.39175 0.91331 0.0
C1610 C 0.92776 0.37574 0.92279 0.0
C1611 C 0.96506 0.39112 0.91299 0.0
C1612 C 0.01577 0.36494 0.9401 0.0
H1613 H 0.12594 0.37092 0.8853 0.0
H1614 H 0.08342 0.37009 0.88402 0.0
H1615 H 0.04912 0.35772 0.95458 0.0
H1616 H 0.93033 0.3464 0.93926 0.0
H1617 H 0.97276 0.34505 0.93817 0.0
H1618 H 0.0067 0.38891 0.88762 0.0
C1619 C 0.0919 0.37237 0.90091 0.0
C1620 C 0.04013 0.36484 0.93997 0.0
C1621 C 0.11632 0.37275 0.90164 0.0
C1622 C 0.93977 0.35907 0.93199 0.0
C1623 C 0.96415 0.35834 0.93144 0.0
C1624 C 0.01571 0.38228 0.90253 0.0
C1625 C 0.07869 0.37438 0.9218 0.0
C1626 C 0.05267 0.37376 0.92132 0.0
C1627 C 0.97715 0.37437 0.92191 0.0
C1628 C 1.00318 0.37376 0.92145 0.0
H1629 H 0.12331 0.37911 0.96108 0.0
H1630 H 0.08113 0.37912 0.95972 0.0
H1631 H 0.04906 0.38952 0.88793 0.0
H1632 H 0.9321 0.4049 0.90618 0.0
H1633 H 0.97437 0.40395 0.90598 0.0
C1634 C 0.5697 0.64443 0.43237 0.0
C1635 C 0.58166 0.63204 0.4163 0.0
C1636 C 0.54532 0.64544 0.43211 0.0
C1637 C 0.49277 0.61845 0.40887 0.0
H1638 H 0.46166 0.66809 0.42591 0.0
C1639 C 0.3925 0.63171 0.40021 0.0
C1640 C 0.38201 0.63814 0.42141 0.0
C1641 C 0.41685 0.63131 0.39802 0.0
C1642 C 0.47016 0.65414 0.42106 0.0
H1643 H 0.57708 0.6108 0.38749 0.0
H1644 H 0.53509 0.61342 0.38615 0.0
H1645 H 0.50411 0.66682 0.42524 0.0
H1646 H 0.38919 0.64903 0.45694 0.0
H1647 H 0.43123 0.64903 0.45268 0.0
H1648 H 0.45856 0.60604 0.40421 0.0
C1649 C 0.54433 0.62199 0.39945 0.0
C1650 C 0.49451 0.65332 0.42089 0.0
C1651 C 0.5686 0.62069 0.40002 0.0
C1652 C 0.39647 0.64428 0.4402 0.0
C1653 C 0.42064 0.64429 0.43782 0.0
C1654 C 0.46841 0.61941 0.40862 0.0
C1655 C 0.53225 0.63431 0.41554 0.0
C1656 C 0.50621 0.63538 0.41507 0.0
C1657 C 0.43111 0.63773 0.4168 0.0
C1658 C 0.45688 0.63719 0.415 0.0
H1659 H 0.57915 0.65322 0.44534 0.0
H1660 H 0.53675 0.65479 0.44514 0.0
H1661 H 0.50097 0.60423 0.40472 0.0
H1662 H 0.38194 0.62673 0.38545 0.0
H1663 H 0.42456 0.62615 0.38162 0.0
C1664 C 0.2785 0.12652 0.17036 0.0
C1665 C 0.29554 0.11235 0.1639 0.0
C1666 C 0.2669 0.12497 0.19212 0.0
C1667 C 0.25141 0.09009 0.2403 0.0
H1668 H 0.25029 0.13794 0.27938 0.0
C1669 C 0.21721 0.08739 0.33674 0.0
C1670 C 0.20433 0.10398 0.34489 0.0
C1671 C 0.22941 0.08834 0.31526 0.0
C1672 C 0.25007 0.12447 0.26866 0.0
H1673 H 0.31296 0.08495 0.17483 0.0
H1674 H 0.2923 0.08201 0.21244 0.0
H1675 H 0.26736 0.13937 0.23998 0.0
H1676 H 0.19465 0.13476 0.33685 0.0
H1677 H 0.21516 0.13623 0.29947 0.0
H1678 H 0.23359 0.07525 0.26857 0.0
C1679 C 0.28806 0.0944 0.20078 0.0
C1680 C 0.25994 0.12532 0.24602 0.0
C1681 C 0.29992 0.09611 0.17923 0.0
C1682 C 0.20453 0.12171 0.33134 0.0
C1683 C 0.21645 0.12258 0.30978 0.0
C1684 C 0.24122 0.0893 0.26282 0.0
C1685 C 0.27179 0.10905 0.20773 0.0
C1686 C 0.26074 0.10815 0.23157 0.0
C1687 C 0.22884 0.10583 0.30119 0.0
C1688 C 0.24038 0.10648 0.27739 0.0
H1689 H 0.27481 0.13928 0.15908 0.0
H1690 H 0.25429 0.13638 0.19688 0.0
H1691 H 0.25163 0.07664 0.22952 0.0
H1692 H 0.21749 0.0735 0.34672 0.0
H1693 H 0.23912 0.07524 0.30961 0.0
C1694 C 0.27963 0.88331 0.83635 0.0
C1695 C 0.29673 0.89736 0.84296 0.0
C1696 C 0.26818 0.88497 0.81453 0.0
C1697 C 0.253 0.91995 0.76644 0.0
H1698 H 0.2519 0.87218 0.72722 0.0
C1699 C 0.21837 0.9228 0.67016 0.0
C1700 C 0.2055 0.9062 0.66204 0.0
C1701 C 0.23071 0.92182 0.69155 0.0
C1702 C 0.25168 0.88563 0.73798 0.0
H1703 H 0.31441 0.92467 0.83221 0.0
H1704 H 0.29399 0.9278 0.79446 0.0
H1705 H 0.269 0.87067 0.76661 0.0
H1706 H 0.19598 0.87539 0.67005 0.0
H1707 H 0.21672 0.87387 0.70729 0.0
H1708 H 0.23512 0.93484 0.73824 0.0
C1709 C 0.28961 0.91542 0.80607 0.0
C1710 C 0.26157 0.88474 0.7606 0.0
C1711 C 0.30133 0.9136 0.8277 0.0
C1712 C 0.20585 0.88844 0.67553 0.0
C1713 C 0.2179 0.88755 0.69701 0.0
C1714 C 0.24278 0.92079 0.74393 0.0
C1715 C 0.27328 0.90088 0.79899 0.0
C1716 C 0.26233 0.90187 0.77511 0.0
C1717 C 0.23028 0.9043 0.70557 0.0
C1718 C 0.24193 0.90363 0.72932 0.0
H1719 H 0.27575 0.87057 0.84758 0.0
H1720 H 0.25551 0.87364 0.80967 0.0
H1721 H 0.25321 0.93338 0.77726 0.0
H1722 H 0.21853 0.93671 0.66022 0.0
H1723 H 0.24041 0.93492 0.69718 0.0
C1724 C 0.72596 0.85018 0.83817 0.0
C1725 C 0.70152 0.85151 0.83953 0.0
C1726 C 0.73695 0.84576 0.81673 0.0
C1727 C 0.7305 0.82463 0.75726 0.0
H1728 H 0.77451 0.86598 0.73912 0.0
C1729 C 0.76674 0.83208 0.66152 0.0
C1730 C 0.78832 0.84158 0.65821 0.0
C1731 C 0.75716 0.83028 0.68425 0.0
C1732 C 0.76277 0.85395 0.74396 0.0
H1733 H 0.66949 0.84789 0.81964 0.0
H1734 H 0.68884 0.83968 0.78219 0.0
H1735 H 0.75598 0.86748 0.7776 0.0
H1736 H 0.81759 0.85535 0.67606 0.0
H1737 H 0.80187 0.85097 0.71568 0.0
H1738 H 0.73761 0.8108 0.7238 0.0
C1739 C 0.69938 0.84228 0.79779 0.0
C1740 C 0.75198 0.85495 0.76606 0.0
C1741 C 0.68833 0.84702 0.81922 0.0
C1742 C 0.80086 0.84802 0.67812 0.0
C1743 C 0.79161 0.84576 0.70083 0.0
C1744 C 0.74168 0.82338 0.73521 0.0
C1745 C 0.72381 0.84224 0.7962 0.0
C1746 C 0.73566 0.84039 0.77292 0.0
C1747 C 0.76919 0.83761 0.70422 0.0
C1748 C 0.75793 0.8381 0.72816 0.0
H1749 H 0.73675 0.85352 0.85338 0.0
H1750 H 0.75582 0.84566 0.81604 0.0
H1751 H 0.71802 0.81317 0.76217 0.0
H1752 H 0.75655 0.82725 0.64642 0.0
H1753 H 0.73982 0.82408 0.68591 0.0
C1754 C 0.77706 0.16033 0.34719 0.0
C1755 C 0.80156 0.16043 0.34838 0.0
C1756 C 0.76562 0.16358 0.3257 0.0
C1757 C 0.76917 0.18408 0.2661 0.0
H1758 H 0.73167 0.13819 0.24797 0.0
C1759 C 0.73462 0.17333 0.17039 0.0
C1760 C 0.71463 0.16157 0.16674 0.0
C1761 C 0.74384 0.17577 0.19316 0.0
C1762 C 0.74152 0.15142 0.2528 0.0
H1763 H 0.83312 0.16547 0.32816 0.0
H1764 H 0.81294 0.17178 0.29065 0.0
H1765 H 0.75011 0.13888 0.28658 0.0
H1766 H 0.68776 0.14422 0.18415 0.0
H1767 H 0.70273 0.14957 0.22391 0.0
H1768 H 0.76015 0.19698 0.23266 0.0
C1769 C 0.80273 0.1689 0.3064 0.0
C1770 C 0.75227 0.15169 0.27496 0.0
C1771 C 0.81425 0.16527 0.32786 0.0
C1772 C 0.70328 0.15328 0.18643 0.0
C1773 C 0.71212 0.15614 0.20924 0.0
C1774 C 0.75795 0.18406 0.24405 0.0
C1775 C 0.77836 0.16742 0.305 0.0
C1776 C 0.76633 0.16792 0.28177 0.0
C1777 C 0.73301 0.16684 0.21292 0.0
C1778 C 0.74407 0.16762 0.23695 0.0
H1779 H 0.76666 0.15662 0.36255 0.0
H1780 H 0.7468 0.16247 0.3251 0.0
H1781 H 0.77988 0.19681 0.27102 0.0
H1782 H 0.74391 0.1797 0.15549 0.0
H1783 H 0.76006 0.1839 0.19499 0.0
C1784 C 0.71074 0.59694 0.33534 0.0
C1785 C 0.71443 0.61361 0.3502 0.0
C1786 C 0.7232 0.5948 0.3142 0.0
C1787 C 0.75215 0.6249 0.26873 0.0
H1788 H 0.77837 0.57421 0.2479 0.0
C1789 C 0.8077 0.61903 0.18365 0.0
C1790 C 0.80739 0.60111 0.17044 0.0
C1791 C 0.79602 0.62041 0.20531 0.0
C1792 C 0.77081 0.58843 0.25318 0.0
H1793 H 0.73462 0.64085 0.3547 0.0
H1794 H 0.75627 0.6372 0.31761 0.0
H1795 H 0.75999 0.57654 0.28672 0.0
H1796 H 0.79373 0.57078 0.16942 0.0
H1797 H 0.77256 0.57339 0.20676 0.0
H1798 H 0.76222 0.63674 0.23511 0.0
C1799 C 0.74369 0.62578 0.32241 0.0
C1800 C 0.76042 0.58977 0.27557 0.0
C1801 C 0.73145 0.62777 0.34377 0.0
C1802 C 0.79439 0.5848 0.17912 0.0
C1803 C 0.78245 0.58626 0.20072 0.0
C1804 C 0.76225 0.62351 0.24624 0.0
C1805 C 0.73945 0.60943 0.30721 0.0
C1806 C 0.75106 0.60804 0.28366 0.0
C1807 C 0.78339 0.60399 0.21435 0.0
C1808 C 0.77186 0.60527 0.23812 0.0
H1809 H 0.69773 0.58576 0.33973 0.0
H1810 H 0.71942 0.58209 0.30286 0.0
H1811 H 0.74471 0.63911 0.27425 0.0
H1812 H 0.8177 0.63187 0.17773 0.0
H1813 H 0.79758 0.63422 0.2153 0.0
C1814 C 0.70749 0.41242 0.68152 0.0
C1815 C 0.71136 0.39609 0.66619 0.0
C1816 C 0.71979 0.41411 0.70281 0.0
C1817 C 0.74858 0.38313 0.74758 0.0
H1818 H 0.77493 0.43333 0.76974 0.0
C1819 C 0.8045 0.38732 0.83258 0.0
C1820 C 0.80441 0.40506 0.84614 0.0
C1821 C 0.79258 0.38631 0.81103 0.0
C1822 C 0.76732 0.41925 0.76409 0.0
H1823 H 0.73167 0.36897 0.66105 0.0
H1824 H 0.75302 0.37184 0.6984 0.0
H1825 H 0.75655 0.43181 0.73088 0.0
H1826 H 0.79078 0.43539 0.84797 0.0
H1827 H 0.76919 0.43339 0.81085 0.0
H1828 H 0.75863 0.37062 0.78088 0.0
C1829 C 0.74044 0.38334 0.69385 0.0
C1830 C 0.75693 0.41837 0.74168 0.0
C1831 C 0.72837 0.3818 0.67235 0.0
C1832 C 0.79129 0.4215 0.83799 0.0
C1833 C 0.77911 0.42041 0.81651 0.0
C1834 C 0.75868 0.38406 0.77011 0.0
C1835 C 0.73604 0.39936 0.70948 0.0
C1836 C 0.74754 0.40027 0.73311 0.0
C1837 C 0.77994 0.40291 0.80246 0.0
C1838 C 0.76834 0.40211 0.7787 0.0
H1839 H 0.69449 0.42368 0.67735 0.0
H1840 H 0.71591 0.42658 0.71449 0.0
H1841 H 0.74112 0.36905 0.74167 0.0
H1842 H 0.81458 0.37439 0.83811 0.0
H1843 H 0.79404 0.37266 0.80072 0.0
C1844 C 0.27642 0.35015 0.66605 0.0
C1845 C 0.3009 0.35048 0.66469 0.0
C1846 C 0.26523 0.34601 0.68747 0.0
C1847 C 0.27066 0.32408 0.7466 0.0
H1848 H 0.23031 0.36774 0.7661 0.0
C1849 C 0.23775 0.33279 0.84325 0.0
C1850 C 0.21712 0.34357 0.84739 0.0
C1851 C 0.24646 0.33068 0.82021 0.0
C1852 C 0.24098 0.35509 0.76089 0.0
H1853 H 0.33273 0.34534 0.68444 0.0
H1854 H 0.31304 0.33756 0.72179 0.0
H1855 H 0.24809 0.36845 0.72721 0.0
H1856 H 0.18856 0.35937 0.83069 0.0
H1857 H 0.20269 0.35452 0.79053 0.0
H1858 H 0.26322 0.31042 0.78004 0.0
C1859 C 0.30262 0.34074 0.70626 0.0
C1860 C 0.25134 0.35563 0.73855 0.0
C1861 C 0.31387 0.34524 0.68489 0.0
C1862 C 0.20459 0.35107 0.82799 0.0
C1863 C 0.21294 0.34851 0.80496 0.0
C1864 C 0.25987 0.3233 0.76886 0.0
C1865 C 0.27822 0.34173 0.70791 0.0
C1866 C 0.26642 0.34024 0.73123 0.0
C1867 C 0.23447 0.33896 0.80073 0.0
C1868 C 0.245 0.33891 0.77645 0.0
H1869 H 0.26583 0.35416 0.65091 0.0
H1870 H 0.24639 0.34674 0.68824 0.0
H1871 H 0.28218 0.31198 0.74132 0.0
H1872 H 0.24793 0.32709 0.85793 0.0
H1873 H 0.26318 0.32341 0.81793 0.0
C1874 C 0.31569 0.66455 0.32055 0.0
C1875 C 0.30293 0.65951 0.34096 0.0
C1876 C 0.30421 0.66914 0.29932 0.0
C1877 C 0.25186 0.65506 0.26806 0.0
H1878 H 0.26449 0.69956 0.22577 0.0
C1879 C 0.20334 0.6601 0.17973 0.0
C1880 C 0.21581 0.66683 0.15992 0.0
C1881 C 0.21223 0.6628 0.20253 0.0
C1882 C 0.26091 0.68689 0.23719 0.0
H1883 H 0.26799 0.65635 0.35523 0.0
H1884 H 0.24816 0.66396 0.31821 0.0
H1885 H 0.28418 0.6978 0.26412 0.0
H1886 H 0.24705 0.68214 0.14837 0.0
H1887 H 0.26318 0.68609 0.18799 0.0
H1888 H 0.2298 0.64334 0.24112 0.0
C1889 C 0.26702 0.66442 0.31868 0.0
C1890 C 0.27213 0.68599 0.25923 0.0
C1891 C 0.27844 0.66016 0.33993 0.0
C1892 C 0.23691 0.67707 0.16339 0.0
C1893 C 0.24614 0.67932 0.1862 0.0
C1894 C 0.24104 0.65572 0.24595 0.0
C1895 C 0.27977 0.66847 0.29803 0.0
C1896 C 0.26763 0.67007 0.27489 0.0
C1897 C 0.23423 0.67171 0.2061 0.0
C1898 C 0.2453 0.67166 0.23012 0.0
H1899 H 0.33456 0.66422 0.32073 0.0
H1900 H 0.31446 0.67214 0.28363 0.0
H1901 H 0.24838 0.64241 0.2796 0.0
H1902 H 0.18698 0.65221 0.17753 0.0
H1903 H 0.20205 0.65734 0.2173 0.0
loop_
_geom_bond_atom_site_label_1
_geom_bond_atom_site_label_2
_geom_bond_distance
_geom_bond_site_symmetry_2
_ccdc_geom_bond_type
Co0 O2 2.143 . S
Co0 O8 2.074 . S
Co0 O11 2.093 . S
Co0 O24 2.097 . S
Co0 N41 2.151 . S
Co0 N49 2.214 . S
Co1 O2 2.160 . S
Co1 O7 2.058 . S
Co1 O17 2.057 . S
Co1 O32 2.037 . S
Co1 N36 2.145 . S
Co1 N57 2.257 . S
O2 Co0 2.143 . S
O2 Co1 2.160 . S
C3 O4 1.278 . S
C3 O11 1.224 . S
O4 C3 1.278 . S
C5 O6 1.245 . S
C5 O17 1.232 . S
O6 C5 1.245 . S
O7 Co1 2.058 . S
O7 C33 1.269 . S
O8 Co0 2.074 . S
O8 C33 1.257 . S
H9 C34 0.930 . S
H10 C40 0.930 . S
O11 Co0 2.093 . S
O11 C3 1.224 . S
H12 C44 0.929 . S
H13 C46 0.930 . S
H14 C47 0.930 . S
H15 C45 0.929 . S
H16 C48 0.928 . S
O17 Co1 2.057 . S
O17 C5 1.232 . S
H18 C37 0.929 . S
H19 C38 0.929 . S
H20 C50 0.931 . S
H21 C42 0.929 . S
H22 C51 0.930 . S
H23 C43 0.931 . S
O24 Co0 2.097 . S
O24 C52 1.214 . S
H25 C53 0.929 . S
H26 C54 0.929 . S
H27 C55 0.930 . S
H28 C56 0.929 . S
H29 C58 0.930 . S
H30 C35 0.930 . S
H31 C39 0.930 . S
O32 Co1 2.037 . S
O32 C52 1.234 . S
C33 O7 1.269 . S
C33 O8 1.257 . S
C34 H9 0.930 . S
C34 C37 1.388 . S
C34 C39 1.418 . S
C35 H30 0.930 . S
C35 C38 1.404 . S
C35 C39 1.353 . S
N36 Co1 2.145 . S
N36 C37 1.397 . S
N36 C38 1.334 . S
C37 H18 0.929 . S
C37 C34 1.388 . S
C37 N36 1.397 . S
C38 H19 0.929 . S
C38 C35 1.404 . S
C38 N36 1.334 . S
C39 H31 0.930 . S
C39 C34 1.418 . S
C39 C35 1.353 . S
C40 H10 0.930 . S
C40 N41 1.330 . S
C40 C42 1.446 . S
N41 Co0 2.151 . S
N41 C40 1.330 . S
N41 C45 1.418 . S
C42 H21 0.929 . S
C42 C40 1.446 . S
C42 C43 1.332 . S
C43 H23 0.931 . S
C43 C42 1.332 . S
C43 C44 1.267 . S
C44 H12 0.929 . S
C44 C43 1.267 . S
C44 C45 1.251 . S
C45 H15 0.929 . S
C45 N41 1.418 . S
C45 C44 1.251 . S
C46 H13 0.930 . S
C46 C48 1.406 1_556 S
C46 C51 1.261 . S
C47 H14 0.930 . S
C47 N49 1.325 . S
C47 C50 1.357 1_554 S
C48 H16 0.928 . S
C48 C46 1.406 1_554 S
C48 N49 1.261 . S
N49 Co0 2.214 . S
N49 C47 1.325 . S
N49 C48 1.261 . S
C50 H20 0.931 . S
C50 C47 1.357 1_556 S
C50 C51 1.312 . S
C51 H22 0.930 . S
C51 C46 1.261 . S
C51 C50 1.312 . S
C52 O24 1.214 . S
C52 O32 1.234 . S
C53 H25 0.929 . S
C53 C56 1.391 . S
C53 C58 1.391 . S
C54 H26 0.929 . S
C54 C55 1.390 . S
C54 N57 1.391 . S
C55 H27 0.930 . S
C55 C54 1.390 . S
C55 C56 1.392 . S
C56 H28 0.929 . S
C56 C53 1.391 . S
C56 C55 1.392 . S
N57 Co1 2.257 . S
N57 C54 1.391 . S
N57 C58 1.388 . S
C58 H29 0.930 . S
C58 C53 1.391 . S
C58 N57 1.388 . S
Co59 O61 2.143 . S
Co59 O67 2.074 . S
Co59 O70 2.093 . S
Co59 O83 2.097 . S
Co59 N100 2.151 . S
Co59 N108 2.214 . S
Co60 O61 2.160 . S
Co60 O66 2.058 . S
Co60 O76 2.057 . S
Co60 O91 2.037 . S
Co60 N95 2.145 . S
Co60 N116 2.257 . S
O61 Co59 2.143 . S
O61 Co60 2.160 . S
C62 O63 1.278 . S
C62 O70 1.224 . S
O63 C62 1.278 . S
C64 O65 1.245 . S
C64 O76 1.232 . S
O65 C64 1.245 . S
O66 Co60 2.058 . S
O66 C92 1.269 . S
O67 Co59 2.074 . S
O67 C92 1.257 . S
H68 C93 0.930 . S
H69 C99 0.930 . S
O70 Co59 2.093 . S
O70 C62 1.224 . S
H71 C103 0.929 . S
H72 C105 0.930 . S
H73 C106 0.930 . S
H74 C104 0.929 . S
H75 C107 0.928 . S
O76 Co60 2.057 . S
O76 C64 1.232 . S
H77 C96 0.929 . S
H78 C97 0.929 . S
H79 C109 0.931 . S
H80 C101 0.929 . S
H81 C110 0.930 . S
H82 C102 0.931 . S
O83 Co59 2.097 . S
O83 C111 1.214 . S
H84 C112 0.929 . S
H85 C113 0.929 . S
H86 C114 0.930 . S
H87 C115 0.929 . S
H88 C117 0.930 . S
H89 C94 0.930 . S
H90 C98 0.930 . S
O91 Co60 2.037 . S
O91 C111 1.234 . S
C92 O66 1.269 . S
C92 O67 1.257 . S
C93 H68 0.930 . S
C93 C96 1.388 . S
C93 C98 1.418 . S
C94 H89 0.930 . S
C94 C97 1.404 . S
C94 C98 1.353 . S
N95 Co60 2.145 . S
N95 C96 1.397 . S
N95 C97 1.334 . S
C96 H77 0.929 . S
C96 C93 1.388 . S
C96 N95 1.397 . S
C97 H78 0.929 . S
C97 C94 1.404 . S
C97 N95 1.334 . S
C98 H90 0.930 . S
C98 C93 1.418 . S
C98 C94 1.353 . S
C99 H69 0.930 . S
C99 N100 1.330 . S
C99 C101 1.446 . S
N100 Co59 2.151 . S
N100 C99 1.330 . S
N100 C104 1.418 . S
C101 H80 0.929 . S
C101 C99 1.446 . S
C101 C102 1.332 . S
C102 H82 0.931 . S
C102 C101 1.332 . S
C102 C103 1.267 . S
C103 H71 0.929 . S
C103 C102 1.267 . S
C103 C104 1.251 . S
C104 H74 0.929 . S
C104 N100 1.418 . S
C104 C103 1.251 . S
C105 H72 0.930 . S
C105 C107 1.406 . S
C105 C110 1.261 . S
C106 H73 0.930 . S
C106 N108 1.325 . S
C106 C109 1.357 . S
C107 H75 0.928 . S
C107 C105 1.406 . S
C107 N108 1.261 . S
N108 Co59 2.214 . S
N108 C106 1.325 . S
N108 C107 1.261 . S
C109 H79 0.931 . S
C109 C106 1.357 . S
C109 C110 1.312 . S
C110 H81 0.930 . S
C110 C105 1.261 . S
C110 C109 1.312 . S
C111 O83 1.214 . S
C111 O91 1.234 . S
C112 H84 0.929 . S
C112 C115 1.391 . S
C112 C117 1.391 . S
C113 H85 0.929 . S
C113 C114 1.390 . S
C113 N116 1.391 . S
C114 H86 0.930 . S
C114 C113 1.390 . S
C114 C115 1.392 . S
C115 H87 0.929 . S
C115 C112 1.391 . S
C115 C114 1.392 . S
N116 Co60 2.257 . S
N116 C113 1.391 . S
N116 C117 1.388 . S
C117 H88 0.930 . S
C117 C112 1.391 . S
C117 N116 1.388 . S
Co118 O120 2.143 . S
Co118 O126 2.074 . S
Co118 O129 2.093 . S
Co118 O142 2.097 . S
Co118 N159 2.151 . S
Co118 N167 2.214 . S
Co119 O120 2.160 . S
Co119 O125 2.058 . S
Co119 O135 2.057 . S
Co119 O150 2.037 . S
Co119 N154 2.145 . S
Co119 N175 2.257 . S
O120 Co118 2.143 . S
O120 Co119 2.160 . S
C121 O122 1.278 . S
C121 O129 1.224 . S
O122 C121 1.278 . S
C123 O124 1.245 . S
C123 O135 1.232 . S
O124 C123 1.245 . S
O125 Co119 2.058 . S
O125 C151 1.269 . S
O126 Co118 2.074 . S
O126 C151 1.257 . S
H127 C152 0.930 . S
H128 C158 0.930 . S
O129 Co118 2.093 . S
O129 C121 1.224 . S
H130 C162 0.929 . S
H131 C164 0.930 . S
H132 C165 0.930 . S
H133 C163 0.929 . S
H134 C166 0.928 . S
O135 Co119 2.057 . S
O135 C123 1.232 . S
H136 C155 0.929 . S
H137 C156 0.929 . S
H138 C168 0.931 . S
H139 C160 0.929 . S
H140 C169 0.930 . S
H141 C161 0.931 . S
O142 Co118 2.097 . S
O142 C170 1.214 . S
H143 C171 0.929 . S
H144 C172 0.929 . S
H145 C173 0.930 . S
H146 C174 0.929 . S
H147 C176 0.930 . S
H148 C153 0.930 . S
H149 C157 0.930 . S
O150 Co119 2.037 . S
O150 C170 1.234 . S
C151 O125 1.269 . S
C151 O126 1.257 . S
C152 H127 0.930 . S
C152 C155 1.388 . S
C152 C157 1.418 . S
C153 H148 0.930 . S
C153 C156 1.404 . S
C153 C157 1.353 . S
N154 Co119 2.145 . S
N154 C155 1.397 . S
N154 C156 1.334 . S
C155 H136 0.929 . S
C155 C152 1.388 . S
C155 N154 1.397 . S
C156 H137 0.929 . S
C156 C153 1.404 . S
C156 N154 1.334 . S
C157 H149 0.930 . S
C157 C152 1.418 . S
C157 C153 1.353 . S
C158 H128 0.930 . S
C158 N159 1.330 . S
C158 C160 1.446 . S
N159 Co118 2.151 . S
N159 C158 1.330 . S
N159 C163 1.418 . S
C160 H139 0.929 . S
C160 C158 1.446 . S
C160 C161 1.332 . S
C161 H141 0.931 . S
C161 C160 1.332 . S
C161 C162 1.267 . S
C162 H130 0.929 . S
C162 C161 1.267 . S
C162 C163 1.251 . S
C163 H133 0.929 . S
C163 N159 1.418 . S
C163 C162 1.251 . S
C164 H131 0.930 . S
C164 C166 1.406 1_554 S
C164 C169 1.261 . S
C165 H132 0.930 . S
C165 N167 1.325 . S
C165 C168 1.357 1_556 S
C166 H134 0.928 . S
C166 C164 1.406 1_556 S
C166 N167 1.261 . S
N167 Co118 2.214 . S
N167 C165 1.325 . S
N167 C166 1.261 . S
C168 H138 0.931 . S
C168 C165 1.357 1_554 S
C168 C169 1.312 . S
C169 H140 0.930 . S
C169 C164 1.261 . S
C169 C168 1.312 . S
C170 O142 1.214 . S
C170 O150 1.234 . S
C171 H143 0.929 . S
C171 C174 1.391 . S
C171 C176 1.391 . S
C172 H144 0.929 . S
C172 C173 1.390 . S
C172 N175 1.391 . S
C173 H145 0.930 . S
C173 C172 1.390 . S
C173 C174 1.392 . S
C174 H146 0.929 . S
C174 C171 1.391 . S
C174 C173 1.392 . S
N175 Co119 2.257 . S
N175 C172 1.391 . S
N175 C176 1.388 . S
C176 H147 0.930 . S
C176 C171 1.391 . S
C176 N175 1.388 . S
Co177 O179 2.143 . S
Co177 O185 2.074 . S
Co177 O188 2.093 . S
Co177 O201 2.097 . S
Co177 N218 2.151 . S
Co177 N226 2.214 . S
Co178 O179 2.160 . S
Co178 O184 2.058 . S
Co178 O194 2.057 . S
Co178 O209 2.037 . S
Co178 N213 2.145 . S
Co178 N234 2.257 . S
O179 Co177 2.143 . S
O179 Co178 2.160 . S
C180 O181 1.278 . S
C180 O188 1.224 . S
O181 C180 1.278 . S
C182 O183 1.245 . S
C182 O194 1.232 . S
O183 C182 1.245 . S
O184 Co178 2.058 . S
O184 C210 1.269 . S
O185 Co177 2.074 . S
O185 C210 1.257 . S
H186 C211 0.930 . S
H187 C217 0.930 . S
O188 Co177 2.093 . S
O188 C180 1.224 . S
H189 C221 0.929 . S
H190 C223 0.930 . S
H191 C224 0.930 . S
H192 C222 0.929 . S
H193 C225 0.928 . S
O194 Co178 2.057 . S
O194 C182 1.232 . S
H195 C214 0.929 . S
H196 C215 0.929 . S
H197 C227 0.931 . S
H198 C219 0.929 . S
H199 C228 0.930 . S
H200 C220 0.931 . S
O201 Co177 2.097 . S
O201 C229 1.214 . S
H202 C230 0.929 . S
H203 C231 0.929 . S
H204 C232 0.930 . S
H205 C233 0.929 . S
H206 C235 0.930 . S
H207 C212 0.930 . S
H208 C216 0.930 . S
O209 Co178 2.037 . S
O209 C229 1.234 . S
C210 O184 1.269 . S
C210 O185 1.257 . S
C211 H186 0.930 . S
C211 C214 1.388 . S
C211 C216 1.418 . S
C212 H207 0.930 . S
C212 C215 1.404 . S
C212 C216 1.353 . S
N213 Co178 2.145 . S
N213 C214 1.397 . S
N213 C215 1.334 . S
C214 H195 0.929 . S
C214 C211 1.388 . S
C214 N213 1.397 . S
C215 H196 0.929 . S
C215 C212 1.404 . S
C215 N213 1.334 . S
C216 H208 0.930 . S
C216 C211 1.418 . S
C216 C212 1.353 . S
C217 H187 0.930 . S
C217 N218 1.330 . S
C217 C219 1.446 . S
N218 Co177 2.151 . S
N218 C217 1.330 . S
N218 C222 1.418 . S
C219 H198 0.929 . S
C219 C217 1.446 . S
C219 C220 1.332 . S
C220 H200 0.931 . S
C220 C219 1.332 . S
C220 C221 1.267 . S
C221 H189 0.929 . S
C221 C220 1.267 . S
C221 C222 1.251 . S
C222 H192 0.929 . S
C222 N218 1.418 . S
C222 C221 1.251 . S
C223 H190 0.930 . S
C223 C225 1.406 . S
C223 C228 1.261 . S
C224 H191 0.930 . S
C224 N226 1.325 . S
C224 C227 1.357 . S
C225 H193 0.928 . S
C225 C223 1.406 . S
C225 N226 1.261 . S
N226 Co177 2.214 . S
N226 C224 1.325 . S
N226 C225 1.261 . S
C227 H197 0.931 . S
C227 C224 1.357 . S
C227 C228 1.312 . S
C228 H199 0.930 . S
C228 C223 1.261 . S
C228 C227 1.312 . S
C229 O201 1.214 . S
C229 O209 1.234 . S
C230 H202 0.929 . S
C230 C233 1.391 . S
C230 C235 1.391 . S
C231 H203 0.929 . S
C231 C232 1.390 . S
C231 N234 1.391 . S
C232 H204 0.930 . S
C232 C231 1.390 . S
C232 C233 1.392 . S
C233 H205 0.929 . S
C233 C230 1.391 . S
C233 C232 1.392 . S
N234 Co178 2.257 . S
N234 C231 1.391 . S
N234 C235 1.388 . S
C235 H206 0.930 . S
C235 C230 1.391 . S
C235 N234 1.388 . S
Co236 O238 2.143 . S
Co236 O244 2.074 . S
Co236 O247 2.093 . S
Co236 O260 2.097 . S
Co236 N277 2.151 . S
Co236 N285 2.214 . S
Co237 O238 2.160 . S
Co237 O243 2.058 . S
Co237 O253 2.057 . S
Co237 O268 2.037 . S
Co237 N272 2.145 . S
Co237 N293 2.257 . S
O238 Co236 2.143 . S
O238 Co237 2.160 . S
C239 O240 1.278 . S
C239 O247 1.224 . S
O240 C239 1.278 . S
C241 O242 1.245 . S
C241 O253 1.232 . S
O242 C241 1.245 . S
O243 Co237 2.058 . S
O243 C269 1.269 . S
O244 Co236 2.074 . S
O244 C269 1.257 . S
H245 C270 0.930 . S
H246 C276 0.930 . S
O247 Co236 2.093 . S
O247 C239 1.224 . S
H248 C280 0.929 . S
H249 C282 0.930 . S
H250 C283 0.930 . S
H251 C281 0.929 . S
H252 C284 0.928 . S
O253 Co237 2.057 . S
O253 C241 1.232 . S
H254 C273 0.929 . S
H255 C274 0.929 . S
H256 C286 0.931 . S
H257 C278 0.929 . S
H258 C287 0.930 . S
H259 C279 0.931 . S
O260 Co236 2.097 . S
O260 C288 1.214 . S
H261 C289 0.929 . S
H262 C290 0.929 . S
H263 C291 0.930 . S
H264 C292 0.929 . S
H265 C294 0.930 . S
H266 C271 0.930 . S
H267 C275 0.930 . S
O268 Co237 2.037 . S
O268 C288 1.234 . S
C269 O243 1.269 . S
C269 O244 1.257 . S
C270 H245 0.930 . S
C270 C273 1.388 1_554 S
C270 C275 1.418 . S
C271 H266 0.930 . S
C271 C274 1.404 1_554 S
C271 C275 1.353 . S
N272 Co237 2.145 . S
N272 C273 1.397 . S
N272 C274 1.334 . S
C273 H254 0.929 . S
C273 C270 1.388 1_556 S
C273 N272 1.397 . S
C274 H255 0.929 . S
C274 C271 1.404 1_556 S
C274 N272 1.334 . S
C275 H267 0.930 . S
C275 C270 1.418 . S
C275 C271 1.353 . S
C276 H246 0.930 . S
C276 N277 1.330 . S
C276 C278 1.446 . S
N277 Co236 2.151 . S
N277 C276 1.330 . S
N277 C281 1.418 . S
C278 H257 0.929 . S
C278 C276 1.446 . S
C278 C279 1.332 . S
C279 H259 0.931 . S
C279 C278 1.332 . S
C279 C280 1.267 . S
C280 H248 0.929 . S
C280 C279 1.267 . S
C280 C281 1.251 . S
C281 H251 0.929 . S
C281 N277 1.418 . S
C281 C280 1.251 . S
C282 H249 0.930 . S
C282 C284 1.406 . S
C282 C287 1.261 . S
C283 H250 0.930 . S
C283 N285 1.325 . S
C283 C286 1.357 . S
C284 H252 0.928 . S
C284 C282 1.406 . S
C284 N285 1.261 . S
N285 Co236 2.214 . S
N285 C283 1.325 . S
N285 C284 1.261 . S
C286 H256 0.931 . S
C286 C283 1.357 . S
C286 C287 1.312 . S
C287 H258 0.930 . S
C287 C282 1.261 . S
C287 C286 1.312 . S
C288 O260 1.214 . S
C288 O268 1.234 . S
C289 H261 0.929 . S
C289 C292 1.391 . S
C289 C294 1.391 . S
C290 H262 0.929 . S
C290 C291 1.390 . S
C290 N293 1.391 . S
C291 H263 0.930 . S
C291 C290 1.390 . S
C291 C292 1.392 . S
C292 H264 0.929 . S
C292 C289 1.391 . S
C292 C291 1.392 . S
N293 Co237 2.257 . S
N293 C290 1.391 . S
N293 C294 1.388 . S
C294 H265 0.930 . S
C294 C289 1.391 . S
C294 N293 1.388 . S
Co295 O297 2.143 . S
Co295 O303 2.074 . S
Co295 O306 2.093 . S
Co295 O319 2.097 . S
Co295 N336 2.151 . S
Co295 N344 2.214 . S
Co296 O297 2.160 . S
Co296 O302 2.058 . S
Co296 O312 2.057 . S
Co296 O327 2.037 . S
Co296 N331 2.145 . S
Co296 N352 2.257 . S
O297 Co295 2.143 . S
O297 Co296 2.160 . S
C298 O299 1.278 . S
C298 O306 1.224 . S
O299 C298 1.278 . S
C300 O301 1.245 . S
C300 O312 1.232 . S
O301 C300 1.245 . S
O302 Co296 2.058 . S
O302 C328 1.269 . S
O303 Co295 2.074 . S
O303 C328 1.257 . S
H304 C329 0.930 . S
H305 C335 0.930 . S
O306 Co295 2.093 . S
O306 C298 1.224 . S
H307 C339 0.929 . S
H308 C341 0.930 . S
H309 C342 0.930 . S
H310 C340 0.929 . S
H311 C343 0.928 . S
O312 Co296 2.057 . S
O312 C300 1.232 . S
H313 C332 0.929 . S
H314 C333 0.929 . S
H315 C345 0.931 . S
H316 C337 0.929 . S
H317 C346 0.930 . S
H318 C338 0.931 . S
O319 Co295 2.097 . S
O319 C347 1.214 . S
H320 C348 0.929 . S
H321 C349 0.929 . S
H322 C350 0.930 . S
H323 C351 0.929 . S
H324 C353 0.930 . S
H325 C330 0.930 . S
H326 C334 0.930 . S
O327 Co296 2.037 . S
O327 C347 1.234 . S
C328 O302 1.269 . S
C328 O303 1.257 . S
C329 H304 0.930 . S
C329 C332 1.388 . S
C329 C334 1.418 . S
C330 H325 0.930 . S
C330 C333 1.404 . S
C330 C334 1.353 . S
N331 Co296 2.145 . S
N331 C332 1.397 . S
N331 C333 1.334 . S
C332 H313 0.929 . S
C332 C329 1.388 . S
C332 N331 1.397 . S
C333 H314 0.929 . S
C333 C330 1.404 . S
C333 N331 1.334 . S
C334 H326 0.930 . S
C334 C329 1.418 . S
C334 C330 1.353 . S
C335 H305 0.930 . S
C335 N336 1.330 . S
C335 C337 1.446 . S
N336 Co295 2.151 . S
N336 C335 1.330 . S
N336 C340 1.418 . S
C337 H316 0.929 . S
C337 C335 1.446 . S
C337 C338 1.332 . S
C338 H318 0.931 . S
C338 C337 1.332 . S
C338 C339 1.267 . S
C339 H307 0.929 . S
C339 C338 1.267 . S
C339 C340 1.251 . S
C340 H310 0.929 . S
C340 N336 1.418 . S
C340 C339 1.251 . S
C341 H308 0.930 . S
C341 C343 1.406 . S
C341 C346 1.261 . S
C342 H309 0.930 . S
C342 N344 1.325 . S
C342 C345 1.357 . S
C343 H311 0.928 . S
C343 C341 1.406 . S
C343 N344 1.261 . S
N344 Co295 2.214 . S
N344 C342 1.325 . S
N344 C343 1.261 . S
C345 H315 0.931 . S
C345 C342 1.357 . S
C345 C346 1.312 . S
C346 H317 0.930 . S
C346 C341 1.261 . S
C346 C345 1.312 . S
C347 O319 1.214 . S
C347 O327 1.234 . S
C348 H320 0.929 . S
C348 C351 1.391 . S
C348 C353 1.391 . S
C349 H321 0.929 . S
C349 C350 1.390 . S
C349 N352 1.391 . S
C350 H322 0.930 . S
C350 C349 1.390 . S
C350 C351 1.392 . S
C351 H323 0.929 . S
C351 C348 1.391 . S
C351 C350 1.392 . S
N352 Co296 2.257 . S
N352 C349 1.391 . S
N352 C353 1.388 . S
C353 H324 0.930 . S
C353 C348 1.391 . S
C353 N352 1.388 . S
Co354 O356 2.143 . S
Co354 O362 2.074 . S
Co354 O365 2.093 . S
Co354 O378 2.097 . S
Co354 N395 2.151 . S
Co354 N403 2.214 . S
Co355 O356 2.160 . S
Co355 O361 2.058 . S
Co355 O371 2.057 . S
Co355 O386 2.037 . S
Co355 N390 2.145 . S
Co355 N411 2.257 . S
O356 Co354 2.143 . S
O356 Co355 2.160 . S
C357 O358 1.278 . S
C357 O365 1.224 . S
O358 C357 1.278 . S
C359 O360 1.245 . S
C359 O371 1.232 . S
O360 C359 1.245 . S
O361 Co355 2.058 . S
O361 C387 1.269 . S
O362 Co354 2.074 . S
O362 C387 1.257 . S
H363 C388 0.930 . S
H364 C394 0.930 . S
O365 Co354 2.093 . S
O365 C357 1.224 . S
H366 C398 0.929 . S
H367 C400 0.930 . S
H368 C401 0.930 . S
H369 C399 0.929 . S
H370 C402 0.928 . S
O371 Co355 2.057 . S
O371 C359 1.232 . S
H372 C391 0.929 . S
H373 C392 0.929 . S
H374 C404 0.931 . S
H375 C396 0.929 . S
H376 C405 0.930 . S
H377 C397 0.931 . S
O378 Co354 2.097 . S
O378 C406 1.214 . S
H379 C407 0.929 . S
H380 C408 0.929 . S
H381 C409 0.930 . S
H382 C410 0.929 . S
H383 C412 0.930 . S
H384 C389 0.930 . S
H385 C393 0.930 . S
O386 Co355 2.037 . S
O386 C406 1.234 . S
C387 O361 1.269 . S
C387 O362 1.257 . S
C388 H363 0.930 . S
C388 C391 1.388 1_556 S
C388 C393 1.418 . S
C389 H384 0.930 . S
C389 C392 1.404 1_556 S
C389 C393 1.353 . S
N390 Co355 2.145 . S
N390 C391 1.397 . S
N390 C392 1.334 . S
C391 H372 0.929 . S
C391 C388 1.388 1_554 S
C391 N390 1.397 . S
C392 H373 0.929 . S
C392 C389 1.404 1_554 S
C392 N390 1.334 . S
C393 H385 0.930 . S
C393 C388 1.418 . S
C393 C389 1.353 . S
C394 H364 0.930 . S
C394 N395 1.330 . S
C394 C396 1.446 . S
N395 Co354 2.151 . S
N395 C394 1.330 . S
N395 C399 1.418 . S
C396 H375 0.929 . S
C396 C394 1.446 . S
C396 C397 1.332 . S
C397 H377 0.931 . S
C397 C396 1.332 . S
C397 C398 1.267 . S
C398 H366 0.929 . S
C398 C397 1.267 . S
C398 C399 1.251 . S
C399 H369 0.929 . S
C399 N395 1.418 . S
C399 C398 1.251 . S
C400 H367 0.930 . S
C400 C402 1.406 . S
C400 C405 1.261 . S
C401 H368 0.930 . S
C401 N403 1.325 . S
C401 C404 1.357 . S
C402 H370 0.928 . S
C402 C400 1.406 . S
C402 N403 1.261 . S
N403 Co354 2.214 . S
N403 C401 1.325 . S
N403 C402 1.261 . S
C404 H374 0.931 . S
C404 C401 1.357 . S
C404 C405 1.312 . S
C405 H376 0.930 . S
C405 C400 1.261 . S
C405 C404 1.312 . S
C406 O378 1.214 . S
C406 O386 1.234 . S
C407 H379 0.929 . S
C407 C410 1.391 . S
C407 C412 1.391 . S
C408 H380 0.929 . S
C408 C409 1.390 . S
C408 N411 1.391 . S
C409 H381 0.930 . S
C409 C408 1.390 . S
C409 C410 1.392 . S
C410 H382 0.929 . S
C410 C407 1.391 . S
C410 C409 1.392 . S
N411 Co355 2.257 . S
N411 C408 1.391 . S
N411 C412 1.388 . S
C412 H383 0.930 . S
C412 C407 1.391 . S
C412 N411 1.388 . S
Co413 O415 2.143 . S
Co413 O421 2.074 . S
Co413 O424 2.093 . S
Co413 O437 2.097 . S
Co413 N454 2.151 . S
Co413 N462 2.214 . S
Co414 O415 2.160 . S
Co414 O420 2.058 . S
Co414 O430 2.057 . S
Co414 O445 2.037 . S
Co414 N449 2.145 . S
Co414 N470 2.257 . S
O415 Co413 2.143 . S
O415 Co414 2.160 . S
C416 O417 1.278 . S
C416 O424 1.224 . S
O417 C416 1.278 . S
C418 O419 1.245 . S
C418 O430 1.232 . S
O419 C418 1.245 . S
O420 Co414 2.058 . S
O420 C446 1.269 . S
O421 Co413 2.074 . S
O421 C446 1.257 . S
H422 C447 0.930 . S
H423 C453 0.930 . S
O424 Co413 2.093 . S
O424 C416 1.224 . S
H425 C457 0.929 . S
H426 C459 0.930 . S
H427 C460 0.930 . S
H428 C458 0.929 . S
H429 C461 0.928 . S
O430 Co414 2.057 . S
O430 C418 1.232 . S
H431 C450 0.929 . S
H432 C451 0.929 . S
H433 C463 0.931 . S
H434 C455 0.929 . S
H435 C464 0.930 . S
H436 C456 0.931 . S
O437 Co413 2.097 . S
O437 C465 1.214 . S
H438 C466 0.929 . S
H439 C467 0.929 . S
H440 C468 0.930 . S
H441 C469 0.929 . S
H442 C471 0.930 . S
H443 C448 0.930 . S
H444 C452 0.930 . S
O445 Co414 2.037 . S
O445 C465 1.234 . S
C446 O420 1.269 . S
C446 O421 1.257 . S
C447 H422 0.930 . S
C447 C450 1.388 . S
C447 C452 1.418 . S
C448 H443 0.930 . S
C448 C451 1.404 . S
C448 C452 1.353 . S
N449 Co414 2.145 . S
N449 C450 1.397 . S
N449 C451 1.334 . S
C450 H431 0.929 . S
C450 C447 1.388 . S
C450 N449 1.397 . S
C451 H432 0.929 . S
C451 C448 1.404 . S
C451 N449 1.334 . S
C452 H444 0.930 . S
C452 C447 1.418 . S
C452 C448 1.353 . S
C453 H423 0.930 . S
C453 N454 1.330 . S
C453 C455 1.446 . S
N454 Co413 2.151 . S
N454 C453 1.330 . S
N454 C458 1.418 . S
C455 H434 0.929 . S
C455 C453 1.446 . S
C455 C456 1.332 . S
C456 H436 0.931 . S
C456 C455 1.332 . S
C456 C457 1.267 . S
C457 H425 0.929 . S
C457 C456 1.267 . S
C457 C458 1.251 . S
C458 H428 0.929 . S
C458 N454 1.418 . S
C458 C457 1.251 . S
C459 H426 0.930 . S
C459 C461 1.406 . S
C459 C464 1.261 . S
C460 H427 0.930 . S
C460 N462 1.325 . S
C460 C463 1.357 . S
C461 H429 0.928 . S
C461 C459 1.406 . S
C461 N462 1.261 . S
N462 Co413 2.214 . S
N462 C460 1.325 . S
N462 C461 1.261 . S
C463 H433 0.931 . S
C463 C460 1.357 . S
C463 C464 1.312 . S
C464 H435 0.930 . S
C464 C459 1.261 . S
C464 C463 1.312 . S
C465 O437 1.214 . S
C465 O445 1.234 . S
C466 H438 0.929 . S
C466 C469 1.391 . S
C466 C471 1.391 . S
C467 H439 0.929 . S
C467 C468 1.390 . S
C467 N470 1.391 . S
C468 H440 0.930 . S
C468 C467 1.390 . S
C468 C469 1.392 . S
C469 H441 0.929 . S
C469 C466 1.391 . S
C469 C468 1.392 . S
N470 Co414 2.257 . S
N470 C467 1.391 . S
N470 C471 1.388 . S
C471 H442 0.930 . S
C471 C466 1.391 . S
C471 N470 1.388 . S
Co472 O474 2.143 . S
Co472 O480 2.074 . S
Co472 O483 2.093 . S
Co472 O496 2.097 . S
Co472 N513 2.151 . S
Co472 N521 2.214 . S
Co473 O474 2.160 . S
Co473 O479 2.058 . S
Co473 O489 2.057 . S
Co473 O504 2.037 . S
Co473 N508 2.145 . S
Co473 N529 2.257 . S
O474 Co472 2.143 . S
O474 Co473 2.160 . S
C475 O476 1.278 . S
C475 O483 1.224 . S
O476 C475 1.278 . S
C477 O478 1.245 . S
C477 O489 1.232 . S
O478 C477 1.245 . S
O479 Co473 2.058 . S
O479 C505 1.269 . S
O480 Co472 2.074 . S
O480 C505 1.257 . S
H481 C506 0.930 . S
H482 C512 0.930 . S
O483 Co472 2.093 . S
O483 C475 1.224 . S
H484 C516 0.929 . S
H485 C518 0.930 . S
H486 C519 0.930 . S
H487 C517 0.929 . S
H488 C520 0.928 . S
O489 Co473 2.057 . S
O489 C477 1.232 . S
H490 C509 0.929 . S
H491 C510 0.929 . S
H492 C522 0.931 . S
H493 C514 0.929 . S
H494 C523 0.930 . S
H495 C515 0.931 . S
O496 Co472 2.097 . S
O496 C524 1.214 . S
H497 C525 0.929 . S
H498 C526 0.929 . S
H499 C527 0.930 . S
H500 C528 0.929 . S
H501 C530 0.930 . S
H502 C507 0.930 . S
H503 C511 0.930 . S
O504 Co473 2.037 . S
O504 C524 1.234 . S
C505 O479 1.269 . S
C505 O480 1.257 . S
C506 H481 0.930 . S
C506 C509 1.388 . S
C506 C511 1.418 . S
C507 H502 0.930 . S
C507 C510 1.404 . S
C507 C511 1.353 . S
N508 Co473 2.145 . S
N508 C509 1.397 . S
N508 C510 1.334 . S
C509 H490 0.929 . S
C509 C506 1.388 . S
C509 N508 1.397 . S
C510 H491 0.929 . S
C510 C507 1.404 . S
C510 N508 1.334 . S
C511 H503 0.930 . S
C511 C506 1.418 . S
C511 C507 1.353 . S
C512 H482 0.930 . S
C512 N513 1.330 . S
C512 C514 1.446 . S
N513 Co472 2.151 . S
N513 C512 1.330 . S
N513 C517 1.418 . S
C514 H493 0.929 . S
C514 C512 1.446 . S
C514 C515 1.332 . S
C515 H495 0.931 . S
C515 C514 1.332 . S
C515 C516 1.267 . S
C516 H484 0.929 . S
C516 C515 1.267 . S
C516 C517 1.251 . S
C517 H487 0.929 . S
C517 N513 1.418 . S
C517 C516 1.251 . S
C518 H485 0.930 . S
C518 C520 1.406 1_556 S
C518 C523 1.261 . S
C519 H486 0.930 . S
C519 N521 1.325 . S
C519 C522 1.357 1_554 S
C520 H488 0.928 . S
C520 C518 1.406 1_554 S
C520 N521 1.261 . S
N521 Co472 2.214 . S
N521 C519 1.325 . S
N521 C520 1.261 . S
C522 H492 0.931 . S
C522 C519 1.357 1_556 S
C522 C523 1.312 . S
C523 H494 0.930 . S
C523 C518 1.261 . S
C523 C522 1.312 . S
C524 O496 1.214 . S
C524 O504 1.234 . S
C525 H497 0.929 . S
C525 C528 1.391 . S
C525 C530 1.391 . S
C526 H498 0.929 . S
C526 C527 1.390 . S
C526 N529 1.391 . S
C527 H499 0.930 . S
C527 C526 1.390 . S
C527 C528 1.392 . S
C528 H500 0.929 . S
C528 C525 1.391 . S
C528 C527 1.392 . S
N529 Co473 2.257 . S
N529 C526 1.391 . S
N529 C530 1.388 . S
C530 H501 0.930 . S
C530 C525 1.391 . S
C530 N529 1.388 . S
Co531 O533 2.143 . S
Co531 O539 2.074 . S
Co531 O542 2.093 . S
Co531 O555 2.097 . S
Co531 N572 2.151 . S
Co531 N580 2.214 . S
Co532 O533 2.160 . S
Co532 O538 2.058 . S
Co532 O548 2.057 . S
Co532 O563 2.037 . S
Co532 N567 2.145 . S
Co532 N588 2.257 . S
O533 Co531 2.143 . S
O533 Co532 2.160 . S
C534 O535 1.278 . S
C534 O542 1.224 . S
O535 C534 1.278 . S
C536 O537 1.245 . S
C536 O548 1.232 . S
O537 C536 1.245 . S
O538 Co532 2.058 . S
O538 C564 1.269 . S
O539 Co531 2.074 . S
O539 C564 1.257 . S
H540 C565 0.930 . S
H541 C571 0.930 . S
O542 Co531 2.093 . S
O542 C534 1.224 . S
H543 C575 0.929 . S
H544 C577 0.930 . S
H545 C578 0.930 . S
H546 C576 0.929 . S
H547 C579 0.928 . S
O548 Co532 2.057 . S
O548 C536 1.232 . S
H549 C568 0.929 . S
H550 C569 0.929 . S
H551 C581 0.931 . S
H552 C573 0.929 . S
H553 C582 0.930 . S
H554 C574 0.931 . S
O555 Co531 2.097 . S
O555 C583 1.214 . S
H556 C584 0.929 . S
H557 C585 0.929 . S
H558 C586 0.930 . S
H559 C587 0.929 . S
H560 C589 0.930 . S
H561 C566 0.930 . S
H562 C570 0.930 . S
O563 Co532 2.037 . S
O563 C583 1.234 . S
C564 O538 1.269 . S
C564 O539 1.257 . S
C565 H540 0.930 . S
C565 C568 1.388 . S
C565 C570 1.418 . S
C566 H561 0.930 . S
C566 C569 1.404 . S
C566 C570 1.353 . S
N567 Co532 2.145 . S
N567 C568 1.397 . S
N567 C569 1.334 . S
C568 H549 0.929 . S
C568 C565 1.388 . S
C568 N567 1.397 . S
C569 H550 0.929 . S
C569 C566 1.404 . S
C569 N567 1.334 . S
C570 H562 0.930 . S
C570 C565 1.418 . S
C570 C566 1.353 . S
C571 H541 0.930 . S
C571 N572 1.330 . S
C571 C573 1.446 . S
N572 Co531 2.151 . S
N572 C571 1.330 . S
N572 C576 1.418 . S
C573 H552 0.929 . S
C573 C571 1.446 . S
C573 C574 1.332 . S
C574 H554 0.931 . S
C574 C573 1.332 . S
C574 C575 1.267 . S
C575 H543 0.929 . S
C575 C574 1.267 . S
C575 C576 1.251 . S
C576 H546 0.929 . S
C576 N572 1.418 . S
C576 C575 1.251 . S
C577 H544 0.930 . S
C577 C579 1.406 . S
C577 C582 1.261 . S
C578 H545 0.930 . S
C578 N580 1.325 . S
C578 C581 1.357 . S
C579 H547 0.928 . S
C579 C577 1.406 . S
C579 N580 1.261 . S
N580 Co531 2.214 . S
N580 C578 1.325 . S
N580 C579 1.261 . S
C581 H551 0.931 . S
C581 C578 1.357 . S
C581 C582 1.312 . S
C582 H553 0.930 . S
C582 C577 1.261 . S
C582 C581 1.312 . S
C583 O555 1.214 . S
C583 O563 1.234 . S
C584 H556 0.929 . S
C584 C587 1.391 . S
C584 C589 1.391 . S
C585 H557 0.929 . S
C585 C586 1.390 . S
C585 N588 1.391 . S
C586 H558 0.930 . S
C586 C585 1.390 . S
C586 C587 1.392 . S
C587 H559 0.929 . S
C587 C584 1.391 . S
C587 C586 1.392 . S
N588 Co532 2.257 . S
N588 C585 1.391 . S
N588 C589 1.388 . S
C589 H560 0.930 . S
C589 C584 1.391 . S
C589 N588 1.388 . S
Co590 O592 2.143 . S
Co590 O598 2.074 . S
Co590 O601 2.093 . S
Co590 O614 2.097 . S
Co590 N631 2.151 . S
Co590 N639 2.214 . S
Co591 O592 2.160 . S
Co591 O597 2.058 . S
Co591 O607 2.057 . S
Co591 O622 2.037 . S
Co591 N626 2.145 . S
Co591 N647 2.257 . S
O592 Co590 2.143 . S
O592 Co591 2.160 . S
C593 O594 1.278 . S
C593 O601 1.224 . S
O594 C593 1.278 . S
C595 O596 1.245 . S
C595 O607 1.232 . S
O596 C595 1.245 . S
O597 Co591 2.058 . S
O597 C623 1.269 . S
O598 Co590 2.074 . S
O598 C623 1.257 . S
H599 C624 0.930 . S
H600 C630 0.930 . S
O601 Co590 2.093 . S
O601 C593 1.224 . S
H602 C634 0.929 . S
H603 C636 0.930 . S
H604 C637 0.930 . S
H605 C635 0.929 . S
H606 C638 0.928 . S
O607 Co591 2.057 . S
O607 C595 1.232 . S
H608 C627 0.929 . S
H609 C628 0.929 . S
H610 C640 0.931 . S
H611 C632 0.929 . S
H612 C641 0.930 . S
H613 C633 0.931 . S
O614 Co590 2.097 . S
O614 C642 1.214 . S
H615 C643 0.929 . S
H616 C644 0.929 . S
H617 C645 0.930 . S
H618 C646 0.929 . S
H619 C648 0.930 . S
H620 C625 0.930 . S
H621 C629 0.930 . S
O622 Co591 2.037 . S
O622 C642 1.234 . S
C623 O597 1.269 . S
C623 O598 1.257 . S
C624 H599 0.930 . S
C624 C627 1.388 . S
C624 C629 1.418 . S
C625 H620 0.930 . S
C625 C628 1.404 . S
C625 C629 1.353 . S
N626 Co591 2.145 . S
N626 C627 1.397 . S
N626 C628 1.334 . S
C627 H608 0.929 . S
C627 C624 1.388 . S
C627 N626 1.397 . S
C628 H609 0.929 . S
C628 C625 1.404 . S
C628 N626 1.334 . S
C629 H621 0.930 . S
C629 C624 1.418 . S
C629 C625 1.353 . S
C630 H600 0.930 . S
C630 N631 1.330 . S
C630 C632 1.446 . S
N631 Co590 2.151 . S
N631 C630 1.330 . S
N631 C635 1.418 . S
C632 H611 0.929 . S
C632 C630 1.446 . S
C632 C633 1.332 . S
C633 H613 0.931 . S
C633 C632 1.332 . S
C633 C634 1.267 . S
C634 H602 0.929 . S
C634 C633 1.267 . S
C634 C635 1.251 . S
C635 H605 0.929 . S
C635 N631 1.418 . S
C635 C634 1.251 . S
C636 H603 0.930 . S
C636 C638 1.406 1_554 S
C636 C641 1.261 . S
C637 H604 0.930 . S
C637 N639 1.325 . S
C637 C640 1.357 1_556 S
C638 H606 0.928 . S
C638 C636 1.406 1_556 S
C638 N639 1.261 . S
N639 Co590 2.214 . S
N639 C637 1.325 . S
N639 C638 1.261 . S
C640 H610 0.931 . S
C640 C637 1.357 1_554 S
C640 C641 1.312 . S
C641 H612 0.930 . S
C641 C636 1.261 . S
C641 C640 1.312 . S
C642 O614 1.214 . S
C642 O622 1.234 . S
C643 H615 0.929 . S
C643 C646 1.391 . S
C643 C648 1.391 . S
C644 H616 0.929 . S
C644 C645 1.390 . S
C644 N647 1.391 . S
C645 H617 0.930 . S
C645 C644 1.390 . S
C645 C646 1.392 . S
C646 H618 0.929 . S
C646 C643 1.391 . S
C646 C645 1.392 . S
N647 Co591 2.257 . S
N647 C644 1.391 . S
N647 C648 1.388 . S
C648 H619 0.930 . S
C648 C643 1.391 . S
C648 N647 1.388 . S
Co649 O651 2.143 . S
Co649 O657 2.074 . S
Co649 O660 2.093 . S
Co649 O673 2.097 . S
Co649 N690 2.151 . S
Co649 N698 2.214 . S
Co650 O651 2.160 . S
Co650 O656 2.058 . S
Co650 O666 2.057 . S
Co650 O681 2.037 . S
Co650 N685 2.145 . S
Co650 N706 2.257 . S
O651 Co649 2.143 . S
O651 Co650 2.160 . S
C652 O653 1.278 . S
C652 O660 1.224 . S
O653 C652 1.278 . S
C654 O655 1.245 . S
C654 O666 1.232 . S
O655 C654 1.245 . S
O656 Co650 2.058 . S
O656 C682 1.269 . S
O657 Co649 2.074 . S
O657 C682 1.257 . S
H658 C683 0.930 . S
H659 C689 0.930 . S
O660 Co649 2.093 . S
O660 C652 1.224 . S
H661 C693 0.929 . S
H662 C695 0.930 . S
H663 C696 0.930 . S
H664 C694 0.929 . S
H665 C697 0.928 . S
O666 Co650 2.057 . S
O666 C654 1.232 . S
H667 C686 0.929 . S
H668 C687 0.929 . S
H669 C699 0.931 . S
H670 C691 0.929 . S
H671 C700 0.930 . S
H672 C692 0.931 . S
O673 Co649 2.097 . S
O673 C701 1.214 . S
H674 C702 0.929 . S
H675 C703 0.929 . S
H676 C704 0.930 . S
H677 C705 0.929 . S
H678 C707 0.930 . S
H679 C684 0.930 . S
H680 C688 0.930 . S
O681 Co650 2.037 . S
O681 C701 1.234 . S
C682 O656 1.269 . S
C682 O657 1.257 . S
C683 H658 0.930 . S
C683 C686 1.388 . S
C683 C688 1.418 . S
C684 H679 0.930 . S
C684 C687 1.404 . S
C684 C688 1.353 . S
N685 Co650 2.145 . S
N685 C686 1.397 . S
N685 C687 1.334 . S
C686 H667 0.929 . S
C686 C683 1.388 . S
C686 N685 1.397 . S
C687 H668 0.929 . S
C687 C684 1.404 . S
C687 N685 1.334 . S
C688 H680 0.930 . S
C688 C683 1.418 . S
C688 C684 1.353 . S
C689 H659 0.930 . S
C689 N690 1.330 . S
C689 C691 1.446 . S
N690 Co649 2.151 . S
N690 C689 1.330 . S
N690 C694 1.418 . S
C691 H670 0.929 . S
C691 C689 1.446 . S
C691 C692 1.332 . S
C692 H672 0.931 . S
C692 C691 1.332 . S
C692 C693 1.267 . S
C693 H661 0.929 . S
C693 C692 1.267 . S
C693 C694 1.251 . S
C694 H664 0.929 . S
C694 N690 1.418 . S
C694 C693 1.251 . S
C695 H662 0.930 . S
C695 C697 1.406 . S
C695 C700 1.261 . S
C696 H663 0.930 . S
C696 N698 1.325 . S
C696 C699 1.357 . S
C697 H665 0.928 . S
C697 C695 1.406 . S
C697 N698 1.261 . S
N698 Co649 2.214 . S
N698 C696 1.325 . S
N698 C697 1.261 . S
C699 H669 0.931 . S
C699 C696 1.357 . S
C699 C700 1.312 . S
C700 H671 0.930 . S
C700 C695 1.261 . S
C700 C699 1.312 . S
C701 O673 1.214 . S
C701 O681 1.234 . S
C702 H674 0.929 . S
C702 C705 1.391 . S
C702 C707 1.391 . S
C703 H675 0.929 . S
C703 C704 1.390 . S
C703 N706 1.391 . S
C704 H676 0.930 . S
C704 C703 1.390 . S
C704 C705 1.392 . S
C705 H677 0.929 . S
C705 C702 1.391 . S
C705 C704 1.392 . S
N706 Co650 2.257 . S
N706 C703 1.391 . S
N706 C707 1.388 . S
C707 H678 0.930 . S
C707 C702 1.391 . S
C707 N706 1.388 . S
Co708 O710 2.143 . S
Co708 O716 2.074 . S
Co708 O719 2.093 . S
Co708 O732 2.097 . S
Co708 N749 2.151 . S
Co708 N757 2.214 . S
Co709 O710 2.160 . S
Co709 O715 2.058 . S
Co709 O725 2.057 . S
Co709 O740 2.037 . S
Co709 N744 2.145 . S
Co709 N765 2.257 . S
O710 Co708 2.143 . S
O710 Co709 2.160 . S
C711 O712 1.278 . S
C711 O719 1.224 . S
O712 C711 1.278 . S
C713 O714 1.245 . S
C713 O725 1.232 . S
O714 C713 1.245 . S
O715 Co709 2.058 . S
O715 C741 1.269 . S
O716 Co708 2.074 . S
O716 C741 1.257 . S
H717 C742 0.930 . S
H718 C748 0.930 . S
O719 Co708 2.093 . S
O719 C711 1.224 . S
H720 C752 0.929 . S
H721 C754 0.930 . S
H722 C755 0.930 . S
H723 C753 0.929 . S
H724 C756 0.928 . S
O725 Co709 2.057 . S
O725 C713 1.232 . S
H726 C745 0.929 . S
H727 C746 0.929 . S
H728 C758 0.931 . S
H729 C750 0.929 . S
H730 C759 0.930 . S
H731 C751 0.931 . S
O732 Co708 2.097 . S
O732 C760 1.214 . S
H733 C761 0.929 . S
H734 C762 0.929 . S
H735 C763 0.930 . S
H736 C764 0.929 . S
H737 C766 0.930 . S
H738 C743 0.930 . S
H739 C747 0.930 . S
O740 Co709 2.037 . S
O740 C760 1.234 . S
C741 O715 1.269 . S
C741 O716 1.257 . S
C742 H717 0.930 . S
C742 C745 1.388 1_554 S
C742 C747 1.418 . S
C743 H738 0.930 . S
C743 C746 1.404 1_554 S
C743 C747 1.353 . S
N744 Co709 2.145 . S
N744 C745 1.397 . S
N744 C746 1.334 . S
C745 H726 0.929 . S
C745 C742 1.388 1_556 S
C745 N744 1.397 . S
C746 H727 0.929 . S
C746 C743 1.404 1_556 S
C746 N744 1.334 . S
C747 H739 0.930 . S
C747 C742 1.418 . S
C747 C743 1.353 . S
C748 H718 0.930 . S
C748 N749 1.330 . S
C748 C750 1.446 . S
N749 Co708 2.151 . S
N749 C748 1.330 . S
N749 C753 1.418 . S
C750 H729 0.929 . S
C750 C748 1.446 . S
C750 C751 1.332 . S
C751 H731 0.931 . S
C751 C750 1.332 . S
C751 C752 1.267 . S
C752 H720 0.929 . S
C752 C751 1.267 . S
C752 C753 1.251 . S
C753 H723 0.929 . S
C753 N749 1.418 . S
C753 C752 1.251 . S
C754 H721 0.930 . S
C754 C756 1.406 . S
C754 C759 1.261 . S
C755 H722 0.930 . S
C755 N757 1.325 . S
C755 C758 1.357 . S
C756 H724 0.928 . S
C756 C754 1.406 . S
C756 N757 1.261 . S
N757 Co708 2.214 . S
N757 C755 1.325 . S
N757 C756 1.261 . S
C758 H728 0.931 . S
C758 C755 1.357 . S
C758 C759 1.312 . S
C759 H730 0.930 . S
C759 C754 1.261 . S
C759 C758 1.312 . S
C760 O732 1.214 . S
C760 O740 1.234 . S
C761 H733 0.929 . S
C761 C764 1.391 . S
C761 C766 1.391 . S
C762 H734 0.929 . S
C762 C763 1.390 . S
C762 N765 1.391 . S
C763 H735 0.930 . S
C763 C762 1.390 . S
C763 C764 1.392 . S
C764 H736 0.929 . S
C764 C761 1.391 . S
C764 C763 1.392 . S
N765 Co709 2.257 . S
N765 C762 1.391 . S
N765 C766 1.388 . S
C766 H737 0.930 . S
C766 C761 1.391 . S
C766 N765 1.388 . S
Co767 O769 2.143 . S
Co767 O775 2.074 . S
Co767 O778 2.093 . S
Co767 O791 2.097 . S
Co767 N808 2.151 . S
Co767 N816 2.214 . S
Co768 O769 2.160 . S
Co768 O774 2.058 . S
Co768 O784 2.057 . S
Co768 O799 2.037 . S
Co768 N803 2.145 . S
Co768 N824 2.257 . S
O769 Co767 2.143 . S
O769 Co768 2.160 . S
C770 O771 1.278 . S
C770 O778 1.224 . S
O771 C770 1.278 . S
C772 O773 1.245 . S
C772 O784 1.232 . S
O773 C772 1.245 . S
O774 Co768 2.058 . S
O774 C800 1.269 . S
O775 Co767 2.074 . S
O775 C800 1.257 . S
H776 C801 0.930 . S
H777 C807 0.930 . S
O778 Co767 2.093 . S
O778 C770 1.224 . S
H779 C811 0.929 . S
H780 C813 0.930 . S
H781 C814 0.930 . S
H782 C812 0.929 . S
H783 C815 0.928 . S
O784 Co768 2.057 . S
O784 C772 1.232 . S
H785 C804 0.929 . S
H786 C805 0.929 . S
H787 C817 0.931 . S
H788 C809 0.929 . S
H789 C818 0.930 . S
H790 C810 0.931 . S
O791 Co767 2.097 . S
O791 C819 1.214 . S
H792 C820 0.929 . S
H793 C821 0.929 . S
H794 C822 0.930 . S
H795 C823 0.929 . S
H796 C825 0.930 . S
H797 C802 0.930 . S
H798 C806 0.930 . S
O799 Co768 2.037 . S
O799 C819 1.234 . S
C800 O774 1.269 . S
C800 O775 1.257 . S
C801 H776 0.930 . S
C801 C804 1.388 . S
C801 C806 1.418 . S
C802 H797 0.930 . S
C802 C805 1.404 . S
C802 C806 1.353 . S
N803 Co768 2.145 . S
N803 C804 1.397 . S
N803 C805 1.334 . S
C804 H785 0.929 . S
C804 C801 1.388 . S
C804 N803 1.397 . S
C805 H786 0.929 . S
C805 C802 1.404 . S
C805 N803 1.334 . S
C806 H798 0.930 . S
C806 C801 1.418 . S
C806 C802 1.353 . S
C807 H777 0.930 . S
C807 N808 1.330 . S
C807 C809 1.446 . S
N808 Co767 2.151 . S
N808 C807 1.330 . S
N808 C812 1.418 . S
C809 H788 0.929 . S
C809 C807 1.446 . S
C809 C810 1.332 . S
C810 H790 0.931 . S
C810 C809 1.332 . S
C810 C811 1.267 . S
C811 H779 0.929 . S
C811 C810 1.267 . S
C811 C812 1.251 . S
C812 H782 0.929 . S
C812 N808 1.418 . S
C812 C811 1.251 . S
C813 H780 0.930 . S
C813 C815 1.406 . S
C813 C818 1.261 . S
C814 H781 0.930 . S
C814 N816 1.325 . S
C814 C817 1.357 . S
C815 H783 0.928 . S
C815 C813 1.406 . S
C815 N816 1.261 . S
N816 Co767 2.214 . S
N816 C814 1.325 . S
N816 C815 1.261 . S
C817 H787 0.931 . S
C817 C814 1.357 . S
C817 C818 1.312 . S
C818 H789 0.930 . S
C818 C813 1.261 . S
C818 C817 1.312 . S
C819 O791 1.214 . S
C819 O799 1.234 . S
C820 H792 0.929 . S
C820 C823 1.391 . S
C820 C825 1.391 . S
C821 H793 0.929 . S
C821 C822 1.390 . S
C821 N824 1.391 . S
C822 H794 0.930 . S
C822 C821 1.390 . S
C822 C823 1.392 . S
C823 H795 0.929 . S
C823 C820 1.391 . S
C823 C822 1.392 . S
N824 Co768 2.257 . S
N824 C821 1.391 . S
N824 C825 1.388 . S
C825 H796 0.930 . S
C825 C820 1.391 . S
C825 N824 1.388 . S
Co826 O828 2.143 . S
Co826 O834 2.074 . S
Co826 O837 2.093 . S
Co826 O850 2.097 . S
Co826 N867 2.151 . S
Co826 N875 2.214 . S
Co827 O828 2.160 . S
Co827 O833 2.058 . S
Co827 O843 2.057 . S
Co827 O858 2.037 . S
Co827 N862 2.145 . S
Co827 N883 2.257 . S
O828 Co826 2.143 . S
O828 Co827 2.160 . S
C829 O830 1.278 . S
C829 O837 1.224 . S
O830 C829 1.278 . S
C831 O832 1.245 . S
C831 O843 1.232 . S
O832 C831 1.245 . S
O833 Co827 2.058 . S
O833 C859 1.269 . S
O834 Co826 2.074 . S
O834 C859 1.257 . S
H835 C860 0.930 . S
H836 C866 0.930 . S
O837 Co826 2.093 . S
O837 C829 1.224 . S
H838 C870 0.929 . S
H839 C872 0.930 . S
H840 C873 0.930 . S
H841 C871 0.929 . S
H842 C874 0.928 . S
O843 Co827 2.057 . S
O843 C831 1.232 . S
H844 C863 0.929 . S
H845 C864 0.929 . S
H846 C876 0.931 . S
H847 C868 0.929 . S
H848 C877 0.930 . S
H849 C869 0.931 . S
O850 Co826 2.097 . S
O850 C878 1.214 . S
H851 C879 0.929 . S
H852 C880 0.929 . S
H853 C881 0.930 . S
H854 C882 0.929 . S
H855 C884 0.930 . S
H856 C861 0.930 . S
H857 C865 0.930 . S
O858 Co827 2.037 . S
O858 C878 1.234 . S
C859 O833 1.269 . S
C859 O834 1.257 . S
C860 H835 0.930 . S
C860 C863 1.388 1_556 S
C860 C865 1.418 . S
C861 H856 0.930 . S
C861 C864 1.404 1_556 S
C861 C865 1.353 . S
N862 Co827 2.145 . S
N862 C863 1.397 . S
N862 C864 1.334 . S
C863 H844 0.929 . S
C863 C860 1.388 1_554 S
C863 N862 1.397 . S
C864 H845 0.929 . S
C864 C861 1.404 1_554 S
C864 N862 1.334 . S
C865 H857 0.930 . S
C865 C860 1.418 . S
C865 C861 1.353 . S
C866 H836 0.930 . S
C866 N867 1.330 . S
C866 C868 1.446 . S
N867 Co826 2.151 . S
N867 C866 1.330 . S
N867 C871 1.418 . S
C868 H847 0.929 . S
C868 C866 1.446 . S
C868 C869 1.332 . S
C869 H849 0.931 . S
C869 C868 1.332 . S
C869 C870 1.267 . S
C870 H838 0.929 . S
C870 C869 1.267 . S
C870 C871 1.251 . S
C871 H841 0.929 . S
C871 N867 1.418 . S
C871 C870 1.251 . S
C872 H839 0.930 . S
C872 C874 1.406 . S
C872 C877 1.261 . S
C873 H840 0.930 . S
C873 N875 1.325 . S
C873 C876 1.357 . S
C874 H842 0.928 . S
C874 C872 1.406 . S
C874 N875 1.261 . S
N875 Co826 2.214 . S
N875 C873 1.325 . S
N875 C874 1.261 . S
C876 H846 0.931 . S
C876 C873 1.357 . S
C876 C877 1.312 . S
C877 H848 0.930 . S
C877 C872 1.261 . S
C877 C876 1.312 . S
C878 O850 1.214 . S
C878 O858 1.234 . S
C879 H851 0.929 . S
C879 C882 1.391 . S
C879 C884 1.391 . S
C880 H852 0.929 . S
C880 C881 1.390 . S
C880 N883 1.391 . S
C881 H853 0.930 . S
C881 C880 1.390 . S
C881 C882 1.392 . S
C882 H854 0.929 . S
C882 C879 1.391 . S
C882 C881 1.392 . S
N883 Co827 2.257 . S
N883 C880 1.391 . S
N883 C884 1.388 . S
C884 H855 0.930 . S
C884 C879 1.391 . S
C884 N883 1.388 . S
Co885 O887 2.143 . S
Co885 O893 2.074 . S
Co885 O896 2.093 . S
Co885 O909 2.097 . S
Co885 N926 2.151 . S
Co885 N934 2.214 . S
Co886 O887 2.160 . S
Co886 O892 2.058 . S
Co886 O902 2.057 . S
Co886 O917 2.037 . S
Co886 N921 2.145 . S
Co886 N942 2.257 . S
O887 Co885 2.143 . S
O887 Co886 2.160 . S
C888 O889 1.278 . S
C888 O896 1.224 . S
O889 C888 1.278 . S
C890 O891 1.245 . S
C890 O902 1.232 . S
O891 C890 1.245 . S
O892 Co886 2.058 . S
O892 C918 1.269 . S
O893 Co885 2.074 . S
O893 C918 1.257 . S
H894 C919 0.930 . S
H895 C925 0.930 . S
O896 Co885 2.093 . S
O896 C888 1.224 . S
H897 C929 0.929 . S
H898 C931 0.930 . S
H899 C932 0.930 . S
H900 C930 0.929 . S
H901 C933 0.928 . S
O902 Co886 2.057 . S
O902 C890 1.232 . S
H903 C922 0.929 . S
H904 C923 0.929 . S
H905 C935 0.931 . S
H906 C927 0.929 . S
H907 C936 0.930 . S
H908 C928 0.931 . S
O909 Co885 2.097 . S
O909 C937 1.214 . S
H910 C938 0.929 . S
H911 C939 0.929 . S
H912 C940 0.930 . S
H913 C941 0.929 . S
H914 C943 0.930 . S
H915 C920 0.930 . S
H916 C924 0.930 . S
O917 Co886 2.037 . S
O917 C937 1.234 . S
C918 O892 1.269 . S
C918 O893 1.257 . S
C919 H894 0.930 . S
C919 C922 1.388 . S
C919 C924 1.418 . S
C920 H915 0.930 . S
C920 C923 1.404 . S
C920 C924 1.353 . S
N921 Co886 2.145 . S
N921 C922 1.397 . S
N921 C923 1.334 . S
C922 H903 0.929 . S
C922 C919 1.388 . S
C922 N921 1.397 . S
C923 H904 0.929 . S
C923 C920 1.404 . S
C923 N921 1.334 . S
C924 H916 0.930 . S
C924 C919 1.418 . S
C924 C920 1.353 . S
C925 H895 0.930 . S
C925 N926 1.330 . S
C925 C927 1.446 . S
N926 Co885 2.151 . S
N926 C925 1.330 . S
N926 C930 1.418 . S
C927 H906 0.929 . S
C927 C925 1.446 . S
C927 C928 1.332 . S
C928 H908 0.931 . S
C928 C927 1.332 . S
C928 C929 1.267 . S
C929 H897 0.929 . S
C929 C928 1.267 . S
C929 C930 1.251 . S
C930 H900 0.929 . S
C930 N926 1.418 . S
C930 C929 1.251 . S
C931 H898 0.930 . S
C931 C933 1.406 . S
C931 C936 1.261 . S
C932 H899 0.930 . S
C932 N934 1.325 . S
C932 C935 1.357 . S
C933 H901 0.928 . S
C933 C931 1.406 . S
C933 N934 1.261 . S
N934 Co885 2.214 . S
N934 C932 1.325 . S
N934 C933 1.261 . S
C935 H905 0.931 . S
C935 C932 1.357 . S
C935 C936 1.312 . S
C936 H907 0.930 . S
C936 C931 1.261 . S
C936 C935 1.312 . S
C937 O909 1.214 . S
C937 O917 1.234 . S
C938 H910 0.929 . S
C938 C941 1.391 . S
C938 C943 1.391 . S
C939 H911 0.929 . S
C939 C940 1.390 . S
C939 N942 1.391 . S
C940 H912 0.930 . S
C940 C939 1.390 . S
C940 C941 1.392 . S
C941 H913 0.929 . S
C941 C938 1.391 . S
C941 C940 1.392 . S
N942 Co886 2.257 . S
N942 C939 1.391 . S
N942 C943 1.388 . S
C943 H914 0.930 . S
C943 C938 1.391 . S
C943 N942 1.388 . S
C944 C945 1.349 . S
C944 C946 1.327 . S
C944 H969 0.950 . S
C945 C944 1.349 . S
C945 C961 1.349 . S
C946 C944 1.327 . S
C946 C965 1.429 . S
C946 H970 0.950 . S
C947 C964 1.574 1_554 S
C947 C966 1.368 . S
C947 H971 0.949 . S
H948 C952 0.949 . S
C949 C950 1.349 . S
C949 C951 1.327 . S
C949 H972 0.950 . S
C950 C949 1.349 . S
C950 C962 1.349 . S
C951 C949 1.327 . S
C951 C967 1.429 . S
C951 H973 0.950 . S
C952 H948 0.949 . S
C952 C960 1.574 . S
C952 C968 1.368 . S
H953 C961 0.950 . S
H954 C959 0.950 . S
H955 C960 0.949 . S
H956 C962 0.950 . S
H957 C963 0.950 1_554 S
H958 C964 0.949 . S
C959 H954 0.950 . S
C959 C961 1.327 . S
C959 C965 1.429 . S
C960 C952 1.574 . S
C960 H955 0.949 . S
C960 C966 1.368 . S
C961 C945 1.349 . S
C961 H953 0.950 . S
C961 C959 1.327 . S
C962 C950 1.349 . S
C962 H956 0.950 . S
C962 C963 1.327 . S
C963 H957 0.950 1_556 S
C963 C962 1.327 . S
C963 C967 1.429 . S
C964 C947 1.574 1_556 S
C964 H958 0.949 . S
C964 C968 1.368 1_556 S
C965 C946 1.429 . S
C965 C959 1.429 . S
C965 C966 1.523 . S
C966 C947 1.368 . S
C966 C960 1.368 . S
C966 C965 1.523 . S
C967 C951 1.429 . S
C967 C963 1.429 . S
C967 C968 1.523 1_556 S
C968 C952 1.368 . S
C968 C964 1.368 1_554 S
C968 C967 1.523 1_554 S
H969 C944 0.950 . S
H970 C946 0.950 . S
H971 C947 0.949 . S
H972 C949 0.950 . S
H973 C951 0.950 . S
C974 C975 1.349 . S
C974 C976 1.327 . S
C974 H999 0.950 . S
C975 C974 1.349 . S
C975 C991 1.349 . S
C976 C974 1.327 . S
C976 C995 1.429 . S
C976 H1000 0.950 . S
C977 C994 1.574 . S
C977 C996 1.368 . S
C977 H1001 0.949 . S
H978 C982 0.949 . S
C979 C980 1.349 . S
C979 C981 1.327 . S
C979 H1002 0.950 . S
C980 C979 1.349 . S
C980 C992 1.349 . S
C981 C979 1.327 . S
C981 C997 1.429 . S
C981 H1003 0.950 . S
C982 H978 0.949 . S
C982 C990 1.574 . S
C982 C998 1.368 . S
H983 C991 0.950 . S
H984 C989 0.950 . S
H985 C990 0.949 . S
H986 C992 0.950 . S
H987 C993 0.950 . S
H988 C994 0.949 . S
C989 H984 0.950 . S
C989 C991 1.327 . S
C989 C995 1.429 . S
C990 C982 1.574 . S
C990 H985 0.949 . S
C990 C996 1.368 . S
C991 C975 1.349 . S
C991 H983 0.950 . S
C991 C989 1.327 . S
C992 C980 1.349 . S
C992 H986 0.950 . S
C992 C993 1.327 . S
C993 H987 0.950 . S
C993 C992 1.327 . S
C993 C997 1.429 . S
C994 C977 1.574 . S
C994 H988 0.949 . S
C994 C998 1.368 . S
C995 C976 1.429 . S
C995 C989 1.429 . S
C995 C996 1.523 . S
C996 C977 1.368 . S
C996 C990 1.368 . S
C996 C995 1.523 . S
C997 C981 1.429 . S
C997 C993 1.429 . S
C997 C998 1.523 . S
C998 C982 1.368 . S
C998 C994 1.368 . S
C998 C997 1.523 . S
H999 C974 0.950 . S
H1000 C976 0.950 . S
H1001 C977 0.949 . S
H1002 C979 0.950 . S
H1003 C981 0.950 . S
C1004 C1005 1.349 . S
C1004 C1006 1.327 . S
C1004 H1029 0.950 . S
C1005 C1004 1.349 . S
C1005 C1021 1.349 . S
C1006 C1004 1.327 . S
C1006 C1025 1.429 . S
C1006 H1030 0.950 . S
C1007 C1024 1.574 1_556 S
C1007 C1026 1.368 . S
C1007 H1031 0.949 . S
H1008 C1012 0.949 . S
C1009 C1010 1.349 . S
C1009 C1011 1.327 . S
C1009 H1032 0.950 . S
C1010 C1009 1.349 . S
C1010 C1022 1.349 . S
C1011 C1009 1.327 . S
C1011 C1027 1.429 . S
C1011 H1033 0.950 . S
C1012 H1008 0.949 . S
C1012 C1020 1.574 . S
C1012 C1028 1.368 . S
H1013 C1021 0.950 . S
H1014 C1019 0.950 . S
H1015 C1020 0.949 . S
H1016 C1022 0.950 . S
H1017 C1023 0.950 1_556 S
H1018 C1024 0.949 . S
C1019 H1014 0.950 . S
C1019 C1021 1.327 . S
C1019 C1025 1.429 . S
C1020 C1012 1.574 . S
C1020 H1015 0.949 . S
C1020 C1026 1.368 . S
C1021 C1005 1.349 . S
C1021 H1013 0.950 . S
C1021 C1019 1.327 . S
C1022 C1010 1.349 . S
C1022 H1016 0.950 . S
C1022 C1023 1.327 . S
C1023 H1017 0.950 1_554 S
C1023 C1022 1.327 . S
C1023 C1027 1.429 . S
C1024 C1007 1.574 1_554 S
C1024 H1018 0.949 . S
C1024 C1028 1.368 1_554 S
C1025 C1006 1.429 . S
C1025 C1019 1.429 . S
C1025 C1026 1.523 . S
C1026 C1007 1.368 . S
C1026 C1020 1.368 . S
C1026 C1025 1.523 . S
C1027 C1011 1.429 . S
C1027 C1023 1.429 . S
C1027 C1028 1.523 1_554 S
C1028 C1012 1.368 . S
C1028 C1024 1.368 1_556 S
C1028 C1027 1.523 1_556 S
H1029 C1004 0.950 . S
H1030 C1006 0.950 . S
H1031 C1007 0.949 . S
H1032 C1009 0.950 . S
H1033 C1011 0.950 . S
C1034 C1035 1.349 . S
C1034 C1036 1.327 . S
C1034 H1059 0.950 . S
C1035 C1034 1.349 . S
C1035 C1051 1.349 . S
C1036 C1034 1.327 . S
C1036 C1055 1.429 . S
C1036 H1060 0.950 . S
C1037 C1054 1.574 . S
C1037 C1056 1.368 . S
C1037 H1061 0.949 . S
H1038 C1042 0.949 . S
C1039 C1040 1.349 . S
C1039 C1041 1.327 . S
C1039 H1062 0.950 . S
C1040 C1039 1.349 . S
C1040 C1052 1.349 . S
C1041 C1039 1.327 . S
C1041 C1057 1.429 . S
C1041 H1063 0.950 . S
C1042 H1038 0.949 . S
C1042 C1050 1.574 . S
C1042 C1058 1.368 . S
H1043 C1051 0.950 . S
H1044 C1049 0.950 . S
H1045 C1050 0.949 . S
H1046 C1052 0.950 . S
H1047 C1053 0.950 . S
H1048 C1054 0.949 . S
C1049 H1044 0.950 . S
C1049 C1051 1.327 . S
C1049 C1055 1.429 . S
C1050 C1042 1.574 . S
C1050 H1045 0.949 . S
C1050 C1056 1.368 . S
C1051 C1035 1.349 . S
C1051 H1043 0.950 . S
C1051 C1049 1.327 . S
C1052 C1040 1.349 . S
C1052 H1046 0.950 . S
C1052 C1053 1.327 . S
C1053 H1047 0.950 . S
C1053 C1052 1.327 . S
C1053 C1057 1.429 . S
C1054 C1037 1.574 . S
C1054 H1048 0.949 . S
C1054 C1058 1.368 . S
C1055 C1036 1.429 . S
C1055 C1049 1.429 . S
C1055 C1056 1.523 . S
C1056 C1037 1.368 . S
C1056 C1050 1.368 . S
C1056 C1055 1.523 . S
C1057 C1041 1.429 . S
C1057 C1053 1.429 . S
C1057 C1058 1.523 . S
C1058 C1042 1.368 . S
C1058 C1054 1.368 . S
C1058 C1057 1.523 . S
H1059 C1034 0.950 . S
H1060 C1036 0.950 . S
H1061 C1037 0.949 . S
H1062 C1039 0.950 . S
H1063 C1041 0.950 . S
C1064 C1065 1.349 . S
C1064 C1066 1.327 . S
C1064 H1089 0.950 . S
C1065 C1064 1.349 . S
C1065 C1081 1.349 . S
C1066 C1064 1.327 . S
C1066 C1085 1.429 . S
C1066 H1090 0.950 . S
C1067 C1084 1.574 . S
C1067 C1086 1.368 . S
C1067 H1091 0.949 . S
H1068 C1072 0.949 1_556 S
C1069 C1070 1.349 . S
C1069 C1071 1.327 . S
C1069 H1092 0.950 . S
C1070 C1069 1.349 . S
C1070 C1082 1.349 . S
C1071 C1069 1.327 . S
C1071 C1087 1.429 . S
C1071 H1093 0.950 . S
C1072 H1068 0.949 1_554 S
C1072 C1080 1.574 . S
C1072 C1088 1.368 . S
H1073 C1081 0.950 . S
H1074 C1079 0.950 . S
H1075 C1080 0.949 . S
H1076 C1082 0.950 . S
H1077 C1083 0.950 . S
H1078 C1084 0.949 . S
C1079 H1074 0.950 . S
C1079 C1081 1.327 . S
C1079 C1085 1.429 . S
C1080 C1072 1.574 . S
C1080 H1075 0.949 . S
C1080 C1086 1.368 . S
C1081 C1065 1.349 . S
C1081 H1073 0.950 . S
C1081 C1079 1.327 . S
C1082 C1070 1.349 . S
C1082 H1076 0.950 . S
C1082 C1083 1.327 . S
C1083 H1077 0.950 . S
C1083 C1082 1.327 . S
C1083 C1087 1.429 . S
C1084 C1067 1.574 . S
C1084 H1078 0.949 . S
C1084 C1088 1.368 . S
C1085 C1066 1.429 . S
C1085 C1079 1.429 . S
C1085 C1086 1.523 . S
C1086 C1067 1.368 . S
C1086 C1080 1.368 . S
C1086 C1085 1.523 . S
C1087 C1071 1.429 . S
C1087 C1083 1.429 . S
C1087 C1088 1.523 1_556 S
C1088 C1072 1.368 . S
C1088 C1084 1.368 . S
C1088 C1087 1.523 1_554 S
H1089 C1064 0.950 . S
H1090 C1066 0.950 . S
H1091 C1067 0.949 . S
H1092 C1069 0.950 . S
H1093 C1071 0.950 . S
C1094 C1095 1.349 . S
C1094 C1096 1.327 . S
C1094 H1119 0.950 . S
C1095 C1094 1.349 . S
C1095 C1111 1.349 . S
C1096 C1094 1.327 . S
C1096 C1115 1.429 . S
C1096 H1120 0.950 . S
C1097 C1114 1.574 . S
C1097 C1116 1.368 . S
C1097 H1121 0.949 . S
H1098 C1102 0.949 . S
C1099 C1100 1.349 . S
C1099 C1101 1.327 . S
C1099 H1122 0.950 . S
C1100 C1099 1.349 . S
C1100 C1112 1.349 . S
C1101 C1099 1.327 . S
C1101 C1117 1.429 . S
C1101 H1123 0.950 . S
C1102 H1098 0.949 . S
C1102 C1110 1.574 . S
C1102 C1118 1.368 . S
H1103 C1111 0.950 . S
H1104 C1109 0.950 . S
H1105 C1110 0.949 . S
H1106 C1112 0.950 . S
H1107 C1113 0.950 . S
H1108 C1114 0.949 . S
C1109 H1104 0.950 . S
C1109 C1111 1.327 . S
C1109 C1115 1.429 . S
C1110 C1102 1.574 . S
C1110 H1105 0.949 . S
C1110 C1116 1.368 . S
C1111 C1095 1.349 . S
C1111 H1103 0.950 . S
C1111 C1109 1.327 . S
C1112 C1100 1.349 . S
C1112 H1106 0.950 . S
C1112 C1113 1.327 . S
C1113 H1107 0.950 . S
C1113 C1112 1.327 . S
C1113 C1117 1.429 . S
C1114 C1097 1.574 . S
C1114 H1108 0.949 . S
C1114 C1118 1.368 . S
C1115 C1096 1.429 . S
C1115 C1109 1.429 . S
C1115 C1116 1.523 . S
C1116 C1097 1.368 . S
C1116 C1110 1.368 . S
C1116 C1115 1.523 . S
C1117 C1101 1.429 . S
C1117 C1113 1.429 . S
C1117 C1118 1.523 . S
C1118 C1102 1.368 . S
C1118 C1114 1.368 . S
C1118 C1117 1.523 . S
H1119 C1094 0.950 . S
H1120 C1096 0.950 . S
H1121 C1097 0.949 . S
H1122 C1099 0.950 . S
H1123 C1101 0.950 . S
C1124 C1125 1.349 . S
C1124 C1126 1.327 . S
C1124 H1149 0.950 . S
C1125 C1124 1.349 . S
C1125 C1141 1.349 . S
C1126 C1124 1.327 . S
C1126 C1145 1.429 . S
C1126 H1150 0.950 . S
C1127 C1144 1.574 . S
C1127 C1146 1.368 . S
C1127 H1151 0.949 . S
H1128 C1132 0.949 . S
C1129 C1130 1.349 . S
C1129 C1131 1.327 . S
C1129 H1152 0.950 . S
C1130 C1129 1.349 . S
C1130 C1142 1.349 . S
C1131 C1129 1.327 . S
C1131 C1147 1.429 . S
C1131 H1153 0.950 1_554 S
C1132 H1128 0.949 . S
C1132 C1140 1.574 1_554 S
C1132 C1148 1.368 1_554 S
H1133 C1141 0.950 . S
H1134 C1139 0.950 . S
H1135 C1140 0.949 . S
H1136 C1142 0.950 . S
H1137 C1143 0.950 . S
H1138 C1144 0.949 . S
C1139 H1134 0.950 . S
C1139 C1141 1.327 . S
C1139 C1145 1.429 . S
C1140 C1132 1.574 1_556 S
C1140 H1135 0.949 . S
C1140 C1146 1.368 . S
C1141 C1125 1.349 . S
C1141 H1133 0.950 . S
C1141 C1139 1.327 . S
C1142 C1130 1.349 . S
C1142 H1136 0.950 . S
C1142 C1143 1.327 . S
C1143 H1137 0.950 . S
C1143 C1142 1.327 . S
C1143 C1147 1.429 . S
C1144 C1127 1.574 . S
C1144 H1138 0.949 . S
C1144 C1148 1.368 . S
C1145 C1126 1.429 . S
C1145 C1139 1.429 . S
C1145 C1146 1.523 . S
C1146 C1127 1.368 . S
C1146 C1140 1.368 . S
C1146 C1145 1.523 . S
C1147 C1131 1.429 . S
C1147 C1143 1.429 . S
C1147 C1148 1.523 1_554 S
C1148 C1132 1.368 1_556 S
C1148 C1144 1.368 . S
C1148 C1147 1.523 1_556 S
H1149 C1124 0.950 . S
H1150 C1126 0.950 . S
H1151 C1127 0.949 . S
H1152 C1129 0.950 . S
H1153 C1131 0.950 1_556 S
C1154 C1155 1.349 . S
C1154 C1156 1.327 . S
C1154 H1179 0.950 . S
C1155 C1154 1.349 . S
C1155 C1171 1.349 . S
C1156 C1154 1.327 . S
C1156 C1175 1.429 . S
C1156 H1180 0.950 . S
C1157 C1174 1.574 . S
C1157 C1176 1.368 . S
C1157 H1181 0.949 . S
H1158 C1162 0.949 . S
C1159 C1160 1.349 . S
C1159 C1161 1.327 . S
C1159 H1182 0.950 . S
C1160 C1159 1.349 . S
C1160 C1172 1.349 . S
C1161 C1159 1.327 . S
C1161 C1177 1.429 . S
C1161 H1183 0.950 . S
C1162 H1158 0.949 . S
C1162 C1170 1.574 . S
C1162 C1178 1.368 . S
H1163 C1171 0.950 . S
H1164 C1169 0.950 . S
H1165 C1170 0.949 . S
H1166 C1172 0.950 . S
H1167 C1173 0.950 . S
H1168 C1174 0.949 . S
C1169 H1164 0.950 . S
C1169 C1171 1.327 . S
C1169 C1175 1.429 . S
C1170 C1162 1.574 . S
C1170 H1165 0.949 . S
C1170 C1176 1.368 . S
C1171 C1155 1.349 . S
C1171 H1163 0.950 . S
C1171 C1169 1.327 . S
C1172 C1160 1.349 . S
C1172 H1166 0.950 . S
C1172 C1173 1.327 . S
C1173 H1167 0.950 . S
C1173 C1172 1.327 . S
C1173 C1177 1.429 . S
C1174 C1157 1.574 . S
C1174 H1168 0.949 . S
C1174 C1178 1.368 . S
C1175 C1156 1.429 . S
C1175 C1169 1.429 . S
C1175 C1176 1.523 . S
C1176 C1157 1.368 . S
C1176 C1170 1.368 . S
C1176 C1175 1.523 . S
C1177 C1161 1.429 . S
C1177 C1173 1.429 . S
C1177 C1178 1.523 . S
C1178 C1162 1.368 . S
C1178 C1174 1.368 . S
C1178 C1177 1.523 . S
H1179 C1154 0.950 . S
H1180 C1156 0.950 . S
H1181 C1157 0.949 . S
H1182 C1159 0.950 . S
H1183 C1161 0.950 . S
C1184 C1185 1.349 . S
C1184 C1186 1.327 . S
C1184 H1209 0.950 . S
C1185 C1184 1.349 . S
C1185 C1201 1.349 . S
C1186 C1184 1.327 . S
C1186 C1205 1.429 . S
C1186 H1210 0.950 . S
C1187 C1204 1.599 . S
C1187 C1206 1.368 1_556 S
C1187 H1211 0.949 . S
H1188 C1192 0.949 . S
C1189 C1190 1.349 . S
C1189 C1191 1.327 . S
C1189 H1212 0.950 . S
C1190 C1189 1.349 . S
C1190 C1202 1.349 . S
C1191 C1189 1.327 . S
C1191 C1207 1.429 . S
C1191 H1213 0.950 . S
C1192 H1188 0.949 . S
C1192 C1200 1.599 . S
C1192 C1208 1.368 1_554 S
H1193 C1201 0.950 . S
H1194 C1199 0.950 . S
H1195 C1200 0.949 . S
H1196 C1202 0.950 . S
H1197 C1203 0.950 . S
H1198 C1204 0.949 . S
C1199 H1194 0.950 . S
C1199 C1201 1.327 . S
C1199 C1205 1.429 . S
C1200 C1192 1.599 . S
C1200 H1195 0.949 . S
C1200 C1206 1.343 1_565 S
C1201 C1185 1.349 . S
C1201 H1193 0.950 . S
C1201 C1199 1.327 . S
C1202 C1190 1.349 . S
C1202 H1196 0.950 . S
C1202 C1203 1.327 . S
C1203 H1197 0.950 . S
C1203 C1202 1.327 . S
C1203 C1207 1.429 . S
C1204 C1187 1.599 . S
C1204 H1198 0.949 . S
C1204 C1208 1.343 1_545 S
C1205 C1186 1.429 . S
C1205 C1199 1.429 . S
C1205 C1206 1.523 . S
C1206 C1187 1.368 1_554 S
C1206 C1200 1.343 1_545 S
C1206 C1205 1.523 . S
C1207 C1191 1.429 . S
C1207 C1203 1.429 . S
C1207 C1208 1.523 . S
C1208 C1192 1.368 1_556 S
C1208 C1204 1.343 1_565 S
C1208 C1207 1.523 . S
H1209 C1184 0.950 . S
H1210 C1186 0.950 . S
H1211 C1187 0.949 . S
H1212 C1189 0.950 . S
H1213 C1191 0.950 . S
C1214 C1215 1.349 . S
C1214 C1216 1.327 . S
C1214 H1239 0.950 . S
C1215 C1214 1.349 . S
C1215 C1231 1.349 . S
C1216 C1214 1.327 . S
C1216 C1235 1.429 . S
C1216 H1240 0.950 . S
C1217 C1234 1.612 . S
C1217 C1236 1.368 . S
C1217 H1241 0.949 . S
H1218 C1222 0.949 . S
C1219 C1220 1.349 . S
C1219 C1221 1.327 . S
C1219 H1242 0.950 . S
C1220 C1219 1.349 . S
C1220 C1232 1.349 . S
C1221 C1219 1.327 . S
C1221 C1237 1.429 . S
C1221 H1243 0.950 . S
C1222 H1218 0.949 . S
C1222 C1230 1.612 . S
C1222 C1238 1.368 . S
H1223 C1231 0.950 . S
H1224 C1229 0.950 . S
H1225 C1230 0.951 . S
H1226 C1232 0.950 . S
H1227 C1233 0.950 . S
H1228 C1234 0.951 . S
C1229 H1224 0.950 . S
C1229 C1231 1.327 . S
C1229 C1235 1.429 . S
C1230 C1222 1.612 . S
C1230 H1225 0.951 . S
C1230 C1236 1.330 1_545 S
C1231 C1215 1.349 . S
C1231 H1223 0.950 . S
C1231 C1229 1.327 . S
C1232 C1220 1.349 . S
C1232 H1226 0.950 . S
C1232 C1233 1.327 . S
C1233 H1227 0.950 . S
C1233 C1232 1.327 . S
C1233 C1237 1.429 . S
C1234 C1217 1.612 . S
C1234 H1228 0.951 . S
C1234 C1238 1.330 1_565 S
C1235 C1216 1.429 . S
C1235 C1229 1.429 . S
C1235 C1236 1.523 . S
C1236 C1217 1.368 . S
C1236 C1230 1.330 1_565 S
C1236 C1235 1.523 . S
C1237 C1221 1.429 . S
C1237 C1233 1.429 . S
C1237 C1238 1.523 . S
C1238 C1222 1.368 . S
C1238 C1234 1.330 1_545 S
C1238 C1237 1.523 . S
H1239 C1214 0.950 . S
H1240 C1216 0.950 . S
H1241 C1217 0.949 . S
H1242 C1219 0.950 . S
H1243 C1221 0.950 . S
C1244 C1245 1.349 . S
C1244 C1246 1.327 . S
C1244 H1269 0.950 . S
C1245 C1244 1.349 . S
C1245 C1261 1.349 . S
C1246 C1244 1.327 . S
C1246 C1265 1.429 . S
C1246 H1270 0.950 . S
C1247 C1264 1.574 1_565 S
C1247 C1266 1.368 1_554 S
C1247 H1271 0.949 . S
H1248 C1252 0.949 . S
C1249 C1250 1.349 . S
C1249 C1251 1.327 . S
C1249 H1272 0.950 . S
C1250 C1249 1.349 . S
C1250 C1262 1.349 . S
C1251 C1249 1.327 . S
C1251 C1267 1.429 . S
C1251 H1273 0.950 . S
C1252 H1248 0.949 . S
C1252 C1260 1.574 1_545 S
C1252 C1268 1.368 1_556 S
H1253 C1261 0.950 . S
H1254 C1259 0.950 1_554 S
H1255 C1260 0.949 . S
H1256 C1262 0.950 . S
H1257 C1263 0.950 1_556 S
H1258 C1264 0.949 . S
C1259 H1254 0.950 1_556 S
C1259 C1261 1.327 . S
C1259 C1265 1.429 . S
C1260 C1252 1.574 1_565 S
C1260 H1255 0.949 . S
C1260 C1266 1.368 . S
C1261 C1245 1.349 . S
C1261 H1253 0.950 . S
C1261 C1259 1.327 . S
C1262 C1250 1.349 . S
C1262 H1256 0.950 . S
C1262 C1263 1.327 . S
C1263 H1257 0.950 1_554 S
C1263 C1262 1.327 . S
C1263 C1267 1.429 . S
C1264 C1247 1.574 1_545 S
C1264 H1258 0.949 . S
C1264 C1268 1.368 . S
C1265 C1246 1.429 . S
C1265 C1259 1.429 . S
C1265 C1266 1.523 . S
C1266 C1247 1.368 1_556 S
C1266 C1260 1.368 . S
C1266 C1265 1.523 . S
C1267 C1251 1.429 . S
C1267 C1263 1.429 . S
C1267 C1268 1.523 . S
C1268 C1252 1.368 1_554 S
C1268 C1264 1.368 . S
C1268 C1267 1.523 . S
H1269 C1244 0.950 . S
H1270 C1246 0.950 . S
H1271 C1247 0.949 . S
H1272 C1249 0.950 . S
H1273 C1251 0.950 . S
C1274 C1275 1.349 . S
C1274 C1276 1.327 . S
C1274 H1299 0.950 . S
C1275 C1274 1.349 . S
C1275 C1291 1.349 . S
C1276 C1274 1.327 . S
C1276 C1295 1.429 . S
C1276 H1300 0.950 . S
C1277 C1294 1.574 1_545 S
C1277 C1296 1.368 . S
C1277 H1301 0.949 . S
H1278 C1282 0.949 . S
C1279 C1280 1.349 . S
C1279 C1281 1.327 . S
C1279 H1302 0.950 . S
C1280 C1279 1.349 . S
C1280 C1292 1.349 . S
C1281 C1279 1.327 . S
C1281 C1297 1.429 . S
C1281 H1303 0.950 . S
C1282 H1278 0.949 . S
C1282 C1290 1.574 1_565 S
C1282 C1298 1.368 . S
H1283 C1291 0.950 . S
H1284 C1289 0.950 . S
H1285 C1290 0.949 . S
H1286 C1292 0.950 . S
H1287 C1293 0.950 . S
H1288 C1294 0.949 . S
C1289 H1284 0.950 . S
C1289 C1291 1.327 . S
C1289 C1295 1.429 . S
C1290 C1282 1.574 1_545 S
C1290 H1285 0.949 . S
C1290 C1296 1.368 . S
C1291 C1275 1.349 . S
C1291 H1283 0.950 . S
C1291 C1289 1.327 . S
C1292 C1280 1.349 . S
C1292 H1286 0.950 . S
C1292 C1293 1.327 . S
C1293 H1287 0.950 . S
C1293 C1292 1.327 . S
C1293 C1297 1.429 . S
C1294 C1277 1.574 1_565 S
C1294 H1288 0.949 . S
C1294 C1298 1.368 . S
C1295 C1276 1.429 . S
C1295 C1289 1.429 . S
C1295 C1296 1.523 . S
C1296 C1277 1.368 . S
C1296 C1290 1.368 . S
C1296 C1295 1.523 . S
C1297 C1281 1.429 . S
C1297 C1293 1.429 . S
C1297 C1298 1.523 . S
C1298 C1282 1.368 . S
C1298 C1294 1.368 . S
C1298 C1297 1.523 . S
H1299 C1274 0.950 . S
H1300 C1276 0.950 . S
H1301 C1277 0.949 . S
H1302 C1279 0.950 . S
H1303 C1281 0.950 . S
C1304 C1305 1.349 . S
C1304 C1306 1.327 . S
C1304 H1329 0.950 . S
C1305 C1304 1.349 . S
C1305 C1321 1.349 . S
C1306 C1304 1.327 . S
C1306 C1325 1.429 . S
C1306 H1330 0.950 . S
C1307 C1324 1.574 . S
C1307 C1326 1.368 . S
C1307 H1331 0.949 . S
H1308 C1312 0.949 . S
C1309 C1310 1.349 . S
C1309 C1311 1.327 . S
C1309 H1332 0.950 . S
C1310 C1309 1.349 . S
C1310 C1322 1.349 . S
C1311 C1309 1.327 . S
C1311 C1327 1.429 . S
C1311 H1333 0.950 . S
C1312 H1308 0.949 . S
C1312 C1320 1.574 . S
C1312 C1328 1.368 . S
H1313 C1321 0.950 . S
H1314 C1319 0.950 . S
H1315 C1320 0.949 . S
H1316 C1322 0.950 . S
H1317 C1323 0.950 . S
H1318 C1324 0.949 . S
C1319 H1314 0.950 . S
C1319 C1321 1.327 . S
C1319 C1325 1.429 . S
C1320 C1312 1.574 . S
C1320 H1315 0.949 . S
C1320 C1326 1.368 1_554 S
C1321 C1305 1.349 . S
C1321 H1313 0.950 . S
C1321 C1319 1.327 . S
C1322 C1310 1.349 . S
C1322 H1316 0.950 . S
C1322 C1323 1.327 . S
C1323 H1317 0.950 . S
C1323 C1322 1.327 . S
C1323 C1327 1.429 . S
C1324 C1307 1.574 . S
C1324 H1318 0.949 . S
C1324 C1328 1.368 1_556 S
C1325 C1306 1.429 . S
C1325 C1319 1.429 . S
C1325 C1326 1.523 . S
C1326 C1307 1.368 . S
C1326 C1320 1.368 1_556 S
C1326 C1325 1.523 . S
C1327 C1311 1.429 . S
C1327 C1323 1.429 . S
C1327 C1328 1.523 . S
C1328 C1312 1.368 . S
C1328 C1324 1.368 1_554 S
C1328 C1327 1.523 . S
H1329 C1304 0.950 . S
H1330 C1306 0.950 . S
H1331 C1307 0.949 . S
H1332 C1309 0.950 . S
H1333 C1311 0.950 . S
C1334 C1335 1.349 . S
C1334 C1336 1.327 . S
C1334 H1359 0.950 . S
C1335 C1334 1.349 . S
C1335 C1351 1.349 . S
C1336 C1334 1.327 . S
C1336 C1355 1.429 . S
C1336 H1360 0.950 . S
C1337 C1354 1.574 . S
C1337 C1356 1.368 . S
C1337 H1361 0.949 . S
H1338 C1342 0.949 . S
C1339 C1340 1.349 . S
C1339 C1341 1.327 . S
C1339 H1362 0.950 . S
C1340 C1339 1.349 . S
C1340 C1352 1.349 . S
C1341 C1339 1.327 . S
C1341 C1357 1.429 . S
C1341 H1363 0.950 . S
C1342 H1338 0.949 . S
C1342 C1350 1.574 . S
C1342 C1358 1.368 . S
H1343 C1351 0.950 . S
H1344 C1349 0.950 . S
H1345 C1350 0.949 . S
H1346 C1352 0.950 . S
H1347 C1353 0.950 . S
H1348 C1354 0.949 . S
C1349 H1344 0.950 . S
C1349 C1351 1.327 . S
C1349 C1355 1.429 . S
C1350 C1342 1.574 . S
C1350 H1345 0.949 . S
C1350 C1356 1.368 . S
C1351 C1335 1.349 . S
C1351 H1343 0.950 . S
C1351 C1349 1.327 . S
C1352 C1340 1.349 . S
C1352 H1346 0.950 . S
C1352 C1353 1.327 . S
C1353 H1347 0.950 . S
C1353 C1352 1.327 . S
C1353 C1357 1.429 . S
C1354 C1337 1.574 . S
C1354 H1348 0.949 . S
C1354 C1358 1.368 . S
C1355 C1336 1.429 . S
C1355 C1349 1.429 . S
C1355 C1356 1.523 . S
C1356 C1337 1.368 . S
C1356 C1350 1.368 . S
C1356 C1355 1.523 . S
C1357 C1341 1.429 . S
C1357 C1353 1.429 . S
C1357 C1358 1.523 . S
C1358 C1342 1.368 . S
C1358 C1354 1.368 . S
C1358 C1357 1.523 . S
H1359 C1334 0.950 . S
H1360 C1336 0.950 . S
H1361 C1337 0.949 . S
H1362 C1339 0.950 . S
H1363 C1341 0.950 . S
C1364 C1365 1.349 . S
C1364 C1366 1.327 . S
C1364 H1389 0.950 . S
C1365 C1364 1.349 . S
C1365 C1381 1.349 . S
C1366 C1364 1.327 . S
C1366 C1385 1.429 . S
C1366 H1390 0.950 . S
C1367 C1384 1.574 . S
C1367 C1386 1.368 1_556 S
C1367 H1391 0.949 . S
H1368 C1372 0.949 . S
C1369 C1370 1.349 . S
C1369 C1371 1.327 . S
C1369 H1392 0.950 . S
C1370 C1369 1.349 . S
C1370 C1382 1.349 . S
C1371 C1369 1.327 . S
C1371 C1387 1.429 . S
C1371 H1393 0.950 . S
C1372 H1368 0.949 . S
C1372 C1380 1.574 . S
C1372 C1388 1.368 1_554 S
H1373 C1381 0.950 . S
H1374 C1379 0.950 . S
H1375 C1380 0.949 . S
H1376 C1382 0.950 . S
H1377 C1383 0.950 . S
H1378 C1384 0.949 . S
C1379 H1374 0.950 . S
C1379 C1381 1.327 . S
C1379 C1385 1.429 . S
C1380 C1372 1.574 . S
C1380 H1375 0.949 . S
C1380 C1386 1.368 . S
C1381 C1365 1.349 . S
C1381 H1373 0.950 . S
C1381 C1379 1.327 . S
C1382 C1370 1.349 . S
C1382 H1376 0.950 . S
C1382 C1383 1.327 . S
C1383 H1377 0.950 . S
C1383 C1382 1.327 . S
C1383 C1387 1.429 . S
C1384 C1367 1.574 . S
C1384 H1378 0.949 . S
C1384 C1388 1.368 . S
C1385 C1366 1.429 . S
C1385 C1379 1.429 . S
C1385 C1386 1.523 . S
C1386 C1367 1.368 1_554 S
C1386 C1380 1.368 . S
C1386 C1385 1.523 . S
C1387 C1371 1.429 . S
C1387 C1383 1.429 . S
C1387 C1388 1.523 . S
C1388 C1372 1.368 1_556 S
C1388 C1384 1.368 . S
C1388 C1387 1.523 . S
H1389 C1364 0.950 . S
H1390 C1366 0.950 . S
H1391 C1367 0.949 . S
H1392 C1369 0.950 . S
H1393 C1371 0.950 . S
C1394 C1395 1.349 . S
C1394 C1396 1.327 . S
C1394 H1419 0.950 . S
C1395 C1394 1.349 . S
C1395 C1411 1.349 . S
C1396 C1394 1.327 . S
C1396 C1415 1.429 . S
C1396 H1420 0.950 . S
C1397 C1414 1.574 . S
C1397 C1416 1.368 . S
C1397 H1421 0.949 . S
H1398 C1402 0.949 . S
C1399 C1400 1.349 . S
C1399 C1401 1.327 . S
C1399 H1422 0.950 . S
C1400 C1399 1.349 . S
C1400 C1412 1.349 . S
C1401 C1399 1.327 . S
C1401 C1417 1.429 . S
C1401 H1423 0.950 . S
C1402 H1398 0.949 . S
C1402 C1410 1.574 . S
C1402 C1418 1.368 . S
H1403 C1411 0.950 . S
H1404 C1409 0.950 . S
H1405 C1410 0.949 . S
H1406 C1412 0.950 . S
H1407 C1413 0.950 . S
H1408 C1414 0.949 . S
C1409 H1404 0.950 . S
C1409 C1411 1.327 . S
C1409 C1415 1.429 . S
C1410 C1402 1.574 . S
C1410 H1405 0.949 . S
C1410 C1416 1.368 . S
C1411 C1395 1.349 . S
C1411 H1403 0.950 . S
C1411 C1409 1.327 . S
C1412 C1400 1.349 . S
C1412 H1406 0.950 . S
C1412 C1413 1.327 . S
C1413 H1407 0.950 . S
C1413 C1412 1.327 . S
C1413 C1417 1.429 . S
C1414 C1397 1.574 . S
C1414 H1408 0.949 . S
C1414 C1418 1.368 . S
C1415 C1396 1.429 . S
C1415 C1409 1.429 . S
C1415 C1416 1.523 . S
C1416 C1397 1.368 . S
C1416 C1410 1.368 . S
C1416 C1415 1.523 . S
C1417 C1401 1.429 . S
C1417 C1413 1.429 . S
C1417 C1418 1.523 . S
C1418 C1402 1.368 . S
C1418 C1414 1.368 . S
C1418 C1417 1.523 . S
H1419 C1394 0.950 . S
H1420 C1396 0.950 . S
H1421 C1397 0.949 . S
H1422 C1399 0.950 . S
H1423 C1401 0.950 . S
C1424 C1425 1.349 . S
C1424 C1426 1.327 . S
C1424 H1449 0.950 . S
C1425 C1424 1.349 . S
C1425 C1441 1.349 . S
C1426 C1424 1.327 . S
C1426 C1445 1.429 . S
C1426 H1450 0.950 . S
C1427 C1444 1.574 . S
C1427 C1446 1.368 . S
C1427 H1451 0.949 . S
H1428 C1432 0.949 . S
C1429 C1430 1.349 . S
C1429 C1431 1.327 . S
C1429 H1452 0.950 . S
C1430 C1429 1.349 . S
C1430 C1442 1.349 . S
C1431 C1429 1.327 . S
C1431 C1447 1.429 . S
C1431 H1453 0.950 . S
C1432 H1428 0.949 . S
C1432 C1440 1.574 . S
C1432 C1448 1.368 . S
H1433 C1441 0.950 . S
H1434 C1439 0.950 . S
H1435 C1440 0.949 . S
H1436 C1442 0.950 . S
H1437 C1443 0.950 . S
H1438 C1444 0.949 . S
C1439 H1434 0.950 . S
C1439 C1441 1.327 . S
C1439 C1445 1.429 . S
C1440 C1432 1.574 . S
C1440 H1435 0.949 . S
C1440 C1446 1.368 . S
C1441 C1425 1.349 . S
C1441 H1433 0.950 . S
C1441 C1439 1.327 . S
C1442 C1430 1.349 . S
C1442 H1436 0.950 . S
C1442 C1443 1.327 . S
C1443 H1437 0.950 . S
C1443 C1442 1.327 . S
C1443 C1447 1.429 . S
C1444 C1427 1.574 . S
C1444 H1438 0.949 . S
C1444 C1448 1.368 . S
C1445 C1426 1.429 . S
C1445 C1439 1.429 . S
C1445 C1446 1.523 . S
C1446 C1427 1.368 . S
C1446 C1440 1.368 . S
C1446 C1445 1.523 . S
C1447 C1431 1.429 . S
C1447 C1443 1.429 . S
C1447 C1448 1.523 . S
C1448 C1432 1.368 . S
C1448 C1444 1.368 . S
C1448 C1447 1.523 . S
H1449 C1424 0.950 . S
H1450 C1426 0.950 . S
H1451 C1427 0.949 . S
H1452 C1429 0.950 . S
H1453 C1431 0.950 . S
C1454 C1455 1.349 . S
C1454 C1456 1.327 . S
C1454 H1479 0.950 . S
C1455 C1454 1.349 . S
C1455 C1471 1.349 . S
C1456 C1454 1.327 . S
C1456 C1475 1.429 . S
C1456 H1480 0.950 . S
C1457 C1474 1.574 . S
C1457 C1476 1.368 . S
C1457 H1481 0.949 . S
H1458 C1462 0.949 . S
C1459 C1460 1.349 . S
C1459 C1461 1.327 . S
C1459 H1482 0.950 . S
C1460 C1459 1.349 . S
C1460 C1472 1.349 . S
C1461 C1459 1.327 . S
C1461 C1477 1.429 . S
C1461 H1483 0.950 . S
C1462 H1458 0.949 . S
C1462 C1470 1.574 . S
C1462 C1478 1.368 . S
H1463 C1471 0.950 . S
H1464 C1469 0.950 . S
H1465 C1470 0.949 . S
H1466 C1472 0.950 . S
H1467 C1473 0.950 . S
H1468 C1474 0.949 . S
C1469 H1464 0.950 . S
C1469 C1471 1.327 . S
C1469 C1475 1.429 . S
C1470 C1462 1.574 . S
C1470 H1465 0.949 . S
C1470 C1476 1.368 . S
C1471 C1455 1.349 . S
C1471 H1463 0.950 . S
C1471 C1469 1.327 . S
C1472 C1460 1.349 . S
C1472 H1466 0.950 . S
C1472 C1473 1.327 . S
C1473 H1467 0.950 . S
C1473 C1472 1.327 . S
C1473 C1477 1.429 . S
C1474 C1457 1.574 . S
C1474 H1468 0.949 . S
C1474 C1478 1.368 . S
C1475 C1456 1.429 . S
C1475 C1469 1.429 . S
C1475 C1476 1.523 . S
C1476 C1457 1.368 . S
C1476 C1470 1.368 . S
C1476 C1475 1.523 . S
C1477 C1461 1.429 . S
C1477 C1473 1.429 . S
C1477 C1478 1.523 1_455 S
C1478 C1462 1.368 . S
C1478 C1474 1.368 . S
C1478 C1477 1.523 1_655 S
H1479 C1454 0.950 . S
H1480 C1456 0.950 . S
H1481 C1457 0.949 . S
H1482 C1459 0.950 . S
H1483 C1461 0.950 . S
C1484 C1485 1.349 . S
C1484 C1486 1.327 . S
C1484 H1509 0.950 . S
C1485 C1484 1.349 . S
C1485 C1501 1.349 . S
C1486 C1484 1.327 . S
C1486 C1505 1.429 . S
C1486 H1510 0.950 . S
C1487 C1504 1.574 . S
C1487 C1506 1.368 . S
C1487 H1511 0.949 . S
H1488 C1492 0.949 . S
C1489 C1490 1.349 . S
C1489 C1491 1.327 . S
C1489 H1512 0.950 . S
C1490 C1489 1.349 . S
C1490 C1502 1.349 . S
C1491 C1489 1.327 . S
C1491 C1507 1.429 . S
C1491 H1513 0.950 . S
C1492 H1488 0.949 . S
C1492 C1500 1.574 . S
C1492 C1508 1.368 . S
H1493 C1501 0.950 . S
H1494 C1499 0.950 . S
H1495 C1500 0.949 . S
H1496 C1502 0.950 . S
H1497 C1503 0.950 . S
H1498 C1504 0.949 . S
C1499 H1494 0.950 . S
C1499 C1501 1.327 . S
C1499 C1505 1.429 . S
C1500 C1492 1.574 . S
C1500 H1495 0.949 . S
C1500 C1506 1.368 . S
C1501 C1485 1.349 . S
C1501 H1493 0.950 . S
C1501 C1499 1.327 . S
C1502 C1490 1.349 . S
C1502 H1496 0.950 . S
C1502 C1503 1.327 . S
C1503 H1497 0.950 . S
C1503 C1502 1.327 . S
C1503 C1507 1.429 . S
C1504 C1487 1.574 . S
C1504 H1498 0.949 . S
C1504 C1508 1.368 . S
C1505 C1486 1.429 . S
C1505 C1499 1.429 . S
C1505 C1506 1.523 . S
C1506 C1487 1.368 . S
C1506 C1500 1.368 . S
C1506 C1505 1.523 . S
C1507 C1491 1.429 . S
C1507 C1503 1.429 . S
C1507 C1508 1.523 . S
C1508 C1492 1.368 . S
C1508 C1504 1.368 . S
C1508 C1507 1.523 . S
H1509 C1484 0.950 . S
H1510 C1486 0.950 . S
H1511 C1487 0.949 . S
H1512 C1489 0.950 . S
H1513 C1491 0.950 . S
C1514 C1515 1.349 . S
C1514 C1516 1.327 . S
C1514 H1539 0.950 . S
C1515 C1514 1.349 . S
C1515 C1531 1.349 . S
C1516 C1514 1.327 . S
C1516 C1535 1.429 . S
C1516 H1540 0.950 . S
C1517 C1534 1.574 . S
C1517 C1536 1.368 . S
C1517 H1541 0.949 . S
H1518 C1522 0.949 . S
C1519 C1520 1.349 . S
C1519 C1521 1.327 . S
C1519 H1542 0.950 . S
C1520 C1519 1.349 . S
C1520 C1532 1.349 . S
C1521 C1519 1.327 . S
C1521 C1537 1.429 . S
C1521 H1543 0.950 . S
C1522 H1518 0.949 . S
C1522 C1530 1.574 . S
C1522 C1538 1.368 . S
H1523 C1531 0.950 . S
H1524 C1529 0.950 . S
H1525 C1530 0.949 . S
H1526 C1532 0.950 . S
H1527 C1533 0.950 . S
H1528 C1534 0.949 . S
C1529 H1524 0.950 . S
C1529 C1531 1.327 . S
C1529 C1535 1.429 . S
C1530 C1522 1.574 . S
C1530 H1525 0.949 . S
C1530 C1536 1.368 . S
C1531 C1515 1.349 . S
C1531 H1523 0.950 . S
C1531 C1529 1.327 . S
C1532 C1520 1.349 . S
C1532 H1526 0.950 . S
C1532 C1533 1.327 . S
C1533 H1527 0.950 . S
C1533 C1532 1.327 . S
C1533 C1537 1.429 . S
C1534 C1517 1.574 . S
C1534 H1528 0.949 . S
C1534 C1538 1.368 . S
C1535 C1516 1.429 . S
C1535 C1529 1.429 . S
C1535 C1536 1.523 1_455 S
C1536 C1517 1.368 . S
C1536 C1530 1.368 . S
C1536 C1535 1.523 1_655 S
C1537 C1521 1.429 . S
C1537 C1533 1.429 . S
C1537 C1538 1.523 . S
C1538 C1522 1.368 . S
C1538 C1534 1.368 . S
C1538 C1537 1.523 . S
H1539 C1514 0.950 . S
H1540 C1516 0.950 . S
H1541 C1517 0.949 . S
H1542 C1519 0.950 . S
H1543 C1521 0.950 . S
C1544 C1545 1.349 . S
C1544 C1546 1.327 . S
C1544 H1569 0.950 . S
C1545 C1544 1.349 . S
C1545 C1561 1.349 . S
C1546 C1544 1.327 . S
C1546 C1565 1.429 . S
C1546 H1570 0.950 . S
C1547 C1564 1.574 . S
C1547 C1566 1.368 . S
C1547 H1571 0.949 . S
H1548 C1552 0.949 . S
C1549 C1550 1.349 . S
C1549 C1551 1.327 . S
C1549 H1572 0.950 . S
C1550 C1549 1.349 . S
C1550 C1562 1.349 . S
C1551 C1549 1.327 . S
C1551 C1567 1.429 . S
C1551 H1573 0.950 . S
C1552 H1548 0.949 . S
C1552 C1560 1.574 . S
C1552 C1568 1.368 . S
H1553 C1561 0.950 . S
H1554 C1559 0.950 . S
H1555 C1560 0.949 . S
H1556 C1562 0.950 . S
H1557 C1563 0.950 . S
H1558 C1564 0.949 . S
C1559 H1554 0.950 . S
C1559 C1561 1.327 . S
C1559 C1565 1.429 . S
C1560 C1552 1.574 . S
C1560 H1555 0.949 . S
C1560 C1566 1.368 . S
C1561 C1545 1.349 . S
C1561 H1553 0.950 . S
C1561 C1559 1.327 . S
C1562 C1550 1.349 . S
C1562 H1556 0.950 . S
C1562 C1563 1.327 . S
C1563 H1557 0.950 . S
C1563 C1562 1.327 . S
C1563 C1567 1.429 . S
C1564 C1547 1.574 . S
C1564 H1558 0.949 . S
C1564 C1568 1.368 . S
C1565 C1546 1.429 . S
C1565 C1559 1.429 . S
C1565 C1566 1.523 . S
C1566 C1547 1.368 . S
C1566 C1560 1.368 . S
C1566 C1565 1.523 . S
C1567 C1551 1.429 . S
C1567 C1563 1.429 . S
C1567 C1568 1.523 1_655 S
C1568 C1552 1.368 . S
C1568 C1564 1.368 . S
C1568 C1567 1.523 1_455 S
H1569 C1544 0.950 . S
H1570 C1546 0.950 . S
H1571 C1547 0.949 . S
H1572 C1549 0.950 . S
H1573 C1551 0.950 . S
C1574 C1575 1.349 . S
C1574 C1576 1.327 . S
C1574 H1599 0.950 . S
C1575 C1574 1.349 . S
C1575 C1591 1.349 . S
C1576 C1574 1.327 . S
C1576 C1595 1.429 . S
C1576 H1600 0.950 . S
C1577 C1594 1.574 . S
C1577 C1596 1.368 . S
C1577 H1601 0.949 . S
H1578 C1582 0.949 . S
C1579 C1580 1.349 . S
C1579 C1581 1.327 . S
C1579 H1602 0.950 . S
C1580 C1579 1.349 . S
C1580 C1592 1.349 . S
C1581 C1579 1.327 . S
C1581 C1597 1.429 . S
C1581 H1603 0.950 . S
C1582 H1578 0.949 . S
C1582 C1590 1.574 . S
C1582 C1598 1.368 . S
H1583 C1591 0.950 . S
H1584 C1589 0.950 . S
H1585 C1590 0.949 . S
H1586 C1592 0.950 . S
H1587 C1593 0.950 . S
H1588 C1594 0.949 . S
C1589 H1584 0.950 . S
C1589 C1591 1.327 . S
C1589 C1595 1.429 . S
C1590 C1582 1.574 . S
C1590 H1585 0.949 . S
C1590 C1596 1.368 . S
C1591 C1575 1.349 . S
C1591 H1583 0.950 . S
C1591 C1589 1.327 . S
C1592 C1580 1.349 . S
C1592 H1586 0.950 . S
C1592 C1593 1.327 . S
C1593 H1587 0.950 . S
C1593 C1592 1.327 . S
C1593 C1597 1.429 . S
C1594 C1577 1.574 . S
C1594 H1588 0.949 . S
C1594 C1598 1.368 . S
C1595 C1576 1.429 . S
C1595 C1589 1.429 . S
C1595 C1596 1.523 . S
C1596 C1577 1.368 . S
C1596 C1590 1.368 . S
C1596 C1595 1.523 . S
C1597 C1581 1.429 . S
C1597 C1593 1.429 . S
C1597 C1598 1.523 . S
C1598 C1582 1.368 . S
C1598 C1594 1.368 . S
C1598 C1597 1.523 . S
H1599 C1574 0.950 . S
H1600 C1576 0.950 . S
H1601 C1577 0.949 . S
H1602 C1579 0.950 . S
H1603 C1581 0.950 . S
C1604 C1605 1.349 . S
C1604 C1606 1.327 . S
C1604 H1629 0.950 . S
C1605 C1604 1.349 . S
C1605 C1621 1.349 . S
C1606 C1604 1.327 . S
C1606 C1625 1.429 . S
C1606 H1630 0.950 . S
C1607 C1624 1.574 . S
C1607 C1626 1.368 . S
C1607 H1631 0.949 . S
H1608 C1612 0.949 . S
C1609 C1610 1.349 . S
C1609 C1611 1.327 . S
C1609 H1632 0.950 . S
C1610 C1609 1.349 . S
C1610 C1622 1.349 . S
C1611 C1609 1.327 . S
C1611 C1627 1.429 . S
C1611 H1633 0.950 . S
C1612 H1608 0.949 . S
C1612 C1620 1.574 . S
C1612 C1628 1.368 . S
H1613 C1621 0.950 . S
H1614 C1619 0.950 . S
H1615 C1620 0.949 . S
H1616 C1622 0.950 . S
H1617 C1623 0.950 . S
H1618 C1624 0.949 . S
C1619 H1614 0.950 . S
C1619 C1621 1.327 . S
C1619 C1625 1.429 . S
C1620 C1612 1.574 . S
C1620 H1615 0.949 . S
C1620 C1626 1.368 . S
C1621 C1605 1.349 . S
C1621 H1613 0.950 . S
C1621 C1619 1.327 . S
C1622 C1610 1.349 . S
C1622 H1616 0.950 . S
C1622 C1623 1.327 . S
C1623 H1617 0.950 . S
C1623 C1622 1.327 . S
C1623 C1627 1.429 . S
C1624 C1607 1.574 . S
C1624 H1618 0.949 . S
C1624 C1628 1.368 . S
C1625 C1606 1.429 . S
C1625 C1619 1.429 . S
C1625 C1626 1.523 . S
C1626 C1607 1.368 . S
C1626 C1620 1.368 . S
C1626 C1625 1.523 . S
C1627 C1611 1.429 . S
C1627 C1623 1.429 . S
C1627 C1628 1.523 1_655 S
C1628 C1612 1.368 . S
C1628 C1624 1.368 . S
C1628 C1627 1.523 1_455 S
H1629 C1604 0.950 . S
H1630 C1606 0.950 . S
H1631 C1607 0.949 . S
H1632 C1609 0.950 . S
H1633 C1611 0.950 . S
C1634 C1635 1.349 . S
C1634 C1636 1.327 . S
C1634 H1659 0.950 . S
C1635 C1634 1.349 . S
C1635 C1651 1.349 . S
C1636 C1634 1.327 . S
C1636 C1655 1.429 . S
C1636 H1660 0.950 . S
C1637 C1654 1.574 . S
C1637 C1656 1.368 . S
C1637 H1661 0.949 . S
H1638 C1642 0.949 . S
C1639 C1640 1.349 . S
C1639 C1641 1.327 . S
C1639 H1662 0.950 . S
C1640 C1639 1.349 . S
C1640 C1652 1.349 . S
C1641 C1639 1.327 . S
C1641 C1657 1.429 . S
C1641 H1663 0.950 . S
C1642 H1638 0.949 . S
C1642 C1650 1.574 . S
C1642 C1658 1.368 . S
H1643 C1651 0.950 . S
H1644 C1649 0.950 . S
H1645 C1650 0.949 . S
H1646 C1652 0.950 . S
H1647 C1653 0.950 . S
H1648 C1654 0.949 . S
C1649 H1644 0.950 . S
C1649 C1651 1.327 . S
C1649 C1655 1.429 . S
C1650 C1642 1.574 . S
C1650 H1645 0.949 . S
C1650 C1656 1.368 . S
C1651 C1635 1.349 . S
C1651 H1643 0.950 . S
C1651 C1649 1.327 . S
C1652 C1640 1.349 . S
C1652 H1646 0.950 . S
C1652 C1653 1.327 . S
C1653 H1647 0.950 . S
C1653 C1652 1.327 . S
C1653 C1657 1.429 . S
C1654 C1637 1.574 . S
C1654 H1648 0.949 . S
C1654 C1658 1.368 . S
C1655 C1636 1.429 . S
C1655 C1649 1.429 . S
C1655 C1656 1.523 . S
C1656 C1637 1.368 . S
C1656 C1650 1.368 . S
C1656 C1655 1.523 . S
C1657 C1641 1.429 . S
C1657 C1653 1.429 . S
C1657 C1658 1.523 . S
C1658 C1642 1.368 . S
C1658 C1654 1.368 . S
C1658 C1657 1.523 . S
H1659 C1634 0.950 . S
H1660 C1636 0.950 . S
H1661 C1637 0.949 . S
H1662 C1639 0.950 . S
H1663 C1641 0.950 . S
C1664 C1665 1.349 . S
C1664 C1666 1.327 . S
C1664 H1689 0.950 . S
C1665 C1664 1.349 . S
C1665 C1681 1.349 . S
C1666 C1664 1.327 . S
C1666 C1685 1.429 . S
C1666 H1690 0.950 . S
C1667 C1684 1.574 . S
C1667 C1686 1.368 . S
C1667 H1691 0.949 . S
H1668 C1672 0.949 . S
C1669 C1670 1.349 . S
C1669 C1671 1.327 . S
C1669 H1692 0.950 . S
C1670 C1669 1.349 . S
C1670 C1682 1.349 . S
C1671 C1669 1.327 . S
C1671 C1687 1.429 . S
C1671 H1693 0.950 . S
C1672 H1668 0.949 . S
C1672 C1680 1.574 . S
C1672 C1688 1.368 . S
H1673 C1681 0.950 . S
H1674 C1679 0.950 . S
H1675 C1680 0.949 . S
H1676 C1682 0.950 . S
H1677 C1683 0.950 . S
H1678 C1684 0.949 . S
C1679 H1674 0.950 . S
C1679 C1681 1.327 . S
C1679 C1685 1.429 . S
C1680 C1672 1.574 . S
C1680 H1675 0.949 . S
C1680 C1686 1.368 . S
C1681 C1665 1.349 . S
C1681 H1673 0.950 . S
C1681 C1679 1.327 . S
C1682 C1670 1.349 . S
C1682 H1676 0.950 . S
C1682 C1683 1.327 . S
C1683 H1677 0.950 . S
C1683 C1682 1.327 . S
C1683 C1687 1.429 . S
C1684 C1667 1.574 . S
C1684 H1678 0.949 . S
C1684 C1688 1.368 . S
C1685 C1666 1.429 . S
C1685 C1679 1.429 . S
C1685 C1686 1.523 . S
C1686 C1667 1.368 . S
C1686 C1680 1.368 . S
C1686 C1685 1.523 . S
C1687 C1671 1.429 . S
C1687 C1683 1.429 . S
C1687 C1688 1.523 . S
C1688 C1672 1.368 . S
C1688 C1684 1.368 . S
C1688 C1687 1.523 . S
H1689 C1664 0.950 . S
H1690 C1666 0.950 . S
H1691 C1667 0.949 . S
H1692 C1669 0.950 . S
H1693 C1671 0.950 . S
C1694 C1695 1.349 . S
C1694 C1696 1.327 . S
C1694 H1719 0.950 . S
C1695 C1694 1.349 . S
C1695 C1711 1.349 . S
C1696 C1694 1.327 . S
C1696 C1715 1.429 . S
C1696 H1720 0.950 . S
C1697 C1714 1.574 . S
C1697 C1716 1.368 . S
C1697 H1721 0.949 . S
H1698 C1702 0.949 . S
C1699 C1700 1.349 . S
C1699 C1701 1.327 . S
C1699 H1722 0.950 . S
C1700 C1699 1.349 . S
C1700 C1712 1.349 . S
C1701 C1699 1.327 . S
C1701 C1717 1.429 . S
C1701 H1723 0.950 . S
C1702 H1698 0.949 . S
C1702 C1710 1.574 . S
C1702 C1718 1.368 . S
H1703 C1711 0.950 . S
H1704 C1709 0.950 . S
H1705 C1710 0.949 . S
H1706 C1712 0.950 . S
H1707 C1713 0.950 . S
H1708 C1714 0.949 . S
C1709 H1704 0.950 . S
C1709 C1711 1.327 . S
C1709 C1715 1.429 . S
C1710 C1702 1.574 . S
C1710 H1705 0.949 . S
C1710 C1716 1.368 . S
C1711 C1695 1.349 . S
C1711 H1703 0.950 . S
C1711 C1709 1.327 . S
C1712 C1700 1.349 . S
C1712 H1706 0.950 . S
C1712 C1713 1.327 . S
C1713 H1707 0.950 . S
C1713 C1712 1.327 . S
C1713 C1717 1.429 . S
C1714 C1697 1.574 . S
C1714 H1708 0.949 . S
C1714 C1718 1.368 . S
C1715 C1696 1.429 . S
C1715 C1709 1.429 . S
C1715 C1716 1.523 . S
C1716 C1697 1.368 . S
C1716 C1710 1.368 . S
C1716 C1715 1.523 . S
C1717 C1701 1.429 . S
C1717 C1713 1.429 . S
C1717 C1718 1.523 . S
C1718 C1702 1.368 . S
C1718 C1714 1.368 . S
C1718 C1717 1.523 . S
H1719 C1694 0.950 . S
H1720 C1696 0.950 . S
H1721 C1697 0.949 . S
H1722 C1699 0.950 . S
H1723 C1701 0.950 . S
C1724 C1725 1.349 . S
C1724 C1726 1.327 . S
C1724 H1749 0.950 . S
C1725 C1724 1.349 . S
C1725 C1741 1.349 . S
C1726 C1724 1.327 . S
C1726 C1745 1.429 . S
C1726 H1750 0.950 . S
C1727 C1744 1.574 . S
C1727 C1746 1.368 . S
C1727 H1751 0.949 . S
H1728 C1732 0.949 . S
C1729 C1730 1.349 . S
C1729 C1731 1.327 . S
C1729 H1752 0.950 . S
C1730 C1729 1.349 . S
C1730 C1742 1.349 . S
C1731 C1729 1.327 . S
C1731 C1747 1.429 . S
C1731 H1753 0.950 . S
C1732 H1728 0.949 . S
C1732 C1740 1.574 . S
C1732 C1748 1.368 . S
H1733 C1741 0.950 . S
H1734 C1739 0.950 . S
H1735 C1740 0.949 . S
H1736 C1742 0.950 . S
H1737 C1743 0.950 . S
H1738 C1744 0.949 . S
C1739 H1734 0.950 . S
C1739 C1741 1.327 . S
C1739 C1745 1.429 . S
C1740 C1732 1.574 . S
C1740 H1735 0.949 . S
C1740 C1746 1.368 . S
C1741 C1725 1.349 . S
C1741 H1733 0.950 . S
C1741 C1739 1.327 . S
C1742 C1730 1.349 . S
C1742 H1736 0.950 . S
C1742 C1743 1.327 . S
C1743 H1737 0.950 . S
C1743 C1742 1.327 . S
C1743 C1747 1.429 . S
C1744 C1727 1.574 . S
C1744 H1738 0.949 . S
C1744 C1748 1.368 . S
C1745 C1726 1.429 . S
C1745 C1739 1.429 . S
C1745 C1746 1.523 . S
C1746 C1727 1.368 . S
C1746 C1740 1.368 . S
C1746 C1745 1.523 . S
C1747 C1731 1.429 . S
C1747 C1743 1.429 . S
C1747 C1748 1.523 . S
C1748 C1732 1.368 . S
C1748 C1744 1.368 . S
C1748 C1747 1.523 . S
H1749 C1724 0.950 . S
H1750 C1726 0.950 . S
H1751 C1727 0.949 . S
H1752 C1729 0.950 . S
H1753 C1731 0.950 . S
C1754 C1755 1.349 . S
C1754 C1756 1.327 . S
C1754 H1779 0.950 . S
C1755 C1754 1.349 . S
C1755 C1771 1.349 . S
C1756 C1754 1.327 . S
C1756 C1775 1.429 . S
C1756 H1780 0.950 . S
C1757 C1774 1.574 . S
C1757 C1776 1.368 . S
C1757 H1781 0.949 . S
H1758 C1762 0.949 . S
C1759 C1760 1.349 . S
C1759 C1761 1.327 . S
C1759 H1782 0.950 . S
C1760 C1759 1.349 . S
C1760 C1772 1.349 . S
C1761 C1759 1.327 . S
C1761 C1777 1.429 . S
C1761 H1783 0.950 . S
C1762 H1758 0.949 . S
C1762 C1770 1.574 . S
C1762 C1778 1.368 . S
H1763 C1771 0.950 . S
H1764 C1769 0.950 . S
H1765 C1770 0.949 . S
H1766 C1772 0.950 . S
H1767 C1773 0.950 . S
H1768 C1774 0.949 . S
C1769 H1764 0.950 . S
C1769 C1771 1.327 . S
C1769 C1775 1.429 . S
C1770 C1762 1.574 . S
C1770 H1765 0.949 . S
C1770 C1776 1.368 . S
C1771 C1755 1.349 . S
C1771 H1763 0.950 . S
C1771 C1769 1.327 . S
C1772 C1760 1.349 . S
C1772 H1766 0.950 . S
C1772 C1773 1.327 . S
C1773 H1767 0.950 . S
C1773 C1772 1.327 . S
C1773 C1777 1.429 . S
C1774 C1757 1.574 . S
C1774 H1768 0.949 . S
C1774 C1778 1.368 . S
C1775 C1756 1.429 . S
C1775 C1769 1.429 . S
C1775 C1776 1.523 . S
C1776 C1757 1.368 . S
C1776 C1770 1.368 . S
C1776 C1775 1.523 . S
C1777 C1761 1.429 . S
C1777 C1773 1.429 . S
C1777 C1778 1.523 . S
C1778 C1762 1.368 . S
C1778 C1774 1.368 . S
C1778 C1777 1.523 . S
H1779 C1754 0.950 . S
H1780 C1756 0.950 . S
H1781 C1757 0.949 . S
H1782 C1759 0.950 . S
H1783 C1761 0.950 . S
C1784 C1785 1.349 . S
C1784 C1786 1.327 . S
C1784 H1809 0.950 . S
C1785 C1784 1.349 . S
C1785 C1801 1.349 . S
C1786 C1784 1.327 . S
C1786 C1805 1.429 . S
C1786 H1810 0.950 . S
C1787 C1804 1.574 . S
C1787 C1806 1.368 . S
C1787 H1811 0.949 . S
H1788 C1792 0.949 . S
C1789 C1790 1.349 . S
C1789 C1791 1.327 . S
C1789 H1812 0.950 . S
C1790 C1789 1.349 . S
C1790 C1802 1.349 . S
C1791 C1789 1.327 . S
C1791 C1807 1.429 . S
C1791 H1813 0.950 . S
C1792 H1788 0.949 . S
C1792 C1800 1.574 . S
C1792 C1808 1.368 . S
H1793 C1801 0.950 . S
H1794 C1799 0.950 . S
H1795 C1800 0.949 . S
H1796 C1802 0.950 . S
H1797 C1803 0.950 . S
H1798 C1804 0.949 . S
C1799 H1794 0.950 . S
C1799 C1801 1.327 . S
C1799 C1805 1.429 . S
C1800 C1792 1.574 . S
C1800 H1795 0.949 . S
C1800 C1806 1.368 . S
C1801 C1785 1.349 . S
C1801 H1793 0.950 . S
C1801 C1799 1.327 . S
C1802 C1790 1.349 . S
C1802 H1796 0.950 . S
C1802 C1803 1.327 . S
C1803 H1797 0.950 . S
C1803 C1802 1.327 . S
C1803 C1807 1.429 . S
C1804 C1787 1.574 . S
C1804 H1798 0.949 . S
C1804 C1808 1.368 . S
C1805 C1786 1.429 . S
C1805 C1799 1.429 . S
C1805 C1806 1.523 . S
C1806 C1787 1.368 . S
C1806 C1800 1.368 . S
C1806 C1805 1.523 . S
C1807 C1791 1.429 . S
C1807 C1803 1.429 . S
C1807 C1808 1.523 . S
C1808 C1792 1.368 . S
C1808 C1804 1.368 . S
C1808 C1807 1.523 . S
H1809 C1784 0.950 . S
H1810 C1786 0.950 . S
H1811 C1787 0.949 . S
H1812 C1789 0.950 . S
H1813 C1791 0.950 . S
C1814 C1815 1.349 . S
C1814 C1816 1.327 . S
C1814 H1839 0.950 . S
C1815 C1814 1.349 . S
C1815 C1831 1.349 . S
C1816 C1814 1.327 . S
C1816 C1835 1.429 . S
C1816 H1840 0.950 . S
C1817 C1834 1.574 . S
C1817 C1836 1.368 . S
C1817 H1841 0.949 . S
H1818 C1822 0.949 . S
C1819 C1820 1.349 . S
C1819 C1821 1.327 . S
C1819 H1842 0.950 . S
C1820 C1819 1.349 . S
C1820 C1832 1.349 . S
C1821 C1819 1.327 . S
C1821 C1837 1.429 . S
C1821 H1843 0.950 . S
C1822 H1818 0.949 . S
C1822 C1830 1.574 . S
C1822 C1838 1.368 . S
H1823 C1831 0.950 . S
H1824 C1829 0.950 . S
H1825 C1830 0.949 . S
H1826 C1832 0.950 . S
H1827 C1833 0.950 . S
H1828 C1834 0.949 . S
C1829 H1824 0.950 . S
C1829 C1831 1.327 . S
C1829 C1835 1.429 . S
C1830 C1822 1.574 . S
C1830 H1825 0.949 . S
C1830 C1836 1.368 . S
C1831 C1815 1.349 . S
C1831 H1823 0.950 . S
C1831 C1829 1.327 . S
C1832 C1820 1.349 . S
C1832 H1826 0.950 . S
C1832 C1833 1.327 . S
C1833 H1827 0.950 . S
C1833 C1832 1.327 . S
C1833 C1837 1.429 . S
C1834 C1817 1.574 . S
C1834 H1828 0.949 . S
C1834 C1838 1.368 . S
C1835 C1816 1.429 . S
C1835 C1829 1.429 . S
C1835 C1836 1.523 . S
C1836 C1817 1.368 . S
C1836 C1830 1.368 . S
C1836 C1835 1.523 . S
C1837 C1821 1.429 . S
C1837 C1833 1.429 . S
C1837 C1838 1.523 . S
C1838 C1822 1.368 . S
C1838 C1834 1.368 . S
C1838 C1837 1.523 . S
H1839 C1814 0.950 . S
H1840 C1816 0.950 . S
H1841 C1817 0.949 . S
H1842 C1819 0.950 . S
H1843 C1821 0.950 . S
C1844 C1845 1.349 . S
C1844 C1846 1.327 . S
C1844 H1869 0.950 . S
C1845 C1844 1.349 . S
C1845 C1861 1.349 . S
C1846 C1844 1.327 . S
C1846 C1865 1.429 . S
C1846 H1870 0.950 . S
C1847 C1864 1.574 . S
C1847 C1866 1.368 . S
C1847 H1871 0.949 . S
H1848 C1852 0.949 . S
C1849 C1850 1.349 . S
C1849 C1851 1.327 . S
C1849 H1872 0.950 . S
C1850 C1849 1.349 . S
C1850 C1862 1.349 . S
C1851 C1849 1.327 . S
C1851 C1867 1.429 . S
C1851 H1873 0.950 . S
C1852 H1848 0.949 . S
C1852 C1860 1.574 . S
C1852 C1868 1.368 . S
H1853 C1861 0.950 . S
H1854 C1859 0.950 . S
H1855 C1860 0.949 . S
H1856 C1862 0.950 . S
H1857 C1863 0.950 . S
H1858 C1864 0.949 . S
C1859 H1854 0.950 . S
C1859 C1861 1.327 . S
C1859 C1865 1.429 . S
C1860 C1852 1.574 . S
C1860 H1855 0.949 . S
C1860 C1866 1.368 . S
C1861 C1845 1.349 . S
C1861 H1853 0.950 . S
C1861 C1859 1.327 . S
C1862 C1850 1.349 . S
C1862 H1856 0.950 . S
C1862 C1863 1.327 . S
C1863 H1857 0.950 . S
C1863 C1862 1.327 . S
C1863 C1867 1.429 . S
C1864 C1847 1.574 . S
C1864 H1858 0.949 . S
C1864 C1868 1.368 . S
C1865 C1846 1.429 . S
C1865 C1859 1.429 . S
C1865 C1866 1.523 . S
C1866 C1847 1.368 . S
C1866 C1860 1.368 . S
C1866 C1865 1.523 . S
C1867 C1851 1.429 . S
C1867 C1863 1.429 . S
C1867 C1868 1.523 . S
C1868 C1852 1.368 . S
C1868 C1864 1.368 . S
C1868 C1867 1.523 . S
H1869 C1844 0.950 . S
H1870 C1846 0.950 . S
H1871 C1847 0.949 . S
H1872 C1849 0.950 . S
H1873 C1851 0.950 . S
C1874 C1875 1.349 . S
C1874 C1876 1.327 . S
C1874 H1899 0.950 . S
C1875 C1874 1.349 . S
C1875 C1891 1.349 . S
C1876 C1874 1.327 . S
C1876 C1895 1.429 . S
C1876 H1900 0.950 . S
C1877 C1894 1.574 . S
C1877 C1896 1.368 . S
C1877 H1901 0.949 . S
H1878 C1882 0.949 . S
C1879 C1880 1.349 . S
C1879 C1881 1.327 . S
C1879 H1902 0.950 . S
C1880 C1879 1.349 . S
C1880 C1892 1.349 . S
C1881 C1879 1.327 . S
C1881 C1897 1.429 . S
C1881 H1903 0.950 . S
C1882 H1878 0.949 . S
C1882 C1890 1.574 . S
C1882 C1898 1.368 . S
H1883 C1891 0.950 . S
H1884 C1889 0.950 . S
H1885 C1890 0.949 . S
H1886 C1892 0.950 . S
H1887 C1893 0.950 . S
H1888 C1894 0.949 . S
C1889 H1884 0.950 . S
C1889 C1891 1.327 . S
C1889 C1895 1.429 . S
C1890 C1882 1.574 . S
C1890 H1885 0.949 . S
C1890 C1896 1.368 . S
C1891 C1875 1.349 . S
C1891 H1883 0.950 . S
C1891 C1889 1.327 . S
C1892 C1880 1.349 . S
C1892 H1886 0.950 . S
C1892 C1893 1.327 . S
C1893 H1887 0.950 . S
C1893 C1892 1.327 . S
C1893 C1897 1.429 . S
C1894 C1877 1.574 . S
C1894 H1888 0.949 . S
C1894 C1898 1.368 . S
C1895 C1876 1.429 . S
C1895 C1889 1.429 . S
C1895 C1896 1.523 . S
C1896 C1877 1.368 . S
C1896 C1890 1.368 . S
C1896 C1895 1.523 . S
C1897 C1881 1.429 . S
C1897 C1893 1.429 . S
C1897 C1898 1.523 . S
C1898 C1882 1.368 . S
C1898 C1894 1.368 . S
C1898 C1897 1.523 . S
H1899 C1874 0.950 . S
H1900 C1876 0.950 . S
H1901 C1877 0.949 . S
H1902 C1879 0.950 . S
H1903 C1881 0.950 . S
C945 C3 1.634 . S
C950 C713 1.637 . S
C975 C772 1.637 . S
C980 C62 1.634 . S
C1005 C121 1.634 . S
C1010 C831 1.637 . S
C1035 C890 1.637 . S
C1040 C180 1.634 . S
C1065 C475 1.634 . S
C1070 C241 1.637 . S
C1095 C300 1.637 . S
C1100 C534 1.634 . S
C1125 C593 1.634 . S
C1130 C359 1.637 . S
C1155 C418 1.637 . S
C1160 C652 1.634 . S
C1185 C33 1.792 . S
C1190 C151 1.792 . S
C1215 C92 1.792 . S
C1220 C210 1.792 . S
C1245 C269 1.570 . S
C1250 C387 1.570 . S
C1275 C328 1.570 . S
C1280 C446 1.570 . S
C1305 C623 1.792 . S
C1310 C505 1.792 . S
C1335 C564 1.792 . S
C1340 C682 1.792 . S
C1365 C859 1.570 . S
C1370 C741 1.570 . S
C1395 C800 1.570 . S
C1400 C918 1.570 . S
C1425 C406 1.675 . S
C1430 C52 1.681 . S
C1455 C465 1.675 . S
C1460 C111 1.681 . S
C1485 C170 1.681 . S
C1490 C288 1.675 . S
C1515 C229 1.681 . S
C1520 C347 1.675 . S
C1545 C878 1.675 . S
C1550 C524 1.681 . S
C1575 C583 1.681 . S
C1580 C937 1.675 . S
C1605 C760 1.675 . S
C1610 C642 1.681 . S
C1635 C701 1.681 . S
C1640 C819 1.675 . S
C1665 C5 1.936 . S
C1670 C182 1.936 . S
C1695 C123 1.936 . S
C1700 C64 1.936 . S
C1725 C239 1.190 . S
C1730 C416 1.190 . S
C1755 C298 1.190 . S
C1760 C357 1.190 . S
C1785 C654 1.936 . S
C1790 C477 1.936 . S
C1815 C536 1.936 . S
C1820 C595 1.936 . S
C1845 C888 1.190 . S
C1850 C711 1.190 . S
C1875 C770 1.190 . S
C1880 C829 1.190 . S
