# Generated by pormake.
# Topology ghw, (5)-cn, num edge types: 1
# Building blocks:
#     Node 0, Type 0, BuildingBlock: XOMCOT_clean_sbu_1, # of connection points: 5
#     Node 1, Type 0, BuildingBlock: XOMCOT_clean_sbu_1, # of connection points: 5
#     Node 2, Type 0, BuildingBlock: XOMCOT_clean_sbu_1, # of connection points: 5
#     Node 3, Type 0, BuildingBlock: XOMCOT_clean_sbu_1, # of connection points: 5
#     Node 4, Type 0, BuildingBlock: XOMCOT_clean_sbu_1, # of connection points: 5
#     Node 5, Type 0, BuildingBlock: XOMCOT_clean_sbu_1, # of connection points: 5
#     Node 6, Type 0, BuildingBlock: XOMCOT_clean_sbu_1, # of connection points: 5
#     Node 7, Type 0, BuildingBlock: XOMCOT_clean_sbu_1, # of connection points: 5
#     Node 8, Type 0, BuildingBlock: XOMCOT_clean_sbu_1, # of connection points: 5
#     Node 9, Type 0, BuildingBlock: XOMCOT_clean_sbu_1, # of connection points: 5
#     Node 10, Type 0, BuildingBlock: XOMCOT_clean_sbu_1, # of connection points: 5
#     Node 11, Type 0, BuildingBlock: XOMCOT_clean_sbu_1, # of connection points: 5
#     Node 12, Type 0, BuildingBlock: XOMCOT_clean_sbu_1, # of connection points: 5
#     Node 13, Type 0, BuildingBlock: XOMCOT_clean_sbu_1, # of connection points: 5
#     Node 14, Type 0, BuildingBlock: XOMCOT_clean_sbu_1, # of connection points: 5
#     Node 15, Type 0, BuildingBlock: XOMCOT_clean_sbu_1, # of connection points: 5
#     Edge 16, Type (0, 0), BuildingBlock: XUDNAN_clean_linker_2, # of connection points: 2
#     Edge 17, Type (0, 0), BuildingBlock: XUDNAN_clean_linker_2, # of connection points: 2
#     Edge 18, Type (0, 0), BuildingBlock: XUDNAN_clean_linker_2, # of connection points: 2
#     Edge 19, Type (0, 0), BuildingBlock: XUDNAN_clean_linker_2, # of connection points: 2
#     Edge 20, Type (0, 0), BuildingBlock: XUDNAN_clean_linker_2, # of connection points: 2
#     Edge 21, Type (0, 0), BuildingBlock: XUDNAN_clean_linker_2, # of connection points: 2
#     Edge 22, Type (0, 0), BuildingBlock: XUDNAN_clean_linker_2, # of connection points: 2
#     Edge 23, Type (0, 0), BuildingBlock: XUDNAN_clean_linker_2, # of connection points: 2
#     Edge 24, Type (0, 0), BuildingBlock: XUDNAN_clean_linker_2, # of connection points: 2
#     Edge 25, Type (0, 0), BuildingBlock: XUDNAN_clean_linker_2, # of connection points: 2
#     Edge 26, Type (0, 0), BuildingBlock: XUDNAN_clean_linker_2, # of connection points: 2
#     Edge 27, Type (0, 0), BuildingBlock: XUDNAN_clean_linker_2, # of connection points: 2
#     Edge 28, Type (0, 0), BuildingBlock: XUDNAN_clean_linker_2, # of connection points: 2
#     Edge 29, Type (0, 0), BuildingBlock: XUDNAN_clean_linker_2, # of connection points: 2
#     Edge 30, Type (0, 0), BuildingBlock: XUDNAN_clean_linker_2, # of connection points: 2
#     Edge 31, Type (0, 0), BuildingBlock: XUDNAN_clean_linker_2, # of connection points: 2
#     Edge 32, Type (0, 0), BuildingBlock: XUDNAN_clean_linker_2, # of connection points: 2
#     Edge 33, Type (0, 0), BuildingBlock: XUDNAN_clean_linker_2, # of connection points: 2
#     Edge 34, Type (0, 0), BuildingBlock: XUDNAN_clean_linker_2, # of connection points: 2
#     Edge 35, Type (0, 0), BuildingBlock: XUDNAN_clean_linker_2, # of connection points: 2
#     Edge 36, Type (0, 0), BuildingBlock: XUDNAN_clean_linker_2, # of connection points: 2
#     Edge 37, Type (0, 0), BuildingBlock: XUDNAN_clean_linker_2, # of connection points: 2
#     Edge 38, Type (0, 0), BuildingBlock: XUDNAN_clean_linker_2, # of connection points: 2
#     Edge 39, Type (0, 0), BuildingBlock: XUDNAN_clean_linker_2, # of connection points: 2
#     Edge 40, Type (0, 0), BuildingBlock: XUDNAN_clean_linker_2, # of connection points: 2
#     Edge 41, Type (0, 0), BuildingBlock: XUDNAN_clean_linker_2, # of connection points: 2
#     Edge 42, Type (0, 0), BuildingBlock: XUDNAN_clean_linker_2, # of connection points: 2
#     Edge 43, Type (0, 0), BuildingBlock: XUDNAN_clean_linker_2, # of connection points: 2
#     Edge 44, Type (0, 0), BuildingBlock: XUDNAN_clean_linker_2, # of connection points: 2
#     Edge 45, Type (0, 0), BuildingBlock: XUDNAN_clean_linker_2, # of connection points: 2
#     Edge 46, Type (0, 0), BuildingBlock: XUDNAN_clean_linker_2, # of connection points: 2
#     Edge 47, Type (0, 0), BuildingBlock: XUDNAN_clean_linker_2, # of connection points: 2
#     Edge 48, Type (0, 0), BuildingBlock: XUDNAN_clean_linker_2, # of connection points: 2
#     Edge 49, Type (0, 0), BuildingBlock: XUDNAN_clean_linker_2, # of connection points: 2
#     Edge 50, Type (0, 0), BuildingBlock: XUDNAN_clean_linker_2, # of connection points: 2
#     Edge 51, Type (0, 0), BuildingBlock: XUDNAN_clean_linker_2, # of connection points: 2
#     Edge 52, Type (0, 0), BuildingBlock: XUDNAN_clean_linker_2, # of connection points: 2
#     Edge 53, Type (0, 0), BuildingBlock: XUDNAN_clean_linker_2, # of connection points: 2
#     Edge 54, Type (0, 0), BuildingBlock: XUDNAN_clean_linker_2, # of connection points: 2
#     Edge 55, Type (0, 0), BuildingBlock: XUDNAN_clean_linker_2, # of connection points: 2
# Relax obj value: 0.212
# Max RMSD: 0.216
# Mean RMSD: 0.216
data_MOF--net-ghw--node1-XOMCOT_clean_sbu_1--edge1-XUDNAN_clean_linker_2
_symmetry_space_group_name_H-M    P1
_symmetry_Int_Tables_number       1
_symmetry_cell_setting            triclinic
loop_
_symmetry_equiv_pos_as_xyz
'x, y, z'
_cell_length_a     32.94606
_cell_length_b     41.416574
_cell_length_c     34.505997
_cell_angle_alpha  90.290185
_cell_angle_beta   92.68479
_cell_angle_gamma 89.995317
loop_
_atom_site_label
_atom_site_type_symbol
_atom_site_fract_x
_atom_site_fract_y
_atom_site_fract_z
_atom_type_partial_charge
C0 C 0.15819 0.08907 0.36565 0.0
C1 C 0.19486 0.07353 0.36334 0.0
N2 N 0.22274 0.08946 0.38592 0.0
N3 N 0.16261 0.11457 0.38991 0.0
C4 C 0.20237 0.11413 0.40194 0.0
H5 H 0.13053 0.08313 0.34905 0.0
Co6 Co 0.12194 0.1454 0.39749 0.0
C7 C 0.18274 0.19988 0.41652 0.0
O8 O 0.17932 0.21127 0.38117 0.0
N9 N 0.0812 0.17642 0.40575 0.0
C10 C 0.04654 0.2224 0.4075 0.0
C11 C 0.08355 0.20875 0.40158 0.0
C12 C 0.0421 0.17112 0.41424 0.0
N13 N 0.02021 0.19877 0.41545 0.0
O14 O 0.10816 0.1243 0.44564 0.0
H15 H 0.10945 0.22187 0.39241 0.0
H16 H 0.02969 0.1473 0.41813 0.0
O17 O 0.16224 0.17482 0.42572 0.0
C18 C 0.08519 0.09984 0.43778 0.0
O19 O 0.07724 0.0925 0.40115 0.0
N20 N 0.13016 0.16214 0.347 0.0
C21 C 0.13086 0.17626 0.26771 0.0
C22 C 0.16737 0.17229 0.28971 0.0
C23 C 0.16633 0.16418 0.32909 0.0
C24 C 0.0946 0.1647 0.32519 0.0
C25 C 0.09424 0.17232 0.28596 0.0
H26 H 0.1947 0.15951 0.34505 0.0
H27 H 0.06591 0.15949 0.33767 0.0
H28 H 0.21658 0.13213 0.42089 0.0
H29 H 0.20102 0.05312 0.34479 0.0
H30 H 0.03931 0.2477 0.40377 0.0
H31 H 0.19633 0.17408 0.27626 0.0
H32 H 0.06536 0.17437 0.26981 0.0
C33 C 0.06686 0.08249 0.84181 0.0
C34 C 0.02835 0.06997 0.84279 0.0
N35 N 0.00313 0.09311 0.85516 0.0
N36 N 0.06643 0.11367 0.85312 0.0
C37 C 0.0271 0.11945 0.86105 0.0
H38 H 0.09335 0.06931 0.83351 0.0
Co39 Co 0.11132 0.14198 0.85811 0.0
C40 C 0.0588 0.17574 0.79884 0.0
O41 O 0.05698 0.14965 0.77701 0.0
N42 N 0.15539 0.1702 0.86315 0.0
C43 C 0.19557 0.21322 0.8609 0.0
C44 C 0.15925 0.19995 0.84778 0.0
C45 C 0.19003 0.16569 0.88493 0.0
N46 N 0.21476 0.19159 0.88411 0.0
O47 O 0.1334 0.12517 0.81078 0.0
H48 H 0.13716 0.21166 0.82847 0.0
H49 H 0.19666 0.14412 0.90164 0.0
O50 O 0.07922 0.17526 0.83115 0.0
C51 C 0.16001 0.1034 0.81931 0.0
O52 O 0.16524 0.09487 0.85584 0.0
N53 N 0.09436 0.15617 0.90609 0.0
C54 C 0.09268 0.17361 0.98413 0.0
C55 C 0.08668 0.19689 0.95493 0.0
C56 C 0.08757 0.18764 0.91587 0.0
C57 C 0.09845 0.13311 0.93395 0.0
C58 C 0.09732 0.14122 0.97311 0.0
H59 H 0.08572 0.20606 0.89383 0.0
H60 H 0.10529 0.10852 0.92577 0.0
H61 H 0.01654 0.14244 0.87167 0.0
H62 H 0.01983 0.04556 0.83466 0.0
H63 H 0.20733 0.2367 0.85354 0.0
H64 H 0.08295 0.22214 0.96222 0.0
H65 H 0.10283 0.12254 0.99456 0.0
C66 C 0.86412 0.94698 0.67365 0.0
C67 C 0.8281 0.95887 0.6865 0.0
N68 N 0.79764 0.94762 0.6628 0.0
N69 N 0.85626 0.92784 0.6424 0.0
C70 C 0.81553 0.92935 0.63598 0.0
H71 H 0.89385 0.9502 0.6878 0.0
Co72 Co 0.89379 0.90088 0.61889 0.0
C73 C 0.8335 0.84621 0.60422 0.0
O74 O 0.84744 0.83183 0.63586 0.0
N75 N 0.93087 0.8743 0.59394 0.0
C76 C 0.96611 0.83279 0.57177 0.0
C77 C 0.93076 0.84193 0.58827 0.0
C78 C 0.96635 0.88418 0.58001 0.0
N79 N 0.9882 0.85948 0.56645 0.0
O80 O 0.89416 0.9304 0.57483 0.0
H81 H 0.90823 0.82537 0.59776 0.0
H82 H 0.97779 0.90857 0.58283 0.0
O83 O 0.84864 0.87351 0.59455 0.0
C84 C 0.91829 0.95321 0.58649 0.0
O85 O 0.93473 0.95151 0.62186 0.0
N86 N 0.89978 0.87606 0.6661 0.0
C87 C 0.92136 0.86314 0.7444 0.0
C88 C 0.88053 0.86761 0.73211 0.0
C89 C 0.87038 0.87393 0.69291 0.0
C90 C 0.93923 0.86958 0.67763 0.0
C91 C 0.9503 0.86205 0.71596 0.0
H92 H 0.83906 0.87939 0.68483 0.0
H93 H 0.96358 0.87305 0.65832 0.0
H94 H 0.79885 0.91545 0.61391 0.0
H95 H 0.82442 0.97349 0.71219 0.0
H96 H 0.97606 0.8083 0.56652 0.0
H97 H 0.85691 0.86878 0.75285 0.0
H98 H 0.98212 0.85793 0.72363 0.0
C99 C 0.94798 0.9639 0.18714 0.0
C100 C 0.9878 0.97345 0.1918 0.0
N101 N 0.01121 0.95148 0.17455 0.0
N102 N 0.94588 0.93581 0.1672 0.0
C103 C 0.98514 0.92857 0.16052 0.0
H104 H 0.92223 0.97765 0.19618 0.0
Co105 Co 0.89769 0.91613 0.14719 0.0
C106 C 0.9256 0.8713 0.20869 0.0
O107 O 0.92548 0.8956 0.23331 0.0
N108 N 0.85034 0.89773 0.12676 0.0
C109 C 0.7976 0.89027 0.08568 0.0
C110 C 0.83306 0.90697 0.09249 0.0
C111 C 0.82473 0.87562 0.14067 0.0
N112 N 0.79225 0.87047 0.11594 0.0
O113 O 0.86768 0.93171 0.19112 0.0
H114 H 0.84512 0.92536 0.07408 0.0
H115 H 0.82944 0.86412 0.16861 0.0
O116 O 0.91349 0.87587 0.17345 0.0
C117 C 0.84509 0.95635 0.18374 0.0
O118 O 0.84589 0.96927 0.14908 0.0
N119 N 0.92383 0.90284 0.10253 0.0
C120 C 0.94544 0.88877 0.0271 0.0
C121 C 0.93429 0.86399 0.052 0.0
C122 C 0.92374 0.87151 0.08981 0.0
C123 C 0.9354 0.92712 0.07895 0.0
C124 C 0.94691 0.92056 0.0413 0.0
H125 H 0.91275 0.85242 0.10777 0.0
H126 H 0.93377 0.9519 0.08881 0.0
H127 H 0.9942 0.90813 0.14328 0.0
H128 H 0.99848 0.99564 0.20548 0.0
H129 H 0.77639 0.89375 0.06115 0.0
H130 H 0.93261 0.83918 0.04198 0.0
H131 H 0.95471 0.94044 0.02276 0.0
C132 C 0.1641 0.59585 0.85888 0.0
C133 C 0.20193 0.58235 0.85519 0.0
N134 N 0.22983 0.60219 0.87233 0.0
N135 N 0.16798 0.62392 0.87866 0.0
C136 C 0.2085 0.6272 0.88623 0.0
H137 H 0.13564 0.5859 0.84749 0.0
Co138 Co 0.12531 0.65158 0.89066 0.0
C139 C 0.16729 0.70734 0.93085 0.0
O140 O 0.14392 0.72743 0.91062 0.0
N141 N 0.08204 0.67912 0.90371 0.0
C142 C 0.03786 0.70278 0.94186 0.0
C143 C 0.07448 0.687 0.94078 0.0
C144 C 0.04928 0.6905 0.88285 0.0
N145 N 0.02216 0.70496 0.90534 0.0
O146 O 0.10985 0.62235 0.93159 0.0
H147 H 0.09352 0.68024 0.96581 0.0
H148 H 0.0434 0.68643 0.85224 0.0
O149 O 0.16279 0.67678 0.92583 0.0
C150 C 0.08245 0.60417 0.91533 0.0
O151 O 0.07173 0.60966 0.87881 0.0
N152 N 0.13664 0.67601 0.8467 0.0
C153 C 0.14882 0.69254 0.76927 0.0
C154 C 0.17788 0.70063 0.7991 0.0
C155 C 0.1713 0.69198 0.83778 0.0
C156 C 0.10886 0.66773 0.818 0.0
C157 C 0.11323 0.67702 0.77988 0.0
H158 H 0.1953 0.69602 0.85965 0.0
H159 H 0.0839 0.65204 0.82432 0.0
H160 H 0.22232 0.64742 0.90177 0.0
H161 H 0.20844 0.55993 0.84047 0.0
H162 H 0.02314 0.71082 0.9676 0.0
H163 H 0.2064 0.71184 0.79252 0.0
H164 H 0.08926 0.67062 0.75874 0.0
C165 C 0.10244 0.59623 0.4031 0.0
C166 C 0.06417 0.58317 0.40572 0.0
N167 N 0.03969 0.59571 0.37715 0.0
N168 N 0.10206 0.61709 0.37321 0.0
C169 C 0.06373 0.61577 0.35768 0.0
H170 H 0.12847 0.59174 0.4226 0.0
Co171 Co 0.14408 0.64405 0.35776 0.0
C172 C 0.08791 0.70045 0.33806 0.0
O173 O 0.10044 0.71499 0.37026 0.0
N174 N 0.18586 0.67065 0.34045 0.0
C175 C 0.22394 0.71104 0.31997 0.0
C176 C 0.18693 0.7028 0.33357 0.0
C177 C 0.22279 0.66009 0.33076 0.0
N178 N 0.24629 0.68405 0.31802 0.0
O179 O 0.15119 0.6157 0.31295 0.0
H180 H 0.16316 0.71982 0.33842 0.0
H181 H 0.233 0.63546 0.33436 0.0
O182 O 0.10315 0.67289 0.32911 0.0
C183 C 0.17248 0.59216 0.32709 0.0
O184 O 0.18264 0.59286 0.36437 0.0
N185 N 0.14248 0.66746 0.40593 0.0
C186 C 0.14866 0.68825 0.48362 0.0
C187 C 0.11068 0.6813 0.46544 0.0
C188 C 0.10823 0.67078 0.42674 0.0
C189 C 0.17963 0.67382 0.42378 0.0
C190 C 0.18328 0.68494 0.46203 0.0
H191 H 0.07868 0.66488 0.41372 0.0
H192 H 0.20726 0.66851 0.40946 0.0
H193 H 0.05314 0.63046 0.33355 0.0
H194 H 0.05506 0.56639 0.42759 0.0
H195 H 0.23381 0.73507 0.31251 0.0
H196 H 0.08316 0.68329 0.48126 0.0
H197 H 0.2133 0.68894 0.47535 0.0
C198 C 0.81649 0.48149 0.10185 0.0
C199 C 0.777 0.49208 0.10052 0.0
N200 N 0.75213 0.46619 0.09837 0.0
N201 N 0.81693 0.44902 0.10037 0.0
C202 C 0.77725 0.44029 0.0985 0.0
H203 H 0.84316 0.4966 0.10509 0.0
Co204 Co 0.86412 0.4244 0.106 0.0
C205 C 0.83806 0.35636 0.09146 0.0
O206 O 0.86297 0.34785 0.12049 0.0
N207 N 0.9123 0.40025 0.11145 0.0
C208 C 0.96548 0.37034 0.09632 0.0
C209 C 0.92781 0.38136 0.08371 0.0
C210 C 0.94162 0.401 0.14014 0.0
N211 N 0.97409 0.3829 0.13178 0.0
O212 O 0.88201 0.43948 0.05624 0.0
H213 H 0.91318 0.37676 0.05551 0.0
H214 H 0.94026 0.4155 0.16608 0.0
O215 O 0.83504 0.3863 0.08224 0.0
C216 C 0.90733 0.46245 0.06399 0.0
O217 O 0.91418 0.4706 0.10054 0.0
N218 N 0.85019 0.41466 0.15688 0.0
C219 C 0.84389 0.41466 0.2374 0.0
C220 C 0.82207 0.39209 0.21396 0.0
C221 C 0.82489 0.39298 0.17333 0.0
C222 C 0.86909 0.43779 0.17923 0.0
C223 C 0.86731 0.43777 0.21921 0.0
H224 H 0.80638 0.37668 0.15561 0.0
H225 H 0.88701 0.45605 0.16579 0.0
H226 H 0.76703 0.41546 0.09794 0.0
H227 H 0.76751 0.51702 0.10247 0.0
H228 H 0.9859 0.35584 0.07978 0.0
H229 H 0.80251 0.37449 0.22677 0.0
H230 H 0.88487 0.45566 0.23571 0.0
C231 C 0.89751 0.46078 0.62073 0.0
C232 C 0.93722 0.4714 0.62126 0.0
N233 N 0.96 0.45199 0.64482 0.0
N234 N 0.89511 0.43478 0.64387 0.0
C235 C 0.93354 0.43029 0.65836 0.0
H236 H 0.8724 0.47048 0.60316 0.0
Co237 Co 0.84973 0.40776 0.64856 0.0
C238 C 0.89216 0.34609 0.67109 0.0
O239 O 0.8775 0.33275 0.6389 0.0
N240 N 0.804 0.37974 0.65411 0.0
C241 C 0.76094 0.33814 0.64854 0.0
C242 C 0.79471 0.35211 0.63432 0.0
C243 C 0.77441 0.38191 0.68007 0.0
N244 N 0.74822 0.35686 0.67735 0.0
O245 O 0.83562 0.43195 0.69468 0.0
H246 H 0.81056 0.34256 0.61014 0.0
H247 H 0.77163 0.4014 0.7007 0.0
O248 O 0.8838 0.37571 0.67857 0.0
C249 C 0.81379 0.45455 0.67911 0.0
O250 O 0.80653 0.45339 0.64134 0.0
N251 N 0.8598 0.39021 0.59946 0.0
C252 C 0.86841 0.38783 0.51954 0.0
C253 C 0.9014 0.3803 0.5451 0.0
C254 C 0.89649 0.38173 0.58535 0.0
C255 C 0.82775 0.39733 0.57449 0.0
C256 C 0.83103 0.3953 0.53466 0.0
H257 H 0.92275 0.37854 0.60491 0.0
H258 H 0.79987 0.40661 0.58554 0.0
H259 H 0.94253 0.41019 0.67658 0.0
H260 H 0.94842 0.4913 0.60462 0.0
H261 H 0.74568 0.31667 0.63725 0.0
H262 H 0.93117 0.37576 0.53421 0.0
H263 H 0.80542 0.40244 0.51575 0.0
C264 C 0.64263 0.10836 0.85519 0.0
C265 C 0.67913 0.09351 0.84883 0.0
N266 N 0.708 0.10724 0.87238 0.0
N267 N 0.6483 0.13116 0.88297 0.0
C268 C 0.68859 0.12981 0.89297 0.0
H269 H 0.61389 0.1033 0.83996 0.0
Co270 Co 0.6075 0.15845 0.90108 0.0
C271 C 0.66654 0.21254 0.92274 0.0
O272 O 0.65627 0.22848 0.891 0.0
N273 N 0.56669 0.18494 0.92099 0.0
C274 C 0.52989 0.22589 0.94196 0.0
C275 C 0.56767 0.21642 0.9314 0.0
C276 C 0.52788 0.17581 0.92614 0.0
N277 N 0.50459 0.20039 0.93851 0.0
O278 O 0.60189 0.13029 0.94569 0.0
H279 H 0.59326 0.23236 0.92997 0.0
H280 H 0.51674 0.15181 0.91938 0.0
O281 O 0.64953 0.18535 0.92946 0.0
C282 C 0.57969 0.10559 0.93691 0.0
O283 O 0.56726 0.10154 0.90049 0.0
N284 N 0.60809 0.18345 0.85351 0.0
C285 C 0.59718 0.20206 0.77496 0.0
C286 C 0.63567 0.193 0.79071 0.0
C287 C 0.6406 0.18439 0.83005 0.0
C288 C 0.57117 0.19402 0.83875 0.0
C289 C 0.56571 0.20476 0.80073 0.0
H290 H 0.67034 0.1768 0.84079 0.0
H291 H 0.54419 0.19234 0.8549 0.0
H292 H 0.70364 0.14509 0.91472 0.0
H293 H 0.6843 0.07461 0.82783 0.0
H294 H 0.52151 0.25029 0.94952 0.0
H295 H 0.66146 0.19069 0.77263 0.0
H296 H 0.5358 0.21316 0.79127 0.0
C297 C 0.58556 0.08 0.39866 0.0
C298 C 0.54803 0.06614 0.40201 0.0
N299 N 0.51966 0.08622 0.38631 0.0
N300 N 0.5812 0.10863 0.38061 0.0
C301 C 0.54058 0.1119 0.37359 0.0
H302 H 0.61416 0.07012 0.40964 0.0
Co303 Co 0.62457 0.13647 0.37284 0.0
C304 C 0.58581 0.19411 0.33438 0.0
O305 O 0.60637 0.21291 0.35903 0.0
N306 N 0.66896 0.16382 0.36478 0.0
C307 C 0.71415 0.19352 0.33455 0.0
C308 C 0.67732 0.17798 0.33078 0.0
C309 C 0.70225 0.16982 0.3881 0.0
N310 N 0.72946 0.18831 0.37066 0.0
O311 O 0.64241 0.10901 0.33063 0.0
H312 H 0.65873 0.17592 0.30422 0.0
H313 H 0.70797 0.15957 0.41649 0.0
O314 O 0.58985 0.16328 0.33668 0.0
C315 C 0.6698 0.08996 0.34493 0.0
O316 O 0.68019 0.0929 0.38202 0.0
N317 N 0.61025 0.1599 0.41748 0.0
C318 C 0.59506 0.18356 0.49173 0.0
C319 C 0.56821 0.19016 0.45986 0.0
C320 C 0.57589 0.17754 0.42311 0.0
C321 C 0.63508 0.15179 0.44861 0.0
C322 C 0.62879 0.16396 0.4856 0.0
H323 H 0.55328 0.18095 0.39987 0.0
H324 H 0.659 0.13434 0.44511 0.0
H325 H 0.52653 0.13274 0.35975 0.0
H326 H 0.54202 0.04343 0.41603 0.0
H327 H 0.72964 0.2059 0.31197 0.0
H328 H 0.54092 0.20423 0.46346 0.0
H329 H 0.64901 0.15655 0.50957 0.0
C330 C 0.37017 0.94425 0.15592 0.0
C331 C 0.33327 0.95832 0.16186 0.0
N332 N 0.30398 0.94004 0.14424 0.0
N333 N 0.36443 0.91728 0.13439 0.0
C334 C 0.32363 0.91513 0.12791 0.0
H335 H 0.39946 0.95305 0.16676 0.0
Co336 Co 0.40747 0.89153 0.11994 0.0
C337 C 0.37158 0.82968 0.09297 0.0
O338 O 0.40064 0.81665 0.11513 0.0
N339 N 0.45184 0.86601 0.10457 0.0
C340 C 0.49153 0.8384 0.0657 0.0
C341 C 0.45553 0.85485 0.06803 0.0
C342 C 0.48674 0.85666 0.12355 0.0
N343 N 0.51126 0.83957 0.10074 0.0
O344 O 0.41454 0.91917 0.07477 0.0
H345 H 0.43346 0.85876 0.04431 0.0
H346 H 0.49543 0.8636 0.15287 0.0
O347 O 0.36904 0.86067 0.09138 0.0
C348 C 0.44224 0.93915 0.08677 0.0
O349 O 0.45888 0.93487 0.12171 0.0
N350 N 0.40441 0.86959 0.16768 0.0
C351 C 0.40843 0.85023 0.24539 0.0
C352 C 0.4377 0.87085 0.23104 0.0
C353 C 0.43435 0.88091 0.19268 0.0
C354 C 0.37366 0.85136 0.18159 0.0
C355 C 0.37547 0.84093 0.22044 0.0
H356 H 0.45553 0.89867 0.18296 0.0
H357 H 0.34712 0.84557 0.16332 0.0
H358 H 0.30862 0.89605 0.11118 0.0
H359 H 0.32832 0.98019 0.1783 0.0
H360 H 0.50261 0.82714 0.03988 0.0
H361 H 0.46233 0.88021 0.24976 0.0
H362 H 0.35124 0.82614 0.23094 0.0
C363 C 0.4436 0.96531 0.61723 0.0
C364 C 0.48439 0.97223 0.62001 0.0
N365 N 0.50189 0.95312 0.64742 0.0
N366 N 0.43542 0.9418 0.6426 0.0
C367 C 0.47158 0.93499 0.66087 0.0
H368 H 0.42149 0.97589 0.59692 0.0
Co369 Co 0.38493 0.92217 0.64392 0.0
C370 C 0.39859 0.85798 0.68085 0.0
O371 O 0.37182 0.84657 0.65485 0.0
N372 N 0.33323 0.9035 0.64516 0.0
C373 C 0.27597 0.88476 0.66838 0.0
C374 C 0.31488 0.89491 0.6778 0.0
C375 C 0.30435 0.89936 0.61651 0.0
N376 N 0.26952 0.88771 0.62979 0.0
O377 O 0.36961 0.9507 0.68598 0.0
H378 H 0.32873 0.89655 0.70679 0.0
H379 H 0.30788 0.90549 0.58657 0.0
O380 O 0.40757 0.8882 0.68043 0.0
C381 C 0.35098 0.97437 0.66924 0.0
O382 O 0.34976 0.97502 0.63113 0.0
N383 N 0.39765 0.89814 0.59914 0.0
C384 C 0.40895 0.87182 0.52535 0.0
C385 C 0.42871 0.85855 0.55866 0.0
C386 C 0.42348 0.8726 0.59525 0.0
C387 C 0.38132 0.91284 0.5668 0.0
C388 C 0.38587 0.89989 0.52993 0.0
H389 H 0.44076 0.86314 0.61995 0.0
H390 H 0.36419 0.93491 0.56973 0.0
H391 H 0.47613 0.91613 0.68221 0.0
H392 H 0.50012 0.98959 0.60278 0.0
H393 H 0.2536 0.87723 0.68849 0.0
H394 H 0.4481 0.83757 0.55658 0.0
H395 H 0.37196 0.91229 0.50515 0.0
C396 C 0.68833 0.58192 0.42594 0.0
C397 C 0.72822 0.57275 0.42277 0.0
N398 N 0.74762 0.59658 0.40491 0.0
N399 N 0.68277 0.61158 0.41047 0.0
C400 C 0.71963 0.61986 0.39805 0.0
H401 H 0.66491 0.5674 0.4381 0.0
Co402 Co 0.63452 0.63541 0.40529 0.0
C403 C 0.67801 0.67315 0.46793 0.0
O404 O 0.67987 0.64742 0.49006 0.0
N405 N 0.58728 0.65863 0.40007 0.0
C406 C 0.53534 0.69169 0.40693 0.0
C407 C 0.57225 0.68174 0.42296 0.0
C408 C 0.55945 0.65478 0.37071 0.0
N409 N 0.52744 0.67464 0.37401 0.0
O410 O 0.61424 0.61563 0.45171 0.0
H411 H 0.58672 0.69033 0.44984 0.0
H412 H 0.56279 0.63752 0.34745 0.0
O413 O 0.66066 0.67126 0.43414 0.0
C414 C 0.58893 0.5928 0.44345 0.0
O415 O 0.58219 0.58498 0.40675 0.0
N416 N 0.65015 0.6526 0.35785 0.0
C417 C 0.65043 0.67425 0.28106 0.0
C418 C 0.65444 0.6961 0.31235 0.0
C419 C 0.65381 0.68483 0.35054 0.0
C420 C 0.64826 0.63088 0.32807 0.0
C421 C 0.64832 0.64113 0.28957 0.0
H422 H 0.65342 0.70224 0.37387 0.0
H423 H 0.64382 0.60557 0.3342 0.0
H424 H 0.72584 0.64246 0.38387 0.0
H425 H 0.74155 0.54988 0.43156 0.0
H426 H 0.51528 0.70918 0.41942 0.0
H427 H 0.65657 0.72183 0.30747 0.0
H428 H 0.64429 0.62321 0.26677 0.0
C429 C 0.59178 0.61017 0.91104 0.0
C430 C 0.55479 0.5957 0.91594 0.0
N431 N 0.52666 0.61064 0.89284 0.0
N432 N 0.58716 0.63395 0.88466 0.0
C433 C 0.54703 0.63374 0.87422 0.0
H434 H 0.62022 0.604 0.9261 0.0
Co435 Co 0.62909 0.66066 0.86917 0.0
C436 C 0.58656 0.72023 0.83944 0.0
O437 O 0.61411 0.73814 0.85806 0.0
N438 N 0.67178 0.68707 0.85251 0.0
C439 C 0.71017 0.71186 0.81035 0.0
C440 C 0.67336 0.69753 0.81562 0.0
C441 C 0.70862 0.69508 0.86888 0.0
N442 N 0.73272 0.71027 0.8439 0.0
O443 O 0.63562 0.63409 0.82352 0.0
H444 H 0.64982 0.69357 0.79319 0.0
H445 H 0.71849 0.68864 0.89793 0.0
O446 O 0.58884 0.68933 0.84173 0.0
C447 C 0.65911 0.61016 0.83172 0.0
O448 O 0.67163 0.60605 0.86806 0.0
N449 N 0.62625 0.68302 0.91654 0.0
C450 C 0.62565 0.69693 0.99623 0.0
C451 C 0.59343 0.70687 0.97071 0.0
C452 C 0.59411 0.69939 0.93086 0.0
C453 C 0.65715 0.67295 0.94105 0.0
C454 C 0.65842 0.68079 0.98026 0.0
H455 H 0.56759 0.70465 0.9124 0.0
H456 H 0.67985 0.65669 0.93055 0.0
H457 H 0.53289 0.64991 0.85316 0.0
H458 H 0.54891 0.5761 0.93555 0.0
H459 H 0.72 0.72102 0.78306 0.0
H460 H 0.56684 0.71855 0.98159 0.0
H461 H 0.68435 0.67277 0.99808 0.0
C462 C 0.31571 0.4673 0.61174 0.0
C463 C 0.2753 0.47569 0.6138 0.0
N464 N 0.25467 0.44947 0.62466 0.0
N465 N 0.32043 0.43583 0.62105 0.0
C466 C 0.28251 0.42569 0.62833 0.0
H467 H 0.33999 0.48349 0.60482 0.0
Co468 Co 0.3678 0.41036 0.62587 0.0
C469 C 0.33172 0.37389 0.55674 0.0
O470 O 0.34327 0.39538 0.53165 0.0
N471 N 0.41387 0.38459 0.63037 0.0
C472 C 0.45891 0.34546 0.62297 0.0
C473 C 0.42438 0.35979 0.60733 0.0
C474 C 0.4428 0.38531 0.65935 0.0
N475 N 0.47027 0.36151 0.65566 0.0
O476 O 0.39204 0.43379 0.58355 0.0
H477 H 0.40819 0.35235 0.58086 0.0
H478 H 0.44339 0.40264 0.68296 0.0
O479 O 0.34041 0.378 0.59281 0.0
C480 C 0.41442 0.45504 0.60132 0.0
O481 O 0.41323 0.45623 0.63934 0.0
N482 N 0.34847 0.39037 0.67001 0.0
C483 C 0.329 0.36626 0.74194 0.0
C484 C 0.3343 0.34518 0.71069 0.0
C485 C 0.344 0.35781 0.67464 0.0
C486 C 0.34427 0.41096 0.70047 0.0
C487 C 0.33383 0.39946 0.73652 0.0
H488 H 0.34922 0.34142 0.65093 0.0
H489 H 0.34949 0.43652 0.69677 0.0
H490 H 0.2755 0.40131 0.63696 0.0
H491 H 0.26243 0.49951 0.60933 0.0
H492 H 0.47513 0.32539 0.61073 0.0
H493 H 0.33104 0.31935 0.71416 0.0
H494 H 0.33033 0.41632 0.76024 0.0
C495 C 0.39262 0.43155 0.09444 0.0
C496 C 0.42778 0.44664 0.0849 0.0
N497 N 0.45813 0.43663 0.10949 0.0
N498 N 0.40044 0.41197 0.12497 0.0
C499 C 0.44077 0.41553 0.13359 0.0
H500 H 0.36312 0.43424 0.07968 0.0
Co501 Co 0.36018 0.3868 0.14682 0.0
C502 C 0.40866 0.32648 0.15943 0.0
O503 O 0.38379 0.31272 0.1335 0.0
N504 N 0.31917 0.36318 0.17011 0.0
C505 C 0.27831 0.32962 0.20033 0.0
C506 C 0.31669 0.33384 0.18706 0.0
C507 C 0.28247 0.37665 0.17507 0.0
N508 N 0.25718 0.35676 0.19294 0.0
O509 O 0.36162 0.41448 0.19278 0.0
H510 H 0.34075 0.31643 0.19065 0.0
H511 H 0.27386 0.40027 0.16422 0.0
O512 O 0.40276 0.35614 0.16911 0.0
C513 C 0.34205 0.44079 0.18553 0.0
O514 O 0.33108 0.4471 0.1493 0.0
N515 N 0.35327 0.36286 0.0986 0.0
C516 C 0.3355 0.34333 0.02125 0.0
C517 C 0.37579 0.34906 0.03488 0.0
C518 C 0.38407 0.35822 0.07371 0.0
C519 C 0.31437 0.35555 0.08605 0.0
C520 C 0.30525 0.34454 0.04849 0.0
H521 H 0.4152 0.36322 0.0831 0.0
H522 H 0.28912 0.35975 0.10397 0.0
H523 H 0.45696 0.40315 0.15713 0.0
H524 H 0.43088 0.46329 0.06114 0.0
H525 H 0.26686 0.30844 0.21448 0.0
H526 H 0.40065 0.34836 0.0155 0.0
H527 H 0.27389 0.33887 0.04055 0.0
H528 H 0.28452 0.13345 0.39272 0.0
H529 H 0.25861 0.03095 0.38388 0.0
H530 H 0.33204 1.01938 0.38283 0.0
H531 H 0.3664 0.1335 0.32854 0.0
H532 H 0.39665 0.16283 0.35572 0.0
H533 H 0.34212 0.16336 0.3578 0.0
H534 H 0.34833 0.15904 0.43265 0.0
H535 H 0.4029 0.1588 0.43087 0.0
H536 H 0.37736 0.1265 0.45468 0.0
H537 H 0.40742 1.01871 0.38109 0.0
H538 H 0.48105 0.02876 0.38002 0.0
H539 H 0.45968 0.13181 0.3895 0.0
C540 C 0.29442 0.10858 0.39126 0.0
C541 C 0.26583 0.08302 0.3885 0.0
C542 C 0.27995 0.05084 0.38579 0.0
C543 C 0.32158 0.04404 0.38526 0.0
C544 C 0.34889 0.06973 0.38732 0.0
C545 C 0.33605 0.10136 0.39038 0.0
C546 C 0.37198 0.12442 0.39112 0.0
C547 C 0.3691 0.14738 0.35621 0.0
C548 C 0.37533 0.1433 0.42963 0.0
C549 C 0.40691 0.10076 0.3879 0.0
C550 C 0.39275 0.06936 0.38586 0.0
C551 C 0.41891 0.04317 0.38286 0.0
C552 C 0.46073 0.04913 0.38241 0.0
C553 C 0.47626 0.08102 0.38482 0.0
C554 C 0.44878 0.10719 0.38723 0.0
H555 H 0.96199 0.15166 0.40828 0.0
H556 H 0.97909 0.25435 0.43025 0.0
H557 H 0.90522 0.26217 0.42582 0.0
H558 H 0.8835 0.15719 0.34015 0.0
H559 H 0.85516 0.12297 0.35635 0.0
H560 H 0.90933 0.1245 0.36529 0.0
H561 H 0.90056 0.11731 0.43897 0.0
H562 H 0.84623 0.11534 0.43025 0.0
H563 H 0.86802 0.14455 0.46409 0.0
H564 H 0.83068 0.26031 0.40894 0.0
H565 H 0.75936 0.24721 0.38797 0.0
H566 H 0.79004 0.14583 0.38301 0.0
C567 C 0.95051 0.17569 0.41326 0.0
C568 C 0.97691 0.20242 0.41885 0.0
C569 C 0.95994 0.23347 0.42487 0.0
C570 C 0.91783 0.2382 0.42279 0.0
C571 C 0.89291 0.21154 0.41572 0.0
C572 C 0.90852 0.18078 0.41193 0.0
C573 C 0.87514 0.1564 0.40288 0.0
C574 C 0.88116 0.13928 0.36385 0.0
C575 C 0.87233 0.13196 0.43603 0.0
C576 C 0.83856 0.17851 0.40064 0.0
C577 C 0.84944 0.21025 0.40818 0.0
C578 C 0.82152 0.23548 0.40408 0.0
C579 C 0.78137 0.22797 0.39207 0.0
C580 C 0.76979 0.19562 0.38487 0.0
C581 C 0.79848 0.17061 0.3895 0.0
H582 H 0.44898 0.15607 0.91004 0.0
H583 H 0.46018 0.24622 0.97478 0.0
H584 H 0.38591 0.25143 0.9724 0.0
H585 H 0.37009 0.17827 0.84723 0.0
H586 H 0.34391 0.14004 0.84695 0.0
H587 H 0.39793 0.14148 0.85695 0.0
H588 H 0.3896 0.11199 0.92217 0.0
H589 H 0.33544 0.11018 0.9122 0.0
H590 H 0.35553 0.12824 0.95671 0.0
H591 H 0.31172 0.25154 0.95366 0.0
H592 H 0.24147 0.24242 0.92696 0.0
H593 H 0.2775 0.15017 0.88028 0.0
C594 C 0.43614 0.17652 0.92468 0.0
C595 C 0.46103 0.20097 0.94202 0.0
C596 C 0.44225 0.22744 0.96044 0.0
C597 C 0.39989 0.23052 0.95961 0.0
C598 C 0.37651 0.20663 0.94096 0.0
C599 C 0.39387 0.17976 0.92461 0.0
C600 C 0.36189 0.15814 0.90506 0.0
C601 C 0.36889 0.15428 0.86147 0.0
C602 C 0.36054 0.12519 0.92525 0.0
C603 C 0.324 0.17766 0.91182 0.0
C604 C 0.33314 0.20564 0.93249 0.0
C605 C 0.30392 0.22924 0.9386 0.0
C606 C 0.26431 0.224 0.92327 0.0
C607 C 0.25433 0.19532 0.90257 0.0
C608 C 0.28438 0.17173 0.89722 0.0
H609 H 0.94576 0.14109 0.86077 0.0
H610 H 0.96173 0.03694 0.86425 0.0
H611 H 0.8886 0.03003 0.87094 0.0
H612 H 0.86723 0.14372 0.93295 0.0
H613 H 0.83909 0.17563 0.90862 0.0
H614 H 0.89335 0.17296 0.90467 0.0
H615 H 0.8838 0.17178 0.82976 0.0
H616 H 0.82956 0.17441 0.83347 0.0
H617 H 0.85122 0.14165 0.80676 0.0
H618 H 0.81341 0.03343 0.87279 0.0
H619 H 0.74055 0.0477 0.87356 0.0
H620 H 0.77169 0.1493 0.87375 0.0
C621 C 0.93409 0.11684 0.86343 0.0
C622 C 0.96007 0.08959 0.86133 0.0
C623 C 0.94295 0.05831 0.86473 0.0
C624 C 0.90123 0.05405 0.86891 0.0
C625 C 0.87659 0.08125 0.87026 0.0
C626 C 0.89228 0.11209 0.86806 0.0
C627 C 0.85862 0.13711 0.87001 0.0
C628 C 0.86496 0.15862 0.90622 0.0
C629 C 0.85564 0.15743 0.83278 0.0
C630 C 0.82168 0.11542 0.87308 0.0
C631 C 0.8329 0.08327 0.87301 0.0
C632 C 0.80426 0.05851 0.8734 0.0
C633 C 0.76302 0.06678 0.87372 0.0
C634 C 0.75068 0.09948 0.87417 0.0
C635 C 0.78048 0.12412 0.87423 0.0
H636 H 0.73728 0.95352 0.60738 0.0
H637 H 0.76128 0.94554 0.73147 0.0
H638 H 0.68737 0.94527 0.74138 0.0
H639 H 0.65111 1.00745 0.6129 0.0
H640 H 0.62392 0.98944 0.57171 0.0
H641 H 0.67863 0.98884 0.57475 0.0
H642 H 0.67761 0.92653 0.56709 0.0
H643 H 0.62289 0.92694 0.56425 0.0
H644 H 0.64967 0.90255 0.60022 0.0
H645 H 0.61044 0.94267 0.73703 0.0
H646 H 0.5366 0.94414 0.71924 0.0
H647 H 0.56349 0.95678 0.59857 0.0
C648 C 0.72683 0.95184 0.63658 0.0
C649 C 0.75479 0.94961 0.66868 0.0
C650 C 0.74024 0.94766 0.70658 0.0
C651 C 0.69838 0.94724 0.71242 0.0
C652 C 0.67154 0.94919 0.68009 0.0
C653 C 0.68521 0.95193 0.64295 0.0
C654 C 0.65015 0.95448 0.6132 0.0
C655 C 0.65101 0.98699 0.5919 0.0
C656 C 0.65009 0.92592 0.58451 0.0
C657 C 0.61462 0.95259 0.63935 0.0
C658 C 0.62751 0.94912 0.67779 0.0
C659 C 0.60001 0.94574 0.70707 0.0
C660 C 0.55826 0.94643 0.69677 0.0
C661 C 0.54459 0.95098 0.65771 0.0
C662 C 0.57322 0.95389 0.62875 0.0
H663 H 0.04605 0.82386 0.60247 0.0
H664 H 0.02521 0.90022 0.51906 0.0
H665 H 0.09945 0.90994 0.51809 0.0
H666 H 0.11402 0.86559 0.65847 0.0
H667 H 0.14617 0.83209 0.67282 0.0
H668 H 0.09357 0.82522 0.65932 0.0
H669 H 0.11353 0.78393 0.60687 0.0
H670 H 0.16627 0.79047 0.62087 0.0
H671 H 0.14871 0.79565 0.57099 0.0
H672 H 0.17349 0.91665 0.53412 0.0
H673 H 0.24102 0.92194 0.56754 0.0
H674 H 0.21264 0.84278 0.64342 0.0
C675 C 0.0575 0.84143 0.58259 0.0
C676 C 0.03064 0.86078 0.55995 0.0
C677 C 0.04594 0.88491 0.53584 0.0
C678 C 0.08784 0.89042 0.53513 0.0
C679 C 0.11367 0.87168 0.55902 0.0
C680 C 0.09903 0.84764 0.58233 0.0
C681 C 0.13181 0.83474 0.61016 0.0
C682 C 0.12071 0.83974 0.65268 0.0
C683 C 0.14058 0.79906 0.60166 0.0
C684 C 0.16689 0.85599 0.59986 0.0
C685 C 0.15612 0.87661 0.5697 0.0
C686 C 0.18258 0.90017 0.55717 0.0
C687 C 0.22086 0.90297 0.57628 0.0
C688 C 0.23195 0.88264 0.60792 0.0
C689 C 0.20483 0.85856 0.6193 0.0
H690 H 0.74022 0.8462 0.06043 0.0
H691 H 0.76167 0.85345 0.18504 0.0
H692 H 0.69304 0.83187 0.1943 0.0
H693 H 0.64891 0.87987 0.05863 0.0
H694 H 0.62623 0.85604 0.01946 0.0
H695 H 0.68017 0.86171 0.02294 0.0
H696 H 0.69018 0.80005 0.0225 0.0
H697 H 0.63606 0.79337 0.02038 0.0
H698 H 0.66773 0.77557 0.05871 0.0
H699 H 0.61826 0.82203 0.18989 0.0
H700 H 0.54514 0.82718 0.17271 0.0
H701 H 0.5716 0.83015 0.05083 0.0
C702 C 0.73093 0.84245 0.08971 0.0
C703 C 0.75628 0.8517 0.12196 0.0
C704 C 0.74307 0.84619 0.15983 0.0
C705 C 0.70404 0.8339 0.16535 0.0
C706 C 0.6788 0.827 0.13273 0.0
C707 C 0.69196 0.83089 0.09558 0.0
C708 C 0.6574 0.82754 0.06542 0.0
C709 C 0.65292 0.85811 0.0402 0.0
C710 C 0.66313 0.79732 0.04027 0.0
C711 C 0.62209 0.82364 0.09147 0.0
C712 C 0.63514 0.8222 0.13012 0.0
C713 C 0.60776 0.82259 0.15971 0.0
C714 C 0.56624 0.82594 0.14966 0.0
C715 C 0.55248 0.82958 0.11037 0.0
C716 C 0.5808 0.82693 0.08103 0.0
H717 H 0.0678 0.90374 0.16652 0.0
H718 H 0.05098 1.00768 0.16437 0.0
H719 H 0.12326 1.01506 0.15242 0.0
H720 H 0.16532 0.90466 0.21603 0.0
H721 H 0.18589 0.87163 0.18896 0.0
H722 H 0.13203 0.87394 0.1953 0.0
H723 H 0.1186 0.87145 0.12079 0.0
H724 H 0.17249 0.86924 0.1142 0.0
H725 H 0.14257 0.9005 0.09055 0.0
H726 H 0.19687 1.01212 0.14352 0.0
H727 H 0.26943 0.99888 0.13959 0.0
H728 H 0.24131 0.89685 0.14682 0.0
C729 C 0.07937 0.92797 0.16314 0.0
C730 C 0.05366 0.95515 0.16681 0.0
C731 C 0.07004 0.98651 0.16251 0.0
C732 C 0.11107 0.99097 0.1553 0.0
C733 C 0.13561 0.96384 0.15228 0.0
C734 C 0.12061 0.93292 0.15603 0.0
C735 C 0.15443 0.90814 0.153 0.0
C736 C 0.15972 0.88844 0.19056 0.0
C737 C 0.14654 0.88603 0.11752 0.0
C738 C 0.19069 0.93011 0.14761 0.0
C739 C 0.17882 0.96212 0.147 0.0
C740 C 0.20658 0.98716 0.14379 0.0
C741 C 0.24775 0.97942 0.14177 0.0
C742 C 0.26102 0.94691 0.143 0.0
C743 C 0.23194 0.92188 0.14531 0.0
H744 H 0.28896 0.64826 0.87176 0.0
H745 H 0.26909 0.54506 0.87992 0.0
H746 H 0.34325 0.53614 0.88524 0.0
H747 H 0.37721 0.64302 0.81344 0.0
H748 H 0.40297 0.67668 0.83699 0.0
H749 H 0.34826 0.67517 0.83421 0.0
H750 H 0.34719 0.68092 0.90895 0.0
H751 H 0.40189 0.68258 0.91194 0.0
H752 H 0.37563 0.65281 0.93931 0.0
H753 H 0.41918 0.53841 0.89177 0.0
H754 H 0.4924 0.55153 0.89624 0.0
H755 H 0.464 0.65307 0.88157 0.0
C756 C 0.30029 0.62383 0.87489 0.0
C757 C 0.27323 0.59731 0.87549 0.0
C758 C 0.28923 0.56566 0.87905 0.0
C759 C 0.33129 0.56039 0.88226 0.0
C760 C 0.35711 0.58699 0.88147 0.0
C761 C 0.34232 0.6181 0.87762 0.0
C762 C 0.37684 0.64236 0.87698 0.0
C763 C 0.37627 0.66037 0.83809 0.0
C764 C 0.37528 0.66606 0.91135 0.0
C765 C 0.41328 0.62003 0.88138 0.0
C766 C 0.40112 0.58822 0.88414 0.0
C767 C 0.42908 0.56321 0.88946 0.0
C768 C 0.47057 0.57088 0.89213 0.0
C769 C 0.48387 0.60325 0.88913 0.0
C770 C 0.45472 0.62808 0.88342 0.0
H771 H 0.78382 0.69644 0.90699 0.0
H772 H 0.77996 0.74392 0.79466 0.0
H773 H 0.85364 0.75215 0.80109 0.0
H774 H 0.86436 0.7489 0.95213 0.0
H775 H 0.88654 0.71581 0.97941 0.0
H776 H 0.83262 0.71651 0.96784 0.0
H777 H 0.83738 0.66012 0.9355 0.0
H778 H 0.89119 0.65922 0.94677 0.0
H779 H 0.87216 0.65405 0.8973 0.0
H780 H 0.92905 0.74861 0.81548 0.0
H781 H 0.9995 0.73653 0.83942 0.0
H782 H 0.95345 0.69445 0.94329 0.0
C783 C 0.79779 0.70912 0.88384 0.0
C784 C 0.77528 0.71881 0.84987 0.0
C785 C 0.79593 0.7354 0.82067 0.0
C786 C 0.83803 0.7405 0.82413 0.0
C787 C 0.85921 0.72951 0.8573 0.0
C788 C 0.83968 0.71473 0.88697 0.0
C789 C 0.86965 0.70392 0.9189 0.0
C790 C 0.86288 0.72239 0.95681 0.0
C791 C 0.86745 0.66716 0.92494 0.0
C792 C 0.90922 0.71371 0.90175 0.0
C793 C 0.90258 0.72863 0.86629 0.0
C794 C 0.93461 0.73744 0.84352 0.0
C795 C 0.97441 0.73043 0.85719 0.0
C796 C 0.98174 0.71497 0.89332 0.0
C797 C 0.9487 0.70707 0.91607 0.0
H798 H 0.47291 0.72349 0.36607 0.0
H799 H 0.49757 0.62556 0.32848 0.0
H800 H 0.43018 0.62282 0.29553 0.0
H801 H 0.38088 0.70977 0.39485 0.0
H802 H 0.35676 0.74684 0.37927 0.0
H803 H 0.41058 0.74595 0.38946 0.0
H804 H 0.42447 0.76608 0.32032 0.0
H805 H 0.37026 0.76922 0.31112 0.0
H806 H 0.40064 0.74621 0.27871 0.0
H807 H 0.35678 0.62516 0.28083 0.0
H808 H 0.28291 0.6331 0.28525 0.0
H809 H 0.30439 0.72891 0.33275 0.0
C810 C 0.46453 0.70181 0.35002 0.0
C811 C 0.49064 0.67482 0.34992 0.0
C812 C 0.47856 0.64683 0.32857 0.0
C813 C 0.44021 0.64503 0.3096 0.0
C814 C 0.41445 0.67152 0.3118 0.0
C815 C 0.42626 0.69961 0.33105 0.0
C816 C 0.39094 0.72264 0.33436 0.0
C817 C 0.38442 0.73178 0.377 0.0
C818 C 0.39688 0.75284 0.30961 0.0
C819 C 0.35684 0.70184 0.31725 0.0
C820 C 0.37123 0.6729 0.30318 0.0
C821 C 0.34517 0.64807 0.29066 0.0
C822 C 0.30337 0.65263 0.29358 0.0
C823 C 0.28821 0.68164 0.30912 0.0
C824 C 0.31522 0.70689 0.31978 0.0
H825 H 0.81402 0.57367 0.44518 0.0
H826 H 0.77377 0.61865 0.33698 0.0
H827 H 0.84431 0.61804 0.31542 0.0
H828 H 0.90476 0.61864 0.45824 0.0
H829 H 0.93447 0.58593 0.47899 0.0
H830 H 0.88038 0.58686 0.48409 0.0
H831 H 0.87413 0.52977 0.453 0.0
H832 H 0.92829 0.5288 0.4477 0.0
H833 H 0.89414 0.52268 0.40597 0.0
H834 H 0.91874 0.61332 0.30617 0.0
H835 H 0.99314 0.61105 0.31233 0.0
H836 H 0.98613 0.57288 0.42898 0.0
C837 C 0.82017 0.58296 0.41678 0.0
C838 C 0.78866 0.59608 0.39257 0.0
C839 C 0.79767 0.60868 0.35592 0.0
C840 C 0.83749 0.60814 0.34334 0.0
C841 C 0.86795 0.59513 0.36793 0.0
C842 C 0.8599 0.58308 0.40405 0.0
C843 C 0.89869 0.57294 0.42605 0.0
C844 C 0.90493 0.59225 0.46408 0.0
C845 C 0.8988 0.53638 0.43362 0.0
C846 C 0.92985 0.58192 0.397 0.0
C847 C 0.91133 0.59394 0.36337 0.0
C848 C 0.93364 0.60417 0.33249 0.0
C849 C 0.9761 0.60302 0.33649 0.0
C850 C 0.99608 0.59242 0.3715 0.0
C851 C 0.97229 0.58101 0.40173 0.0
H852 H 0.52644 0.40132 0.12874 0.0
H853 H 0.48475 0.49538 0.08889 0.0
H854 H 0.55551 0.51245 0.08187 0.0
H855 H 0.61753 0.43076 0.18375 0.0
H856 H 0.6483 0.39679 0.17062 0.0
H857 H 0.59422 0.39199 0.17407 0.0
H858 H 0.58907 0.36999 0.10363 0.0
H859 H 0.64305 0.37502 0.09983 0.0
H860 H 0.60829 0.39393 0.06502 0.0
H861 H 0.62928 0.51886 0.07565 0.0
H862 H 0.70349 0.51565 0.07416 0.0
H863 H 0.70022 0.41822 0.12011 0.0
C864 C 0.53236 0.42564 0.11915 0.0
C865 C 0.49996 0.44696 0.10907 0.0
C866 C 0.50894 0.47848 0.09617 0.0
C867 C 0.54907 0.48846 0.09224 0.0
C868 C 0.58018 0.46673 0.10144 0.0
C869 C 0.57256 0.43607 0.11496 0.0
C870 C 0.61205 0.41755 0.12211 0.0
C871 C 0.6184 0.40876 0.1652 0.0
C872 C 0.61316 0.38733 0.09609 0.0
C873 C 0.6428 0.44259 0.11023 0.0
C874 C 0.6235 0.47069 0.09839 0.0
C875 C 0.64486 0.49714 0.08532 0.0
C876 C 0.6872 0.49509 0.0848 0.0
C877 C 0.70817 0.46688 0.09752 0.0
C878 C 0.68537 0.44013 0.11008 0.0
H879 H 0.19539 0.31641 0.17392 0.0
H880 H 0.22456 0.41084 0.2216 0.0
H881 H 0.15141 0.42431 0.22134 0.0
H882 H 0.12496 0.34219 0.10726 0.0
H883 H 0.09021 0.30871 0.10967 0.0
H884 H 0.14311 0.30301 0.12272 0.0
H885 H 0.12549 0.28192 0.19052 0.0
H886 H 0.07231 0.28656 0.17696 0.0
H887 H 0.09339 0.3057 0.22042 0.0
H888 H 0.07771 0.43047 0.20687 0.0
H889 H 0.00872 0.43042 0.17626 0.0
H890 H 0.02691 0.33271 0.13472 0.0
C891 C 0.18598 0.33932 0.1858 0.0
C892 C 0.21504 0.36247 0.19849 0.0
C893 C 0.20233 0.39283 0.21227 0.0
C894 C 0.16098 0.40053 0.21238 0.0
C895 C 0.13294 0.37759 0.19839 0.0
C896 C 0.14483 0.34754 0.18537 0.0
C897 C 0.10936 0.32922 0.16637 0.0
C898 C 0.11741 0.3203 0.12401 0.0
C899 C 0.09954 0.29907 0.18998 0.0
C900 C 0.07625 0.3544 0.16877 0.0
C901 C 0.0902 0.38167 0.18845 0.0
C902 C 0.06611 0.40903 0.19213 0.0
C903 C 0.02691 0.40874 0.17469 0.0
C904 C 0.01245 0.38147 0.15332 0.0
C905 C 0.03726 0.3538 0.15098 0.0
H906 H 0.52457 0.40663 0.67908 0.0
H907 H 0.4996 0.30424 0.6804 0.0
H908 H 0.56947 0.2937 0.70617 0.0
H909 H 0.6113 0.4009 0.63848 0.0
H910 H 0.63846 0.43305 0.66379 0.0
H911 H 0.5841 0.43389 0.65964 0.0
H912 H 0.58123 0.43779 0.73441 0.0
H913 H 0.63599 0.43696 0.73876 0.0
H914 H 0.60685 0.40794 0.76451 0.0
H915 H 0.64322 0.29276 0.71414 0.0
H916 H 0.71521 0.30107 0.70038 0.0
H917 H 0.69491 0.40405 0.69251 0.0
C918 C 0.53344 0.3823 0.68703 0.0
C919 C 0.50698 0.35625 0.67859 0.0
C920 C 0.51963 0.32441 0.68725 0.0
C921 C 0.55909 0.31831 0.70216 0.0
C922 C 0.58546 0.34439 0.70822 0.0
C923 C 0.57309 0.37589 0.7012 0.0
C924 C 0.60906 0.39873 0.70197 0.0
C925 C 0.61081 0.41769 0.6637 0.0
C926 C 0.60822 0.42171 0.73701 0.0
C927 C 0.64367 0.37483 0.70682 0.0
C928 C 0.62935 0.34379 0.71203 0.0
C929 C 0.65493 0.31701 0.71132 0.0
C930 C 0.69568 0.32188 0.70327 0.0
C931 C 0.71033 0.3532 0.69569 0.0
C932 C 0.68453 0.38006 0.69942 0.0
H933 H 0.01643 0.48041 0.59983 0.0
H934 H 0.00417 0.42238 0.70326 0.0
H935 H 0.07833 0.41648 0.70955 0.0
H936 H 0.0971 0.43758 0.56104 0.0
H937 H 0.12338 0.47256 0.54405 0.0
H938 H 0.06913 0.4737 0.54819 0.0
H939 H 0.07614 0.52412 0.59273 0.0
H940 H 0.13044 0.52334 0.58846 0.0
H941 H 0.10936 0.52269 0.63571 0.0
H942 H 0.15324 0.41301 0.70203 0.0
H943 H 0.22483 0.4162 0.68409 0.0
H944 H 0.18986 0.47905 0.58815 0.0
C945 C 0.02913 0.46696 0.62427 0.0
C946 C 0.00385 0.45149 0.65069 0.0
C947 C 0.02234 0.43389 0.68199 0.0
C948 C 0.06465 0.43056 0.68605 0.0
C949 C 0.08841 0.4454 0.659 0.0
C950 C 0.07146 0.4637 0.62908 0.0
C951 C 0.10406 0.47684 0.60375 0.0
C952 C 0.09804 0.46442 0.56178 0.0
C953 C 0.10505 0.51395 0.60527 0.0
C954 C 0.14185 0.46248 0.62371 0.0
C955 C 0.13203 0.44435 0.65546 0.0
C956 C 0.16137 0.42741 0.67749 0.0
C957 C 0.20187 0.42916 0.66692 0.0
C958 C 0.2128 0.44788 0.6348 0.0
C959 C 0.18234 0.4649 0.61311 0.0
H960 H 0.08806 0.14297 0.21121 0.0
H961 H 0.17224 0.22271 0.22883 0.0
H962 H 0.16798 0.23355 0.15803 0.0
H963 H 0.12738 0.1145 0.12283 0.0
H964 H 0.07831 0.10309 0.10184 0.0
H965 H 0.08727 0.10285 0.15368 0.0
H966 H 0.0258 0.14112 0.16111 0.0
H967 H 0.01685 0.14171 0.10921 0.0
H968 H 0.0241 0.17906 0.13569 0.0
H969 H 0.15386 0.23521 0.0848 0.0
H970 H 0.137 0.2243 0.01535 0.0
H971 H 0.06222 0.14323 0.04694 0.0
C972 C 0.1054 0.16286 0.20019 0.0
C973 C 0.13024 0.18221 0.22536 0.0
C974 C 0.15314 0.20759 0.20987 0.0
C975 C 0.15065 0.21402 0.16984 0.0
C976 C 0.12534 0.19469 0.14585 0.0
C977 C 0.1035 0.1694 0.1605 0.0
C978 C 0.07995 0.1512 0.12867 0.0
C979 C 0.09409 0.11583 0.12664 0.0
C980 C 0.03395 0.15342 0.134 0.0
C981 C 0.09205 0.17003 0.09362 0.0
C982 C 0.11786 0.19526 0.10406 0.0
C983 C 0.13359 0.21558 0.07636 0.0
C984 C 0.12354 0.20937 0.037 0.0
C985 C 0.0982 0.18295 0.0257 0.0
C986 C 0.08176 0.16352 0.05461 0.0
H987 H 0.89763 0.85409 0.97444 0.0
H988 H 0.00903 0.9098 0.98621 0.0
H989 H 0.01779 0.90439 0.9158 0.0
H990 H 0.93001 0.7991 0.89534 0.0
H991 H 0.88029 0.79946 0.87115 0.0
H992 H 0.88539 0.80377 0.92314 0.0
H993 H 0.84445 0.85706 0.91865 0.0
H994 H 0.83949 0.85292 0.86671 0.0
H995 H 0.86136 0.88911 0.8881 0.0
H996 H 0.01091 0.89841 0.84467 0.0
H997 H 0.98966 0.89225 0.77619 0.0
H998 H 0.88268 0.83903 0.8084 0.0
C999 C 0.92445 0.8643 0.96227 0.0
C1000 C 0.95293 0.88214 0.98574 0.0
C1001 C 0.98698 0.89603 0.9687 0.0
C1002 C 0.99226 0.89295 0.92881 0.0
C1003 C 0.96321 0.87589 0.90632 0.0
C1004 C 0.93003 0.86164 0.92231 0.0
C1005 C 0.90169 0.84695 0.89097 0.0
C1006 C 0.89923 0.81012 0.89543 0.0
C1007 C 0.85925 0.86245 0.89113 0.0
C1008 C 0.92358 0.85602 0.85483 0.0
C1009 C 0.95923 0.87234 0.8646 0.0
C1010 C 0.9836 0.88499 0.83662 0.0
C1011 C 0.97128 0.88106 0.79756 0.0
C1012 C 0.93484 0.86442 0.78638 0.0
C1013 C 0.91083 0.85161 0.8157 0.0
H1014 H 0.11484 0.65593 0.5428 0.0
H1015 H 0.19381 0.73653 0.51953 0.0
H1016 H 0.20435 0.74644 0.59016 0.0
H1017 H 0.06662 0.68941 0.62523 0.0
H1018 H 0.06636 0.65158 0.65081 0.0
H1019 H 0.06448 0.65184 0.59858 0.0
H1020 H 0.12822 0.61508 0.59876 0.0
H1021 H 0.13032 0.61476 0.65097 0.0
H1022 H 0.17394 0.6276 0.62543 0.0
H1023 H 0.20212 0.74924 0.66484 0.0
H1024 H 0.19272 0.7412 0.73488 0.0
H1025 H 0.12169 0.655 0.70707 0.0
C1026 C 0.1336 0.67613 0.55255 0.0
C1027 C 0.15286 0.69588 0.52573 0.0
C1028 C 0.17843 0.72133 0.53966 0.0
C1029 C 0.18444 0.72721 0.5797 0.0
C1030 C 0.16471 0.7074 0.60544 0.0
C1031 C 0.14027 0.68209 0.59228 0.0
C1032 C 0.12441 0.66304 0.62559 0.0
C1033 C 0.0777 0.66404 0.62501 0.0
C1034 C 0.14018 0.62806 0.62515 0.0
C1035 C 0.14302 0.6819 0.65961 0.0
C1036 C 0.16587 0.7076 0.64767 0.0
C1037 C 0.18451 0.72899 0.67442 0.0
C1038 C 0.17925 0.72407 0.71428 0.0
C1039 C 0.15596 0.6977 0.72713 0.0
C1040 C 0.13856 0.67612 0.69896 0.0
H1041 H 0.86747 0.34691 0.45583 0.0
H1042 H 0.87773 0.44722 0.49149 0.0
H1043 H 0.86947 0.46426 0.42325 0.0
H1044 H 0.92357 0.3571 0.36472 0.0
H1045 H 0.89173 0.32851 0.33803 0.0
H1046 H 0.90099 0.3239 0.38958 0.0
H1047 H 0.82343 0.3236 0.39842 0.0
H1048 H 0.81395 0.32883 0.34701 0.0
H1049 H 0.79302 0.35705 0.38064 0.0
H1050 H 0.85089 0.47102 0.35432 0.0
H1051 H 0.83865 0.46775 0.28375 0.0
H1052 H 0.84682 0.36312 0.28885 0.0
C1053 C 0.86939 0.37231 0.44888 0.0
C1054 C 0.87374 0.39588 0.47856 0.0
C1055 C 0.87507 0.42897 0.46888 0.0
C1056 C 0.87001 0.43885 0.43034 0.0
C1057 C 0.86421 0.41527 0.40178 0.0
C1058 C 0.86513 0.38266 0.41015 0.0
C1059 C 0.8584 0.36267 0.3733 0.0
C1060 C 0.89592 0.34182 0.36597 0.0
C1061 C 0.81991 0.34181 0.37496 0.0
C1062 C 0.85291 0.38926 0.34324 0.0
C1063 C 0.85571 0.4193 0.36075 0.0
C1064 C 0.84978 0.4477 0.34001 0.0
C1065 C 0.84285 0.44554 0.29987 0.0
C1066 C 0.84297 0.41525 0.28049 0.0
C1067 C 0.8468 0.38663 0.30272 0.0
H1068 H 0.64815 0.20618 0.55006 0.0
H1069 H 0.52144 0.18182 0.52499 0.0
H1070 H 0.50734 0.19048 0.59369 0.0
H1071 H 0.65966 0.16582 0.63669 0.0
H1072 H 0.69172 0.19508 0.66198 0.0
H1073 H 0.69134 0.19236 0.60992 0.0
H1074 H 0.67238 0.25309 0.60424 0.0
H1075 H 0.67389 0.25582 0.65642 0.0
H1076 H 0.62892 0.26812 0.62861 0.0
H1077 H 0.50911 0.19192 0.665 0.0
H1078 H 0.52444 0.19021 0.7345 0.0
H1079 H 0.64948 0.21822 0.71612 0.0
C1080 C 0.61726 0.2034 0.55893 0.0
C1081 C 0.58581 0.19353 0.53194 0.0
C1082 C 0.54586 0.18996 0.54476 0.0
C1083 C 0.53759 0.19469 0.58385 0.0
C1084 C 0.56942 0.20348 0.6098 0.0
C1085 C 0.60835 0.2084 0.59791 0.0
C1086 C 0.63743 0.21566 0.63242 0.0
C1087 C 0.67207 0.19074 0.63541 0.0
C1088 C 0.65412 0.25024 0.63028 0.0
C1089 C 0.6091 0.21231 0.66566 0.0
C1090 C 0.57001 0.20561 0.6517 0.0
C1091 C 0.53923 0.19836 0.67634 0.0
C1092 C 0.54842 0.19783 0.71628 0.0
C1093 C 0.58813 0.20513 0.73197 0.0
C1094 C 0.61873 0.21276 0.70583 0.0
H1095 H 0.35049 0.85512 0.29996 0.0
H1096 H 0.47538 0.82667 0.28499 0.0
H1097 H 0.4864 0.82164 0.35593 0.0
H1098 H 0.36989 0.90497 0.37717 0.0
H1099 H 0.32542 0.89549 0.40341 0.0
H1100 H 0.32443 0.8905 0.35161 0.0
H1101 H 0.30369 0.83047 0.35826 0.0
H1102 H 0.30395 0.83548 0.41022 0.0
H1103 H 0.33417 0.80422 0.38928 0.0
H1104 H 0.48715 0.82792 0.428 0.0
H1105 H 0.47744 0.84494 0.49552 0.0
H1106 H 0.35161 0.86836 0.46468 0.0
C1107 C 0.37957 0.84651 0.3116 0.0
C1108 C 0.41196 0.84095 0.28698 0.0
C1109 C 0.45013 0.83094 0.30337 0.0
C1110 C 0.45664 0.82792 0.34362 0.0
C1111 C 0.42458 0.83471 0.36727 0.0
C1112 C 0.38663 0.84349 0.3519 0.0
C1113 C 0.3588 0.85308 0.38381 0.0
C1114 C 0.34378 0.88808 0.37868 0.0
C1115 C 0.32303 0.82939 0.38549 0.0
C1116 C 0.38758 0.84979 0.4192 0.0
C1117 C 0.42513 0.83857 0.40913 0.0
C1118 C 0.45759 0.83604 0.4364 0.0
C1119 C 0.45173 0.84569 0.47483 0.0
C1120 C 0.41374 0.85799 0.48573 0.0
C1121 C 0.38113 0.85926 0.45746 0.0
H1122 H 0.65631 0.65526 0.05211 0.0
H1123 H 0.59082 0.7459 0.03916 0.0
H1124 H 0.59155 0.75141 0.11069 0.0
H1125 H 0.60923 0.62674 0.1347 0.0
H1126 H 0.65509 0.60936 0.15614 0.0
H1127 H 0.64875 0.61286 0.10426 0.0
H1128 H 0.71613 0.64505 0.10283 0.0
H1129 H 0.72276 0.64164 0.15475 0.0
H1130 H 0.72275 0.68087 0.13235 0.0
H1131 H 0.59951 0.74587 0.18511 0.0
H1132 H 0.61169 0.72937 0.25334 0.0
H1133 H 0.67713 0.64486 0.21505 0.0
C1134 C 0.64283 0.6768 0.06384 0.0
C1135 C 0.62436 0.70054 0.03943 0.0
C1136 C 0.60531 0.72732 0.05688 0.0
C1137 C 0.60582 0.73079 0.09759 0.0
C1138 C 0.62542 0.70723 0.1205 0.0
C1139 C 0.64352 0.68078 0.10403 0.0
C1140 C 0.66248 0.65857 0.13447 0.0
C1141 C 0.64269 0.6249 0.13225 0.0
C1142 C 0.70877 0.65642 0.13088 0.0
C1143 C 0.6519 0.67635 0.17097 0.0
C1144 C 0.63055 0.70438 0.16252 0.0
C1145 C 0.61653 0.7241 0.19191 0.0
C1146 C 0.624 0.71463 0.23072 0.0
C1147 C 0.64557 0.68574 0.24 0.0
C1148 C 0.66013 0.66683 0.20937 0.0
H1149 H 0.37737 0.33351 0.79529 0.0
H1150 H 0.25762 0.37511 0.7757 0.0
H1151 H 0.24283 0.36527 0.84412 0.0
H1152 H 0.34777 0.27199 0.8728 0.0
H1153 H 0.39572 0.27838 0.89902 0.0
H1154 H 0.39248 0.28163 0.84694 0.0
H1155 H 0.42394 0.33909 0.85406 0.0
H1156 H 0.42532 0.33595 0.90604 0.0
H1157 H 0.39884 0.36908 0.88248 0.0
H1158 H 0.24577 0.36154 0.91462 0.0
H1159 H 0.26395 0.36217 0.98362 0.0
H1160 H 0.38135 0.31951 0.96092 0.0
C1161 C 0.3475 0.33916 0.80526 0.0
C1162 C 0.31817 0.35444 0.78038 0.0
C1163 C 0.28 0.36289 0.79438 0.0
C1164 C 0.2714 0.35734 0.83311 0.0
C1165 C 0.30131 0.34323 0.85741 0.0
C1166 C 0.33846 0.33381 0.84411 0.0
C1167 C 0.36675 0.32271 0.87754 0.0
C1168 C 0.3762 0.28652 0.87384 0.0
C1169 C 0.40601 0.34293 0.88017 0.0
C1170 C 0.34052 0.32927 0.91178 0.0
C1171 C 0.30271 0.34051 0.89919 0.0
C1172 C 0.27465 0.3516 0.92491 0.0
C1173 C 0.2854 0.35153 0.96454 0.0
C1174 C 0.32392 0.34 0.97879 0.0
C1175 C 0.35156 0.32828 0.95164 0.0
H1176 H 0.32065 0.35016 0.48221 0.0
H1177 H 0.29177 0.33048 0.60119 0.0
H1178 H 0.25443 0.28141 0.57954 0.0
H1179 H 0.22613 0.32587 0.43824 0.0
H1180 H 0.2479 0.30793 0.39628 0.0
H1181 H 0.27383 0.34051 0.42168 0.0
H1182 H 0.33826 0.30487 0.43067 0.0
H1183 H 0.31236 0.27209 0.40546 0.0
H1184 H 0.33465 0.26602 0.45356 0.0
H1185 H 0.2172 0.23486 0.54369 0.0
H1186 H 0.18252 0.19712 0.49678 0.0
H1187 H 0.23722 0.24737 0.40229 0.0
C1188 C 0.30661 0.33551 0.50377 0.0
C1189 C 0.30936 0.34426 0.54346 0.0
C1190 C 0.29048 0.32426 0.57065 0.0
C1191 C 0.26914 0.29627 0.55863 0.0
C1192 C 0.26708 0.28829 0.51928 0.0
C1193 C 0.28543 0.30736 0.49231 0.0
C1194 C 0.27804 0.29399 0.45166 0.0
C1195 C 0.2551 0.31853 0.42544 0.0
C1196 C 0.31822 0.28363 0.43433 0.0
C1197 C 0.2518 0.26497 0.4598 0.0
C1198 C 0.24605 0.26175 0.49896 0.0
C1199 C 0.22178 0.23708 0.51296 0.0
C1200 C 0.20231 0.21564 0.48616 0.0
C1201 C 0.20702 0.21918 0.44582 0.0
C1202 C 0.23281 0.24388 0.43289 0.0
H1203 H 0.95355 0.9522 0.5149 0.0
H1204 H 0.91696 1.01576 0.60702 0.0
H1205 H 0.95681 0.06013 0.58026 0.0
H1206 H 0.05299 0.97826 0.51283 0.0
H1207 H 0.05781 0.97743 0.461 0.0
H1208 H 0.02213 0.95112 0.48294 0.0
H1209 H 0.9626 0.9735 0.44008 0.0
H1210 H 0.99799 0.99889 0.41615 0.0
H1211 H 0.95435 1.01649 0.43775 0.0
H1212 H 0.00785 0.09595 0.54833 0.0
H1213 H 0.05681 0.123 0.50658 0.0
H1214 H 0.05911 0.03731 0.43404 0.0
C1215 C 0.95235 0.97591 0.5282 0.0
C1216 C 0.93116 0.98076 0.56251 0.0
C1217 C 0.93213 1.01174 0.58021 0.0
C1218 C 0.95509 0.03703 0.56546 0.0
C1219 C 0.97714 0.03121 0.53271 0.0
C1220 C 0.97519 1.00168 0.51363 0.0
C1221 C 0.00287 1.00168 0.4796 0.0
C1222 C 0.03591 0.97558 0.48442 0.0
C1223 C 0.97797 0.9974 0.44111 0.0
C1224 C 0.0211 0.0354 0.4831 0.0
C1225 C 0.00613 0.052 0.5141 0.0
C1226 C 0.01946 0.08326 0.52369 0.0
C1227 C 0.0477 0.09835 0.50016 0.0
C1228 C 0.06204 0.0823 0.46722 0.0
C1229 C 0.04881 0.05023 0.45912 0.0
H1230 H 0.31894 0.97274 0.74305 0.0
H1231 H 0.32747 0.03245 0.6407 0.0
H1232 H 0.27924 0.07109 0.66693 0.0
H1233 H 0.21356 0.98414 0.7548 0.0
H1234 H 0.2169 0.98653 0.80702 0.0
H1235 H 0.2542 0.96389 0.78171 0.0
H1236 H 0.31202 0.99773 0.81528 0.0
H1237 H 0.2749 1.02013 0.84115 0.0
H1238 H 0.31039 0.04115 0.81211 0.0
H1239 H 0.22554 0.10171 0.70142 0.0
H1240 H 0.17646 0.12502 0.74619 0.0
H1241 H 0.2037 0.04736 0.82726 0.0
C1242 C 0.31139 0.99433 0.72667 0.0
C1243 C 0.32719 0.99938 0.6897 0.0
C1244 C 0.31584 0.02779 0.66899 0.0
C1245 C 0.28828 0.05 0.68359 0.0
C1246 C 0.27219 0.04389 0.71933 0.0
C1247 C 0.28379 1.0171 0.74101 0.0
C1248 C 0.26141 1.01641 0.77853 0.0
C1249 C 0.23495 0.98593 0.78062 0.0
C1250 C 0.29147 1.01902 0.81386 0.0
C1251 C 0.23536 0.04665 0.77414 0.0
C1252 C 0.24183 0.06205 0.73965 0.0
C1253 C 0.22048 0.09002 0.72874 0.0
C1254 C 0.19241 0.103 0.75418 0.0
C1255 C 0.18619 0.08819 0.79026 0.0
C1256 C 0.20783 0.05946 0.79998 0.0
H1257 H 0.91041 0.28232 0.66241 0.0
H1258 H 0.93487 0.36417 0.73903 0.0
H1259 H 0.9801 0.32956 0.78083 0.0
H1260 H 0.90816 0.22156 0.73609 0.0
H1261 H 0.93203 0.19152 0.70682 0.0
H1262 H 0.90155 0.22278 0.68396 0.0
H1263 H 0.96223 0.2392 0.64308 0.0
H1264 H 0.99291 0.20804 0.66587 0.0
H1265 H 0.01025 0.24933 0.6673 0.0
H1266 H 0.02352 0.28479 0.81383 0.0
H1267 H 0.06044 0.23538 0.83449 0.0
H1268 H 0.00677 0.18388 0.73496 0.0
C1269 C 0.9251 0.29319 0.68799 0.0
C1270 C 0.91894 0.32611 0.6974 0.0
C1271 C 0.93895 0.33906 0.73124 0.0
C1272 C 0.96472 0.31954 0.7551 0.0
C1273 C 0.97011 0.28717 0.74473 0.0
C1274 C 0.95072 0.2742 0.71191 0.0
C1275 C 0.96147 0.23894 0.70658 0.0
C1276 C 0.92355 0.21744 0.70849 0.0
C1277 C 0.983 0.23358 0.66845 0.0
C1278 C 0.99024 0.23386 0.74146 0.0
C1279 C 0.99483 0.26187 0.76326 0.0
C1280 C 0.02 0.26281 0.79689 0.0
C1281 C 0.04087 0.23453 0.80843 0.0
C1282 C 0.03663 0.20558 0.78641 0.0
C1283 C 0.01087 0.2055 0.75248 0.0
H1284 H 0.79885 0.78809 0.61912 0.0
H1285 H 0.80384 0.86101 0.52959 0.0
H1286 H 0.76156 0.82582 0.48528 0.0
H1287 H 0.81015 0.72102 0.55833 0.0
H1288 H 0.77665 0.69537 0.58426 0.0
H1289 H 0.80375 0.72752 0.60938 0.0
H1290 H 0.73587 0.75103 0.63204 0.0
H1291 H 0.70852 0.71881 0.60718 0.0
H1292 H 0.69568 0.76024 0.59656 0.0
H1293 H 0.72117 0.77999 0.44979 0.0
H1294 H 0.68761 0.72952 0.42707 0.0
H1295 H 0.71195 0.68703 0.54043 0.0
C1296 C 0.79078 0.79709 0.59038 0.0
C1297 C 0.80474 0.82754 0.57797 0.0
C1298 C 0.79339 0.83796 0.53994 0.0
C1299 C 0.76944 0.81804 0.51457 0.0
C1300 C 0.75707 0.78782 0.52768 0.0
C1301 C 0.76735 0.77758 0.56485 0.0
C1302 C 0.75221 0.74364 0.57181 0.0
C1303 C 0.78781 0.72054 0.5815 0.0
C1304 C 0.72123 0.74343 0.60379 0.0
C1305 C 0.73209 0.73593 0.53255 0.0
C1306 C 0.73483 0.76172 0.50747 0.0
C1307 C 0.71881 0.75982 0.46937 0.0
C1308 C 0.69975 0.73094 0.45669 0.0
C1309 C 0.69702 0.70408 0.48185 0.0
C1310 C 0.7134 0.70694 0.52033 0.0
H1311 H 0.69471 0.09005 0.26856 0.0
H1312 H 0.69199 0.03145 0.37221 0.0
H1313 H 0.73442 0.99034 0.34201 0.0
H1314 H 0.69433 1.02165 0.19806 0.0
H1315 H 0.72901 0.0415 0.16706 0.0
H1316 H 0.69507 0.0651 0.19531 0.0
H1317 H 0.75658 0.0966 0.22585 0.0
H1318 H 0.79072 0.07286 0.19806 0.0
H1319 H 0.79758 0.07471 0.25016 0.0
H1320 H 0.78194 0.95716 0.30304 0.0
H1321 H 0.82802 0.93321 0.256 0.0
H1322 H 0.8008 1.01254 0.17725 0.0
C1323 C 0.70212 0.06813 0.28433 0.0
C1324 C 0.68962 0.06388 0.32269 0.0
C1325 C 0.70102 0.03524 0.34278 0.0
C1326 C 0.72522 1.01168 0.32589 0.0
C1327 C 0.73814 1.01688 0.28863 0.0
C1328 C 0.72675 0.04422 0.26785 0.0
C1329 C 0.74662 0.04435 0.22896 0.0
C1330 C 0.71433 0.04307 0.19536 0.0
C1331 C 0.77453 0.07388 0.22558 0.0
C1332 C 0.77109 1.01317 0.23148 0.0
C1333 C 0.76572 0.99767 0.26615 0.0
C1334 C 0.7861 0.96895 0.2756 0.0
C1335 C 0.81239 0.95554 0.24877 0.0
C1336 C 0.81813 0.97079 0.21282 0.0
C1337 C 0.79705 1.00005 0.20434 0.0
H1338 H 0.95464 0.85433 0.28143 0.0
H1339 H 0.93961 0.81726 0.16386 0.0
H1340 H 0.97581 0.76722 0.18404 0.0
H1341 H 0.05391 0.82604 0.29993 0.0
H1342 H 0.04671 0.81658 0.35008 0.0
H1343 H 0.01693 0.8479 0.32665 0.0
H1344 H 0.95072 0.81906 0.34499 0.0
H1345 H 0.98035 0.78765 0.36859 0.0
H1346 H 0.94257 0.77746 0.33105 0.0
H1347 H 0.0189 0.72172 0.2179 0.0
H1348 H 0.06293 0.68725 0.26125 0.0
H1349 H 0.04743 0.75546 0.35525 0.0
C1350 C 0.95835 0.83558 0.25991 0.0
C1351 C 0.94404 0.83986 0.22102 0.0
C1352 C 0.95003 0.81462 0.19389 0.0
C1353 C 0.97064 0.78605 0.20511 0.0
C1354 C 0.98494 0.78288 0.24365 0.0
C1355 C 0.97871 0.80704 0.27059 0.0
C1356 C 0.99825 0.79875 0.30979 0.0
C1357 C 0.03088 0.8238 0.32232 0.0
C1358 C 0.96605 0.79553 0.3404 0.0
C1359 C 0.01704 0.7664 0.30078 0.0
C1360 C 0.00908 0.75731 0.26264 0.0
C1361 C 0.02496 0.72862 0.2479 0.0
C1362 C 0.0499 0.7091 0.27271 0.0
C1363 C 0.05886 0.7185 0.31171 0.0
C1364 C 0.04146 0.74734 0.32565 0.0
H1365 H 0.30407 0.84381 0.04294 0.0
H1366 H 0.37444 0.76424 0.09301 0.0
H1367 H 0.33002 0.72554 0.05818 0.0
H1368 H 0.20557 0.80394 0.04594 0.0
H1369 H 0.18642 0.81986 1.00013 0.0
H1370 H 0.22359 0.8423 0.02925 0.0
H1371 H 0.27077 0.8439 0.97133 0.0
H1372 H 0.23373 0.82147 0.94206 0.0
H1373 H 0.28503 0.80662 0.94842 0.0
H1374 H 0.27921 0.69444 0.01807 0.0
H1375 H 0.22413 0.67317 0.97429 0.0
H1376 H 0.18489 0.77123 0.94876 0.0
C1377 C 0.31004 0.81827 0.04655 0.0
C1378 C 0.34306 0.80738 0.07096 0.0
C1379 C 0.3496 0.77359 0.07472 0.0
C1380 C 0.32443 0.75116 0.05497 0.0
C1381 C 0.29239 0.76252 0.03127 0.0
C1382 C 0.28492 0.7952 0.02684 0.0
C1383 C 0.24818 0.80043 0.99915 0.0
C1384 C 0.21391 0.81765 0.01986 0.0
C1385 C 0.26016 0.81922 0.9631 0.0
C1386 C 0.23663 0.76568 0.98883 0.0
C1387 C 0.26262 0.74428 1.00784 0.0
C1388 C 0.25854 0.71095 1.00304 0.0
C1389 C 0.22708 0.69905 0.97807 0.0
C1390 C 0.19996 0.72036 0.958 0.0
C1391 C 0.20496 0.75418 0.96366 0.0
H1392 H 0.05803 0.59937 0.99141 0.0
H1393 H 0.05888 0.54801 0.88163 0.0
H1394 H 0.01442 0.50606 0.90691 0.0
H1395 H 0.05564 0.52639 0.05358 0.0
H1396 H 0.02199 0.54495 0.08686 0.0
H1397 H 0.05692 0.56949 0.0612 0.0
H1398 H 0.9967 0.60449 0.03474 0.0
H1399 H 0.96155 0.57973 0.05978 0.0
H1400 H 0.95476 0.58542 0.00813 0.0
H1401 H 0.96489 0.47135 0.94227 0.0
H1402 H 0.91939 0.44465 0.98779 0.0
H1403 H 0.95042 0.51828 0.07409 0.0
C1404 C 0.04982 0.57878 0.97323 0.0
C1405 C 0.06226 0.57688 0.93463 0.0
C1406 C 0.04985 0.54997 0.91135 0.0
C1407 C 0.02445 0.52598 0.92538 0.0
C1408 C 0.01144 0.52901 0.96297 0.0
C1409 C 0.02409 0.55448 0.98681 0.0
C1410 C 0.00436 0.55246 0.02558 0.0
C1411 C 0.03665 0.54805 0.05877 0.0
C1412 C 0.97777 0.5823 0.03244 0.0
C1413 C 0.97858 0.52224 0.01953 0.0
C1414 C 0.98296 0.50903 0.98323 0.0
C1415 C 0.96145 0.48136 0.97095 0.0
C1416 C 0.93542 0.46644 0.99682 0.0
C1417 C 0.93126 0.47919 0.03452 0.0
C1418 C 0.95296 0.50767 0.04556 0.0
H1419 H 0.21472 0.59277 0.2588 0.0
H1420 H 0.17009 0.52978 0.34723 0.0
H1421 H 0.21187 0.48517 0.32346 0.0
H1422 H 0.21979 0.52839 0.18222 0.0
H1423 H 0.26526 0.54519 0.16333 0.0
H1424 H 0.22904 0.57124 0.18542 0.0
H1425 H 0.28669 0.59277 0.2315 0.0
H1426 H 0.32302 0.56563 0.21159 0.0
H1427 H 0.31486 0.56524 0.26288 0.0
H1428 H 0.26381 0.44849 0.29454 0.0
H1429 H 0.31251 0.41958 0.25415 0.0
H1430 H 0.32259 0.50489 0.18295 0.0
C1431 C 0.21249 0.56921 0.27199 0.0
C1432 C 0.18842 0.56462 0.30448 0.0
C1433 C 0.18773 0.53371 0.32195 0.0
C1434 C 0.21173 0.50826 0.30891 0.0
C1435 C 0.23651 0.5138 0.27808 0.0
C1436 C 0.23634 0.54321 0.2591 0.0
C1437 C 0.26617 0.54253 0.22676 0.0
C1438 C 0.24373 0.5471 0.18708 0.0
C1439 C 0.29967 0.56806 0.23363 0.0
C1440 C 0.28327 0.50849 0.231 0.0
C1441 C 0.2661 0.49244 0.26108 0.0
C1442 C 0.27736 0.46081 0.27078 0.0
C1443 C 0.30558 0.44466 0.24807 0.0
C1444 C 0.3219 0.46002 0.21575 0.0
C1445 C 0.31107 0.4926 0.2078 0.0
H1446 H 0.79012 0.36054 0.02303 0.0
H1447 H 0.8296 0.29386 0.11392 0.0
H1448 H 0.79042 0.2503 0.08119 0.0
H1449 H 0.68801 0.32829 1.00793 0.0
H1450 H 0.68672 0.33355 0.95606 0.0
H1451 H 0.71725 0.36003 0.98706 0.0
H1452 H 0.78076 0.34533 0.9491 0.0
H1453 H 0.75045 0.31875 0.91807 0.0
H1454 H 0.79505 0.30354 0.94417 0.0
H1455 H 0.74677 0.21329 0.03874 0.0
H1456 H 0.70241 0.18595 0.98881 0.0
H1457 H 0.6924 0.27566 0.9245 0.0
C1458 C 0.79036 0.33682 0.0361 0.0
C1459 C 0.81311 0.33081 0.07115 0.0
C1460 C 0.81266 0.29927 0.08709 0.0
C1461 C 0.79038 0.27423 0.06872 0.0
C1462 C 0.7686 0.28081 0.03417 0.0
C1463 C 0.76839 0.3113 0.01792 0.0
C1464 C 0.74282 0.31161 0.98015 0.0
C1465 C 0.70655 0.33474 0.98298 0.0
C1466 C 0.76883 0.32032 0.94585 0.0
C1467 C 0.72893 0.27662 0.9778 0.0
C1468 C 0.74396 0.2593 0.00935 0.0
C1469 C 0.73487 0.22661 0.01382 0.0
C1470 C 0.70963 0.21125 0.98532 0.0
C1471 C 0.69397 0.22847 0.95258 0.0
C1472 C 0.70404 0.26161 0.94895 0.0
H1473 H 0.78371 0.45756 0.75401 0.0
H1474 H 0.80187 0.51415 0.65072 0.0
H1475 H 0.76175 0.55844 0.67684 0.0
H1476 H 0.68133 0.48255 0.76695 0.0
H1477 H 0.68605 0.485 0.81912 0.0
H1478 H 0.7177 0.45752 0.79339 0.0
H1479 H 0.78221 0.48387 0.82594 0.0
H1480 H 0.75057 0.51108 0.85205 0.0
H1481 H 0.78937 0.52689 0.82226 0.0
H1482 H 0.71516 0.59542 0.71094 0.0
H1483 H 0.67404 0.62627 0.75666 0.0
H1484 H 0.68761 0.54827 0.8397 0.0
C1485 C 0.78007 0.4796 0.73748 0.0
C1486 C 0.79603 0.48224 0.70021 0.0
C1487 C 0.78985 0.51136 0.67921 0.0
C1488 C 0.76691 0.53675 0.6937 0.0
C1489 C 0.75024 0.53307 0.72963 0.0
C1490 C 0.75712 0.5056 0.75174 0.0
C1491 C 0.73553 0.50837 0.78962 0.0
C1492 C 0.70325 0.48177 0.79243 0.0
C1493 C 0.76626 0.50751 0.82453 0.0
C1494 C 0.71582 0.54151 0.78513 0.0
C1495 C 0.72418 0.55507 0.74998 0.0
C1496 C 0.70861 0.58518 0.73875 0.0
C1497 C 0.68491 0.60243 0.76469 0.0
C1498 C 0.67748 0.58973 0.80164 0.0
C1499 C 0.69275 0.55863 0.8116 0.0
H1500 H 0.46434 0.9471 0.00986 0.0
H1501 H 0.45021 0.9981 0.11844 0.0
H1502 H 0.48505 0.04548 0.09295 0.0
H1503 H 0.56251 0.97554 0.99283 0.0
H1504 H 0.55487 0.9806 0.94115 0.0
H1505 H 0.52549 0.95117 0.96596 0.0
H1506 H 0.45864 0.97746 0.93927 0.0
H1507 H 0.48785 1.00653 0.91365 0.0
H1508 H 0.45054 1.02006 0.94668 0.0
H1509 H 0.52799 0.08561 0.05878 0.0
H1510 H 0.56663 0.11886 0.01365 0.0
H1511 H 0.55161 0.04376 0.92607 0.0
C1512 C 0.46731 0.96867 0.02761 0.0
C1513 C 0.45408 0.96894 0.06609 0.0
C1514 C 0.45979 0.99737 0.08882 0.0
C1515 C 0.47981 1.02442 0.0747 0.0
C1516 C 0.49406 1.02307 0.03744 0.0
C1517 C 0.48732 0.99628 0.01377 0.0
C1518 C 0.50658 1.00128 0.97503 0.0
C1519 C 0.5393 0.97562 0.96837 0.0
C1520 C 0.47396 1.00134 0.94168 0.0
C1521 C 0.52546 0.03463 0.98103 0.0
C1522 C 0.51818 0.04665 0.01739 0.0
C1523 C 0.53355 0.07659 0.03002 0.0
C1524 C 0.55589 0.09521 1.00439 0.0
C1525 C 0.56234 0.08401 0.96638 0.0
C1526 C 0.54723 0.05308 0.95495 0.0
H1527 H 0.45142 0.33473 0.23108 0.0
H1528 H 0.43568 0.26934 0.13267 0.0
H1529 H 0.47857 0.22911 0.16648 0.0
H1530 H 0.55878 0.31211 0.25467 0.0
H1531 H 0.55334 0.31517 0.30629 0.0
H1532 H 0.52269 0.34005 0.27374 0.0
H1533 H 0.45768 0.31807 0.30374 0.0
H1534 H 0.48809 0.29285 0.33605 0.0
H1535 H 0.44891 0.27511 0.30453 0.0
H1536 H 0.51772 0.19343 0.21232 0.0
H1537 H 0.55847 0.16721 0.26531 0.0
H1538 H 0.55319 0.25531 0.33357 0.0
C1539 C 0.4577 0.31222 0.21643 0.0
C1540 C 0.4397 0.30528 0.17921 0.0
C1541 C 0.44856 0.27531 0.16127 0.0
C1542 C 0.47299 0.25213 0.18024 0.0
C1543 C 0.48909 0.25912 0.21723 0.0
C1544 C 0.48255 0.28858 0.23501 0.0
C1545 C 0.50366 0.28941 0.27516 0.0
C1546 C 0.53658 0.31575 0.2776 0.0
C1547 C 0.47273 0.29414 0.30673 0.0
C1548 C 0.52236 0.25579 0.27707 0.0
C1549 C 0.51323 0.23869 0.24339 0.0
C1550 C 0.52556 0.2067 0.23872 0.0
C1551 C 0.54848 0.1919 0.26905 0.0
C1552 C 0.55929 0.20917 0.30346 0.0
C1553 C 0.5458 0.24153 0.30743 0.0
H1554 H 0.46964 0.86609 0.72766 0.0
H1555 H 0.37671 0.79586 0.69323 0.0
H1556 H 0.41358 0.75409 0.73071 0.0
H1557 H 0.55406 0.81294 0.72253 0.0
H1558 H 0.58166 0.82884 0.76475 0.0
H1559 H 0.54707 0.85439 0.73699 0.0
H1560 H 0.50817 0.86707 0.7987 0.0
H1561 H 0.5428 0.84171 0.82675 0.0
H1562 H 0.48888 0.83433 0.82675 0.0
H1563 H 0.46201 0.71846 0.76809 0.0
H1564 H 0.51772 0.69218 0.80633 0.0
H1565 H 0.57948 0.78451 0.81913 0.0
C1566 C 0.45679 0.84207 0.72852 0.0
C1567 C 0.42015 0.83445 0.70722 0.0
C1568 C 0.4047 0.80251 0.70897 0.0
C1569 C 0.42544 0.77845 0.73029 0.0
C1570 C 0.46173 0.78645 0.75018 0.0
C1571 C 0.47722 0.8175 0.74992 0.0
C1572 C 0.51739 0.81914 0.77347 0.0
C1573 C 0.55209 0.82944 0.7479 0.0
C1574 C 0.5141 0.84191 0.8085 0.0
C1575 C 0.52214 0.78415 0.7863 0.0
C1576 C 0.48961 0.76578 0.7725 0.0
C1577 C 0.48751 0.73266 0.7794 0.0
C1578 C 0.51941 0.71787 0.80115 0.0
C1579 C 0.553 0.73613 0.8161 0.0
C1580 C 0.55414 0.7698 0.80847 0.0
H1581 H 0.53648 0.54151 0.43244 0.0
H1582 H 0.58998 0.60415 0.52227 0.0
H1583 H 0.55057 0.57573 0.57108 0.0
H1584 H 0.43661 0.53705 0.4696 0.0
H1585 H 0.42888 0.49518 0.45675 0.0
H1586 H 0.46154 0.51997 0.42884 0.0
H1587 H 0.52052 0.47945 0.44098 0.0
H1588 H 0.48802 0.45444 0.4688 0.0
H1589 H 0.53582 0.46861 0.49005 0.0
H1590 H 0.50495 0.5415 0.60958 0.0
H1591 H 0.45804 0.50303 0.6369 0.0
H1592 H 0.43298 0.46089 0.52264 0.0
C1593 C 0.5401 0.54927 0.46241 0.0
C1594 C 0.56652 0.57523 0.47348 0.0
C1595 C 0.57016 0.58443 0.51303 0.0
C1596 C 0.54779 0.56842 0.54092 0.0
C1597 C 0.52192 0.54316 0.5289 0.0
C1598 C 0.51806 0.5335 0.49063 0.0
C1599 C 0.48815 0.50552 0.4855 0.0
C1600 C 0.45163 0.51501 0.45857 0.0
C1601 C 0.5094 0.47521 0.47045 0.0
C1602 C 0.47556 0.50098 0.52697 0.0
C1603 C 0.49553 0.52309 0.55131 0.0
C1604 C 0.48929 0.52408 0.59079 0.0
C1605 C 0.46232 0.50189 0.606 0.0
C1606 C 0.44146 0.47857 0.5821 0.0
C1607 C 0.44819 0.4783 0.5418 0.0
loop_
_geom_bond_atom_site_label_1
_geom_bond_atom_site_label_2
_geom_bond_distance
_geom_bond_site_symmetry_2
_ccdc_geom_bond_type
C0 C1 1.351 . S
C0 N3 1.368 . S
C0 H5 0.931 . S
C1 C0 1.351 . S
C1 N2 1.373 . S
C1 H29 0.930 . S
N2 C1 1.373 . S
N2 C4 1.340 . S
N3 C0 1.368 . S
N3 C4 1.321 . S
N3 Co6 2.135 . S
C4 N2 1.340 . S
C4 N3 1.321 . S
C4 H28 0.930 . S
H5 C0 0.931 . S
Co6 N3 2.135 . S
Co6 N9 2.121 . S
Co6 O14 2.055 . S
Co6 O17 2.039 . S
Co6 N20 2.140 . S
C7 O8 1.227 . S
C7 O17 1.265 . S
O8 C7 1.227 . S
N9 Co6 2.121 . S
N9 C11 1.375 . S
N9 C12 1.313 . S
C10 C11 1.338 . S
C10 N13 1.378 1_455 S
C10 H30 0.930 . S
C11 N9 1.375 . S
C11 C10 1.338 . S
C11 H15 0.931 . S
C12 N9 1.313 . S
C12 N13 1.345 1_455 S
C12 H16 0.930 . S
N13 C10 1.378 1_655 S
N13 C12 1.345 1_655 S
O14 Co6 2.055 . S
O14 C18 1.253 . S
H15 C11 0.931 . S
H16 C12 0.930 . S
O17 Co6 2.039 . S
O17 C7 1.265 . S
C18 O14 1.253 . S
C18 O19 1.227 . S
O19 C18 1.227 . S
N20 Co6 2.140 . S
N20 C23 1.346 . S
N20 C24 1.345 . S
C21 C22 1.387 . S
C21 C25 1.391 . S
C22 C21 1.387 . S
C22 C23 1.369 . S
C22 H31 0.929 . S
C23 N20 1.346 . S
C23 C22 1.369 . S
C23 H26 0.928 . S
C24 N20 1.345 . S
C24 C25 1.371 . S
C24 H27 0.931 . S
C25 C21 1.391 . S
C25 C24 1.371 . S
C25 H32 0.930 . S
H26 C23 0.928 . S
H27 C24 0.931 . S
H28 C4 0.930 . S
H29 C1 0.930 . S
H30 C10 0.930 . S
H31 C22 0.929 . S
H32 C25 0.930 . S
C33 C34 1.351 . S
C33 N36 1.368 . S
C33 H38 0.931 . S
C34 C33 1.351 . S
C34 N35 1.370 1_455 S
C34 H62 0.930 . S
N35 C34 1.370 1_655 S
N35 C37 1.334 1_655 S
N36 C33 1.368 . S
N36 C37 1.321 . S
N36 Co39 2.135 . S
C37 N35 1.334 1_455 S
C37 N36 1.321 . S
C37 H61 0.930 . S
H38 C33 0.931 . S
Co39 N36 2.135 . S
Co39 N42 2.121 . S
Co39 O47 2.055 . S
Co39 O50 2.039 . S
Co39 N53 2.140 . S
C40 O41 1.227 . S
C40 O50 1.265 . S
O41 C40 1.227 . S
N42 Co39 2.121 . S
N42 C44 1.375 . S
N42 C45 1.313 . S
C43 C44 1.338 . S
C43 N46 1.377 . S
C43 H63 0.930 . S
C44 N42 1.375 . S
C44 C43 1.338 . S
C44 H48 0.931 . S
C45 N42 1.313 . S
C45 N46 1.344 . S
C45 H49 0.930 . S
N46 C43 1.377 . S
N46 C45 1.344 . S
O47 Co39 2.055 . S
O47 C51 1.253 . S
H48 C44 0.931 . S
H49 C45 0.930 . S
O50 Co39 2.039 . S
O50 C40 1.265 . S
C51 O47 1.253 . S
C51 O52 1.227 . S
O52 C51 1.227 . S
N53 Co39 2.140 . S
N53 C56 1.346 . S
N53 C57 1.345 . S
C54 C55 1.387 . S
C54 C58 1.391 . S
C55 C54 1.387 . S
C55 C56 1.369 . S
C55 H64 0.929 . S
C56 N53 1.346 . S
C56 C55 1.369 . S
C56 H59 0.928 . S
C57 N53 1.345 . S
C57 C58 1.371 . S
C57 H60 0.931 . S
C58 C54 1.391 . S
C58 C57 1.371 . S
C58 H65 0.930 . S
H59 C56 0.928 . S
H60 C57 0.931 . S
H61 C37 0.930 . S
H62 C34 0.930 . S
H63 C43 0.930 . S
H64 C55 0.929 . S
H65 C58 0.930 . S
C66 C67 1.351 . S
C66 N69 1.368 . S
C66 H71 0.931 . S
C67 C66 1.351 . S
C67 N68 1.373 . S
C67 H95 0.930 . S
N68 C67 1.373 . S
N68 C70 1.340 . S
N69 C66 1.368 . S
N69 C70 1.321 . S
N69 Co72 2.135 . S
C70 N68 1.340 . S
C70 N69 1.321 . S
C70 H94 0.930 . S
H71 C66 0.931 . S
Co72 N69 2.135 . S
Co72 N75 2.121 . S
Co72 O80 2.055 . S
Co72 O83 2.039 . S
Co72 N86 2.140 . S
C73 O74 1.227 . S
C73 O83 1.265 . S
O74 C73 1.227 . S
N75 Co72 2.121 . S
N75 C77 1.375 . S
N75 C78 1.313 . S
C76 C77 1.338 . S
C76 N79 1.378 1_655 S
C76 H96 0.930 . S
C77 N75 1.375 . S
C77 C76 1.338 . S
C77 H81 0.931 . S
C78 N75 1.313 . S
C78 N79 1.345 1_655 S
C78 H82 0.930 . S
N79 C76 1.378 1_455 S
N79 C78 1.345 1_455 S
O80 Co72 2.055 . S
O80 C84 1.253 . S
H81 C77 0.931 . S
H82 C78 0.930 . S
O83 Co72 2.039 . S
O83 C73 1.265 . S
C84 O80 1.253 . S
C84 O85 1.227 . S
O85 C84 1.227 . S
N86 Co72 2.140 . S
N86 C89 1.346 . S
N86 C90 1.345 . S
C87 C88 1.387 . S
C87 C91 1.391 . S
C88 C87 1.387 . S
C88 C89 1.369 . S
C88 H97 0.929 . S
C89 N86 1.346 . S
C89 C88 1.369 . S
C89 H92 0.928 . S
C90 N86 1.345 . S
C90 C91 1.371 . S
C90 H93 0.931 . S
C91 C87 1.391 . S
C91 C90 1.371 . S
C91 H98 0.930 . S
H92 C89 0.928 . S
H93 C90 0.931 . S
H94 C70 0.930 . S
H95 C67 0.930 . S
H96 C76 0.930 . S
H97 C88 0.929 . S
H98 C91 0.930 . S
C99 C100 1.351 . S
C99 N102 1.368 . S
C99 H104 0.931 . S
C100 C99 1.351 . S
C100 N101 1.370 1_655 S
C100 H128 0.930 . S
N101 C100 1.370 1_455 S
N101 C103 1.334 1_455 S
N102 C99 1.368 . S
N102 C103 1.321 . S
N102 Co105 2.135 . S
C103 N101 1.334 1_655 S
C103 N102 1.321 . S
C103 H127 0.930 . S
H104 C99 0.931 . S
Co105 N102 2.135 . S
Co105 N108 2.121 . S
Co105 O113 2.055 . S
Co105 O116 2.039 . S
Co105 N119 2.140 . S
C106 O107 1.227 . S
C106 O116 1.265 . S
O107 C106 1.227 . S
N108 Co105 2.121 . S
N108 C110 1.375 . S
N108 C111 1.313 . S
C109 C110 1.338 . S
C109 N112 1.377 . S
C109 H129 0.930 . S
C110 N108 1.375 . S
C110 C109 1.338 . S
C110 H114 0.931 . S
C111 N108 1.313 . S
C111 N112 1.344 . S
C111 H115 0.930 . S
N112 C109 1.377 . S
N112 C111 1.344 . S
O113 Co105 2.055 . S
O113 C117 1.253 . S
H114 C110 0.931 . S
H115 C111 0.930 . S
O116 Co105 2.039 . S
O116 C106 1.265 . S
C117 O113 1.253 . S
C117 O118 1.227 . S
O118 C117 1.227 . S
N119 Co105 2.140 . S
N119 C122 1.346 . S
N119 C123 1.345 . S
C120 C121 1.387 . S
C120 C124 1.391 . S
C121 C120 1.387 . S
C121 C122 1.369 . S
C121 H130 0.929 . S
C122 N119 1.346 . S
C122 C121 1.369 . S
C122 H125 0.928 . S
C123 N119 1.345 . S
C123 C124 1.371 . S
C123 H126 0.931 . S
C124 C120 1.391 . S
C124 C123 1.371 . S
C124 H131 0.930 . S
H125 C122 0.928 . S
H126 C123 0.931 . S
H127 C103 0.930 . S
H128 C100 0.930 . S
H129 C109 0.930 . S
H130 C121 0.929 . S
H131 C124 0.930 . S
C132 C133 1.351 . S
C132 N135 1.368 . S
C132 H137 0.931 . S
C133 C132 1.351 . S
C133 N134 1.373 . S
C133 H161 0.930 . S
N134 C133 1.373 . S
N134 C136 1.340 . S
N135 C132 1.368 . S
N135 C136 1.321 . S
N135 Co138 2.135 . S
C136 N134 1.340 . S
C136 N135 1.321 . S
C136 H160 0.930 . S
H137 C132 0.931 . S
Co138 N135 2.135 . S
Co138 N141 2.121 . S
Co138 O146 2.055 . S
Co138 O149 2.039 . S
Co138 N152 2.140 . S
C139 O140 1.227 . S
C139 O149 1.265 . S
O140 C139 1.227 . S
N141 Co138 2.121 . S
N141 C143 1.375 . S
N141 C144 1.313 . S
C142 C143 1.338 . S
C142 N145 1.378 1_455 S
C142 H162 0.930 . S
C143 N141 1.375 . S
C143 C142 1.338 . S
C143 H147 0.931 . S
C144 N141 1.313 . S
C144 N145 1.345 1_455 S
C144 H148 0.930 . S
N145 C142 1.378 1_655 S
N145 C144 1.345 1_655 S
O146 Co138 2.055 . S
O146 C150 1.253 . S
H147 C143 0.931 . S
H148 C144 0.930 . S
O149 Co138 2.039 . S
O149 C139 1.265 . S
C150 O146 1.253 . S
C150 O151 1.227 . S
O151 C150 1.227 . S
N152 Co138 2.140 . S
N152 C155 1.346 . S
N152 C156 1.345 . S
C153 C154 1.387 . S
C153 C157 1.391 . S
C154 C153 1.387 . S
C154 C155 1.369 . S
C154 H163 0.929 . S
C155 N152 1.346 . S
C155 C154 1.369 . S
C155 H158 0.928 . S
C156 N152 1.345 . S
C156 C157 1.371 . S
C156 H159 0.931 . S
C157 C153 1.391 . S
C157 C156 1.371 . S
C157 H164 0.930 . S
H158 C155 0.928 . S
H159 C156 0.931 . S
H160 C136 0.930 . S
H161 C133 0.930 . S
H162 C142 0.930 . S
H163 C154 0.929 . S
H164 C157 0.930 . S
C165 C166 1.351 . S
C165 N168 1.368 . S
C165 H170 0.931 . S
C166 C165 1.351 . S
C166 N167 1.370 1_455 S
C166 H194 0.930 . S
N167 C166 1.370 1_655 S
N167 C169 1.334 1_655 S
N168 C165 1.368 . S
N168 C169 1.321 . S
N168 Co171 2.135 . S
C169 N167 1.334 1_455 S
C169 N168 1.321 . S
C169 H193 0.930 . S
H170 C165 0.931 . S
Co171 N168 2.135 . S
Co171 N174 2.121 . S
Co171 O179 2.055 . S
Co171 O182 2.039 . S
Co171 N185 2.140 . S
C172 O173 1.227 . S
C172 O182 1.265 . S
O173 C172 1.227 . S
N174 Co171 2.121 . S
N174 C176 1.375 . S
N174 C177 1.313 . S
C175 C176 1.338 . S
C175 N178 1.377 . S
C175 H195 0.930 . S
C176 N174 1.375 . S
C176 C175 1.338 . S
C176 H180 0.931 . S
C177 N174 1.313 . S
C177 N178 1.344 . S
C177 H181 0.930 . S
N178 C175 1.377 . S
N178 C177 1.344 . S
O179 Co171 2.055 . S
O179 C183 1.253 . S
H180 C176 0.931 . S
H181 C177 0.930 . S
O182 Co171 2.039 . S
O182 C172 1.265 . S
C183 O179 1.253 . S
C183 O184 1.227 . S
O184 C183 1.227 . S
N185 Co171 2.140 . S
N185 C188 1.346 . S
N185 C189 1.345 . S
C186 C187 1.387 . S
C186 C190 1.391 . S
C187 C186 1.387 . S
C187 C188 1.369 . S
C187 H196 0.929 . S
C188 N185 1.346 . S
C188 C187 1.369 . S
C188 H191 0.928 . S
C189 N185 1.345 . S
C189 C190 1.371 . S
C189 H192 0.931 . S
C190 C186 1.391 . S
C190 C189 1.371 . S
C190 H197 0.930 . S
H191 C188 0.928 . S
H192 C189 0.931 . S
H193 C169 0.930 . S
H194 C166 0.930 . S
H195 C175 0.930 . S
H196 C187 0.929 . S
H197 C190 0.930 . S
C198 C199 1.351 . S
C198 N201 1.368 . S
C198 H203 0.931 . S
C199 C198 1.351 . S
C199 N200 1.373 . S
C199 H227 0.930 . S
N200 C199 1.373 . S
N200 C202 1.340 . S
N201 C198 1.368 . S
N201 C202 1.321 . S
N201 Co204 2.135 . S
C202 N200 1.340 . S
C202 N201 1.321 . S
C202 H226 0.930 . S
H203 C198 0.931 . S
Co204 N201 2.135 . S
Co204 N207 2.121 . S
Co204 O212 2.055 . S
Co204 O215 2.039 . S
Co204 N218 2.140 . S
C205 O206 1.227 . S
C205 O215 1.265 . S
O206 C205 1.227 . S
N207 Co204 2.121 . S
N207 C209 1.375 . S
N207 C210 1.313 . S
C208 C209 1.338 . S
C208 N211 1.378 1_655 S
C208 H228 0.930 . S
C209 N207 1.375 . S
C209 C208 1.338 . S
C209 H213 0.931 . S
C210 N207 1.313 . S
C210 N211 1.345 1_655 S
C210 H214 0.930 . S
N211 C208 1.378 1_455 S
N211 C210 1.345 1_455 S
O212 Co204 2.055 . S
O212 C216 1.253 . S
H213 C209 0.931 . S
H214 C210 0.930 . S
O215 Co204 2.039 . S
O215 C205 1.265 . S
C216 O212 1.253 . S
C216 O217 1.227 . S
O217 C216 1.227 . S
N218 Co204 2.140 . S
N218 C221 1.346 . S
N218 C222 1.345 . S
C219 C220 1.387 . S
C219 C223 1.391 . S
C220 C219 1.387 . S
C220 C221 1.369 . S
C220 H229 0.929 . S
C221 N218 1.346 . S
C221 C220 1.369 . S
C221 H224 0.928 . S
C222 N218 1.345 . S
C222 C223 1.371 . S
C222 H225 0.931 . S
C223 C219 1.391 . S
C223 C222 1.371 . S
C223 H230 0.930 . S
H224 C221 0.928 . S
H225 C222 0.931 . S
H226 C202 0.930 . S
H227 C199 0.930 . S
H228 C208 0.930 . S
H229 C220 0.929 . S
H230 C223 0.930 . S
C231 C232 1.351 . S
C231 N234 1.368 . S
C231 H236 0.931 . S
C232 C231 1.351 . S
C232 N233 1.370 1_655 S
C232 H260 0.930 . S
N233 C232 1.370 1_455 S
N233 C235 1.334 1_455 S
N234 C231 1.368 . S
N234 C235 1.321 . S
N234 Co237 2.135 . S
C235 N233 1.334 1_655 S
C235 N234 1.321 . S
C235 H259 0.930 . S
H236 C231 0.931 . S
Co237 N234 2.135 . S
Co237 N240 2.121 . S
Co237 O245 2.055 . S
Co237 O248 2.039 . S
Co237 N251 2.140 . S
C238 O239 1.227 . S
C238 O248 1.265 . S
O239 C238 1.227 . S
N240 Co237 2.121 . S
N240 C242 1.375 . S
N240 C243 1.313 . S
C241 C242 1.338 . S
C241 N244 1.377 . S
C241 H261 0.930 . S
C242 N240 1.375 . S
C242 C241 1.338 . S
C242 H246 0.931 . S
C243 N240 1.313 . S
C243 N244 1.344 . S
C243 H247 0.930 . S
N244 C241 1.377 . S
N244 C243 1.344 . S
O245 Co237 2.055 . S
O245 C249 1.253 . S
H246 C242 0.931 . S
H247 C243 0.930 . S
O248 Co237 2.039 . S
O248 C238 1.265 . S
C249 O245 1.253 . S
C249 O250 1.227 . S
O250 C249 1.227 . S
N251 Co237 2.140 . S
N251 C254 1.346 . S
N251 C255 1.345 . S
C252 C253 1.387 . S
C252 C256 1.391 . S
C253 C252 1.387 . S
C253 C254 1.369 . S
C253 H262 0.929 . S
C254 N251 1.346 . S
C254 C253 1.369 . S
C254 H257 0.928 . S
C255 N251 1.345 . S
C255 C256 1.371 . S
C255 H258 0.931 . S
C256 C252 1.391 . S
C256 C255 1.371 . S
C256 H263 0.930 . S
H257 C254 0.928 . S
H258 C255 0.931 . S
H259 C235 0.930 . S
H260 C232 0.930 . S
H261 C241 0.930 . S
H262 C253 0.929 . S
H263 C256 0.930 . S
C264 C265 1.351 . S
C264 N267 1.368 . S
C264 H269 0.931 . S
C265 C264 1.351 . S
C265 N266 1.373 . S
C265 H293 0.930 . S
N266 C265 1.373 . S
N266 C268 1.340 . S
N267 C264 1.368 . S
N267 C268 1.321 . S
N267 Co270 2.135 . S
C268 N266 1.340 . S
C268 N267 1.321 . S
C268 H292 0.930 . S
H269 C264 0.931 . S
Co270 N267 2.135 . S
Co270 N273 2.121 . S
Co270 O278 2.055 . S
Co270 O281 2.039 . S
Co270 N284 2.140 . S
C271 O272 1.227 . S
C271 O281 1.265 . S
O272 C271 1.227 . S
N273 Co270 2.121 . S
N273 C275 1.375 . S
N273 C276 1.313 . S
C274 C275 1.338 . S
C274 N277 1.377 . S
C274 H294 0.930 . S
C275 N273 1.375 . S
C275 C274 1.338 . S
C275 H279 0.931 . S
C276 N273 1.313 . S
C276 N277 1.344 . S
C276 H280 0.930 . S
N277 C274 1.377 . S
N277 C276 1.344 . S
O278 Co270 2.055 . S
O278 C282 1.253 . S
H279 C275 0.931 . S
H280 C276 0.930 . S
O281 Co270 2.039 . S
O281 C271 1.265 . S
C282 O278 1.253 . S
C282 O283 1.227 . S
O283 C282 1.227 . S
N284 Co270 2.140 . S
N284 C287 1.346 . S
N284 C288 1.345 . S
C285 C286 1.387 . S
C285 C289 1.391 . S
C286 C285 1.387 . S
C286 C287 1.369 . S
C286 H295 0.929 . S
C287 N284 1.346 . S
C287 C286 1.369 . S
C287 H290 0.928 . S
C288 N284 1.345 . S
C288 C289 1.371 . S
C288 H291 0.931 . S
C289 C285 1.391 . S
C289 C288 1.371 . S
C289 H296 0.930 . S
H290 C287 0.928 . S
H291 C288 0.931 . S
H292 C268 0.930 . S
H293 C265 0.930 . S
H294 C274 0.930 . S
H295 C286 0.929 . S
H296 C289 0.930 . S
C297 C298 1.351 . S
C297 N300 1.368 . S
C297 H302 0.931 . S
C298 C297 1.351 . S
C298 N299 1.373 . S
C298 H326 0.930 . S
N299 C298 1.373 . S
N299 C301 1.340 . S
N300 C297 1.368 . S
N300 C301 1.321 . S
N300 Co303 2.135 . S
C301 N299 1.340 . S
C301 N300 1.321 . S
C301 H325 0.930 . S
H302 C297 0.931 . S
Co303 N300 2.135 . S
Co303 N306 2.121 . S
Co303 O311 2.055 . S
Co303 O314 2.039 . S
Co303 N317 2.140 . S
C304 O305 1.227 . S
C304 O314 1.265 . S
O305 C304 1.227 . S
N306 Co303 2.121 . S
N306 C308 1.375 . S
N306 C309 1.313 . S
C307 C308 1.338 . S
C307 N310 1.377 . S
C307 H327 0.930 . S
C308 N306 1.375 . S
C308 C307 1.338 . S
C308 H312 0.931 . S
C309 N306 1.313 . S
C309 N310 1.344 . S
C309 H313 0.930 . S
N310 C307 1.377 . S
N310 C309 1.344 . S
O311 Co303 2.055 . S
O311 C315 1.253 . S
H312 C308 0.931 . S
H313 C309 0.930 . S
O314 Co303 2.039 . S
O314 C304 1.265 . S
C315 O311 1.253 . S
C315 O316 1.227 . S
O316 C315 1.227 . S
N317 Co303 2.140 . S
N317 C320 1.346 . S
N317 C321 1.345 . S
C318 C319 1.387 . S
C318 C322 1.391 . S
C319 C318 1.387 . S
C319 C320 1.369 . S
C319 H328 0.929 . S
C320 N317 1.346 . S
C320 C319 1.369 . S
C320 H323 0.928 . S
C321 N317 1.345 . S
C321 C322 1.371 . S
C321 H324 0.931 . S
C322 C318 1.391 . S
C322 C321 1.371 . S
C322 H329 0.930 . S
H323 C320 0.928 . S
H324 C321 0.931 . S
H325 C301 0.930 . S
H326 C298 0.930 . S
H327 C307 0.930 . S
H328 C319 0.929 . S
H329 C322 0.930 . S
C330 C331 1.351 . S
C330 N333 1.368 . S
C330 H335 0.931 . S
C331 C330 1.351 . S
C331 N332 1.373 . S
C331 H359 0.930 . S
N332 C331 1.373 . S
N332 C334 1.340 . S
N333 C330 1.368 . S
N333 C334 1.321 . S
N333 Co336 2.135 . S
C334 N332 1.340 . S
C334 N333 1.321 . S
C334 H358 0.930 . S
H335 C330 0.931 . S
Co336 N333 2.135 . S
Co336 N339 2.121 . S
Co336 O344 2.055 . S
Co336 O347 2.039 . S
Co336 N350 2.140 . S
C337 O338 1.227 . S
C337 O347 1.265 . S
O338 C337 1.227 . S
N339 Co336 2.121 . S
N339 C341 1.375 . S
N339 C342 1.313 . S
C340 C341 1.338 . S
C340 N343 1.377 . S
C340 H360 0.930 . S
C341 N339 1.375 . S
C341 C340 1.338 . S
C341 H345 0.931 . S
C342 N339 1.313 . S
C342 N343 1.344 . S
C342 H346 0.930 . S
N343 C340 1.377 . S
N343 C342 1.344 . S
O344 Co336 2.055 . S
O344 C348 1.253 . S
H345 C341 0.931 . S
H346 C342 0.930 . S
O347 Co336 2.039 . S
O347 C337 1.265 . S
C348 O344 1.253 . S
C348 O349 1.227 . S
O349 C348 1.227 . S
N350 Co336 2.140 . S
N350 C353 1.346 . S
N350 C354 1.345 . S
C351 C352 1.387 . S
C351 C355 1.391 . S
C352 C351 1.387 . S
C352 C353 1.369 . S
C352 H361 0.929 . S
C353 N350 1.346 . S
C353 C352 1.369 . S
C353 H356 0.928 . S
C354 N350 1.345 . S
C354 C355 1.371 . S
C354 H357 0.931 . S
C355 C351 1.391 . S
C355 C354 1.371 . S
C355 H362 0.930 . S
H356 C353 0.928 . S
H357 C354 0.931 . S
H358 C334 0.930 . S
H359 C331 0.930 . S
H360 C340 0.930 . S
H361 C352 0.929 . S
H362 C355 0.930 . S
C363 C364 1.351 . S
C363 N366 1.368 . S
C363 H368 0.931 . S
C364 C363 1.351 . S
C364 N365 1.373 . S
C364 H392 0.930 . S
N365 C364 1.373 . S
N365 C367 1.340 . S
N366 C363 1.368 . S
N366 C367 1.321 . S
N366 Co369 2.135 . S
C367 N365 1.340 . S
C367 N366 1.321 . S
C367 H391 0.930 . S
H368 C363 0.931 . S
Co369 N366 2.135 . S
Co369 N372 2.121 . S
Co369 O377 2.055 . S
Co369 O380 2.039 . S
Co369 N383 2.140 . S
C370 O371 1.227 . S
C370 O380 1.265 . S
O371 C370 1.227 . S
N372 Co369 2.121 . S
N372 C374 1.375 . S
N372 C375 1.313 . S
C373 C374 1.338 . S
C373 N376 1.377 . S
C373 H393 0.930 . S
C374 N372 1.375 . S
C374 C373 1.338 . S
C374 H378 0.931 . S
C375 N372 1.313 . S
C375 N376 1.344 . S
C375 H379 0.930 . S
N376 C373 1.377 . S
N376 C375 1.344 . S
O377 Co369 2.055 . S
O377 C381 1.253 . S
H378 C374 0.931 . S
H379 C375 0.930 . S
O380 Co369 2.039 . S
O380 C370 1.265 . S
C381 O377 1.253 . S
C381 O382 1.227 . S
O382 C381 1.227 . S
N383 Co369 2.140 . S
N383 C386 1.346 . S
N383 C387 1.345 . S
C384 C385 1.387 . S
C384 C388 1.391 . S
C385 C384 1.387 . S
C385 C386 1.369 . S
C385 H394 0.929 . S
C386 N383 1.346 . S
C386 C385 1.369 . S
C386 H389 0.928 . S
C387 N383 1.345 . S
C387 C388 1.371 . S
C387 H390 0.931 . S
C388 C384 1.391 . S
C388 C387 1.371 . S
C388 H395 0.930 . S
H389 C386 0.928 . S
H390 C387 0.931 . S
H391 C367 0.930 . S
H392 C364 0.930 . S
H393 C373 0.930 . S
H394 C385 0.929 . S
H395 C388 0.930 . S
C396 C397 1.351 . S
C396 N399 1.368 . S
C396 H401 0.931 . S
C397 C396 1.351 . S
C397 N398 1.373 . S
C397 H425 0.930 . S
N398 C397 1.373 . S
N398 C400 1.340 . S
N399 C396 1.368 . S
N399 C400 1.321 . S
N399 Co402 2.135 . S
C400 N398 1.340 . S
C400 N399 1.321 . S
C400 H424 0.930 . S
H401 C396 0.931 . S
Co402 N399 2.135 . S
Co402 N405 2.121 . S
Co402 O410 2.055 . S
Co402 O413 2.039 . S
Co402 N416 2.140 . S
C403 O404 1.227 . S
C403 O413 1.265 . S
O404 C403 1.227 . S
N405 Co402 2.121 . S
N405 C407 1.375 . S
N405 C408 1.313 . S
C406 C407 1.338 . S
C406 N409 1.377 . S
C406 H426 0.930 . S
C407 N405 1.375 . S
C407 C406 1.338 . S
C407 H411 0.931 . S
C408 N405 1.313 . S
C408 N409 1.344 . S
C408 H412 0.930 . S
N409 C406 1.377 . S
N409 C408 1.344 . S
O410 Co402 2.055 . S
O410 C414 1.253 . S
H411 C407 0.931 . S
H412 C408 0.930 . S
O413 Co402 2.039 . S
O413 C403 1.265 . S
C414 O410 1.253 . S
C414 O415 1.227 . S
O415 C414 1.227 . S
N416 Co402 2.140 . S
N416 C419 1.346 . S
N416 C420 1.345 . S
C417 C418 1.387 . S
C417 C421 1.391 . S
C418 C417 1.387 . S
C418 C419 1.369 . S
C418 H427 0.929 . S
C419 N416 1.346 . S
C419 C418 1.369 . S
C419 H422 0.928 . S
C420 N416 1.345 . S
C420 C421 1.371 . S
C420 H423 0.931 . S
C421 C417 1.391 . S
C421 C420 1.371 . S
C421 H428 0.930 . S
H422 C419 0.928 . S
H423 C420 0.931 . S
H424 C400 0.930 . S
H425 C397 0.930 . S
H426 C406 0.930 . S
H427 C418 0.929 . S
H428 C421 0.930 . S
C429 C430 1.351 . S
C429 N432 1.368 . S
C429 H434 0.931 . S
C430 C429 1.351 . S
C430 N431 1.373 . S
C430 H458 0.930 . S
N431 C430 1.373 . S
N431 C433 1.340 . S
N432 C429 1.368 . S
N432 C433 1.321 . S
N432 Co435 2.135 . S
C433 N431 1.340 . S
C433 N432 1.321 . S
C433 H457 0.930 . S
H434 C429 0.931 . S
Co435 N432 2.135 . S
Co435 N438 2.121 . S
Co435 O443 2.055 . S
Co435 O446 2.039 . S
Co435 N449 2.140 . S
C436 O437 1.227 . S
C436 O446 1.265 . S
O437 C436 1.227 . S
N438 Co435 2.121 . S
N438 C440 1.375 . S
N438 C441 1.313 . S
C439 C440 1.338 . S
C439 N442 1.377 . S
C439 H459 0.930 . S
C440 N438 1.375 . S
C440 C439 1.338 . S
C440 H444 0.931 . S
C441 N438 1.313 . S
C441 N442 1.344 . S
C441 H445 0.930 . S
N442 C439 1.377 . S
N442 C441 1.344 . S
O443 Co435 2.055 . S
O443 C447 1.253 . S
H444 C440 0.931 . S
H445 C441 0.930 . S
O446 Co435 2.039 . S
O446 C436 1.265 . S
C447 O443 1.253 . S
C447 O448 1.227 . S
O448 C447 1.227 . S
N449 Co435 2.140 . S
N449 C452 1.346 . S
N449 C453 1.345 . S
C450 C451 1.387 . S
C450 C454 1.391 . S
C451 C450 1.387 . S
C451 C452 1.369 . S
C451 H460 0.929 . S
C452 N449 1.346 . S
C452 C451 1.369 . S
C452 H455 0.928 . S
C453 N449 1.345 . S
C453 C454 1.371 . S
C453 H456 0.931 . S
C454 C450 1.391 . S
C454 C453 1.371 . S
C454 H461 0.930 . S
H455 C452 0.928 . S
H456 C453 0.931 . S
H457 C433 0.930 . S
H458 C430 0.930 . S
H459 C439 0.930 . S
H460 C451 0.929 . S
H461 C454 0.930 . S
C462 C463 1.351 . S
C462 N465 1.368 . S
C462 H467 0.931 . S
C463 C462 1.351 . S
C463 N464 1.373 . S
C463 H491 0.930 . S
N464 C463 1.373 . S
N464 C466 1.340 . S
N465 C462 1.368 . S
N465 C466 1.321 . S
N465 Co468 2.135 . S
C466 N464 1.340 . S
C466 N465 1.321 . S
C466 H490 0.930 . S
H467 C462 0.931 . S
Co468 N465 2.135 . S
Co468 N471 2.121 . S
Co468 O476 2.055 . S
Co468 O479 2.039 . S
Co468 N482 2.140 . S
C469 O470 1.227 . S
C469 O479 1.265 . S
O470 C469 1.227 . S
N471 Co468 2.121 . S
N471 C473 1.375 . S
N471 C474 1.313 . S
C472 C473 1.338 . S
C472 N475 1.377 . S
C472 H492 0.930 . S
C473 N471 1.375 . S
C473 C472 1.338 . S
C473 H477 0.931 . S
C474 N471 1.313 . S
C474 N475 1.344 . S
C474 H478 0.930 . S
N475 C472 1.377 . S
N475 C474 1.344 . S
O476 Co468 2.055 . S
O476 C480 1.253 . S
H477 C473 0.931 . S
H478 C474 0.930 . S
O479 Co468 2.039 . S
O479 C469 1.265 . S
C480 O476 1.253 . S
C480 O481 1.227 . S
O481 C480 1.227 . S
N482 Co468 2.140 . S
N482 C485 1.346 . S
N482 C486 1.345 . S
C483 C484 1.387 . S
C483 C487 1.391 . S
C484 C483 1.387 . S
C484 C485 1.369 . S
C484 H493 0.929 . S
C485 N482 1.346 . S
C485 C484 1.369 . S
C485 H488 0.928 . S
C486 N482 1.345 . S
C486 C487 1.371 . S
C486 H489 0.931 . S
C487 C483 1.391 . S
C487 C486 1.371 . S
C487 H494 0.930 . S
H488 C485 0.928 . S
H489 C486 0.931 . S
H490 C466 0.930 . S
H491 C463 0.930 . S
H492 C472 0.930 . S
H493 C484 0.929 . S
H494 C487 0.930 . S
C495 C496 1.351 . S
C495 N498 1.368 . S
C495 H500 0.931 . S
C496 C495 1.351 . S
C496 N497 1.373 . S
C496 H524 0.930 . S
N497 C496 1.373 . S
N497 C499 1.340 . S
N498 C495 1.368 . S
N498 C499 1.321 . S
N498 Co501 2.135 . S
C499 N497 1.340 . S
C499 N498 1.321 . S
C499 H523 0.930 . S
H500 C495 0.931 . S
Co501 N498 2.135 . S
Co501 N504 2.121 . S
Co501 O509 2.055 . S
Co501 O512 2.039 . S
Co501 N515 2.140 . S
C502 O503 1.227 . S
C502 O512 1.265 . S
O503 C502 1.227 . S
N504 Co501 2.121 . S
N504 C506 1.375 . S
N504 C507 1.313 . S
C505 C506 1.338 . S
C505 N508 1.377 . S
C505 H525 0.930 . S
C506 N504 1.375 . S
C506 C505 1.338 . S
C506 H510 0.931 . S
C507 N504 1.313 . S
C507 N508 1.344 . S
C507 H511 0.930 . S
N508 C505 1.377 . S
N508 C507 1.344 . S
O509 Co501 2.055 . S
O509 C513 1.253 . S
H510 C506 0.931 . S
H511 C507 0.930 . S
O512 Co501 2.039 . S
O512 C502 1.265 . S
C513 O509 1.253 . S
C513 O514 1.227 . S
O514 C513 1.227 . S
N515 Co501 2.140 . S
N515 C518 1.346 . S
N515 C519 1.345 . S
C516 C517 1.387 . S
C516 C520 1.391 . S
C517 C516 1.387 . S
C517 C518 1.369 . S
C517 H526 0.929 . S
C518 N515 1.346 . S
C518 C517 1.369 . S
C518 H521 0.928 . S
C519 N515 1.345 . S
C519 C520 1.371 . S
C519 H522 0.931 . S
C520 C516 1.391 . S
C520 C519 1.371 . S
C520 H527 0.930 . S
H521 C518 0.928 . S
H522 C519 0.931 . S
H523 C499 0.930 . S
H524 C496 0.930 . S
H525 C505 0.930 . S
H526 C517 0.929 . S
H527 C520 0.930 . S
H528 C540 0.930 . S
H529 C542 0.930 . S
H530 C543 0.930 . S
H531 C547 0.959 . S
H532 C547 0.959 . S
H533 C547 0.961 . S
H534 C548 0.960 . S
H535 C548 0.961 . S
H536 C548 0.959 . S
H537 C551 0.929 . S
H538 C552 0.931 . S
H539 C554 0.930 . S
C540 H528 0.930 . S
C540 C541 1.399 . S
C540 C545 1.399 . S
C541 C540 1.399 . S
C541 C542 1.376 . S
C542 H529 0.930 . S
C542 C541 1.376 . S
C542 C543 1.388 . S
C543 H530 0.930 . S
C543 C542 1.388 . S
C543 C544 1.390 . S
C544 C543 1.390 . S
C544 C545 1.394 . S
C544 C550 1.465 . S
C545 C540 1.399 . S
C545 C544 1.394 . S
C545 C546 1.516 . S
C546 C545 1.516 . S
C546 C547 1.502 . S
C546 C548 1.561 . S
C546 C549 1.526 . S
C547 H531 0.959 . S
C547 H532 0.959 . S
C547 H533 0.961 . S
C547 C546 1.502 . S
C548 H534 0.960 . S
C548 H535 0.961 . S
C548 H536 0.959 . S
C548 C546 1.561 . S
C549 C546 1.526 . S
C549 C550 1.396 . S
C549 C554 1.390 . S
C550 C544 1.465 . S
C550 C549 1.396 . S
C550 C551 1.399 . S
C551 H537 0.929 . S
C551 C550 1.399 . S
C551 C552 1.385 . S
C552 H538 0.931 . S
C552 C551 1.385 . S
C552 C553 1.389 . S
C553 C552 1.389 . S
C553 C554 1.387 . S
C554 H539 0.930 . S
C554 C549 1.390 . S
C554 C553 1.387 . S
H555 C567 0.930 . S
H556 C569 0.930 . S
H557 C570 0.930 . S
H558 C574 0.959 . S
H559 C574 0.959 . S
H560 C574 0.961 . S
H561 C575 0.960 . S
H562 C575 0.961 . S
H563 C575 0.959 . S
H564 C578 0.929 . S
H565 C579 0.931 . S
H566 C581 0.930 . S
C567 H555 0.930 . S
C567 C568 1.399 . S
C567 C572 1.399 . S
C568 C567 1.399 . S
C568 C569 1.376 . S
C569 H556 0.930 . S
C569 C568 1.376 . S
C569 C570 1.388 . S
C570 H557 0.930 . S
C570 C569 1.388 . S
C570 C571 1.390 . S
C571 C570 1.390 . S
C571 C572 1.394 . S
C571 C577 1.465 . S
C572 C567 1.399 . S
C572 C571 1.394 . S
C572 C573 1.516 . S
C573 C572 1.516 . S
C573 C574 1.502 . S
C573 C575 1.561 . S
C573 C576 1.526 . S
C574 H558 0.959 . S
C574 H559 0.959 . S
C574 H560 0.961 . S
C574 C573 1.502 . S
C575 H561 0.960 . S
C575 H562 0.961 . S
C575 H563 0.959 . S
C575 C573 1.561 . S
C576 C573 1.526 . S
C576 C577 1.396 . S
C576 C581 1.390 . S
C577 C571 1.465 . S
C577 C576 1.396 . S
C577 C578 1.399 . S
C578 H564 0.929 . S
C578 C577 1.399 . S
C578 C579 1.385 . S
C579 H565 0.931 . S
C579 C578 1.385 . S
C579 C580 1.389 . S
C580 C579 1.389 . S
C580 C581 1.387 . S
C581 H566 0.930 . S
C581 C576 1.390 . S
C581 C580 1.387 . S
H582 C594 0.930 . S
H583 C596 0.930 . S
H584 C597 0.930 . S
H585 C601 0.959 . S
H586 C601 0.959 . S
H587 C601 0.961 . S
H588 C602 0.960 . S
H589 C602 0.961 . S
H590 C602 0.959 . S
H591 C605 0.929 . S
H592 C606 0.931 . S
H593 C608 0.930 . S
C594 H582 0.930 . S
C594 C595 1.399 . S
C594 C599 1.399 . S
C595 C594 1.399 . S
C595 C596 1.376 . S
C596 H583 0.930 . S
C596 C595 1.376 . S
C596 C597 1.388 . S
C597 H584 0.930 . S
C597 C596 1.388 . S
C597 C598 1.390 . S
C598 C597 1.390 . S
C598 C599 1.394 . S
C598 C604 1.465 . S
C599 C594 1.399 . S
C599 C598 1.394 . S
C599 C600 1.516 . S
C600 C599 1.516 . S
C600 C601 1.502 . S
C600 C602 1.561 . S
C600 C603 1.526 . S
C601 H585 0.959 . S
C601 H586 0.959 . S
C601 H587 0.961 . S
C601 C600 1.502 . S
C602 H588 0.960 . S
C602 H589 0.961 . S
C602 H590 0.959 . S
C602 C600 1.561 . S
C603 C600 1.526 . S
C603 C604 1.396 . S
C603 C608 1.390 . S
C604 C598 1.465 . S
C604 C603 1.396 . S
C604 C605 1.399 . S
C605 H591 0.929 . S
C605 C604 1.399 . S
C605 C606 1.385 . S
C606 H592 0.931 . S
C606 C605 1.385 . S
C606 C607 1.389 . S
C607 C606 1.389 . S
C607 C608 1.387 . S
C608 H593 0.930 . S
C608 C603 1.390 . S
C608 C607 1.387 . S
H609 C621 0.930 . S
H610 C623 0.930 . S
H611 C624 0.930 . S
H612 C628 0.959 . S
H613 C628 0.959 . S
H614 C628 0.961 . S
H615 C629 0.960 . S
H616 C629 0.961 . S
H617 C629 0.959 . S
H618 C632 0.929 . S
H619 C633 0.931 . S
H620 C635 0.930 . S
C621 H609 0.930 . S
C621 C622 1.399 . S
C621 C626 1.399 . S
C622 C621 1.399 . S
C622 C623 1.376 . S
C623 H610 0.930 . S
C623 C622 1.376 . S
C623 C624 1.388 . S
C624 H611 0.930 . S
C624 C623 1.388 . S
C624 C625 1.390 . S
C625 C624 1.390 . S
C625 C626 1.394 . S
C625 C631 1.465 . S
C626 C621 1.399 . S
C626 C625 1.394 . S
C626 C627 1.516 . S
C627 C626 1.516 . S
C627 C628 1.502 . S
C627 C629 1.561 . S
C627 C630 1.526 . S
C628 H612 0.959 . S
C628 H613 0.959 . S
C628 H614 0.961 . S
C628 C627 1.502 . S
C629 H615 0.960 . S
C629 H616 0.961 . S
C629 H617 0.959 . S
C629 C627 1.561 . S
C630 C627 1.526 . S
C630 C631 1.396 . S
C630 C635 1.390 . S
C631 C625 1.465 . S
C631 C630 1.396 . S
C631 C632 1.399 . S
C632 H618 0.929 . S
C632 C631 1.399 . S
C632 C633 1.385 . S
C633 H619 0.931 . S
C633 C632 1.385 . S
C633 C634 1.389 . S
C634 C633 1.389 . S
C634 C635 1.387 . S
C635 H620 0.930 . S
C635 C630 1.390 . S
C635 C634 1.387 . S
H636 C648 0.930 . S
H637 C650 0.930 . S
H638 C651 0.930 . S
H639 C655 0.959 . S
H640 C655 0.959 . S
H641 C655 0.961 . S
H642 C656 0.960 . S
H643 C656 0.961 . S
H644 C656 0.959 . S
H645 C659 0.929 . S
H646 C660 0.931 . S
H647 C662 0.930 . S
C648 H636 0.930 . S
C648 C649 1.399 . S
C648 C653 1.399 . S
C649 C648 1.399 . S
C649 C650 1.376 . S
C650 H637 0.930 . S
C650 C649 1.376 . S
C650 C651 1.388 . S
C651 H638 0.930 . S
C651 C650 1.388 . S
C651 C652 1.390 . S
C652 C651 1.390 . S
C652 C653 1.394 . S
C652 C658 1.465 . S
C653 C648 1.399 . S
C653 C652 1.394 . S
C653 C654 1.516 . S
C654 C653 1.516 . S
C654 C655 1.502 . S
C654 C656 1.561 . S
C654 C657 1.526 . S
C655 H639 0.959 . S
C655 H640 0.959 . S
C655 H641 0.961 . S
C655 C654 1.502 . S
C656 H642 0.960 . S
C656 H643 0.961 . S
C656 H644 0.959 . S
C656 C654 1.561 . S
C657 C654 1.526 . S
C657 C658 1.396 . S
C657 C662 1.390 . S
C658 C652 1.465 . S
C658 C657 1.396 . S
C658 C659 1.399 . S
C659 H645 0.929 . S
C659 C658 1.399 . S
C659 C660 1.385 . S
C660 H646 0.931 . S
C660 C659 1.385 . S
C660 C661 1.389 . S
C661 C660 1.389 . S
C661 C662 1.387 . S
C662 H647 0.930 . S
C662 C657 1.390 . S
C662 C661 1.387 . S
H663 C675 0.930 . S
H664 C677 0.930 . S
H665 C678 0.930 . S
H666 C682 0.959 . S
H667 C682 0.959 . S
H668 C682 0.961 . S
H669 C683 0.960 . S
H670 C683 0.961 . S
H671 C683 0.959 . S
H672 C686 0.929 . S
H673 C687 0.931 . S
H674 C689 0.930 . S
C675 H663 0.930 . S
C675 C676 1.399 . S
C675 C680 1.399 . S
C676 C675 1.399 . S
C676 C677 1.376 . S
C677 H664 0.930 . S
C677 C676 1.376 . S
C677 C678 1.388 . S
C678 H665 0.930 . S
C678 C677 1.388 . S
C678 C679 1.390 . S
C679 C678 1.390 . S
C679 C680 1.394 . S
C679 C685 1.465 . S
C680 C675 1.399 . S
C680 C679 1.394 . S
C680 C681 1.516 . S
C681 C680 1.516 . S
C681 C682 1.502 . S
C681 C683 1.561 . S
C681 C684 1.526 . S
C682 H666 0.959 . S
C682 H667 0.959 . S
C682 H668 0.961 . S
C682 C681 1.502 . S
C683 H669 0.960 . S
C683 H670 0.961 . S
C683 H671 0.959 . S
C683 C681 1.561 . S
C684 C681 1.526 . S
C684 C685 1.396 . S
C684 C689 1.390 . S
C685 C679 1.465 . S
C685 C684 1.396 . S
C685 C686 1.399 . S
C686 H672 0.929 . S
C686 C685 1.399 . S
C686 C687 1.385 . S
C687 H673 0.931 . S
C687 C686 1.385 . S
C687 C688 1.389 . S
C688 C687 1.389 . S
C688 C689 1.387 . S
C689 H674 0.930 . S
C689 C684 1.390 . S
C689 C688 1.387 . S
H690 C702 0.930 . S
H691 C704 0.930 . S
H692 C705 0.930 . S
H693 C709 0.959 . S
H694 C709 0.959 . S
H695 C709 0.961 . S
H696 C710 0.960 . S
H697 C710 0.961 . S
H698 C710 0.959 . S
H699 C713 0.929 . S
H700 C714 0.931 . S
H701 C716 0.930 . S
C702 H690 0.930 . S
C702 C703 1.399 . S
C702 C707 1.399 . S
C703 C702 1.399 . S
C703 C704 1.376 . S
C704 H691 0.930 . S
C704 C703 1.376 . S
C704 C705 1.388 . S
C705 H692 0.930 . S
C705 C704 1.388 . S
C705 C706 1.390 . S
C706 C705 1.390 . S
C706 C707 1.394 . S
C706 C712 1.465 . S
C707 C702 1.399 . S
C707 C706 1.394 . S
C707 C708 1.516 . S
C708 C707 1.516 . S
C708 C709 1.502 . S
C708 C710 1.561 . S
C708 C711 1.526 . S
C709 H693 0.959 . S
C709 H694 0.959 . S
C709 H695 0.961 . S
C709 C708 1.502 . S
C710 H696 0.960 . S
C710 H697 0.961 . S
C710 H698 0.959 . S
C710 C708 1.561 . S
C711 C708 1.526 . S
C711 C712 1.396 . S
C711 C716 1.390 . S
C712 C706 1.465 . S
C712 C711 1.396 . S
C712 C713 1.399 . S
C713 H699 0.929 . S
C713 C712 1.399 . S
C713 C714 1.385 . S
C714 H700 0.931 . S
C714 C713 1.385 . S
C714 C715 1.389 . S
C715 C714 1.389 . S
C715 C716 1.387 . S
C716 H701 0.930 . S
C716 C711 1.390 . S
C716 C715 1.387 . S
H717 C729 0.930 . S
H718 C731 0.930 . S
H719 C732 0.930 . S
H720 C736 0.959 . S
H721 C736 0.959 . S
H722 C736 0.961 . S
H723 C737 0.960 . S
H724 C737 0.961 . S
H725 C737 0.959 . S
H726 C740 0.929 . S
H727 C741 0.931 . S
H728 C743 0.930 . S
C729 H717 0.930 . S
C729 C730 1.399 . S
C729 C734 1.399 . S
C730 C729 1.399 . S
C730 C731 1.376 . S
C731 H718 0.930 . S
C731 C730 1.376 . S
C731 C732 1.388 . S
C732 H719 0.930 . S
C732 C731 1.388 . S
C732 C733 1.390 . S
C733 C732 1.390 . S
C733 C734 1.394 . S
C733 C739 1.465 . S
C734 C729 1.399 . S
C734 C733 1.394 . S
C734 C735 1.516 . S
C735 C734 1.516 . S
C735 C736 1.502 . S
C735 C737 1.561 . S
C735 C738 1.526 . S
C736 H720 0.959 . S
C736 H721 0.959 . S
C736 H722 0.961 . S
C736 C735 1.502 . S
C737 H723 0.960 . S
C737 H724 0.961 . S
C737 H725 0.959 . S
C737 C735 1.561 . S
C738 C735 1.526 . S
C738 C739 1.396 . S
C738 C743 1.390 . S
C739 C733 1.465 . S
C739 C738 1.396 . S
C739 C740 1.399 . S
C740 H726 0.929 . S
C740 C739 1.399 . S
C740 C741 1.385 . S
C741 H727 0.931 . S
C741 C740 1.385 . S
C741 C742 1.389 . S
C742 C741 1.389 . S
C742 C743 1.387 . S
C743 H728 0.930 . S
C743 C738 1.390 . S
C743 C742 1.387 . S
H744 C756 0.930 . S
H745 C758 0.930 . S
H746 C759 0.930 . S
H747 C763 0.959 . S
H748 C763 0.959 . S
H749 C763 0.961 . S
H750 C764 0.960 . S
H751 C764 0.961 . S
H752 C764 0.959 . S
H753 C767 0.929 . S
H754 C768 0.931 . S
H755 C770 0.930 . S
C756 H744 0.930 . S
C756 C757 1.399 . S
C756 C761 1.399 . S
C757 C756 1.399 . S
C757 C758 1.376 . S
C758 H745 0.930 . S
C758 C757 1.376 . S
C758 C759 1.388 . S
C759 H746 0.930 . S
C759 C758 1.388 . S
C759 C760 1.390 . S
C760 C759 1.390 . S
C760 C761 1.394 . S
C760 C766 1.465 . S
C761 C756 1.399 . S
C761 C760 1.394 . S
C761 C762 1.516 . S
C762 C761 1.516 . S
C762 C763 1.502 . S
C762 C764 1.561 . S
C762 C765 1.526 . S
C763 H747 0.959 . S
C763 H748 0.959 . S
C763 H749 0.961 . S
C763 C762 1.502 . S
C764 H750 0.960 . S
C764 H751 0.961 . S
C764 H752 0.959 . S
C764 C762 1.561 . S
C765 C762 1.526 . S
C765 C766 1.396 . S
C765 C770 1.390 . S
C766 C760 1.465 . S
C766 C765 1.396 . S
C766 C767 1.399 . S
C767 H753 0.929 . S
C767 C766 1.399 . S
C767 C768 1.385 . S
C768 H754 0.931 . S
C768 C767 1.385 . S
C768 C769 1.389 . S
C769 C768 1.389 . S
C769 C770 1.387 . S
C770 H755 0.930 . S
C770 C765 1.390 . S
C770 C769 1.387 . S
H771 C783 0.930 . S
H772 C785 0.930 . S
H773 C786 0.930 . S
H774 C790 0.959 . S
H775 C790 0.959 . S
H776 C790 0.961 . S
H777 C791 0.960 . S
H778 C791 0.961 . S
H779 C791 0.959 . S
H780 C794 0.929 . S
H781 C795 0.931 . S
H782 C797 0.930 . S
C783 H771 0.930 . S
C783 C784 1.399 . S
C783 C788 1.399 . S
C784 C783 1.399 . S
C784 C785 1.376 . S
C785 H772 0.930 . S
C785 C784 1.376 . S
C785 C786 1.388 . S
C786 H773 0.930 . S
C786 C785 1.388 . S
C786 C787 1.390 . S
C787 C786 1.390 . S
C787 C788 1.394 . S
C787 C793 1.465 . S
C788 C783 1.399 . S
C788 C787 1.394 . S
C788 C789 1.516 . S
C789 C788 1.516 . S
C789 C790 1.502 . S
C789 C791 1.561 . S
C789 C792 1.526 . S
C790 H774 0.959 . S
C790 H775 0.959 . S
C790 H776 0.961 . S
C790 C789 1.502 . S
C791 H777 0.960 . S
C791 H778 0.961 . S
C791 H779 0.959 . S
C791 C789 1.561 . S
C792 C789 1.526 . S
C792 C793 1.396 . S
C792 C797 1.390 . S
C793 C787 1.465 . S
C793 C792 1.396 . S
C793 C794 1.399 . S
C794 H780 0.929 . S
C794 C793 1.399 . S
C794 C795 1.385 . S
C795 H781 0.931 . S
C795 C794 1.385 . S
C795 C796 1.389 . S
C796 C795 1.389 . S
C796 C797 1.387 . S
C797 H782 0.930 . S
C797 C792 1.390 . S
C797 C796 1.387 . S
H798 C810 0.930 . S
H799 C812 0.930 . S
H800 C813 0.930 . S
H801 C817 0.959 . S
H802 C817 0.959 . S
H803 C817 0.961 . S
H804 C818 0.960 . S
H805 C818 0.961 . S
H806 C818 0.959 . S
H807 C821 0.929 . S
H808 C822 0.931 . S
H809 C824 0.930 . S
C810 H798 0.930 . S
C810 C811 1.399 . S
C810 C815 1.399 . S
C811 C810 1.399 . S
C811 C812 1.376 . S
C812 H799 0.930 . S
C812 C811 1.376 . S
C812 C813 1.388 . S
C813 H800 0.930 . S
C813 C812 1.388 . S
C813 C814 1.390 . S
C814 C813 1.390 . S
C814 C815 1.394 . S
C814 C820 1.465 . S
C815 C810 1.399 . S
C815 C814 1.394 . S
C815 C816 1.516 . S
C816 C815 1.516 . S
C816 C817 1.502 . S
C816 C818 1.561 . S
C816 C819 1.526 . S
C817 H801 0.959 . S
C817 H802 0.959 . S
C817 H803 0.961 . S
C817 C816 1.502 . S
C818 H804 0.960 . S
C818 H805 0.961 . S
C818 H806 0.959 . S
C818 C816 1.561 . S
C819 C816 1.526 . S
C819 C820 1.396 . S
C819 C824 1.390 . S
C820 C814 1.465 . S
C820 C819 1.396 . S
C820 C821 1.399 . S
C821 H807 0.929 . S
C821 C820 1.399 . S
C821 C822 1.385 . S
C822 H808 0.931 . S
C822 C821 1.385 . S
C822 C823 1.389 . S
C823 C822 1.389 . S
C823 C824 1.387 . S
C824 H809 0.930 . S
C824 C819 1.390 . S
C824 C823 1.387 . S
H825 C837 0.930 . S
H826 C839 0.930 . S
H827 C840 0.930 . S
H828 C844 0.959 . S
H829 C844 0.959 . S
H830 C844 0.961 . S
H831 C845 0.960 . S
H832 C845 0.961 . S
H833 C845 0.959 . S
H834 C848 0.929 . S
H835 C849 0.931 . S
H836 C851 0.930 . S
C837 H825 0.930 . S
C837 C838 1.399 . S
C837 C842 1.399 . S
C838 C837 1.399 . S
C838 C839 1.376 . S
C839 H826 0.930 . S
C839 C838 1.376 . S
C839 C840 1.388 . S
C840 H827 0.930 . S
C840 C839 1.388 . S
C840 C841 1.390 . S
C841 C840 1.390 . S
C841 C842 1.394 . S
C841 C847 1.465 . S
C842 C837 1.399 . S
C842 C841 1.394 . S
C842 C843 1.516 . S
C843 C842 1.516 . S
C843 C844 1.502 . S
C843 C845 1.561 . S
C843 C846 1.526 . S
C844 H828 0.959 . S
C844 H829 0.959 . S
C844 H830 0.961 . S
C844 C843 1.502 . S
C845 H831 0.960 . S
C845 H832 0.961 . S
C845 H833 0.959 . S
C845 C843 1.561 . S
C846 C843 1.526 . S
C846 C847 1.396 . S
C846 C851 1.390 . S
C847 C841 1.465 . S
C847 C846 1.396 . S
C847 C848 1.399 . S
C848 H834 0.929 . S
C848 C847 1.399 . S
C848 C849 1.385 . S
C849 H835 0.931 . S
C849 C848 1.385 . S
C849 C850 1.389 . S
C850 C849 1.389 . S
C850 C851 1.387 . S
C851 H836 0.930 . S
C851 C846 1.390 . S
C851 C850 1.387 . S
H852 C864 0.930 . S
H853 C866 0.930 . S
H854 C867 0.930 . S
H855 C871 0.959 . S
H856 C871 0.959 . S
H857 C871 0.961 . S
H858 C872 0.960 . S
H859 C872 0.961 . S
H860 C872 0.959 . S
H861 C875 0.929 . S
H862 C876 0.931 . S
H863 C878 0.930 . S
C864 H852 0.930 . S
C864 C865 1.399 . S
C864 C869 1.399 . S
C865 C864 1.399 . S
C865 C866 1.376 . S
C866 H853 0.930 . S
C866 C865 1.376 . S
C866 C867 1.388 . S
C867 H854 0.930 . S
C867 C866 1.388 . S
C867 C868 1.390 . S
C868 C867 1.390 . S
C868 C869 1.394 . S
C868 C874 1.465 . S
C869 C864 1.399 . S
C869 C868 1.394 . S
C869 C870 1.516 . S
C870 C869 1.516 . S
C870 C871 1.502 . S
C870 C872 1.561 . S
C870 C873 1.526 . S
C871 H855 0.959 . S
C871 H856 0.959 . S
C871 H857 0.961 . S
C871 C870 1.502 . S
C872 H858 0.960 . S
C872 H859 0.961 . S
C872 H860 0.959 . S
C872 C870 1.561 . S
C873 C870 1.526 . S
C873 C874 1.396 . S
C873 C878 1.390 . S
C874 C868 1.465 . S
C874 C873 1.396 . S
C874 C875 1.399 . S
C875 H861 0.929 . S
C875 C874 1.399 . S
C875 C876 1.385 . S
C876 H862 0.931 . S
C876 C875 1.385 . S
C876 C877 1.389 . S
C877 C876 1.389 . S
C877 C878 1.387 . S
C878 H863 0.930 . S
C878 C873 1.390 . S
C878 C877 1.387 . S
H879 C891 0.930 . S
H880 C893 0.930 . S
H881 C894 0.930 . S
H882 C898 0.959 . S
H883 C898 0.959 . S
H884 C898 0.961 . S
H885 C899 0.960 . S
H886 C899 0.961 . S
H887 C899 0.959 . S
H888 C902 0.929 . S
H889 C903 0.931 . S
H890 C905 0.930 . S
C891 H879 0.930 . S
C891 C892 1.399 . S
C891 C896 1.399 . S
C892 C891 1.399 . S
C892 C893 1.376 . S
C893 H880 0.930 . S
C893 C892 1.376 . S
C893 C894 1.388 . S
C894 H881 0.930 . S
C894 C893 1.388 . S
C894 C895 1.390 . S
C895 C894 1.390 . S
C895 C896 1.394 . S
C895 C901 1.465 . S
C896 C891 1.399 . S
C896 C895 1.394 . S
C896 C897 1.516 . S
C897 C896 1.516 . S
C897 C898 1.502 . S
C897 C899 1.561 . S
C897 C900 1.526 . S
C898 H882 0.959 . S
C898 H883 0.959 . S
C898 H884 0.961 . S
C898 C897 1.502 . S
C899 H885 0.960 . S
C899 H886 0.961 . S
C899 H887 0.959 . S
C899 C897 1.561 . S
C900 C897 1.526 . S
C900 C901 1.396 . S
C900 C905 1.390 . S
C901 C895 1.465 . S
C901 C900 1.396 . S
C901 C902 1.399 . S
C902 H888 0.929 . S
C902 C901 1.399 . S
C902 C903 1.385 . S
C903 H889 0.931 . S
C903 C902 1.385 . S
C903 C904 1.389 . S
C904 C903 1.389 . S
C904 C905 1.387 . S
C905 H890 0.930 . S
C905 C900 1.390 . S
C905 C904 1.387 . S
H906 C918 0.930 . S
H907 C920 0.930 . S
H908 C921 0.930 . S
H909 C925 0.959 . S
H910 C925 0.959 . S
H911 C925 0.961 . S
H912 C926 0.960 . S
H913 C926 0.961 . S
H914 C926 0.959 . S
H915 C929 0.929 . S
H916 C930 0.931 . S
H917 C932 0.930 . S
C918 H906 0.930 . S
C918 C919 1.399 . S
C918 C923 1.399 . S
C919 C918 1.399 . S
C919 C920 1.376 . S
C920 H907 0.930 . S
C920 C919 1.376 . S
C920 C921 1.388 . S
C921 H908 0.930 . S
C921 C920 1.388 . S
C921 C922 1.390 . S
C922 C921 1.390 . S
C922 C923 1.394 . S
C922 C928 1.465 . S
C923 C918 1.399 . S
C923 C922 1.394 . S
C923 C924 1.516 . S
C924 C923 1.516 . S
C924 C925 1.502 . S
C924 C926 1.561 . S
C924 C927 1.526 . S
C925 H909 0.959 . S
C925 H910 0.959 . S
C925 H911 0.961 . S
C925 C924 1.502 . S
C926 H912 0.960 . S
C926 H913 0.961 . S
C926 H914 0.959 . S
C926 C924 1.561 . S
C927 C924 1.526 . S
C927 C928 1.396 . S
C927 C932 1.390 . S
C928 C922 1.465 . S
C928 C927 1.396 . S
C928 C929 1.399 . S
C929 H915 0.929 . S
C929 C928 1.399 . S
C929 C930 1.385 . S
C930 H916 0.931 . S
C930 C929 1.385 . S
C930 C931 1.389 . S
C931 C930 1.389 . S
C931 C932 1.387 . S
C932 H917 0.930 . S
C932 C927 1.390 . S
C932 C931 1.387 . S
H933 C945 0.930 . S
H934 C947 0.930 . S
H935 C948 0.930 . S
H936 C952 0.959 . S
H937 C952 0.959 . S
H938 C952 0.961 . S
H939 C953 0.960 . S
H940 C953 0.961 . S
H941 C953 0.959 . S
H942 C956 0.929 . S
H943 C957 0.931 . S
H944 C959 0.930 . S
C945 H933 0.930 . S
C945 C946 1.399 . S
C945 C950 1.399 . S
C946 C945 1.399 . S
C946 C947 1.376 . S
C947 H934 0.930 . S
C947 C946 1.376 . S
C947 C948 1.388 . S
C948 H935 0.930 . S
C948 C947 1.388 . S
C948 C949 1.390 . S
C949 C948 1.390 . S
C949 C950 1.394 . S
C949 C955 1.465 . S
C950 C945 1.399 . S
C950 C949 1.394 . S
C950 C951 1.516 . S
C951 C950 1.516 . S
C951 C952 1.502 . S
C951 C953 1.561 . S
C951 C954 1.526 . S
C952 H936 0.959 . S
C952 H937 0.959 . S
C952 H938 0.961 . S
C952 C951 1.502 . S
C953 H939 0.960 . S
C953 H940 0.961 . S
C953 H941 0.959 . S
C953 C951 1.561 . S
C954 C951 1.526 . S
C954 C955 1.396 . S
C954 C959 1.390 . S
C955 C949 1.465 . S
C955 C954 1.396 . S
C955 C956 1.399 . S
C956 H942 0.929 . S
C956 C955 1.399 . S
C956 C957 1.385 . S
C957 H943 0.931 . S
C957 C956 1.385 . S
C957 C958 1.389 . S
C958 C957 1.389 . S
C958 C959 1.387 . S
C959 H944 0.930 . S
C959 C954 1.390 . S
C959 C958 1.387 . S
H960 C972 0.930 . S
H961 C974 0.930 . S
H962 C975 0.930 . S
H963 C979 0.959 . S
H964 C979 0.959 . S
H965 C979 0.961 . S
H966 C980 0.960 . S
H967 C980 0.961 . S
H968 C980 0.959 . S
H969 C983 0.929 . S
H970 C984 0.931 . S
H971 C986 0.930 . S
C972 H960 0.930 . S
C972 C973 1.399 . S
C972 C977 1.399 . S
C973 C972 1.399 . S
C973 C974 1.376 . S
C974 H961 0.930 . S
C974 C973 1.376 . S
C974 C975 1.388 . S
C975 H962 0.930 . S
C975 C974 1.388 . S
C975 C976 1.390 . S
C976 C975 1.390 . S
C976 C977 1.394 . S
C976 C982 1.465 . S
C977 C972 1.399 . S
C977 C976 1.394 . S
C977 C978 1.516 . S
C978 C977 1.516 . S
C978 C979 1.502 . S
C978 C980 1.561 . S
C978 C981 1.526 . S
C979 H963 0.959 . S
C979 H964 0.959 . S
C979 H965 0.961 . S
C979 C978 1.502 . S
C980 H966 0.960 . S
C980 H967 0.961 . S
C980 H968 0.959 . S
C980 C978 1.561 . S
C981 C978 1.526 . S
C981 C982 1.396 . S
C981 C986 1.390 . S
C982 C976 1.465 . S
C982 C981 1.396 . S
C982 C983 1.399 . S
C983 H969 0.929 . S
C983 C982 1.399 . S
C983 C984 1.385 . S
C984 H970 0.931 . S
C984 C983 1.385 . S
C984 C985 1.389 . S
C985 C984 1.389 . S
C985 C986 1.387 . S
C986 H971 0.930 . S
C986 C981 1.390 . S
C986 C985 1.387 . S
H987 C999 0.930 . S
H988 C1001 0.930 . S
H989 C1002 0.930 . S
H990 C1006 0.959 . S
H991 C1006 0.959 . S
H992 C1006 0.961 . S
H993 C1007 0.960 . S
H994 C1007 0.961 . S
H995 C1007 0.959 . S
H996 C1010 0.929 . S
H997 C1011 0.931 . S
H998 C1013 0.930 . S
C999 H987 0.930 . S
C999 C1000 1.399 . S
C999 C1004 1.399 . S
C1000 C999 1.399 . S
C1000 C1001 1.376 . S
C1001 H988 0.930 . S
C1001 C1000 1.376 . S
C1001 C1002 1.388 . S
C1002 H989 0.930 . S
C1002 C1001 1.388 . S
C1002 C1003 1.390 . S
C1003 C1002 1.390 . S
C1003 C1004 1.394 . S
C1003 C1009 1.465 . S
C1004 C999 1.399 . S
C1004 C1003 1.394 . S
C1004 C1005 1.516 . S
C1005 C1004 1.516 . S
C1005 C1006 1.502 . S
C1005 C1007 1.561 . S
C1005 C1008 1.526 . S
C1006 H990 0.959 . S
C1006 H991 0.959 . S
C1006 H992 0.961 . S
C1006 C1005 1.502 . S
C1007 H993 0.960 . S
C1007 H994 0.961 . S
C1007 H995 0.959 . S
C1007 C1005 1.561 . S
C1008 C1005 1.526 . S
C1008 C1009 1.396 . S
C1008 C1013 1.390 . S
C1009 C1003 1.465 . S
C1009 C1008 1.396 . S
C1009 C1010 1.399 . S
C1010 H996 0.929 . S
C1010 C1009 1.399 . S
C1010 C1011 1.385 . S
C1011 H997 0.931 . S
C1011 C1010 1.385 . S
C1011 C1012 1.389 . S
C1012 C1011 1.389 . S
C1012 C1013 1.387 . S
C1013 H998 0.930 . S
C1013 C1008 1.390 . S
C1013 C1012 1.387 . S
H1014 C1026 0.930 . S
H1015 C1028 0.930 . S
H1016 C1029 0.930 . S
H1017 C1033 0.959 . S
H1018 C1033 0.959 . S
H1019 C1033 0.961 . S
H1020 C1034 0.960 . S
H1021 C1034 0.961 . S
H1022 C1034 0.959 . S
H1023 C1037 0.929 . S
H1024 C1038 0.931 . S
H1025 C1040 0.930 . S
C1026 H1014 0.930 . S
C1026 C1027 1.399 . S
C1026 C1031 1.399 . S
C1027 C1026 1.399 . S
C1027 C1028 1.376 . S
C1028 H1015 0.930 . S
C1028 C1027 1.376 . S
C1028 C1029 1.388 . S
C1029 H1016 0.930 . S
C1029 C1028 1.388 . S
C1029 C1030 1.390 . S
C1030 C1029 1.390 . S
C1030 C1031 1.394 . S
C1030 C1036 1.465 . S
C1031 C1026 1.399 . S
C1031 C1030 1.394 . S
C1031 C1032 1.516 . S
C1032 C1031 1.516 . S
C1032 C1033 1.502 . S
C1032 C1034 1.561 . S
C1032 C1035 1.526 . S
C1033 H1017 0.959 . S
C1033 H1018 0.959 . S
C1033 H1019 0.961 . S
C1033 C1032 1.502 . S
C1034 H1020 0.960 . S
C1034 H1021 0.961 . S
C1034 H1022 0.959 . S
C1034 C1032 1.561 . S
C1035 C1032 1.526 . S
C1035 C1036 1.396 . S
C1035 C1040 1.390 . S
C1036 C1030 1.465 . S
C1036 C1035 1.396 . S
C1036 C1037 1.399 . S
C1037 H1023 0.929 . S
C1037 C1036 1.399 . S
C1037 C1038 1.385 . S
C1038 H1024 0.931 . S
C1038 C1037 1.385 . S
C1038 C1039 1.389 . S
C1039 C1038 1.389 . S
C1039 C1040 1.387 . S
C1040 H1025 0.930 . S
C1040 C1035 1.390 . S
C1040 C1039 1.387 . S
H1041 C1053 0.930 . S
H1042 C1055 0.930 . S
H1043 C1056 0.930 . S
H1044 C1060 0.959 . S
H1045 C1060 0.959 . S
H1046 C1060 0.961 . S
H1047 C1061 0.960 . S
H1048 C1061 0.961 . S
H1049 C1061 0.959 . S
H1050 C1064 0.929 . S
H1051 C1065 0.931 . S
H1052 C1067 0.930 . S
C1053 H1041 0.930 . S
C1053 C1054 1.399 . S
C1053 C1058 1.399 . S
C1054 C1053 1.399 . S
C1054 C1055 1.376 . S
C1055 H1042 0.930 . S
C1055 C1054 1.376 . S
C1055 C1056 1.388 . S
C1056 H1043 0.930 . S
C1056 C1055 1.388 . S
C1056 C1057 1.390 . S
C1057 C1056 1.390 . S
C1057 C1058 1.394 . S
C1057 C1063 1.465 . S
C1058 C1053 1.399 . S
C1058 C1057 1.394 . S
C1058 C1059 1.516 . S
C1059 C1058 1.516 . S
C1059 C1060 1.502 . S
C1059 C1061 1.561 . S
C1059 C1062 1.526 . S
C1060 H1044 0.959 . S
C1060 H1045 0.959 . S
C1060 H1046 0.961 . S
C1060 C1059 1.502 . S
C1061 H1047 0.960 . S
C1061 H1048 0.961 . S
C1061 H1049 0.959 . S
C1061 C1059 1.561 . S
C1062 C1059 1.526 . S
C1062 C1063 1.396 . S
C1062 C1067 1.390 . S
C1063 C1057 1.465 . S
C1063 C1062 1.396 . S
C1063 C1064 1.399 . S
C1064 H1050 0.929 . S
C1064 C1063 1.399 . S
C1064 C1065 1.385 . S
C1065 H1051 0.931 . S
C1065 C1064 1.385 . S
C1065 C1066 1.389 . S
C1066 C1065 1.389 . S
C1066 C1067 1.387 . S
C1067 H1052 0.930 . S
C1067 C1062 1.390 . S
C1067 C1066 1.387 . S
H1068 C1080 0.930 . S
H1069 C1082 0.930 . S
H1070 C1083 0.930 . S
H1071 C1087 0.959 . S
H1072 C1087 0.959 . S
H1073 C1087 0.961 . S
H1074 C1088 0.960 . S
H1075 C1088 0.961 . S
H1076 C1088 0.959 . S
H1077 C1091 0.929 . S
H1078 C1092 0.931 . S
H1079 C1094 0.930 . S
C1080 H1068 0.930 . S
C1080 C1081 1.399 . S
C1080 C1085 1.399 . S
C1081 C1080 1.399 . S
C1081 C1082 1.376 . S
C1082 H1069 0.930 . S
C1082 C1081 1.376 . S
C1082 C1083 1.388 . S
C1083 H1070 0.930 . S
C1083 C1082 1.388 . S
C1083 C1084 1.390 . S
C1084 C1083 1.390 . S
C1084 C1085 1.394 . S
C1084 C1090 1.465 . S
C1085 C1080 1.399 . S
C1085 C1084 1.394 . S
C1085 C1086 1.516 . S
C1086 C1085 1.516 . S
C1086 C1087 1.502 . S
C1086 C1088 1.561 . S
C1086 C1089 1.526 . S
C1087 H1071 0.959 . S
C1087 H1072 0.959 . S
C1087 H1073 0.961 . S
C1087 C1086 1.502 . S
C1088 H1074 0.960 . S
C1088 H1075 0.961 . S
C1088 H1076 0.959 . S
C1088 C1086 1.561 . S
C1089 C1086 1.526 . S
C1089 C1090 1.396 . S
C1089 C1094 1.390 . S
C1090 C1084 1.465 . S
C1090 C1089 1.396 . S
C1090 C1091 1.399 . S
C1091 H1077 0.929 . S
C1091 C1090 1.399 . S
C1091 C1092 1.385 . S
C1092 H1078 0.931 . S
C1092 C1091 1.385 . S
C1092 C1093 1.389 . S
C1093 C1092 1.389 . S
C1093 C1094 1.387 . S
C1094 H1079 0.930 . S
C1094 C1089 1.390 . S
C1094 C1093 1.387 . S
H1095 C1107 0.930 . S
H1096 C1109 0.930 . S
H1097 C1110 0.930 . S
H1098 C1114 0.959 . S
H1099 C1114 0.959 . S
H1100 C1114 0.961 . S
H1101 C1115 0.960 . S
H1102 C1115 0.961 . S
H1103 C1115 0.959 . S
H1104 C1118 0.929 . S
H1105 C1119 0.931 . S
H1106 C1121 0.930 . S
C1107 H1095 0.930 . S
C1107 C1108 1.399 . S
C1107 C1112 1.399 . S
C1108 C1107 1.399 . S
C1108 C1109 1.376 . S
C1109 H1096 0.930 . S
C1109 C1108 1.376 . S
C1109 C1110 1.388 . S
C1110 H1097 0.930 . S
C1110 C1109 1.388 . S
C1110 C1111 1.390 . S
C1111 C1110 1.390 . S
C1111 C1112 1.394 . S
C1111 C1117 1.465 . S
C1112 C1107 1.399 . S
C1112 C1111 1.394 . S
C1112 C1113 1.516 . S
C1113 C1112 1.516 . S
C1113 C1114 1.502 . S
C1113 C1115 1.561 . S
C1113 C1116 1.526 . S
C1114 H1098 0.959 . S
C1114 H1099 0.959 . S
C1114 H1100 0.961 . S
C1114 C1113 1.502 . S
C1115 H1101 0.960 . S
C1115 H1102 0.961 . S
C1115 H1103 0.959 . S
C1115 C1113 1.561 . S
C1116 C1113 1.526 . S
C1116 C1117 1.396 . S
C1116 C1121 1.390 . S
C1117 C1111 1.465 . S
C1117 C1116 1.396 . S
C1117 C1118 1.399 . S
C1118 H1104 0.929 . S
C1118 C1117 1.399 . S
C1118 C1119 1.385 . S
C1119 H1105 0.931 . S
C1119 C1118 1.385 . S
C1119 C1120 1.389 . S
C1120 C1119 1.389 . S
C1120 C1121 1.387 . S
C1121 H1106 0.930 . S
C1121 C1116 1.390 . S
C1121 C1120 1.387 . S
H1122 C1134 0.930 . S
H1123 C1136 0.930 . S
H1124 C1137 0.930 . S
H1125 C1141 0.959 . S
H1126 C1141 0.959 . S
H1127 C1141 0.961 . S
H1128 C1142 0.960 . S
H1129 C1142 0.961 . S
H1130 C1142 0.959 . S
H1131 C1145 0.929 . S
H1132 C1146 0.931 . S
H1133 C1148 0.930 . S
C1134 H1122 0.930 . S
C1134 C1135 1.399 . S
C1134 C1139 1.399 . S
C1135 C1134 1.399 . S
C1135 C1136 1.376 . S
C1136 H1123 0.930 . S
C1136 C1135 1.376 . S
C1136 C1137 1.388 . S
C1137 H1124 0.930 . S
C1137 C1136 1.388 . S
C1137 C1138 1.390 . S
C1138 C1137 1.390 . S
C1138 C1139 1.394 . S
C1138 C1144 1.465 . S
C1139 C1134 1.399 . S
C1139 C1138 1.394 . S
C1139 C1140 1.516 . S
C1140 C1139 1.516 . S
C1140 C1141 1.502 . S
C1140 C1142 1.561 . S
C1140 C1143 1.526 . S
C1141 H1125 0.959 . S
C1141 H1126 0.959 . S
C1141 H1127 0.961 . S
C1141 C1140 1.502 . S
C1142 H1128 0.960 . S
C1142 H1129 0.961 . S
C1142 H1130 0.959 . S
C1142 C1140 1.561 . S
C1143 C1140 1.526 . S
C1143 C1144 1.396 . S
C1143 C1148 1.390 . S
C1144 C1138 1.465 . S
C1144 C1143 1.396 . S
C1144 C1145 1.399 . S
C1145 H1131 0.929 . S
C1145 C1144 1.399 . S
C1145 C1146 1.385 . S
C1146 H1132 0.931 . S
C1146 C1145 1.385 . S
C1146 C1147 1.389 . S
C1147 C1146 1.389 . S
C1147 C1148 1.387 . S
C1148 H1133 0.930 . S
C1148 C1143 1.390 . S
C1148 C1147 1.387 . S
H1149 C1161 0.930 . S
H1150 C1163 0.930 . S
H1151 C1164 0.930 . S
H1152 C1168 0.959 . S
H1153 C1168 0.959 . S
H1154 C1168 0.961 . S
H1155 C1169 0.960 . S
H1156 C1169 0.961 . S
H1157 C1169 0.959 . S
H1158 C1172 0.929 . S
H1159 C1173 0.931 . S
H1160 C1175 0.930 . S
C1161 H1149 0.930 . S
C1161 C1162 1.399 . S
C1161 C1166 1.399 . S
C1162 C1161 1.399 . S
C1162 C1163 1.376 . S
C1163 H1150 0.930 . S
C1163 C1162 1.376 . S
C1163 C1164 1.388 . S
C1164 H1151 0.930 . S
C1164 C1163 1.388 . S
C1164 C1165 1.390 . S
C1165 C1164 1.390 . S
C1165 C1166 1.394 . S
C1165 C1171 1.465 . S
C1166 C1161 1.399 . S
C1166 C1165 1.394 . S
C1166 C1167 1.516 . S
C1167 C1166 1.516 . S
C1167 C1168 1.502 . S
C1167 C1169 1.561 . S
C1167 C1170 1.526 . S
C1168 H1152 0.959 . S
C1168 H1153 0.959 . S
C1168 H1154 0.961 . S
C1168 C1167 1.502 . S
C1169 H1155 0.960 . S
C1169 H1156 0.961 . S
C1169 H1157 0.959 . S
C1169 C1167 1.561 . S
C1170 C1167 1.526 . S
C1170 C1171 1.396 . S
C1170 C1175 1.390 . S
C1171 C1165 1.465 . S
C1171 C1170 1.396 . S
C1171 C1172 1.399 . S
C1172 H1158 0.929 . S
C1172 C1171 1.399 . S
C1172 C1173 1.385 . S
C1173 H1159 0.931 . S
C1173 C1172 1.385 . S
C1173 C1174 1.389 . S
C1174 C1173 1.389 . S
C1174 C1175 1.387 . S
C1175 H1160 0.930 . S
C1175 C1170 1.390 . S
C1175 C1174 1.387 . S
H1176 C1188 0.930 . S
H1177 C1190 0.930 . S
H1178 C1191 0.930 . S
H1179 C1195 0.959 . S
H1180 C1195 0.959 . S
H1181 C1195 0.961 . S
H1182 C1196 0.960 . S
H1183 C1196 0.961 . S
H1184 C1196 0.959 . S
H1185 C1199 0.929 . S
H1186 C1200 0.931 . S
H1187 C1202 0.930 . S
C1188 H1176 0.930 . S
C1188 C1189 1.399 . S
C1188 C1193 1.399 . S
C1189 C1188 1.399 . S
C1189 C1190 1.376 . S
C1190 H1177 0.930 . S
C1190 C1189 1.376 . S
C1190 C1191 1.388 . S
C1191 H1178 0.930 . S
C1191 C1190 1.388 . S
C1191 C1192 1.390 . S
C1192 C1191 1.390 . S
C1192 C1193 1.394 . S
C1192 C1198 1.465 . S
C1193 C1188 1.399 . S
C1193 C1192 1.394 . S
C1193 C1194 1.516 . S
C1194 C1193 1.516 . S
C1194 C1195 1.502 . S
C1194 C1196 1.561 . S
C1194 C1197 1.526 . S
C1195 H1179 0.959 . S
C1195 H1180 0.959 . S
C1195 H1181 0.961 . S
C1195 C1194 1.502 . S
C1196 H1182 0.960 . S
C1196 H1183 0.961 . S
C1196 H1184 0.959 . S
C1196 C1194 1.561 . S
C1197 C1194 1.526 . S
C1197 C1198 1.396 . S
C1197 C1202 1.390 . S
C1198 C1192 1.465 . S
C1198 C1197 1.396 . S
C1198 C1199 1.399 . S
C1199 H1185 0.929 . S
C1199 C1198 1.399 . S
C1199 C1200 1.385 . S
C1200 H1186 0.931 . S
C1200 C1199 1.385 . S
C1200 C1201 1.389 . S
C1201 C1200 1.389 . S
C1201 C1202 1.387 . S
C1202 H1187 0.930 . S
C1202 C1197 1.390 . S
C1202 C1201 1.387 . S
H1203 C1215 0.930 . S
H1204 C1217 0.939 . S
H1205 C1218 0.930 . S
H1206 C1222 0.959 . S
H1207 C1222 0.959 . S
H1208 C1222 0.961 . S
H1209 C1223 0.960 1_655 S
H1210 C1223 0.961 . S
H1211 C1223 0.959 1_655 S
H1212 C1226 0.929 1_655 S
H1213 C1227 0.931 . S
H1214 C1229 0.930 1_565 S
C1215 H1203 0.930 . S
C1215 C1216 1.399 . S
C1215 C1220 1.399 . S
C1216 C1215 1.399 . S
C1216 C1217 1.376 . S
C1217 H1204 0.939 . S
C1217 C1216 1.376 . S
C1217 C1218 1.388 1_565 S
C1218 H1205 0.930 . S
C1218 C1217 1.388 1_545 S
C1218 C1219 1.390 . S
C1219 C1218 1.390 . S
C1219 C1220 1.394 1_545 S
C1219 C1225 1.465 1_655 S
C1220 C1215 1.399 . S
C1220 C1219 1.394 1_565 S
C1220 C1221 1.516 1_655 S
C1221 C1220 1.516 1_455 S
C1221 C1222 1.502 . S
C1221 C1223 1.561 . S
C1221 C1224 1.526 1_565 S
C1222 H1206 0.959 . S
C1222 H1207 0.959 . S
C1222 H1208 0.961 . S
C1222 C1221 1.502 . S
C1223 H1209 0.960 1_455 S
C1223 H1210 0.961 . S
C1223 H1211 0.959 1_455 S
C1223 C1221 1.561 . S
C1224 C1221 1.526 1_545 S
C1224 C1225 1.396 . S
C1224 C1229 1.390 . S
C1225 C1219 1.465 1_455 S
C1225 C1224 1.396 . S
C1225 C1226 1.399 . S
C1226 H1212 0.929 1_455 S
C1226 C1225 1.399 . S
C1226 C1227 1.385 . S
C1227 H1213 0.931 . S
C1227 C1226 1.385 . S
C1227 C1228 1.389 . S
C1228 C1227 1.389 . S
C1228 C1229 1.387 . S
C1229 H1214 0.930 1_545 S
C1229 C1224 1.390 . S
C1229 C1228 1.387 . S
H1230 C1242 0.930 . S
H1231 C1244 0.930 . S
H1232 C1245 0.930 . S
H1233 C1249 0.959 . S
H1234 C1249 0.959 . S
H1235 C1249 0.961 . S
H1236 C1250 0.960 . S
H1237 C1250 0.961 . S
H1238 C1250 0.959 . S
H1239 C1253 0.929 . S
H1240 C1254 0.931 . S
H1241 C1256 0.930 1_565 S
C1242 H1230 0.930 . S
C1242 C1243 1.399 . S
C1242 C1247 1.399 . S
C1243 C1242 1.399 . S
C1243 C1244 1.376 . S
C1244 H1231 0.930 . S
C1244 C1243 1.376 . S
C1244 C1245 1.388 1_565 S
C1245 H1232 0.930 . S
C1245 C1244 1.388 1_545 S
C1245 C1246 1.390 . S
C1246 C1245 1.390 . S
C1246 C1247 1.394 1_545 S
C1246 C1252 1.465 . S
C1247 C1242 1.399 . S
C1247 C1246 1.394 1_565 S
C1247 C1248 1.516 . S
C1248 C1247 1.516 . S
C1248 C1249 1.502 . S
C1248 C1250 1.561 . S
C1248 C1251 1.526 1_565 S
C1249 H1233 0.959 . S
C1249 H1234 0.959 . S
C1249 H1235 0.961 . S
C1249 C1248 1.502 . S
C1250 H1236 0.960 . S
C1250 H1237 0.961 . S
C1250 H1238 0.959 . S
C1250 C1248 1.561 . S
C1251 C1248 1.526 1_545 S
C1251 C1252 1.396 . S
C1251 C1256 1.390 . S
C1252 C1246 1.465 . S
C1252 C1251 1.396 . S
C1252 C1253 1.399 . S
C1253 H1239 0.929 . S
C1253 C1252 1.399 . S
C1253 C1254 1.385 . S
C1254 H1240 0.931 . S
C1254 C1253 1.385 . S
C1254 C1255 1.389 . S
C1255 C1254 1.389 . S
C1255 C1256 1.387 . S
C1256 H1241 0.930 1_545 S
C1256 C1251 1.390 . S
C1256 C1255 1.387 . S
H1257 C1269 0.930 . S
H1258 C1271 0.930 . S
H1259 C1272 0.930 . S
H1260 C1276 0.959 . S
H1261 C1276 0.959 . S
H1262 C1276 0.961 . S
H1263 C1277 0.960 . S
H1264 C1277 0.961 . S
H1265 C1277 0.959 . S
H1266 C1280 0.929 . S
H1267 C1281 0.931 . S
H1268 C1283 0.930 . S
C1269 H1257 0.930 . S
C1269 C1270 1.399 . S
C1269 C1274 1.399 . S
C1270 C1269 1.399 . S
C1270 C1271 1.376 . S
C1271 H1258 0.930 . S
C1271 C1270 1.376 . S
C1271 C1272 1.388 . S
C1272 H1259 0.930 . S
C1272 C1271 1.388 . S
C1272 C1273 1.390 . S
C1273 C1272 1.390 . S
C1273 C1274 1.394 . S
C1273 C1279 1.465 . S
C1274 C1269 1.399 . S
C1274 C1273 1.394 . S
C1274 C1275 1.516 1_655 S
C1275 C1274 1.516 1_455 S
C1275 C1276 1.502 . S
C1275 C1277 1.561 . S
C1275 C1278 1.526 . S
C1276 H1260 0.959 . S
C1276 H1261 0.959 . S
C1276 H1262 0.961 . S
C1276 C1275 1.502 . S
C1277 H1263 0.960 . S
C1277 H1264 0.961 . S
C1277 H1265 0.959 . S
C1277 C1275 1.561 . S
C1278 C1275 1.526 . S
C1278 C1279 1.396 1_455 S
C1278 C1283 1.390 . S
C1279 C1273 1.465 . S
C1279 C1278 1.396 1_655 S
C1279 C1280 1.399 . S
C1280 H1266 0.929 . S
C1280 C1279 1.399 . S
C1280 C1281 1.385 1_655 S
C1281 H1267 0.931 . S
C1281 C1280 1.385 1_455 S
C1281 C1282 1.389 . S
C1282 C1281 1.389 . S
C1282 C1283 1.387 . S
C1283 H1268 0.930 . S
C1283 C1278 1.390 . S
C1283 C1282 1.387 . S
H1284 C1296 0.930 . S
H1285 C1298 0.930 . S
H1286 C1299 0.930 . S
H1287 C1303 0.959 . S
H1288 C1303 0.959 . S
H1289 C1303 0.961 . S
H1290 C1304 0.960 . S
H1291 C1304 0.961 . S
H1292 C1304 0.959 . S
H1293 C1307 0.929 . S
H1294 C1308 0.931 . S
H1295 C1310 0.930 . S
C1296 H1284 0.930 . S
C1296 C1297 1.399 . S
C1296 C1301 1.399 . S
C1297 C1296 1.399 . S
C1297 C1298 1.376 . S
C1298 H1285 0.930 . S
C1298 C1297 1.376 . S
C1298 C1299 1.388 . S
C1299 H1286 0.930 . S
C1299 C1298 1.388 . S
C1299 C1300 1.390 . S
C1300 C1299 1.390 . S
C1300 C1301 1.394 . S
C1300 C1306 1.465 . S
C1301 C1296 1.399 . S
C1301 C1300 1.394 . S
C1301 C1302 1.516 . S
C1302 C1301 1.516 . S
C1302 C1303 1.502 . S
C1302 C1304 1.561 . S
C1302 C1305 1.526 . S
C1303 H1287 0.959 . S
C1303 H1288 0.959 . S
C1303 H1289 0.961 . S
C1303 C1302 1.502 . S
C1304 H1290 0.960 . S
C1304 H1291 0.961 . S
C1304 H1292 0.959 . S
C1304 C1302 1.561 . S
C1305 C1302 1.526 . S
C1305 C1306 1.396 . S
C1305 C1310 1.390 . S
C1306 C1300 1.465 . S
C1306 C1305 1.396 . S
C1306 C1307 1.399 . S
C1307 H1293 0.929 . S
C1307 C1306 1.399 . S
C1307 C1308 1.385 . S
C1308 H1294 0.931 . S
C1308 C1307 1.385 . S
C1308 C1309 1.389 . S
C1309 C1308 1.389 . S
C1309 C1310 1.387 . S
C1310 H1295 0.930 . S
C1310 C1305 1.390 . S
C1310 C1309 1.387 . S
H1311 C1323 0.930 . S
H1312 C1325 0.930 . S
H1313 C1326 0.930 1_565 S
H1314 C1330 0.959 1_565 S
H1315 C1330 0.959 . S
H1316 C1330 0.961 . S
H1317 C1331 0.960 . S
H1318 C1331 0.961 . S
H1319 C1331 0.959 . S
H1320 C1334 0.929 . S
H1321 C1335 0.931 . S
H1322 C1337 0.930 . S
C1323 H1311 0.930 . S
C1323 C1324 1.399 . S
C1323 C1328 1.399 . S
C1324 C1323 1.399 . S
C1324 C1325 1.376 . S
C1325 H1312 0.930 . S
C1325 C1324 1.376 . S
C1325 C1326 1.388 . S
C1326 H1313 0.930 1_545 S
C1326 C1325 1.388 . S
C1326 C1327 1.390 . S
C1327 C1326 1.390 . S
C1327 C1328 1.394 . S
C1327 C1333 1.465 1_545 S
C1328 C1323 1.399 . S
C1328 C1327 1.394 . S
C1328 C1329 1.516 . S
C1329 C1328 1.516 . S
C1329 C1330 1.502 . S
C1329 C1331 1.561 . S
C1329 C1332 1.526 1_545 S
C1330 H1314 0.959 1_545 S
C1330 H1315 0.959 . S
C1330 H1316 0.961 . S
C1330 C1329 1.502 . S
C1331 H1317 0.960 . S
C1331 H1318 0.961 . S
C1331 H1319 0.959 . S
C1331 C1329 1.561 . S
C1332 C1329 1.526 1_565 S
C1332 C1333 1.396 . S
C1332 C1337 1.390 . S
C1333 C1327 1.465 1_565 S
C1333 C1332 1.396 . S
C1333 C1334 1.399 . S
C1334 H1320 0.929 . S
C1334 C1333 1.399 . S
C1334 C1335 1.385 . S
C1335 H1321 0.931 . S
C1335 C1334 1.385 . S
C1335 C1336 1.389 . S
C1336 C1335 1.389 . S
C1336 C1337 1.387 . S
C1337 H1322 0.930 . S
C1337 C1332 1.390 . S
C1337 C1336 1.387 . S
H1338 C1350 0.930 . S
H1339 C1352 0.930 . S
H1340 C1353 0.930 1_455 S
H1341 C1357 0.959 . S
H1342 C1357 0.959 . S
H1343 C1357 0.961 . S
H1344 C1358 0.960 . S
H1345 C1358 0.963 . S
H1346 C1358 0.959 1_455 S
H1347 C1361 0.929 . S
H1348 C1362 0.931 . S
H1349 C1364 0.930 . S
C1350 H1338 0.930 . S
C1350 C1351 1.399 . S
C1350 C1355 1.399 . S
C1351 C1350 1.399 . S
C1351 C1352 1.376 . S
C1352 H1339 0.930 . S
C1352 C1351 1.376 . S
C1352 C1353 1.388 . S
C1353 H1340 0.930 1_655 S
C1353 C1352 1.388 . S
C1353 C1354 1.390 . S
C1354 C1353 1.390 . S
C1354 C1355 1.394 . S
C1354 C1360 1.465 1_655 S
C1355 C1350 1.399 . S
C1355 C1354 1.394 . S
C1355 C1356 1.516 . S
C1356 C1355 1.516 . S
C1356 C1357 1.502 . S
C1356 C1358 1.561 . S
C1356 C1359 1.526 1_655 S
C1357 H1341 0.959 . S
C1357 H1342 0.959 . S
C1357 H1343 0.961 . S
C1357 C1356 1.502 . S
C1358 H1344 0.960 . S
C1358 H1345 0.963 . S
C1358 H1346 0.959 1_655 S
C1358 C1356 1.561 . S
C1359 C1356 1.526 1_455 S
C1359 C1360 1.396 . S
C1359 C1364 1.390 . S
C1360 C1354 1.465 1_455 S
C1360 C1359 1.396 . S
C1360 C1361 1.399 . S
C1361 H1347 0.929 . S
C1361 C1360 1.399 . S
C1361 C1362 1.385 . S
C1362 H1348 0.931 . S
C1362 C1361 1.385 . S
C1362 C1363 1.389 . S
C1363 C1362 1.389 . S
C1363 C1364 1.387 . S
C1364 H1349 0.930 . S
C1364 C1359 1.390 . S
C1364 C1363 1.387 . S
H1365 C1377 0.930 . S
H1366 C1379 0.930 . S
H1367 C1380 0.930 . S
H1368 C1384 0.959 . S
H1369 C1384 0.959 . S
H1370 C1384 0.961 . S
H1371 C1385 0.960 1_554 S
H1372 C1385 0.961 . S
H1373 C1385 0.959 1_554 S
H1374 C1388 0.918 1_554 S
H1375 C1389 0.931 . S
H1376 C1391 0.930 . S
C1377 H1365 0.930 . S
C1377 C1378 1.399 . S
C1377 C1382 1.399 . S
C1378 C1377 1.399 . S
C1378 C1379 1.376 . S
C1379 H1366 0.930 . S
C1379 C1378 1.376 . S
C1379 C1380 1.388 . S
C1380 H1367 0.930 . S
C1380 C1379 1.388 . S
C1380 C1381 1.390 . S
C1381 C1380 1.390 . S
C1381 C1382 1.394 . S
C1381 C1387 1.464 1_554 S
C1382 C1377 1.399 . S
C1382 C1381 1.394 . S
C1382 C1383 1.516 1_554 S
C1383 C1382 1.516 1_556 S
C1383 C1384 1.502 . S
C1383 C1385 1.561 . S
C1383 C1386 1.526 . S
C1384 H1368 0.959 . S
C1384 H1369 0.959 . S
C1384 H1370 0.961 . S
C1384 C1383 1.502 . S
C1385 H1371 0.960 1_556 S
C1385 H1372 0.961 . S
C1385 H1373 0.959 1_556 S
C1385 C1383 1.561 . S
C1386 C1383 1.526 . S
C1386 C1387 1.397 . S
C1386 C1391 1.390 . S
C1387 C1381 1.464 1_556 S
C1387 C1386 1.397 . S
C1387 C1388 1.399 . S
C1388 H1374 0.918 1_556 S
C1388 C1387 1.399 . S
C1388 C1389 1.397 . S
C1389 H1375 0.931 . S
C1389 C1388 1.397 . S
C1389 C1390 1.389 . S
C1390 C1389 1.389 . S
C1390 C1391 1.387 . S
C1391 H1376 0.930 . S
C1391 C1386 1.390 . S
C1391 C1390 1.387 . S
H1392 C1404 0.930 . S
H1393 C1406 0.930 . S
H1394 C1407 0.930 . S
H1395 C1411 0.959 . S
H1396 C1411 0.959 . S
H1397 C1411 0.961 . S
H1398 C1412 0.960 . S
H1399 C1412 0.961 . S
H1400 C1412 0.959 . S
H1401 C1415 0.929 . S
H1402 C1416 0.931 . S
H1403 C1418 0.930 . S
C1404 H1392 0.930 . S
C1404 C1405 1.399 . S
C1404 C1409 1.399 . S
C1405 C1404 1.399 . S
C1405 C1406 1.376 . S
C1406 H1393 0.930 . S
C1406 C1405 1.376 . S
C1406 C1407 1.388 1_455 S
C1407 H1394 0.930 . S
C1407 C1406 1.388 1_655 S
C1407 C1408 1.390 . S
C1408 C1407 1.390 . S
C1408 C1409 1.394 1_655 S
C1408 C1414 1.477 . S
C1409 C1404 1.399 . S
C1409 C1408 1.394 1_455 S
C1409 C1410 1.516 1_556 S
C1410 C1409 1.516 1_554 S
C1410 C1411 1.502 . S
C1410 C1412 1.561 . S
C1410 C1413 1.526 1_455 S
C1411 H1395 0.959 . S
C1411 H1396 0.959 . S
C1411 H1397 0.961 . S
C1411 C1410 1.502 . S
C1412 H1398 0.960 . S
C1412 H1399 0.961 . S
C1412 H1400 0.959 . S
C1412 C1410 1.561 . S
C1413 C1410 1.526 1_655 S
C1413 C1414 1.380 1_554 S
C1413 C1418 1.390 . S
C1414 C1408 1.477 . S
C1414 C1413 1.380 1_556 S
C1414 C1415 1.401 . S
C1415 H1401 0.929 . S
C1415 C1414 1.401 . S
C1415 C1416 1.385 1_556 S
C1416 H1402 0.931 . S
C1416 C1415 1.385 1_554 S
C1416 C1417 1.389 . S
C1417 C1416 1.389 . S
C1417 C1418 1.387 . S
C1418 H1403 0.930 . S
C1418 C1413 1.390 . S
C1418 C1417 1.387 . S
H1419 C1431 0.930 . S
H1420 C1433 0.930 . S
H1421 C1434 0.930 . S
H1422 C1438 0.959 . S
H1423 C1438 0.959 . S
H1424 C1438 0.961 . S
H1425 C1439 0.960 . S
H1426 C1439 0.961 . S
H1427 C1439 0.959 . S
H1428 C1442 0.929 . S
H1429 C1443 0.931 . S
H1430 C1445 0.930 . S
C1431 H1419 0.930 . S
C1431 C1432 1.399 . S
C1431 C1436 1.399 . S
C1432 C1431 1.399 . S
C1432 C1433 1.376 . S
C1433 H1420 0.930 . S
C1433 C1432 1.376 . S
C1433 C1434 1.388 . S
C1434 H1421 0.930 . S
C1434 C1433 1.388 . S
C1434 C1435 1.390 . S
C1435 C1434 1.390 . S
C1435 C1436 1.394 . S
C1435 C1441 1.465 . S
C1436 C1431 1.399 . S
C1436 C1435 1.394 . S
C1436 C1437 1.516 . S
C1437 C1436 1.516 . S
C1437 C1438 1.502 . S
C1437 C1439 1.561 . S
C1437 C1440 1.526 . S
C1438 H1422 0.959 . S
C1438 H1423 0.959 . S
C1438 H1424 0.961 . S
C1438 C1437 1.502 . S
C1439 H1425 0.960 . S
C1439 H1426 0.961 . S
C1439 H1427 0.959 . S
C1439 C1437 1.561 . S
C1440 C1437 1.526 . S
C1440 C1441 1.396 . S
C1440 C1445 1.390 . S
C1441 C1435 1.465 . S
C1441 C1440 1.396 . S
C1441 C1442 1.399 . S
C1442 H1428 0.929 . S
C1442 C1441 1.399 . S
C1442 C1443 1.385 . S
C1443 H1429 0.931 . S
C1443 C1442 1.385 . S
C1443 C1444 1.389 . S
C1444 C1443 1.389 . S
C1444 C1445 1.387 . S
C1445 H1430 0.930 . S
C1445 C1440 1.390 . S
C1445 C1444 1.387 . S
H1446 C1458 0.930 . S
H1447 C1460 0.930 . S
H1448 C1461 0.930 . S
H1449 C1465 0.959 . S
H1450 C1465 0.959 . S
H1451 C1465 0.961 . S
H1452 C1466 0.960 . S
H1453 C1466 0.961 . S
H1454 C1466 0.959 . S
H1455 C1469 0.929 . S
H1456 C1470 0.931 . S
H1457 C1472 0.930 . S
C1458 H1446 0.930 . S
C1458 C1459 1.399 . S
C1458 C1463 1.399 . S
C1459 C1458 1.399 . S
C1459 C1460 1.376 . S
C1460 H1447 0.930 . S
C1460 C1459 1.376 . S
C1460 C1461 1.388 . S
C1461 H1448 0.930 . S
C1461 C1460 1.388 . S
C1461 C1462 1.390 . S
C1462 C1461 1.390 . S
C1462 C1463 1.394 . S
C1462 C1468 1.465 1_554 S
C1463 C1458 1.399 . S
C1463 C1462 1.394 . S
C1463 C1464 1.516 1_554 S
C1464 C1463 1.516 1_556 S
C1464 C1465 1.502 1_556 S
C1464 C1466 1.561 . S
C1464 C1467 1.526 . S
C1465 H1449 0.959 . S
C1465 H1450 0.959 . S
C1465 H1451 0.961 . S
C1465 C1464 1.502 1_554 S
C1466 H1452 0.960 . S
C1466 H1453 0.961 . S
C1466 H1454 0.959 . S
C1466 C1464 1.561 . S
C1467 C1464 1.526 . S
C1467 C1468 1.396 . S
C1467 C1472 1.390 . S
C1468 C1462 1.465 1_556 S
C1468 C1467 1.396 . S
C1468 C1469 1.399 . S
C1469 H1455 0.929 . S
C1469 C1468 1.399 . S
C1469 C1470 1.385 . S
C1470 H1456 0.931 . S
C1470 C1469 1.385 . S
C1470 C1471 1.389 . S
C1471 C1470 1.389 . S
C1471 C1472 1.387 . S
C1472 H1457 0.930 . S
C1472 C1467 1.390 . S
C1472 C1471 1.387 . S
H1473 C1485 0.930 . S
H1474 C1487 0.930 . S
H1475 C1488 0.930 . S
H1476 C1492 0.959 . S
H1477 C1492 0.959 . S
H1478 C1492 0.961 . S
H1479 C1493 0.960 . S
H1480 C1493 0.961 . S
H1481 C1493 0.959 . S
H1482 C1496 0.929 . S
H1483 C1497 0.931 . S
H1484 C1499 0.930 . S
C1485 H1473 0.930 . S
C1485 C1486 1.399 . S
C1485 C1490 1.399 . S
C1486 C1485 1.399 . S
C1486 C1487 1.376 . S
C1487 H1474 0.930 . S
C1487 C1486 1.376 . S
C1487 C1488 1.388 . S
C1488 H1475 0.930 . S
C1488 C1487 1.388 . S
C1488 C1489 1.390 . S
C1489 C1488 1.390 . S
C1489 C1490 1.394 . S
C1489 C1495 1.465 . S
C1490 C1485 1.399 . S
C1490 C1489 1.394 . S
C1490 C1491 1.516 . S
C1491 C1490 1.516 . S
C1491 C1492 1.502 . S
C1491 C1493 1.561 . S
C1491 C1494 1.526 . S
C1492 H1476 0.959 . S
C1492 H1477 0.959 . S
C1492 H1478 0.961 . S
C1492 C1491 1.502 . S
C1493 H1479 0.960 . S
C1493 H1480 0.961 . S
C1493 H1481 0.959 . S
C1493 C1491 1.561 . S
C1494 C1491 1.526 . S
C1494 C1495 1.396 . S
C1494 C1499 1.390 . S
C1495 C1489 1.465 . S
C1495 C1494 1.396 . S
C1495 C1496 1.399 . S
C1496 H1482 0.929 . S
C1496 C1495 1.399 . S
C1496 C1497 1.385 . S
C1497 H1483 0.931 . S
C1497 C1496 1.385 . S
C1497 C1498 1.389 . S
C1498 C1497 1.389 . S
C1498 C1499 1.387 . S
C1499 H1484 0.930 . S
C1499 C1494 1.390 . S
C1499 C1498 1.387 . S
H1500 C1512 0.930 . S
H1501 C1514 0.930 . S
H1502 C1515 0.930 . S
H1503 C1519 0.959 . S
H1504 C1519 0.959 1_556 S
H1505 C1519 0.961 . S
H1506 C1520 0.960 . S
H1507 C1520 0.961 . S
H1508 C1520 0.959 . S
H1509 C1523 0.929 . S
H1510 C1524 0.931 . S
H1511 C1526 0.930 1_565 S
C1512 H1500 0.930 . S
C1512 C1513 1.399 . S
C1512 C1517 1.399 . S
C1513 C1512 1.399 . S
C1513 C1514 1.376 . S
C1514 H1501 0.930 . S
C1514 C1513 1.376 . S
C1514 C1515 1.388 1_565 S
C1515 H1502 0.930 . S
C1515 C1514 1.388 1_545 S
C1515 C1516 1.390 . S
C1516 C1515 1.390 . S
C1516 C1517 1.394 1_545 S
C1516 C1522 1.465 1_554 S
C1517 C1512 1.399 . S
C1517 C1516 1.394 1_565 S
C1517 C1518 1.516 1_554 S
C1518 C1517 1.516 1_556 S
C1518 C1519 1.502 1_556 S
C1518 C1520 1.561 . S
C1518 C1521 1.526 1_565 S
C1519 H1503 0.959 . S
C1519 H1504 0.959 1_554 S
C1519 H1505 0.961 . S
C1519 C1518 1.502 1_554 S
C1520 H1506 0.960 . S
C1520 H1507 0.961 . S
C1520 H1508 0.959 . S
C1520 C1518 1.561 . S
C1521 C1518 1.526 1_545 S
C1521 C1522 1.396 . S
C1521 C1526 1.390 . S
C1522 C1516 1.465 1_556 S
C1522 C1521 1.396 . S
C1522 C1523 1.399 . S
C1523 H1509 0.929 . S
C1523 C1522 1.399 . S
C1523 C1524 1.385 . S
C1524 H1510 0.931 . S
C1524 C1523 1.385 . S
C1524 C1525 1.389 . S
C1525 C1524 1.389 . S
C1525 C1526 1.387 . S
C1526 H1511 0.930 1_545 S
C1526 C1521 1.390 . S
C1526 C1525 1.387 . S
H1527 C1539 0.930 . S
H1528 C1541 0.930 . S
H1529 C1542 0.930 . S
H1530 C1546 0.959 . S
H1531 C1546 0.959 . S
H1532 C1546 0.961 . S
H1533 C1547 0.960 . S
H1534 C1547 0.961 . S
H1535 C1547 0.959 . S
H1536 C1550 0.929 . S
H1537 C1551 0.931 . S
H1538 C1553 0.930 . S
C1539 H1527 0.930 . S
C1539 C1540 1.399 . S
C1539 C1544 1.399 . S
C1540 C1539 1.399 . S
C1540 C1541 1.376 . S
C1541 H1528 0.930 . S
C1541 C1540 1.376 . S
C1541 C1542 1.388 . S
C1542 H1529 0.930 . S
C1542 C1541 1.388 . S
C1542 C1543 1.390 . S
C1543 C1542 1.390 . S
C1543 C1544 1.394 . S
C1543 C1549 1.465 . S
C1544 C1539 1.399 . S
C1544 C1543 1.394 . S
C1544 C1545 1.516 . S
C1545 C1544 1.516 . S
C1545 C1546 1.502 . S
C1545 C1547 1.561 . S
C1545 C1548 1.526 . S
C1546 H1530 0.959 . S
C1546 H1531 0.959 . S
C1546 H1532 0.961 . S
C1546 C1545 1.502 . S
C1547 H1533 0.960 . S
C1547 H1534 0.961 . S
C1547 H1535 0.959 . S
C1547 C1545 1.561 . S
C1548 C1545 1.526 . S
C1548 C1549 1.396 . S
C1548 C1553 1.390 . S
C1549 C1543 1.465 . S
C1549 C1548 1.396 . S
C1549 C1550 1.399 . S
C1550 H1536 0.929 . S
C1550 C1549 1.399 . S
C1550 C1551 1.385 . S
C1551 H1537 0.931 . S
C1551 C1550 1.385 . S
C1551 C1552 1.389 . S
C1552 C1551 1.389 . S
C1552 C1553 1.387 . S
C1553 H1538 0.930 . S
C1553 C1548 1.390 . S
C1553 C1552 1.387 . S
H1554 C1566 0.930 . S
H1555 C1568 0.930 . S
H1556 C1569 0.930 . S
H1557 C1573 0.959 . S
H1558 C1573 0.959 . S
H1559 C1573 0.961 . S
H1560 C1574 0.960 . S
H1561 C1574 0.961 . S
H1562 C1574 0.959 . S
H1563 C1577 0.929 . S
H1564 C1578 0.931 . S
H1565 C1580 0.930 . S
C1566 H1554 0.930 . S
C1566 C1567 1.399 . S
C1566 C1571 1.399 . S
C1567 C1566 1.399 . S
C1567 C1568 1.376 . S
C1568 H1555 0.930 . S
C1568 C1567 1.376 . S
C1568 C1569 1.388 . S
C1569 H1556 0.930 . S
C1569 C1568 1.388 . S
C1569 C1570 1.390 . S
C1570 C1569 1.390 . S
C1570 C1571 1.394 . S
C1570 C1576 1.465 . S
C1571 C1566 1.399 . S
C1571 C1570 1.394 . S
C1571 C1572 1.516 . S
C1572 C1571 1.516 . S
C1572 C1573 1.502 . S
C1572 C1574 1.561 . S
C1572 C1575 1.526 . S
C1573 H1557 0.959 . S
C1573 H1558 0.959 . S
C1573 H1559 0.961 . S
C1573 C1572 1.502 . S
C1574 H1560 0.960 . S
C1574 H1561 0.961 . S
C1574 H1562 0.959 . S
C1574 C1572 1.561 . S
C1575 C1572 1.526 . S
C1575 C1576 1.396 . S
C1575 C1580 1.390 . S
C1576 C1570 1.465 . S
C1576 C1575 1.396 . S
C1576 C1577 1.399 . S
C1577 H1563 0.929 . S
C1577 C1576 1.399 . S
C1577 C1578 1.385 . S
C1578 H1564 0.931 . S
C1578 C1577 1.385 . S
C1578 C1579 1.389 . S
C1579 C1578 1.389 . S
C1579 C1580 1.387 . S
C1580 H1565 0.930 . S
C1580 C1575 1.390 . S
C1580 C1579 1.387 . S
H1581 C1593 0.930 . S
H1582 C1595 0.930 . S
H1583 C1596 0.930 . S
H1584 C1600 0.959 . S
H1585 C1600 0.959 . S
H1586 C1600 0.961 . S
H1587 C1601 0.960 . S
H1588 C1601 0.961 . S
H1589 C1601 0.959 . S
H1590 C1604 0.929 . S
H1591 C1605 0.931 . S
H1592 C1607 0.930 . S
C1593 H1581 0.930 . S
C1593 C1594 1.399 . S
C1593 C1598 1.399 . S
C1594 C1593 1.399 . S
C1594 C1595 1.376 . S
C1595 H1582 0.930 . S
C1595 C1594 1.376 . S
C1595 C1596 1.388 . S
C1596 H1583 0.930 . S
C1596 C1595 1.388 . S
C1596 C1597 1.390 . S
C1597 C1596 1.390 . S
C1597 C1598 1.394 . S
C1597 C1603 1.465 . S
C1598 C1593 1.399 . S
C1598 C1597 1.394 . S
C1598 C1599 1.516 . S
C1599 C1598 1.516 . S
C1599 C1600 1.502 . S
C1599 C1601 1.561 . S
C1599 C1602 1.526 . S
C1600 H1584 0.959 . S
C1600 H1585 0.959 . S
C1600 H1586 0.961 . S
C1600 C1599 1.502 . S
C1601 H1587 0.960 . S
C1601 H1588 0.961 . S
C1601 H1589 0.959 . S
C1601 C1599 1.561 . S
C1602 C1599 1.526 . S
C1602 C1603 1.396 . S
C1602 C1607 1.390 . S
C1603 C1597 1.465 . S
C1603 C1602 1.396 . S
C1603 C1604 1.399 . S
C1604 H1590 0.929 . S
C1604 C1603 1.399 . S
C1604 C1605 1.385 . S
C1605 H1591 0.931 . S
C1605 C1604 1.385 . S
C1605 C1606 1.389 . S
C1606 C1605 1.389 . S
C1606 C1607 1.387 . S
C1607 H1592 0.930 . S
C1607 C1602 1.390 . S
C1607 C1606 1.387 . S
C541 N2 0.790 . S
C553 N299 0.761 . S
C568 N13 0.759 . S
C580 N310 0.692 . S
C595 N277 0.719 . S
C607 N46 0.703 . S
C622 N35 0.774 . S
C634 N266 0.773 . S
C649 N68 0.772 . S
C661 N365 0.796 . S
C676 N79 0.779 . S
C688 N376 0.747 . S
C703 N112 0.781 . S
C715 N343 0.752 . S
C730 N101 0.770 . S
C742 N332 0.779 . S
C757 N134 0.782 . S
C769 N431 0.762 . S
C784 N442 0.738 . S
C796 N145 0.691 . S
C811 N409 0.736 . S
C823 N178 0.778 . S
C838 N398 0.795 . S
C850 N167 0.838 . S
C865 N497 0.761 . S
C877 N200 0.775 . S
C892 N508 0.780 . S
C904 N211 0.737 . S
C919 N475 0.693 . S
C931 N244 0.742 . S
C946 N233 0.839 . S
C958 N464 0.817 . S
C973 C21 1.107 . S
C985 C54 1.107 1_554 S
C1000 C120 1.104 1_556 S
C1012 C87 1.104 . S
C1027 C186 1.107 . S
C1039 C153 1.107 . S
C1054 C252 1.103 . S
C1066 C219 1.103 . S
C1081 C318 1.104 . S
C1093 C285 1.104 . S
C1108 C351 1.104 . S
C1120 C384 1.104 . S
C1135 C450 1.107 1_554 S
C1147 C417 1.107 . S
C1162 C483 1.104 . S
C1174 C516 1.104 1_556 S
C1189 C469 1.785 . S
C1201 C7 1.843 . S
C1216 C84 1.877 . S
C1228 C18 1.823 . S
C1243 C381 1.876 . S
C1255 C51 1.822 . S
C1270 C238 1.844 . S
C1282 C40 1.785 . S
C1297 C73 1.837 . S
C1309 C403 1.790 . S
C1324 C315 1.839 . S
C1336 C117 1.852 . S
C1351 C106 1.784 . S
C1363 C172 1.846 . S
C1378 C337 1.799 . S
C1390 C139 1.841 . S
C1405 C150 1.825 . S
C1417 C216 1.868 . S
C1432 C183 1.853 . S
C1444 C513 1.838 . S
C1459 C205 1.846 . S
C1471 C271 1.785 . S
C1486 C249 1.874 . S
C1498 C447 1.830 . S
C1513 C348 1.876 . S
C1525 C282 1.822 . S
C1540 C502 1.790 . S
C1552 C304 1.846 . S
C1567 C370 1.848 . S
C1579 C436 1.787 . S
C1594 C414 1.876 . S
C1606 C480 1.822 . S
