# Generated by pormake.
# Topology why, (6)-cn, num edge types: 1
# Building blocks:
#     Node 0, Type 0, BuildingBlock: LEVNOQ01_clean_sbu_1, # of connection points: 6
#     Node 1, Type 0, BuildingBlock: LEVNOQ01_clean_sbu_1, # of connection points: 6
#     Node 2, Type 0, BuildingBlock: LEVNOQ01_clean_sbu_1, # of connection points: 6
#     Node 3, Type 0, BuildingBlock: LEVNOQ01_clean_sbu_1, # of connection points: 6
#     Node 4, Type 0, BuildingBlock: LEVNOQ01_clean_sbu_1, # of connection points: 6
#     Node 5, Type 0, BuildingBlock: LEVNOQ01_clean_sbu_1, # of connection points: 6
#     Node 6, Type 0, BuildingBlock: LEVNOQ01_clean_sbu_1, # of connection points: 6
#     Node 7, Type 0, BuildingBlock: LEVNOQ01_clean_sbu_1, # of connection points: 6
#     Node 8, Type 0, BuildingBlock: LEVNOQ01_clean_sbu_1, # of connection points: 6
#     Node 9, Type 0, BuildingBlock: LEVNOQ01_clean_sbu_1, # of connection points: 6
#     Node 10, Type 0, BuildingBlock: LEVNOQ01_clean_sbu_1, # of connection points: 6
#     Node 11, Type 0, BuildingBlock: LEVNOQ01_clean_sbu_1, # of connection points: 6
#     Node 12, Type 0, BuildingBlock: LEVNOQ01_clean_sbu_1, # of connection points: 6
#     Node 13, Type 0, BuildingBlock: LEVNOQ01_clean_sbu_1, # of connection points: 6
#     Node 14, Type 0, BuildingBlock: LEVNOQ01_clean_sbu_1, # of connection points: 6
#     Node 15, Type 0, BuildingBlock: LEVNOQ01_clean_sbu_1, # of connection points: 6
#     Edge 16, Type (0, 0), BuildingBlock: AJUNOK_clean_linker_0, # of connection points: 2
#     Edge 17, Type (0, 0), BuildingBlock: AJUNOK_clean_linker_0, # of connection points: 2
#     Edge 18, Type (0, 0), BuildingBlock: AJUNOK_clean_linker_0, # of connection points: 2
#     Edge 19, Type (0, 0), BuildingBlock: AJUNOK_clean_linker_0, # of connection points: 2
#     Edge 20, Type (0, 0), BuildingBlock: AJUNOK_clean_linker_0, # of connection points: 2
#     Edge 21, Type (0, 0), BuildingBlock: AJUNOK_clean_linker_0, # of connection points: 2
#     Edge 22, Type (0, 0), BuildingBlock: AJUNOK_clean_linker_0, # of connection points: 2
#     Edge 23, Type (0, 0), BuildingBlock: AJUNOK_clean_linker_0, # of connection points: 2
#     Edge 24, Type (0, 0), BuildingBlock: AJUNOK_clean_linker_0, # of connection points: 2
#     Edge 25, Type (0, 0), BuildingBlock: AJUNOK_clean_linker_0, # of connection points: 2
#     Edge 26, Type (0, 0), BuildingBlock: AJUNOK_clean_linker_0, # of connection points: 2
#     Edge 27, Type (0, 0), BuildingBlock: AJUNOK_clean_linker_0, # of connection points: 2
#     Edge 28, Type (0, 0), BuildingBlock: AJUNOK_clean_linker_0, # of connection points: 2
#     Edge 29, Type (0, 0), BuildingBlock: AJUNOK_clean_linker_0, # of connection points: 2
#     Edge 30, Type (0, 0), BuildingBlock: AJUNOK_clean_linker_0, # of connection points: 2
#     Edge 31, Type (0, 0), BuildingBlock: AJUNOK_clean_linker_0, # of connection points: 2
#     Edge 32, Type (0, 0), BuildingBlock: AJUNOK_clean_linker_0, # of connection points: 2
#     Edge 33, Type (0, 0), BuildingBlock: AJUNOK_clean_linker_0, # of connection points: 2
#     Edge 34, Type (0, 0), BuildingBlock: AJUNOK_clean_linker_0, # of connection points: 2
#     Edge 35, Type (0, 0), BuildingBlock: AJUNOK_clean_linker_0, # of connection points: 2
#     Edge 36, Type (0, 0), BuildingBlock: AJUNOK_clean_linker_0, # of connection points: 2
#     Edge 37, Type (0, 0), BuildingBlock: AJUNOK_clean_linker_0, # of connection points: 2
#     Edge 38, Type (0, 0), BuildingBlock: AJUNOK_clean_linker_0, # of connection points: 2
#     Edge 39, Type (0, 0), BuildingBlock: AJUNOK_clean_linker_0, # of connection points: 2
#     Edge 40, Type (0, 0), BuildingBlock: AJUNOK_clean_linker_0, # of connection points: 2
#     Edge 41, Type (0, 0), BuildingBlock: AJUNOK_clean_linker_0, # of connection points: 2
#     Edge 42, Type (0, 0), BuildingBlock: AJUNOK_clean_linker_0, # of connection points: 2
#     Edge 43, Type (0, 0), BuildingBlock: AJUNOK_clean_linker_0, # of connection points: 2
#     Edge 44, Type (0, 0), BuildingBlock: AJUNOK_clean_linker_0, # of connection points: 2
#     Edge 45, Type (0, 0), BuildingBlock: AJUNOK_clean_linker_0, # of connection points: 2
#     Edge 46, Type (0, 0), BuildingBlock: AJUNOK_clean_linker_0, # of connection points: 2
#     Edge 47, Type (0, 0), BuildingBlock: AJUNOK_clean_linker_0, # of connection points: 2
#     Edge 48, Type (0, 0), BuildingBlock: AJUNOK_clean_linker_0, # of connection points: 2
#     Edge 49, Type (0, 0), BuildingBlock: AJUNOK_clean_linker_0, # of connection points: 2
#     Edge 50, Type (0, 0), BuildingBlock: AJUNOK_clean_linker_0, # of connection points: 2
#     Edge 51, Type (0, 0), BuildingBlock: AJUNOK_clean_linker_0, # of connection points: 2
#     Edge 52, Type (0, 0), BuildingBlock: AJUNOK_clean_linker_0, # of connection points: 2
#     Edge 53, Type (0, 0), BuildingBlock: AJUNOK_clean_linker_0, # of connection points: 2
#     Edge 54, Type (0, 0), BuildingBlock: AJUNOK_clean_linker_0, # of connection points: 2
#     Edge 55, Type (0, 0), BuildingBlock: AJUNOK_clean_linker_0, # of connection points: 2
#     Edge 56, Type (0, 0), BuildingBlock: AJUNOK_clean_linker_0, # of connection points: 2
#     Edge 57, Type (0, 0), BuildingBlock: AJUNOK_clean_linker_0, # of connection points: 2
#     Edge 58, Type (0, 0), BuildingBlock: AJUNOK_clean_linker_0, # of connection points: 2
#     Edge 59, Type (0, 0), BuildingBlock: AJUNOK_clean_linker_0, # of connection points: 2
#     Edge 60, Type (0, 0), BuildingBlock: AJUNOK_clean_linker_0, # of connection points: 2
#     Edge 61, Type (0, 0), BuildingBlock: AJUNOK_clean_linker_0, # of connection points: 2
#     Edge 62, Type (0, 0), BuildingBlock: AJUNOK_clean_linker_0, # of connection points: 2
#     Edge 63, Type (0, 0), BuildingBlock: AJUNOK_clean_linker_0, # of connection points: 2
# Relax obj value: 0.194
# Max RMSD: 0.136
# Mean RMSD: 0.136
data_MOF--net-why--node1-LEVNOQ01_clean_sbu_1--edge1-AJUNOK_clean_linker_0
_symmetry_space_group_name_H-M    P1
_symmetry_Int_Tables_number       1
_symmetry_cell_setting            triclinic
loop_
_symmetry_equiv_pos_as_xyz
'x, y, z'
_cell_length_a     36.691968
_cell_length_b     36.626061
_cell_length_c     21.165211
_cell_angle_alpha  89.825503
_cell_angle_beta   89.985879
_cell_angle_gamma 89.969821
loop_
_atom_site_label
_atom_site_type_symbol
_atom_site_fract_x
_atom_site_fract_y
_atom_site_fract_z
_atom_type_partial_charge
O0 O 0.28433 0.20796 0.97531 0.0
Mg1 Mg 0.29815 0.15244 0.98206 0.0
O2 O 0.33661 0.20129 0.0224 0.0
Mg3 Mg 0.32976 0.14697 0.0858 0.0
O4 O 0.27311 0.12198 0.04915 0.0
O5 O 0.25894 0.12051 0.94611 0.0
O6 O 0.32726 0.09468 0.15181 0.0
O7 O 0.29163 0.17923 0.15387 0.0
Mg8 Mg 0.36633 0.16258 0.22225 0.0
O9 O 0.38128 0.16958 0.12973 0.0
O10 O 0.35734 0.10671 0.24039 0.0
O11 O 0.31982 0.19472 0.24274 0.0
O12 O 0.41786 0.1848 0.20848 0.0
C13 C 0.36795 0.11729 0.95746 0.0
C14 C 0.31489 0.22107 0.98983 0.0
C15 C 0.25194 0.1113 1.00349 0.0
C16 C 0.33865 0.08511 0.20663 0.0
C17 C 0.29181 0.19497 0.2076 0.0
C18 C 0.41175 0.18335 0.14856 0.0
O19 O 0.34322 0.13563 0.93142 0.0
O20 O 0.36844 0.11402 0.0174 0.0
O21 O 0.48946 0.54235 0.19096 0.0
Mg22 Mg 0.54255 0.52606 0.20618 0.0
O23 O 0.49279 0.58252 0.26823 0.0
Mg24 Mg 0.54516 0.57862 0.33157 0.0
O25 O 0.5709 0.5241 0.29136 0.0
O26 O 0.52498 0.48846 0.27564 0.0
O27 O 0.59523 0.5791 0.3987 0.0
O28 O 0.51443 0.53977 0.40236 0.0
Mg29 Mg 0.52198 0.61719 0.46481 0.0
O30 O 0.52464 0.63448 0.37071 0.0
O31 O 0.57976 0.61324 0.48146 0.0
O32 O 0.50394 0.56663 0.49344 0.0
O33 O 0.4731 0.63465 0.41971 0.0
C34 C 0.57946 0.60579 0.19852 0.0
C35 C 0.47573 0.56802 0.22227 0.0
C36 C 0.55645 0.4925 0.29946 0.0
C37 C 0.60296 0.59379 0.45182 0.0
C38 C 0.50272 0.53872 0.45914 0.0
C39 C 0.49216 0.64769 0.37468 0.0
O40 O 0.56924 0.57527 0.17618 0.0
O41 O 0.57524 0.61331 0.25697 0.0
O42 O 0.15564 0.74051 0.47482 0.0
Mg43 Mg 0.14205 0.79556 0.48451 0.0
O44 O 0.10384 0.74605 0.52386 0.0
Mg45 Mg 0.11263 0.79883 0.58758 0.0
O46 O 0.17186 0.8213 0.55069 0.0
O47 O 0.18134 0.82576 0.44603 0.0
O48 O 0.11625 0.84838 0.6545 0.0
O49 O 0.14995 0.76481 0.65446 0.0
Mg50 Mg 0.07426 0.78179 0.72312 0.0
O51 O 0.05716 0.78218 0.62967 0.0
O52 O 0.08176 0.83884 0.7397 0.0
O53 O 0.12234 0.75373 0.74496 0.0
O54 O 0.03363 0.74442 0.69824 0.0
C55 C 0.07418 0.83286 0.46267 0.0
C56 C 0.12542 0.72705 0.49005 0.0
C57 C 0.19195 0.83159 0.50291 0.0
C58 C 0.10274 0.85919 0.70688 0.0
C59 C 0.15012 0.75132 0.71007 0.0
C60 C 0.03544 0.75513 0.64046 0.0
O61 O 0.098 0.81519 0.43325 0.0
O62 O 0.07507 0.83421 0.52256 0.0
O63 O 0.95213 0.37377 0.99198 0.0
Mg64 Mg 0.91885 0.32783 0.97371 0.0
O65 O 0.92999 0.40345 0.90887 0.0
Mg66 Mg 0.90006 0.36618 0.83833 0.0
O67 O 0.92346 0.31446 0.87971 0.0
O68 O 0.94079 0.27631 0.95477 0.0
O69 O 0.8706 0.32994 0.76423 0.0
O70 O 0.95021 0.36542 0.7699 0.0
Mg71 Mg 0.88895 0.41509 0.70319 0.0
O72 O 0.87486 0.42004 0.7985 0.0
O73 O 0.86999 0.36326 0.67515 0.0
O74 O 0.94626 0.41056 0.69991 0.0
O75 O 0.87444 0.42061 0.79963 0.0
C76 C 0.84081 0.35578 0.96056 0.0
C77 C 0.94788 0.40299 0.96047 0.0
C78 C 0.93737 0.28342 0.89538 0.0
C79 C 0.86398 0.33379 0.7052 0.0
C80 C 0.96335 0.38377 0.72379 0.0
C81 C 0.85792 0.44774 0.82171 0.0
O82 O 0.86274 0.33799 0.99559 0.0
O83 O 0.85007 0.36591 0.90504 0.0
O84 O 0.66306 0.72794 0.02862 0.0
Mg85 Mg 0.64946 0.78378 0.03103 0.0
O86 O 0.60768 0.73843 0.99772 0.0
Mg87 Mg 0.61514 0.79341 0.93689 0.0
O88 O 0.67194 0.82177 0.97217 0.0
O89 O 0.69127 0.80942 0.07063 0.0
O90 O 0.61648 0.84529 0.87193 0.0
O91 O 0.65227 0.7622 0.86685 0.0
Mg92 Mg 0.57743 0.77767 0.80445 0.0
O93 O 0.56127 0.77184 0.89676 0.0
O94 O 0.58822 0.83309 0.78197 0.0
O95 O 0.62123 0.74222 0.7844 0.0
O96 O 0.52498 0.75812 0.8163 0.0
C97 C 0.58003 0.8176 0.06723 0.0
C98 C 0.63079 0.71688 0.02279 0.0
C99 C 0.69439 0.82758 0.01884 0.0
C100 C 0.60598 0.85497 0.81672 0.0
C101 C 0.65081 0.74457 0.81505 0.0
C102 C 0.5304 0.7594 0.87645 0.0
O103 O 0.6056 0.79864 0.08992 0.0
O104 O 0.5787 0.82392 1.00813 0.0
O105 O 0.46694 0.41046 0.7822 0.0
Mg106 Mg 0.4099 0.3999 0.78727 0.0
O107 O 0.45313 0.35625 0.74979 0.0
Mg108 Mg 0.39957 0.36603 0.6878 0.0
O109 O 0.37354 0.42321 0.72588 0.0
O110 O 0.38567 0.44351 0.824 0.0
O111 O 0.34776 0.36749 0.6201 0.0
O112 O 0.4325 0.40296 0.61943 0.0
Mg113 Mg 0.41753 0.32859 0.55262 0.0
O114 O 0.42201 0.31363 0.64544 0.0
O115 O 0.36213 0.33753 0.53226 0.0
O116 O 0.45179 0.37386 0.53412 0.0
O117 O 0.43797 0.27649 0.56782 0.0
C118 C 0.37167 0.33075 0.81854 0.0
C119 C 0.4762 0.3777 0.7748 0.0
C120 C 0.36838 0.4467 0.77139 0.0
C121 C 0.33924 0.35509 0.56535 0.0
C122 C 0.45033 0.40248 0.56767 0.0
C123 C 0.43557 0.28279 0.62757 0.0
O124 O 0.39081 0.35564 0.84315 0.0
O125 O 0.36757 0.32961 0.75871 0.0
O126 O 0.78031 0.2147 0.5397 0.0
Mg127 Mg 0.79372 0.15891 0.54299 0.0
O128 O 0.83446 0.20537 0.50158 0.0
Mg129 Mg 0.82716 0.15246 0.43878 0.0
O130 O 0.77125 0.12566 0.47711 0.0
O131 O 0.75217 0.13016 0.57801 0.0
O132 O 0.82669 0.10166 0.37333 0.0
O133 O 0.7887 0.18431 0.37035 0.0
Mg134 Mg 0.8624 0.17054 0.30135 0.0
O135 O 0.87868 0.17447 0.39388 0.0
O136 O 0.85198 0.11506 0.28065 0.0
O137 O 0.81767 0.20543 0.2857 0.0
O138 O 0.91481 0.19048 0.31481 0.0
C139 C 0.86499 0.12441 0.56814 0.0
C140 C 0.81222 0.22604 0.53062 0.0
C141 C 0.74834 0.11716 0.52196 0.0
C142 C 0.83602 0.09273 0.31729 0.0
C143 C 0.78918 0.20289 0.31924 0.0
C144 C 0.90934 0.18772 0.37481 0.0
O145 O 0.83983 0.14219 0.59462 0.0
O146 O 0.86535 0.12073 0.50828 0.0
O147 O -0.01234 0.53228 0.29852 0.0
Mg148 Mg 0.04199 0.54921 0.29305 0.0
O149 O -0.00751 0.58475 0.25063 0.0
Mg150 Mg 0.04578 0.57894 0.18805 0.0
O151 O 0.07279 0.52332 0.22791 0.0
O152 O 0.07564 0.51248 0.33222 0.0
O153 O 0.0979 0.57557 0.1249 0.0
O154 O 0.01417 0.53827 0.12422 0.0
Mg155 Mg 0.03072 0.60754 0.05746 0.0
O156 O 0.0196 0.63168 0.14328 0.0
O157 O 0.08535 0.59782 0.03076 0.0
O158 O -0.00596 0.56553 0.03781 0.0
O159 O 0.01039 0.65875 0.04937 0.0
C160 C 0.07277 0.62095 0.31387 0.0
C161 C -0.02602 0.56283 0.28485 0.0
C162 C 0.08421 0.50367 0.27538 0.0
C163 C 0.10759 0.58274 0.06836 0.0
C164 C -0.00435 0.53777 0.07328 0.0
C165 C 0.00694 0.65893 0.11007 0.0
O166 O 0.05484 0.59659 0.34192 0.0
O167 O 0.0774 0.61929 0.25429 0.0
O168 O 0.77768 0.70699 0.47636 0.0
Mg169 Mg 0.79574 0.65289 0.47753 0.0
O170 O 0.83129 0.70317 0.51962 0.0
Mg171 Mg 0.82694 0.64915 0.5826 0.0
O172 O 0.77199 0.62112 0.54487 0.0
O173 O 0.75856 0.61862 0.44133 0.0
O174 O 0.82641 0.5964 0.64475 0.0
O175 O 0.78801 0.68007 0.6506 0.0
Mg176 Mg 0.86207 0.66317 0.71664 0.0
O177 O 0.87869 0.67524 0.62566 0.0
O178 O 0.85673 0.60662 0.73342 0.0
O179 O 0.81543 0.69418 0.74036 0.0
O180 O 0.91234 0.68806 0.71006 0.0
C181 C 0.86819 0.62281 0.45652 0.0
C182 C 0.80805 0.72145 0.48781 0.0
C183 C 0.75174 0.6092 0.49877 0.0
C184 C 0.83867 0.58558 0.69789 0.0
C185 C 0.7875 0.69499 0.70505 0.0
C186 C 0.90774 0.6899 0.6497 0.0
O187 O 0.8444 0.64172 0.42882 0.0
O188 O 0.86586 0.61716 0.51563 0.0
O189 O -0.02743 0.03969 0.76475 0.0
Mg190 Mg 0.03028 0.04838 0.75779 0.0
O191 O -0.00898 0.09519 0.77521 0.0
Mg192 Mg 0.04294 0.08245 0.84107 0.0
O193 O 0.07217 0.02616 0.80783 0.0
O194 O 0.04555 0.00057 0.72353 0.0
O195 O 0.09279 0.08116 0.91115 0.0
O196 O 0.00962 0.04504 0.90733 0.0
Mg197 Mg 0.02213 0.12049 0.97602 0.0
O198 O 0.01867 0.13334 0.88237 0.0
O199 O 0.07786 0.11308 0.99682 0.0
O200 O -0.01055 0.07378 0.99252 0.0
O201 O -0.00039 0.17148 0.9557 0.0
C202 C 0.07001 0.11468 0.71162 0.0
C203 C 0.9667 0.07318 0.75643 0.0
C204 C 0.07038 0.00023 0.7663 0.0
C205 C 0.1007 0.09446 0.96534 0.0
C206 C -0.00847 0.04528 0.95878 0.0
C207 C 0.00349 0.16389 0.89666 0.0
O208 O 0.04934 0.08932 0.69205 0.0
O209 O 0.07586 0.11752 0.77084 0.0
O210 O 0.66108 0.23054 0.99547 0.0
Mg211 Mg 0.64923 0.28737 0.99607 0.0
O212 O 0.606 0.2431 0.02356 0.0
Mg213 Mg 0.61463 0.29718 0.08637 0.0
O214 O 0.67184 0.32645 0.05298 0.0
O215 O 0.69362 0.30905 0.95858 0.0
O216 O 0.61181 0.3489 0.15542 0.0
O217 O 0.65385 0.26507 0.15379 0.0
Mg218 Mg 0.5822 0.27103 0.21273 0.0
O219 O 0.56166 0.27167 0.12298 0.0
O220 O 0.59206 0.32425 0.24464 0.0
O221 O 0.62465 0.23344 0.2268 0.0
O222 O 0.52951 0.25258 0.20608 0.0
C223 C 0.58147 0.32387 0.95537 0.0
C224 C 0.6283 0.22078 0.99886 0.0
C225 C 0.69593 0.32931 1.00786 0.0
C226 C 0.60243 0.352 0.21361 0.0
C227 C 0.65383 0.24166 0.19848 0.0
C228 C 0.53216 0.25744 0.14586 0.0
O229 O 0.60782 0.30552 0.93395 0.0
O230 O 0.57803 0.32829 0.01476 0.0
O231 O 0.44091 0.88535 0.493 0.0
Mg232 Mg 0.42597 0.83311 0.46727 0.0
O233 O 0.4292 0.90763 0.39817 0.0
Mg234 Mg 0.39973 0.86561 0.33281 0.0
O235 O 0.42317 0.81158 0.37522 0.0
O236 O 0.47526 0.8206 0.41986 0.0
O237 O 0.37153 0.83063 0.25899 0.0
O238 O 0.45121 0.85942 0.26983 0.0
Mg239 Mg 0.40841 0.91603 0.21474 0.0
O240 O 0.37103 0.91667 0.28835 0.0
O241 O 0.38251 0.86698 0.17598 0.0
O242 O 0.46486 0.9086 0.21697 0.0
O243 O 0.40665 0.96274 0.27314 0.0
C244 C 0.3435 0.84871 0.45261 0.0
C245 C 0.4412 0.91137 0.45419 0.0
C246 C 0.45691 0.80249 0.37984 0.0
C247 C 0.3702 0.83715 0.19956 0.0
C248 C 0.47337 0.8773 0.23586 0.0
C249 C 0.37656 0.95106 0.29498 0.0
O250 O 0.36831 0.83174 0.48282 0.0
O251 O 0.34963 0.86421 0.3995 0.0
O252 O 0.16212 0.23077 0.53883 0.0
Mg253 Mg 0.1454 0.2857 0.54002 0.0
O254 O 0.10814 0.23662 0.49846 0.0
Mg255 Mg 0.11462 0.29081 0.43564 0.0
O256 O 0.16962 0.31926 0.47572 0.0
O257 O 0.18331 0.31828 0.5792 0.0
O258 O 0.11485 0.34235 0.36872 0.0
O259 O 0.15447 0.25921 0.36841 0.0
Mg260 Mg 0.07965 0.27228 0.29827 0.0
O261 O 0.0636 0.26726 0.39069 0.0
O262 O 0.08585 0.32846 0.27951 0.0
O263 O 0.12704 0.24089 0.28043 0.0
O264 O 0.02824 0.2497 0.31171 0.0
C265 C 0.07311 0.31692 0.56338 0.0
C266 C 0.131 0.2174 0.52928 0.0
C267 C 0.18976 0.33002 0.52297 0.0
C268 C 0.10275 0.35113 0.31397 0.0
C269 C 0.15494 0.2423 0.31566 0.0
C270 C 0.03319 0.25337 0.37165 0.0
O271 O 0.09746 0.29818 0.59022 0.0
O272 O 0.07498 0.32215 0.50381 0.0
O273 O 0.95965 0.90836 0.27655 0.0
Mg274 Mg 0.90464 0.89153 0.27429 0.0
O275 O 0.95024 0.85244 0.24807 0.0
Mg276 Mg 0.89649 0.86515 0.18516 0.0
O277 O 0.87058 0.92332 0.22503 0.0
O278 O 0.87994 0.92795 0.32904 0.0
O279 O 0.84762 0.87055 0.11681 0.0
O280 O 0.93005 0.90523 0.12244 0.0
Mg281 Mg 0.9172 0.83321 0.04654 0.0
O282 O 0.91441 0.81164 0.13786 0.0
O283 O 0.86032 0.84055 0.02805 0.0
O284 O 0.94414 0.88216 0.02944 0.0
O285 O 0.95803 0.79675 0.07301 0.0
C286 C 0.86869 0.82452 0.30883 0.0
C287 C 0.97047 0.87582 0.27529 0.0
C288 C 0.86622 0.94079 0.27792 0.0
C289 C 0.83858 0.85952 0.0617 0.0
C290 C 0.94474 0.90821 0.0681 0.0
C291 C 0.94382 0.79321 0.128 0.0
O292 O 0.89103 0.84686 0.33156 0.0
O293 O 0.86116 0.82673 0.25022 0.0
O294 O 0.28364 0.71886 0.02848 0.0
Mg295 Mg 0.29484 0.66198 0.03105 0.0
O296 O 0.33836 0.70537 0.99871 0.0
Mg297 Mg 0.32757 0.65209 0.93551 0.0
O298 O 0.2725 0.62323 0.97442 0.0
O299 O 0.252 0.63855 0.071 0.0
O300 O 0.32526 0.60169 0.8667 0.0
O301 O 0.28879 0.6847 0.86975 0.0
Mg302 Mg 0.36288 0.67156 0.7978 0.0
O303 O 0.37796 0.6757 0.89059 0.0
O304 O 0.35357 0.6157 0.77711 0.0
O305 O 0.31616 0.70461 0.78294 0.0
O306 O 0.4146 0.69359 0.81395 0.0
C307 C 0.36353 0.62441 0.06346 0.0
C308 C 0.31649 0.7282 0.02329 0.0
C309 C 0.24991 0.61861 0.02122 0.0
C310 C 0.33604 0.59305 0.81104 0.0
C311 C 0.28803 0.70243 0.81774 0.0
C312 C 0.40838 0.69025 0.87361 0.0
O313 O 0.33857 0.64357 0.08738 0.0
O314 O 0.3651 0.61976 1.00386 0.0
O315 O 0.48036 0.03297 0.77205 0.0
Mg316 Mg 0.53647 0.04691 0.77891 0.0
O317 O 0.49255 0.08935 0.75039 0.0
Mg318 Mg 0.54545 0.08067 0.6862 0.0
O319 O 0.57442 0.02386 0.72192 0.0
O320 O 0.56089 0.00477 0.82034 0.0
O321 O 0.59476 0.07999 0.61605 0.0
O322 O 0.51256 0.04249 0.61886 0.0
Mg323 Mg 0.52177 0.11602 0.5532 0.0
O324 O 0.52194 0.13289 0.64512 0.0
O325 O 0.57608 0.10424 0.5253 0.0
O326 O 0.48416 0.07294 0.54272 0.0
O327 O 0.50345 0.16886 0.56707 0.0
C328 C 0.5714 0.11704 0.81546 0.0
C329 C 0.4704 0.06581 0.77206 0.0
C330 C 0.57922 0.00123 0.76894 0.0
C331 C 0.60079 0.08937 0.55862 0.0
C332 C 0.4905 0.04349 0.57218 0.0
C333 C 0.50818 0.16358 0.62676 0.0
O334 O 0.55167 0.09162 0.83704 0.0
O335 O 0.57791 0.11813 0.7562 0.0
C336 C 0.43731 0.23894 0.10217 0.0
C337 C 0.43828 0.2006 0.1059 0.0
C338 C 0.46975 0.25928 0.10295 0.0
C339 C 0.50368 0.24158 0.10574 0.0
H340 H 0.41178 0.25325 0.10926 0.0
H341 H 0.46808 0.28847 0.11056 0.0
S342 S 0.52028 0.14227 0.09441 0.0
N343 N 0.47541 0.14614 0.09644 0.0
N344 N 0.53634 0.18439 0.09566 0.0
C345 C 0.50472 0.20373 0.09628 0.0
C346 C 0.47181 0.18306 0.09672 0.0
C347 C 0.47186 0.70522 0.3165 0.0
C348 C 0.48764 0.68779 0.36939 0.0
C349 C 0.46216 0.74271 0.31871 0.0
C350 C 0.4677 0.76342 0.37406 0.0
H351 H 0.4661 0.68967 0.27421 0.0
H352 H 0.44994 0.75536 0.2775 0.0
S353 S 0.50432 0.72866 0.52692 0.0
N354 N 0.50669 0.69358 0.47862 0.0
N355 N 0.48729 0.76217 0.48414 0.0
C356 C 0.48297 0.74567 0.42705 0.0
C357 C 0.49328 0.7084 0.4243 0.0
C358 C 0.9707 0.76769 0.62751 0.0
C359 C 0.00156 0.74953 0.60373 0.0
C360 C 0.93727 0.74948 0.63351 0.0
C361 C 0.93319 0.71318 0.61321 0.0
H362 H -0.02606 0.79349 0.65187 0.0
H363 H 0.91606 0.76219 0.66151 0.0
S364 S 0.00036 0.6612 0.51892 0.0
N365 N 0.02248 0.69856 0.54016 0.0
N366 N 0.95886 0.66481 0.54886 0.0
C367 C 0.9613 0.69806 0.57669 0.0
C368 C -0.00425 0.71634 0.57203 0.0
C369 C 0.92947 0.22255 0.85125 0.0
C370 C 0.94894 0.25555 0.84959 0.0
C371 C 0.94799 0.18906 0.85141 0.0
C372 C -0.01373 0.18811 0.85006 0.0
H373 H 0.90081 0.22263 0.86366 0.0
H374 H 0.93285 0.16471 0.86407 0.0
S375 S 0.04719 0.26567 0.81399 0.0
N376 N 0.00651 0.28445 0.8229 0.0
N377 N 0.04133 0.22124 0.82345 0.0
C378 C 0.00472 0.22004 0.83267 0.0
C379 C -0.01412 0.25415 0.8324 0.0
C380 C 0.46851 0.76348 0.92049 0.0
C381 C 0.50182 0.74455 0.91811 0.0
C382 C 0.43528 0.74449 0.9215 0.0
C383 C 0.43472 0.70618 0.91804 0.0
H384 H 0.46793 0.79269 0.91222 0.0
H385 H 0.41038 0.75982 0.91393 0.0
S386 S 0.51407 0.6447 0.93221 0.0
N387 N 0.53199 0.68607 0.92997 0.0
N388 N 0.46944 0.65039 0.92977 0.0
C389 C 0.46745 0.6874 0.92842 0.0
C390 C 0.50125 0.70672 0.92857 0.0
C391 C 0.43557 0.22278 0.67938 0.0
C392 C 0.45287 0.25664 0.67093 0.0
C393 C 0.45591 0.19031 0.68047 0.0
C394 C 0.49377 0.19108 0.67044 0.0
H395 H 0.40623 0.22085 0.67506 0.0
H396 H 0.44133 0.16463 0.67771 0.0
S397 S 0.55212 0.27333 0.6659 0.0
N398 N 0.51016 0.28947 0.6704 0.0
N399 N 0.54828 0.22837 0.6678 0.0
C400 C 0.51161 0.22484 0.67399 0.0
C401 C 0.49099 0.25785 0.67526 0.0
C402 C 0.96922 0.1843 0.42658 0.0
C403 C 0.93654 0.20363 0.41745 0.0
C404 C 0.00285 0.20262 0.42586 0.0
C405 C 0.00438 0.24042 0.41448 0.0
H406 H 0.96924 0.15474 0.42441 0.0
H407 H 0.02757 0.18645 0.42361 0.0
S408 S 0.92568 0.30353 0.40641 0.0
N409 N 0.9072 0.2627 0.41419 0.0
N410 N 0.97026 0.29707 0.40839 0.0
C411 C -0.02827 0.26035 0.41723 0.0
C412 C 0.93763 0.24179 0.42007 0.0
C413 C -0.00164 0.714 0.17872 0.0
C414 C -0.0163 0.68771 0.13786 0.0
C415 C -0.01903 0.74801 0.18704 0.0
C416 C 0.9485 0.75633 0.15457 0.0
H417 H 0.02542 0.71015 0.19748 0.0
H418 H -0.00464 0.76936 0.21205 0.0
S419 S 0.89686 0.69481 0.04923 0.0
N420 N 0.93298 0.67082 0.07039 0.0
N421 N 0.89991 0.73374 0.08788 0.0
C422 C 0.93116 0.72822 0.12119 0.0
C423 C 0.94917 0.69425 0.11146 0.0
C424 C 0.1535 0.12888 1.00429 0.0
C425 C 0.13877 0.09498 0.98717 0.0
C426 C 0.19031 0.13251 0.01876 0.0
C427 C 0.21386 0.10244 0.01619 0.0
H428 H 0.13689 0.15335 1.00274 0.0
H429 H 0.20107 0.15974 0.02615 0.0
S430 S 0.18734 0.00616 0.98975 0.0
N431 N 0.14907 0.02943 0.97979 0.0
N432 N 0.21928 0.0366 1.00596 0.0
C433 C 0.19915 0.06771 1.00476 0.0
C434 C 0.16126 0.06389 0.99022 0.0
C435 C 0.61528 0.42037 0.22408 0.0
C436 C 0.59753 0.38834 0.24487 0.0
C437 C 0.60595 0.45496 0.24921 0.0
C438 C 0.57848 0.45858 0.29562 0.0
H439 H 0.63512 0.41895 0.18628 0.0
H440 H 0.61787 0.47913 0.22806 0.0
S441 S 0.52537 0.38356 0.36836 0.0
N442 N 0.55234 0.36314 0.31738 0.0
N443 N 0.53608 0.42717 0.36407 0.0
C444 C 0.56299 0.42658 0.31998 0.0
C445 C 0.57197 0.39179 0.29448 0.0
C446 C 0.2843 0.87559 0.49061 0.0
C447 C 0.30577 0.84503 0.47494 0.0
C448 C 0.24734 0.87135 0.50742 0.0
C449 C 0.23138 0.83645 0.5096 0.0
H450 H 0.29579 0.90279 0.48792 0.0
H451 H 0.23075 0.89542 0.51506 0.0
S452 S 0.27572 0.74875 0.46875 0.0
N453 N 0.30824 0.77951 0.46054 0.0
N454 N 0.23952 0.77144 0.49317 0.0
C455 C 0.25313 0.80594 0.49599 0.0
C456 C 0.29019 0.81025 0.47826 0.0
C457 C 0.81266 0.534 0.76021 0.0
C458 C 0.83772 0.54678 0.71501 0.0
C459 C 0.81891 0.50105 0.79288 0.0
C460 C 0.85079 0.48057 0.78243 0.0
H461 H 0.78923 0.55047 0.77273 0.0
H462 H 0.79937 0.49227 0.82819 0.0
S463 S 0.92562 0.50495 0.67147 0.0
N464 N 0.8942 0.53638 0.65926 0.0
N465 N 0.90917 0.47834 0.72765 0.0
C466 C 0.87593 0.49358 0.73727 0.0
C467 C 0.86838 0.52564 0.7015 0.0
C468 C 0.73682 0.86989 0.07033 0.0
C469 C 0.72592 0.85244 0.01427 0.0
C470 C 0.77368 0.87598 0.08319 0.0
C471 C 0.80062 0.86528 0.03974 0.0
H472 H 0.71727 0.87438 0.10792 0.0
H473 H 0.78103 0.88557 0.12986 0.0
S474 S 0.7843 0.83593 0.87456 0.0
N475 N 0.74331 0.83658 0.90702 0.0
N476 N 0.81288 0.84927 0.93018 0.0
C477 C 0.78932 0.85538 0.97853 0.0
C478 C 0.75167 0.84885 0.96573 0.0
C479 C 0.31811 0.52767 0.82856 0.0
C480 C 0.33204 0.55481 0.78807 0.0
C481 C 0.32475 0.49063 0.81666 0.0
C482 C 0.34552 0.47958 0.76413 0.0
H483 H 0.30506 0.53499 0.87265 0.0
H484 H 0.31726 0.47087 0.8526 0.0
S485 S 0.37589 0.53865 0.63218 0.0
N486 N 0.35796 0.56715 0.68393 0.0
N487 N 0.37128 0.49746 0.66318 0.0
C488 C 0.35376 0.50571 0.71788 0.0
C489 C 0.34687 0.54349 0.72963 0.0
C490 C 0.6649 0.06578 0.56329 0.0
C491 C 0.63837 0.08725 0.53272 0.0
C492 C 0.70211 0.07133 0.55156 0.0
C493 C 0.71384 0.09835 0.50882 0.0
H494 H 0.65711 0.04676 0.60019 0.0
H495 H 0.72179 0.05721 0.58097 0.0
S496 S 0.65555 0.15579 0.40626 0.0
N497 N 0.62659 0.13176 0.44918 0.0
N498 N 0.69652 0.142 0.42799 0.0
C499 C 0.68773 0.11607 0.4715 0.0
C500 C 0.64985 0.11062 0.48341 0.0
C501 C 0.06647 0.40463 0.28367 0.0
C502 C 0.10106 0.38971 0.29503 0.0
C503 C 0.06222 0.44152 0.26957 0.0
C504 C 0.09236 0.46497 0.26645 0.0
H505 H 0.04224 0.38794 0.28866 0.0
H506 H 0.03479 0.45237 0.2658 0.0
S507 S 0.18935 0.43819 0.28047 0.0
N508 N 0.1666 0.39989 0.29357 0.0
N509 N 0.15837 0.47028 0.26814 0.0
C510 C 0.12743 0.45019 0.27359 0.0
C511 C 0.13185 0.4122 0.28778 0.0
C512 C 0.65287 0.61532 0.5232 0.0
C513 C 0.64028 0.5899 0.47837 0.0
C514 C 0.68984 0.61717 0.53942 0.0
C515 C 0.71537 0.59401 0.51077 0.0
H516 H 0.63473 0.6359 0.54212 0.0
H517 H 0.69899 0.63968 0.56838 0.0
S518 S 0.69478 0.51405 0.41045 0.0
N519 N 0.65494 0.53435 0.42033 0.0
N520 N 0.72472 0.53888 0.44974 0.0
C521 C 0.70248 0.565 0.47396 0.0
C522 C 0.66479 0.5628 0.4577 0.0
C523 C 0.09785 0.94339 0.80864 0.0
C524 C 0.09731 0.97082 0.76227 0.0
C525 C 0.10377 0.90688 0.79121 0.0
C526 C 0.10873 0.8973 0.72724 0.0
H527 H 0.08909 0.94929 0.85642 0.0
H528 H 0.10097 0.88583 0.82695 0.0
S529 S 0.11895 0.96184 0.59275 0.0
N530 N 0.11132 -0.01202 0.65461 0.0
N531 N 0.11963 0.91958 0.62018 0.0
C532 C 0.11401 0.92546 0.68284 0.0
C533 C 0.10941 0.96242 0.70127 0.0
C534 C 0.73911 0.36884 0.95248 0.0
C535 C 0.72779 0.35382 1.01052 0.0
C536 C 0.7761 0.37263 0.93819 0.0
C537 C 0.80289 0.36241 0.9823 0.0
H538 H 0.71954 0.37282 0.9147 0.0
H539 H 0.78349 0.38026 0.89039 0.0
S540 S 0.7863 0.34095 0.15139 0.0
N541 N 0.74518 0.34163 0.11938 0.0
N542 N 0.81512 0.35055 0.09366 0.0
C543 C 0.79157 0.35529 0.04482 0.0
C544 C 0.75371 0.35084 0.05897 0.0
C545 C 0.33871 -0.01786 0.21639 0.0
C546 C 0.34681 -0.02309 0.28106 0.0
C547 C 0.33218 0.01727 0.19183 0.0
C548 C 0.33219 0.04778 0.23187 0.0
H549 H 0.34326 0.96008 0.18327 0.0
H550 H 0.33109 0.02084 0.14104 0.0
S551 S 0.33535 0.04578 0.40699 0.0
N552 N 0.34391 0.00321 0.38588 0.0
N553 N 0.32843 0.06863 0.34068 0.0
C554 C 0.33259 0.04152 0.29758 0.0
C555 C 0.34048 0.00608 0.32217 0.0
C556 C 0.25245 0.32403 0.4857 0.0
C557 C 0.22582 0.34652 0.51262 0.0
C558 C 0.28931 0.32873 0.5002 0.0
C559 C 0.30104 0.35631 0.54194 0.0
H560 H 0.24451 0.30011 0.45896 0.0
H561 H 0.30833 0.30866 0.48225 0.0
S562 S 0.24277 0.43003 0.60671 0.0
N563 N 0.21388 0.40241 0.57063 0.0
N564 N 0.28369 0.41194 0.59696 0.0
C565 C 0.2751 0.38202 0.56228 0.0
C566 C 0.23733 0.37699 0.54768 0.0
C567 C 0.8739 0.03872 0.32249 0.0
C568 C 0.84082 0.05404 0.30356 0.0
C569 C 0.8817 0.0024 0.31054 0.0
C570 C 0.85662 -0.02033 0.2796 0.0
H571 H 0.89403 0.05504 0.3471 0.0
H572 H 0.90766 -0.0082 0.32683 0.0
S573 S 0.76632 0.00744 0.21748 0.0
N574 N 0.78292 0.04503 0.24976 0.0
N575 N 0.79754 -0.02469 0.22776 0.0
C576 C 0.82354 -0.00527 0.25849 0.0
C577 C 0.81556 0.03238 0.27066 0.0
C578 C 0.15645 0.58872 0.98646 0.0
C579 C 0.14597 0.57749 0.04778 0.0
C580 C 0.193 0.59633 0.97223 0.0
C581 C 0.21979 0.59235 0.01885 0.0
H582 H 0.13607 0.59541 0.95127 0.0
H583 H 0.19936 0.60983 0.92795 0.0
S584 S 0.20921 0.54902 0.17586 0.0
N585 N 0.16721 0.55221 0.14812 0.0
N586 N 0.2359 0.56551 0.11984 0.0
C587 C 0.21077 0.57385 0.07483 0.0
C588 C 0.17366 0.56679 0.09004 0.0
C589 C 0.59146 0.94118 0.72081 0.0
C590 C 0.60185 0.96822 0.76391 0.0
C591 C 0.59624 0.90412 0.73566 0.0
C592 C 0.6114 0.89313 0.79411 0.0
H593 H 0.5755 0.94835 0.6795 0.0
H594 H 0.58491 0.88413 0.70358 0.0
S595 S 0.65494 0.95474 0.91085 0.0
N596 N 0.6368 -0.01755 0.85779 0.0
N597 N 0.64583 0.91293 0.8864 0.0
C598 C 0.62749 0.92022 0.83201 0.0
C599 C 0.62281 0.95784 0.81645 0.0
C600 C 0.43172 0.10243 0.92456 0.0
C601 C 0.39405 0.09912 0.9153 0.0
C602 C 0.4561 0.09179 0.87697 0.0
C603 C 0.44355 0.07732 0.8193 0.0
H604 H 0.44229 0.11479 0.96724 0.0
H605 H 0.48502 0.09513 0.88518 0.0
S606 S 0.34744 0.06233 0.77355 0.0
N607 N 0.34528 0.07953 0.84543 0.0
N608 N 0.39129 0.05961 0.75626 0.0
C609 C 0.40608 0.073 0.81027 0.0
C610 C 0.3813 0.08388 0.8584 0.0
C611 C 0.6036 0.66874 0.1738 0.0
C612 C 0.59373 0.63358 0.15327 0.0
C613 C 0.61561 0.69534 0.13067 0.0
C614 C 0.61795 0.68791 0.0656 0.0
H615 H 0.60188 0.67591 0.22332 0.0
H616 H 0.62293 0.72212 0.14826 0.0
S617 S 0.5948 0.60101 0.98672 0.0
N618 N 0.58683 0.59333 0.06225 0.0
N619 N 0.60902 0.64372 0.98219 0.0
C620 C 0.60778 0.65338 0.04408 0.0
C621 C 0.59583 0.62613 0.08775 0.0
C622 C 0.0279 0.88611 0.33528 0.0
C623 C -0.00272 0.86424 0.32291 0.0
C624 C 0.05154 0.87767 0.3852 0.0
C625 C 0.04433 0.84814 0.42575 0.0
H626 H 0.03396 0.90943 0.30546 0.0
H627 H 0.07625 0.89351 0.39088 0.0
S628 S 0.96598 0.78471 0.41787 0.0
N629 N 0.96027 0.81262 0.35725 0.0
N630 N 0.00368 0.79837 0.45327 0.0
C631 C 0.01295 0.82723 0.41601 0.0
C632 C -0.01032 0.83483 0.36386 0.0
C633 C 0.85885 0.24922 0.60573 0.0
C634 C 0.8261 0.25493 0.57221 0.0
C635 C 0.86987 0.27337 0.65334 0.0
C636 C 0.84857 0.304 0.66817 0.0
H637 H 0.87565 0.22553 0.59608 0.0
H638 H 0.8957 0.26883 0.67696 0.0
S639 S 0.76187 0.33197 0.59319 0.0
N640 N 0.77321 0.2938 0.55666 0.0
N641 N 0.79424 0.33932 0.64578 0.0
C642 C 0.81607 0.30999 0.63508 0.0
C643 C 0.80476 0.28546 0.58704 0.0
C644 C 0.56349 0.84947 0.16623 0.0
C645 C 0.5524 0.83191 0.1104 0.0
C646 C 0.53779 0.86293 0.20924 0.0
C647 C 0.50049 0.85775 0.19857 0.0
H648 H 0.5922 0.85368 0.17576 0.0
H649 H 0.54704 0.87798 0.25019 0.0
S650 S 0.45764 0.81018 0.0635 0.0
N651 N 0.50183 0.80839 0.04853 0.0
N652 N 0.45358 0.83206 0.13121 0.0
C653 C 0.48917 0.83869 0.14462 0.0
C654 C 0.51516 0.82614 0.09987 0.0
C655 C 0.33942 0.31311 0.91805 0.0
C656 C 0.35555 0.30279 0.86027 0.0
C657 C 0.32633 0.28679 0.96098 0.0
C658 C 0.32997 0.24943 0.94789 0.0
H659 H 0.33678 0.34175 0.92992 0.0
H660 H 0.31347 0.29564 1.00439 0.0
S661 S 0.3715 0.20821 0.80537 0.0
N662 N 0.37477 0.25267 0.79321 0.0
N663 N 0.35124 0.20347 0.87447 0.0
C664 C 0.34632 0.23893 0.8908 0.0
C665 C 0.35885 0.26553 0.84669 0.0
C666 C 0.95076 0.11148 0.66298 0.0
C667 C 0.94005 0.08527 0.70836 0.0
C668 C 0.92733 0.12211 0.61386 0.0
C669 C 0.89229 0.10716 0.60909 0.0
H670 H -0.0224 0.12376 0.66515 0.0
H671 H 0.9361 0.14316 0.58113 0.0
S672 S 0.85095 0.03785 0.71464 0.0
N673 N 0.89222 0.04421 0.74394 0.0
N674 N 0.84783 0.06509 0.65254 0.0
C675 C 0.88139 0.08074 0.65334 0.0
C676 C 0.90537 0.0695 0.70277 0.0
C677 C 0.12331 0.66339 0.44927 0.0
C678 C 0.11051 0.69942 0.44782 0.0
C679 C 0.11216 0.63842 0.40315 0.0
C680 C 0.08923 0.64924 0.35314 0.0
H681 H 0.14174 0.65451 0.48622 0.0
H682 H 0.12118 0.61031 0.40687 0.0
S683 S 0.04982 0.74117 0.32795 0.0
N684 N 0.0742 0.74494 0.39307 0.0
N685 N 0.05452 0.69833 0.30498 0.0
C686 C 0.07703 0.68539 0.35068 0.0
C687 C 0.08741 0.71043 0.39854 0.0
C688 C 0.9188 0.62943 0.38103 0.0
C689 C 0.89684 0.60644 0.41793 0.0
C690 C 0.94226 0.61511 0.33541 0.0
C691 C 0.94434 0.57721 0.32478 0.0
H692 H 0.91761 0.65878 0.38725 0.0
H693 H 0.95951 0.63393 0.30952 0.0
S694 S 0.88957 0.5059 0.40575 0.0
N695 N 0.8768 0.5445 0.43941 0.0
N696 N 0.92061 0.51722 0.35263 0.0
C697 C 0.92175 0.554 0.36062 0.0
C698 C 0.89816 0.56868 0.40768 0.0
C699 C 0.07937 0.1369 0.60006 0.0
C700 C 0.08659 0.14057 0.6654 0.0
C701 C 0.09415 0.16127 0.55536 0.0
C702 C 0.11738 0.18965 0.57433 0.0
H703 H 0.06179 0.11527 0.5832 0.0
H704 H 0.08736 0.15794 0.50589 0.0
S705 S 0.14187 0.21399 0.73893 0.0
N706 N 0.11651 0.17702 0.7462 0.0
N707 N 0.14451 0.22204 0.66241 0.0
C708 C 0.12436 0.19397 0.63919 0.0
C709 C 0.10898 0.16964 0.68466 0.0
C710 C 0.49388 0.33879 0.86559 0.0
C711 C 0.50462 0.36254 0.81654 0.0
C712 C 0.51858 0.32752 0.91225 0.0
C713 C 0.55502 0.33894 0.91034 0.0
H714 H 0.46584 0.32971 0.86897 0.0
H715 H 0.50931 0.30924 0.94927 0.0
S716 S 0.59772 0.39857 0.78971 0.0
N717 N 0.55449 0.39611 0.76801 0.0
N718 N 0.60142 0.37333 0.85423 0.0
C719 C 0.56648 0.36159 0.86054 0.0
C720 C 0.54112 0.37387 0.81395 0.0
C721 C 0.33326 0.79278 0.05006 0.0
C722 C 0.33084 0.75587 0.06712 0.0
C723 C 0.34574 0.81888 0.09356 0.0
C724 C 0.35587 0.80898 0.1557 0.0
H725 H 0.32543 0.80153 1.00305 0.0
H726 H 0.34726 0.8471 0.07838 0.0
S727 S 0.35589 0.71472 0.22134 0.0
N728 N 0.34048 0.71023 0.14857 0.0
N729 N 0.36378 0.75878 0.23044 0.0
C730 C 0.35381 0.77183 0.17274 0.0
C731 C 0.34138 0.74543 0.12831 0.0
C732 C 0.04985 0.33624 0.66939 0.0
C733 C 0.0445 0.33388 0.60328 0.0
C734 C 0.02386 0.35251 0.70908 0.0
C735 C -0.00825 0.3672 0.68383 0.0
H736 H 0.07454 0.32573 0.69083 0.0
H737 H 0.02909 0.35396 0.75937 0.0
S738 S 0.96216 0.36448 0.51645 0.0
N739 N 0.00299 0.34546 0.51594 0.0
N740 N 0.95412 0.37543 0.59052 0.0
C741 C -0.0145 0.36401 0.61849 0.0
C742 C 0.01185 0.34758 0.57814 0.0
C743 C 0.84986 0.80672 0.41759 0.0
C744 C 0.85116 0.79828 0.35245 0.0
C745 C 0.8355 0.78215 0.46192 0.0
C746 C 0.82149 0.74855 0.44231 0.0
H747 H 0.86028 0.83254 0.43472 0.0
H748 H 0.83541 0.78942 0.5115 0.0
S749 S 0.82164 0.71129 0.27968 0.0
N750 N 0.83931 0.75256 0.27198 0.0
N751 N 0.81184 0.7066 0.35536 0.0
C752 C 0.82289 0.73951 0.37784 0.0
C753 C 0.83772 0.76436 0.33273 0.0
C754 C 0.42181 0.63125 0.12046 0.0
C755 C 0.39133 0.60977 0.10579 0.0
C756 C 0.44759 0.61917 0.1646 0.0
C757 C 0.44346 0.58528 0.19503 0.0
H758 H 0.42593 0.65729 0.09707 0.0
H759 H 0.47195 0.63533 0.17204 0.0
S760 S 0.36585 0.52145 0.17888 0.0
N761 N 0.35623 0.55525 0.12967 0.0
N762 N 0.40537 0.53194 0.21158 0.0
C763 C 0.41214 0.56452 0.18304 0.0
C764 C 0.3858 0.57695 0.13859 0.0
C765 C 0.60146 0.1597 0.97105 0.0
C766 C 0.61455 0.19403 0.95257 0.0
C767 C 0.5879 0.1351 0.92593 0.0
C768 C 0.58675 0.14398 0.86081 0.0
H769 H 0.60181 0.15178 0.02039 0.0
H770 H 0.57832 0.10876 0.94241 0.0
S771 S 0.6142 0.23279 0.79073 0.0
N772 N 0.62335 0.23699 0.86667 0.0
N773 N 0.59761 0.19117 0.78185 0.0
C774 C 0.599 0.17877 0.84237 0.0
C775 C 0.61287 0.20366 0.88834 0.0
C776 C 0.23809 0.23709 0.21038 0.0
C777 C 0.2571 0.20707 0.23515 0.0
C778 C 0.20496 0.24827 0.23735 0.0
C779 C 0.1899 0.22968 0.28954 0.0
H780 H 0.24902 0.25213 0.17049 0.0
H781 H 0.19105 0.27177 0.21753 0.0
S782 S 0.22755 0.14703 0.36669 0.0
N783 N 0.25756 0.15737 0.31127 0.0
N784 N 0.19537 0.17856 0.36222 0.0
C785 C 0.20837 0.19924 0.31383 0.0
C786 C 0.24199 0.18785 0.28637 0.0
C787 C 0.48313 0.47353 0.45011 0.0
C788 C 0.48946 0.50427 0.48785 0.0
C789 C 0.4717 0.44044 0.47683 0.0
C790 C 0.46573 0.43688 0.5423 0.0
H791 H 0.48641 0.47521 0.39936 0.0
H792 H 0.46629 0.4178 0.44548 0.0
S793 S 0.47717 0.5097 0.66227 0.0
N794 N 0.4883 0.52926 0.5947 0.0
N795 N 0.46641 0.46725 0.64435 0.0
C796 C 0.47159 0.46754 0.58071 0.0
C797 C 0.48345 0.50118 0.55363 0.0
C798 C 0.21679 0.73723 0.70217 0.0
C799 C 0.18447 0.737 0.73787 0.0
C800 C 0.25018 0.7272 0.72916 0.0
C801 C 0.25278 0.71638 0.79298 0.0
H802 H 0.21649 0.74555 0.65301 0.0
H803 H 0.27408 0.72747 0.69913 0.0
S804 S 0.1762 0.71134 0.90764 0.0
N805 N 0.1572 0.72504 0.84104 0.0
N806 N 0.21994 0.70647 0.89155 0.0
C807 C 0.22068 0.71608 0.82943 0.0
C808 C 0.18659 0.7262 0.80191 0.0
C809 C 0.00143 0.47104 0.05685 0.0
C810 C -0.01912 0.50319 0.04982 0.0
C811 C -0.00906 0.43878 0.02671 0.0
C812 C 0.95965 0.43771 0.98856 0.0
H813 H 0.02647 0.47112 0.08399 0.0
H814 H 0.0077 0.41464 0.03262 0.0
S815 S 0.89396 0.51347 0.96249 0.0
N816 N 0.92621 0.53138 1.00712 0.0
N817 N 0.90632 0.4707 0.95025 0.0
C818 C 0.93819 0.46944 0.98294 0.0
C819 C 0.94883 0.5022 0.01381 0.0
C820 C 0.71692 0.72823 0.82283 0.0
C821 C 0.68501 0.7309 0.7863 0.0
C822 C 0.75012 0.71782 0.79563 0.0
C823 C 0.75285 0.70972 0.73072 0.0
H824 H 0.71632 0.73415 0.87296 0.0
H825 H 0.77369 0.71554 0.82621 0.0
S826 S 0.6781 0.71674 0.61295 0.0
N827 N 0.65877 0.72716 0.68088 0.0
N828 N 0.72116 0.70798 0.62974 0.0
C829 C 0.72137 0.71341 0.69326 0.0
C830 C 0.68749 0.72378 0.72106 0.0
C831 C 0.70124 0.25173 0.27944 0.0
C832 C 0.68845 0.23124 0.22785 0.0
C833 C 0.73388 0.24251 0.3101 0.0
C834 C 0.75453 0.21266 0.28941 0.0
H835 H 0.68584 0.27506 0.29609 0.0
H836 H 0.74313 0.25889 0.34948 0.0
S837 S 0.73213 0.14945 0.15881 0.0
N838 N 0.69832 0.17933 0.15878 0.0
N839 N 0.75973 0.16191 0.21647 0.0
C840 C 0.74184 0.19181 0.2384 0.0
C841 C 0.7087 0.20114 0.20736 0.0
C842 C -0.00494 -0.02241 0.96897 0.0
C843 C -0.02245 0.01054 0.98459 0.0
C844 C -0.01466 0.9448 0.99851 0.0
C845 C 0.95786 0.94376 0.04484 0.0
H846 H 0.017 -0.02284 0.93468 0.0
H847 H -0.00066 0.92 0.98475 0.0
S848 S 0.90113 0.02173 0.09765 0.0
N849 N 0.92969 0.03966 0.04587 0.0
N850 N 0.91162 -0.02205 0.10187 0.0
C851 C 0.93975 -0.02366 0.06018 0.0
C852 C 0.94946 0.00972 0.02974 0.0
C853 C 0.44153 0.00594 0.52273 0.0
C854 C 0.47772 0.00926 0.54385 0.0
C855 C 0.43007 -0.02528 0.49007 0.0
C856 C 0.4547 0.94645 0.47677 0.0
H857 H 0.42196 0.02742 0.53211 0.0
H858 H 0.40166 0.97218 0.47681 0.0
S859 S 0.55291 0.9435 0.51636 0.0
N860 N 0.53844 -0.01741 0.54597 0.0
N861 N 0.51685 0.92419 0.48384 0.0
C862 C 0.49102 0.94982 0.49621 0.0
C863 C 0.50257 -0.01879 0.53005 0.0
loop_
_geom_bond_atom_site_label_1
_geom_bond_atom_site_label_2
_geom_bond_distance
_geom_bond_site_symmetry_2
_ccdc_geom_bond_type
O0 Mg1 1.990 . S
O0 C14 1.253 . S
Mg1 O0 1.990 . S
Mg1 O4 2.180 1_556 S
Mg1 O5 2.117 . S
Mg1 O19 2.030 . S
O2 Mg3 2.072 . S
O2 C14 1.260 1_554 S
Mg3 O2 2.072 . S
Mg3 O4 2.099 . S
Mg3 O6 2.079 . S
Mg3 O7 2.072 . S
Mg3 O9 2.099 . S
Mg3 O20 2.079 . S
O4 Mg1 2.180 1_554 S
O4 Mg3 2.099 . S
O4 C15 1.279 1_554 S
O5 Mg1 2.117 . S
O5 C15 1.250 . S
O6 Mg3 2.079 . S
O6 C16 1.264 . S
O7 Mg3 2.072 . S
O7 C17 1.260 . S
Mg8 O9 2.180 . S
Mg8 O10 2.030 . S
Mg8 O11 1.990 . S
Mg8 O12 2.117 . S
O9 Mg3 2.099 . S
O9 Mg8 2.180 . S
O9 C18 1.279 . S
O10 Mg8 2.030 . S
O10 C16 1.248 . S
O11 Mg8 1.990 . S
O11 C17 1.253 . S
O12 Mg8 2.117 . S
O12 C18 1.250 . S
C13 O19 1.248 . S
C13 O20 1.264 1_556 S
C14 O0 1.253 . S
C14 O2 1.260 1_556 S
C15 O4 1.279 1_556 S
C15 O5 1.250 . S
C16 O6 1.264 . S
C16 O10 1.248 . S
C17 O7 1.260 . S
C17 O11 1.253 . S
C18 O9 1.279 . S
C18 O12 1.250 . S
O19 Mg1 2.030 . S
O19 C13 1.248 . S
O20 Mg3 2.079 . S
O20 C13 1.264 1_554 S
O21 Mg22 1.990 . S
O21 C35 1.253 . S
Mg22 O21 1.990 . S
Mg22 O25 2.180 . S
Mg22 O26 2.117 . S
Mg22 O40 2.030 . S
O23 Mg24 2.072 . S
O23 C35 1.260 . S
Mg24 O23 2.072 . S
Mg24 O25 2.099 . S
Mg24 O27 2.079 . S
Mg24 O28 2.072 . S
Mg24 O30 2.099 . S
Mg24 O41 2.079 . S
O25 Mg22 2.180 . S
O25 Mg24 2.099 . S
O25 C36 1.279 . S
O26 Mg22 2.117 . S
O26 C36 1.250 . S
O27 Mg24 2.079 . S
O27 C37 1.264 . S
O28 Mg24 2.072 . S
O28 C38 1.260 . S
Mg29 O30 2.180 . S
Mg29 O31 2.030 . S
Mg29 O32 1.990 . S
Mg29 O33 2.117 . S
O30 Mg24 2.099 . S
O30 Mg29 2.180 . S
O30 C39 1.279 . S
O31 Mg29 2.030 . S
O31 C37 1.248 . S
O32 Mg29 1.990 . S
O32 C38 1.253 . S
O33 Mg29 2.117 . S
O33 C39 1.250 . S
C34 O40 1.248 . S
C34 O41 1.264 . S
C35 O21 1.253 . S
C35 O23 1.260 . S
C36 O25 1.279 . S
C36 O26 1.250 . S
C37 O27 1.264 . S
C37 O31 1.248 . S
C38 O28 1.260 . S
C38 O32 1.253 . S
C39 O30 1.279 . S
C39 O33 1.250 . S
O40 Mg22 2.030 . S
O40 C34 1.248 . S
O41 Mg24 2.079 . S
O41 C34 1.264 . S
O42 Mg43 1.990 . S
O42 C56 1.253 . S
Mg43 O42 1.990 . S
Mg43 O46 2.180 . S
Mg43 O47 2.117 . S
Mg43 O61 2.030 . S
O44 Mg45 2.072 . S
O44 C56 1.260 . S
Mg45 O44 2.072 . S
Mg45 O46 2.099 . S
Mg45 O48 2.079 . S
Mg45 O49 2.072 . S
Mg45 O51 2.099 . S
Mg45 O62 2.079 . S
O46 Mg43 2.180 . S
O46 Mg45 2.099 . S
O46 C57 1.279 . S
O47 Mg43 2.117 . S
O47 C57 1.250 . S
O48 Mg45 2.079 . S
O48 C58 1.264 . S
O49 Mg45 2.072 . S
O49 C59 1.260 . S
Mg50 O51 2.180 . S
Mg50 O52 2.030 . S
Mg50 O53 1.990 . S
Mg50 O54 2.117 . S
O51 Mg45 2.099 . S
O51 Mg50 2.180 . S
O51 C60 1.279 . S
O52 Mg50 2.030 . S
O52 C58 1.248 . S
O53 Mg50 1.990 . S
O53 C59 1.253 . S
O54 Mg50 2.117 . S
O54 C60 1.250 . S
C55 O61 1.248 . S
C55 O62 1.264 . S
C56 O42 1.253 . S
C56 O44 1.260 . S
C57 O46 1.279 . S
C57 O47 1.250 . S
C58 O48 1.264 . S
C58 O52 1.248 . S
C59 O49 1.260 . S
C59 O53 1.253 . S
C60 O51 1.279 . S
C60 O54 1.250 . S
O61 Mg43 2.030 . S
O61 C55 1.248 . S
O62 Mg45 2.079 . S
O62 C55 1.264 . S
O63 Mg64 1.990 . S
O63 C77 1.253 . S
Mg64 O63 1.990 . S
Mg64 O67 2.180 . S
Mg64 O68 2.117 . S
Mg64 O82 2.030 . S
O65 Mg66 2.072 . S
O65 C77 1.260 . S
Mg66 O65 2.072 . S
Mg66 O67 2.099 . S
Mg66 O69 2.079 . S
Mg66 O70 2.072 . S
Mg66 O72 2.099 . S
Mg66 O83 2.079 . S
O67 Mg64 2.180 . S
O67 Mg66 2.099 . S
O67 C78 1.279 . S
O68 Mg64 2.117 . S
O68 C78 1.250 . S
O69 Mg66 2.079 . S
O69 C79 1.264 . S
O70 Mg66 2.072 . S
O70 C80 1.260 . S
Mg71 O72 2.180 . S
Mg71 O73 2.030 . S
Mg71 O74 1.990 . S
Mg71 O75 2.117 . S
O72 Mg66 2.099 . S
O72 Mg71 2.180 . S
O72 C81 1.279 . S
O73 Mg71 2.030 . S
O73 C79 1.248 . S
O74 Mg71 1.990 . S
O74 C80 1.253 . S
O75 Mg71 2.117 . S
O75 C81 1.250 . S
C76 O82 1.248 . S
C76 O83 1.264 . S
C77 O63 1.253 . S
C77 O65 1.260 . S
C78 O67 1.279 . S
C78 O68 1.250 . S
C79 O69 1.264 . S
C79 O73 1.248 . S
C80 O70 1.260 . S
C80 O74 1.253 . S
C81 O72 1.279 . S
C81 O75 1.250 . S
O82 Mg64 2.030 . S
O82 C76 1.248 . S
O83 Mg66 2.079 . S
O83 C76 1.264 . S
O84 Mg85 1.990 . S
O84 C98 1.253 . S
Mg85 O84 1.990 . S
Mg85 O88 2.180 1_554 S
Mg85 O89 2.117 . S
Mg85 O103 2.030 . S
O86 Mg87 2.072 . S
O86 C98 1.260 1_556 S
Mg87 O86 2.072 . S
Mg87 O88 2.099 . S
Mg87 O90 2.079 . S
Mg87 O91 2.072 . S
Mg87 O93 2.099 . S
Mg87 O104 2.079 . S
O88 Mg85 2.180 1_556 S
O88 Mg87 2.099 . S
O88 C99 1.279 1_556 S
O89 Mg85 2.117 . S
O89 C99 1.250 . S
O90 Mg87 2.079 . S
O90 C100 1.264 . S
O91 Mg87 2.072 . S
O91 C101 1.260 . S
Mg92 O93 2.180 . S
Mg92 O94 2.030 . S
Mg92 O95 1.990 . S
Mg92 O96 2.117 . S
O93 Mg87 2.099 . S
O93 Mg92 2.180 . S
O93 C102 1.279 . S
O94 Mg92 2.030 . S
O94 C100 1.248 . S
O95 Mg92 1.990 . S
O95 C101 1.253 . S
O96 Mg92 2.117 . S
O96 C102 1.250 . S
C97 O103 1.248 . S
C97 O104 1.264 1_554 S
C98 O84 1.253 . S
C98 O86 1.260 1_554 S
C99 O88 1.279 1_554 S
C99 O89 1.250 . S
C100 O90 1.264 . S
C100 O94 1.248 . S
C101 O91 1.260 . S
C101 O95 1.253 . S
C102 O93 1.279 . S
C102 O96 1.250 . S
O103 Mg85 2.030 . S
O103 C97 1.248 . S
O104 Mg87 2.079 . S
O104 C97 1.264 1_556 S
O105 Mg106 1.990 . S
O105 C119 1.253 . S
Mg106 O105 1.990 . S
Mg106 O109 2.180 . S
Mg106 O110 2.117 . S
Mg106 O124 2.030 . S
O107 Mg108 2.072 . S
O107 C119 1.260 . S
Mg108 O107 2.072 . S
Mg108 O109 2.099 . S
Mg108 O111 2.079 . S
Mg108 O112 2.072 . S
Mg108 O114 2.099 . S
Mg108 O125 2.079 . S
O109 Mg106 2.180 . S
O109 Mg108 2.099 . S
O109 C120 1.279 . S
O110 Mg106 2.117 . S
O110 C120 1.250 . S
O111 Mg108 2.079 . S
O111 C121 1.264 . S
O112 Mg108 2.072 . S
O112 C122 1.260 . S
Mg113 O114 2.180 . S
Mg113 O115 2.030 . S
Mg113 O116 1.990 . S
Mg113 O117 2.117 . S
O114 Mg108 2.099 . S
O114 Mg113 2.180 . S
O114 C123 1.279 . S
O115 Mg113 2.030 . S
O115 C121 1.248 . S
O116 Mg113 1.990 . S
O116 C122 1.253 . S
O117 Mg113 2.117 . S
O117 C123 1.250 . S
C118 O124 1.248 . S
C118 O125 1.264 . S
C119 O105 1.253 . S
C119 O107 1.260 . S
C120 O109 1.279 . S
C120 O110 1.250 . S
C121 O111 1.264 . S
C121 O115 1.248 . S
C122 O112 1.260 . S
C122 O116 1.253 . S
C123 O114 1.279 . S
C123 O117 1.250 . S
O124 Mg106 2.030 . S
O124 C118 1.248 . S
O125 Mg108 2.079 . S
O125 C118 1.264 . S
O126 Mg127 1.990 . S
O126 C140 1.253 . S
Mg127 O126 1.990 . S
Mg127 O130 2.180 . S
Mg127 O131 2.117 . S
Mg127 O145 2.030 . S
O128 Mg129 2.072 . S
O128 C140 1.260 . S
Mg129 O128 2.072 . S
Mg129 O130 2.099 . S
Mg129 O132 2.079 . S
Mg129 O133 2.072 . S
Mg129 O135 2.099 . S
Mg129 O146 2.079 . S
O130 Mg127 2.180 . S
O130 Mg129 2.099 . S
O130 C141 1.279 . S
O131 Mg127 2.117 . S
O131 C141 1.250 . S
O132 Mg129 2.079 . S
O132 C142 1.264 . S
O133 Mg129 2.072 . S
O133 C143 1.260 . S
Mg134 O135 2.180 . S
Mg134 O136 2.030 . S
Mg134 O137 1.990 . S
Mg134 O138 2.117 . S
O135 Mg129 2.099 . S
O135 Mg134 2.180 . S
O135 C144 1.279 . S
O136 Mg134 2.030 . S
O136 C142 1.248 . S
O137 Mg134 1.990 . S
O137 C143 1.253 . S
O138 Mg134 2.117 . S
O138 C144 1.250 . S
C139 O145 1.248 . S
C139 O146 1.264 . S
C140 O126 1.253 . S
C140 O128 1.260 . S
C141 O130 1.279 . S
C141 O131 1.250 . S
C142 O132 1.264 . S
C142 O136 1.248 . S
C143 O133 1.260 . S
C143 O137 1.253 . S
C144 O135 1.279 . S
C144 O138 1.250 . S
O145 Mg127 2.030 . S
O145 C139 1.248 . S
O146 Mg129 2.079 . S
O146 C139 1.264 . S
O147 Mg148 1.990 . S
O147 C161 1.253 . S
Mg148 O147 1.990 . S
Mg148 O151 2.180 . S
Mg148 O152 2.117 . S
Mg148 O166 2.030 . S
O149 Mg150 2.072 . S
O149 C161 1.260 . S
Mg150 O149 2.072 . S
Mg150 O151 2.099 . S
Mg150 O153 2.079 . S
Mg150 O154 2.072 . S
Mg150 O156 2.099 . S
Mg150 O167 2.079 . S
O151 Mg148 2.180 . S
O151 Mg150 2.099 . S
O151 C162 1.279 . S
O152 Mg148 2.117 . S
O152 C162 1.250 . S
O153 Mg150 2.079 . S
O153 C163 1.264 . S
O154 Mg150 2.072 . S
O154 C164 1.260 . S
Mg155 O156 2.180 . S
Mg155 O157 2.030 . S
Mg155 O158 1.990 . S
Mg155 O159 2.117 . S
O156 Mg150 2.099 . S
O156 Mg155 2.180 . S
O156 C165 1.279 . S
O157 Mg155 2.030 . S
O157 C163 1.248 . S
O158 Mg155 1.990 . S
O158 C164 1.253 . S
O159 Mg155 2.117 . S
O159 C165 1.250 . S
C160 O166 1.248 . S
C160 O167 1.264 . S
C161 O147 1.253 . S
C161 O149 1.260 . S
C162 O151 1.279 . S
C162 O152 1.250 . S
C163 O153 1.264 . S
C163 O157 1.248 . S
C164 O154 1.260 . S
C164 O158 1.253 . S
C165 O156 1.279 . S
C165 O159 1.250 . S
O166 Mg148 2.030 . S
O166 C160 1.248 . S
O167 Mg150 2.079 . S
O167 C160 1.264 . S
O168 Mg169 1.990 . S
O168 C182 1.253 . S
Mg169 O168 1.990 . S
Mg169 O172 2.180 . S
Mg169 O173 2.117 . S
Mg169 O187 2.030 . S
O170 Mg171 2.072 . S
O170 C182 1.260 . S
Mg171 O170 2.072 . S
Mg171 O172 2.099 . S
Mg171 O174 2.079 . S
Mg171 O175 2.072 . S
Mg171 O177 2.099 . S
Mg171 O188 2.079 . S
O172 Mg169 2.180 . S
O172 Mg171 2.099 . S
O172 C183 1.279 . S
O173 Mg169 2.117 . S
O173 C183 1.250 . S
O174 Mg171 2.079 . S
O174 C184 1.264 . S
O175 Mg171 2.072 . S
O175 C185 1.260 . S
Mg176 O177 2.180 . S
Mg176 O178 2.030 . S
Mg176 O179 1.990 . S
Mg176 O180 2.117 . S
O177 Mg171 2.099 . S
O177 Mg176 2.180 . S
O177 C186 1.279 . S
O178 Mg176 2.030 . S
O178 C184 1.248 . S
O179 Mg176 1.990 . S
O179 C185 1.253 . S
O180 Mg176 2.117 . S
O180 C186 1.250 . S
C181 O187 1.248 . S
C181 O188 1.264 . S
C182 O168 1.253 . S
C182 O170 1.260 . S
C183 O172 1.279 . S
C183 O173 1.250 . S
C184 O174 1.264 . S
C184 O178 1.248 . S
C185 O175 1.260 . S
C185 O179 1.253 . S
C186 O177 1.279 . S
C186 O180 1.250 . S
O187 Mg169 2.030 . S
O187 C181 1.248 . S
O188 Mg171 2.079 . S
O188 C181 1.264 . S
O189 Mg190 1.990 . S
O189 C203 1.253 . S
Mg190 O189 1.990 . S
Mg190 O193 2.180 . S
Mg190 O194 2.117 . S
Mg190 O208 2.030 . S
O191 Mg192 2.072 . S
O191 C203 1.260 . S
Mg192 O191 2.072 . S
Mg192 O193 2.099 . S
Mg192 O195 2.079 . S
Mg192 O196 2.072 . S
Mg192 O198 2.099 . S
Mg192 O209 2.079 . S
O193 Mg190 2.180 . S
O193 Mg192 2.099 . S
O193 C204 1.279 . S
O194 Mg190 2.117 . S
O194 C204 1.250 . S
O195 Mg192 2.079 . S
O195 C205 1.264 . S
O196 Mg192 2.072 . S
O196 C206 1.260 . S
Mg197 O198 2.180 . S
Mg197 O199 2.030 . S
Mg197 O200 1.990 . S
Mg197 O201 2.117 . S
O198 Mg192 2.099 . S
O198 Mg197 2.180 . S
O198 C207 1.279 . S
O199 Mg197 2.030 . S
O199 C205 1.248 . S
O200 Mg197 1.990 . S
O200 C206 1.253 . S
O201 Mg197 2.117 . S
O201 C207 1.250 . S
C202 O208 1.248 . S
C202 O209 1.264 . S
C203 O189 1.253 . S
C203 O191 1.260 . S
C204 O193 1.279 . S
C204 O194 1.250 . S
C205 O195 1.264 . S
C205 O199 1.248 . S
C206 O196 1.260 . S
C206 O200 1.253 . S
C207 O198 1.279 . S
C207 O201 1.250 . S
O208 Mg190 2.030 . S
O208 C202 1.248 . S
O209 Mg192 2.079 . S
O209 C202 1.264 . S
O210 Mg211 1.990 . S
O210 C224 1.253 . S
Mg211 O210 1.990 . S
Mg211 O214 2.180 1_556 S
Mg211 O215 2.117 . S
Mg211 O229 2.030 . S
O212 Mg213 2.072 . S
O212 C224 1.260 1_554 S
Mg213 O212 2.072 . S
Mg213 O214 2.099 . S
Mg213 O216 2.079 . S
Mg213 O217 2.072 . S
Mg213 O219 2.099 . S
Mg213 O230 2.079 . S
O214 Mg211 2.180 1_554 S
O214 Mg213 2.099 . S
O214 C225 1.279 1_554 S
O215 Mg211 2.117 . S
O215 C225 1.250 . S
O216 Mg213 2.079 . S
O216 C226 1.264 . S
O217 Mg213 2.072 . S
O217 C227 1.260 . S
Mg218 O219 2.180 . S
Mg218 O220 2.030 . S
Mg218 O221 1.990 . S
Mg218 O222 2.117 . S
O219 Mg213 2.099 . S
O219 Mg218 2.180 . S
O219 C228 1.279 . S
O220 Mg218 2.030 . S
O220 C226 1.248 . S
O221 Mg218 1.990 . S
O221 C227 1.253 . S
O222 Mg218 2.117 . S
O222 C228 1.250 . S
C223 O229 1.248 . S
C223 O230 1.264 1_556 S
C224 O210 1.253 . S
C224 O212 1.260 1_556 S
C225 O214 1.279 1_556 S
C225 O215 1.250 . S
C226 O216 1.264 . S
C226 O220 1.248 . S
C227 O217 1.260 . S
C227 O221 1.253 . S
C228 O219 1.279 . S
C228 O222 1.250 . S
O229 Mg211 2.030 . S
O229 C223 1.248 . S
O230 Mg213 2.079 . S
O230 C223 1.264 1_554 S
O231 Mg232 1.990 . S
O231 C245 1.253 . S
Mg232 O231 1.990 . S
Mg232 O235 2.180 . S
Mg232 O236 2.117 . S
Mg232 O250 2.030 . S
O233 Mg234 2.072 . S
O233 C245 1.260 . S
Mg234 O233 2.072 . S
Mg234 O235 2.099 . S
Mg234 O237 2.079 . S
Mg234 O238 2.072 . S
Mg234 O240 2.099 . S
Mg234 O251 2.079 . S
O235 Mg232 2.180 . S
O235 Mg234 2.099 . S
O235 C246 1.279 . S
O236 Mg232 2.117 . S
O236 C246 1.250 . S
O237 Mg234 2.079 . S
O237 C247 1.264 . S
O238 Mg234 2.072 . S
O238 C248 1.260 . S
Mg239 O240 2.180 . S
Mg239 O241 2.030 . S
Mg239 O242 1.990 . S
Mg239 O243 2.117 . S
O240 Mg234 2.099 . S
O240 Mg239 2.180 . S
O240 C249 1.279 . S
O241 Mg239 2.030 . S
O241 C247 1.248 . S
O242 Mg239 1.990 . S
O242 C248 1.253 . S
O243 Mg239 2.117 . S
O243 C249 1.250 . S
C244 O250 1.248 . S
C244 O251 1.264 . S
C245 O231 1.253 . S
C245 O233 1.260 . S
C246 O235 1.279 . S
C246 O236 1.250 . S
C247 O237 1.264 . S
C247 O241 1.248 . S
C248 O238 1.260 . S
C248 O242 1.253 . S
C249 O240 1.279 . S
C249 O243 1.250 . S
O250 Mg232 2.030 . S
O250 C244 1.248 . S
O251 Mg234 2.079 . S
O251 C244 1.264 . S
O252 Mg253 1.990 . S
O252 C266 1.253 . S
Mg253 O252 1.990 . S
Mg253 O256 2.180 . S
Mg253 O257 2.117 . S
Mg253 O271 2.030 . S
O254 Mg255 2.072 . S
O254 C266 1.260 . S
Mg255 O254 2.072 . S
Mg255 O256 2.099 . S
Mg255 O258 2.079 . S
Mg255 O259 2.072 . S
Mg255 O261 2.099 . S
Mg255 O272 2.079 . S
O256 Mg253 2.180 . S
O256 Mg255 2.099 . S
O256 C267 1.279 . S
O257 Mg253 2.117 . S
O257 C267 1.250 . S
O258 Mg255 2.079 . S
O258 C268 1.264 . S
O259 Mg255 2.072 . S
O259 C269 1.260 . S
Mg260 O261 2.180 . S
Mg260 O262 2.030 . S
Mg260 O263 1.990 . S
Mg260 O264 2.117 . S
O261 Mg255 2.099 . S
O261 Mg260 2.180 . S
O261 C270 1.279 . S
O262 Mg260 2.030 . S
O262 C268 1.248 . S
O263 Mg260 1.990 . S
O263 C269 1.253 . S
O264 Mg260 2.117 . S
O264 C270 1.250 . S
C265 O271 1.248 . S
C265 O272 1.264 . S
C266 O252 1.253 . S
C266 O254 1.260 . S
C267 O256 1.279 . S
C267 O257 1.250 . S
C268 O258 1.264 . S
C268 O262 1.248 . S
C269 O259 1.260 . S
C269 O263 1.253 . S
C270 O261 1.279 . S
C270 O264 1.250 . S
O271 Mg253 2.030 . S
O271 C265 1.248 . S
O272 Mg255 2.079 . S
O272 C265 1.264 . S
O273 Mg274 1.990 . S
O273 C287 1.253 . S
Mg274 O273 1.990 . S
Mg274 O277 2.180 . S
Mg274 O278 2.117 . S
Mg274 O292 2.030 . S
O275 Mg276 2.072 . S
O275 C287 1.260 . S
Mg276 O275 2.072 . S
Mg276 O277 2.099 . S
Mg276 O279 2.079 . S
Mg276 O280 2.072 . S
Mg276 O282 2.099 . S
Mg276 O293 2.079 . S
O277 Mg274 2.180 . S
O277 Mg276 2.099 . S
O277 C288 1.279 . S
O278 Mg274 2.117 . S
O278 C288 1.250 . S
O279 Mg276 2.079 . S
O279 C289 1.264 . S
O280 Mg276 2.072 . S
O280 C290 1.260 . S
Mg281 O282 2.180 . S
Mg281 O283 2.030 . S
Mg281 O284 1.990 . S
Mg281 O285 2.117 . S
O282 Mg276 2.099 . S
O282 Mg281 2.180 . S
O282 C291 1.279 . S
O283 Mg281 2.030 . S
O283 C289 1.248 . S
O284 Mg281 1.990 . S
O284 C290 1.253 . S
O285 Mg281 2.117 . S
O285 C291 1.250 . S
C286 O292 1.248 . S
C286 O293 1.264 . S
C287 O273 1.253 . S
C287 O275 1.260 . S
C288 O277 1.279 . S
C288 O278 1.250 . S
C289 O279 1.264 . S
C289 O283 1.248 . S
C290 O280 1.260 . S
C290 O284 1.253 . S
C291 O282 1.279 . S
C291 O285 1.250 . S
O292 Mg274 2.030 . S
O292 C286 1.248 . S
O293 Mg276 2.079 . S
O293 C286 1.264 . S
O294 Mg295 1.990 . S
O294 C308 1.253 . S
Mg295 O294 1.990 . S
Mg295 O298 2.180 1_554 S
Mg295 O299 2.117 . S
Mg295 O313 2.030 . S
O296 Mg297 2.072 . S
O296 C308 1.260 1_556 S
Mg297 O296 2.072 . S
Mg297 O298 2.099 . S
Mg297 O300 2.079 . S
Mg297 O301 2.072 . S
Mg297 O303 2.099 . S
Mg297 O314 2.079 . S
O298 Mg295 2.180 1_556 S
O298 Mg297 2.099 . S
O298 C309 1.279 1_556 S
O299 Mg295 2.117 . S
O299 C309 1.250 . S
O300 Mg297 2.079 . S
O300 C310 1.264 . S
O301 Mg297 2.072 . S
O301 C311 1.260 . S
Mg302 O303 2.180 . S
Mg302 O304 2.030 . S
Mg302 O305 1.990 . S
Mg302 O306 2.117 . S
O303 Mg297 2.099 . S
O303 Mg302 2.180 . S
O303 C312 1.279 . S
O304 Mg302 2.030 . S
O304 C310 1.248 . S
O305 Mg302 1.990 . S
O305 C311 1.253 . S
O306 Mg302 2.117 . S
O306 C312 1.250 . S
C307 O313 1.248 . S
C307 O314 1.264 1_554 S
C308 O294 1.253 . S
C308 O296 1.260 1_554 S
C309 O298 1.279 1_554 S
C309 O299 1.250 . S
C310 O300 1.264 . S
C310 O304 1.248 . S
C311 O301 1.260 . S
C311 O305 1.253 . S
C312 O303 1.279 . S
C312 O306 1.250 . S
O313 Mg295 2.030 . S
O313 C307 1.248 . S
O314 Mg297 2.079 . S
O314 C307 1.264 1_556 S
O315 Mg316 1.990 . S
O315 C329 1.253 . S
Mg316 O315 1.990 . S
Mg316 O319 2.180 . S
Mg316 O320 2.117 . S
Mg316 O334 2.030 . S
O317 Mg318 2.072 . S
O317 C329 1.260 . S
Mg318 O317 2.072 . S
Mg318 O319 2.099 . S
Mg318 O321 2.079 . S
Mg318 O322 2.072 . S
Mg318 O324 2.099 . S
Mg318 O335 2.079 . S
O319 Mg316 2.180 . S
O319 Mg318 2.099 . S
O319 C330 1.279 . S
O320 Mg316 2.117 . S
O320 C330 1.250 . S
O321 Mg318 2.079 . S
O321 C331 1.264 . S
O322 Mg318 2.072 . S
O322 C332 1.260 . S
Mg323 O324 2.180 . S
Mg323 O325 2.030 . S
Mg323 O326 1.990 . S
Mg323 O327 2.117 . S
O324 Mg318 2.099 . S
O324 Mg323 2.180 . S
O324 C333 1.279 . S
O325 Mg323 2.030 . S
O325 C331 1.248 . S
O326 Mg323 1.990 . S
O326 C332 1.253 . S
O327 Mg323 2.117 . S
O327 C333 1.250 . S
C328 O334 1.248 . S
C328 O335 1.264 . S
C329 O315 1.253 . S
C329 O317 1.260 . S
C330 O319 1.279 . S
C330 O320 1.250 . S
C331 O321 1.264 . S
C331 O325 1.248 . S
C332 O322 1.260 . S
C332 O326 1.253 . S
C333 O324 1.279 . S
C333 O327 1.250 . S
O334 Mg316 2.030 . S
O334 C328 1.248 . S
O335 Mg318 2.079 . S
O335 C328 1.264 . S
C336 C337 1.369 . S
C336 C338 1.419 . S
C336 H340 0.930 . S
C337 C336 1.369 . S
C337 C346 1.429 . S
C338 C336 1.419 . S
C338 C339 1.363 . S
C338 H341 0.929 . S
C339 C338 1.363 . S
C339 C345 1.428 . S
H340 C336 0.930 . S
H341 C338 0.929 . S
S342 N343 1.613 . S
S342 N344 1.610 . S
N343 S342 1.613 . S
N343 C346 1.350 . S
N344 S342 1.610 . S
N344 C345 1.351 . S
C345 C339 1.428 . S
C345 N344 1.351 . S
C345 C346 1.434 . S
C346 C337 1.429 . S
C346 N343 1.350 . S
C346 C345 1.434 . S
C347 C348 1.369 . S
C347 C349 1.419 . S
C347 H351 0.930 . S
C348 C347 1.369 . S
C348 C357 1.429 . S
C349 C347 1.419 . S
C349 C350 1.363 . S
C349 H352 0.929 . S
C350 C349 1.363 . S
C350 C356 1.428 . S
H351 C347 0.930 . S
H352 C349 0.929 . S
S353 N354 1.613 . S
S353 N355 1.610 . S
N354 S353 1.613 . S
N354 C357 1.350 . S
N355 S353 1.610 . S
N355 C356 1.351 . S
C356 C350 1.428 . S
C356 N355 1.351 . S
C356 C357 1.434 . S
C357 C348 1.429 . S
C357 N354 1.350 . S
C357 C356 1.434 . S
C358 C359 1.369 . S
C358 C360 1.419 1_455 S
C358 H362 0.930 . S
C359 C358 1.369 . S
C359 C368 1.429 . S
C360 C358 1.419 1_655 S
C360 C361 1.363 . S
C360 H363 0.929 . S
C361 C360 1.363 . S
C361 C367 1.428 . S
H362 C358 0.930 . S
H363 C360 0.929 . S
S364 N365 1.613 . S
S364 N366 1.610 1_455 S
N365 S364 1.613 . S
N365 C368 1.350 . S
N366 S364 1.610 1_655 S
N366 C367 1.351 . S
C367 C361 1.428 . S
C367 N366 1.351 . S
C367 C368 1.434 1_655 S
C368 C359 1.429 . S
C368 N365 1.350 . S
C368 C367 1.434 1_455 S
C369 C370 1.369 . S
C369 C371 1.419 . S
C369 H373 0.930 . S
C370 C369 1.369 . S
C370 C379 1.429 1_655 S
C371 C369 1.419 . S
C371 C372 1.363 1_655 S
C371 H374 0.929 . S
C372 C371 1.363 1_455 S
C372 C378 1.428 . S
H373 C369 0.930 . S
H374 C371 0.929 . S
S375 N376 1.613 . S
S375 N377 1.610 . S
N376 S375 1.613 . S
N376 C379 1.350 . S
N377 S375 1.610 . S
N377 C378 1.351 . S
C378 C372 1.428 . S
C378 N377 1.351 . S
C378 C379 1.434 . S
C379 C370 1.429 1_455 S
C379 N376 1.350 . S
C379 C378 1.434 . S
C380 C381 1.369 . S
C380 C382 1.419 . S
C380 H384 0.930 . S
C381 C380 1.369 . S
C381 C390 1.429 . S
C382 C380 1.419 . S
C382 C383 1.363 . S
C382 H385 0.929 . S
C383 C382 1.363 . S
C383 C389 1.428 . S
H384 C380 0.930 . S
H385 C382 0.929 . S
S386 N387 1.613 . S
S386 N388 1.610 . S
N387 S386 1.613 . S
N387 C390 1.350 . S
N388 S386 1.610 . S
N388 C389 1.351 . S
C389 C383 1.428 . S
C389 N388 1.351 . S
C389 C390 1.434 . S
C390 C381 1.429 . S
C390 N387 1.350 . S
C390 C389 1.434 . S
C391 C392 1.369 . S
C391 C393 1.419 . S
C391 H395 0.930 . S
C392 C391 1.369 . S
C392 C401 1.429 . S
C393 C391 1.419 . S
C393 C394 1.363 . S
C393 H396 0.929 . S
C394 C393 1.363 . S
C394 C400 1.428 . S
H395 C391 0.930 . S
H396 C393 0.929 . S
S397 N398 1.613 . S
S397 N399 1.610 . S
N398 S397 1.613 . S
N398 C401 1.350 . S
N399 S397 1.610 . S
N399 C400 1.351 . S
C400 C394 1.428 . S
C400 N399 1.351 . S
C400 C401 1.434 . S
C401 C392 1.429 . S
C401 N398 1.350 . S
C401 C400 1.434 . S
C402 C403 1.369 . S
C402 C404 1.419 1_655 S
C402 H406 0.930 . S
C403 C402 1.369 . S
C403 C412 1.429 . S
C404 C402 1.419 1_455 S
C404 C405 1.363 . S
C404 H407 0.929 . S
C405 C404 1.363 . S
C405 C411 1.428 . S
H406 C402 0.930 . S
H407 C404 0.929 . S
S408 N409 1.613 . S
S408 N410 1.610 1_655 S
N409 S408 1.613 . S
N409 C412 1.350 . S
N410 S408 1.610 1_455 S
N410 C411 1.351 . S
C411 C405 1.428 . S
C411 N410 1.351 . S
C411 C412 1.434 1_455 S
C412 C403 1.429 . S
C412 N409 1.350 . S
C412 C411 1.434 1_655 S
C413 C414 1.369 . S
C413 C415 1.419 . S
C413 H417 0.930 . S
C414 C413 1.369 . S
C414 C423 1.429 1_455 S
C415 C413 1.419 . S
C415 C416 1.363 1_455 S
C415 H418 0.929 . S
C416 C415 1.363 1_655 S
C416 C422 1.428 . S
H417 C413 0.930 . S
H418 C415 0.929 . S
S419 N420 1.613 1_556 S
S419 N421 1.610 1_556 S
N420 S419 1.613 1_554 S
N420 C423 1.350 . S
N421 S419 1.610 1_554 S
N421 C422 1.351 . S
C422 C416 1.428 . S
C422 N421 1.351 . S
C422 C423 1.434 . S
C423 C414 1.429 1_655 S
C423 N420 1.350 . S
C423 C422 1.434 . S
C424 C425 1.369 . S
C424 C426 1.419 . S
C424 H428 0.930 . S
C425 C424 1.369 . S
C425 C434 1.429 . S
C426 C424 1.419 . S
C426 C427 1.363 1_556 S
C426 H429 0.929 . S
C427 C426 1.363 1_554 S
C427 C433 1.428 . S
H428 C424 0.930 . S
H429 C426 0.929 . S
S430 N431 1.613 1_554 S
S430 N432 1.610 . S
N431 S430 1.613 1_556 S
N431 C434 1.350 . S
N432 S430 1.610 . S
N432 C433 1.351 . S
C433 C427 1.428 . S
C433 N432 1.351 . S
C433 C434 1.434 1_554 S
C434 C425 1.429 . S
C434 N431 1.350 . S
C434 C433 1.434 1_556 S
C435 C436 1.369 . S
C435 C437 1.419 . S
C435 H439 0.930 . S
C436 C435 1.369 . S
C436 C445 1.429 . S
C437 C435 1.419 . S
C437 C438 1.363 . S
C437 H440 0.929 . S
C438 C437 1.363 . S
C438 C444 1.428 . S
H439 C435 0.930 . S
H440 C437 0.929 . S
S441 N442 1.613 . S
S441 N443 1.610 . S
N442 S441 1.613 . S
N442 C445 1.350 . S
N443 S441 1.610 . S
N443 C444 1.351 . S
C444 C438 1.428 . S
C444 N443 1.351 . S
C444 C445 1.434 . S
C445 C436 1.429 . S
C445 N442 1.350 . S
C445 C444 1.434 . S
C446 C447 1.369 . S
C446 C448 1.419 . S
C446 H450 0.930 . S
C447 C446 1.369 . S
C447 C456 1.429 . S
C448 C446 1.419 . S
C448 C449 1.363 . S
C448 H451 0.929 . S
C449 C448 1.363 . S
C449 C455 1.428 . S
H450 C446 0.930 . S
H451 C448 0.929 . S
S452 N453 1.613 . S
S452 N454 1.610 . S
N453 S452 1.613 . S
N453 C456 1.350 . S
N454 S452 1.610 . S
N454 C455 1.351 . S
C455 C449 1.428 . S
C455 N454 1.351 . S
C455 C456 1.434 . S
C456 C447 1.429 . S
C456 N453 1.350 . S
C456 C455 1.434 . S
C457 C458 1.369 . S
C457 C459 1.419 . S
C457 H461 0.930 . S
C458 C457 1.369 . S
C458 C467 1.429 . S
C459 C457 1.419 . S
C459 C460 1.363 . S
C459 H462 0.929 . S
C460 C459 1.363 . S
C460 C466 1.428 . S
H461 C457 0.930 . S
H462 C459 0.929 . S
S463 N464 1.613 . S
S463 N465 1.610 . S
N464 S463 1.613 . S
N464 C467 1.350 . S
N465 S463 1.610 . S
N465 C466 1.351 . S
C466 C460 1.428 . S
C466 N465 1.351 . S
C466 C467 1.434 . S
C467 C458 1.429 . S
C467 N464 1.350 . S
C467 C466 1.434 . S
C468 C469 1.369 1_554 S
C468 C470 1.419 . S
C468 H472 0.930 . S
C469 C468 1.369 1_556 S
C469 C478 1.429 . S
C470 C468 1.419 . S
C470 C471 1.363 . S
C470 H473 0.929 . S
C471 C470 1.363 . S
C471 C477 1.428 1_554 S
H472 C468 0.930 . S
H473 C470 0.929 . S
S474 N475 1.613 . S
S474 N476 1.610 . S
N475 S474 1.613 . S
N475 C478 1.350 . S
N476 S474 1.610 . S
N476 C477 1.351 . S
C477 C471 1.428 1_556 S
C477 N476 1.351 . S
C477 C478 1.434 . S
C478 C469 1.429 . S
C478 N475 1.350 . S
C478 C477 1.434 . S
C479 C480 1.369 . S
C479 C481 1.419 . S
C479 H483 0.930 . S
C480 C479 1.369 . S
C480 C489 1.429 . S
C481 C479 1.419 . S
C481 C482 1.363 . S
C481 H484 0.929 . S
C482 C481 1.363 . S
C482 C488 1.428 . S
H483 C479 0.930 . S
H484 C481 0.929 . S
S485 N486 1.613 . S
S485 N487 1.610 . S
N486 S485 1.613 . S
N486 C489 1.350 . S
N487 S485 1.610 . S
N487 C488 1.351 . S
C488 C482 1.428 . S
C488 N487 1.351 . S
C488 C489 1.434 . S
C489 C480 1.429 . S
C489 N486 1.350 . S
C489 C488 1.434 . S
C490 C491 1.369 . S
C490 C492 1.419 . S
C490 H494 0.930 . S
C491 C490 1.369 . S
C491 C500 1.429 . S
C492 C490 1.419 . S
C492 C493 1.363 . S
C492 H495 0.929 . S
C493 C492 1.363 . S
C493 C499 1.428 . S
H494 C490 0.930 . S
H495 C492 0.929 . S
S496 N497 1.613 . S
S496 N498 1.610 . S
N497 S496 1.613 . S
N497 C500 1.350 . S
N498 S496 1.610 . S
N498 C499 1.351 . S
C499 C493 1.428 . S
C499 N498 1.351 . S
C499 C500 1.434 . S
C500 C491 1.429 . S
C500 N497 1.350 . S
C500 C499 1.434 . S
C501 C502 1.369 . S
C501 C503 1.419 . S
C501 H505 0.930 . S
C502 C501 1.369 . S
C502 C511 1.429 . S
C503 C501 1.419 . S
C503 C504 1.363 . S
C503 H506 0.929 . S
C504 C503 1.363 . S
C504 C510 1.428 . S
H505 C501 0.930 . S
H506 C503 0.929 . S
S507 N508 1.613 . S
S507 N509 1.610 . S
N508 S507 1.613 . S
N508 C511 1.350 . S
N509 S507 1.610 . S
N509 C510 1.351 . S
C510 C504 1.428 . S
C510 N509 1.351 . S
C510 C511 1.434 . S
C511 C502 1.429 . S
C511 N508 1.350 . S
C511 C510 1.434 . S
C512 C513 1.369 . S
C512 C514 1.419 . S
C512 H516 0.930 . S
C513 C512 1.369 . S
C513 C522 1.429 . S
C514 C512 1.419 . S
C514 C515 1.363 . S
C514 H517 0.929 . S
C515 C514 1.363 . S
C515 C521 1.428 . S
H516 C512 0.930 . S
H517 C514 0.929 . S
S518 N519 1.613 . S
S518 N520 1.610 . S
N519 S518 1.613 . S
N519 C522 1.350 . S
N520 S518 1.610 . S
N520 C521 1.351 . S
C521 C515 1.428 . S
C521 N520 1.351 . S
C521 C522 1.434 . S
C522 C513 1.429 . S
C522 N519 1.350 . S
C522 C521 1.434 . S
C523 C524 1.369 . S
C523 C525 1.419 . S
C523 H527 0.930 . S
C524 C523 1.369 . S
C524 C533 1.429 . S
C525 C523 1.419 . S
C525 C526 1.363 . S
C525 H528 0.929 . S
C526 C525 1.363 . S
C526 C532 1.428 . S
H527 C523 0.930 . S
H528 C525 0.929 . S
S529 N530 1.613 . S
S529 N531 1.610 1_545 S
N530 S529 1.613 . S
N530 C533 1.350 1_545 S
N531 S529 1.610 1_565 S
N531 C532 1.351 . S
C532 C526 1.428 . S
C532 N531 1.351 . S
C532 C533 1.434 . S
C533 C524 1.429 . S
C533 N530 1.350 1_565 S
C533 C532 1.434 . S
C534 C535 1.369 1_556 S
C534 C536 1.419 . S
C534 H538 0.930 . S
C535 C534 1.369 1_554 S
C535 C544 1.429 . S
C536 C534 1.419 . S
C536 C537 1.363 . S
C536 H539 0.929 . S
C537 C536 1.363 . S
C537 C543 1.428 1_556 S
H538 C534 0.930 . S
H539 C536 0.929 . S
S540 N541 1.613 . S
S540 N542 1.610 . S
N541 S540 1.613 . S
N541 C544 1.350 . S
N542 S540 1.610 . S
N542 C543 1.351 . S
C543 C537 1.428 1_554 S
C543 N542 1.351 . S
C543 C544 1.434 . S
C544 C535 1.429 . S
C544 N541 1.350 . S
C544 C543 1.434 . S
C545 C546 1.369 . S
C545 C547 1.419 . S
C545 H549 0.930 1_545 S
C546 C545 1.369 . S
C546 C555 1.429 . S
C547 C545 1.419 . S
C547 C548 1.363 . S
C547 H550 0.929 . S
C548 C547 1.363 . S
C548 C554 1.428 . S
H549 C545 0.930 1_565 S
H550 C547 0.929 . S
S551 N552 1.613 . S
S551 N553 1.610 . S
N552 S551 1.613 . S
N552 C555 1.350 . S
N553 S551 1.610 . S
N553 C554 1.351 . S
C554 C548 1.428 . S
C554 N553 1.351 . S
C554 C555 1.434 . S
C555 C546 1.429 . S
C555 N552 1.350 . S
C555 C554 1.434 . S
C556 C557 1.369 . S
C556 C558 1.419 . S
C556 H560 0.930 . S
C557 C556 1.369 . S
C557 C566 1.429 . S
C558 C556 1.419 . S
C558 C559 1.363 . S
C558 H561 0.929 . S
C559 C558 1.363 . S
C559 C565 1.428 . S
H560 C556 0.930 . S
H561 C558 0.929 . S
S562 N563 1.613 . S
S562 N564 1.610 . S
N563 S562 1.613 . S
N563 C566 1.350 . S
N564 S562 1.610 . S
N564 C565 1.351 . S
C565 C559 1.428 . S
C565 N564 1.351 . S
C565 C566 1.434 . S
C566 C557 1.429 . S
C566 N563 1.350 . S
C566 C565 1.434 . S
C567 C568 1.369 . S
C567 C569 1.419 . S
C567 H571 0.930 . S
C568 C567 1.369 . S
C568 C577 1.429 . S
C569 C567 1.419 . S
C569 C570 1.363 . S
C569 H572 0.929 . S
C570 C569 1.363 . S
C570 C576 1.428 . S
H571 C567 0.930 . S
H572 C569 0.929 . S
S573 N574 1.613 . S
S573 N575 1.610 . S
N574 S573 1.613 . S
N574 C577 1.350 . S
N575 S573 1.610 . S
N575 C576 1.351 . S
C576 C570 1.428 . S
C576 N575 1.351 . S
C576 C577 1.434 . S
C577 C568 1.429 . S
C577 N574 1.350 . S
C577 C576 1.434 . S
C578 C579 1.384 . S
C578 C580 1.412 1_554 S
C578 H582 0.922 1_554 S
C579 C578 1.384 . S
C579 C588 1.429 . S
C580 C578 1.412 1_556 S
C580 C581 1.363 . S
C580 H583 0.929 . S
C581 C580 1.363 . S
C581 C587 1.428 1_556 S
H582 C578 0.922 1_556 S
H583 C580 0.929 . S
S584 N585 1.613 . S
S584 N586 1.610 . S
N585 S584 1.613 . S
N585 C588 1.350 . S
N586 S584 1.610 . S
N586 C587 1.351 . S
C587 C581 1.428 1_554 S
C587 N586 1.351 . S
C587 C588 1.434 . S
C588 C579 1.429 . S
C588 N585 1.350 . S
C588 C587 1.434 . S
C589 C590 1.369 . S
C589 C591 1.419 . S
C589 H593 0.930 . S
C590 C589 1.369 . S
C590 C599 1.429 1_565 S
C591 C589 1.419 . S
C591 C592 1.363 . S
C591 H594 0.929 . S
C592 C591 1.363 . S
C592 C598 1.428 . S
H593 C589 0.930 . S
H594 C591 0.929 . S
S595 N596 1.613 . S
S595 N597 1.610 1_545 S
N596 S595 1.613 . S
N596 C599 1.353 . S
N597 S595 1.610 1_565 S
N597 C598 1.351 . S
C598 C592 1.428 . S
C598 N597 1.351 . S
C598 C599 1.431 1_565 S
C599 C590 1.429 1_545 S
C599 N596 1.353 . S
C599 C598 1.431 1_545 S
C600 C601 1.369 . S
C600 C602 1.419 . S
C600 H604 0.930 . S
C601 C600 1.369 . S
C601 C610 1.429 . S
C602 C600 1.419 . S
C602 C603 1.363 . S
C602 H605 0.929 . S
C603 C602 1.363 . S
C603 C609 1.428 . S
H604 C600 0.930 . S
H605 C602 0.929 . S
S606 N607 1.613 . S
S606 N608 1.610 . S
N607 S606 1.613 . S
N607 C610 1.350 . S
N608 S606 1.610 . S
N608 C609 1.351 . S
C609 C603 1.428 . S
C609 N608 1.351 . S
C609 C610 1.434 . S
C610 C601 1.429 . S
C610 N607 1.350 . S
C610 C609 1.434 . S
C611 C612 1.369 . S
C611 C613 1.419 . S
C611 H615 0.930 . S
C612 C611 1.369 . S
C612 C621 1.429 . S
C613 C611 1.419 . S
C613 C614 1.363 . S
C613 H616 0.929 . S
C614 C613 1.363 . S
C614 C620 1.428 . S
H615 C611 0.930 . S
H616 C613 0.929 . S
S617 N618 1.613 . S
S617 N619 1.610 1_554 S
N618 S617 1.613 . S
N618 C621 1.350 . S
N619 S617 1.610 1_556 S
N619 C620 1.351 1_556 S
C620 C614 1.428 . S
C620 N619 1.351 1_554 S
C620 C621 1.434 . S
C621 C612 1.429 . S
C621 N618 1.350 . S
C621 C620 1.434 . S
C622 C623 1.369 . S
C622 C624 1.419 . S
C622 H626 0.930 . S
C623 C622 1.369 . S
C623 C632 1.429 . S
C624 C622 1.419 . S
C624 C625 1.363 . S
C624 H627 0.929 . S
C625 C624 1.363 . S
C625 C631 1.428 . S
H626 C622 0.930 . S
H627 C624 0.929 . S
S628 N629 1.613 . S
S628 N630 1.610 1_655 S
N629 S628 1.613 . S
N629 C632 1.350 1_655 S
N630 S628 1.610 1_455 S
N630 C631 1.351 . S
C631 C625 1.428 . S
C631 N630 1.351 . S
C631 C632 1.434 . S
C632 C623 1.429 . S
C632 N629 1.350 1_455 S
C632 C631 1.434 . S
C633 C634 1.369 . S
C633 C635 1.419 . S
C633 H637 0.930 . S
C634 C633 1.369 . S
C634 C643 1.429 . S
C635 C633 1.419 . S
C635 C636 1.363 . S
C635 H638 0.929 . S
C636 C635 1.363 . S
C636 C642 1.428 . S
H637 C633 0.930 . S
H638 C635 0.929 . S
S639 N640 1.613 . S
S639 N641 1.610 . S
N640 S639 1.613 . S
N640 C643 1.350 . S
N641 S639 1.610 . S
N641 C642 1.351 . S
C642 C636 1.428 . S
C642 N641 1.351 . S
C642 C643 1.434 . S
C643 C634 1.429 . S
C643 N640 1.350 . S
C643 C642 1.434 . S
C644 C645 1.369 . S
C644 C646 1.419 . S
C644 H648 0.930 . S
C645 C644 1.369 . S
C645 C654 1.429 . S
C646 C644 1.419 . S
C646 C647 1.363 . S
C646 H649 0.929 . S
C647 C646 1.363 . S
C647 C653 1.428 . S
H648 C644 0.930 . S
H649 C646 0.929 . S
S650 N651 1.613 . S
S650 N652 1.610 . S
N651 S650 1.613 . S
N651 C654 1.350 . S
N652 S650 1.610 . S
N652 C653 1.351 . S
C653 C647 1.428 . S
C653 N652 1.351 . S
C653 C654 1.434 . S
C654 C645 1.429 . S
C654 N651 1.350 . S
C654 C653 1.434 . S
C655 C656 1.369 . S
C655 C657 1.419 . S
C655 H659 0.930 . S
C656 C655 1.369 . S
C656 C665 1.429 . S
C657 C655 1.419 . S
C657 C658 1.363 . S
C657 H660 0.929 . S
C658 C657 1.363 . S
C658 C664 1.428 . S
H659 C655 0.930 . S
H660 C657 0.929 . S
S661 N662 1.613 . S
S661 N663 1.610 . S
N662 S661 1.613 . S
N662 C665 1.350 . S
N663 S661 1.610 . S
N663 C664 1.351 . S
C664 C658 1.428 . S
C664 N663 1.351 . S
C664 C665 1.434 . S
C665 C656 1.429 . S
C665 N662 1.350 . S
C665 C664 1.434 . S
C666 C667 1.369 . S
C666 C668 1.419 . S
C666 H670 0.930 1_655 S
C667 C666 1.369 . S
C667 C676 1.429 . S
C668 C666 1.419 . S
C668 C669 1.363 . S
C668 H671 0.929 . S
C669 C668 1.363 . S
C669 C675 1.428 . S
H670 C666 0.930 1_455 S
H671 C668 0.929 . S
S672 N673 1.613 . S
S672 N674 1.610 . S
N673 S672 1.613 . S
N673 C676 1.350 . S
N674 S672 1.610 . S
N674 C675 1.351 . S
C675 C669 1.428 . S
C675 N674 1.351 . S
C675 C676 1.434 . S
C676 C667 1.429 . S
C676 N673 1.350 . S
C676 C675 1.434 . S
C677 C678 1.369 . S
C677 C679 1.419 . S
C677 H681 0.930 . S
C678 C677 1.369 . S
C678 C687 1.429 . S
C679 C677 1.419 . S
C679 C680 1.363 . S
C679 H682 0.929 . S
C680 C679 1.363 . S
C680 C686 1.428 . S
H681 C677 0.930 . S
H682 C679 0.929 . S
S683 N684 1.613 . S
S683 N685 1.610 . S
N684 S683 1.613 . S
N684 C687 1.350 . S
N685 S683 1.610 . S
N685 C686 1.351 . S
C686 C680 1.428 . S
C686 N685 1.351 . S
C686 C687 1.434 . S
C687 C678 1.429 . S
C687 N684 1.350 . S
C687 C686 1.434 . S
C688 C689 1.369 . S
C688 C690 1.419 . S
C688 H692 0.930 . S
C689 C688 1.369 . S
C689 C698 1.429 . S
C690 C688 1.419 . S
C690 C691 1.363 . S
C690 H693 0.929 . S
C691 C690 1.363 . S
C691 C697 1.428 . S
H692 C688 0.930 . S
H693 C690 0.929 . S
S694 N695 1.613 . S
S694 N696 1.610 . S
N695 S694 1.613 . S
N695 C698 1.350 . S
N696 S694 1.610 . S
N696 C697 1.351 . S
C697 C691 1.428 . S
C697 N696 1.351 . S
C697 C698 1.434 . S
C698 C689 1.429 . S
C698 N695 1.350 . S
C698 C697 1.434 . S
C699 C700 1.369 . S
C699 C701 1.419 . S
C699 H703 0.930 . S
C700 C699 1.369 . S
C700 C709 1.429 . S
C701 C699 1.419 . S
C701 C702 1.363 . S
C701 H704 0.929 . S
C702 C701 1.363 . S
C702 C708 1.428 . S
H703 C699 0.930 . S
H704 C701 0.929 . S
S705 N706 1.613 . S
S705 N707 1.610 . S
N706 S705 1.613 . S
N706 C709 1.350 . S
N707 S705 1.610 . S
N707 C708 1.351 . S
C708 C702 1.428 . S
C708 N707 1.351 . S
C708 C709 1.434 . S
C709 C700 1.429 . S
C709 N706 1.350 . S
C709 C708 1.434 . S
C710 C711 1.369 . S
C710 C712 1.419 . S
C710 H714 0.930 . S
C711 C710 1.369 . S
C711 C720 1.429 . S
C712 C710 1.419 . S
C712 C713 1.363 . S
C712 H715 0.929 . S
C713 C712 1.363 . S
C713 C719 1.428 . S
H714 C710 0.930 . S
H715 C712 0.929 . S
S716 N717 1.613 . S
S716 N718 1.610 . S
N717 S716 1.613 . S
N717 C720 1.350 . S
N718 S716 1.610 . S
N718 C719 1.351 . S
C719 C713 1.428 . S
C719 N718 1.351 . S
C719 C720 1.434 . S
C720 C711 1.429 . S
C720 N717 1.350 . S
C720 C719 1.434 . S
C721 C722 1.369 . S
C721 C723 1.419 . S
C721 H725 0.930 . S
C722 C721 1.369 . S
C722 C731 1.429 . S
C723 C721 1.419 . S
C723 C724 1.363 . S
C723 H726 0.929 . S
C724 C723 1.363 . S
C724 C730 1.428 . S
H725 C721 0.930 . S
H726 C723 0.929 . S
S727 N728 1.613 . S
S727 N729 1.610 . S
N728 S727 1.613 . S
N728 C731 1.350 . S
N729 S727 1.610 . S
N729 C730 1.351 . S
C730 C724 1.428 . S
C730 N729 1.351 . S
C730 C731 1.434 . S
C731 C722 1.429 . S
C731 N728 1.350 . S
C731 C730 1.434 . S
C732 C733 1.369 . S
C732 C734 1.419 . S
C732 H736 0.930 . S
C733 C732 1.369 . S
C733 C742 1.429 . S
C734 C732 1.419 . S
C734 C735 1.363 . S
C734 H737 0.929 . S
C735 C734 1.363 . S
C735 C741 1.428 . S
H736 C732 0.930 . S
H737 C734 0.929 . S
S738 N739 1.613 1_655 S
S738 N740 1.610 . S
N739 S738 1.613 1_455 S
N739 C742 1.350 . S
N740 S738 1.610 . S
N740 C741 1.351 1_655 S
C741 C735 1.428 . S
C741 N740 1.351 1_455 S
C741 C742 1.434 . S
C742 C733 1.429 . S
C742 N739 1.350 . S
C742 C741 1.434 . S
C743 C744 1.369 . S
C743 C745 1.419 . S
C743 H747 0.930 . S
C744 C743 1.369 . S
C744 C753 1.429 . S
C745 C743 1.419 . S
C745 C746 1.363 . S
C745 H748 0.929 . S
C746 C745 1.363 . S
C746 C752 1.428 . S
H747 C743 0.930 . S
H748 C745 0.929 . S
S749 N750 1.613 . S
S749 N751 1.610 . S
N750 S749 1.613 . S
N750 C753 1.350 . S
N751 S749 1.610 . S
N751 C752 1.351 . S
C752 C746 1.428 . S
C752 N751 1.351 . S
C752 C753 1.434 . S
C753 C744 1.429 . S
C753 N750 1.350 . S
C753 C752 1.434 . S
C754 C755 1.369 . S
C754 C756 1.419 . S
C754 H758 0.930 . S
C755 C754 1.369 . S
C755 C764 1.429 . S
C756 C754 1.419 . S
C756 C757 1.363 . S
C756 H759 0.929 . S
C757 C756 1.363 . S
C757 C763 1.428 . S
H758 C754 0.930 . S
H759 C756 0.929 . S
S760 N761 1.613 . S
S760 N762 1.610 . S
N761 S760 1.613 . S
N761 C764 1.350 . S
N762 S760 1.610 . S
N762 C763 1.351 . S
C763 C757 1.428 . S
C763 N762 1.351 . S
C763 C764 1.434 . S
C764 C755 1.429 . S
C764 N761 1.350 . S
C764 C763 1.434 . S
C765 C766 1.369 . S
C765 C767 1.419 . S
C765 H769 0.930 . S
C766 C765 1.369 . S
C766 C775 1.429 . S
C767 C765 1.419 . S
C767 C768 1.363 . S
C767 H770 0.929 . S
C768 C767 1.363 . S
C768 C774 1.428 . S
H769 C765 0.930 . S
H770 C767 0.929 . S
S771 N772 1.613 . S
S771 N773 1.610 . S
N772 S771 1.613 . S
N772 C775 1.350 . S
N773 S771 1.610 . S
N773 C774 1.351 . S
C774 C768 1.428 . S
C774 N773 1.351 . S
C774 C775 1.434 . S
C775 C766 1.429 . S
C775 N772 1.350 . S
C775 C774 1.434 . S
C776 C777 1.369 . S
C776 C778 1.419 . S
C776 H780 0.930 . S
C777 C776 1.369 . S
C777 C786 1.429 . S
C778 C776 1.419 . S
C778 C779 1.363 . S
C778 H781 0.929 . S
C779 C778 1.363 . S
C779 C785 1.428 . S
H780 C776 0.930 . S
H781 C778 0.929 . S
S782 N783 1.613 . S
S782 N784 1.610 . S
N783 S782 1.613 . S
N783 C786 1.350 . S
N784 S782 1.610 . S
N784 C785 1.351 . S
C785 C779 1.428 . S
C785 N784 1.351 . S
C785 C786 1.434 . S
C786 C777 1.429 . S
C786 N783 1.350 . S
C786 C785 1.434 . S
C787 C788 1.369 . S
C787 C789 1.419 . S
C787 H791 0.930 . S
C788 C787 1.369 . S
C788 C797 1.429 . S
C789 C787 1.419 . S
C789 C790 1.363 . S
C789 H792 0.929 . S
C790 C789 1.363 . S
C790 C796 1.428 . S
H791 C787 0.930 . S
H792 C789 0.929 . S
S793 N794 1.613 . S
S793 N795 1.610 . S
N794 S793 1.613 . S
N794 C797 1.350 . S
N795 S793 1.610 . S
N795 C796 1.351 . S
C796 C790 1.428 . S
C796 N795 1.351 . S
C796 C797 1.434 . S
C797 C788 1.429 . S
C797 N794 1.350 . S
C797 C796 1.434 . S
C798 C799 1.369 . S
C798 C800 1.419 . S
C798 H802 0.930 . S
C799 C798 1.369 . S
C799 C808 1.429 . S
C800 C798 1.419 . S
C800 C801 1.363 . S
C800 H803 0.929 . S
C801 C800 1.363 . S
C801 C807 1.428 . S
H802 C798 0.930 . S
H803 C800 0.929 . S
S804 N805 1.613 . S
S804 N806 1.610 . S
N805 S804 1.613 . S
N805 C808 1.350 . S
N806 S804 1.610 . S
N806 C807 1.351 . S
C807 C801 1.428 . S
C807 N806 1.351 . S
C807 C808 1.434 . S
C808 C799 1.429 . S
C808 N805 1.350 . S
C808 C807 1.434 . S
C809 C810 1.369 . S
C809 C811 1.419 1_554 S
C809 H813 0.930 . S
C810 C809 1.369 . S
C810 C819 1.429 1_455 S
C811 C809 1.419 1_556 S
C811 C812 1.363 1_455 S
C811 H814 0.929 . S
C812 C811 1.363 1_655 S
C812 C818 1.428 . S
H813 C809 0.930 . S
H814 C811 0.929 . S
S815 N816 1.613 1_556 S
S815 N817 1.610 . S
N816 S815 1.613 1_554 S
N816 C819 1.350 . S
N817 S815 1.610 . S
N817 C818 1.351 . S
C818 C812 1.428 . S
C818 N817 1.351 . S
C818 C819 1.434 1_556 S
C819 C810 1.429 1_655 S
C819 N816 1.350 . S
C819 C818 1.434 1_554 S
C820 C821 1.369 . S
C820 C822 1.419 . S
C820 H824 0.930 . S
C821 C820 1.369 . S
C821 C830 1.429 . S
C822 C820 1.419 . S
C822 C823 1.363 . S
C822 H825 0.929 . S
C823 C822 1.363 . S
C823 C829 1.428 . S
H824 C820 0.930 . S
H825 C822 0.929 . S
S826 N827 1.613 . S
S826 N828 1.610 . S
N827 S826 1.613 . S
N827 C830 1.350 . S
N828 S826 1.610 . S
N828 C829 1.351 . S
C829 C823 1.428 . S
C829 N828 1.351 . S
C829 C830 1.434 . S
C830 C821 1.429 . S
C830 N827 1.350 . S
C830 C829 1.434 . S
C831 C832 1.369 . S
C831 C833 1.419 . S
C831 H835 0.930 . S
C832 C831 1.369 . S
C832 C841 1.429 . S
C833 C831 1.419 . S
C833 C834 1.363 . S
C833 H836 0.929 . S
C834 C833 1.363 . S
C834 C840 1.428 . S
H835 C831 0.930 . S
H836 C833 0.929 . S
S837 N838 1.613 . S
S837 N839 1.610 . S
N838 S837 1.613 . S
N838 C841 1.350 . S
N839 S837 1.610 . S
N839 C840 1.351 . S
C840 C834 1.428 . S
C840 N839 1.351 . S
C840 C841 1.434 . S
C841 C832 1.429 . S
C841 N838 1.350 . S
C841 C840 1.434 . S
C842 C843 1.369 1_565 S
C842 C844 1.419 . S
C842 H846 0.930 . S
C843 C842 1.369 1_545 S
C843 C852 1.429 1_456 S
C844 C842 1.419 . S
C844 C845 1.363 1_456 S
C844 H847 0.929 . S
C845 C844 1.363 1_654 S
C845 C851 1.428 1_565 S
H846 C842 0.930 . S
H847 C844 0.929 . S
S848 N849 1.613 . S
S848 N850 1.610 . S
N849 S848 1.613 . S
N849 C852 1.350 . S
N850 S848 1.610 . S
N850 C851 1.351 . S
C851 C845 1.428 1_545 S
C851 N850 1.351 . S
C851 C852 1.434 . S
C852 C843 1.429 1_654 S
C852 N849 1.350 . S
C852 C851 1.434 . S
C853 C854 1.369 . S
C853 C855 1.419 . S
C853 H857 0.930 . S
C854 C853 1.369 . S
C854 C863 1.429 1_545 S
C855 C853 1.419 . S
C855 C856 1.363 1_545 S
C855 H858 0.929 . S
C856 C855 1.363 1_565 S
C856 C862 1.428 . S
H857 C853 0.930 . S
H858 C855 0.929 . S
S859 N860 1.613 . S
S859 N861 1.610 . S
N860 S859 1.613 . S
N860 C863 1.350 . S
N861 S859 1.610 . S
N861 C862 1.351 . S
C862 C856 1.428 . S
C862 N861 1.351 . S
C862 C863 1.434 . S
C863 C854 1.429 1_565 S
C863 N860 1.350 . S
C863 C862 1.434 . S
C337 C18 1.294 . S
C339 C228 1.296 . S
C348 C39 1.290 . S
C350 C246 1.292 . S
C359 C60 1.304 . S
C361 C186 1.302 . S
C370 C78 1.303 . S
C372 C207 1.300 . S
C381 C102 1.298 . S
C383 C312 1.296 . S
C392 C123 1.296 . S
C394 C333 1.295 . S
C403 C144 1.296 . S
C405 C270 1.295 . S
C414 C165 1.290 . S
C416 C291 1.292 . S
C425 C205 1.464 . S
C427 C15 1.262 1_554 S
C436 C226 1.457 . S
C438 C36 1.258 . S
C447 C244 1.461 . S
C449 C57 1.251 . S
C458 C184 1.463 . S
C460 C81 1.250 . S
C469 C99 1.264 1_556 S
C471 C289 1.459 . S
C480 C310 1.459 . S
C482 C120 1.264 . S
C491 C331 1.458 . S
C493 C141 1.263 . S
C502 C268 1.467 . S
C504 C162 1.258 . S
C513 C37 1.467 . S
C515 C183 1.258 . S
C524 C204 1.247 1_565 S
C526 C58 1.463 . S
C535 C225 1.267 1_554 S
C537 C76 1.461 . S
C546 C249 1.267 1_545 S
C548 C16 1.462 . S
C557 C267 1.260 . S
C559 C121 1.466 . S
C568 C142 1.466 . S
C570 C288 1.261 1_545 S
C579 C163 1.464 . S
C581 C309 1.250 1_556 S
C590 C330 1.253 1_565 S
C592 C100 1.466 . S
C601 C13 1.192 . S
C603 C329 1.185 . S
C612 C34 1.190 . S
C614 C98 1.186 . S
C623 C287 1.175 1_455 S
C625 C55 1.199 . S
C634 C140 1.185 . S
C636 C79 1.193 . S
C645 C97 1.201 . S
C647 C248 1.176 . S
C656 C118 1.201 . S
C658 C14 1.176 . S
C667 C203 1.183 1_655 S
C669 C139 1.194 . S
C678 C56 1.178 . S
C680 C160 1.198 . S
C689 C181 1.199 . S
C691 C161 1.178 1_655 S
C700 C202 1.201 . S
C702 C266 1.176 . S
C711 C119 1.187 . S
C713 C223 1.192 . S
C722 C308 1.174 . S
C724 C247 1.200 . S
C733 C265 1.202 . S
C735 C80 1.176 1_455 S
C744 C286 1.201 . S
C746 C182 1.176 . S
C755 C307 1.192 . S
C757 C35 1.184 . S
C766 C224 1.175 . S
C768 C328 1.199 . S
C777 C17 1.758 . S
C779 C269 1.755 . S
C788 C38 1.754 . S
C790 C122 1.758 . S
C799 C59 1.754 . S
C801 C311 1.757 . S
C810 C164 1.753 . S
C812 C77 1.758 . S
C821 C101 1.753 . S
C823 C185 1.758 . S
C832 C227 1.754 . S
C834 C143 1.757 . S
C843 C206 1.753 . S
C845 C290 1.758 . S
C854 C332 1.757 . S
C856 C245 1.755 . S
