# Generated by pormake.
# Topology vmi, (6)-cn, num edge types: 1
# Building blocks:
#     Node 0, Type 0, BuildingBlock: IZENUY_clean_sbu_0, # of connection points: 6
#     Node 1, Type 0, BuildingBlock: IZENUY_clean_sbu_0, # of connection points: 6
#     Node 2, Type 0, BuildingBlock: IZENUY_clean_sbu_0, # of connection points: 6
#     Node 3, Type 0, BuildingBlock: IZENUY_clean_sbu_0, # of connection points: 6
#     Node 4, Type 0, BuildingBlock: IZENUY_clean_sbu_0, # of connection points: 6
#     Node 5, Type 0, BuildingBlock: IZENUY_clean_sbu_0, # of connection points: 6
#     Node 6, Type 0, BuildingBlock: IZENUY_clean_sbu_0, # of connection points: 6
#     Node 7, Type 0, BuildingBlock: IZENUY_clean_sbu_0, # of connection points: 6
#     Edge 8, Type (0, 0), BuildingBlock: OJICUG_clean_linker_0, # of connection points: 2
#     Edge 9, Type (0, 0), BuildingBlock: OJICUG_clean_linker_0, # of connection points: 2
#     Edge 10, Type (0, 0), BuildingBlock: OJICUG_clean_linker_0, # of connection points: 2
#     Edge 11, Type (0, 0), BuildingBlock: OJICUG_clean_linker_0, # of connection points: 2
#     Edge 12, Type (0, 0), BuildingBlock: OJICUG_clean_linker_0, # of connection points: 2
#     Edge 13, Type (0, 0), BuildingBlock: OJICUG_clean_linker_0, # of connection points: 2
#     Edge 14, Type (0, 0), BuildingBlock: OJICUG_clean_linker_0, # of connection points: 2
#     Edge 15, Type (0, 0), BuildingBlock: OJICUG_clean_linker_0, # of connection points: 2
#     Edge 16, Type (0, 0), BuildingBlock: OJICUG_clean_linker_0, # of connection points: 2
#     Edge 17, Type (0, 0), BuildingBlock: OJICUG_clean_linker_0, # of connection points: 2
#     Edge 18, Type (0, 0), BuildingBlock: OJICUG_clean_linker_0, # of connection points: 2
#     Edge 19, Type (0, 0), BuildingBlock: OJICUG_clean_linker_0, # of connection points: 2
#     Edge 20, Type (0, 0), BuildingBlock: OJICUG_clean_linker_0, # of connection points: 2
#     Edge 21, Type (0, 0), BuildingBlock: OJICUG_clean_linker_0, # of connection points: 2
#     Edge 22, Type (0, 0), BuildingBlock: OJICUG_clean_linker_0, # of connection points: 2
#     Edge 23, Type (0, 0), BuildingBlock: OJICUG_clean_linker_0, # of connection points: 2
#     Edge 24, Type (0, 0), BuildingBlock: OJICUG_clean_linker_0, # of connection points: 2
#     Edge 25, Type (0, 0), BuildingBlock: OJICUG_clean_linker_0, # of connection points: 2
#     Edge 26, Type (0, 0), BuildingBlock: OJICUG_clean_linker_0, # of connection points: 2
#     Edge 27, Type (0, 0), BuildingBlock: OJICUG_clean_linker_0, # of connection points: 2
#     Edge 28, Type (0, 0), BuildingBlock: OJICUG_clean_linker_0, # of connection points: 2
#     Edge 29, Type (0, 0), BuildingBlock: OJICUG_clean_linker_0, # of connection points: 2
#     Edge 30, Type (0, 0), BuildingBlock: OJICUG_clean_linker_0, # of connection points: 2
#     Edge 31, Type (0, 0), BuildingBlock: OJICUG_clean_linker_0, # of connection points: 2
# Relax obj value: 0.332
# Max RMSD: 0.290
# Mean RMSD: 0.290
data_MOF--net-vmi--node1-IZENUY_clean_sbu_0--edge1-OJICUG_clean_linker_0
_symmetry_space_group_name_H-M    P1
_symmetry_Int_Tables_number       1
_symmetry_cell_setting            triclinic
loop_
_symmetry_equiv_pos_as_xyz
'x, y, z'
_cell_length_a     19.709428
_cell_length_b     33.564874
_cell_length_c     21.730249
_cell_angle_alpha  89.92936
_cell_angle_beta   109.30541
_cell_angle_gamma 90.030281
loop_
_atom_site_label
_atom_site_type_symbol
_atom_site_fract_x
_atom_site_fract_y
_atom_site_fract_z
_atom_type_partial_charge
Fe0 Fe 0.19992 0.04145 0.25944 0.0
Fe1 Fe 0.16489 0.12155 0.18456 0.0
O2 O 0.22666 0.08826 0.23822 0.0
Fe3 Fe 0.31823 0.10188 0.27064 0.0
O4 O 0.35486 0.05153 0.28656 0.0
O5 O 0.26524 0.01417 0.23164 0.0
O6 O 0.1337 0.03181 0.1792 0.0
C7 C 0.11943 0.04945 0.1249 0.0
C8 C 0.28663 0.07582 0.37713 0.0
O9 O 0.13803 0.08492 0.12077 0.0
C10 C 0.25122 0.17696 0.26233 0.0
O11 O 0.13273 0.0638 0.28852 0.0
O12 O 0.08784 0.10814 0.21104 0.0
O13 O 0.31039 0.10467 0.35214 0.0
O14 O 0.26126 0.0448 0.34386 0.0
C15 C 0.28234 0.1186 0.14053 0.0
O16 O 0.1884 0.16233 0.24388 0.0
O17 O 0.30363 0.15537 0.26292 0.0
C18 C 0.08184 0.08606 0.25638 0.0
O19 O 0.2305 0.13844 0.14711 0.0
O20 O 0.32426 0.09886 0.18807 0.0
C21 C 0.33194 0.01949 0.25715 0.0
Fe22 Fe 0.39327 0.12162 0.83133 0.0
Fe23 Fe 0.24007 0.10198 0.7448 0.0
O24 O 0.33162 0.08837 0.77753 0.0
Fe25 Fe 0.35843 0.04159 0.7565 0.0
O26 O 0.42447 0.03187 0.83682 0.0
O27 O 0.42002 0.0849 0.89515 0.0
O28 O 0.32746 0.13836 0.86859 0.0
C29 C 0.27548 0.11848 0.87487 0.0
C30 C 0.47659 0.08627 0.75975 0.0
O31 O 0.23365 0.09885 0.8272 0.0
C32 C 0.27208 0.07599 0.63859 0.0
O33 O 0.36991 0.16251 0.77204 0.0
O34 O 0.25461 0.15548 0.75253 0.0
O35 O 0.42578 0.06397 0.7276 0.0
O36 O 0.47045 0.10832 0.805 0.0
C37 C 0.22625 0.0196 0.75844 0.0
O38 O 0.24828 0.10486 0.66342 0.0
O39 O 0.29732 0.04497 0.672 0.0
C40 C 0.30708 0.17713 0.7534 0.0
O41 O 0.20345 0.05163 0.72883 0.0
O42 O 0.29293 0.01428 0.78417 0.0
C43 C 0.43868 0.04946 0.8911 0.0
Fe44 Fe 0.85834 0.98168 0.7566 0.0
Fe45 Fe 0.73999 0.92128 0.74534 0.0
O46 O 0.83156 0.93488 0.77781 0.0
Fe47 Fe 0.89329 0.90159 0.83152 0.0
O48 O 0.92015 0.93823 0.8953 0.0
O49 O 0.92452 0.99133 0.83685 0.0
O50 O 0.793 1.00897 0.78436 0.0
C51 C 0.7263 1.00367 0.7588 0.0
C52 C 0.97642 0.93704 0.75973 0.0
O53 O 0.70339 0.97164 0.72936 0.0
C54 C 0.80694 0.84618 0.75371 0.0
O55 O 0.79705 0.97832 0.67216 0.0
O56 O 0.74791 0.91846 0.66388 0.0
O57 O 0.97038 0.91496 0.80506 0.0
O58 O 0.92555 0.95932 0.72758 0.0
C59 C 0.77578 0.90462 0.87545 0.0
O60 O 0.75455 0.86778 0.75311 0.0
O61 O 0.86978 0.86079 0.77222 0.0
C62 C 0.77171 0.9473 0.6389 0.0
O63 O 0.73388 0.92433 0.82786 0.0
O64 O 0.82762 0.88475 0.86895 0.0
C65 C 0.93876 0.97369 0.89116 0.0
Fe66 Fe 0.81815 0.92104 0.27118 0.0
Fe67 Fe 0.66491 0.90143 0.18474 0.0
O68 O 0.72661 0.93467 0.2385 0.0
Fe69 Fe 0.69984 0.98147 0.25953 0.0
O70 O 0.76534 1.00876 0.23184 0.0
O71 O 0.85481 0.97139 0.28711 0.0
O72 O 0.8245 0.92414 0.18874 0.0
C73 C 0.78264 0.90448 0.14111 0.0
C74 C 0.78625 0.94707 0.37743 0.0
O75 O 0.73067 0.88464 0.14747 0.0
C76 C 0.58165 0.93684 0.25632 0.0
O77 O 0.80354 0.86755 0.26349 0.0
O78 O 0.68825 0.86056 0.24406 0.0
O79 O 0.76099 0.97809 0.34403 0.0
O80 O 0.81001 0.9182 0.35259 0.0
C81 C 0.61955 0.97359 0.12495 0.0
O82 O 0.58775 0.91478 0.21106 0.0
O83 O 0.6325 0.95911 0.28847 0.0
C84 C 0.75106 0.84592 0.26267 0.0
O85 O 0.63818 0.93814 0.1209 0.0
O86 O 0.63378 0.99119 0.17922 0.0
C87 C 0.83201 1.00343 0.25755 0.0
Fe88 Fe 0.66435 0.62179 0.684 0.0
Fe89 Fe 0.81795 0.60209 0.76936 0.0
O90 O 0.72635 0.58847 0.73737 0.0
Fe91 Fe 0.69979 0.54164 0.75869 0.0
O92 O 0.63325 0.53204 0.67861 0.0
O93 O 0.6372 0.5852 0.62014 0.0
O94 O 0.72961 0.63877 0.64622 0.0
C95 C 0.78125 0.61893 0.63922 0.0
C96 C 0.58187 0.5862 0.75626 0.0
O97 O 0.8234 0.59915 0.68658 0.0
C98 C 0.78711 0.57593 0.87619 0.0
O99 O 0.68816 0.66251 0.74343 0.0
O100 O 0.8033 0.65558 0.76186 0.0
O101 O 0.63289 0.56395 0.78819 0.0
O102 O 0.58759 0.60831 0.71084 0.0
C103 C 0.83154 0.51969 0.75565 0.0
O104 O 0.81068 0.6048 0.85108 0.0
O105 O 0.76154 0.54494 0.84295 0.0
C106 C 0.751 0.67714 0.7617 0.0
O107 O 0.85462 0.55173 0.785 0.0
O108 O 0.76481 0.51438 0.73047 0.0
C109 C 0.61877 0.5497 0.6243 0.0
Fe110 Fe 0.89282 0.6214 0.33079 0.0
Fe111 Fe 0.73986 0.60184 0.24354 0.0
O112 O 0.83137 0.5882 0.2767 0.0
Fe113 Fe 0.85833 0.54143 0.25575 0.0
O114 O 0.92403 0.53165 0.33624 0.0
O115 O 0.91926 0.58464 0.39453 0.0
O116 O 0.82668 0.63806 0.36773 0.0
C117 C 0.77448 0.61819 0.37358 0.0
C118 C 0.97668 0.58613 0.25964 0.0
O119 O 0.73285 0.59863 0.32571 0.0
C120 C 0.77261 0.57594 0.13767 0.0
O121 O 0.86979 0.66236 0.27163 0.0
O122 O 0.75441 0.65533 0.2515 0.0
O123 O 0.92599 0.56383 0.22729 0.0
O124 O 0.97028 0.60815 0.30482 0.0
C125 C 0.72586 0.51946 0.25694 0.0
O126 O 0.74865 0.60479 0.16239 0.0
O127 O 0.79763 0.54488 0.17109 0.0
C128 C 0.80698 0.677 0.25281 0.0
O129 O 0.70326 0.5515 0.22727 0.0
O130 O 0.79249 0.51413 0.283 0.0
C131 C 0.93805 0.54922 0.39051 0.0
Fe132 Fe 0.3581 0.48141 0.25631 0.0
Fe133 Fe 0.24001 0.42093 0.2457 0.0
O134 O 0.3316 0.43457 0.27763 0.0
Fe135 Fe 0.39366 0.40126 0.33095 0.0
O136 O 0.42081 0.43783 0.39483 0.0
O137 O 0.42468 0.49101 0.33637 0.0
O138 O 0.29311 0.50866 0.28457 0.0
C139 C 0.22638 0.50333 0.25942 0.0
C140 C 0.47605 0.43691 0.25867 0.0
O141 O 0.20329 0.47128 0.23013 0.0
C142 C 0.30703 0.34591 0.25325 0.0
O143 O 0.29631 0.47812 0.17206 0.0
O144 O 0.24719 0.41825 0.16395 0.0
O145 O 0.47038 0.41478 0.30408 0.0
O146 O 0.42499 0.45913 0.22675 0.0
C147 C 0.27686 0.40403 0.37585 0.0
O148 O 0.25473 0.36744 0.25315 0.0
O149 O 0.36985 0.36056 0.27148 0.0
C150 C 0.27071 0.44713 0.13882 0.0
O151 O 0.23465 0.42383 0.32854 0.0
O152 O 0.32846 0.38422 0.36874 0.0
C153 C 0.43921 0.47334 0.39067 0.0
Fe154 Fe 0.31809 0.42133 0.77153 0.0
Fe155 Fe 0.16517 0.40174 0.68419 0.0
O156 O 0.22657 0.43494 0.73832 0.0
Fe157 Fe 0.19958 0.48171 0.75925 0.0
O158 O 0.26542 0.50902 0.73204 0.0
O159 O 0.35466 0.47168 0.78785 0.0
O160 O 0.32518 0.42457 0.6894 0.0
C161 C 0.28355 0.40506 0.64148 0.0
C162 C 0.28522 0.44719 0.87735 0.0
O163 O 0.23135 0.38515 0.64724 0.0
C164 C 0.08124 0.43698 0.75532 0.0
O165 O 0.3036 0.36783 0.76351 0.0
O166 O 0.18822 0.36076 0.74332 0.0
O167 O 0.26023 0.47825 0.84393 0.0
O168 O 0.30922 0.41835 0.85265 0.0
C169 C 0.1199 0.47393 0.62449 0.0
O170 O 0.08768 0.41495 0.71016 0.0
O171 O 0.1319 0.45929 0.78768 0.0
C172 C 0.25104 0.34614 0.7622 0.0
O173 O 0.13869 0.43851 0.62046 0.0
O174 O 0.1339 0.49149 0.67876 0.0
C175 C 0.33206 0.50371 0.75815 0.0
C176 C 0.50538 0.96266 0.31869 0.0
C177 C 0.50966 0.94541 0.26126 0.0
H178 H 0.44477 0.99913 0.36215 0.0
C179 C 0.44787 0.94582 0.20504 0.0
H180 H 0.55176 0.9628 0.3628 0.0
C181 C 0.38593 0.96687 0.20467 0.0
C182 C 0.38525 0.98773 0.26046 0.0
H183 H 0.44967 0.93323 0.15974 0.0
H184 H 0.34151 0.96977 0.15942 0.0
C185 C 0.4441 0.98364 0.31821 0.0
C186 C 0.11025 0.94593 0.8108 0.0
C187 C 0.04837 0.94562 0.75466 0.0
H188 H 0.21671 0.96977 0.85626 0.0
C189 C 0.05258 0.96294 0.69718 0.0
H190 H 0.1085 0.93328 0.85613 0.0
C191 C 0.11389 0.98389 0.69756 0.0
C192 C 0.17285 0.98788 0.75524 0.0
H193 H 1.00614 0.96315 0.65313 0.0
H194 H 0.11318 0.99942 0.65358 0.0
C195 C 0.17221 0.96695 0.81106 0.0
C196 C 0.61415 0.03954 0.69779 0.0
C197 C 0.673 0.03543 0.75554 0.0
H198 H 0.5065 0.06039 0.65322 0.0
C199 C 0.6723 0.05625 0.81136 0.0
H200 H 0.6135 0.02408 0.65383 0.0
C201 C 0.61036 0.07728 0.81101 0.0
C202 C 0.54858 0.07772 0.7548 0.0
H203 H 0.71672 0.05332 0.85661 0.0
H204 H 0.60855 0.08984 0.85634 0.0
C205 C 0.55287 0.06051 0.69733 0.0
C206 C 0.9444 0.0391 0.31848 0.0
C207 C 0.88543 0.03515 0.2608 0.0
H208 H 0.05214 0.05983 0.36294 0.0
C209 C 0.88606 0.05613 0.20501 0.0
H210 H 0.94511 0.02354 0.36243 0.0
C211 C 0.94801 0.07716 0.20531 0.0
C212 C 1.0099 0.07743 0.26145 0.0
H213 H 0.84154 0.05333 0.15982 0.0
H214 H 0.94974 0.08985 0.16 0.0
C215 C 1.0057 0.06007 0.31889 0.0
C216 C 1.0045 0.46248 0.81745 0.0
C217 C 1.0091 0.44547 0.75996 0.0
H218 H 0.94367 0.49883 0.86087 0.0
C219 C 0.94758 0.44614 0.70352 0.0
H220 H 0.05067 0.46243 0.86172 0.0
C221 C 0.88564 0.46722 0.70302 0.0
C222 C 0.88469 0.48786 0.75893 0.0
H223 H 0.94966 0.43375 0.65817 0.0
H224 H 0.84147 0.47035 0.65765 0.0
C225 C 0.94322 0.48351 0.81685 0.0
C226 C 0.67195 0.46661 0.30933 0.0
C227 C 0.67227 0.48782 0.25367 0.0
H228 H 0.60858 0.43271 0.35444 0.0
C229 C 0.61298 0.48413 0.19617 0.0
H230 H 0.71673 0.46918 0.35438 0.0
C231 C 0.55169 0.4632 0.1959 0.0
C232 C 0.54784 0.44559 0.25329 0.0
H233 H 0.61203 0.49986 0.1523 0.0
H234 H 0.50504 0.46363 0.15203 0.0
C235 C 0.61001 0.44561 0.30917 0.0
C236 C 0.11032 0.57692 0.31146 0.0
C237 C 0.04881 0.57758 0.25501 0.0
H238 H 0.21642 0.55272 0.35737 0.0
C239 C 0.05341 0.56053 0.19755 0.0
H240 H 0.10824 0.58935 0.35679 0.0
C241 C 0.11469 0.53949 0.19818 0.0
C242 C 0.17323 0.53517 0.25611 0.0
H243 H 1.00724 0.56057 0.15327 0.0
H244 H 0.11425 0.52414 0.15419 0.0
C245 C 0.17226 0.55583 0.31199 0.0
C246 C 0.44792 0.57748 0.70576 0.0
C247 C 0.51008 0.57754 0.76165 0.0
H248 H 0.34121 0.55389 0.66059 0.0
C249 C 0.50621 0.55999 0.81908 0.0
H250 H 0.44938 0.59033 0.66047 0.0
C251 C 0.44492 0.53907 0.81884 0.0
C252 C 0.38564 0.53534 0.76135 0.0
H253 H 0.55286 0.5596 0.86295 0.0
H254 H 0.44587 0.52338 0.86275 0.0
C255 C 0.38598 0.5565 0.70564 0.0
C256 C 0.0384 0.99404 0.06874 0.0
C257 C 0.07445 0.02956 0.06514 0.0
H258 H 0.96602 0.94889 0.01646 0.0
C259 C 0.06482 0.04691 1.00392 0.0
H260 H 0.04427 0.98018 0.11527 0.0
C261 C 1.01976 0.02912 0.94732 0.0
C262 C 0.98372 0.99359 0.95093 0.0
H263 H 0.09214 0.07426 0.9996 0.0
H264 H 1.01389 0.04298 0.90079 0.0
C265 C 0.99334 0.97624 0.01215 0.0
C266 C 0.53841 0.02899 0.06871 0.0
C267 C 0.57454 0.99352 0.06515 0.0
H268 H 0.46591 0.07412 0.01639 0.0
C269 C 0.56492 0.97623 1.00395 0.0
H270 H 0.54426 0.0428 0.11523 0.0
C271 C 0.5198 0.99405 0.94733 0.0
C272 C 0.48368 0.02953 0.9509 0.0
H273 H 0.5923 0.94892 0.99966 0.0
H274 H 0.51395 0.98025 0.90082 0.0
C275 C 0.49328 0.04681 0.0121 0.0
C276 C 0.56384 0.54717 0.50334 0.0
C277 C 0.574 0.5297 0.56457 0.0
H278 H 0.51282 0.54316 0.40024 0.0
C279 C 0.53887 0.49385 0.5682 0.0
H280 H 0.59046 0.57477 0.49899 0.0
C281 C 0.49418 0.47586 0.51163 0.0
C282 C 0.48401 0.49333 0.45041 0.0
H283 H 0.5452 0.47987 0.61473 0.0
H284 H 0.46756 0.44826 0.51598 0.0
C285 C 0.51915 0.52918 0.44677 0.0
C286 C 0.03789 0.52898 0.56817 0.0
C287 C 0.07474 0.49376 0.56466 0.0
H288 H 0.96453 0.57373 0.51577 0.0
C289 C 0.06551 0.47655 0.50347 0.0
H290 H 0.04341 0.54271 0.61467 0.0
C291 C 1.02006 0.49418 0.44683 0.0
C292 C 0.98321 0.52939 0.45034 0.0
H293 H 0.09343 0.44943 0.49923 0.0
H294 H 1.01455 0.48045 0.40033 0.0
C295 C 0.99244 0.54661 0.51152 0.0
C296 C 0.27242 0.15377 0.97375 0.0
C297 C 0.26898 0.1177 0.94032 0.0
H298 H 0.28072 0.18214 0.06415 0.0
C299 C 0.27591 0.08163 0.97479 0.0
H300 H 0.26928 0.18195 0.94854 0.0
C301 C 0.286 0.08179 0.04185 0.0
C302 C 0.28848 0.11802 0.07489 0.0
H303 H 0.27599 0.05351 0.95038 0.0
H304 H 0.28945 0.05371 0.06736 0.0
C305 C 0.28081 0.1539 0.04004 0.0
C306 C 0.77422 0.94141 0.97474 0.0
C307 C 0.76954 0.90526 0.94102 0.0
H308 H 0.78596 0.96949 0.06673 0.0
C309 C 0.77515 0.86925 0.9752 0.0
H310 H 0.77248 0.96954 0.94975 0.0
C311 C 0.78354 0.86922 0.0415 0.0
C312 C 0.78905 0.9052 0.0756 0.0
H313 H 0.77364 0.84103 0.95057 0.0
H314 H 0.78508 0.84098 0.06618 0.0
C315 C 0.78431 0.94138 0.04181 0.0
C316 C 0.7775 0.58157 0.47431 0.0
C317 C 0.76745 0.61737 0.43879 0.0
H318 H 0.7935 0.55413 0.56768 0.0
C319 C 0.76774 0.65352 0.47113 0.0
H320 H 0.78014 0.55346 0.45074 0.0
C321 C 0.77607 0.65395 0.53741 0.0
C322 C 0.78681 0.61834 0.57333 0.0
H323 H 0.76233 0.68155 0.44512 0.0
H324 H 0.7737 0.68221 0.5607 0.0
C325 C 0.78751 0.58206 0.54135 0.0
C326 C 0.29258 0.36981 0.54471 0.0
C327 C 0.29066 0.40595 0.57632 0.0
H328 H 0.28833 0.34098 0.45572 0.0
C329 C 0.27835 0.44153 0.5401 0.0
H330 H 0.29964 0.34191 0.57127 0.0
C331 C 0.26842 0.44084 0.47307 0.0
C332 C 0.27143 0.40459 0.44182 0.0
H333 H 0.2739 0.46958 0.56311 0.0
H334 H 0.26065 0.46863 0.44621 0.0
C335 C 0.28429 0.3692 0.47845 0.0
C336 C 0.28292 0.04112 0.47717 0.0
C337 C 0.28716 0.07704 0.44542 0.0
H338 H 0.27338 0.01278 0.56178 0.0
C339 C 0.28353 0.11324 0.47682 0.0
H340 H 0.28502 0.0127 0.45428 0.0
C341 C 0.27537 0.11329 0.53871 0.0
C342 C 0.27157 0.07714 0.5703 0.0
H343 H 0.28541 0.14139 0.45302 0.0
H344 H 0.27362 0.14147 0.56236 0.0
C345 C 0.27562 0.04117 0.53874 0.0
C346 C 0.77475 0.90986 0.5392 0.0
C347 C 0.77124 0.94606 0.57062 0.0
H348 H 0.78455 0.8816 0.45364 0.0
C349 C 0.7756 0.98198 0.53889 0.0
H350 H 0.77277 0.88171 0.56299 0.0
C351 C 0.7829 0.98191 0.47733 0.0
C352 C 0.78682 0.94593 0.44574 0.0
H353 H 0.77359 1.01041 0.5618 0.0
H354 H 0.78523 1.01029 0.4543 0.0
C355 C 0.78291 0.90979 0.47731 0.0
C356 C 0.78386 0.6133 0.97586 0.0
C357 C 0.78796 0.57713 0.94457 0.0
H358 H 0.77351 0.64145 0.06128 0.0
C359 C 0.78433 0.54118 0.97647 0.0
H360 H 0.78527 0.64146 0.95193 0.0
C361 C 0.77705 0.54117 0.03805 0.0
C362 C 0.77241 0.57711 0.06946 0.0
H363 H 0.78681 0.51278 0.95366 0.0
H364 H 0.77521 0.51276 0.06117 0.0
C365 C 0.77571 0.61328 0.03775 0.0
C366 C 0.28058 0.48193 0.97693 0.0
C367 C 0.28537 0.446 0.94554 0.0
H368 H 0.27073 0.5103 0.06131 0.0
C369 C 0.28217 0.40982 0.97726 0.0
H370 H 0.28234 0.51035 0.95379 0.0
C371 C 0.27402 0.40979 0.03916 0.0
C372 C 0.2698 0.44595 0.07043 0.0
H373 H 0.28448 0.38166 0.95376 0.0
H374 H 0.27271 0.38162 0.06311 0.0
C375 C 0.2733 0.48191 0.0385 0.0
C376 C 0.20819 0.24727 0.23342 0.0
C377 C 0.26383 0.22063 0.26404 0.0
H378 H 0.17892 0.30733 0.20356 0.0
C379 C 0.33493 0.23535 0.28833 0.0
H380 H 0.15323 0.23692 0.21297 0.0
C381 C 0.3501 0.2756 0.28195 0.0
C382 C 0.29445 0.30224 0.25137 0.0
H383 H 0.37937 0.21555 0.31185 0.0
H384 H 0.40505 0.28595 0.30243 0.0
C385 C 0.22335 0.28752 0.22705 0.0
C386 C 0.35004 0.2475 0.78197 0.0
C387 C 0.29442 0.22082 0.75153 0.0
H388 H 0.37929 0.30756 0.8116 0.0
C389 C 0.2233 0.23553 0.72719 0.0
H390 H 0.40501 0.23717 0.80244 0.0
C391 C 0.20811 0.27578 0.73339 0.0
C392 C 0.26373 0.30246 0.76386 0.0
H393 H 0.17887 0.21571 0.70379 0.0
H394 H 0.15314 0.2861 0.71294 0.0
C395 C 0.33485 0.28775 0.78818 0.0
C396 C 0.70796 0.74753 0.73369 0.0
C397 C 0.76364 0.72082 0.76383 0.0
H398 H 0.67865 0.80767 0.70445 0.0
C399 C 0.83478 0.7355 0.78801 0.0
H400 H 0.65297 0.73722 0.71334 0.0
C401 C 0.84993 0.77579 0.78196 0.0
C402 C 0.79425 0.8025 0.75179 0.0
H403 H 0.87924 0.71565 0.81117 0.0
H404 H 0.90493 0.7861 0.80229 0.0
C405 C 0.72311 0.78782 0.72763 0.0
C406 C 0.84994 0.74728 0.28227 0.0
C407 C 0.79437 0.72068 0.25134 0.0
H408 H 0.87914 0.80726 0.31252 0.0
C409 C 0.72329 0.73543 0.22688 0.0
H410 H 0.90488 0.73692 0.30285 0.0
C411 C 0.70809 0.77564 0.23339 0.0
C412 C 0.76367 0.80224 0.26429 0.0
H413 H 0.67889 0.71567 0.20311 0.0
H414 H 0.65315 0.786 0.21279 0.0
C415 C 0.83474 0.78749 0.28877 0.0
loop_
_geom_bond_atom_site_label_1
_geom_bond_atom_site_label_2
_geom_bond_distance
_geom_bond_site_symmetry_2
_ccdc_geom_bond_type
Fe0 O2 1.918 . S
Fe0 O5 1.997 . S
Fe0 O6 2.002 . S
Fe0 O11 1.976 . S
Fe0 O14 1.996 . S
Fe1 O2 1.918 . S
Fe1 O9 1.997 . S
Fe1 O12 1.996 . S
Fe1 O16 1.976 . S
Fe1 O19 2.002 . S
O2 Fe0 1.918 . S
O2 Fe1 1.918 . S
O2 Fe3 1.918 . S
Fe3 O2 1.918 . S
Fe3 O4 2.002 . S
Fe3 O13 1.976 . S
Fe3 O17 1.996 . S
Fe3 O20 1.997 . S
O4 Fe3 2.002 . S
O4 C21 1.295 . S
O5 Fe0 1.997 . S
O5 C21 1.235 . S
O6 Fe0 2.002 . S
O6 C7 1.295 . S
C7 O6 1.295 . S
C7 O9 1.235 . S
C8 O13 1.287 . S
C8 O14 1.255 . S
O9 Fe1 1.997 . S
O9 C7 1.235 . S
C10 O16 1.287 . S
C10 O17 1.255 . S
O11 Fe0 1.976 . S
O11 C18 1.287 . S
O12 Fe1 1.996 . S
O12 C18 1.255 . S
O13 Fe3 1.976 . S
O13 C8 1.287 . S
O14 Fe0 1.996 . S
O14 C8 1.255 . S
C15 O19 1.295 . S
C15 O20 1.235 . S
O16 Fe1 1.976 . S
O16 C10 1.287 . S
O17 Fe3 1.996 . S
O17 C10 1.255 . S
C18 O11 1.287 . S
C18 O12 1.255 . S
O19 Fe1 2.002 . S
O19 C15 1.295 . S
O20 Fe3 1.997 . S
O20 C15 1.235 . S
C21 O4 1.295 . S
C21 O5 1.235 . S
Fe22 O24 1.918 . S
Fe22 O27 1.997 . S
Fe22 O28 2.002 . S
Fe22 O33 1.976 . S
Fe22 O36 1.996 . S
Fe23 O24 1.918 . S
Fe23 O31 1.997 . S
Fe23 O34 1.996 . S
Fe23 O38 1.976 . S
Fe23 O41 2.002 . S
O24 Fe22 1.918 . S
O24 Fe23 1.918 . S
O24 Fe25 1.918 . S
Fe25 O24 1.918 . S
Fe25 O26 2.002 . S
Fe25 O35 1.976 . S
Fe25 O39 1.996 . S
Fe25 O42 1.997 . S
O26 Fe25 2.002 . S
O26 C43 1.295 . S
O27 Fe22 1.997 . S
O27 C43 1.235 . S
O28 Fe22 2.002 . S
O28 C29 1.295 . S
C29 O28 1.295 . S
C29 O31 1.235 . S
C30 O35 1.287 . S
C30 O36 1.255 . S
O31 Fe23 1.997 . S
O31 C29 1.235 . S
C32 O38 1.287 . S
C32 O39 1.255 . S
O33 Fe22 1.976 . S
O33 C40 1.287 . S
O34 Fe23 1.996 . S
O34 C40 1.255 . S
O35 Fe25 1.976 . S
O35 C30 1.287 . S
O36 Fe22 1.996 . S
O36 C30 1.255 . S
C37 O41 1.295 . S
C37 O42 1.235 . S
O38 Fe23 1.976 . S
O38 C32 1.287 . S
O39 Fe25 1.996 . S
O39 C32 1.255 . S
C40 O33 1.287 . S
C40 O34 1.255 . S
O41 Fe23 2.002 . S
O41 C37 1.295 . S
O42 Fe25 1.997 . S
O42 C37 1.235 . S
C43 O26 1.295 . S
C43 O27 1.235 . S
Fe44 O46 1.918 . S
Fe44 O49 1.997 . S
Fe44 O50 2.002 . S
Fe44 O55 1.976 . S
Fe44 O58 1.996 . S
Fe45 O46 1.918 . S
Fe45 O53 1.997 . S
Fe45 O56 1.996 . S
Fe45 O60 1.976 . S
Fe45 O63 2.002 . S
O46 Fe44 1.918 . S
O46 Fe45 1.918 . S
O46 Fe47 1.918 . S
Fe47 O46 1.918 . S
Fe47 O48 2.002 . S
Fe47 O57 1.976 . S
Fe47 O61 1.996 . S
Fe47 O64 1.997 . S
O48 Fe47 2.002 . S
O48 C65 1.295 . S
O49 Fe44 1.997 . S
O49 C65 1.235 . S
O50 Fe44 2.002 . S
O50 C51 1.295 . S
C51 O50 1.295 . S
C51 O53 1.235 . S
C52 O57 1.287 . S
C52 O58 1.255 . S
O53 Fe45 1.997 . S
O53 C51 1.235 . S
C54 O60 1.287 . S
C54 O61 1.255 . S
O55 Fe44 1.976 . S
O55 C62 1.287 . S
O56 Fe45 1.996 . S
O56 C62 1.255 . S
O57 Fe47 1.976 . S
O57 C52 1.287 . S
O58 Fe44 1.996 . S
O58 C52 1.255 . S
C59 O63 1.295 . S
C59 O64 1.235 . S
O60 Fe45 1.976 . S
O60 C54 1.287 . S
O61 Fe47 1.996 . S
O61 C54 1.255 . S
C62 O55 1.287 . S
C62 O56 1.255 . S
O63 Fe45 2.002 . S
O63 C59 1.295 . S
O64 Fe47 1.997 . S
O64 C59 1.235 . S
C65 O48 1.295 . S
C65 O49 1.235 . S
Fe66 O68 1.918 . S
Fe66 O71 1.997 . S
Fe66 O72 2.002 . S
Fe66 O77 1.976 . S
Fe66 O80 1.996 . S
Fe67 O68 1.918 . S
Fe67 O75 1.997 . S
Fe67 O78 1.996 . S
Fe67 O82 1.976 . S
Fe67 O85 2.002 . S
O68 Fe66 1.918 . S
O68 Fe67 1.918 . S
O68 Fe69 1.918 . S
Fe69 O68 1.918 . S
Fe69 O70 2.002 . S
Fe69 O79 1.976 . S
Fe69 O83 1.996 . S
Fe69 O86 1.997 . S
O70 Fe69 2.002 . S
O70 C87 1.295 . S
O71 Fe66 1.997 . S
O71 C87 1.235 . S
O72 Fe66 2.002 . S
O72 C73 1.295 . S
C73 O72 1.295 . S
C73 O75 1.235 . S
C74 O79 1.287 . S
C74 O80 1.255 . S
O75 Fe67 1.997 . S
O75 C73 1.235 . S
C76 O82 1.287 . S
C76 O83 1.255 . S
O77 Fe66 1.976 . S
O77 C84 1.287 . S
O78 Fe67 1.996 . S
O78 C84 1.255 . S
O79 Fe69 1.976 . S
O79 C74 1.287 . S
O80 Fe66 1.996 . S
O80 C74 1.255 . S
C81 O85 1.295 . S
C81 O86 1.235 . S
O82 Fe67 1.976 . S
O82 C76 1.287 . S
O83 Fe69 1.996 . S
O83 C76 1.255 . S
C84 O77 1.287 . S
C84 O78 1.255 . S
O85 Fe67 2.002 . S
O85 C81 1.295 . S
O86 Fe69 1.997 . S
O86 C81 1.235 . S
C87 O70 1.295 . S
C87 O71 1.235 . S
Fe88 O90 1.918 . S
Fe88 O93 1.997 . S
Fe88 O94 2.002 . S
Fe88 O99 1.976 . S
Fe88 O102 1.996 . S
Fe89 O90 1.918 . S
Fe89 O97 1.997 . S
Fe89 O100 1.996 . S
Fe89 O104 1.976 . S
Fe89 O107 2.002 . S
O90 Fe88 1.918 . S
O90 Fe89 1.918 . S
O90 Fe91 1.918 . S
Fe91 O90 1.918 . S
Fe91 O92 2.002 . S
Fe91 O101 1.976 . S
Fe91 O105 1.996 . S
Fe91 O108 1.997 . S
O92 Fe91 2.002 . S
O92 C109 1.295 . S
O93 Fe88 1.997 . S
O93 C109 1.235 . S
O94 Fe88 2.002 . S
O94 C95 1.295 . S
C95 O94 1.295 . S
C95 O97 1.235 . S
C96 O101 1.287 . S
C96 O102 1.255 . S
O97 Fe89 1.997 . S
O97 C95 1.235 . S
C98 O104 1.287 . S
C98 O105 1.255 . S
O99 Fe88 1.976 . S
O99 C106 1.287 . S
O100 Fe89 1.996 . S
O100 C106 1.255 . S
O101 Fe91 1.976 . S
O101 C96 1.287 . S
O102 Fe88 1.996 . S
O102 C96 1.255 . S
C103 O107 1.295 . S
C103 O108 1.235 . S
O104 Fe89 1.976 . S
O104 C98 1.287 . S
O105 Fe91 1.996 . S
O105 C98 1.255 . S
C106 O99 1.287 . S
C106 O100 1.255 . S
O107 Fe89 2.002 . S
O107 C103 1.295 . S
O108 Fe91 1.997 . S
O108 C103 1.235 . S
C109 O92 1.295 . S
C109 O93 1.235 . S
Fe110 O112 1.918 . S
Fe110 O115 1.997 . S
Fe110 O116 2.002 . S
Fe110 O121 1.976 . S
Fe110 O124 1.996 . S
Fe111 O112 1.918 . S
Fe111 O119 1.997 . S
Fe111 O122 1.996 . S
Fe111 O126 1.976 . S
Fe111 O129 2.002 . S
O112 Fe110 1.918 . S
O112 Fe111 1.918 . S
O112 Fe113 1.918 . S
Fe113 O112 1.918 . S
Fe113 O114 2.002 . S
Fe113 O123 1.976 . S
Fe113 O127 1.996 . S
Fe113 O130 1.997 . S
O114 Fe113 2.002 . S
O114 C131 1.295 . S
O115 Fe110 1.997 . S
O115 C131 1.235 . S
O116 Fe110 2.002 . S
O116 C117 1.295 . S
C117 O116 1.295 . S
C117 O119 1.235 . S
C118 O123 1.287 . S
C118 O124 1.255 . S
O119 Fe111 1.997 . S
O119 C117 1.235 . S
C120 O126 1.287 . S
C120 O127 1.255 . S
O121 Fe110 1.976 . S
O121 C128 1.287 . S
O122 Fe111 1.996 . S
O122 C128 1.255 . S
O123 Fe113 1.976 . S
O123 C118 1.287 . S
O124 Fe110 1.996 . S
O124 C118 1.255 . S
C125 O129 1.295 . S
C125 O130 1.235 . S
O126 Fe111 1.976 . S
O126 C120 1.287 . S
O127 Fe113 1.996 . S
O127 C120 1.255 . S
C128 O121 1.287 . S
C128 O122 1.255 . S
O129 Fe111 2.002 . S
O129 C125 1.295 . S
O130 Fe113 1.997 . S
O130 C125 1.235 . S
C131 O114 1.295 . S
C131 O115 1.235 . S
Fe132 O134 1.918 . S
Fe132 O137 1.997 . S
Fe132 O138 2.002 . S
Fe132 O143 1.976 . S
Fe132 O146 1.996 . S
Fe133 O134 1.918 . S
Fe133 O141 1.997 . S
Fe133 O144 1.996 . S
Fe133 O148 1.976 . S
Fe133 O151 2.002 . S
O134 Fe132 1.918 . S
O134 Fe133 1.918 . S
O134 Fe135 1.918 . S
Fe135 O134 1.918 . S
Fe135 O136 2.002 . S
Fe135 O145 1.976 . S
Fe135 O149 1.996 . S
Fe135 O152 1.997 . S
O136 Fe135 2.002 . S
O136 C153 1.295 . S
O137 Fe132 1.997 . S
O137 C153 1.235 . S
O138 Fe132 2.002 . S
O138 C139 1.295 . S
C139 O138 1.295 . S
C139 O141 1.235 . S
C140 O145 1.287 . S
C140 O146 1.255 . S
O141 Fe133 1.997 . S
O141 C139 1.235 . S
C142 O148 1.287 . S
C142 O149 1.255 . S
O143 Fe132 1.976 . S
O143 C150 1.287 . S
O144 Fe133 1.996 . S
O144 C150 1.255 . S
O145 Fe135 1.976 . S
O145 C140 1.287 . S
O146 Fe132 1.996 . S
O146 C140 1.255 . S
C147 O151 1.295 . S
C147 O152 1.235 . S
O148 Fe133 1.976 . S
O148 C142 1.287 . S
O149 Fe135 1.996 . S
O149 C142 1.255 . S
C150 O143 1.287 . S
C150 O144 1.255 . S
O151 Fe133 2.002 . S
O151 C147 1.295 . S
O152 Fe135 1.997 . S
O152 C147 1.235 . S
C153 O136 1.295 . S
C153 O137 1.235 . S
Fe154 O156 1.918 . S
Fe154 O159 1.997 . S
Fe154 O160 2.002 . S
Fe154 O165 1.976 . S
Fe154 O168 1.996 . S
Fe155 O156 1.918 . S
Fe155 O163 1.997 . S
Fe155 O166 1.996 . S
Fe155 O170 1.976 . S
Fe155 O173 2.002 . S
O156 Fe154 1.918 . S
O156 Fe155 1.918 . S
O156 Fe157 1.918 . S
Fe157 O156 1.918 . S
Fe157 O158 2.002 . S
Fe157 O167 1.976 . S
Fe157 O171 1.996 . S
Fe157 O174 1.997 . S
O158 Fe157 2.002 . S
O158 C175 1.295 . S
O159 Fe154 1.997 . S
O159 C175 1.235 . S
O160 Fe154 2.002 . S
O160 C161 1.295 . S
C161 O160 1.295 . S
C161 O163 1.235 . S
C162 O167 1.287 . S
C162 O168 1.255 . S
O163 Fe155 1.997 . S
O163 C161 1.235 . S
C164 O170 1.287 . S
C164 O171 1.255 . S
O165 Fe154 1.976 . S
O165 C172 1.287 . S
O166 Fe155 1.996 . S
O166 C172 1.255 . S
O167 Fe157 1.976 . S
O167 C162 1.287 . S
O168 Fe154 1.996 . S
O168 C162 1.255 . S
C169 O173 1.295 . S
C169 O174 1.235 . S
O170 Fe155 1.976 . S
O170 C164 1.287 . S
O171 Fe157 1.996 . S
O171 C164 1.255 . S
C172 O165 1.287 . S
C172 O166 1.255 . S
O173 Fe155 2.002 . S
O173 C169 1.295 . S
O174 Fe157 1.997 . S
O174 C169 1.235 . S
C175 O158 1.295 . S
C175 O159 1.235 . S
C176 C177 1.387 . S
C176 H180 0.950 . S
C176 C185 1.390 . S
C177 C176 1.387 . S
C177 C179 1.387 . S
H178 C185 0.950 . S
C179 C177 1.387 . S
C179 C181 1.385 1_565 S
C179 H183 0.950 . S
H180 C176 0.950 . S
C181 C179 1.385 1_545 S
C181 C182 1.386 1_545 S
C181 H184 0.956 . S
C182 C181 1.386 1_565 S
C182 C185 1.387 . S
H183 C179 0.950 . S
H184 C181 0.956 . S
C185 C176 1.390 . S
C185 H178 0.950 . S
C185 C182 1.387 . S
C186 C187 1.387 . S
C186 H190 0.950 . S
C186 C195 1.390 . S
C187 C186 1.387 . S
C187 C189 1.387 . S
H188 C195 0.950 1_545 S
C189 C187 1.387 . S
C189 C191 1.390 . S
C189 H193 0.950 . S
H190 C186 0.950 . S
C191 C189 1.390 . S
C191 C192 1.387 . S
C191 H194 0.950 . S
C192 C191 1.387 . S
C192 C195 1.387 . S
H193 C189 0.950 . S
H194 C191 0.950 . S
C195 C186 1.390 . S
C195 H188 0.950 1_565 S
C195 C192 1.387 . S
C196 C197 1.387 . S
C196 H200 0.950 1_545 S
C196 C205 1.390 . S
C197 C196 1.387 . S
C197 C199 1.387 . S
H198 C205 0.950 . S
C199 C197 1.387 . S
C199 C201 1.390 . S
C199 H203 0.950 . S
H200 C196 0.950 1_565 S
C201 C199 1.390 . S
C201 C202 1.387 . S
C201 H204 0.950 . S
C202 C201 1.387 . S
C202 C205 1.387 . S
H203 C199 0.950 . S
H204 C201 0.950 . S
C205 C196 1.390 . S
C205 H198 0.950 . S
C205 C202 1.387 . S
C206 C207 1.387 . S
C206 H210 0.950 . S
C206 C215 1.390 . S
C207 C206 1.387 . S
C207 C209 1.387 . S
H208 C215 0.950 . S
C209 C207 1.387 . S
C209 C211 1.390 . S
C209 H213 0.950 1_545 S
H210 C206 0.950 . S
C211 C209 1.390 . S
C211 C212 1.387 . S
C211 H214 0.950 . S
C212 C211 1.387 . S
C212 C215 1.387 . S
H213 C209 0.950 1_565 S
H214 C211 0.950 . S
C215 C206 1.390 . S
C215 H208 0.950 . S
C215 C212 1.387 . S
C216 C217 1.387 . S
C216 H220 0.950 1_655 S
C216 C225 1.390 . S
C217 C216 1.387 . S
C217 C219 1.387 . S
H218 C225 0.950 . S
C219 C217 1.387 . S
C219 C221 1.390 . S
C219 H223 0.950 . S
H220 C216 0.950 1_455 S
C221 C219 1.390 . S
C221 C222 1.387 . S
C221 H224 0.950 . S
C222 C221 1.387 . S
C222 C225 1.387 . S
H223 C219 0.950 . S
H224 C221 0.950 . S
C225 C216 1.390 . S
C225 H218 0.950 . S
C225 C222 1.387 . S
C226 C227 1.387 . S
C226 H230 0.950 . S
C226 C235 1.390 . S
C227 C226 1.387 . S
C227 C229 1.387 . S
H228 C235 0.950 . S
C229 C227 1.387 . S
C229 C231 1.390 . S
C229 H233 0.950 . S
H230 C226 0.950 . S
C231 C229 1.390 . S
C231 C232 1.387 . S
C231 H234 0.950 . S
C232 C231 1.387 . S
C232 C235 1.387 . S
H233 C229 0.950 . S
H234 C231 0.950 . S
C235 C226 1.390 . S
C235 H228 0.950 . S
C235 C232 1.387 . S
C236 C237 1.387 . S
C236 H240 0.950 . S
C236 C245 1.390 . S
C237 C236 1.387 . S
C237 C239 1.387 . S
H238 C245 0.950 . S
C239 C237 1.387 . S
C239 C241 1.390 . S
C239 H243 0.950 . S
H240 C236 0.950 . S
C241 C239 1.390 . S
C241 C242 1.387 . S
C241 H244 0.950 . S
C242 C241 1.387 . S
C242 C245 1.387 . S
H243 C239 0.950 . S
H244 C241 0.950 . S
C245 C236 1.390 . S
C245 H238 0.950 . S
C245 C242 1.387 . S
C246 C247 1.387 . S
C246 H250 0.950 . S
C246 C255 1.390 . S
C247 C246 1.387 . S
C247 C249 1.387 . S
H248 C255 0.950 . S
C249 C247 1.387 . S
C249 C251 1.390 . S
C249 H253 0.950 . S
H250 C246 0.950 . S
C251 C249 1.390 . S
C251 C252 1.387 . S
C251 H254 0.950 . S
C252 C251 1.387 . S
C252 C255 1.387 . S
H253 C249 0.950 . S
H254 C251 0.950 . S
C255 C246 1.390 . S
C255 H248 0.950 . S
C255 C252 1.387 . S
C256 C257 1.387 1_565 S
C256 H260 0.950 . S
C256 C265 1.390 1_454 S
C257 C256 1.387 1_545 S
C257 C259 1.387 . S
H258 C265 0.950 . S
C259 C257 1.387 . S
C259 C261 1.390 1_454 S
C259 H263 0.950 . S
H260 C256 0.950 . S
C261 C259 1.390 1_656 S
C261 C262 1.387 1_545 S
C261 H264 0.950 . S
C262 C261 1.387 1_565 S
C262 C265 1.387 . S
H263 C259 0.950 . S
H264 C261 0.950 . S
C265 C256 1.390 1_656 S
C265 H258 0.950 . S
C265 C262 1.387 . S
C266 C267 1.387 1_545 S
C266 H270 0.950 . S
C266 C275 1.390 1_554 S
C267 C266 1.387 1_565 S
C267 C269 1.387 . S
H268 C275 0.950 . S
C269 C267 1.387 . S
C269 C271 1.390 1_554 S
C269 H273 0.950 . S
H270 C266 0.950 . S
C271 C269 1.390 1_556 S
C271 C272 1.387 1_565 S
C271 H274 0.950 . S
C272 C271 1.387 1_545 S
C272 C275 1.387 . S
H273 C269 0.950 . S
H274 C271 0.950 . S
C275 C266 1.390 1_556 S
C275 H268 0.950 . S
C275 C272 1.387 . S
C276 C277 1.387 . S
C276 H280 0.950 . S
C276 C285 1.390 . S
C277 C276 1.387 . S
C277 C279 1.387 . S
H278 C285 0.950 . S
C279 C277 1.387 . S
C279 C281 1.390 . S
C279 H283 0.950 . S
H280 C276 0.950 . S
C281 C279 1.390 . S
C281 C282 1.387 . S
C281 H284 0.950 . S
C282 C281 1.387 . S
C282 C285 1.387 . S
H283 C279 0.950 . S
H284 C281 0.950 . S
C285 C276 1.390 . S
C285 H278 0.950 . S
C285 C282 1.387 . S
C286 C287 1.387 . S
C286 H290 0.950 . S
C286 C295 1.390 1_455 S
C287 C286 1.387 . S
C287 C289 1.387 . S
H288 C295 0.950 . S
C289 C287 1.387 . S
C289 C291 1.390 1_455 S
C289 H293 0.950 . S
H290 C286 0.950 . S
C291 C289 1.390 1_655 S
C291 C292 1.387 . S
C291 H294 0.950 . S
C292 C291 1.387 . S
C292 C295 1.387 . S
H293 C289 0.950 . S
H294 C291 0.950 . S
C295 C286 1.390 1_655 S
C295 H288 0.950 . S
C295 C292 1.387 . S
C296 C297 1.387 . S
C296 H300 0.950 . S
C296 C305 1.390 1_556 S
C297 C296 1.387 . S
C297 C299 1.387 . S
H298 C305 0.950 . S
C299 C297 1.387 . S
C299 C301 1.390 1_556 S
C299 H303 0.950 . S
H300 C296 0.950 . S
C301 C299 1.390 1_554 S
C301 C302 1.387 . S
C301 H304 0.950 . S
C302 C301 1.387 . S
C302 C305 1.387 . S
H303 C299 0.950 . S
H304 C301 0.950 . S
C305 C296 1.390 1_554 S
C305 H298 0.950 . S
C305 C302 1.387 . S
C306 C307 1.387 . S
C306 H310 0.950 . S
C306 C315 1.390 1_556 S
C307 C306 1.387 . S
C307 C309 1.387 . S
H308 C315 0.950 . S
C309 C307 1.387 . S
C309 C311 1.390 1_556 S
C309 H313 0.950 . S
H310 C306 0.950 . S
C311 C309 1.390 1_554 S
C311 C312 1.387 . S
C311 H314 0.950 . S
C312 C311 1.387 . S
C312 C315 1.387 . S
H313 C309 0.950 . S
H314 C311 0.950 . S
C315 C306 1.390 1_554 S
C315 H308 0.950 . S
C315 C312 1.387 . S
C316 C317 1.387 . S
C316 H320 0.950 . S
C316 C325 1.390 . S
C317 C316 1.387 . S
C317 C319 1.387 . S
H318 C325 0.950 . S
C319 C317 1.387 . S
C319 C321 1.390 . S
C319 H323 0.950 . S
H320 C316 0.950 . S
C321 C319 1.390 . S
C321 C322 1.387 . S
C321 H324 0.950 . S
C322 C321 1.387 . S
C322 C325 1.387 . S
H323 C319 0.950 . S
H324 C321 0.950 . S
C325 C316 1.390 . S
C325 H318 0.950 . S
C325 C322 1.387 . S
C326 C327 1.387 . S
C326 H330 0.950 . S
C326 C335 1.390 . S
C327 C326 1.387 . S
C327 C329 1.387 . S
H328 C335 0.950 . S
C329 C327 1.387 . S
C329 C331 1.390 . S
C329 H333 0.950 . S
H330 C326 0.950 . S
C331 C329 1.390 . S
C331 C332 1.387 . S
C331 H334 0.950 . S
C332 C331 1.387 . S
C332 C335 1.387 . S
H333 C329 0.950 . S
H334 C331 0.950 . S
C335 C326 1.390 . S
C335 H328 0.950 . S
C335 C332 1.387 . S
C336 C337 1.387 . S
C336 H340 0.950 . S
C336 C345 1.390 . S
C337 C336 1.387 . S
C337 C339 1.387 . S
H338 C345 0.950 . S
C339 C337 1.387 . S
C339 C341 1.390 . S
C339 H343 0.950 . S
H340 C336 0.950 . S
C341 C339 1.390 . S
C341 C342 1.387 . S
C341 H344 0.950 . S
C342 C341 1.387 . S
C342 C345 1.387 . S
H343 C339 0.950 . S
H344 C341 0.950 . S
C345 C336 1.390 . S
C345 H338 0.950 . S
C345 C342 1.387 . S
C346 C347 1.387 . S
C346 H350 0.950 . S
C346 C355 1.390 . S
C347 C346 1.387 . S
C347 C349 1.387 . S
H348 C355 0.950 . S
C349 C347 1.387 . S
C349 C351 1.390 . S
C349 H353 0.950 . S
H350 C346 0.950 . S
C351 C349 1.390 . S
C351 C352 1.387 . S
C351 H354 0.950 . S
C352 C351 1.387 . S
C352 C355 1.387 . S
H353 C349 0.950 . S
H354 C351 0.950 . S
C355 C346 1.390 . S
C355 H348 0.950 . S
C355 C352 1.387 . S
C356 C357 1.387 . S
C356 H360 0.950 . S
C356 C365 1.390 1_556 S
C357 C356 1.387 . S
C357 C359 1.387 . S
H358 C365 0.950 . S
C359 C357 1.387 . S
C359 C361 1.390 1_556 S
C359 H363 0.950 . S
H360 C356 0.950 . S
C361 C359 1.390 1_554 S
C361 C362 1.387 . S
C361 H364 0.950 . S
C362 C361 1.387 . S
C362 C365 1.387 . S
H363 C359 0.950 . S
H364 C361 0.950 . S
C365 C356 1.390 1_554 S
C365 H358 0.950 . S
C365 C362 1.387 . S
C366 C367 1.387 . S
C366 H370 0.950 . S
C366 C375 1.390 1_556 S
C367 C366 1.387 . S
C367 C369 1.387 . S
H368 C375 0.950 . S
C369 C367 1.387 . S
C369 C371 1.390 1_556 S
C369 H373 0.950 . S
H370 C366 0.950 . S
C371 C369 1.390 1_554 S
C371 C372 1.387 . S
C371 H374 0.950 . S
C372 C371 1.387 . S
C372 C375 1.387 . S
H373 C369 0.950 . S
H374 C371 0.950 . S
C375 C366 1.390 1_554 S
C375 H368 0.950 . S
C375 C372 1.387 . S
C376 C377 1.387 . S
C376 H380 0.950 . S
C376 C385 1.390 . S
C377 C376 1.387 . S
C377 C379 1.387 . S
H378 C385 0.950 . S
C379 C377 1.387 . S
C379 C381 1.390 . S
C379 H383 0.950 . S
H380 C376 0.950 . S
C381 C379 1.390 . S
C381 C382 1.387 . S
C381 H384 0.950 . S
C382 C381 1.387 . S
C382 C385 1.387 . S
H383 C379 0.950 . S
H384 C381 0.950 . S
C385 C376 1.390 . S
C385 H378 0.950 . S
C385 C382 1.387 . S
C386 C387 1.387 . S
C386 H390 0.950 . S
C386 C395 1.390 . S
C387 C386 1.387 . S
C387 C389 1.387 . S
H388 C395 0.950 . S
C389 C387 1.387 . S
C389 C391 1.390 . S
C389 H393 0.950 . S
H390 C386 0.950 . S
C391 C389 1.390 . S
C391 C392 1.387 . S
C391 H394 0.950 . S
C392 C391 1.387 . S
C392 C395 1.387 . S
H393 C389 0.950 . S
H394 C391 0.950 . S
C395 C386 1.390 . S
C395 H388 0.950 . S
C395 C392 1.387 . S
C396 C397 1.387 . S
C396 H400 0.950 . S
C396 C405 1.390 . S
C397 C396 1.387 . S
C397 C399 1.387 . S
H398 C405 0.950 . S
C399 C397 1.387 . S
C399 C401 1.390 . S
C399 H403 0.950 . S
H400 C396 0.950 . S
C401 C399 1.390 . S
C401 C402 1.387 . S
C401 H404 0.950 . S
C402 C401 1.387 . S
C402 C405 1.387 . S
H403 C399 0.950 . S
H404 C401 0.950 . S
C405 C396 1.390 . S
C405 H398 0.950 . S
C405 C402 1.387 . S
C406 C407 1.387 . S
C406 H410 0.950 . S
C406 C415 1.390 . S
C407 C406 1.387 . S
C407 C409 1.387 . S
H408 C415 0.950 . S
C409 C407 1.387 . S
C409 C411 1.390 . S
C409 H413 0.950 . S
H410 C406 0.950 . S
C411 C409 1.390 . S
C411 C412 1.387 . S
C411 H414 0.950 . S
C412 C411 1.387 . S
C412 C415 1.387 . S
H413 C409 0.950 . S
H414 C411 0.950 . S
C415 C406 1.390 . S
C415 H408 0.950 . S
C415 C412 1.387 . S
C177 C76 1.418 . S
C182 C21 1.502 1_565 S
C187 C52 1.416 1_455 S
C192 C37 1.502 1_565 S
C197 C51 1.514 1_545 S
C202 C30 1.436 . S
C207 C87 1.514 1_545 S
C212 C18 1.436 1_655 S
C217 C164 1.418 1_655 S
C222 C103 1.502 . S
C227 C125 1.502 . S
C232 C140 1.417 . S
C237 C118 1.438 1_455 S
C242 C139 1.514 . S
C247 C96 1.438 . S
C252 C175 1.514 . S
C257 C7 1.330 . S
C262 C65 1.317 . S
C267 C81 1.315 . S
C272 C43 1.329 . S
C277 C109 1.328 . S
C282 C153 1.315 . S
C287 C169 1.315 . S
C292 C131 1.329 . S
C297 C29 1.201 . S
C302 C15 1.201 . S
C307 C59 1.207 . S
C312 C73 1.207 . S
C317 C117 1.203 . S
C322 C95 1.203 . S
C327 C161 1.208 . S
C332 C147 1.208 . S
C337 C8 1.469 . S
C342 C32 1.469 . S
C347 C62 1.492 . S
C352 C74 1.492 . S
C357 C98 1.472 . S
C362 C120 1.472 . S
C367 C162 1.494 . S
C372 C150 1.494 . S
C377 C10 1.726 . S
C382 C142 1.745 . S
C387 C40 1.729 . S
C392 C172 1.748 . S
C397 C106 1.729 . S
C402 C54 1.748 . S
C407 C128 1.726 . S
C412 C84 1.745 . S
