# Generated by pormake.
# Topology sml, (6)-cn, num edge types: 1
# Building blocks:
#     Node 0, Type 0, BuildingBlock: INOVEN_clean_sbu_0, # of connection points: 6
#     Node 1, Type 0, BuildingBlock: INOVEN_clean_sbu_0, # of connection points: 6
#     Node 2, Type 0, BuildingBlock: INOVEN_clean_sbu_0, # of connection points: 6
#     Node 3, Type 0, BuildingBlock: INOVEN_clean_sbu_0, # of connection points: 6
#     Node 4, Type 0, BuildingBlock: INOVEN_clean_sbu_0, # of connection points: 6
#     Node 5, Type 0, BuildingBlock: INOVEN_clean_sbu_0, # of connection points: 6
#     Edge 6, Type (0, 0), BuildingBlock: FUNLAD_clean_linker_0, # of connection points: 2
#     Edge 7, Type (0, 0), BuildingBlock: FUNLAD_clean_linker_0, # of connection points: 2
#     Edge 8, Type (0, 0), BuildingBlock: FUNLAD_clean_linker_0, # of connection points: 2
#     Edge 9, Type (0, 0), BuildingBlock: FUNLAD_clean_linker_0, # of connection points: 2
#     Edge 10, Type (0, 0), BuildingBlock: FUNLAD_clean_linker_0, # of connection points: 2
#     Edge 11, Type (0, 0), BuildingBlock: FUNLAD_clean_linker_0, # of connection points: 2
#     Edge 12, Type (0, 0), BuildingBlock: FUNLAD_clean_linker_0, # of connection points: 2
#     Edge 13, Type (0, 0), BuildingBlock: FUNLAD_clean_linker_0, # of connection points: 2
#     Edge 14, Type (0, 0), BuildingBlock: FUNLAD_clean_linker_0, # of connection points: 2
#     Edge 15, Type (0, 0), BuildingBlock: FUNLAD_clean_linker_0, # of connection points: 2
#     Edge 16, Type (0, 0), BuildingBlock: FUNLAD_clean_linker_0, # of connection points: 2
#     Edge 17, Type (0, 0), BuildingBlock: FUNLAD_clean_linker_0, # of connection points: 2
#     Edge 18, Type (0, 0), BuildingBlock: FUNLAD_clean_linker_0, # of connection points: 2
#     Edge 19, Type (0, 0), BuildingBlock: FUNLAD_clean_linker_0, # of connection points: 2
#     Edge 20, Type (0, 0), BuildingBlock: FUNLAD_clean_linker_0, # of connection points: 2
#     Edge 21, Type (0, 0), BuildingBlock: FUNLAD_clean_linker_0, # of connection points: 2
#     Edge 22, Type (0, 0), BuildingBlock: FUNLAD_clean_linker_0, # of connection points: 2
#     Edge 23, Type (0, 0), BuildingBlock: FUNLAD_clean_linker_0, # of connection points: 2
# Relax obj value: 0.191
# Max RMSD: 0.229
# Mean RMSD: 0.229
data_MOF--net-sml--node1-INOVEN_clean_sbu_0--edge1-FUNLAD_clean_linker_0
_symmetry_space_group_name_H-M    P1
_symmetry_Int_Tables_number       1
_symmetry_cell_setting            triclinic
loop_
_symmetry_equiv_pos_as_xyz
'x, y, z'
_cell_length_a     39.148331
_cell_length_b     39.174503
_cell_length_c     27.766383
_cell_angle_alpha  90.013851
_cell_angle_beta   89.953379
_cell_angle_gamma 120.0415
loop_
_atom_site_label
_atom_site_type_symbol
_atom_site_fract_x
_atom_site_fract_y
_atom_site_fract_z
_atom_type_partial_charge
Gd0 Gd 0.17403 0.43247 0.95608 0.0
Gd1 Gd 0.20323 0.40595 0.04434 0.0
C2 C 0.20276 0.36726 0.9446 0.0
C3 C 0.16225 0.45389 0.87231 0.0
C4 C 0.1691 0.44929 0.8211 0.0
C5 C 0.14547 0.45308 0.78608 0.0
C6 C 0.19839 0.44075 0.80666 0.0
C7 C 0.18006 0.43967 0.72233 0.0
C8 C 0.20382 0.43597 0.75772 0.0
C9 C 0.15089 0.44839 0.73725 0.0
C10 C 0.11776 0.38114 0.01593 0.0
C11 C 0.18083 0.47605 0.05465 0.0
C12 C 0.2103 0.38115 0.12818 0.0
C13 C 0.20521 0.38759 0.17938 0.0
C14 C 0.22671 0.38043 0.21426 0.0
C15 C 0.17948 0.40085 0.194 0.0
C16 C 0.19675 0.39937 0.27821 0.0
C17 C 0.17524 0.40662 0.24298 0.0
C18 C 0.22256 0.38623 0.26313 0.0
C19 C 0.2602 0.4597 0.98679 0.0
O20 O 0.19748 0.39499 0.92469 0.0
O21 O 0.20099 0.3617 0.99168 0.0
O22 O 0.13599 0.42198 0.89449 0.0
O23 O 0.19347 0.47568 0.89869 0.0
O24 O 0.11602 0.40954 0.99424 0.0
O25 O 0.14812 0.38007 1.00317 0.0
O26 O 0.18548 0.44824 0.07567 0.0
O27 O 0.17996 0.47917 1.00728 0.0
O28 O 0.23958 0.41064 0.10571 0.0
O29 O 0.17822 0.36315 0.10202 0.0
O30 O 0.2634 0.43241 0.00946 0.0
O31 O 0.22861 0.45872 0.99828 0.0
H32 H 0.12277 0.45975 0.79652 0.0
H33 H 0.21694 0.43766 0.83319 0.0
H34 H 0.22626 0.42884 0.74769 0.0
H35 H 0.13248 0.45209 0.71111 0.0
H36 H 0.24668 0.37014 0.20369 0.0
H37 H 0.16271 0.40674 0.1676 0.0
H38 H 0.15546 0.4172 0.25321 0.0
H39 H 0.23915 0.37981 0.28918 0.0
Gd40 Gd 0.75177 0.18716 0.29954 0.0
Gd41 Gd 0.80748 0.21166 0.38717 0.0
C42 C 0.84404 0.20849 0.28739 0.0
C43 C 0.72024 0.1827 0.21607 0.0
C44 C 0.73135 0.18619 0.16476 0.0
C45 C 0.7019 0.16606 0.13021 0.0
C46 C 0.77077 0.20903 0.14974 0.0
C47 C 0.75092 0.19166 0.06582 0.0
C48 C 0.78047 0.21173 0.10074 0.0
C49 C 0.71152 0.16873 0.0813 0.0
C50 C 0.74496 0.12768 0.35421 0.0
C51 C 0.71614 0.19234 0.40004 0.0
C52 C 0.83904 0.21627 0.47068 0.0
C53 C 0.82851 0.2141 0.52208 0.0
C54 C 0.85833 0.23531 0.55587 0.0
C55 C 0.78932 0.19134 0.53797 0.0
C56 C 0.81015 0.21086 0.62121 0.0
C57 C 0.78023 0.18975 0.58706 0.0
C58 C 0.84931 0.23373 0.60487 0.0
C59 C 0.81145 0.27087 0.33339 0.0
O60 O 0.81177 0.20513 0.26735 0.0
O61 O 0.84774 0.2069 0.33445 0.0
O62 O 0.71696 0.152 0.23894 0.0
O63 O 0.73752 0.21506 0.24179 0.0
O64 O 0.71525 0.12762 0.33336 0.0
O65 O 0.77706 0.15805 0.34304 0.0
O66 O 0.74816 0.19498 0.41987 0.0
O67 O 0.71206 0.19316 0.35281 0.0
O68 O 0.84344 0.24707 0.44697 0.0
O69 O 0.82054 0.18354 0.44578 0.0
O70 O 0.84223 0.27234 0.35316 0.0
O71 O 0.78073 0.23959 0.34501 0.0
H72 H 0.67134 0.1481 0.1411 0.0
H73 H 0.79402 0.22487 0.17582 0.0
H74 H 0.81105 0.22994 0.09018 0.0
H75 H 0.68807 0.15231 0.05567 0.0
H76 H 0.88872 0.2532 0.54431 0.0
H77 H 0.76579 0.17466 0.51251 0.0
H78 H 0.74982 0.17154 0.5983 0.0
H79 H 0.87303 0.25091 0.62989 0.0
Gd80 Gd 0.56912 0.75949 0.64529 0.0
Gd81 Gd 0.5925 0.81158 0.73563 0.0
C82 C 0.6335 0.85376 0.63801 0.0
C83 C 0.54471 0.72632 0.56197 0.0
C84 C 0.54957 0.73555 0.51023 0.0
C85 C 0.5367 0.70454 0.47717 0.0
C86 C 0.5664 0.77443 0.49329 0.0
C87 C 0.55656 0.75083 0.41027 0.0
C88 C 0.56993 0.78203 0.44365 0.0
C89 C 0.54014 0.71204 0.42773 0.0
C90 C 0.62159 0.75432 0.70261 0.0
C91 C 0.52758 0.71832 0.74335 0.0
C92 C 0.61445 0.84517 0.81915 0.0
C93 C 0.61214 0.83592 0.87075 0.0
C94 C 0.62459 0.86668 0.9041 0.0
C95 C 0.59753 0.7972 0.88726 0.0
C96 C 0.60811 0.82039 0.97048 0.0
C97 C 0.59545 0.78947 0.9368 0.0
C98 C 0.62263 0.85905 0.95345 0.0
C99 C 0.53704 0.81252 0.67868 0.0
O100 O 0.60762 0.82108 0.61558 0.0
O101 O 0.63681 0.85596 0.68534 0.0
O102 O 0.57507 0.72831 0.58427 0.0
O103 O 0.52653 0.74061 0.58733 0.0
O104 O 0.59446 0.72499 0.67833 0.0
O105 O 0.62156 0.78588 0.69313 0.0
O106 O 0.55593 0.74974 0.7654 0.0
O107 O 0.52293 0.71717 0.69611 0.0
O108 O 0.58145 0.83759 0.79829 0.0
O109 O 0.63621 0.83598 0.79241 0.0
O110 O 0.56429 0.84369 0.7002 0.0
O111 O 0.53971 0.78294 0.68988 0.0
H112 H 0.52383 0.67436 0.48965 0.0
H113 H 0.5765 0.79878 0.51836 0.0
H114 H 0.58244 0.81221 0.43143 0.0
H115 H 0.5302 0.68741 0.40313 0.0
H116 H 0.63575 0.89672 0.89195 0.0
H117 H 0.58784 0.77309 0.86191 0.0
H118 H 0.58442 0.75942 0.9487 0.0
H119 H 0.63201 0.88344 0.97831 0.0
Gd120 Gd 0.81718 0.56203 0.96111 0.0
Gd121 Gd 0.79347 0.59265 0.04967 0.0
C122 C 0.79477 0.63185 0.94979 0.0
C123 C 0.8229 0.53614 0.87731 0.0
C124 C 0.82126 0.54461 0.82584 0.0
C125 C 0.84604 0.53999 0.79332 0.0
C126 C 0.79556 0.5571 0.8086 0.0
C127 C 0.81952 0.56003 0.72662 0.0
C128 C 0.79463 0.56464 0.75939 0.0
C129 C 0.84523 0.54762 0.74428 0.0
C130 C 0.87706 0.61573 0.01484 0.0
C131 C 0.81356 0.52098 0.0606 0.0
C132 C 0.79009 0.62006 0.13339 0.0
C133 C 0.79037 0.61093 0.18492 0.0
C134 C 0.76633 0.61721 0.21689 0.0
C135 C 0.81423 0.59643 0.20283 0.0
C136 C 0.79018 0.59514 0.28437 0.0
C137 C 0.81422 0.58873 0.25214 0.0
C138 C 0.76617 0.60937 0.26604 0.0
C139 C 0.7331 0.53727 0.99747 0.0
O140 O 0.79785 0.60284 0.92972 0.0
O141 O 0.7973 0.63758 0.99686 0.0
O142 O 0.85334 0.56265 0.90146 0.0
O143 O 0.78992 0.52134 0.90179 0.0
O144 O 0.87714 0.58599 0.9944 0.0
O145 O 0.84627 0.61673 1.00415 0.0
O146 O 0.81047 0.54982 0.08136 0.0
O147 O 0.81193 0.51628 0.01334 0.0
O148 O 0.75879 0.59552 0.10889 0.0
O149 O 0.82298 0.63229 0.10927 0.0
O150 O 0.73209 0.56626 0.01878 0.0
O151 O 0.76472 0.53769 1.00726 0.0
H152 H 0.86601 0.53031 0.80587 0.0
H153 H 0.77625 0.56104 0.83309 0.0
H154 H 0.77479 0.57456 0.7471 0.0
H155 H 0.8644 0.54324 0.72006 0.0
H156 H 0.74776 0.62844 0.20384 0.0
H157 H 0.83289 0.59111 0.17879 0.0
H158 H 0.83272 0.57735 0.26496 0.0
H159 H 0.74768 0.61512 0.28983 0.0
Gd160 Gd 0.23938 0.80733 0.31531 0.0
Gd161 Gd 0.18602 0.77283 0.40377 0.0
C162 C 0.14469 0.77535 0.30738 0.0
C163 C 0.27298 0.82159 0.23163 0.0
C164 C 0.26353 0.81756 0.17983 0.0
C165 C 0.28896 0.84775 0.14859 0.0
C166 C 0.23043 0.78412 0.16085 0.0
C167 C 0.24943 0.81072 0.0795 0.0
C168 C 0.22345 0.78073 0.11108 0.0
C169 C 0.28199 0.84445 0.09903 0.0
C170 C 0.24235 0.8612 0.37765 0.0
C171 C 0.28014 0.80355 0.41215 0.0
C172 C 0.15181 0.75645 0.48721 0.0
C173 C 0.16083 0.76044 0.5391 0.0
C174 C 0.13497 0.73039 0.57019 0.0
C175 C 0.19399 0.7937 0.55825 0.0
C176 C 0.17427 0.76718 0.63953 0.0
C177 C 0.20065 0.79704 0.60809 0.0
C178 C 0.1416 0.73365 0.61982 0.0
C179 C 0.18619 0.72011 0.34135 0.0
O180 O 0.17787 0.7836 0.28505 0.0
O181 O 0.14184 0.77452 0.35477 0.0
O182 O 0.26754 0.84731 0.25543 0.0
O183 O 0.26259 0.78921 0.25601 0.0
O184 O 0.27232 0.86539 0.35292 0.0
O185 O 0.21129 0.82979 0.36604 0.0
O186 O 0.2473 0.79652 0.4344 0.0
O187 O 0.28296 0.80436 0.36467 0.0
O188 O 0.15906 0.73203 0.46324 0.0
O189 O 0.16093 0.78869 0.46324 0.0
O190 O 0.15475 0.71472 0.36368 0.0
O191 O 0.21571 0.75179 0.35471 0.0
H192 H 0.31451 0.8739 0.16256 0.0
H193 H 0.21027 0.76047 0.18435 0.0
H194 H 0.19823 0.75426 0.09726 0.0
H195 H 0.30214 0.86848 0.07601 0.0
H196 H 0.10936 0.70439 0.55606 0.0
H197 H 0.21445 0.81722 0.53482 0.0
H198 H 0.22596 0.82336 0.62204 0.0
H199 H 0.12114 0.70973 0.64275 0.0
Gd200 Gd 0.43429 0.24272 0.63902 0.0
Gd201 Gd 0.40751 0.18723 0.72677 0.0
C202 C 0.36188 0.15139 0.62944 0.0
C203 C 0.45634 0.27477 0.55472 0.0
C204 C 0.44771 0.26383 0.50343 0.0
C205 C 0.44732 0.29112 0.47113 0.0
C206 C 0.44041 0.22707 0.48604 0.0
C207 C 0.43309 0.24555 0.40432 0.0
C208 C 0.43331 0.21808 0.43687 0.0
C209 C 0.44004 0.2821 0.42216 0.0
C210 C 0.38701 0.25211 0.70133 0.0
C211 C 0.48201 0.27733 0.7354 0.0
C212 C 0.38594 0.15468 0.81089 0.0
C213 C 0.39401 0.16514 0.86235 0.0
C214 C 0.39441 0.13766 0.89432 0.0
C215 C 0.40093 0.20164 0.88019 0.0
C216 C 0.40799 0.18257 0.96171 0.0
C217 C 0.40771 0.21021 0.92948 0.0
C218 C 0.40137 0.14625 0.94342 0.0
C219 C 0.45613 0.17969 0.66436 0.0
O220 O 0.39035 0.1833 0.60832 0.0
O221 O 0.35895 0.14752 0.67678 0.0
O222 O 0.42843 0.27557 0.57975 0.0
O223 O 0.47457 0.25979 0.57863 0.0
O224 O 0.41571 0.28096 0.67803 0.0
O225 O 0.38314 0.21942 0.6886 0.0
O226 O 0.45234 0.24689 0.75746 0.0
O227 O 0.48452 0.2801 0.68797 0.0
O228 O 0.41452 0.15511 0.78598 0.0
O229 O 0.36703 0.16899 0.78709 0.0
O230 O 0.42751 0.14991 0.68653 0.0
O231 O 0.45861 0.21138 0.67818 0.0
H232 H 0.45295 0.31965 0.48378 0.0
H233 H 0.44028 0.20538 0.51035 0.0
H234 H 0.42762 0.1895 0.42443 0.0
H235 H 0.44056 0.30411 0.39809 0.0
H236 H 0.38908 0.10932 0.88131 0.0
H237 H 0.40104 0.22345 0.85611 0.0
H238 H 0.41316 0.23862 0.94227 0.0
H239 H 0.40088 0.12411 0.96721 0.0
C240 C 0.36818 0.29546 0.74539 0.0
C241 C 0.36082 0.25731 0.73504 0.0
C242 C 0.34322 0.30112 0.77603 0.0
C243 C 0.3103 0.2687 0.79713 0.0
C244 C 0.30356 0.23056 0.788 0.0
C245 C 0.32837 0.22484 0.7567 0.0
C246 C 0.28331 0.27459 0.82919 0.0
C247 C 0.2742 0.30286 0.82009 0.0
C248 C 0.25058 0.3133 0.85242 0.0
C249 C 0.23408 0.33484 0.83302 0.0
C250 C 0.21652 0.35037 0.8628 0.0
C251 C 0.21541 0.34512 0.91298 0.0
H252 H 0.26065 0.29026 0.91881 0.0
C253 C 0.23018 0.32189 0.93235 0.0
C254 C 0.24768 0.30615 0.90238 0.0
H255 H 0.22993 0.31739 0.97086 0.0
H256 H 0.3932 0.32107 0.7296 0.0
H257 H 0.34997 0.331 0.7835 0.0
H258 H 0.27859 0.20516 0.8042 0.0
H259 H 0.3219 0.19509 0.74907 0.0
H260 H 0.27012 0.25479 0.85957 0.0
H261 H 0.28476 0.31962 0.78683 0.0
H262 H 0.23587 0.3408 0.7947 0.0
H263 H 0.20514 0.36775 0.84647 0.0
C264 C 0.08169 0.32002 0.06581 0.0
C265 C 0.09243 0.35941 0.05694 0.0
C266 C 0.05502 0.29894 0.10283 0.0
C267 C 0.03978 0.31749 0.13214 0.0
C268 C 0.05231 0.35745 0.12471 0.0
C269 C 0.07788 0.37805 0.08692 0.0
C270 C 0.00986 0.29589 0.16981 0.0
C271 C 0.97843 0.25993 0.16201 0.0
C272 C 0.94418 0.24264 0.19526 0.0
C273 C 0.90589 0.22322 0.17608 0.0
C274 C 0.87314 0.21101 0.20616 0.0
C275 C 0.87808 0.21723 0.25615 0.0
H276 H 0.97826 0.26142 0.2613 0.0
C277 C 0.91632 0.23449 0.2756 0.0
C278 C 0.94908 0.24728 0.24543 0.0
H279 H 0.92113 0.23958 0.31398 0.0
H280 H 0.09289 0.30525 0.04321 0.0
H281 H 0.04625 0.26827 0.10844 0.0
H282 H 0.04116 0.37238 0.1471 0.0
H283 H 0.08624 0.40862 0.0811 0.0
H284 H 0.01072 0.31227 0.20184 0.0
H285 H 0.97537 0.24549 0.12754 0.0
H286 H 0.90139 0.2191 0.13754 0.0
H287 H 0.84404 0.19746 0.19012 0.0
C288 C 0.70467 0.07441 0.4123 0.0
C289 C 0.74079 0.09725 0.38855 0.0
C290 C 0.69959 0.04463 0.44399 0.0
C291 C 0.73036 0.03666 0.45197 0.0
C292 C 0.76647 0.05933 0.42799 0.0
C293 C 0.77191 0.08993 0.39707 0.0
C294 C 0.72399 0.00332 0.48317 0.0
C295 C 0.70396 0.99581 0.52483 0.0
C296 C 0.69159 0.95975 0.5538 0.0
C297 C 0.68791 0.96155 0.60381 0.0
C298 C 0.67109 0.92719 0.63151 0.0
C299 C 0.65659 0.89016 0.60949 0.0
H300 H 0.6806 0.92053 0.49324 0.0
C301 C 0.66126 0.8884 0.55951 0.0
C302 C 0.6789 0.92293 0.53191 0.0
H303 H 0.65031 0.86028 0.54154 0.0
H304 H 0.68026 0.07955 0.40635 0.0
H305 H 0.67116 0.0271 0.46123 0.0
H306 H 0.79045 0.05345 0.43336 0.0
H307 H 0.79998 0.10717 0.37894 0.0
H308 H 0.73574 0.98472 0.4716 0.0
H309 H 0.69575 0.01683 0.53818 0.0
H310 H 0.69714 0.98955 0.62137 0.0
H311 H 0.66767 0.92957 0.66987 0.0
C312 C 0.64329 0.71247 0.74413 0.0
C313 C 0.64839 0.75012 0.73629 0.0
C314 C 0.66811 0.70722 0.77529 0.0
C315 C 0.69882 0.73956 0.79942 0.0
C316 C 0.70342 0.77719 0.79266 0.0
C317 C 0.67864 0.78254 0.76084 0.0
C318 C 0.7252 0.73368 0.83257 0.0
C319 C 0.73638 0.70704 0.8225 0.0
C320 C 0.75714 0.69413 0.85626 0.0
C321 C 0.7733 0.67206 0.83743 0.0
C322 C 0.78736 0.65357 0.86789 0.0
C323 C 0.78546 0.65653 0.91814 0.0
H324 H 0.74437 0.71519 0.92257 0.0
C325 C 0.77131 0.68039 0.93718 0.0
C326 C 0.75713 0.69896 0.90654 0.0
H327 H 0.76936 0.6832 0.97575 0.0
H328 H 0.61995 0.68682 0.7262 0.0
H329 H 0.66283 0.6776 0.78092 0.0
H330 H 0.72661 0.80249 0.81129 0.0
H331 H 0.6833 0.81191 0.75523 0.0
H332 H 0.73526 0.75134 0.86511 0.0
H333 H 0.72881 0.6927 0.78747 0.0
H334 H 0.77372 0.66781 0.79891 0.0
H335 H 0.79845 0.63579 0.85189 0.0
C336 C 0.11105 0.77021 0.22871 0.0
C337 C 0.10857 0.76229 0.27836 0.0
C338 C 0.07701 0.75339 0.20023 0.0
C339 C 0.03995 0.72785 0.22084 0.0
C340 C 0.03739 0.72092 0.27061 0.0
C341 C 0.07126 0.73836 0.29922 0.0
C342 C 0.00459 0.7043 0.19062 0.0
C343 C 0.99769 0.71745 0.14909 0.0
C344 C 0.96533 0.69083 0.11642 0.0
C345 C 0.9431 0.70443 0.09184 0.0
C346 C 0.9135 0.67971 0.05951 0.0
C347 C 0.90677 0.6416 0.05019 0.0
H348 H 0.97523 0.64142 0.12522 0.0
C349 C 0.92922 0.62818 0.07448 0.0
C350 C 0.95799 0.65241 0.10756 0.0
H351 H 0.92449 0.59885 0.06797 0.0
H352 H 0.1394 0.78843 0.21158 0.0
H353 H 0.08006 0.75866 0.16177 0.0
H354 H 0.00921 0.70107 0.2872 0.0
H355 H 0.06835 0.73139 0.33729 0.0
H356 H 0.98366 0.67463 0.20282 0.0
H357 H 0.01612 0.74814 0.13867 0.0
H358 H 0.94852 0.73406 0.09785 0.0
H359 H 0.89654 0.69065 0.04102 0.0
C360 C 0.31263 0.07953 0.61709 0.0
C361 C 0.33525 0.11784 0.59828 0.0
C362 C 0.29297 0.0471 0.58617 0.0
C363 C 0.29543 0.05255 0.53587 0.0
C364 C 0.31594 0.09108 0.51751 0.0
C365 C 0.33556 0.12331 0.54824 0.0
C366 C 0.28223 0.01941 0.50121 0.0
C367 C 0.25762 0.98108 0.51148 0.0
C368 C 0.25297 0.94984 0.47739 0.0
C369 C 0.21611 0.9157 0.47058 0.0
C370 C 0.21208 0.8866 0.43781 0.0
C371 C 0.24511 0.89094 0.41244 0.0
H372 H 0.31501 0.97896 0.45801 0.0
C373 C 0.28202 0.92459 0.42041 0.0
C374 C 0.28593 0.95365 0.45241 0.0
H375 H 0.30813 0.9286 0.40183 0.0
H376 H 0.31187 0.07432 0.65548 0.0
H377 H 0.27798 0.01789 0.60181 0.0
H378 H 0.31834 0.09622 0.47898 0.0
H379 H 0.35238 0.15243 0.53247 0.0
H380 H 0.29516 0.027 0.46537 0.0
H381 H 0.24122 0.97232 0.54505 0.0
H382 H 0.19039 0.91193 0.48988 0.0
H383 H 0.18326 0.86101 0.43213 0.0
C384 C 0.15283 0.41518 0.63926 0.0
C385 C 0.18558 0.43465 0.6701 0.0
C386 C 0.15788 0.41122 0.59005 0.0
C387 C 0.19595 0.42683 0.57025 0.0
C388 C 0.22862 0.44556 0.60124 0.0
C389 C 0.22356 0.44958 0.65045 0.0
C390 C 0.20288 0.42318 0.51805 0.0
C391 C 0.17672 0.41759 0.48286 0.0
C392 C 0.18318 0.41371 0.43052 0.0
C393 C 0.15044 0.39781 0.39944 0.0
C394 C 0.15481 0.39345 0.35015 0.0
C395 C 0.19216 0.40505 0.33049 0.0
H396 H 0.24705 0.43964 0.43259 0.0
C397 C 0.22507 0.4216 0.36137 0.0
C398 C 0.22073 0.42601 0.41067 0.0
H399 H 0.25441 0.43165 0.34731 0.0
H400 H 0.1231 0.40244 0.65328 0.0
H401 H 0.13177 0.39524 0.56808 0.0
H402 H 0.25829 0.45761 0.58723 0.0
H403 H 0.24951 0.46502 0.67293 0.0
H404 H 0.23099 0.42579 0.50876 0.0
H405 H 0.1488 0.41536 0.49247 0.0
H406 H 0.12117 0.38827 0.41343 0.0
H407 H 0.12874 0.38027 0.32761 0.0
C408 C 0.7362 0.19643 0.97845 0.0
C409 C 0.76098 0.19427 0.01353 0.0
C410 C 0.74491 0.19769 0.92933 0.0
C411 C 0.77892 0.19711 0.91388 0.0
C412 C 0.80367 0.19502 0.94901 0.0
C413 C 0.79494 0.19375 0.99813 0.0
C414 C 0.78909 0.19721 0.8619 0.0
C415 C 0.77362 0.20788 0.82531 0.0
C416 C 0.78358 0.20768 0.77331 0.0
C417 C 0.75841 0.20906 0.73823 0.0
C418 C 0.76674 0.2097 0.68908 0.0
C419 C 0.80072 0.20926 0.67359 0.0
H420 H 0.83857 0.20728 0.78318 0.0
C421 C 0.82602 0.20798 0.70863 0.0
C422 C 0.81769 0.20733 0.7578 0.0
H423 H 0.85232 0.20733 0.69809 0.0
H424 H 0.70995 0.19721 0.98893 0.0
H425 H 0.72434 0.19834 0.90394 0.0
H426 H 0.8299 0.19421 0.93844 0.0
H427 H 0.81444 0.19152 0.02397 0.0
H428 H 0.81043 0.18804 0.85398 0.0
H429 H 0.75226 0.21703 0.83318 0.0
H430 H 0.7321 0.20971 0.74887 0.0
H431 H 0.74688 0.2113 0.66324 0.0
C432 C 0.5932 0.79012 0.33696 0.0
C433 C 0.55933 0.75833 0.35742 0.0
C434 C 0.59607 0.79622 0.28706 0.0
C435 C 0.56505 0.77055 0.25643 0.0
C436 C 0.53091 0.73941 0.27712 0.0
C437 C 0.52811 0.73326 0.32687 0.0
C438 C 0.56645 0.77557 0.20309 0.0
C439 C 0.60013 0.79545 0.17749 0.0
C440 C 0.60131 0.80043 0.12417 0.0
C441 C 0.63479 0.83227 0.10335 0.0
C442 C 0.63713 0.83846 0.05359 0.0
C443 C 0.60613 0.81269 0.02322 0.0
H444 H 0.54482 0.74836 0.10793 0.0
C445 C 0.57301 0.78015 0.04382 0.0
C446 C 0.5706 0.77402 0.0937 0.0
H447 H 0.54861 0.75975 0.02147 0.0
H448 H 0.6178 0.80998 0.35945 0.0
H449 H 0.62242 0.82134 0.27298 0.0
H450 H 0.50633 0.71946 0.25462 0.0
H451 H 0.50127 0.70893 0.34146 0.0
H452 H 0.53834 0.76168 0.1844 0.0
H453 H 0.62828 0.80948 0.19606 0.0
H454 H 0.65913 0.85279 0.12574 0.0
H455 H 0.66339 0.86342 0.03887 0.0
C456 C 0.78297 0.55532 0.64988 0.0
C457 C 0.81883 0.56793 0.67419 0.0
C458 C 0.78244 0.56156 0.60024 0.0
C459 C 0.81789 0.58058 0.57368 0.0
C460 C 0.85369 0.59398 0.59833 0.0
C461 C 0.85419 0.58761 0.64781 0.0
C462 C 0.81921 0.58793 0.52073 0.0
C463 C 0.78845 0.56768 0.4906 0.0
C464 C 0.79012 0.575 0.43764 0.0
C465 C 0.75466 0.56304 0.41277 0.0
C466 C 0.75467 0.56932 0.36318 0.0
C467 C 0.79019 0.58739 0.33695 0.0
H468 H 0.85358 0.60101 0.42849 0.0
C469 C 0.82565 0.59857 0.36153 0.0
C470 C 0.82567 0.59245 0.41125 0.0
H471 H 0.85354 0.61263 0.34246 0.0
H472 H 0.75518 0.54002 0.66907 0.0
H473 H 0.7542 0.55177 0.58322 0.0
H474 H 0.88151 0.60917 0.57913 0.0
H475 H 0.8824 0.59837 0.66549 0.0
H476 H 0.84713 0.61073 0.50622 0.0
H477 H 0.76042 0.54498 0.50497 0.0
H478 H 0.72677 0.54905 0.43188 0.0
H479 H 0.72674 0.55972 0.34529 0.0
C480 C 0.21816 0.78631 0.71274 0.0
C481 C 0.18028 0.77091 0.69271 0.0
C482 C 0.22345 0.7888 0.76277 0.0
C483 C 0.1909 0.77617 0.79403 0.0
C484 C 0.15314 0.76079 0.77389 0.0
C485 C 0.14788 0.75836 0.72398 0.0
C486 C 0.19459 0.77717 0.84758 0.0
C487 C 0.22841 0.80046 0.87156 0.0
C488 C 0.23223 0.80148 0.92509 0.0
C489 C 0.2701 0.81725 0.94504 0.0
C490 C 0.27553 0.81977 0.99491 0.0
C491 C 0.2432 0.80688 0.02636 0.0
H492 H 0.17012 0.77719 0.94298 0.0
C493 C 0.2052 0.79104 1.00654 0.0
C494 C 0.19973 0.78847 0.95652 0.0
H495 H 0.17971 0.78146 0.02967 0.0
H496 H 0.24368 0.7956 0.68975 0.0
H497 H 0.25296 0.7997 0.77648 0.0
H498 H 0.12749 0.75073 0.79689 0.0
H499 H 0.11832 0.74683 0.7099 0.0
H500 H 0.16798 0.75802 0.86767 0.0
H501 H 0.25499 0.81964 0.85142 0.0
H502 H 0.29571 0.82759 0.92191 0.0
H503 H 0.30518 0.83162 0.00882 0.0
C504 C 0.44385 0.21812 0.32727 0.0
C505 C 0.42601 0.23654 0.35187 0.0
C506 C 0.43838 0.21115 0.27759 0.0
C507 C 0.41488 0.22249 0.25128 0.0
C508 C 0.39631 0.23996 0.27621 0.0
C509 C 0.40194 0.24709 0.32574 0.0
C510 C 0.40808 0.21589 0.19831 0.0
C511 C 0.43235 0.21108 0.16799 0.0
C512 C 0.42562 0.20465 0.11499 0.0
C513 C 0.44431 0.18736 0.08992 0.0
C514 C 0.43885 0.18052 0.04032 0.0
C515 C 0.41481 0.19117 0.01427 0.0
H516 H 0.38812 0.23057 0.10613 0.0
C517 C 0.39681 0.20935 0.03903 0.0
C518 C 0.40213 0.21605 0.08877 0.0
H519 H 0.37805 0.21787 0.0201 0.0
H520 H 0.46263 0.20966 0.34628 0.0
H521 H 0.4523 0.1965 0.26032 0.0
H522 H 0.37762 0.24855 0.25719 0.0
H523 H 0.38719 0.26071 0.34366 0.0
H524 H 0.3822 0.21569 0.18402 0.0
H525 H 0.45822 0.21127 0.18229 0.0
H526 H 0.46299 0.17874 0.10887 0.0
H527 H 0.45372 0.16707 0.0223 0.0
C528 C 0.18684 0.50785 0.13474 0.0
C529 C 0.17709 0.50477 0.0856 0.0
C530 C 0.18406 0.53534 0.16403 0.0
C531 C 0.17119 0.5602 0.14487 0.0
C532 C 0.16043 0.55644 0.09614 0.0
C533 C 0.16375 0.52929 0.0666 0.0
C534 C 0.1679 0.58953 0.17537 0.0
C535 C 0.19349 0.60897 0.21124 0.0
C536 C 0.19081 0.63823 0.24254 0.0
C537 C 0.22554 0.66897 0.26255 0.0
C538 C 0.22405 0.69603 0.29399 0.0
C539 C 0.18767 0.69234 0.3068 0.0
H540 H 0.12694 0.61094 0.24101 0.0
C541 C 0.15283 0.66161 0.28696 0.0
C542 C 0.15436 0.63483 0.25491 0.0
H543 H 0.12441 0.65817 0.29637 0.0
H544 H 0.19697 0.48924 0.15066 0.0
H545 H 0.19151 0.53669 0.20179 0.0
H546 H 0.15002 0.57498 0.0807 0.0
H547 H 0.15563 0.52737 0.029 0.0
H548 H 0.14521 0.59671 0.1664 0.0
H549 H 0.21853 0.6046 0.2167 0.0
H550 H 0.25394 0.67205 0.25386 0.0
H551 H 0.25134 0.71939 0.30899 0.0
C552 C 0.64763 0.18045 0.41484 0.0
C553 C 0.68519 0.19047 0.4324 0.0
C554 C 0.61909 0.17997 0.44575 0.0
C555 C 0.6278 0.18984 0.4947 0.0
C556 C 0.66528 0.19984 0.51207 0.0
C557 C 0.69352 0.19981 0.48146 0.0
C558 C 0.59956 0.19229 0.52817 0.0
C559 C 0.56008 0.16995 0.52423 0.0
C560 C 0.53309 0.17293 0.55938 0.0
C561 C 0.4976 0.13899 0.57205 0.0
C562 C 0.4725 0.141 0.60647 0.0
C563 C 0.48218 0.17718 0.62797 0.0
H564 H 0.56884 0.23618 0.57035 0.0
C565 C 0.51707 0.21131 0.61427 0.0
C566 C 0.54229 0.20925 0.58034 0.0
H567 H 0.5251 0.23962 0.63013 0.0
H568 H 0.64035 0.17321 0.37721 0.0
H569 H 0.59074 0.17296 0.43096 0.0
H570 H 0.67283 0.20782 0.54953 0.0
H571 H 0.72221 0.20796 0.49622 0.0
H572 H 0.61201 0.21194 0.55888 0.0
H573 H 0.54728 0.1473 0.49666 0.0
H574 H 0.48967 0.11076 0.55602 0.0
H575 H 0.44552 0.11434 0.61611 0.0
C576 C 0.32392 0.48696 0.94192 0.0
C577 C 0.2901 0.48891 0.9539 0.0
C578 C 0.3523 0.51482 0.91081 0.0
C579 C 0.34712 0.54498 0.89098 0.0
C580 C 0.313 0.54648 0.9025 0.0
C581 C 0.28501 0.51904 0.93416 0.0
C582 C 0.3763 0.57488 0.85757 0.0
C583 C 0.41537 0.58884 0.86119 0.0
C584 C 0.44437 0.62091 0.82978 0.0
C585 C 0.4812 0.64861 0.84874 0.0
C586 C 0.5084 0.68017 0.82061 0.0
C587 C 0.49955 0.68414 0.77259 0.0
H588 H 0.40812 0.60284 0.76535 0.0
C589 C 0.46324 0.65557 0.75309 0.0
C590 C 0.43585 0.62433 0.78143 0.0
H591 H 0.45561 0.65768 0.71615 0.0
H592 H 0.32843 0.46386 0.95649 0.0
H593 H 0.37786 0.51232 0.90175 0.0
H594 H 0.30832 0.56938 0.88762 0.0
H595 H 0.25955 0.52163 0.94344 0.0
H596 H 0.36544 0.58794 0.83158 0.0
H597 H 0.42669 0.57887 0.89041 0.0
H598 H 0.48859 0.64636 0.88577 0.0
H599 H 0.53631 0.70147 0.83653 0.0
C600 C 0.8465 0.33214 0.28335 0.0
C601 C 0.8115 0.30212 0.30382 0.0
C602 C 0.84592 0.36142 0.25499 0.0
C603 C 0.81031 0.36129 0.24722 0.0
C604 C 0.77555 0.33154 0.26839 0.0
C605 C 0.77603 0.30201 0.29596 0.0
C606 C 0.80841 0.39229 0.21864 0.0
C607 C 0.83173 0.4101 0.18034 0.0
C608 C 0.82751 0.43919 0.15042 0.0
C609 C 0.83489 0.44098 0.10076 0.0
C610 C 0.83011 0.46733 0.07148 0.0
C611 C 0.81859 0.49301 0.09149 0.0
H612 H 0.81167 0.46539 0.20897 0.0
C613 C 0.81225 0.49194 0.14145 0.0
C614 C 0.81654 0.46525 0.1706 0.0
H615 H 0.80365 0.51152 0.15812 0.0
H616 H 0.87423 0.33285 0.28903 0.0
H617 H 0.8734 0.38447 0.24003 0.0
H618 H 0.74781 0.33092 0.26321 0.0
H619 H 0.74863 0.27929 0.31156 0.0
H620 H 0.785 0.39849 0.2274 0.0
H621 H 0.8524 0.40101 0.16837 0.0
H622 H 0.84372 0.42146 0.08443 0.0
H623 H 0.83565 0.46769 0.03321 0.0
C624 C 0.31005 0.80216 0.49125 0.0
C625 C 0.31451 0.81044 0.44163 0.0
C626 C 0.34216 0.80777 0.51907 0.0
C627 C 0.37953 0.82198 0.49793 0.0
C628 C 0.3843 0.83138 0.44872 0.0
C629 C 0.35204 0.8253 0.42068 0.0
C630 C 0.41392 0.82745 0.52658 0.0
C631 C 0.41012 0.80291 0.56275 0.0
C632 C 0.44395 0.8065 0.59091 0.0
C633 C 0.44143 0.77218 0.61002 0.0
C634 C 0.47203 0.77426 0.63794 0.0
C635 C 0.50546 0.81084 0.64817 0.0
H636 H 0.48006 0.87033 0.58749 0.0
C637 C 0.50804 0.84535 0.62948 0.0
C638 C 0.4776 0.84322 0.60082 0.0
H639 H 0.53354 0.8739 0.63699 0.0
H640 H 0.28165 0.79098 0.50865 0.0
H641 H 0.33771 0.80129 0.55722 0.0
H642 H 0.41289 0.84273 0.43172 0.0
H643 H 0.35656 0.83236 0.38266 0.0
H644 H 0.44312 0.8504 0.51548 0.0
H645 H 0.38128 0.77757 0.57028 0.0
H646 H 0.41573 0.7436 0.60319 0.0
H647 H 0.46922 0.7472 0.65213 0.0
C648 C 0.70308 0.47454 0.95015 0.0
C649 C 0.70031 0.50624 0.96929 0.0
C650 C 0.6721 0.44539 0.92307 0.0
C651 C 0.63754 0.44719 0.91512 0.0
C652 C 0.63445 0.47838 0.93529 0.0
C653 C 0.66568 0.50786 0.96174 0.0
C654 C 0.60386 0.41632 0.88729 0.0
C655 C 0.60879 0.39767 0.84951 0.0
C656 C 0.57536 0.36735 0.82084 0.0
C657 C 0.58108 0.36343 0.77172 0.0
C658 C 0.55053 0.33467 0.74381 0.0
C659 C 0.51381 0.30861 0.76474 0.0
H660 H 0.53348 0.34302 0.87989 0.0
C661 C 0.50816 0.31222 0.81408 0.0
C662 C 0.53857 0.34142 0.84184 0.0
H663 H 0.48026 0.29248 0.83131 0.0
H664 H 0.72906 0.47208 0.95639 0.0
H665 H 0.67497 0.42109 0.90927 0.0
H666 H 0.60799 0.48021 0.93006 0.0
H667 H 0.66266 0.53185 0.97638 0.0
H668 H 0.57444 0.41057 0.89643 0.0
H669 H 0.63846 0.40643 0.83735 0.0
H670 H 0.60925 0.38282 0.7548 0.0
H671 H 0.55596 0.33246 0.70599 0.0
loop_
_geom_bond_atom_site_label_1
_geom_bond_atom_site_label_2
_geom_bond_distance
_geom_bond_site_symmetry_2
_ccdc_geom_bond_type
Gd0 C3 2.818 . S
Gd0 O20 2.377 . S
Gd0 O22 2.448 . S
Gd0 O23 2.506 . S
Gd0 O24 2.435 . S
Gd0 O25 2.717 1_556 S
Gd0 O27 2.395 1_556 S
Gd0 O31 2.327 . S
Gd1 C12 2.818 . S
Gd1 O21 2.395 1_554 S
Gd1 O25 2.327 . S
Gd1 O26 2.377 . S
Gd1 O28 2.448 . S
Gd1 O29 2.506 . S
Gd1 O30 2.435 . S
Gd1 O31 2.717 1_554 S
C2 O20 1.240 . S
C2 O21 1.240 . S
C3 Gd0 2.818 . S
C3 C4 1.510 . S
C3 O22 1.249 . S
C3 O23 1.252 . S
C4 C3 1.510 . S
C4 C5 1.404 . S
C4 C6 1.352 . S
C5 C4 1.404 . S
C5 C9 1.389 . S
C5 H32 0.930 . S
C6 C4 1.352 . S
C6 C8 1.374 . S
C6 H33 0.931 . S
C7 C8 1.359 . S
C7 C9 1.364 . S
C8 C6 1.374 . S
C8 C7 1.359 . S
C8 H34 0.931 . S
C9 C5 1.389 . S
C9 C7 1.364 . S
C9 H35 0.931 . S
C10 O24 1.256 1_554 S
C10 O25 1.257 . S
C11 O26 1.240 . S
C11 O27 1.240 . S
C12 Gd1 2.818 . S
C12 C13 1.510 . S
C12 O28 1.249 . S
C12 O29 1.252 . S
C13 C12 1.510 . S
C13 C14 1.404 . S
C13 C15 1.352 . S
C14 C13 1.404 . S
C14 C18 1.389 . S
C14 H36 0.930 . S
C15 C13 1.352 . S
C15 C17 1.374 . S
C15 H37 0.931 . S
C16 C17 1.359 . S
C16 C18 1.364 . S
C17 C15 1.374 . S
C17 C16 1.359 . S
C17 H38 0.931 . S
C18 C14 1.389 . S
C18 C16 1.364 . S
C18 H39 0.931 . S
C19 O30 1.256 1_556 S
C19 O31 1.257 . S
O20 Gd0 2.377 . S
O20 C2 1.240 . S
O21 Gd1 2.395 1_556 S
O21 C2 1.240 . S
O22 Gd0 2.448 . S
O22 C3 1.249 . S
O23 Gd0 2.506 . S
O23 C3 1.252 . S
O24 Gd0 2.435 . S
O24 C10 1.256 1_556 S
O25 Gd0 2.717 1_554 S
O25 Gd1 2.327 . S
O25 C10 1.257 . S
O26 Gd1 2.377 . S
O26 C11 1.240 . S
O27 Gd0 2.395 1_554 S
O27 C11 1.240 . S
O28 Gd1 2.448 . S
O28 C12 1.249 . S
O29 Gd1 2.506 . S
O29 C12 1.252 . S
O30 Gd1 2.435 . S
O30 C19 1.256 1_554 S
O31 Gd0 2.327 . S
O31 Gd1 2.717 1_556 S
O31 C19 1.257 . S
H32 C5 0.930 . S
H33 C6 0.931 . S
H34 C8 0.931 . S
H35 C9 0.931 . S
H36 C14 0.930 . S
H37 C15 0.931 . S
H38 C17 0.931 . S
H39 C18 0.931 . S
Gd40 C43 2.818 . S
Gd40 O60 2.377 . S
Gd40 O62 2.448 . S
Gd40 O63 2.506 . S
Gd40 O64 2.435 . S
Gd40 O65 2.717 . S
Gd40 O67 2.395 . S
Gd40 O71 2.327 . S
Gd41 C52 2.818 . S
Gd41 O61 2.395 . S
Gd41 O65 2.327 . S
Gd41 O66 2.377 . S
Gd41 O68 2.448 . S
Gd41 O69 2.506 . S
Gd41 O70 2.435 . S
Gd41 O71 2.717 . S
C42 O60 1.240 . S
C42 O61 1.240 . S
C43 Gd40 2.818 . S
C43 C44 1.510 . S
C43 O62 1.249 . S
C43 O63 1.252 . S
C44 C43 1.510 . S
C44 C45 1.404 . S
C44 C46 1.352 . S
C45 C44 1.404 . S
C45 C49 1.389 . S
C45 H72 0.930 . S
C46 C44 1.352 . S
C46 C48 1.374 . S
C46 H73 0.931 . S
C47 C48 1.359 . S
C47 C49 1.364 . S
C48 C46 1.374 . S
C48 C47 1.359 . S
C48 H74 0.931 . S
C49 C45 1.389 . S
C49 C47 1.364 . S
C49 H75 0.931 . S
C50 O64 1.256 . S
C50 O65 1.257 . S
C51 O66 1.240 . S
C51 O67 1.240 . S
C52 Gd41 2.818 . S
C52 C53 1.510 . S
C52 O68 1.249 . S
C52 O69 1.252 . S
C53 C52 1.510 . S
C53 C54 1.404 . S
C53 C55 1.352 . S
C54 C53 1.404 . S
C54 C58 1.389 . S
C54 H76 0.930 . S
C55 C53 1.352 . S
C55 C57 1.374 . S
C55 H77 0.931 . S
C56 C57 1.359 . S
C56 C58 1.364 . S
C57 C55 1.374 . S
C57 C56 1.359 . S
C57 H78 0.931 . S
C58 C54 1.389 . S
C58 C56 1.364 . S
C58 H79 0.931 . S
C59 O70 1.256 . S
C59 O71 1.257 . S
O60 Gd40 2.377 . S
O60 C42 1.240 . S
O61 Gd41 2.395 . S
O61 C42 1.240 . S
O62 Gd40 2.448 . S
O62 C43 1.249 . S
O63 Gd40 2.506 . S
O63 C43 1.252 . S
O64 Gd40 2.435 . S
O64 C50 1.256 . S
O65 Gd40 2.717 . S
O65 Gd41 2.327 . S
O65 C50 1.257 . S
O66 Gd41 2.377 . S
O66 C51 1.240 . S
O67 Gd40 2.395 . S
O67 C51 1.240 . S
O68 Gd41 2.448 . S
O68 C52 1.249 . S
O69 Gd41 2.506 . S
O69 C52 1.252 . S
O70 Gd41 2.435 . S
O70 C59 1.256 . S
O71 Gd40 2.327 . S
O71 Gd41 2.717 . S
O71 C59 1.257 . S
H72 C45 0.930 . S
H73 C46 0.931 . S
H74 C48 0.931 . S
H75 C49 0.931 . S
H76 C54 0.930 . S
H77 C55 0.931 . S
H78 C57 0.931 . S
H79 C58 0.931 . S
Gd80 C83 2.818 . S
Gd80 O100 2.377 . S
Gd80 O102 2.448 . S
Gd80 O103 2.506 . S
Gd80 O104 2.435 . S
Gd80 O105 2.717 . S
Gd80 O107 2.395 . S
Gd80 O111 2.327 . S
Gd81 C92 2.818 . S
Gd81 O101 2.395 . S
Gd81 O105 2.327 . S
Gd81 O106 2.377 . S
Gd81 O108 2.448 . S
Gd81 O109 2.506 . S
Gd81 O110 2.435 . S
Gd81 O111 2.717 . S
C82 O100 1.240 . S
C82 O101 1.240 . S
C83 Gd80 2.818 . S
C83 C84 1.510 . S
C83 O102 1.249 . S
C83 O103 1.252 . S
C84 C83 1.510 . S
C84 C85 1.404 . S
C84 C86 1.352 . S
C85 C84 1.404 . S
C85 C89 1.389 . S
C85 H112 0.930 . S
C86 C84 1.352 . S
C86 C88 1.374 . S
C86 H113 0.931 . S
C87 C88 1.359 . S
C87 C89 1.364 . S
C88 C86 1.374 . S
C88 C87 1.359 . S
C88 H114 0.931 . S
C89 C85 1.389 . S
C89 C87 1.364 . S
C89 H115 0.931 . S
C90 O104 1.256 . S
C90 O105 1.257 . S
C91 O106 1.240 . S
C91 O107 1.240 . S
C92 Gd81 2.818 . S
C92 C93 1.510 . S
C92 O108 1.249 . S
C92 O109 1.252 . S
C93 C92 1.510 . S
C93 C94 1.404 . S
C93 C95 1.352 . S
C94 C93 1.404 . S
C94 C98 1.389 . S
C94 H116 0.930 . S
C95 C93 1.352 . S
C95 C97 1.374 . S
C95 H117 0.931 . S
C96 C97 1.359 . S
C96 C98 1.364 . S
C97 C95 1.374 . S
C97 C96 1.359 . S
C97 H118 0.931 . S
C98 C94 1.389 . S
C98 C96 1.364 . S
C98 H119 0.931 . S
C99 O110 1.256 . S
C99 O111 1.257 . S
O100 Gd80 2.377 . S
O100 C82 1.240 . S
O101 Gd81 2.395 . S
O101 C82 1.240 . S
O102 Gd80 2.448 . S
O102 C83 1.249 . S
O103 Gd80 2.506 . S
O103 C83 1.252 . S
O104 Gd80 2.435 . S
O104 C90 1.256 . S
O105 Gd80 2.717 . S
O105 Gd81 2.327 . S
O105 C90 1.257 . S
O106 Gd81 2.377 . S
O106 C91 1.240 . S
O107 Gd80 2.395 . S
O107 C91 1.240 . S
O108 Gd81 2.448 . S
O108 C92 1.249 . S
O109 Gd81 2.506 . S
O109 C92 1.252 . S
O110 Gd81 2.435 . S
O110 C99 1.256 . S
O111 Gd80 2.327 . S
O111 Gd81 2.717 . S
O111 C99 1.257 . S
H112 C85 0.930 . S
H113 C86 0.931 . S
H114 C88 0.931 . S
H115 C89 0.931 . S
H116 C94 0.930 . S
H117 C95 0.931 . S
H118 C97 0.931 . S
H119 C98 0.931 . S
Gd120 C123 2.818 . S
Gd120 O140 2.377 . S
Gd120 O142 2.448 . S
Gd120 O143 2.506 . S
Gd120 O144 2.435 . S
Gd120 O145 2.717 1_556 S
Gd120 O147 2.395 1_556 S
Gd120 O151 2.327 . S
Gd121 C132 2.818 . S
Gd121 O141 2.395 1_554 S
Gd121 O145 2.327 . S
Gd121 O146 2.377 . S
Gd121 O148 2.448 . S
Gd121 O149 2.506 . S
Gd121 O150 2.435 . S
Gd121 O151 2.717 1_554 S
C122 O140 1.240 . S
C122 O141 1.240 . S
C123 Gd120 2.818 . S
C123 C124 1.510 . S
C123 O142 1.249 . S
C123 O143 1.252 . S
C124 C123 1.510 . S
C124 C125 1.404 . S
C124 C126 1.352 . S
C125 C124 1.404 . S
C125 C129 1.389 . S
C125 H152 0.930 . S
C126 C124 1.352 . S
C126 C128 1.374 . S
C126 H153 0.931 . S
C127 C128 1.359 . S
C127 C129 1.364 . S
C128 C126 1.374 . S
C128 C127 1.359 . S
C128 H154 0.931 . S
C129 C125 1.389 . S
C129 C127 1.364 . S
C129 H155 0.931 . S
C130 O144 1.256 1_554 S
C130 O145 1.257 . S
C131 O146 1.240 . S
C131 O147 1.240 . S
C132 Gd121 2.818 . S
C132 C133 1.510 . S
C132 O148 1.249 . S
C132 O149 1.252 . S
C133 C132 1.510 . S
C133 C134 1.404 . S
C133 C135 1.352 . S
C134 C133 1.404 . S
C134 C138 1.389 . S
C134 H156 0.930 . S
C135 C133 1.352 . S
C135 C137 1.374 . S
C135 H157 0.931 . S
C136 C137 1.359 . S
C136 C138 1.364 . S
C137 C135 1.374 . S
C137 C136 1.359 . S
C137 H158 0.931 . S
C138 C134 1.389 . S
C138 C136 1.364 . S
C138 H159 0.931 . S
C139 O150 1.256 1_556 S
C139 O151 1.257 . S
O140 Gd120 2.377 . S
O140 C122 1.240 . S
O141 Gd121 2.395 1_556 S
O141 C122 1.240 . S
O142 Gd120 2.448 . S
O142 C123 1.249 . S
O143 Gd120 2.506 . S
O143 C123 1.252 . S
O144 Gd120 2.435 . S
O144 C130 1.256 1_556 S
O145 Gd120 2.717 1_554 S
O145 Gd121 2.327 . S
O145 C130 1.257 . S
O146 Gd121 2.377 . S
O146 C131 1.240 . S
O147 Gd120 2.395 1_554 S
O147 C131 1.240 . S
O148 Gd121 2.448 . S
O148 C132 1.249 . S
O149 Gd121 2.506 . S
O149 C132 1.252 . S
O150 Gd121 2.435 . S
O150 C139 1.256 1_554 S
O151 Gd120 2.327 . S
O151 Gd121 2.717 1_556 S
O151 C139 1.257 . S
H152 C125 0.930 . S
H153 C126 0.931 . S
H154 C128 0.931 . S
H155 C129 0.931 . S
H156 C134 0.930 . S
H157 C135 0.931 . S
H158 C137 0.931 . S
H159 C138 0.931 . S
Gd160 C163 2.818 . S
Gd160 O180 2.377 . S
Gd160 O182 2.448 . S
Gd160 O183 2.506 . S
Gd160 O184 2.435 . S
Gd160 O185 2.717 . S
Gd160 O187 2.395 . S
Gd160 O191 2.327 . S
Gd161 C172 2.818 . S
Gd161 O181 2.395 . S
Gd161 O185 2.327 . S
Gd161 O186 2.377 . S
Gd161 O188 2.448 . S
Gd161 O189 2.506 . S
Gd161 O190 2.435 . S
Gd161 O191 2.717 . S
C162 O180 1.240 . S
C162 O181 1.240 . S
C163 Gd160 2.818 . S
C163 C164 1.510 . S
C163 O182 1.249 . S
C163 O183 1.252 . S
C164 C163 1.510 . S
C164 C165 1.404 . S
C164 C166 1.352 . S
C165 C164 1.404 . S
C165 C169 1.389 . S
C165 H192 0.930 . S
C166 C164 1.352 . S
C166 C168 1.374 . S
C166 H193 0.931 . S
C167 C168 1.359 . S
C167 C169 1.364 . S
C168 C166 1.374 . S
C168 C167 1.359 . S
C168 H194 0.931 . S
C169 C165 1.389 . S
C169 C167 1.364 . S
C169 H195 0.931 . S
C170 O184 1.256 . S
C170 O185 1.257 . S
C171 O186 1.240 . S
C171 O187 1.240 . S
C172 Gd161 2.818 . S
C172 C173 1.510 . S
C172 O188 1.249 . S
C172 O189 1.252 . S
C173 C172 1.510 . S
C173 C174 1.404 . S
C173 C175 1.352 . S
C174 C173 1.404 . S
C174 C178 1.389 . S
C174 H196 0.930 . S
C175 C173 1.352 . S
C175 C177 1.374 . S
C175 H197 0.931 . S
C176 C177 1.359 . S
C176 C178 1.364 . S
C177 C175 1.374 . S
C177 C176 1.359 . S
C177 H198 0.931 . S
C178 C174 1.389 . S
C178 C176 1.364 . S
C178 H199 0.931 . S
C179 O190 1.256 . S
C179 O191 1.257 . S
O180 Gd160 2.377 . S
O180 C162 1.240 . S
O181 Gd161 2.395 . S
O181 C162 1.240 . S
O182 Gd160 2.448 . S
O182 C163 1.249 . S
O183 Gd160 2.506 . S
O183 C163 1.252 . S
O184 Gd160 2.435 . S
O184 C170 1.256 . S
O185 Gd160 2.717 . S
O185 Gd161 2.327 . S
O185 C170 1.257 . S
O186 Gd161 2.377 . S
O186 C171 1.240 . S
O187 Gd160 2.395 . S
O187 C171 1.240 . S
O188 Gd161 2.448 . S
O188 C172 1.249 . S
O189 Gd161 2.506 . S
O189 C172 1.252 . S
O190 Gd161 2.435 . S
O190 C179 1.256 . S
O191 Gd160 2.327 . S
O191 Gd161 2.717 . S
O191 C179 1.257 . S
H192 C165 0.930 . S
H193 C166 0.931 . S
H194 C168 0.931 . S
H195 C169 0.931 . S
H196 C174 0.930 . S
H197 C175 0.931 . S
H198 C177 0.931 . S
H199 C178 0.931 . S
Gd200 C203 2.818 . S
Gd200 O220 2.377 . S
Gd200 O222 2.448 . S
Gd200 O223 2.506 . S
Gd200 O224 2.435 . S
Gd200 O225 2.717 . S
Gd200 O227 2.395 . S
Gd200 O231 2.327 . S
Gd201 C212 2.818 . S
Gd201 O221 2.395 . S
Gd201 O225 2.327 . S
Gd201 O226 2.377 . S
Gd201 O228 2.448 . S
Gd201 O229 2.506 . S
Gd201 O230 2.435 . S
Gd201 O231 2.717 . S
C202 O220 1.240 . S
C202 O221 1.240 . S
C203 Gd200 2.818 . S
C203 C204 1.510 . S
C203 O222 1.249 . S
C203 O223 1.252 . S
C204 C203 1.510 . S
C204 C205 1.404 . S
C204 C206 1.352 . S
C205 C204 1.404 . S
C205 C209 1.389 . S
C205 H232 0.930 . S
C206 C204 1.352 . S
C206 C208 1.374 . S
C206 H233 0.931 . S
C207 C208 1.359 . S
C207 C209 1.364 . S
C208 C206 1.374 . S
C208 C207 1.359 . S
C208 H234 0.931 . S
C209 C205 1.389 . S
C209 C207 1.364 . S
C209 H235 0.931 . S
C210 O224 1.256 . S
C210 O225 1.257 . S
C211 O226 1.240 . S
C211 O227 1.240 . S
C212 Gd201 2.818 . S
C212 C213 1.510 . S
C212 O228 1.249 . S
C212 O229 1.252 . S
C213 C212 1.510 . S
C213 C214 1.404 . S
C213 C215 1.352 . S
C214 C213 1.404 . S
C214 C218 1.389 . S
C214 H236 0.930 . S
C215 C213 1.352 . S
C215 C217 1.374 . S
C215 H237 0.931 . S
C216 C217 1.359 . S
C216 C218 1.364 . S
C217 C215 1.374 . S
C217 C216 1.359 . S
C217 H238 0.931 . S
C218 C214 1.389 . S
C218 C216 1.364 . S
C218 H239 0.931 . S
C219 O230 1.256 . S
C219 O231 1.257 . S
O220 Gd200 2.377 . S
O220 C202 1.240 . S
O221 Gd201 2.395 . S
O221 C202 1.240 . S
O222 Gd200 2.448 . S
O222 C203 1.249 . S
O223 Gd200 2.506 . S
O223 C203 1.252 . S
O224 Gd200 2.435 . S
O224 C210 1.256 . S
O225 Gd200 2.717 . S
O225 Gd201 2.327 . S
O225 C210 1.257 . S
O226 Gd201 2.377 . S
O226 C211 1.240 . S
O227 Gd200 2.395 . S
O227 C211 1.240 . S
O228 Gd201 2.448 . S
O228 C212 1.249 . S
O229 Gd201 2.506 . S
O229 C212 1.252 . S
O230 Gd201 2.435 . S
O230 C219 1.256 . S
O231 Gd200 2.327 . S
O231 Gd201 2.717 . S
O231 C219 1.257 . S
H232 C205 0.930 . S
H233 C206 0.931 . S
H234 C208 0.931 . S
H235 C209 0.931 . S
H236 C214 0.930 . S
H237 C215 0.931 . S
H238 C217 0.931 . S
H239 C218 0.931 . S
C240 C241 1.386 . S
C240 C242 1.383 . S
C240 H256 0.951 . S
C241 C240 1.386 . S
C241 C245 1.383 . S
C242 C240 1.383 . S
C242 C243 1.402 . S
C242 H257 0.951 . S
C243 C242 1.402 . S
C243 C244 1.375 . S
C243 C246 1.481 . S
C244 C243 1.375 . S
C244 C245 1.367 . S
C244 H258 0.951 . S
C245 C241 1.383 . S
C245 C244 1.367 . S
C245 H259 0.950 . S
C246 C243 1.481 . S
C246 C247 1.297 . S
C246 H260 0.950 . S
C247 C246 1.297 . S
C247 C248 1.479 . S
C247 H261 0.950 . S
C248 C247 1.479 . S
C248 C249 1.375 . S
C248 C254 1.404 . S
C249 C248 1.375 . S
C249 C250 1.369 . S
C249 H262 0.950 . S
C250 C249 1.369 . S
C250 C251 1.392 . S
C250 H263 0.951 . S
C251 C250 1.392 . S
C251 C253 1.384 . S
H252 C254 0.949 . S
C253 C251 1.384 . S
C253 C254 1.385 . S
C253 H255 0.950 . S
C254 C248 1.404 . S
C254 H252 0.949 . S
C254 C253 1.385 . S
H255 C253 0.950 . S
H256 C240 0.951 . S
H257 C242 0.951 . S
H258 C244 0.951 . S
H259 C245 0.950 . S
H260 C246 0.950 . S
H261 C247 0.950 . S
H262 C249 0.950 . S
H263 C250 0.951 . S
C264 C265 1.386 . S
C264 C266 1.383 . S
C264 H280 0.951 . S
C265 C264 1.386 . S
C265 C269 1.383 . S
C266 C264 1.383 . S
C266 C267 1.402 . S
C266 H281 0.951 . S
C267 C266 1.402 . S
C267 C268 1.375 . S
C267 C270 1.481 . S
C268 C267 1.375 . S
C268 C269 1.367 . S
C268 H282 0.951 . S
C269 C265 1.383 . S
C269 C268 1.367 . S
C269 H283 0.950 . S
C270 C267 1.481 . S
C270 C271 1.297 1_455 S
C270 H284 0.950 . S
C271 C270 1.297 1_655 S
C271 C272 1.479 . S
C271 H285 0.950 . S
C272 C271 1.479 . S
C272 C273 1.375 . S
C272 C278 1.404 . S
C273 C272 1.375 . S
C273 C274 1.369 . S
C273 H286 0.950 . S
C274 C273 1.369 . S
C274 C275 1.392 . S
C274 H287 0.951 . S
C275 C274 1.392 . S
C275 C277 1.384 . S
H276 C278 0.949 . S
C277 C275 1.384 . S
C277 C278 1.385 . S
C277 H279 0.950 . S
C278 C272 1.404 . S
C278 H276 0.949 . S
C278 C277 1.385 . S
H279 C277 0.950 . S
H280 C264 0.951 . S
H281 C266 0.951 . S
H282 C268 0.951 . S
H283 C269 0.950 . S
H284 C270 0.950 . S
H285 C271 0.950 . S
H286 C273 0.950 . S
H287 C274 0.951 . S
C288 C289 1.386 . S
C288 C290 1.383 . S
C288 H304 0.951 . S
C289 C288 1.386 . S
C289 C293 1.383 . S
C290 C288 1.383 . S
C290 C291 1.402 . S
C290 H305 0.951 . S
C291 C290 1.402 . S
C291 C292 1.375 . S
C291 C294 1.481 1_545 S
C292 C291 1.375 . S
C292 C293 1.367 . S
C292 H306 0.951 . S
C293 C289 1.383 . S
C293 C292 1.367 . S
C293 H307 0.950 . S
C294 C291 1.481 1_565 S
C294 C295 1.297 . S
C294 H308 0.950 . S
C295 C294 1.297 . S
C295 C296 1.479 . S
C295 H309 0.950 . S
C296 C295 1.479 . S
C296 C297 1.375 . S
C296 C302 1.404 . S
C297 C296 1.375 . S
C297 C298 1.369 . S
C297 H310 0.950 . S
C298 C297 1.369 . S
C298 C299 1.392 . S
C298 H311 0.951 . S
C299 C298 1.392 . S
C299 C301 1.384 . S
H300 C302 0.949 . S
C301 C299 1.384 . S
C301 C302 1.385 . S
C301 H303 0.950 . S
C302 C296 1.404 . S
C302 H300 0.949 . S
C302 C301 1.385 . S
H303 C301 0.950 . S
H304 C288 0.951 . S
H305 C290 0.951 . S
H306 C292 0.951 . S
H307 C293 0.950 . S
H308 C294 0.950 . S
H309 C295 0.950 . S
H310 C297 0.950 . S
H311 C298 0.951 . S
C312 C313 1.386 . S
C312 C314 1.383 . S
C312 H328 0.951 . S
C313 C312 1.386 . S
C313 C317 1.383 . S
C314 C312 1.383 . S
C314 C315 1.402 . S
C314 H329 0.951 . S
C315 C314 1.402 . S
C315 C316 1.375 . S
C315 C318 1.481 . S
C316 C315 1.375 . S
C316 C317 1.367 . S
C316 H330 0.951 . S
C317 C313 1.383 . S
C317 C316 1.367 . S
C317 H331 0.950 . S
C318 C315 1.481 . S
C318 C319 1.297 . S
C318 H332 0.950 . S
C319 C318 1.297 . S
C319 C320 1.479 . S
C319 H333 0.950 . S
C320 C319 1.479 . S
C320 C321 1.375 . S
C320 C326 1.404 . S
C321 C320 1.375 . S
C321 C322 1.369 . S
C321 H334 0.950 . S
C322 C321 1.369 . S
C322 C323 1.392 . S
C322 H335 0.951 . S
C323 C322 1.392 . S
C323 C325 1.384 . S
H324 C326 0.949 . S
C325 C323 1.384 . S
C325 C326 1.385 . S
C325 H327 0.950 . S
C326 C320 1.404 . S
C326 H324 0.949 . S
C326 C325 1.385 . S
H327 C325 0.950 . S
H328 C312 0.951 . S
H329 C314 0.951 . S
H330 C316 0.951 . S
H331 C317 0.950 . S
H332 C318 0.950 . S
H333 C319 0.950 . S
H334 C321 0.950 . S
H335 C322 0.951 . S
C336 C337 1.386 . S
C336 C338 1.383 . S
C336 H352 0.951 . S
C337 C336 1.386 . S
C337 C341 1.383 . S
C338 C336 1.383 . S
C338 C339 1.402 . S
C338 H353 0.951 . S
C339 C338 1.402 . S
C339 C340 1.375 . S
C339 C342 1.481 . S
C340 C339 1.375 . S
C340 C341 1.367 . S
C340 H354 0.951 . S
C341 C337 1.383 . S
C341 C340 1.367 . S
C341 H355 0.950 . S
C342 C339 1.481 . S
C342 C343 1.297 . S
C342 H356 0.950 1_455 S
C343 C342 1.297 . S
C343 C344 1.479 1_455 S
C343 H357 0.950 . S
C344 C343 1.479 1_655 S
C344 C345 1.375 . S
C344 C350 1.404 . S
C345 C344 1.375 . S
C345 C346 1.369 . S
C345 H358 0.950 . S
C346 C345 1.369 . S
C346 C347 1.392 . S
C346 H359 0.951 . S
C347 C346 1.392 . S
C347 C349 1.384 . S
H348 C350 0.949 . S
C349 C347 1.384 . S
C349 C350 1.385 . S
C349 H351 0.950 . S
C350 C344 1.404 . S
C350 H348 0.949 . S
C350 C349 1.385 . S
H351 C349 0.950 . S
H352 C336 0.951 . S
H353 C338 0.951 . S
H354 C340 0.951 . S
H355 C341 0.950 . S
H356 C342 0.950 1_655 S
H357 C343 0.950 . S
H358 C345 0.950 . S
H359 C346 0.951 . S
C360 C361 1.386 . S
C360 C362 1.383 . S
C360 H376 0.951 . S
C361 C360 1.386 . S
C361 C365 1.383 . S
C362 C360 1.383 . S
C362 C363 1.402 . S
C362 H377 0.951 . S
C363 C362 1.402 . S
C363 C364 1.375 . S
C363 C366 1.481 . S
C364 C363 1.375 . S
C364 C365 1.367 . S
C364 H378 0.951 . S
C365 C361 1.383 . S
C365 C364 1.367 . S
C365 H379 0.950 . S
C366 C363 1.481 . S
C366 C367 1.297 1_545 S
C366 H380 0.950 . S
C367 C366 1.297 1_565 S
C367 C368 1.479 . S
C367 H381 0.950 . S
C368 C367 1.479 . S
C368 C369 1.375 . S
C368 C374 1.404 . S
C369 C368 1.375 . S
C369 C370 1.369 . S
C369 H382 0.950 . S
C370 C369 1.369 . S
C370 C371 1.392 . S
C370 H383 0.951 . S
C371 C370 1.392 . S
C371 C373 1.384 . S
H372 C374 0.949 . S
C373 C371 1.384 . S
C373 C374 1.385 . S
C373 H375 0.950 . S
C374 C368 1.404 . S
C374 H372 0.949 . S
C374 C373 1.385 . S
H375 C373 0.950 . S
H376 C360 0.951 . S
H377 C362 0.951 . S
H378 C364 0.951 . S
H379 C365 0.950 . S
H380 C366 0.950 . S
H381 C367 0.950 . S
H382 C369 0.950 . S
H383 C370 0.951 . S
C384 C385 1.386 . S
C384 C386 1.383 . S
C384 H400 0.951 . S
C385 C384 1.386 . S
C385 C389 1.383 . S
C386 C384 1.383 . S
C386 C387 1.402 . S
C386 H401 0.951 . S
C387 C386 1.402 . S
C387 C388 1.375 . S
C387 C390 1.481 . S
C388 C387 1.375 . S
C388 C389 1.367 . S
C388 H402 0.951 . S
C389 C385 1.383 . S
C389 C388 1.367 . S
C389 H403 0.950 . S
C390 C387 1.481 . S
C390 C391 1.297 . S
C390 H404 0.950 . S
C391 C390 1.297 . S
C391 C392 1.479 . S
C391 H405 0.950 . S
C392 C391 1.479 . S
C392 C393 1.375 . S
C392 C398 1.404 . S
C393 C392 1.375 . S
C393 C394 1.369 . S
C393 H406 0.950 . S
C394 C393 1.369 . S
C394 C395 1.392 . S
C394 H407 0.951 . S
C395 C394 1.392 . S
C395 C397 1.384 . S
H396 C398 0.949 . S
C397 C395 1.384 . S
C397 C398 1.385 . S
C397 H399 0.950 . S
C398 C392 1.404 . S
C398 H396 0.949 . S
C398 C397 1.385 . S
H399 C397 0.950 . S
H400 C384 0.951 . S
H401 C386 0.951 . S
H402 C388 0.951 . S
H403 C389 0.950 . S
H404 C390 0.950 . S
H405 C391 0.950 . S
H406 C393 0.950 . S
H407 C394 0.951 . S
C408 C409 1.386 . S
C408 C410 1.383 . S
C408 H424 0.951 . S
C409 C408 1.386 . S
C409 C413 1.383 . S
C410 C408 1.383 . S
C410 C411 1.402 . S
C410 H425 0.951 . S
C411 C410 1.402 . S
C411 C412 1.375 . S
C411 C414 1.481 . S
C412 C411 1.375 . S
C412 C413 1.367 . S
C412 H426 0.951 . S
C413 C409 1.383 . S
C413 C412 1.367 . S
C413 H427 0.950 . S
C414 C411 1.481 . S
C414 C415 1.297 . S
C414 H428 0.950 . S
C415 C414 1.297 . S
C415 C416 1.479 . S
C415 H429 0.950 . S
C416 C415 1.479 . S
C416 C417 1.375 . S
C416 C422 1.404 . S
C417 C416 1.375 . S
C417 C418 1.369 . S
C417 H430 0.950 . S
C418 C417 1.369 . S
C418 C419 1.392 . S
C418 H431 0.951 . S
C419 C418 1.392 . S
C419 C421 1.384 . S
H420 C422 0.949 . S
C421 C419 1.384 . S
C421 C422 1.385 . S
C421 H423 0.950 . S
C422 C416 1.404 . S
C422 H420 0.949 . S
C422 C421 1.385 . S
H423 C421 0.950 . S
H424 C408 0.951 . S
H425 C410 0.951 . S
H426 C412 0.951 . S
H427 C413 0.950 . S
H428 C414 0.950 . S
H429 C415 0.950 . S
H430 C417 0.950 . S
H431 C418 0.951 . S
C432 C433 1.386 . S
C432 C434 1.383 . S
C432 H448 0.951 . S
C433 C432 1.386 . S
C433 C437 1.383 . S
C434 C432 1.383 . S
C434 C435 1.402 . S
C434 H449 0.951 . S
C435 C434 1.402 . S
C435 C436 1.375 . S
C435 C438 1.481 . S
C436 C435 1.375 . S
C436 C437 1.367 . S
C436 H450 0.951 . S
C437 C433 1.383 . S
C437 C436 1.367 . S
C437 H451 0.950 . S
C438 C435 1.481 . S
C438 C439 1.297 . S
C438 H452 0.950 . S
C439 C438 1.297 . S
C439 C440 1.479 . S
C439 H453 0.950 . S
C440 C439 1.479 . S
C440 C441 1.375 . S
C440 C446 1.404 . S
C441 C440 1.375 . S
C441 C442 1.369 . S
C441 H454 0.950 . S
C442 C441 1.369 . S
C442 C443 1.392 . S
C442 H455 0.951 . S
C443 C442 1.392 . S
C443 C445 1.384 . S
H444 C446 0.949 . S
C445 C443 1.384 . S
C445 C446 1.385 . S
C445 H447 0.950 . S
C446 C440 1.404 . S
C446 H444 0.949 . S
C446 C445 1.385 . S
H447 C445 0.950 . S
H448 C432 0.951 . S
H449 C434 0.951 . S
H450 C436 0.951 . S
H451 C437 0.950 . S
H452 C438 0.950 . S
H453 C439 0.950 . S
H454 C441 0.950 . S
H455 C442 0.951 . S
C456 C457 1.386 . S
C456 C458 1.383 . S
C456 H472 0.951 . S
C457 C456 1.386 . S
C457 C461 1.383 . S
C458 C456 1.383 . S
C458 C459 1.402 . S
C458 H473 0.951 . S
C459 C458 1.402 . S
C459 C460 1.375 . S
C459 C462 1.481 . S
C460 C459 1.375 . S
C460 C461 1.367 . S
C460 H474 0.951 . S
C461 C457 1.383 . S
C461 C460 1.367 . S
C461 H475 0.950 . S
C462 C459 1.481 . S
C462 C463 1.297 . S
C462 H476 0.950 . S
C463 C462 1.297 . S
C463 C464 1.479 . S
C463 H477 0.950 . S
C464 C463 1.479 . S
C464 C465 1.375 . S
C464 C470 1.404 . S
C465 C464 1.375 . S
C465 C466 1.369 . S
C465 H478 0.950 . S
C466 C465 1.369 . S
C466 C467 1.392 . S
C466 H479 0.951 . S
C467 C466 1.392 . S
C467 C469 1.384 . S
H468 C470 0.949 . S
C469 C467 1.384 . S
C469 C470 1.385 . S
C469 H471 0.950 . S
C470 C464 1.404 . S
C470 H468 0.949 . S
C470 C469 1.385 . S
H471 C469 0.950 . S
H472 C456 0.951 . S
H473 C458 0.951 . S
H474 C460 0.951 . S
H475 C461 0.950 . S
H476 C462 0.950 . S
H477 C463 0.950 . S
H478 C465 0.950 . S
H479 C466 0.951 . S
C480 C481 1.386 . S
C480 C482 1.383 . S
C480 H496 0.951 . S
C481 C480 1.386 . S
C481 C485 1.383 . S
C482 C480 1.383 . S
C482 C483 1.402 . S
C482 H497 0.951 . S
C483 C482 1.402 . S
C483 C484 1.375 . S
C483 C486 1.481 . S
C484 C483 1.375 . S
C484 C485 1.367 . S
C484 H498 0.951 . S
C485 C481 1.383 . S
C485 C484 1.367 . S
C485 H499 0.950 . S
C486 C483 1.481 . S
C486 C487 1.297 . S
C486 H500 0.950 . S
C487 C486 1.297 . S
C487 C488 1.479 . S
C487 H501 0.950 . S
C488 C487 1.479 . S
C488 C489 1.375 . S
C488 C494 1.404 . S
C489 C488 1.375 . S
C489 C490 1.369 . S
C489 H502 0.950 . S
C490 C489 1.369 . S
C490 C491 1.392 . S
C490 H503 0.951 . S
C491 C490 1.392 . S
C491 C493 1.384 . S
H492 C494 0.949 . S
C493 C491 1.384 . S
C493 C494 1.385 . S
C493 H495 0.950 . S
C494 C488 1.404 . S
C494 H492 0.949 . S
C494 C493 1.385 . S
H495 C493 0.950 . S
H496 C480 0.951 . S
H497 C482 0.951 . S
H498 C484 0.951 . S
H499 C485 0.950 . S
H500 C486 0.950 . S
H501 C487 0.950 . S
H502 C489 0.950 . S
H503 C490 0.951 . S
C504 C505 1.386 . S
C504 C506 1.383 . S
C504 H520 0.951 . S
C505 C504 1.386 . S
C505 C509 1.383 . S
C506 C504 1.383 . S
C506 C507 1.402 . S
C506 H521 0.951 . S
C507 C506 1.402 . S
C507 C508 1.375 . S
C507 C510 1.481 . S
C508 C507 1.375 . S
C508 C509 1.367 . S
C508 H522 0.951 . S
C509 C505 1.383 . S
C509 C508 1.367 . S
C509 H523 0.950 . S
C510 C507 1.481 . S
C510 C511 1.297 . S
C510 H524 0.950 . S
C511 C510 1.297 . S
C511 C512 1.479 . S
C511 H525 0.950 . S
C512 C511 1.479 . S
C512 C513 1.375 . S
C512 C518 1.404 . S
C513 C512 1.375 . S
C513 C514 1.369 . S
C513 H526 0.950 . S
C514 C513 1.369 . S
C514 C515 1.392 . S
C514 H527 0.951 . S
C515 C514 1.392 . S
C515 C517 1.384 . S
H516 C518 0.949 . S
C517 C515 1.384 . S
C517 C518 1.385 . S
C517 H519 0.950 . S
C518 C512 1.404 . S
C518 H516 0.949 . S
C518 C517 1.385 . S
H519 C517 0.950 . S
H520 C504 0.951 . S
H521 C506 0.951 . S
H522 C508 0.951 . S
H523 C509 0.950 . S
H524 C510 0.950 . S
H525 C511 0.950 . S
H526 C513 0.950 . S
H527 C514 0.951 . S
C528 C529 1.386 . S
C528 C530 1.383 . S
C528 H544 0.951 . S
C529 C528 1.386 . S
C529 C533 1.383 . S
C530 C528 1.383 . S
C530 C531 1.402 . S
C530 H545 0.951 . S
C531 C530 1.402 . S
C531 C532 1.375 . S
C531 C534 1.481 . S
C532 C531 1.375 . S
C532 C533 1.367 . S
C532 H546 0.951 . S
C533 C529 1.383 . S
C533 C532 1.367 . S
C533 H547 0.950 . S
C534 C531 1.481 . S
C534 C535 1.297 . S
C534 H548 0.950 . S
C535 C534 1.297 . S
C535 C536 1.479 . S
C535 H549 0.950 . S
C536 C535 1.479 . S
C536 C537 1.375 . S
C536 C542 1.404 . S
C537 C536 1.375 . S
C537 C538 1.369 . S
C537 H550 0.950 . S
C538 C537 1.369 . S
C538 C539 1.392 . S
C538 H551 0.951 . S
C539 C538 1.392 . S
C539 C541 1.384 . S
H540 C542 0.949 . S
C541 C539 1.384 . S
C541 C542 1.385 . S
C541 H543 0.950 . S
C542 C536 1.404 . S
C542 H540 0.949 . S
C542 C541 1.385 . S
H543 C541 0.950 . S
H544 C528 0.951 . S
H545 C530 0.951 . S
H546 C532 0.951 . S
H547 C533 0.950 . S
H548 C534 0.950 . S
H549 C535 0.950 . S
H550 C537 0.950 . S
H551 C538 0.951 . S
C552 C553 1.386 . S
C552 C554 1.383 . S
C552 H568 0.951 . S
C553 C552 1.386 . S
C553 C557 1.383 . S
C554 C552 1.383 . S
C554 C555 1.402 . S
C554 H569 0.951 . S
C555 C554 1.402 . S
C555 C556 1.375 . S
C555 C558 1.481 . S
C556 C555 1.375 . S
C556 C557 1.367 . S
C556 H570 0.951 . S
C557 C553 1.383 . S
C557 C556 1.367 . S
C557 H571 0.950 . S
C558 C555 1.481 . S
C558 C559 1.297 . S
C558 H572 0.950 . S
C559 C558 1.297 . S
C559 C560 1.479 . S
C559 H573 0.950 . S
C560 C559 1.479 . S
C560 C561 1.375 . S
C560 C566 1.404 . S
C561 C560 1.375 . S
C561 C562 1.369 . S
C561 H574 0.950 . S
C562 C561 1.369 . S
C562 C563 1.392 . S
C562 H575 0.951 . S
C563 C562 1.392 . S
C563 C565 1.384 . S
H564 C566 0.949 . S
C565 C563 1.384 . S
C565 C566 1.385 . S
C565 H567 0.950 . S
C566 C560 1.404 . S
C566 H564 0.949 . S
C566 C565 1.385 . S
H567 C565 0.950 . S
H568 C552 0.951 . S
H569 C554 0.951 . S
H570 C556 0.951 . S
H571 C557 0.950 . S
H572 C558 0.950 . S
H573 C559 0.950 . S
H574 C561 0.950 . S
H575 C562 0.951 . S
C576 C577 1.386 . S
C576 C578 1.383 . S
C576 H592 0.951 . S
C577 C576 1.386 . S
C577 C581 1.383 . S
C578 C576 1.383 . S
C578 C579 1.402 . S
C578 H593 0.951 . S
C579 C578 1.402 . S
C579 C580 1.375 . S
C579 C582 1.481 . S
C580 C579 1.375 . S
C580 C581 1.367 . S
C580 H594 0.951 . S
C581 C577 1.383 . S
C581 C580 1.367 . S
C581 H595 0.950 . S
C582 C579 1.481 . S
C582 C583 1.297 . S
C582 H596 0.950 . S
C583 C582 1.297 . S
C583 C584 1.479 . S
C583 H597 0.950 . S
C584 C583 1.479 . S
C584 C585 1.375 . S
C584 C590 1.404 . S
C585 C584 1.375 . S
C585 C586 1.369 . S
C585 H598 0.950 . S
C586 C585 1.369 . S
C586 C587 1.392 . S
C586 H599 0.951 . S
C587 C586 1.392 . S
C587 C589 1.384 . S
H588 C590 0.949 . S
C589 C587 1.384 . S
C589 C590 1.385 . S
C589 H591 0.950 . S
C590 C584 1.404 . S
C590 H588 0.949 . S
C590 C589 1.385 . S
H591 C589 0.950 . S
H592 C576 0.951 . S
H593 C578 0.951 . S
H594 C580 0.951 . S
H595 C581 0.950 . S
H596 C582 0.950 . S
H597 C583 0.950 . S
H598 C585 0.950 . S
H599 C586 0.951 . S
C600 C601 1.386 . S
C600 C602 1.383 . S
C600 H616 0.951 . S
C601 C600 1.386 . S
C601 C605 1.383 . S
C602 C600 1.383 . S
C602 C603 1.402 . S
C602 H617 0.951 . S
C603 C602 1.402 . S
C603 C604 1.375 . S
C603 C606 1.481 . S
C604 C603 1.375 . S
C604 C605 1.367 . S
C604 H618 0.951 . S
C605 C601 1.383 . S
C605 C604 1.367 . S
C605 H619 0.950 . S
C606 C603 1.481 . S
C606 C607 1.297 . S
C606 H620 0.950 . S
C607 C606 1.297 . S
C607 C608 1.479 . S
C607 H621 0.950 . S
C608 C607 1.479 . S
C608 C609 1.375 . S
C608 C614 1.404 . S
C609 C608 1.375 . S
C609 C610 1.369 . S
C609 H622 0.950 . S
C610 C609 1.369 . S
C610 C611 1.392 . S
C610 H623 0.951 . S
C611 C610 1.392 . S
C611 C613 1.384 . S
H612 C614 0.949 . S
C613 C611 1.384 . S
C613 C614 1.385 . S
C613 H615 0.950 . S
C614 C608 1.404 . S
C614 H612 0.949 . S
C614 C613 1.385 . S
H615 C613 0.950 . S
H616 C600 0.951 . S
H617 C602 0.951 . S
H618 C604 0.951 . S
H619 C605 0.950 . S
H620 C606 0.950 . S
H621 C607 0.950 . S
H622 C609 0.950 . S
H623 C610 0.951 . S
C624 C625 1.386 . S
C624 C626 1.383 . S
C624 H640 0.951 . S
C625 C624 1.386 . S
C625 C629 1.383 . S
C626 C624 1.383 . S
C626 C627 1.402 . S
C626 H641 0.951 . S
C627 C626 1.402 . S
C627 C628 1.375 . S
C627 C630 1.481 . S
C628 C627 1.375 . S
C628 C629 1.367 . S
C628 H642 0.951 . S
C629 C625 1.383 . S
C629 C628 1.367 . S
C629 H643 0.950 . S
C630 C627 1.481 . S
C630 C631 1.297 . S
C630 H644 0.950 . S
C631 C630 1.297 . S
C631 C632 1.479 . S
C631 H645 0.950 . S
C632 C631 1.479 . S
C632 C633 1.375 . S
C632 C638 1.404 . S
C633 C632 1.375 . S
C633 C634 1.369 . S
C633 H646 0.950 . S
C634 C633 1.369 . S
C634 C635 1.392 . S
C634 H647 0.951 . S
C635 C634 1.392 . S
C635 C637 1.384 . S
H636 C638 0.949 . S
C637 C635 1.384 . S
C637 C638 1.385 . S
C637 H639 0.950 . S
C638 C632 1.404 . S
C638 H636 0.949 . S
C638 C637 1.385 . S
H639 C637 0.950 . S
H640 C624 0.951 . S
H641 C626 0.951 . S
H642 C628 0.951 . S
H643 C629 0.950 . S
H644 C630 0.950 . S
H645 C631 0.950 . S
H646 C633 0.950 . S
H647 C634 0.951 . S
C648 C649 1.386 . S
C648 C650 1.383 . S
C648 H664 0.951 . S
C649 C648 1.386 . S
C649 C653 1.383 . S
C650 C648 1.383 . S
C650 C651 1.402 . S
C650 H665 0.951 . S
C651 C650 1.402 . S
C651 C652 1.375 . S
C651 C654 1.481 . S
C652 C651 1.375 . S
C652 C653 1.367 . S
C652 H666 0.951 . S
C653 C649 1.383 . S
C653 C652 1.367 . S
C653 H667 0.950 1_556 S
C654 C651 1.481 . S
C654 C655 1.297 . S
C654 H668 0.950 . S
C655 C654 1.297 . S
C655 C656 1.479 . S
C655 H669 0.950 . S
C656 C655 1.479 . S
C656 C657 1.375 . S
C656 C662 1.404 . S
C657 C656 1.375 . S
C657 C658 1.369 . S
C657 H670 0.950 . S
C658 C657 1.369 . S
C658 C659 1.392 . S
C658 H671 0.951 . S
C659 C658 1.392 . S
C659 C661 1.384 . S
H660 C662 0.949 . S
C661 C659 1.384 . S
C661 C662 1.385 . S
C661 H663 0.950 . S
C662 C656 1.404 . S
C662 H660 0.949 . S
C662 C661 1.385 . S
H663 C661 0.950 . S
H664 C648 0.951 . S
H665 C650 0.951 . S
H666 C652 0.951 . S
H667 C653 0.950 1_554 S
H668 C654 0.950 . S
H669 C655 0.950 . S
H670 C657 0.950 . S
H671 C658 0.951 . S
C241 C210 1.340 . S
C251 C2 1.357 . S
C265 C10 1.327 . S
C275 C42 1.353 . S
C289 C50 1.325 . S
C299 C82 1.348 . S
C313 C90 1.344 . S
C323 C122 1.360 . S
C337 C162 1.344 . S
C347 C130 1.268 . S
C361 C202 1.361 . S
C371 C170 1.355 . S
C385 C7 1.366 . S
C395 C16 1.401 . S
C409 C47 1.396 1_556 S
C419 C56 1.445 . S
C433 C87 1.397 . S
C443 C96 1.342 1_554 S
C457 C127 1.429 . S
C467 C136 1.391 . S
C481 C176 1.390 . S
C491 C167 1.449 1_556 S
C505 C207 1.418 . S
C515 C216 1.416 1_554 S
C529 C11 1.609 . S
C539 C179 1.629 . S
C553 C51 1.620 . S
C563 C219 1.606 . S
C577 C19 1.627 . S
C587 C91 1.632 . S
C601 C59 1.632 . S
C611 C131 1.590 . S
C625 C171 1.623 . S
C635 C99 1.631 . S
C649 C139 1.621 . S
C659 C211 1.592 . S
