# Generated by pormake.
# Topology smc, (6)-cn, num edge types: 1
# Building blocks:
#     Node 0, Type 0, BuildingBlock: CUKXOW_clean_sbu_0, # of connection points: 6
#     Node 1, Type 0, BuildingBlock: CUKXOW_clean_sbu_0, # of connection points: 6
#     Node 2, Type 0, BuildingBlock: CUKXOW_clean_sbu_0, # of connection points: 6
#     Node 3, Type 0, BuildingBlock: CUKXOW_clean_sbu_0, # of connection points: 6
#     Node 4, Type 0, BuildingBlock: CUKXOW_clean_sbu_0, # of connection points: 6
#     Node 5, Type 0, BuildingBlock: CUKXOW_clean_sbu_0, # of connection points: 6
#     Node 6, Type 0, BuildingBlock: CUKXOW_clean_sbu_0, # of connection points: 6
#     Node 7, Type 0, BuildingBlock: CUKXOW_clean_sbu_0, # of connection points: 6
#     Node 8, Type 0, BuildingBlock: CUKXOW_clean_sbu_0, # of connection points: 6
#     Edge 9, Type (0, 0), BuildingBlock: ZUJKAS_clean_linker_0, # of connection points: 2
#     Edge 10, Type (0, 0), BuildingBlock: ZUJKAS_clean_linker_0, # of connection points: 2
#     Edge 11, Type (0, 0), BuildingBlock: ZUJKAS_clean_linker_0, # of connection points: 2
#     Edge 12, Type (0, 0), BuildingBlock: ZUJKAS_clean_linker_0, # of connection points: 2
#     Edge 13, Type (0, 0), BuildingBlock: ZUJKAS_clean_linker_0, # of connection points: 2
#     Edge 14, Type (0, 0), BuildingBlock: ZUJKAS_clean_linker_0, # of connection points: 2
#     Edge 15, Type (0, 0), BuildingBlock: ZUJKAS_clean_linker_0, # of connection points: 2
#     Edge 16, Type (0, 0), BuildingBlock: ZUJKAS_clean_linker_0, # of connection points: 2
#     Edge 17, Type (0, 0), BuildingBlock: ZUJKAS_clean_linker_0, # of connection points: 2
#     Edge 18, Type (0, 0), BuildingBlock: ZUJKAS_clean_linker_0, # of connection points: 2
#     Edge 19, Type (0, 0), BuildingBlock: ZUJKAS_clean_linker_0, # of connection points: 2
#     Edge 20, Type (0, 0), BuildingBlock: ZUJKAS_clean_linker_0, # of connection points: 2
#     Edge 21, Type (0, 0), BuildingBlock: ZUJKAS_clean_linker_0, # of connection points: 2
#     Edge 22, Type (0, 0), BuildingBlock: ZUJKAS_clean_linker_0, # of connection points: 2
#     Edge 23, Type (0, 0), BuildingBlock: ZUJKAS_clean_linker_0, # of connection points: 2
#     Edge 24, Type (0, 0), BuildingBlock: ZUJKAS_clean_linker_0, # of connection points: 2
#     Edge 25, Type (0, 0), BuildingBlock: ZUJKAS_clean_linker_0, # of connection points: 2
#     Edge 26, Type (0, 0), BuildingBlock: ZUJKAS_clean_linker_0, # of connection points: 2
#     Edge 27, Type (0, 0), BuildingBlock: ZUJKAS_clean_linker_0, # of connection points: 2
#     Edge 28, Type (0, 0), BuildingBlock: ZUJKAS_clean_linker_0, # of connection points: 2
#     Edge 29, Type (0, 0), BuildingBlock: ZUJKAS_clean_linker_0, # of connection points: 2
#     Edge 30, Type (0, 0), BuildingBlock: ZUJKAS_clean_linker_0, # of connection points: 2
#     Edge 31, Type (0, 0), BuildingBlock: ZUJKAS_clean_linker_0, # of connection points: 2
#     Edge 32, Type (0, 0), BuildingBlock: ZUJKAS_clean_linker_0, # of connection points: 2
#     Edge 33, Type (0, 0), BuildingBlock: ZUJKAS_clean_linker_0, # of connection points: 2
#     Edge 34, Type (0, 0), BuildingBlock: ZUJKAS_clean_linker_0, # of connection points: 2
#     Edge 35, Type (0, 0), BuildingBlock: ZUJKAS_clean_linker_0, # of connection points: 2
# Relax obj value: 0.115
# Max RMSD: 0.263
# Mean RMSD: 0.252
data_MOF--net-smc--node1-CUKXOW_clean_sbu_0--edge1-ZUJKAS_clean_linker_0
_symmetry_space_group_name_H-M    P1
_symmetry_Int_Tables_number       1
_symmetry_cell_setting            triclinic
loop_
_symmetry_equiv_pos_as_xyz
'x, y, z'
_cell_length_a     38.135173
_cell_length_b     41.80019
_cell_length_c     53.546416
_cell_angle_alpha  91.013568
_cell_angle_beta   91.085264
_cell_angle_gamma 119.87554
loop_
_atom_site_label
_atom_site_type_symbol
_atom_site_fract_x
_atom_site_fract_y
_atom_site_fract_z
_atom_type_partial_charge
Tb0 Tb 0.9981 0.42394 0.02893 0.0
C1 C 0.0464 0.46694 0.07607 0.0
Tb2 Tb 0.05892 0.50713 1.02386 0.0
O3 O 0.04875 0.41308 0.03797 0.0
O4 O 0.05895 0.45736 1.01701 0.0
O5 O 1.01028 0.44155 0.06753 0.0
C6 C 0.12565 0.57331 1.0223 0.0
O7 O 0.07216 0.49376 0.06169 0.0
C8 C 0.9848 0.49796 0.03027 0.0
C9 C 1.0145 0.45577 0.9755 0.0
O10 O 0.11157 0.55413 0.04212 0.0
O11 O 0.10243 0.55492 1.00311 0.0
O12 O 1.01746 0.52939 0.02797 0.0
O13 O 0.99576 0.47385 0.02936 0.0
O14 O 0.04809 0.4857 0.98447 0.0
O15 O 0.98732 0.43128 0.99024 0.0
C16 C 0.92804 0.36075 0.03296 0.0
O17 O 0.95572 0.36618 1.017 0.0
O18 O 0.94038 0.39048 0.04671 0.0
C19 C 0.07691 0.44288 0.02796 0.0
Tb20 Tb 0.60171 0.60624 0.02681 0.0
C21 C 0.59063 0.56119 0.97827 0.0
Tb22 Tb 0.56188 0.52215 0.03089 0.0
O23 O 0.66637 0.61809 0.03022 0.0
O24 O 0.61915 0.56677 0.02958 0.0
O25 O 0.59072 0.59055 0.98776 0.0
C26 C 0.56217 0.46003 0.03217 0.0
O27 O 0.58387 0.53278 0.99226 0.0
C28 C 0.50188 0.53689 0.02735 0.0
C29 C 0.57815 0.57334 0.07917 0.0
O30 O 0.54915 0.47061 1.01331 0.0
O31 O 0.57242 0.48314 0.05106 0.0
O32 O 0.4974 0.50415 0.02936 0.0
O33 O 0.53998 0.56026 0.02731 0.0
O34 O 0.57577 0.54223 0.07039 0.0
O35 O 0.58035 0.59909 0.06438 0.0
C36 C 0.61541 0.67388 1.02133 0.0
O37 O 0.62117 0.66124 0.04202 0.0
O38 O 0.60221 0.64843 1.00381 0.0
C39 C 0.65694 0.58366 0.03074 0.0
Tb40 Tb 0.44443 0.03291 0.03227 0.0
C41 C 0.43959 0.98409 0.07559 0.0
Tb42 Tb 0.46831 0.97785 1.02041 0.0
O43 O 0.38218 0.98819 0.03927 0.0
O44 O 0.41691 0.98147 1.01289 0.0
O45 O 0.44298 0.01593 0.0698 0.0
C46 C 0.46531 0.91388 1.01346 0.0
O47 O 0.44677 0.96386 0.0592 0.0
C48 C 0.53082 0.044 0.02704 0.0
C49 C 0.46282 0.02439 0.97719 0.0
O50 O 0.4519 0.92298 0.03268 0.0
O51 O 0.48175 0.94117 0.99852 0.0
O52 O 0.53114 0.0179 1.01388 0.0
O53 O 0.49856 0.03068 0.03908 0.0
O54 O 0.45461 0.99062 0.983 0.0
O55 O 0.46672 0.04856 0.99478 0.0
C56 C 0.44404 0.09443 0.04184 0.0
O57 O 0.42101 0.06988 0.02493 0.0
O58 O 0.46696 0.08424 0.05311 0.0
C59 C 0.38424 0.96489 1.02386 0.0
Tb60 Tb 0.66501 0.75735 0.35921 0.0
C61 C 0.71764 0.79811 0.40806 0.0
Tb62 Tb 0.73668 0.83842 0.35563 0.0
O63 O 0.7018 0.73403 0.34532 0.0
O64 O 0.72778 0.78581 0.36321 0.0
O65 O 0.68168 0.77251 0.39874 0.0
C66 C 0.80035 0.90791 0.35499 0.0
O67 O 0.74597 0.82309 0.39361 0.0
C68 C 0.66465 0.82985 0.36258 0.0
C69 C 0.68898 0.79018 0.30665 0.0
O70 O 0.77377 0.8939 0.37208 0.0
O71 O 0.7919 0.88209 0.33791 0.0
O72 O 0.69785 0.85961 0.36861 0.0
O73 O 0.6731 0.80926 0.35033 0.0
O74 O 0.72496 0.81689 0.31598 0.0
O75 O 0.65819 0.77067 0.32127 0.0
C76 C 0.59375 0.69828 0.3664 0.0
O77 O 0.619 0.7007 0.34963 0.0
O78 O 0.60878 0.72902 0.37944 0.0
C79 C 0.73509 0.76461 0.35065 0.0
Tb80 Tb 0.29043 0.91189 0.36933 0.0
C81 C 0.24379 0.91697 0.41363 0.0
Tb82 Tb 0.20173 0.88398 0.35955 0.0
O83 O 0.30492 0.96994 0.37607 0.0
O84 O 0.25545 0.93372 0.35391 0.0
O85 O 0.27304 0.91076 0.4073 0.0
C86 C 0.13514 0.88671 0.35287 0.0
O87 O 0.21456 0.91161 0.39722 0.0
C88 C 0.21019 0.82523 0.36821 0.0
C89 C 0.25655 0.8897 0.31417 0.0
O90 O 0.15111 0.88673 0.37441 0.0
O91 O 0.15542 0.88324 0.33489 0.0
O92 O 0.17607 0.82368 0.36276 0.0
O93 O 0.23683 0.85929 0.36849 0.0
O94 O 0.22287 0.88937 0.32089 0.0
O95 O 0.28469 0.89353 0.33071 0.0
C96 C 0.35552 0.90751 0.37814 0.0
O97 O 0.35272 0.92823 0.36126 0.0
O98 O 0.32255 0.89102 0.39041 0.0
C99 C 0.27219 0.96526 0.3646 0.0
Tb100 Tb 0.12621 0.37494 0.36501 0.0
C101 C 0.12113 0.32428 0.40845 0.0
Tb102 Tb 0.14764 0.31185 0.35327 0.0
O103 O 0.06252 0.33145 0.37095 0.0
O104 O 0.09903 0.32154 0.34758 0.0
O105 O 0.12569 0.35697 0.40275 0.0
C106 C 0.15971 0.25284 0.35123 0.0
O107 O 0.12563 0.30217 0.392 0.0
C108 C 0.20751 0.37941 0.35839 0.0
C109 C 0.14366 0.35881 0.3092 0.0
O110 O 0.18673 0.28703 0.35611 0.0
O111 O 0.12522 0.25166 0.34713 0.0
O112 O 0.2082 0.3544 0.34409 0.0
O113 O 0.17553 0.36546 0.37051 0.0
O114 O 0.13811 0.32556 0.315 0.0
O115 O 0.14601 0.38322 0.32641 0.0
C116 C 0.13767 0.44524 0.36899 0.0
O117 O 0.10895 0.41739 0.35605 0.0
O118 O 0.15873 0.43277 0.38037 0.0
C119 C 0.06527 0.30627 0.35762 0.0
Tb120 Tb 0.33709 0.09954 0.69572 0.0
C121 C 0.38194 0.14247 0.74538 0.0
Tb122 Tb 0.3971 0.18207 0.69189 0.0
O123 O 0.38397 0.08701 0.68114 0.0
O124 O 0.40085 0.13535 0.70049 0.0
O125 O 0.35123 0.11186 0.73538 0.0
C126 C 0.46168 0.24905 0.6921 0.0
O127 O 0.40536 0.17158 0.73164 0.0
C128 C 0.32276 0.17327 0.69156 0.0
C129 C 0.35458 0.13202 0.64325 0.0
O130 O 0.43365 0.23697 0.70844 0.0
O131 O 0.45376 0.22311 0.67538 0.0
O132 O 0.35603 0.2043 0.68995 0.0
O133 O 0.33284 0.14852 0.69308 0.0
O134 O 0.38887 0.16057 0.65263 0.0
O135 O 0.326 0.10884 0.65776 0.0
C136 C 0.26703 0.03795 0.70341 0.0
O137 O 0.2971 0.03927 0.69143 0.0
O138 O 0.27722 0.07086 0.7116 0.0
C139 C 0.41494 0.11881 0.68815 0.0
Tb140 Tb 0.93739 0.27519 0.69126 0.0
C141 C 0.9305 0.23088 0.64456 0.0
Tb142 Tb 0.90196 0.19712 0.69777 0.0
O143 O 0.99733 0.28227 0.68221 0.0
O144 O 0.96047 0.24165 0.70577 0.0
O145 O 0.92571 0.25821 0.65253 0.0
C146 C 0.89911 0.13314 0.69885 0.0
O147 O 0.92743 0.20552 0.66015 0.0
C148 C 0.83818 0.20525 0.68996 0.0
C149 C 0.91152 0.24697 0.74491 0.0
O150 O 0.89463 0.1479 0.67895 0.0
O151 O 0.90345 0.15352 0.71851 0.0
O152 O 0.83698 0.1743 0.69395 0.0
O153 O 0.87515 0.23124 0.69045 0.0
O154 O 0.90878 0.21525 0.73744 0.0
O155 O 0.91696 0.27255 0.72894 0.0
C156 C 0.95156 0.34364 0.68744 0.0
O157 O 0.96063 0.33093 0.70692 0.0
O158 O 0.93531 0.31798 0.67018 0.0
C159 C 0.99263 0.2536 0.69388 0.0
Tb160 Tb 0.78606 0.70624 0.70509 0.0
C161 C 0.79214 0.65848 0.74566 0.0
Tb162 Tb 0.81179 0.6525 0.68923 0.0
O163 O 0.72628 0.66022 0.71511 0.0
O164 O 0.75844 0.65481 0.68621 0.0
O165 O 0.8004 0.69229 0.74101 0.0
C166 C 0.80865 0.59059 0.6749 0.0
O167 O 0.79029 0.63591 0.72733 0.0
C168 C 0.87184 0.71557 0.70797 0.0
C169 C 0.80253 0.70113 0.64786 0.0
O170 O 0.78515 0.59351 0.69071 0.0
O171 O 0.83474 0.62295 0.66698 0.0
O172 O 0.87046 0.68396 0.70916 0.0
O173 O 0.84171 0.71063 0.69489 0.0
O174 O 0.80552 0.67122 0.65211 0.0
O175 O 0.79802 0.72056 0.66615 0.0
C176 C 0.78491 0.76683 0.71677 0.0
O177 O 0.76109 0.74244 0.69997 0.0
O178 O 0.80847 0.75652 0.72714 0.0
C179 C 0.72732 0.63765 0.69857 0.0
H180 H 0.45046 0.52318 0.98734 0.0
H181 H 0.38145 0.51328 0.98747 0.0
H182 H 0.39775 0.5456 0.06555 0.0
H183 H 0.46728 0.55649 0.06507 0.0
H184 H 0.31866 0.46466 1.00957 0.0
H185 H 0.33983 0.59811 0.04543 0.0
H186 H 0.38174 0.59292 0.03557 0.0
H187 H 0.36168 0.57914 0.06618 0.0
C188 C 0.44009 0.52996 1.00425 0.0
C189 C 0.46566 0.54248 0.02585 0.0
C190 C 0.4 0.52361 1.00447 0.0
C191 C 0.38335 0.52897 0.02643 0.0
C192 C 0.40925 0.54218 0.048 0.0
H193 H 0.11927 0.41444 0.05244 0.0
H194 H 0.19211 0.43578 0.05242 0.0
C195 C 0.44956 0.54876 0.0477 0.0
C196 C 0.33853 0.51803 0.02698 0.0
H197 H 0.27216 0.54728 0.04444 0.0
C198 C 0.30887 0.48302 1.01719 0.0
C199 C 0.32446 0.5415 0.03661 0.0
C200 C 0.35358 0.58013 0.04631 0.0
C201 C 0.26679 0.47088 1.01712 0.0
C202 C 0.25272 0.49386 0.0274 0.0
C203 C 0.28222 0.52914 0.03678 0.0
C204 C 0.20774 0.48165 0.02827 0.0
C205 C 0.23753 0.43357 1.00544 0.0
C206 C 0.19121 0.50047 1.01531 0.0
C207 C 0.14918 0.48814 1.0153 0.0
C208 C 0.12207 0.45667 0.0284 0.0
C209 C 0.13876 0.43842 0.04185 0.0
C210 C 0.18072 0.45066 0.04179 0.0
H211 H 0.25306 0.42253 0.99372 0.0
H212 H 0.22197 0.41378 1.0204 0.0
H213 H 0.21413 0.43513 0.99369 0.0
H214 H 0.21077 0.52445 1.00474 0.0
H215 H 0.13782 0.50316 1.00478 0.0
H216 H 0.48828 0.89071 0.97286 0.0
H217 H 0.50397 0.84079 0.97144 0.0
H218 H 0.46033 0.81116 0.04605 0.0
H219 H 0.44354 0.86044 0.04732 0.0
H220 H 0.56243 0.85355 1.00963 0.0
H221 H 0.4299 0.71106 1.01058 0.0
H222 H 0.42638 0.74959 0.99861 0.0
H223 H 0.42899 0.7446 0.03168 0.0
C224 C 0.4807 0.87263 0.98855 0.0
C225 C 0.46572 0.87954 1.01041 0.0
C226 C 0.48931 0.84409 0.98764 0.0
C227 C 0.48326 0.82266 1.00865 0.0
C228 C 0.46455 0.82722 0.02957 0.0
H229 H 0.61171 0.71419 0.06023 0.0
H230 H 0.58106 0.75353 0.05817 0.0
C231 C 0.45548 0.85555 0.03038 0.0
C232 C 0.50536 0.8027 1.011 0.0
H233 H 0.49506 0.7179 1.01851 0.0
C234 C 0.54775 0.82384 1.01138 0.0
C235 C 0.48574 0.76423 1.0138 0.0
C236 C 0.44022 0.74087 1.01351 0.0
C237 C 0.57132 0.80722 1.01415 0.0
C238 C 0.55179 0.76883 1.01661 0.0
C239 C 0.50946 0.74756 1.01662 0.0
C240 C 0.57506 0.75003 1.01783 0.0
C241 C 0.61685 0.83043 1.01428 0.0
C242 C 0.58319 0.73715 0.99568 0.0
C243 C 0.6008 0.71508 0.99675 0.0
C244 C 0.61008 0.70581 1.02 0.0
C245 C 0.60502 0.72136 0.04211 0.0
C246 C 0.58717 0.7433 0.04101 0.0
H247 H 0.62736 0.86036 1.01308 0.0
H248 H 0.62997 0.82586 0.03162 0.0
H249 H 0.62858 0.82181 0.99823 0.0
H250 H 0.57409 0.74266 0.9777 0.0
H251 H 0.60444 0.70317 0.97953 0.0
H252 H 0.38981 0.91555 0.99306 0.0
H253 H 0.3519 0.84816 0.99423 0.0
H254 H 0.28669 0.85476 0.0572 0.0
H255 H 0.32509 0.92253 0.05632 0.0
H256 H 0.34126 0.79769 0.03403 0.0
H257 H 0.19874 0.7923 1.00213 0.0
H258 H 0.24779 0.83298 0.99958 0.0
H259 H 0.2237 0.82171 0.02916 0.0
C260 C 0.36734 0.90265 1.00716 0.0
C261 C 0.35989 0.92422 0.02438 0.0
C262 C 0.34593 0.86416 1.00789 0.0
C263 C 0.31622 0.84649 0.02562 0.0
C264 C 0.3092 0.86794 0.04317 0.0
H265 H 0.1631 0.61883 0.06276 0.0
H266 H 0.2137 0.68469 0.06301 0.0
C267 C 0.33088 0.90656 0.04256 0.0
C268 C 0.29096 0.80567 0.02474 0.0
H269 H 0.19408 0.73582 1.01318 0.0
C270 C 0.30907 0.78411 0.02953 0.0
C271 C 0.24917 0.78807 1.01834 0.0
C272 C 0.22861 0.80984 1.01178 0.0
C273 C 0.28602 0.7453 0.02878 0.0
C274 C 0.24411 0.72791 1.02299 0.0
C275 C 0.22625 0.74941 1.01772 0.0
C276 C 0.21772 0.68736 1.02281 0.0
C277 C 0.30629 0.72292 0.03401 0.0
C278 C 0.20342 0.66719 1.00009 0.0
C279 C 0.17437 0.62961 0.99987 0.0
C280 C 0.15925 0.61179 1.02238 0.0
C281 C 0.17455 0.63183 0.04513 0.0
C282 C 0.20346 0.66938 0.04533 0.0
H283 H 0.33967 0.74046 0.03637 0.0
H284 H 0.29424 0.70733 0.0513 0.0
H285 H 0.29923 0.70242 1.01849 0.0
H286 H 0.21397 0.68076 0.98253 0.0
H287 H 0.16306 0.61474 0.98211 0.0
H288 H 0.4861 0.1448 0.07839 0.0
H289 H 0.51669 0.21159 0.07507 0.0
H290 H 0.45499 0.19579 1.00359 0.0
H291 H 0.42386 0.12883 1.0069 0.0
H292 H 0.56691 0.251 0.0324 0.0
H293 H 0.43201 0.26711 0.04687 0.0
H294 H 0.4342 0.22701 0.05664 0.0
H295 H 0.42569 0.23218 1.02425 0.0
C296 C 0.47817 0.15566 0.06236 0.0
C297 C 0.4527 0.13222 0.04293 0.0
C298 C 0.49597 0.19352 0.06037 0.0
C299 C 0.48813 0.20791 0.03902 0.0
C300 C 0.46099 0.18459 1.02019 0.0
H301 H 0.555 0.41871 0.99122 0.0
H302 H 0.55441 0.36013 0.99049 0.0
C303 C 0.44297 0.14663 1.02223 0.0
C304 C 0.50886 0.24755 0.03633 0.0
H305 H 0.49224 0.3199 0.0357 0.0
C306 C 0.55085 0.26632 0.03311 0.0
C307 C 0.48727 0.26667 0.03743 0.0
C308 C 0.44235 0.24737 0.04167 0.0
C309 C 0.57202 0.30457 0.03076 0.0
C310 C 0.55023 0.32343 0.0317 0.0
C311 C 0.50837 0.30463 0.0349 0.0
C312 C 0.56937 0.36306 0.02992 0.0
C313 C 0.61707 0.32479 0.02728 0.0
C314 C 0.57984 0.3842 0.05221 0.0
C315 C 0.57948 0.41723 0.05281 0.0
C316 C 0.56845 0.42871 0.03112 0.0
C317 C 0.56254 0.40957 1.00828 0.0
C318 C 0.56316 0.37674 1.00767 0.0
H319 H 0.62947 0.30575 0.02631 0.0
H320 H 0.62411 0.34059 1.00985 0.0
H321 H 0.63244 0.34503 0.04304 0.0
H322 H 0.58397 0.3733 0.06955 0.0
H323 H 0.58496 0.43229 0.07046 0.0
H324 H 0.56117 0.09135 0.06849 0.0
H325 H 0.62636 0.14986 0.07182 0.0
H326 H 0.6446 0.13953 0.99352 0.0
H327 H 0.58057 0.08131 0.99032 0.0
H328 H 0.70281 0.15438 0.05961 0.0
H329 H 0.67346 0.24885 1.003 0.0
H330 H 0.63339 0.20772 1.01631 0.0
H331 H 0.65635 0.20445 0.98808 0.0
C332 C 0.5788 0.10211 0.05196 0.0
C333 C 0.56603 0.08186 0.02916 0.0
C334 C 0.61602 0.13538 0.05386 0.0
C335 C 0.64026 0.14923 0.03285 0.0
C336 C 0.62632 0.12974 1.0099 0.0
H337 H 0.88929 0.30359 0.99843 0.0
H338 H 0.81895 0.25232 0.99918 0.0
C339 C 0.5898 0.09636 1.00812 0.0
C340 C 0.68179 0.18189 0.035 0.0
H341 H 0.74296 0.26654 1.01067 0.0
C342 C 0.71146 0.17913 0.04922 0.0
C343 C 0.69317 0.21408 1.02125 0.0
C344 C 0.66239 0.21924 1.00646 0.0
C345 C 0.75231 0.20715 0.04942 0.0
C346 C 0.76378 0.23877 0.03515 0.0
C347 C 0.73409 0.24201 1.02137 0.0
C348 C 0.80647 0.26911 0.03481 0.0
C349 C 0.78335 0.20257 0.06437 0.0
C350 C 0.82265 0.29526 0.05463 0.0
C351 C 0.86252 0.32449 0.05418 0.0
C352 C 0.88711 0.32797 0.03398 0.0
C353 C 0.87113 0.30137 1.01432 0.0
C354 C 0.83098 0.27227 1.01466 0.0
H355 H 0.77017 0.17504 0.07285 0.0
H356 H 0.80835 0.20636 0.05222 0.0
H357 H 0.79663 0.22414 0.07953 0.0
H358 H 0.80423 0.2933 0.07033 0.0
H359 H 0.87399 0.34463 0.06956 0.0
H360 H 0.91248 0.45503 1.00269 0.0
H361 H 0.8526 0.46337 1.00184 0.0
H362 H 0.90565 0.54332 0.06283 0.0
H363 H 0.96537 0.53608 0.06301 0.0
H364 H 0.79329 0.45794 0.03444 0.0
H365 H 0.88955 0.60473 1.01241 0.0
H366 H 0.90827 0.57274 1.01167 0.0
H367 H 0.90572 0.59345 0.04088 0.0
C368 C 0.9108 0.47362 1.01635 0.0
C369 C 0.94381 0.49454 0.03316 0.0
C370 C 0.87658 0.47871 1.01572 0.0
C371 C 0.87449 0.50489 0.03183 0.0
C372 C 0.90643 0.52383 0.04959 0.0
H373 H 0.73166 0.61399 0.05393 0.0
H374 H 0.7798 0.5915 0.05428 0.0
C375 C 0.94056 0.5192 0.04996 0.0
C376 C 0.8404 0.51391 0.02978 0.0
H377 H 0.82281 0.58645 1.02404 0.0
C378 C 0.79975 0.48605 0.03209 0.0
C379 C 0.84804 0.5505 0.02649 0.0
C380 C 0.89019 0.582 1.02246 0.0
C381 C 0.76739 0.49387 0.03255 0.0
C382 C 0.77522 0.5308 0.02986 0.0
C383 C 0.81586 0.55825 0.02664 0.0
C384 C 0.74293 0.54245 0.03098 0.0
C385 C 0.72548 0.46232 0.03699 0.0
C386 C 0.70482 0.52278 1.01821 0.0
C387 C 0.67625 0.53506 1.01901 0.0
C388 C 0.68538 0.56833 0.03165 0.0
C389 C 0.72341 0.58825 0.04404 0.0
C390 C 0.75127 0.57532 0.04405 0.0
H391 H 0.72654 0.43943 0.04656 0.0
H392 H 0.70789 0.47135 0.04848 0.0
H393 H 0.70924 0.45104 1.01874 0.0
H394 H 0.69725 0.49833 1.00697 0.0
H395 H 0.64761 0.51924 1.00882 0.0
H396 H 0.77542 0.76479 0.30968 0.0
H397 H 0.84972 0.79563 0.30822 0.0
H398 H 0.85828 0.81337 0.38838 0.0
H399 H 0.78504 0.78114 0.38994 0.0
H400 H 0.90007 0.86954 0.32477 0.0
H401 H 0.9333 0.77344 0.37686 0.0
H402 H 0.88335 0.75996 0.3645 0.0
H403 H 0.90159 0.78622 0.39351 0.0
C404 C 0.79346 0.77356 0.32694 0.0
C405 C 0.77542 0.77035 0.34992 0.0
C406 C 0.83547 0.79168 0.32609 0.0
C407 C 0.85886 0.80636 0.34823 0.0
C408 C 0.84047 0.80145 0.37124 0.0
H409 H 0.10552 0.91237 0.38826 0.0
H410 H 0.04104 0.9112 0.38564 0.0
C411 C 0.79886 0.78299 0.37212 0.0
C412 C 0.90264 0.82858 0.34756 0.0
H413 H 0.98831 0.83384 0.37138 0.0
C414 C 0.91962 0.8618 0.33475 0.0
C415 C 0.92736 0.8183 0.36104 0.0
C416 C 0.91046 0.78237 0.37456 0.0
C417 C 0.96151 0.8852 0.335 0.0
C418 C 0.98601 0.87478 0.34844 0.0
C419 C 0.96889 0.84187 0.36152 0.0
C420 C 0.0297 0.89396 0.34659 0.0
C421 C 0.97949 0.92056 0.32094 0.0
C422 C 0.04531 0.88711 0.32496 0.0
C423 C 0.08172 0.88719 0.32649 0.0
C424 C 0.10208 0.89399 0.34966 0.0
C425 C 0.08926 0.90591 0.37039 0.0
C426 C 0.05312 0.90616 0.3688 0.0
H427 H 0.95656 0.92867 0.31621 0.0
H428 H 1.00477 0.94333 0.33206 0.0
H429 H 0.99197 0.91673 0.30329 0.0
H430 H 0.02709 0.87718 0.30779 0.0
H431 H 0.09196 0.87878 0.31021 0.0
H432 H 0.10554 0.17751 0.35272 0.0
H433 H 0.12131 0.12715 0.35549 0.0
H434 H 0.24843 0.20639 0.35153 0.0
H435 H 0.23292 0.25638 0.3499 0.0
H436 H 0.15587 0.09916 0.32663 0.0
H437 H 0.25429 0.15523 0.41144 0.0
H438 H 0.22386 0.17421 0.40017 0.0
H439 H 0.27235 0.18785 0.38702 0.0
C440 C 0.13684 0.18413 0.3525 0.0
C441 C 0.16795 0.22119 0.35134 0.0
C442 C 0.14593 0.15524 0.35411 0.0
C443 C 0.18635 0.16259 0.3545 0.0
C444 C 0.21713 0.19957 0.35231 0.0
H445 H 0.31894 0.04108 0.36397 0.0
H446 H 0.29647 0.0867 0.36055 0.0
C447 C 0.20814 0.22832 0.3511 0.0
C448 C 0.19667 0.13205 0.35684 0.0
H449 H 0.25863 0.1079 0.38868 0.0
C450 C 0.17816 0.10103 0.34033 0.0
C451 C 0.22557 0.13376 0.37479 0.0
C452 C 0.24481 0.16435 0.39452 0.0
C453 C 0.18884 0.07299 0.3405 0.0
C454 C 0.21865 0.07528 0.35803 0.0
C455 C 0.23636 0.1059 0.3749 0.0
C456 C 0.23229 0.04678 0.35929 0.0
C457 C 0.16883 0.04195 0.32113 0.0
C458 C 0.20434 0.00866 0.36 0.0
C459 C 0.21743 0.98259 0.36116 0.0
C460 C 0.25872 0.99344 0.36265 0.0
C461 C 0.28681 0.03151 0.36278 0.0
C462 C 0.27383 0.05771 0.36087 0.0
H463 H 0.15735 0.05017 0.30465 0.0
H464 H 0.19 0.03284 0.31459 0.0
H465 H 0.14246 0.01816 0.32939 0.0
H466 H 0.17219 0.99883 0.36006 0.0
H467 H 0.19514 0.95385 0.36166 0.0
H468 H 0.06011 0.25555 0.32309 0.0
H469 H 1.01763 0.1883 0.32297 0.0
H470 H 0.96761 0.19678 0.39269 0.0
H471 H 1.00951 0.26441 0.39243 0.0
H472 H 1.01232 0.13629 0.35278 0.0
H473 H 0.86534 0.13297 0.35338 0.0
H474 H 0.91229 0.17481 0.34847 0.0
H475 H 0.89789 0.15855 0.3796 0.0
C476 C 0.03974 0.2431 0.3383 0.0
C477 C 0.03773 0.26543 0.35756 0.0
C478 C 1.01552 0.2045 0.33827 0.0
C479 C 0.98847 0.18699 0.35752 0.0
C480 C 0.98707 0.20932 0.37713 0.0
H481 H 0.8157 0.9598 0.39112 0.0
H482 H 0.86275 0.02606 0.39112 0.0
C483 C 1.0111 0.24809 0.37702 0.0
C484 C 0.96196 0.14558 0.35689 0.0
H485 H 0.86337 0.07598 0.35902 0.0
C486 C 0.97972 0.12318 0.35403 0.0
C487 C 0.91925 0.128 0.35835 0.0
C488 C 0.89749 0.14978 0.35986 0.0
C489 C 0.95629 0.08419 0.35321 0.0
C490 C 0.91367 0.06674 0.35495 0.0
C491 C 0.89596 0.0891 0.3577 0.0
C492 C 0.88679 0.02548 0.35497 0.0
C493 C 0.97753 0.06201 0.35116 0.0
C494 C 0.8843 1.00237 0.33465 0.0
C495 C 0.85712 0.96395 0.33462 0.0
C496 C 0.83179 0.94789 0.35487 0.0
C497 C 0.83478 0.97106 0.37521 0.0
C498 C 0.86172 0.00917 0.37523 0.0
H499 H 1.01034 0.07897 0.35606 0.0
H500 H 0.96386 0.03799 0.36352 0.0
H501 H 0.97436 0.05139 0.33162 0.0
H502 H 0.90262 0.01413 0.31852 0.0
H503 H 0.85532 0.94701 0.31857 0.0
H504 H 0.22144 0.79 0.40821 0.0
H505 H 0.21408 0.72798 0.40834 0.0
H506 H 0.19762 0.71954 0.32821 0.0
H507 H 0.20502 0.78132 0.3282 0.0
H508 H 0.15004 0.66187 0.39497 0.0
H509 H 0.27448 0.68051 0.3347 0.0
H510 H 0.27098 0.7191 0.34733 0.0
H511 H 0.24152 0.694 0.31982 0.0
C512 C 0.21769 0.77546 0.39054 0.0
C513 C 0.21522 0.79152 0.36812 0.0
C514 C 0.21292 0.73954 0.39061 0.0
C515 C 0.20572 0.71834 0.36825 0.0
C516 C 0.20409 0.73488 0.3458 0.0
H517 H 0.10729 0.47854 0.3378 0.0
H518 H 0.12448 0.54373 0.33752 0.0
C519 C 0.20847 0.77058 0.34577 0.0
C520 C 0.19739 0.6785 0.36851 0.0
H521 H 0.2247 0.61814 0.34271 0.0
C522 C 0.16672 0.65265 0.3836 0.0
C523 C 0.21875 0.66543 0.35384 0.0
C524 C 0.25353 0.69125 0.3382 0.0
C525 C 0.1565 0.61494 0.38397 0.0
C526 C 0.17728 0.60183 0.369 0.0
C527 C 0.20826 0.6276 0.35412 0.0
C528 C 0.16724 0.56165 0.36887 0.0
C529 C 0.12309 0.58892 0.40032 0.0
C530 C 0.18534 0.54914 0.38647 0.0
C531 C 0.17568 0.5117 0.38655 0.0
C532 C 0.14715 0.48518 0.36923 0.0
C533 C 0.129 0.49773 0.35165 0.0
C534 C 0.13901 0.53528 0.3514 0.0
H535 H 0.10866 0.60265 0.41033 0.0
H536 H 0.09959 0.56535 0.38878 0.0
H537 H 0.13545 0.5775 0.41429 0.0
H538 H 0.2071 0.56843 0.40025 0.0
H539 H 0.19055 0.50346 0.40034 0.0
H540 H 0.22882 0.42818 0.39808 0.0
H541 H 0.29132 0.48846 0.40271 0.0
H542 H 0.3217 0.47639 0.32726 0.0
H543 H 0.25997 0.41637 0.32268 0.0
H544 H 0.37761 0.48307 0.37096 0.0
H545 H 0.33619 0.59347 0.36669 0.0
H546 H 0.3048 0.55174 0.38308 0.0
H547 H 0.30678 0.5499 0.34973 0.0
C548 C 0.24839 0.43903 0.38234 0.0
C549 C 0.24018 0.41784 0.36013 0.0
C550 C 0.28385 0.47329 0.38497 0.0
C551 C 0.31077 0.48657 0.36528 0.0
C552 C 0.30109 0.46643 0.34258 0.0
H553 H 0.55395 0.64125 0.33311 0.0
H554 H 0.48439 0.59035 0.33502 0.0
C555 C 0.26605 0.43222 0.34005 0.0
C556 C 0.35162 0.51844 0.3692 0.0
H557 H 0.4057 0.61242 0.37032 0.0
C558 C 0.38385 0.5114 0.37108 0.0
C559 C 0.35918 0.55506 0.36944 0.0
C560 C 0.32508 0.56336 0.36709 0.0
C561 C 0.4239 0.54027 0.37261 0.0
C562 C 0.4317 0.577 0.37188 0.0
C563 C 0.39939 0.58412 0.37086 0.0
C564 C 0.4733 0.60815 0.37076 0.0
C565 C 0.45753 0.53123 0.37473 0.0
C566 C 0.48953 0.63532 0.38997 0.0
C567 C 0.52914 0.66465 0.38878 0.0
C568 C 0.55278 0.66691 0.3684 0.0
C569 C 0.53641 0.63974 0.34919 0.0
C570 C 0.4968 0.61072 0.35026 0.0
H571 H 0.44649 0.50298 0.38164 0.0
H572 H 0.47012 0.53257 0.35601 0.0
H573 H 0.48239 0.55134 0.38749 0.0
H574 H 0.47164 0.63369 0.40588 0.0
H575 H 0.54124 0.68548 0.40374 0.0
H576 H 0.34872 0.84941 0.4027 0.0
H577 H 0.38857 0.8193 0.39685 0.0
H578 H 0.46467 0.90359 0.34621 0.0
H579 H 0.42347 0.93333 0.35109 0.0
H580 H 0.43836 0.82694 0.33074 0.0
H581 H 0.50424 0.86761 0.42779 0.0
H582 H 0.44997 0.84353 0.42471 0.0
H583 H 0.47888 0.88886 0.41247 0.0
C584 C 0.37428 0.86187 0.39056 0.0
C585 C 0.38381 0.894 0.37764 0.0
C586 C 0.39653 0.84438 0.38706 0.0
C587 C 0.42911 0.85943 0.37118 0.0
C588 C 0.43914 0.89172 0.3584 0.0
H589 H 0.65009 0.88614 0.36749 0.0
H590 H 0.58439 0.88243 0.3661 0.0
C591 C 0.4163 0.90895 0.36152 0.0
C592 C 0.45485 0.84314 0.36954 0.0
H593 H 0.5272 0.83614 0.40268 0.0
C594 C 0.45752 0.82833 0.34645 0.0
C595 C 0.47905 0.84498 0.39035 0.0
C596 C 0.47827 0.86231 0.41521 0.0
C597 C 0.48647 0.81761 0.34316 0.0
C598 C 0.51226 0.82167 0.36361 0.0
C599 C 0.50687 0.83316 0.38721 0.0
C600 C 0.55058 0.82302 0.3601 0.0
C601 C 0.49154 0.80485 0.31766 0.0
C602 C 0.55261 0.79087 0.35625 0.0
C603 C 0.59025 0.79315 0.35633 0.0
C604 C 0.62541 0.82726 0.3613 0.0
C605 C 0.62315 0.85944 0.36433 0.0
C606 C 0.58588 0.85737 0.36335 0.0
H607 H 0.46823 0.80256 0.30383 0.0
H608 H 0.52194 0.82452 0.31079 0.0
H609 H 0.4895 0.7775 0.31888 0.0
H610 H 0.52535 0.76424 0.35382 0.0
H611 H 0.5918 0.76834 0.35297 0.0
H612 H 0.7736 0.16135 0.65977 0.0
H613 H 0.70556 0.15304 0.65958 0.0
H614 H 0.74476 0.24114 0.71505 0.0
H615 H 0.81392 0.25041 0.71441 0.0
H616 H 0.65438 0.12966 0.69496 0.0
H617 H 0.67586 0.26742 0.67345 0.0
H618 H 0.71561 0.25638 0.66962 0.0
H619 H 0.70472 0.26709 0.70018 0.0
C620 C 0.76819 0.17987 0.67136 0.0
C621 C 0.79985 0.20714 0.68663 0.0
C622 C 0.72882 0.17481 0.67145 0.0
C623 C 0.71894 0.19637 0.68717 0.0
C624 C 0.7509 0.22446 0.70215 0.0
H625 H 0.47917 0.17802 0.71269 0.0
H626 H 0.55106 0.19646 0.71336 0.0
C627 C 0.79083 0.22993 0.70176 0.0
C628 C 0.67482 0.18693 0.68877 0.0
H629 H 0.60981 0.22143 0.68351 0.0
C630 C 0.6449 0.14992 0.6923 0.0
C631 C 0.66143 0.21296 0.68592 0.0
C632 C 0.69097 0.25313 0.68188 0.0
C633 C 0.60306 0.13828 0.6929 0.0
C634 C 0.58935 0.16391 0.68901 0.0
C635 C 0.61935 0.20122 0.68615 0.0
C636 C 0.54448 0.15266 0.68808 0.0
C637 C 0.57422 0.09849 0.69857 0.0
C638 C 0.51546 0.12209 0.67331 0.0
C639 C 0.47377 0.11101 0.67326 0.0
C640 C 0.45951 0.1306 0.68749 0.0
C641 C 0.48859 0.16191 0.70155 0.0
C642 C 0.53014 0.17266 0.70189 0.0
H643 H 0.5896 0.08641 0.70951 0.0
H644 H 0.54817 0.09552 0.70927 0.0
H645 H 0.56269 0.08215 0.68076 0.0
H646 H 0.52497 0.10665 0.66159 0.0
H647 H 0.45268 0.08712 0.66192 0.0
H648 H 0.95032 0.38211 0.64804 0.0
H649 H 0.91898 0.42082 0.64665 0.0
H650 H 0.89952 0.4084 0.72593 0.0
H651 H 0.93281 0.37141 0.72757 0.0
H652 H 0.84081 0.39617 0.65768 0.0
H653 H 0.94343 0.51692 0.71954 0.0
H654 H 0.9576 0.48419 0.70823 0.0
H655 H 0.92404 0.47307 0.73387 0.0
C656 C 0.94099 0.38918 0.6653 0.0
C657 C 0.94453 0.3747 0.68797 0.0
C658 C 0.92261 0.41067 0.66445 0.0
C659 C 0.9071 0.41737 0.6862 0.0
C660 C 0.91214 0.40415 0.70908 0.0
H661 H 0.7713 0.53005 0.70197 0.0
H662 H 0.78403 0.47838 0.70225 0.0
C663 C 0.9314 0.38334 0.71004 0.0
C664 C 0.88388 0.43658 0.68446 0.0
H665 H 0.88368 0.51428 0.7041 0.0
C666 C 0.8501 0.42199 0.66784 0.0
C667 C 0.89593 0.46987 0.69807 0.0
C668 C 0.93241 0.48713 0.71577 0.0
C669 C 0.82889 0.4408 0.66377 0.0
C670 C 0.84192 0.47451 0.67675 0.0
C671 C 0.87432 0.48825 0.69418 0.0
C672 C 0.82465 0.49792 0.67145 0.0
C673 C 0.79344 0.42535 0.64537 0.0
C674 C 0.84255 0.525 0.6535 0.0
C675 C 0.83538 0.55456 0.65334 0.0
C676 C 0.81019 0.55681 0.67109 0.0
C677 C 0.78999 0.52815 0.68774 0.0
C678 C 0.79726 0.49878 0.68798 0.0
H679 H 0.78508 0.39725 0.63822 0.0
H680 H 0.76685 0.42427 0.65433 0.0
H681 H 0.80106 0.44392 0.62933 0.0
H682 H 0.86434 0.52469 0.64094 0.0
H683 H 0.85128 0.57656 0.64044 0.0
H684 H 0.67686 0.59239 0.73391 0.0
H685 H 0.63767 0.52446 0.73171 0.0
H686 H 0.68226 0.52449 0.6583 0.0
H687 H 0.72079 0.59201 0.6602 0.0
H688 H 0.59058 0.48152 0.66704 0.0
H689 H 0.68409 0.44977 0.73245 0.0
H690 H 0.68238 0.49196 0.73645 0.0
H691 H 0.70755 0.486 0.71042 0.0
C692 C 0.6779 0.5778 0.71727 0.0
C693 C 0.70156 0.59724 0.69719 0.0
C694 C 0.65602 0.53917 0.71615 0.0
C695 C 0.65768 0.5197 0.69498 0.0
C696 C 0.68093 0.53912 0.67484 0.0
H697 H 0.52361 0.28065 0.65935 0.0
H698 H 0.57541 0.34656 0.65819 0.0
C699 C 0.70265 0.57759 0.67592 0.0
C700 C 0.6329 0.47912 0.69303 0.0
H701 H 0.62467 0.39955 0.71498 0.0
C702 C 0.59814 0.46354 0.67734 0.0
C703 C 0.64314 0.45596 0.70645 0.0
C704 C 0.68128 0.47152 0.72249 0.0
C705 C 0.57251 0.42522 0.67537 0.0
C706 C 0.58226 0.40217 0.68925 0.0
C707 C 0.61758 0.41759 0.70438 0.0
C708 C 0.55355 0.3624 0.69045 0.0
C709 C 0.53432 0.40947 0.65928 0.0
C710 C 0.52495 0.35001 0.70912 0.0
C711 C 0.49577 0.31286 0.70984 0.0
C712 C 0.49471 0.28751 0.69184 0.0
C713 C 0.52393 0.29977 0.67339 0.0
C714 C 0.55336 0.33719 0.67272 0.0
H715 H 0.53251 0.43094 0.6483 0.0
H716 H 0.53261 0.38778 0.64622 0.0
H717 H 0.50765 0.39628 0.67133 0.0
H718 H 0.52473 0.36928 0.72284 0.0
H719 H 0.47349 0.30416 0.72421 0.0
H720 H 0.83404 0.81898 0.75058 0.0
H721 H 0.86539 0.8855 0.74572 0.0
H722 H 0.79159 0.86731 0.67908 0.0
H723 H 0.76009 0.80037 0.68366 0.0
H724 H 0.88832 0.91923 0.67969 0.0
H725 H 0.79945 0.94464 0.75108 0.0
H726 H 0.81743 0.91331 0.75849 0.0
H727 H 0.77965 0.90105 0.73409 0.0
C728 C 0.82377 0.82921 0.73528 0.0
C729 C 0.79466 0.80501 0.71756 0.0
C730 C 0.84202 0.86693 0.73237 0.0
C731 C 0.83095 0.88054 0.71188 0.0
C732 C 0.80047 0.85665 0.6948 0.0
H733 H 0.87594 0.08235 0.66127 0.0
H734 H 0.87517 0.02371 0.66247 0.0
C735 C 0.78211 0.81876 0.6977 0.0
C736 C 0.85064 0.92008 0.70894 0.0
H737 H 0.85192 0.99624 0.73267 0.0
C738 C 0.88071 0.93638 0.69121 0.0
C739 C 0.84033 0.94157 0.72426 0.0
C740 C 0.80732 0.92444 0.74301 0.0
C741 C 0.90082 0.97456 0.6883 0.0
C742 C 0.89014 0.99599 0.70353 0.0
C743 C 0.86051 0.97949 0.72147 0.0
C744 C 0.90429 0.03475 0.69922 0.0
C745 C 0.93282 0.99169 0.66899 0.0
C746 C 0.92164 0.06025 0.71932 0.0
C747 C 0.92073 0.09301 0.71905 0.0
C748 C 0.90303 0.10046 0.6985 0.0
C749 C 0.88922 0.07659 0.67742 0.0
C750 C 0.8896 0.04361 0.67784 0.0
H751 H 0.9447 0.97321 0.66347 0.0
H752 H 0.91951 0.99695 0.65203 0.0
H753 H 0.95835 0.01852 0.67611 0.0
H754 H 0.93262 0.05334 0.73603 0.0
H755 H 0.93245 0.11178 0.73518 0.0
H756 H 0.8833 0.78512 0.70207 0.0
H757 H 0.94819 0.84331 0.70056 0.0
H758 H 1.01223 0.78429 0.71398 0.0
H759 H 0.94788 0.72641 0.71601 0.0
H760 H 0.02504 0.86572 0.74465 0.0
H761 H 0.04705 0.85414 0.64305 0.0
H762 H 0.99735 0.8367 0.65565 0.0
H763 H 0.02479 0.81286 0.66105 0.0
C764 C 0.91123 0.78468 0.70502 0.0
C765 C 0.91048 0.75121 0.70934 0.0
C766 C 0.9482 0.81785 0.70401 0.0
C767 C 0.98489 0.81792 0.70698 0.0
C768 C 0.98419 0.7847 0.71159 0.0
H769 H 0.24049 0.96576 0.68954 0.0
H770 H 0.17086 0.91366 0.69043 0.0
C771 C 0.94737 0.7517 0.71289 0.0
C772 C 0.02431 0.85251 0.70563 0.0
H773 H 0.10205 0.9012 0.66663 0.0
C774 C 0.04182 0.87382 0.72758 0.0
C775 C 0.04601 0.86268 0.68334 0.0
C776 C 0.02804 0.84063 0.65929 0.0
C777 C 0.08118 0.90449 0.72807 0.0
C778 C 0.10335 0.91448 0.70582 0.0
C779 C 0.08527 0.89351 0.6837 0.0
C780 C 0.14554 0.9461 0.70522 0.0
C781 C 0.09911 0.9249 0.7527 0.0
C782 C 0.1545 0.98171 0.71297 0.0
C783 C 0.19422 0.01116 0.71293 0.0
C784 C 0.22575 0.00587 0.70461 0.0
C785 C 0.21681 0.97048 0.69631 0.0
C786 C 0.17703 0.94082 0.69668 0.0
H787 H 0.0832 0.90774 0.7688 0.0
H788 H 0.13172 0.93364 0.75471 0.0
H789 H 0.09602 0.94992 0.75366 0.0
H790 H 0.13071 0.98686 0.71887 0.0
H791 H 0.20008 0.0383 0.719 0.0
H792 H 0.24558 0.11819 0.70706 0.0
H793 H 0.18304 0.12257 0.70764 0.0
H794 H 0.24711 0.22992 0.67559 0.0
H795 H 0.30796 0.22549 0.67457 0.0
H796 H 0.16547 0.1736 0.73125 0.0
H797 H 0.14935 0.18238 0.62955 0.0
H798 H 0.1826 0.16773 0.64297 0.0
H799 H 0.19914 0.21616 0.64063 0.0
C800 C 0.24598 0.1423 0.6997 0.0
C801 C 0.2821 0.17127 0.6905 0.0
C802 C 0.21021 0.14501 0.70021 0.0
C803 C 0.20962 0.17643 0.69121 0.0
C804 C 0.24576 0.20495 0.68207 0.0
H805 H 0.07061 0.28818 0.67808 0.0
H806 H 0.11944 0.26628 0.67868 0.0
C807 C 0.28098 0.20236 0.68164 0.0
C808 C 0.17251 0.18097 0.69166 0.0
H809 H 0.11696 0.20746 0.65508 0.0
C810 C 0.1544 0.18032 0.71449 0.0
C811 C 0.15747 0.18983 0.66992 0.0
C812 C 0.17288 0.18869 0.64437 0.0
C813 C 0.12373 0.19009 0.71634 0.0
C814 C 0.11017 0.20068 0.69474 0.0
C815 C 0.12728 0.19996 0.67182 0.0
C816 C 0.07977 0.21411 0.69544 0.0
C817 C 0.10749 0.19064 0.74171 0.0
C818 C 0.04053 0.19245 0.70461 0.0
C819 C 1.01256 0.20536 0.70461 0.0
C820 C 0.02258 0.23998 0.69499 0.0
C821 C 0.06161 0.2614 0.68564 0.0
C822 C 0.08969 0.24877 0.68593 0.0
H823 H 0.12717 0.19009 0.75706 0.0
H824 H 0.10446 0.21554 0.74443 0.0
H825 H 0.07707 0.16593 0.74314 0.0
H826 H 0.03114 0.16522 0.71143 0.0
H827 H 0.98285 0.18792 0.71181 0.0
H828 H 0.10532 0.314 0.26753 0.0
H829 H 0.09449 0.33408 0.22655 0.0
H830 H 0.16843 0.44779 0.25133 0.0
H831 H 0.17992 0.42813 0.29167 0.0
H832 H 0.05678 0.37611 0.22037 0.0
H833 H 0.21041 0.45088 0.18215 0.0
H834 H 0.19831 0.41995 0.20778 0.0
H835 H 0.20746 0.46613 0.21316 0.0
C836 C 0.12035 0.34321 0.26389 0.0
C837 C 0.14356 0.3694 0.28285 0.0
C838 C 0.11388 0.35471 0.24055 0.0
C839 C 0.13097 0.39254 0.23569 0.0
C840 C 0.15559 0.41855 0.25429 0.0
H841 H 0.10478 0.5157 0.11078 0.0
H842 H 0.12546 0.49971 0.15051 0.0
C843 C 0.16193 0.40715 0.27748 0.0
C844 C 0.12009 0.40504 0.21232 0.0
H845 H 0.15973 0.45948 0.16182 0.0
C846 C 0.07928 0.39406 0.20746 0.0
C847 C 0.1495 0.42935 0.19578 0.0
C848 C 0.19384 0.44206 0.19983 0.0
C849 C 0.06706 0.40671 0.18671 0.0
C850 C 0.09628 0.43013 0.16966 0.0
C851 C 0.13723 0.44157 0.17473 0.0
C852 C 0.08446 0.44081 0.14574 0.0
C853 C 0.02289 0.39545 0.18375 0.0
C854 C 0.05544 0.41325 0.12953 0.0
C855 C 0.04303 0.42236 0.10745 0.0
C856 C 0.06009 0.45934 0.10035 0.0
C857 C 0.09059 0.48707 0.11591 0.0
C858 C 0.10247 0.47788 0.13855 0.0
H859 H 1.00826 0.39009 0.20214 0.0
H860 H 1.01876 0.41693 0.17446 0.0
H861 H 1.00689 0.36943 0.17231 0.0
H862 H 0.04237 0.38439 0.13386 0.0
H863 H 0.02049 0.40001 0.09558 0.0
H864 H 0.7425 0.78878 0.27329 0.0
H865 H 0.72423 0.75228 0.23374 0.0
H866 H 0.59962 0.72318 0.24187 0.0
H867 H 0.61778 0.76025 0.28041 0.0
H868 H 0.67322 0.67785 0.22939 0.0
H869 H 0.61062 0.74519 0.16949 0.0
H870 H 0.63971 0.7671 0.19788 0.0
H871 H 0.5869 0.73288 0.19905 0.0
C872 C 0.71162 0.77597 0.266 0.0
C873 C 0.68177 0.77786 0.27988 0.0
C874 C 0.70102 0.75462 0.24357 0.0
C875 C 0.66049 0.73508 0.23454 0.0
C876 C 0.63118 0.73853 0.24788 0.0
H877 H 0.52668 0.57962 0.11071 0.0
H878 H 0.54551 0.6153 0.15041 0.0
C879 C 0.6417 0.75981 0.27007 0.0
C880 C 0.64795 0.70858 0.21256 0.0
H881 H 0.59551 0.68471 0.15644 0.0
C882 C 0.65662 0.67961 0.2133 0.0
C883 C 0.6254 0.71017 0.19175 0.0
C884 C 0.61542 0.7407 0.18936 0.0
C885 C 0.64298 0.65206 0.19416 0.0
C886 C 0.62094 0.65392 0.17313 0.0
C887 C 0.61224 0.68292 0.17245 0.0
C888 C 0.60765 0.62702 0.15126 0.0
C889 C 0.65128 0.6206 0.19721 0.0
C890 C 0.63561 0.62037 0.1387 0.0
C891 C 0.62431 0.59875 0.1165 0.0
C892 C 0.58503 0.58386 0.10606 0.0
C893 C 0.55672 0.58962 0.11884 0.0
C894 C 0.56775 0.61057 0.14133 0.0
H895 H 0.6547 0.61592 0.21726 0.0
H896 H 0.62671 0.59452 0.18849 0.0
H897 H 0.6801 0.62754 0.18822 0.0
H898 H 0.66691 0.63365 0.14519 0.0
H899 H 0.64724 0.59623 0.10642 0.0
H900 H 0.38264 0.99447 0.09695 0.0
H901 H 0.34952 0.97184 0.13626 0.0
H902 H 0.41786 0.91642 0.14833 0.0
H903 H 0.45128 0.93885 0.10811 0.0
H904 H 0.30343 0.89347 0.15159 0.0
H905 H 0.43693 0.98747 0.21263 0.0
H906 H 0.43245 0.99696 0.18032 0.0
H907 H 0.44418 0.96168 0.18791 0.0
C908 C 0.39098 0.97761 0.10793 0.0
C909 C 0.42011 0.96889 0.09958 0.0
C910 C 0.37171 0.96451 0.13037 0.0
C911 C 0.38136 0.9427 0.1453 0.0
C912 C 0.41016 0.93344 0.13706 0.0
H913 H 0.307 0.8682 0.29484 0.0
H914 H 0.33414 0.87829 0.2531 0.0
C915 C 0.42915 0.94614 0.11415 0.0
C916 C 0.36114 0.93041 0.16952 0.0
H917 H 0.37638 0.94829 0.23247 0.0
C918 C 0.31938 0.90515 0.16932 0.0
C919 C 0.3819 0.94623 0.19254 0.0
C920 C 0.4263 0.97479 0.19361 0.0
C921 C 0.29793 0.89494 0.1916 0.0
C922 C 0.31866 0.91087 0.21464 0.0
C923 C 0.36048 0.93605 0.2148 0.0
C924 C 0.29808 0.90114 0.23898 0.0
C925 C 0.2534 0.86688 0.19038 0.0
C926 C 0.26782 0.90975 0.24484 0.0
C927 C 0.25191 0.90381 0.2689 0.0
C928 C 0.26637 0.88951 0.28747 0.0
C929 C 0.2953 0.87946 0.28106 0.0
C930 C 0.31099 0.88528 0.25718 0.0
H931 H 0.24392 0.85151 0.1721 0.0
H932 H 0.24564 0.84681 0.2055 0.0
H933 H 0.23578 0.88121 0.19296 0.0
H934 H 0.25774 0.92248 0.23118 0.0
H935 H 0.23007 0.91227 0.27332 0.0
H936 H 0.39489 0.0159 0.95499 0.0
H937 H 0.38811 0.03967 0.91478 0.0
H938 H 0.51433 0.07935 0.90178 0.0
H939 H 0.52088 0.05506 0.94215 0.0
H940 H 0.42882 0.11253 0.90284 0.0
H941 H 0.46102 0.02962 0.83442 0.0
H942 H 0.44958 0.01669 0.8665 0.0
H943 H 0.49901 0.05296 0.85879 0.0
C944 C 0.42083 0.02876 0.94316 0.0
C945 C 0.45814 0.03304 0.95125 0.0
C946 C 0.41706 0.04259 0.92031 0.0
C947 C 0.45058 0.06107 0.90508 0.0
C948 C 0.48783 0.0646 0.91292 0.0
H949 H 0.45942 0.17317 0.76474 0.0
H950 H 0.48087 0.15767 0.80416 0.0
C951 C 0.4916 0.05072 0.93591 0.0
C952 C 0.44668 0.07868 0.88202 0.0
H953 H 0.45066 0.07671 0.81825 0.0
C954 C 0.4338 0.10477 0.88437 0.0
C955 C 0.45346 0.06884 0.85788 0.0
C956 C 0.46622 0.04029 0.85408 0.0
C957 C 0.42666 0.12058 0.86333 0.0
C958 C 0.43229 0.10997 0.83923 0.0
C959 C 0.4465 0.08488 0.8368 0.0
C960 C 0.42003 0.1221 0.81637 0.0
C961 C 0.41255 0.1482 0.86693 0.0
C962 C 0.3788 0.10776 0.81041 0.0
C963 C 0.36652 0.11642 0.78798 0.0
C964 C 0.39521 0.13997 0.77113 0.0
C965 C 0.4366 0.1556 0.77759 0.0
C966 C 0.4489 0.14643 0.79994 0.0
H967 H 0.4178 0.15928 0.88649 0.0
H968 H 0.42832 0.17154 0.85419 0.0
H969 H 0.37963 0.13459 0.86234 0.0
H970 H 0.35604 0.08876 0.82275 0.0
H971 H 0.33445 0.10361 0.78341 0.0
H972 H 0.06704 0.44786 0.94555 0.0
H973 H 0.04914 0.41099 0.90617 0.0
H974 H 0.92959 0.39759 0.90685 0.0
H975 H 0.94706 0.43362 0.94633 0.0
H976 H 0.96958 0.33062 0.90338 0.0
H977 H 0.97861 0.43035 0.8327 0.0
H978 H 1.00914 0.44526 0.86134 0.0
H979 H 0.95605 0.42957 0.86213 0.0
C980 C 0.03755 0.43835 0.93672 0.0
C981 C 1.00876 0.44441 0.94868 0.0
C982 C 0.02713 0.41679 0.91445 0.0
C983 C 0.98799 0.40146 0.90358 0.0
C984 C 0.95999 0.40923 0.91481 0.0
H985 H 0.87059 0.27683 0.76664 0.0
H986 H 0.88658 0.31021 0.80694 0.0
C987 C 0.97015 0.43018 0.93721 0.0
C988 C 0.97531 0.37551 0.88145 0.0
H989 H 0.95341 0.36886 0.81881 0.0
C990 C 0.96626 0.33894 0.88481 0.0
C991 C 0.97022 0.38619 0.8574 0.0
C992 C 0.9791 0.42499 0.85292 0.0
C993 C 0.95174 0.31264 0.8648 0.0
C994 C 0.94736 0.32347 0.8405 0.0
C995 C 0.95664 0.36024 0.83728 0.0
C996 C 0.93309 0.29754 0.81807 0.0
C997 C 0.93988 0.27327 0.87017 0.0
C998 C 0.95246 0.27764 0.81107 0.0
C999 C 0.94231 0.25744 0.78821 0.0
C1000 C 0.91324 0.25743 0.77169 0.0
C1001 C 0.89267 0.27588 0.77918 0.0
C1002 C 0.90219 0.29537 0.80213 0.0
H1003 H 0.93215 0.26702 0.89006 0.0
H1004 H 0.91358 0.2534 0.85822 0.0
H1005 H 0.96578 0.26896 0.86644 0.0
H1006 H 0.97708 0.27942 0.82253 0.0
H1007 H 0.9595 0.24442 0.7826 0.0
H1008 H 0.79019 0.69743 0.78659 0.0
H1009 H 0.75423 0.67308 0.82501 0.0
H1010 H 0.72215 0.56287 0.80045 0.0
H1011 H 0.75775 0.58693 0.76144 0.0
H1012 H 0.66427 0.61187 0.82212 0.0
H1013 H 0.76805 0.58043 0.87745 0.0
H1014 H 0.78668 0.6156 0.85425 0.0
H1015 H 0.75907 0.56786 0.84459 0.0
C1016 C 0.77624 0.66805 0.78942 0.0
C1017 C 0.77699 0.64417 0.7708 0.0
C1018 C 0.75556 0.65419 0.81145 0.0
C1019 C 0.73555 0.61622 0.8156 0.0
C1020 C 0.73766 0.59234 0.79767 0.0
H1021 H 0.60406 0.51128 0.95154 0.0
H1022 H 0.63509 0.51997 0.91058 0.0
C1023 C 0.75819 0.60617 0.77543 0.0
C1024 C 0.71006 0.60177 0.83782 0.0
H1025 H 0.70842 0.57041 0.89651 0.0
C1026 C 0.67369 0.60247 0.83833 0.0
C1027 C 0.72223 0.58922 0.85878 0.0
C1028 C 0.76118 0.58819 0.85902 0.0
C1029 C 0.6494 0.59148 0.85939 0.0
C1030 C 0.66243 0.58055 0.88096 0.0
C1031 C 0.6983 0.57877 0.8801 0.0
C1032 C 0.64098 0.57361 0.90505 0.0
C1033 C 0.6099 0.59163 0.85815 0.0
C1034 C 0.63381 0.60067 0.91566 0.0
C1035 C 0.61547 0.59548 0.9387 0.0
C1036 C 0.60456 0.5634 0.95221 0.0
C1037 C 0.61152 0.53609 0.94157 0.0
C1038 C 0.62957 0.54117 0.91822 0.0
H1039 H 0.59748 0.58691 0.83865 0.0
H1040 H 0.5869 0.57017 0.86998 0.0
H1041 H 0.61519 0.61906 0.86472 0.0
H1042 H 0.64343 0.62647 0.90645 0.0
H1043 H 0.61121 0.61746 0.94628 0.0
H1044 H 0.759 0.84777 0.44688 0.0
H1045 H 0.77933 0.83408 0.48762 0.0
H1046 H 0.72611 0.71959 0.46446 0.0
H1047 H 0.70492 0.73277 0.42439 0.0
H1048 H 0.71224 0.76147 0.52031 0.0
H1049 H 0.85676 0.77079 0.49185 0.0
H1050 H 0.83763 0.7983 0.47774 0.0
H1051 H 0.81364 0.74985 0.47032 0.0
C1052 C 0.75162 0.81976 0.45064 0.0
C1053 C 0.7299 0.79122 0.43277 0.0
C1054 C 0.76327 0.81199 0.47377 0.0
C1055 C 0.75429 0.77585 0.47887 0.0
C1056 C 0.73322 0.74759 0.46084 0.0
H1057 H 0.79019 0.66198 0.60339 0.0
H1058 H 0.78094 0.68048 0.56148 0.0
C1059 C 0.72091 0.75514 0.43808 0.0
C1060 C 0.76545 0.76682 0.50329 0.0
H1061 H 0.83432 0.74905 0.53226 0.0
C1062 C 0.73909 0.75907 0.52304 0.0
C1063 C 0.80007 0.76307 0.50651 0.0
C1064 C 0.82893 0.771 0.48559 0.0
C1065 C 0.74643 0.74751 0.54604 0.0
C1066 C 0.78134 0.74412 0.54942 0.0
C1067 C 0.80762 0.75168 0.52958 0.0
C1068 C 0.79144 0.73418 0.5739 0.0
C1069 C 0.71644 0.73837 0.56647 0.0
C1070 C 0.80171 0.7587 0.59445 0.0
C1071 C 0.80693 0.7483 0.61821 0.0
C1072 C 0.80214 0.71311 0.62199 0.0
C1073 C 0.79402 0.68923 0.60112 0.0
C1074 C 0.7887 0.69973 0.5772 0.0
H1075 H 0.6871 0.73462 0.5592 0.0
H1076 H 0.71082 0.71281 0.57584 0.0
H1077 H 0.72899 0.76124 0.58074 0.0
H1078 H 0.80455 0.7856 0.59222 0.0
H1079 H 0.81375 0.76767 0.63375 0.0
H1080 H 0.30153 0.93245 0.45007 0.0
H1081 H 0.31793 0.97231 0.48718 0.0
H1082 H 0.21594 0.98703 0.47085 0.0
H1083 H 0.19943 0.94735 0.43286 0.0
H1084 H 0.33023 0.05231 0.48478 0.0
H1085 H 0.21401 0.9552 0.54884 0.0
H1086 H 0.23206 0.93888 0.52339 0.0
H1087 H 0.19939 0.95724 0.51692 0.0
C1088 C 0.28202 0.94362 0.45434 0.0
C1089 C 0.24893 0.93641 0.43829 0.0
C1090 C 0.2917 0.96665 0.47564 0.0
C1091 C 0.26836 0.98281 0.48178 0.0
C1092 C 0.23439 0.97479 0.46645 0.0
H1093 H 0.28545 0.11053 0.61631 0.0
H1094 H 0.26593 0.07794 0.5757 0.0
C1095 C 0.22481 0.95189 0.44483 0.0
C1096 C 0.28077 0.00885 0.50385 0.0
H1097 H 0.26054 0.01438 0.56514 0.0
C1098 C 0.31486 0.0442 0.50233 0.0
C1099 C 0.26082 0.9982 0.52671 0.0
C1100 C 0.22457 0.9603 0.52935 0.0
C1101 C 0.32935 0.06927 0.52302 0.0
C1102 C 0.30996 0.05839 0.54618 0.0
C1103 C 0.2756 0.02299 0.54753 0.0
C1104 C 0.32431 0.08305 0.56924 0.0
C1105 C 0.36482 0.10741 0.51965 0.0
C1106 C 0.36422 0.09817 0.57906 0.0
C1107 C 0.37579 0.11777 0.60221 0.0
C1108 C 0.34747 0.12208 0.61614 0.0
C1109 C 0.30817 0.10822 0.60582 0.0
C1110 C 0.29681 0.08916 0.58268 0.0
H1111 H 0.36778 0.11517 0.49974 0.0
H1112 H 0.36196 0.12847 0.53095 0.0
H1113 H 0.39307 0.10791 0.52574 0.0
H1114 H 0.3859 0.09319 0.56952 0.0
H1115 H 0.40585 0.12704 0.61003 0.0
H1116 H 0.99159 0.29283 0.62629 0.0
H1117 H 0.02427 0.30092 0.58624 0.0
H1118 H 0.94518 0.18566 0.56719 0.0
H1119 H 0.9129 0.1771 0.60802 0.0
H1120 H 0.06139 0.25589 0.56469 0.0
H1121 H 0.93438 0.25308 0.50957 0.0
H1122 H 0.94197 0.26428 0.54267 0.0
H1123 H 0.92274 0.21752 0.53184 0.0
C1124 C 0.98099 0.26918 0.61354 0.0
C1125 C 0.94924 0.23443 0.62004 0.0
C1126 C 0.9999 0.27382 0.59075 0.0
C1127 C 0.987 0.24401 0.57368 0.0
C1128 C 0.9555 0.20906 0.58012 0.0
H1129 H 0.08162 0.25255 0.42349 0.0
H1130 H 0.04968 0.22977 0.46366 0.0
C1131 C 0.93708 0.20418 0.60335 0.0
C1132 C 1.00618 0.25032 0.54897 0.0
H1133 H 0.99271 0.26538 0.48787 0.0
C1134 C 0.0462 0.25743 0.54781 0.0
C1135 C 0.9865 0.25286 0.52707 0.0
C1136 C 0.94408 0.24675 0.52762 0.0
C1137 C 0.06711 0.26733 0.52532 0.0
C1138 C 0.04763 0.27042 0.50355 0.0
C1139 C 1.00742 0.2627 0.50459 0.0
C1140 C 0.0694 0.284 0.47994 0.0
C1141 C 0.11023 0.27528 0.5249 0.0
C1142 C 0.09145 0.32202 0.47597 0.0
C1143 C 0.10964 0.33514 0.45309 0.0
C1144 C 0.10635 0.31048 0.43372 0.0
C1145 C 0.08524 0.27235 0.43808 0.0
C1146 C 0.06673 0.25924 0.46095 0.0
H1147 H 0.12026 0.26913 0.5429 0.0
H1148 H 0.11347 0.25865 0.50966 0.0
H1149 H 0.13051 0.30483 0.52094 0.0
H1150 H 0.09381 0.34155 0.4904 0.0
H1151 H 0.12561 0.36464 0.45041 0.0
loop_
_geom_bond_atom_site_label_1
_geom_bond_atom_site_label_2
_geom_bond_distance
_geom_bond_site_symmetry_2
_ccdc_geom_bond_type
Tb0 O3 2.449 1_654 S
Tb0 O4 2.596 1_655 S
Tb0 O5 2.373 1_655 S
Tb0 O13 2.343 . S
Tb0 O15 2.353 1_554 S
Tb0 O17 2.427 1_554 S
Tb0 O18 2.513 . S
C1 O5 1.251 . S
C1 O7 1.263 . S
Tb2 O4 2.343 . S
Tb2 O7 2.353 . S
Tb2 O10 2.427 . S
Tb2 O11 2.513 1_554 S
Tb2 O12 2.453 1_455 S
Tb2 O13 2.596 1_455 S
Tb2 O14 2.374 1_554 S
O3 Tb0 2.449 1_456 S
O3 C19 1.237 1_556 S
O4 Tb0 2.596 1_455 S
O4 Tb2 2.343 . S
O4 C19 1.259 . S
O5 Tb0 2.373 1_455 S
O5 C1 1.251 . S
C6 O10 1.241 1_556 S
C6 O11 1.277 . S
O7 C1 1.263 . S
O7 Tb2 2.353 . S
C8 O12 1.245 . S
C8 O13 1.259 . S
C9 O14 1.250 1_655 S
C9 O15 1.263 . S
O10 Tb2 2.427 . S
O10 C6 1.241 1_554 S
O11 Tb2 2.513 1_556 S
O11 C6 1.277 . S
O12 Tb2 2.453 1_655 S
O12 C8 1.245 . S
O13 Tb0 2.343 . S
O13 Tb2 2.596 1_655 S
O13 C8 1.259 . S
O14 Tb2 2.374 1_556 S
O14 C9 1.250 1_455 S
O15 Tb0 2.353 1_556 S
O15 C9 1.263 . S
C16 O17 1.275 1_554 S
C16 O18 1.246 . S
O17 Tb0 2.427 1_556 S
O17 C16 1.275 1_556 S
O18 Tb0 2.513 . S
O18 C16 1.246 . S
C19 O3 1.237 1_554 S
C19 O4 1.259 . S
Tb20 O23 2.453 . S
Tb20 O24 2.596 . S
Tb20 O25 2.374 1_554 S
Tb20 O33 2.343 . S
Tb20 O35 2.353 . S
Tb20 O37 2.427 . S
Tb20 O38 2.513 1_554 S
C21 O25 1.251 . S
C21 O27 1.263 . S
Tb22 O24 2.343 . S
Tb22 O27 2.353 1_554 S
Tb22 O30 2.427 1_554 S
Tb22 O31 2.513 . S
Tb22 O32 2.453 1_554 S
Tb22 O33 2.596 . S
Tb22 O34 2.374 . S
O23 Tb20 2.453 . S
O23 C39 1.245 . S
O24 Tb20 2.596 . S
O24 Tb22 2.343 . S
O24 C39 1.259 . S
O25 Tb20 2.374 1_556 S
O25 C21 1.251 . S
C26 O30 1.275 1_554 S
C26 O31 1.246 . S
O27 C21 1.263 . S
O27 Tb22 2.353 1_556 S
C28 O32 1.245 1_554 S
C28 O33 1.259 . S
C29 O34 1.250 . S
C29 O35 1.263 . S
O30 Tb22 2.427 1_556 S
O30 C26 1.275 1_556 S
O31 Tb22 2.513 . S
O31 C26 1.246 . S
O32 Tb22 2.453 1_556 S
O32 C28 1.245 1_556 S
O33 Tb20 2.343 . S
O33 Tb22 2.596 . S
O33 C28 1.259 . S
O34 Tb22 2.374 . S
O34 C29 1.250 . S
O35 Tb20 2.353 . S
O35 C29 1.263 . S
C36 O37 1.275 1_556 S
C36 O38 1.246 . S
O37 Tb20 2.427 . S
O37 C36 1.275 1_554 S
O38 Tb20 2.513 1_556 S
O38 C36 1.246 . S
C39 O23 1.245 . S
C39 O24 1.259 . S
Tb40 O43 2.453 1_544 S
Tb40 O44 2.596 1_545 S
Tb40 O45 2.374 . S
Tb40 O53 2.343 . S
Tb40 O55 2.353 1_554 S
Tb40 O57 2.427 1_554 S
Tb40 O58 2.513 . S
C41 O45 1.251 1_565 S
C41 O47 1.263 . S
Tb42 O44 2.343 . S
Tb42 O47 2.353 . S
Tb42 O50 2.427 . S
Tb42 O51 2.513 1_554 S
Tb42 O52 2.453 1_565 S
Tb42 O53 2.596 1_565 S
Tb42 O54 2.374 1_564 S
O43 Tb40 2.453 1_566 S
O43 C59 1.245 1_556 S
O44 Tb40 2.596 1_565 S
O44 Tb42 2.343 . S
O44 C59 1.259 . S
O45 Tb40 2.374 . S
O45 C41 1.251 1_545 S
C46 O50 1.275 1_556 S
C46 O51 1.246 . S
O47 C41 1.263 . S
O47 Tb42 2.353 . S
C48 O52 1.245 . S
C48 O53 1.259 . S
C49 O54 1.250 . S
C49 O55 1.263 . S
O50 Tb42 2.427 . S
O50 C46 1.275 1_554 S
O51 Tb42 2.513 1_556 S
O51 C46 1.246 . S
O52 Tb42 2.453 1_545 S
O52 C48 1.245 . S
O53 Tb40 2.343 . S
O53 Tb42 2.596 1_545 S
O53 C48 1.259 . S
O54 Tb42 2.374 1_546 S
O54 C49 1.250 . S
O55 Tb40 2.353 1_556 S
O55 C49 1.263 . S
C56 O57 1.275 1_554 S
C56 O58 1.246 . S
O57 Tb40 2.427 1_556 S
O57 C56 1.275 1_556 S
O58 Tb40 2.513 . S
O58 C56 1.246 . S
C59 O43 1.245 1_554 S
C59 O44 1.259 . S
Tb60 O63 2.453 . S
Tb60 O64 2.596 . S
Tb60 O65 2.374 . S
Tb60 O73 2.343 . S
Tb60 O75 2.353 . S
Tb60 O77 2.427 . S
Tb60 O78 2.513 . S
C61 O65 1.251 . S
C61 O67 1.263 . S
Tb62 O64 2.343 . S
Tb62 O67 2.353 . S
Tb62 O70 2.427 . S
Tb62 O71 2.513 . S
Tb62 O72 2.453 . S
Tb62 O73 2.596 . S
Tb62 O74 2.374 . S
O63 Tb60 2.453 . S
O63 C79 1.245 . S
O64 Tb60 2.596 . S
O64 Tb62 2.343 . S
O64 C79 1.259 . S
O65 Tb60 2.374 . S
O65 C61 1.251 . S
C66 O70 1.275 . S
C66 O71 1.246 . S
O67 C61 1.263 . S
O67 Tb62 2.353 . S
C68 O72 1.245 . S
C68 O73 1.259 . S
C69 O74 1.250 . S
C69 O75 1.263 . S
O70 Tb62 2.427 . S
O70 C66 1.275 . S
O71 Tb62 2.513 . S
O71 C66 1.246 . S
O72 Tb62 2.453 . S
O72 C68 1.245 . S
O73 Tb60 2.343 . S
O73 Tb62 2.596 . S
O73 C68 1.259 . S
O74 Tb62 2.374 . S
O74 C69 1.250 . S
O75 Tb60 2.353 . S
O75 C69 1.263 . S
C76 O77 1.275 . S
C76 O78 1.246 . S
O77 Tb60 2.427 . S
O77 C76 1.275 . S
O78 Tb60 2.513 . S
O78 C76 1.246 . S
C79 O63 1.245 . S
C79 O64 1.259 . S
Tb80 O83 2.453 . S
Tb80 O84 2.596 . S
Tb80 O85 2.374 . S
Tb80 O93 2.343 . S
Tb80 O95 2.353 . S
Tb80 O97 2.427 . S
Tb80 O98 2.513 . S
C81 O85 1.251 . S
C81 O87 1.263 . S
Tb82 O84 2.343 . S
Tb82 O87 2.353 . S
Tb82 O90 2.427 . S
Tb82 O91 2.513 . S
Tb82 O92 2.453 . S
Tb82 O93 2.596 . S
Tb82 O94 2.374 . S
O83 Tb80 2.453 . S
O83 C99 1.245 . S
O84 Tb80 2.596 . S
O84 Tb82 2.343 . S
O84 C99 1.259 . S
O85 Tb80 2.374 . S
O85 C81 1.251 . S
C86 O90 1.275 . S
C86 O91 1.246 . S
O87 C81 1.263 . S
O87 Tb82 2.353 . S
C88 O92 1.245 . S
C88 O93 1.259 . S
C89 O94 1.250 . S
C89 O95 1.263 . S
O90 Tb82 2.427 . S
O90 C86 1.275 . S
O91 Tb82 2.513 . S
O91 C86 1.246 . S
O92 Tb82 2.453 . S
O92 C88 1.245 . S
O93 Tb80 2.343 . S
O93 Tb82 2.596 . S
O93 C88 1.259 . S
O94 Tb82 2.374 . S
O94 C89 1.250 . S
O95 Tb80 2.353 . S
O95 C89 1.263 . S
C96 O97 1.275 . S
C96 O98 1.246 . S
O97 Tb80 2.427 . S
O97 C96 1.275 . S
O98 Tb80 2.513 . S
O98 C96 1.246 . S
C99 O83 1.245 . S
C99 O84 1.259 . S
Tb100 O103 2.453 . S
Tb100 O104 2.596 . S
Tb100 O105 2.374 . S
Tb100 O113 2.343 . S
Tb100 O115 2.353 . S
Tb100 O117 2.427 . S
Tb100 O118 2.513 . S
C101 O105 1.251 . S
C101 O107 1.263 . S
Tb102 O104 2.343 . S
Tb102 O107 2.353 . S
Tb102 O110 2.427 . S
Tb102 O111 2.513 . S
Tb102 O112 2.453 . S
Tb102 O113 2.596 . S
Tb102 O114 2.374 . S
O103 Tb100 2.453 . S
O103 C119 1.245 . S
O104 Tb100 2.596 . S
O104 Tb102 2.343 . S
O104 C119 1.259 . S
O105 Tb100 2.374 . S
O105 C101 1.251 . S
C106 O110 1.275 . S
C106 O111 1.246 . S
O107 C101 1.263 . S
O107 Tb102 2.353 . S
C108 O112 1.245 . S
C108 O113 1.259 . S
C109 O114 1.250 . S
C109 O115 1.263 . S
O110 Tb102 2.427 . S
O110 C106 1.275 . S
O111 Tb102 2.513 . S
O111 C106 1.246 . S
O112 Tb102 2.453 . S
O112 C108 1.245 . S
O113 Tb100 2.343 . S
O113 Tb102 2.596 . S
O113 C108 1.259 . S
O114 Tb102 2.374 . S
O114 C109 1.250 . S
O115 Tb100 2.353 . S
O115 C109 1.263 . S
C116 O117 1.275 . S
C116 O118 1.246 . S
O117 Tb100 2.427 . S
O117 C116 1.275 . S
O118 Tb100 2.513 . S
O118 C116 1.246 . S
C119 O103 1.245 . S
C119 O104 1.259 . S
Tb120 O123 2.453 . S
Tb120 O124 2.596 . S
Tb120 O125 2.374 . S
Tb120 O133 2.343 . S
Tb120 O135 2.353 . S
Tb120 O137 2.427 . S
Tb120 O138 2.513 . S
C121 O125 1.251 . S
C121 O127 1.263 . S
Tb122 O124 2.343 . S
Tb122 O127 2.353 . S
Tb122 O130 2.427 . S
Tb122 O131 2.513 . S
Tb122 O132 2.453 . S
Tb122 O133 2.596 . S
Tb122 O134 2.374 . S
O123 Tb120 2.453 . S
O123 C139 1.245 . S
O124 Tb120 2.596 . S
O124 Tb122 2.343 . S
O124 C139 1.259 . S
O125 Tb120 2.374 . S
O125 C121 1.251 . S
C126 O130 1.275 . S
C126 O131 1.246 . S
O127 C121 1.263 . S
O127 Tb122 2.353 . S
C128 O132 1.245 . S
C128 O133 1.259 . S
C129 O134 1.250 . S
C129 O135 1.263 . S
O130 Tb122 2.427 . S
O130 C126 1.275 . S
O131 Tb122 2.513 . S
O131 C126 1.246 . S
O132 Tb122 2.453 . S
O132 C128 1.245 . S
O133 Tb120 2.343 . S
O133 Tb122 2.596 . S
O133 C128 1.259 . S
O134 Tb122 2.374 . S
O134 C129 1.250 . S
O135 Tb120 2.353 . S
O135 C129 1.263 . S
C136 O137 1.275 . S
C136 O138 1.246 . S
O137 Tb120 2.427 . S
O137 C136 1.275 . S
O138 Tb120 2.513 . S
O138 C136 1.246 . S
C139 O123 1.245 . S
C139 O124 1.259 . S
Tb140 O143 2.453 . S
Tb140 O144 2.596 . S
Tb140 O145 2.374 . S
Tb140 O153 2.343 . S
Tb140 O155 2.353 . S
Tb140 O157 2.427 . S
Tb140 O158 2.513 . S
C141 O145 1.251 . S
C141 O147 1.263 . S
Tb142 O144 2.343 . S
Tb142 O147 2.353 . S
Tb142 O150 2.427 . S
Tb142 O151 2.513 . S
Tb142 O152 2.453 . S
Tb142 O153 2.596 . S
Tb142 O154 2.374 . S
O143 Tb140 2.453 . S
O143 C159 1.245 . S
O144 Tb140 2.596 . S
O144 Tb142 2.343 . S
O144 C159 1.259 . S
O145 Tb140 2.374 . S
O145 C141 1.251 . S
C146 O150 1.275 . S
C146 O151 1.246 . S
O147 C141 1.263 . S
O147 Tb142 2.353 . S
C148 O152 1.245 . S
C148 O153 1.259 . S
C149 O154 1.250 . S
C149 O155 1.263 . S
O150 Tb142 2.427 . S
O150 C146 1.275 . S
O151 Tb142 2.513 . S
O151 C146 1.246 . S
O152 Tb142 2.453 . S
O152 C148 1.245 . S
O153 Tb140 2.343 . S
O153 Tb142 2.596 . S
O153 C148 1.259 . S
O154 Tb142 2.374 . S
O154 C149 1.250 . S
O155 Tb140 2.353 . S
O155 C149 1.263 . S
C156 O157 1.275 . S
C156 O158 1.246 . S
O157 Tb140 2.427 . S
O157 C156 1.275 . S
O158 Tb140 2.513 . S
O158 C156 1.246 . S
C159 O143 1.245 . S
C159 O144 1.259 . S
Tb160 O163 2.453 . S
Tb160 O164 2.596 . S
Tb160 O165 2.374 . S
Tb160 O173 2.343 . S
Tb160 O175 2.353 . S
Tb160 O177 2.427 . S
Tb160 O178 2.513 . S
C161 O165 1.251 . S
C161 O167 1.263 . S
Tb162 O164 2.343 . S
Tb162 O167 2.353 . S
Tb162 O170 2.427 . S
Tb162 O171 2.513 . S
Tb162 O172 2.453 . S
Tb162 O173 2.596 . S
Tb162 O174 2.374 . S
O163 Tb160 2.453 . S
O163 C179 1.245 . S
O164 Tb160 2.596 . S
O164 Tb162 2.343 . S
O164 C179 1.259 . S
O165 Tb160 2.374 . S
O165 C161 1.251 . S
C166 O170 1.275 . S
C166 O171 1.246 . S
O167 C161 1.263 . S
O167 Tb162 2.353 . S
C168 O172 1.245 . S
C168 O173 1.259 . S
C169 O174 1.250 . S
C169 O175 1.263 . S
O170 Tb162 2.427 . S
O170 C166 1.275 . S
O171 Tb162 2.513 . S
O171 C166 1.246 . S
O172 Tb162 2.453 . S
O172 C168 1.245 . S
O173 Tb160 2.343 . S
O173 Tb162 2.596 . S
O173 C168 1.259 . S
O174 Tb162 2.374 . S
O174 C169 1.250 . S
O175 Tb160 2.353 . S
O175 C169 1.263 . S
C176 O177 1.275 . S
C176 O178 1.246 . S
O177 Tb160 2.427 . S
O177 C176 1.275 . S
O178 Tb160 2.513 . S
O178 C176 1.246 . S
C179 O163 1.245 . S
C179 O164 1.259 . S
H180 C188 0.929 . S
H181 C190 0.930 . S
H182 C192 0.930 . S
H183 C195 0.929 . S
H184 C198 0.930 . S
H185 C200 0.960 . S
H186 C200 0.960 . S
H187 C200 0.960 . S
C188 H180 0.929 . S
C188 C189 1.377 1_556 S
C188 C190 1.384 . S
C189 C188 1.377 1_554 S
C189 C195 1.390 . S
C190 H181 0.930 . S
C190 C188 1.384 . S
C190 C191 1.372 1_556 S
C191 C190 1.372 1_554 S
C191 C192 1.400 . S
C191 C196 1.490 . S
C192 H182 0.930 . S
C192 C191 1.400 . S
C192 C195 1.386 . S
H193 C209 0.930 . S
H194 C210 0.931 . S
C195 H183 0.929 . S
C195 C189 1.390 . S
C195 C192 1.386 . S
C196 C191 1.490 . S
C196 C198 1.395 1_554 S
C196 C199 1.403 . S
H197 C203 0.930 . S
C198 H184 0.930 . S
C198 C196 1.395 1_556 S
C198 C201 1.403 . S
C199 C196 1.403 . S
C199 C200 1.524 . S
C199 C203 1.400 . S
C200 H185 0.960 . S
C200 H186 0.960 . S
C200 H187 0.960 . S
C200 C199 1.524 . S
C201 C198 1.403 . S
C201 C202 1.392 1_556 S
C201 C205 1.495 . S
C202 C201 1.392 1_554 S
C202 C203 1.385 . S
C202 C204 1.478 . S
C203 H197 0.930 . S
C203 C199 1.400 . S
C203 C202 1.385 . S
C204 C202 1.478 . S
C204 C206 1.381 1_554 S
C204 C210 1.383 . S
C205 C201 1.495 . S
C205 H211 0.959 . S
C205 H212 0.961 . S
C205 H213 0.960 . S
C206 C204 1.381 1_556 S
C206 C207 1.394 . S
C206 H214 0.930 . S
C207 C206 1.394 . S
C207 C208 1.383 1_556 S
C207 H215 0.929 . S
C208 C207 1.383 1_554 S
C208 C209 1.377 . S
C209 H193 0.930 . S
C209 C208 1.377 . S
C209 C210 1.379 . S
C210 H194 0.931 . S
C210 C204 1.383 . S
C210 C209 1.379 . S
H211 C205 0.959 . S
H212 C205 0.961 . S
H213 C205 0.960 . S
H214 C206 0.930 . S
H215 C207 0.929 . S
H216 C224 0.929 . S
H217 C226 0.930 . S
H218 C228 0.930 . S
H219 C231 0.929 . S
H220 C234 0.930 . S
H221 C236 0.960 . S
H222 C236 0.960 . S
H223 C236 0.960 1_554 S
C224 H216 0.929 . S
C224 C225 1.377 . S
C224 C226 1.384 . S
C225 C224 1.377 . S
C225 C231 1.390 1_556 S
C226 H217 0.930 . S
C226 C224 1.384 . S
C226 C227 1.372 . S
C227 C226 1.372 . S
C227 C228 1.400 1_556 S
C227 C232 1.490 . S
C228 H218 0.930 . S
C228 C227 1.400 1_554 S
C228 C231 1.386 . S
H229 C245 0.930 . S
H230 C246 0.931 . S
C231 H219 0.929 . S
C231 C225 1.390 1_554 S
C231 C228 1.386 . S
C232 C227 1.490 . S
C232 C234 1.395 . S
C232 C235 1.403 . S
H233 C239 0.930 . S
C234 H220 0.930 . S
C234 C232 1.395 . S
C234 C237 1.403 . S
C235 C232 1.403 . S
C235 C236 1.524 . S
C235 C239 1.400 . S
C236 H221 0.960 . S
C236 H222 0.960 . S
C236 H223 0.960 1_556 S
C236 C235 1.524 . S
C237 C234 1.403 . S
C237 C238 1.392 . S
C237 C241 1.495 . S
C238 C237 1.392 . S
C238 C239 1.385 . S
C238 C240 1.478 . S
C239 H233 0.930 . S
C239 C235 1.400 . S
C239 C238 1.385 . S
C240 C238 1.478 . S
C240 C242 1.381 . S
C240 C246 1.383 1_556 S
C241 C237 1.495 . S
C241 H247 0.959 . S
C241 H248 0.961 1_556 S
C241 H249 0.960 . S
C242 C240 1.381 . S
C242 C243 1.394 . S
C242 H250 0.930 . S
C243 C242 1.394 . S
C243 C244 1.383 . S
C243 H251 0.929 . S
C244 C243 1.383 . S
C244 C245 1.377 1_556 S
C245 H229 0.930 . S
C245 C244 1.377 1_554 S
C245 C246 1.379 . S
C246 H230 0.931 . S
C246 C240 1.383 1_554 S
C246 C245 1.379 . S
H247 C241 0.959 . S
H248 C241 0.961 1_554 S
H249 C241 0.960 . S
H250 C242 0.930 . S
H251 C243 0.929 . S
H252 C260 0.929 . S
H253 C262 0.930 . S
H254 C264 0.930 . S
H255 C267 0.929 . S
H256 C270 0.930 . S
H257 C272 0.960 . S
H258 C272 0.960 . S
H259 C272 0.960 1_554 S
C260 H252 0.929 . S
C260 C261 1.377 1_556 S
C260 C262 1.384 . S
C261 C260 1.377 1_554 S
C261 C267 1.390 . S
C262 H253 0.930 . S
C262 C260 1.384 . S
C262 C263 1.372 1_556 S
C263 C262 1.372 1_554 S
C263 C264 1.400 . S
C263 C268 1.490 . S
C264 H254 0.930 . S
C264 C263 1.400 . S
C264 C267 1.386 . S
H265 C281 0.930 . S
H266 C282 0.931 . S
C267 H255 0.929 . S
C267 C261 1.390 . S
C267 C264 1.386 . S
C268 C263 1.490 . S
C268 C270 1.395 . S
C268 C271 1.403 1_554 S
H269 C275 0.930 . S
C270 H256 0.930 . S
C270 C268 1.395 . S
C270 C273 1.403 . S
C271 C268 1.403 1_556 S
C271 C272 1.524 . S
C271 C275 1.400 . S
C272 H257 0.960 . S
C272 H258 0.960 . S
C272 H259 0.960 1_556 S
C272 C271 1.524 . S
C273 C270 1.403 . S
C273 C274 1.392 . S
C273 C277 1.495 . S
C274 C273 1.392 . S
C274 C275 1.385 1_554 S
C274 C276 1.478 . S
C275 H269 0.930 . S
C275 C271 1.400 . S
C275 C274 1.385 1_556 S
C276 C274 1.478 . S
C276 C278 1.381 1_554 S
C276 C282 1.383 . S
C277 C273 1.495 . S
C277 H283 0.959 . S
C277 H284 0.961 . S
C277 H285 0.960 1_554 S
C278 C276 1.381 1_556 S
C278 C279 1.394 . S
C278 H286 0.930 . S
C279 C278 1.394 . S
C279 C280 1.381 . S
C279 H287 0.929 . S
C280 C279 1.381 . S
C280 C281 1.380 1_556 S
C281 H265 0.930 . S
C281 C280 1.380 1_554 S
C281 C282 1.379 . S
C282 H266 0.931 . S
C282 C276 1.383 . S
C282 C281 1.379 . S
H283 C277 0.959 . S
H284 C277 0.961 . S
H285 C277 0.960 1_556 S
H286 C278 0.930 . S
H287 C279 0.929 . S
H288 C296 0.929 . S
H289 C298 0.930 . S
H290 C300 0.930 . S
H291 C303 0.929 . S
H292 C306 0.930 . S
H293 C308 0.960 . S
H294 C308 0.960 . S
H295 C308 0.936 1_556 S
C296 H288 0.929 . S
C296 C297 1.377 . S
C296 C298 1.384 . S
C297 C296 1.377 . S
C297 C303 1.390 1_554 S
C298 H289 0.930 . S
C298 C296 1.384 . S
C298 C299 1.372 . S
C299 C298 1.372 . S
C299 C300 1.400 1_554 S
C299 C304 1.490 . S
C300 H290 0.930 . S
C300 C299 1.400 1_556 S
C300 C303 1.386 . S
H301 C317 0.930 . S
H302 C318 0.931 . S
C303 H291 0.929 . S
C303 C297 1.390 1_556 S
C303 C300 1.386 . S
C304 C299 1.490 . S
C304 C306 1.395 . S
C304 C307 1.403 . S
H305 C311 0.930 . S
C306 H292 0.930 . S
C306 C304 1.395 . S
C306 C309 1.403 . S
C307 C304 1.403 . S
C307 C308 1.524 . S
C307 C311 1.400 . S
C308 H293 0.960 . S
C308 H294 0.960 . S
C308 H295 0.936 1_554 S
C308 C307 1.524 . S
C309 C306 1.403 . S
C309 C310 1.392 . S
C309 C313 1.495 . S
C310 C309 1.392 . S
C310 C311 1.385 . S
C310 C312 1.478 . S
C311 H305 0.930 . S
C311 C307 1.400 . S
C311 C310 1.385 . S
C312 C310 1.478 . S
C312 C314 1.381 . S
C312 C318 1.383 1_554 S
C313 C309 1.495 . S
C313 H319 0.959 . S
C313 H320 0.961 1_554 S
C313 H321 0.960 . S
C314 C312 1.381 . S
C314 C315 1.394 . S
C314 H322 0.930 . S
C315 C314 1.394 . S
C315 C316 1.383 . S
C315 H323 0.929 . S
C316 C315 1.383 . S
C316 C317 1.377 1_554 S
C317 H301 0.930 . S
C317 C316 1.377 1_556 S
C317 C318 1.379 . S
C318 H302 0.931 . S
C318 C312 1.383 1_556 S
C318 C317 1.379 . S
H319 C313 0.959 . S
H320 C313 0.961 1_556 S
H321 C313 0.960 . S
H322 C314 0.930 . S
H323 C315 0.929 . S
H324 C332 0.929 . S
H325 C334 0.930 . S
H326 C336 0.930 . S
H327 C339 0.929 . S
H328 C342 0.930 . S
H329 C344 0.960 . S
H330 C344 0.960 . S
H331 C344 0.960 . S
C332 H324 0.929 . S
C332 C333 1.377 . S
C332 C334 1.384 . S
C333 C332 1.377 . S
C333 C339 1.390 1_554 S
C334 H325 0.930 . S
C334 C332 1.384 . S
C334 C335 1.372 . S
C335 C334 1.372 . S
C335 C336 1.400 1_554 S
C335 C340 1.490 . S
C336 H326 0.930 . S
C336 C335 1.400 1_556 S
C336 C339 1.386 . S
H337 C353 0.930 . S
H338 C354 0.931 . S
C339 H327 0.929 . S
C339 C333 1.390 1_556 S
C339 C336 1.386 . S
C340 C335 1.490 . S
C340 C342 1.395 . S
C340 C343 1.403 1_554 S
H341 C347 0.930 . S
C342 H328 0.930 . S
C342 C340 1.395 . S
C342 C345 1.403 . S
C343 C340 1.403 1_556 S
C343 C344 1.524 . S
C343 C347 1.400 . S
C344 H329 0.960 . S
C344 H330 0.960 . S
C344 H331 0.960 . S
C344 C343 1.524 . S
C345 C342 1.403 . S
C345 C346 1.392 . S
C345 C349 1.495 . S
C346 C345 1.392 . S
C346 C347 1.385 1_554 S
C346 C348 1.478 . S
C347 H341 0.930 . S
C347 C343 1.400 . S
C347 C346 1.385 1_556 S
C348 C346 1.478 . S
C348 C350 1.381 . S
C348 C354 1.383 1_554 S
C349 C345 1.495 . S
C349 H355 0.959 . S
C349 H356 0.961 . S
C349 H357 0.960 . S
C350 C348 1.381 . S
C350 C351 1.394 . S
C350 H358 0.930 . S
C351 C350 1.394 . S
C351 C352 1.383 . S
C351 H359 0.929 . S
C352 C351 1.383 . S
C352 C353 1.377 1_554 S
C353 H337 0.930 . S
C353 C352 1.377 1_556 S
C353 C354 1.379 . S
C354 H338 0.931 . S
C354 C348 1.383 1_556 S
C354 C353 1.379 . S
H355 C349 0.959 . S
H356 C349 0.961 . S
H357 C349 0.960 . S
H358 C350 0.930 . S
H359 C351 0.929 . S
H360 C368 0.929 . S
H361 C370 0.930 . S
H362 C372 0.930 . S
H363 C375 0.929 . S
H364 C378 0.930 . S
H365 C380 0.960 . S
H366 C380 0.960 1_556 S
H367 C380 0.960 . S
C368 H360 0.929 . S
C368 C369 1.377 . S
C368 C370 1.384 . S
C369 C368 1.377 . S
C369 C375 1.390 1_556 S
C370 H361 0.930 . S
C370 C368 1.384 . S
C370 C371 1.372 . S
C371 C370 1.372 . S
C371 C372 1.400 1_556 S
C371 C376 1.490 . S
C372 H362 0.930 . S
C372 C371 1.400 1_554 S
C372 C375 1.386 . S
H373 C389 0.930 . S
H374 C390 0.931 . S
C375 H363 0.929 . S
C375 C369 1.390 1_554 S
C375 C372 1.386 . S
C376 C371 1.490 . S
C376 C378 1.395 . S
C376 C379 1.402 1_556 S
H377 C383 0.933 . S
C378 H364 0.930 . S
C378 C376 1.395 . S
C378 C381 1.403 . S
C379 C376 1.402 1_554 S
C379 C380 1.524 . S
C379 C383 1.400 . S
C380 H365 0.960 . S
C380 H366 0.960 1_554 S
C380 H367 0.960 . S
C380 C379 1.524 . S
C381 C378 1.403 . S
C381 C382 1.392 . S
C381 C385 1.495 . S
C382 C381 1.392 . S
C382 C383 1.384 1_556 S
C382 C384 1.479 . S
C383 H377 0.933 . S
C383 C379 1.400 . S
C383 C382 1.384 1_554 S
C384 C382 1.479 . S
C384 C386 1.403 . S
C384 C390 1.361 1_556 S
C385 C381 1.495 . S
C385 H391 0.959 . S
C385 H392 0.961 1_556 S
C385 H393 0.960 . S
C386 C384 1.403 . S
C386 C387 1.394 . S
C386 H394 0.930 . S
C387 C386 1.394 . S
C387 C388 1.386 . S
C387 H395 0.929 . S
C388 C387 1.386 . S
C388 C389 1.374 1_556 S
C389 H373 0.930 . S
C389 C388 1.374 1_554 S
C389 C390 1.379 . S
C390 H374 0.931 . S
C390 C384 1.361 1_554 S
C390 C389 1.379 . S
H391 C385 0.959 . S
H392 C385 0.961 1_554 S
H393 C385 0.960 . S
H394 C386 0.930 . S
H395 C387 0.929 . S
H396 C404 0.929 . S
H397 C406 0.930 . S
H398 C408 0.930 . S
H399 C411 0.929 . S
H400 C414 0.930 . S
H401 C416 0.960 . S
H402 C416 0.960 . S
H403 C416 0.960 . S
C404 H396 0.929 . S
C404 C405 1.377 . S
C404 C406 1.384 . S
C405 C404 1.377 . S
C405 C411 1.390 . S
C406 H397 0.930 . S
C406 C404 1.384 . S
C406 C407 1.372 . S
C407 C406 1.372 . S
C407 C408 1.400 . S
C407 C412 1.490 . S
C408 H398 0.930 . S
C408 C407 1.400 . S
C408 C411 1.386 . S
H409 C425 0.930 . S
H410 C426 0.931 . S
C411 H399 0.929 . S
C411 C405 1.390 . S
C411 C408 1.386 . S
C412 C407 1.490 . S
C412 C414 1.395 . S
C412 C415 1.403 . S
H413 C419 0.930 . S
C414 H400 0.930 . S
C414 C412 1.395 . S
C414 C417 1.403 . S
C415 C412 1.403 . S
C415 C416 1.524 . S
C415 C419 1.400 . S
C416 H401 0.960 . S
C416 H402 0.960 . S
C416 H403 0.960 . S
C416 C415 1.524 . S
C417 C414 1.403 . S
C417 C418 1.392 . S
C417 C421 1.495 . S
C418 C417 1.392 . S
C418 C419 1.385 . S
C418 C420 1.478 1_655 S
C419 H413 0.930 . S
C419 C415 1.400 . S
C419 C418 1.385 . S
C420 C418 1.478 1_455 S
C420 C422 1.381 . S
C420 C426 1.383 . S
C421 C417 1.495 . S
C421 H427 0.959 . S
C421 H428 0.961 . S
C421 H429 0.960 . S
C422 C420 1.381 . S
C422 C423 1.394 . S
C422 H430 0.930 . S
C423 C422 1.394 . S
C423 C424 1.383 . S
C423 H431 0.929 . S
C424 C423 1.383 . S
C424 C425 1.377 . S
C425 H409 0.930 . S
C425 C424 1.377 . S
C425 C426 1.379 . S
C426 H410 0.931 . S
C426 C420 1.383 . S
C426 C425 1.379 . S
H427 C421 0.959 . S
H428 C421 0.961 . S
H429 C421 0.960 . S
H430 C422 0.930 . S
H431 C423 0.929 . S
H432 C440 0.929 . S
H433 C442 0.930 . S
H434 C444 0.930 . S
H435 C447 0.929 . S
H436 C450 0.930 . S
H437 C452 0.960 . S
H438 C452 0.960 . S
H439 C452 0.960 . S
C440 H432 0.929 . S
C440 C441 1.377 . S
C440 C442 1.384 . S
C441 C440 1.377 . S
C441 C447 1.390 . S
C442 H433 0.930 . S
C442 C440 1.384 . S
C442 C443 1.372 . S
C443 C442 1.372 . S
C443 C444 1.400 . S
C443 C448 1.490 . S
C444 H434 0.930 . S
C444 C443 1.400 . S
C444 C447 1.386 . S
H445 C461 0.930 . S
H446 C462 0.931 . S
C447 H435 0.929 . S
C447 C441 1.390 . S
C447 C444 1.386 . S
C448 C443 1.490 . S
C448 C450 1.395 . S
C448 C451 1.403 . S
H449 C455 0.930 . S
C450 H436 0.930 . S
C450 C448 1.395 . S
C450 C453 1.403 . S
C451 C448 1.403 . S
C451 C452 1.524 . S
C451 C455 1.400 . S
C452 H437 0.960 . S
C452 H438 0.960 . S
C452 H439 0.960 . S
C452 C451 1.524 . S
C453 C450 1.403 . S
C453 C454 1.392 . S
C453 C457 1.495 . S
C454 C453 1.392 . S
C454 C455 1.385 . S
C454 C456 1.478 . S
C455 H449 0.930 . S
C455 C451 1.400 . S
C455 C454 1.385 . S
C456 C454 1.478 . S
C456 C458 1.381 1_545 S
C456 C462 1.383 . S
C457 C453 1.495 . S
C457 H463 0.959 . S
C457 H464 0.961 . S
C457 H465 0.960 . S
C458 C456 1.381 1_565 S
C458 C459 1.394 . S
C458 H466 0.930 . S
C459 C458 1.394 . S
C459 C460 1.383 . S
C459 H467 0.929 . S
C460 C459 1.383 . S
C460 C461 1.377 1_565 S
C461 H445 0.930 . S
C461 C460 1.377 1_545 S
C461 C462 1.379 . S
C462 H446 0.931 . S
C462 C456 1.383 . S
C462 C461 1.379 . S
H463 C457 0.959 . S
H464 C457 0.961 . S
H465 C457 0.960 . S
H466 C458 0.930 . S
H467 C459 0.929 . S
H468 C476 0.929 . S
H469 C478 0.930 . S
H470 C480 0.930 . S
H471 C483 0.929 . S
H472 C486 0.930 . S
H473 C488 0.960 . S
H474 C488 0.960 . S
H475 C488 0.960 . S
C476 H468 0.929 . S
C476 C477 1.377 . S
C476 C478 1.384 . S
C477 C476 1.377 . S
C477 C483 1.390 . S
C478 H469 0.930 . S
C478 C476 1.384 . S
C478 C479 1.372 1_455 S
C479 C478 1.372 1_655 S
C479 C480 1.400 . S
C479 C484 1.490 . S
C480 H470 0.930 . S
C480 C479 1.400 . S
C480 C483 1.386 1_655 S
H481 C497 0.930 . S
H482 C498 0.931 1_545 S
C483 H471 0.929 . S
C483 C477 1.390 . S
C483 C480 1.386 1_455 S
C484 C479 1.490 . S
C484 C486 1.395 . S
C484 C487 1.403 . S
H485 C491 0.930 . S
C486 H472 0.930 . S
C486 C484 1.395 . S
C486 C489 1.403 . S
C487 C484 1.403 . S
C487 C488 1.524 . S
C487 C491 1.400 . S
C488 H473 0.960 . S
C488 H474 0.960 . S
C488 H475 0.960 . S
C488 C487 1.524 . S
C489 C486 1.403 . S
C489 C490 1.392 . S
C489 C493 1.495 . S
C490 C489 1.392 . S
C490 C491 1.385 . S
C490 C492 1.478 . S
C491 H485 0.930 . S
C491 C487 1.400 . S
C491 C490 1.385 . S
C492 C490 1.478 . S
C492 C494 1.381 1_545 S
C492 C498 1.383 1_545 S
C493 C489 1.495 . S
C493 H499 0.959 . S
C493 H500 0.961 . S
C493 H501 0.960 . S
C494 C492 1.381 1_565 S
C494 C495 1.394 . S
C494 H502 0.930 1_565 S
C495 C494 1.394 . S
C495 C496 1.383 . S
C495 H503 0.929 . S
C496 C495 1.383 . S
C496 C497 1.377 . S
C497 H481 0.930 . S
C497 C496 1.377 . S
C497 C498 1.379 . S
C498 H482 0.931 1_565 S
C498 C492 1.383 1_565 S
C498 C497 1.379 . S
H499 C493 0.959 . S
H500 C493 0.961 . S
H501 C493 0.960 . S
H502 C494 0.930 1_545 S
H503 C495 0.929 . S
H504 C512 0.929 . S
H505 C514 0.930 . S
H506 C516 0.930 . S
H507 C519 0.929 . S
H508 C522 0.930 . S
H509 C524 0.960 . S
H510 C524 0.960 . S
H511 C524 0.960 . S
C512 H504 0.929 . S
C512 C513 1.377 . S
C512 C514 1.384 . S
C513 C512 1.377 . S
C513 C519 1.390 . S
C514 H505 0.930 . S
C514 C512 1.384 . S
C514 C515 1.372 . S
C515 C514 1.372 . S
C515 C516 1.400 . S
C515 C520 1.490 . S
C516 H506 0.930 . S
C516 C515 1.400 . S
C516 C519 1.386 . S
H517 C533 0.930 . S
H518 C534 0.931 . S
C519 H507 0.929 . S
C519 C513 1.390 . S
C519 C516 1.386 . S
C520 C515 1.490 . S
C520 C522 1.395 . S
C520 C523 1.403 . S
H521 C527 0.930 . S
C522 H508 0.930 . S
C522 C520 1.395 . S
C522 C525 1.403 . S
C523 C520 1.403 . S
C523 C524 1.524 . S
C523 C527 1.400 . S
C524 H509 0.960 . S
C524 H510 0.960 . S
C524 H511 0.960 . S
C524 C523 1.524 . S
C525 C522 1.403 . S
C525 C526 1.392 . S
C525 C529 1.495 . S
C526 C525 1.392 . S
C526 C527 1.385 . S
C526 C528 1.478 . S
C527 H521 0.930 . S
C527 C523 1.400 . S
C527 C526 1.385 . S
C528 C526 1.478 . S
C528 C530 1.381 . S
C528 C534 1.383 . S
C529 C525 1.495 . S
C529 H535 0.959 . S
C529 H536 0.961 . S
C529 H537 0.960 . S
C530 C528 1.381 . S
C530 C531 1.394 . S
C530 H538 0.930 . S
C531 C530 1.394 . S
C531 C532 1.383 . S
C531 H539 0.929 . S
C532 C531 1.383 . S
C532 C533 1.377 . S
C533 H517 0.930 . S
C533 C532 1.377 . S
C533 C534 1.379 . S
C534 H518 0.931 . S
C534 C528 1.383 . S
C534 C533 1.379 . S
H535 C529 0.959 . S
H536 C529 0.961 . S
H537 C529 0.960 . S
H538 C530 0.930 . S
H539 C531 0.929 . S
H540 C548 0.929 . S
H541 C550 0.930 . S
H542 C552 0.930 . S
H543 C555 0.929 . S
H544 C558 0.930 . S
H545 C560 0.960 . S
H546 C560 0.960 . S
H547 C560 0.960 . S
C548 H540 0.929 . S
C548 C549 1.377 . S
C548 C550 1.384 . S
C549 C548 1.377 . S
C549 C555 1.390 . S
C550 H541 0.930 . S
C550 C548 1.384 . S
C550 C551 1.372 . S
C551 C550 1.372 . S
C551 C552 1.400 . S
C551 C556 1.490 . S
C552 H542 0.930 . S
C552 C551 1.400 . S
C552 C555 1.386 . S
H553 C569 0.930 . S
H554 C570 0.931 . S
C555 H543 0.929 . S
C555 C549 1.390 . S
C555 C552 1.386 . S
C556 C551 1.490 . S
C556 C558 1.395 . S
C556 C559 1.403 . S
H557 C563 0.930 . S
C558 H544 0.930 . S
C558 C556 1.395 . S
C558 C561 1.403 . S
C559 C556 1.403 . S
C559 C560 1.524 . S
C559 C563 1.400 . S
C560 H545 0.960 . S
C560 H546 0.960 . S
C560 H547 0.960 . S
C560 C559 1.524 . S
C561 C558 1.403 . S
C561 C562 1.392 . S
C561 C565 1.495 . S
C562 C561 1.392 . S
C562 C563 1.385 . S
C562 C564 1.478 . S
C563 H557 0.930 . S
C563 C559 1.400 . S
C563 C562 1.385 . S
C564 C562 1.478 . S
C564 C566 1.381 . S
C564 C570 1.383 . S
C565 C561 1.495 . S
C565 H571 0.959 . S
C565 H572 0.961 . S
C565 H573 0.960 . S
C566 C564 1.381 . S
C566 C567 1.394 . S
C566 H574 0.930 . S
C567 C566 1.394 . S
C567 C568 1.383 . S
C567 H575 0.929 . S
C568 C567 1.383 . S
C568 C569 1.377 . S
C569 H553 0.930 . S
C569 C568 1.377 . S
C569 C570 1.379 . S
C570 H554 0.931 . S
C570 C564 1.383 . S
C570 C569 1.379 . S
H571 C565 0.959 . S
H572 C565 0.961 . S
H573 C565 0.960 . S
H574 C566 0.930 . S
H575 C567 0.929 . S
H576 C584 0.929 . S
H577 C586 0.930 . S
H578 C588 0.930 . S
H579 C591 0.929 . S
H580 C594 0.930 . S
H581 C596 0.960 . S
H582 C596 0.960 . S
H583 C596 0.960 . S
C584 H576 0.929 . S
C584 C585 1.377 . S
C584 C586 1.384 . S
C585 C584 1.377 . S
C585 C591 1.390 . S
C586 H577 0.930 . S
C586 C584 1.384 . S
C586 C587 1.372 . S
C587 C586 1.372 . S
C587 C588 1.400 . S
C587 C592 1.490 . S
C588 H578 0.930 . S
C588 C587 1.400 . S
C588 C591 1.386 . S
H589 C605 0.930 . S
H590 C606 0.931 . S
C591 H579 0.929 . S
C591 C585 1.390 . S
C591 C588 1.386 . S
C592 C587 1.490 . S
C592 C594 1.395 . S
C592 C595 1.403 . S
H593 C599 0.930 . S
C594 H580 0.930 . S
C594 C592 1.395 . S
C594 C597 1.403 . S
C595 C592 1.403 . S
C595 C596 1.524 . S
C595 C599 1.400 . S
C596 H581 0.960 . S
C596 H582 0.960 . S
C596 H583 0.960 . S
C596 C595 1.524 . S
C597 C594 1.403 . S
C597 C598 1.392 . S
C597 C601 1.495 . S
C598 C597 1.392 . S
C598 C599 1.385 . S
C598 C600 1.478 . S
C599 H593 0.930 . S
C599 C595 1.400 . S
C599 C598 1.385 . S
C600 C598 1.478 . S
C600 C602 1.381 . S
C600 C606 1.383 . S
C601 C597 1.495 . S
C601 H607 0.959 . S
C601 H608 0.961 . S
C601 H609 0.960 . S
C602 C600 1.381 . S
C602 C603 1.394 . S
C602 H610 0.930 . S
C603 C602 1.394 . S
C603 C604 1.383 . S
C603 H611 0.929 . S
C604 C603 1.383 . S
C604 C605 1.377 . S
C605 H589 0.930 . S
C605 C604 1.377 . S
C605 C606 1.379 . S
C606 H590 0.931 . S
C606 C600 1.383 . S
C606 C605 1.379 . S
H607 C601 0.959 . S
H608 C601 0.961 . S
H609 C601 0.960 . S
H610 C602 0.930 . S
H611 C603 0.929 . S
H612 C620 0.929 . S
H613 C622 0.930 . S
H614 C624 0.930 . S
H615 C627 0.929 . S
H616 C630 0.930 . S
H617 C632 0.960 . S
H618 C632 0.960 . S
H619 C632 0.960 . S
C620 H612 0.929 . S
C620 C621 1.377 . S
C620 C622 1.384 . S
C621 C620 1.377 . S
C621 C627 1.390 . S
C622 H613 0.930 . S
C622 C620 1.384 . S
C622 C623 1.372 . S
C623 C622 1.372 . S
C623 C624 1.400 . S
C623 C628 1.490 . S
C624 H614 0.930 . S
C624 C623 1.400 . S
C624 C627 1.386 . S
H625 C641 0.930 . S
H626 C642 0.931 . S
C627 H615 0.929 . S
C627 C621 1.390 . S
C627 C624 1.386 . S
C628 C623 1.490 . S
C628 C630 1.395 . S
C628 C631 1.403 . S
H629 C635 0.930 . S
C630 H616 0.930 . S
C630 C628 1.395 . S
C630 C633 1.403 . S
C631 C628 1.403 . S
C631 C632 1.524 . S
C631 C635 1.400 . S
C632 H617 0.960 . S
C632 H618 0.960 . S
C632 H619 0.960 . S
C632 C631 1.524 . S
C633 C630 1.403 . S
C633 C634 1.392 . S
C633 C637 1.495 . S
C634 C633 1.392 . S
C634 C635 1.385 . S
C634 C636 1.478 . S
C635 H629 0.930 . S
C635 C631 1.400 . S
C635 C634 1.385 . S
C636 C634 1.478 . S
C636 C638 1.381 . S
C636 C642 1.383 . S
C637 C633 1.495 . S
C637 H643 0.959 . S
C637 H644 0.961 . S
C637 H645 0.960 . S
C638 C636 1.381 . S
C638 C639 1.394 . S
C638 H646 0.930 . S
C639 C638 1.394 . S
C639 C640 1.383 . S
C639 H647 0.929 . S
C640 C639 1.383 . S
C640 C641 1.377 . S
C641 H625 0.930 . S
C641 C640 1.377 . S
C641 C642 1.379 . S
C642 H626 0.931 . S
C642 C636 1.383 . S
C642 C641 1.379 . S
H643 C637 0.959 . S
H644 C637 0.961 . S
H645 C637 0.960 . S
H646 C638 0.930 . S
H647 C639 0.929 . S
H648 C656 0.929 . S
H649 C658 0.930 . S
H650 C660 0.930 . S
H651 C663 0.929 . S
H652 C666 0.930 . S
H653 C668 0.960 . S
H654 C668 0.960 . S
H655 C668 0.960 . S
C656 H648 0.929 . S
C656 C657 1.377 . S
C656 C658 1.384 . S
C657 C656 1.377 . S
C657 C663 1.390 . S
C658 H649 0.930 . S
C658 C656 1.384 . S
C658 C659 1.372 . S
C659 C658 1.372 . S
C659 C660 1.400 . S
C659 C664 1.490 . S
C660 H650 0.930 . S
C660 C659 1.400 . S
C660 C663 1.386 . S
H661 C677 0.930 . S
H662 C678 0.931 . S
C663 H651 0.929 . S
C663 C657 1.390 . S
C663 C660 1.386 . S
C664 C659 1.490 . S
C664 C666 1.395 . S
C664 C667 1.403 . S
H665 C671 0.930 . S
C666 H652 0.930 . S
C666 C664 1.395 . S
C666 C669 1.403 . S
C667 C664 1.403 . S
C667 C668 1.524 . S
C667 C671 1.400 . S
C668 H653 0.960 . S
C668 H654 0.960 . S
C668 H655 0.960 . S
C668 C667 1.524 . S
C669 C666 1.403 . S
C669 C670 1.392 . S
C669 C673 1.495 . S
C670 C669 1.392 . S
C670 C671 1.385 . S
C670 C672 1.478 . S
C671 H665 0.930 . S
C671 C667 1.400 . S
C671 C670 1.385 . S
C672 C670 1.478 . S
C672 C674 1.381 . S
C672 C678 1.383 . S
C673 C669 1.495 . S
C673 H679 0.959 . S
C673 H680 0.961 . S
C673 H681 0.960 . S
C674 C672 1.381 . S
C674 C675 1.394 . S
C674 H682 0.930 . S
C675 C674 1.394 . S
C675 C676 1.383 . S
C675 H683 0.929 . S
C676 C675 1.383 . S
C676 C677 1.377 . S
C677 H661 0.930 . S
C677 C676 1.377 . S
C677 C678 1.379 . S
C678 H662 0.931 . S
C678 C672 1.383 . S
C678 C677 1.379 . S
H679 C673 0.959 . S
H680 C673 0.961 . S
H681 C673 0.960 . S
H682 C674 0.930 . S
H683 C675 0.929 . S
H684 C692 0.929 . S
H685 C694 0.930 . S
H686 C696 0.930 . S
H687 C699 0.929 . S
H688 C702 0.930 . S
H689 C704 0.960 . S
H690 C704 0.960 . S
H691 C704 0.960 . S
C692 H684 0.929 . S
C692 C693 1.377 . S
C692 C694 1.384 . S
C693 C692 1.377 . S
C693 C699 1.390 . S
C694 H685 0.930 . S
C694 C692 1.384 . S
C694 C695 1.372 . S
C695 C694 1.372 . S
C695 C696 1.400 . S
C695 C700 1.490 . S
C696 H686 0.930 . S
C696 C695 1.400 . S
C696 C699 1.386 . S
H697 C713 0.930 . S
H698 C714 0.931 . S
C699 H687 0.929 . S
C699 C693 1.390 . S
C699 C696 1.386 . S
C700 C695 1.490 . S
C700 C702 1.395 . S
C700 C703 1.403 . S
H701 C707 0.930 . S
C702 H688 0.930 . S
C702 C700 1.395 . S
C702 C705 1.403 . S
C703 C700 1.403 . S
C703 C704 1.524 . S
C703 C707 1.400 . S
C704 H689 0.960 . S
C704 H690 0.960 . S
C704 H691 0.960 . S
C704 C703 1.524 . S
C705 C702 1.403 . S
C705 C706 1.392 . S
C705 C709 1.495 . S
C706 C705 1.392 . S
C706 C707 1.385 . S
C706 C708 1.478 . S
C707 H701 0.930 . S
C707 C703 1.400 . S
C707 C706 1.385 . S
C708 C706 1.478 . S
C708 C710 1.381 . S
C708 C714 1.383 . S
C709 C705 1.495 . S
C709 H715 0.959 . S
C709 H716 0.961 . S
C709 H717 0.960 . S
C710 C708 1.381 . S
C710 C711 1.394 . S
C710 H718 0.930 . S
C711 C710 1.394 . S
C711 C712 1.383 . S
C711 H719 0.929 . S
C712 C711 1.383 . S
C712 C713 1.377 . S
C713 H697 0.930 . S
C713 C712 1.377 . S
C713 C714 1.379 . S
C714 H698 0.931 . S
C714 C708 1.383 . S
C714 C713 1.379 . S
H715 C709 0.959 . S
H716 C709 0.961 . S
H717 C709 0.960 . S
H718 C710 0.930 . S
H719 C711 0.929 . S
H720 C728 0.929 . S
H721 C730 0.930 . S
H722 C732 0.930 . S
H723 C735 0.929 . S
H724 C738 0.930 . S
H725 C740 0.960 . S
H726 C740 0.960 . S
H727 C740 0.960 . S
C728 H720 0.929 . S
C728 C729 1.377 . S
C728 C730 1.384 . S
C729 C728 1.377 . S
C729 C735 1.390 . S
C730 H721 0.930 . S
C730 C728 1.384 . S
C730 C731 1.372 . S
C731 C730 1.372 . S
C731 C732 1.400 . S
C731 C736 1.490 . S
C732 H722 0.930 . S
C732 C731 1.400 . S
C732 C735 1.386 . S
H733 C749 0.930 . S
H734 C750 0.931 . S
C735 H723 0.929 . S
C735 C729 1.390 . S
C735 C732 1.386 . S
C736 C731 1.490 . S
C736 C738 1.395 . S
C736 C739 1.403 . S
H737 C743 0.930 . S
C738 H724 0.930 . S
C738 C736 1.395 . S
C738 C741 1.403 . S
C739 C736 1.403 . S
C739 C740 1.524 . S
C739 C743 1.400 . S
C740 H725 0.960 . S
C740 H726 0.960 . S
C740 H727 0.960 . S
C740 C739 1.524 . S
C741 C738 1.403 . S
C741 C742 1.392 . S
C741 C745 1.495 1_565 S
C742 C741 1.392 . S
C742 C743 1.385 . S
C742 C744 1.478 1_565 S
C743 H737 0.930 . S
C743 C739 1.400 . S
C743 C742 1.385 . S
C744 C742 1.478 1_545 S
C744 C746 1.381 . S
C744 C750 1.383 . S
C745 C741 1.495 1_545 S
C745 H751 0.959 1_545 S
C745 H752 0.961 . S
C745 H753 0.960 . S
C746 C744 1.381 . S
C746 C747 1.394 . S
C746 H754 0.930 . S
C747 C746 1.394 . S
C747 C748 1.383 . S
C747 H755 0.929 . S
C748 C747 1.383 . S
C748 C749 1.377 . S
C749 H733 0.930 . S
C749 C748 1.377 . S
C749 C750 1.379 . S
C750 H734 0.931 . S
C750 C744 1.383 . S
C750 C749 1.379 . S
H751 C745 0.959 1_565 S
H752 C745 0.961 . S
H753 C745 0.960 . S
H754 C746 0.930 . S
H755 C747 0.929 . S
H756 C764 0.929 . S
H757 C766 0.930 . S
H758 C768 0.930 . S
H759 C771 0.929 . S
H760 C774 0.930 . S
H761 C776 0.960 . S
H762 C776 0.982 . S
H763 C776 0.960 . S
C764 H756 0.929 . S
C764 C765 1.377 . S
C764 C766 1.384 . S
C765 C764 1.377 . S
C765 C771 1.390 . S
C766 H757 0.930 . S
C766 C764 1.384 . S
C766 C767 1.372 . S
C767 C766 1.372 . S
C767 C768 1.400 . S
C767 C772 1.490 1_655 S
C768 H758 0.930 . S
C768 C767 1.400 . S
C768 C771 1.386 . S
H769 C785 0.930 . S
H770 C786 0.931 . S
C771 H759 0.929 . S
C771 C765 1.390 . S
C771 C768 1.386 . S
C772 C767 1.490 1_455 S
C772 C774 1.395 . S
C772 C775 1.403 . S
H773 C779 0.930 . S
C774 H760 0.930 . S
C774 C772 1.395 . S
C774 C777 1.403 . S
C775 C772 1.403 . S
C775 C776 1.524 . S
C775 C779 1.400 . S
C776 H761 0.960 . S
C776 H762 0.982 . S
C776 H763 0.960 . S
C776 C775 1.524 . S
C777 C774 1.403 . S
C777 C778 1.392 . S
C777 C781 1.495 . S
C778 C777 1.392 . S
C778 C779 1.385 . S
C778 C780 1.478 . S
C779 H773 0.930 . S
C779 C775 1.400 . S
C779 C778 1.385 . S
C780 C778 1.478 . S
C780 C782 1.381 . S
C780 C786 1.383 . S
C781 C777 1.495 . S
C781 H787 0.959 . S
C781 H788 0.961 . S
C781 H789 0.960 . S
C782 C780 1.381 . S
C782 C783 1.394 1_565 S
C782 H790 0.930 . S
C783 C782 1.394 1_545 S
C783 C784 1.383 . S
C783 H791 0.929 . S
C784 C783 1.383 . S
C784 C785 1.377 1_545 S
C785 H769 0.930 . S
C785 C784 1.377 1_565 S
C785 C786 1.379 . S
C786 H770 0.931 . S
C786 C780 1.383 . S
C786 C785 1.379 . S
H787 C781 0.959 . S
H788 C781 0.961 . S
H789 C781 0.960 . S
H790 C782 0.930 . S
H791 C783 0.929 . S
H792 C800 0.929 . S
H793 C802 0.930 . S
H794 C804 0.930 . S
H795 C807 0.929 . S
H796 C810 0.930 . S
H797 C812 0.960 . S
H798 C812 0.960 . S
H799 C812 0.960 . S
C800 H792 0.929 . S
C800 C801 1.377 . S
C800 C802 1.384 . S
C801 C800 1.377 . S
C801 C807 1.390 . S
C802 H793 0.930 . S
C802 C800 1.384 . S
C802 C803 1.372 . S
C803 C802 1.372 . S
C803 C804 1.400 . S
C803 C808 1.490 . S
C804 H794 0.930 . S
C804 C803 1.400 . S
C804 C807 1.386 . S
H805 C821 0.930 . S
H806 C822 0.931 . S
C807 H795 0.929 . S
C807 C801 1.390 . S
C807 C804 1.386 . S
C808 C803 1.490 . S
C808 C810 1.395 . S
C808 C811 1.403 . S
H809 C815 0.930 . S
C810 H796 0.930 . S
C810 C808 1.395 . S
C810 C813 1.403 . S
C811 C808 1.403 . S
C811 C812 1.524 . S
C811 C815 1.400 . S
C812 H797 0.960 . S
C812 H798 0.960 . S
C812 H799 0.960 . S
C812 C811 1.524 . S
C813 C810 1.403 . S
C813 C814 1.392 . S
C813 C817 1.495 . S
C814 C813 1.392 . S
C814 C815 1.385 . S
C814 C816 1.478 . S
C815 H809 0.930 . S
C815 C811 1.400 . S
C815 C814 1.385 . S
C816 C814 1.478 . S
C816 C818 1.381 . S
C816 C822 1.383 . S
C817 C813 1.495 . S
C817 H823 0.959 . S
C817 H824 0.961 . S
C817 H825 0.960 . S
C818 C816 1.381 . S
C818 C819 1.394 1_455 S
C818 H826 0.930 . S
C819 C818 1.394 1_655 S
C819 C820 1.383 . S
C819 H827 0.929 . S
C820 C819 1.383 . S
C820 C821 1.377 1_655 S
C821 H805 0.930 . S
C821 C820 1.377 1_455 S
C821 C822 1.379 . S
C822 H806 0.931 . S
C822 C816 1.383 . S
C822 C821 1.379 . S
H823 C817 0.959 . S
H824 C817 0.961 . S
H825 C817 0.960 . S
H826 C818 0.930 . S
H827 C819 0.929 . S
H828 C836 0.929 . S
H829 C838 0.930 . S
H830 C840 0.930 . S
H831 C843 0.929 . S
H832 C846 0.930 . S
H833 C848 0.960 . S
H834 C848 0.960 . S
H835 C848 0.960 . S
C836 H828 0.929 . S
C836 C837 1.377 . S
C836 C838 1.384 . S
C837 C836 1.377 . S
C837 C843 1.390 . S
C838 H829 0.930 . S
C838 C836 1.384 . S
C838 C839 1.372 . S
C839 C838 1.372 . S
C839 C840 1.400 . S
C839 C844 1.490 . S
C840 H830 0.930 . S
C840 C839 1.400 . S
C840 C843 1.386 . S
H841 C857 0.930 . S
H842 C858 0.931 . S
C843 H831 0.929 . S
C843 C837 1.390 . S
C843 C840 1.386 . S
C844 C839 1.490 . S
C844 C846 1.395 . S
C844 C847 1.403 . S
H845 C851 0.930 . S
C846 H832 0.930 . S
C846 C844 1.395 . S
C846 C849 1.403 . S
C847 C844 1.403 . S
C847 C848 1.524 . S
C847 C851 1.400 . S
C848 H833 0.960 . S
C848 H834 0.960 . S
C848 H835 0.960 . S
C848 C847 1.524 . S
C849 C846 1.403 . S
C849 C850 1.392 . S
C849 C853 1.512 . S
C850 C849 1.392 . S
C850 C851 1.385 . S
C850 C852 1.478 . S
C851 H845 0.930 . S
C851 C847 1.400 . S
C851 C850 1.385 . S
C852 C850 1.478 . S
C852 C854 1.381 . S
C852 C858 1.383 . S
C853 C849 1.512 . S
C853 H859 0.956 1_455 S
C853 H860 0.948 1_455 S
C853 H861 0.960 1_455 S
C854 C852 1.381 . S
C854 C855 1.394 . S
C854 H862 0.930 . S
C855 C854 1.394 . S
C855 C856 1.383 . S
C855 H863 0.929 . S
C856 C855 1.383 . S
C856 C857 1.377 . S
C857 H841 0.930 . S
C857 C856 1.377 . S
C857 C858 1.379 . S
C858 H842 0.931 . S
C858 C852 1.383 . S
C858 C857 1.379 . S
H859 C853 0.956 1_655 S
H860 C853 0.948 1_655 S
H861 C853 0.960 1_655 S
H862 C854 0.930 . S
H863 C855 0.929 . S
H864 C872 0.929 . S
H865 C874 0.930 . S
H866 C876 0.930 . S
H867 C879 0.929 . S
H868 C882 0.930 . S
H869 C884 0.960 . S
H870 C884 0.960 . S
H871 C884 0.960 . S
C872 H864 0.929 . S
C872 C873 1.377 . S
C872 C874 1.384 . S
C873 C872 1.377 . S
C873 C879 1.390 . S
C874 H865 0.930 . S
C874 C872 1.384 . S
C874 C875 1.372 . S
C875 C874 1.372 . S
C875 C876 1.400 . S
C875 C880 1.490 . S
C876 H866 0.930 . S
C876 C875 1.400 . S
C876 C879 1.386 . S
H877 C893 0.930 . S
H878 C894 0.931 . S
C879 H867 0.929 . S
C879 C873 1.390 . S
C879 C876 1.386 . S
C880 C875 1.490 . S
C880 C882 1.395 . S
C880 C883 1.403 . S
H881 C887 0.930 . S
C882 H868 0.930 . S
C882 C880 1.395 . S
C882 C885 1.403 . S
C883 C880 1.403 . S
C883 C884 1.524 . S
C883 C887 1.400 . S
C884 H869 0.960 . S
C884 H870 0.960 . S
C884 H871 0.960 . S
C884 C883 1.524 . S
C885 C882 1.403 . S
C885 C886 1.392 . S
C885 C889 1.495 . S
C886 C885 1.392 . S
C886 C887 1.385 . S
C886 C888 1.478 . S
C887 H881 0.930 . S
C887 C883 1.400 . S
C887 C886 1.385 . S
C888 C886 1.478 . S
C888 C890 1.381 . S
C888 C894 1.383 . S
C889 C885 1.495 . S
C889 H895 0.959 . S
C889 H896 0.961 . S
C889 H897 0.960 . S
C890 C888 1.381 . S
C890 C891 1.394 . S
C890 H898 0.930 . S
C891 C890 1.394 . S
C891 C892 1.383 . S
C891 H899 0.929 . S
C892 C891 1.383 . S
C892 C893 1.377 . S
C893 H877 0.930 . S
C893 C892 1.377 . S
C893 C894 1.379 . S
C894 H878 0.931 . S
C894 C888 1.383 . S
C894 C893 1.379 . S
H895 C889 0.959 . S
H896 C889 0.961 . S
H897 C889 0.960 . S
H898 C890 0.930 . S
H899 C891 0.929 . S
H900 C908 0.929 . S
H901 C910 0.930 . S
H902 C912 0.930 . S
H903 C915 0.929 . S
H904 C918 0.930 . S
H905 C920 0.960 . S
H906 C920 0.960 1_545 S
H907 C920 0.960 . S
C908 H900 0.929 . S
C908 C909 1.377 . S
C908 C910 1.384 . S
C909 C908 1.377 . S
C909 C915 1.390 . S
C910 H901 0.930 . S
C910 C908 1.384 . S
C910 C911 1.372 . S
C911 C910 1.372 . S
C911 C912 1.400 . S
C911 C916 1.490 . S
C912 H902 0.930 . S
C912 C911 1.400 . S
C912 C915 1.386 . S
H913 C929 0.930 . S
H914 C930 0.931 . S
C915 H903 0.929 . S
C915 C909 1.390 . S
C915 C912 1.386 . S
C916 C911 1.490 . S
C916 C918 1.395 . S
C916 C919 1.403 . S
H917 C923 0.930 . S
C918 H904 0.930 . S
C918 C916 1.395 . S
C918 C921 1.403 . S
C919 C916 1.403 . S
C919 C920 1.524 . S
C919 C923 1.400 . S
C920 H905 0.960 . S
C920 H906 0.960 1_565 S
C920 H907 0.960 . S
C920 C919 1.524 . S
C921 C918 1.403 . S
C921 C922 1.392 . S
C921 C925 1.495 . S
C922 C921 1.392 . S
C922 C923 1.385 . S
C922 C924 1.478 . S
C923 H917 0.930 . S
C923 C919 1.400 . S
C923 C922 1.385 . S
C924 C922 1.478 . S
C924 C926 1.381 . S
C924 C930 1.383 . S
C925 C921 1.495 . S
C925 H931 0.959 . S
C925 H932 0.961 . S
C925 H933 0.960 . S
C926 C924 1.381 . S
C926 C927 1.394 . S
C926 H934 0.930 . S
C927 C926 1.394 . S
C927 C928 1.383 . S
C927 H935 0.929 . S
C928 C927 1.383 . S
C928 C929 1.377 . S
C929 H913 0.930 . S
C929 C928 1.377 . S
C929 C930 1.379 . S
C930 H914 0.931 . S
C930 C924 1.383 . S
C930 C929 1.379 . S
H931 C925 0.959 . S
H932 C925 0.961 . S
H933 C925 0.960 . S
H934 C926 0.930 . S
H935 C927 0.929 . S
H936 C944 0.929 . S
H937 C946 0.930 . S
H938 C948 0.930 . S
H939 C951 0.929 . S
H940 C954 0.930 . S
H941 C956 0.960 . S
H942 C956 0.960 . S
H943 C956 0.960 . S
C944 H936 0.929 . S
C944 C945 1.377 . S
C944 C946 1.384 . S
C945 C944 1.377 . S
C945 C951 1.390 . S
C946 H937 0.930 . S
C946 C944 1.384 . S
C946 C947 1.372 . S
C947 C946 1.372 . S
C947 C948 1.400 . S
C947 C952 1.490 . S
C948 H938 0.930 . S
C948 C947 1.400 . S
C948 C951 1.386 . S
H949 C965 0.930 . S
H950 C966 0.931 . S
C951 H939 0.929 . S
C951 C945 1.390 . S
C951 C948 1.386 . S
C952 C947 1.490 . S
C952 C954 1.395 . S
C952 C955 1.403 . S
H953 C959 0.930 . S
C954 H940 0.930 . S
C954 C952 1.395 . S
C954 C957 1.403 . S
C955 C952 1.403 . S
C955 C956 1.524 . S
C955 C959 1.400 . S
C956 H941 0.960 . S
C956 H942 0.960 . S
C956 H943 0.960 . S
C956 C955 1.524 . S
C957 C954 1.403 . S
C957 C958 1.392 . S
C957 C961 1.495 . S
C958 C957 1.392 . S
C958 C959 1.385 . S
C958 C960 1.478 . S
C959 H953 0.930 . S
C959 C955 1.400 . S
C959 C958 1.385 . S
C960 C958 1.478 . S
C960 C962 1.381 . S
C960 C966 1.383 . S
C961 C957 1.495 . S
C961 H967 0.959 . S
C961 H968 0.961 . S
C961 H969 0.960 . S
C962 C960 1.381 . S
C962 C963 1.394 . S
C962 H970 0.930 . S
C963 C962 1.394 . S
C963 C964 1.383 . S
C963 H971 0.929 . S
C964 C963 1.383 . S
C964 C965 1.377 . S
C965 H949 0.930 . S
C965 C964 1.377 . S
C965 C966 1.379 . S
C966 H950 0.931 . S
C966 C960 1.383 . S
C966 C965 1.379 . S
H967 C961 0.959 . S
H968 C961 0.961 . S
H969 C961 0.960 . S
H970 C962 0.930 . S
H971 C963 0.929 . S
H972 C980 0.929 1_455 S
H973 C982 0.930 . S
H974 C984 0.930 . S
H975 C987 0.929 . S
H976 C990 0.930 . S
H977 C992 0.960 . S
H978 C992 0.960 . S
H979 C992 0.960 . S
C980 H972 0.929 1_655 S
C980 C981 1.377 . S
C980 C982 1.384 . S
C981 C980 1.377 . S
C981 C987 1.390 . S
C982 H973 0.930 . S
C982 C980 1.384 . S
C982 C983 1.372 . S
C983 C982 1.372 . S
C983 C984 1.400 . S
C983 C988 1.490 . S
C984 H974 0.930 . S
C984 C983 1.400 . S
C984 C987 1.386 . S
H985 C1001 0.930 . S
H986 C1002 0.931 . S
C987 H975 0.929 . S
C987 C981 1.390 . S
C987 C984 1.386 . S
C988 C983 1.490 . S
C988 C990 1.395 . S
C988 C991 1.403 . S
H989 C995 0.930 . S
C990 H976 0.930 . S
C990 C988 1.395 . S
C990 C993 1.403 . S
C991 C988 1.403 . S
C991 C992 1.524 . S
C991 C995 1.400 . S
C992 H977 0.960 . S
C992 H978 0.960 . S
C992 H979 0.960 . S
C992 C991 1.524 . S
C993 C990 1.403 . S
C993 C994 1.392 . S
C993 C997 1.495 . S
C994 C993 1.392 . S
C994 C995 1.385 . S
C994 C996 1.478 . S
C995 H989 0.930 . S
C995 C991 1.400 . S
C995 C994 1.385 . S
C996 C994 1.478 . S
C996 C998 1.381 . S
C996 C1002 1.383 . S
C997 C993 1.495 . S
C997 H1003 0.959 . S
C997 H1004 0.961 . S
C997 H1005 0.960 . S
C998 C996 1.381 . S
C998 C999 1.394 . S
C998 H1006 0.930 . S
C999 C998 1.394 . S
C999 C1000 1.383 . S
C999 H1007 0.929 . S
C1000 C999 1.383 . S
C1000 C1001 1.377 . S
C1001 H985 0.930 . S
C1001 C1000 1.377 . S
C1001 C1002 1.379 . S
C1002 H986 0.931 . S
C1002 C996 1.383 . S
C1002 C1001 1.379 . S
H1003 C997 0.959 . S
H1004 C997 0.961 . S
H1005 C997 0.960 . S
H1006 C998 0.930 . S
H1007 C999 0.929 . S
H1008 C1016 0.929 . S
H1009 C1018 0.930 . S
H1010 C1020 0.930 . S
H1011 C1023 0.929 . S
H1012 C1026 0.930 . S
H1013 C1028 0.960 . S
H1014 C1028 0.960 . S
H1015 C1028 0.960 . S
C1016 H1008 0.929 . S
C1016 C1017 1.377 . S
C1016 C1018 1.384 . S
C1017 C1016 1.377 . S
C1017 C1023 1.390 . S
C1018 H1009 0.930 . S
C1018 C1016 1.384 . S
C1018 C1019 1.372 . S
C1019 C1018 1.372 . S
C1019 C1020 1.400 . S
C1019 C1024 1.490 . S
C1020 H1010 0.930 . S
C1020 C1019 1.400 . S
C1020 C1023 1.386 . S
H1021 C1037 0.930 . S
H1022 C1038 0.931 . S
C1023 H1011 0.929 . S
C1023 C1017 1.390 . S
C1023 C1020 1.386 . S
C1024 C1019 1.490 . S
C1024 C1026 1.395 . S
C1024 C1027 1.403 . S
H1025 C1031 0.930 . S
C1026 H1012 0.930 . S
C1026 C1024 1.395 . S
C1026 C1029 1.403 . S
C1027 C1024 1.403 . S
C1027 C1028 1.524 . S
C1027 C1031 1.400 . S
C1028 H1013 0.960 . S
C1028 H1014 0.960 . S
C1028 H1015 0.960 . S
C1028 C1027 1.524 . S
C1029 C1026 1.403 . S
C1029 C1030 1.392 . S
C1029 C1033 1.495 . S
C1030 C1029 1.392 . S
C1030 C1031 1.385 . S
C1030 C1032 1.478 . S
C1031 H1025 0.930 . S
C1031 C1027 1.400 . S
C1031 C1030 1.385 . S
C1032 C1030 1.478 . S
C1032 C1034 1.381 . S
C1032 C1038 1.383 . S
C1033 C1029 1.495 . S
C1033 H1039 0.959 . S
C1033 H1040 0.961 . S
C1033 H1041 0.960 . S
C1034 C1032 1.381 . S
C1034 C1035 1.394 . S
C1034 H1042 0.930 . S
C1035 C1034 1.394 . S
C1035 C1036 1.383 . S
C1035 H1043 0.929 . S
C1036 C1035 1.383 . S
C1036 C1037 1.377 . S
C1037 H1021 0.930 . S
C1037 C1036 1.377 . S
C1037 C1038 1.379 . S
C1038 H1022 0.931 . S
C1038 C1032 1.383 . S
C1038 C1037 1.379 . S
H1039 C1033 0.959 . S
H1040 C1033 0.961 . S
H1041 C1033 0.960 . S
H1042 C1034 0.930 . S
H1043 C1035 0.929 . S
H1044 C1052 0.929 . S
H1045 C1054 0.930 . S
H1046 C1056 0.930 . S
H1047 C1059 0.929 . S
H1048 C1062 0.930 . S
H1049 C1064 0.960 . S
H1050 C1064 0.960 . S
H1051 C1064 0.960 . S
C1052 H1044 0.929 . S
C1052 C1053 1.377 . S
C1052 C1054 1.384 . S
C1053 C1052 1.377 . S
C1053 C1059 1.390 . S
C1054 H1045 0.930 . S
C1054 C1052 1.384 . S
C1054 C1055 1.372 . S
C1055 C1054 1.372 . S
C1055 C1056 1.400 . S
C1055 C1060 1.490 . S
C1056 H1046 0.930 . S
C1056 C1055 1.400 . S
C1056 C1059 1.386 . S
H1057 C1073 0.930 . S
H1058 C1074 0.931 . S
C1059 H1047 0.929 . S
C1059 C1053 1.390 . S
C1059 C1056 1.386 . S
C1060 C1055 1.490 . S
C1060 C1062 1.395 . S
C1060 C1063 1.403 . S
H1061 C1067 0.930 . S
C1062 H1048 0.930 . S
C1062 C1060 1.395 . S
C1062 C1065 1.403 . S
C1063 C1060 1.403 . S
C1063 C1064 1.524 . S
C1063 C1067 1.400 . S
C1064 H1049 0.960 . S
C1064 H1050 0.960 . S
C1064 H1051 0.960 . S
C1064 C1063 1.524 . S
C1065 C1062 1.403 . S
C1065 C1066 1.392 . S
C1065 C1069 1.495 . S
C1066 C1065 1.392 . S
C1066 C1067 1.385 . S
C1066 C1068 1.478 . S
C1067 H1061 0.930 . S
C1067 C1063 1.400 . S
C1067 C1066 1.385 . S
C1068 C1066 1.478 . S
C1068 C1070 1.381 . S
C1068 C1074 1.383 . S
C1069 C1065 1.495 . S
C1069 H1075 0.959 . S
C1069 H1076 0.961 . S
C1069 H1077 0.960 . S
C1070 C1068 1.381 . S
C1070 C1071 1.394 . S
C1070 H1078 0.930 . S
C1071 C1070 1.394 . S
C1071 C1072 1.383 . S
C1071 H1079 0.929 . S
C1072 C1071 1.383 . S
C1072 C1073 1.377 . S
C1073 H1057 0.930 . S
C1073 C1072 1.377 . S
C1073 C1074 1.379 . S
C1074 H1058 0.931 . S
C1074 C1068 1.383 . S
C1074 C1073 1.379 . S
H1075 C1069 0.959 . S
H1076 C1069 0.961 . S
H1077 C1069 0.960 . S
H1078 C1070 0.930 . S
H1079 C1071 0.929 . S
H1080 C1088 0.929 . S
H1081 C1090 0.930 . S
H1082 C1092 0.930 . S
H1083 C1095 0.929 . S
H1084 C1098 0.930 . S
H1085 C1100 0.960 . S
H1086 C1100 0.960 . S
H1087 C1100 0.960 . S
C1088 H1080 0.929 . S
C1088 C1089 1.377 . S
C1088 C1090 1.384 . S
C1089 C1088 1.377 . S
C1089 C1095 1.390 . S
C1090 H1081 0.930 . S
C1090 C1088 1.384 . S
C1090 C1091 1.372 . S
C1091 C1090 1.372 . S
C1091 C1092 1.400 . S
C1091 C1096 1.490 . S
C1092 H1082 0.930 . S
C1092 C1091 1.400 . S
C1092 C1095 1.386 . S
H1093 C1109 0.930 . S
H1094 C1110 0.931 . S
C1095 H1083 0.929 . S
C1095 C1089 1.390 . S
C1095 C1092 1.386 . S
C1096 C1091 1.490 . S
C1096 C1098 1.395 1_565 S
C1096 C1099 1.403 . S
H1097 C1103 0.930 . S
C1098 H1084 0.930 . S
C1098 C1096 1.395 1_545 S
C1098 C1101 1.403 . S
C1099 C1096 1.403 . S
C1099 C1100 1.524 . S
C1099 C1103 1.400 1_565 S
C1100 H1085 0.960 . S
C1100 H1086 0.960 . S
C1100 H1087 0.960 . S
C1100 C1099 1.524 . S
C1101 C1098 1.403 . S
C1101 C1102 1.392 . S
C1101 C1105 1.495 . S
C1102 C1101 1.392 . S
C1102 C1103 1.385 . S
C1102 C1104 1.478 . S
C1103 H1097 0.930 . S
C1103 C1099 1.400 1_545 S
C1103 C1102 1.385 . S
C1104 C1102 1.478 . S
C1104 C1106 1.381 . S
C1104 C1110 1.383 . S
C1105 C1101 1.495 . S
C1105 H1111 0.959 . S
C1105 H1112 0.961 . S
C1105 H1113 0.960 . S
C1106 C1104 1.381 . S
C1106 C1107 1.394 . S
C1106 H1114 0.930 . S
C1107 C1106 1.394 . S
C1107 C1108 1.383 . S
C1107 H1115 0.929 . S
C1108 C1107 1.383 . S
C1108 C1109 1.377 . S
C1109 H1093 0.930 . S
C1109 C1108 1.377 . S
C1109 C1110 1.379 . S
C1110 H1094 0.931 . S
C1110 C1104 1.383 . S
C1110 C1109 1.379 . S
H1111 C1105 0.959 . S
H1112 C1105 0.961 . S
H1113 C1105 0.960 . S
H1114 C1106 0.930 . S
H1115 C1107 0.929 . S
H1116 C1124 0.929 . S
H1117 C1126 0.930 1_455 S
H1118 C1128 0.930 . S
H1119 C1131 0.929 . S
H1120 C1134 0.930 . S
H1121 C1136 0.960 . S
H1122 C1136 0.960 . S
H1123 C1136 0.960 . S
C1124 H1116 0.929 . S
C1124 C1125 1.377 . S
C1124 C1126 1.384 . S
C1125 C1124 1.377 . S
C1125 C1131 1.390 . S
C1126 H1117 0.930 1_655 S
C1126 C1124 1.384 . S
C1126 C1127 1.372 . S
C1127 C1126 1.372 . S
C1127 C1128 1.400 . S
C1127 C1132 1.490 . S
C1128 H1118 0.930 . S
C1128 C1127 1.400 . S
C1128 C1131 1.386 . S
H1129 C1145 0.930 . S
H1130 C1146 0.931 . S
C1131 H1119 0.929 . S
C1131 C1125 1.390 . S
C1131 C1128 1.386 . S
C1132 C1127 1.490 . S
C1132 C1134 1.395 1_655 S
C1132 C1135 1.403 . S
H1133 C1139 0.930 1_655 S
C1134 H1120 0.930 . S
C1134 C1132 1.395 1_455 S
C1134 C1137 1.403 . S
C1135 C1132 1.403 . S
C1135 C1136 1.524 . S
C1135 C1139 1.400 1_655 S
C1136 H1121 0.960 . S
C1136 H1122 0.960 . S
C1136 H1123 0.960 . S
C1136 C1135 1.524 . S
C1137 C1134 1.403 . S
C1137 C1138 1.392 . S
C1137 C1141 1.495 . S
C1138 C1137 1.392 . S
C1138 C1139 1.385 . S
C1138 C1140 1.478 . S
C1139 H1133 0.930 1_455 S
C1139 C1135 1.400 1_455 S
C1139 C1138 1.385 . S
C1140 C1138 1.478 . S
C1140 C1142 1.381 . S
C1140 C1146 1.383 . S
C1141 C1137 1.495 . S
C1141 H1147 0.959 . S
C1141 H1148 0.961 . S
C1141 H1149 0.960 . S
C1142 C1140 1.381 . S
C1142 C1143 1.394 . S
C1142 H1150 0.930 . S
C1143 C1142 1.394 . S
C1143 C1144 1.383 . S
C1143 H1151 0.929 . S
C1144 C1143 1.383 . S
C1144 C1145 1.377 . S
C1145 H1129 0.930 . S
C1145 C1144 1.377 . S
C1145 C1146 1.379 . S
C1146 H1130 0.931 . S
C1146 C1140 1.383 . S
C1146 C1145 1.379 . S
H1147 C1141 0.959 . S
H1148 C1141 0.961 . S
H1149 C1141 0.960 . S
H1150 C1142 0.930 . S
H1151 C1143 0.929 . S
C189 C28 1.691 . S
C208 C19 1.765 . S
C225 C46 0.768 . S
C244 C36 0.749 . S
C261 C59 1.491 . S
C280 C6 1.466 . S
C297 C56 1.018 . S
C316 C26 1.023 . S
C333 C48 1.223 . S
C352 C16 1.298 . S
C369 C8 1.891 1_556 S
C388 C39 2.031 1_556 S
C405 C79 0.985 . S
C424 C86 1.011 . S
C441 C106 1.522 . S
C460 C99 1.541 . S
C477 C119 1.564 . S
C496 C66 1.539 . S
C513 C88 1.679 . S
C532 C116 1.806 . S
C549 C108 1.144 . S
C568 C76 1.213 . S
C585 C96 1.267 . S
C604 C68 1.182 . S
C621 C148 1.664 . S
C640 C139 1.740 . S
C657 C156 0.764 . S
C676 C166 0.808 . S
C693 C179 1.487 . S
C712 C126 1.407 . S
C729 C176 0.982 . S
C748 C146 0.982 . S
C765 C168 1.216 . S
C784 C136 1.298 . S
C801 C128 1.899 . S
C820 C159 2.005 . S
C837 C109 2.223 . S
C856 C1 2.270 . S
C873 C69 2.303 . S
C892 C29 2.301 . S
C909 C41 2.299 . S
C928 C89 2.237 . S
C945 C49 2.231 . S
C964 C121 2.287 . S
C981 C9 2.240 . S
C1000 C149 2.260 . S
C1017 C161 2.272 . S
C1036 C21 2.260 . S
C1053 C61 2.287 . S
C1072 C169 2.198 . S
C1089 C81 2.298 . S
C1108 C129 2.220 . S
C1125 C141 2.204 . S
C1144 C101 2.219 . S
