# Generated by pormake.
# Topology ung, (4)-cn, num edge types: 1
# Building blocks:
#     Node 0, Type 0, BuildingBlock: CEKHIL_clean_sbu_0, # of connection points: 4
#     Node 1, Type 0, BuildingBlock: CEKHIL_clean_sbu_0, # of connection points: 4
#     Node 2, Type 0, BuildingBlock: CEKHIL_clean_sbu_0, # of connection points: 4
#     Node 3, Type 0, BuildingBlock: CEKHIL_clean_sbu_0, # of connection points: 4
#     Node 4, Type 0, BuildingBlock: CEKHIL_clean_sbu_0, # of connection points: 4
#     Node 5, Type 0, BuildingBlock: CEKHIL_clean_sbu_0, # of connection points: 4
#     Node 6, Type 0, BuildingBlock: CEKHIL_clean_sbu_0, # of connection points: 4
#     Node 7, Type 0, BuildingBlock: CEKHIL_clean_sbu_0, # of connection points: 4
#     Node 8, Type 0, BuildingBlock: CEKHIL_clean_sbu_0, # of connection points: 4
#     Node 9, Type 0, BuildingBlock: CEKHIL_clean_sbu_0, # of connection points: 4
#     Node 10, Type 0, BuildingBlock: CEKHIL_clean_sbu_0, # of connection points: 4
#     Node 11, Type 0, BuildingBlock: CEKHIL_clean_sbu_0, # of connection points: 4
#     Node 12, Type 0, BuildingBlock: CEKHIL_clean_sbu_0, # of connection points: 4
#     Node 13, Type 0, BuildingBlock: CEKHIL_clean_sbu_0, # of connection points: 4
#     Node 14, Type 0, BuildingBlock: CEKHIL_clean_sbu_0, # of connection points: 4
#     Node 15, Type 0, BuildingBlock: CEKHIL_clean_sbu_0, # of connection points: 4
#     Node 16, Type 0, BuildingBlock: CEKHIL_clean_sbu_0, # of connection points: 4
#     Node 17, Type 0, BuildingBlock: CEKHIL_clean_sbu_0, # of connection points: 4
#     Edge 18, Type (0, 0), BuildingBlock: XIVTED_clean_linker_0, # of connection points: 2
#     Edge 19, Type (0, 0), BuildingBlock: XIVTED_clean_linker_0, # of connection points: 2
#     Edge 20, Type (0, 0), BuildingBlock: XIVTED_clean_linker_0, # of connection points: 2
#     Edge 21, Type (0, 0), BuildingBlock: XIVTED_clean_linker_0, # of connection points: 2
#     Edge 22, Type (0, 0), BuildingBlock: XIVTED_clean_linker_0, # of connection points: 2
#     Edge 23, Type (0, 0), BuildingBlock: XIVTED_clean_linker_0, # of connection points: 2
#     Edge 24, Type (0, 0), BuildingBlock: XIVTED_clean_linker_0, # of connection points: 2
#     Edge 25, Type (0, 0), BuildingBlock: XIVTED_clean_linker_0, # of connection points: 2
#     Edge 26, Type (0, 0), BuildingBlock: XIVTED_clean_linker_0, # of connection points: 2
#     Edge 27, Type (0, 0), BuildingBlock: XIVTED_clean_linker_0, # of connection points: 2
#     Edge 28, Type (0, 0), BuildingBlock: XIVTED_clean_linker_0, # of connection points: 2
#     Edge 29, Type (0, 0), BuildingBlock: XIVTED_clean_linker_0, # of connection points: 2
#     Edge 30, Type (0, 0), BuildingBlock: XIVTED_clean_linker_0, # of connection points: 2
#     Edge 31, Type (0, 0), BuildingBlock: XIVTED_clean_linker_0, # of connection points: 2
#     Edge 32, Type (0, 0), BuildingBlock: XIVTED_clean_linker_0, # of connection points: 2
#     Edge 33, Type (0, 0), BuildingBlock: XIVTED_clean_linker_0, # of connection points: 2
#     Edge 34, Type (0, 0), BuildingBlock: XIVTED_clean_linker_0, # of connection points: 2
#     Edge 35, Type (0, 0), BuildingBlock: XIVTED_clean_linker_0, # of connection points: 2
#     Edge 36, Type (0, 0), BuildingBlock: XIVTED_clean_linker_0, # of connection points: 2
#     Edge 37, Type (0, 0), BuildingBlock: XIVTED_clean_linker_0, # of connection points: 2
#     Edge 38, Type (0, 0), BuildingBlock: XIVTED_clean_linker_0, # of connection points: 2
#     Edge 39, Type (0, 0), BuildingBlock: XIVTED_clean_linker_0, # of connection points: 2
#     Edge 40, Type (0, 0), BuildingBlock: XIVTED_clean_linker_0, # of connection points: 2
#     Edge 41, Type (0, 0), BuildingBlock: XIVTED_clean_linker_0, # of connection points: 2
#     Edge 42, Type (0, 0), BuildingBlock: XIVTED_clean_linker_0, # of connection points: 2
#     Edge 43, Type (0, 0), BuildingBlock: XIVTED_clean_linker_0, # of connection points: 2
#     Edge 44, Type (0, 0), BuildingBlock: XIVTED_clean_linker_0, # of connection points: 2
#     Edge 45, Type (0, 0), BuildingBlock: XIVTED_clean_linker_0, # of connection points: 2
#     Edge 46, Type (0, 0), BuildingBlock: XIVTED_clean_linker_0, # of connection points: 2
#     Edge 47, Type (0, 0), BuildingBlock: XIVTED_clean_linker_0, # of connection points: 2
#     Edge 48, Type (0, 0), BuildingBlock: XIVTED_clean_linker_0, # of connection points: 2
#     Edge 49, Type (0, 0), BuildingBlock: XIVTED_clean_linker_0, # of connection points: 2
#     Edge 50, Type (0, 0), BuildingBlock: XIVTED_clean_linker_0, # of connection points: 2
#     Edge 51, Type (0, 0), BuildingBlock: XIVTED_clean_linker_0, # of connection points: 2
#     Edge 52, Type (0, 0), BuildingBlock: XIVTED_clean_linker_0, # of connection points: 2
#     Edge 53, Type (0, 0), BuildingBlock: XIVTED_clean_linker_0, # of connection points: 2
# Relax obj value: 0.073
# Max RMSD: 0.189
# Mean RMSD: 0.184
data_MOF--net-ung--node1-CEKHIL_clean_sbu_0--edge1-XIVTED_clean_linker_0
_symmetry_space_group_name_H-M    P1
_symmetry_Int_Tables_number       1
_symmetry_cell_setting            triclinic
loop_
_symmetry_equiv_pos_as_xyz
'x, y, z'
_cell_length_a     72.822304
_cell_length_b     72.978045
_cell_length_c     22.245101
_cell_angle_alpha  90.991143
_cell_angle_beta   91.23534
_cell_angle_gamma 119.93203
loop_
_atom_site_label
_atom_site_type_symbol
_atom_site_fract_x
_atom_site_fract_y
_atom_site_fract_z
_atom_type_partial_charge
Co0 Co 0.07248 0.62265 0.23905 0.0
O1 O 0.08672 0.61565 0.29944 0.0
O2 O 0.05364 0.59432 0.26607 0.0
C3 C 0.08161 0.65445 0.27952 0.0
O4 O 0.05295 0.62563 0.17753 0.0
Co5 Co 0.10052 0.65922 0.1584 0.0
O6 O 0.07322 0.65413 0.12288 0.0
C7 C 0.09629 0.61799 0.13336 0.0
C8 C 0.0694 0.59767 0.30234 0.0
C9 C 0.0553 0.63864 0.13592 0.0
O10 O 0.08311 0.61089 0.17576 0.0
O11 O 0.10625 0.6375 0.12007 0.0
O12 O 0.06529 0.63745 0.29753 0.0
O13 O 0.09338 0.65163 0.24162 0.0
Co14 Co 0.50271 0.48893 0.24379 0.0
O15 O 0.52655 0.49835 0.19374 0.0
O16 O 0.5106 0.51671 0.21403 0.0
C17 C 0.48433 0.45661 0.20055 0.0
O18 O 0.47703 0.48311 0.29308 0.0
Co19 Co 0.49441 0.4529 0.32916 0.0
O20 O 0.46909 0.45474 0.34913 0.0
C21 C 0.52733 0.49598 0.36344 0.0
C22 C 0.52533 0.51522 0.18574 0.0
C23 C 0.46551 0.46917 0.33114 0.0
O24 O 0.52215 0.50227 0.3159 0.0
O25 O 0.51894 0.47648 0.37641 0.0
O26 O 0.48384 0.47256 0.17758 0.0
O27 O 0.49764 0.46097 0.24558 0.0
Co28 Co 0.62777 0.04484 0.26964 0.0
O29 O 0.60493 0.03136 0.32335 0.0
O30 O 0.62487 0.06603 0.31615 0.0
C31 C 0.64245 0.02499 0.29321 0.0
O32 O 0.65324 0.06403 0.21974 0.0
Co33 Co 0.62977 0.01777 0.16462 0.0
O34 O 0.65602 0.04405 0.14598 0.0
C35 C 0.60137 0.03541 0.15261 0.0
C36 C 0.60946 0.05006 0.3422 0.0
C37 C 0.66237 0.06176 0.17346 0.0
O38 O 0.60793 0.04461 0.20472 0.0
O39 O 0.60705 0.0228 0.13029 0.0
O40 O 0.64666 0.04165 0.32561 0.0
O41 O 0.62803 0.01959 0.25096 0.0
Co42 Co 0.05148 0.48452 0.71512 0.0
O43 O 0.03985 0.49955 0.67529 0.0
O44 O 0.07388 0.50894 0.67724 0.0
C45 C 0.02722 0.45285 0.6765 0.0
O46 O 0.06855 0.47183 0.7515 0.0
Co47 Co 0.02466 0.45224 0.80951 0.0
O48 O 0.04525 0.44243 0.79794 0.0
C49 C 0.04902 0.49754 0.84434 0.0
C50 C 0.05877 0.51218 0.65752 0.0
C51 C 0.06359 0.45448 0.77804 0.0
O52 O 0.05601 0.50148 0.79098 0.0
O53 O 0.03557 0.47893 0.86079 0.0
O54 O 0.04361 0.4654 0.64648 0.0
O55 O 0.02478 0.46042 0.727 0.0
Co56 Co 0.63003 0.62984 0.78388 0.0
O57 O 0.60641 0.62062 0.83478 0.0
O58 O 0.62576 0.60508 0.8266 0.0
C59 C 0.64505 0.664 0.81267 0.0
O60 O 0.65601 0.63583 0.73612 0.0
Co61 Co 0.63535 0.66085 0.68337 0.0
O62 O 0.66381 0.6638 0.67864 0.0
C63 C 0.60577 0.6151 0.66328 0.0
C64 C 0.61019 0.60592 0.85182 0.0
C65 C 0.6681 0.65026 0.70015 0.0
O66 O 0.61095 0.61149 0.71545 0.0
O67 O 0.6128 0.63374 0.64355 0.0
O68 O 0.6484 0.65106 0.84393 0.0
O69 O 0.63137 0.65571 0.76825 0.0
Co70 Co 0.50349 0.06338 0.74212 0.0
O71 O 0.52591 0.07758 0.68741 0.0
O72 O 0.51235 0.04405 0.71106 0.0
C73 C 0.48267 0.07492 0.70119 0.0
O74 O 0.47971 0.04342 0.79624 0.0
Co75 Co 0.49426 0.09048 0.8287 0.0
O76 O 0.47166 0.06319 0.85714 0.0
C77 C 0.5287 0.08249 0.86073 0.0
C78 C 0.5258 0.05991 0.68006 0.0
C79 C 0.469 0.04539 0.83874 0.0
O80 O 0.52461 0.07182 0.81098 0.0
O81 O 0.51888 0.09215 0.87634 0.0
O82 O 0.48263 0.05827 0.67978 0.0
O83 O 0.49673 0.08546 0.74381 0.0
Co84 Co 0.72042 0.93841 0.56465 0.0
O85 O 0.71253 0.91043 0.53802 0.0
O86 O 0.74567 0.9362 0.55731 0.0
C87 C 0.70051 0.94405 0.49744 0.0
O88 O 0.73399 0.96912 0.59297 0.0
Co89 Co 0.6859 0.94591 0.61936 0.0
O90 O 0.70765 0.97598 0.61034 0.0
C91 C 0.70776 0.92971 0.69567 0.0
C92 C 0.73262 0.91668 0.53998 0.0
C93 C 0.72725 0.98194 0.60597 0.0
O94 O 0.71843 0.93007 0.65023 0.0
O95 O 0.69301 0.93441 0.69273 0.0
O96 O 0.71873 0.94642 0.48323 0.0
O97 O 0.69356 0.93556 0.54884 0.0
Co98 Co 0.1572 0.82228 0.55681 0.0
O99 O 0.18102 0.82935 0.5088 0.0
O100 O 0.16795 0.85054 0.52553 0.0
C101 C 0.13703 0.79017 0.51288 0.0
O102 O 0.13194 0.81873 0.60465 0.0
Co103 Co 0.14567 0.78536 0.6419 0.0
O104 O 0.12191 0.78996 0.66097 0.0
C105 C 0.18167 0.82691 0.67482 0.0
C106 C 0.18194 0.84718 0.49944 0.0
C107 C 0.11974 0.80525 0.64281 0.0
O108 O 0.17658 0.83434 0.62963 0.0
O109 O 0.17226 0.8072 0.68591 0.0
O110 O 0.13804 0.80681 0.48976 0.0
O111 O 0.14974 0.79368 0.55876 0.0
Co112 Co 0.29736 0.40017 0.56764 0.0
O113 O 0.28579 0.41666 0.53583 0.0
O114 O 0.2691 0.38161 0.53397 0.0
C115 C 0.3289 0.41869 0.52379 0.0
O116 O 0.30448 0.37793 0.59585 0.0
Co117 Co 0.33671 0.42111 0.65444 0.0
O118 O 0.33733 0.39464 0.63846 0.0
C119 C 0.29418 0.40725 0.70146 0.0
C120 C 0.26921 0.39886 0.51936 0.0
C121 C 0.32078 0.37789 0.61915 0.0
O122 O 0.2858 0.40018 0.64868 0.0
O123 O 0.31425 0.41722 0.71255 0.0
O124 O 0.31264 0.40363 0.49436 0.0
O125 O 0.32529 0.42321 0.57723 0.0
Co126 Co 0.72691 0.83415 0.06875 0.0
O127 O 0.71424 0.85067 0.04788 0.0
O128 O 0.74889 0.8629 0.05402 0.0
C129 C 0.70654 0.80671 0.00579 0.0
O130 O 0.74499 0.82085 0.08957 0.0
Co131 Co 0.69873 0.791 0.128 0.0
O132 O 0.72222 0.7864 0.10423 0.0
C133 C 0.71938 0.8304 0.20303 0.0
C134 C 0.73326 0.86628 0.04176 0.0
C135 C 0.74093 0.80179 0.09795 0.0
O136 O 0.72726 0.84122 0.15604 0.0
O137 O 0.70677 0.81035 0.20131 0.0
O138 O 0.72311 0.82323 0.9866 0.0
O139 O 0.70146 0.80823 0.06026 0.0
Co140 Co 0.29914 0.94754 0.10221 0.0
O141 O 0.27328 0.93907 0.14182 0.0
O142 O 0.29005 0.92081 0.14147 0.0
C143 C 0.31484 0.98077 0.14081 0.0
O144 O 0.32688 0.95274 0.0656 0.0
Co145 Co 0.31169 0.98231 0.00841 0.0
O146 O 0.3384 0.98156 0.00873 0.0
C147 C 0.27924 0.93849 0.97564 0.0
C148 C 0.2743 0.9229 0.16006 0.0
C149 C 0.34071 0.96701 0.03212 0.0
O150 O 0.2828 0.93249 0.02635 0.0
O151 O 0.28801 0.95792 0.96142 0.0
O152 O 0.31509 0.96577 0.17049 0.0
O153 O 0.30383 0.97497 0.09064 0.0
Co154 Co 0.16489 0.39001 0.05388 0.0
O155 O 0.19041 0.40384 0.01051 0.0
O156 O 0.17423 0.36998 0.03337 0.0
C157 C 0.14748 0.40277 -0.00066 0.0
O158 O 0.1381 0.37079 0.0989 0.0
Co159 Co 0.15305 0.419 0.12584 0.0
O160 O 0.12917 0.39183 0.15104 0.0
C161 C 0.18469 0.40966 0.17798 0.0
C162 C 0.18995 0.3859 0.00814 0.0
C163 C 0.12636 0.37366 0.13605 0.0
O164 O 0.18178 0.39762 0.13178 0.0
O165 O 0.17585 0.42097 0.1829 0.0
O166 O 0.14789 0.38599 0.98138 0.0
O167 O 0.15931 0.41257 0.04659 0.0
Co168 Co 0.38881 0.28526 0.93675 0.0
O169 O 0.40383 0.27665 0.98925 0.0
O170 O 0.36911 0.25822 0.97045 0.0
C171 C 0.40421 0.31831 0.97622 0.0
O172 O 0.36866 0.29046 0.88372 0.0
Co173 Co 0.41645 0.31997 0.84876 0.0
O174 O 0.3892 0.31815 0.82635 0.0
C175 C 0.40536 0.27611 0.82182 0.0
C176 C 0.38584 0.26008 -0.00104 0.0
C177 C 0.37115 0.30398 0.84358 0.0
O178 O 0.39371 0.27048 0.86785 0.0
O179 O 0.41703 0.29545 0.80799 0.0
O180 O 0.38761 0.3031 -0.00011 0.0
O181 O 0.41207 0.31277 0.93253 0.0
Co182 Co 0.83014 0.14644 0.89431 0.0
O183 O 0.85275 0.15335 0.84129 0.0
O184 O 0.84036 0.17471 0.86454 0.0
C185 C 0.80852 0.11446 0.85186 0.0
O186 O 0.80619 0.14343 0.94723 0.0
Co187 Co 0.81981 0.10995 0.97846 0.0
O188 O 0.7968 0.11492 0.00381 0.0
C189 C 0.85587 0.15145 0.01037 0.0
C190 C 0.85361 0.1713 0.83445 0.0
C191 C 0.79462 0.13033 0.98697 0.0
O192 O 0.85098 0.15846 0.96391 0.0
O193 O 0.84606 0.13193 0.02355 0.0
O194 O 0.80944 0.13132 0.83071 0.0
O195 O 0.82233 0.11753 0.89441 0.0
Co196 Co 0.95193 0.70564 0.91334 0.0
O197 O 0.92808 0.69148 0.96356 0.0
O198 O 0.94774 0.72627 0.95771 0.0
C199 C 0.9667 0.68619 0.94128 0.0
O200 O 0.97815 0.72575 0.86721 0.0
Co201 Co 0.95695 0.68016 0.80986 0.0
O202 O 0.9827 0.70711 0.79312 0.0
C203 C 0.92757 0.69643 0.79269 0.0
C204 C 0.93207 0.71006 0.98209 0.0
C205 C 0.98808 0.72444 0.82154 0.0
O206 O 0.93307 0.70525 0.84543 0.0
O207 O 0.93427 0.68453 0.77124 0.0
O208 O 0.96975 0.70256 0.97314 0.0
O209 O 0.95341 0.68086 0.89581 0.0
Co210 Co 0.38441 0.1512 0.39941 0.0
O211 O 0.37103 0.16388 0.35641 0.0
O212 O 0.40583 0.1785 0.37138 0.0
C213 C 0.36616 0.11971 0.35178 0.0
O214 O 0.40295 0.14136 0.44225 0.0
Co215 Co 0.35585 0.11483 0.48181 0.0
O216 O 0.37998 0.10959 0.47874 0.0
C217 C 0.3719 0.15865 0.5238 0.0
C218 C 0.38981 0.17944 0.3475 0.0
C219 C 0.39871 0.12381 0.46655 0.0
O220 O 0.38236 0.16469 0.47564 0.0
O221 O 0.35926 0.13918 0.53455 0.0
O222 O 0.38287 0.13491 0.3286 0.0
O223 O 0.35962 0.12459 0.40003 0.0
Co224 Co 0.96107 0.28138 0.43294 0.0
O225 O 0.93609 0.27106 0.47812 0.0
O226 O 0.95539 0.25544 0.4719 0.0
C227 C 0.97495 0.31463 0.47089 0.0
O228 O 0.98833 0.28859 0.38985 0.0
Co229 Co 0.96794 0.31448 0.33892 0.0
O230 O 0.99473 0.31467 0.32596 0.0
C231 C 0.93888 0.26952 0.30898 0.0
C232 C 0.93922 0.2559 0.49432 0.0
C233 C -0.00048 0.30181 0.34985 0.0
O234 O 0.94367 0.26485 0.36007 0.0
O235 O 0.94583 0.28857 0.29301 0.0
O236 O 0.97767 0.30064 0.49851 0.0
O237 O 0.96273 0.30781 0.42289 0.0
Co238 Co 0.82937 0.72758 0.38238 0.0
O239 O 0.85265 0.74038 0.33021 0.0
O240 O 0.83567 0.70637 0.35082 0.0
C241 C 0.812 0.74268 0.34 0.0
O242 O 0.80409 0.70906 0.43391 0.0
Co243 Co 0.82317 0.75664 0.46903 0.0
O244 O 0.79729 0.73067 0.49077 0.0
C245 C 0.85416 0.744 0.50268 0.0
C246 C 0.85053 0.72184 0.32174 0.0
C247 C 0.79314 0.7123 0.47298 0.0
O248 O 0.84938 0.73344 0.45261 0.0
O249 O 0.84599 0.75527 0.51817 0.0
O250 O 0.81003 0.72514 0.31861 0.0
O251 O 0.82586 0.75178 0.38414 0.0
H252 H 0.0458 0.49616 0.96722 0.0
H253 H 0.10777 0.62152 0.01553 0.0
H254 H 0.07353 0.53965 0.82306 0.0
H255 H 0.08588 0.5778 0.16063 0.0
H256 H 0.09921 0.59199 0.9452 0.0
H257 H 0.06264 0.52602 0.03955 0.0
C258 C 0.05531 0.51197 0.95073 0.0
C259 C 0.05808 0.51538 0.88893 0.0
C260 C 0.09663 0.58892 0.99261 0.0
C261 C 0.07762 0.54961 0.97144 0.0
C262 C 0.10173 0.60582 0.03284 0.0
C263 C 0.09713 0.60203 0.09376 0.0
C264 C 0.08682 0.56819 0.01364 0.0
C265 C 0.08928 0.58136 0.11374 0.0
C266 C 0.0651 0.529 0.99207 0.0
C267 C 0.07085 0.53623 0.87026 0.0
N268 N 0.08402 0.56516 0.07365 0.0
N269 N 0.08004 0.55254 0.9113 0.0
H270 H 0.61616 0.5761 0.90936 0.0
H271 H 0.52203 0.54783 0.13651 0.0
H272 H 0.5763 0.60434 0.90557 0.0
H273 H 0.56016 0.51771 0.13588 0.0
H274 H 0.54318 0.5703 0.05542 0.0
H275 H 0.59652 0.55521 0.99471 0.0
C276 C 0.60322 0.57779 0.92618 0.0
C277 C 0.59786 0.59194 0.90036 0.0
C278 C 0.54698 0.55885 0.07336 0.0
C279 C 0.57552 0.56839 -0.00194 0.0
C280 C 0.535 0.54615 0.11987 0.0
C281 C 0.53927 0.53084 0.14262 0.0
C282 C 0.5633 0.55617 0.04973 0.0
C283 C 0.5562 0.52922 0.1193 0.0
C284 C 0.59208 0.56597 0.97504 0.0
C285 C 0.58101 0.59363 0.92412 0.0
N286 N 0.56752 0.54163 0.07398 0.0
N287 N 0.57049 0.58203 0.9716 0.0
H288 H 0.58447 0.06068 0.18177 0.0
H289 H 0.55739 0.06986 0.83789 0.0
H290 H 0.5907 0.02546 0.03318 0.0
H291 H 0.5325 0.08992 0.98346 0.0
H292 H 0.57497 0.05887 0.91102 0.0
H293 H 0.56881 0.07512 0.1118 0.0
C294 C 0.58233 0.05577 0.13471 0.0
C295 C 0.58897 0.04182 0.11342 0.0
C296 C 0.5658 0.06582 0.92708 0.0
C297 C 0.57158 0.05869 0.03328 0.0
C298 C 0.55589 0.07229 0.88531 0.0
C299 C 0.54322 0.08061 0.90451 0.0
C300 C 0.56311 0.06767 0.98871 0.0
C301 C 0.54209 0.08356 0.96664 0.0
C302 C 0.57351 0.06412 0.09484 0.0
C303 C 0.58583 0.0361 0.0519 0.0
N304 N 0.55173 0.07688 0.00668 0.0
N305 N 0.57755 0.04469 0.01408 0.0
H306 H 0.61452 0.08667 0.3962 0.0
H307 H 0.52569 0.02415 0.63827 0.0
H308 H 0.57828 0.0186 0.40428 0.0
H309 H 0.55746 0.09187 0.62036 0.0
H310 H 0.54701 0.02204 0.55751 0.0
H311 H 0.59541 0.08924 0.48258 0.0
C312 C 0.60253 0.07231 0.41597 0.0
C313 C 0.59794 0.05242 0.39287 0.0
C314 C 0.54937 0.03737 0.57151 0.0
C315 C 0.5762 0.05517 0.49168 0.0
C316 C 0.53727 0.03856 0.61777 0.0
C317 C 0.53971 0.05817 0.63574 0.0
C318 C 0.564 0.05593 0.54327 0.0
C319 C 0.55494 0.07638 0.60762 0.0
C320 C 0.59167 0.07375 0.46532 0.0
C321 C 0.58232 0.03429 0.4204 0.0
N322 N 0.56643 0.07481 0.56267 0.0
N323 N 0.57205 0.03611 0.46826 0.0
H324 H 0.10179 0.59548 0.3572 0.0
H325 H 0.02981 0.52212 0.6143 0.0
H326 H 0.03368 0.56704 0.3543 0.0
H327 H 0.09409 0.53569 0.59147 0.0
H328 H 0.03218 0.54166 0.5246 0.0
H329 H 0.10006 0.57547 0.44569 0.0
C330 C 0.08642 0.58477 0.37483 0.0
C331 C 0.06782 0.58291 0.34871 0.0
C332 C 0.0458 0.54044 0.53925 0.0
C333 C 0.06582 0.56036 0.45052 0.0
C334 C 0.04456 0.52946 0.59083 0.0
C335 C 0.06178 0.52719 0.61018 0.0
C336 C 0.06443 0.54936 0.50684 0.0
C337 C 0.08048 0.5371 0.57812 0.0
C338 C 0.08548 0.57342 0.4254 0.0
C339 C 0.04835 0.56882 0.37304 0.0
N340 N 0.08129 0.54772 0.52769 0.0
N341 N 0.04787 0.55822 0.42319 0.0
H342 H 0.58605 0.57279 0.68766 0.0
H343 H 0.55487 0.53727 0.34176 0.0
H344 H 0.59686 0.61563 0.54348 0.0
H345 H 0.53292 0.49265 0.4847 0.0
H346 H 0.57407 0.56589 0.41583 0.0
H347 H 0.56883 0.54302 0.61493 0.0
C348 C 0.58463 0.57596 0.6409 0.0
C349 C 0.59294 0.5968 0.62172 0.0
C350 C 0.56517 0.54985 0.43113 0.0
C351 C 0.57361 0.56283 0.53838 0.0
C352 C 0.55429 0.53345 0.38879 0.0
C353 C 0.54206 0.51254 0.40714 0.0
C354 C 0.56383 0.5454 0.49248 0.0
C355 C 0.54214 0.50854 0.46863 0.0
C356 C 0.57489 0.55895 0.59944 0.0
C357 C 0.59066 0.59989 0.56055 0.0
N358 N 0.5527 0.52489 0.50932 0.0
N359 N 0.58133 0.58311 0.52112 0.0
H360 H 0.75237 0.87033 0.22706 0.0
H361 H 0.71403 0.87428 0.54986 0.0
H362 H 0.7032 0.81599 0.31384 0.0
H363 H 0.76648 0.92745 0.4697 0.0
H364 H 0.71676 0.85059 0.4767 0.0
H365 H 0.76335 0.88934 0.32374 0.0
C366 C 0.74382 0.86237 0.26646 0.0
C367 C 0.72638 0.84172 0.26201 0.0
C368 C 0.7281 0.86736 0.47596 0.0
C369 C 0.73909 0.86343 0.37323 0.0
C370 C 0.72664 0.88085 0.51803 0.0
C371 C 0.73973 0.90277 0.51448 0.0
C372 C 0.74234 0.87603 0.42926 0.0
C373 C 0.75595 0.91059 0.4732 0.0
C374 C 0.7503 0.87318 0.32187 0.0
C375 C 0.71641 0.83204 0.31493 0.0
N376 N 0.7564 0.89724 0.43073 0.0
N377 N 0.7227 0.84312 0.36824 0.0
H378 H 0.21966 0.85062 0.47519 0.0
H379 H 0.23669 0.91982 0.18595 0.0
H380 H 0.17901 0.87555 0.42547 0.0
H381 H 0.2784 0.89644 0.23913 0.0
H382 H 0.21514 0.90329 0.27224 0.0
H383 H 0.24197 0.86831 0.39112 0.0
C384 C 0.21564 0.86015 0.44697 0.0
C385 C 0.19743 0.86159 0.45702 0.0
C386 C 0.22891 0.90163 0.26499 0.0
C387 C 0.22269 0.88153 0.35974 0.0
C388 C 0.24116 0.91092 0.21543 0.0
C389 C 0.25941 0.90952 0.20544 0.0
C390 C 0.23492 0.89084 0.30516 0.0
C391 C 0.26439 0.89779 0.24497 0.0
C392 C 0.22832 0.87013 0.39872 0.0
C393 C 0.19298 0.87417 0.41939 0.0
N394 N 0.25227 0.889 0.29345 0.0
N395 N 0.20543 0.8835 0.37184 0.0
H396 H 0.26038 0.43064 0.50422 0.0
H397 H 0.19898 0.38176 0.19265 0.0
H398 H 0.24153 0.36723 0.44126 0.0
H399 H 0.19806 0.43423 0.28268 0.0
H400 H 0.21648 0.37761 0.28134 0.0
H401 H 0.23838 0.43302 0.42357 0.0
C402 C 0.25129 0.41707 0.47399 0.0
C403 C 0.25283 0.39874 0.47908 0.0
C404 C 0.21242 0.39001 0.28178 0.0
C405 C 0.22812 0.40157 0.38606 0.0
C406 C 0.20261 0.39257 0.23084 0.0
C407 C 0.19708 0.40847 0.22993 0.0
C408 C 0.21704 0.40357 0.3322 0.0
C409 C 0.20208 0.42182 0.28122 0.0
C410 C 0.2388 0.41847 0.42794 0.0
C411 C 0.24074 0.38163 0.43893 0.0
N412 N 0.21189 0.41913 0.33024 0.0
N413 N 0.22914 0.38358 0.39342 0.0
H414 H 0.1854 0.35456 0.92903 0.0
H415 H 0.30388 0.42459 0.81628 0.0
H416 H 0.23172 0.4144 0.01155 0.0
H417 H 0.25176 0.37839 0.70288 0.0
H418 H 0.2797 0.4158 0.89942 0.0
H419 H 0.21213 0.35746 0.85795 0.0
C420 C 0.20137 0.36794 0.93327 0.0
C421 C 0.20647 0.38433 0.97566 0.0
C422 C 0.27362 0.40756 0.85632 0.0
C423 C 0.23679 0.38787 0.89501 0.0
C424 C 0.28738 0.41262 0.8088 0.0
C425 C 0.27979 0.40248 0.75219 0.0
C426 C 0.25217 0.39208 0.84742 0.0
C427 C 0.25826 0.3869 0.74541 0.0
C428 C 0.21651 0.36972 0.89246 0.0
C429 C 0.22723 0.40152 0.97905 0.0
N430 N 0.2452 0.38221 0.79242 0.0
N431 N 0.24161 0.40292 0.93898 0.0
H432 H 0.70746 0.88311 0.04547 0.0
H433 H 0.74305 0.92696 0.72147 0.0
H434 H 0.76435 0.89118 0.96563 0.0
H435 H 0.68798 0.92273 0.80428 0.0
H436 H 0.75414 0.91951 0.81702 0.0
H437 H 0.70422 0.90457 0.96765 0.0
C438 C 0.71969 0.89004 0.01261 0.0
C439 C 0.73599 0.88511 0.01111 0.0
C440 C 0.7397 0.92033 0.81461 0.0
C441 C 0.73199 0.909 0.92092 0.0
C442 C 0.73318 0.92438 0.75972 0.0
C443 C 0.71424 0.92505 0.75434 0.0
C444 C 0.72714 0.91663 0.86478 0.0
C445 C 0.7025 0.92205 0.80605 0.0
C446 C 0.71773 0.90214 0.96788 0.0
C447 C 0.75148 0.89454 0.96807 0.0
N448 N 0.70901 0.91771 0.85901 0.0
N449 N 0.74881 0.90563 0.92362 0.0
H450 H 0.27013 0.94371 0.85919 0.0
H451 H 0.19216 0.82022 0.78869 0.0
H452 H 0.25637 0.8956 0.98934 0.0
H453 H 0.20862 0.86888 0.65865 0.0
H454 H 0.21674 0.84723 0.86199 0.0
H455 H 0.24801 0.91613 0.78469 0.0
C456 C 0.2624 0.92737 0.87225 0.0
C457 C 0.26511 0.92201 0.93073 0.0
C458 C 0.21504 0.85192 0.81724 0.0
C459 C 0.23983 0.89028 0.84535 0.0
C460 C 0.2011 0.8365 0.77531 0.0
C461 C 0.19816 0.84231 0.71763 0.0
C462 C 0.22606 0.87323 0.80125 0.0
C463 C 0.21016 0.86367 0.70279 0.0
C464 C 0.24983 0.91159 0.82955 0.0
C465 C 0.25474 0.9005 0.94484 0.0
N466 N 0.22346 0.87834 0.74443 0.0
N467 N 0.24254 0.88542 0.90244 0.0
H468 H 0.4201 0.27965 0.70764 0.0
H469 H 0.36023 0.15436 0.6421 0.0
H470 H 0.38562 0.23368 0.84142 0.0
H471 H 0.3931 0.20121 0.50897 0.0
H472 H 0.37006 0.18302 0.71718 0.0
H473 H 0.41211 0.25075 0.63593 0.0
C474 C 0.41111 0.26351 0.72222 0.0
C475 C 0.40339 0.25911 0.78049 0.0
C476 C 0.37507 0.18695 0.67143 0.0
C477 C 0.3939 0.22594 0.69842 0.0
C478 C 0.36934 0.17061 0.62854 0.0
C479 C 0.37588 0.17535 0.56921 0.0
C480 C 0.38739 0.2081 0.65468 0.0
C481 C 0.38778 0.19673 0.55422 0.0
C482 C 0.40641 0.24699 0.68112 0.0
C483 C 0.39174 0.23785 0.79677 0.0
N484 N 0.39317 0.21225 0.59664 0.0
N485 N 0.38723 0.22205 0.75582 0.0
H486 H 0.88878 0.17243 0.79255 0.0
H487 H 0.90187 0.25088 0.53134 0.0
H488 H 0.85126 0.20293 0.77571 0.0
H489 H 0.94624 0.22893 0.56391 0.0
H490 H 0.88215 0.23176 0.6175 0.0
H491 H 0.90975 0.19243 0.70869 0.0
C492 C 0.88512 0.18357 0.77155 0.0
C493 C 0.86819 0.18599 0.79078 0.0
C494 C 0.89614 0.23103 0.60588 0.0
C495 C 0.89195 0.20866 0.6941 0.0
C496 C 0.90737 0.24183 0.55636 0.0
C497 C 0.9258 0.24155 0.5406 0.0
C498 C 0.9033 0.21976 0.64009 0.0
C499 C 0.93207 0.22947 0.57443 0.0
C500 C 0.89708 0.19492 0.72357 0.0
C501 C 0.86422 0.20067 0.76234 0.0
N502 N 0.92086 0.21909 0.62293 0.0
N503 N 0.8759 0.21133 0.71487 0.0
H504 H 0.90811 0.71925 0.82191 0.0
H505 H 0.8807 0.72884 0.47829 0.0
H506 H 0.91875 0.68772 0.67184 0.0
H507 H 0.85823 0.75072 0.62577 0.0
H508 H 0.89796 0.71708 0.55006 0.0
H509 H 0.8916 0.73285 0.75235 0.0
C510 C 0.90679 0.71498 0.77449 0.0
C511 C 0.91491 0.70232 0.75276 0.0
C512 C 0.88937 0.72455 0.56689 0.0
C513 C 0.89638 0.71819 0.67296 0.0
C514 C 0.87961 0.73143 0.52587 0.0
C515 C 0.86786 0.74068 0.54599 0.0
C516 C 0.88742 0.72686 0.62877 0.0
C517 C 0.86718 0.74374 0.60825 0.0
C518 C 0.89744 0.72284 0.73484 0.0
C519 C 0.91272 0.69735 0.69085 0.0
N520 N 0.87669 0.73668 0.64755 0.0
N521 N 0.90382 0.70542 0.6532 0.0
H522 H 0.8454 0.6848 0.27098 0.0
H523 H 0.93851 0.74639 0.04013 0.0
H524 H 0.88577 0.75266 0.27169 0.0
H525 H 0.89857 0.67844 0.03762 0.0
H526 H 0.91966 0.74886 0.12685 0.0
H527 H 0.86571 0.68175 0.1885 0.0
C528 C 0.85867 0.69898 0.25433 0.0
C529 C 0.86382 0.71898 0.27777 0.0
C530 C 0.915 0.7334 0.10724 0.0
C531 C 0.88685 0.71572 0.18349 0.0
C532 C 0.92569 0.73203 0.05755 0.0
C533 C 0.92007 0.71222 0.03162 0.0
C534 C 0.89859 0.71483 0.13102 0.0
C535 C 0.90342 0.69407 0.05621 0.0
C536 C 0.87016 0.69728 0.20708 0.0
C537 C 0.88111 0.73691 0.25452 0.0
N538 N 0.89328 0.69581 0.10455 0.0
N539 N 0.89191 0.73486 0.20852 0.0
H540 H 0.36192 0.19294 0.3268 0.0
H541 H 0.41686 0.25149 0.02783 0.0
H542 H 0.42188 0.20141 0.27029 0.0
H543 H 0.35393 0.23671 0.07547 0.0
H544 H 0.41948 0.234 0.11723 0.0
H545 H 0.36033 0.21184 0.23942 0.0
C546 C 0.375 0.19923 0.29649 0.0
C547 C 0.39202 0.19559 0.30535 0.0
C548 C 0.40501 0.23438 0.10801 0.0
C549 C 0.39 0.21664 0.20445 0.0
C550 C 0.40342 0.24419 0.05678 0.0
C551 C 0.38514 0.24551 0.04457 0.0
C552 C 0.38826 0.22599 0.14769 0.0
C553 C 0.3682 0.23584 0.08319 0.0
C554 C 0.37395 0.20979 0.2463 0.0
C555 C 0.40856 0.20404 0.26511 0.0
N556 N 0.37026 0.22664 0.13359 0.0
N557 N 0.40702 0.214 0.21576 0.0
H558 H 0.93174 0.27199 0.18873 0.0
H559 H 0.86282 0.14694 0.12979 0.0
H560 H 0.91796 0.22699 0.32862 0.0
H561 H 0.88459 0.19254 0.98933 0.0
H562 H 0.8839 0.17564 0.20347 0.0
H563 H 0.91404 0.24269 0.11533 0.0
C564 C 0.92481 0.25596 0.20416 0.0
C565 C 0.92633 0.25197 0.26499 0.0
C566 C 0.88424 0.17928 0.15638 0.0
C567 C 0.90627 0.21832 0.18096 0.0
C568 C 0.87236 0.16288 0.11427 0.0
C569 C 0.87173 0.16738 0.05344 0.0
C570 C 0.89544 0.20024 0.13737 0.0
C571 C 0.88435 0.18836 0.03589 0.0
C572 C 0.91487 0.23922 0.16211 0.0
C573 C 0.91719 0.23083 0.28218 0.0
N574 N 0.89547 0.20402 0.07772 0.0
N575 N 0.90754 0.21479 0.24036 0.0
H576 H 0.06994 0.65978 0.39001 0.0
H577 H 0.12585 0.78384 0.39405 0.0
H578 H 0.10888 0.69475 0.24345 0.0
H579 H 0.12495 0.75074 0.55398 0.0
H580 H 0.11172 0.75073 0.33499 0.0
H581 H 0.08233 0.69286 0.44732 0.0
C582 C 0.08098 0.67446 0.36963 0.0
C583 C 0.0885 0.67463 0.31194 0.0
C584 C 0.11456 0.75078 0.38302 0.0
C585 C 0.10241 0.71233 0.37716 0.0
C586 C 0.12241 0.76953 0.41688 0.0
C587 C 0.12657 0.76991 0.47895 0.0
C588 C 0.11038 0.73228 0.41178 0.0
C589 C 0.12199 0.75103 0.50619 0.0
C590 C 0.08809 0.69324 0.40258 0.0
C591 C 0.10285 0.69405 0.28791 0.0
N592 N 0.11397 0.73283 0.47234 0.0
N593 N 0.10929 0.71229 0.32064 0.0
H594 H 0.43055 0.46617 0.27302 0.0
H595 H 0.36761 0.44539 0.57886 0.0
H596 H 0.45899 0.47163 0.44911 0.0
H597 H 0.33744 0.41889 0.40525 0.0
H598 H 0.40205 0.46345 0.53085 0.0
H599 H 0.39709 0.45783 0.32027 0.0
C600 C 0.42989 0.46628 0.32163 0.0
C601 C 0.44737 0.46955 0.35746 0.0
C602 C 0.38783 0.4538 0.50333 0.0
C603 C 0.40946 0.45984 0.41146 0.0
C604 C 0.36823 0.4435 0.53068 0.0
C605 C 0.34974 0.43043 0.49607 0.0
C606 C 0.38884 0.45121 0.44092 0.0
C607 C 0.35138 0.4286 0.43373 0.0
C608 C 0.41082 0.46132 0.34852 0.0
C609 C 0.44574 0.46916 0.42017 0.0
N610 N 0.37059 0.43882 0.40815 0.0
N611 N 0.42707 0.46424 0.44524 0.0
H612 H 0.65931 0.93602 0.49744 0.0
H613 H 0.68285 0.03805 0.32963 0.0
H614 H 0.71938 0.97412 0.4148 0.0
H615 H 0.62182 0.98195 0.29952 0.0
H616 H 0.69644 0.01639 0.37351 0.0
H617 H 0.64441 0.95404 0.43778 0.0
C618 C 0.66928 0.94806 0.46666 0.0
C619 C 0.69057 0.95364 0.46101 0.0
C620 C 0.68015 0.00879 0.35654 0.0
C621 C 0.6739 0.97429 0.39415 0.0
C622 C 0.67245 0.02109 0.33151 0.0
C623 C 0.65133 0.01164 0.31063 0.0
C624 C 0.6664 0.98703 0.36254 0.0
C625 C 0.63831 0.98967 0.31453 0.0
C626 C 0.66078 0.95818 0.43254 0.0
C627 C 0.70286 0.96929 0.42045 0.0
N628 N 0.64596 0.97806 0.34117 0.0
N629 N 0.69444 0.97929 0.38924 0.0
H630 H 0.69695 0.09395 0.23481 0.0
H631 H 0.7605 0.12959 0.93101 0.0
H632 H 0.66981 0.07124 0.05633 0.0
H633 H 0.78927 0.13371 0.10565 0.0
H634 H 0.72706 0.12042 0.97928 0.0
H635 H 0.73031 0.12003 0.1901 0.0
C636 C 0.69787 0.09486 0.18632 0.0
C637 C 0.68088 0.08025 0.14907 0.0
C638 C 0.7409 0.124 0.00715 0.0
C639 C 0.71859 0.10989 0.09791 0.0
C640 C 0.75999 0.12944 0.97965 0.0
C641 C 0.77746 0.13222 0.01458 0.0
C642 C 0.73948 0.12141 0.06978 0.0
C643 C 0.77599 0.13153 0.07736 0.0
C644 C 0.71685 0.10965 0.16085 0.0
C645 C 0.68277 0.08201 0.08651 0.0
N646 N 0.75722 0.12588 0.10298 0.0
N647 N 0.70135 0.09638 0.06289 0.0
H648 H 0.98146 0.66381 0.87767 0.0
H649 H 0.01676 0.62928 0.17918 0.0
H650 H 0.96949 0.67747 0.05724 0.0
H651 H 0.052 0.64403 0.01667 0.0
H652 H 0.98976 0.63445 0.1263 0.0
H653 H -0.00164 0.64469 0.92102 0.0
C654 C 0.98206 0.66242 0.92599 0.0
C655 C 0.9745 0.67244 0.96416 0.0
C656 C 0.00318 0.63604 0.10196 0.0
C657 C 0.9931 0.65045 0.0135 0.0
C658 C 0.01845 0.63296 0.13195 0.0
C659 C 0.03667 0.63655 0.10232 0.0
C660 C 0.00613 0.64244 0.04196 0.0
C661 C 0.03825 0.64143 0.04119 0.0
C662 C 0.99165 0.65158 0.95062 0.0
C663 C 0.97553 0.67024 0.02644 0.0
N664 N 0.02328 0.64445 0.0131 0.0
N665 N 0.98474 0.65954 0.04922 0.0
H666 H 0.43401 0.35578 0.93067 0.0
H667 H 0.47105 0.4175 0.24703 0.0
H668 H 0.40149 0.32761 0.09299 0.0
H669 H 0.47246 0.44884 0.08297 0.0
H670 H 0.45158 0.38321 0.19139 0.0
H671 H 0.45461 0.38973 0.98677 0.0
C672 C 0.43121 0.3568 0.97792 0.0
C673 C 0.41599 0.33907 0.00725 0.0
C674 C 0.45626 0.39769 0.16793 0.0
C675 C 0.43964 0.37723 0.0714 0.0
C676 C 0.46735 0.41712 0.19944 0.0
C677 C 0.47314 0.43584 0.16945 0.0
C678 C 0.45156 0.39727 0.10613 0.0
C679 C 0.46805 0.43468 0.10779 0.0
C680 C 0.44291 0.37604 0.00978 0.0
C681 C 0.41294 0.34104 0.06861 0.0
N682 N 0.45765 0.4157 0.07799 0.0
N683 N 0.42482 0.35979 0.09891 0.0
H684 H 0.99138 0.32734 0.58464 0.0
H685 H 0.01228 0.44324 0.56217 0.0
H686 H 0.97079 0.34753 0.42846 0.0
H687 H 0.00967 0.41489 0.73244 0.0
H688 H -0.00426 0.40832 0.51244 0.0
H689 H -0.00161 0.35953 0.63894 0.0
C690 C 0.98844 0.33862 0.56158 0.0
C691 C 0.98064 0.33486 0.50172 0.0
C692 C -0.00167 0.40961 0.56083 0.0
C693 C 0.98847 0.37166 0.56406 0.0
C694 C 0.00769 0.42949 0.5892 0.0
C695 C 0.0124 0.43177 0.6512 0.0
C696 C 0.99423 0.39203 0.59463 0.0
C697 C 0.00625 0.41366 0.68449 0.0
C698 C 0.9922 0.35687 0.59296 0.0
C699 C 0.97694 0.34993 0.47441 0.0
N700 N -0.00215 0.39447 0.65548 0.0
N701 N 0.98107 0.36782 0.50571 0.0
H702 H 0.66952 0.62579 0.60943 0.0
H703 H 0.75502 0.68032 0.42669 0.0
H704 H 0.70906 0.67654 0.73557 0.0
H705 H 0.79268 0.70521 0.59098 0.0
H706 H 0.72414 0.65769 0.48602 0.0
H707 H 0.70094 0.63368 0.55201 0.0
C708 C 0.68499 0.63814 0.62596 0.0
C709 C 0.68692 0.65049 0.67724 0.0
C710 C 0.73932 0.66739 0.50915 0.0
C711 C 0.72258 0.66022 0.61096 0.0
C712 C 0.75692 0.68031 0.47512 0.0
C713 C 0.77625 0.69453 0.5043 0.0
C714 C 0.74127 0.66898 0.57251 0.0
C715 C 0.77793 0.69441 0.56711 0.0
C716 C 0.70283 0.64289 0.59269 0.0
C717 C 0.70708 0.66659 0.69648 0.0
N718 N 0.76058 0.68214 0.59917 0.0
N719 N 0.72413 0.67109 0.66305 0.0
H720 H 0.43529 0.15075 0.53111 0.0
H721 H 0.44985 0.05312 0.62206 0.0
H722 H 0.3998 0.08764 0.45284 0.0
H723 H 0.48833 0.11536 0.70429 0.0
H724 H 0.43262 0.06677 0.55736 0.0
H725 H 0.45739 0.13994 0.58889 0.0
C726 C 0.43266 0.13486 0.52463 0.0
C727 C 0.41578 0.12001 0.48735 0.0
C728 C 0.44478 0.07756 0.58949 0.0
C729 C 0.44033 0.10745 0.55398 0.0
C730 C 0.45457 0.06971 0.62685 0.0
C731 C 0.47056 0.08313 0.6686 0.0
C732 C 0.45092 0.09909 0.59363 0.0
C733 C 0.47595 0.10447 0.67286 0.0
C734 C 0.44502 0.12862 0.55817 0.0
C735 C 0.41266 0.09952 0.48125 0.0
N736 N 0.46616 0.11186 0.63558 0.0
N737 N 0.42466 0.09382 0.5146 0.0
H738 H 0.34706 0.95085 0.9297 0.0
H739 H 0.46637 0.04136 0.95889 0.0
H740 H 0.37838 0.98492 0.09467 0.0
H741 H 0.43647 0.00745 0.79228 0.0
H742 H 0.43712 0.01422 0.01381 0.0
H743 H 0.38162 0.96387 0.88472 0.0
C744 C 0.36132 0.96024 0.95735 0.0
C745 C 0.36 0.96673 0.01602 0.0
C746 C 0.43702 0.01239 0.96537 0.0
C747 C 0.39948 0.98251 0.96423 0.0
C748 C 0.45373 0.02791 0.93401 0.0
C749 C 0.45359 0.02673 0.87103 0.0
C750 C 0.41968 -0.00421 0.93345 0.0
C751 C 0.43704 0.00893 0.84088 0.0
C752 C 0.38104 0.96791 0.93144 0.0
C753 C 0.37882 0.97938 0.04953 0.0
N754 N 0.42045 0.99435 0.87232 0.0
N755 N 0.39779 0.98721 0.02278 0.0
H756 H 0.10346 0.4805 0.82631 0.0
H757 H 0.11928 0.38268 0.9064 0.0
H758 H 0.06004 0.41581 0.77006 0.0
H759 H 0.15071 0.44201 0.00783 0.0
H760 H 0.10202 0.3967 0.84216 0.0
H761 H 0.1261 0.46886 0.877 0.0
C762 C 0.0991 0.46398 0.82298 0.0
C763 C 0.07996 0.44904 0.79401 0.0
C764 C 0.11269 0.40669 0.87843 0.0
C765 C 0.10534 0.43566 0.85233 0.0
C766 C 0.12251 0.39868 0.9153 0.0
C767 C 0.13632 0.41115 0.96285 0.0
C768 C 0.11674 0.42742 0.88877 0.0
C769 C 0.13999 0.43181 0.97199 0.0
C770 C 0.11181 0.45732 0.85257 0.0
C771 C 0.07471 0.42778 0.79196 0.0
N772 N 0.13025 0.43934 0.93518 0.0
N773 N 0.08727 0.42171 0.82102 0.0
H774 H 0.68501 0.68932 0.85766 0.0
H775 H 0.66564 0.77421 0.00873 0.0
H776 H 0.62702 0.6889 0.81079 0.0
H777 H 0.72527 0.79365 0.92512 0.0
H778 H 0.65027 0.74009 0.95241 0.0
H779 H 0.69999 0.7256 0.89875 0.0
C780 C 0.67557 0.69702 0.85557 0.0
C781 C 0.65489 0.68638 0.8308 0.0
C782 C 0.66665 0.75201 0.94621 0.0
C783 C 0.6715 0.72714 0.87897 0.0
C784 C 0.6754 0.77129 0.97837 0.0
C785 C 0.69665 0.78661 0.97115 0.0
C786 C 0.67952 0.74799 0.9085 0.0
C787 C 0.70875 0.78222 0.93144 0.0
C788 C 0.68408 0.71759 0.8788 0.0
C789 C 0.64314 0.69682 0.82915 0.0
N790 N 0.7001 0.76312 0.90222 0.0
N791 N 0.65149 0.71662 0.8541 0.0
H792 H 0.76707 -0.00349 0.65521 0.0
H793 H 0.7742 0.10328 0.77923 0.0
H794 H 0.72165 0.01613 0.60992 0.0
H795 H 0.81464 0.08023 0.84705 0.0
H796 H 0.7566 0.07261 0.71079 0.0
H797 H 0.78771 0.02929 0.7154 0.0
C798 C 0.76174 0.00796 0.65658 0.0
C799 C 0.74251 0.00354 0.62813 0.0
C800 C 0.76922 0.07411 0.74078 0.0
C801 C 0.76569 0.04065 0.69774 0.0
C802 C 0.77918 0.09155 0.78016 0.0
C803 C 0.79585 0.0942 0.81876 0.0
C804 C 0.77602 0.05921 0.7397 0.0
C805 C 0.80171 0.07861 0.81823 0.0
C806 C 0.77337 0.0265 0.69163 0.0
C807 C 0.73627 0.01883 0.63174 0.0
N808 N 0.79186 0.06175 0.77884 0.0
N809 N 0.74772 0.03661 0.66649 0.0
H810 H 0.08419 0.79928 0.58211 0.0
H811 H 0.02034 0.759 0.88366 0.0
H812 H 0.11374 0.81139 0.75916 0.0
H813 H -0.00397 0.7337 0.70459 0.0
H814 H 0.05226 0.7879 0.83984 0.0
H815 H 0.04968 0.78617 0.62802 0.0
C816 C 0.08351 0.80015 0.63062 0.0
C817 C 0.10168 0.80633 0.66706 0.0
C818 C 0.0397 0.77623 0.81025 0.0
C819 C 0.06243 0.79069 0.7198 0.0
C820 C 0.02155 0.75979 0.83522 0.0
C821 C 0.00586 0.74375 0.79764 0.0
C822 C 0.04186 0.77667 0.74743 0.0
C823 C 0.00805 0.74552 0.73515 0.0
C824 C 0.06381 0.79238 0.65689 0.0
C825 C 0.09997 0.80672 0.72973 0.0
N826 N 0.02578 0.76152 0.71207 0.0
N827 N 0.08062 0.79858 0.75424 0.0
H828 H 0.29085 0.3476 0.68704 0.0
H829 H 0.34052 0.31204 0.88463 0.0
H830 H 0.34793 0.36367 0.59362 0.0
H831 H 0.36194 0.29472 0.7259 0.0
H832 H 0.31957 0.32238 0.82012 0.0
H833 H 0.29465 0.3204 0.74082 0.0
C834 C 0.30369 0.34478 0.67615 0.0
C835 C 0.31913 0.35776 0.63596 0.0
C836 C 0.32805 0.31537 0.7995 0.0
C837 C 0.32367 0.32718 0.69732 0.0
C838 C 0.33992 0.30942 0.83637 0.0
C839 C 0.35285 0.30255 0.81022 0.0
C840 C 0.32961 0.31473 0.73657 0.0
C841 C 0.3521 0.29998 0.74746 0.0
C842 C 0.30598 0.32952 0.70738 0.0
C843 C 0.33571 0.3539 0.6242 0.0
N844 N 0.34118 0.30663 0.71268 0.0
N845 N 0.3376 0.339 0.65498 0.0
H846 H 0.0378 0.31511 0.40748 0.0
H847 H 0.0929 0.33617 0.09029 0.0
H848 H 0.00389 0.29039 0.23766 0.0
H849 H 0.12284 0.37088 0.25593 0.0
H850 H 0.06257 0.31056 0.14756 0.0
H851 H 0.07124 0.32617 0.35691 0.0
C852 C 0.03739 0.31126 0.36003 0.0
C853 C 0.01825 0.30191 0.32644 0.0
C854 C 0.07602 0.32353 0.17144 0.0
C855 C 0.05616 0.315 0.26804 0.0
C856 C 0.09328 0.33804 0.13879 0.0
C857 C 0.11007 0.35572 0.16858 0.0
C858 C 0.07581 0.3268 0.23401 0.0
C859 C 0.10993 0.35757 0.2314 0.0
C860 C 0.05643 0.31775 0.33098 0.0
C861 C 0.01846 0.2976 0.26485 0.0
N862 N 0.09299 0.34345 0.26194 0.0
N863 N 0.03715 0.30449 0.23734 0.0
H864 H 0.82146 0.78439 0.3489 0.0
H865 H 0.74449 0.76778 0.06563 0.0
H866 H 0.78274 0.72562 0.24877 0.0
H867 H 0.7752 0.82576 0.17289 0.0
H868 H 0.76478 0.75505 0.12169 0.0
H869 H 0.80889 0.802 0.27916 0.0
C870 C 0.81021 0.77519 0.31275 0.0
C871 C 0.80311 0.75353 0.30462 0.0
C872 C 0.76745 0.77075 0.13244 0.0
C873 C 0.78924 0.77352 0.2243 0.0
C874 C 0.75608 0.7781 0.09975 0.0
C875 C 0.75816 0.79775 0.11492 0.0
C876 C 0.78069 0.78296 0.18147 0.0
C877 C 0.77328 0.81053 0.15973 0.0
C878 C 0.80324 0.78526 0.27267 0.0
C879 C 0.7887 0.74236 0.25677 0.0
N880 N 0.78369 0.80272 0.19252 0.0
N881 N 0.78233 0.75247 0.21852 0.0
H882 H 0.32032 0.01679 0.0888 0.0
H883 H 0.34277 0.08089 0.40179 0.0
H884 H 0.32559 0.99183 0.25884 0.0
H885 H 0.36527 0.11134 0.23313 0.0
H886 H 0.32881 0.04631 0.34899 0.0
H887 H 0.33028 0.05058 0.14079 0.0
C888 C 0.32367 0.01848 0.1369 0.0
C889 C 0.32231 0.00165 0.16959 0.0
C890 C 0.33667 0.06064 0.32373 0.0
C891 C 0.33306 0.03972 0.2291 0.0
C892 C 0.34445 0.08023 0.35367 0.0
C893 C 0.35527 0.09879 0.32164 0.0
C894 C 0.33948 0.05985 0.26157 0.0
C895 C 0.35719 0.09729 0.2594 0.0
C896 C 0.32924 0.03765 0.16648 0.0
C897 C 0.32666 0.00452 0.2319 0.0
N898 N 0.34938 0.07812 0.2313 0.0
N899 N 0.33173 0.02319 0.25978 0.0
loop_
_geom_bond_atom_site_label_1
_geom_bond_atom_site_label_2
_geom_bond_distance
_geom_bond_site_symmetry_2
_ccdc_geom_bond_type
Co0 O1 2.216 . S
Co0 O2 2.091 . S
Co0 O4 2.004 . S
Co0 O10 2.021 . S
Co0 O12 2.137 . S
Co0 O13 2.244 . S
O1 Co0 2.216 . S
O1 C8 1.247 . S
O2 Co0 2.091 . S
O2 C8 1.261 . S
C3 O12 1.247 . S
C3 O13 1.272 . S
O4 Co0 2.004 . S
O4 C9 1.259 . S
Co5 O6 2.061 . S
Co5 O11 2.052 . S
Co5 O13 2.135 . S
O6 Co5 2.061 . S
O6 C9 1.235 . S
C7 O10 1.238 . S
C7 O11 1.241 . S
C8 O1 1.247 . S
C8 O2 1.261 . S
C9 O4 1.259 . S
C9 O6 1.235 . S
O10 Co0 2.021 . S
O10 C7 1.238 . S
O11 Co5 2.052 . S
O11 C7 1.241 . S
O12 Co0 2.137 . S
O12 C3 1.247 . S
O13 Co0 2.244 . S
O13 C3 1.272 . S
O13 Co5 2.135 . S
Co14 O15 2.216 . S
Co14 O16 2.091 . S
Co14 O18 2.004 . S
Co14 O24 2.021 . S
Co14 O26 2.137 . S
Co14 O27 2.244 . S
O15 Co14 2.216 . S
O15 C22 1.247 . S
O16 Co14 2.091 . S
O16 C22 1.261 . S
C17 O26 1.247 . S
C17 O27 1.272 . S
O18 Co14 2.004 . S
O18 C23 1.259 . S
Co19 O20 2.061 . S
Co19 O25 2.052 . S
Co19 O27 2.135 . S
O20 Co19 2.061 . S
O20 C23 1.235 . S
C21 O24 1.238 . S
C21 O25 1.241 . S
C22 O15 1.247 . S
C22 O16 1.261 . S
C23 O18 1.259 . S
C23 O20 1.235 . S
O24 Co14 2.021 . S
O24 C21 1.238 . S
O25 Co19 2.052 . S
O25 C21 1.241 . S
O26 Co14 2.137 . S
O26 C17 1.247 . S
O27 Co14 2.244 . S
O27 C17 1.272 . S
O27 Co19 2.135 . S
Co28 O29 2.216 . S
Co28 O30 2.091 . S
Co28 O32 2.004 . S
Co28 O38 2.021 . S
Co28 O40 2.137 . S
Co28 O41 2.244 . S
O29 Co28 2.216 . S
O29 C36 1.247 . S
O30 Co28 2.091 . S
O30 C36 1.261 . S
C31 O40 1.247 . S
C31 O41 1.272 . S
O32 Co28 2.004 . S
O32 C37 1.259 . S
Co33 O34 2.061 . S
Co33 O39 2.052 . S
Co33 O41 2.135 . S
O34 Co33 2.061 . S
O34 C37 1.235 . S
C35 O38 1.238 . S
C35 O39 1.241 . S
C36 O29 1.247 . S
C36 O30 1.261 . S
C37 O32 1.259 . S
C37 O34 1.235 . S
O38 Co28 2.021 . S
O38 C35 1.238 . S
O39 Co33 2.052 . S
O39 C35 1.241 . S
O40 Co28 2.137 . S
O40 C31 1.247 . S
O41 Co28 2.244 . S
O41 C31 1.272 . S
O41 Co33 2.135 . S
Co42 O43 2.216 . S
Co42 O44 2.091 . S
Co42 O46 2.004 . S
Co42 O52 2.021 . S
Co42 O54 2.137 . S
Co42 O55 2.244 . S
O43 Co42 2.216 . S
O43 C50 1.247 . S
O44 Co42 2.091 . S
O44 C50 1.261 . S
C45 O54 1.247 . S
C45 O55 1.272 . S
O46 Co42 2.004 . S
O46 C51 1.259 . S
Co47 O48 2.061 . S
Co47 O53 2.052 . S
Co47 O55 2.135 . S
O48 Co47 2.061 . S
O48 C51 1.235 . S
C49 O52 1.238 . S
C49 O53 1.241 . S
C50 O43 1.247 . S
C50 O44 1.261 . S
C51 O46 1.259 . S
C51 O48 1.235 . S
O52 Co42 2.021 . S
O52 C49 1.238 . S
O53 Co47 2.052 . S
O53 C49 1.241 . S
O54 Co42 2.137 . S
O54 C45 1.247 . S
O55 Co42 2.244 . S
O55 C45 1.272 . S
O55 Co47 2.135 . S
Co56 O57 2.216 . S
Co56 O58 2.091 . S
Co56 O60 2.004 . S
Co56 O66 2.021 . S
Co56 O68 2.137 . S
Co56 O69 2.244 . S
O57 Co56 2.216 . S
O57 C64 1.247 . S
O58 Co56 2.091 . S
O58 C64 1.261 . S
C59 O68 1.247 . S
C59 O69 1.272 . S
O60 Co56 2.004 . S
O60 C65 1.259 . S
Co61 O62 2.061 . S
Co61 O67 2.052 . S
Co61 O69 2.135 . S
O62 Co61 2.061 . S
O62 C65 1.235 . S
C63 O66 1.238 . S
C63 O67 1.241 . S
C64 O57 1.247 . S
C64 O58 1.261 . S
C65 O60 1.259 . S
C65 O62 1.235 . S
O66 Co56 2.021 . S
O66 C63 1.238 . S
O67 Co61 2.052 . S
O67 C63 1.241 . S
O68 Co56 2.137 . S
O68 C59 1.247 . S
O69 Co56 2.244 . S
O69 C59 1.272 . S
O69 Co61 2.135 . S
Co70 O71 2.216 . S
Co70 O72 2.091 . S
Co70 O74 2.004 . S
Co70 O80 2.021 . S
Co70 O82 2.137 . S
Co70 O83 2.244 . S
O71 Co70 2.216 . S
O71 C78 1.247 . S
O72 Co70 2.091 . S
O72 C78 1.261 . S
C73 O82 1.247 . S
C73 O83 1.272 . S
O74 Co70 2.004 . S
O74 C79 1.259 . S
Co75 O76 2.061 . S
Co75 O81 2.052 . S
Co75 O83 2.135 . S
O76 Co75 2.061 . S
O76 C79 1.235 . S
C77 O80 1.238 . S
C77 O81 1.241 . S
C78 O71 1.247 . S
C78 O72 1.261 . S
C79 O74 1.259 . S
C79 O76 1.235 . S
O80 Co70 2.021 . S
O80 C77 1.238 . S
O81 Co75 2.052 . S
O81 C77 1.241 . S
O82 Co70 2.137 . S
O82 C73 1.247 . S
O83 Co70 2.244 . S
O83 C73 1.272 . S
O83 Co75 2.135 . S
Co84 O85 2.216 . S
Co84 O86 2.091 . S
Co84 O88 2.004 . S
Co84 O94 2.021 . S
Co84 O96 2.137 . S
Co84 O97 2.244 . S
O85 Co84 2.216 . S
O85 C92 1.247 . S
O86 Co84 2.091 . S
O86 C92 1.261 . S
C87 O96 1.247 . S
C87 O97 1.272 . S
O88 Co84 2.004 . S
O88 C93 1.259 . S
Co89 O90 2.061 . S
Co89 O95 2.052 . S
Co89 O97 2.135 . S
O90 Co89 2.061 . S
O90 C93 1.235 . S
C91 O94 1.238 . S
C91 O95 1.241 . S
C92 O85 1.247 . S
C92 O86 1.261 . S
C93 O88 1.259 . S
C93 O90 1.235 . S
O94 Co84 2.021 . S
O94 C91 1.238 . S
O95 Co89 2.052 . S
O95 C91 1.241 . S
O96 Co84 2.137 . S
O96 C87 1.247 . S
O97 Co84 2.244 . S
O97 C87 1.272 . S
O97 Co89 2.135 . S
Co98 O99 2.216 . S
Co98 O100 2.091 . S
Co98 O102 2.004 . S
Co98 O108 2.021 . S
Co98 O110 2.137 . S
Co98 O111 2.244 . S
O99 Co98 2.216 . S
O99 C106 1.247 . S
O100 Co98 2.091 . S
O100 C106 1.261 . S
C101 O110 1.247 . S
C101 O111 1.272 . S
O102 Co98 2.004 . S
O102 C107 1.259 . S
Co103 O104 2.061 . S
Co103 O109 2.052 . S
Co103 O111 2.135 . S
O104 Co103 2.061 . S
O104 C107 1.235 . S
C105 O108 1.238 . S
C105 O109 1.241 . S
C106 O99 1.247 . S
C106 O100 1.261 . S
C107 O102 1.259 . S
C107 O104 1.235 . S
O108 Co98 2.021 . S
O108 C105 1.238 . S
O109 Co103 2.052 . S
O109 C105 1.241 . S
O110 Co98 2.137 . S
O110 C101 1.247 . S
O111 Co98 2.244 . S
O111 C101 1.272 . S
O111 Co103 2.135 . S
Co112 O113 2.216 . S
Co112 O114 2.091 . S
Co112 O116 2.004 . S
Co112 O122 2.021 . S
Co112 O124 2.137 . S
Co112 O125 2.244 . S
O113 Co112 2.216 . S
O113 C120 1.247 . S
O114 Co112 2.091 . S
O114 C120 1.261 . S
C115 O124 1.247 . S
C115 O125 1.272 . S
O116 Co112 2.004 . S
O116 C121 1.259 . S
Co117 O118 2.061 . S
Co117 O123 2.052 . S
Co117 O125 2.135 . S
O118 Co117 2.061 . S
O118 C121 1.235 . S
C119 O122 1.238 . S
C119 O123 1.241 . S
C120 O113 1.247 . S
C120 O114 1.261 . S
C121 O116 1.259 . S
C121 O118 1.235 . S
O122 Co112 2.021 . S
O122 C119 1.238 . S
O123 Co117 2.052 . S
O123 C119 1.241 . S
O124 Co112 2.137 . S
O124 C115 1.247 . S
O125 Co112 2.244 . S
O125 C115 1.272 . S
O125 Co117 2.135 . S
Co126 O127 2.216 1_554 S
Co126 O128 2.091 1_554 S
Co126 O130 2.004 . S
Co126 O136 2.021 . S
Co126 O138 2.137 1_554 S
Co126 O139 2.244 . S
O127 Co126 2.216 1_556 S
O127 C134 1.247 . S
O128 Co126 2.091 1_556 S
O128 C134 1.261 . S
C129 O138 1.247 1_554 S
C129 O139 1.272 . S
O130 Co126 2.004 . S
O130 C135 1.259 . S
Co131 O132 2.061 . S
Co131 O137 2.052 . S
Co131 O139 2.135 . S
O132 Co131 2.061 . S
O132 C135 1.235 . S
C133 O136 1.238 . S
C133 O137 1.241 . S
C134 O127 1.247 . S
C134 O128 1.261 . S
C135 O130 1.259 . S
C135 O132 1.235 . S
O136 Co126 2.021 . S
O136 C133 1.238 . S
O137 Co131 2.052 . S
O137 C133 1.241 . S
O138 Co126 2.137 1_556 S
O138 C129 1.247 1_556 S
O139 Co126 2.244 . S
O139 C129 1.272 . S
O139 Co131 2.135 . S
Co140 O141 2.216 . S
Co140 O142 2.091 . S
Co140 O144 2.004 . S
Co140 O150 2.021 . S
Co140 O152 2.137 . S
Co140 O153 2.244 . S
O141 Co140 2.216 . S
O141 C148 1.247 . S
O142 Co140 2.091 . S
O142 C148 1.261 . S
C143 O152 1.247 . S
C143 O153 1.272 . S
O144 Co140 2.004 . S
O144 C149 1.259 . S
Co145 O146 2.061 1_556 S
Co145 O151 2.052 . S
Co145 O153 2.135 1_556 S
O146 Co145 2.061 1_554 S
O146 C149 1.239 . S
C147 O150 1.238 1_556 S
C147 O151 1.241 . S
C148 O141 1.247 . S
C148 O142 1.261 . S
C149 O144 1.259 . S
C149 O146 1.239 . S
O150 Co140 2.021 . S
O150 C147 1.238 1_554 S
O151 Co145 2.052 . S
O151 C147 1.241 . S
O152 Co140 2.137 . S
O152 C143 1.247 . S
O153 Co140 2.244 . S
O153 C143 1.272 . S
O153 Co145 2.135 1_554 S
Co154 O155 2.219 . S
Co154 O156 2.091 1_554 S
Co154 O158 2.004 . S
Co154 O164 2.021 . S
Co154 O166 2.137 1_554 S
Co154 O167 2.244 . S
O155 Co154 2.219 . S
O155 C162 1.244 1_554 S
O156 Co154 2.091 1_556 S
O156 C162 1.261 . S
C157 O166 1.247 1_554 S
C157 O167 1.272 . S
O158 Co154 2.004 . S
O158 C163 1.259 . S
Co159 O160 2.061 . S
Co159 O165 2.052 . S
Co159 O167 2.135 . S
O160 Co159 2.061 . S
O160 C163 1.235 . S
C161 O164 1.238 . S
C161 O165 1.241 . S
C162 O155 1.244 1_556 S
C162 O156 1.261 . S
C163 O158 1.259 . S
C163 O160 1.235 . S
O164 Co154 2.021 . S
O164 C161 1.238 . S
O165 Co159 2.052 . S
O165 C161 1.241 . S
O166 Co154 2.137 1_556 S
O166 C157 1.247 1_556 S
O167 Co154 2.244 . S
O167 C157 1.272 . S
O167 Co159 2.135 . S
Co168 O169 2.222 . S
Co168 O170 2.098 . S
Co168 O172 2.004 . S
Co168 O178 2.021 . S
Co168 O180 2.137 1_556 S
Co168 O181 2.244 . S
O169 Co168 2.222 . S
O169 C176 1.243 1_556 S
O170 Co168 2.098 . S
O170 C176 1.258 1_556 S
C171 O180 1.247 1_556 S
C171 O181 1.272 . S
O172 Co168 2.004 . S
O172 C177 1.259 . S
Co173 O174 2.061 . S
Co173 O179 2.052 . S
Co173 O181 2.135 . S
O174 Co173 2.061 . S
O174 C177 1.235 . S
C175 O178 1.238 . S
C175 O179 1.241 . S
C176 O169 1.243 1_554 S
C176 O170 1.258 1_554 S
C177 O172 1.259 . S
C177 O174 1.235 . S
O178 Co168 2.021 . S
O178 C175 1.238 . S
O179 Co173 2.052 . S
O179 C175 1.241 . S
O180 Co168 2.137 1_554 S
O180 C171 1.247 1_554 S
O181 Co168 2.244 . S
O181 C171 1.272 . S
O181 Co173 2.135 . S
Co182 O183 2.216 . S
Co182 O184 2.091 . S
Co182 O186 2.004 . S
Co182 O192 2.021 . S
Co182 O194 2.137 . S
Co182 O195 2.244 . S
O183 Co182 2.216 . S
O183 C190 1.247 . S
O184 Co182 2.091 . S
O184 C190 1.261 . S
C185 O194 1.247 . S
C185 O195 1.272 . S
O186 Co182 2.004 . S
O186 C191 1.259 . S
Co187 O188 2.061 . S
Co187 O193 2.052 . S
Co187 O195 2.135 1_554 S
O188 Co187 2.061 . S
O188 C191 1.235 1_554 S
C189 O192 1.238 1_554 S
C189 O193 1.241 . S
C190 O183 1.247 . S
C190 O184 1.261 . S
C191 O186 1.259 . S
C191 O188 1.235 1_556 S
O192 Co182 2.021 . S
O192 C189 1.238 1_556 S
O193 Co187 2.052 . S
O193 C189 1.241 . S
O194 Co182 2.137 . S
O194 C185 1.247 . S
O195 Co182 2.244 . S
O195 C185 1.272 . S
O195 Co187 2.135 1_556 S
Co196 O197 2.216 . S
Co196 O198 2.091 . S
Co196 O200 2.004 . S
Co196 O206 2.021 . S
Co196 O208 2.137 . S
Co196 O209 2.244 . S
O197 Co196 2.216 . S
O197 C204 1.247 1_556 S
O198 Co196 2.091 . S
O198 C204 1.261 1_556 S
C199 O208 1.247 . S
C199 O209 1.272 . S
O200 Co196 2.004 . S
O200 C205 1.259 1_655 S
Co201 O202 2.061 . S
Co201 O207 2.052 . S
Co201 O209 2.135 . S
O202 Co201 2.061 . S
O202 C205 1.235 1_655 S
C203 O206 1.238 . S
C203 O207 1.241 . S
C204 O197 1.247 1_554 S
C204 O198 1.261 1_554 S
C205 O200 1.259 1_455 S
C205 O202 1.235 1_455 S
O206 Co196 2.021 . S
O206 C203 1.238 . S
O207 Co201 2.052 . S
O207 C203 1.241 . S
O208 Co196 2.137 . S
O208 C199 1.247 . S
O209 Co196 2.244 . S
O209 C199 1.272 . S
O209 Co201 2.135 . S
Co210 O211 2.216 . S
Co210 O212 2.091 . S
Co210 O214 2.004 . S
Co210 O220 2.021 . S
Co210 O222 2.137 . S
Co210 O223 2.244 . S
O211 Co210 2.216 . S
O211 C218 1.247 . S
O212 Co210 2.091 . S
O212 C218 1.261 . S
C213 O222 1.247 . S
C213 O223 1.272 . S
O214 Co210 2.004 . S
O214 C219 1.259 . S
Co215 O216 2.061 . S
Co215 O221 2.052 . S
Co215 O223 2.135 . S
O216 Co215 2.061 . S
O216 C219 1.235 . S
C217 O220 1.238 . S
C217 O221 1.241 . S
C218 O211 1.247 . S
C218 O212 1.261 . S
C219 O214 1.259 . S
C219 O216 1.235 . S
O220 Co210 2.021 . S
O220 C217 1.238 . S
O221 Co215 2.052 . S
O221 C217 1.241 . S
O222 Co210 2.137 . S
O222 C213 1.247 . S
O223 Co210 2.244 . S
O223 C213 1.272 . S
O223 Co215 2.135 . S
Co224 O225 2.216 . S
Co224 O226 2.091 . S
Co224 O228 2.004 . S
Co224 O234 2.021 . S
Co224 O236 2.137 . S
Co224 O237 2.244 . S
O225 Co224 2.216 . S
O225 C232 1.247 . S
O226 Co224 2.091 . S
O226 C232 1.261 . S
C227 O236 1.247 . S
C227 O237 1.272 . S
O228 Co224 2.004 . S
O228 C233 1.259 1_655 S
Co229 O230 2.061 . S
Co229 O235 2.052 . S
Co229 O237 2.135 . S
O230 Co229 2.061 . S
O230 C233 1.235 1_655 S
C231 O234 1.238 . S
C231 O235 1.241 . S
C232 O225 1.247 . S
C232 O226 1.261 . S
C233 O228 1.259 1_455 S
C233 O230 1.235 1_455 S
O234 Co224 2.021 . S
O234 C231 1.238 . S
O235 Co229 2.052 . S
O235 C231 1.241 . S
O236 Co224 2.137 . S
O236 C227 1.247 . S
O237 Co224 2.244 . S
O237 C227 1.272 . S
O237 Co229 2.135 . S
Co238 O239 2.216 . S
Co238 O240 2.091 . S
Co238 O242 2.004 . S
Co238 O248 2.021 . S
Co238 O250 2.137 . S
Co238 O251 2.244 . S
O239 Co238 2.216 . S
O239 C246 1.247 . S
O240 Co238 2.091 . S
O240 C246 1.261 . S
C241 O250 1.247 . S
C241 O251 1.272 . S
O242 Co238 2.004 . S
O242 C247 1.259 . S
Co243 O244 2.061 . S
Co243 O249 2.052 . S
Co243 O251 2.135 . S
O244 Co243 2.061 . S
O244 C247 1.235 . S
C245 O248 1.238 . S
C245 O249 1.241 . S
C246 O239 1.247 . S
C246 O240 1.261 . S
C247 O242 1.259 . S
C247 O244 1.235 . S
O248 Co238 2.021 . S
O248 C245 1.238 . S
O249 Co243 2.052 . S
O249 C245 1.241 . S
O250 Co238 2.137 . S
O250 C241 1.247 . S
O251 Co238 2.244 . S
O251 C241 1.272 . S
O251 Co243 2.135 . S
H252 C258 0.930 . S
H253 C262 0.930 . S
H254 C267 0.929 . S
H255 C265 0.929 . S
H256 C260 0.929 1_556 S
H257 C266 0.929 1_554 S
C258 H252 0.930 . S
C258 C259 1.367 . S
C258 C266 1.378 . S
C259 C258 1.367 . S
C259 C267 1.433 . S
C260 H256 0.929 1_554 S
C260 C262 1.378 . S
C260 C264 1.350 . S
C261 C264 1.463 1_556 S
C261 C266 1.350 . S
C261 N269 1.427 . S
C262 H253 0.930 . S
C262 C260 1.378 . S
C262 C263 1.367 . S
C263 C262 1.367 . S
C263 C265 1.433 . S
C264 C260 1.350 . S
C264 C261 1.463 1_554 S
C264 N268 1.427 . S
C265 H255 0.929 . S
C265 C263 1.433 . S
C265 N268 1.384 . S
C266 H257 0.929 1_556 S
C266 C258 1.378 . S
C266 C261 1.350 . S
C267 H254 0.929 . S
C267 C259 1.433 . S
C267 N269 1.384 . S
N268 C264 1.427 . S
N268 C265 1.384 . S
N269 C261 1.427 . S
N269 C267 1.384 . S
H270 C276 0.930 . S
H271 C280 0.930 . S
H272 C285 0.929 . S
H273 C283 0.929 . S
H274 C278 0.929 1_556 S
H275 C284 0.929 1_554 S
C276 H270 0.930 . S
C276 C277 1.367 . S
C276 C284 1.378 . S
C277 C276 1.367 . S
C277 C285 1.433 . S
C278 H274 0.929 1_554 S
C278 C280 1.378 . S
C278 C282 1.350 . S
C279 C282 1.463 1_556 S
C279 C284 1.350 . S
C279 N287 1.427 . S
C280 H271 0.930 . S
C280 C278 1.378 . S
C280 C281 1.367 . S
C281 C280 1.367 . S
C281 C283 1.433 . S
C282 C278 1.350 . S
C282 C279 1.463 1_554 S
C282 N286 1.427 . S
C283 H273 0.929 . S
C283 C281 1.433 . S
C283 N286 1.384 . S
C284 H275 0.929 1_556 S
C284 C276 1.378 . S
C284 C279 1.350 . S
C285 H272 0.929 . S
C285 C277 1.433 . S
C285 N287 1.384 . S
N286 C282 1.427 . S
N286 C283 1.384 . S
N287 C279 1.427 . S
N287 C285 1.384 . S
H288 C294 0.930 . S
H289 C298 0.930 . S
H290 C303 0.929 . S
H291 C301 0.929 . S
H292 C296 0.929 . S
H293 C302 0.929 . S
C294 H288 0.930 . S
C294 C295 1.367 . S
C294 C302 1.378 . S
C295 C294 1.367 . S
C295 C303 1.433 . S
C296 H292 0.929 . S
C296 C298 1.378 . S
C296 C300 1.350 . S
C297 C300 1.463 1_554 S
C297 C302 1.350 . S
C297 N305 1.427 . S
C298 H289 0.930 . S
C298 C296 1.378 . S
C298 C299 1.367 . S
C299 C298 1.367 . S
C299 C301 1.433 . S
C300 C296 1.350 . S
C300 C297 1.463 1_556 S
C300 N304 1.427 . S
C301 H291 0.929 . S
C301 C299 1.433 . S
C301 N304 1.384 . S
C302 H293 0.929 . S
C302 C294 1.378 . S
C302 C297 1.350 . S
C303 H290 0.929 . S
C303 C295 1.433 . S
C303 N305 1.384 . S
N304 C300 1.427 . S
N304 C301 1.384 . S
N305 C297 1.427 . S
N305 C303 1.384 . S
H306 C312 0.930 . S
H307 C316 0.930 . S
H308 C321 0.929 . S
H309 C319 0.929 . S
H310 C314 0.929 . S
H311 C320 0.929 . S
C312 H306 0.930 . S
C312 C313 1.367 . S
C312 C320 1.378 . S
C313 C312 1.367 . S
C313 C321 1.433 . S
C314 H310 0.929 . S
C314 C316 1.378 . S
C314 C318 1.350 . S
C315 C318 1.463 . S
C315 C320 1.350 . S
C315 N323 1.427 . S
C316 H307 0.930 . S
C316 C314 1.378 . S
C316 C317 1.367 . S
C317 C316 1.367 . S
C317 C319 1.433 . S
C318 C314 1.350 . S
C318 C315 1.463 . S
C318 N322 1.427 . S
C319 H309 0.929 . S
C319 C317 1.433 . S
C319 N322 1.384 . S
C320 H311 0.929 . S
C320 C312 1.378 . S
C320 C315 1.350 . S
C321 H308 0.929 . S
C321 C313 1.433 . S
C321 N323 1.384 . S
N322 C318 1.427 . S
N322 C319 1.384 . S
N323 C315 1.427 . S
N323 C321 1.384 . S
H324 C330 0.930 . S
H325 C334 0.930 . S
H326 C339 0.929 . S
H327 C337 0.929 . S
H328 C332 0.929 . S
H329 C338 0.929 . S
C330 H324 0.930 . S
C330 C331 1.367 . S
C330 C338 1.378 . S
C331 C330 1.367 . S
C331 C339 1.433 . S
C332 H328 0.929 . S
C332 C334 1.378 . S
C332 C336 1.350 . S
C333 C336 1.463 . S
C333 C338 1.350 . S
C333 N341 1.427 . S
C334 H325 0.930 . S
C334 C332 1.378 . S
C334 C335 1.367 . S
C335 C334 1.367 . S
C335 C337 1.433 . S
C336 C332 1.350 . S
C336 C333 1.463 . S
C336 N340 1.427 . S
C337 H327 0.929 . S
C337 C335 1.433 . S
C337 N340 1.384 . S
C338 H329 0.929 . S
C338 C330 1.378 . S
C338 C333 1.350 . S
C339 H326 0.929 . S
C339 C331 1.433 . S
C339 N341 1.384 . S
N340 C336 1.427 . S
N340 C337 1.384 . S
N341 C333 1.427 . S
N341 C339 1.384 . S
H342 C348 0.930 . S
H343 C352 0.930 . S
H344 C357 0.929 . S
H345 C355 0.929 . S
H346 C350 0.929 . S
H347 C356 0.929 . S
C348 H342 0.930 . S
C348 C349 1.367 . S
C348 C356 1.378 . S
C349 C348 1.367 . S
C349 C357 1.433 . S
C350 H346 0.929 . S
C350 C352 1.378 . S
C350 C354 1.350 . S
C351 C354 1.463 . S
C351 C356 1.350 . S
C351 N359 1.427 . S
C352 H343 0.930 . S
C352 C350 1.378 . S
C352 C353 1.367 . S
C353 C352 1.367 . S
C353 C355 1.433 . S
C354 C350 1.350 . S
C354 C351 1.463 . S
C354 N358 1.427 . S
C355 H345 0.929 . S
C355 C353 1.433 . S
C355 N358 1.384 . S
C356 H347 0.929 . S
C356 C348 1.378 . S
C356 C351 1.350 . S
C357 H344 0.929 . S
C357 C349 1.433 . S
C357 N359 1.384 . S
N358 C354 1.427 . S
N358 C355 1.384 . S
N359 C351 1.427 . S
N359 C357 1.384 . S
H360 C366 0.930 . S
H361 C370 0.930 . S
H362 C375 0.929 . S
H363 C373 0.929 . S
H364 C368 0.929 . S
H365 C374 0.929 . S
C366 H360 0.930 . S
C366 C367 1.367 . S
C366 C374 1.378 . S
C367 C366 1.367 . S
C367 C375 1.433 . S
C368 H364 0.929 . S
C368 C370 1.378 . S
C368 C372 1.350 . S
C369 C372 1.463 . S
C369 C374 1.350 . S
C369 N377 1.427 . S
C370 H361 0.930 . S
C370 C368 1.378 . S
C370 C371 1.367 . S
C371 C370 1.367 . S
C371 C373 1.433 . S
C372 C368 1.350 . S
C372 C369 1.463 . S
C372 N376 1.427 . S
C373 H363 0.929 . S
C373 C371 1.433 . S
C373 N376 1.384 . S
C374 H365 0.929 . S
C374 C366 1.378 . S
C374 C369 1.350 . S
C375 H362 0.929 . S
C375 C367 1.433 . S
C375 N377 1.384 . S
N376 C372 1.427 . S
N376 C373 1.384 . S
N377 C369 1.427 . S
N377 C375 1.384 . S
H378 C384 0.930 . S
H379 C388 0.930 . S
H380 C393 0.929 . S
H381 C391 0.929 . S
H382 C386 0.929 . S
H383 C392 0.929 . S
C384 H378 0.930 . S
C384 C385 1.367 . S
C384 C392 1.378 . S
C385 C384 1.367 . S
C385 C393 1.433 . S
C386 H382 0.929 . S
C386 C388 1.378 . S
C386 C390 1.350 . S
C387 C390 1.463 . S
C387 C392 1.350 . S
C387 N395 1.427 . S
C388 H379 0.930 . S
C388 C386 1.378 . S
C388 C389 1.367 . S
C389 C388 1.367 . S
C389 C391 1.433 . S
C390 C386 1.350 . S
C390 C387 1.463 . S
C390 N394 1.427 . S
C391 H381 0.929 . S
C391 C389 1.433 . S
C391 N394 1.384 . S
C392 H383 0.929 . S
C392 C384 1.378 . S
C392 C387 1.350 . S
C393 H380 0.929 . S
C393 C385 1.433 . S
C393 N395 1.384 . S
N394 C390 1.427 . S
N394 C391 1.384 . S
N395 C387 1.427 . S
N395 C393 1.384 . S
H396 C402 0.930 . S
H397 C406 0.930 . S
H398 C411 0.929 . S
H399 C409 0.929 . S
H400 C404 0.929 . S
H401 C410 0.929 . S
C402 H396 0.930 . S
C402 C403 1.367 . S
C402 C410 1.378 . S
C403 C402 1.367 . S
C403 C411 1.433 . S
C404 H400 0.929 . S
C404 C406 1.378 . S
C404 C408 1.350 . S
C405 C408 1.463 . S
C405 C410 1.350 . S
C405 N413 1.427 . S
C406 H397 0.930 . S
C406 C404 1.378 . S
C406 C407 1.367 . S
C407 C406 1.367 . S
C407 C409 1.433 . S
C408 C404 1.350 . S
C408 C405 1.463 . S
C408 N412 1.427 . S
C409 H399 0.929 . S
C409 C407 1.433 . S
C409 N412 1.384 . S
C410 H401 0.929 . S
C410 C402 1.378 . S
C410 C405 1.350 . S
C411 H398 0.929 . S
C411 C403 1.433 . S
C411 N413 1.384 . S
N412 C408 1.427 . S
N412 C409 1.384 . S
N413 C405 1.427 . S
N413 C411 1.384 . S
H414 C420 0.930 . S
H415 C424 0.930 . S
H416 C429 0.929 . S
H417 C427 0.929 . S
H418 C422 0.929 . S
H419 C428 0.929 . S
C420 H414 0.930 . S
C420 C421 1.367 . S
C420 C428 1.378 . S
C421 C420 1.367 . S
C421 C429 1.433 . S
C422 H418 0.929 . S
C422 C424 1.378 . S
C422 C426 1.350 . S
C423 C426 1.463 . S
C423 C428 1.350 . S
C423 N431 1.427 . S
C424 H415 0.930 . S
C424 C422 1.378 . S
C424 C425 1.367 . S
C425 C424 1.367 . S
C425 C427 1.433 . S
C426 C422 1.350 . S
C426 C423 1.463 . S
C426 N430 1.427 . S
C427 H417 0.929 . S
C427 C425 1.433 . S
C427 N430 1.384 . S
C428 H419 0.929 . S
C428 C420 1.378 . S
C428 C423 1.350 . S
C429 H416 0.929 . S
C429 C421 1.433 . S
C429 N431 1.384 . S
N430 C426 1.427 . S
N430 C427 1.384 . S
N431 C423 1.427 . S
N431 C429 1.384 . S
H432 C438 0.930 . S
H433 C442 0.930 . S
H434 C447 0.929 . S
H435 C445 0.929 . S
H436 C440 0.929 . S
H437 C446 0.929 . S
C438 H432 0.930 . S
C438 C439 1.367 . S
C438 C446 1.378 . S
C439 C438 1.367 . S
C439 C447 1.433 . S
C440 H436 0.929 . S
C440 C442 1.378 . S
C440 C444 1.350 . S
C441 C444 1.463 . S
C441 C446 1.350 . S
C441 N449 1.427 . S
C442 H433 0.930 . S
C442 C440 1.378 . S
C442 C443 1.367 . S
C443 C442 1.367 . S
C443 C445 1.433 . S
C444 C440 1.350 . S
C444 C441 1.463 . S
C444 N448 1.427 . S
C445 H435 0.929 . S
C445 C443 1.433 . S
C445 N448 1.384 . S
C446 H437 0.929 . S
C446 C438 1.378 . S
C446 C441 1.350 . S
C447 H434 0.929 . S
C447 C439 1.433 . S
C447 N449 1.384 . S
N448 C444 1.427 . S
N448 C445 1.384 . S
N449 C441 1.427 . S
N449 C447 1.384 . S
H450 C456 0.930 . S
H451 C460 0.930 . S
H452 C465 0.929 . S
H453 C463 0.929 . S
H454 C458 0.929 . S
H455 C464 0.929 . S
C456 H450 0.930 . S
C456 C457 1.367 . S
C456 C464 1.378 . S
C457 C456 1.367 . S
C457 C465 1.433 . S
C458 H454 0.929 . S
C458 C460 1.378 . S
C458 C462 1.350 . S
C459 C462 1.463 . S
C459 C464 1.350 . S
C459 N467 1.427 . S
C460 H451 0.930 . S
C460 C458 1.378 . S
C460 C461 1.367 . S
C461 C460 1.367 . S
C461 C463 1.433 . S
C462 C458 1.350 . S
C462 C459 1.463 . S
C462 N466 1.427 . S
C463 H453 0.929 . S
C463 C461 1.433 . S
C463 N466 1.384 . S
C464 H455 0.929 . S
C464 C456 1.378 . S
C464 C459 1.350 . S
C465 H452 0.929 . S
C465 C457 1.433 . S
C465 N467 1.384 . S
N466 C462 1.427 . S
N466 C463 1.384 . S
N467 C459 1.427 . S
N467 C465 1.384 . S
H468 C474 0.930 . S
H469 C478 0.930 . S
H470 C483 0.929 . S
H471 C481 0.929 . S
H472 C476 0.929 . S
H473 C482 0.929 . S
C474 H468 0.930 . S
C474 C475 1.367 . S
C474 C482 1.378 . S
C475 C474 1.367 . S
C475 C483 1.433 . S
C476 H472 0.929 . S
C476 C478 1.378 . S
C476 C480 1.350 . S
C477 C480 1.463 . S
C477 C482 1.350 . S
C477 N485 1.427 . S
C478 H469 0.930 . S
C478 C476 1.378 . S
C478 C479 1.367 . S
C479 C478 1.367 . S
C479 C481 1.433 . S
C480 C476 1.350 . S
C480 C477 1.463 . S
C480 N484 1.427 . S
C481 H471 0.929 . S
C481 C479 1.433 . S
C481 N484 1.384 . S
C482 H473 0.929 . S
C482 C474 1.378 . S
C482 C477 1.350 . S
C483 H470 0.929 . S
C483 C475 1.433 . S
C483 N485 1.384 . S
N484 C480 1.427 . S
N484 C481 1.384 . S
N485 C477 1.427 . S
N485 C483 1.384 . S
H486 C492 0.930 . S
H487 C496 0.930 . S
H488 C501 0.929 . S
H489 C499 0.929 . S
H490 C494 0.929 . S
H491 C500 0.929 . S
C492 H486 0.930 . S
C492 C493 1.367 . S
C492 C500 1.378 . S
C493 C492 1.367 . S
C493 C501 1.433 . S
C494 H490 0.929 . S
C494 C496 1.378 . S
C494 C498 1.350 . S
C495 C498 1.463 . S
C495 C500 1.350 . S
C495 N503 1.427 . S
C496 H487 0.930 . S
C496 C494 1.378 . S
C496 C497 1.367 . S
C497 C496 1.367 . S
C497 C499 1.433 . S
C498 C494 1.350 . S
C498 C495 1.463 . S
C498 N502 1.427 . S
C499 H489 0.929 . S
C499 C497 1.433 . S
C499 N502 1.384 . S
C500 H491 0.929 . S
C500 C492 1.378 . S
C500 C495 1.350 . S
C501 H488 0.929 . S
C501 C493 1.433 . S
C501 N503 1.384 . S
N502 C498 1.427 . S
N502 C499 1.384 . S
N503 C495 1.427 . S
N503 C501 1.384 . S
H504 C510 0.930 . S
H505 C514 0.930 . S
H506 C519 0.929 . S
H507 C517 0.929 . S
H508 C512 0.929 . S
H509 C518 0.929 . S
C510 H504 0.930 . S
C510 C511 1.367 . S
C510 C518 1.378 . S
C511 C510 1.367 . S
C511 C519 1.433 . S
C512 H508 0.929 . S
C512 C514 1.378 . S
C512 C516 1.350 . S
C513 C516 1.463 . S
C513 C518 1.350 . S
C513 N521 1.427 . S
C514 H505 0.930 . S
C514 C512 1.378 . S
C514 C515 1.367 . S
C515 C514 1.367 . S
C515 C517 1.433 . S
C516 C512 1.350 . S
C516 C513 1.463 . S
C516 N520 1.427 . S
C517 H507 0.929 . S
C517 C515 1.433 . S
C517 N520 1.384 . S
C518 H509 0.929 . S
C518 C510 1.378 . S
C518 C513 1.350 . S
C519 H506 0.929 . S
C519 C511 1.433 . S
C519 N521 1.384 . S
N520 C516 1.427 . S
N520 C517 1.384 . S
N521 C513 1.427 . S
N521 C519 1.384 . S
H522 C528 0.930 . S
H523 C532 0.930 . S
H524 C537 0.929 . S
H525 C535 0.929 . S
H526 C530 0.929 . S
H527 C536 0.929 . S
C528 H522 0.930 . S
C528 C529 1.367 . S
C528 C536 1.378 . S
C529 C528 1.367 . S
C529 C537 1.433 . S
C530 H526 0.929 . S
C530 C532 1.378 . S
C530 C534 1.350 . S
C531 C534 1.463 . S
C531 C536 1.350 . S
C531 N539 1.427 . S
C532 H523 0.930 . S
C532 C530 1.378 . S
C532 C533 1.367 . S
C533 C532 1.367 . S
C533 C535 1.433 . S
C534 C530 1.350 . S
C534 C531 1.463 . S
C534 N538 1.427 . S
C535 H525 0.929 . S
C535 C533 1.433 . S
C535 N538 1.384 . S
C536 H527 0.929 . S
C536 C528 1.378 . S
C536 C531 1.350 . S
C537 H524 0.929 . S
C537 C529 1.433 . S
C537 N539 1.384 . S
N538 C534 1.427 . S
N538 C535 1.384 . S
N539 C531 1.427 . S
N539 C537 1.384 . S
H540 C546 0.930 . S
H541 C550 0.930 . S
H542 C555 0.929 . S
H543 C553 0.929 . S
H544 C548 0.929 . S
H545 C554 0.929 . S
C546 H540 0.930 . S
C546 C547 1.367 . S
C546 C554 1.378 . S
C547 C546 1.367 . S
C547 C555 1.433 . S
C548 H544 0.929 . S
C548 C550 1.378 . S
C548 C552 1.350 . S
C549 C552 1.463 . S
C549 C554 1.350 . S
C549 N557 1.427 . S
C550 H541 0.930 . S
C550 C548 1.378 . S
C550 C551 1.367 . S
C551 C550 1.367 . S
C551 C553 1.433 . S
C552 C548 1.350 . S
C552 C549 1.463 . S
C552 N556 1.427 . S
C553 H543 0.929 . S
C553 C551 1.433 . S
C553 N556 1.384 . S
C554 H545 0.929 . S
C554 C546 1.378 . S
C554 C549 1.350 . S
C555 H542 0.929 . S
C555 C547 1.433 . S
C555 N557 1.384 . S
N556 C552 1.427 . S
N556 C553 1.384 . S
N557 C549 1.427 . S
N557 C555 1.384 . S
H558 C564 0.930 . S
H559 C568 0.930 . S
H560 C573 0.929 . S
H561 C571 0.929 . S
H562 C566 0.929 . S
H563 C572 0.929 . S
C564 H558 0.930 . S
C564 C565 1.367 . S
C564 C572 1.378 . S
C565 C564 1.367 . S
C565 C573 1.433 . S
C566 H562 0.929 . S
C566 C568 1.378 . S
C566 C570 1.350 . S
C567 C570 1.463 . S
C567 C572 1.350 . S
C567 N575 1.427 . S
C568 H559 0.930 . S
C568 C566 1.378 . S
C568 C569 1.367 . S
C569 C568 1.367 . S
C569 C571 1.433 . S
C570 C566 1.350 . S
C570 C567 1.463 . S
C570 N574 1.427 . S
C571 H561 0.929 . S
C571 C569 1.433 . S
C571 N574 1.384 . S
C572 H563 0.929 . S
C572 C564 1.378 . S
C572 C567 1.350 . S
C573 H560 0.929 . S
C573 C565 1.433 . S
C573 N575 1.384 . S
N574 C570 1.427 . S
N574 C571 1.384 . S
N575 C567 1.427 . S
N575 C573 1.384 . S
H576 C582 0.930 . S
H577 C586 0.930 . S
H578 C591 0.929 . S
H579 C589 0.929 . S
H580 C584 0.929 . S
H581 C590 0.929 . S
C582 H576 0.930 . S
C582 C583 1.367 . S
C582 C590 1.378 . S
C583 C582 1.367 . S
C583 C591 1.433 . S
C584 H580 0.929 . S
C584 C586 1.378 . S
C584 C588 1.350 . S
C585 C588 1.463 . S
C585 C590 1.350 . S
C585 N593 1.427 . S
C586 H577 0.930 . S
C586 C584 1.378 . S
C586 C587 1.367 . S
C587 C586 1.367 . S
C587 C589 1.433 . S
C588 C584 1.350 . S
C588 C585 1.463 . S
C588 N592 1.427 . S
C589 H579 0.929 . S
C589 C587 1.433 . S
C589 N592 1.384 . S
C590 H581 0.929 . S
C590 C582 1.378 . S
C590 C585 1.350 . S
C591 H578 0.929 . S
C591 C583 1.433 . S
C591 N593 1.384 . S
N592 C588 1.427 . S
N592 C589 1.384 . S
N593 C585 1.427 . S
N593 C591 1.384 . S
H594 C600 0.930 . S
H595 C604 0.930 . S
H596 C609 0.929 . S
H597 C607 0.929 . S
H598 C602 0.929 . S
H599 C608 0.929 . S
C600 H594 0.930 . S
C600 C601 1.367 . S
C600 C608 1.378 . S
C601 C600 1.367 . S
C601 C609 1.433 . S
C602 H598 0.929 . S
C602 C604 1.378 . S
C602 C606 1.350 . S
C603 C606 1.463 . S
C603 C608 1.350 . S
C603 N611 1.427 . S
C604 H595 0.930 . S
C604 C602 1.378 . S
C604 C605 1.367 . S
C605 C604 1.367 . S
C605 C607 1.433 . S
C606 C602 1.350 . S
C606 C603 1.463 . S
C606 N610 1.427 . S
C607 H597 0.929 . S
C607 C605 1.433 . S
C607 N610 1.384 . S
C608 H599 0.929 . S
C608 C600 1.378 . S
C608 C603 1.350 . S
C609 H596 0.929 . S
C609 C601 1.433 . S
C609 N611 1.384 . S
N610 C606 1.427 . S
N610 C607 1.384 . S
N611 C603 1.427 . S
N611 C609 1.384 . S
H612 C618 0.930 . S
H613 C622 0.930 . S
H614 C627 0.929 1_545 S
H615 C625 0.929 1_565 S
H616 C620 0.929 . S
H617 C626 0.929 . S
C618 H612 0.930 . S
C618 C619 1.367 . S
C618 C626 1.378 . S
C619 C618 1.367 . S
C619 C627 1.433 . S
C620 H616 0.929 . S
C620 C622 1.378 . S
C620 C624 1.350 . S
C621 C624 1.463 1_565 S
C621 C626 1.350 . S
C621 N629 1.427 1_565 S
C622 H613 0.930 . S
C622 C620 1.378 . S
C622 C623 1.367 . S
C623 C622 1.367 . S
C623 C625 1.433 . S
C624 C620 1.350 . S
C624 C621 1.463 1_545 S
C624 N628 1.427 1_545 S
C625 H615 0.929 1_545 S
C625 C623 1.433 . S
C625 N628 1.384 1_545 S
C626 H617 0.929 . S
C626 C618 1.378 . S
C626 C621 1.350 . S
C627 H614 0.929 1_565 S
C627 C619 1.433 . S
C627 N629 1.384 1_565 S
N628 C624 1.427 1_565 S
N628 C625 1.384 1_565 S
N629 C621 1.427 1_545 S
N629 C627 1.384 1_545 S
H630 C636 0.930 . S
H631 C640 0.930 . S
H632 C645 0.929 . S
H633 C643 0.929 . S
H634 C638 0.929 1_556 S
H635 C644 0.929 . S
C636 H630 0.930 . S
C636 C637 1.367 . S
C636 C644 1.378 . S
C637 C636 1.367 . S
C637 C645 1.433 . S
C638 H634 0.929 1_554 S
C638 C640 1.378 1_554 S
C638 C642 1.350 . S
C639 C642 1.463 . S
C639 C644 1.350 . S
C639 N647 1.427 . S
C640 H631 0.930 . S
C640 C638 1.378 1_556 S
C640 C641 1.367 1_556 S
C641 C640 1.367 1_554 S
C641 C643 1.433 . S
C642 C638 1.350 . S
C642 C639 1.463 . S
C642 N646 1.427 . S
C643 H633 0.929 . S
C643 C641 1.433 . S
C643 N646 1.384 . S
C644 H635 0.929 . S
C644 C636 1.378 . S
C644 C639 1.350 . S
C645 H632 0.929 . S
C645 C637 1.433 . S
C645 N647 1.384 . S
N646 C642 1.427 . S
N646 C643 1.384 . S
N647 C639 1.427 . S
N647 C645 1.384 . S
H648 C654 0.930 . S
H649 C658 0.930 . S
H650 C663 0.929 . S
H651 C661 0.929 . S
H652 C656 0.929 . S
H653 C662 0.929 . S
C654 H648 0.930 . S
C654 C655 1.367 . S
C654 C662 1.378 . S
C655 C654 1.367 . S
C655 C663 1.433 1_556 S
C656 H652 0.929 . S
C656 C658 1.378 . S
C656 C660 1.350 . S
C657 C660 1.498 . S
C657 C662 1.339 1_454 S
C657 N665 1.405 . S
C658 H649 0.930 . S
C658 C656 1.378 . S
C658 C659 1.367 . S
C659 C658 1.367 . S
C659 C661 1.433 . S
C660 C656 1.350 . S
C660 C657 1.498 . S
C660 N664 1.427 . S
C661 H651 0.929 . S
C661 C659 1.433 . S
C661 N664 1.384 . S
C662 H653 0.929 . S
C662 C654 1.378 . S
C662 C657 1.339 1_656 S
C663 H650 0.929 . S
C663 C655 1.433 1_554 S
C663 N665 1.384 1_655 S
N664 C660 1.427 . S
N664 C661 1.384 . S
N665 C657 1.405 . S
N665 C663 1.384 1_455 S
H666 C672 0.930 . S
H667 C676 0.930 . S
H668 C681 0.929 . S
H669 C679 0.929 . S
H670 C674 0.929 . S
H671 C680 0.929 . S
C672 H666 0.930 . S
C672 C673 1.367 1_556 S
C672 C680 1.378 1_556 S
C673 C672 1.367 1_554 S
C673 C681 1.433 . S
C674 H670 0.929 . S
C674 C676 1.378 . S
C674 C678 1.350 . S
C675 C678 1.463 . S
C675 C680 1.350 . S
C675 N683 1.427 . S
C676 H667 0.930 . S
C676 C674 1.378 . S
C676 C677 1.367 . S
C677 C676 1.367 . S
C677 C679 1.433 . S
C678 C674 1.350 . S
C678 C675 1.463 . S
C678 N682 1.427 . S
C679 H669 0.929 . S
C679 C677 1.433 . S
C679 N682 1.384 . S
C680 H671 0.929 . S
C680 C672 1.378 1_554 S
C680 C675 1.350 . S
C681 H668 0.929 . S
C681 C673 1.433 . S
C681 N683 1.384 . S
N682 C678 1.427 . S
N682 C679 1.384 . S
N683 C675 1.427 . S
N683 C681 1.384 . S
H684 C690 0.945 . S
H685 C694 0.930 . S
H686 C699 0.929 . S
H687 C697 0.929 . S
H688 C692 0.929 1_655 S
H689 C698 0.929 . S
C690 H684 0.945 . S
C690 C691 1.353 1_455 S
C690 C698 1.378 . S
C691 C690 1.353 1_655 S
C691 C699 1.433 . S
C692 H688 0.929 1_455 S
C692 C694 1.378 . S
C692 C696 1.350 . S
C693 C696 1.463 . S
C693 C698 1.350 . S
C693 N701 1.427 1_455 S
C694 H685 0.930 . S
C694 C692 1.378 . S
C694 C695 1.367 . S
C695 C694 1.367 . S
C695 C697 1.433 . S
C696 C692 1.350 . S
C696 C693 1.463 . S
C696 N700 1.427 . S
C697 H687 0.929 . S
C697 C695 1.433 . S
C697 N700 1.384 . S
C698 H689 0.929 . S
C698 C690 1.378 . S
C698 C693 1.350 . S
C699 H686 0.929 . S
C699 C691 1.433 . S
C699 N701 1.384 . S
N700 C696 1.427 . S
N700 C697 1.384 . S
N701 C693 1.427 1_655 S
N701 C699 1.384 . S
H702 C708 0.930 . S
H703 C712 0.930 . S
H704 C717 0.929 . S
H705 C715 0.929 . S
H706 C710 0.929 . S
H707 C716 0.929 . S
C708 H702 0.930 . S
C708 C709 1.367 . S
C708 C716 1.378 . S
C709 C708 1.367 . S
C709 C717 1.433 . S
C710 H706 0.929 . S
C710 C712 1.378 . S
C710 C714 1.350 . S
C711 C714 1.463 . S
C711 C716 1.350 . S
C711 N719 1.427 . S
C712 H703 0.930 . S
C712 C710 1.378 . S
C712 C713 1.367 . S
C713 C712 1.367 . S
C713 C715 1.433 . S
C714 C710 1.350 . S
C714 C711 1.463 . S
C714 N718 1.427 . S
C715 H705 0.929 . S
C715 C713 1.433 . S
C715 N718 1.384 . S
C716 H707 0.929 . S
C716 C708 1.378 . S
C716 C711 1.350 . S
C717 H704 0.929 . S
C717 C709 1.433 . S
C717 N719 1.384 . S
N718 C714 1.427 . S
N718 C715 1.384 . S
N719 C711 1.427 . S
N719 C717 1.384 . S
H720 C726 0.930 . S
H721 C730 0.930 . S
H722 C735 0.929 . S
H723 C733 0.929 . S
H724 C728 0.929 . S
H725 C734 0.929 . S
C726 H720 0.930 . S
C726 C727 1.367 . S
C726 C734 1.378 . S
C727 C726 1.367 . S
C727 C735 1.433 . S
C728 H724 0.929 . S
C728 C730 1.378 . S
C728 C732 1.350 . S
C729 C732 1.463 . S
C729 C734 1.350 . S
C729 N737 1.427 . S
C730 H721 0.930 . S
C730 C728 1.378 . S
C730 C731 1.367 . S
C731 C730 1.367 . S
C731 C733 1.433 . S
C732 C728 1.350 . S
C732 C729 1.463 . S
C732 N736 1.427 . S
C733 H723 0.929 . S
C733 C731 1.433 . S
C733 N736 1.384 . S
C734 H725 0.929 . S
C734 C726 1.378 . S
C734 C729 1.350 . S
C735 H722 0.929 . S
C735 C727 1.433 . S
C735 N737 1.384 . S
N736 C732 1.427 . S
N736 C733 1.384 . S
N737 C729 1.427 . S
N737 C735 1.384 . S
H738 C744 0.930 . S
H739 C748 0.930 . S
H740 C753 0.929 . S
H741 C751 0.929 . S
H742 C746 0.929 . S
H743 C752 0.929 . S
C744 H738 0.930 . S
C744 C745 1.367 1_556 S
C744 C752 1.378 . S
C745 C744 1.367 1_554 S
C745 C753 1.433 . S
C746 H742 0.929 . S
C746 C748 1.378 . S
C746 C750 1.350 . S
C747 C750 1.463 1_565 S
C747 C752 1.350 . S
C747 N755 1.427 1_556 S
C748 H739 0.930 . S
C748 C746 1.378 . S
C748 C749 1.367 . S
C749 C748 1.367 . S
C749 C751 1.433 . S
C750 C746 1.350 . S
C750 C747 1.463 1_545 S
C750 N754 1.427 . S
C751 H741 0.929 . S
C751 C749 1.433 . S
C751 N754 1.384 . S
C752 H743 0.929 . S
C752 C744 1.378 . S
C752 C747 1.350 . S
C753 H740 0.929 . S
C753 C745 1.433 . S
C753 N755 1.384 . S
N754 C750 1.427 . S
N754 C751 1.384 . S
N755 C747 1.427 1_554 S
N755 C753 1.384 . S
H756 C762 0.930 . S
H757 C766 0.930 . S
H758 C771 0.929 . S
H759 C769 0.929 . S
H760 C764 0.929 . S
H761 C770 0.929 . S
C762 H756 0.930 . S
C762 C763 1.367 . S
C762 C770 1.378 . S
C763 C762 1.367 . S
C763 C771 1.433 . S
C764 H760 0.929 . S
C764 C766 1.378 . S
C764 C768 1.350 . S
C765 C768 1.463 . S
C765 C770 1.350 . S
C765 N773 1.427 . S
C766 H757 0.930 . S
C766 C764 1.378 . S
C766 C767 1.367 1_556 S
C767 C766 1.367 1_554 S
C767 C769 1.433 . S
C768 C764 1.350 . S
C768 C765 1.463 . S
C768 N772 1.427 . S
C769 H759 0.929 . S
C769 C767 1.433 . S
C769 N772 1.384 1_554 S
C770 H761 0.929 . S
C770 C762 1.378 . S
C770 C765 1.350 . S
C771 H758 0.929 . S
C771 C763 1.433 . S
C771 N773 1.384 . S
N772 C768 1.427 . S
N772 C769 1.384 1_556 S
N773 C765 1.427 . S
N773 C771 1.384 . S
H774 C780 0.930 . S
H775 C784 0.930 . S
H776 C789 0.929 . S
H777 C787 0.929 1_554 S
H778 C782 0.929 . S
H779 C788 0.929 . S
C780 H774 0.930 . S
C780 C781 1.367 . S
C780 C788 1.378 . S
C781 C780 1.367 . S
C781 C789 1.433 . S
C782 H778 0.929 . S
C782 C784 1.378 . S
C782 C786 1.350 . S
C783 C786 1.463 . S
C783 C788 1.350 . S
C783 N791 1.427 . S
C784 H775 0.930 . S
C784 C782 1.378 . S
C784 C785 1.367 . S
C785 C784 1.367 . S
C785 C787 1.433 . S
C786 C782 1.350 . S
C786 C783 1.463 . S
C786 N790 1.427 . S
C787 H777 0.929 1_556 S
C787 C785 1.433 . S
C787 N790 1.384 . S
C788 H779 0.929 . S
C788 C780 1.378 . S
C788 C783 1.350 . S
C789 H776 0.929 . S
C789 C781 1.433 . S
C789 N791 1.384 . S
N790 C786 1.427 . S
N790 C787 1.384 . S
N791 C783 1.427 . S
N791 C789 1.384 . S
H792 C798 0.930 . S
H793 C802 0.930 . S
H794 C807 0.929 . S
H795 C805 0.929 . S
H796 C800 0.929 . S
H797 C806 0.929 . S
C798 H792 0.930 . S
C798 C799 1.367 . S
C798 C806 1.378 . S
C799 C798 1.367 . S
C799 C807 1.433 . S
C800 H796 0.929 . S
C800 C802 1.378 . S
C800 C804 1.350 . S
C801 C804 1.463 . S
C801 C806 1.350 . S
C801 N809 1.427 . S
C802 H793 0.930 . S
C802 C800 1.378 . S
C802 C803 1.367 . S
C803 C802 1.367 . S
C803 C805 1.433 . S
C804 C800 1.350 . S
C804 C801 1.463 . S
C804 N808 1.427 . S
C805 H795 0.929 . S
C805 C803 1.433 . S
C805 N808 1.384 . S
C806 H797 0.929 . S
C806 C798 1.378 . S
C806 C801 1.350 . S
C807 H794 0.929 . S
C807 C799 1.433 . S
C807 N809 1.384 . S
N808 C804 1.427 . S
N808 C805 1.384 . S
N809 C801 1.427 . S
N809 C807 1.384 . S
H810 C816 0.930 . S
H811 C820 0.930 . S
H812 C825 0.929 . S
H813 C823 0.929 . S
H814 C818 0.929 . S
H815 C824 0.929 . S
C816 H810 0.930 . S
C816 C817 1.367 . S
C816 C824 1.378 . S
C817 C816 1.367 . S
C817 C825 1.433 . S
C818 H814 0.929 . S
C818 C820 1.378 . S
C818 C822 1.350 . S
C819 C822 1.463 . S
C819 C824 1.350 . S
C819 N827 1.427 . S
C820 H811 0.930 . S
C820 C818 1.378 . S
C820 C821 1.367 . S
C821 C820 1.367 . S
C821 C823 1.433 . S
C822 C818 1.350 . S
C822 C819 1.463 . S
C822 N826 1.427 . S
C823 H813 0.929 . S
C823 C821 1.433 . S
C823 N826 1.384 . S
C824 H815 0.929 . S
C824 C816 1.378 . S
C824 C819 1.350 . S
C825 H812 0.929 . S
C825 C817 1.433 . S
C825 N827 1.384 . S
N826 C822 1.427 . S
N826 C823 1.384 . S
N827 C819 1.427 . S
N827 C825 1.384 . S
H828 C834 0.930 . S
H829 C838 0.930 . S
H830 C843 0.929 . S
H831 C841 0.929 . S
H832 C836 0.929 . S
H833 C842 0.929 . S
C834 H828 0.930 . S
C834 C835 1.367 . S
C834 C842 1.378 . S
C835 C834 1.367 . S
C835 C843 1.433 . S
C836 H832 0.929 . S
C836 C838 1.378 . S
C836 C840 1.350 . S
C837 C840 1.463 . S
C837 C842 1.350 . S
C837 N845 1.427 . S
C838 H829 0.930 . S
C838 C836 1.378 . S
C838 C839 1.367 . S
C839 C838 1.367 . S
C839 C841 1.433 . S
C840 C836 1.350 . S
C840 C837 1.463 . S
C840 N844 1.427 . S
C841 H831 0.929 . S
C841 C839 1.433 . S
C841 N844 1.384 . S
C842 H833 0.929 . S
C842 C834 1.378 . S
C842 C837 1.350 . S
C843 H830 0.929 . S
C843 C835 1.433 . S
C843 N845 1.384 . S
N844 C840 1.427 . S
N844 C841 1.384 . S
N845 C837 1.427 . S
N845 C843 1.384 . S
H846 C852 0.930 . S
H847 C856 0.930 . S
H848 C861 0.929 . S
H849 C859 0.929 . S
H850 C854 0.929 . S
H851 C860 0.929 . S
C852 H846 0.930 . S
C852 C853 1.367 . S
C852 C860 1.378 . S
C853 C852 1.367 . S
C853 C861 1.433 . S
C854 H850 0.929 . S
C854 C856 1.378 . S
C854 C858 1.350 . S
C855 C858 1.463 . S
C855 C860 1.350 . S
C855 N863 1.427 . S
C856 H847 0.930 . S
C856 C854 1.378 . S
C856 C857 1.367 . S
C857 C856 1.367 . S
C857 C859 1.433 . S
C858 C854 1.350 . S
C858 C855 1.463 . S
C858 N862 1.427 . S
C859 H849 0.929 . S
C859 C857 1.433 . S
C859 N862 1.384 . S
C860 H851 0.929 . S
C860 C852 1.378 . S
C860 C855 1.350 . S
C861 H848 0.929 . S
C861 C853 1.433 . S
C861 N863 1.384 . S
N862 C858 1.427 . S
N862 C859 1.384 . S
N863 C855 1.427 . S
N863 C861 1.384 . S
H864 C870 0.930 . S
H865 C874 0.930 . S
H866 C879 0.929 . S
H867 C877 0.929 . S
H868 C872 0.929 . S
H869 C878 0.929 . S
C870 H864 0.930 . S
C870 C871 1.367 . S
C870 C878 1.378 . S
C871 C870 1.367 . S
C871 C879 1.433 . S
C872 H868 0.929 . S
C872 C874 1.378 . S
C872 C876 1.350 . S
C873 C876 1.463 . S
C873 C878 1.350 . S
C873 N881 1.427 . S
C874 H865 0.930 . S
C874 C872 1.378 . S
C874 C875 1.367 . S
C875 C874 1.367 . S
C875 C877 1.433 . S
C876 C872 1.350 . S
C876 C873 1.463 . S
C876 N880 1.427 . S
C877 H867 0.929 . S
C877 C875 1.433 . S
C877 N880 1.384 . S
C878 H869 0.929 . S
C878 C870 1.378 . S
C878 C873 1.350 . S
C879 H866 0.929 . S
C879 C871 1.433 . S
C879 N881 1.384 . S
N880 C876 1.427 . S
N880 C877 1.384 . S
N881 C873 1.427 . S
N881 C879 1.384 . S
H882 C888 0.930 . S
H883 C892 0.930 . S
H884 C897 0.929 1_565 S
H885 C895 0.929 . S
H886 C890 0.929 . S
H887 C896 0.929 . S
C888 H882 0.930 . S
C888 C889 1.367 . S
C888 C896 1.378 . S
C889 C888 1.367 . S
C889 C897 1.433 . S
C890 H886 0.929 . S
C890 C892 1.378 . S
C890 C894 1.350 . S
C891 C894 1.463 . S
C891 C896 1.350 . S
C891 N899 1.427 . S
C892 H883 0.930 . S
C892 C890 1.378 . S
C892 C893 1.367 . S
C893 C892 1.367 . S
C893 C895 1.433 . S
C894 C890 1.350 . S
C894 C891 1.463 . S
C894 N898 1.427 . S
C895 H885 0.929 . S
C895 C893 1.433 . S
C895 N898 1.384 . S
C896 H887 0.929 . S
C896 C888 1.378 . S
C896 C891 1.350 . S
C897 H884 0.929 1_545 S
C897 C889 1.433 . S
C897 N899 1.384 . S
N898 C894 1.427 . S
N898 C895 1.384 . S
N899 C891 1.427 . S
N899 C897 1.384 . S
C259 C49 1.363 . S
C263 C7 1.363 . S
C277 C64 1.383 . S
C281 C22 1.383 . S
C295 C35 1.381 . S
C299 C77 1.382 . S
C313 C36 1.338 . S
C317 C78 1.337 . S
C331 C8 1.309 . S
C335 C50 1.309 . S
C349 C63 1.314 . S
C353 C21 1.315 . S
C367 C133 1.274 . S
C371 C92 1.281 . S
C385 C106 1.293 . S
C389 C148 1.294 . S
C403 C120 1.300 . S
C407 C161 1.292 . S
C421 C162 1.432 . S
C425 C119 1.418 . S
C439 C134 1.406 . S
C443 C91 1.398 . S
C457 C147 1.412 . S
C461 C105 1.412 . S
C475 C175 1.372 . S
C479 C217 1.373 . S
C493 C190 1.389 . S
C497 C232 1.390 . S
C511 C203 1.387 . S
C515 C245 1.388 . S
C529 C246 1.337 . S
C533 C204 1.338 . S
C547 C218 1.321 . S
C551 C176 1.321 . S
C565 C231 1.308 . S
C569 C189 1.309 . S
C583 C3 1.239 . S
C587 C101 1.237 . S
C601 C23 1.260 . S
C605 C115 1.280 . S
C619 C87 1.250 . S
C623 C31 1.241 . S
C637 C37 1.262 . S
C641 C191 1.253 1_554 S
C655 C199 1.249 . S
C659 C9 1.226 . S
C673 C171 1.214 1_554 S
C677 C17 1.221 . S
C691 C227 1.205 . S
C695 C45 1.213 . S
C709 C65 1.263 . S
C713 C247 1.249 . S
C727 C219 1.232 . S
C731 C73 1.238 . S
C745 C149 1.221 . S
C749 C79 1.227 . S
C763 C51 1.206 . S
C767 C157 1.213 . S
C781 C59 1.181 . S
C785 C129 1.191 1_556 S
C799 C93 1.198 1_545 S
C803 C185 1.206 . S
C817 C107 1.236 . S
C821 C205 1.227 . S
C835 C121 1.233 . S
C839 C177 1.218 . S
C853 C233 1.275 . S
C857 C163 1.287 . S
C871 C241 1.275 . S
C875 C135 1.245 . S
C889 C143 1.246 1_545 S
C893 C213 1.248 . S
