# Generated by pormake.
# Topology zga, (5)-cn, num edge types: 1
# Building blocks:
#     Node 0, Type 0, BuildingBlock: XOMCOT_clean_sbu_0, # of connection points: 5
#     Node 1, Type 0, BuildingBlock: XOMCOT_clean_sbu_0, # of connection points: 5
#     Node 2, Type 0, BuildingBlock: XOMCOT_clean_sbu_0, # of connection points: 5
#     Node 3, Type 0, BuildingBlock: XOMCOT_clean_sbu_0, # of connection points: 5
#     Node 4, Type 0, BuildingBlock: XOMCOT_clean_sbu_0, # of connection points: 5
#     Node 5, Type 0, BuildingBlock: XOMCOT_clean_sbu_0, # of connection points: 5
#     Node 6, Type 0, BuildingBlock: XOMCOT_clean_sbu_0, # of connection points: 5
#     Node 7, Type 0, BuildingBlock: XOMCOT_clean_sbu_0, # of connection points: 5
#     Node 8, Type 0, BuildingBlock: XOMCOT_clean_sbu_0, # of connection points: 5
#     Node 9, Type 0, BuildingBlock: XOMCOT_clean_sbu_0, # of connection points: 5
#     Node 10, Type 0, BuildingBlock: XOMCOT_clean_sbu_0, # of connection points: 5
#     Node 11, Type 0, BuildingBlock: XOMCOT_clean_sbu_0, # of connection points: 5
#     Node 12, Type 0, BuildingBlock: XOMCOT_clean_sbu_0, # of connection points: 5
#     Node 13, Type 0, BuildingBlock: XOMCOT_clean_sbu_0, # of connection points: 5
#     Node 14, Type 0, BuildingBlock: XOMCOT_clean_sbu_0, # of connection points: 5
#     Node 15, Type 0, BuildingBlock: XOMCOT_clean_sbu_0, # of connection points: 5
#     Edge 16, Type (0, 0), BuildingBlock: TEMPAE_clean_linker_10, # of connection points: 2
#     Edge 17, Type (0, 0), BuildingBlock: TEMPAE_clean_linker_10, # of connection points: 2
#     Edge 18, Type (0, 0), BuildingBlock: TEMPAE_clean_linker_10, # of connection points: 2
#     Edge 19, Type (0, 0), BuildingBlock: TEMPAE_clean_linker_10, # of connection points: 2
#     Edge 20, Type (0, 0), BuildingBlock: TEMPAE_clean_linker_10, # of connection points: 2
#     Edge 21, Type (0, 0), BuildingBlock: TEMPAE_clean_linker_10, # of connection points: 2
#     Edge 22, Type (0, 0), BuildingBlock: TEMPAE_clean_linker_10, # of connection points: 2
#     Edge 23, Type (0, 0), BuildingBlock: TEMPAE_clean_linker_10, # of connection points: 2
#     Edge 24, Type (0, 0), BuildingBlock: TEMPAE_clean_linker_10, # of connection points: 2
#     Edge 25, Type (0, 0), BuildingBlock: TEMPAE_clean_linker_10, # of connection points: 2
#     Edge 26, Type (0, 0), BuildingBlock: TEMPAE_clean_linker_10, # of connection points: 2
#     Edge 27, Type (0, 0), BuildingBlock: TEMPAE_clean_linker_10, # of connection points: 2
#     Edge 28, Type (0, 0), BuildingBlock: TEMPAE_clean_linker_10, # of connection points: 2
#     Edge 29, Type (0, 0), BuildingBlock: TEMPAE_clean_linker_10, # of connection points: 2
#     Edge 30, Type (0, 0), BuildingBlock: TEMPAE_clean_linker_10, # of connection points: 2
#     Edge 31, Type (0, 0), BuildingBlock: TEMPAE_clean_linker_10, # of connection points: 2
#     Edge 32, Type (0, 0), BuildingBlock: TEMPAE_clean_linker_10, # of connection points: 2
#     Edge 33, Type (0, 0), BuildingBlock: TEMPAE_clean_linker_10, # of connection points: 2
#     Edge 34, Type (0, 0), BuildingBlock: TEMPAE_clean_linker_10, # of connection points: 2
#     Edge 35, Type (0, 0), BuildingBlock: TEMPAE_clean_linker_10, # of connection points: 2
#     Edge 36, Type (0, 0), BuildingBlock: TEMPAE_clean_linker_10, # of connection points: 2
#     Edge 37, Type (0, 0), BuildingBlock: TEMPAE_clean_linker_10, # of connection points: 2
#     Edge 38, Type (0, 0), BuildingBlock: TEMPAE_clean_linker_10, # of connection points: 2
#     Edge 39, Type (0, 0), BuildingBlock: TEMPAE_clean_linker_10, # of connection points: 2
#     Edge 40, Type (0, 0), BuildingBlock: TEMPAE_clean_linker_10, # of connection points: 2
#     Edge 41, Type (0, 0), BuildingBlock: TEMPAE_clean_linker_10, # of connection points: 2
#     Edge 42, Type (0, 0), BuildingBlock: TEMPAE_clean_linker_10, # of connection points: 2
#     Edge 43, Type (0, 0), BuildingBlock: TEMPAE_clean_linker_10, # of connection points: 2
#     Edge 44, Type (0, 0), BuildingBlock: TEMPAE_clean_linker_10, # of connection points: 2
#     Edge 45, Type (0, 0), BuildingBlock: TEMPAE_clean_linker_10, # of connection points: 2
#     Edge 46, Type (0, 0), BuildingBlock: TEMPAE_clean_linker_10, # of connection points: 2
#     Edge 47, Type (0, 0), BuildingBlock: TEMPAE_clean_linker_10, # of connection points: 2
#     Edge 48, Type (0, 0), BuildingBlock: TEMPAE_clean_linker_10, # of connection points: 2
#     Edge 49, Type (0, 0), BuildingBlock: TEMPAE_clean_linker_10, # of connection points: 2
#     Edge 50, Type (0, 0), BuildingBlock: TEMPAE_clean_linker_10, # of connection points: 2
#     Edge 51, Type (0, 0), BuildingBlock: TEMPAE_clean_linker_10, # of connection points: 2
#     Edge 52, Type (0, 0), BuildingBlock: TEMPAE_clean_linker_10, # of connection points: 2
#     Edge 53, Type (0, 0), BuildingBlock: TEMPAE_clean_linker_10, # of connection points: 2
#     Edge 54, Type (0, 0), BuildingBlock: TEMPAE_clean_linker_10, # of connection points: 2
#     Edge 55, Type (0, 0), BuildingBlock: TEMPAE_clean_linker_10, # of connection points: 2
# Relax obj value: 0.027
# Max RMSD: 0.076
# Mean RMSD: 0.076
data_MOF--net-zga--node1-XOMCOT_clean_sbu_0--edge1-TEMPAE_clean_linker_10
_symmetry_space_group_name_H-M    P1
_symmetry_Int_Tables_number       1
_symmetry_cell_setting            triclinic
loop_
_symmetry_equiv_pos_as_xyz
'x, y, z'
_cell_length_a     50.604273
_cell_length_b     105.75023
_cell_length_c     17.853961
_cell_angle_alpha  91.6845
_cell_angle_beta   89.979835
_cell_angle_gamma 90.046627
loop_
_atom_site_label
_atom_site_type_symbol
_atom_site_fract_x
_atom_site_fract_y
_atom_site_fract_z
_atom_type_partial_charge
Co0 Co 0.12493 0.54336 0.13049 0.0
C1 C 0.13082 0.54364 0.96306 0.0
C2 C 0.15163 0.52835 0.01233 0.0
C3 C 0.15331 0.52692 0.93562 0.0
N4 N 0.1379 0.53896 0.03007 0.0
N5 N 0.1402 0.53653 0.9047 0.0
H6 H 0.11741 0.55141 0.95612 0.0
H7 H 0.15874 0.52167 0.05233 0.0
C8 C 0.1831 0.53841 0.15658 0.0
O9 O 0.18932 0.54635 0.10417 0.0
N10 N 0.11188 0.54735 0.23052 0.0
C11 C 0.09227 0.55547 0.24894 0.0
C12 C 0.0895 0.55594 0.32581 0.0
C13 C 0.1209 0.54305 0.29634 0.0
N14 N 0.1076 0.54818 0.3555 0.0
C15 C 0.12513 0.56881 0.0782 0.0
C16 C 0.16102 0.57884 0.18011 0.0
C17 C 0.14888 0.58703 0.12988 0.0
C18 C 0.13076 0.58176 0.07843 0.0
C19 C 0.15492 0.56586 0.17762 0.0
N20 N 0.13769 0.56087 0.12552 0.0
H21 H 0.10934 0.5654 0.04278 0.0
H22 H 0.16327 0.55996 0.21987 0.0
H23 H 0.08103 0.56083 0.20933 0.0
H24 H 0.1368 0.53629 0.30115 0.0
O25 O 0.08971 0.54556 0.08945 0.0
O26 O 0.10556 0.52751 0.12997 0.0
O27 O 0.15894 0.53678 0.17499 0.0
C28 C 0.08602 0.53358 0.10019 0.0
H29 H 0.16275 0.51918 0.90497 0.0
H30 H 0.07573 0.56181 0.35755 0.0
H31 H 0.17478 0.58246 0.22198 0.0
H32 H 0.11986 0.5877 0.04091 0.0
Co33 Co 0.12564 0.72681 0.14255 0.0
C34 C 0.13236 0.72695 0.3102 0.0
C35 C 0.14532 0.74409 0.26065 0.0
C36 C 0.14684 0.74564 0.33729 0.0
N37 N 0.1365 0.73232 0.24318 0.0
N38 N 0.13862 0.73487 0.36846 0.0
H39 H 0.12352 0.7178 0.31728 0.0
H40 H 0.14947 0.75124 0.22019 0.0
C41 C 0.1835 0.73332 0.13004 0.0
O42 O 0.18764 0.72807 0.19476 0.0
N43 N 0.11451 0.72173 0.04245 0.0
C44 C 0.09681 0.71266 0.0239 0.0
C45 C 0.09462 0.71188 0.94693 0.0
C46 C 0.12291 0.72633 0.97677 0.0
N47 N 0.1111 0.72045 0.91736 0.0
C48 C 0.12299 0.70173 0.19853 0.0
C49 C 0.16303 0.69115 0.11246 0.0
C50 C 0.14729 0.68313 0.15538 0.0
C51 C 0.12745 0.68871 0.19997 0.0
C52 C 0.15797 0.70424 0.1129 0.0
N53 N 0.13821 0.70946 0.15616 0.0
H54 H 0.10615 0.70543 0.22886 0.0
H55 H 0.16895 0.70997 0.07475 0.0
H56 H 0.08638 0.70694 0.06355 0.0
H57 H 0.13714 0.73392 0.97244 0.0
O58 O 0.08981 0.72494 0.17942 0.0
O59 O 0.1061 0.74255 0.13412 0.0
O60 O 0.16056 0.73286 0.09996 0.0
C61 C 0.08623 0.73674 0.16411 0.0
H62 H 0.15296 0.75414 0.36775 0.0
H63 H 0.08224 0.70532 0.91514 0.0
H64 H 0.17821 0.68727 0.0757 0.0
H65 H 0.11475 0.68301 0.23428 0.0
Co66 Co 0.88102 0.47832 0.89536 0.0
C67 C 0.87787 0.47869 0.06288 0.0
C68 C 0.84502 0.48832 0.0153 0.0
C69 C 0.84278 0.4891 0.0921 0.0
N70 N 0.86659 0.4814 0.99626 0.0
N71 N 0.86348 0.48308 0.12188 0.0
H72 H 0.89657 0.47389 0.06867 0.0
H73 H 0.83234 0.49317 0.97716 0.0
C74 C 0.82292 0.4816 0.85059 0.0
O75 O 0.81545 0.47184 0.88918 0.0
N76 N 0.8957 0.47546 0.79585 0.0
C77 C 0.91453 0.46691 0.77773 0.0
C78 C 0.91747 0.46636 0.70109 0.0
C79 C 0.88756 0.4801 0.7299 0.0
N80 N 0.90044 0.4746 0.67098 0.0
C81 C 0.87902 0.45295 0.94822 0.0
C82 C 0.85208 0.44205 0.8282 0.0
C83 C 0.86197 0.43414 0.88355 0.0
C84 C 0.87532 0.43984 0.94449 0.0
C85 C 0.85644 0.45519 0.8338 0.0
N86 N 0.8695 0.46056 0.89393 0.0
H87 H 0.89088 0.45685 0.99315 0.0
H88 H 0.85015 0.46097 0.78821 0.0
H89 H 0.92467 0.46108 0.81733 0.0
H90 H 0.8717 0.48687 0.72464 0.0
O91 O 0.91614 0.47616 0.93723 0.0
O92 O 0.89903 0.49447 0.90432 0.0
O93 O 0.84727 0.48484 0.84845 0.0
C94 C 0.9189 0.48834 0.93181 0.0
H95 H 0.82775 0.49423 0.12372 0.0
H96 H 0.93075 0.46016 0.66981 0.0
H97 H 0.84214 0.43807 0.77926 0.0
H98 H 0.88344 0.43417 0.98845 0.0
Co99 Co 0.88346 0.2941 0.86083 0.0
C100 C 0.87727 0.2942 0.69344 0.0
C101 C 0.86125 0.27761 0.74255 0.0
C102 C 0.85977 0.27613 0.66587 0.0
N103 N 0.87194 0.289 0.76026 0.0
N104 N 0.8699 0.28655 0.63501 0.0
H105 H 0.88782 0.30293 0.68673 0.0
H106 H 0.85593 0.2706 0.78279 0.0
C107 C 0.82529 0.28841 0.87637 0.0
O108 O 0.82085 0.29508 0.81669 0.0
N109 N 0.89519 0.29881 0.96096 0.0
C110 C 0.91371 0.30752 0.97931 0.0
C111 C 0.91618 0.3082 0.0562 0.0
C112 C 0.88655 0.29434 0.02675 0.0
N113 N 0.89905 0.29994 0.08595 0.0
C114 C 0.88584 0.31938 0.807 0.0
C115 C 0.84614 0.32975 0.89514 0.0
C116 C 0.86099 0.33787 0.85025 0.0
C117 C 0.88101 0.33239 0.80568 0.0
C118 C 0.85175 0.31672 0.89509 0.0
N119 N 0.87104 0.31157 0.84994 0.0
H120 H 0.90267 0.31578 0.77625 0.0
H121 H 0.84132 0.31095 0.93424 0.0
H122 H 0.92449 0.31307 0.93957 0.0
H123 H 0.87164 0.28707 0.03133 0.0
O124 O 0.9192 0.29597 0.82278 0.0
O125 O 0.90281 0.27826 0.86651 0.0
O126 O 0.84868 0.28787 0.90341 0.0
C127 C 0.92268 0.2841 0.83679 0.0
H128 H 0.8524 0.26788 0.63519 0.0
H129 H 0.92919 0.31448 0.08785 0.0
H130 H 0.83064 0.33344 0.9314 0.0
H131 H 0.89392 0.33818 0.7725 0.0
Co132 Co 0.12818 0.0442 0.63443 0.0
C133 C 0.13414 0.04495 0.46718 0.0
C134 C 0.15673 0.0302 0.51591 0.0
C135 C 0.15849 0.02886 0.43925 0.0
N136 N 0.14183 0.04042 0.53401 0.0
N137 N 0.14425 0.03814 0.40864 0.0
H138 H 0.11977 0.05235 0.46054 0.0
H139 H 0.16446 0.02362 0.55556 0.0
C140 C 0.18667 0.03987 0.66327 0.0
O141 O 0.19315 0.04811 0.61276 0.0
N142 N 0.11448 0.04758 0.73443 0.0
C143 C 0.09401 0.05521 0.75277 0.0
C144 C 0.09112 0.05558 0.82955 0.0
C145 C 0.1239 0.04349 0.8003 0.0
N146 N 0.10999 0.04826 0.85933 0.0
C147 C 0.12647 0.06979 0.58557 0.0
C148 C 0.16132 0.0802 0.68916 0.0
C149 C 0.14808 0.08833 0.64082 0.0
C150 C 0.13069 0.08286 0.58805 0.0
C151 C 0.15647 0.06709 0.6848 0.0
N152 N 0.13962 0.06194 0.63219 0.0
H153 H 0.11133 0.06614 0.54866 0.0
H154 H 0.16537 0.0612 0.72624 0.0
H155 H 0.08231 0.06036 0.7132 0.0
H156 H 0.14057 0.03718 0.80528 0.0
O157 O 0.09276 0.046 0.59372 0.0
O158 O 0.11019 0.02799 0.62999 0.0
O159 O 0.1624 0.03795 0.67934 0.0
C160 C 0.09013 0.03388 0.60178 0.0
H161 H 0.16869 0.02138 0.40839 0.0
H162 H 0.07676 0.06113 0.86119 0.0
H163 H 0.17436 0.08399 0.73235 0.0
H164 H 0.11979 0.08867 0.54982 0.0
Co165 Co 0.13086 0.2284 0.6652 0.0
C166 C 0.13706 0.228 0.8327 0.0
C167 C 0.15452 0.24426 0.78371 0.0
C168 C 0.15617 0.24569 0.86031 0.0
N169 N 0.14286 0.23309 0.76591 0.0
N170 N 0.14513 0.23548 0.8911 0.0
H171 H 0.12563 0.21951 0.83946 0.0
H172 H 0.16034 0.25121 0.74359 0.0
C173 C 0.18925 0.23364 0.64802 0.0
O174 O 0.19384 0.22673 0.70661 0.0
N175 N 0.11869 0.22411 0.56494 0.0
C176 C 0.09973 0.21563 0.5465 0.0
C177 C 0.0972 0.21501 0.46968 0.0
C178 C 0.12757 0.22849 0.49922 0.0
N179 N 0.11477 0.22307 0.44004 0.0
C180 C 0.1284 0.20302 0.7176 0.0
C181 C 0.16686 0.19259 0.62517 0.0
C182 C 0.15258 0.18452 0.67165 0.0
C183 C 0.13321 0.19 0.71842 0.0
C184 C 0.16147 0.20565 0.62632 0.0
N185 N 0.1428 0.21082 0.67352 0.0
H186 H 0.11192 0.20665 0.74971 0.0
H187 H 0.17153 0.21145 0.58653 0.0
H188 H 0.08874 0.21015 0.58614 0.0
H189 H 0.14295 0.23554 0.49464 0.0
O190 O 0.09496 0.22661 0.7025 0.0
O191 O 0.11223 0.24444 0.66308 0.0
O192 O 0.16571 0.2345 0.6225 0.0
C193 C 0.09201 0.2386 0.69095 0.0
H194 H 0.16421 0.25379 0.89102 0.0
H195 H 0.08392 0.20887 0.43798 0.0
H196 H 0.18175 0.18884 0.58708 0.0
H197 H 0.12079 0.1842 0.75297 0.0
Co198 Co 0.88517 0.97847 0.39858 0.0
C199 C 0.88056 0.97853 0.56625 0.0
C200 C 0.85464 0.99192 0.51704 0.0
C201 C 0.85313 0.99342 0.59378 0.0
N202 N 0.87138 0.98235 0.49916 0.0
N203 N 0.86939 0.98496 0.6246 0.0
H204 H 0.89676 0.97205 0.57312 0.0
H205 H 0.84534 0.99801 0.47735 0.0
C206 C 0.82704 0.98249 0.36512 0.0
O207 O 0.82054 0.97369 0.41218 0.0
N208 N 0.89912 0.97509 0.29865 0.0
C209 C 0.9197 0.96755 0.28012 0.0
C210 C 0.92286 0.9674 0.20335 0.0
C211 C 0.88994 0.97937 0.23292 0.0
N212 N 0.90404 0.97478 0.17384 0.0
C213 C 0.88274 0.95305 0.452 0.0
C214 C 0.85331 0.94267 0.33548 0.0
C215 C 0.86338 0.93452 0.38949 0.0
C216 C 0.87777 0.94005 0.4492 0.0
C217 C 0.85829 0.95575 0.34139 0.0
N218 N 0.87268 0.96088 0.39971 0.0
H219 H 0.89612 0.95661 0.49411 0.0
H220 H 0.85158 0.96166 0.29688 0.0
H221 H 0.93134 0.96233 0.3195 0.0
H222 H 0.8733 0.9857 0.22802 0.0
O223 O 0.9201 0.97619 0.4413 0.0
O224 O 0.90417 0.9944 0.40287 0.0
O225 O 0.85135 0.98502 0.35288 0.0
C226 C 0.9236 0.98825 0.43255 0.0
H227 H 0.84159 1.00046 0.62449 0.0
H228 H 0.93737 0.96199 0.17148 0.0
H229 H 0.84268 0.93896 0.28705 0.0
H230 H 0.88596 0.93435 0.49288 0.0
Co231 Co 0.88308 0.79459 0.35837 0.0
C232 C 0.8813 0.79279 0.19107 0.0
C233 C 0.84318 0.78968 0.23971 0.0
C234 C 0.84079 0.78884 0.16299 0.0
N235 N 0.86861 0.79215 0.25773 0.0
N236 N 0.86475 0.79076 0.13238 0.0
H237 H 0.90208 0.79494 0.1852 0.0
H238 H 0.82715 0.78866 0.27901 0.0
C239 C 0.83336 0.79209 0.45656 0.0
O240 O 0.8392 0.80231 0.49691 0.0
N241 N 0.8979 0.79706 0.45896 0.0
C242 C 0.91804 0.8049 0.47769 0.0
C243 C 0.92215 0.80468 0.5536 0.0
C244 C 0.89097 0.79169 0.52419 0.0
N245 N 0.90484 0.79653 0.58331 0.0
C246 C 0.89274 0.82112 0.34344 0.0
C247 C 0.84153 0.82979 0.35845 0.0
C248 C 0.86194 0.83863 0.34981 0.0
C249 C 0.8877 0.83408 0.34087 0.0
C250 C 0.84742 0.81677 0.35897 0.0
N251 N 0.87301 0.81258 0.35579 0.0
H252 H 0.91277 0.81805 0.33451 0.0
H253 H 0.83122 0.81017 0.36052 0.0
H254 H 0.92932 0.81042 0.43926 0.0
H255 H 0.8757 0.78462 0.52895 0.0
O256 O 0.91862 0.79579 0.31769 0.0
O257 O 0.89951 0.77798 0.35031 0.0
O258 O 0.8481 0.78862 0.40141 0.0
C259 C 0.92019 0.78361 0.32368 0.0
H260 H 0.82278 0.78685 0.13214 0.0
H261 H 0.93675 0.81019 0.58454 0.0
H262 H 0.82118 0.83288 0.36293 0.0
H263 H 0.90403 0.84053 0.33266 0.0
Co264 Co 0.62645 0.54525 0.6133 0.0
C265 C 0.63341 0.54544 0.44587 0.0
C266 C 0.64816 0.52861 0.49504 0.0
C267 C 0.6497 0.52712 0.41838 0.0
N268 N 0.63823 0.54015 0.51279 0.0
N269 N 0.64035 0.53769 0.38745 0.0
H270 H 0.62345 0.55432 0.43904 0.0
H271 H 0.65289 0.52151 0.53527 0.0
C272 C 0.68438 0.53914 0.62934 0.0
O273 O 0.68905 0.54495 0.56663 0.0
N274 N 0.61441 0.54991 0.71326 0.0
C275 C 0.59614 0.55871 0.7317 0.0
C276 C 0.59375 0.55942 0.80864 0.0
C277 C 0.62294 0.54539 0.77903 0.0
N278 N 0.61067 0.55108 0.83834 0.0
C279 C 0.62409 0.57056 0.56013 0.0
C280 C 0.66279 0.58097 0.65183 0.0
C281 C 0.64756 0.58911 0.6084 0.0
C282 C 0.62839 0.58362 0.56099 0.0
C283 C 0.65792 0.56786 0.64901 0.0
N284 N 0.63885 0.56272 0.60295 0.0
H285 H 0.60765 0.56691 0.52787 0.0
H286 H 0.66844 0.56202 0.68758 0.0
H287 H 0.58556 0.56435 0.692 0.0
H288 H 0.63766 0.53805 0.78353 0.0
O289 O 0.59086 0.54705 0.57432 0.0
O290 O 0.60721 0.52936 0.61843 0.0
O291 O 0.66109 0.53918 0.65722 0.0
C292 C 0.58745 0.53515 0.58792 0.0
H293 H 0.65651 0.51876 0.38775 0.0
H294 H 0.58099 0.56581 0.84034 0.0
H295 H 0.67739 0.58474 0.69079 0.0
H296 H 0.61608 0.58941 0.5262 0.0
Co297 Co 0.62832 0.72915 0.65245 0.0
C298 C 0.63459 0.72855 0.81985 0.0
C299 C 0.65308 0.74457 0.77114 0.0
C300 C 0.6547 0.74597 0.84774 0.0
N301 N 0.64084 0.73355 0.75311 0.0
N302 N 0.643 0.73591 0.87836 0.0
H303 H 0.6225 0.72027 0.82645 0.0
H304 H 0.65922 0.75149 0.73123 0.0
C305 C 0.6866 0.7343 0.63305 0.0
O306 O 0.69146 0.72707 0.69004 0.0
N307 N 0.61561 0.72516 0.5523 0.0
C308 C 0.59629 0.71686 0.53396 0.0
C309 C 0.59363 0.7163 0.45717 0.0
C310 C 0.62457 0.72949 0.48653 0.0
N311 N 0.61147 0.72421 0.42743 0.0
C312 C 0.62677 0.70358 0.70276 0.0
C313 C 0.66395 0.69355 0.6047 0.0
C314 C 0.6504 0.68528 0.65165 0.0
C315 C 0.63171 0.69056 0.70141 0.0
C316 C 0.6585 0.70659 0.60819 0.0
N317 N 0.64046 0.71156 0.65805 0.0
H318 H 0.61067 0.70708 0.73689 0.0
H319 H 0.66794 0.71254 0.56804 0.0
H320 H 0.58522 0.71142 0.5736 0.0
H321 H 0.64028 0.73637 0.4818 0.0
O322 O 0.59264 0.72719 0.69114 0.0
O323 O 0.60964 0.74518 0.65299 0.0
O324 O 0.66291 0.73542 0.60908 0.0
C325 C 0.58961 0.73924 0.6811 0.0
H326 H 0.66308 0.75397 0.87857 0.0
H327 H 0.58011 0.71028 0.42554 0.0
H328 H 0.67829 0.68995 0.56442 0.0
H329 H 0.61988 0.6846 0.73657 0.0
Co330 Co 0.38325 0.47794 0.39637 0.0
C331 C 0.37652 0.47751 0.56407 0.0
C332 C 0.35976 0.49388 0.51477 0.0
C333 C 0.35808 0.49536 0.59133 0.0
N334 N 0.37097 0.4826 0.49708 0.0
N335 N 0.36868 0.48508 0.62235 0.0
H336 H 0.38769 0.46897 0.57118 0.0
H337 H 0.35428 0.50086 0.47454 0.0
C338 C 0.32505 0.48324 0.37935 0.0
O339 O 0.32053 0.47713 0.44109 0.0
N340 N 0.39576 0.47377 0.29625 0.0
C341 C 0.41472 0.46531 0.27771 0.0
C342 C 0.41722 0.46471 0.20084 0.0
C343 C 0.38689 0.47817 0.23058 0.0
N344 N 0.39965 0.47276 0.17129 0.0
C345 C 0.38511 0.45251 0.44874 0.0
C346 C 0.34834 0.44215 0.35059 0.0
C347 C 0.36217 0.43397 0.39743 0.0
C348 C 0.38035 0.43948 0.44813 0.0
C349 C 0.35327 0.45525 0.35431 0.0
N350 N 0.37131 0.46036 0.40366 0.0
H351 H 0.40111 0.45613 0.48285 0.0
H352 H 0.34367 0.46111 0.31402 0.0
H353 H 0.42565 0.4598 0.31727 0.0
H354 H 0.3715 0.4852 0.2261 0.0
O355 O 0.41901 0.47624 0.43465 0.0
O356 O 0.40164 0.49404 0.395 0.0
O357 O 0.34846 0.4838 0.35261 0.0
C358 C 0.42178 0.48827 0.42363 0.0
H359 H 0.35035 0.50354 0.62186 0.0
H360 H 0.43045 0.45856 0.16905 0.0
H361 H 0.33471 0.43847 0.30864 0.0
H362 H 0.39158 0.43377 0.48604 0.0
Co363 Co 0.38485 0.29472 0.37004 0.0
C364 C 0.38266 0.29381 0.20347 0.0
C365 C 0.34955 0.28423 0.25105 0.0
C366 C 0.34752 0.28338 0.17412 0.0
N367 N 0.37156 0.2908 0.26967 0.0
N368 N 0.3684 0.28935 0.14426 0.0
H369 H 0.40071 0.29921 0.1985 0.0
H370 H 0.33591 0.28014 0.29006 0.0
C371 C 0.3357 0.29155 0.46995 0.0
O372 O 0.34114 0.30184 0.51013 0.0
N373 N 0.3986 0.29865 0.47029 0.0
C374 C 0.41518 0.3082 0.48918 0.0
C375 C 0.41888 0.30851 0.56544 0.0
C376 C 0.39354 0.29287 0.53561 0.0
N377 N 0.40497 0.299 0.59499 0.0
C378 C 0.39147 0.32104 0.34035 0.0
C379 C 0.34048 0.32913 0.36788 0.0
C380 C 0.35997 0.33817 0.35302 0.0
C381 C 0.38552 0.3339 0.33699 0.0
C382 C 0.34718 0.3162 0.36862 0.0
N383 N 0.37286 0.31234 0.36002 0.0
H384 H 0.41149 0.31821 0.32834 0.0
H385 H 0.33154 0.30944 0.37546 0.0
H386 H 0.42406 0.31463 0.45072 0.0
H387 H 0.38085 0.2847 0.54018 0.0
O388 O 0.42021 0.29636 0.32911 0.0
O389 O 0.40337 0.27856 0.3699 0.0
O390 O 0.35018 0.28837 0.41362 0.0
C391 C 0.42319 0.28436 0.33963 0.0
H392 H 0.33216 0.2785 0.14253 0.0
H393 H 0.43073 0.31535 0.59684 0.0
H394 H 0.32022 0.33201 0.37782 0.0
H395 H 0.4011 0.34051 0.32391 0.0
Co396 Co 0.62823 0.0444 0.12379 0.0
C397 C 0.63504 0.04452 0.95619 0.0
C398 C 0.6502 0.02781 1.00558 0.0
C399 C 0.65166 0.02627 0.92892 0.0
N400 N 0.64013 0.03933 0.02323 0.0
N401 N 0.64206 0.03677 0.89787 0.0
H402 H 0.62471 0.05329 0.9491 0.0
H403 H 0.65503 0.02073 0.04587 0.0
C404 C 0.68579 0.03798 0.14114 0.0
O405 O 0.69072 0.04401 0.07936 0.0
N406 N 0.61603 0.04898 0.22375 0.0
C407 C 0.59792 0.05786 0.24224 0.0
C408 C 0.59544 0.05853 0.31918 0.0
C409 C 0.62439 0.04439 0.28949 0.0
N410 N 0.61217 0.05008 0.34881 0.0
C411 C 0.62898 0.06982 0.07033 0.0
C412 C 0.6663 0.07937 0.16973 0.0
C413 C 0.6536 0.08773 0.12193 0.0
C414 C 0.63501 0.08275 0.07108 0.0
C415 C 0.66018 0.0664 0.16579 0.0
N416 N 0.64192 0.06168 0.11571 0.0
H417 H 0.61259 0.06659 0.03645 0.0
H418 H 0.66904 0.06036 0.20642 0.0
H419 H 0.58756 0.0636 0.20261 0.0
H420 H 0.63901 0.03699 0.294 0.0
O421 O 0.59294 0.0468 0.08379 0.0
O422 O 0.60808 0.02879 0.127 0.0
O423 O 0.66237 0.03783 0.16806 0.0
C424 C 0.5888 0.03491 0.0964 0.0
H425 H 0.65854 0.01791 0.8984 0.0
H426 H 0.5828 0.06496 0.35094 0.0
H427 H 0.68034 0.08288 0.21115 0.0
H428 H 0.62398 0.08892 0.03521 0.0
Co429 Co 0.62747 0.22779 0.14348 0.0
C430 C 0.63134 0.22723 0.30969 0.0
C431 C 0.65407 0.24225 0.26295 0.0
C432 C 0.65472 0.24362 0.33973 0.0
N433 N 0.63945 0.23199 0.24402 0.0
N434 N 0.64041 0.23422 0.36903 0.0
H435 H 0.61781 0.21936 0.31392 0.0
H436 H 0.66243 0.24872 0.22364 0.0
C437 C 0.67768 0.23061 0.04768 0.0
O438 O 0.67164 0.2207 1.00489 0.0
N439 N 0.61496 0.22383 0.04244 0.0
C440 C 0.59805 0.21448 0.02205 0.0
C441 C 0.59394 0.21474 0.94594 0.0
C442 C 0.62012 0.22994 0.97849 0.0
N443 N 0.60807 0.22436 0.91852 0.0
C444 C 0.61884 0.20179 0.17733 0.0
C445 C 0.66829 0.19235 0.14334 0.0
C446 C 0.6479 0.18371 0.15854 0.0
C447 C 0.62328 0.18879 0.17922 0.0
C448 C 0.66313 0.20545 0.14416 0.0
N449 N 0.6381 0.21 0.15573 0.0
H450 H 0.59935 0.20513 0.19168 0.0
H451 H 0.67941 0.21176 0.13532 0.0
H452 H 0.58915 0.20788 0.05951 0.0
H453 H 0.63268 0.23819 0.97553 0.0
O454 O 0.59129 0.22672 0.17938 0.0
O455 O 0.61009 0.24423 0.14116 0.0
O456 O 0.66329 0.23361 0.10454 0.0
C457 C 0.58931 0.23874 0.16824 0.0
H458 H 0.6643 0.25119 0.37164 0.0
H459 H 0.58215 0.2081 0.91289 0.0
H460 H 0.68799 0.18908 0.12931 0.0
H461 H 0.60716 0.18278 0.19621 0.0
Co462 Co 0.38465 0.97786 0.90379 0.0
C463 C 0.37787 0.97749 0.07123 0.0
C464 C 0.36293 0.99432 0.02248 0.0
C465 C 0.36131 0.99575 0.09908 0.0
N466 N 0.37302 0.98282 1.00451 0.0
N467 N 0.37078 0.98518 0.12976 0.0
H468 H 0.38787 0.96861 0.0778 0.0
H469 H 0.35808 1.00143 0.9824 0.0
C470 C 0.32643 0.98369 0.88936 0.0
O471 O 0.32199 0.97819 0.95317 0.0
N472 N 0.39655 0.97332 0.80364 0.0
C473 C 0.41511 0.96465 0.78526 0.0
C474 C 0.41743 0.9639 0.70838 0.0
C475 C 0.38774 0.9777 0.73787 0.0
N476 N 0.40017 0.97208 0.67865 0.0
C477 C 0.38837 0.95256 0.95656 0.0
C478 C 0.34864 0.94191 0.86947 0.0
C479 C 0.36435 0.9339 0.91239 0.0
C480 C 0.38414 0.9395 0.95722 0.0
C481 C 0.35352 0.95502 0.87052 0.0
N482 N 0.37305 0.96027 0.91448 0.0
H483 H 0.40501 0.95634 0.98751 0.0
H484 H 0.34249 0.96075 0.83257 0.0
H485 H 0.42596 0.95913 0.82499 0.0
H486 H 0.37271 0.98491 0.73332 0.0
O487 O 0.42069 0.97643 0.9405 0.0
O488 O 0.40286 0.99399 0.89924 0.0
O489 O 0.34961 0.98357 0.86073 0.0
C490 C 0.42323 0.98841 0.92783 0.0
H491 H 0.35434 1.00406 0.12986 0.0
H492 H 0.4304 0.9576 0.67676 0.0
H493 H 0.33355 0.93803 0.83242 0.0
H494 H 0.39684 0.9338 0.99144 0.0
Co495 Co 0.38296 0.79393 0.87737 0.0
C496 C 0.37692 0.79429 0.71005 0.0
C497 C 0.35587 0.77906 0.75924 0.0
C498 C 0.35421 0.77763 0.68252 0.0
N499 N 0.36975 0.78963 0.77704 0.0
N500 N 0.36747 0.78722 0.65164 0.0
H501 H 0.39049 0.80202 0.70315 0.0
H502 H 0.34869 0.77238 0.79919 0.0
C503 C 0.32477 0.78893 0.90473 0.0
O504 O 0.31841 0.79692 0.85272 0.0
N505 N 0.39625 0.79782 0.97728 0.0
C506 C 0.41603 0.80587 0.99558 0.0
C507 C 0.41884 0.80633 0.07244 0.0
C508 C 0.38719 0.79356 0.04318 0.0
N509 N 0.40062 0.79863 0.10227 0.0
C510 C 0.38296 0.81943 0.82604 0.0
C511 C 0.34768 0.82949 0.92953 0.0
C512 C 0.36003 0.83772 0.87983 0.0
C513 C 0.3778 0.83242 0.82747 0.0
C514 C 0.35332 0.81646 0.92585 0.0
N515 N 0.37033 0.81147 0.87316 0.0
H516 H 0.39853 0.816 0.78993 0.0
H517 H 0.34487 0.81052 0.9678 0.0
H518 H 0.42733 0.81121 0.95591 0.0
H519 H 0.37115 0.78687 0.04812 0.0
O520 O 0.41808 0.79615 0.83552 0.0
O521 O 0.40229 0.77807 0.87602 0.0
O522 O 0.349 0.78731 0.92246 0.0
C523 C 0.42173 0.78416 0.84586 0.0
H524 H 0.3447 0.76991 0.65183 0.0
H525 H 0.43273 0.81216 0.10408 0.0
H526 H 0.33415 0.83311 0.97198 0.0
H527 H 0.38883 0.83836 0.7902 0.0
C528 C 0.28496 0.49697 0.39148 0.0
C529 C 0.30364 0.49077 0.34546 0.0
C530 C 0.26568 0.50493 0.36125 0.0
C531 C 0.26436 0.5064 0.28265 0.0
C532 C 0.28283 0.49989 0.23574 0.0
C533 C 0.30255 0.49236 0.26783 0.0
C534 C 0.24705 0.51199 0.41366 0.0
C535 C 0.28164 0.50081 0.1516 0.0
C536 C 0.19835 0.51777 0.20608 0.0
C537 C 0.20386 0.5304 0.18992 0.0
C538 C 0.21798 0.50979 0.2344 0.0
C539 C 0.24357 0.51468 0.24979 0.0
C540 C 0.24907 0.52752 0.2349 0.0
C541 C 0.22931 0.53515 0.20374 0.0
C542 C 0.21142 0.49608 0.2469 0.0
C543 C 0.27572 0.53326 0.25288 0.0
H544 H 0.286 0.49593 0.45165 0.0
H545 H 0.31695 0.48757 0.23207 0.0
H546 H 0.24851 0.52231 0.40467 0.0
H547 H 0.22635 0.50915 0.40164 0.0
H548 H 0.25132 0.51023 0.47348 0.0
H549 H 0.29674 0.49478 0.12287 0.0
H550 H 0.26178 0.4979 0.13108 0.0
H551 H 0.28474 0.51074 0.13543 0.0
H552 H 0.17878 0.514 0.19457 0.0
H553 H 0.23361 0.54492 0.19157 0.0
H554 H 0.21332 0.49402 0.30718 0.0
H555 H 0.22563 0.48988 0.21591 0.0
H556 H 0.19107 0.49359 0.22839 0.0
H557 H 0.28035 0.5321 0.31305 0.0
H558 H 0.27657 0.54349 0.24054 0.0
H559 H 0.29135 0.52827 0.22004 0.0
C560 C 0.04844 0.74051 0.25164 0.0
C561 C 0.06143 0.74339 0.18493 0.0
C562 C 0.0255 0.74705 0.2746 0.0
C563 C 0.01464 0.75638 0.22824 0.0
C564 C 0.02738 0.7591 0.15973 0.0
C565 C 0.05095 0.75276 0.13969 0.0
C566 C 0.01323 0.74417 0.34929 0.0
C567 C 0.01602 0.76864 0.10739 0.0
C568 C 0.94215 0.7648 0.2623 0.0
C569 C 0.94419 0.77657 0.29995 0.0
C570 C 0.96485 0.75828 0.23688 0.0
C571 C 0.99025 0.76342 0.2522 0.0
C572 C 0.99233 0.77522 0.29158 0.0
C573 C 0.96927 0.78177 0.31354 0.0
C574 C 0.96165 0.74598 0.19276 0.0
C575 C 0.01893 0.78085 0.31159 0.0
H576 H 0.05671 0.73337 0.28716 0.0
H577 H 0.06092 0.75495 0.0879 0.0
H578 H 0.01212 0.75294 0.38486 0.0
H579 H 0.99274 0.74068 0.34113 0.0
H580 H 0.02459 0.73696 0.37983 0.0
H581 H 0.02734 0.76909 0.05421 0.0
H582 H 0.99517 0.76621 0.094 0.0
H583 H 0.01602 0.77817 0.13493 0.0
H584 H 0.92272 0.76086 0.25094 0.0
H585 H 0.97085 0.79086 0.34298 0.0
H586 H 0.97084 0.73815 0.22345 0.0
H587 H 0.972 0.74655 0.13814 0.0
H588 H 0.94057 0.7436 0.18216 0.0
H589 H 0.03055 0.77403 0.34429 0.0
H590 H 0.01716 0.78984 0.34496 0.0
H591 H 0.03028 0.7827 0.25993 0.0
C592 C 0.30992 0.76836 0.9568 0.0
C593 C 0.30409 0.78087 0.9384 0.0
C594 C 0.29038 0.76033 0.98538 0.0
C595 C 0.26451 0.76502 0.99863 0.0
C596 C 0.25865 0.77773 0.98141 0.0
C597 C 0.27835 0.78542 0.95019 0.0
C598 C 0.29737 0.74677 1.00051 0.0
C599 C 0.23166 0.78328 0.99696 0.0
C600 C 0.2063 0.74217 0.01775 0.0
C601 C 0.20474 0.74097 0.09567 0.0
C602 C 0.22591 0.74976 0.98529 0.0
C603 C 0.24381 0.7567 0.03193 0.0
C604 C 0.24201 0.75562 0.11074 0.0
C605 C 0.22284 0.74763 0.14146 0.0
C606 C 0.22759 0.75027 0.90102 0.0
C607 C 0.26002 0.76313 0.16283 0.0
H608 H 0.32969 0.76473 0.94689 0.0
H609 H 0.27376 0.79508 0.93631 0.0
H610 H 0.29513 0.74497 0.06105 0.0
H611 H 0.28362 0.74029 0.9698 0.0
H612 H 0.31794 0.74439 0.9835 0.0
H613 H 0.23049 0.79342 0.98268 0.0
H614 H 0.21646 0.77796 0.96423 0.0
H615 H 0.22669 0.78238 0.05712 0.0
H616 H 0.19238 0.73704 0.98208 0.0
H617 H 0.22148 0.7469 0.20178 0.0
H618 H 0.2477 0.74748 0.88199 0.0
H619 H 0.22419 0.76007 0.88296 0.0
H620 H 0.21293 0.74394 0.87261 0.0
H621 H 0.28089 0.76043 0.15236 0.0
H622 H 0.25543 0.76162 0.22277 0.0
H623 H 0.25823 0.77337 0.15192 0.0
C624 C 0.96808 0.49038 0.93502 0.0
C625 C 0.94322 0.49492 0.95724 0.0
C626 C 0.99136 0.49674 0.95745 0.0
C627 C 0.98975 0.50757 1.00601 0.0
C628 C 0.96459 0.51196 0.03015 0.0
C629 C 0.94161 0.50574 1.00413 0.0
C630 C 0.01763 0.49199 0.92814 0.0
C631 C 0.96194 0.52314 0.08416 0.0
C632 C 0.05211 0.51656 0.11582 0.0
C633 C 0.0612 0.52708 0.07728 0.0
C634 C 0.02861 0.5103 0.09433 0.0
C635 C 0.01436 0.51436 0.03101 0.0
C636 C 0.02374 0.52488 0.99132 0.0
C637 C 0.04676 0.53124 0.01573 0.0
C638 C 0.01891 0.49941 0.13977 0.0
C639 C 0.0097 0.5293 0.92221 0.0
H640 H 0.96926 0.48203 0.89838 0.0
H641 H 0.92233 0.50915 0.02196 0.0
H642 H 0.02806 0.49967 0.89911 0.0
H643 H 0.03035 0.48916 0.97535 0.0
H644 H 0.01543 0.48376 0.88849 0.0
H645 H 0.94108 0.52495 0.10061 0.0
H646 H 0.97367 0.52149 0.13547 0.0
H647 H 0.96995 0.53176 0.05851 0.0
H648 H 0.06316 0.51336 0.1637 0.0
H649 H 0.05389 0.53929 0.98532 0.0
H650 H 0.01859 0.4906 0.10457 0.0
H651 H 0.99835 0.50124 0.15889 0.0
H652 H 0.03151 0.49783 0.18958 0.0
H653 H 0.00816 0.52138 0.88023 0.0
H654 H 0.02004 0.53733 0.89612 0.0
H655 H 0.98929 0.5323 0.93662 0.0
C656 C 0.80773 0.50305 0.81246 0.0
C657 C 0.80274 0.49004 0.81756 0.0
C658 C 0.78861 0.51132 0.78428 0.0
C659 C 0.76407 0.50645 0.7582 0.0
C660 C 0.75908 0.49328 0.7621 0.0
C661 C 0.77828 0.48527 0.79282 0.0
C662 C 0.79457 0.5253 0.7832 0.0
C663 C 0.73356 0.48761 0.73303 0.0
C664 C 0.7045 0.52843 0.73971 0.0
C665 C 0.70545 0.53137 0.66361 0.0
C666 C 0.72365 0.52053 0.77154 0.0
C667 C 0.74386 0.51512 0.72579 0.0
C668 C 0.74483 0.51804 0.64884 0.0
C669 C 0.72587 0.52624 0.61902 0.0
C670 C 0.72224 0.51799 0.8542 0.0
C671 C 0.76559 0.5123 0.59751 0.0
H672 H 0.82645 0.50685 0.83229 0.0
H673 H 0.77432 0.47523 0.79632 0.0
H674 H 0.79434 0.52857 0.72475 0.0
H675 H 0.77908 0.53068 0.81449 0.0
H676 H 0.81411 0.52766 0.80835 0.0
H677 H 0.73295 0.47717 0.73819 0.0
H678 H 0.71658 0.49179 0.76426 0.0
H679 H 0.73092 0.48989 0.67319 0.0
H680 H 0.68884 0.53237 0.77461 0.0
H681 H 0.72658 0.52832 0.55996 0.0
H682 H 0.74121 0.52064 0.88161 0.0
H683 H 0.71916 0.50774 0.86255 0.0
H684 H 0.70598 0.52331 0.88267 0.0
H685 H 0.7856 0.51505 0.61745 0.0
H686 H 0.76334 0.5153 0.53874 0.0
H687 H 0.76443 0.50182 0.59835 0.0
C688 C 0.06806 0.25752 0.74383 0.0
C689 C 0.06721 0.24533 0.71107 0.0
C690 C 0.04474 0.26381 0.7664 0.0
C691 C 0.01986 0.25798 0.75305 0.0
C692 C 0.01896 0.24575 0.71832 0.0
C693 C 0.04266 0.23947 0.69928 0.0
C694 C 0.04675 0.27661 0.80571 0.0
C695 C 0.99294 0.23936 0.70036 0.0
C696 C 0.95876 0.26867 0.86388 0.0
C697 C 0.94753 0.27747 0.81619 0.0
C698 C 0.98258 0.26247 0.84486 0.0
C699 C 0.99482 0.2647 0.77495 0.0
C700 C 0.9831 0.27339 0.72593 0.0
C701 C 0.95993 0.27986 0.74786 0.0
C702 C 0.99485 0.25366 0.90005 0.0
C703 C 0.99479 0.27572 0.64974 0.0
H704 H 0.08707 0.262 0.75383 0.0
H705 H 0.04199 0.23005 0.67361 0.0
H706 H 0.03679 0.28386 0.77209 0.0
H707 H 0.0365 0.27642 0.86063 0.0
H708 H 0.06758 0.27958 0.81521 0.0
H709 H 0.99558 0.23014 0.6699 0.0
H710 H 0.98183 0.23773 0.75274 0.0
H711 H 0.98062 0.24559 0.66558 0.0
H712 H 0.94923 0.26687 0.91692 0.0
H713 H 0.95106 0.28657 0.71054 0.0
H714 H 0.01544 0.25666 0.91257 0.0
H715 H 0.99577 0.24392 0.87543 0.0
H716 H 0.98361 0.25343 0.95345 0.0
H717 H 0.01487 0.27981 0.65593 0.0
H718 H 0.98253 0.28225 0.61672 0.0
H719 H 0.9968 0.26662 0.61761 0.0
C720 C 0.70558 0.25018 0.06839 0.0
C721 C 0.70056 0.23883 0.02783 0.0
C722 C 0.72599 0.25843 0.04748 0.0
C723 C 0.74204 0.25531 0.98457 0.0
C724 C 0.7374 0.24377 0.94418 0.0
C725 C 0.71674 0.23572 0.96604 0.0
C726 C 0.73001 0.27065 0.0919 0.0
C727 C 0.75407 0.24 0.87705 0.0
C728 C 0.77769 0.28148 0.88095 0.0
C729 C 0.80364 0.28058 0.90819 0.0
C730 C 0.75745 0.27349 0.90622 0.0
C731 C 0.7632 0.26424 0.95976 0.0
C732 C 0.78924 0.26343 0.98847 0.0
C733 C 0.80906 0.27161 0.96267 0.0
C734 C 0.72995 0.27484 0.87469 0.0
C735 C 0.79634 0.2537 0.04528 0.0
H736 H 0.69321 0.25276 0.11593 0.0
H737 H 0.7131 0.22703 0.93401 0.0
H738 H 0.75064 0.27128 0.11272 0.0
H739 H 0.72682 0.2788 0.05522 0.0
H740 H 0.71637 0.27156 0.14052 0.0
H741 H 0.74867 0.23051 0.85337 0.0
H742 H 0.75168 0.24703 0.83266 0.0
H743 H 0.77527 0.23993 0.89282 0.0
H744 H 0.77317 0.28836 0.83903 0.0
H745 H 0.829 0.27076 0.98406 0.0
H746 H 0.71554 0.27641 0.92087 0.0
H747 H 0.72414 0.26597 0.84423 0.0
H748 H 0.72842 0.28279 0.83565 0.0
H749 H 0.78339 0.25476 0.09521 0.0
H750 H 0.81726 0.25448 0.0637 0.0
H751 H 0.79302 0.24405 0.0209 0.0
C752 C 0.28681 0.9978 0.90018 0.0
C753 C 0.30531 0.99135 0.85474 0.0
C754 C 0.26793 1.00591 0.86929 0.0
C755 C 0.26686 1.00732 0.7906 0.0
C756 C 0.28514 1.00057 0.74427 0.0
C757 C 0.30443 0.99286 0.77698 0.0
C758 C 0.24945 0.01319 0.9211 0.0
C759 C 0.28423 1.00143 0.66007 0.0
C760 C 0.20139 0.01912 0.71262 0.0
C761 C 0.20726 0.03172 0.69654 0.0
C762 C 0.22073 1.01102 0.74131 0.0
C763 C 0.24643 0.01573 0.75705 0.0
C764 C 0.25234 0.02853 0.74204 0.0
C765 C 0.23284 0.0363 0.71065 0.0
C766 C 0.21372 0.99737 0.75403 0.0
C767 C 0.27914 0.03409 0.76019 0.0
H768 H 0.28766 0.99684 0.96041 0.0
H769 H 0.31868 0.98789 0.74159 0.0
H770 H 0.25133 0.02348 0.9118 0.0
H771 H 0.22868 1.01051 0.90875 0.0
H772 H 0.25349 0.01144 0.98107 0.0
H773 H 0.29923 0.99528 0.63183 0.0
H774 H 0.26434 0.99863 0.63921 0.0
H775 H 0.28764 0.01133 0.6437 0.0
H776 H 0.18175 0.01546 0.70091 0.0
H777 H 0.23745 0.04604 0.69856 0.0
H778 H 0.21538 0.99534 0.81442 0.0
H779 H 0.22781 0.99104 0.72353 0.0
H780 H 0.19334 0.995 0.73514 0.0
H781 H 0.28356 0.03299 0.82055 0.0
H782 H 0.2804 0.04428 0.74721 0.0
H783 H 0.29467 0.02891 0.728 0.0
C784 C 0.20561 0.25006 0.55938 0.0
C785 C 0.2109 0.24144 0.61596 0.0
C786 C 0.22537 0.25819 0.53286 0.0
C787 C 0.25123 0.25774 0.5632 0.0
C788 C 0.25686 0.24887 0.61906 0.0
C789 C 0.23669 0.24088 0.64478 0.0
C790 C 0.21842 0.26748 0.47333 0.0
C791 C 0.28415 0.24795 0.6526 0.0
C792 C 0.30908 0.27148 0.45415 0.0
C793 C 0.3133 0.28318 0.49173 0.0
C794 C 0.28889 0.2632 0.47625 0.0
C795 C 0.2723 0.26663 0.53747 0.0
C796 C 0.2762 0.27849 0.57504 0.0
C797 C 0.29662 0.28658 0.55192 0.0
C798 C 0.28559 0.25065 0.43472 0.0
C799 C 0.25896 0.28259 0.64034 0.0
H800 H 0.1858 0.25063 0.53663 0.0
H801 H 0.24112 0.23429 0.6884 0.0
H802 H 0.22131 0.27729 0.49561 0.0
H803 H 0.23176 0.26617 0.4244 0.0
H804 H 0.19767 0.26643 0.45388 0.0
H805 H 0.2856 0.2403 0.69372 0.0
H806 H 0.29896 0.24616 0.6077 0.0
H807 H 0.28947 0.25705 0.68121 0.0
H808 H 0.32186 0.26867 0.40791 0.0
H809 H 0.29962 0.29556 0.58156 0.0
H810 H 0.26516 0.24973 0.41274 0.0
H811 H 0.28873 0.24281 0.47369 0.0
H812 H 0.29964 0.2495 0.38719 0.0
H813 H 0.23788 0.28246 0.62321 0.0
H814 H 0.26399 0.29223 0.66229 0.0
H815 H 0.26112 0.27585 0.6864 0.0
C816 C 0.96 0.99182 0.52535 0.0
C817 C 0.94819 0.99473 0.45703 0.0
C818 C 0.98281 0.99826 0.55081 0.0
C819 C 0.99475 1.00744 0.50532 0.0
C820 C 0.98314 1.01017 0.43532 0.0
C821 C 0.95968 1.00398 0.41282 0.0
C822 C 0.99385 0.99538 0.62698 0.0
C823 C 0.99567 0.01952 0.38375 0.0
C824 C 0.04092 0.03259 0.59026 0.0
C825 C 0.06579 0.02708 0.57823 0.0
C826 C 0.01763 0.02617 0.56854 0.0
C827 C 0.01931 0.0142 0.53093 0.0
C828 C 0.04451 1.00873 0.51744 0.0
C829 C 0.06739 0.01512 0.54265 0.0
C830 C 0.99122 0.03215 0.5866 0.0
C831 C 0.04733 0.99623 0.47511 0.0
H832 H 0.95092 0.98476 0.55994 0.0
H833 H 0.95061 1.00617 0.35975 0.0
H834 H 0.01415 0.99154 0.6212 0.0
H835 H 0.99519 1.00422 0.66188 0.0
H836 H 0.98154 0.98845 0.65695 0.0
H837 H 0.985 0.02007 0.32957 0.0
H838 H 0.99596 0.02907 0.41103 0.0
H839 H 0.0165 0.0168 0.37224 0.0
H840 H 0.03968 0.04181 0.61821 0.0
H841 H 0.08666 1.01092 0.5326 0.0
H842 H 0.97888 0.02552 0.61862 0.0
H843 H 0.98048 0.03412 0.5341 0.0
H844 H 0.99326 0.04115 0.61984 0.0
H845 H 0.03729 0.98865 0.50595 0.0
H846 H 0.06834 0.99351 0.46651 0.0
H847 H 0.03761 0.99675 0.41956 0.0
C848 C 0.72611 0.02436 0.13008 0.0
C849 C 0.70683 0.03025 0.17547 0.0
C850 C 0.74525 0.01635 0.16055 0.0
C851 C 0.74575 0.01449 0.23885 0.0
C852 C 0.72661 0.02064 0.28519 0.0
C853 C 0.70711 0.02826 0.25278 0.0
C854 C 0.76469 1.00971 0.10868 0.0
C855 C 0.72687 0.01927 0.3691 0.0
C856 C 0.78117 0.98559 0.31476 0.0
C857 C 0.80624 0.99052 0.33197 0.0
C858 C 0.7614 0.99322 0.28367 0.0
C859 C 0.76649 1.00622 0.27204 0.0
C860 C 0.79166 0.01127 0.29078 0.0
C861 C 0.81132 1.00333 0.3192 0.0
C862 C 0.73519 0.98734 0.26226 0.0
C863 C 0.79776 0.02512 0.28156 0.0
H864 H 0.72575 0.02571 0.07013 0.0
H865 H 0.69229 0.03282 0.28812 0.0
H866 H 0.78514 0.01268 0.12303 0.0
H867 H 0.76354 0.99933 0.11575 0.0
H868 H 0.761 0.01174 0.04889 0.0
H869 H 0.71107 0.02491 0.39744 0.0
H870 H 0.72423 1.00919 0.38305 0.0
H871 H 0.74628 0.02235 0.39205 0.0
H872 H 0.77718 0.97569 0.32425 0.0
H873 H 0.83056 1.00724 0.33327 0.0
H874 H 0.73124 0.98873 0.20192 0.0
H875 H 0.719 0.99205 0.29427 0.0
H876 H 0.73457 0.97705 0.27296 0.0
H877 H 0.79644 0.0275 0.22161 0.0
H878 H 0.81779 0.02771 0.30239 0.0
H879 H 0.78296 0.03101 0.31235 0.0
C880 C 0.70258 0.75117 0.54696 0.0
C881 C 0.70815 0.74221 0.60137 0.0
C882 C 0.7223 0.75937 0.52086 0.0
C883 C 0.74838 0.7586 0.54937 0.0
C884 C 0.75425 0.7494 0.60307 0.0
C885 C 0.73413 0.74136 0.62845 0.0
C886 C 0.7151 0.76902 0.4637 0.0
C887 C 0.78179 0.74815 0.63455 0.0
C888 C 0.80565 0.77244 0.43865 0.0
C889 C 0.81068 0.78389 0.4781 0.0
C890 C 0.78537 0.76421 0.46071 0.0
C891 C 0.76947 0.76748 0.52367 0.0
C892 C 0.7741 0.77912 0.56295 0.0
C893 C 0.79463 0.78715 0.53989 0.0
C894 C 0.78127 0.7519 0.41731 0.0
C895 C 0.75757 0.78303 0.63008 0.0
H896 H 0.68263 0.75197 0.52561 0.0
H897 H 0.73875 0.7345 0.6704 0.0
H898 H 0.71854 0.7787 0.48748 0.0
H899 H 0.72791 0.76786 0.41354 0.0
H900 H 0.69413 0.76824 0.44578 0.0
H901 H 0.78336 0.7403 0.67432 0.0
H902 H 0.79616 0.74646 0.5884 0.0
H903 H 0.78761 0.75709 0.66415 0.0
H904 H 0.81786 0.76977 0.39089 0.0
H905 H 0.79826 0.79594 0.57092 0.0
H906 H 0.76062 0.75125 0.39666 0.0
H907 H 0.78446 0.74383 0.45464 0.0
H908 H 0.79487 0.75086 0.36866 0.0
H909 H 0.73634 0.7831 0.61457 0.0
H910 H 0.76304 0.79255 0.65309 0.0
H911 H 0.75999 0.77608 0.67487 0.0
C912 C 0.45805 0.7686 0.86683 0.0
C913 C 0.44639 0.77769 0.8219 0.0
C914 C 0.48166 0.76249 0.84479 0.0
C915 C 0.49323 0.76513 0.77455 0.0
C916 C 0.48109 0.77412 0.72829 0.0
C917 C 0.45815 0.78049 0.75327 0.0
C918 C 0.49439 0.75335 0.89715 0.0
C919 C 0.49208 0.77688 0.65186 0.0
C920 C 0.56617 0.75797 0.738 0.0
C921 C 0.56499 0.74592 0.70337 0.0
C922 C 0.54305 0.76422 0.76266 0.0
C923 C 0.51804 0.75851 0.74959 0.0
C924 C 0.51679 0.74644 0.71286 0.0
C925 C 0.54031 0.74018 0.69171 0.0
C926 C 0.54544 0.77682 0.80403 0.0
C927 C 0.4906 0.7402 0.69519 0.0
H928 H 0.44902 0.76649 0.92011 0.0
H929 H 0.44894 0.78742 0.71809 0.0
H930 H 0.49502 0.74375 0.87055 0.0
H931 H 0.51512 0.75625 0.90868 0.0
H932 H 0.48367 0.75282 0.95127 0.0
H933 H 0.47954 0.78362 0.62117 0.0
H934 H 0.51223 0.78092 0.65737 0.0
H935 H 0.49375 0.76797 0.61778 0.0
H936 H 0.58528 0.76235 0.74786 0.0
H937 H 0.5394 0.73088 0.66458 0.0
H938 H 0.53571 0.77635 0.85961 0.0
H939 H 0.53517 0.78425 0.77255 0.0
H940 H 0.56635 0.77974 0.8125 0.0
H941 H 0.47991 0.73825 0.74782 0.0
H942 H 0.49296 0.73116 0.66259 0.0
H943 H 0.47804 0.74666 0.66265 0.0
C944 C 0.55213 0.51904 0.60983 0.0
C945 C 0.56299 0.52838 0.56505 0.0
C946 C 0.52886 0.51259 0.58817 0.0
C947 C 0.51682 0.51515 0.51847 0.0
C948 C 0.52815 0.52441 0.47239 0.0
C949 C 0.55076 0.53109 0.49697 0.0
C950 C 0.51697 0.50315 0.64029 0.0
C951 C 0.51666 0.52713 0.39652 0.0
C952 C 0.47102 0.48977 0.4341 0.0
C953 C 0.44607 0.49517 0.4464 0.0
C954 C 0.49422 0.49627 0.45582 0.0
C955 C 0.49236 0.50821 0.4938 0.0
C956 C 0.46707 0.51355 0.50771 0.0
C957 C 0.44428 0.50709 0.48244 0.0
C958 C 0.52072 0.49043 0.43723 0.0
C959 C 0.46405 0.526 0.5504 0.0
H960 H 0.56154 0.51697 0.66263 0.0
H961 H 0.55936 0.5382 0.46179 0.0
H962 H 0.49612 0.5057 0.65272 0.0
H963 H 0.51685 0.49359 0.61304 0.0
H964 H 0.52797 0.50268 0.69398 0.0
H965 H 0.52859 0.53413 0.36588 0.0
H966 H 0.51544 0.51826 0.36192 0.0
H967 H 0.49626 0.53084 0.40295 0.0
H968 H 0.47239 0.48056 0.40598 0.0
H969 H 0.42495 0.51119 0.49287 0.0
H970 H 0.53171 0.48858 0.48948 0.0
H971 H 0.53276 0.49711 0.40464 0.0
H972 H 0.51881 0.4814 0.4043 0.0
H973 H 0.4741 0.52554 0.6055 0.0
H974 H 0.443 0.52855 0.55995 0.0
H975 H 0.47364 0.53367 0.51923 0.0
C976 C 0.45926 0.26851 0.358 0.0
C977 C 0.44732 0.27763 0.31391 0.0
C978 C 0.48271 0.26241 0.3344 0.0
C979 C 0.4938 0.2651 0.26357 0.0
C980 C 0.48127 0.27408 0.21809 0.0
C981 C 0.45854 0.28042 0.24454 0.0
C982 C 0.49584 0.25323 0.38577 0.0
C983 C 0.49166 0.27688 0.14103 0.0
C984 C 0.56648 0.25785 0.22317 0.0
C985 C 0.56496 0.24579 0.18881 0.0
C986 C 0.54354 0.26417 0.2487 0.0
C987 C 0.5184 0.2585 0.23693 0.0
C988 C 0.51681 0.24647 0.19996 0.0
C989 C 0.54014 0.24015 0.17785 0.0
C990 C 0.54626 0.27676 0.29002 0.0
C991 C 0.49047 0.24028 0.18358 0.0
H992 H 0.45065 0.26641 0.41185 0.0
H993 H 0.44912 0.28739 0.21004 0.0
H994 H 0.49638 0.24366 0.35878 0.0
H995 H 0.5166 0.25616 0.39637 0.0
H996 H 0.48545 0.25263 0.44038 0.0
H997 H 0.47885 0.28362 0.11119 0.0
H998 H 0.51183 0.28094 0.14538 0.0
H999 H 0.49313 0.26798 0.10673 0.0
H1000 H 0.58571 0.26213 0.23262 0.0
H1001 H 0.53895 0.23083 0.15107 0.0
H1002 H 0.5372 0.27622 0.34647 0.0
H1003 H 0.53552 0.28418 0.25971 0.0
H1004 H 0.56723 0.27972 0.29655 0.0
H1005 H 0.48026 0.2382 0.23678 0.0
H1006 H 0.49254 0.23132 0.15007 0.0
H1007 H 0.47761 0.24681 0.15252 0.0
C1008 C 0.4455 1.00754 0.98376 0.0
C1009 C 0.44744 0.99548 0.94954 0.0
C1010 C 0.46817 0.01408 1.00918 0.0
C1011 C 0.4935 1.00866 0.99731 0.0
C1012 C 0.49553 0.9966 0.96081 0.0
C1013 C 0.47244 0.99004 0.93891 0.0
C1014 C 0.46495 0.02667 0.0503 0.0
C1015 C 0.52211 0.99067 0.94443 0.0
C1016 C 0.55255 0.03118 1.00347 0.0
C1017 C 0.56408 0.02847 0.07251 0.0
C1018 C 0.5299 0.02466 0.9777 0.0
C1019 C 0.51783 0.01556 0.02349 0.0
C1020 C 0.52911 0.01304 0.09426 0.0
C1021 C 0.55243 0.01933 0.11714 0.0
C1022 C 0.51923 0.0273 0.90078 0.0
C1023 C 0.51642 1.00379 0.1461 0.0
H1024 H 0.42612 0.01167 0.99296 0.0
H1025 H 0.47393 0.98072 0.91224 0.0
H1026 H 0.47422 0.02628 0.10653 0.0
H1027 H 0.47521 0.03419 0.01953 0.0
H1028 H 0.44387 0.02937 0.05733 0.0
H1029 H 0.52037 0.98163 0.91144 0.0
H1030 H 0.53462 0.99729 0.91283 0.0
H1031 H 0.53249 0.98878 0.99761 0.0
H1032 H 0.56178 0.03813 0.96844 0.0
H1033 H 0.56132 0.01726 0.17066 0.0
H1034 H 0.4988 0.03102 0.90528 0.0
H1035 H 0.51835 0.01839 0.86646 0.0
H1036 H 0.53153 0.03425 0.87088 0.0
H1037 H 0.49546 1.00642 0.15616 0.0
H1038 H 0.52673 1.00345 0.20093 0.0
H1039 H 0.51654 0.99416 0.11977 0.0
C1040 C 0.13801 0.54442 0.46098 0.0
C1041 C 0.11228 0.54623 0.43414 0.0
C1042 C 0.1429 0.54296 0.53785 0.0
C1043 C 0.12149 0.54309 0.58911 0.0
C1044 C 0.09543 0.54474 0.56209 0.0
C1045 C 0.09119 0.54639 0.48515 0.0
C1046 C 0.17101 0.54142 0.5643 0.0
C1047 C 0.07199 0.54468 0.61443 0.0
C1048 C 0.13179 0.52768 0.77722 0.0
C1049 C 0.13529 0.53821 0.8259 0.0
C1050 C 0.1271 0.52913 0.70034 0.0
C1051 C 0.1263 0.54142 0.6709 0.0
C1052 C 0.12994 0.5521 0.71976 0.0
C1053 C 0.13413 0.55036 0.79673 0.0
C1054 C 0.12279 0.51751 0.65069 0.0
C1055 C 0.12965 0.56535 0.69061 0.0
H1056 H 0.15441 0.54444 0.42195 0.0
H1057 H 0.07126 0.54765 0.46457 0.0
H1058 H 0.17598 0.54907 0.60583 0.0
H1059 H 0.17321 0.53231 0.59284 0.0
H1060 H 0.18547 0.54167 0.51752 0.0
H1061 H 0.05296 0.54583 0.58441 0.0
H1062 H 0.07139 0.53565 0.6446 0.0
H1063 H 0.07392 0.55243 0.65728 0.0
H1064 H 0.13227 0.51827 0.79961 0.0
H1065 H 0.13705 0.55851 0.83406 0.0
H1066 H 0.13801 0.51703 0.60599 0.0
H1067 H 0.10326 0.51806 0.62271 0.0
H1068 H 0.12361 0.50864 0.68242 0.0
H1069 H 0.145 0.56629 0.64672 0.0
H1070 H 0.13327 0.57263 0.73558 0.0
H1071 H 0.11029 0.56729 0.6642 0.0
C1072 C 0.09473 0.72086 0.78698 0.0
C1073 C 0.11536 0.72265 0.83873 0.0
C1074 C 0.09858 0.7228 0.71018 0.0
C1075 C 0.12379 0.72649 0.684 0.0
C1076 C 0.14475 0.72827 0.73594 0.0
C1077 C 0.14024 0.72642 0.81265 0.0
C1078 C 0.07557 0.72101 0.65707 0.0
C1079 C 0.17199 0.73206 0.71041 0.0
C1080 C 0.13862 0.72065 0.47617 0.0
C1081 C 0.13506 0.73274 0.44744 0.0
C1082 C 0.1354 0.71851 0.55311 0.0
C1083 C 0.12805 0.72865 0.60246 0.0
C1084 C 0.12427 0.74085 0.57361 0.0
C1085 C 0.12797 0.74275 0.49671 0.0
C1086 C 0.13992 0.70539 0.58164 0.0
C1087 C 0.11601 0.75189 0.62384 0.0
H1088 H 0.0754 0.71811 0.80682 0.0
H1089 H 0.15634 0.72767 0.85213 0.0
H1090 H 0.07175 0.72991 0.62756 0.0
H1091 H 0.08037 0.71363 0.61375 0.0
H1092 H 0.0572 0.7182 0.68634 0.0
H1093 H 0.18633 0.73273 0.75745 0.0
H1094 H 0.17946 0.72509 0.66786 0.0
H1095 H 0.17109 0.74137 0.68338 0.0
H1096 H 0.14433 0.71291 0.43852 0.0
H1097 H 0.12477 0.75207 0.47481 0.0
H1098 H 0.12153 0.70181 0.6074 0.0
H1099 H 0.15532 0.70569 0.62589 0.0
H1100 H 0.14618 0.6986 0.53643 0.0
H1101 H 0.09684 0.74977 0.65096 0.0
H1102 H 0.11394 0.76078 0.59275 0.0
H1103 H 0.13074 0.75345 0.66918 0.0
C1104 C 0.89787 0.46585 0.54139 0.0
C1105 C 0.89543 0.47617 0.59211 0.0
C1106 C 0.89297 0.46712 0.46454 0.0
C1107 C 0.88576 0.47906 0.43716 0.0
C1108 C 0.88343 0.48957 0.48797 0.0
C1109 C 0.88806 0.48797 0.56492 0.0
C1110 C 0.89515 0.45561 0.41278 0.0
C1111 C 0.87613 0.5025 0.461 0.0
C1112 C 0.89511 0.48357 0.22745 0.0
C1113 C 0.86924 0.48207 0.20058 0.0
C1114 C 0.9007 0.48294 0.3045 0.0
C1115 C 0.88002 0.48042 0.35563 0.0
C1116 C 0.8539 0.47879 0.32845 0.0
C1117 C 0.84881 0.47979 0.25147 0.0
C1118 C 0.92871 0.485 0.33122 0.0
C1119 C 0.83137 0.4758 0.38053 0.0
H1120 H 0.90311 0.45666 0.56212 0.0
H1121 H 0.88634 0.49599 0.60377 0.0
H1122 H 0.87594 0.45381 0.38445 0.0
H1123 H 0.91 0.4573 0.36844 0.0
H1124 H 0.90092 0.44699 0.44291 0.0
H1125 H 0.87603 0.50978 0.50714 0.0
H1126 H 0.89031 0.50543 0.41735 0.0
H1127 H 0.85625 0.50218 0.43489 0.0
H1128 H 0.91085 0.48551 0.18825 0.0
H1129 H 0.82885 0.47853 0.23059 0.0
H1130 H 0.93615 0.47633 0.35759 0.0
H1131 H 0.92928 0.49273 0.37459 0.0
H1132 H 0.94228 0.48744 0.28489 0.0
H1133 H 0.83555 0.46688 0.40951 0.0
H1134 H 0.81223 0.47477 0.35049 0.0
H1135 H 0.82936 0.4834 0.42434 0.0
C1136 C 0.86951 0.29482 0.19136 0.0
C1137 C 0.89474 0.29783 0.16463 0.0
C1138 C 0.86496 0.29314 0.2682 0.0
C1139 C 0.88624 0.29431 0.31956 0.0
C1140 C 0.91182 0.29721 0.29271 0.0
C1141 C 0.91571 0.29902 0.21579 0.0
C1142 C 0.83734 0.2902 0.29451 0.0
C1143 C 0.93515 0.29833 0.34521 0.0
C1144 C 0.87231 0.30071 0.52735 0.0
C1145 C 0.87407 0.28855 0.55617 0.0
C1146 C 0.87593 0.30272 0.45042 0.0
C1147 C 0.88187 0.29234 0.40122 0.0
C1148 C 0.88395 0.28006 0.43025 0.0
C1149 C 0.87986 0.27831 0.50712 0.0
C1150 C 0.87324 0.31594 0.42168 0.0
C1151 C 0.89071 0.26876 0.38019 0.0
H1152 H 0.85318 0.29404 0.15227 0.0
H1153 H 0.9353 0.30119 0.19538 0.0
H1154 H 0.83711 0.281 0.32278 0.0
H1155 H 0.83079 0.29753 0.33624 0.0
H1156 H 0.82288 0.28977 0.24769 0.0
H1157 H 0.9538 0.30052 0.31541 0.0
H1158 H 0.93148 0.30588 0.38839 0.0
H1159 H 0.93781 0.28935 0.37496 0.0
H1160 H 0.86763 0.30863 0.5649 0.0
H1161 H 0.88167 0.26892 0.52918 0.0
H1162 H 0.85772 0.31612 0.37783 0.0
H1163 H 0.89203 0.31889 0.39534 0.0
H1164 H 0.86808 0.32295 0.46688 0.0
H1165 H 0.87569 0.26759 0.33528 0.0
H1166 H 0.89175 0.25986 0.41154 0.0
H1167 H 0.91003 0.2703 0.3525 0.0
C1168 C 0.13644 0.05169 0.30036 0.0
C1169 C 0.1389 0.03961 0.32994 0.0
C1170 C 0.13198 0.05323 0.22334 0.0
C1171 C 0.12942 0.04242 0.17494 0.0
C1172 C 0.13147 0.03021 0.20486 0.0
C1173 C 0.13639 0.02896 0.28174 0.0
C1174 C 0.1303 0.06642 0.1936 0.0
C1175 C 0.12833 0.01843 0.15569 0.0
C1176 C 0.09381 0.04623 0.98895 0.0
C1177 C 0.11489 0.0465 0.938 0.0
C1178 C 0.09823 0.04482 0.06599 0.0
C1179 C 0.12443 0.04386 0.09312 0.0
C1180 C 0.14583 0.04416 0.04191 0.0
C1181 C 0.14079 0.04536 0.96496 0.0
C1182 C 0.07483 0.04429 0.1183 0.0
C1183 C 0.17407 0.04333 0.06852 0.0
H1184 H 0.13857 0.05993 0.33736 0.0
H1185 H 0.13786 0.0196 0.30451 0.0
H1186 H 0.14556 0.06768 0.14979 0.0
H1187 H 0.11078 0.06785 0.16692 0.0
H1188 H 0.13311 0.07383 0.23829 0.0
H1189 H 0.13003 1.00964 0.18784 0.0
H1190 H 0.10878 0.0185 0.12758 0.0
H1191 H 0.1436 0.01824 0.11109 0.0
H1192 H 0.07376 0.04697 0.96825 0.0
H1193 H 0.15715 0.04573 0.92596 0.0
H1194 H 0.07597 0.05213 0.1608 0.0
H1195 H 0.07516 0.0353 0.1489 0.0
H1196 H 0.05569 0.04496 0.0882 0.0
H1197 H 0.17824 0.05115 0.10968 0.0
H1198 H 0.18848 0.04386 0.02174 0.0
H1199 H 0.17722 0.03432 0.09752 0.0
C1200 C 0.14472 0.22765 0.33472 0.0
C1201 C 0.11927 0.22506 0.3614 0.0
C1202 C 0.14944 0.22916 0.25785 0.0
C1203 C 0.12813 0.22825 0.20647 0.0
C1204 C 0.10234 0.22578 0.23327 0.0
C1205 C 0.09828 0.22414 0.31023 0.0
C1206 C 0.17727 0.23164 0.23152 0.0
C1207 C 0.07899 0.22497 0.1807 0.0
C1208 C 0.13562 0.24397 0.0186 0.0
C1209 C 0.14073 0.2336 0.96989 0.0
C1210 C 0.13142 0.24235 0.09549 0.0
C1211 C 0.13267 0.23007 0.12483 0.0
C1212 C 0.13792 0.21956 0.07599 0.0
C1213 C 0.14167 0.22144 0.999 0.0
C1214 C 0.12541 0.25379 0.14522 0.0
C1215 C 0.13973 0.20634 0.10515 0.0
H1216 H 0.16106 0.22821 0.37387 0.0
H1217 H 0.07853 0.2223 0.33066 0.0
H1218 H 0.18335 0.22416 0.19011 0.0
H1219 H 0.17815 0.24079 0.20287 0.0
H1220 H 0.19172 0.23189 0.27839 0.0
H1221 H 0.06019 0.22309 0.21051 0.0
H1222 H 0.07696 0.23395 0.15061 0.0
H1223 H 0.0822 0.21732 0.13781 0.0
H1224 H 0.13445 0.25336 0.99624 0.0
H1225 H 0.14582 0.21343 0.96164 0.0
H1226 H 0.14049 0.25477 0.19009 0.0
H1227 H 0.10598 0.25257 0.17297 0.0
H1228 H 0.12496 0.26268 0.1136 0.0
H1229 H 0.15521 0.20596 0.14902 0.0
H1230 H 0.14444 0.19921 0.06017 0.0
H1231 H 0.12074 0.20369 0.13158 0.0
C1232 C 0.92043 0.97768 0.0451 0.0
C1233 C 0.89924 0.97674 0.09531 0.0
C1234 C 0.91608 0.97931 0.96816 0.0
C1235 C 0.88988 0.97972 0.94031 0.0
C1236 C 0.8684 0.97875 0.99085 0.0
C1237 C 0.87335 0.97741 0.06777 0.0
C1238 C 0.93954 0.98062 0.91668 0.0
C1239 C 0.84018 0.97891 0.96351 0.0
C1240 C 0.87609 0.99437 0.75161 0.0
C1241 C 0.87506 0.98368 0.70327 0.0
C1242 C 0.88126 0.99324 0.82853 0.0
C1243 C 0.88494 0.9811 0.85832 0.0
C1244 C 0.88384 0.97026 0.80971 0.0
C1245 C 0.87923 0.9717 0.7327 0.0
C1246 C 0.8829 1.00506 0.87786 0.0
C1247 C 0.88716 0.95713 0.83923 0.0
H1248 H 0.94045 0.97729 0.06635 0.0
H1249 H 0.85694 0.97653 0.10626 0.0
H1250 H 0.93964 0.97277 0.87411 0.0
H1251 H 0.93807 0.98958 0.88611 0.0
H1252 H 0.95861 0.98055 0.94746 0.0
H1253 H 0.82572 0.97796 0.00984 0.0
H1254 H 0.83612 0.98786 0.93481 0.0
H1255 H 0.83699 0.97105 0.92191 0.0
H1256 H 0.87322 1.00366 0.7289 0.0
H1257 H 0.87821 0.96343 0.69555 0.0
H1258 H 0.90231 1.00549 0.9067 0.0
H1259 H 0.86745 1.00484 0.9219 0.0
H1260 H 0.88034 0.01381 0.8457 0.0
H1261 H 0.90678 0.95624 0.8662 0.0
H1262 H 0.88536 0.94967 0.79436 0.0
H1263 H 0.87202 0.9554 0.88273 0.0
C1264 C 0.89581 0.7868 0.02698 0.0
C1265 C 0.87098 0.7908 0.05335 0.0
C1266 C 0.90191 0.78674 0.95001 0.0
C1267 C 0.88284 0.79094 0.89817 0.0
C1268 C 0.85769 0.79491 0.92452 0.0
C1269 C 0.85207 0.79475 1.00154 0.0
C1270 C 0.92886 0.78232 0.92424 0.0
C1271 C 0.8369 0.79964 0.87151 0.0
C1272 C 0.90594 0.80457 0.71468 0.0
C1273 C 0.9002 0.79476 0.66235 0.0
C1274 C 0.9008 0.80333 0.79135 0.0
C1275 C 0.88963 0.79199 0.81709 0.0
C1276 C 0.88401 0.78197 0.76493 0.0
C1277 C 0.88925 0.78349 0.68816 0.0
C1278 C 0.90678 0.81433 0.84464 0.0
C1279 C 0.87222 0.76969 0.79018 0.0
H1280 H 0.91038 0.78357 0.06653 0.0
H1281 H 0.83296 0.798 0.02149 0.0
H1282 H 0.92682 0.77475 0.88026 0.0
H1283 H 0.93968 0.79026 0.89893 0.0
H1284 H 0.94091 0.77866 0.9709 0.0
H1285 H 0.818 0.80193 0.90049 0.0
H1286 H 0.84415 0.80826 0.84413 0.0
H1287 H 0.83297 0.79242 0.82654 0.0
H1288 H 0.91383 0.81342 0.69552 0.0
H1289 H 0.8849 0.77585 0.6484 0.0
H1290 H 0.92017 0.81126 0.88981 0.0
H1291 H 0.88826 0.81772 0.87171 0.0
H1292 H 0.91615 0.82237 0.81602 0.0
H1293 H 0.88476 0.76561 0.83434 0.0
H1294 H 0.87012 0.76262 0.74333 0.0
H1295 H 0.85244 0.77148 0.81512 0.0
C1296 C 0.64028 0.54567 0.94306 0.0
C1297 C 0.61514 0.54901 0.91702 0.0
C1298 C 0.645 0.54398 0.01982 0.0
C1299 C 0.624 0.5455 0.07189 0.0
C1300 C 0.59852 0.54873 0.04577 0.0
C1301 C 0.59446 0.55052 0.96889 0.0
C1302 C 0.67252 0.54066 0.04525 0.0
C1303 C 0.57546 0.55022 0.099 0.0
C1304 C 0.62975 0.52952 0.25977 0.0
C1305 C 0.63627 0.5397 0.30855 0.0
C1306 C 0.62568 0.53128 0.18289 0.0
C1307 C 0.62851 0.5435 0.15352 0.0
C1308 C 0.63522 0.55382 0.20241 0.0
C1309 C 0.6388 0.55181 0.27938 0.0
C1310 C 0.61808 0.52006 0.13321 0.0
C1311 C 0.63875 0.56697 0.17332 0.0
H1312 H 0.65642 0.54463 0.9035 0.0
H1313 H 0.57493 0.55294 0.94909 0.0
H1314 H 0.67968 0.5479 0.08668 0.0
H1315 H 0.67225 0.53147 0.07359 0.0
H1316 H 0.68677 0.54001 0.99795 0.0
H1317 H 0.55687 0.55267 0.06976 0.0
H1318 H 0.57232 0.5413 0.12901 0.0
H1319 H 0.57978 0.55773 0.14192 0.0
H1320 H 0.62733 0.52018 0.28206 0.0
H1321 H 0.64405 0.55968 0.31669 0.0
H1322 H 0.63287 0.51867 0.08785 0.0
H1323 H 0.59877 0.52184 0.1061 0.0
H1324 H 0.61661 0.51118 0.16473 0.0
H1325 H 0.65412 0.56689 0.12896 0.0
H1326 H 0.64455 0.57392 0.21821 0.0
H1327 H 0.62009 0.5702 0.14751 0.0
C1328 C 0.63353 0.74458 1.00546 0.0
C1329 C 0.63825 0.73413 0.95708 0.0
C1330 C 0.6291 0.74307 0.08234 0.0
C1331 C 0.62974 0.73081 0.11202 0.0
C1332 C 0.63454 0.7202 0.06349 0.0
C1333 C 0.63851 0.72199 0.98649 0.0
C1334 C 0.62357 0.75461 0.13172 0.0
C1335 C 0.63568 0.70699 0.09303 0.0
C1336 C 0.64163 0.72843 0.322 0.0
C1337 C 0.61606 0.72613 0.34876 0.0
C1338 C 0.64643 0.72983 0.24507 0.0
C1339 C 0.62509 0.7291 0.19372 0.0
C1340 C 0.59919 0.72694 0.22061 0.0
C1341 C 0.59503 0.7254 0.29762 0.0
C1342 C 0.67437 0.73198 0.21867 0.0
C1343 C 0.57581 0.72633 0.16806 0.0
H1344 H 0.63286 0.75397 0.98285 0.0
H1345 H 0.64235 0.71391 0.94936 0.0
H1346 H 0.6041 0.75361 0.15955 0.0
H1347 H 0.63869 0.75548 0.17654 0.0
H1348 H 0.6235 0.76347 0.09981 0.0
H1349 H 0.64003 0.69977 0.04823 0.0
H1350 H 0.65114 0.70647 0.13687 0.0
H1351 H 0.61657 0.70459 0.11959 0.0
H1352 H 0.65799 0.72884 0.36112 0.0
H1353 H 0.57521 0.72377 0.31812 0.0
H1354 H 0.67567 0.74111 0.18977 0.0
H1355 H 0.6801 0.72442 0.17746 0.0
H1356 H 0.68881 0.73213 0.26554 0.0
H1357 H 0.57421 0.7353 0.13769 0.0
H1358 H 0.55692 0.72468 0.19793 0.0
H1359 H 0.57866 0.71861 0.12538 0.0
C1360 C 0.36955 0.47744 0.0665 0.0
C1361 C 0.395 0.47473 0.09267 0.0
C1362 C 0.36468 0.47895 0.98969 0.0
C1363 C 0.38584 0.47792 0.93784 0.0
C1364 C 0.41163 0.47534 0.96413 0.0
C1365 C 0.41584 0.4737 0.04103 0.0
C1366 C 0.33685 0.48158 0.96399 0.0
C1367 C 0.43483 0.47438 0.91105 0.0
C1368 C 0.37179 0.47109 0.73062 0.0
C1369 C 0.37304 0.48322 0.70121 0.0
C1370 C 0.37556 0.46923 0.80763 0.0
C1371 C 0.38115 0.47974 0.85623 0.0
C1372 C 0.3827 0.49199 0.8266 0.0
C1373 C 0.37847 0.49359 0.7497 0.0
C1374 C 0.37343 0.45604 0.83706 0.0
C1375 C 0.38908 0.50342 0.87605 0.0
H1376 H 0.35331 0.4781 0.10597 0.0
H1377 H 0.4356 0.47176 0.06102 0.0
H1378 H 0.3361 0.49082 0.93627 0.0
H1379 H 0.33058 0.47423 0.92199 0.0
H1380 H 0.32248 0.48176 0.01106 0.0
H1381 H 0.45366 0.47241 0.94046 0.0
H1382 H 0.43133 0.46674 0.86831 0.0
H1383 H 0.43702 0.48334 0.88081 0.0
H1384 H 0.36738 0.46308 0.69347 0.0
H1385 H 0.3799 0.50296 0.72715 0.0
H1386 H 0.35805 0.45577 0.88131 0.0
H1387 H 0.3924 0.45329 0.8631 0.0
H1388 H 0.3684 0.44892 0.79232 0.0
H1389 H 0.37414 0.50448 0.92126 0.0
H1390 H 0.38964 0.51229 0.84429 0.0
H1391 H 0.40855 0.50213 0.90335 0.0
C1392 C 0.40042 0.28979 0.03944 0.0
C1393 C 0.37428 0.29038 0.06545 0.0
C1394 C 0.40621 0.29043 0.96245 0.0
C1395 C 0.38541 0.29195 0.91025 0.0
C1396 C 0.35899 0.29259 0.93641 0.0
C1397 C 0.35376 0.29168 0.01343 0.0
C1398 C 0.43461 0.28952 0.937 0.0
C1399 C 0.33623 0.29446 0.88317 0.0
C1400 C 0.40084 0.30736 0.72518 0.0
C1401 C 0.40064 0.29702 0.67397 0.0
C1402 C 0.39614 0.30581 0.80189 0.0
C1403 C 0.39127 0.29357 0.82887 0.0
C1404 C 0.39122 0.28305 0.7777 0.0
C1405 C 0.3957 0.28491 0.70081 0.0
C1406 C 0.3959 0.31734 0.85391 0.0
C1407 C 0.38638 0.26983 0.80422 0.0
H1408 H 0.4163 0.28859 0.07928 0.0
H1409 H 0.33355 0.29225 0.03332 0.0
H1410 H 0.43674 0.28186 0.8936 0.0
H1411 H 0.44064 0.29848 0.91107 0.0
H1412 H 0.44832 0.28762 0.98394 0.0
H1413 H 0.31681 0.29453 0.9122 0.0
H1414 H 0.33867 0.30356 0.85448 0.0
H1415 H 0.33608 0.28683 0.83919 0.0
H1416 H 0.40406 0.31679 0.70497 0.0
H1417 H 0.39564 0.27687 0.66177 0.0
H1418 H 0.41069 0.31626 0.8991 0.0
H1419 H 0.37625 0.31831 0.88108 0.0
H1420 H 0.40029 0.32619 0.82425 0.0
H1421 H 0.40078 0.26754 0.84868 0.0
H1422 H 0.38802 0.26259 0.75805 0.0
H1423 H 0.36636 0.26921 0.82916 0.0
C1424 C 0.64172 0.04466 0.45357 0.0
C1425 C 0.61659 0.04798 0.42747 0.0
C1426 C 0.64642 0.04297 0.53034 0.0
C1427 C 0.62538 0.04445 0.58233 0.0
C1428 C 0.5999 0.04766 0.55612 0.0
C1429 C 0.59587 0.04947 0.47924 0.0
C1430 C 0.67394 0.03969 0.55587 0.0
C1431 C 0.57681 0.04911 0.60927 0.0
C1432 C 0.63137 0.02853 0.77038 0.0
C1433 C 0.63785 0.03874 0.81899 0.0
C1434 C 0.6272 0.03026 0.69351 0.0
C1435 C 0.62989 0.04248 0.66399 0.0
C1436 C 0.63655 0.05283 0.71273 0.0
C1437 C 0.64023 0.05085 0.78968 0.0
C1438 C 0.61965 0.01901 0.64399 0.0
C1439 C 0.63995 0.06598 0.68348 0.0
H1440 H 0.65789 0.04364 0.41406 0.0
H1441 H 0.57635 0.05188 0.45936 0.0
H1442 H 0.68092 0.04683 0.59813 0.0
H1443 H 0.67376 0.0304 0.58323 0.0
H1444 H 0.68829 0.03923 0.50877 0.0
H1445 H 0.5582 0.0515 0.57994 0.0
H1446 H 0.57374 0.04019 0.6394 0.0
H1447 H 0.58104 0.05665 0.6521 0.0
H1448 H 0.62908 0.01919 0.7928 0.0
H1449 H 0.64544 0.05874 0.82687 0.0
H1450 H 0.63445 0.01762 0.59868 0.0
H1451 H 0.60033 0.02077 0.61681 0.0
H1452 H 0.6182 1.01015 0.67565 0.0
H1453 H 0.65533 0.06592 0.63914 0.0
H1454 H 0.64569 0.07296 0.7283 0.0
H1455 H 0.62126 0.06915 0.65763 0.0
C1456 C 0.59086 0.22551 0.78969 0.0
C1457 C 0.61188 0.22692 0.84036 0.0
C1458 C 0.59467 0.22693 0.7124 0.0
C1459 C 0.62029 0.22953 0.68481 0.0
C1460 C 0.64158 0.23108 0.73592 0.0
C1461 C 0.63705 0.22989 0.81314 0.0
C1462 C 0.5713 0.22554 0.66024 0.0
C1463 C 0.66928 0.23368 0.70892 0.0
C1464 C 0.63474 0.22099 0.47962 0.0
C1465 C 0.63422 0.23288 0.44721 0.0
C1466 C 0.63043 0.21975 0.557 0.0
C1467 C 0.62481 0.23064 0.60253 0.0
C1468 C 0.62352 0.24263 0.56938 0.0
C1469 C 0.62854 0.24361 0.4924 0.0
C1470 C 0.63243 0.20683 0.59031 0.0
C1471 C 0.61687 0.25442 0.61523 0.0
H1472 H 0.57137 0.22328 0.81078 0.0
H1473 H 0.65341 0.23079 0.8521 0.0
H1474 H 0.56932 0.23412 0.62632 0.0
H1475 H 0.57443 0.2174 0.62065 0.0
H1476 H 0.55249 0.22406 0.6909 0.0
H1477 H 0.68366 0.2346 0.75581 0.0
H1478 H 0.67583 0.22589 0.67023 0.0
H1479 H 0.66967 0.24252 0.67702 0.0
H1480 H 0.63931 0.21272 0.44471 0.0
H1481 H 0.62779 0.25279 0.46711 0.0
H1482 H 0.61352 0.20436 0.61768 0.0
H1483 H 0.64795 0.20692 0.63423 0.0
H1484 H 0.63725 0.19934 0.54755 0.0
H1485 H 0.59767 0.2532 0.64417 0.0
H1486 H 0.61568 0.26294 0.58043 0.0
H1487 H 0.63208 0.2561 0.65915 0.0
C1488 C 0.4164 0.97266 0.54828 0.0
C1489 C 0.39564 0.97406 0.59997 0.0
C1490 C 0.41232 0.97434 0.47137 0.0
C1491 C 0.38676 0.97737 0.4451 0.0
C1492 C 0.36567 0.97876 0.49696 0.0
C1493 C 0.3704 0.97717 0.57378 0.0
C1494 C 0.43546 0.97299 0.41828 0.0
C1495 C 0.33807 0.98187 0.47127 0.0
C1496 C 0.38099 0.99335 0.25755 0.0
C1497 C 0.3748 0.98315 0.2086 0.0
C1498 C 0.38491 0.9916 0.33443 0.0
C1499 C 0.38229 0.97936 0.36356 0.0
C1500 C 0.37592 0.96901 0.31451 0.0
C1501 C 0.37245 0.97102 0.23754 0.0
C1502 C 0.39212 1.00285 0.38436 0.0
C1503 C 0.37268 0.95583 0.34343 0.0
H1504 H 0.43601 0.97042 0.56823 0.0
H1505 H 0.35421 0.97812 0.61325 0.0
H1506 H 0.43132 0.96547 0.37521 0.0
H1507 H 0.43845 0.98194 0.38845 0.0
H1508 H 0.45408 0.97061 0.44761 0.0
H1509 H 0.32368 0.98222 0.51828 0.0
H1510 H 0.33802 0.99116 0.44402 0.0
H1511 H 0.33132 0.9747 0.42888 0.0
H1512 H 0.38327 1.00272 0.23541 0.0
H1513 H 0.36746 0.96314 0.20006 0.0
H1514 H 0.41145 1.00119 0.41165 0.0
H1515 H 0.37723 1.00413 0.42958 0.0
H1516 H 0.39338 0.01175 0.353 0.0
H1517 H 0.39138 0.95271 0.36946 0.0
H1518 H 0.36713 0.94886 0.29839 0.0
H1519 H 0.35724 0.95581 0.38757 0.0
C1520 C 0.37013 0.79496 0.20783 0.0
C1521 C 0.39588 0.79672 0.18096 0.0
C1522 C 0.3652 0.79354 0.28472 0.0
C1523 C 0.38658 0.79366 0.33602 0.0
C1524 C 0.41267 0.79526 0.30898 0.0
C1525 C 0.41696 0.79688 0.23201 0.0
C1526 C 0.33706 0.79204 0.31116 0.0
C1527 C 0.43609 0.79518 0.36134 0.0
C1528 C 0.37385 0.801 0.54357 0.0
C1529 C 0.37252 0.78886 0.57285 0.0
C1530 C 0.37814 0.80271 0.46659 0.0
C1531 C 0.38172 0.79202 0.41784 0.0
C1532 C 0.38078 0.77974 0.44742 0.0
C1533 C 0.37598 0.77832 0.5243 0.0
C1534 C 0.37858 0.81595 0.4373 0.0
C1535 C 0.38503 0.7681 0.39792 0.0
H1536 H 0.35374 0.79499 0.1688 0.0
H1537 H 0.43691 0.7981 0.21143 0.0
H1538 H 0.33477 0.78294 0.33979 0.0
H1539 H 0.33214 0.79971 0.3526 0.0
H1540 H 0.32262 0.7923 0.26435 0.0
H1541 H 0.45514 0.7963 0.33133 0.0
H1542 H 0.43421 0.80295 0.4041 0.0
H1543 H 0.43659 0.78617 0.39162 0.0
H1544 H 0.37097 0.80916 0.58079 0.0
H1545 H 0.37538 0.76892 0.54678 0.0
H1546 H 0.36325 0.81691 0.39339 0.0
H1547 H 0.39797 0.81786 0.41087 0.0
H1548 H 0.37503 0.82325 0.48219 0.0
H1549 H 0.36982 0.76761 0.3532 0.0
H1550 H 0.38413 0.75924 0.42977 0.0
H1551 H 0.40457 0.76862 0.36995 0.0
C1552 C 0.15466 0.60768 0.20306 0.0
C1553 C 0.15335 0.60106 0.13376 0.0
C1554 C 0.15605 0.62101 0.20716 0.0
C1555 C 0.15616 0.62796 0.14043 0.0
C1556 C 0.15592 0.62131 0.07035 0.0
C1557 C 0.15454 0.608 0.06789 0.0
C1558 C 0.15625 0.62766 0.2831 0.0
C1559 C 0.15615 0.62828 0.99774 0.0
C1560 C 0.12734 0.6613 0.1483 0.0
C1561 C 0.15002 0.669 0.1504 0.0
C1562 C 0.12915 0.64803 0.14522 0.0
C1563 C 0.15428 0.64214 0.14382 0.0
C1564 C 0.17731 0.64981 0.14507 0.0
C1565 C 0.17491 0.66313 0.14815 0.0
C1566 C 0.10404 0.64029 0.14333 0.0
C1567 C 0.20448 0.64395 0.14366 0.0
H1568 H 0.15348 0.60249 0.25438 0.0
H1569 H 0.15398 0.60302 0.01401 0.0
H1570 H 0.17261 0.63464 0.28657 0.0
H1571 H 0.13751 0.63296 0.29139 0.0
H1572 H 0.15845 0.62096 0.32942 0.0
H1573 H 0.15797 0.62176 0.94808 0.0
H1574 H 0.13759 0.63376 0.99255 0.0
H1575 H 0.17275 0.63513 0.99727 0.0
H1576 H 0.10799 0.66567 0.14823 0.0
H1577 H 0.19256 0.66894 0.1501 0.0
H1578 H 0.10356 0.63392 0.19159 0.0
H1579 H 0.10343 0.63424 0.09156 0.0
H1580 H 0.08603 0.64629 0.14525 0.0
H1581 H 0.20702 0.6379 0.19288 0.0
H1582 H 0.22043 0.65117 0.14422 0.0
H1583 H 0.20677 0.63775 0.09283 0.0
C1584 C 0.88202 0.41245 0.89096 0.0
C1585 C 0.85993 0.42002 0.87635 0.0
C1586 C 0.88065 0.39916 0.88566 0.0
C1587 C 0.85648 0.39315 0.86596 0.0
C1588 C 0.83406 0.40073 0.85103 0.0
C1589 C 0.8361 0.41405 0.85579 0.0
C1590 C 0.90519 0.39153 0.90083 0.0
C1591 C 0.80784 0.39476 0.83077 0.0
C1592 C 0.86139 0.35913 0.78871 0.0
C1593 C 0.85715 0.352 0.85294 0.0
C1594 C 0.8606 0.37246 0.79175 0.0
C1595 C 0.85496 0.37895 0.86042 0.0
C1596 C 0.84951 0.37184 0.92473 0.0
C1597 C 0.85083 0.35851 0.9204 0.0
C1598 C 0.86671 0.37959 0.72179 0.0
C1599 C 0.84311 0.37833 0.99895 0.0
H1600 H 0.90064 0.41695 0.90571 0.0
H1601 H 0.81889 0.4198 0.84486 0.0
H1602 H 0.90161 0.38518 0.94812 0.0
H1603 H 0.91011 0.38546 0.85102 0.0
H1604 H 0.92252 0.39762 0.9147 0.0
H1605 H 0.79223 0.40192 0.82133 0.0
H1606 H 0.80991 0.38872 0.77926 0.0
H1607 H 0.80131 0.38854 0.87624 0.0
H1608 H 0.86571 0.35431 0.73577 0.0
H1609 H 0.8478 0.35324 0.97078 0.0
H1610 H 0.88495 0.38528 0.73048 0.0
H1611 H 0.85049 0.38629 0.70979 0.0
H1612 H 0.86958 0.37319 0.67204 0.0
H1613 H 0.86071 0.38358 0.02004 0.0
H1614 H 0.83698 0.37152 0.04188 0.0
H1615 H 0.82704 0.38533 0.99196 0.0
C1616 C 0.12855 0.11025 0.6418 0.0
C1617 C 0.1509 0.10245 0.64764 0.0
C1618 C 0.1306 0.12352 0.64618 0.0
C1619 C 0.15565 0.12929 0.65674 0.0
C1620 C 0.17831 0.12151 0.66336 0.0
C1621 C 0.17566 0.10821 0.65905 0.0
C1622 C 0.10584 0.13137 0.63961 0.0
C1623 C 0.2054 0.12724 0.67438 0.0
C1624 C 0.16004 0.16384 0.59974 0.0
C1625 C 0.15627 0.17042 0.66846 0.0
C1626 C 0.16089 0.1505 0.59545 0.0
C1627 C 0.15784 0.14347 0.66136 0.0
C1628 C 0.15499 0.15006 0.73117 0.0
C1629 C 0.1543 0.16338 0.73387 0.0
C1630 C 0.16404 0.14392 0.51983 0.0
C1631 C 0.15174 0.14302 0.80294 0.0
H1632 H 0.10923 0.10595 0.63453 0.0
H1633 H 0.19307 0.10231 0.66321 0.0
H1634 H 0.10322 0.13742 0.69089 0.0
H1635 H 0.10764 0.13775 0.59165 0.0
H1636 H 0.08786 0.12546 0.63147 0.0
H1637 H 0.22103 0.11993 0.67901 0.0
H1638 H 0.21023 0.13332 0.62667 0.0
H1639 H 0.20566 0.13337 0.72587 0.0
H1640 H 0.1613 0.16908 0.54864 0.0
H1641 H 0.15186 0.16831 0.7875 0.0
H1642 H 0.14559 0.13874 0.50506 0.0
H1643 H 0.18017 0.13684 0.52157 0.0
H1644 H 0.16842 0.15065 0.47488 0.0
H1645 H 0.13297 0.13759 0.80114 0.0
H1646 H 0.15146 0.14948 0.85315 0.0
H1647 H 0.16802 0.13611 0.8091 0.0
C1648 C 0.88073 0.91236 0.40651 0.0
C1649 C 0.86048 0.92036 0.38186 0.0
C1650 C 0.87851 0.89911 0.40073 0.0
C1651 C 0.85576 0.89352 0.36756 0.0
C1652 C 0.83534 0.90145 0.3416 0.0
C1653 C 0.83783 0.91472 0.34956 0.0
C1654 C 0.90075 0.89109 0.42972 0.0
C1655 C 0.81094 0.8959 0.30476 0.0
C1656 C 0.86723 0.85985 0.29208 0.0
C1657 C 0.85695 0.85254 0.34966 0.0
C1658 C 0.86564 0.87314 0.29527 0.0
C1659 C 0.85399 0.87938 0.35841 0.0
C1660 C 0.84276 0.87202 0.41554 0.0
C1661 C 0.84415 0.85869 0.41013 0.0
C1662 C 0.87739 0.88053 0.23226 0.0
C1663 C 0.83053 0.87822 0.48439 0.0
H1664 H 0.89872 0.91643 0.42952 0.0
H1665 H 0.82187 0.92067 0.33081 0.0
H1666 H 0.89297 0.88425 0.47023 0.0
H1667 H 0.9098 0.88553 0.38273 0.0
H1668 H 0.91644 0.89685 0.45776 0.0
H1669 H 0.79687 0.90331 0.28722 0.0
H1670 H 0.81663 0.89005 0.25471 0.0
H1671 H 0.80069 0.88958 0.34383 0.0
H1672 H 0.87699 0.85514 0.24496 0.0
H1673 H 0.83638 0.8531 0.45506 0.0
H1674 H 0.89522 0.88568 0.25258 0.0
H1675 H 0.86311 0.88769 0.21299 0.0
H1676 H 0.88312 0.87432 0.18368 0.0
H1677 H 0.84608 0.88324 0.51749 0.0
H1678 H 0.82078 0.87125 0.52074 0.0
H1679 H 0.81575 0.88538 0.46826 0.0
C1680 C 0.65655 0.66493 0.57565 0.0
C1681 C 0.65413 0.6712 0.64582 0.0
C1682 C 0.65756 0.65161 0.56918 0.0
C1683 C 0.65614 0.64429 0.63435 0.0
C1684 C 0.65462 0.65057 0.70546 0.0
C1685 C 0.65363 0.66388 0.7103 0.0
C1686 C 0.65914 0.64536 0.49221 0.0
C1687 C 0.65319 0.64321 0.77652 0.0
C1688 C 0.62747 0.61093 0.61553 0.0
C1689 C 0.65015 0.60325 0.61568 0.0
C1690 C 0.62922 0.6242 0.62134 0.0
C1691 C 0.65428 0.63011 0.62793 0.0
C1692 C 0.67729 0.62245 0.62883 0.0
C1693 C 0.67496 0.60915 0.62286 0.0
C1694 C 0.60412 0.63192 0.62064 0.0
C1695 C 0.70439 0.62833 0.63575 0.0
H1696 H 0.65664 0.67041 0.52531 0.0
H1697 H 0.65218 0.66859 0.7649 0.0
H1698 H 0.67555 0.63841 0.48982 0.0
H1699 H 0.64058 0.64009 0.48022 0.0
H1700 H 0.66218 0.65232 0.44759 0.0
H1701 H 0.65388 0.64946 0.82759 0.0
H1702 H 0.63457 0.63767 0.77729 0.0
H1703 H 0.66977 0.63637 0.77865 0.0
H1704 H 0.60814 0.60655 0.61182 0.0
H1705 H 0.69263 0.60337 0.62265 0.0
H1706 H 0.60466 0.63858 0.57379 0.0
H1707 H 0.60244 0.63767 0.67339 0.0
H1708 H 0.58618 0.62592 0.61451 0.0
H1709 H 0.7079 0.63467 0.58837 0.0
H1710 H 0.72033 0.62111 0.63619 0.0
H1711 H 0.70566 0.63422 0.68808 0.0
C1712 C 0.38065 0.41179 0.40392 0.0
C1713 C 0.35905 0.4198 0.39064 0.0
C1714 C 0.37829 0.39854 0.39818 0.0
C1715 C 0.35392 0.39297 0.37641 0.0
C1716 C 0.33207 0.40092 0.36194 0.0
C1717 C 0.3348 0.41418 0.3699 0.0
C1718 C 0.4021 0.39049 0.41495 0.0
C1719 C 0.30586 0.39541 0.33728 0.0
C1720 C 0.36107 0.35943 0.29421 0.0
C1721 C 0.35444 0.35202 0.35539 0.0
C1722 C 0.35949 0.37272 0.29894 0.0
C1723 C 0.35177 0.37884 0.36722 0.0
C1724 C 0.34422 0.37136 0.42844 0.0
C1725 C 0.34538 0.35805 0.42151 0.0
C1726 C 0.36713 0.38023 0.23165 0.0
C1727 C 0.33637 0.37743 0.5027 0.0
H1728 H 0.39975 0.41583 0.41774 0.0
H1729 H 0.31781 0.42012 0.36018 0.0
H1730 H 0.39703 0.38352 0.45795 0.0
H1731 H 0.40822 0.38508 0.36369 0.0
H1732 H 0.41918 0.39622 0.4354 0.0
H1733 H 0.29083 0.40283 0.32746 0.0
H1734 H 0.30847 0.38966 0.28479 0.0
H1735 H 0.29822 0.38899 0.38032 0.0
H1736 H 0.36804 0.35479 0.24296 0.0
H1737 H 0.34056 0.35237 0.46919 0.0
H1738 H 0.38596 0.3853 0.24307 0.0
H1739 H 0.35188 0.38746 0.22041 0.0
H1740 H 0.36972 0.37411 0.18052 0.0
H1741 H 0.35369 0.38238 0.52796 0.0
H1742 H 0.32904 0.37039 0.54277 0.0
H1743 H 0.32078 0.38463 0.49467 0.0
C1744 C 0.63029 0.16168 0.13107 0.0
C1745 C 0.65162 0.16957 0.15229 0.0
C1746 C 0.63265 0.14843 0.12773 0.0
C1747 C 0.65725 0.14272 0.14328 0.0
C1748 C 0.67916 0.15054 0.16238 0.0
C1749 C 0.67604 0.16381 0.16747 0.0
C1750 C 0.6086 0.14053 0.10802 0.0
C1751 C 0.7059 0.14487 0.17762 0.0
C1752 C 0.65427 0.10808 0.19831 0.0
C1753 C 0.65771 0.1017 0.12899 0.0
C1754 C 0.65489 0.1214 0.20427 0.0
C1755 C 0.65967 0.12855 0.13964 0.0
C1756 C 0.66446 0.1221 0.0702 0.0
C1757 C 0.66304 0.10879 0.06551 0.0
C1758 C 0.64904 0.12782 0.27905 0.0
C1759 C 0.67029 0.12927 1.00022 0.0
H1760 H 0.61151 0.16584 0.11647 0.0
H1761 H 0.69273 0.16964 0.18441 0.0
H1762 H 0.61221 0.13495 0.05548 0.0
H1763 H 0.60469 0.13372 0.15282 0.0
H1764 H 0.59063 0.14639 0.10046 0.0
H1765 H 0.7213 0.15221 0.18785 0.0
H1766 H 0.70478 0.13884 0.22731 0.0
H1767 H 0.7121 0.1387 0.12941 0.0
H1768 H 0.64983 0.10266 0.24738 0.0
H1769 H 0.66584 0.1039 0.01187 0.0
H1770 H 0.63018 0.13313 0.27551 0.0
H1771 H 0.66474 0.13477 0.29389 0.0
H1772 H 0.64735 0.12097 0.32479 0.0
H1773 H 0.65237 0.13446 0.98286 0.0
H1774 H 0.67659 0.12291 0.95294 0.0
H1775 H 0.68604 0.13639 0.01129 0.0
C1776 C 0.35541 0.85896 0.82006 0.0
C1777 C 0.35619 0.8518 0.88517 0.0
C1778 C 0.35462 0.87227 0.82388 0.0
C1779 C 0.35455 0.87873 0.89458 0.0
C1780 C 0.35428 0.87157 0.96054 0.0
C1781 C 0.35512 0.85824 0.95509 0.0
C1782 C 0.3548 0.87945 0.75202 0.0
C1783 C 0.35418 0.87801 0.0371 0.0
C1784 C 0.384 0.91199 0.90554 0.0
C1785 C 0.36146 0.91976 0.90741 0.0
C1786 C 0.38196 0.89872 0.90166 0.0
C1787 C 0.35672 0.89291 0.89938 0.0
C1788 C 0.33384 0.90066 0.90079 0.0
C1789 C 0.33647 0.91396 0.90456 0.0
C1790 C 0.40692 0.8909 0.89961 0.0
C1791 C 0.30656 0.89489 0.89863 0.0
H1792 H 0.35579 0.85412 0.76569 0.0
H1793 H 0.35599 0.85289 1.00585 0.0
H1794 H 0.33831 0.88635 0.7518 0.0
H1795 H 0.37346 0.8849 0.74792 0.0
H1796 H 0.35306 0.87308 0.70166 0.0
H1797 H 0.35176 0.87118 0.08271 0.0
H1798 H 0.37304 0.8832 0.04602 0.0
H1799 H 0.33799 0.88507 0.04118 0.0
H1800 H 0.40343 0.91631 0.90606 0.0
H1801 H 0.31892 0.91982 0.90643 0.0
H1802 H 0.40756 0.88498 0.8473 0.0
H1803 H 0.40713 0.88439 0.94723 0.0
H1804 H 0.42504 0.89683 0.90247 0.0
H1805 H 0.30419 0.88889 0.84705 0.0
H1806 H 0.29074 0.90217 0.90007 0.0
H1807 H 0.30388 0.88867 0.94703 0.0
loop_
_geom_bond_atom_site_label_1
_geom_bond_atom_site_label_2
_geom_bond_distance
_geom_bond_site_symmetry_2
_ccdc_geom_bond_type
Co0 N4 2.148 . S
Co0 N10 2.128 . S
Co0 N20 2.194 . S
Co0 O25 2.351 . S
Co0 O26 2.155 . S
Co0 O27 2.096 . S
C1 N4 1.301 1_556 S
C1 N5 1.328 . S
C1 H6 0.930 . S
C2 C3 1.333 . S
C2 N4 1.317 1_556 S
C2 H7 0.930 1_556 S
C3 C2 1.333 . S
C3 N5 1.350 . S
C3 H29 0.931 . S
N4 Co0 2.148 . S
N4 C1 1.301 1_554 S
N4 C2 1.317 1_554 S
N5 C1 1.328 . S
N5 C3 1.350 . S
H6 C1 0.930 . S
H7 C2 0.930 1_554 S
C8 O9 1.224 . S
C8 O27 1.247 . S
O9 C8 1.224 . S
N10 Co0 2.128 . S
N10 C11 1.355 . S
N10 C13 1.311 . S
C11 N10 1.355 . S
C11 C12 1.363 . S
C11 H23 0.929 . S
C12 C11 1.363 . S
C12 N14 1.375 . S
C12 H30 0.931 . S
C13 N10 1.311 . S
C13 N14 1.347 . S
C13 H24 0.929 . S
N14 C12 1.375 . S
N14 C13 1.347 . S
C15 C18 1.365 . S
C15 N20 1.328 . S
C15 H21 0.929 . S
C16 C17 1.362 . S
C16 C19 1.378 . S
C16 H31 0.929 . S
C17 C16 1.362 . S
C17 C18 1.366 . S
C18 C15 1.365 . S
C18 C17 1.366 . S
C18 H32 0.930 . S
C19 C16 1.378 . S
C19 N20 1.315 . S
C19 H22 0.930 . S
N20 Co0 2.194 . S
N20 C15 1.328 . S
N20 C19 1.315 . S
H21 C15 0.929 . S
H22 C19 0.930 . S
H23 C11 0.929 . S
H24 C13 0.929 . S
O25 Co0 2.351 . S
O25 C28 1.244 . S
O26 Co0 2.155 . S
O26 C28 1.240 . S
O27 Co0 2.096 . S
O27 C8 1.247 . S
C28 O25 1.244 . S
C28 O26 1.240 . S
H29 C3 0.931 . S
H30 C12 0.931 . S
H31 C16 0.929 . S
H32 C18 0.930 . S
Co33 N37 2.148 . S
Co33 N43 2.128 . S
Co33 N53 2.194 . S
Co33 O58 2.351 . S
Co33 O59 2.155 . S
Co33 O60 2.096 . S
C34 N37 1.301 . S
C34 N38 1.328 . S
C34 H39 0.930 . S
C35 C36 1.333 . S
C35 N37 1.317 . S
C35 H40 0.930 . S
C36 C35 1.333 . S
C36 N38 1.350 . S
C36 H62 0.931 . S
N37 Co33 2.148 . S
N37 C34 1.301 . S
N37 C35 1.317 . S
N38 C34 1.328 . S
N38 C36 1.350 . S
H39 C34 0.930 . S
H40 C35 0.930 . S
C41 O42 1.224 . S
C41 O60 1.247 . S
O42 C41 1.224 . S
N43 Co33 2.128 . S
N43 C44 1.355 1_554 S
N43 C46 1.311 1_554 S
C44 N43 1.355 1_556 S
C44 C45 1.363 . S
C44 H56 0.929 1_556 S
C45 C44 1.363 . S
C45 N47 1.375 . S
C45 H63 0.931 . S
C46 N43 1.311 1_556 S
C46 N47 1.347 . S
C46 H57 0.929 . S
N47 C45 1.375 . S
N47 C46 1.347 . S
C48 C51 1.365 . S
C48 N53 1.328 . S
C48 H54 0.929 . S
C49 C50 1.362 . S
C49 C52 1.378 . S
C49 H64 0.929 . S
C50 C49 1.362 . S
C50 C51 1.366 . S
C51 C48 1.365 . S
C51 C50 1.366 . S
C51 H65 0.930 . S
C52 C49 1.378 . S
C52 N53 1.315 . S
C52 H55 0.930 . S
N53 Co33 2.194 . S
N53 C48 1.328 . S
N53 C52 1.315 . S
H54 C48 0.929 . S
H55 C52 0.930 . S
H56 C44 0.929 1_554 S
H57 C46 0.929 . S
O58 Co33 2.351 . S
O58 C61 1.244 . S
O59 Co33 2.155 . S
O59 C61 1.240 . S
O60 Co33 2.096 . S
O60 C41 1.247 . S
C61 O58 1.244 . S
C61 O59 1.240 . S
H62 C36 0.931 . S
H63 C45 0.931 . S
H64 C49 0.929 . S
H65 C51 0.930 . S
Co66 N70 2.148 . S
Co66 N76 2.128 . S
Co66 N86 2.194 . S
Co66 O91 2.351 . S
Co66 O92 2.155 . S
Co66 O93 2.096 . S
C67 N70 1.301 1_554 S
C67 N71 1.328 . S
C67 H72 0.930 . S
C68 C69 1.333 . S
C68 N70 1.317 1_554 S
C68 H73 0.930 1_554 S
C69 C68 1.333 . S
C69 N71 1.350 . S
C69 H95 0.931 . S
N70 Co66 2.148 . S
N70 C67 1.301 1_556 S
N70 C68 1.317 1_556 S
N71 C67 1.328 . S
N71 C69 1.350 . S
H72 C67 0.930 . S
H73 C68 0.930 1_556 S
C74 O75 1.224 . S
C74 O93 1.247 . S
O75 C74 1.224 . S
N76 Co66 2.128 . S
N76 C77 1.355 . S
N76 C79 1.311 . S
C77 N76 1.355 . S
C77 C78 1.363 . S
C77 H89 0.929 . S
C78 C77 1.363 . S
C78 N80 1.375 . S
C78 H96 0.931 . S
C79 N76 1.311 . S
C79 N80 1.347 . S
C79 H90 0.929 . S
N80 C78 1.375 . S
N80 C79 1.347 . S
C81 C84 1.365 . S
C81 N86 1.328 . S
C81 H87 0.929 . S
C82 C83 1.362 . S
C82 C85 1.378 . S
C82 H97 0.929 . S
C83 C82 1.362 . S
C83 C84 1.366 . S
C84 C81 1.365 . S
C84 C83 1.366 . S
C84 H98 0.930 . S
C85 C82 1.378 . S
C85 N86 1.315 . S
C85 H88 0.930 . S
N86 Co66 2.194 . S
N86 C81 1.328 . S
N86 C85 1.315 . S
H87 C81 0.929 . S
H88 C85 0.930 . S
H89 C77 0.929 . S
H90 C79 0.929 . S
O91 Co66 2.351 . S
O91 C94 1.244 . S
O92 Co66 2.155 . S
O92 C94 1.240 . S
O93 Co66 2.096 . S
O93 C74 1.247 . S
C94 O91 1.244 . S
C94 O92 1.240 . S
H95 C69 0.931 . S
H96 C78 0.931 . S
H97 C82 0.929 . S
H98 C84 0.930 . S
Co99 N103 2.148 . S
Co99 N109 2.128 . S
Co99 N119 2.194 . S
Co99 O124 2.351 . S
Co99 O125 2.155 . S
Co99 O126 2.096 . S
C100 N103 1.301 . S
C100 N104 1.328 . S
C100 H105 0.930 . S
C101 C102 1.333 . S
C101 N103 1.317 . S
C101 H106 0.930 . S
C102 C101 1.333 . S
C102 N104 1.350 . S
C102 H128 0.931 . S
N103 Co99 2.148 . S
N103 C100 1.301 . S
N103 C101 1.317 . S
N104 C100 1.328 . S
N104 C102 1.350 . S
H105 C100 0.930 . S
H106 C101 0.930 . S
C107 O108 1.224 . S
C107 O126 1.247 . S
O108 C107 1.224 . S
N109 Co99 2.128 . S
N109 C110 1.355 1_556 S
N109 C112 1.311 1_556 S
C110 N109 1.355 1_554 S
C110 C111 1.363 . S
C110 H122 0.929 1_554 S
C111 C110 1.363 . S
C111 N113 1.375 . S
C111 H129 0.931 . S
C112 N109 1.311 1_554 S
C112 N113 1.347 . S
C112 H123 0.929 . S
N113 C111 1.375 . S
N113 C112 1.347 . S
C114 C117 1.365 . S
C114 N119 1.328 . S
C114 H120 0.929 . S
C115 C116 1.362 . S
C115 C118 1.378 . S
C115 H130 0.929 . S
C116 C115 1.362 . S
C116 C117 1.366 . S
C117 C114 1.365 . S
C117 C116 1.366 . S
C117 H131 0.930 . S
C118 C115 1.378 . S
C118 N119 1.315 . S
C118 H121 0.930 . S
N119 Co99 2.194 . S
N119 C114 1.328 . S
N119 C118 1.315 . S
H120 C114 0.929 . S
H121 C118 0.930 . S
H122 C110 0.929 1_556 S
H123 C112 0.929 . S
O124 Co99 2.351 . S
O124 C127 1.244 . S
O125 Co99 2.155 . S
O125 C127 1.240 . S
O126 Co99 2.096 . S
O126 C107 1.247 . S
C127 O124 1.244 . S
C127 O125 1.240 . S
H128 C102 0.931 . S
H129 C111 0.931 . S
H130 C115 0.929 . S
H131 C117 0.930 . S
Co132 N136 2.148 . S
Co132 N142 2.128 . S
Co132 N152 2.194 . S
Co132 O157 2.351 . S
Co132 O158 2.155 . S
Co132 O159 2.096 . S
C133 N136 1.301 . S
C133 N137 1.328 . S
C133 H138 0.930 . S
C134 C135 1.333 . S
C134 N136 1.317 . S
C134 H139 0.930 . S
C135 C134 1.333 . S
C135 N137 1.350 . S
C135 H161 0.931 . S
N136 Co132 2.148 . S
N136 C133 1.301 . S
N136 C134 1.317 . S
N137 C133 1.328 . S
N137 C135 1.350 . S
H138 C133 0.930 . S
H139 C134 0.930 . S
C140 O141 1.224 . S
C140 O159 1.247 . S
O141 C140 1.224 . S
N142 Co132 2.128 . S
N142 C143 1.355 . S
N142 C145 1.311 . S
C143 N142 1.355 . S
C143 C144 1.363 . S
C143 H155 0.929 . S
C144 C143 1.363 . S
C144 N146 1.375 . S
C144 H162 0.931 . S
C145 N142 1.311 . S
C145 N146 1.347 . S
C145 H156 0.929 . S
N146 C144 1.375 . S
N146 C145 1.347 . S
C147 C150 1.365 . S
C147 N152 1.328 . S
C147 H153 0.929 . S
C148 C149 1.362 . S
C148 C151 1.378 . S
C148 H163 0.929 . S
C149 C148 1.362 . S
C149 C150 1.366 . S
C150 C147 1.365 . S
C150 C149 1.366 . S
C150 H164 0.930 . S
C151 C148 1.378 . S
C151 N152 1.315 . S
C151 H154 0.930 . S
N152 Co132 2.194 . S
N152 C147 1.328 . S
N152 C151 1.315 . S
H153 C147 0.929 . S
H154 C151 0.930 . S
H155 C143 0.929 . S
H156 C145 0.929 . S
O157 Co132 2.351 . S
O157 C160 1.244 . S
O158 Co132 2.155 . S
O158 C160 1.240 . S
O159 Co132 2.096 . S
O159 C140 1.247 . S
C160 O157 1.244 . S
C160 O158 1.240 . S
H161 C135 0.931 . S
H162 C144 0.931 . S
H163 C148 0.929 . S
H164 C150 0.930 . S
Co165 N169 2.148 . S
Co165 N175 2.128 . S
Co165 N185 2.194 . S
Co165 O190 2.351 . S
Co165 O191 2.155 . S
Co165 O192 2.096 . S
C166 N169 1.301 . S
C166 N170 1.328 . S
C166 H171 0.930 . S
C167 C168 1.333 . S
C167 N169 1.317 . S
C167 H172 0.930 . S
C168 C167 1.333 . S
C168 N170 1.350 . S
C168 H194 0.931 . S
N169 Co165 2.148 . S
N169 C166 1.301 . S
N169 C167 1.317 . S
N170 C166 1.328 . S
N170 C168 1.350 . S
H171 C166 0.930 . S
H172 C167 0.930 . S
C173 O174 1.224 . S
C173 O192 1.247 . S
O174 C173 1.224 . S
N175 Co165 2.128 . S
N175 C176 1.355 . S
N175 C178 1.311 . S
C176 N175 1.355 . S
C176 C177 1.363 . S
C176 H188 0.929 . S
C177 C176 1.363 . S
C177 N179 1.375 . S
C177 H195 0.931 . S
C178 N175 1.311 . S
C178 N179 1.347 . S
C178 H189 0.929 . S
N179 C177 1.375 . S
N179 C178 1.347 . S
C180 C183 1.365 . S
C180 N185 1.328 . S
C180 H186 0.929 . S
C181 C182 1.362 . S
C181 C184 1.378 . S
C181 H196 0.929 . S
C182 C181 1.362 . S
C182 C183 1.366 . S
C183 C180 1.365 . S
C183 C182 1.366 . S
C183 H197 0.930 . S
C184 C181 1.378 . S
C184 N185 1.315 . S
C184 H187 0.930 . S
N185 Co165 2.194 . S
N185 C180 1.328 . S
N185 C184 1.315 . S
H186 C180 0.929 . S
H187 C184 0.930 . S
H188 C176 0.929 . S
H189 C178 0.929 . S
O190 Co165 2.351 . S
O190 C193 1.244 . S
O191 Co165 2.155 . S
O191 C193 1.240 . S
O192 Co165 2.096 . S
O192 C173 1.247 . S
C193 O190 1.244 . S
C193 O191 1.240 . S
H194 C168 0.931 . S
H195 C177 0.931 . S
H196 C181 0.929 . S
H197 C183 0.930 . S
Co198 N202 2.148 . S
Co198 N208 2.128 . S
Co198 N218 2.194 . S
Co198 O223 2.351 . S
Co198 O224 2.155 . S
Co198 O225 2.096 . S
C199 N202 1.301 . S
C199 N203 1.328 . S
C199 H204 0.930 . S
C200 C201 1.333 . S
C200 N202 1.317 . S
C200 H205 0.930 . S
C201 C200 1.333 . S
C201 N203 1.350 . S
C201 H227 0.931 . S
N202 Co198 2.148 . S
N202 C199 1.301 . S
N202 C200 1.317 . S
N203 C199 1.328 . S
N203 C201 1.350 . S
H204 C199 0.930 . S
H205 C200 0.930 . S
C206 O207 1.224 . S
C206 O225 1.247 . S
O207 C206 1.224 . S
N208 Co198 2.128 . S
N208 C209 1.355 . S
N208 C211 1.311 . S
C209 N208 1.355 . S
C209 C210 1.363 . S
C209 H221 0.929 . S
C210 C209 1.363 . S
C210 N212 1.375 . S
C210 H228 0.931 . S
C211 N208 1.311 . S
C211 N212 1.347 . S
C211 H222 0.929 . S
N212 C210 1.375 . S
N212 C211 1.347 . S
C213 C216 1.365 . S
C213 N218 1.328 . S
C213 H219 0.929 . S
C214 C215 1.362 . S
C214 C217 1.378 . S
C214 H229 0.929 . S
C215 C214 1.362 . S
C215 C216 1.366 . S
C216 C213 1.365 . S
C216 C215 1.366 . S
C216 H230 0.930 . S
C217 C214 1.378 . S
C217 N218 1.315 . S
C217 H220 0.930 . S
N218 Co198 2.194 . S
N218 C213 1.328 . S
N218 C217 1.315 . S
H219 C213 0.929 . S
H220 C217 0.930 . S
H221 C209 0.929 . S
H222 C211 0.929 . S
O223 Co198 2.351 . S
O223 C226 1.244 . S
O224 Co198 2.155 . S
O224 C226 1.240 . S
O225 Co198 2.096 . S
O225 C206 1.247 . S
C226 O223 1.244 . S
C226 O224 1.240 . S
H227 C201 0.931 . S
H228 C210 0.931 . S
H229 C214 0.929 . S
H230 C216 0.930 . S
Co231 N235 2.148 . S
Co231 N241 2.128 . S
Co231 N251 2.194 . S
Co231 O256 2.351 . S
Co231 O257 2.155 . S
Co231 O258 2.096 . S
C232 N235 1.301 . S
C232 N236 1.328 . S
C232 H237 0.930 . S
C233 C234 1.333 . S
C233 N235 1.317 . S
C233 H238 0.930 . S
C234 C233 1.333 . S
C234 N236 1.350 . S
C234 H260 0.931 . S
N235 Co231 2.148 . S
N235 C232 1.301 . S
N235 C233 1.317 . S
N236 C232 1.328 . S
N236 C234 1.350 . S
H237 C232 0.930 . S
H238 C233 0.930 . S
C239 O240 1.224 . S
C239 O258 1.247 . S
O240 C239 1.224 . S
N241 Co231 2.128 . S
N241 C242 1.355 . S
N241 C244 1.311 . S
C242 N241 1.355 . S
C242 C243 1.363 . S
C242 H254 0.929 . S
C243 C242 1.363 . S
C243 N245 1.375 . S
C243 H261 0.931 . S
C244 N241 1.311 . S
C244 N245 1.347 . S
C244 H255 0.929 . S
N245 C243 1.375 . S
N245 C244 1.347 . S
C246 C249 1.365 . S
C246 N251 1.328 . S
C246 H252 0.929 . S
C247 C248 1.362 . S
C247 C250 1.378 . S
C247 H262 0.929 . S
C248 C247 1.362 . S
C248 C249 1.366 . S
C249 C246 1.365 . S
C249 C248 1.366 . S
C249 H263 0.930 . S
C250 C247 1.378 . S
C250 N251 1.315 . S
C250 H253 0.930 . S
N251 Co231 2.194 . S
N251 C246 1.328 . S
N251 C250 1.315 . S
H252 C246 0.929 . S
H253 C250 0.930 . S
H254 C242 0.929 . S
H255 C244 0.929 . S
O256 Co231 2.351 . S
O256 C259 1.244 . S
O257 Co231 2.155 . S
O257 C259 1.240 . S
O258 Co231 2.096 . S
O258 C239 1.247 . S
C259 O256 1.244 . S
C259 O257 1.240 . S
H260 C234 0.931 . S
H261 C243 0.931 . S
H262 C247 0.929 . S
H263 C249 0.930 . S
Co264 N268 2.148 . S
Co264 N274 2.128 . S
Co264 N284 2.194 . S
Co264 O289 2.351 . S
Co264 O290 2.155 . S
Co264 O291 2.096 . S
C265 N268 1.301 . S
C265 N269 1.328 . S
C265 H270 0.930 . S
C266 C267 1.333 . S
C266 N268 1.317 . S
C266 H271 0.930 . S
C267 C266 1.333 . S
C267 N269 1.350 . S
C267 H293 0.931 . S
N268 Co264 2.148 . S
N268 C265 1.301 . S
N268 C266 1.317 . S
N269 C265 1.328 . S
N269 C267 1.350 . S
H270 C265 0.930 . S
H271 C266 0.930 . S
C272 O273 1.224 . S
C272 O291 1.247 . S
O273 C272 1.224 . S
N274 Co264 2.128 . S
N274 C275 1.355 . S
N274 C277 1.311 . S
C275 N274 1.355 . S
C275 C276 1.363 . S
C275 H287 0.929 . S
C276 C275 1.363 . S
C276 N278 1.375 . S
C276 H294 0.931 . S
C277 N274 1.311 . S
C277 N278 1.347 . S
C277 H288 0.929 . S
N278 C276 1.375 . S
N278 C277 1.347 . S
C279 C282 1.365 . S
C279 N284 1.328 . S
C279 H285 0.929 . S
C280 C281 1.362 . S
C280 C283 1.378 . S
C280 H295 0.929 . S
C281 C280 1.362 . S
C281 C282 1.366 . S
C282 C279 1.365 . S
C282 C281 1.366 . S
C282 H296 0.930 . S
C283 C280 1.378 . S
C283 N284 1.315 . S
C283 H286 0.930 . S
N284 Co264 2.194 . S
N284 C279 1.328 . S
N284 C283 1.315 . S
H285 C279 0.929 . S
H286 C283 0.930 . S
H287 C275 0.929 . S
H288 C277 0.929 . S
O289 Co264 2.351 . S
O289 C292 1.244 . S
O290 Co264 2.155 . S
O290 C292 1.240 . S
O291 Co264 2.096 . S
O291 C272 1.247 . S
C292 O289 1.244 . S
C292 O290 1.240 . S
H293 C267 0.931 . S
H294 C276 0.931 . S
H295 C280 0.929 . S
H296 C282 0.930 . S
Co297 N301 2.148 . S
Co297 N307 2.128 . S
Co297 N317 2.194 . S
Co297 O322 2.351 . S
Co297 O323 2.155 . S
Co297 O324 2.096 . S
C298 N301 1.301 . S
C298 N302 1.328 . S
C298 H303 0.930 . S
C299 C300 1.333 . S
C299 N301 1.317 . S
C299 H304 0.930 . S
C300 C299 1.333 . S
C300 N302 1.350 . S
C300 H326 0.931 . S
N301 Co297 2.148 . S
N301 C298 1.301 . S
N301 C299 1.317 . S
N302 C298 1.328 . S
N302 C300 1.350 . S
H303 C298 0.930 . S
H304 C299 0.930 . S
C305 O306 1.224 . S
C305 O324 1.247 . S
O306 C305 1.224 . S
N307 Co297 2.128 . S
N307 C308 1.355 . S
N307 C310 1.311 . S
C308 N307 1.355 . S
C308 C309 1.363 . S
C308 H320 0.929 . S
C309 C308 1.363 . S
C309 N311 1.375 . S
C309 H327 0.931 . S
C310 N307 1.311 . S
C310 N311 1.347 . S
C310 H321 0.929 . S
N311 C309 1.375 . S
N311 C310 1.347 . S
C312 C315 1.365 . S
C312 N317 1.328 . S
C312 H318 0.929 . S
C313 C314 1.362 . S
C313 C316 1.378 . S
C313 H328 0.929 . S
C314 C313 1.362 . S
C314 C315 1.366 . S
C315 C312 1.365 . S
C315 C314 1.366 . S
C315 H329 0.930 . S
C316 C313 1.378 . S
C316 N317 1.315 . S
C316 H319 0.930 . S
N317 Co297 2.194 . S
N317 C312 1.328 . S
N317 C316 1.315 . S
H318 C312 0.929 . S
H319 C316 0.930 . S
H320 C308 0.929 . S
H321 C310 0.929 . S
O322 Co297 2.351 . S
O322 C325 1.244 . S
O323 Co297 2.155 . S
O323 C325 1.240 . S
O324 Co297 2.096 . S
O324 C305 1.247 . S
C325 O322 1.244 . S
C325 O323 1.240 . S
H326 C300 0.931 . S
H327 C309 0.931 . S
H328 C313 0.929 . S
H329 C315 0.930 . S
Co330 N334 2.148 . S
Co330 N340 2.128 . S
Co330 N350 2.194 . S
Co330 O355 2.351 . S
Co330 O356 2.155 . S
Co330 O357 2.096 . S
C331 N334 1.301 . S
C331 N335 1.328 . S
C331 H336 0.930 . S
C332 C333 1.333 . S
C332 N334 1.317 . S
C332 H337 0.930 . S
C333 C332 1.333 . S
C333 N335 1.350 . S
C333 H359 0.931 . S
N334 Co330 2.148 . S
N334 C331 1.301 . S
N334 C332 1.317 . S
N335 C331 1.328 . S
N335 C333 1.350 . S
H336 C331 0.930 . S
H337 C332 0.930 . S
C338 O339 1.224 . S
C338 O357 1.247 . S
O339 C338 1.224 . S
N340 Co330 2.128 . S
N340 C341 1.355 . S
N340 C343 1.311 . S
C341 N340 1.355 . S
C341 C342 1.363 . S
C341 H353 0.929 . S
C342 C341 1.363 . S
C342 N344 1.375 . S
C342 H360 0.931 . S
C343 N340 1.311 . S
C343 N344 1.347 . S
C343 H354 0.929 . S
N344 C342 1.375 . S
N344 C343 1.347 . S
C345 C348 1.365 . S
C345 N350 1.328 . S
C345 H351 0.929 . S
C346 C347 1.362 . S
C346 C349 1.378 . S
C346 H361 0.929 . S
C347 C346 1.362 . S
C347 C348 1.366 . S
C348 C345 1.365 . S
C348 C347 1.366 . S
C348 H362 0.930 . S
C349 C346 1.378 . S
C349 N350 1.315 . S
C349 H352 0.930 . S
N350 Co330 2.194 . S
N350 C345 1.328 . S
N350 C349 1.315 . S
H351 C345 0.929 . S
H352 C349 0.930 . S
H353 C341 0.929 . S
H354 C343 0.929 . S
O355 Co330 2.351 . S
O355 C358 1.244 . S
O356 Co330 2.155 . S
O356 C358 1.240 . S
O357 Co330 2.096 . S
O357 C338 1.247 . S
C358 O355 1.244 . S
C358 O356 1.240 . S
H359 C333 0.931 . S
H360 C342 0.931 . S
H361 C346 0.929 . S
H362 C348 0.930 . S
Co363 N367 2.148 . S
Co363 N373 2.128 . S
Co363 N383 2.194 . S
Co363 O388 2.351 . S
Co363 O389 2.155 . S
Co363 O390 2.096 . S
C364 N367 1.301 . S
C364 N368 1.328 . S
C364 H369 0.930 . S
C365 C366 1.333 . S
C365 N367 1.317 . S
C365 H370 0.930 . S
C366 C365 1.333 . S
C366 N368 1.350 . S
C366 H392 0.931 . S
N367 Co363 2.148 . S
N367 C364 1.301 . S
N367 C365 1.317 . S
N368 C364 1.328 . S
N368 C366 1.350 . S
H369 C364 0.930 . S
H370 C365 0.930 . S
C371 O372 1.224 . S
C371 O390 1.247 . S
O372 C371 1.224 . S
N373 Co363 2.128 . S
N373 C374 1.355 . S
N373 C376 1.311 . S
C374 N373 1.355 . S
C374 C375 1.363 . S
C374 H386 0.929 . S
C375 C374 1.363 . S
C375 N377 1.375 . S
C375 H393 0.931 . S
C376 N373 1.311 . S
C376 N377 1.347 . S
C376 H387 0.929 . S
N377 C375 1.375 . S
N377 C376 1.347 . S
C378 C381 1.365 . S
C378 N383 1.328 . S
C378 H384 0.929 . S
C379 C380 1.362 . S
C379 C382 1.378 . S
C379 H394 0.929 . S
C380 C379 1.362 . S
C380 C381 1.366 . S
C381 C378 1.365 . S
C381 C380 1.366 . S
C381 H395 0.930 . S
C382 C379 1.378 . S
C382 N383 1.315 . S
C382 H385 0.930 . S
N383 Co363 2.194 . S
N383 C378 1.328 . S
N383 C382 1.315 . S
H384 C378 0.929 . S
H385 C382 0.930 . S
H386 C374 0.929 . S
H387 C376 0.929 . S
O388 Co363 2.351 . S
O388 C391 1.244 . S
O389 Co363 2.155 . S
O389 C391 1.240 . S
O390 Co363 2.096 . S
O390 C371 1.247 . S
C391 O388 1.244 . S
C391 O389 1.240 . S
H392 C366 0.931 . S
H393 C375 0.931 . S
H394 C379 0.929 . S
H395 C381 0.930 . S
Co396 N400 2.148 . S
Co396 N406 2.128 . S
Co396 N416 2.194 . S
Co396 O421 2.351 . S
Co396 O422 2.155 . S
Co396 O423 2.096 . S
C397 N400 1.301 1_556 S
C397 N401 1.328 . S
C397 H402 0.930 . S
C398 C399 1.333 . S
C398 N400 1.317 1_556 S
C398 H403 0.930 1_556 S
C399 C398 1.333 . S
C399 N401 1.350 . S
C399 H425 0.931 . S
N400 Co396 2.148 . S
N400 C397 1.301 1_554 S
N400 C398 1.317 1_554 S
N401 C397 1.328 . S
N401 C399 1.350 . S
H402 C397 0.930 . S
H403 C398 0.930 1_554 S
C404 O405 1.224 . S
C404 O423 1.247 . S
O405 C404 1.224 . S
N406 Co396 2.128 . S
N406 C407 1.355 . S
N406 C409 1.311 . S
C407 N406 1.355 . S
C407 C408 1.363 . S
C407 H419 0.929 . S
C408 C407 1.363 . S
C408 N410 1.375 . S
C408 H426 0.931 . S
C409 N406 1.311 . S
C409 N410 1.347 . S
C409 H420 0.929 . S
N410 C408 1.375 . S
N410 C409 1.347 . S
C411 C414 1.365 . S
C411 N416 1.328 . S
C411 H417 0.929 . S
C412 C413 1.362 . S
C412 C415 1.378 . S
C412 H427 0.929 . S
C413 C412 1.362 . S
C413 C414 1.366 . S
C414 C411 1.365 . S
C414 C413 1.366 . S
C414 H428 0.930 . S
C415 C412 1.378 . S
C415 N416 1.315 . S
C415 H418 0.930 . S
N416 Co396 2.194 . S
N416 C411 1.328 . S
N416 C415 1.315 . S
H417 C411 0.929 . S
H418 C415 0.930 . S
H419 C407 0.929 . S
H420 C409 0.929 . S
O421 Co396 2.351 . S
O421 C424 1.244 . S
O422 Co396 2.155 . S
O422 C424 1.240 . S
O423 Co396 2.096 . S
O423 C404 1.247 . S
C424 O421 1.244 . S
C424 O422 1.240 . S
H425 C399 0.931 . S
H426 C408 0.931 . S
H427 C412 0.929 . S
H428 C414 0.930 . S
Co429 N433 2.148 . S
Co429 N439 2.128 . S
Co429 N449 2.194 . S
Co429 O454 2.351 . S
Co429 O455 2.155 . S
Co429 O456 2.096 . S
C430 N433 1.301 . S
C430 N434 1.328 . S
C430 H435 0.930 . S
C431 C432 1.333 . S
C431 N433 1.317 . S
C431 H436 0.930 . S
C432 C431 1.333 . S
C432 N434 1.350 . S
C432 H458 0.931 . S
N433 Co429 2.148 . S
N433 C430 1.301 . S
N433 C431 1.317 . S
N434 C430 1.328 . S
N434 C432 1.350 . S
H435 C430 0.930 . S
H436 C431 0.930 . S
C437 O438 1.224 . S
C437 O456 1.247 . S
O438 C437 1.224 . S
N439 Co429 2.128 . S
N439 C440 1.355 1_554 S
N439 C442 1.311 1_554 S
C440 N439 1.355 1_556 S
C440 C441 1.363 . S
C440 H452 0.929 1_556 S
C441 C440 1.363 . S
C441 N443 1.375 . S
C441 H459 0.931 . S
C442 N439 1.311 1_556 S
C442 N443 1.347 . S
C442 H453 0.929 . S
N443 C441 1.375 . S
N443 C442 1.347 . S
C444 C447 1.365 . S
C444 N449 1.328 . S
C444 H450 0.929 . S
C445 C446 1.362 . S
C445 C448 1.378 . S
C445 H460 0.929 . S
C446 C445 1.362 . S
C446 C447 1.366 . S
C447 C444 1.365 . S
C447 C446 1.366 . S
C447 H461 0.930 . S
C448 C445 1.378 . S
C448 N449 1.315 . S
C448 H451 0.930 . S
N449 Co429 2.194 . S
N449 C444 1.328 . S
N449 C448 1.315 . S
H450 C444 0.929 . S
H451 C448 0.930 . S
H452 C440 0.929 1_554 S
H453 C442 0.929 . S
O454 Co429 2.351 . S
O454 C457 1.244 . S
O455 Co429 2.155 . S
O455 C457 1.240 . S
O456 Co429 2.096 . S
O456 C437 1.247 . S
C457 O454 1.244 . S
C457 O455 1.240 . S
H458 C432 0.931 . S
H459 C441 0.931 . S
H460 C445 0.929 . S
H461 C447 0.930 . S
Co462 N466 2.148 . S
Co462 N472 2.128 . S
Co462 N482 2.194 . S
Co462 O487 2.351 . S
Co462 O488 2.155 . S
Co462 O489 2.096 . S
C463 N466 1.301 1_554 S
C463 N467 1.328 . S
C463 H468 0.930 . S
C464 C465 1.333 . S
C464 N466 1.317 1_554 S
C464 H469 0.930 1_554 S
C465 C464 1.333 . S
C465 N467 1.350 . S
C465 H491 0.931 . S
N466 Co462 2.148 . S
N466 C463 1.301 1_556 S
N466 C464 1.317 1_556 S
N467 C463 1.328 . S
N467 C465 1.350 . S
H468 C463 0.930 . S
H469 C464 0.930 1_556 S
C470 O471 1.224 . S
C470 O489 1.247 . S
O471 C470 1.224 . S
N472 Co462 2.128 . S
N472 C473 1.355 . S
N472 C475 1.311 . S
C473 N472 1.355 . S
C473 C474 1.363 . S
C473 H485 0.929 . S
C474 C473 1.363 . S
C474 N476 1.375 . S
C474 H492 0.931 . S
C475 N472 1.311 . S
C475 N476 1.347 . S
C475 H486 0.929 . S
N476 C474 1.375 . S
N476 C475 1.347 . S
C477 C480 1.365 . S
C477 N482 1.328 . S
C477 H483 0.929 . S
C478 C479 1.362 . S
C478 C481 1.378 . S
C478 H493 0.929 . S
C479 C478 1.362 . S
C479 C480 1.366 . S
C480 C477 1.365 . S
C480 C479 1.366 . S
C480 H494 0.930 . S
C481 C478 1.378 . S
C481 N482 1.315 . S
C481 H484 0.930 . S
N482 Co462 2.194 . S
N482 C477 1.328 . S
N482 C481 1.315 . S
H483 C477 0.929 . S
H484 C481 0.930 . S
H485 C473 0.929 . S
H486 C475 0.929 . S
O487 Co462 2.351 . S
O487 C490 1.244 . S
O488 Co462 2.155 . S
O488 C490 1.240 . S
O489 Co462 2.096 . S
O489 C470 1.247 . S
C490 O487 1.244 . S
C490 O488 1.240 . S
H491 C465 0.931 . S
H492 C474 0.931 . S
H493 C478 0.929 . S
H494 C480 0.930 . S
Co495 N499 2.148 . S
Co495 N505 2.128 . S
Co495 N515 2.194 . S
Co495 O520 2.351 . S
Co495 O521 2.155 . S
Co495 O522 2.096 . S
C496 N499 1.301 . S
C496 N500 1.328 . S
C496 H501 0.930 . S
C497 C498 1.333 . S
C497 N499 1.317 . S
C497 H502 0.930 . S
C498 C497 1.333 . S
C498 N500 1.350 . S
C498 H524 0.931 . S
N499 Co495 2.148 . S
N499 C496 1.301 . S
N499 C497 1.317 . S
N500 C496 1.328 . S
N500 C498 1.350 . S
H501 C496 0.930 . S
H502 C497 0.930 . S
C503 O504 1.224 . S
C503 O522 1.247 . S
O504 C503 1.224 . S
N505 Co495 2.128 . S
N505 C506 1.355 1_556 S
N505 C508 1.311 1_556 S
C506 N505 1.355 1_554 S
C506 C507 1.363 . S
C506 H518 0.929 1_554 S
C507 C506 1.363 . S
C507 N509 1.375 . S
C507 H525 0.931 . S
C508 N505 1.311 1_554 S
C508 N509 1.347 . S
C508 H519 0.929 . S
N509 C507 1.375 . S
N509 C508 1.347 . S
C510 C513 1.365 . S
C510 N515 1.328 . S
C510 H516 0.929 . S
C511 C512 1.362 . S
C511 C514 1.378 . S
C511 H526 0.929 . S
C512 C511 1.362 . S
C512 C513 1.366 . S
C513 C510 1.365 . S
C513 C512 1.366 . S
C513 H527 0.930 . S
C514 C511 1.378 . S
C514 N515 1.315 . S
C514 H517 0.930 . S
N515 Co495 2.194 . S
N515 C510 1.328 . S
N515 C514 1.315 . S
H516 C510 0.929 . S
H517 C514 0.930 . S
H518 C506 0.929 1_556 S
H519 C508 0.929 . S
O520 Co495 2.351 . S
O520 C523 1.244 . S
O521 Co495 2.155 . S
O521 C523 1.240 . S
O522 Co495 2.096 . S
O522 C503 1.247 . S
C523 O520 1.244 . S
C523 O521 1.240 . S
H524 C498 0.931 . S
H525 C507 0.931 . S
H526 C511 0.929 . S
H527 C513 0.930 . S
C528 C529 1.391 . S
C528 C530 1.394 . S
C528 H544 0.931 . S
C529 C528 1.391 . S
C529 C533 1.376 . S
C530 C528 1.394 . S
C530 C531 1.369 . S
C530 C534 1.531 . S
C531 C530 1.369 . S
C531 C532 1.410 . S
C531 C539 1.503 . S
C532 C531 1.410 . S
C532 C533 1.392 . S
C532 C535 1.511 . S
C533 C529 1.376 . S
C533 C532 1.392 . S
C533 H545 0.929 . S
C534 C530 1.531 . S
C534 H546 0.960 . S
C534 H547 0.962 . S
C534 H548 0.960 . S
C535 C532 1.511 . S
C535 H549 0.961 . S
C535 H550 0.961 . S
C535 H551 0.961 . S
C536 C537 1.370 . S
C536 C538 1.363 . S
C536 H552 0.931 . S
C537 C536 1.370 . S
C537 C541 1.408 . S
C538 C536 1.363 . S
C538 C539 1.370 . S
C538 C542 1.524 . S
C539 C531 1.503 . S
C539 C538 1.370 . S
C539 C540 1.403 . S
C540 C539 1.403 . S
C540 C541 1.404 . S
C540 C543 1.539 . S
C541 C537 1.408 . S
C541 C540 1.404 . S
C541 H553 0.930 . S
C542 C538 1.524 . S
C542 H554 0.956 . S
C542 H555 0.961 . S
C542 H556 0.961 . S
C543 C540 1.539 . S
C543 H557 0.958 . S
C543 H558 0.961 . S
C543 H559 0.960 . S
H544 C528 0.931 . S
H545 C533 0.929 . S
H546 C534 0.960 . S
H547 C534 0.962 . S
H548 C534 0.960 . S
H549 C535 0.961 . S
H550 C535 0.961 . S
H551 C535 0.961 . S
H552 C536 0.931 . S
H553 C541 0.930 . S
H554 C542 0.956 . S
H555 C542 0.961 . S
H556 C542 0.961 . S
H557 C543 0.958 . S
H558 C543 0.961 . S
H559 C543 0.960 . S
C560 C561 1.391 . S
C560 C562 1.394 . S
C560 H576 0.931 . S
C561 C560 1.391 . S
C561 C565 1.376 . S
C562 C560 1.394 . S
C562 C563 1.369 . S
C562 C566 1.531 . S
C563 C562 1.369 . S
C563 C564 1.410 . S
C563 C571 1.503 1_455 S
C564 C563 1.410 . S
C564 C565 1.392 . S
C564 C567 1.511 . S
C565 C561 1.376 . S
C565 C564 1.392 . S
C565 H577 0.929 . S
C566 C562 1.531 . S
C566 H578 0.960 1_455 S
C566 H579 0.962 1_455 S
C566 H580 0.960 . S
C567 C564 1.511 . S
C567 H581 0.961 . S
C567 H582 0.961 . S
C567 H583 0.961 . S
C568 C569 1.370 . S
C568 C570 1.363 . S
C568 H584 0.931 . S
C569 C568 1.370 . S
C569 C573 1.408 . S
C570 C568 1.363 . S
C570 C571 1.370 . S
C570 C574 1.524 . S
C571 C563 1.503 1_655 S
C571 C570 1.370 . S
C571 C572 1.403 . S
C572 C571 1.403 . S
C572 C573 1.404 . S
C572 C575 1.539 1_655 S
C573 C569 1.408 . S
C573 C572 1.404 . S
C573 H585 0.930 . S
C574 C570 1.524 . S
C574 H586 0.956 . S
C574 H587 0.961 . S
C574 H588 0.961 . S
C575 C572 1.539 1_455 S
C575 H589 0.958 . S
C575 H590 0.961 . S
C575 H591 0.960 . S
H576 C560 0.931 . S
H577 C565 0.929 . S
H578 C566 0.960 1_655 S
H579 C566 0.962 1_655 S
H580 C566 0.960 . S
H581 C567 0.961 . S
H582 C567 0.961 . S
H583 C567 0.961 . S
H584 C568 0.931 . S
H585 C573 0.930 . S
H586 C574 0.956 . S
H587 C574 0.961 . S
H588 C574 0.961 . S
H589 C575 0.958 . S
H590 C575 0.961 . S
H591 C575 0.960 . S
C592 C593 1.391 . S
C592 C594 1.394 1_556 S
C592 H608 0.931 1_556 S
C593 C592 1.391 . S
C593 C597 1.376 . S
C594 C592 1.394 1_554 S
C594 C595 1.367 1_554 S
C594 C598 1.531 . S
C595 C594 1.367 1_556 S
C595 C596 1.414 . S
C595 C603 1.501 1_556 S
C596 C595 1.414 . S
C596 C597 1.392 . S
C596 C599 1.511 . S
C597 C593 1.376 . S
C597 C596 1.392 . S
C597 H609 0.929 . S
C598 C594 1.531 . S
C598 H610 0.960 . S
C598 H611 0.962 . S
C598 H612 0.960 . S
C599 C596 1.511 . S
C599 H613 0.961 . S
C599 H614 0.961 . S
C599 H615 0.961 . S
C600 C601 1.370 . S
C600 C602 1.363 1_554 S
C600 H616 0.931 1_554 S
C601 C600 1.370 . S
C601 C605 1.408 . S
C602 C600 1.363 1_556 S
C602 C603 1.370 1_556 S
C602 C606 1.524 . S
C603 C595 1.501 1_554 S
C603 C602 1.370 1_554 S
C603 C604 1.403 . S
C604 C603 1.403 . S
C604 C605 1.404 . S
C604 C607 1.539 . S
C605 C601 1.408 . S
C605 C604 1.404 . S
C605 H617 0.930 . S
C606 C602 1.524 . S
C606 H618 0.956 . S
C606 H619 0.961 . S
C606 H620 0.961 . S
C607 C604 1.539 . S
C607 H621 0.958 . S
C607 H622 0.961 . S
C607 H623 0.960 . S
H608 C592 0.931 1_554 S
H609 C597 0.929 . S
H610 C598 0.960 . S
H611 C598 0.962 . S
H612 C598 0.960 . S
H613 C599 0.961 . S
H614 C599 0.961 . S
H615 C599 0.961 . S
H616 C600 0.931 1_556 S
H617 C605 0.930 . S
H618 C606 0.956 . S
H619 C606 0.961 . S
H620 C606 0.961 . S
H621 C607 0.958 . S
H622 C607 0.961 . S
H623 C607 0.960 . S
C624 C625 1.391 . S
C624 C626 1.394 . S
C624 H640 0.931 . S
C625 C624 1.391 . S
C625 C629 1.376 1_556 S
C626 C624 1.394 . S
C626 C627 1.369 . S
C626 C630 1.531 1_655 S
C627 C626 1.369 . S
C627 C628 1.410 1_556 S
C627 C635 1.503 1_656 S
C628 C627 1.410 1_554 S
C628 C629 1.392 . S
C628 C631 1.511 . S
C629 C625 1.376 1_554 S
C629 C628 1.392 . S
C629 H641 0.929 . S
C630 C626 1.531 1_455 S
C630 H642 0.960 . S
C630 H643 0.962 . S
C630 H644 0.949 1_455 S
C631 C628 1.511 . S
C631 H645 0.961 . S
C631 H646 0.961 . S
C631 H647 0.961 . S
C632 C633 1.370 . S
C632 C634 1.363 . S
C632 H648 0.931 . S
C633 C632 1.370 . S
C633 C637 1.408 . S
C634 C632 1.363 . S
C634 C635 1.370 . S
C634 C638 1.524 . S
C635 C627 1.503 1_454 S
C635 C634 1.370 . S
C635 C636 1.403 . S
C636 C635 1.403 . S
C636 C637 1.404 . S
C636 C639 1.539 1_454 S
C637 C633 1.408 . S
C637 C636 1.404 . S
C637 H649 0.930 . S
C638 C634 1.524 . S
C638 H650 0.956 1_554 S
C638 H651 0.961 . S
C638 H652 0.961 . S
C639 C636 1.539 1_656 S
C639 H653 0.958 . S
C639 H654 0.961 1_556 S
C639 H655 0.960 . S
H640 C624 0.931 . S
H641 C629 0.929 . S
H642 C630 0.960 . S
H643 C630 0.962 . S
H644 C630 0.949 1_655 S
H645 C631 0.961 . S
H646 C631 0.961 . S
H647 C631 0.961 . S
H648 C632 0.931 . S
H649 C637 0.930 . S
H650 C638 0.956 1_556 S
H651 C638 0.961 . S
H652 C638 0.961 . S
H653 C639 0.958 . S
H654 C639 0.961 1_554 S
H655 C639 0.960 . S
C656 C657 1.391 . S
C656 C658 1.394 . S
C656 H672 0.931 . S
C657 C656 1.391 . S
C657 C661 1.376 . S
C658 C656 1.394 . S
C658 C659 1.369 . S
C658 C662 1.531 . S
C659 C658 1.369 . S
C659 C660 1.410 . S
C659 C667 1.503 . S
C660 C659 1.410 . S
C660 C661 1.392 . S
C660 C663 1.511 . S
C661 C657 1.376 . S
C661 C660 1.392 . S
C661 H673 0.929 . S
C662 C658 1.531 . S
C662 H674 0.960 . S
C662 H675 0.962 . S
C662 H676 0.960 . S
C663 C660 1.511 . S
C663 H677 0.961 . S
C663 H678 0.961 . S
C663 H679 0.961 . S
C664 C665 1.370 . S
C664 C666 1.363 . S
C664 H680 0.931 . S
C665 C664 1.370 . S
C665 C669 1.408 . S
C666 C664 1.363 . S
C666 C667 1.370 . S
C666 C670 1.524 . S
C667 C659 1.503 . S
C667 C666 1.370 . S
C667 C668 1.403 . S
C668 C667 1.403 . S
C668 C669 1.404 . S
C668 C671 1.539 . S
C669 C665 1.408 . S
C669 C668 1.404 . S
C669 H681 0.930 . S
C670 C666 1.524 . S
C670 H682 0.956 . S
C670 H683 0.961 . S
C670 H684 0.961 . S
C671 C668 1.539 . S
C671 H685 0.958 . S
C671 H686 0.961 . S
C671 H687 0.960 . S
H672 C656 0.931 . S
H673 C661 0.929 . S
H674 C662 0.960 . S
H675 C662 0.962 . S
H676 C662 0.960 . S
H677 C663 0.961 . S
H678 C663 0.961 . S
H679 C663 0.961 . S
H680 C664 0.931 . S
H681 C669 0.930 . S
H682 C670 0.956 . S
H683 C670 0.961 . S
H684 C670 0.961 . S
H685 C671 0.958 . S
H686 C671 0.961 . S
H687 C671 0.960 . S
C688 C689 1.391 . S
C688 C690 1.394 . S
C688 H704 0.931 . S
C689 C688 1.391 . S
C689 C693 1.376 . S
C690 C688 1.394 . S
C690 C691 1.369 . S
C690 C694 1.531 . S
C691 C690 1.369 . S
C691 C692 1.410 . S
C691 C699 1.503 1_455 S
C692 C691 1.410 . S
C692 C693 1.392 . S
C692 C695 1.511 1_455 S
C693 C689 1.376 . S
C693 C692 1.392 . S
C693 H705 0.929 . S
C694 C690 1.531 . S
C694 H706 0.960 . S
C694 H707 0.962 . S
C694 H708 0.960 . S
C695 C692 1.511 1_655 S
C695 H709 0.961 . S
C695 H710 0.961 . S
C695 H711 0.961 . S
C696 C697 1.370 . S
C696 C698 1.363 . S
C696 H712 0.931 . S
C697 C696 1.370 . S
C697 C701 1.408 . S
C698 C696 1.363 . S
C698 C699 1.370 . S
C698 C702 1.524 1_655 S
C699 C691 1.503 1_655 S
C699 C698 1.370 . S
C699 C700 1.403 . S
C700 C699 1.403 . S
C700 C701 1.404 . S
C700 C703 1.539 . S
C701 C697 1.408 . S
C701 C700 1.404 . S
C701 H713 0.930 . S
C702 C698 1.524 1_455 S
C702 H714 0.956 . S
C702 H715 0.961 . S
C702 H716 0.967 . S
C703 C700 1.539 . S
C703 H717 0.958 . S
C703 H718 0.961 . S
C703 H719 0.960 . S
H704 C688 0.931 . S
H705 C693 0.929 . S
H706 C694 0.960 . S
H707 C694 0.962 . S
H708 C694 0.960 . S
H709 C695 0.961 . S
H710 C695 0.961 . S
H711 C695 0.961 . S
H712 C696 0.931 . S
H713 C701 0.930 . S
H714 C702 0.956 . S
H715 C702 0.961 . S
H716 C702 0.967 . S
H717 C703 0.958 . S
H718 C703 0.961 . S
H719 C703 0.960 . S
C720 C721 1.391 . S
C720 C722 1.394 . S
C720 H736 0.931 . S
C721 C720 1.391 . S
C721 C725 1.376 . S
C722 C720 1.394 . S
C722 C723 1.369 . S
C722 C726 1.531 . S
C723 C722 1.369 . S
C723 C724 1.410 . S
C723 C731 1.503 1_554 S
C724 C723 1.410 . S
C724 C725 1.392 . S
C724 C727 1.511 . S
C725 C721 1.376 . S
C725 C724 1.392 . S
C725 H737 0.929 . S
C726 C722 1.531 . S
C726 H738 0.960 . S
C726 H739 0.962 . S
C726 H740 0.960 . S
C727 C724 1.511 . S
C727 H741 0.961 1_554 S
C727 H742 0.961 1_554 S
C727 H743 0.961 . S
C728 C729 1.370 . S
C728 C730 1.363 . S
C728 H744 0.931 . S
C729 C728 1.370 . S
C729 C733 1.408 1_556 S
C730 C728 1.363 . S
C730 C731 1.370 . S
C730 C734 1.524 . S
C731 C723 1.503 1_556 S
C731 C730 1.370 . S
C731 C732 1.403 1_556 S
C732 C731 1.403 1_554 S
C732 C733 1.404 . S
C732 C735 1.539 . S
C733 C729 1.408 1_554 S
C733 C732 1.404 . S
C733 H745 0.930 . S
C734 C730 1.524 . S
C734 H746 0.956 . S
C734 H747 0.961 . S
C734 H748 0.961 . S
C735 C732 1.539 . S
C735 H749 0.958 . S
C735 H750 0.961 . S
C735 H751 0.960 . S
H736 C720 0.931 . S
H737 C725 0.929 . S
H738 C726 0.960 . S
H739 C726 0.962 . S
H740 C726 0.960 . S
H741 C727 0.961 1_556 S
H742 C727 0.961 1_556 S
H743 C727 0.961 . S
H744 C728 0.931 . S
H745 C733 0.930 . S
H746 C734 0.956 . S
H747 C734 0.961 . S
H748 C734 0.961 . S
H749 C735 0.958 . S
H750 C735 0.961 . S
H751 C735 0.960 . S
C752 C753 1.391 . S
C752 C754 1.394 . S
C752 H768 0.931 . S
C753 C752 1.391 . S
C753 C757 1.376 . S
C754 C752 1.394 . S
C754 C755 1.369 . S
C754 C758 1.531 . S
C755 C754 1.369 . S
C755 C756 1.410 . S
C755 C763 1.503 1_565 S
C756 C755 1.410 . S
C756 C757 1.392 . S
C756 C759 1.511 1_565 S
C757 C753 1.376 . S
C757 C756 1.392 . S
C757 H769 0.929 . S
C758 C754 1.531 . S
C758 H770 0.960 1_565 S
C758 H771 0.962 . S
C758 H772 0.960 . S
C759 C756 1.511 1_545 S
C759 H773 0.961 1_545 S
C759 H774 0.961 . S
C759 H775 0.961 . S
C760 C761 1.370 . S
C760 C762 1.363 1_545 S
C760 H776 0.957 . S
C761 C760 1.370 . S
C761 C765 1.408 . S
C762 C760 1.363 1_565 S
C762 C763 1.370 1_565 S
C762 C766 1.524 . S
C763 C755 1.503 1_545 S
C763 C762 1.370 1_545 S
C763 C764 1.403 . S
C764 C763 1.403 . S
C764 C765 1.404 . S
C764 C767 1.539 . S
C765 C761 1.408 . S
C765 C764 1.404 . S
C765 H777 0.930 . S
C766 C762 1.524 . S
C766 H778 0.956 . S
C766 H779 0.961 . S
C766 H780 0.961 . S
C767 C764 1.539 . S
C767 H781 0.958 . S
C767 H782 0.961 . S
C767 H783 0.960 . S
H768 C752 0.931 . S
H769 C757 0.929 . S
H770 C758 0.960 1_545 S
H771 C758 0.962 . S
H772 C758 0.960 . S
H773 C759 0.961 1_565 S
H774 C759 0.961 . S
H775 C759 0.961 . S
H776 C760 0.957 . S
H777 C765 0.930 . S
H778 C766 0.956 . S
H779 C766 0.961 . S
H780 C766 0.961 . S
H781 C767 0.958 . S
H782 C767 0.961 . S
H783 C767 0.960 . S
C784 C785 1.391 . S
C784 C786 1.394 . S
C784 H800 0.931 . S
C785 C784 1.391 . S
C785 C789 1.376 . S
C786 C784 1.394 . S
C786 C787 1.369 . S
C786 C790 1.531 . S
C787 C786 1.369 . S
C787 C788 1.410 . S
C787 C795 1.503 . S
C788 C787 1.410 . S
C788 C789 1.392 . S
C788 C791 1.511 . S
C789 C785 1.376 . S
C789 C788 1.392 . S
C789 H801 0.929 . S
C790 C786 1.531 . S
C790 H802 0.960 . S
C790 H803 0.962 . S
C790 H804 0.960 . S
C791 C788 1.511 . S
C791 H805 0.961 . S
C791 H806 0.961 . S
C791 H807 0.961 . S
C792 C793 1.370 . S
C792 C794 1.363 . S
C792 H808 0.931 . S
C793 C792 1.370 . S
C793 C797 1.408 . S
C794 C792 1.363 . S
C794 C795 1.370 . S
C794 C798 1.524 . S
C795 C787 1.503 . S
C795 C794 1.370 . S
C795 C796 1.403 . S
C796 C795 1.403 . S
C796 C797 1.404 . S
C796 C799 1.539 . S
C797 C793 1.408 . S
C797 C796 1.404 . S
C797 H809 0.930 . S
C798 C794 1.524 . S
C798 H810 0.956 . S
C798 H811 0.961 . S
C798 H812 0.961 . S
C799 C796 1.539 . S
C799 H813 0.958 . S
C799 H814 0.961 . S
C799 H815 0.960 . S
H800 C784 0.931 . S
H801 C789 0.929 . S
H802 C790 0.960 . S
H803 C790 0.962 . S
H804 C790 0.960 . S
H805 C791 0.961 . S
H806 C791 0.961 . S
H807 C791 0.961 . S
H808 C792 0.931 . S
H809 C797 0.930 . S
H810 C798 0.956 . S
H811 C798 0.961 . S
H812 C798 0.961 . S
H813 C799 0.958 . S
H814 C799 0.961 . S
H815 C799 0.960 . S
C816 C817 1.391 . S
C816 C818 1.394 . S
C816 H832 0.931 . S
C817 C816 1.391 . S
C817 C821 1.376 . S
C818 C816 1.394 . S
C818 C819 1.369 . S
C818 C822 1.531 . S
C819 C818 1.369 . S
C819 C820 1.410 . S
C819 C827 1.503 1_665 S
C820 C819 1.410 . S
C820 C821 1.392 . S
C820 C823 1.491 1_665 S
C821 C817 1.376 . S
C821 C820 1.392 . S
C821 H833 0.929 . S
C822 C818 1.531 . S
C822 H834 0.960 1_655 S
C822 H835 0.962 . S
C822 H836 0.960 . S
C823 C820 1.491 1_445 S
C823 H837 0.939 1_455 S
C823 H838 0.978 . S
C823 H839 0.987 1_545 S
C824 C825 1.370 . S
C824 C826 1.363 . S
C824 H840 0.931 . S
C825 C824 1.370 . S
C825 C829 1.408 . S
C826 C824 1.363 . S
C826 C827 1.370 . S
C826 C830 1.524 1_455 S
C827 C819 1.503 1_445 S
C827 C826 1.370 . S
C827 C828 1.403 1_545 S
C828 C827 1.403 1_565 S
C828 C829 1.404 1_565 S
C828 C831 1.539 . S
C829 C825 1.408 . S
C829 C828 1.404 1_545 S
C829 H841 0.967 . S
C830 C826 1.524 1_655 S
C830 H842 0.956 . S
C830 H843 0.961 . S
C830 H844 0.961 . S
C831 C828 1.539 . S
C831 H845 0.958 . S
C831 H846 0.961 . S
C831 H847 0.960 . S
H832 C816 0.931 . S
H833 C821 0.929 . S
H834 C822 0.960 1_455 S
H835 C822 0.962 . S
H836 C822 0.960 . S
H837 C823 0.939 1_655 S
H838 C823 0.978 . S
H839 C823 0.987 1_565 S
H840 C824 0.931 . S
H841 C829 0.967 . S
H842 C830 0.956 . S
H843 C830 0.961 . S
H844 C830 0.961 . S
H845 C831 0.958 . S
H846 C831 0.961 . S
H847 C831 0.960 . S
C848 C849 1.391 . S
C848 C850 1.394 . S
C848 H864 0.931 . S
C849 C848 1.391 . S
C849 C853 1.376 . S
C850 C848 1.394 . S
C850 C851 1.369 . S
C850 C854 1.531 . S
C851 C850 1.369 . S
C851 C852 1.410 . S
C851 C859 1.503 1_545 S
C852 C851 1.410 . S
C852 C853 1.392 . S
C852 C855 1.511 . S
C853 C849 1.376 . S
C853 C852 1.392 . S
C853 H865 0.929 . S
C854 C850 1.531 . S
C854 H866 0.960 . S
C854 H867 0.962 . S
C854 H868 0.960 . S
C855 C852 1.511 . S
C855 H869 0.945 1_545 S
C855 H870 0.961 1_545 S
C855 H871 0.961 . S
C856 C857 1.370 . S
C856 C858 1.363 . S
C856 H872 0.931 . S
C857 C856 1.370 . S
C857 C861 1.408 . S
C858 C856 1.363 . S
C858 C859 1.370 . S
C858 C862 1.524 . S
C859 C851 1.503 1_565 S
C859 C858 1.370 . S
C859 C860 1.403 1_565 S
C860 C859 1.403 1_545 S
C860 C861 1.404 1_545 S
C860 C863 1.539 . S
C861 C857 1.408 . S
C861 C860 1.404 1_565 S
C861 H873 0.930 . S
C862 C858 1.524 . S
C862 H874 0.956 . S
C862 H875 0.961 . S
C862 H876 0.961 . S
C863 C860 1.539 . S
C863 H877 0.958 . S
C863 H878 0.961 . S
C863 H879 0.960 . S
H864 C848 0.931 . S
H865 C853 0.929 . S
H866 C854 0.960 . S
H867 C854 0.962 . S
H868 C854 0.960 . S
H869 C855 0.945 1_565 S
H870 C855 0.961 1_565 S
H871 C855 0.961 . S
H872 C856 0.931 . S
H873 C861 0.930 . S
H874 C862 0.956 . S
H875 C862 0.961 . S
H876 C862 0.961 . S
H877 C863 0.958 . S
H878 C863 0.961 . S
H879 C863 0.960 . S
C880 C881 1.391 . S
C880 C882 1.394 . S
C880 H896 0.931 . S
C881 C880 1.391 . S
C881 C885 1.376 . S
C882 C880 1.394 . S
C882 C883 1.369 . S
C882 C886 1.531 . S
C883 C882 1.369 . S
C883 C884 1.410 . S
C883 C891 1.503 . S
C884 C883 1.410 . S
C884 C885 1.392 . S
C884 C887 1.511 . S
C885 C881 1.376 . S
C885 C884 1.392 . S
C885 H897 0.929 . S
C886 C882 1.531 . S
C886 H898 0.960 . S
C886 H899 0.962 . S
C886 H900 0.960 . S
C887 C884 1.511 . S
C887 H901 0.961 . S
C887 H902 0.961 . S
C887 H903 0.961 . S
C888 C889 1.370 . S
C888 C890 1.363 . S
C888 H904 0.931 . S
C889 C888 1.370 . S
C889 C893 1.408 . S
C890 C888 1.363 . S
C890 C891 1.370 . S
C890 C894 1.524 . S
C891 C883 1.503 . S
C891 C890 1.370 . S
C891 C892 1.403 . S
C892 C891 1.403 . S
C892 C893 1.404 . S
C892 C895 1.539 . S
C893 C889 1.408 . S
C893 C892 1.404 . S
C893 H905 0.930 . S
C894 C890 1.524 . S
C894 H906 0.956 . S
C894 H907 0.961 . S
C894 H908 0.961 . S
C895 C892 1.539 . S
C895 H909 0.958 . S
C895 H910 0.961 . S
C895 H911 0.960 . S
H896 C880 0.931 . S
H897 C885 0.929 . S
H898 C886 0.960 . S
H899 C886 0.962 . S
H900 C886 0.960 . S
H901 C887 0.961 . S
H902 C887 0.961 . S
H903 C887 0.961 . S
H904 C888 0.931 . S
H905 C893 0.930 . S
H906 C894 0.956 . S
H907 C894 0.961 . S
H908 C894 0.961 . S
H909 C895 0.958 . S
H910 C895 0.961 . S
H911 C895 0.960 . S
C912 C913 1.391 . S
C912 C914 1.394 . S
C912 H928 0.931 . S
C913 C912 1.391 . S
C913 C917 1.376 . S
C914 C912 1.394 . S
C914 C915 1.369 . S
C914 C918 1.531 . S
C915 C914 1.369 . S
C915 C916 1.410 . S
C915 C923 1.503 . S
C916 C915 1.410 . S
C916 C917 1.392 . S
C916 C919 1.511 . S
C917 C913 1.376 . S
C917 C916 1.392 . S
C917 H929 0.929 . S
C918 C914 1.531 . S
C918 H930 0.960 . S
C918 H931 0.962 . S
C918 H932 0.960 . S
C919 C916 1.511 . S
C919 H933 0.961 . S
C919 H934 0.961 . S
C919 H935 0.961 . S
C920 C921 1.370 . S
C920 C922 1.363 . S
C920 H936 0.931 . S
C921 C920 1.370 . S
C921 C925 1.408 . S
C922 C920 1.363 . S
C922 C923 1.370 . S
C922 C926 1.524 . S
C923 C915 1.503 . S
C923 C922 1.370 . S
C923 C924 1.403 . S
C924 C923 1.403 . S
C924 C925 1.404 . S
C924 C927 1.539 . S
C925 C921 1.408 . S
C925 C924 1.404 . S
C925 H937 0.930 . S
C926 C922 1.524 . S
C926 H938 0.956 . S
C926 H939 0.961 . S
C926 H940 0.961 . S
C927 C924 1.539 . S
C927 H941 0.958 . S
C927 H942 0.961 . S
C927 H943 0.960 . S
H928 C912 0.931 . S
H929 C917 0.929 . S
H930 C918 0.960 . S
H931 C918 0.962 . S
H932 C918 0.960 . S
H933 C919 0.961 . S
H934 C919 0.961 . S
H935 C919 0.961 . S
H936 C920 0.931 . S
H937 C925 0.930 . S
H938 C926 0.956 . S
H939 C926 0.961 . S
H940 C926 0.961 . S
H941 C927 0.958 . S
H942 C927 0.961 . S
H943 C927 0.960 . S
C944 C945 1.391 . S
C944 C946 1.394 . S
C944 H960 0.931 . S
C945 C944 1.391 . S
C945 C949 1.376 . S
C946 C944 1.394 . S
C946 C947 1.369 . S
C946 C950 1.531 . S
C947 C946 1.369 . S
C947 C948 1.410 . S
C947 C955 1.503 . S
C948 C947 1.410 . S
C948 C949 1.392 . S
C948 C951 1.511 . S
C949 C945 1.376 . S
C949 C948 1.392 . S
C949 H961 0.929 . S
C950 C946 1.531 . S
C950 H962 0.960 . S
C950 H963 0.962 . S
C950 H964 0.960 . S
C951 C948 1.511 . S
C951 H965 0.961 . S
C951 H966 0.961 . S
C951 H967 0.961 . S
C952 C953 1.370 . S
C952 C954 1.363 . S
C952 H968 0.931 . S
C953 C952 1.370 . S
C953 C957 1.408 . S
C954 C952 1.363 . S
C954 C955 1.370 . S
C954 C958 1.524 . S
C955 C947 1.503 . S
C955 C954 1.370 . S
C955 C956 1.403 . S
C956 C955 1.403 . S
C956 C957 1.404 . S
C956 C959 1.539 . S
C957 C953 1.408 . S
C957 C956 1.404 . S
C957 H969 0.930 . S
C958 C954 1.524 . S
C958 H970 0.956 . S
C958 H971 0.961 . S
C958 H972 0.961 . S
C959 C956 1.539 . S
C959 H973 0.958 . S
C959 H974 0.961 . S
C959 H975 0.960 . S
H960 C944 0.931 . S
H961 C949 0.929 . S
H962 C950 0.960 . S
H963 C950 0.962 . S
H964 C950 0.960 . S
H965 C951 0.961 . S
H966 C951 0.961 . S
H967 C951 0.961 . S
H968 C952 0.931 . S
H969 C957 0.930 . S
H970 C958 0.956 . S
H971 C958 0.961 . S
H972 C958 0.961 . S
H973 C959 0.958 . S
H974 C959 0.961 . S
H975 C959 0.960 . S
C976 C977 1.391 . S
C976 C978 1.394 . S
C976 H992 0.931 . S
C977 C976 1.391 . S
C977 C981 1.376 . S
C978 C976 1.394 . S
C978 C979 1.369 . S
C978 C982 1.531 . S
C979 C978 1.369 . S
C979 C980 1.410 . S
C979 C987 1.503 . S
C980 C979 1.410 . S
C980 C981 1.392 . S
C980 C983 1.511 . S
C981 C977 1.376 . S
C981 C980 1.392 . S
C981 H993 0.929 . S
C982 C978 1.531 . S
C982 H994 0.960 . S
C982 H995 0.962 . S
C982 H996 0.960 . S
C983 C980 1.511 . S
C983 H997 0.961 . S
C983 H998 0.961 . S
C983 H999 0.961 . S
C984 C985 1.370 . S
C984 C986 1.363 . S
C984 H1000 0.931 . S
C985 C984 1.370 . S
C985 C989 1.408 . S
C986 C984 1.363 . S
C986 C987 1.370 . S
C986 C990 1.524 . S
C987 C979 1.503 . S
C987 C986 1.370 . S
C987 C988 1.403 . S
C988 C987 1.403 . S
C988 C989 1.404 . S
C988 C991 1.539 . S
C989 C985 1.408 . S
C989 C988 1.404 . S
C989 H1001 0.930 . S
C990 C986 1.524 . S
C990 H1002 0.956 . S
C990 H1003 0.961 . S
C990 H1004 0.961 . S
C991 C988 1.539 . S
C991 H1005 0.958 . S
C991 H1006 0.961 . S
C991 H1007 0.960 . S
H992 C976 0.931 . S
H993 C981 0.929 . S
H994 C982 0.960 . S
H995 C982 0.962 . S
H996 C982 0.960 . S
H997 C983 0.961 . S
H998 C983 0.961 . S
H999 C983 0.961 . S
H1000 C984 0.931 . S
H1001 C989 0.930 . S
H1002 C990 0.956 . S
H1003 C990 0.961 . S
H1004 C990 0.961 . S
H1005 C991 0.958 . S
H1006 C991 0.961 . S
H1007 C991 0.960 . S
C1008 C1009 1.391 1_554 S
C1008 C1010 1.394 . S
C1008 H1024 0.931 . S
C1009 C1008 1.391 1_556 S
C1009 C1013 1.376 . S
C1010 C1008 1.394 . S
C1010 C1011 1.369 1_554 S
C1010 C1014 1.531 1_565 S
C1011 C1010 1.369 1_556 S
C1011 C1012 1.410 . S
C1011 C1019 1.503 1_566 S
C1012 C1011 1.410 . S
C1012 C1013 1.392 . S
C1012 C1015 1.511 . S
C1013 C1009 1.376 . S
C1013 C1012 1.392 . S
C1013 H1025 0.929 . S
C1014 C1010 1.531 1_545 S
C1014 H1026 0.960 . S
C1014 H1027 0.962 . S
C1014 H1028 0.964 . S
C1015 C1012 1.511 . S
C1015 H1029 0.961 . S
C1015 H1030 0.961 . S
C1015 H1031 0.961 . S
C1016 C1017 1.370 . S
C1016 C1018 1.363 1_554 S
C1016 H1032 0.931 1_554 S
C1017 C1016 1.370 . S
C1017 C1021 1.408 . S
C1018 C1016 1.363 1_556 S
C1018 C1019 1.370 1_556 S
C1018 C1022 1.524 . S
C1019 C1011 1.503 1_544 S
C1019 C1018 1.370 1_554 S
C1019 C1020 1.403 1_545 S
C1020 C1019 1.403 1_565 S
C1020 C1021 1.404 1_565 S
C1020 C1023 1.539 . S
C1021 C1017 1.408 . S
C1021 C1020 1.404 1_545 S
C1021 H1033 0.930 . S
C1022 C1018 1.524 . S
C1022 H1034 0.956 . S
C1022 H1035 0.961 . S
C1022 H1036 0.961 . S
C1023 C1020 1.539 . S
C1023 H1037 0.958 . S
C1023 H1038 0.961 . S
C1023 H1039 0.960 . S
H1024 C1008 0.931 . S
H1025 C1013 0.929 . S
H1026 C1014 0.960 . S
H1027 C1014 0.962 . S
H1028 C1014 0.964 . S
H1029 C1015 0.961 . S
H1030 C1015 0.961 . S
H1031 C1015 0.961 . S
H1032 C1016 0.931 1_556 S
H1033 C1021 0.930 . S
H1034 C1022 0.956 . S
H1035 C1022 0.961 . S
H1036 C1022 0.961 . S
H1037 C1023 0.958 . S
H1038 C1023 0.961 . S
H1039 C1023 0.960 . S
C1040 C1041 1.391 . S
C1040 C1042 1.394 . S
C1040 H1056 0.931 . S
C1041 C1040 1.391 . S
C1041 C1045 1.376 . S
C1042 C1040 1.394 . S
C1042 C1043 1.369 . S
C1042 C1046 1.531 . S
C1043 C1042 1.369 . S
C1043 C1044 1.410 . S
C1043 C1051 1.503 . S
C1044 C1043 1.410 . S
C1044 C1045 1.392 . S
C1044 C1047 1.511 . S
C1045 C1041 1.376 . S
C1045 C1044 1.392 . S
C1045 H1057 0.929 . S
C1046 C1042 1.531 . S
C1046 H1058 0.960 . S
C1046 H1059 0.962 . S
C1046 H1060 0.960 . S
C1047 C1044 1.511 . S
C1047 H1061 0.961 . S
C1047 H1062 0.961 . S
C1047 H1063 0.961 . S
C1048 C1049 1.370 . S
C1048 C1050 1.363 . S
C1048 H1064 0.931 . S
C1049 C1048 1.370 . S
C1049 C1053 1.408 . S
C1050 C1048 1.363 . S
C1050 C1051 1.370 . S
C1050 C1054 1.524 . S
C1051 C1043 1.503 . S
C1051 C1050 1.370 . S
C1051 C1052 1.403 . S
C1052 C1051 1.403 . S
C1052 C1053 1.404 . S
C1052 C1055 1.539 . S
C1053 C1049 1.408 . S
C1053 C1052 1.404 . S
C1053 H1065 0.930 . S
C1054 C1050 1.524 . S
C1054 H1066 0.956 . S
C1054 H1067 0.961 . S
C1054 H1068 0.961 . S
C1055 C1052 1.539 . S
C1055 H1069 0.958 . S
C1055 H1070 0.961 . S
C1055 H1071 0.960 . S
H1056 C1040 0.931 . S
H1057 C1045 0.929 . S
H1058 C1046 0.960 . S
H1059 C1046 0.962 . S
H1060 C1046 0.960 . S
H1061 C1047 0.961 . S
H1062 C1047 0.961 . S
H1063 C1047 0.961 . S
H1064 C1048 0.931 . S
H1065 C1053 0.930 . S
H1066 C1054 0.956 . S
H1067 C1054 0.961 . S
H1068 C1054 0.961 . S
H1069 C1055 0.958 . S
H1070 C1055 0.961 . S
H1071 C1055 0.960 . S
C1072 C1073 1.391 . S
C1072 C1074 1.394 . S
C1072 H1088 0.931 . S
C1073 C1072 1.391 . S
C1073 C1077 1.376 . S
C1074 C1072 1.394 . S
C1074 C1075 1.369 . S
C1074 C1078 1.531 . S
C1075 C1074 1.369 . S
C1075 C1076 1.410 . S
C1075 C1083 1.503 . S
C1076 C1075 1.410 . S
C1076 C1077 1.392 . S
C1076 C1079 1.511 . S
C1077 C1073 1.376 . S
C1077 C1076 1.392 . S
C1077 H1089 0.929 . S
C1078 C1074 1.531 . S
C1078 H1090 0.960 . S
C1078 H1091 0.962 . S
C1078 H1092 0.960 . S
C1079 C1076 1.511 . S
C1079 H1093 0.961 . S
C1079 H1094 0.961 . S
C1079 H1095 0.961 . S
C1080 C1081 1.370 . S
C1080 C1082 1.363 . S
C1080 H1096 0.931 . S
C1081 C1080 1.370 . S
C1081 C1085 1.408 . S
C1082 C1080 1.363 . S
C1082 C1083 1.370 . S
C1082 C1086 1.524 . S
C1083 C1075 1.503 . S
C1083 C1082 1.370 . S
C1083 C1084 1.403 . S
C1084 C1083 1.403 . S
C1084 C1085 1.404 . S
C1084 C1087 1.539 . S
C1085 C1081 1.408 . S
C1085 C1084 1.404 . S
C1085 H1097 0.930 . S
C1086 C1082 1.524 . S
C1086 H1098 0.956 . S
C1086 H1099 0.961 . S
C1086 H1100 0.961 . S
C1087 C1084 1.539 . S
C1087 H1101 0.958 . S
C1087 H1102 0.961 . S
C1087 H1103 0.960 . S
H1088 C1072 0.931 . S
H1089 C1077 0.929 . S
H1090 C1078 0.960 . S
H1091 C1078 0.962 . S
H1092 C1078 0.960 . S
H1093 C1079 0.961 . S
H1094 C1079 0.961 . S
H1095 C1079 0.961 . S
H1096 C1080 0.931 . S
H1097 C1085 0.930 . S
H1098 C1086 0.956 . S
H1099 C1086 0.961 . S
H1100 C1086 0.961 . S
H1101 C1087 0.958 . S
H1102 C1087 0.961 . S
H1103 C1087 0.960 . S
C1104 C1105 1.391 . S
C1104 C1106 1.394 . S
C1104 H1120 0.931 . S
C1105 C1104 1.391 . S
C1105 C1109 1.376 . S
C1106 C1104 1.394 . S
C1106 C1107 1.369 . S
C1106 C1110 1.531 . S
C1107 C1106 1.369 . S
C1107 C1108 1.410 . S
C1107 C1115 1.503 . S
C1108 C1107 1.410 . S
C1108 C1109 1.392 . S
C1108 C1111 1.511 . S
C1109 C1105 1.376 . S
C1109 C1108 1.392 . S
C1109 H1121 0.929 . S
C1110 C1106 1.531 . S
C1110 H1122 0.960 . S
C1110 H1123 0.962 . S
C1110 H1124 0.960 . S
C1111 C1108 1.511 . S
C1111 H1125 0.961 . S
C1111 H1126 0.961 . S
C1111 H1127 0.961 . S
C1112 C1113 1.370 . S
C1112 C1114 1.363 . S
C1112 H1128 0.931 . S
C1113 C1112 1.370 . S
C1113 C1117 1.408 . S
C1114 C1112 1.363 . S
C1114 C1115 1.370 . S
C1114 C1118 1.524 . S
C1115 C1107 1.503 . S
C1115 C1114 1.370 . S
C1115 C1116 1.403 . S
C1116 C1115 1.403 . S
C1116 C1117 1.404 . S
C1116 C1119 1.539 . S
C1117 C1113 1.408 . S
C1117 C1116 1.404 . S
C1117 H1129 0.930 . S
C1118 C1114 1.524 . S
C1118 H1130 0.956 . S
C1118 H1131 0.961 . S
C1118 H1132 0.961 . S
C1119 C1116 1.539 . S
C1119 H1133 0.958 . S
C1119 H1134 0.961 . S
C1119 H1135 0.960 . S
H1120 C1104 0.931 . S
H1121 C1109 0.929 . S
H1122 C1110 0.960 . S
H1123 C1110 0.962 . S
H1124 C1110 0.960 . S
H1125 C1111 0.961 . S
H1126 C1111 0.961 . S
H1127 C1111 0.961 . S
H1128 C1112 0.931 . S
H1129 C1117 0.930 . S
H1130 C1118 0.956 . S
H1131 C1118 0.961 . S
H1132 C1118 0.961 . S
H1133 C1119 0.958 . S
H1134 C1119 0.961 . S
H1135 C1119 0.960 . S
C1136 C1137 1.391 . S
C1136 C1138 1.394 . S
C1136 H1152 0.931 . S
C1137 C1136 1.391 . S
C1137 C1141 1.376 . S
C1138 C1136 1.394 . S
C1138 C1139 1.369 . S
C1138 C1142 1.531 . S
C1139 C1138 1.369 . S
C1139 C1140 1.410 . S
C1139 C1147 1.503 . S
C1140 C1139 1.410 . S
C1140 C1141 1.392 . S
C1140 C1143 1.511 . S
C1141 C1137 1.376 . S
C1141 C1140 1.392 . S
C1141 H1153 0.929 . S
C1142 C1138 1.531 . S
C1142 H1154 0.960 . S
C1142 H1155 0.962 . S
C1142 H1156 0.960 . S
C1143 C1140 1.511 . S
C1143 H1157 0.961 . S
C1143 H1158 0.961 . S
C1143 H1159 0.961 . S
C1144 C1145 1.370 . S
C1144 C1146 1.363 . S
C1144 H1160 0.931 . S
C1145 C1144 1.370 . S
C1145 C1149 1.408 . S
C1146 C1144 1.363 . S
C1146 C1147 1.370 . S
C1146 C1150 1.524 . S
C1147 C1139 1.503 . S
C1147 C1146 1.370 . S
C1147 C1148 1.403 . S
C1148 C1147 1.403 . S
C1148 C1149 1.404 . S
C1148 C1151 1.539 . S
C1149 C1145 1.408 . S
C1149 C1148 1.404 . S
C1149 H1161 0.930 . S
C1150 C1146 1.524 . S
C1150 H1162 0.956 . S
C1150 H1163 0.961 . S
C1150 H1164 0.961 . S
C1151 C1148 1.539 . S
C1151 H1165 0.958 . S
C1151 H1166 0.961 . S
C1151 H1167 0.960 . S
H1152 C1136 0.931 . S
H1153 C1141 0.929 . S
H1154 C1142 0.960 . S
H1155 C1142 0.962 . S
H1156 C1142 0.960 . S
H1157 C1143 0.961 . S
H1158 C1143 0.961 . S
H1159 C1143 0.961 . S
H1160 C1144 0.931 . S
H1161 C1149 0.930 . S
H1162 C1150 0.956 . S
H1163 C1150 0.961 . S
H1164 C1150 0.961 . S
H1165 C1151 0.958 . S
H1166 C1151 0.961 . S
H1167 C1151 0.960 . S
C1168 C1169 1.391 . S
C1168 C1170 1.394 . S
C1168 H1184 0.931 . S
C1169 C1168 1.391 . S
C1169 C1173 1.376 . S
C1170 C1168 1.394 . S
C1170 C1171 1.369 . S
C1170 C1174 1.531 . S
C1171 C1170 1.369 . S
C1171 C1172 1.410 . S
C1171 C1179 1.503 . S
C1172 C1171 1.410 . S
C1172 C1173 1.392 . S
C1172 C1175 1.511 . S
C1173 C1169 1.376 . S
C1173 C1172 1.392 . S
C1173 H1185 0.929 . S
C1174 C1170 1.531 . S
C1174 H1186 0.960 . S
C1174 H1187 0.962 . S
C1174 H1188 0.960 . S
C1175 C1172 1.511 . S
C1175 H1189 0.961 . S
C1175 H1190 0.961 . S
C1175 H1191 0.961 . S
C1176 C1177 1.370 . S
C1176 C1178 1.363 1_556 S
C1176 H1192 0.931 . S
C1177 C1176 1.370 . S
C1177 C1181 1.408 . S
C1178 C1176 1.363 1_554 S
C1178 C1179 1.370 . S
C1178 C1182 1.524 . S
C1179 C1171 1.503 . S
C1179 C1178 1.370 . S
C1179 C1180 1.403 . S
C1180 C1179 1.403 . S
C1180 C1181 1.404 1_554 S
C1180 C1183 1.539 . S
C1181 C1177 1.408 . S
C1181 C1180 1.404 1_556 S
C1181 H1193 0.930 . S
C1182 C1178 1.524 . S
C1182 H1194 0.956 . S
C1182 H1195 0.961 . S
C1182 H1196 0.961 . S
C1183 C1180 1.539 . S
C1183 H1197 0.958 . S
C1183 H1198 0.961 . S
C1183 H1199 0.960 . S
H1184 C1168 0.931 . S
H1185 C1173 0.929 . S
H1186 C1174 0.960 . S
H1187 C1174 0.962 . S
H1188 C1174 0.960 . S
H1189 C1175 0.961 . S
H1190 C1175 0.961 . S
H1191 C1175 0.961 . S
H1192 C1176 0.931 . S
H1193 C1181 0.930 . S
H1194 C1182 0.956 . S
H1195 C1182 0.961 . S
H1196 C1182 0.961 . S
H1197 C1183 0.958 . S
H1198 C1183 0.961 . S
H1199 C1183 0.960 . S
C1200 C1201 1.391 . S
C1200 C1202 1.394 . S
C1200 H1216 0.931 . S
C1201 C1200 1.391 . S
C1201 C1205 1.376 . S
C1202 C1200 1.394 . S
C1202 C1203 1.369 . S
C1202 C1206 1.531 . S
C1203 C1202 1.369 . S
C1203 C1204 1.410 . S
C1203 C1211 1.503 . S
C1204 C1203 1.410 . S
C1204 C1205 1.392 . S
C1204 C1207 1.511 . S
C1205 C1201 1.376 . S
C1205 C1204 1.392 . S
C1205 H1217 0.929 . S
C1206 C1202 1.531 . S
C1206 H1218 0.960 . S
C1206 H1219 0.962 . S
C1206 H1220 0.960 . S
C1207 C1204 1.511 . S
C1207 H1221 0.961 . S
C1207 H1222 0.961 . S
C1207 H1223 0.961 . S
C1208 C1209 1.370 . S
C1208 C1210 1.363 1_556 S
C1208 H1224 0.931 . S
C1209 C1208 1.370 . S
C1209 C1213 1.408 . S
C1210 C1208 1.363 1_554 S
C1210 C1211 1.370 . S
C1210 C1214 1.524 . S
C1211 C1203 1.503 . S
C1211 C1210 1.370 . S
C1211 C1212 1.403 . S
C1212 C1211 1.403 . S
C1212 C1213 1.404 1_554 S
C1212 C1215 1.539 . S
C1213 C1209 1.408 . S
C1213 C1212 1.404 1_556 S
C1213 H1225 0.930 . S
C1214 C1210 1.524 . S
C1214 H1226 0.956 . S
C1214 H1227 0.961 . S
C1214 H1228 0.961 . S
C1215 C1212 1.539 . S
C1215 H1229 0.958 . S
C1215 H1230 0.961 . S
C1215 H1231 0.960 . S
H1216 C1200 0.931 . S
H1217 C1205 0.929 . S
H1218 C1206 0.960 . S
H1219 C1206 0.962 . S
H1220 C1206 0.960 . S
H1221 C1207 0.961 . S
H1222 C1207 0.961 . S
H1223 C1207 0.961 . S
H1224 C1208 0.931 . S
H1225 C1213 0.930 . S
H1226 C1214 0.956 . S
H1227 C1214 0.961 . S
H1228 C1214 0.961 . S
H1229 C1215 0.958 . S
H1230 C1215 0.961 . S
H1231 C1215 0.960 . S
C1232 C1233 1.391 . S
C1232 C1234 1.394 1_554 S
C1232 H1248 0.931 . S
C1233 C1232 1.391 . S
C1233 C1237 1.376 . S
C1234 C1232 1.394 1_556 S
C1234 C1235 1.369 . S
C1234 C1238 1.531 . S
C1235 C1234 1.369 . S
C1235 C1236 1.410 . S
C1235 C1243 1.503 . S
C1236 C1235 1.410 . S
C1236 C1237 1.392 1_556 S
C1236 C1239 1.511 . S
C1237 C1233 1.376 . S
C1237 C1236 1.392 1_554 S
C1237 H1249 0.929 . S
C1238 C1234 1.531 . S
C1238 H1250 0.960 . S
C1238 H1251 0.962 . S
C1238 H1252 0.960 . S
C1239 C1236 1.511 . S
C1239 H1253 0.961 . S
C1239 H1254 0.961 . S
C1239 H1255 0.961 . S
C1240 C1241 1.370 . S
C1240 C1242 1.363 . S
C1240 H1256 0.931 . S
C1241 C1240 1.370 . S
C1241 C1245 1.408 . S
C1242 C1240 1.363 . S
C1242 C1243 1.370 . S
C1242 C1246 1.524 . S
C1243 C1235 1.503 . S
C1243 C1242 1.370 . S
C1243 C1244 1.403 . S
C1244 C1243 1.403 . S
C1244 C1245 1.404 . S
C1244 C1247 1.539 . S
C1245 C1241 1.408 . S
C1245 C1244 1.404 . S
C1245 H1257 0.930 . S
C1246 C1242 1.524 . S
C1246 H1258 0.956 . S
C1246 H1259 0.961 . S
C1246 H1260 0.961 . S
C1247 C1244 1.539 . S
C1247 H1261 0.958 . S
C1247 H1262 0.961 . S
C1247 H1263 0.960 . S
H1248 C1232 0.931 . S
H1249 C1237 0.929 . S
H1250 C1238 0.960 . S
H1251 C1238 0.962 . S
H1252 C1238 0.960 . S
H1253 C1239 0.961 . S
H1254 C1239 0.961 . S
H1255 C1239 0.961 . S
H1256 C1240 0.931 . S
H1257 C1245 0.930 . S
H1258 C1246 0.956 . S
H1259 C1246 0.961 . S
H1260 C1246 0.961 . S
H1261 C1247 0.958 . S
H1262 C1247 0.961 . S
H1263 C1247 0.960 . S
C1264 C1265 1.391 . S
C1264 C1266 1.394 1_554 S
C1264 H1280 0.931 . S
C1265 C1264 1.391 . S
C1265 C1269 1.376 . S
C1266 C1264 1.394 1_556 S
C1266 C1267 1.369 . S
C1266 C1270 1.531 . S
C1267 C1266 1.369 . S
C1267 C1268 1.410 . S
C1267 C1275 1.503 . S
C1268 C1267 1.410 . S
C1268 C1269 1.392 1_556 S
C1268 C1271 1.511 . S
C1269 C1265 1.376 . S
C1269 C1268 1.392 1_554 S
C1269 H1281 0.929 . S
C1270 C1266 1.531 . S
C1270 H1282 0.960 . S
C1270 H1283 0.962 . S
C1270 H1284 0.960 . S
C1271 C1268 1.511 . S
C1271 H1285 0.961 . S
C1271 H1286 0.961 . S
C1271 H1287 0.961 . S
C1272 C1273 1.370 . S
C1272 C1274 1.363 . S
C1272 H1288 0.931 . S
C1273 C1272 1.370 . S
C1273 C1277 1.408 . S
C1274 C1272 1.363 . S
C1274 C1275 1.370 . S
C1274 C1278 1.524 . S
C1275 C1267 1.503 . S
C1275 C1274 1.370 . S
C1275 C1276 1.403 . S
C1276 C1275 1.403 . S
C1276 C1277 1.404 . S
C1276 C1279 1.539 . S
C1277 C1273 1.408 . S
C1277 C1276 1.404 . S
C1277 H1289 0.930 . S
C1278 C1274 1.524 . S
C1278 H1290 0.956 . S
C1278 H1291 0.961 . S
C1278 H1292 0.961 . S
C1279 C1276 1.539 . S
C1279 H1293 0.958 . S
C1279 H1294 0.961 . S
C1279 H1295 0.960 . S
H1280 C1264 0.931 . S
H1281 C1269 0.929 . S
H1282 C1270 0.960 . S
H1283 C1270 0.962 . S
H1284 C1270 0.960 . S
H1285 C1271 0.961 . S
H1286 C1271 0.961 . S
H1287 C1271 0.961 . S
H1288 C1272 0.931 . S
H1289 C1277 0.930 . S
H1290 C1278 0.956 . S
H1291 C1278 0.961 . S
H1292 C1278 0.961 . S
H1293 C1279 0.958 . S
H1294 C1279 0.961 . S
H1295 C1279 0.960 . S
C1296 C1297 1.391 . S
C1296 C1298 1.394 1_556 S
C1296 H1312 0.931 . S
C1297 C1296 1.391 . S
C1297 C1301 1.376 . S
C1298 C1296 1.394 1_554 S
C1298 C1299 1.369 . S
C1298 C1302 1.531 . S
C1299 C1298 1.369 . S
C1299 C1300 1.410 . S
C1299 C1307 1.503 . S
C1300 C1299 1.410 . S
C1300 C1301 1.392 1_554 S
C1300 C1303 1.511 . S
C1301 C1297 1.376 . S
C1301 C1300 1.392 1_556 S
C1301 H1313 0.929 . S
C1302 C1298 1.531 . S
C1302 H1314 0.960 . S
C1302 H1315 0.962 . S
C1302 H1316 0.960 . S
C1303 C1300 1.511 . S
C1303 H1317 0.961 . S
C1303 H1318 0.961 . S
C1303 H1319 0.961 . S
C1304 C1305 1.370 . S
C1304 C1306 1.363 . S
C1304 H1320 0.931 . S
C1305 C1304 1.370 . S
C1305 C1309 1.408 . S
C1306 C1304 1.363 . S
C1306 C1307 1.370 . S
C1306 C1310 1.524 . S
C1307 C1299 1.503 . S
C1307 C1306 1.370 . S
C1307 C1308 1.403 . S
C1308 C1307 1.403 . S
C1308 C1309 1.404 . S
C1308 C1311 1.539 . S
C1309 C1305 1.408 . S
C1309 C1308 1.404 . S
C1309 H1321 0.930 . S
C1310 C1306 1.524 . S
C1310 H1322 0.956 . S
C1310 H1323 0.961 . S
C1310 H1324 0.961 . S
C1311 C1308 1.539 . S
C1311 H1325 0.958 . S
C1311 H1326 0.961 . S
C1311 H1327 0.960 . S
H1312 C1296 0.931 . S
H1313 C1301 0.929 . S
H1314 C1302 0.960 . S
H1315 C1302 0.962 . S
H1316 C1302 0.960 . S
H1317 C1303 0.961 . S
H1318 C1303 0.961 . S
H1319 C1303 0.961 . S
H1320 C1304 0.931 . S
H1321 C1309 0.930 . S
H1322 C1310 0.956 . S
H1323 C1310 0.961 . S
H1324 C1310 0.961 . S
H1325 C1311 0.958 . S
H1326 C1311 0.961 . S
H1327 C1311 0.960 . S
C1328 C1329 1.391 . S
C1328 C1330 1.394 1_556 S
C1328 H1344 0.931 . S
C1329 C1328 1.391 . S
C1329 C1333 1.376 . S
C1330 C1328 1.394 1_554 S
C1330 C1331 1.369 . S
C1330 C1334 1.531 . S
C1331 C1330 1.369 . S
C1331 C1332 1.410 . S
C1331 C1339 1.503 . S
C1332 C1331 1.410 . S
C1332 C1333 1.392 1_554 S
C1332 C1335 1.511 . S
C1333 C1329 1.376 . S
C1333 C1332 1.392 1_556 S
C1333 H1345 0.929 . S
C1334 C1330 1.531 . S
C1334 H1346 0.960 . S
C1334 H1347 0.962 . S
C1334 H1348 0.960 . S
C1335 C1332 1.511 . S
C1335 H1349 0.961 . S
C1335 H1350 0.961 . S
C1335 H1351 0.961 . S
C1336 C1337 1.370 . S
C1336 C1338 1.363 . S
C1336 H1352 0.931 . S
C1337 C1336 1.370 . S
C1337 C1341 1.408 . S
C1338 C1336 1.363 . S
C1338 C1339 1.370 . S
C1338 C1342 1.524 . S
C1339 C1331 1.503 . S
C1339 C1338 1.370 . S
C1339 C1340 1.403 . S
C1340 C1339 1.403 . S
C1340 C1341 1.404 . S
C1340 C1343 1.539 . S
C1341 C1337 1.408 . S
C1341 C1340 1.404 . S
C1341 H1353 0.930 . S
C1342 C1338 1.524 . S
C1342 H1354 0.956 . S
C1342 H1355 0.961 . S
C1342 H1356 0.961 . S
C1343 C1340 1.539 . S
C1343 H1357 0.958 . S
C1343 H1358 0.961 . S
C1343 H1359 0.960 . S
H1344 C1328 0.931 . S
H1345 C1333 0.929 . S
H1346 C1334 0.960 . S
H1347 C1334 0.962 . S
H1348 C1334 0.960 . S
H1349 C1335 0.961 . S
H1350 C1335 0.961 . S
H1351 C1335 0.961 . S
H1352 C1336 0.931 . S
H1353 C1341 0.930 . S
H1354 C1342 0.956 . S
H1355 C1342 0.961 . S
H1356 C1342 0.961 . S
H1357 C1343 0.958 . S
H1358 C1343 0.961 . S
H1359 C1343 0.960 . S
C1360 C1361 1.391 . S
C1360 C1362 1.394 1_554 S
C1360 H1376 0.931 . S
C1361 C1360 1.391 . S
C1361 C1365 1.376 . S
C1362 C1360 1.394 1_556 S
C1362 C1363 1.369 . S
C1362 C1366 1.531 . S
C1363 C1362 1.369 . S
C1363 C1364 1.410 . S
C1363 C1371 1.503 . S
C1364 C1363 1.410 . S
C1364 C1365 1.392 1_556 S
C1364 C1367 1.511 . S
C1365 C1361 1.376 . S
C1365 C1364 1.392 1_554 S
C1365 H1377 0.929 . S
C1366 C1362 1.531 . S
C1366 H1378 0.960 . S
C1366 H1379 0.962 . S
C1366 H1380 0.960 . S
C1367 C1364 1.511 . S
C1367 H1381 0.961 . S
C1367 H1382 0.961 . S
C1367 H1383 0.961 . S
C1368 C1369 1.370 . S
C1368 C1370 1.363 . S
C1368 H1384 0.931 . S
C1369 C1368 1.370 . S
C1369 C1373 1.408 . S
C1370 C1368 1.363 . S
C1370 C1371 1.370 . S
C1370 C1374 1.524 . S
C1371 C1363 1.503 . S
C1371 C1370 1.370 . S
C1371 C1372 1.403 . S
C1372 C1371 1.403 . S
C1372 C1373 1.404 . S
C1372 C1375 1.539 . S
C1373 C1369 1.408 . S
C1373 C1372 1.404 . S
C1373 H1385 0.930 . S
C1374 C1370 1.524 . S
C1374 H1386 0.956 . S
C1374 H1387 0.961 . S
C1374 H1388 0.961 . S
C1375 C1372 1.539 . S
C1375 H1389 0.958 . S
C1375 H1390 0.961 . S
C1375 H1391 0.960 . S
H1376 C1360 0.931 . S
H1377 C1365 0.929 . S
H1378 C1366 0.960 . S
H1379 C1366 0.962 . S
H1380 C1366 0.960 . S
H1381 C1367 0.961 . S
H1382 C1367 0.961 . S
H1383 C1367 0.961 . S
H1384 C1368 0.931 . S
H1385 C1373 0.930 . S
H1386 C1374 0.956 . S
H1387 C1374 0.961 . S
H1388 C1374 0.961 . S
H1389 C1375 0.958 . S
H1390 C1375 0.961 . S
H1391 C1375 0.960 . S
C1392 C1393 1.391 . S
C1392 C1394 1.394 1_554 S
C1392 H1408 0.931 . S
C1393 C1392 1.391 . S
C1393 C1397 1.376 . S
C1394 C1392 1.394 1_556 S
C1394 C1395 1.369 . S
C1394 C1398 1.531 . S
C1395 C1394 1.369 . S
C1395 C1396 1.410 . S
C1395 C1403 1.503 . S
C1396 C1395 1.410 . S
C1396 C1397 1.392 1_556 S
C1396 C1399 1.511 . S
C1397 C1393 1.376 . S
C1397 C1396 1.392 1_554 S
C1397 H1409 0.929 . S
C1398 C1394 1.531 . S
C1398 H1410 0.960 . S
C1398 H1411 0.962 . S
C1398 H1412 0.960 . S
C1399 C1396 1.511 . S
C1399 H1413 0.961 . S
C1399 H1414 0.961 . S
C1399 H1415 0.961 . S
C1400 C1401 1.370 . S
C1400 C1402 1.363 . S
C1400 H1416 0.931 . S
C1401 C1400 1.370 . S
C1401 C1405 1.408 . S
C1402 C1400 1.363 . S
C1402 C1403 1.370 . S
C1402 C1406 1.524 . S
C1403 C1395 1.503 . S
C1403 C1402 1.370 . S
C1403 C1404 1.403 . S
C1404 C1403 1.403 . S
C1404 C1405 1.404 . S
C1404 C1407 1.539 . S
C1405 C1401 1.408 . S
C1405 C1404 1.404 . S
C1405 H1417 0.930 . S
C1406 C1402 1.524 . S
C1406 H1418 0.956 . S
C1406 H1419 0.961 . S
C1406 H1420 0.961 . S
C1407 C1404 1.539 . S
C1407 H1421 0.958 . S
C1407 H1422 0.961 . S
C1407 H1423 0.960 . S
H1408 C1392 0.931 . S
H1409 C1397 0.929 . S
H1410 C1398 0.960 . S
H1411 C1398 0.962 . S
H1412 C1398 0.960 . S
H1413 C1399 0.961 . S
H1414 C1399 0.961 . S
H1415 C1399 0.961 . S
H1416 C1400 0.931 . S
H1417 C1405 0.930 . S
H1418 C1406 0.956 . S
H1419 C1406 0.961 . S
H1420 C1406 0.961 . S
H1421 C1407 0.958 . S
H1422 C1407 0.961 . S
H1423 C1407 0.960 . S
C1424 C1425 1.391 . S
C1424 C1426 1.394 . S
C1424 H1440 0.931 . S
C1425 C1424 1.391 . S
C1425 C1429 1.376 . S
C1426 C1424 1.394 . S
C1426 C1427 1.369 . S
C1426 C1430 1.531 . S
C1427 C1426 1.369 . S
C1427 C1428 1.410 . S
C1427 C1435 1.503 . S
C1428 C1427 1.410 . S
C1428 C1429 1.392 . S
C1428 C1431 1.511 . S
C1429 C1425 1.376 . S
C1429 C1428 1.392 . S
C1429 H1441 0.929 . S
C1430 C1426 1.531 . S
C1430 H1442 0.960 . S
C1430 H1443 0.962 . S
C1430 H1444 0.960 . S
C1431 C1428 1.511 . S
C1431 H1445 0.961 . S
C1431 H1446 0.961 . S
C1431 H1447 0.961 . S
C1432 C1433 1.370 . S
C1432 C1434 1.363 . S
C1432 H1448 0.931 . S
C1433 C1432 1.370 . S
C1433 C1437 1.408 . S
C1434 C1432 1.363 . S
C1434 C1435 1.370 . S
C1434 C1438 1.524 . S
C1435 C1427 1.503 . S
C1435 C1434 1.370 . S
C1435 C1436 1.403 . S
C1436 C1435 1.403 . S
C1436 C1437 1.404 . S
C1436 C1439 1.539 . S
C1437 C1433 1.408 . S
C1437 C1436 1.404 . S
C1437 H1449 0.930 . S
C1438 C1434 1.524 . S
C1438 H1450 0.956 . S
C1438 H1451 0.961 . S
C1438 H1452 0.961 . S
C1439 C1436 1.539 . S
C1439 H1453 0.958 . S
C1439 H1454 0.961 . S
C1439 H1455 0.960 . S
H1440 C1424 0.931 . S
H1441 C1429 0.929 . S
H1442 C1430 0.960 . S
H1443 C1430 0.962 . S
H1444 C1430 0.960 . S
H1445 C1431 0.961 . S
H1446 C1431 0.961 . S
H1447 C1431 0.961 . S
H1448 C1432 0.931 . S
H1449 C1437 0.930 . S
H1450 C1438 0.956 . S
H1451 C1438 0.961 . S
H1452 C1438 0.961 . S
H1453 C1439 0.958 . S
H1454 C1439 0.961 . S
H1455 C1439 0.960 . S
C1456 C1457 1.391 . S
C1456 C1458 1.394 . S
C1456 H1472 0.931 . S
C1457 C1456 1.391 . S
C1457 C1461 1.376 . S
C1458 C1456 1.394 . S
C1458 C1459 1.369 . S
C1458 C1462 1.531 . S
C1459 C1458 1.369 . S
C1459 C1460 1.410 . S
C1459 C1467 1.503 . S
C1460 C1459 1.410 . S
C1460 C1461 1.392 . S
C1460 C1463 1.511 . S
C1461 C1457 1.376 . S
C1461 C1460 1.392 . S
C1461 H1473 0.929 . S
C1462 C1458 1.531 . S
C1462 H1474 0.960 . S
C1462 H1475 0.962 . S
C1462 H1476 0.960 . S
C1463 C1460 1.511 . S
C1463 H1477 0.961 . S
C1463 H1478 0.961 . S
C1463 H1479 0.961 . S
C1464 C1465 1.370 . S
C1464 C1466 1.363 . S
C1464 H1480 0.931 . S
C1465 C1464 1.370 . S
C1465 C1469 1.408 . S
C1466 C1464 1.363 . S
C1466 C1467 1.370 . S
C1466 C1470 1.524 . S
C1467 C1459 1.503 . S
C1467 C1466 1.370 . S
C1467 C1468 1.403 . S
C1468 C1467 1.403 . S
C1468 C1469 1.404 . S
C1468 C1471 1.539 . S
C1469 C1465 1.408 . S
C1469 C1468 1.404 . S
C1469 H1481 0.930 . S
C1470 C1466 1.524 . S
C1470 H1482 0.956 . S
C1470 H1483 0.961 . S
C1470 H1484 0.961 . S
C1471 C1468 1.539 . S
C1471 H1485 0.958 . S
C1471 H1486 0.961 . S
C1471 H1487 0.960 . S
H1472 C1456 0.931 . S
H1473 C1461 0.929 . S
H1474 C1462 0.960 . S
H1475 C1462 0.962 . S
H1476 C1462 0.960 . S
H1477 C1463 0.961 . S
H1478 C1463 0.961 . S
H1479 C1463 0.961 . S
H1480 C1464 0.931 . S
H1481 C1469 0.930 . S
H1482 C1470 0.956 . S
H1483 C1470 0.961 . S
H1484 C1470 0.961 . S
H1485 C1471 0.958 . S
H1486 C1471 0.961 . S
H1487 C1471 0.960 . S
C1488 C1489 1.391 . S
C1488 C1490 1.394 . S
C1488 H1504 0.931 . S
C1489 C1488 1.391 . S
C1489 C1493 1.376 . S
C1490 C1488 1.394 . S
C1490 C1491 1.369 . S
C1490 C1494 1.531 . S
C1491 C1490 1.369 . S
C1491 C1492 1.410 . S
C1491 C1499 1.503 . S
C1492 C1491 1.410 . S
C1492 C1493 1.392 . S
C1492 C1495 1.511 . S
C1493 C1489 1.376 . S
C1493 C1492 1.392 . S
C1493 H1505 0.929 . S
C1494 C1490 1.531 . S
C1494 H1506 0.960 . S
C1494 H1507 0.962 . S
C1494 H1508 0.960 . S
C1495 C1492 1.511 . S
C1495 H1509 0.961 . S
C1495 H1510 0.961 . S
C1495 H1511 0.961 . S
C1496 C1497 1.370 . S
C1496 C1498 1.363 . S
C1496 H1512 0.931 . S
C1497 C1496 1.370 . S
C1497 C1501 1.408 . S
C1498 C1496 1.363 . S
C1498 C1499 1.370 . S
C1498 C1502 1.524 . S
C1499 C1491 1.503 . S
C1499 C1498 1.370 . S
C1499 C1500 1.403 . S
C1500 C1499 1.403 . S
C1500 C1501 1.404 . S
C1500 C1503 1.539 . S
C1501 C1497 1.408 . S
C1501 C1500 1.404 . S
C1501 H1513 0.930 . S
C1502 C1498 1.524 . S
C1502 H1514 0.956 . S
C1502 H1515 0.961 . S
C1502 H1516 0.961 . S
C1503 C1500 1.539 . S
C1503 H1517 0.958 . S
C1503 H1518 0.961 . S
C1503 H1519 0.960 . S
H1504 C1488 0.931 . S
H1505 C1493 0.929 . S
H1506 C1494 0.960 . S
H1507 C1494 0.962 . S
H1508 C1494 0.960 . S
H1509 C1495 0.961 . S
H1510 C1495 0.961 . S
H1511 C1495 0.961 . S
H1512 C1496 0.931 . S
H1513 C1501 0.930 . S
H1514 C1502 0.956 . S
H1515 C1502 0.961 . S
H1516 C1502 0.961 . S
H1517 C1503 0.958 . S
H1518 C1503 0.961 . S
H1519 C1503 0.960 . S
C1520 C1521 1.391 . S
C1520 C1522 1.394 . S
C1520 H1536 0.931 . S
C1521 C1520 1.391 . S
C1521 C1525 1.376 . S
C1522 C1520 1.394 . S
C1522 C1523 1.369 . S
C1522 C1526 1.531 . S
C1523 C1522 1.369 . S
C1523 C1524 1.410 . S
C1523 C1531 1.503 . S
C1524 C1523 1.410 . S
C1524 C1525 1.392 . S
C1524 C1527 1.511 . S
C1525 C1521 1.376 . S
C1525 C1524 1.392 . S
C1525 H1537 0.929 . S
C1526 C1522 1.531 . S
C1526 H1538 0.960 . S
C1526 H1539 0.962 . S
C1526 H1540 0.960 . S
C1527 C1524 1.511 . S
C1527 H1541 0.961 . S
C1527 H1542 0.961 . S
C1527 H1543 0.961 . S
C1528 C1529 1.370 . S
C1528 C1530 1.363 . S
C1528 H1544 0.931 . S
C1529 C1528 1.370 . S
C1529 C1533 1.408 . S
C1530 C1528 1.363 . S
C1530 C1531 1.370 . S
C1530 C1534 1.524 . S
C1531 C1523 1.503 . S
C1531 C1530 1.370 . S
C1531 C1532 1.403 . S
C1532 C1531 1.403 . S
C1532 C1533 1.404 . S
C1532 C1535 1.539 . S
C1533 C1529 1.408 . S
C1533 C1532 1.404 . S
C1533 H1545 0.930 . S
C1534 C1530 1.524 . S
C1534 H1546 0.956 . S
C1534 H1547 0.961 . S
C1534 H1548 0.961 . S
C1535 C1532 1.539 . S
C1535 H1549 0.958 . S
C1535 H1550 0.961 . S
C1535 H1551 0.960 . S
H1536 C1520 0.931 . S
H1537 C1525 0.929 . S
H1538 C1526 0.960 . S
H1539 C1526 0.962 . S
H1540 C1526 0.960 . S
H1541 C1527 0.961 . S
H1542 C1527 0.961 . S
H1543 C1527 0.961 . S
H1544 C1528 0.931 . S
H1545 C1533 0.930 . S
H1546 C1534 0.956 . S
H1547 C1534 0.961 . S
H1548 C1534 0.961 . S
H1549 C1535 0.958 . S
H1550 C1535 0.961 . S
H1551 C1535 0.960 . S
C1552 C1553 1.391 . S
C1552 C1554 1.394 . S
C1552 H1568 0.931 . S
C1553 C1552 1.391 . S
C1553 C1557 1.376 . S
C1554 C1552 1.394 . S
C1554 C1555 1.369 . S
C1554 C1558 1.531 . S
C1555 C1554 1.369 . S
C1555 C1556 1.410 . S
C1555 C1563 1.503 . S
C1556 C1555 1.410 . S
C1556 C1557 1.392 . S
C1556 C1559 1.511 . S
C1557 C1553 1.376 . S
C1557 C1556 1.392 . S
C1557 H1569 0.929 . S
C1558 C1554 1.531 . S
C1558 H1570 0.960 . S
C1558 H1571 0.962 . S
C1558 H1572 0.960 . S
C1559 C1556 1.511 . S
C1559 H1573 0.961 1_554 S
C1559 H1574 0.961 . S
C1559 H1575 0.961 . S
C1560 C1561 1.370 . S
C1560 C1562 1.363 . S
C1560 H1576 0.931 . S
C1561 C1560 1.370 . S
C1561 C1565 1.408 . S
C1562 C1560 1.363 . S
C1562 C1563 1.370 . S
C1562 C1566 1.524 . S
C1563 C1555 1.503 . S
C1563 C1562 1.370 . S
C1563 C1564 1.403 . S
C1564 C1563 1.403 . S
C1564 C1565 1.404 . S
C1564 C1567 1.539 . S
C1565 C1561 1.408 . S
C1565 C1564 1.404 . S
C1565 H1577 0.930 . S
C1566 C1562 1.524 . S
C1566 H1578 0.956 . S
C1566 H1579 0.961 . S
C1566 H1580 0.961 . S
C1567 C1564 1.539 . S
C1567 H1581 0.958 . S
C1567 H1582 0.961 . S
C1567 H1583 0.960 . S
H1568 C1552 0.931 . S
H1569 C1557 0.929 . S
H1570 C1558 0.960 . S
H1571 C1558 0.962 . S
H1572 C1558 0.960 . S
H1573 C1559 0.961 1_556 S
H1574 C1559 0.961 . S
H1575 C1559 0.961 . S
H1576 C1560 0.931 . S
H1577 C1565 0.930 . S
H1578 C1566 0.956 . S
H1579 C1566 0.961 . S
H1580 C1566 0.961 . S
H1581 C1567 0.958 . S
H1582 C1567 0.961 . S
H1583 C1567 0.960 . S
C1584 C1585 1.391 . S
C1584 C1586 1.394 . S
C1584 H1600 0.931 . S
C1585 C1584 1.391 . S
C1585 C1589 1.376 . S
C1586 C1584 1.394 . S
C1586 C1587 1.369 . S
C1586 C1590 1.531 . S
C1587 C1586 1.369 . S
C1587 C1588 1.410 . S
C1587 C1595 1.503 . S
C1588 C1587 1.410 . S
C1588 C1589 1.392 . S
C1588 C1591 1.511 . S
C1589 C1585 1.376 . S
C1589 C1588 1.392 . S
C1589 H1601 0.929 . S
C1590 C1586 1.531 . S
C1590 H1602 0.960 . S
C1590 H1603 0.962 . S
C1590 H1604 0.960 . S
C1591 C1588 1.511 . S
C1591 H1605 0.961 . S
C1591 H1606 0.961 . S
C1591 H1607 0.961 . S
C1592 C1593 1.370 . S
C1592 C1594 1.363 . S
C1592 H1608 0.931 . S
C1593 C1592 1.370 . S
C1593 C1597 1.408 . S
C1594 C1592 1.363 . S
C1594 C1595 1.370 . S
C1594 C1598 1.524 . S
C1595 C1587 1.503 . S
C1595 C1594 1.370 . S
C1595 C1596 1.403 . S
C1596 C1595 1.403 . S
C1596 C1597 1.404 . S
C1596 C1599 1.539 1_556 S
C1597 C1593 1.408 . S
C1597 C1596 1.404 . S
C1597 H1609 0.930 . S
C1598 C1594 1.524 . S
C1598 H1610 0.956 . S
C1598 H1611 0.961 . S
C1598 H1612 0.961 . S
C1599 C1596 1.539 1_554 S
C1599 H1613 0.958 . S
C1599 H1614 0.961 . S
C1599 H1615 0.959 1_554 S
H1600 C1584 0.931 . S
H1601 C1589 0.929 . S
H1602 C1590 0.960 . S
H1603 C1590 0.962 . S
H1604 C1590 0.960 . S
H1605 C1591 0.961 . S
H1606 C1591 0.961 . S
H1607 C1591 0.961 . S
H1608 C1592 0.931 . S
H1609 C1597 0.930 . S
H1610 C1598 0.956 . S
H1611 C1598 0.961 . S
H1612 C1598 0.961 . S
H1613 C1599 0.958 . S
H1614 C1599 0.961 . S
H1615 C1599 0.959 1_556 S
C1616 C1617 1.391 . S
C1616 C1618 1.394 . S
C1616 H1632 0.931 . S
C1617 C1616 1.391 . S
C1617 C1621 1.376 . S
C1618 C1616 1.394 . S
C1618 C1619 1.369 . S
C1618 C1622 1.531 . S
C1619 C1618 1.369 . S
C1619 C1620 1.410 . S
C1619 C1627 1.503 . S
C1620 C1619 1.410 . S
C1620 C1621 1.392 . S
C1620 C1623 1.511 . S
C1621 C1617 1.376 . S
C1621 C1620 1.392 . S
C1621 H1633 0.929 . S
C1622 C1618 1.531 . S
C1622 H1634 0.960 . S
C1622 H1635 0.962 . S
C1622 H1636 0.960 . S
C1623 C1620 1.511 . S
C1623 H1637 0.961 . S
C1623 H1638 0.961 . S
C1623 H1639 0.961 . S
C1624 C1625 1.370 . S
C1624 C1626 1.363 . S
C1624 H1640 0.931 . S
C1625 C1624 1.370 . S
C1625 C1629 1.408 . S
C1626 C1624 1.363 . S
C1626 C1627 1.370 . S
C1626 C1630 1.524 . S
C1627 C1619 1.503 . S
C1627 C1626 1.370 . S
C1627 C1628 1.403 . S
C1628 C1627 1.403 . S
C1628 C1629 1.404 . S
C1628 C1631 1.539 . S
C1629 C1625 1.408 . S
C1629 C1628 1.404 . S
C1629 H1641 0.930 . S
C1630 C1626 1.524 . S
C1630 H1642 0.956 . S
C1630 H1643 0.961 . S
C1630 H1644 0.961 . S
C1631 C1628 1.539 . S
C1631 H1645 0.958 . S
C1631 H1646 0.961 . S
C1631 H1647 0.960 . S
H1632 C1616 0.931 . S
H1633 C1621 0.929 . S
H1634 C1622 0.960 . S
H1635 C1622 0.962 . S
H1636 C1622 0.960 . S
H1637 C1623 0.961 . S
H1638 C1623 0.961 . S
H1639 C1623 0.961 . S
H1640 C1624 0.931 . S
H1641 C1629 0.930 . S
H1642 C1630 0.956 . S
H1643 C1630 0.961 . S
H1644 C1630 0.961 . S
H1645 C1631 0.958 . S
H1646 C1631 0.961 . S
H1647 C1631 0.960 . S
C1648 C1649 1.391 . S
C1648 C1650 1.394 . S
C1648 H1664 0.931 . S
C1649 C1648 1.391 . S
C1649 C1653 1.376 . S
C1650 C1648 1.394 . S
C1650 C1651 1.369 . S
C1650 C1654 1.531 . S
C1651 C1650 1.369 . S
C1651 C1652 1.410 . S
C1651 C1659 1.503 . S
C1652 C1651 1.410 . S
C1652 C1653 1.392 . S
C1652 C1655 1.511 . S
C1653 C1649 1.376 . S
C1653 C1652 1.392 . S
C1653 H1665 0.929 . S
C1654 C1650 1.531 . S
C1654 H1666 0.960 . S
C1654 H1667 0.962 . S
C1654 H1668 0.960 . S
C1655 C1652 1.511 . S
C1655 H1669 0.961 . S
C1655 H1670 0.961 . S
C1655 H1671 0.961 . S
C1656 C1657 1.370 . S
C1656 C1658 1.363 . S
C1656 H1672 0.931 . S
C1657 C1656 1.370 . S
C1657 C1661 1.408 . S
C1658 C1656 1.363 . S
C1658 C1659 1.370 . S
C1658 C1662 1.524 . S
C1659 C1651 1.503 . S
C1659 C1658 1.370 . S
C1659 C1660 1.403 . S
C1660 C1659 1.403 . S
C1660 C1661 1.404 . S
C1660 C1663 1.539 . S
C1661 C1657 1.408 . S
C1661 C1660 1.404 . S
C1661 H1673 0.930 . S
C1662 C1658 1.524 . S
C1662 H1674 0.956 . S
C1662 H1675 0.961 . S
C1662 H1676 0.961 . S
C1663 C1660 1.539 . S
C1663 H1677 0.958 . S
C1663 H1678 0.961 . S
C1663 H1679 0.960 . S
H1664 C1648 0.931 . S
H1665 C1653 0.929 . S
H1666 C1654 0.960 . S
H1667 C1654 0.962 . S
H1668 C1654 0.960 . S
H1669 C1655 0.961 . S
H1670 C1655 0.961 . S
H1671 C1655 0.961 . S
H1672 C1656 0.931 . S
H1673 C1661 0.930 . S
H1674 C1662 0.956 . S
H1675 C1662 0.961 . S
H1676 C1662 0.961 . S
H1677 C1663 0.958 . S
H1678 C1663 0.961 . S
H1679 C1663 0.960 . S
C1680 C1681 1.391 . S
C1680 C1682 1.394 . S
C1680 H1696 0.931 . S
C1681 C1680 1.391 . S
C1681 C1685 1.376 . S
C1682 C1680 1.394 . S
C1682 C1683 1.369 . S
C1682 C1686 1.531 . S
C1683 C1682 1.369 . S
C1683 C1684 1.410 . S
C1683 C1691 1.503 . S
C1684 C1683 1.410 . S
C1684 C1685 1.392 . S
C1684 C1687 1.511 . S
C1685 C1681 1.376 . S
C1685 C1684 1.392 . S
C1685 H1697 0.929 . S
C1686 C1682 1.531 . S
C1686 H1698 0.960 . S
C1686 H1699 0.962 . S
C1686 H1700 0.960 . S
C1687 C1684 1.511 . S
C1687 H1701 0.961 . S
C1687 H1702 0.961 . S
C1687 H1703 0.961 . S
C1688 C1689 1.370 . S
C1688 C1690 1.363 . S
C1688 H1704 0.931 . S
C1689 C1688 1.370 . S
C1689 C1693 1.408 . S
C1690 C1688 1.363 . S
C1690 C1691 1.370 . S
C1690 C1694 1.524 . S
C1691 C1683 1.503 . S
C1691 C1690 1.370 . S
C1691 C1692 1.403 . S
C1692 C1691 1.403 . S
C1692 C1693 1.404 . S
C1692 C1695 1.539 . S
C1693 C1689 1.408 . S
C1693 C1692 1.404 . S
C1693 H1705 0.930 . S
C1694 C1690 1.524 . S
C1694 H1706 0.956 . S
C1694 H1707 0.961 . S
C1694 H1708 0.961 . S
C1695 C1692 1.539 . S
C1695 H1709 0.958 . S
C1695 H1710 0.961 . S
C1695 H1711 0.960 . S
H1696 C1680 0.931 . S
H1697 C1685 0.929 . S
H1698 C1686 0.960 . S
H1699 C1686 0.962 . S
H1700 C1686 0.960 . S
H1701 C1687 0.961 . S
H1702 C1687 0.961 . S
H1703 C1687 0.961 . S
H1704 C1688 0.931 . S
H1705 C1693 0.930 . S
H1706 C1694 0.956 . S
H1707 C1694 0.961 . S
H1708 C1694 0.961 . S
H1709 C1695 0.958 . S
H1710 C1695 0.961 . S
H1711 C1695 0.960 . S
C1712 C1713 1.391 . S
C1712 C1714 1.394 . S
C1712 H1728 0.931 . S
C1713 C1712 1.391 . S
C1713 C1717 1.376 . S
C1714 C1712 1.394 . S
C1714 C1715 1.369 . S
C1714 C1718 1.531 . S
C1715 C1714 1.369 . S
C1715 C1716 1.410 . S
C1715 C1723 1.503 . S
C1716 C1715 1.410 . S
C1716 C1717 1.392 . S
C1716 C1719 1.511 . S
C1717 C1713 1.376 . S
C1717 C1716 1.392 . S
C1717 H1729 0.929 . S
C1718 C1714 1.531 . S
C1718 H1730 0.960 . S
C1718 H1731 0.962 . S
C1718 H1732 0.960 . S
C1719 C1716 1.511 . S
C1719 H1733 0.961 . S
C1719 H1734 0.961 . S
C1719 H1735 0.961 . S
C1720 C1721 1.370 . S
C1720 C1722 1.363 . S
C1720 H1736 0.931 . S
C1721 C1720 1.370 . S
C1721 C1725 1.408 . S
C1722 C1720 1.363 . S
C1722 C1723 1.370 . S
C1722 C1726 1.524 . S
C1723 C1715 1.503 . S
C1723 C1722 1.370 . S
C1723 C1724 1.403 . S
C1724 C1723 1.403 . S
C1724 C1725 1.404 . S
C1724 C1727 1.539 . S
C1725 C1721 1.408 . S
C1725 C1724 1.404 . S
C1725 H1737 0.930 . S
C1726 C1722 1.524 . S
C1726 H1738 0.956 . S
C1726 H1739 0.961 . S
C1726 H1740 0.961 . S
C1727 C1724 1.539 . S
C1727 H1741 0.958 . S
C1727 H1742 0.961 . S
C1727 H1743 0.960 . S
H1728 C1712 0.931 . S
H1729 C1717 0.929 . S
H1730 C1718 0.960 . S
H1731 C1718 0.962 . S
H1732 C1718 0.960 . S
H1733 C1719 0.961 . S
H1734 C1719 0.961 . S
H1735 C1719 0.961 . S
H1736 C1720 0.931 . S
H1737 C1725 0.930 . S
H1738 C1726 0.956 . S
H1739 C1726 0.961 . S
H1740 C1726 0.961 . S
H1741 C1727 0.958 . S
H1742 C1727 0.961 . S
H1743 C1727 0.960 . S
C1744 C1745 1.391 . S
C1744 C1746 1.394 . S
C1744 H1760 0.931 . S
C1745 C1744 1.391 . S
C1745 C1749 1.376 . S
C1746 C1744 1.394 . S
C1746 C1747 1.369 . S
C1746 C1750 1.531 . S
C1747 C1746 1.369 . S
C1747 C1748 1.410 . S
C1747 C1755 1.503 . S
C1748 C1747 1.410 . S
C1748 C1749 1.392 . S
C1748 C1751 1.511 . S
C1749 C1745 1.376 . S
C1749 C1748 1.392 . S
C1749 H1761 0.929 . S
C1750 C1746 1.531 . S
C1750 H1762 0.960 . S
C1750 H1763 0.962 . S
C1750 H1764 0.960 . S
C1751 C1748 1.511 . S
C1751 H1765 0.961 . S
C1751 H1766 0.961 . S
C1751 H1767 0.961 . S
C1752 C1753 1.370 . S
C1752 C1754 1.363 . S
C1752 H1768 0.931 . S
C1753 C1752 1.370 . S
C1753 C1757 1.408 . S
C1754 C1752 1.363 . S
C1754 C1755 1.370 . S
C1754 C1758 1.524 . S
C1755 C1747 1.503 . S
C1755 C1754 1.370 . S
C1755 C1756 1.403 . S
C1756 C1755 1.403 . S
C1756 C1757 1.404 . S
C1756 C1759 1.539 1_554 S
C1757 C1753 1.408 . S
C1757 C1756 1.404 . S
C1757 H1769 0.930 . S
C1758 C1754 1.524 . S
C1758 H1770 0.956 . S
C1758 H1771 0.961 . S
C1758 H1772 0.961 . S
C1759 C1756 1.539 1_556 S
C1759 H1773 0.958 . S
C1759 H1774 0.961 . S
C1759 H1775 0.960 . S
H1760 C1744 0.931 . S
H1761 C1749 0.929 . S
H1762 C1750 0.960 . S
H1763 C1750 0.962 . S
H1764 C1750 0.960 . S
H1765 C1751 0.961 . S
H1766 C1751 0.961 . S
H1767 C1751 0.961 . S
H1768 C1752 0.931 . S
H1769 C1757 0.930 . S
H1770 C1758 0.956 . S
H1771 C1758 0.961 . S
H1772 C1758 0.961 . S
H1773 C1759 0.958 . S
H1774 C1759 0.961 . S
H1775 C1759 0.960 . S
C1776 C1777 1.391 . S
C1776 C1778 1.394 . S
C1776 H1792 0.931 . S
C1777 C1776 1.391 . S
C1777 C1781 1.376 . S
C1778 C1776 1.394 . S
C1778 C1779 1.369 . S
C1778 C1782 1.531 . S
C1779 C1778 1.369 . S
C1779 C1780 1.410 . S
C1779 C1787 1.503 . S
C1780 C1779 1.410 . S
C1780 C1781 1.392 . S
C1780 C1783 1.511 . S
C1781 C1777 1.376 . S
C1781 C1780 1.392 . S
C1781 H1793 0.929 . S
C1782 C1778 1.531 . S
C1782 H1794 0.960 . S
C1782 H1795 0.962 . S
C1782 H1796 0.960 . S
C1783 C1780 1.511 . S
C1783 H1797 0.961 1_556 S
C1783 H1798 0.961 . S
C1783 H1799 0.961 . S
C1784 C1785 1.370 . S
C1784 C1786 1.363 . S
C1784 H1800 0.931 . S
C1785 C1784 1.370 . S
C1785 C1789 1.408 . S
C1786 C1784 1.363 . S
C1786 C1787 1.370 . S
C1786 C1790 1.524 . S
C1787 C1779 1.503 . S
C1787 C1786 1.370 . S
C1787 C1788 1.403 . S
C1788 C1787 1.403 . S
C1788 C1789 1.404 . S
C1788 C1791 1.539 . S
C1789 C1785 1.408 . S
C1789 C1788 1.404 . S
C1789 H1801 0.930 . S
C1790 C1786 1.524 . S
C1790 H1802 0.956 . S
C1790 H1803 0.961 . S
C1790 H1804 0.961 . S
C1791 C1788 1.539 . S
C1791 H1805 0.958 . S
C1791 H1806 0.961 . S
C1791 H1807 0.960 . S
H1792 C1776 0.931 . S
H1793 C1781 0.929 . S
H1794 C1782 0.960 . S
H1795 C1782 0.962 . S
H1796 C1782 0.960 . S
H1797 C1783 0.961 1_554 S
H1798 C1783 0.961 . S
H1799 C1783 0.961 . S
H1800 C1784 0.931 . S
H1801 C1789 0.930 . S
H1802 C1790 0.956 . S
H1803 C1790 0.961 . S
H1804 C1790 0.961 . S
H1805 C1791 0.958 . S
H1806 C1791 0.961 . S
H1807 C1791 0.960 . S
C529 C338 1.510 . S
C537 C8 1.507 . S
C561 C61 1.499 . S
C569 C259 1.510 . S
C593 C503 1.499 . S
C601 C41 1.511 . S
C625 C94 1.500 . S
C633 C28 1.510 . S
C657 C74 1.497 . S
C665 C272 1.512 . S
C689 C193 1.507 . S
C697 C127 1.506 . S
C721 C437 1.514 . S
C729 C107 1.505 . S
C753 C470 1.506 . S
C761 C140 1.508 . S
C785 C173 1.500 . S
C793 C371 1.510 . S
C817 C226 1.510 . S
C825 C160 1.506 . S
C849 C404 1.502 . S
C857 C206 1.510 . S
C881 C305 1.503 . S
C889 C239 1.509 . S
C913 C523 1.498 . S
C921 C325 1.510 . S
C945 C292 1.509 . S
C953 C358 1.506 . S
C977 C391 1.499 . S
C985 C457 1.510 . S
C1009 C490 1.507 . S
C1017 C424 1.507 . S
C1041 N14 1.341 . S
C1049 N5 1.377 . S
C1073 N47 1.381 . S
C1081 N38 1.362 . S
C1105 N80 1.366 . S
C1113 N71 1.366 . S
C1137 N113 1.364 . S
C1145 N104 1.371 . S
C1169 N137 1.357 . S
C1177 N146 1.370 . S
C1201 N179 1.341 . S
C1209 N170 1.377 . S
C1233 N212 1.358 . S
C1241 N203 1.369 . S
C1265 N236 1.348 . S
C1273 N245 1.374 . S
C1297 N278 1.339 . S
C1305 N269 1.377 . S
C1329 N302 1.385 . S
C1337 N311 1.356 . S
C1361 N344 1.370 . S
C1369 N335 1.369 . S
C1393 N368 1.348 . S
C1401 N377 1.374 . S
C1425 N410 1.342 . S
C1433 N401 1.377 . S
C1457 N443 1.375 . S
C1465 N434 1.364 . S
C1489 N476 1.362 . S
C1497 N467 1.367 . S
C1521 N509 1.381 . S
C1529 N500 1.364 . S
C1553 C17 1.499 . S
C1561 C50 1.498 . S
C1585 C83 1.489 . S
C1593 C116 1.501 . S
C1617 C149 1.500 . S
C1625 C182 1.496 . S
C1649 C215 1.488 . S
C1657 C248 1.501 . S
C1681 C314 1.496 . S
C1689 C281 1.499 . S
C1713 C347 1.489 . S
C1721 C380 1.501 . S
C1745 C446 1.501 . S
C1753 C413 1.496 . S
C1777 C512 1.492 . S
C1785 C479 1.500 . S
